# Generated by pormake.
# Topology uku, (4)-cn, num edge types: 1
# Building blocks:
#     Node 0, Type 0, BuildingBlock: QUQFOY_clean_sbu_1, # of connection points: 4
#     Node 1, Type 0, BuildingBlock: QUQFOY_clean_sbu_1, # of connection points: 4
#     Node 2, Type 0, BuildingBlock: QUQFOY_clean_sbu_1, # of connection points: 4
#     Node 3, Type 0, BuildingBlock: QUQFOY_clean_sbu_1, # of connection points: 4
#     Node 4, Type 0, BuildingBlock: QUQFOY_clean_sbu_1, # of connection points: 4
#     Node 5, Type 0, BuildingBlock: QUQFOY_clean_sbu_1, # of connection points: 4
#     Node 6, Type 0, BuildingBlock: QUQFOY_clean_sbu_1, # of connection points: 4
#     Node 7, Type 0, BuildingBlock: QUQFOY_clean_sbu_1, # of connection points: 4
#     Node 8, Type 0, BuildingBlock: QUQFOY_clean_sbu_1, # of connection points: 4
#     Node 9, Type 0, BuildingBlock: QUQFOY_clean_sbu_1, # of connection points: 4
#     Node 10, Type 0, BuildingBlock: QUQFOY_clean_sbu_1, # of connection points: 4
#     Node 11, Type 0, BuildingBlock: QUQFOY_clean_sbu_1, # of connection points: 4
#     Edge 12, Type (0, 0), BuildingBlock: MIFKUJ_clean_linker_0, # of connection points: 2
#     Edge 13, Type (0, 0), BuildingBlock: MIFKUJ_clean_linker_0, # of connection points: 2
#     Edge 14, Type (0, 0), BuildingBlock: MIFKUJ_clean_linker_0, # of connection points: 2
#     Edge 15, Type (0, 0), BuildingBlock: MIFKUJ_clean_linker_0, # of connection points: 2
#     Edge 16, Type (0, 0), BuildingBlock: MIFKUJ_clean_linker_0, # of connection points: 2
#     Edge 17, Type (0, 0), BuildingBlock: MIFKUJ_clean_linker_0, # of connection points: 2
#     Edge 18, Type (0, 0), BuildingBlock: MIFKUJ_clean_linker_0, # of connection points: 2
#     Edge 19, Type (0, 0), BuildingBlock: MIFKUJ_clean_linker_0, # of connection points: 2
#     Edge 20, Type (0, 0), BuildingBlock: MIFKUJ_clean_linker_0, # of connection points: 2
#     Edge 21, Type (0, 0), BuildingBlock: MIFKUJ_clean_linker_0, # of connection points: 2
#     Edge 22, Type (0, 0), BuildingBlock: MIFKUJ_clean_linker_0, # of connection points: 2
#     Edge 23, Type (0, 0), BuildingBlock: MIFKUJ_clean_linker_0, # of connection points: 2
#     Edge 24, Type (0, 0), BuildingBlock: MIFKUJ_clean_linker_0, # of connection points: 2
#     Edge 25, Type (0, 0), BuildingBlock: MIFKUJ_clean_linker_0, # of connection points: 2
#     Edge 26, Type (0, 0), BuildingBlock: MIFKUJ_clean_linker_0, # of connection points: 2
#     Edge 27, Type (0, 0), BuildingBlock: MIFKUJ_clean_linker_0, # of connection points: 2
#     Edge 28, Type (0, 0), BuildingBlock: MIFKUJ_clean_linker_0, # of connection points: 2
#     Edge 29, Type (0, 0), BuildingBlock: MIFKUJ_clean_linker_0, # of connection points: 2
#     Edge 30, Type (0, 0), BuildingBlock: MIFKUJ_clean_linker_0, # of connection points: 2
#     Edge 31, Type (0, 0), BuildingBlock: MIFKUJ_clean_linker_0, # of connection points: 2
#     Edge 32, Type (0, 0), BuildingBlock: MIFKUJ_clean_linker_0, # of connection points: 2
#     Edge 33, Type (0, 0), BuildingBlock: MIFKUJ_clean_linker_0, # of connection points: 2
#     Edge 34, Type (0, 0), BuildingBlock: MIFKUJ_clean_linker_0, # of connection points: 2
#     Edge 35, Type (0, 0), BuildingBlock: MIFKUJ_clean_linker_0, # of connection points: 2
# Relax obj value: 0.261
# Max RMSD: 0.219
# Mean RMSD: 0.219
data_MOF--net-uku--node1-QUQFOY_clean_sbu_1--edge1-MIFKUJ_clean_linker_0
_symmetry_space_group_name_H-M    P1
_symmetry_Int_Tables_number       1
_symmetry_cell_setting            triclinic
loop_
_symmetry_equiv_pos_as_xyz
'x, y, z'
_cell_length_a     55.759106
_cell_length_b     55.796198
_cell_length_c     55.785308
_cell_angle_alpha  90.002558
_cell_angle_beta   90.008233
_cell_angle_gamma 90.032302
loop_
_atom_site_label
_atom_site_type_symbol
_atom_site_fract_x
_atom_site_fract_y
_atom_site_fract_z
_atom_type_partial_charge
O0 O 0.07785 0.11579 0.62515 0.0
Cd1 Cd 0.09944 0.14509 0.61959 0.0
Cd2 Cd 0.0865 0.15519 0.66427 0.0
O3 O 0.06261 0.12722 0.65979 0.0
O4 O 0.09886 0.14997 0.58434 0.0
O5 O 0.08248 0.17534 0.61015 0.0
C6 C 0.08586 0.16874 0.58818 0.0
C7 C 0.07564 0.19073 0.68345 0.0
C8 C 0.06338 0.11251 0.64241 0.0
C9 C 0.13856 0.14263 0.65492 0.0
O10 O 0.12179 0.1462 0.66992 0.0
O11 O 0.13421 0.14285 0.63254 0.0
O12 O 0.07724 0.17076 0.69494 0.0
O13 O 0.07886 0.19032 0.66052 0.0
O14 O 0.92427 0.884 0.62152 0.0
Cd15 Cd 0.90408 0.85328 0.61763 0.0
Cd16 Cd 0.92173 0.8435 0.65996 0.0
O17 O 0.94573 0.87035 0.65181 0.0
O18 O 0.90313 0.8442 0.58301 0.0
O19 O 0.92368 0.8243 0.61063 0.0
C20 C 0.9182 0.82743 0.58836 0.0
C21 C 0.93223 0.80744 0.67832 0.0
C22 C 0.94165 0.88637 0.63611 0.0
C23 C 0.86929 0.85585 0.65684 0.0
O24 O 0.88803 0.8546 0.6697 0.0
O25 O 0.87078 0.85294 0.63426 0.0
O26 O 0.93376 0.82757 0.68955 0.0
O27 O 0.92643 0.80797 0.65594 0.0
O28 O 0.07991 0.88667 0.37703 0.0
Cd29 Cd 0.10049 0.85614 0.38036 0.0
Cd30 Cd 0.08648 0.84956 0.3359 0.0
O31 O 0.06127 0.87522 0.34406 0.0
O32 O 0.09872 0.84522 0.41443 0.0
O33 O 0.08111 0.82639 0.38417 0.0
C34 C 0.08445 0.82853 0.40698 0.0
C35 C 0.07798 0.81426 0.31511 0.0
C36 C 0.06371 0.88992 0.36131 0.0
C37 C 0.13813 0.86259 0.34438 0.0
O38 O 0.12048 0.86219 0.32999 0.0
O39 O 0.13504 0.85749 0.3664 0.0
O40 O 0.07707 0.83486 0.30467 0.0
O41 O 0.08233 0.81381 0.33781 0.0
O42 O 0.92189 0.1168 0.37527 0.0
Cd43 Cd 0.90028 0.1465 0.37921 0.0
Cd44 Cd 0.91663 0.15569 0.33627 0.0
O45 O 0.94172 0.12968 0.34362 0.0
O46 O 0.89884 0.15213 0.4144 0.0
O47 O 0.91727 0.17655 0.38905 0.0
C48 C 0.9125 0.17052 0.41091 0.0
C49 C 0.92645 0.19234 0.31877 0.0
C50 C 0.93878 0.11433 0.36018 0.0
C51 C 0.86464 0.14155 0.34096 0.0
O52 O 0.88297 0.14347 0.32757 0.0
O53 O 0.86655 0.14489 0.36345 0.0
O54 O 0.92767 0.17257 0.30686 0.0
O55 O 0.92087 0.19116 0.3412 0.0
O56 O 0.61742 0.08868 0.11112 0.0
Cd57 Cd 0.61351 0.10644 0.14313 0.0
Cd58 Cd 0.65717 0.09001 0.15082 0.0
O59 O 0.64827 0.06703 0.12304 0.0
O60 O 0.57914 0.10444 0.15303 0.0
O61 O 0.60855 0.08441 0.17079 0.0
C62 C 0.58586 0.08847 0.16843 0.0
C63 C 0.67796 0.07867 0.18529 0.0
C64 C 0.63207 0.07158 0.10762 0.0
C65 C 0.65102 0.14308 0.14256 0.0
O66 O 0.66478 0.12495 0.1421 0.0
O67 O 0.62854 0.14035 0.14539 0.0
O68 O 0.68814 0.0786 0.16454 0.0
O69 O 0.65528 0.08323 0.1862 0.0
O70 O 0.38684 0.90888 0.11441 0.0
Cd71 Cd 0.39295 0.88749 0.14358 0.0
Cd72 Cd 0.34804 0.89967 0.15571 0.0
O73 O 0.35277 0.92391 0.12786 0.0
O74 O 0.42718 0.89125 0.15313 0.0
O75 O 0.39655 0.90604 0.17379 0.0
C76 C 0.41945 0.90457 0.17046 0.0
C77 C 0.32754 0.91003 0.1908 0.0
C78 C 0.3695 0.92348 0.11234 0.0
C79 C 0.3583 0.84785 0.14221 0.0
O80 O 0.34317 0.86425 0.14674 0.0
O81 O 0.38061 0.85255 0.14129 0.0
O82 O 0.31667 0.90844 0.17049 0.0
O83 O 0.35048 0.90709 0.19105 0.0
O84 O 0.62061 0.92189 0.88347 0.0
Cd85 Cd 0.61888 0.90221 0.85225 0.0
Cd86 Cd 0.66253 0.91762 0.84808 0.0
O87 O 0.65162 0.94355 0.87207 0.0
O88 O 0.58497 0.90301 0.84077 0.0
O89 O 0.61485 0.92231 0.823 0.0
C90 C 0.59213 0.91808 0.82468 0.0
C91 C 0.68454 0.92506 0.81332 0.0
C92 C 0.63458 0.93963 0.88672 0.0
C93 C 0.6552 0.86588 0.86065 0.0
O94 O 0.66871 0.88415 0.86217 0.0
O95 O 0.63375 0.86816 0.8532 0.0
O96 O 0.69408 0.92735 0.83427 0.0
O97 O 0.66196 0.92009 0.81217 0.0
O98 O 0.37307 0.07031 0.88722 0.0
Cd99 Cd 0.37572 0.09097 0.85667 0.0
Cd100 Cd 0.3325 0.07339 0.84881 0.0
O101 O 0.34157 0.04938 0.87544 0.0
O102 O 0.41031 0.09307 0.84753 0.0
O103 O 0.38328 0.07206 0.8273 0.0
C104 C 0.4054 0.07816 0.83049 0.0
C105 C 0.3147 0.06376 0.81221 0.0
C106 C 0.35837 0.05317 0.89042 0.0
C107 C 0.33637 0.12578 0.86067 0.0
O108 O 0.32336 0.1071 0.86012 0.0
O109 O 0.35883 0.12417 0.85697 0.0
O110 O 0.30306 0.06168 0.83208 0.0
O111 O 0.33711 0.06944 0.81333 0.0
O112 O 0.11321 0.62051 0.07413 0.0
Cd113 Cd 0.14331 0.61773 0.09538 0.0
Cd114 Cd 0.15124 0.66138 0.079 0.0
O115 O 0.12526 0.6525 0.05416 0.0
O116 O 0.15259 0.58315 0.09687 0.0
O117 O 0.17314 0.61079 0.07704 0.0
C118 C 0.1699 0.58852 0.08243 0.0
C119 C 0.18832 0.6788 0.07037 0.0
C120 C 0.11028 0.63557 0.05728 0.0
C121 C 0.13739 0.65641 0.13071 0.0
O122 O 0.13845 0.66986 0.11236 0.0
O123 O 0.14179 0.6341 0.12883 0.0
O124 O 0.16863 0.69059 0.0675 0.0
O125 O 0.18685 0.6566 0.07666 0.0
O126 O 0.11517 0.38375 0.92052 0.0
Cd127 Cd 0.14554 0.38583 0.8996 0.0
Cd128 Cd 0.15215 0.34247 0.91578 0.0
O129 O 0.12779 0.35284 0.94162 0.0
O130 O 0.15791 0.41935 0.90056 0.0
O131 O 0.17567 0.38859 0.91844 0.0
C132 C 0.17448 0.41141 0.91471 0.0
C133 C 0.18607 0.31928 0.92394 0.0
C134 C 0.11265 0.36954 0.93817 0.0
C135 C 0.13778 0.34876 0.86394 0.0
O136 O 0.13829 0.33538 0.88236 0.0
O137 O 0.14336 0.3708 0.86575 0.0
O138 O 0.16473 0.3106 0.9259 0.0
O139 O 0.18816 0.34176 0.91895 0.0
O140 O 0.88207 0.62061 0.91743 0.0
Cd141 Cd 0.85197 0.61675 0.89656 0.0
Cd142 Cd 0.84287 0.65957 0.91303 0.0
O143 O 0.86848 0.6512 0.93843 0.0
O144 O 0.84407 0.58199 0.89708 0.0
O145 O 0.8223 0.6099 0.91518 0.0
C146 C 0.82675 0.58747 0.91148 0.0
C147 C 0.80653 0.67844 0.92162 0.0
C148 C 0.88417 0.63503 0.93493 0.0
C149 C 0.85691 0.65451 0.86101 0.0
O150 O 0.85557 0.66778 0.87948 0.0
O151 O 0.85302 0.63211 0.86277 0.0
O152 O 0.82668 0.6896 0.9237 0.0
O153 O 0.8071 0.65598 0.91617 0.0
O154 O 0.88617 0.38294 0.08159 0.0
Cd155 Cd 0.85634 0.38655 0.10303 0.0
Cd156 Cd 0.84906 0.34314 0.08805 0.0
O157 O 0.87272 0.35206 0.06098 0.0
O158 O 0.84867 0.42145 0.10406 0.0
O159 O 0.82624 0.39449 0.08536 0.0
C160 C 0.83074 0.41669 0.09017 0.0
C161 C 0.81164 0.3252 0.08294 0.0
C162 C 0.88824 0.3685 0.06409 0.0
C163 C 0.86491 0.34973 0.13895 0.0
O164 O 0.86444 0.33603 0.12076 0.0
O165 O 0.85865 0.37156 0.13692 0.0
O166 O 0.83117 0.31343 0.07906 0.0
O167 O 0.81337 0.34768 0.08816 0.0
H168 H 0.9404 0.2111 0.41063 0.0
H169 H 0.96879 0.22354 0.44176 0.0
H170 H 0.94368 0.16624 0.48731 0.0
H171 H 0.91464 0.15464 0.45699 0.0
H172 H 0.95667 0.20002 0.51448 0.0
H173 H 0.99307 0.16038 0.44649 0.0
H174 H 0.00348 0.15531 0.4038 0.0
H175 H 0.03923 0.22351 0.40404 0.0
H176 H 0.0288 0.22906 0.44671 0.0
H177 H 0.08188 0.15244 0.54242 0.0
H178 H 0.05252 0.16449 0.51268 0.0
H179 H 0.02975 0.22265 0.55836 0.0
H180 H 0.05845 0.2097 0.589 0.0
H181 H 0.04078 0.19831 0.4856 0.0
H182 H 0.96988 0.23096 0.55286 0.0
H183 H 0.95925 0.22656 0.59561 0.0
H184 H 0.99231 0.15707 0.59705 0.0
H185 H 0.0029 0.16099 0.55428 0.0
C186 C 0.94046 0.20165 0.42759 0.0
C187 C 0.92548 0.18168 0.43121 0.0
C188 C 0.95684 0.20865 0.44531 0.0
C189 C 0.95894 0.1954 0.46666 0.0
C190 C 0.94259 0.17674 0.47101 0.0
C191 C 0.92594 0.17006 0.45356 0.0
C192 C 0.97952 0.19894 0.48336 0.0
C193 C 0.97506 0.19998 0.50812 0.0
C194 C 0.00362 0.19854 0.47524 0.0
C195 C 0.00989 0.19528 0.44964 0.0
C196 C 0.00302 0.17435 0.43737 0.0
C197 C 0.00894 0.17138 0.4132 0.0
C198 C 0.02193 0.18912 0.40119 0.0
C199 C 0.0291 0.20982 0.41335 0.0
C200 C 0.0232 0.21289 0.43752 0.0
C201 C 0.07099 0.16809 0.54604 0.0
C202 C 0.07227 0.17988 0.56827 0.0
C203 C 0.05416 0.17505 0.5289 0.0
C204 C 0.03841 0.19417 0.5334 0.0
C205 C 0.0412 0.20742 0.55469 0.0
C206 C 0.05778 0.20014 0.57212 0.0
C207 C 0.01792 0.1984 0.51674 0.0
C208 C 0.02241 0.19902 0.49197 0.0
C209 C 0.99383 0.19903 0.52487 0.0
C210 C 0.98745 0.19644 0.55052 0.0
C211 C 0.97485 0.21475 0.56232 0.0
C212 C 0.96883 0.21234 0.58654 0.0
C213 C 0.97519 0.19159 0.59906 0.0
C214 C 0.98748 0.17317 0.58736 0.0
C215 C 0.99351 0.17549 0.56315 0.0
H216 H 0.97054 0.18976 0.61781 0.0
H217 H 0.02651 0.18679 0.38248 0.0
H218 H 0.09074 0.82372 0.45543 0.0
H219 H 0.06059 0.81021 0.48439 0.0
H220 H 0.01321 0.79101 0.42646 0.0
H221 H 0.04341 0.80379 0.39738 0.0
H222 H 0.99882 0.83016 0.46141 0.0
H223 H 0.025 0.74842 0.45652 0.0
H224 H 0.05466 0.7157 0.45776 0.0
H225 H 0.07117 0.73285 0.53096 0.0
H226 H 0.04187 0.76594 0.53006 0.0
H227 H 0.90447 0.81965 0.5419 0.0
H228 H 0.93029 0.80686 0.50882 0.0
H229 H 0.98868 0.79626 0.55853 0.0
H230 H 0.9625 0.80742 0.59168 0.0
H231 H 0.99498 0.76704 0.52391 0.0
H232 H 0.97794 0.85148 0.5282 0.0
H233 H 0.95233 0.88751 0.5292 0.0
H234 H 0.92378 0.86961 0.45997 0.0
H235 H 0.94902 0.83329 0.45871 0.0
C236 C 0.07426 0.81582 0.44885 0.0
C237 C 0.06938 0.81501 0.42413 0.0
C238 C 0.05709 0.80807 0.46541 0.0
C239 C 0.03472 0.79968 0.4575 0.0
C240 C 0.03045 0.7973 0.43286 0.0
C241 C 0.04777 0.8046 0.41628 0.0
C242 C 0.01463 0.79761 0.47469 0.0
C243 C 0.99758 0.81603 0.47474 0.0
C244 C 0.01372 0.77969 0.49254 0.0
C245 C 0.03137 0.75982 0.49314 0.0
C246 C 0.03512 0.74539 0.47281 0.0
C247 C 0.05183 0.72673 0.47347 0.0
C248 C 0.06483 0.72223 0.49441 0.0
C249 C 0.06111 0.73636 0.51475 0.0
C250 C 0.04442 0.75506 0.51418 0.0
C251 C 0.92259 0.81386 0.5458 0.0
C252 C 0.93158 0.81482 0.5693 0.0
C253 C 0.93742 0.80671 0.52688 0.0
C254 C 0.96174 0.8014 0.53102 0.0
C255 C 0.97008 0.80042 0.55476 0.0
C256 C 0.95507 0.80687 0.57374 0.0
C257 C 0.9791 0.79975 0.51079 0.0
C258 C 0.9958 0.78086 0.51027 0.0
C259 C 0.98026 0.81771 0.49283 0.0
C260 C 0.96511 0.83954 0.4935 0.0
C261 C 0.96608 0.85516 0.51327 0.0
C262 C 0.95165 0.87563 0.51387 0.0
C263 C 0.93638 0.8808 0.49469 0.0
C264 C 0.93556 0.86555 0.47484 0.0
C265 C 0.94992 0.84502 0.47417 0.0
H266 H 0.92522 0.89666 0.49519 0.0
H267 H 0.07775 0.70778 0.49488 0.0
H268 H 0.40789 0.94488 0.19549 0.0
H269 H 0.43512 0.97751 0.20619 0.0
H270 H 0.49556 0.93463 0.18442 0.0
H271 H 0.46841 0.90203 0.17301 0.0
H272 H 0.50075 0.96906 0.22885 0.0
H273 H 0.4784 0.96374 0.14343 0.0
H274 H 0.44776 0.96023 0.1117 0.0
H275 H 0.41354 0.02426 0.13718 0.0
H276 H 0.4438 0.0279 0.16933 0.0
H277 H 0.59345 0.04447 0.18803 0.0
H278 H 0.56326 0.01494 0.19884 0.0
H279 H 0.50748 0.0672 0.18665 0.0
H280 H 0.53777 0.09649 0.1744 0.0
H281 H 0.49582 0.03026 0.16448 0.0
H282 H 0.52145 0.04122 0.24462 0.0
H283 H 0.54947 0.04528 0.27856 0.0
H284 H 0.57449 0.97344 0.26706 0.0
H285 H 0.54686 0.96904 0.23282 0.0
C286 C 0.42703 0.94202 0.19373 0.0
C287 C 0.43601 0.92096 0.18316 0.0
C288 C 0.44254 0.96073 0.19986 0.0
C289 C 0.46727 0.95848 0.19593 0.0
C290 C 0.4765 0.93662 0.18764 0.0
C291 C 0.46097 0.91805 0.18108 0.0
C292 C 0.48284 0.97994 0.19654 0.0
C293 C 0.49988 0.98249 0.21482 0.0
C294 C 0.48096 0.99775 0.17863 0.0
C295 C 0.46317 0.99592 0.15894 0.0
C296 C 0.46423 0.97696 0.14237 0.0
C297 C 0.44696 0.97496 0.1243 0.0
C298 C 0.42867 0.99197 0.12247 0.0
C299 C 0.42769 0.01107 0.13864 0.0
C300 C 0.4449 0.01312 0.15679 0.0
C301 C 0.5748 0.04991 0.18825 0.0
C302 C 0.56799 0.0728 0.18026 0.0
C303 C 0.55746 0.03297 0.19459 0.0
C304 C 0.53293 0.03874 0.19378 0.0
C305 C 0.52623 0.06218 0.18734 0.0
C306 C 0.54357 0.07898 0.18047 0.0
C307 C 0.51443 0.01962 0.19677 0.0
C308 C 0.4967 0.01732 0.17897 0.0
C309 C 0.51547 0.00234 0.21542 0.0
C310 C 0.53216 0.00486 0.23602 0.0
C311 C 0.53304 0.02634 0.2492 0.0
C312 C 0.54884 0.02869 0.26852 0.0
C313 C 0.56378 0.00965 0.27494 0.0
C314 C 0.56291 0.98818 0.26207 0.0
C315 C 0.54715 0.98573 0.24272 0.0
H316 H 0.57599 0.01151 0.2899 0.0
H317 H 0.41529 0.99035 0.10849 0.0
H318 H 0.544 0.91022 0.81899 0.0
H319 H 0.51407 0.93989 0.80668 0.0
H320 H 0.57046 0.99006 0.79008 0.0
H321 H 0.60051 0.96037 0.80171 0.0
H322 H 0.5358 0.00214 0.82902 0.0
H323 H 0.5396 0.97813 0.74666 0.0
H324 H 0.53858 0.94934 0.71316 0.0
H325 H 0.46627 0.93006 0.73132 0.0
H326 H 0.46697 0.95848 0.76518 0.0
H327 H 0.45133 0.09364 0.8228 0.0
H328 H 0.48521 0.06936 0.80906 0.0
H329 H 0.43748 0.00951 0.79753 0.0
H330 H 0.40352 0.03417 0.80965 0.0
H331 H 0.47156 0.00532 0.7676 0.0
H332 H 0.46874 0.02027 0.85249 0.0
H333 H 0.46802 0.04463 0.88939 0.0
H334 H 0.53615 0.07542 0.87089 0.0
H335 H 0.53709 0.05149 0.83368 0.0
C336 C 0.55006 0.92724 0.81189 0.0
C337 C 0.5746 0.93302 0.81153 0.0
C338 C 0.53294 0.94415 0.80482 0.0
C339 C 0.54011 0.96714 0.79756 0.0
C340 C 0.56463 0.97235 0.79552 0.0
C341 C 0.58176 0.95532 0.80215 0.0
C342 C 0.52225 0.9867 0.7964 0.0
C343 C 0.52207 0.00326 0.81527 0.0
C344 C 0.50391 0.98742 0.77896 0.0
C345 C 0.50342 0.97031 0.7586 0.0
C346 C 0.52356 0.96759 0.74367 0.0
C347 C 0.52302 0.95137 0.72457 0.0
C348 C 0.5024 0.93784 0.72015 0.0
C349 C 0.48224 0.94054 0.73478 0.0
C350 C 0.48269 0.95673 0.75391 0.0
C351 C 0.44803 0.07552 0.81664 0.0
C352 C 0.42486 0.0657 0.81756 0.0
C353 C 0.46741 0.06158 0.80896 0.0
C354 C 0.46408 0.03729 0.80305 0.0
C355 C 0.44064 0.0281 0.80214 0.0
C356 C 0.42118 0.04225 0.80913 0.0
C357 C 0.48492 0.02077 0.80044 0.0
C358 C 0.48557 0.00463 0.78107 0.0
C359 C 0.50342 0.01984 0.81789 0.0
C360 C 0.50282 0.03436 0.84016 0.0
C361 C 0.48347 0.03239 0.85621 0.0
C362 C 0.48303 0.0461 0.87718 0.0
C363 C 0.50198 0.06163 0.88243 0.0
C364 C 0.52144 0.06345 0.86675 0.0
C365 C 0.52193 0.04983 0.84571 0.0
H366 H 0.50162 0.07221 0.89869 0.0
H367 H 0.50202 0.9253 0.70535 0.0
H368 H 0.20018 0.40114 0.95498 0.0
H369 H 0.21288 0.42984 0.9855 0.0
H370 H 0.19347 0.48831 0.93893 0.0
H371 H 0.18016 0.45973 0.90841 0.0
H372 H 0.23746 0.4943 0.97467 0.0
H373 H 0.15095 0.47435 0.96745 0.0
H374 H 0.11908 0.44383 0.96393 0.0
H375 H 0.14278 0.41112 0.02946 0.0
H376 H 0.17509 0.44123 0.03307 0.0
H377 H 0.1935 0.59251 0.04001 0.0
H378 H 0.20653 0.56002 0.01414 0.0
H379 H 0.18975 0.50884 0.06975 0.0
H380 H 0.17515 0.54143 0.0952 0.0
H381 H 0.17002 0.4945 0.03274 0.0
H382 H 0.24978 0.51985 0.04625 0.0
H383 H 0.28394 0.54763 0.05022 0.0
H384 H 0.27711 0.56729 0.97613 0.0
H385 H 0.24268 0.53989 0.97176 0.0
C386 C 0.19944 0.42009 0.95081 0.0
C387 C 0.18878 0.4282 0.92944 0.0
C388 C 0.20678 0.43645 0.96829 0.0
C389 C 0.20393 0.46112 0.96447 0.0
C390 C 0.1959 0.46931 0.94211 0.0
C391 C 0.18818 0.45295 0.92474 0.0
C392 C 0.20425 0.47776 0.98508 0.0
C393 C 0.2228 0.49453 0.98744 0.0
C394 C 0.1855 0.47734 0.00208 0.0
C395 C 0.16554 0.45985 0.0004 0.0
C396 C 0.14943 0.46056 0.98102 0.0
C397 C 0.1313 0.44335 0.97901 0.0
C398 C 0.12895 0.4255 0.99643 0.0
C399 C 0.14465 0.42492 0.01596 0.0
C400 C 0.16287 0.44205 0.018 0.0
C401 C 0.19319 0.5744 0.04702 0.0
C402 C 0.18315 0.5695 0.06959 0.0
C403 C 0.20084 0.55574 0.03219 0.0
C404 C 0.19934 0.5318 0.03991 0.0
C405 C 0.19099 0.52709 0.06325 0.0
C406 C 0.18275 0.54573 0.07786 0.0
C407 C 0.20319 0.51182 0.02256 0.0
C408 C 0.18519 0.49428 0.02057 0.0
C409 C 0.22275 0.51138 0.00625 0.0
C410 C 0.24352 0.52788 0.00873 0.0
C411 C 0.25544 0.53021 0.03083 0.0
C412 C 0.27488 0.54588 0.03315 0.0
C413 C 0.28267 0.55924 0.01345 0.0
C414 C 0.27106 0.55693 0.99138 0.0
C415 C 0.25161 0.54129 0.98896 0.0
H416 H 0.29771 0.57137 0.01529 0.0
H417 H 0.11493 0.41217 0.99482 0.0
H418 H 0.79038 0.59299 0.94408 0.0
H419 H 0.78063 0.5654 0.97684 0.0
H420 H 0.8291 0.51306 0.94724 0.0
H421 H 0.8387 0.54019 0.91434 0.0
H422 H 0.76655 0.51329 0.98199 0.0
H423 H 0.86909 0.50379 0.99489 0.0
H424 H 0.90606 0.52691 0.98728 0.0
H425 H 0.86616 0.5926 0.99057 0.0
H426 H 0.82906 0.56993 0.99877 0.0
H427 H 0.80232 0.41267 0.05057 0.0
H428 H 0.79116 0.44477 0.02321 0.0
H429 H 0.81991 0.49699 0.07255 0.0
H430 H 0.83202 0.46476 0.09961 0.0
H431 H 0.83944 0.50324 0.03205 0.0
H432 H 0.75834 0.49469 0.0561 0.0
H433 H 0.72058 0.47383 0.06579 0.0
H434 H 0.7154 0.44858 0.99327 0.0
H435 H 0.75331 0.46899 0.98321 0.0
C436 C 0.7983 0.57527 0.94406 0.0
C437 C 0.81557 0.5689 0.92678 0.0
C438 C 0.79269 0.55955 0.96279 0.0
C439 C 0.80446 0.53743 0.96459 0.0
C440 C 0.81998 0.53017 0.94619 0.0
C441 C 0.82539 0.54571 0.92735 0.0
C442 C 0.80342 0.5234 0.98705 0.0
C443 C 0.78237 0.51105 0.99308 0.0
C444 C 0.82391 0.52126 0.00183 0.0
C445 C 0.84621 0.5351 0.9971 0.0
C446 C 0.86821 0.52317 0.99405 0.0
C447 C 0.88919 0.5362 0.98966 0.0
C448 C 0.88842 0.56119 0.9883 0.0
C449 C 0.8667 0.57323 0.99148 0.0
C450 C 0.84568 0.56029 0.99598 0.0
C451 C 0.80562 0.43102 0.05597 0.0
C452 C 0.81832 0.43616 0.07714 0.0
C453 C 0.7991 0.44945 0.04029 0.0
C454 C 0.80471 0.4734 0.04571 0.0
C455 C 0.81553 0.47866 0.06786 0.0
C456 C 0.82237 0.46022 0.08338 0.0
C457 C 0.80266 0.49224 0.02694 0.0
C458 C 0.82333 0.50556 0.02139 0.0
C459 C 0.78165 0.49557 0.01301 0.0
C460 C 0.75878 0.48328 0.01894 0.0
C461 C 0.74925 0.48455 0.04225 0.0
C462 C 0.72779 0.47283 0.0478 0.0
C463 C 0.71562 0.45986 0.03016 0.0
C464 C 0.72485 0.45863 0.00692 0.0
C465 C 0.74631 0.47031 0.00127 0.0
H466 H 0.69901 0.4508 0.0345 0.0
H467 H 0.90469 0.57123 0.98492 0.0
H468 H 0.17417 0.11681 0.63269 0.0
H469 H 0.21084 0.10105 0.65142 0.0
H470 H 0.19324 0.13816 0.71695 0.0
H471 H 0.15695 0.15388 0.69849 0.0
H472 H 0.24078 0.13988 0.70841 0.0
H473 H 0.17685 0.08058 0.7091 0.0
H474 H 0.14704 0.054 0.69007 0.0
H475 H 0.20313 0.01853 0.65104 0.0
H476 H 0.23323 0.04515 0.66964 0.0
H477 H 0.26822 0.05075 0.80397 0.0
H478 H 0.24441 0.06022 0.76851 0.0
H479 H 0.30781 0.08615 0.73262 0.0
H480 H 0.33181 0.07681 0.76812 0.0
H481 H 0.24269 0.05165 0.71966 0.0
H482 H 0.29228 0.14095 0.7089 0.0
H483 H 0.31858 0.16791 0.7322 0.0
H484 H 0.28581 0.14393 0.79761 0.0
H485 H 0.25911 0.11714 0.77466 0.0
C486 C 0.17848 0.12203 0.6509 0.0
C487 C 0.16261 0.1364 0.6642 0.0
C488 C 0.19932 0.11291 0.6616 0.0
C489 C 0.20462 0.11823 0.68566 0.0
C490 C 0.18954 0.13381 0.69838 0.0
C491 C 0.16872 0.14271 0.68782 0.0
C492 C 0.22454 0.10625 0.6986 0.0
C493 C 0.24151 0.12056 0.71045 0.0
C494 C 0.22527 0.08105 0.70161 0.0
C495 C 0.20722 0.06503 0.6905 0.0
C496 C 0.18278 0.06724 0.69631 0.0
C497 C 0.16585 0.05215 0.68563 0.0
C498 C 0.17318 0.03464 0.66929 0.0
C499 C 0.19747 0.03214 0.66365 0.0
C500 C 0.21448 0.04722 0.67425 0.0
C501 C 0.27726 0.0578 0.7883 0.0
C502 C 0.30183 0.0634 0.78901 0.0
C503 C 0.26361 0.06312 0.76798 0.0
C504 C 0.27427 0.07426 0.7481 0.0
C505 C 0.29921 0.07777 0.74789 0.0
C506 C 0.3129 0.07237 0.76819 0.0
C507 C 0.25878 0.08532 0.72954 0.0
C508 C 0.24257 0.07088 0.71682 0.0
C509 C 0.25834 0.11047 0.72615 0.0
C510 C 0.27397 0.12684 0.74009 0.0
C511 C 0.29067 0.14151 0.72825 0.0
C512 C 0.30563 0.15675 0.74139 0.0
C513 C 0.30394 0.15756 0.76638 0.0
C514 C 0.28717 0.14322 0.77827 0.0
C515 C 0.27213 0.12801 0.7652 0.0
H516 H 0.31556 0.16933 0.77652 0.0
H517 H 0.16004 0.02297 0.66105 0.0
H518 H 0.67122 0.91445 0.76725 0.0
H519 H 0.69793 0.90667 0.7333 0.0
H520 H 0.75882 0.92699 0.77649 0.0
H521 H 0.73232 0.93509 0.81028 0.0
H522 H 0.76512 0.94099 0.73104 0.0
H523 H 0.74053 0.8698 0.77292 0.0
H524 H 0.7112 0.84098 0.78903 0.0
H525 H 0.68639 0.82572 0.71777 0.0
H526 H 0.71508 0.85513 0.70128 0.0
H527 H 0.86221 0.86701 0.70374 0.0
H528 H 0.82582 0.88176 0.72264 0.0
H529 H 0.78756 0.87448 0.65591 0.0
H530 H 0.82439 0.85998 0.63636 0.0
H531 H 0.765 0.85592 0.70491 0.0
H532 H 0.7967 0.92519 0.66393 0.0
H533 H 0.82922 0.95245 0.6515 0.0
H534 H 0.84431 0.96873 0.72521 0.0
H535 H 0.81212 0.94125 0.73809 0.0
C536 C 0.69023 0.91784 0.76933 0.0
C537 C 0.6997 0.9251 0.79156 0.0
C538 C 0.70548 0.91329 0.74993 0.0
C539 C 0.7304 0.91582 0.75251 0.0
C540 C 0.73966 0.92484 0.77411 0.0
C541 C 0.72447 0.92939 0.79346 0.0
C542 C 0.74715 0.90692 0.73385 0.0
C543 C 0.76495 0.92245 0.72519 0.0
C544 C 0.74685 0.88272 0.72605 0.0
C545 C 0.7297 0.86493 0.7359 0.0
C546 C 0.72865 0.86049 0.7607 0.0
C547 C 0.71217 0.84401 0.7699 0.0
C548 C 0.69695 0.83148 0.75444 0.0
C549 C 0.69816 0.83547 0.72973 0.0
C550 C 0.71448 0.8521 0.72045 0.0
C551 C 0.8461 0.86834 0.69296 0.0
C552 C 0.8463 0.86248 0.66842 0.0
C553 C 0.82532 0.87681 0.70386 0.0
C554 C 0.80418 0.8794 0.69059 0.0
C555 C 0.80383 0.87265 0.66636 0.0
C556 C 0.82484 0.8644 0.65526 0.0
C557 C 0.78294 0.88996 0.70238 0.0
C558 C 0.76453 0.87468 0.71003 0.0
C559 C 0.78292 0.91424 0.70964 0.0
C560 C 0.80208 0.93104 0.70196 0.0
C561 C 0.80707 0.93444 0.67749 0.0
C562 C 0.82543 0.94996 0.67037 0.0
C563 C 0.83885 0.96229 0.68756 0.0
C564 C 0.8339 0.95917 0.71191 0.0
C565 C 0.81558 0.94365 0.71913 0.0
H566 H 0.85306 0.97429 0.68201 0.0
H567 H 0.68425 0.81867 0.76161 0.0
H568 H 0.28126 0.92471 0.19537 0.0
H569 H 0.25602 0.92207 0.23093 0.0
H570 H 0.3165 0.89748 0.2724 0.0
H571 H 0.34204 0.90015 0.23666 0.0
H572 H 0.27762 0.86749 0.276 0.0
H573 H 0.29219 0.95045 0.28646 0.0
H574 H 0.29654 0.99282 0.27475 0.0
H575 H 0.2225 0.99501 0.25371 0.0
H576 H 0.21777 0.95254 0.26496 0.0
H577 H 0.18283 0.8571 0.36504 0.0
H578 H 0.22164 0.86971 0.34807 0.0
H579 H 0.18516 0.89822 0.28614 0.0
H580 H 0.14687 0.88569 0.3026 0.0
H581 H 0.22003 0.92915 0.30402 0.0
H582 H 0.20979 0.84486 0.28247 0.0
H583 H 0.2045 0.80202 0.292 0.0
H584 H 0.26986 0.80267 0.33272 0.0
H585 H 0.27539 0.84564 0.32359 0.0
C586 C 0.28936 0.91927 0.21216 0.0
C587 C 0.31361 0.91258 0.21321 0.0
C588 C 0.27492 0.91786 0.23253 0.0
C589 C 0.2844 0.90969 0.25437 0.0
C590 C 0.30887 0.90392 0.25574 0.0
C591 C 0.32344 0.90557 0.23535 0.0
C592 C 0.26796 0.90489 0.27471 0.0
C593 C 0.26551 0.88114 0.28273 0.0
C594 C 0.25198 0.92261 0.28326 0.0
C595 C 0.25466 0.94824 0.27652 0.0
C596 C 0.27687 0.9599 0.2792 0.0
C597 C 0.27939 0.98396 0.27266 0.0
C598 C 0.25981 0.9966 0.26348 0.0
C599 C 0.23765 0.9852 0.26085 0.0
C600 C 0.23502 0.96115 0.26735 0.0
C601 C 0.18317 0.86613 0.34787 0.0
C602 C 0.1618 0.87023 0.3351 0.0
C603 C 0.20529 0.87333 0.33823 0.0
C604 C 0.2062 0.88497 0.31589 0.0
C605 C 0.18485 0.88943 0.30347 0.0
C606 C 0.16296 0.88204 0.31286 0.0
C607 C 0.22918 0.89169 0.3044 0.0
C608 C 0.23278 0.91575 0.29801 0.0
C609 C 0.24611 0.87426 0.2972 0.0
C610 C 0.24282 0.84849 0.30265 0.0
C611 C 0.22291 0.8359 0.29363 0.0
C612 C 0.21989 0.8116 0.29892 0.0
C613 C 0.23677 0.79965 0.31305 0.0
C614 C 0.25676 0.81197 0.32184 0.0
C615 C 0.25985 0.83629 0.31661 0.0
H616 H 0.23439 0.78083 0.31712 0.0
H617 H 0.26181 0.01522 0.25842 0.0
H618 H 0.66454 0.08958 0.23123 0.0
H619 H 0.69127 0.09594 0.26549 0.0
H620 H 0.75134 0.07184 0.22318 0.0
H621 H 0.72482 0.06532 0.18902 0.0
H622 H 0.75557 0.05747 0.26943 0.0
H623 H 0.73836 0.13055 0.22596 0.0
H624 H 0.71189 0.16158 0.20885 0.0
H625 H 0.68432 0.1772 0.279 0.0
H626 H 0.71049 0.14607 0.29648 0.0
H627 H 0.85814 0.12324 0.29636 0.0
H628 H 0.82125 0.10878 0.27821 0.0
H629 H 0.78186 0.12774 0.34193 0.0
H630 H 0.81922 0.1421 0.36072 0.0
H631 H 0.76161 0.14287 0.2937 0.0
H632 H 0.78801 0.07353 0.33679 0.0
H633 H 0.81779 0.044 0.35072 0.0
H634 H 0.83106 0.02252 0.27801 0.0
H635 H 0.80163 0.05219 0.26361 0.0
C636 C 0.68332 0.08499 0.22944 0.0
C637 C 0.69263 0.07718 0.20733 0.0
C638 C 0.69859 0.08878 0.24899 0.0
C639 C 0.72335 0.08477 0.24674 0.0
C640 C 0.73231 0.07513 0.2253 0.0
C641 C 0.71712 0.07145 0.20576 0.0
C642 C 0.74038 0.09272 0.26558 0.0
C643 C 0.75679 0.0761 0.27487 0.0
C644 C 0.74177 0.11701 0.27292 0.0
C645 C 0.72611 0.13577 0.26247 0.0
C646 C 0.72651 0.14047 0.2377 0.0
C647 C 0.7116 0.1581 0.22794 0.0
C648 C 0.69634 0.17125 0.24282 0.0
C649 C 0.69608 0.16692 0.2675 0.0
C650 C 0.71096 0.14931 0.27734 0.0
C651 C 0.8417 0.12449 0.30662 0.0
C652 C 0.84165 0.13385 0.33005 0.0
C653 C 0.82062 0.11609 0.2962 0.0
C654 C 0.79894 0.11701 0.30881 0.0
C655 C 0.79853 0.12681 0.332 0.0
C656 C 0.81983 0.13496 0.34267 0.0
C657 C 0.77698 0.10767 0.29719 0.0
C658 C 0.7598 0.12408 0.28901 0.0
C659 C 0.77513 0.08328 0.29054 0.0
C660 C 0.79267 0.06518 0.29912 0.0
C661 C 0.79739 0.06262 0.32376 0.0
C662 C 0.8142 0.04584 0.33174 0.0
C663 C 0.82633 0.03141 0.31526 0.0
C664 C 0.82164 0.0337 0.29076 0.0
C665 C 0.80487 0.05048 0.28268 0.0
H666 H 0.83934 0.01843 0.32147 0.0
H667 H 0.68476 0.18485 0.23524 0.0
H668 H 0.69743 0.15578 0.1495 0.0
H669 H 0.71668 0.19364 0.13956 0.0
H670 H 0.64863 0.22263 0.11699 0.0
H671 H 0.62903 0.18437 0.12693 0.0
H672 H 0.68544 0.22938 0.08347 0.0
H673 H 0.6728 0.24366 0.16704 0.0
H674 H 0.67347 0.23322 0.20999 0.0
H675 H 0.75012 0.22641 0.20759 0.0
H676 H 0.74991 0.23646 0.16455 0.0
H677 H 0.77042 0.34064 0.10439 0.0
H678 H 0.73474 0.31665 0.11343 0.0
H679 H 0.76467 0.25719 0.07418 0.0
H680 H 0.80054 0.28087 0.06541 0.0
H681 H 0.73796 0.27383 0.13989 0.0
H682 H 0.71726 0.22563 0.05 0.0
H683 H 0.71742 0.23465 0.00673 0.0
H684 H 0.70727 0.30941 0.02186 0.0
H685 H 0.70669 0.30081 0.0652 0.0
C686 C 0.68644 0.17025 0.14265 0.0
C687 C 0.6617 0.16707 0.13891 0.0
C688 C 0.69747 0.19194 0.13709 0.0
C689 C 0.68407 0.21099 0.12768 0.0
C690 C 0.65926 0.20813 0.12431 0.0
C691 C 0.64808 0.18636 0.13011 0.0
C692 C 0.69659 0.23321 0.12023 0.0
C693 C 0.69667 0.23935 0.09583 0.0
C694 C 0.71106 0.24631 0.13645 0.0
C695 C 0.71132 0.2408 0.16251 0.0
C696 C 0.6898 0.23986 0.17564 0.0
C697 C 0.69009 0.23401 0.20001 0.0
C698 C 0.71182 0.22918 0.21151 0.0
C699 C 0.7333 0.23021 0.19867 0.0
C700 C 0.73311 0.23603 0.17429 0.0
C701 C 0.76915 0.32266 0.09718 0.0
C702 C 0.78834 0.31258 0.08428 0.0
C703 C 0.7488 0.30897 0.10245 0.0
C704 C 0.74707 0.28519 0.09447 0.0
C705 C 0.76556 0.27559 0.08035 0.0
C706 C 0.78606 0.28912 0.07539 0.0
C707 C 0.72744 0.26943 0.10301 0.0
C708 C 0.72622 0.26435 0.12761 0.0
C709 C 0.71203 0.25726 0.08696 0.0
C710 C 0.71208 0.26257 0.06089 0.0
C711 C 0.71492 0.24398 0.0441 0.0
C712 C 0.71512 0.24902 0.01955 0.0
C713 C 0.71241 0.27259 0.01155 0.0
C714 C 0.70944 0.29117 0.02808 0.0
C715 C 0.70922 0.28622 0.05265 0.0
H716 H 0.71257 0.27646 0.99254 0.0
H717 H 0.71202 0.22466 0.23038 0.0
H718 H 0.19982 0.7195 0.04578 0.0
H719 H 0.23579 0.74406 0.05085 0.0
H720 H 0.26429 0.69192 0.10047 0.0
H721 H 0.22914 0.66674 0.09418 0.0
H722 H 0.24651 0.766 0.08747 0.0
H723 H 0.32296 0.69794 0.11076 0.0
H724 H 0.33785 0.65885 0.09651 0.0
H725 H 0.30547 0.67108 0.02776 0.0
H726 H 0.29067 0.71038 0.04145 0.0
H727 H 0.32214 0.82383 0.16375 0.0
H728 H 0.29968 0.79007 0.14726 0.0
H729 H 0.34941 0.78568 0.08818 0.0
H730 H 0.37266 0.81896 0.10535 0.0
H731 H 0.33138 0.7417 0.09854 0.0
H732 H 0.30001 0.81904 0.08201 0.0
H733 H 0.28658 0.86009 0.09137 0.0
H734 H 0.23067 0.83199 0.13623 0.0
H735 H 0.24401 0.79076 0.12744 0.0
C736 C 0.21415 0.71297 0.05715 0.0
C737 C 0.21168 0.69127 0.06962 0.0
C738 C 0.23468 0.72706 0.06014 0.0
C739 C 0.25289 0.72 0.07611 0.0
C740 C 0.25091 0.69767 0.08763 0.0
C741 C 0.23067 0.68328 0.08413 0.0
C742 C 0.27206 0.73726 0.08321 0.0
C743 C 0.26508 0.7606 0.08957 0.0
C744 C 0.2965 0.73062 0.08568 0.0
C745 C 0.30554 0.70707 0.07722 0.0
C746 C 0.31912 0.69236 0.09256 0.0
C747 C 0.32752 0.67014 0.08459 0.0
C748 C 0.32256 0.66246 0.06127 0.0
C749 C 0.30923 0.67701 0.04585 0.0
C750 C 0.3008 0.69925 0.05372 0.0
C751 C 0.32874 0.8151 0.14769 0.0
C752 C 0.34899 0.82401 0.13571 0.0
C753 C 0.31584 0.79593 0.1382 0.0
C754 C 0.32246 0.78584 0.11611 0.0
C755 C 0.34389 0.79331 0.10516 0.0
C756 C 0.35718 0.81226 0.115 0.0
C757 C 0.30542 0.7698 0.10336 0.0
C758 C 0.31281 0.74691 0.09602 0.0
C759 C 0.28146 0.77704 0.0991 0.0
C760 C 0.27311 0.80181 0.10418 0.0
C761 C 0.28493 0.82162 0.09397 0.0
C762 C 0.27733 0.84492 0.09917 0.0
C763 C 0.25781 0.84864 0.11442 0.0
C764 C 0.2458 0.82907 0.12444 0.0
C765 C 0.25335 0.80573 0.11933 0.0
H766 H 0.25196 0.8667 0.11843 0.0
H767 H 0.32907 0.64525 0.05514 0.0
H768 H 0.79927 0.72373 0.93832 0.0
H769 H 0.76386 0.7486 0.93244 0.0
H770 H 0.72678 0.68886 0.90021 0.0
H771 H 0.76236 0.66373 0.90603 0.0
H772 H 0.72637 0.72794 0.87151 0.0
H773 H 0.70567 0.71187 0.95207 0.0
H774 H 0.71171 0.70677 0.99554 0.0
H775 H 0.73144 0.78089 0.00195 0.0
H776 H 0.72588 0.78638 0.95846 0.0
H777 H 0.63685 0.82071 0.85225 0.0
H778 H 0.6536 0.78229 0.86607 0.0
H779 H 0.71104 0.82009 0.90147 0.0
H780 H 0.69481 0.85809 0.88773 0.0
H781 H 0.69031 0.78429 0.93004 0.0
H782 H 0.72297 0.79535 0.84924 0.0
H783 H 0.71937 0.80092 0.80553 0.0
H784 H 0.67741 0.73659 0.80034 0.0
H785 H 0.68088 0.73058 0.84409 0.0
C786 C 0.7834 0.71568 0.93053 0.0
C787 C 0.78366 0.69181 0.92253 0.0
C788 C 0.76309 0.7299 0.92727 0.0
C789 C 0.74261 0.72057 0.91595 0.0
C790 C 0.74237 0.69638 0.90904 0.0
C791 C 0.76267 0.68204 0.91248 0.0
C792 C 0.72291 0.73701 0.90894 0.0
C793 C 0.71789 0.73976 0.88441 0.0
C794 C 0.71206 0.75264 0.9257 0.0
C795 C 0.71542 0.7495 0.95193 0.0
C796 C 0.71145 0.72705 0.96271 0.0
C797 C 0.71477 0.7241 0.98737 0.0
C798 C 0.72196 0.74349 0.0015 0.0
C799 C 0.72584 0.76589 0.99099 0.0
C800 C 0.72256 0.76894 0.96633 0.0
C801 C 0.653 0.82075 0.86303 0.0
C802 C 0.66456 0.84243 0.86878 0.0
C803 C 0.66252 0.79885 0.8709 0.0
C804 C 0.68349 0.79842 0.88486 0.0
C805 C 0.69475 0.82005 0.89087 0.0
C806 C 0.68551 0.84176 0.88281 0.0
C807 C 0.69466 0.77566 0.8927 0.0
C808 C 0.69811 0.77183 0.91732 0.0
C809 C 0.70413 0.75907 0.87608 0.0
C810 C 0.70191 0.7627 0.84989 0.0
C811 C 0.71282 0.78251 0.83878 0.0
C812 C 0.71084 0.78572 0.81401 0.0
C813 C 0.69801 0.76924 0.80018 0.0
C814 C 0.68727 0.74939 0.81108 0.0
C815 C 0.68929 0.74604 0.83585 0.0
H816 H 0.69648 0.77179 0.781 0.0
H817 H 0.72452 0.74116 0.02059 0.0
H818 H 0.35707 0.17072 0.86324 0.0
H819 H 0.33717 0.20851 0.8741 0.0
H820 H 0.27022 0.17065 0.88272 0.0
H821 H 0.28952 0.13345 0.87146 0.0
H822 H 0.26288 0.21021 0.85907 0.0
H823 H 0.30679 0.18762 0.93099 0.0
H824 H 0.34336 0.17821 0.95404 0.0
H825 H 0.37228 0.24757 0.9373 0.0
H826 H 0.33597 0.25726 0.91391 0.0
H827 H 0.18671 0.27147 0.93367 0.0
H828 H 0.21876 0.24331 0.92427 0.0
H829 H 0.26503 0.30189 0.90427 0.0
H830 H 0.23288 0.33043 0.91355 0.0
H831 H 0.28782 0.25842 0.9296 0.0
H832 H 0.2401 0.28176 0.86115 0.0
H833 H 0.20175 0.29022 0.84083 0.0
H834 H 0.17889 0.21771 0.8528 0.0
H835 H 0.21695 0.20894 0.8736 0.0
C836 C 0.33809 0.17055 0.86734 0.0
C837 C 0.32492 0.14904 0.86649 0.0
C838 C 0.32677 0.19211 0.87365 0.0
C839 C 0.30221 0.19239 0.87939 0.0
C840 C 0.28914 0.17095 0.87828 0.0
C841 C 0.30029 0.1496 0.87188 0.0
C842 C 0.28961 0.21468 0.88665 0.0
C843 C 0.26843 0.22072 0.87447 0.0
C844 C 0.29708 0.22885 0.90638 0.0
C845 C 0.31883 0.22304 0.92047 0.0
C846 C 0.32104 0.20078 0.93208 0.0
C847 C 0.34169 0.19541 0.94523 0.0
C848 C 0.36017 0.21225 0.94706 0.0
C849 C 0.35798 0.23452 0.93581 0.0
C850 C 0.33737 0.23996 0.92262 0.0
C851 C 0.20388 0.2785 0.9279 0.0
C852 C 0.20713 0.30317 0.92399 0.0
C853 C 0.22219 0.26236 0.92257 0.0
C854 C 0.24407 0.27057 0.91329 0.0
C855 C 0.24822 0.29528 0.91141 0.0
C856 C 0.22981 0.31152 0.91668 0.0
C857 C 0.26085 0.25313 0.90251 0.0
C858 C 0.2827 0.24815 0.9139 0.0
C859 C 0.25396 0.23971 0.88215 0.0
C860 C 0.23131 0.24475 0.86908 0.0
C861 C 0.22683 0.26766 0.85958 0.0
C862 C 0.20515 0.27251 0.84797 0.0
C863 C 0.18787 0.25453 0.84556 0.0
C864 C 0.19229 0.23163 0.85469 0.0
C865 C 0.21392 0.2267 0.86638 0.0
H866 H 0.17108 0.25833 0.83659 0.0
H867 H 0.37614 0.20806 0.95725 0.0
H868 H 0.08859 0.76864 0.32976 0.0
H869 H 0.094 0.73337 0.30417 0.0
H870 H 0.07097 0.77434 0.24277 0.0
H871 H 0.06542 0.8095 0.26813 0.0
H872 H 0.05475 0.72835 0.2406 0.0
H873 H 0.12938 0.77024 0.25625 0.0
H874 H 0.16116 0.7868 0.28215 0.0
H875 H 0.17512 0.71662 0.31051 0.0
H876 H 0.1431 0.69971 0.285 0.0
H877 H 0.11755 0.70027 0.13745 0.0
H878 H 0.10332 0.71801 0.17456 0.0
H879 H 0.12505 0.655 0.21364 0.0
H880 H 0.13927 0.63665 0.17606 0.0
H881 H 0.13953 0.70206 0.23379 0.0
H882 H 0.06948 0.66009 0.20859 0.0
H883 H 0.03915 0.64617 0.1796 0.0
H884 H 0.01771 0.7189 0.16649 0.0
H885 H 0.04817 0.7333 0.19512 0.0
C886 C 0.08413 0.76997 0.31091 0.0
C887 C 0.07683 0.79193 0.30089 0.0
C888 C 0.08732 0.74982 0.29632 0.0
C889 C 0.08322 0.75135 0.27153 0.0
C890 C 0.07427 0.77277 0.26185 0.0
C891 C 0.07119 0.7929 0.27637 0.0
C892 C 0.09036 0.7317 0.25514 0.0
C893 C 0.07324 0.72245 0.23921 0.0
C894 C 0.11442 0.72366 0.25367 0.0
C895 C 0.13364 0.73378 0.26899 0.0
C896 C 0.13909 0.75838 0.26817 0.0
C897 C 0.15716 0.76782 0.28275 0.0
C898 C 0.17011 0.75279 0.29803 0.0
C899 C 0.16503 0.72826 0.29871 0.0
C900 C 0.14692 0.71874 0.28421 0.0
C901 C 0.11942 0.69007 0.15386 0.0
C902 C 0.12958 0.667 0.15377 0.0
C903 C 0.11112 0.70023 0.17506 0.0
C904 C 0.11289 0.6877 0.19673 0.0
C905 C 0.12342 0.66484 0.19698 0.0
C906 C 0.1315 0.65442 0.17556 0.0
C907 C 0.10404 0.69925 0.21889 0.0
C908 C 0.12086 0.70717 0.23579 0.0
C909 C 0.07977 0.70634 0.22105 0.0
C910 C 0.0612 0.69777 0.20398 0.0
C911 C 0.05841 0.67313 0.19943 0.0
C912 C 0.04117 0.66515 0.18306 0.0
C913 C 0.02653 0.68164 0.17119 0.0
C914 C 0.02906 0.70614 0.17571 0.0
C915 C 0.04628 0.71422 0.19204 0.0
H916 H 0.0132 0.67543 0.15852 0.0
H917 H 0.18413 0.76012 0.30928 0.0
H918 H 0.08198 0.23661 0.66681 0.0
H919 H 0.08602 0.27297 0.69119 0.0
H920 H 0.0686 0.23229 0.75463 0.0
H921 H 0.06417 0.19624 0.73049 0.0
H922 H 0.05086 0.27656 0.7581 0.0
H923 H 0.12702 0.23968 0.73591 0.0
H924 H 0.15735 0.22566 0.70693 0.0
H925 H 0.16293 0.29669 0.67781 0.0
H926 H 0.13237 0.31104 0.70647 0.0
H927 H 0.12019 0.30397 0.85663 0.0
H928 H 0.10418 0.28697 0.81992 0.0
H929 H 0.1199 0.3525 0.78209 0.0
H930 H 0.13597 0.37009 0.81928 0.0
H931 H 0.13443 0.30726 0.75859 0.0
H932 H 0.06507 0.3445 0.79156 0.0
H933 H 0.03722 0.35567 0.82402 0.0
H934 H 0.02041 0.28149 0.83573 0.0
H935 H 0.04845 0.26982 0.80362 0.0
C936 C 0.07836 0.23559 0.68585 0.0
C937 C 0.07309 0.21349 0.69679 0.0
C938 C 0.08078 0.25636 0.69977 0.0
C939 C 0.07804 0.25526 0.72479 0.0
C940 C 0.07087 0.2336 0.73538 0.0
C941 C 0.06845 0.21293 0.72154 0.0
C942 C 0.08522 0.2755 0.74052 0.0
C943 C 0.06904 0.28347 0.75807 0.0
C944 C 0.10884 0.28492 0.7402 0.0
C945 C 0.12722 0.27634 0.72306 0.0
C946 C 0.1346 0.25225 0.7232 0.0
C947 C 0.15184 0.24425 0.70687 0.0
C948 C 0.16199 0.26026 0.69048 0.0
C949 C 0.15499 0.28431 0.69046 0.0
C950 C 0.13771 0.29238 0.70674 0.0
C951 C 0.12036 0.3149 0.84059 0.0
C952 C 0.1293 0.33849 0.84096 0.0
C953 C 0.11106 0.30514 0.81961 0.0
C954 C 0.11053 0.31861 0.79844 0.0
C955 C 0.12001 0.34193 0.79838 0.0
C956 C 0.12917 0.35191 0.81959 0.0
C957 C 0.10031 0.30759 0.77659 0.0
C958 C 0.11594 0.30121 0.758 0.0
C959 C 0.0763 0.29936 0.77618 0.0
C960 C 0.05894 0.30629 0.79517 0.0
C961 C 0.05552 0.33055 0.80112 0.0
C962 C 0.03969 0.33697 0.81947 0.0
C963 C 0.02707 0.3193 0.83194 0.0
C964 C 0.03018 0.29517 0.82604 0.0
C965 C 0.04601 0.28864 0.80772 0.0
H966 H 0.01486 0.32431 0.84617 0.0
H967 H 0.17534 0.25404 0.67785 0.0
H968 H 0.86113 0.63338 0.81638 0.0
H969 H 0.87474 0.65263 0.77911 0.0
H970 H 0.88356 0.71947 0.81703 0.0
H971 H 0.86957 0.70087 0.85362 0.0
H972 H 0.86248 0.72746 0.77634 0.0
H973 H 0.93136 0.68084 0.80314 0.0
H974 H 0.95236 0.64339 0.81369 0.0
H975 H 0.93858 0.6154 0.74331 0.0
H976 H 0.91726 0.65262 0.73244 0.0
H977 H 0.94501 0.801 0.72496 0.0
H978 H 0.93473 0.76669 0.74996 0.0
H979 H 0.91038 0.72804 0.68766 0.0
H980 H 0.9205 0.76247 0.66231 0.0
H981 H 0.93528 0.70039 0.73285 0.0
H982 H 0.86873 0.75103 0.70617 0.0
H983 H 0.85162 0.79083 0.69729 0.0
H984 H 0.86357 0.8126 0.77015 0.0
H985 H 0.8812 0.77307 0.77931 0.0
C986 C 0.86583 0.65221 0.81664 0.0
C987 C 0.86421 0.66556 0.83799 0.0
C988 C 0.87371 0.66315 0.79539 0.0
C989 C 0.88029 0.68749 0.7953 0.0
C990 C 0.87845 0.70073 0.81657 0.0
C991 C 0.87047 0.68998 0.83758 0.0
C992 C 0.88925 0.69971 0.77343 0.0
C993 C 0.87828 0.72135 0.76678 0.0
C994 C 0.90963 0.69164 0.76056 0.0
C995 C 0.92247 0.66935 0.76709 0.0
C996 C 0.93266 0.66662 0.78998 0.0
C997 C 0.94464 0.64545 0.79601 0.0
C998 C 0.94673 0.62699 0.77921 0.0
C999 C 0.9369 0.62969 0.75632 0.0
C1000 C 0.92488 0.65081 0.75022 0.0
C1001 C 0.93827 0.78494 0.71638 0.0
C1002 C 0.9331 0.78463 0.69174 0.0
C1003 C 0.9325 0.7653 0.73071 0.0
C1004 C 0.92157 0.74504 0.72061 0.0
C1005 C 0.91887 0.74355 0.69568 0.0
C1006 C 0.9246 0.76328 0.68127 0.0
C1007 C 0.90884 0.72821 0.73657 0.0
C1008 C 0.91905 0.70593 0.74203 0.0
C1009 C 0.88785 0.73571 0.74861 0.0
C1010 C 0.87643 0.75917 0.74337 0.0
C1011 C 0.86784 0.76436 0.72025 0.0
C1012 C 0.85805 0.78687 0.71516 0.0
C1013 C 0.85655 0.80425 0.73313 0.0
C1014 C 0.86475 0.79913 0.75624 0.0
C1015 C 0.87462 0.77667 0.76139 0.0
H1016 H 0.84899 0.82167 0.72915 0.0
H1017 H 0.95601 0.61062 0.7839 0.0
H1018 H 0.91593 0.23716 0.336 0.0
H1019 H 0.91168 0.27396 0.31239 0.0
H1020 H 0.93678 0.23653 0.24955 0.0
H1021 H 0.94137 0.2 0.27296 0.0
H1022 H 0.95182 0.28237 0.24908 0.0
H1023 H 0.87704 0.23913 0.26317 0.0
H1024 H 0.84545 0.2218 0.28884 0.0
H1025 H 0.832 0.29105 0.31964 0.0
H1026 H 0.86377 0.30871 0.29432 0.0
H1027 H 0.88889 0.308 0.14571 0.0
H1028 H 0.90469 0.29173 0.18287 0.0
H1029 H 0.87781 0.35291 0.22168 0.0
H1030 H 0.8619 0.36972 0.18408 0.0
H1031 H 0.86651 0.30677 0.24215 0.0
H1032 H 0.93498 0.3504 0.21662 0.0
H1033 H 0.96473 0.36514 0.18745 0.0
H1034 H 0.98907 0.29318 0.17527 0.0
H1035 H 0.95921 0.27793 0.20408 0.0
C1036 C 0.92116 0.23697 0.31731 0.0
C1037 C 0.92864 0.21559 0.30624 0.0
C1038 C 0.91864 0.25799 0.30383 0.0
C1039 C 0.92351 0.25787 0.27912 0.0
C1040 C 0.93286 0.23705 0.26857 0.0
C1041 C 0.93537 0.21611 0.28197 0.0
C1042 C 0.91624 0.27809 0.26345 0.0
C1043 C 0.93323 0.2879 0.24769 0.0
C1044 C 0.89205 0.28572 0.262 0.0
C1045 C 0.87296 0.27515 0.27714 0.0
C1046 C 0.86746 0.2506 0.27556 0.0
C1047 C 0.84952 0.24073 0.29001 0.0
C1048 C 0.83679 0.2553 0.30593 0.0
C1049 C 0.84193 0.27978 0.30736 0.0
C1050 C 0.8599 0.28972 0.29297 0.0
C1051 C 0.88628 0.31812 0.16208 0.0
C1052 C 0.87407 0.34017 0.16193 0.0
C1053 C 0.89551 0.30884 0.1833 0.0
C1054 C 0.89271 0.32129 0.20492 0.0
C1055 C 0.88031 0.34318 0.20507 0.0
C1056 C 0.87125 0.35271 0.18363 0.0
C1057 C 0.90193 0.31033 0.22725 0.0
C1058 C 0.88529 0.30211 0.24418 0.0
C1059 C 0.92638 0.30393 0.22954 0.0
C1060 C 0.94477 0.31302 0.21253 0.0
C1061 C 0.94659 0.33769 0.20765 0.0
C1062 C 0.96349 0.34614 0.19117 0.0
C1063 C 0.97877 0.33011 0.1795 0.0
C1064 C 0.97724 0.30559 0.18435 0.0
C1065 C 0.96036 0.29703 0.2008 0.0
H1066 H 0.9918 0.33668 0.16671 0.0
H1067 H 0.82289 0.24763 0.3171 0.0
H1068 H 0.04701 0.08767 0.6038 0.0
H1069 H 0.02491 0.04972 0.60385 0.0
H1070 H 0.02466 0.04976 0.68114 0.0
H1071 H 0.04622 0.08816 0.68127 0.0
H1072 H 0.04377 0.0056 0.65374 0.0
H1073 H 0.97594 0.05899 0.66207 0.0
H1074 H 0.95112 0.09371 0.65063 0.0
H1075 H 0.93988 0.06323 0.58085 0.0
H1076 H 0.96495 0.02847 0.59176 0.0
H1077 H 0.96981 0.90401 0.67201 0.0
H1078 H 0.99016 0.94268 0.67334 0.0
H1079 H 0.9666 0.95768 0.60116 0.0
H1080 H 0.94534 0.91937 0.60012 0.0
H1081 H 0.95961 0.9951 0.62682 0.0
H1082 H 0.02644 0.94297 0.61575 0.0
H1083 H 0.05308 0.90862 0.62369 0.0
H1084 H 0.06867 0.93638 0.69378 0.0
H1085 H 0.04185 0.97075 0.68637 0.0
C1086 C 0.04199 0.07973 0.6208 0.0
C1087 C 0.0483 0.0908 0.64254 0.0
C1088 C 0.02939 0.05812 0.62079 0.0
C1089 C 0.02328 0.04706 0.64249 0.0
C1090 C 0.02927 0.05815 0.66424 0.0
C1091 C 0.04143 0.08007 0.66428 0.0
C1092 C 0.01153 0.02337 0.64228 0.0
C1093 C 0.02524 0.00321 0.64827 0.0
C1094 C 0.98772 0.02044 0.6342 0.0
C1095 C 0.97254 0.04126 0.62765 0.0
C1096 C 0.96838 0.0598 0.6442 0.0
C1097 C 0.95422 0.07947 0.63783 0.0
C1098 C 0.94399 0.08071 0.615 0.0
C1099 C 0.94784 0.06225 0.59852 0.0
C1100 C 0.96201 0.04256 0.60479 0.0
C1101 C 0.9692 0.91541 0.65631 0.0
C1102 C 0.95599 0.90864 0.63595 0.0
C1103 C 0.98092 0.93752 0.65706 0.0
C1104 C 0.98015 0.95305 0.63726 0.0
C1105 C 0.9674 0.94606 0.6167 0.0
C1106 C 0.95534 0.92412 0.61608 0.0
C1107 C 0.99179 0.97698 0.63836 0.0
C1108 C 0.97811 0.99728 0.63242 0.0
C1109 C 0.01584 0.97999 0.64604 0.0
C1110 C 0.03194 0.95931 0.65059 0.0
C1111 C 0.03539 0.94165 0.63293 0.0
C1112 C 0.05055 0.9222 0.63732 0.0
C1113 C 0.06251 0.92029 0.65925 0.0
C1114 C 0.05937 0.93786 0.67682 0.0
C1115 C 0.04421 0.95735 0.67252 0.0
H1116 H 0.07425 0.90521 0.66262 0.0
H1117 H 0.93303 0.09595 0.6101 0.0
H1118 H 0.9481 0.08618 0.399 0.0
H1119 H 0.97033 0.04831 0.39974 0.0
H1120 H 0.98488 0.05518 0.32415 0.0
H1121 H 0.96319 0.09339 0.32334 0.0
H1122 H 0.96214 0.00914 0.34242 0.0
H1123 H 0.02883 0.0636 0.3547 0.0
H1124 H 0.04962 0.09666 0.37542 0.0
H1125 H 0.04745 0.05718 0.44146 0.0
H1126 H 0.02628 0.02402 0.42119 0.0
H1127 H 0.04108 0.91206 0.32415 0.0
H1128 H 0.01985 0.95025 0.32488 0.0
H1129 H 0.03093 0.95507 0.40135 0.0
H1130 H 0.05334 0.91741 0.40043 0.0
H1131 H 0.0399 0.99578 0.38352 0.0
H1132 H 0.97433 0.94183 0.37435 0.0
H1133 H 0.95083 0.90868 0.35694 0.0
H1134 H 0.94717 0.94601 0.28973 0.0
H1135 H 0.97093 0.97927 0.30665 0.0
C1136 C 0.95628 0.07975 0.38261 0.0
C1137 C 0.95393 0.09269 0.36111 0.0
C1138 C 0.96895 0.05818 0.38307 0.0
C1139 C 0.9791 0.04906 0.36199 0.0
C1140 C 0.9771 0.06204 0.34057 0.0
C1141 C 0.96485 0.08387 0.34018 0.0
C1142 C 0.99099 0.02544 0.36216 0.0
C1143 C 0.97931 0.00616 0.35108 0.0
C1144 C 0.01282 0.02161 0.37435 0.0
C1145 C 0.02574 0.04144 0.38649 0.0
C1146 C 0.03258 0.06206 0.37369 0.0
C1147 C 0.04447 0.0808 0.38534 0.0
C1148 C 0.04979 0.07905 0.40976 0.0
C1149 C 0.04329 0.05852 0.42255 0.0
C1150 C 0.03136 0.03975 0.41099 0.0
C1151 C 0.03874 0.92113 0.34116 0.0
C1152 C 0.0488 0.91175 0.36225 0.0
C1153 C 0.0265 0.94294 0.34159 0.0
C1154 C 0.02345 0.95547 0.36323 0.0
C1155 C 0.03307 0.94581 0.38441 0.0
C1156 C 0.04578 0.92425 0.3839 0.0
C1157 C 0.01119 0.97912 0.36357 0.0
C1158 C 0.02272 0.99852 0.37482 0.0
C1159 C 0.98888 0.98293 0.35199 0.0
C1160 C 0.97462 0.96294 0.34172 0.0
C1161 C 0.96868 0.94289 0.35581 0.0
C1162 C 0.95528 0.92409 0.34603 0.0
C1163 C 0.94756 0.92521 0.32223 0.0
C1164 C 0.95319 0.94516 0.30816 0.0
C1165 C 0.9666 0.964 0.31784 0.0
H1166 H 0.93719 0.91064 0.31469 0.0
H1167 H 0.05899 0.09358 0.41875 0.0
H1168 H 0.60042 0.93579 0.92162 0.0
H1169 H 0.5972 0.95906 0.95854 0.0
H1170 H 0.65912 0.00064 0.93799 0.0
H1171 H 0.66234 0.97764 0.90084 0.0
H1172 H 0.62808 0.96218 0.99469 0.0
H1173 H 0.65344 0.05718 0.9605 0.0
H1174 H 0.64895 0.08173 0.92398 0.0
H1175 H 0.58674 0.04107 0.90379 0.0
H1176 H 0.59067 0.01649 0.94031 0.0
H1177 H 0.6628 0.03673 0.09167 0.0
H1178 H 0.66077 0.01465 0.05388 0.0
H1179 H 0.59573 0.05213 0.03524 0.0
H1180 H 0.59784 0.07459 0.07271 0.0
H1181 H 0.62481 0.05096 0.9981 0.0
H1182 H 0.59431 0.99381 0.05414 0.0
H1183 H 0.59422 0.96906 0.09076 0.0
H1184 H 0.65841 0.93358 0.0674 0.0
H1185 H 0.65907 0.95836 0.03077 0.0
C1186 C 0.61326 0.95004 0.92482 0.0
C1187 C 0.63168 0.95483 0.90828 0.0
C1188 C 0.61141 0.96325 0.94598 0.0
C1189 C 0.62786 0.9816 0.95099 0.0
C1190 C 0.64605 0.98673 0.93436 0.0
C1191 C 0.64792 0.97352 0.91315 0.0
C1192 C 0.62651 0.99476 0.97402 0.0
C1193 C 0.62734 0.98159 0.99545 0.0
C1194 C 0.62511 0.02006 0.97499 0.0
C1195 C 0.62252 0.03484 0.95303 0.0
C1196 C 0.63876 0.05353 0.9483 0.0
C1197 C 0.63632 0.06744 0.92759 0.0
C1198 C 0.61762 0.06291 0.91154 0.0
C1199 C 0.60128 0.0445 0.91618 0.0
C1200 C 0.60363 0.03054 0.93686 0.0
C1201 C 0.64801 0.0402 0.0796 0.0
C1202 C 0.63049 0.05742 0.08523 0.0
C1203 C 0.64683 0.02751 0.05802 0.0
C1204 C 0.62799 0.03162 0.04181 0.0
C1205 C 0.61045 0.04872 0.04745 0.0
C1206 C 0.61166 0.06147 0.06894 0.0
C1207 C 0.62676 0.01839 0.01878 0.0
C1208 C 0.62552 0.03155 0.99736 0.0
C1209 C 0.6272 0.99306 0.01782 0.0
C1210 C 0.62686 0.97811 0.03982 0.0
C1211 C 0.60851 0.98086 0.0569 0.0
C1212 C 0.60834 0.9668 0.07764 0.0
C1213 C 0.62633 0.9498 0.08143 0.0
C1214 C 0.6445 0.94678 0.06445 0.0
C1215 C 0.64477 0.96081 0.04369 0.0
H1216 H 0.62616 0.93892 0.09749 0.0
H1217 H 0.61577 0.0737 0.89552 0.0
H1218 H 0.40682 0.939 0.08489 0.0
H1219 H 0.40476 0.96241 0.04783 0.0
H1220 H 0.32781 0.96638 0.05443 0.0
H1221 H 0.32973 0.94328 0.09178 0.0
H1222 H 0.34639 0.94932 0.00847 0.0
H1223 H 0.35636 0.01429 0.06508 0.0
H1224 H 0.37676 0.0352 0.09828 0.0
H1225 H 0.44137 0.03928 0.05664 0.0
H1226 H 0.42147 0.01807 0.0233 0.0
H1227 H 0.32246 0.02869 0.91282 0.0
H1228 H 0.32452 0.00741 0.95099 0.0
H1229 H 0.40031 0.02272 0.95554 0.0
H1230 H 0.39799 0.04516 0.91797 0.0
H1231 H 0.38251 0.02972 0.99659 0.0
H1232 H 0.37627 0.965 0.94119 0.0
H1233 H 0.35963 0.9414 0.9077 0.0
H1234 H 0.29324 0.93324 0.94583 0.0
H1235 H 0.30937 0.95707 0.97943 0.0
C1236 C 0.38948 0.94503 0.07855 0.0
C1237 C 0.36841 0.93925 0.09114 0.0
C1238 C 0.38836 0.95844 0.05745 0.0
C1239 C 0.36614 0.96602 0.04846 0.0
C1240 C 0.34511 0.96062 0.06115 0.0
C1241 C 0.34625 0.94756 0.08249 0.0
C1242 C 0.36483 0.97874 0.02526 0.0
C1243 C 0.35393 0.96707 0.00586 0.0
C1244 C 0.37559 0.0014 0.02182 0.0
C1245 C 0.38747 0.01443 0.04176 0.0
C1246 C 0.37497 0.01949 0.06306 0.0
C1247 C 0.38642 0.03145 0.08189 0.0
C1248 C 0.41034 0.03857 0.07956 0.0
C1249 C 0.42284 0.03377 0.0584 0.0
C1250 C 0.41147 0.02181 0.03952 0.0
C1251 C 0.3396 0.0273 0.92186 0.0
C1252 C 0.36008 0.03851 0.9124 0.0
C1253 C 0.3408 0.01505 0.94366 0.0
C1254 C 0.36266 0.0131 0.95607 0.0
C1255 C 0.38322 0.02398 0.94639 0.0
C1256 C 0.38191 0.03671 0.92486 0.0
C1257 C 0.36392 0.00038 0.97949 0.0
C1258 C 0.37488 0.012 0.99901 0.0
C1259 C 0.35374 0.97735 0.98291 0.0
C1260 C 0.34395 0.96303 0.96272 0.0
C1261 C 0.35805 0.95834 0.94235 0.0
C1262 C 0.34873 0.94489 0.92337 0.0
C1263 C 0.32537 0.93589 0.92461 0.0
C1264 C 0.31132 0.94026 0.94488 0.0
C1265 C 0.32055 0.95371 0.96391 0.0
H1266 H 0.31819 0.92548 0.90989 0.0
H1267 H 0.41918 0.04781 0.09416 0.0
H1268 H 0.91332 0.59653 0.94209 0.0
H1269 H 0.95141 0.59562 0.9639 0.0
H1270 H 0.94245 0.66994 0.98306 0.0
H1271 H 0.90406 0.67092 0.96164 0.0
H1272 H 0.9882 0.65609 0.95966 0.0
H1273 H 0.93521 0.6331 0.02495 0.0
H1274 H 0.90352 0.60771 0.04248 0.0
H1275 H 0.94749 0.54535 0.03259 0.0
H1276 H 0.97933 0.57034 0.01467 0.0
H1277 H 0.08597 0.67285 0.03748 0.0
H1278 H 0.04726 0.67159 0.01718 0.0
H1279 H 0.04655 0.5944 0.02307 0.0
H1280 H 0.08459 0.59585 0.04491 0.0
H1281 H 0.00516 0.60831 0.0327 0.0
H1282 H 0.05731 0.62676 0.96794 0.0
H1283 H 0.08907 0.64796 0.94567 0.0
H1284 H 0.0482 0.71309 0.94859 0.0
H1285 H 0.01631 0.69236 0.97117 0.0
C1286 C 0.91934 0.61261 0.95117 0.0
C1287 C 0.90579 0.63383 0.95012 0.0
C1288 C 0.94105 0.61203 0.96362 0.0
C1289 C 0.94968 0.63274 0.97494 0.0
C1290 C 0.936 0.65382 0.97435 0.0
C1291 C 0.91406 0.6543 0.96226 0.0
C1292 C 0.9735 0.63265 0.98649 0.0
C1293 C 0.99194 0.64597 0.97584 0.0
C1294 C 0.97843 0.61848 0.00686 0.0
C1295 C 0.95959 0.60358 0.01833 0.0
C1296 C 0.93808 0.61396 0.02641 0.0
C1297 C 0.92011 0.59964 0.03645 0.0
C1298 C 0.9235 0.57494 0.03867 0.0
C1299 C 0.94491 0.5645 0.03091 0.0
C1300 C 0.96294 0.57873 0.02084 0.0
C1301 C 0.07768 0.65561 0.03416 0.0
C1302 C 0.08831 0.63444 0.0426 0.0
C1303 C 0.05556 0.65486 0.02245 0.0
C1304 C 0.04403 0.63285 0.01813 0.0
C1305 C 0.05497 0.61162 0.02617 0.0
C1306 C 0.07678 0.61243 0.03851 0.0
C1307 C 0.02021 0.6321 0.00608 0.0
C1308 C 0.00167 0.61852 0.01653 0.0
C1309 C 0.01536 0.64547 0.985 0.0
C1310 C 0.03451 0.65804 0.97145 0.0
C1311 C 0.05517 0.64565 0.96399 0.0
C1312 C 0.07319 0.65758 0.95128 0.0
C1313 C 0.07068 0.68187 0.94577 0.0
C1314 C 0.05012 0.69428 0.9529 0.0
C1315 C 0.03206 0.68244 0.96563 0.0
H1316 H 0.08465 0.69108 0.93592 0.0
H1317 H 0.90953 0.56387 0.04635 0.0
H1318 H 0.09893 0.33943 0.97444 0.0
H1319 H 0.06066 0.33928 0.9958 0.0
H1320 H 0.039 0.403 0.95777 0.0
H1321 H 0.07707 0.40318 0.93614 0.0
H1322 H 0.03757 0.36971 0.02504 0.0
H1323 H 0.97995 0.39773 0.94306 0.0
H1324 H 0.98133 0.39481 0.89894 0.0
H1325 H 0.02567 0.33213 0.90407 0.0
H1326 H 0.02428 0.33448 0.9482 0.0
H1327 H 0.92309 0.40283 0.06455 0.0
H1328 H 0.96087 0.40286 0.04258 0.0
H1329 H 0.94055 0.33723 0.0071 0.0
H1330 H 0.90241 0.33715 0.0289 0.0
H1331 H 0.96293 0.36773 0.97651 0.0
H1332 H 0.97742 0.33474 0.05405 0.0
H1333 H 0.97615 0.33324 0.09822 0.0
H1334 H 0.01837 0.3975 0.10202 0.0
H1335 H 0.01961 0.39958 0.05785 0.0
C1336 C 0.08615 0.35358 0.9708 0.0
C1337 C 0.09094 0.37114 0.95335 0.0
C1338 C 0.06429 0.35347 0.98305 0.0
C1339 C 0.04684 0.37086 0.97803 0.0
C1340 C 0.05206 0.38913 0.96156 0.0
C1341 C 0.07388 0.38925 0.94929 0.0
C1342 C 0.02283 0.3694 0.98935 0.0
C1343 C 0.02126 0.36934 0.01444 0.0
C1344 C 0.00158 0.36825 0.97549 0.0
C1345 C 0.00219 0.36645 0.94894 0.0
C1346 C 0.98991 0.38327 0.93477 0.0
C1347 C 0.99071 0.38172 0.90976 0.0
C1348 C 0.00365 0.36334 0.89871 0.0
C1349 C 0.01573 0.34641 0.91265 0.0
C1350 C 0.01496 0.34786 0.93766 0.0
C1351 C 0.92648 0.38849 0.05191 0.0
C1352 C 0.90981 0.36984 0.04866 0.0
C1353 C 0.94815 0.38852 0.03942 0.0
C1354 C 0.95369 0.36982 0.02356 0.0
C1355 C 0.93664 0.35177 0.01937 0.0
C1356 C 0.91488 0.35175 0.03185 0.0
C1357 C 0.97768 0.3687 0.01218 0.0
C1358 C 0.97925 0.3682 0.9871 0.0
C1359 C 0.99896 0.3687 0.02605 0.0
C1360 C 0.99842 0.36743 0.05263 0.0
C1361 C 0.98629 0.34865 0.0643 0.0
C1362 C 0.9856 0.34768 0.08934 0.0
C1363 C 0.99712 0.36529 0.10291 0.0
C1364 C 0.00943 0.38388 0.09148 0.0
C1365 C 0.01015 0.38495 0.06644 0.0
H1366 H 0.99656 0.36451 0.1223 0.0
H1367 H 0.00427 0.36219 0.87935 0.0
loop_
_geom_bond_atom_site_label_1
_geom_bond_atom_site_label_2
_geom_bond_distance
_geom_bond_site_symmetry_2
_ccdc_geom_bond_type
O0 Cd1 2.223 . S
O0 C8 1.315 . S
Cd1 O0 2.223 . S
Cd1 O4 2.297 . S
Cd1 O5 2.439 . S
Cd1 O11 2.240 . S
Cd2 O3 2.240 . S
Cd2 O10 2.223 . S
Cd2 O12 2.297 . S
Cd2 O13 2.439 . S
O3 Cd2 2.240 . S
O3 C8 1.279 . S
O4 Cd1 2.297 . S
O4 C6 1.247 . S
O5 Cd1 2.439 . S
O5 C6 1.208 . S
C6 O4 1.247 . S
C6 O5 1.208 . S
C7 O12 1.247 . S
C7 O13 1.208 . S
C8 O0 1.315 . S
C8 O3 1.279 . S
C9 O10 1.315 . S
C9 O11 1.279 . S
O10 Cd2 2.223 . S
O10 C9 1.315 . S
O11 Cd1 2.240 . S
O11 C9 1.279 . S
O12 Cd2 2.297 . S
O12 C7 1.247 . S
O13 Cd2 2.439 . S
O13 C7 1.208 . S
O14 Cd15 2.223 . S
O14 C22 1.315 . S
Cd15 O14 2.223 . S
Cd15 O18 2.297 . S
Cd15 O19 2.439 . S
Cd15 O25 2.240 . S
Cd16 O17 2.240 . S
Cd16 O24 2.223 . S
Cd16 O26 2.297 . S
Cd16 O27 2.439 . S
O17 Cd16 2.240 . S
O17 C22 1.279 . S
O18 Cd15 2.297 . S
O18 C20 1.247 . S
O19 Cd15 2.439 . S
O19 C20 1.208 . S
C20 O18 1.247 . S
C20 O19 1.208 . S
C21 O26 1.247 . S
C21 O27 1.208 . S
C22 O14 1.315 . S
C22 O17 1.279 . S
C23 O24 1.315 . S
C23 O25 1.279 . S
O24 Cd16 2.223 . S
O24 C23 1.315 . S
O25 Cd15 2.240 . S
O25 C23 1.279 . S
O26 Cd16 2.297 . S
O26 C21 1.247 . S
O27 Cd16 2.439 . S
O27 C21 1.208 . S
O28 Cd29 2.223 . S
O28 C36 1.315 . S
Cd29 O28 2.223 . S
Cd29 O32 2.297 . S
Cd29 O33 2.439 . S
Cd29 O39 2.240 . S
Cd30 O31 2.240 . S
Cd30 O38 2.223 . S
Cd30 O40 2.297 . S
Cd30 O41 2.439 . S
O31 Cd30 2.240 . S
O31 C36 1.279 . S
O32 Cd29 2.297 . S
O32 C34 1.247 . S
O33 Cd29 2.439 . S
O33 C34 1.208 . S
C34 O32 1.247 . S
C34 O33 1.208 . S
C35 O40 1.247 . S
C35 O41 1.208 . S
C36 O28 1.315 . S
C36 O31 1.279 . S
C37 O38 1.315 . S
C37 O39 1.279 . S
O38 Cd30 2.223 . S
O38 C37 1.315 . S
O39 Cd29 2.240 . S
O39 C37 1.279 . S
O40 Cd30 2.297 . S
O40 C35 1.247 . S
O41 Cd30 2.439 . S
O41 C35 1.208 . S
O42 Cd43 2.223 . S
O42 C50 1.315 . S
Cd43 O42 2.223 . S
Cd43 O46 2.297 . S
Cd43 O47 2.439 . S
Cd43 O53 2.240 . S
Cd44 O45 2.240 . S
Cd44 O52 2.223 . S
Cd44 O54 2.297 . S
Cd44 O55 2.439 . S
O45 Cd44 2.240 . S
O45 C50 1.279 . S
O46 Cd43 2.297 . S
O46 C48 1.247 . S
O47 Cd43 2.439 . S
O47 C48 1.208 . S
C48 O46 1.247 . S
C48 O47 1.208 . S
C49 O54 1.247 . S
C49 O55 1.208 . S
C50 O42 1.315 . S
C50 O45 1.279 . S
C51 O52 1.315 . S
C51 O53 1.279 . S
O52 Cd44 2.223 . S
O52 C51 1.315 . S
O53 Cd43 2.240 . S
O53 C51 1.279 . S
O54 Cd44 2.297 . S
O54 C49 1.247 . S
O55 Cd44 2.439 . S
O55 C49 1.208 . S
O56 Cd57 2.223 . S
O56 C64 1.315 . S
Cd57 O56 2.223 . S
Cd57 O60 2.297 . S
Cd57 O61 2.439 . S
Cd57 O67 2.240 . S
Cd58 O59 2.240 . S
Cd58 O66 2.223 . S
Cd58 O68 2.297 . S
Cd58 O69 2.439 . S
O59 Cd58 2.240 . S
O59 C64 1.279 . S
O60 Cd57 2.297 . S
O60 C62 1.247 . S
O61 Cd57 2.439 . S
O61 C62 1.208 . S
C62 O60 1.247 . S
C62 O61 1.208 . S
C63 O68 1.247 . S
C63 O69 1.208 . S
C64 O56 1.315 . S
C64 O59 1.279 . S
C65 O66 1.315 . S
C65 O67 1.279 . S
O66 Cd58 2.223 . S
O66 C65 1.315 . S
O67 Cd57 2.240 . S
O67 C65 1.279 . S
O68 Cd58 2.297 . S
O68 C63 1.247 . S
O69 Cd58 2.439 . S
O69 C63 1.208 . S
O70 Cd71 2.223 . S
O70 C78 1.315 . S
Cd71 O70 2.223 . S
Cd71 O74 2.297 . S
Cd71 O75 2.439 . S
Cd71 O81 2.240 . S
Cd72 O73 2.240 . S
Cd72 O80 2.223 . S
Cd72 O82 2.297 . S
Cd72 O83 2.439 . S
O73 Cd72 2.240 . S
O73 C78 1.279 . S
O74 Cd71 2.297 . S
O74 C76 1.247 . S
O75 Cd71 2.439 . S
O75 C76 1.208 . S
C76 O74 1.247 . S
C76 O75 1.208 . S
C77 O82 1.247 . S
C77 O83 1.208 . S
C78 O70 1.315 . S
C78 O73 1.279 . S
C79 O80 1.315 . S
C79 O81 1.279 . S
O80 Cd72 2.223 . S
O80 C79 1.315 . S
O81 Cd71 2.240 . S
O81 C79 1.279 . S
O82 Cd72 2.297 . S
O82 C77 1.247 . S
O83 Cd72 2.439 . S
O83 C77 1.208 . S
O84 Cd85 2.223 . S
O84 C92 1.315 . S
Cd85 O84 2.223 . S
Cd85 O88 2.297 . S
Cd85 O89 2.439 . S
Cd85 O95 2.240 . S
Cd86 O87 2.240 . S
Cd86 O94 2.223 . S
Cd86 O96 2.297 . S
Cd86 O97 2.439 . S
O87 Cd86 2.240 . S
O87 C92 1.279 . S
O88 Cd85 2.297 . S
O88 C90 1.247 . S
O89 Cd85 2.439 . S
O89 C90 1.208 . S
C90 O88 1.247 . S
C90 O89 1.208 . S
C91 O96 1.247 . S
C91 O97 1.208 . S
C92 O84 1.315 . S
C92 O87 1.279 . S
C93 O94 1.315 . S
C93 O95 1.279 . S
O94 Cd86 2.223 . S
O94 C93 1.315 . S
O95 Cd85 2.240 . S
O95 C93 1.279 . S
O96 Cd86 2.297 . S
O96 C91 1.247 . S
O97 Cd86 2.439 . S
O97 C91 1.208 . S
O98 Cd99 2.223 . S
O98 C106 1.315 . S
Cd99 O98 2.223 . S
Cd99 O102 2.297 . S
Cd99 O103 2.439 . S
Cd99 O109 2.240 . S
Cd100 O101 2.240 . S
Cd100 O108 2.223 . S
Cd100 O110 2.297 . S
Cd100 O111 2.439 . S
O101 Cd100 2.240 . S
O101 C106 1.279 . S
O102 Cd99 2.297 . S
O102 C104 1.247 . S
O103 Cd99 2.439 . S
O103 C104 1.208 . S
C104 O102 1.247 . S
C104 O103 1.208 . S
C105 O110 1.247 . S
C105 O111 1.208 . S
C106 O98 1.315 . S
C106 O101 1.279 . S
C107 O108 1.315 . S
C107 O109 1.279 . S
O108 Cd100 2.223 . S
O108 C107 1.315 . S
O109 Cd99 2.240 . S
O109 C107 1.279 . S
O110 Cd100 2.297 . S
O110 C105 1.247 . S
O111 Cd100 2.439 . S
O111 C105 1.208 . S
O112 Cd113 2.223 . S
O112 C120 1.315 . S
Cd113 O112 2.223 . S
Cd113 O116 2.297 . S
Cd113 O117 2.439 . S
Cd113 O123 2.240 . S
Cd114 O115 2.240 . S
Cd114 O122 2.223 . S
Cd114 O124 2.297 . S
Cd114 O125 2.439 . S
O115 Cd114 2.240 . S
O115 C120 1.279 . S
O116 Cd113 2.297 . S
O116 C118 1.247 . S
O117 Cd113 2.439 . S
O117 C118 1.208 . S
C118 O116 1.247 . S
C118 O117 1.208 . S
C119 O124 1.247 . S
C119 O125 1.208 . S
C120 O112 1.315 . S
C120 O115 1.279 . S
C121 O122 1.315 . S
C121 O123 1.279 . S
O122 Cd114 2.223 . S
O122 C121 1.315 . S
O123 Cd113 2.240 . S
O123 C121 1.279 . S
O124 Cd114 2.297 . S
O124 C119 1.247 . S
O125 Cd114 2.439 . S
O125 C119 1.208 . S
O126 Cd127 2.223 . S
O126 C134 1.315 . S
Cd127 O126 2.223 . S
Cd127 O130 2.297 . S
Cd127 O131 2.439 . S
Cd127 O137 2.240 . S
Cd128 O129 2.240 . S
Cd128 O136 2.223 . S
Cd128 O138 2.297 . S
Cd128 O139 2.439 . S
O129 Cd128 2.240 . S
O129 C134 1.279 . S
O130 Cd127 2.297 . S
O130 C132 1.247 . S
O131 Cd127 2.439 . S
O131 C132 1.208 . S
C132 O130 1.247 . S
C132 O131 1.208 . S
C133 O138 1.247 . S
C133 O139 1.208 . S
C134 O126 1.315 . S
C134 O129 1.279 . S
C135 O136 1.315 . S
C135 O137 1.279 . S
O136 Cd128 2.223 . S
O136 C135 1.315 . S
O137 Cd127 2.240 . S
O137 C135 1.279 . S
O138 Cd128 2.297 . S
O138 C133 1.247 . S
O139 Cd128 2.439 . S
O139 C133 1.208 . S
O140 Cd141 2.223 . S
O140 C148 1.315 . S
Cd141 O140 2.223 . S
Cd141 O144 2.297 . S
Cd141 O145 2.439 . S
Cd141 O151 2.240 . S
Cd142 O143 2.240 . S
Cd142 O150 2.223 . S
Cd142 O152 2.297 . S
Cd142 O153 2.439 . S
O143 Cd142 2.240 . S
O143 C148 1.279 . S
O144 Cd141 2.297 . S
O144 C146 1.247 . S
O145 Cd141 2.439 . S
O145 C146 1.208 . S
C146 O144 1.247 . S
C146 O145 1.208 . S
C147 O152 1.247 . S
C147 O153 1.208 . S
C148 O140 1.315 . S
C148 O143 1.279 . S
C149 O150 1.315 . S
C149 O151 1.279 . S
O150 Cd142 2.223 . S
O150 C149 1.315 . S
O151 Cd141 2.240 . S
O151 C149 1.279 . S
O152 Cd142 2.297 . S
O152 C147 1.247 . S
O153 Cd142 2.439 . S
O153 C147 1.208 . S
O154 Cd155 2.223 . S
O154 C162 1.315 . S
Cd155 O154 2.223 . S
Cd155 O158 2.297 . S
Cd155 O159 2.439 . S
Cd155 O165 2.240 . S
Cd156 O157 2.240 . S
Cd156 O164 2.223 . S
Cd156 O166 2.297 . S
Cd156 O167 2.439 . S
O157 Cd156 2.240 . S
O157 C162 1.279 . S
O158 Cd155 2.297 . S
O158 C160 1.247 . S
O159 Cd155 2.439 . S
O159 C160 1.208 . S
C160 O158 1.247 . S
C160 O159 1.208 . S
C161 O166 1.247 . S
C161 O167 1.208 . S
C162 O154 1.315 . S
C162 O157 1.279 . S
C163 O164 1.315 . S
C163 O165 1.279 . S
O164 Cd156 2.223 . S
O164 C163 1.315 . S
O165 Cd155 2.240 . S
O165 C163 1.279 . S
O166 Cd156 2.297 . S
O166 C161 1.247 . S
O167 Cd156 2.439 . S
O167 C161 1.208 . S
H168 C186 0.951 . S
H169 C188 0.951 . S
H170 C190 0.950 . S
H171 C191 0.950 . S
H172 C193 0.950 . S
H173 C196 0.950 . S
H174 C197 0.950 . S
H175 C199 0.950 . S
H176 C200 0.950 . S
H177 C201 0.951 . S
H178 C203 0.951 . S
H179 C205 0.950 . S
H180 C206 0.950 . S
H181 C208 0.950 . S
H182 C211 0.950 . S
H183 C212 0.950 . S
H184 C214 0.950 . S
H185 C215 0.950 . S
C186 H168 0.951 . S
C186 C187 1.366 . S
C186 C188 1.388 . S
C187 C186 1.366 . S
C187 C191 1.385 . S
C188 H169 0.951 . S
C188 C186 1.388 . S
C188 C189 1.366 . S
C189 C188 1.366 . S
C189 C190 1.414 . S
C189 C192 1.499 . S
C190 H170 0.950 . S
C190 C189 1.414 . S
C190 C191 1.374 . S
C191 H171 0.950 . S
C191 C187 1.385 . S
C191 C190 1.374 . S
C192 C189 1.499 . S
C192 C193 1.373 . S
C192 C194 1.389 1_655 S
C193 H172 0.950 . S
C193 C192 1.373 . S
C193 C209 1.377 . S
C194 C192 1.389 1_455 S
C194 C195 1.524 . S
C194 C208 1.377 . S
C195 C194 1.524 . S
C195 C196 1.397 . S
C195 C200 1.363 . S
C196 H173 0.950 . S
C196 C195 1.397 . S
C196 C197 1.334 . S
C197 H174 0.950 . S
C197 C196 1.334 . S
C197 C198 1.287 . S
C198 C197 1.287 . S
C198 C199 1.524 . S
C198 H217 0.913 . S
C199 H175 0.950 . S
C199 C198 1.524 . S
C199 C200 1.415 . S
C200 H176 0.950 . S
C200 C195 1.363 . S
C200 C199 1.415 . S
C201 H177 0.951 . S
C201 C202 1.366 . S
C201 C203 1.388 . S
C202 C201 1.366 . S
C202 C206 1.385 . S
C203 H178 0.951 . S
C203 C201 1.388 . S
C203 C204 1.366 . S
C204 C203 1.366 . S
C204 C205 1.414 . S
C204 C207 1.499 . S
C205 H179 0.950 . S
C205 C204 1.414 . S
C205 C206 1.374 . S
C206 H180 0.950 . S
C206 C202 1.385 . S
C206 C205 1.374 . S
C207 C204 1.499 . S
C207 C208 1.373 . S
C207 C209 1.389 1_455 S
C208 H181 0.950 . S
C208 C194 1.377 . S
C208 C207 1.373 . S
C209 C193 1.377 . S
C209 C207 1.389 1_655 S
C209 C210 1.524 . S
C210 C209 1.524 . S
C210 C211 1.397 . S
C210 C215 1.363 . S
C211 H182 0.950 . S
C211 C210 1.397 . S
C211 C212 1.334 . S
C212 H183 0.950 . S
C212 C211 1.334 . S
C212 C213 1.287 . S
C213 C212 1.287 . S
C213 C214 1.524 . S
C213 H216 0.999 . S
C214 H184 0.950 . S
C214 C213 1.524 . S
C214 C215 1.415 . S
C215 H185 0.950 . S
C215 C210 1.363 . S
C215 C214 1.415 . S
H216 C213 0.999 . S
H217 C198 0.913 . S
H218 C236 0.951 . S
H219 C238 0.951 . S
H220 C240 0.950 1_655 S
H221 C241 0.950 . S
H222 C243 0.950 . S
H223 C246 0.950 . S
H224 C247 0.950 . S
H225 C249 0.950 . S
H226 C250 0.950 . S
H227 C251 0.951 . S
H228 C253 0.951 . S
H229 C255 0.950 1_455 S
H230 C256 0.950 . S
H231 C258 0.950 . S
H232 C261 0.950 . S
H233 C262 0.950 . S
H234 C264 0.950 . S
H235 C265 0.950 . S
C236 H218 0.951 . S
C236 C237 1.366 . S
C236 C238 1.388 . S
C237 C236 1.366 . S
C237 C241 1.385 . S
C238 H219 0.951 . S
C238 C236 1.388 . S
C238 C239 1.366 . S
C239 C238 1.366 . S
C239 C240 1.414 . S
C239 C242 1.499 . S
C240 H220 0.950 1_455 S
C240 C239 1.414 . S
C240 C241 1.374 . S
C241 H221 0.950 . S
C241 C237 1.385 . S
C241 C240 1.374 . S
C242 C239 1.499 . S
C242 C243 1.373 1_455 S
C242 C244 1.389 . S
C243 H222 0.950 . S
C243 C242 1.373 1_655 S
C243 C259 1.377 . S
C244 C242 1.389 . S
C244 C245 1.524 . S
C244 C258 1.377 . S
C245 C244 1.524 . S
C245 C246 1.397 . S
C245 C250 1.363 . S
C246 H223 0.950 . S
C246 C245 1.397 . S
C246 C247 1.334 . S
C247 H224 0.950 . S
C247 C246 1.334 . S
C247 C248 1.287 . S
C248 C247 1.287 . S
C248 C249 1.524 . S
C248 H267 0.913 . S
C249 H225 0.950 . S
C249 C248 1.524 . S
C249 C250 1.415 . S
C250 H226 0.950 . S
C250 C245 1.363 . S
C250 C249 1.415 . S
C251 H227 0.951 . S
C251 C252 1.366 . S
C251 C253 1.388 . S
C252 C251 1.366 . S
C252 C256 1.385 . S
C253 H228 0.951 . S
C253 C251 1.388 . S
C253 C254 1.366 . S
C254 C253 1.366 . S
C254 C255 1.414 . S
C254 C257 1.499 . S
C255 H229 0.950 1_655 S
C255 C254 1.414 . S
C255 C256 1.374 . S
C256 H230 0.950 . S
C256 C252 1.385 . S
C256 C255 1.374 . S
C257 C254 1.499 . S
C257 C258 1.373 1_655 S
C257 C259 1.389 . S
C258 H231 0.950 . S
C258 C244 1.377 . S
C258 C257 1.373 1_455 S
C259 C243 1.377 . S
C259 C257 1.389 . S
C259 C260 1.524 . S
C260 C259 1.524 . S
C260 C261 1.397 . S
C260 C265 1.363 . S
C261 H232 0.950 . S
C261 C260 1.397 . S
C261 C262 1.334 . S
C262 H233 0.950 . S
C262 C261 1.334 . S
C262 C263 1.287 . S
C263 C262 1.287 . S
C263 C264 1.524 . S
C263 H266 0.999 . S
C264 H234 0.950 . S
C264 C263 1.524 . S
C264 C265 1.415 . S
C265 H235 0.950 . S
C265 C260 1.363 . S
C265 C264 1.415 . S
H266 C263 0.999 . S
H267 C248 0.913 . S
H268 C286 0.951 . S
H269 C288 0.951 1_545 S
H270 C290 0.950 . S
H271 C291 0.950 . S
H272 C293 0.950 . S
H273 C296 0.950 . S
H274 C297 0.950 . S
H275 C299 0.950 . S
H276 C300 0.950 . S
H277 C301 0.951 . S
H278 C303 0.951 1_565 S
H279 C305 0.950 . S
H280 C306 0.950 . S
H281 C308 0.950 . S
H282 C311 0.950 . S
H283 C312 0.950 . S
H284 C314 0.950 . S
H285 C315 0.950 . S
C286 H268 0.951 . S
C286 C287 1.366 . S
C286 C288 1.388 . S
C287 C286 1.366 . S
C287 C291 1.385 . S
C288 H269 0.951 1_565 S
C288 C286 1.388 . S
C288 C289 1.366 . S
C289 C288 1.366 . S
C289 C290 1.414 . S
C289 C292 1.499 . S
C290 H270 0.950 . S
C290 C289 1.414 . S
C290 C291 1.374 . S
C291 H271 0.950 . S
C291 C287 1.385 . S
C291 C290 1.374 . S
C292 C289 1.499 . S
C292 C293 1.373 . S
C292 C294 1.389 1_565 S
C293 H272 0.950 . S
C293 C292 1.373 . S
C293 C309 1.377 . S
C294 C292 1.389 1_545 S
C294 C295 1.524 . S
C294 C308 1.377 . S
C295 C294 1.524 . S
C295 C296 1.397 1_545 S
C295 C300 1.363 . S
C296 H273 0.950 . S
C296 C295 1.397 1_565 S
C296 C297 1.334 . S
C297 H274 0.950 . S
C297 C296 1.334 . S
C297 C298 1.287 1_565 S
C298 C297 1.287 1_545 S
C298 C299 1.524 . S
C298 H317 0.913 . S
C299 H275 0.950 . S
C299 C298 1.524 . S
C299 C300 1.415 . S
C300 H276 0.950 . S
C300 C295 1.363 . S
C300 C299 1.415 . S
C301 H277 0.951 . S
C301 C302 1.366 . S
C301 C303 1.388 . S
C302 C301 1.366 . S
C302 C306 1.385 . S
C303 H278 0.951 1_545 S
C303 C301 1.388 . S
C303 C304 1.366 . S
C304 C303 1.366 . S
C304 C305 1.414 . S
C304 C307 1.499 . S
C305 H279 0.950 . S
C305 C304 1.414 . S
C305 C306 1.374 . S
C306 H280 0.950 . S
C306 C302 1.385 . S
C306 C305 1.374 . S
C307 C304 1.499 . S
C307 C308 1.373 . S
C307 C309 1.389 1_545 S
C308 H281 0.950 . S
C308 C294 1.377 . S
C308 C307 1.373 . S
C309 C293 1.377 . S
C309 C307 1.389 1_565 S
C309 C310 1.524 . S
C310 C309 1.524 . S
C310 C311 1.397 1_565 S
C310 C315 1.363 . S
C311 H282 0.950 . S
C311 C310 1.397 1_545 S
C311 C312 1.334 . S
C312 H283 0.950 . S
C312 C311 1.334 . S
C312 C313 1.287 1_545 S
C313 C312 1.287 1_565 S
C313 C314 1.524 . S
C313 H316 0.999 . S
C314 H284 0.950 . S
C314 C313 1.524 . S
C314 C315 1.415 . S
C315 H285 0.950 . S
C315 C310 1.363 . S
C315 C314 1.415 . S
H316 C313 0.999 . S
H317 C298 0.913 . S
H318 C336 0.951 . S
H319 C338 0.951 . S
H320 C340 0.950 1_545 S
H321 C341 0.950 . S
H322 C343 0.950 . S
H323 C346 0.950 . S
H324 C347 0.950 . S
H325 C349 0.950 . S
H326 C350 0.950 . S
H327 C351 0.951 . S
H328 C353 0.951 . S
H329 C355 0.950 1_565 S
H330 C356 0.950 . S
H331 C358 0.950 . S
H332 C361 0.950 . S
H333 C362 0.950 . S
H334 C364 0.950 . S
H335 C365 0.950 . S
C336 H318 0.951 . S
C336 C337 1.366 . S
C336 C338 1.388 . S
C337 C336 1.366 . S
C337 C341 1.385 . S
C338 H319 0.951 . S
C338 C336 1.388 . S
C338 C339 1.366 . S
C339 C338 1.366 . S
C339 C340 1.414 . S
C339 C342 1.499 . S
C340 H320 0.950 1_565 S
C340 C339 1.414 . S
C340 C341 1.374 . S
C341 H321 0.950 . S
C341 C337 1.385 . S
C341 C340 1.374 . S
C342 C339 1.499 . S
C342 C343 1.373 1_565 S
C342 C344 1.389 . S
C343 H322 0.950 . S
C343 C342 1.373 1_545 S
C343 C359 1.377 . S
C344 C342 1.389 . S
C344 C345 1.524 . S
C344 C358 1.377 . S
C345 C344 1.524 . S
C345 C346 1.397 . S
C345 C350 1.363 . S
C346 H323 0.950 . S
C346 C345 1.397 . S
C346 C347 1.334 . S
C347 H324 0.950 . S
C347 C346 1.334 . S
C347 C348 1.287 . S
C348 C347 1.287 . S
C348 C349 1.524 . S
C348 H367 0.913 . S
C349 H325 0.950 . S
C349 C348 1.524 . S
C349 C350 1.415 . S
C350 H326 0.950 . S
C350 C345 1.363 . S
C350 C349 1.415 . S
C351 H327 0.951 . S
C351 C352 1.366 . S
C351 C353 1.388 . S
C352 C351 1.366 . S
C352 C356 1.385 . S
C353 H328 0.951 . S
C353 C351 1.388 . S
C353 C354 1.366 . S
C354 C353 1.366 . S
C354 C355 1.414 . S
C354 C357 1.499 . S
C355 H329 0.950 1_545 S
C355 C354 1.414 . S
C355 C356 1.374 . S
C356 H330 0.950 . S
C356 C352 1.385 . S
C356 C355 1.374 . S
C357 C354 1.499 . S
C357 C358 1.373 1_545 S
C357 C359 1.389 . S
C358 H331 0.950 . S
C358 C344 1.377 . S
C358 C357 1.373 1_565 S
C359 C343 1.377 . S
C359 C357 1.389 . S
C359 C360 1.524 . S
C360 C359 1.524 . S
C360 C361 1.397 . S
C360 C365 1.363 . S
C361 H332 0.950 . S
C361 C360 1.397 . S
C361 C362 1.334 . S
C362 H333 0.950 . S
C362 C361 1.334 . S
C362 C363 1.287 . S
C363 C362 1.287 . S
C363 C364 1.524 . S
C363 H366 0.999 . S
C364 H334 0.950 . S
C364 C363 1.524 . S
C364 C365 1.415 . S
C365 H335 0.950 . S
C365 C360 1.363 . S
C365 C364 1.415 . S
H366 C363 0.999 . S
H367 C348 0.913 . S
H368 C386 0.951 . S
H369 C388 0.951 1_554 S
H370 C390 0.950 . S
H371 C391 0.950 . S
H372 C393 0.950 . S
H373 C396 0.950 . S
H374 C397 0.950 . S
H375 C399 0.950 . S
H376 C400 0.950 . S
H377 C401 0.951 . S
H378 C403 0.951 1_556 S
H379 C405 0.950 . S
H380 C406 0.950 . S
H381 C408 0.950 . S
H382 C411 0.950 . S
H383 C412 0.950 . S
H384 C414 0.950 . S
H385 C415 0.950 . S
C386 H368 0.951 . S
C386 C387 1.366 . S
C386 C388 1.388 . S
C387 C386 1.366 . S
C387 C391 1.385 . S
C388 H369 0.951 1_556 S
C388 C386 1.388 . S
C388 C389 1.366 . S
C389 C388 1.366 . S
C389 C390 1.414 . S
C389 C392 1.499 . S
C390 H370 0.950 . S
C390 C389 1.414 . S
C390 C391 1.374 . S
C391 H371 0.950 . S
C391 C387 1.385 . S
C391 C390 1.374 . S
C392 C389 1.499 . S
C392 C393 1.373 . S
C392 C394 1.385 1_556 S
C393 H372 0.950 . S
C393 C392 1.373 . S
C393 C409 1.381 . S
C394 C392 1.385 1_554 S
C394 C395 1.524 1_554 S
C394 C408 1.381 . S
C395 C394 1.524 1_556 S
C395 C396 1.401 . S
C395 C400 1.359 1_556 S
C396 H373 0.950 . S
C396 C395 1.401 . S
C396 C397 1.334 . S
C397 H374 0.950 . S
C397 C396 1.334 . S
C397 C398 1.287 . S
C398 C397 1.287 . S
C398 C399 1.524 1_556 S
C398 H417 0.913 . S
C399 H375 0.950 . S
C399 C398 1.524 1_554 S
C399 C400 1.415 . S
C400 H376 0.950 . S
C400 C395 1.359 1_554 S
C400 C399 1.415 . S
C401 H377 0.951 . S
C401 C402 1.366 . S
C401 C403 1.388 . S
C402 C401 1.366 . S
C402 C406 1.385 . S
C403 H378 0.951 1_554 S
C403 C401 1.388 . S
C403 C404 1.366 . S
C404 C403 1.366 . S
C404 C405 1.414 . S
C404 C407 1.499 . S
C405 H379 0.950 . S
C405 C404 1.414 . S
C405 C406 1.374 . S
C406 H380 0.950 . S
C406 C402 1.385 . S
C406 C405 1.374 . S
C407 C404 1.499 . S
C407 C408 1.373 . S
C407 C409 1.385 1_554 S
C408 H381 0.950 . S
C408 C394 1.381 . S
C408 C407 1.373 . S
C409 C393 1.381 . S
C409 C407 1.385 1_556 S
C409 C410 1.524 1_556 S
C410 C409 1.524 1_554 S
C410 C411 1.401 . S
C410 C415 1.359 1_554 S
C411 H382 0.950 . S
C411 C410 1.401 . S
C411 C412 1.334 . S
C412 H383 0.950 . S
C412 C411 1.334 . S
C412 C413 1.287 . S
C413 C412 1.287 . S
C413 C414 1.524 1_554 S
C413 H416 0.999 . S
C414 H384 0.950 . S
C414 C413 1.524 1_556 S
C414 C415 1.415 . S
C415 H385 0.950 . S
C415 C410 1.359 1_556 S
C415 C414 1.415 . S
H416 C413 0.999 . S
H417 C398 0.913 . S
H418 C436 0.951 . S
H419 C438 0.951 1_554 S
H420 C440 0.950 . S
H421 C441 0.950 . S
H422 C443 0.950 . S
H423 C446 0.950 . S
H424 C447 0.950 . S
H425 C449 0.950 . S
H426 C450 0.950 . S
H427 C451 0.951 . S
H428 C453 0.951 1_556 S
H429 C455 0.950 . S
H430 C456 0.950 . S
H431 C458 0.950 . S
H432 C461 0.950 . S
H433 C462 0.950 . S
H434 C464 0.950 . S
H435 C465 0.950 . S
C436 H418 0.951 . S
C436 C437 1.366 . S
C436 C438 1.388 . S
C437 C436 1.366 . S
C437 C441 1.385 . S
C438 H419 0.951 1_556 S
C438 C436 1.388 . S
C438 C439 1.366 . S
C439 C438 1.366 . S
C439 C440 1.414 . S
C439 C442 1.499 . S
C440 H420 0.950 . S
C440 C439 1.414 . S
C440 C441 1.374 . S
C441 H421 0.950 . S
C441 C437 1.385 . S
C441 C440 1.374 . S
C442 C439 1.499 . S
C442 C443 1.373 . S
C442 C444 1.389 . S
C443 H422 0.950 . S
C443 C442 1.373 . S
C443 C459 1.377 1_556 S
C444 C442 1.389 . S
C444 C445 1.524 . S
C444 C458 1.377 1_556 S
C445 C444 1.524 . S
C445 C446 1.397 . S
C445 C450 1.363 1_556 S
C446 H423 0.950 . S
C446 C445 1.397 . S
C446 C447 1.334 . S
C447 H424 0.950 . S
C447 C446 1.334 . S
C447 C448 1.287 . S
C448 C447 1.287 . S
C448 C449 1.524 1_556 S
C448 H467 0.913 . S
C449 H425 0.950 . S
C449 C448 1.524 1_554 S
C449 C450 1.415 . S
C450 H426 0.950 . S
C450 C445 1.363 1_554 S
C450 C449 1.415 . S
C451 H427 0.951 . S
C451 C452 1.366 . S
C451 C453 1.388 . S
C452 C451 1.366 . S
C452 C456 1.385 . S
C453 H428 0.951 1_554 S
C453 C451 1.388 . S
C453 C454 1.366 . S
C454 C453 1.366 . S
C454 C455 1.414 . S
C454 C457 1.499 . S
C455 H429 0.950 . S
C455 C454 1.414 . S
C455 C456 1.374 . S
C456 H430 0.950 . S
C456 C452 1.385 . S
C456 C455 1.374 . S
C457 C454 1.499 . S
C457 C458 1.373 . S
C457 C459 1.389 . S
C458 H431 0.950 . S
C458 C444 1.377 1_554 S
C458 C457 1.373 . S
C459 C443 1.377 1_554 S
C459 C457 1.389 . S
C459 C460 1.524 . S
C460 C459 1.524 . S
C460 C461 1.397 . S
C460 C465 1.363 1_554 S
C461 H432 0.950 . S
C461 C460 1.397 . S
C461 C462 1.334 . S
C462 H433 0.950 . S
C462 C461 1.334 . S
C462 C463 1.287 . S
C463 C462 1.287 . S
C463 C464 1.524 1_554 S
C463 H466 0.999 . S
C464 H434 0.950 . S
C464 C463 1.524 1_556 S
C464 C465 1.415 . S
C465 H435 0.950 . S
C465 C460 1.363 1_556 S
C465 C464 1.415 . S
H466 C463 0.999 . S
H467 C448 0.913 . S
H468 C486 0.951 . S
H469 C488 0.951 . S
H470 C490 0.950 . S
H471 C491 0.950 . S
H472 C493 0.950 . S
H473 C496 0.950 . S
H474 C497 0.950 . S
H475 C499 0.950 . S
H476 C500 0.950 . S
H477 C501 0.951 . S
H478 C503 0.951 . S
H479 C505 0.950 . S
H480 C506 0.950 . S
H481 C508 0.950 . S
H482 C511 0.950 . S
H483 C512 0.950 . S
H484 C514 0.950 . S
H485 C515 0.950 . S
C486 H468 0.951 . S
C486 C487 1.366 . S
C486 C488 1.388 . S
C487 C486 1.366 . S
C487 C491 1.385 . S
C488 H469 0.951 . S
C488 C486 1.388 . S
C488 C489 1.366 . S
C489 C488 1.366 . S
C489 C490 1.414 . S
C489 C492 1.499 . S
C490 H470 0.950 . S
C490 C489 1.414 . S
C490 C491 1.374 . S
C491 H471 0.950 . S
C491 C487 1.385 . S
C491 C490 1.374 . S
C492 C489 1.499 . S
C492 C493 1.373 . S
C492 C494 1.389 . S
C493 H472 0.950 . S
C493 C492 1.373 . S
C493 C509 1.377 . S
C494 C492 1.389 . S
C494 C495 1.524 . S
C494 C508 1.377 . S
C495 C494 1.524 . S
C495 C496 1.397 . S
C495 C500 1.363 . S
C496 H473 0.950 . S
C496 C495 1.397 . S
C496 C497 1.334 . S
C497 H474 0.950 . S
C497 C496 1.334 . S
C497 C498 1.287 . S
C498 C497 1.287 . S
C498 C499 1.524 . S
C498 H517 0.913 . S
C499 H475 0.950 . S
C499 C498 1.524 . S
C499 C500 1.415 . S
C500 H476 0.950 . S
C500 C495 1.363 . S
C500 C499 1.415 . S
C501 H477 0.951 . S
C501 C502 1.366 . S
C501 C503 1.388 . S
C502 C501 1.366 . S
C502 C506 1.385 . S
C503 H478 0.951 . S
C503 C501 1.388 . S
C503 C504 1.366 . S
C504 C503 1.366 . S
C504 C505 1.414 . S
C504 C507 1.499 . S
C505 H479 0.950 . S
C505 C504 1.414 . S
C505 C506 1.374 . S
C506 H480 0.950 . S
C506 C502 1.385 . S
C506 C505 1.374 . S
C507 C504 1.499 . S
C507 C508 1.373 . S
C507 C509 1.389 . S
C508 H481 0.950 . S
C508 C494 1.377 . S
C508 C507 1.373 . S
C509 C493 1.377 . S
C509 C507 1.389 . S
C509 C510 1.524 . S
C510 C509 1.524 . S
C510 C511 1.397 . S
C510 C515 1.363 . S
C511 H482 0.950 . S
C511 C510 1.397 . S
C511 C512 1.334 . S
C512 H483 0.950 . S
C512 C511 1.334 . S
C512 C513 1.287 . S
C513 C512 1.287 . S
C513 C514 1.524 . S
C513 H516 0.999 . S
C514 H484 0.950 . S
C514 C513 1.524 . S
C514 C515 1.415 . S
C515 H485 0.950 . S
C515 C510 1.363 . S
C515 C514 1.415 . S
H516 C513 0.999 . S
H517 C498 0.913 . S
H518 C536 0.951 . S
H519 C538 0.951 . S
H520 C540 0.950 . S
H521 C541 0.950 . S
H522 C543 0.950 . S
H523 C546 0.950 . S
H524 C547 0.950 . S
H525 C549 0.950 . S
H526 C550 0.950 . S
H527 C551 0.951 . S
H528 C553 0.951 . S
H529 C555 0.950 . S
H530 C556 0.950 . S
H531 C558 0.950 . S
H532 C561 0.950 . S
H533 C562 0.950 . S
H534 C564 0.950 . S
H535 C565 0.950 . S
C536 H518 0.951 . S
C536 C537 1.366 . S
C536 C538 1.388 . S
C537 C536 1.366 . S
C537 C541 1.385 . S
C538 H519 0.951 . S
C538 C536 1.388 . S
C538 C539 1.366 . S
C539 C538 1.366 . S
C539 C540 1.414 . S
C539 C542 1.499 . S
C540 H520 0.950 . S
C540 C539 1.414 . S
C540 C541 1.374 . S
C541 H521 0.950 . S
C541 C537 1.385 . S
C541 C540 1.374 . S
C542 C539 1.499 . S
C542 C543 1.373 . S
C542 C544 1.389 . S
C543 H522 0.950 . S
C543 C542 1.373 . S
C543 C559 1.377 . S
C544 C542 1.389 . S
C544 C545 1.524 . S
C544 C558 1.377 . S
C545 C544 1.524 . S
C545 C546 1.397 . S
C545 C550 1.363 . S
C546 H523 0.950 . S
C546 C545 1.397 . S
C546 C547 1.334 . S
C547 H524 0.950 . S
C547 C546 1.334 . S
C547 C548 1.287 . S
C548 C547 1.287 . S
C548 C549 1.524 . S
C548 H567 0.913 . S
C549 H525 0.950 . S
C549 C548 1.524 . S
C549 C550 1.415 . S
C550 H526 0.950 . S
C550 C545 1.363 . S
C550 C549 1.415 . S
C551 H527 0.951 . S
C551 C552 1.366 . S
C551 C553 1.388 . S
C552 C551 1.366 . S
C552 C556 1.385 . S
C553 H528 0.951 . S
C553 C551 1.388 . S
C553 C554 1.366 . S
C554 C553 1.366 . S
C554 C555 1.414 . S
C554 C557 1.499 . S
C555 H529 0.950 . S
C555 C554 1.414 . S
C555 C556 1.374 . S
C556 H530 0.950 . S
C556 C552 1.385 . S
C556 C555 1.374 . S
C557 C554 1.499 . S
C557 C558 1.373 . S
C557 C559 1.389 . S
C558 H531 0.950 . S
C558 C544 1.377 . S
C558 C557 1.373 . S
C559 C543 1.377 . S
C559 C557 1.389 . S
C559 C560 1.524 . S
C560 C559 1.524 . S
C560 C561 1.397 . S
C560 C565 1.363 . S
C561 H532 0.950 . S
C561 C560 1.397 . S
C561 C562 1.334 . S
C562 H533 0.950 . S
C562 C561 1.334 . S
C562 C563 1.287 . S
C563 C562 1.287 . S
C563 C564 1.524 . S
C563 H566 0.999 . S
C564 H534 0.950 . S
C564 C563 1.524 . S
C564 C565 1.415 . S
C565 H535 0.950 . S
C565 C560 1.363 . S
C565 C564 1.415 . S
H566 C563 0.999 . S
H567 C548 0.913 . S
H568 C586 0.951 . S
H569 C588 0.951 . S
H570 C590 0.950 . S
H571 C591 0.950 . S
H572 C593 0.950 . S
H573 C596 0.950 . S
H574 C597 0.950 . S
H575 C599 0.950 . S
H576 C600 0.950 . S
H577 C601 0.951 . S
H578 C603 0.951 . S
H579 C605 0.950 . S
H580 C606 0.950 . S
H581 C608 0.950 . S
H582 C611 0.950 . S
H583 C612 0.950 . S
H584 C614 0.950 . S
H585 C615 0.950 . S
C586 H568 0.951 . S
C586 C587 1.366 . S
C586 C588 1.388 . S
C587 C586 1.366 . S
C587 C591 1.385 . S
C588 H569 0.951 . S
C588 C586 1.388 . S
C588 C589 1.366 . S
C589 C588 1.366 . S
C589 C590 1.414 . S
C589 C592 1.499 . S
C590 H570 0.950 . S
C590 C589 1.414 . S
C590 C591 1.374 . S
C591 H571 0.950 . S
C591 C587 1.385 . S
C591 C590 1.374 . S
C592 C589 1.499 . S
C592 C593 1.373 . S
C592 C594 1.389 . S
C593 H572 0.950 . S
C593 C592 1.373 . S
C593 C609 1.377 . S
C594 C592 1.389 . S
C594 C595 1.524 . S
C594 C608 1.377 . S
C595 C594 1.524 . S
C595 C596 1.397 . S
C595 C600 1.363 . S
C596 H573 0.950 . S
C596 C595 1.397 . S
C596 C597 1.334 . S
C597 H574 0.950 . S
C597 C596 1.334 . S
C597 C598 1.287 . S
C598 C597 1.287 . S
C598 C599 1.524 . S
C598 H617 0.913 1_565 S
C599 H575 0.950 . S
C599 C598 1.524 . S
C599 C600 1.415 . S
C600 H576 0.950 . S
C600 C595 1.363 . S
C600 C599 1.415 . S
C601 H577 0.951 . S
C601 C602 1.366 . S
C601 C603 1.388 . S
C602 C601 1.366 . S
C602 C606 1.385 . S
C603 H578 0.951 . S
C603 C601 1.388 . S
C603 C604 1.366 . S
C604 C603 1.366 . S
C604 C605 1.414 . S
C604 C607 1.499 . S
C605 H579 0.950 . S
C605 C604 1.414 . S
C605 C606 1.374 . S
C606 H580 0.950 . S
C606 C602 1.385 . S
C606 C605 1.374 . S
C607 C604 1.499 . S
C607 C608 1.373 . S
C607 C609 1.389 . S
C608 H581 0.950 . S
C608 C594 1.377 . S
C608 C607 1.373 . S
C609 C593 1.377 . S
C609 C607 1.389 . S
C609 C610 1.524 . S
C610 C609 1.524 . S
C610 C611 1.397 . S
C610 C615 1.363 . S
C611 H582 0.950 . S
C611 C610 1.397 . S
C611 C612 1.334 . S
C612 H583 0.950 . S
C612 C611 1.334 . S
C612 C613 1.287 . S
C613 C612 1.287 . S
C613 C614 1.524 . S
C613 H616 0.999 . S
C614 H584 0.950 . S
C614 C613 1.524 . S
C614 C615 1.415 . S
C615 H585 0.950 . S
C615 C610 1.363 . S
C615 C614 1.415 . S
H616 C613 0.999 . S
H617 C598 0.913 1_545 S
H618 C636 0.951 . S
H619 C638 0.951 . S
H620 C640 0.950 . S
H621 C641 0.950 . S
H622 C643 0.950 . S
H623 C646 0.950 . S
H624 C647 0.950 . S
H625 C649 0.950 . S
H626 C650 0.950 . S
H627 C651 0.951 . S
H628 C653 0.951 . S
H629 C655 0.950 . S
H630 C656 0.950 . S
H631 C658 0.950 . S
H632 C661 0.950 . S
H633 C662 0.950 . S
H634 C664 0.950 . S
H635 C665 0.950 . S
C636 H618 0.951 . S
C636 C637 1.366 . S
C636 C638 1.388 . S
C637 C636 1.366 . S
C637 C641 1.385 . S
C638 H619 0.951 . S
C638 C636 1.388 . S
C638 C639 1.366 . S
C639 C638 1.366 . S
C639 C640 1.414 . S
C639 C642 1.499 . S
C640 H620 0.950 . S
C640 C639 1.414 . S
C640 C641 1.374 . S
C641 H621 0.950 . S
C641 C637 1.385 . S
C641 C640 1.374 . S
C642 C639 1.499 . S
C642 C643 1.373 . S
C642 C644 1.389 . S
C643 H622 0.950 . S
C643 C642 1.373 . S
C643 C659 1.377 . S
C644 C642 1.389 . S
C644 C645 1.524 . S
C644 C658 1.377 . S
C645 C644 1.524 . S
C645 C646 1.397 . S
C645 C650 1.363 . S
C646 H623 0.950 . S
C646 C645 1.397 . S
C646 C647 1.334 . S
C647 H624 0.950 . S
C647 C646 1.334 . S
C647 C648 1.287 . S
C648 C647 1.287 . S
C648 C649 1.524 . S
C648 H667 0.913 . S
C649 H625 0.950 . S
C649 C648 1.524 . S
C649 C650 1.415 . S
C650 H626 0.950 . S
C650 C645 1.363 . S
C650 C649 1.415 . S
C651 H627 0.951 . S
C651 C652 1.366 . S
C651 C653 1.388 . S
C652 C651 1.366 . S
C652 C656 1.385 . S
C653 H628 0.951 . S
C653 C651 1.388 . S
C653 C654 1.366 . S
C654 C653 1.366 . S
C654 C655 1.414 . S
C654 C657 1.499 . S
C655 H629 0.950 . S
C655 C654 1.414 . S
C655 C656 1.374 . S
C656 H630 0.950 . S
C656 C652 1.385 . S
C656 C655 1.374 . S
C657 C654 1.499 . S
C657 C658 1.373 . S
C657 C659 1.389 . S
C658 H631 0.950 . S
C658 C644 1.377 . S
C658 C657 1.373 . S
C659 C643 1.377 . S
C659 C657 1.389 . S
C659 C660 1.524 . S
C660 C659 1.524 . S
C660 C661 1.397 . S
C660 C665 1.363 . S
C661 H632 0.950 . S
C661 C660 1.397 . S
C661 C662 1.334 . S
C662 H633 0.950 . S
C662 C661 1.334 . S
C662 C663 1.287 . S
C663 C662 1.287 . S
C663 C664 1.524 . S
C663 H666 0.999 . S
C664 H634 0.950 . S
C664 C663 1.524 . S
C664 C665 1.415 . S
C665 H635 0.950 . S
C665 C660 1.363 . S
C665 C664 1.415 . S
H666 C663 0.999 . S
H667 C648 0.913 . S
H668 C686 0.951 . S
H669 C688 0.951 . S
H670 C690 0.950 . S
H671 C691 0.950 . S
H672 C693 0.950 . S
H673 C696 0.950 . S
H674 C697 0.950 . S
H675 C699 0.950 . S
H676 C700 0.950 . S
H677 C701 0.951 . S
H678 C703 0.951 . S
H679 C705 0.950 . S
H680 C706 0.950 . S
H681 C708 0.950 . S
H682 C711 0.950 . S
H683 C712 0.950 . S
H684 C714 0.950 . S
H685 C715 0.950 . S
C686 H668 0.951 . S
C686 C687 1.366 . S
C686 C688 1.388 . S
C687 C686 1.366 . S
C687 C691 1.385 . S
C688 H669 0.951 . S
C688 C686 1.388 . S
C688 C689 1.366 . S
C689 C688 1.366 . S
C689 C690 1.414 . S
C689 C692 1.499 . S
C690 H670 0.950 . S
C690 C689 1.414 . S
C690 C691 1.374 . S
C691 H671 0.950 . S
C691 C687 1.385 . S
C691 C690 1.374 . S
C692 C689 1.499 . S
C692 C693 1.373 . S
C692 C694 1.389 . S
C693 H672 0.950 . S
C693 C692 1.373 . S
C693 C709 1.377 . S
C694 C692 1.389 . S
C694 C695 1.524 . S
C694 C708 1.377 . S
C695 C694 1.524 . S
C695 C696 1.397 . S
C695 C700 1.363 . S
C696 H673 0.950 . S
C696 C695 1.397 . S
C696 C697 1.334 . S
C697 H674 0.950 . S
C697 C696 1.334 . S
C697 C698 1.287 . S
C698 C697 1.287 . S
C698 C699 1.524 . S
C698 H717 0.913 . S
C699 H675 0.950 . S
C699 C698 1.524 . S
C699 C700 1.415 . S
C700 H676 0.950 . S
C700 C695 1.363 . S
C700 C699 1.415 . S
C701 H677 0.951 . S
C701 C702 1.366 . S
C701 C703 1.388 . S
C702 C701 1.366 . S
C702 C706 1.385 . S
C703 H678 0.951 . S
C703 C701 1.388 . S
C703 C704 1.366 . S
C704 C703 1.366 . S
C704 C705 1.414 . S
C704 C707 1.499 . S
C705 H679 0.950 . S
C705 C704 1.414 . S
C705 C706 1.374 . S
C706 H680 0.950 . S
C706 C702 1.385 . S
C706 C705 1.374 . S
C707 C704 1.499 . S
C707 C708 1.373 . S
C707 C709 1.389 . S
C708 H681 0.950 . S
C708 C694 1.377 . S
C708 C707 1.373 . S
C709 C693 1.377 . S
C709 C707 1.389 . S
C709 C710 1.524 . S
C710 C709 1.524 . S
C710 C711 1.397 . S
C710 C715 1.363 . S
C711 H682 0.950 . S
C711 C710 1.397 . S
C711 C712 1.334 . S
C712 H683 0.950 . S
C712 C711 1.334 . S
C712 C713 1.287 . S
C713 C712 1.287 . S
C713 C714 1.524 . S
C713 H716 0.999 1_554 S
C714 H684 0.950 . S
C714 C713 1.524 . S
C714 C715 1.415 . S
C715 H685 0.950 . S
C715 C710 1.363 . S
C715 C714 1.415 . S
H716 C713 0.999 1_556 S
H717 C698 0.913 . S
H718 C736 0.951 . S
H719 C738 0.951 . S
H720 C740 0.950 . S
H721 C741 0.950 . S
H722 C743 0.950 . S
H723 C746 0.950 . S
H724 C747 0.950 . S
H725 C749 0.950 . S
H726 C750 0.950 . S
H727 C751 0.951 . S
H728 C753 0.951 . S
H729 C755 0.950 . S
H730 C756 0.950 . S
H731 C758 0.950 . S
H732 C761 0.950 . S
H733 C762 0.950 . S
H734 C764 0.950 . S
H735 C765 0.950 . S
C736 H718 0.951 . S
C736 C737 1.366 . S
C736 C738 1.388 . S
C737 C736 1.366 . S
C737 C741 1.385 . S
C738 H719 0.951 . S
C738 C736 1.388 . S
C738 C739 1.366 . S
C739 C738 1.366 . S
C739 C740 1.414 . S
C739 C742 1.499 . S
C740 H720 0.950 . S
C740 C739 1.414 . S
C740 C741 1.374 . S
C741 H721 0.950 . S
C741 C737 1.385 . S
C741 C740 1.374 . S
C742 C739 1.499 . S
C742 C743 1.373 . S
C742 C744 1.389 . S
C743 H722 0.950 . S
C743 C742 1.373 . S
C743 C759 1.377 . S
C744 C742 1.389 . S
C744 C745 1.524 . S
C744 C758 1.377 . S
C745 C744 1.524 . S
C745 C746 1.397 . S
C745 C750 1.363 . S
C746 H723 0.950 . S
C746 C745 1.397 . S
C746 C747 1.334 . S
C747 H724 0.950 . S
C747 C746 1.334 . S
C747 C748 1.287 . S
C748 C747 1.287 . S
C748 C749 1.524 . S
C748 H767 0.913 . S
C749 H725 0.950 . S
C749 C748 1.524 . S
C749 C750 1.415 . S
C750 H726 0.950 . S
C750 C745 1.363 . S
C750 C749 1.415 . S
C751 H727 0.951 . S
C751 C752 1.366 . S
C751 C753 1.388 . S
C752 C751 1.366 . S
C752 C756 1.385 . S
C753 H728 0.951 . S
C753 C751 1.388 . S
C753 C754 1.366 . S
C754 C753 1.366 . S
C754 C755 1.414 . S
C754 C757 1.499 . S
C755 H729 0.950 . S
C755 C754 1.414 . S
C755 C756 1.374 . S
C756 H730 0.950 . S
C756 C752 1.385 . S
C756 C755 1.374 . S
C757 C754 1.499 . S
C757 C758 1.373 . S
C757 C759 1.389 . S
C758 H731 0.950 . S
C758 C744 1.377 . S
C758 C757 1.373 . S
C759 C743 1.377 . S
C759 C757 1.389 . S
C759 C760 1.524 . S
C760 C759 1.524 . S
C760 C761 1.397 . S
C760 C765 1.363 . S
C761 H732 0.950 . S
C761 C760 1.397 . S
C761 C762 1.334 . S
C762 H733 0.950 . S
C762 C761 1.334 . S
C762 C763 1.287 . S
C763 C762 1.287 . S
C763 C764 1.524 . S
C763 H766 0.999 . S
C764 H734 0.950 . S
C764 C763 1.524 . S
C764 C765 1.415 . S
C765 H735 0.950 . S
C765 C760 1.363 . S
C765 C764 1.415 . S
H766 C763 0.999 . S
H767 C748 0.913 . S
H768 C786 0.951 . S
H769 C788 0.951 . S
H770 C790 0.950 . S
H771 C791 0.950 . S
H772 C793 0.950 . S
H773 C796 0.950 . S
H774 C797 0.950 . S
H775 C799 0.950 . S
H776 C800 0.950 . S
H777 C801 0.951 . S
H778 C803 0.951 . S
H779 C805 0.950 . S
H780 C806 0.950 . S
H781 C808 0.950 . S
H782 C811 0.950 . S
H783 C812 0.950 . S
H784 C814 0.950 . S
H785 C815 0.950 . S
C786 H768 0.951 . S
C786 C787 1.366 . S
C786 C788 1.388 . S
C787 C786 1.366 . S
C787 C791 1.385 . S
C788 H769 0.951 . S
C788 C786 1.388 . S
C788 C789 1.366 . S
C789 C788 1.366 . S
C789 C790 1.414 . S
C789 C792 1.499 . S
C790 H770 0.950 . S
C790 C789 1.414 . S
C790 C791 1.374 . S
C791 H771 0.950 . S
C791 C787 1.385 . S
C791 C790 1.374 . S
C792 C789 1.499 . S
C792 C793 1.373 . S
C792 C794 1.389 . S
C793 H772 0.950 . S
C793 C792 1.373 . S
C793 C809 1.377 . S
C794 C792 1.389 . S
C794 C795 1.524 . S
C794 C808 1.377 . S
C795 C794 1.524 . S
C795 C796 1.397 . S
C795 C800 1.363 . S
C796 H773 0.950 . S
C796 C795 1.397 . S
C796 C797 1.334 . S
C797 H774 0.950 . S
C797 C796 1.334 . S
C797 C798 1.287 . S
C798 C797 1.287 . S
C798 C799 1.524 . S
C798 H817 0.913 . S
C799 H775 0.950 . S
C799 C798 1.524 . S
C799 C800 1.415 . S
C800 H776 0.950 . S
C800 C795 1.363 . S
C800 C799 1.415 . S
C801 H777 0.951 . S
C801 C802 1.366 . S
C801 C803 1.388 . S
C802 C801 1.366 . S
C802 C806 1.385 . S
C803 H778 0.951 . S
C803 C801 1.388 . S
C803 C804 1.366 . S
C804 C803 1.366 . S
C804 C805 1.414 . S
C804 C807 1.499 . S
C805 H779 0.950 . S
C805 C804 1.414 . S
C805 C806 1.374 . S
C806 H780 0.950 . S
C806 C802 1.385 . S
C806 C805 1.374 . S
C807 C804 1.499 . S
C807 C808 1.373 . S
C807 C809 1.389 . S
C808 H781 0.950 . S
C808 C794 1.377 . S
C808 C807 1.373 . S
C809 C793 1.377 . S
C809 C807 1.389 . S
C809 C810 1.524 . S
C810 C809 1.524 . S
C810 C811 1.397 . S
C810 C815 1.363 . S
C811 H782 0.950 . S
C811 C810 1.397 . S
C811 C812 1.334 . S
C812 H783 0.950 . S
C812 C811 1.334 . S
C812 C813 1.287 . S
C813 C812 1.287 . S
C813 C814 1.524 . S
C813 H816 0.999 . S
C814 H784 0.950 . S
C814 C813 1.524 . S
C814 C815 1.415 . S
C815 H785 0.950 . S
C815 C810 1.363 . S
C815 C814 1.415 . S
H816 C813 0.999 . S
H817 C798 0.913 . S
H818 C836 0.951 . S
H819 C838 0.951 . S
H820 C840 0.950 . S
H821 C841 0.950 . S
H822 C843 0.950 . S
H823 C846 0.950 . S
H824 C847 0.950 . S
H825 C849 0.950 . S
H826 C850 0.950 . S
H827 C851 0.951 . S
H828 C853 0.951 . S
H829 C855 0.950 . S
H830 C856 0.950 . S
H831 C858 0.950 . S
H832 C861 0.950 . S
H833 C862 0.950 . S
H834 C864 0.950 . S
H835 C865 0.950 . S
C836 H818 0.951 . S
C836 C837 1.366 . S
C836 C838 1.388 . S
C837 C836 1.366 . S
C837 C841 1.385 . S
C838 H819 0.951 . S
C838 C836 1.388 . S
C838 C839 1.366 . S
C839 C838 1.366 . S
C839 C840 1.414 . S
C839 C842 1.499 . S
C840 H820 0.950 . S
C840 C839 1.414 . S
C840 C841 1.374 . S
C841 H821 0.950 . S
C841 C837 1.385 . S
C841 C840 1.374 . S
C842 C839 1.499 . S
C842 C843 1.373 . S
C842 C844 1.389 . S
C843 H822 0.950 . S
C843 C842 1.373 . S
C843 C859 1.377 . S
C844 C842 1.389 . S
C844 C845 1.524 . S
C844 C858 1.377 . S
C845 C844 1.524 . S
C845 C846 1.397 . S
C845 C850 1.363 . S
C846 H823 0.950 . S
C846 C845 1.397 . S
C846 C847 1.334 . S
C847 H824 0.950 . S
C847 C846 1.334 . S
C847 C848 1.287 . S
C848 C847 1.287 . S
C848 C849 1.524 . S
C848 H867 0.913 . S
C849 H825 0.950 . S
C849 C848 1.524 . S
C849 C850 1.415 . S
C850 H826 0.950 . S
C850 C845 1.363 . S
C850 C849 1.415 . S
C851 H827 0.951 . S
C851 C852 1.366 . S
C851 C853 1.388 . S
C852 C851 1.366 . S
C852 C856 1.385 . S
C853 H828 0.951 . S
C853 C851 1.388 . S
C853 C854 1.366 . S
C854 C853 1.366 . S
C854 C855 1.414 . S
C854 C857 1.499 . S
C855 H829 0.950 . S
C855 C854 1.414 . S
C855 C856 1.374 . S
C856 H830 0.950 . S
C856 C852 1.385 . S
C856 C855 1.374 . S
C857 C854 1.499 . S
C857 C858 1.373 . S
C857 C859 1.389 . S
C858 H831 0.950 . S
C858 C844 1.377 . S
C858 C857 1.373 . S
C859 C843 1.377 . S
C859 C857 1.389 . S
C859 C860 1.524 . S
C860 C859 1.524 . S
C860 C861 1.397 . S
C860 C865 1.363 . S
C861 H832 0.950 . S
C861 C860 1.397 . S
C861 C862 1.334 . S
C862 H833 0.950 . S
C862 C861 1.334 . S
C862 C863 1.287 . S
C863 C862 1.287 . S
C863 C864 1.524 . S
C863 H866 0.999 . S
C864 H834 0.950 . S
C864 C863 1.524 . S
C864 C865 1.415 . S
C865 H835 0.950 . S
C865 C860 1.363 . S
C865 C864 1.415 . S
H866 C863 0.999 . S
H867 C848 0.913 . S
H868 C886 0.951 . S
H869 C888 0.951 . S
H870 C890 0.950 . S
H871 C891 0.950 . S
H872 C893 0.950 . S
H873 C896 0.950 . S
H874 C897 0.950 . S
H875 C899 0.950 . S
H876 C900 0.950 . S
H877 C901 0.951 . S
H878 C903 0.951 . S
H879 C905 0.950 . S
H880 C906 0.950 . S
H881 C908 0.950 . S
H882 C911 0.950 . S
H883 C912 0.950 . S
H884 C914 0.950 . S
H885 C915 0.950 . S
C886 H868 0.951 . S
C886 C887 1.366 . S
C886 C888 1.388 . S
C887 C886 1.366 . S
C887 C891 1.385 . S
C888 H869 0.951 . S
C888 C886 1.388 . S
C888 C889 1.366 . S
C889 C888 1.366 . S
C889 C890 1.414 . S
C889 C892 1.499 . S
C890 H870 0.950 . S
C890 C889 1.414 . S
C890 C891 1.374 . S
C891 H871 0.950 . S
C891 C887 1.385 . S
C891 C890 1.374 . S
C892 C889 1.499 . S
C892 C893 1.373 . S
C892 C894 1.389 . S
C893 H872 0.950 . S
C893 C892 1.373 . S
C893 C909 1.377 . S
C894 C892 1.389 . S
C894 C895 1.524 . S
C894 C908 1.377 . S
C895 C894 1.524 . S
C895 C896 1.397 . S
C895 C900 1.363 . S
C896 H873 0.950 . S
C896 C895 1.397 . S
C896 C897 1.334 . S
C897 H874 0.950 . S
C897 C896 1.334 . S
C897 C898 1.287 . S
C898 C897 1.287 . S
C898 C899 1.524 . S
C898 H917 0.913 . S
C899 H875 0.950 . S
C899 C898 1.524 . S
C899 C900 1.415 . S
C900 H876 0.950 . S
C900 C895 1.363 . S
C900 C899 1.415 . S
C901 H877 0.951 . S
C901 C902 1.366 . S
C901 C903 1.388 . S
C902 C901 1.366 . S
C902 C906 1.385 . S
C903 H878 0.951 . S
C903 C901 1.388 . S
C903 C904 1.366 . S
C904 C903 1.366 . S
C904 C905 1.414 . S
C904 C907 1.499 . S
C905 H879 0.950 . S
C905 C904 1.414 . S
C905 C906 1.374 . S
C906 H880 0.950 . S
C906 C902 1.385 . S
C906 C905 1.374 . S
C907 C904 1.499 . S
C907 C908 1.373 . S
C907 C909 1.389 . S
C908 H881 0.950 . S
C908 C894 1.377 . S
C908 C907 1.373 . S
C909 C893 1.377 . S
C909 C907 1.389 . S
C909 C910 1.524 . S
C910 C909 1.524 . S
C910 C911 1.397 . S
C910 C915 1.363 . S
C911 H882 0.950 . S
C911 C910 1.397 . S
C911 C912 1.334 . S
C912 H883 0.950 . S
C912 C911 1.334 . S
C912 C913 1.287 . S
C913 C912 1.287 . S
C913 C914 1.524 . S
C913 H916 0.999 . S
C914 H884 0.950 . S
C914 C913 1.524 . S
C914 C915 1.415 . S
C915 H885 0.950 . S
C915 C910 1.363 . S
C915 C914 1.415 . S
H916 C913 0.999 . S
H917 C898 0.913 . S
H918 C936 0.951 . S
H919 C938 0.951 . S
H920 C940 0.950 . S
H921 C941 0.950 . S
H922 C943 0.950 . S
H923 C946 0.950 . S
H924 C947 0.950 . S
H925 C949 0.950 . S
H926 C950 0.950 . S
H927 C951 0.951 . S
H928 C953 0.951 . S
H929 C955 0.950 . S
H930 C956 0.950 . S
H931 C958 0.950 . S
H932 C961 0.950 . S
H933 C962 0.950 . S
H934 C964 0.950 . S
H935 C965 0.950 . S
C936 H918 0.951 . S
C936 C937 1.366 . S
C936 C938 1.388 . S
C937 C936 1.366 . S
C937 C941 1.385 . S
C938 H919 0.951 . S
C938 C936 1.388 . S
C938 C939 1.366 . S
C939 C938 1.366 . S
C939 C940 1.414 . S
C939 C942 1.499 . S
C940 H920 0.950 . S
C940 C939 1.414 . S
C940 C941 1.374 . S
C941 H921 0.950 . S
C941 C937 1.385 . S
C941 C940 1.374 . S
C942 C939 1.499 . S
C942 C943 1.373 . S
C942 C944 1.389 . S
C943 H922 0.950 . S
C943 C942 1.373 . S
C943 C959 1.377 . S
C944 C942 1.389 . S
C944 C945 1.524 . S
C944 C958 1.377 . S
C945 C944 1.524 . S
C945 C946 1.397 . S
C945 C950 1.363 . S
C946 H923 0.950 . S
C946 C945 1.397 . S
C946 C947 1.334 . S
C947 H924 0.950 . S
C947 C946 1.334 . S
C947 C948 1.287 . S
C948 C947 1.287 . S
C948 C949 1.524 . S
C948 H967 0.913 . S
C949 H925 0.950 . S
C949 C948 1.524 . S
C949 C950 1.415 . S
C950 H926 0.950 . S
C950 C945 1.363 . S
C950 C949 1.415 . S
C951 H927 0.951 . S
C951 C952 1.366 . S
C951 C953 1.388 . S
C952 C951 1.366 . S
C952 C956 1.385 . S
C953 H928 0.951 . S
C953 C951 1.388 . S
C953 C954 1.366 . S
C954 C953 1.366 . S
C954 C955 1.414 . S
C954 C957 1.499 . S
C955 H929 0.950 . S
C955 C954 1.414 . S
C955 C956 1.374 . S
C956 H930 0.950 . S
C956 C952 1.385 . S
C956 C955 1.374 . S
C957 C954 1.499 . S
C957 C958 1.373 . S
C957 C959 1.389 . S
C958 H931 0.950 . S
C958 C944 1.377 . S
C958 C957 1.373 . S
C959 C943 1.377 . S
C959 C957 1.389 . S
C959 C960 1.524 . S
C960 C959 1.524 . S
C960 C961 1.397 . S
C960 C965 1.363 . S
C961 H932 0.950 . S
C961 C960 1.397 . S
C961 C962 1.334 . S
C962 H933 0.950 . S
C962 C961 1.334 . S
C962 C963 1.287 . S
C963 C962 1.287 . S
C963 C964 1.524 . S
C963 H966 0.999 . S
C964 H934 0.950 . S
C964 C963 1.524 . S
C964 C965 1.415 . S
C965 H935 0.950 . S
C965 C960 1.363 . S
C965 C964 1.415 . S
H966 C963 0.999 . S
H967 C948 0.913 . S
H968 C986 0.951 . S
H969 C988 0.951 . S
H970 C990 0.950 . S
H971 C991 0.950 . S
H972 C993 0.950 . S
H973 C996 0.950 . S
H974 C997 0.950 . S
H975 C999 0.950 . S
H976 C1000 0.950 . S
H977 C1001 0.951 . S
H978 C1003 0.951 . S
H979 C1005 0.950 . S
H980 C1006 0.950 . S
H981 C1008 0.950 . S
H982 C1011 0.950 . S
H983 C1012 0.950 . S
H984 C1014 0.950 . S
H985 C1015 0.950 . S
C986 H968 0.951 . S
C986 C987 1.366 . S
C986 C988 1.388 . S
C987 C986 1.366 . S
C987 C991 1.385 . S
C988 H969 0.951 . S
C988 C986 1.388 . S
C988 C989 1.366 . S
C989 C988 1.366 . S
C989 C990 1.414 . S
C989 C992 1.499 . S
C990 H970 0.950 . S
C990 C989 1.414 . S
C990 C991 1.374 . S
C991 H971 0.950 . S
C991 C987 1.385 . S
C991 C990 1.374 . S
C992 C989 1.499 . S
C992 C993 1.373 . S
C992 C994 1.389 . S
C993 H972 0.950 . S
C993 C992 1.373 . S
C993 C1009 1.377 . S
C994 C992 1.389 . S
C994 C995 1.524 . S
C994 C1008 1.377 . S
C995 C994 1.524 . S
C995 C996 1.397 . S
C995 C1000 1.363 . S
C996 H973 0.950 . S
C996 C995 1.397 . S
C996 C997 1.334 . S
C997 H974 0.950 . S
C997 C996 1.334 . S
C997 C998 1.287 . S
C998 C997 1.287 . S
C998 C999 1.524 . S
C998 H1017 0.913 . S
C999 H975 0.950 . S
C999 C998 1.524 . S
C999 C1000 1.415 . S
C1000 H976 0.950 . S
C1000 C995 1.363 . S
C1000 C999 1.415 . S
C1001 H977 0.951 . S
C1001 C1002 1.366 . S
C1001 C1003 1.388 . S
C1002 C1001 1.366 . S
C1002 C1006 1.385 . S
C1003 H978 0.951 . S
C1003 C1001 1.388 . S
C1003 C1004 1.366 . S
C1004 C1003 1.366 . S
C1004 C1005 1.414 . S
C1004 C1007 1.499 . S
C1005 H979 0.950 . S
C1005 C1004 1.414 . S
C1005 C1006 1.374 . S
C1006 H980 0.950 . S
C1006 C1002 1.385 . S
C1006 C1005 1.374 . S
C1007 C1004 1.499 . S
C1007 C1008 1.373 . S
C1007 C1009 1.389 . S
C1008 H981 0.950 . S
C1008 C994 1.377 . S
C1008 C1007 1.373 . S
C1009 C993 1.377 . S
C1009 C1007 1.389 . S
C1009 C1010 1.524 . S
C1010 C1009 1.524 . S
C1010 C1011 1.397 . S
C1010 C1015 1.363 . S
C1011 H982 0.950 . S
C1011 C1010 1.397 . S
C1011 C1012 1.334 . S
C1012 H983 0.950 . S
C1012 C1011 1.334 . S
C1012 C1013 1.287 . S
C1013 C1012 1.287 . S
C1013 C1014 1.524 . S
C1013 H1016 0.999 . S
C1014 H984 0.950 . S
C1014 C1013 1.524 . S
C1014 C1015 1.415 . S
C1015 H985 0.950 . S
C1015 C1010 1.363 . S
C1015 C1014 1.415 . S
H1016 C1013 0.999 . S
H1017 C998 0.913 . S
H1018 C1036 0.951 . S
H1019 C1038 0.951 . S
H1020 C1040 0.950 . S
H1021 C1041 0.950 . S
H1022 C1043 0.950 . S
H1023 C1046 0.950 . S
H1024 C1047 0.950 . S
H1025 C1049 0.950 . S
H1026 C1050 0.950 . S
H1027 C1051 0.951 . S
H1028 C1053 0.951 . S
H1029 C1055 0.950 . S
H1030 C1056 0.950 . S
H1031 C1058 0.950 . S
H1032 C1061 0.950 . S
H1033 C1062 0.950 . S
H1034 C1064 0.950 . S
H1035 C1065 0.950 . S
C1036 H1018 0.951 . S
C1036 C1037 1.366 . S
C1036 C1038 1.388 . S
C1037 C1036 1.366 . S
C1037 C1041 1.385 . S
C1038 H1019 0.951 . S
C1038 C1036 1.388 . S
C1038 C1039 1.366 . S
C1039 C1038 1.366 . S
C1039 C1040 1.414 . S
C1039 C1042 1.499 . S
C1040 H1020 0.950 . S
C1040 C1039 1.414 . S
C1040 C1041 1.374 . S
C1041 H1021 0.950 . S
C1041 C1037 1.385 . S
C1041 C1040 1.374 . S
C1042 C1039 1.499 . S
C1042 C1043 1.373 . S
C1042 C1044 1.389 . S
C1043 H1022 0.950 . S
C1043 C1042 1.373 . S
C1043 C1059 1.377 . S
C1044 C1042 1.389 . S
C1044 C1045 1.524 . S
C1044 C1058 1.377 . S
C1045 C1044 1.524 . S
C1045 C1046 1.397 . S
C1045 C1050 1.363 . S
C1046 H1023 0.950 . S
C1046 C1045 1.397 . S
C1046 C1047 1.334 . S
C1047 H1024 0.950 . S
C1047 C1046 1.334 . S
C1047 C1048 1.287 . S
C1048 C1047 1.287 . S
C1048 C1049 1.524 . S
C1048 H1067 0.913 . S
C1049 H1025 0.950 . S
C1049 C1048 1.524 . S
C1049 C1050 1.415 . S
C1050 H1026 0.950 . S
C1050 C1045 1.363 . S
C1050 C1049 1.415 . S
C1051 H1027 0.951 . S
C1051 C1052 1.366 . S
C1051 C1053 1.388 . S
C1052 C1051 1.366 . S
C1052 C1056 1.385 . S
C1053 H1028 0.951 . S
C1053 C1051 1.388 . S
C1053 C1054 1.366 . S
C1054 C1053 1.366 . S
C1054 C1055 1.414 . S
C1054 C1057 1.499 . S
C1055 H1029 0.950 . S
C1055 C1054 1.414 . S
C1055 C1056 1.374 . S
C1056 H1030 0.950 . S
C1056 C1052 1.385 . S
C1056 C1055 1.374 . S
C1057 C1054 1.499 . S
C1057 C1058 1.373 . S
C1057 C1059 1.389 . S
C1058 H1031 0.950 . S
C1058 C1044 1.377 . S
C1058 C1057 1.373 . S
C1059 C1043 1.377 . S
C1059 C1057 1.389 . S
C1059 C1060 1.524 . S
C1060 C1059 1.524 . S
C1060 C1061 1.397 . S
C1060 C1065 1.363 . S
C1061 H1032 0.950 . S
C1061 C1060 1.397 . S
C1061 C1062 1.334 . S
C1062 H1033 0.950 . S
C1062 C1061 1.334 . S
C1062 C1063 1.287 . S
C1063 C1062 1.287 . S
C1063 C1064 1.524 . S
C1063 H1066 0.999 . S
C1064 H1034 0.950 . S
C1064 C1063 1.524 . S
C1064 C1065 1.415 . S
C1065 H1035 0.950 . S
C1065 C1060 1.363 . S
C1065 C1064 1.415 . S
H1066 C1063 0.999 . S
H1067 C1048 0.913 . S
H1068 C1086 0.951 . S
H1069 C1088 0.951 1_655 S
H1070 C1090 0.950 . S
H1071 C1091 0.950 . S
H1072 C1093 0.950 . S
H1073 C1096 0.950 . S
H1074 C1097 0.950 . S
H1075 C1099 0.950 . S
H1076 C1100 0.950 . S
H1077 C1101 0.951 . S
H1078 C1103 0.951 1_455 S
H1079 C1105 0.950 . S
H1080 C1106 0.950 . S
H1081 C1108 0.950 . S
H1082 C1111 0.950 . S
H1083 C1112 0.950 . S
H1084 C1114 0.950 . S
H1085 C1115 0.950 . S
C1086 H1068 0.951 . S
C1086 C1087 1.366 . S
C1086 C1088 1.388 . S
C1087 C1086 1.366 . S
C1087 C1091 1.385 . S
C1088 H1069 0.951 1_455 S
C1088 C1086 1.388 . S
C1088 C1089 1.366 . S
C1089 C1088 1.366 . S
C1089 C1090 1.414 . S
C1089 C1092 1.499 . S
C1090 H1070 0.950 . S
C1090 C1089 1.414 . S
C1090 C1091 1.374 . S
C1091 H1071 0.950 . S
C1091 C1087 1.385 . S
C1091 C1090 1.374 . S
C1092 C1089 1.499 . S
C1092 C1093 1.373 . S
C1092 C1094 1.389 1_455 S
C1093 H1072 0.950 . S
C1093 C1092 1.373 . S
C1093 C1109 1.377 1_545 S
C1094 C1092 1.389 1_655 S
C1094 C1095 1.524 . S
C1094 C1108 1.377 1_545 S
C1095 C1094 1.524 . S
C1095 C1096 1.397 . S
C1095 C1100 1.363 . S
C1096 H1073 0.950 . S
C1096 C1095 1.397 . S
C1096 C1097 1.334 . S
C1097 H1074 0.950 . S
C1097 C1096 1.334 . S
C1097 C1098 1.287 . S
C1098 C1097 1.287 . S
C1098 C1099 1.524 . S
C1098 H1117 0.913 . S
C1099 H1075 0.950 . S
C1099 C1098 1.524 . S
C1099 C1100 1.415 . S
C1100 H1076 0.950 . S
C1100 C1095 1.363 . S
C1100 C1099 1.415 . S
C1101 H1077 0.951 . S
C1101 C1102 1.366 . S
C1101 C1103 1.388 . S
C1102 C1101 1.366 . S
C1102 C1106 1.385 . S
C1103 H1078 0.951 1_655 S
C1103 C1101 1.388 . S
C1103 C1104 1.366 . S
C1104 C1103 1.366 . S
C1104 C1105 1.414 . S
C1104 C1107 1.499 . S
C1105 H1079 0.950 . S
C1105 C1104 1.414 . S
C1105 C1106 1.374 . S
C1106 H1080 0.950 . S
C1106 C1102 1.385 . S
C1106 C1105 1.374 . S
C1107 C1104 1.499 . S
C1107 C1108 1.373 . S
C1107 C1109 1.389 1_655 S
C1108 H1081 0.950 . S
C1108 C1094 1.377 1_565 S
C1108 C1107 1.373 . S
C1109 C1093 1.377 1_565 S
C1109 C1107 1.389 1_455 S
C1109 C1110 1.524 . S
C1110 C1109 1.524 . S
C1110 C1111 1.397 . S
C1110 C1115 1.363 . S
C1111 H1082 0.950 . S
C1111 C1110 1.397 . S
C1111 C1112 1.334 . S
C1112 H1083 0.950 . S
C1112 C1111 1.334 . S
C1112 C1113 1.287 . S
C1113 C1112 1.287 . S
C1113 C1114 1.524 . S
C1113 H1116 0.999 . S
C1114 H1084 0.950 . S
C1114 C1113 1.524 . S
C1114 C1115 1.415 . S
C1115 H1085 0.950 . S
C1115 C1110 1.363 . S
C1115 C1114 1.415 . S
H1116 C1113 0.999 . S
H1117 C1098 0.913 . S
H1118 C1136 0.951 . S
H1119 C1138 0.951 . S
H1120 C1140 0.950 . S
H1121 C1141 0.950 . S
H1122 C1143 0.950 . S
H1123 C1146 0.950 . S
H1124 C1147 0.950 . S
H1125 C1149 0.950 . S
H1126 C1150 0.950 . S
H1127 C1151 0.951 . S
H1128 C1153 0.951 . S
H1129 C1155 0.950 . S
H1130 C1156 0.950 . S
H1131 C1158 0.950 . S
H1132 C1161 0.950 . S
H1133 C1162 0.950 . S
H1134 C1164 0.950 . S
H1135 C1165 0.950 . S
C1136 H1118 0.951 . S
C1136 C1137 1.366 . S
C1136 C1138 1.388 . S
C1137 C1136 1.366 . S
C1137 C1141 1.385 . S
C1138 H1119 0.951 . S
C1138 C1136 1.388 . S
C1138 C1139 1.366 . S
C1139 C1138 1.366 . S
C1139 C1140 1.414 . S
C1139 C1142 1.499 . S
C1140 H1120 0.950 . S
C1140 C1139 1.414 . S
C1140 C1141 1.374 . S
C1141 H1121 0.950 . S
C1141 C1137 1.385 . S
C1141 C1140 1.374 . S
C1142 C1139 1.499 . S
C1142 C1143 1.373 . S
C1142 C1144 1.389 1_655 S
C1143 H1122 0.950 . S
C1143 C1142 1.373 . S
C1143 C1159 1.377 1_545 S
C1144 C1142 1.389 1_455 S
C1144 C1145 1.524 . S
C1144 C1158 1.377 1_545 S
C1145 C1144 1.524 . S
C1145 C1146 1.397 . S
C1145 C1150 1.363 . S
C1146 H1123 0.950 . S
C1146 C1145 1.397 . S
C1146 C1147 1.334 . S
C1147 H1124 0.950 . S
C1147 C1146 1.334 . S
C1147 C1148 1.287 . S
C1148 C1147 1.287 . S
C1148 C1149 1.524 . S
C1148 H1167 0.913 . S
C1149 H1125 0.950 . S
C1149 C1148 1.524 . S
C1149 C1150 1.415 . S
C1150 H1126 0.950 . S
C1150 C1145 1.363 . S
C1150 C1149 1.415 . S
C1151 H1127 0.951 . S
C1151 C1152 1.366 . S
C1151 C1153 1.388 . S
C1152 C1151 1.366 . S
C1152 C1156 1.385 . S
C1153 H1128 0.951 . S
C1153 C1151 1.388 . S
C1153 C1154 1.366 . S
C1154 C1153 1.366 . S
C1154 C1155 1.414 . S
C1154 C1157 1.499 . S
C1155 H1129 0.950 . S
C1155 C1154 1.414 . S
C1155 C1156 1.374 . S
C1156 H1130 0.950 . S
C1156 C1152 1.385 . S
C1156 C1155 1.374 . S
C1157 C1154 1.499 . S
C1157 C1158 1.373 . S
C1157 C1159 1.389 1_455 S
C1158 H1131 0.950 . S
C1158 C1144 1.377 1_565 S
C1158 C1157 1.373 . S
C1159 C1143 1.377 1_565 S
C1159 C1157 1.389 1_655 S
C1159 C1160 1.524 . S
C1160 C1159 1.524 . S
C1160 C1161 1.397 . S
C1160 C1165 1.363 . S
C1161 H1132 0.950 . S
C1161 C1160 1.397 . S
C1161 C1162 1.334 . S
C1162 H1133 0.950 . S
C1162 C1161 1.334 . S
C1162 C1163 1.287 . S
C1163 C1162 1.287 . S
C1163 C1164 1.524 . S
C1163 H1166 0.999 . S
C1164 H1134 0.950 . S
C1164 C1163 1.524 . S
C1164 C1165 1.415 . S
C1165 H1135 0.950 . S
C1165 C1160 1.363 . S
C1165 C1164 1.415 . S
H1166 C1163 0.999 . S
H1167 C1148 0.913 . S
H1168 C1186 0.951 . S
H1169 C1188 0.947 . S
H1170 C1190 0.950 . S
H1171 C1191 0.950 . S
H1172 C1193 0.950 . S
H1173 C1196 0.950 . S
H1174 C1197 0.950 . S
H1175 C1199 0.950 . S
H1176 C1200 0.950 . S
H1177 C1201 0.951 . S
H1178 C1203 0.947 . S
H1179 C1205 0.950 . S
H1180 C1206 0.950 . S
H1181 C1208 0.950 . S
H1182 C1211 0.950 . S
H1183 C1212 0.950 . S
H1184 C1214 0.950 . S
H1185 C1215 0.950 . S
C1186 H1168 0.951 . S
C1186 C1187 1.366 . S
C1186 C1188 1.388 . S
C1187 C1186 1.366 . S
C1187 C1191 1.385 . S
C1188 H1169 0.947 . S
C1188 C1186 1.388 . S
C1188 C1189 1.366 . S
C1189 C1188 1.366 . S
C1189 C1190 1.414 . S
C1189 C1192 1.499 . S
C1190 H1170 0.950 . S
C1190 C1189 1.414 . S
C1190 C1191 1.374 . S
C1191 H1171 0.950 . S
C1191 C1187 1.385 . S
C1191 C1190 1.374 . S
C1192 C1189 1.499 . S
C1192 C1193 1.373 . S
C1192 C1194 1.389 1_565 S
C1193 H1172 0.950 . S
C1193 C1192 1.373 . S
C1193 C1209 1.377 1_556 S
C1194 C1192 1.389 1_545 S
C1194 C1195 1.524 . S
C1194 C1208 1.377 1_556 S
C1195 C1194 1.524 . S
C1195 C1196 1.397 . S
C1195 C1200 1.363 . S
C1196 H1173 0.950 . S
C1196 C1195 1.397 . S
C1196 C1197 1.334 . S
C1197 H1174 0.950 . S
C1197 C1196 1.334 . S
C1197 C1198 1.287 . S
C1198 C1197 1.287 . S
C1198 C1199 1.524 . S
C1198 H1217 0.913 . S
C1199 H1175 0.950 . S
C1199 C1198 1.524 . S
C1199 C1200 1.415 . S
C1200 H1176 0.950 . S
C1200 C1195 1.363 . S
C1200 C1199 1.415 . S
C1201 H1177 0.951 . S
C1201 C1202 1.366 . S
C1201 C1203 1.388 . S
C1202 C1201 1.366 . S
C1202 C1206 1.385 . S
C1203 H1178 0.947 . S
C1203 C1201 1.388 . S
C1203 C1204 1.366 . S
C1204 C1203 1.366 . S
C1204 C1205 1.414 . S
C1204 C1207 1.499 . S
C1205 H1179 0.950 . S
C1205 C1204 1.414 . S
C1205 C1206 1.374 . S
C1206 H1180 0.950 . S
C1206 C1202 1.385 . S
C1206 C1205 1.374 . S
C1207 C1204 1.499 . S
C1207 C1208 1.373 . S
C1207 C1209 1.389 1_545 S
C1208 H1181 0.950 . S
C1208 C1194 1.377 1_554 S
C1208 C1207 1.373 . S
C1209 C1193 1.377 1_554 S
C1209 C1207 1.389 1_565 S
C1209 C1210 1.524 . S
C1210 C1209 1.524 . S
C1210 C1211 1.397 . S
C1210 C1215 1.363 . S
C1211 H1182 0.950 . S
C1211 C1210 1.397 . S
C1211 C1212 1.334 . S
C1212 H1183 0.950 . S
C1212 C1211 1.334 . S
C1212 C1213 1.287 . S
C1213 C1212 1.287 . S
C1213 C1214 1.524 . S
C1213 H1216 0.999 . S
C1214 H1184 0.950 . S
C1214 C1213 1.524 . S
C1214 C1215 1.415 . S
C1215 H1185 0.950 . S
C1215 C1210 1.363 . S
C1215 C1214 1.415 . S
H1216 C1213 0.999 . S
H1217 C1198 0.913 . S
H1218 C1236 0.951 . S
H1219 C1238 0.951 . S
H1220 C1240 0.950 . S
H1221 C1241 0.950 . S
H1222 C1243 0.950 . S
H1223 C1246 0.950 . S
H1224 C1247 0.950 . S
H1225 C1249 0.950 . S
H1226 C1250 0.950 . S
H1227 C1251 0.951 . S
H1228 C1253 0.951 . S
H1229 C1255 0.950 . S
H1230 C1256 0.950 . S
H1231 C1258 0.950 . S
H1232 C1261 0.950 . S
H1233 C1262 0.950 . S
H1234 C1264 0.950 . S
H1235 C1265 0.950 . S
C1236 H1218 0.951 . S
C1236 C1237 1.366 . S
C1236 C1238 1.388 . S
C1237 C1236 1.366 . S
C1237 C1241 1.385 . S
C1238 H1219 0.951 . S
C1238 C1236 1.388 . S
C1238 C1239 1.366 . S
C1239 C1238 1.366 . S
C1239 C1240 1.414 . S
C1239 C1242 1.499 . S
C1240 H1220 0.950 . S
C1240 C1239 1.414 . S
C1240 C1241 1.374 . S
C1241 H1221 0.950 . S
C1241 C1237 1.385 . S
C1241 C1240 1.374 . S
C1242 C1239 1.499 . S
C1242 C1243 1.373 . S
C1242 C1244 1.389 1_565 S
C1243 H1222 0.950 . S
C1243 C1242 1.373 . S
C1243 C1259 1.377 1_554 S
C1244 C1242 1.389 1_545 S
C1244 C1245 1.524 . S
C1244 C1258 1.377 1_554 S
C1245 C1244 1.524 . S
C1245 C1246 1.397 . S
C1245 C1250 1.363 . S
C1246 H1223 0.950 . S
C1246 C1245 1.397 . S
C1246 C1247 1.334 . S
C1247 H1224 0.950 . S
C1247 C1246 1.334 . S
C1247 C1248 1.287 . S
C1248 C1247 1.287 . S
C1248 C1249 1.524 . S
C1248 H1267 0.913 . S
C1249 H1225 0.950 . S
C1249 C1248 1.524 . S
C1249 C1250 1.415 . S
C1250 H1226 0.950 . S
C1250 C1245 1.363 . S
C1250 C1249 1.415 . S
C1251 H1227 0.951 . S
C1251 C1252 1.366 . S
C1251 C1253 1.388 . S
C1252 C1251 1.366 . S
C1252 C1256 1.385 . S
C1253 H1228 0.951 . S
C1253 C1251 1.388 . S
C1253 C1254 1.366 . S
C1254 C1253 1.366 . S
C1254 C1255 1.414 . S
C1254 C1257 1.499 . S
C1255 H1229 0.950 . S
C1255 C1254 1.414 . S
C1255 C1256 1.374 . S
C1256 H1230 0.950 . S
C1256 C1252 1.385 . S
C1256 C1255 1.374 . S
C1257 C1254 1.499 . S
C1257 C1258 1.373 . S
C1257 C1259 1.389 1_545 S
C1258 H1231 0.950 . S
C1258 C1244 1.377 1_556 S
C1258 C1257 1.373 . S
C1259 C1243 1.377 1_556 S
C1259 C1257 1.389 1_565 S
C1259 C1260 1.524 . S
C1260 C1259 1.524 . S
C1260 C1261 1.397 . S
C1260 C1265 1.363 . S
C1261 H1232 0.950 . S
C1261 C1260 1.397 . S
C1261 C1262 1.334 . S
C1262 H1233 0.950 . S
C1262 C1261 1.334 . S
C1262 C1263 1.287 . S
C1263 C1262 1.287 . S
C1263 C1264 1.524 . S
C1263 H1266 0.999 . S
C1264 H1234 0.950 . S
C1264 C1263 1.524 . S
C1264 C1265 1.415 . S
C1265 H1235 0.950 . S
C1265 C1260 1.363 . S
C1265 C1264 1.415 . S
H1266 C1263 0.999 . S
H1267 C1248 0.913 . S
H1268 C1286 0.951 . S
H1269 C1288 0.951 . S
H1270 C1290 0.950 . S
H1271 C1291 0.950 . S
H1272 C1293 0.950 . S
H1273 C1296 0.950 . S
H1274 C1297 0.950 . S
H1275 C1299 0.950 . S
H1276 C1300 0.950 . S
H1277 C1301 0.951 . S
H1278 C1303 0.951 . S
H1279 C1305 0.950 . S
H1280 C1306 0.950 . S
H1281 C1308 0.950 . S
H1282 C1311 0.950 . S
H1283 C1312 0.950 . S
H1284 C1314 0.950 . S
H1285 C1315 0.950 . S
C1286 H1268 0.951 . S
C1286 C1287 1.366 . S
C1286 C1288 1.388 . S
C1287 C1286 1.366 . S
C1287 C1291 1.385 . S
C1288 H1269 0.951 . S
C1288 C1286 1.388 . S
C1288 C1289 1.366 . S
C1289 C1288 1.366 . S
C1289 C1290 1.414 . S
C1289 C1292 1.499 . S
C1290 H1270 0.950 . S
C1290 C1289 1.414 . S
C1290 C1291 1.374 . S
C1291 H1271 0.950 . S
C1291 C1287 1.385 . S
C1291 C1290 1.374 . S
C1292 C1289 1.499 . S
C1292 C1293 1.373 . S
C1292 C1294 1.389 1_556 S
C1293 H1272 0.950 . S
C1293 C1292 1.373 . S
C1293 C1309 1.377 1_655 S
C1294 C1292 1.389 1_554 S
C1294 C1295 1.524 . S
C1294 C1308 1.377 1_655 S
C1295 C1294 1.524 . S
C1295 C1296 1.397 . S
C1295 C1300 1.363 . S
C1296 H1273 0.950 . S
C1296 C1295 1.397 . S
C1296 C1297 1.334 . S
C1297 H1274 0.950 . S
C1297 C1296 1.334 . S
C1297 C1298 1.287 . S
C1298 C1297 1.287 . S
C1298 C1299 1.524 . S
C1298 H1317 0.913 . S
C1299 H1275 0.950 . S
C1299 C1298 1.524 . S
C1299 C1300 1.415 . S
C1300 H1276 0.950 . S
C1300 C1295 1.363 . S
C1300 C1299 1.415 . S
C1301 H1277 0.951 . S
C1301 C1302 1.366 . S
C1301 C1303 1.388 . S
C1302 C1301 1.366 . S
C1302 C1306 1.385 . S
C1303 H1278 0.951 . S
C1303 C1301 1.388 . S
C1303 C1304 1.366 . S
C1304 C1303 1.366 . S
C1304 C1305 1.414 . S
C1304 C1307 1.499 . S
C1305 H1279 0.950 . S
C1305 C1304 1.414 . S
C1305 C1306 1.374 . S
C1306 H1280 0.950 . S
C1306 C1302 1.385 . S
C1306 C1305 1.374 . S
C1307 C1304 1.499 . S
C1307 C1308 1.373 . S
C1307 C1309 1.389 1_554 S
C1308 H1281 0.950 . S
C1308 C1294 1.377 1_455 S
C1308 C1307 1.373 . S
C1309 C1293 1.377 1_455 S
C1309 C1307 1.389 1_556 S
C1309 C1310 1.524 . S
C1310 C1309 1.524 . S
C1310 C1311 1.397 . S
C1310 C1315 1.363 . S
C1311 H1282 0.950 . S
C1311 C1310 1.397 . S
C1311 C1312 1.334 . S
C1312 H1283 0.950 . S
C1312 C1311 1.334 . S
C1312 C1313 1.287 . S
C1313 C1312 1.287 . S
C1313 C1314 1.524 . S
C1313 H1316 0.999 . S
C1314 H1284 0.950 . S
C1314 C1313 1.524 . S
C1314 C1315 1.415 . S
C1315 H1285 0.950 . S
C1315 C1310 1.363 . S
C1315 C1314 1.415 . S
H1316 C1313 0.999 . S
H1317 C1298 0.913 . S
H1318 C1336 0.951 . S
H1319 C1338 0.951 . S
H1320 C1340 0.950 1_554 S
H1321 C1341 0.950 . S
H1322 C1343 0.950 . S
H1323 C1346 0.950 . S
H1324 C1347 0.950 . S
H1325 C1349 0.950 . S
H1326 C1350 0.950 . S
H1327 C1351 0.951 . S
H1328 C1353 0.951 . S
H1329 C1355 0.950 1_556 S
H1330 C1356 0.950 . S
H1331 C1358 0.950 . S
H1332 C1361 0.950 . S
H1333 C1362 0.950 . S
H1334 C1364 0.950 . S
H1335 C1365 0.950 . S
C1336 H1318 0.951 . S
C1336 C1337 1.366 . S
C1336 C1338 1.388 . S
C1337 C1336 1.366 . S
C1337 C1341 1.385 . S
C1338 H1319 0.951 . S
C1338 C1336 1.388 . S
C1338 C1339 1.366 . S
C1339 C1338 1.366 . S
C1339 C1340 1.414 . S
C1339 C1342 1.499 . S
C1340 H1320 0.950 1_556 S
C1340 C1339 1.414 . S
C1340 C1341 1.374 . S
C1341 H1321 0.950 . S
C1341 C1337 1.385 . S
C1341 C1340 1.374 . S
C1342 C1339 1.499 . S
C1342 C1343 1.373 1_556 S
C1342 C1344 1.389 . S
C1343 H1322 0.950 . S
C1343 C1342 1.373 1_554 S
C1343 C1359 1.377 1_455 S
C1344 C1342 1.389 . S
C1344 C1345 1.524 . S
C1344 C1358 1.377 1_455 S
C1345 C1344 1.524 . S
C1345 C1346 1.397 . S
C1345 C1350 1.363 1_455 S
C1346 H1323 0.950 . S
C1346 C1345 1.397 . S
C1346 C1347 1.334 . S
C1347 H1324 0.950 . S
C1347 C1346 1.334 . S
C1347 C1348 1.287 . S
C1348 C1347 1.287 . S
C1348 C1349 1.524 1_455 S
C1348 H1367 0.913 . S
C1349 H1325 0.950 . S
C1349 C1348 1.524 1_655 S
C1349 C1350 1.415 . S
C1350 H1326 0.950 . S
C1350 C1345 1.363 1_655 S
C1350 C1349 1.415 . S
C1351 H1327 0.951 . S
C1351 C1352 1.366 . S
C1351 C1353 1.388 . S
C1352 C1351 1.366 . S
C1352 C1356 1.385 . S
C1353 H1328 0.951 . S
C1353 C1351 1.388 . S
C1353 C1354 1.366 . S
C1354 C1353 1.366 . S
C1354 C1355 1.414 . S
C1354 C1357 1.499 . S
C1355 H1329 0.950 1_554 S
C1355 C1354 1.414 . S
C1355 C1356 1.374 . S
C1356 H1330 0.950 . S
C1356 C1352 1.385 . S
C1356 C1355 1.374 . S
C1357 C1354 1.499 . S
C1357 C1358 1.373 1_554 S
C1357 C1359 1.389 . S
C1358 H1331 0.950 . S
C1358 C1344 1.377 1_655 S
C1358 C1357 1.373 1_556 S
C1359 C1343 1.377 1_655 S
C1359 C1357 1.389 . S
C1359 C1360 1.524 . S
C1360 C1359 1.524 . S
C1360 C1361 1.397 . S
C1360 C1365 1.363 1_655 S
C1361 H1332 0.950 . S
C1361 C1360 1.397 . S
C1361 C1362 1.334 . S
C1362 H1333 0.950 . S
C1362 C1361 1.334 . S
C1362 C1363 1.287 . S
C1363 C1362 1.287 . S
C1363 C1364 1.524 1_655 S
C1363 H1366 0.999 . S
C1364 H1334 0.950 . S
C1364 C1363 1.524 1_455 S
C1364 C1365 1.415 . S
C1365 H1335 0.950 . S
C1365 C1360 1.363 1_455 S
C1365 C1364 1.415 . S
H1366 C1363 0.999 . S
H1367 C1348 0.913 . S
C187 C48 0.919 . S
C202 C6 0.919 . S
C237 C34 0.919 . S
C252 C20 0.920 . S
C287 C76 0.920 . S
C302 C62 0.919 . S
C337 C90 0.919 . S
C352 C104 0.920 . S
C387 C132 0.920 . S
C402 C118 0.919 . S
C437 C146 0.920 . S
C452 C160 0.919 . S
C487 C9 0.930 . S
C502 C105 0.895 . S
C537 C91 0.896 . S
C552 C23 0.930 . S
C587 C77 0.895 . S
C602 C37 0.930 . S
C637 C63 0.896 . S
C652 C51 0.930 . S
C687 C65 0.930 . S
C702 C161 0.896 . S
C737 C119 0.895 . S
C752 C79 0.931 . S
C787 C147 0.895 . S
C802 C93 0.931 . S
C837 C107 0.929 . S
C852 C133 0.897 . S
C887 C35 0.896 . S
C902 C121 0.930 . S
C937 C7 0.897 . S
C952 C135 0.930 . S
C987 C149 0.930 . S
C1002 C21 0.897 . S
C1037 C49 0.897 . S
C1052 C163 0.929 . S
C1087 C8 1.455 . S
C1102 C22 1.455 . S
C1137 C50 1.455 . S
C1152 C36 1.455 . S
C1187 C92 1.455 . S
C1202 C64 1.455 . S
C1237 C78 1.455 . S
C1252 C106 1.455 . S
C1287 C148 1.455 . S
C1302 C120 1.455 . S
C1337 C134 1.456 . S
C1352 C162 1.455 . S
