# Generated by pormake.
# Topology umd, (4)-cn, num edge types: 1
# Building blocks:
#     Node 0, Type 0, BuildingBlock: ESEHIV_clean_sbu_0, # of connection points: 4
#     Node 1, Type 0, BuildingBlock: ESEHIV_clean_sbu_0, # of connection points: 4
#     Node 2, Type 0, BuildingBlock: ESEHIV_clean_sbu_0, # of connection points: 4
#     Node 3, Type 0, BuildingBlock: ESEHIV_clean_sbu_0, # of connection points: 4
#     Node 4, Type 0, BuildingBlock: ESEHIV_clean_sbu_0, # of connection points: 4
#     Node 5, Type 0, BuildingBlock: ESEHIV_clean_sbu_0, # of connection points: 4
#     Node 6, Type 0, BuildingBlock: ESEHIV_clean_sbu_0, # of connection points: 4
#     Node 7, Type 0, BuildingBlock: ESEHIV_clean_sbu_0, # of connection points: 4
#     Node 8, Type 0, BuildingBlock: ESEHIV_clean_sbu_0, # of connection points: 4
#     Node 9, Type 0, BuildingBlock: ESEHIV_clean_sbu_0, # of connection points: 4
#     Node 10, Type 0, BuildingBlock: ESEHIV_clean_sbu_0, # of connection points: 4
#     Node 11, Type 0, BuildingBlock: ESEHIV_clean_sbu_0, # of connection points: 4
#     Node 12, Type 0, BuildingBlock: ESEHIV_clean_sbu_0, # of connection points: 4
#     Node 13, Type 0, BuildingBlock: ESEHIV_clean_sbu_0, # of connection points: 4
#     Node 14, Type 0, BuildingBlock: ESEHIV_clean_sbu_0, # of connection points: 4
#     Node 15, Type 0, BuildingBlock: ESEHIV_clean_sbu_0, # of connection points: 4
#     Edge 16, Type (0, 0), BuildingBlock: MIFKUJ_clean_linker_0, # of connection points: 2
#     Edge 17, Type (0, 0), BuildingBlock: MIFKUJ_clean_linker_0, # of connection points: 2
#     Edge 18, Type (0, 0), BuildingBlock: MIFKUJ_clean_linker_0, # of connection points: 2
#     Edge 19, Type (0, 0), BuildingBlock: MIFKUJ_clean_linker_0, # of connection points: 2
#     Edge 20, Type (0, 0), BuildingBlock: MIFKUJ_clean_linker_0, # of connection points: 2
#     Edge 21, Type (0, 0), BuildingBlock: MIFKUJ_clean_linker_0, # of connection points: 2
#     Edge 22, Type (0, 0), BuildingBlock: MIFKUJ_clean_linker_0, # of connection points: 2
#     Edge 23, Type (0, 0), BuildingBlock: MIFKUJ_clean_linker_0, # of connection points: 2
#     Edge 24, Type (0, 0), BuildingBlock: MIFKUJ_clean_linker_0, # of connection points: 2
#     Edge 25, Type (0, 0), BuildingBlock: MIFKUJ_clean_linker_0, # of connection points: 2
#     Edge 26, Type (0, 0), BuildingBlock: MIFKUJ_clean_linker_0, # of connection points: 2
#     Edge 27, Type (0, 0), BuildingBlock: MIFKUJ_clean_linker_0, # of connection points: 2
#     Edge 28, Type (0, 0), BuildingBlock: MIFKUJ_clean_linker_0, # of connection points: 2
#     Edge 29, Type (0, 0), BuildingBlock: MIFKUJ_clean_linker_0, # of connection points: 2
#     Edge 30, Type (0, 0), BuildingBlock: MIFKUJ_clean_linker_0, # of connection points: 2
#     Edge 31, Type (0, 0), BuildingBlock: MIFKUJ_clean_linker_0, # of connection points: 2
#     Edge 32, Type (0, 0), BuildingBlock: MIFKUJ_clean_linker_0, # of connection points: 2
#     Edge 33, Type (0, 0), BuildingBlock: MIFKUJ_clean_linker_0, # of connection points: 2
#     Edge 34, Type (0, 0), BuildingBlock: MIFKUJ_clean_linker_0, # of connection points: 2
#     Edge 35, Type (0, 0), BuildingBlock: MIFKUJ_clean_linker_0, # of connection points: 2
#     Edge 36, Type (0, 0), BuildingBlock: MIFKUJ_clean_linker_0, # of connection points: 2
#     Edge 37, Type (0, 0), BuildingBlock: MIFKUJ_clean_linker_0, # of connection points: 2
#     Edge 38, Type (0, 0), BuildingBlock: MIFKUJ_clean_linker_0, # of connection points: 2
#     Edge 39, Type (0, 0), BuildingBlock: MIFKUJ_clean_linker_0, # of connection points: 2
#     Edge 40, Type (0, 0), BuildingBlock: MIFKUJ_clean_linker_0, # of connection points: 2
#     Edge 41, Type (0, 0), BuildingBlock: MIFKUJ_clean_linker_0, # of connection points: 2
#     Edge 42, Type (0, 0), BuildingBlock: MIFKUJ_clean_linker_0, # of connection points: 2
#     Edge 43, Type (0, 0), BuildingBlock: MIFKUJ_clean_linker_0, # of connection points: 2
#     Edge 44, Type (0, 0), BuildingBlock: MIFKUJ_clean_linker_0, # of connection points: 2
#     Edge 45, Type (0, 0), BuildingBlock: MIFKUJ_clean_linker_0, # of connection points: 2
#     Edge 46, Type (0, 0), BuildingBlock: MIFKUJ_clean_linker_0, # of connection points: 2
#     Edge 47, Type (0, 0), BuildingBlock: MIFKUJ_clean_linker_0, # of connection points: 2
# Relax obj value: 0.041
# Max RMSD: 0.122
# Mean RMSD: 0.122
data_MOF--net-umd--node1-ESEHIV_clean_sbu_0--edge1-MIFKUJ_clean_linker_0
_symmetry_space_group_name_H-M    P1
_symmetry_Int_Tables_number       1
_symmetry_cell_setting            triclinic
loop_
_symmetry_equiv_pos_as_xyz
'x, y, z'
_cell_length_a     60.114873
_cell_length_b     59.929838
_cell_length_c     71.792586
_cell_angle_alpha  89.253769
_cell_angle_beta   89.560186
_cell_angle_gamma 90.094427
loop_
_atom_site_label
_atom_site_type_symbol
_atom_site_fract_x
_atom_site_fract_y
_atom_site_fract_z
_atom_type_partial_charge
Cu0 Cu 0.18282 0.44481 0.15603 0.0
N1 N 0.15198 0.44212 0.15441 0.0
N2 N 0.11587 0.45073 0.15516 0.0
C3 C 0.13688 0.45843 0.15674 0.0
C4 C 0.11784 0.42873 0.15177 0.0
C5 C 0.14016 0.42348 0.15125 0.0
O6 O 0.18892 0.46693 0.17495 0.0
C7 C 0.18657 0.46747 0.12127 0.0
O8 O 0.1714 0.48057 0.12853 0.0
H9 H 0.14124 0.47551 0.15982 0.0
H10 H 0.1473 0.40721 0.14882 0.0
N11 N 0.19417 0.41753 0.16429 0.0
N12 N 0.21599 0.38772 0.16837 0.0
C13 C 0.21268 0.40687 0.15859 0.0
C14 C 0.18546 0.40477 0.17805 0.0
C15 C 0.19881 0.38638 0.18058 0.0
C16 C 0.20738 0.46813 0.18344 0.0
O17 O 0.22414 0.45582 0.17781 0.0
H18 H 0.22373 0.41333 0.14783 0.0
H19 H 0.17047 0.40869 0.18576 0.0
O20 O 0.19467 0.45183 0.13128 0.0
H21 H 0.10416 0.41732 0.14959 0.0
H22 H 0.19595 0.37301 0.19059 0.0
Cu23 Cu 0.5955 0.18937 0.65594 0.0
N24 N 0.5969 0.1582 0.65393 0.0
N25 N 0.58669 0.12212 0.65424 0.0
C26 C 0.58094 0.14327 0.65868 0.0
C27 C 0.60723 0.12403 0.64654 0.0
C28 C 0.61337 0.14619 0.64629 0.0
O29 O 0.57885 0.19642 0.67839 0.0
C30 C 0.56875 0.19227 0.6233 0.0
O31 O 0.55887 0.17436 0.63012 0.0
H32 H 0.56512 0.14807 0.66464 0.0
H33 H 0.62863 0.15312 0.64059 0.0
N34 N 0.62399 0.20146 0.65898 0.0
N35 N 0.65152 0.22662 0.6609 0.0
C36 C 0.63005 0.22296 0.65625 0.0
C37 C 0.64217 0.19114 0.66561 0.0
C38 C 0.65916 0.20653 0.66674 0.0
C39 C 0.55786 0.19598 0.68073 0.0
O40 O 0.54492 0.19174 0.66655 0.0
H41 H 0.61866 0.23575 0.65151 0.0
H42 H 0.64293 0.17373 0.66969 0.0
O43 O 0.58366 0.20186 0.63286 0.0
H44 H 0.61721 0.1105 0.64123 0.0
H45 H 0.67583 0.2031 0.67156 0.0
Cu46 Cu 0.85104 0.59269 0.15649 0.0
N47 N 0.88209 0.5935 0.15669 0.0
N48 N 0.9177 0.58276 0.1577 0.0
C49 C 0.89618 0.5763 0.15931 0.0
C50 C 0.91697 0.60489 0.15395 0.0
C51 C 0.89506 0.6114 0.15324 0.0
O52 O 0.84112 0.57558 0.17819 0.0
C53 C 0.82335 0.57853 0.12568 0.0
O54 O 0.80584 0.58218 0.13627 0.0
H55 H 0.89069 0.55933 0.16181 0.0
H56 H 0.889 0.62801 0.15015 0.0
N57 N 0.84072 0.62181 0.15965 0.0
N58 N 0.82079 0.65327 0.15869 0.0
C59 C 0.82324 0.63245 0.1519 0.0
C60 C 0.84936 0.63628 0.17181 0.0
C61 C 0.83724 0.65568 0.17118 0.0
C62 C 0.84193 0.55453 0.18055 0.0
O63 O 0.84817 0.54184 0.16668 0.0
H64 H 0.81251 0.62514 0.14161 0.0
H65 H 0.86331 0.63274 0.1808 0.0
O66 O 0.84274 0.5812 0.13228 0.0
H67 H 0.9312 0.61572 0.15182 0.0
H68 H 0.83986 0.67016 0.17975 0.0
Cu69 Cu 0.43783 0.8588 0.65728 0.0
N70 N 0.43752 0.89003 0.65828 0.0
N71 N 0.44923 0.92549 0.65969 0.0
C72 C 0.45528 0.90375 0.65936 0.0
C73 C 0.42681 0.92535 0.65871 0.0
C74 C 0.41967 0.90353 0.65776 0.0
O75 O 0.45851 0.84862 0.67649 0.0
C76 C 0.44953 0.832 0.62529 0.0
O77 O 0.44752 0.8144 0.63628 0.0
H78 H 0.47227 0.89787 0.66002 0.0
H79 H 0.40264 0.89791 0.65658 0.0
N80 N 0.4091 0.84788 0.66257 0.0
N81 N 0.37767 0.82768 0.66283 0.0
C82 C 0.3978 0.83097 0.65466 0.0
C83 C 0.3957 0.85535 0.67622 0.0
C84 C 0.37634 0.84305 0.67637 0.0
C85 C 0.45454 0.83214 0.68742 0.0
O86 O 0.43701 0.8196 0.6845 0.0
H87 H 0.40416 0.82131 0.64318 0.0
H88 H 0.39991 0.86865 0.68561 0.0
O89 O 0.44672 0.85138 0.63195 0.0
H90 H 0.41631 0.94 0.6583 0.0
H91 H 0.36259 0.8449 0.68604 0.0
Cu92 Cu 0.18378 0.58662 0.39426 0.0
N93 N 0.15299 0.58859 0.39294 0.0
N94 N 0.11756 0.57796 0.39029 0.0
C95 C 0.1391 0.57173 0.38902 0.0
C96 C 0.11803 0.59965 0.39515 0.0
C97 C 0.13994 0.60614 0.39684 0.0
O98 O 0.19234 0.56473 0.37575 0.0
C99 C 0.20834 0.57616 0.42834 0.0
O100 O 0.22696 0.57703 0.41865 0.0
H101 H 0.14478 0.5552 0.38544 0.0
H102 H 0.14593 0.62233 0.40101 0.0
N103 N 0.19553 0.6145 0.3878 0.0
N104 N 0.21618 0.64548 0.3868 0.0
C105 C 0.21313 0.62526 0.39497 0.0
C106 C 0.1873 0.6283 0.37464 0.0
C107 C 0.19994 0.64746 0.37403 0.0
C108 C 0.20999 0.56577 0.36586 0.0
O109 O 0.22537 0.58051 0.36985 0.0
H110 H 0.22329 0.61862 0.40609 0.0
H111 H 0.17304 0.62464 0.3661 0.0
O112 O 0.18983 0.57887 0.42014 0.0
H113 H 0.10362 0.60993 0.39789 0.0
H114 H 0.19758 0.6616 0.36473 0.0
Cu115 Cu 0.43415 0.17698 0.89332 0.0
N116 N 0.43512 0.14592 0.8962 0.0
N117 N 0.44699 0.1105 0.8967 0.0
C118 C 0.45162 0.13181 0.89148 0.0
C119 C 0.42669 0.11138 0.90488 0.0
C120 C 0.41951 0.13317 0.90461 0.0
O121 O 0.45021 0.18586 0.87077 0.0
C122 C 0.46045 0.18224 0.92565 0.0
O123 O 0.47191 0.16561 0.91873 0.0
H124 H 0.46698 0.13725 0.88492 0.0
H125 H 0.40407 0.13938 0.91037 0.0
N126 N 0.40461 0.18549 0.88977 0.0
N127 N 0.37339 0.20574 0.88874 0.0
C128 C 0.3949 0.20503 0.89414 0.0
C129 C 0.38884 0.17352 0.88124 0.0
C130 C 0.36958 0.18589 0.88063 0.0
C131 C 0.47116 0.18555 0.8681 0.0
O132 O 0.48434 0.17999 0.8819 0.0
H133 H 0.4035 0.21842 0.90107 0.0
H134 H 0.39132 0.15709 0.87554 0.0
O135 O 0.44449 0.19047 0.91626 0.0
H136 H 0.41757 0.09735 0.91071 0.0
H137 H 0.35418 0.18087 0.87419 0.0
Cu138 Cu 0.86407 0.41966 0.3851 0.0
N139 N 0.89455 0.42014 0.38014 0.0
N140 N 0.92926 0.43314 0.37712 0.0
C141 C 0.90782 0.43818 0.38086 0.0
C142 C 0.92946 0.41096 0.37404 0.0
C143 C 0.90804 0.40299 0.37595 0.0
O144 O 0.84988 0.43928 0.36695 0.0
C145 C 0.84268 0.42874 0.4206 0.0
O146 O 0.82353 0.42725 0.412 0.0
H147 H 0.90195 0.45456 0.38463 0.0
H148 H 0.90277 0.38583 0.37464 0.0
N149 N 0.85305 0.39115 0.38057 0.0
N150 N 0.83172 0.36055 0.38124 0.0
C151 C 0.83745 0.37945 0.39013 0.0
C152 C 0.85722 0.37935 0.36514 0.0
C153 C 0.84424 0.36044 0.36556 0.0
C154 C 0.85225 0.46029 0.36512 0.0
O155 O 0.86293 0.47141 0.37792 0.0
H156 H 0.8301 0.38492 0.40307 0.0
H157 H 0.86826 0.38465 0.35396 0.0
O158 O 0.86067 0.42706 0.4113 0.0
H159 H 0.94401 0.40118 0.37061 0.0
H160 H 0.84328 0.34817 0.35466 0.0
Cu161 Cu 0.5914 0.84834 0.89122 0.0
N162 N 0.59405 0.87931 0.88909 0.0
N163 N 0.58422 0.91526 0.88772 0.0
C164 C 0.57715 0.89399 0.89 0.0
C165 C 0.60646 0.91388 0.8853 0.0
C166 C 0.61249 0.89169 0.88623 0.0
O167 O 0.56878 0.83999 0.8732 0.0
C168 C 0.57946 0.82329 0.92476 0.0
O169 O 0.57956 0.80524 0.91457 0.0
H170 H 0.55995 0.88907 0.89202 0.0
H171 H 0.62914 0.88508 0.88496 0.0
N172 N 0.61867 0.83519 0.88493 0.0
N173 N 0.64873 0.81317 0.8843 0.0
C174 C 0.62992 0.81867 0.89367 0.0
C175 C 0.63067 0.84017 0.86955 0.0
C176 C 0.64918 0.82672 0.86914 0.0
C177 C 0.57044 0.82324 0.86252 0.0
O178 O 0.58662 0.80888 0.86518 0.0
H179 H 0.62444 0.81086 0.90658 0.0
H180 H 0.62601 0.85251 0.85917 0.0
O181 O 0.58346 0.84216 0.91712 0.0
H182 H 0.61762 0.92791 0.88328 0.0
H183 H 0.66166 0.82652 0.85819 0.0
Cu184 Cu 0.84553 0.58357 0.89202 0.0
N185 N 0.87631 0.58707 0.8899 0.0
N186 N 0.91244 0.57858 0.88764 0.0
C187 C 0.89151 0.5706 0.88966 0.0
C188 C 0.91027 0.60098 0.88658 0.0
C189 C 0.88798 0.60616 0.88803 0.0
O190 O 0.83725 0.56174 0.87347 0.0
C191 C 0.82031 0.57257 0.92552 0.0
O192 O 0.80227 0.57448 0.91542 0.0
H193 H 0.88726 0.5531 0.89072 0.0
H194 H 0.88079 0.62269 0.88777 0.0
N195 N 0.83201 0.61068 0.88553 0.0
N196 N 0.81099 0.64149 0.88476 0.0
C197 C 0.81649 0.62285 0.89454 0.0
C198 C 0.8363 0.62193 0.86957 0.0
C199 C 0.82348 0.6409 0.86907 0.0
C200 C 0.84089 0.54083 0.87436 0.0
O201 O 0.84827 0.53192 0.88994 0.0
H202 H 0.80952 0.61829 0.90799 0.0
H203 H 0.84791 0.61656 0.85897 0.0
O204 O 0.8393 0.57506 0.9178 0.0
H205 H 0.92382 0.61281 0.88517 0.0
H206 H 0.82302 0.65306 0.8578 0.0
Cu207 Cu 0.43532 0.85206 0.39306 0.0
N208 N 0.4338 0.88309 0.39276 0.0
N209 N 0.444 0.91888 0.39163 0.0
C210 C 0.44939 0.89782 0.38692 0.0
C211 C 0.4243 0.91735 0.40066 0.0
C212 C 0.41805 0.89526 0.40133 0.0
O213 O 0.4519 0.84245 0.37122 0.0
C214 C 0.45056 0.82536 0.42503 0.0
O215 O 0.44747 0.80717 0.41536 0.0
H216 H 0.46498 0.8931 0.38048 0.0
H217 H 0.40358 0.88837 0.40837 0.0
N218 N 0.40632 0.84129 0.39082 0.0
N219 N 0.37603 0.81961 0.39173 0.0
C220 C 0.3975 0.8218 0.3969 0.0
C221 C 0.38996 0.85166 0.38143 0.0
C222 C 0.37127 0.83841 0.38202 0.0
C223 C 0.47273 0.8443 0.36833 0.0
O224 O 0.48556 0.8516 0.38168 0.0
H225 H 0.4066 0.80948 0.40485 0.0
H226 H 0.39168 0.8676 0.37432 0.0
O227 O 0.44742 0.84438 0.41742 0.0
H228 H 0.41546 0.93112 0.4069 0.0
H229 H 0.35563 0.84206 0.37529 0.0
Cu230 Cu 0.17845 0.43758 0.88962 0.0
N231 N 0.14757 0.43727 0.89269 0.0
N232 N 0.11185 0.44785 0.89297 0.0
C233 C 0.13298 0.4535 0.88824 0.0
C234 C 0.11338 0.42713 0.90055 0.0
C235 C 0.13536 0.42074 0.90041 0.0
O236 O 0.18553 0.45451 0.86697 0.0
C237 C 0.18271 0.46299 0.9226 0.0
O238 O 0.16521 0.47355 0.91615 0.0
H239 H 0.13798 0.46934 0.88216 0.0
H240 H 0.14203 0.40517 0.90571 0.0
N241 N 0.18772 0.40829 0.88564 0.0
N242 N 0.20767 0.37682 0.88524 0.0
C243 C 0.20677 0.39825 0.89092 0.0
C244 C 0.17633 0.39282 0.87622 0.0
C245 C 0.18851 0.37342 0.876 0.0
C246 C 0.18512 0.47562 0.86484 0.0
O247 O 0.18141 0.48827 0.87933 0.0
H248 H 0.21962 0.40646 0.89881 0.0
H249 H 0.16033 0.39557 0.8698 0.0
O250 O 0.19186 0.44807 0.91265 0.0
H251 H 0.0997 0.41716 0.9059 0.0
H252 H 0.18384 0.35815 0.86915 0.0
Cu253 Cu 0.59207 0.17952 0.39511 0.0
N254 N 0.58889 0.14931 0.4009 0.0
N255 N 0.57708 0.11402 0.40211 0.0
C256 C 0.57603 0.13378 0.39287 0.0
C257 C 0.59123 0.11727 0.41632 0.0
C258 C 0.59849 0.13902 0.41552 0.0
O259 O 0.57791 0.1867 0.37149 0.0
C260 C 0.56502 0.18914 0.42636 0.0
O261 O 0.55351 0.17193 0.42062 0.0
H262 H 0.56552 0.13709 0.38099 0.0
H263 H 0.60964 0.14701 0.42514 0.0
N264 N 0.62239 0.18506 0.39238 0.0
N265 N 0.6555 0.20207 0.39174 0.0
C266 C 0.63336 0.20444 0.39459 0.0
C267 C 0.63798 0.16993 0.38802 0.0
C268 C 0.6584 0.18032 0.38763 0.0
C269 C 0.55715 0.18552 0.36832 0.0
O270 O 0.54344 0.18016 0.382 0.0
H271 H 0.62519 0.21993 0.39804 0.0
H272 H 0.63471 0.15249 0.38544 0.0
O273 O 0.58128 0.19624 0.41644 0.0
H274 H 0.59589 0.10484 0.42665 0.0
H275 H 0.67417 0.1723 0.38483 0.0
Cu276 Cu 0.84205 0.45369 0.6558 0.0
N277 N 0.85263 0.48281 0.65151 0.0
N278 N 0.87898 0.50927 0.64944 0.0
C279 C 0.87459 0.48729 0.65154 0.0
C280 C 0.85883 0.51909 0.64801 0.0
C281 C 0.84259 0.50271 0.64924 0.0
O282 O 0.85427 0.44532 0.68007 0.0
C283 C 0.83936 0.4437 0.61946 0.0
O284 O 0.82459 0.45957 0.62176 0.0
H285 H 0.88708 0.47456 0.65374 0.0
H286 H 0.82483 0.50528 0.64886 0.0
N287 N 0.81114 0.44956 0.6582 0.0
N288 N 0.77975 0.42939 0.66002 0.0
C289 C 0.80217 0.42912 0.66073 0.0
C290 C 0.79372 0.46342 0.65595 0.0
C291 C 0.77432 0.45098 0.65699 0.0
C292 C 0.84806 0.4593 0.69234 0.0
O293 O 0.83468 0.47557 0.68734 0.0
H294 H 0.81208 0.41413 0.66213 0.0
H295 H 0.79494 0.48111 0.65308 0.0
O296 O 0.85075 0.43728 0.63349 0.0
H297 H 0.85599 0.53681 0.64625 0.0
H298 H 0.75757 0.45728 0.65535 0.0
Cu299 Cu 0.59517 0.85369 0.15609 0.0
N300 N 0.59579 0.88483 0.15702 0.0
N301 N 0.58474 0.92041 0.1586 0.0
C302 C 0.57854 0.89873 0.15989 0.0
C303 C 0.60677 0.92001 0.15479 0.0
C304 C 0.61348 0.89812 0.15373 0.0
O305 O 0.57811 0.84265 0.17744 0.0
C306 C 0.58058 0.82696 0.12489 0.0
O307 O 0.58264 0.80923 0.13568 0.0
H308 H 0.56166 0.89303 0.16223 0.0
H309 H 0.63004 0.89231 0.15043 0.0
N310 N 0.62419 0.84321 0.15913 0.0
N311 N 0.65515 0.82263 0.15807 0.0
C312 C 0.63425 0.82532 0.15157 0.0
C313 C 0.63911 0.85186 0.1709 0.0
C314 C 0.65822 0.83934 0.1702 0.0
C315 C 0.55723 0.84416 0.18014 0.0
O316 O 0.54453 0.85187 0.16672 0.0
H317 H 0.62642 0.81444 0.14167 0.0
H318 H 0.63608 0.86605 0.17972 0.0
O319 O 0.58416 0.84622 0.13151 0.0
H320 H 0.61736 0.93446 0.15277 0.0
H321 H 0.67295 0.84186 0.17851 0.0
Cu322 Cu 0.16334 0.61325 0.65734 0.0
N323 N 0.13237 0.6173 0.65721 0.0
N324 N 0.0956 0.61089 0.65729 0.0
C325 C 0.11613 0.60176 0.6588 0.0
C326 C 0.09919 0.63294 0.65456 0.0
C327 C 0.12177 0.63679 0.65443 0.0
O328 O 0.17116 0.59468 0.67876 0.0
C329 C 0.19076 0.59588 0.62739 0.0
O330 O 0.2077 0.597 0.6388 0.0
H331 H 0.1193 0.58416 0.66095 0.0
H332 H 0.12991 0.65269 0.65206 0.0
N333 N 0.17702 0.64104 0.66097 0.0
N334 N 0.20054 0.67013 0.66057 0.0
C335 C 0.19567 0.64997 0.65327 0.0
C336 C 0.17013 0.65591 0.67363 0.0
C337 C 0.18443 0.67383 0.67335 0.0
C338 C 0.16826 0.57375 0.68078 0.0
O339 O 0.16034 0.56217 0.6669 0.0
H340 H 0.20547 0.64189 0.64263 0.0
H341 H 0.15584 0.65364 0.6827 0.0
O342 O 0.17145 0.60126 0.63314 0.0
H343 H 0.08645 0.64537 0.65224 0.0
H344 H 0.18342 0.68817 0.68232 0.0
Cu345 Cu 0.43466 0.18066 0.15776 0.0
N346 N 0.43458 0.1495 0.15704 0.0
N347 N 0.4459 0.11406 0.15879 0.0
C348 C 0.45162 0.13566 0.16092 0.0
C349 C 0.42443 0.11429 0.15348 0.0
C350 C 0.41753 0.13618 0.15232 0.0
O351 O 0.4519 0.18979 0.17917 0.0
C352 C 0.46012 0.18357 0.12426 0.0
O353 O 0.47149 0.16714 0.1318 0.0
H354 H 0.4679 0.1413 0.16514 0.0
H355 H 0.40129 0.14202 0.14811 0.0
N356 N 0.4057 0.1904 0.1623 0.0
N357 N 0.37594 0.21248 0.16484 0.0
C358 C 0.39645 0.21003 0.15728 0.0
C359 C 0.39059 0.18012 0.17335 0.0
C360 C 0.37221 0.19364 0.1749 0.0
C361 C 0.47291 0.18954 0.18111 0.0
O362 O 0.48572 0.18427 0.16694 0.0
H363 H 0.40498 0.22265 0.14899 0.0
H364 H 0.39308 0.1642 0.18028 0.0
O365 O 0.44452 0.19255 0.13363 0.0
H366 H 0.41465 0.09972 0.15012 0.0
H367 H 0.35739 0.19002 0.18305 0.0
H368 H 0.10971 0.49387 0.14505 0.0
H369 H 0.07533 0.51536 0.14738 0.0
H370 H 0.04174 0.45795 0.17128 0.0
H371 H 0.07607 0.43624 0.16852 0.0
H372 H 0.01585 0.47694 0.14706 0.0
H373 H 0.05816 0.50349 0.19812 0.0
H374 H 0.09095 0.51874 0.21404 0.0
H375 H 0.08765 0.57816 0.18011 0.0
H376 H 0.05503 0.56313 0.1638 0.0
H377 H 0.92151 0.54211 0.17483 0.0
H378 H 0.95464 0.51853 0.17615 0.0
H379 H 0.99173 0.56833 0.14508 0.0
H380 H 0.95875 0.59173 0.14329 0.0
H381 H 0.01475 0.55191 0.17557 0.0
H382 H 0.97311 0.52316 0.12357 0.0
H383 H 0.93987 0.5074 0.10866 0.0
H384 H 0.94136 0.4513 0.14645 0.0
H385 H 0.97445 0.46689 0.16175 0.0
C386 C 0.09504 0.4859 0.15094 0.0
C387 C 0.09561 0.46341 0.15669 0.0
C388 C 0.07539 0.4982 0.1523 0.0
C389 C 0.05599 0.48842 0.15982 0.0
C390 C 0.05648 0.46589 0.16546 0.0
C391 C 0.07608 0.45349 0.16386 0.0
C392 C 0.03513 0.50162 0.16145 0.0
C393 C 0.01556 0.49316 0.1536 0.0
C394 C 0.0347 0.52292 0.16978 0.0
C395 C 0.05425 0.5321 0.17964 0.0
C396 C 0.06452 0.51975 0.19397 0.0
C397 C 0.08306 0.52836 0.20307 0.0
C398 C 0.09141 0.54939 0.19806 0.0
C399 C 0.08118 0.56187 0.18396 0.0
C400 C 0.06265 0.55332 0.1748 0.0
C401 C 0.93662 0.548 0.16812 0.0
C402 C 0.93731 0.56889 0.1589 0.0
C403 C 0.95558 0.53452 0.16897 0.0
C404 C 0.97561 0.54165 0.16063 0.0
C405 C 0.97647 0.56256 0.15168 0.0
C406 C 0.95754 0.57598 0.15074 0.0
C407 C 0.99571 0.52732 0.16098 0.0
C408 C 0.01509 0.53558 0.16921 0.0
C409 C 0.99589 0.50576 0.1532 0.0
C410 C 0.9761 0.49631 0.14393 0.0
C411 C 0.96624 0.50755 0.12879 0.0
C412 C 0.94745 0.49864 0.12026 0.0
C413 C 0.93847 0.47839 0.12664 0.0
C414 C 0.94831 0.46699 0.14154 0.0
C415 C 0.96709 0.47585 0.15014 0.0
H416 H 0.92392 0.47152 0.12001 0.0
H417 H 0.10577 0.55602 0.20512 0.0
H418 H 0.49143 0.92956 0.6463 0.0
H419 H 0.51505 0.96281 0.64677 0.0
H420 H 0.46322 0.99867 0.67549 0.0
H421 H 0.43945 0.96557 0.67476 0.0
H422 H 0.4797 0.02427 0.64948 0.0
H423 H 0.51153 0.97932 0.6978 0.0
H424 H 0.52781 0.94549 0.71203 0.0
H425 H 0.58206 0.94839 0.67281 0.0
H426 H 0.56594 0.98208 0.65818 0.0
H427 H 0.54834 0.11636 0.67455 0.0
H428 H 0.52522 0.08294 0.67663 0.0
H429 H 0.57124 0.04819 0.64106 0.0
H430 H 0.59422 0.0815 0.63844 0.0
H431 H 0.55763 0.0225 0.67167 0.0
H432 H 0.52437 0.06755 0.62323 0.0
H433 H 0.50785 0.10185 0.61002 0.0
H434 H 0.4558 0.09913 0.65129 0.0
H435 H 0.47221 0.06497 0.66492 0.0
C436 C 0.48516 0.94445 0.65289 0.0
C437 C 0.46353 0.94487 0.6605 0.0
C438 C 0.4987 0.96349 0.65317 0.0
C439 C 0.49109 0.98329 0.66137 0.0
C440 C 0.46952 0.98369 0.66904 0.0
C441 C 0.45591 0.96473 0.66859 0.0
C442 C 0.50535 1.00372 0.66158 0.0
C443 C 0.49662 0.02389 0.65462 0.0
C444 C 0.52761 1.00332 0.66797 0.0
C445 C 0.53741 0.98311 0.67678 0.0
C446 C 0.52684 0.97265 0.69212 0.0
C447 C 0.53606 0.95351 0.70027 0.0
C448 C 0.55593 0.94476 0.6933 0.0
C449 C 0.56666 0.95517 0.67818 0.0
C450 C 0.5575 0.9743 0.66997 0.0
C451 C 0.5536 0.10177 0.66701 0.0
C452 C 0.5733 0.10201 0.6562 0.0
C453 C 0.54032 0.08257 0.6683 0.0
C454 C 0.5464 0.06308 0.65889 0.0
C455 C 0.56623 0.06301 0.64848 0.0
C456 C 0.57943 0.08222 0.64705 0.0
C457 C 0.53194 0.04288 0.65957 0.0
C458 C 0.54066 0.0228 0.66665 0.0
C459 C 0.50962 0.0434 0.65346 0.0
C460 C 0.49965 0.06384 0.64521 0.0
C461 C 0.50951 0.07437 0.62958 0.0
C462 C 0.50014 0.09376 0.622 0.0
C463 C 0.48082 0.1027 0.62984 0.0
C464 C 0.47079 0.09221 0.64525 0.0
C465 C 0.4801 0.07283 0.6529 0.0
H466 H 0.4736 0.11771 0.62395 0.0
H467 H 0.56303 0.92994 0.69963 0.0
H468 H 0.07583 0.5912 0.38108 0.0
H469 H 0.04304 0.56745 0.37766 0.0
H470 H 0.08254 0.50935 0.39058 0.0
H471 H 0.11525 0.5329 0.39424 0.0
H472 H 0.05591 0.50244 0.36091 0.0
H473 H 0.04837 0.53127 0.42295 0.0
H474 H 0.04605 0.5607 0.44658 0.0
H475 H 0.98824 0.58781 0.41985 0.0
H476 H 0.9904 0.55871 0.3959 0.0
H477 H 0.97249 0.42281 0.38351 0.0
H478 H 1.00398 0.44856 0.38402 0.0
H479 H 0.96015 0.50352 0.37139 0.0
H480 H 0.92858 0.47785 0.37067 0.0
H481 H 0.98803 0.51345 0.39944 0.0
H482 H 0.99446 0.48358 0.33821 0.0
H483 H 0.99667 0.45408 0.31465 0.0
H484 H 0.05641 0.42896 0.33969 0.0
H485 H 0.05438 0.45814 0.36357 0.0
C486 C 0.07753 0.5734 0.38333 0.0
C487 C 0.09823 0.56401 0.38795 0.0
C488 C 0.05877 0.55984 0.38132 0.0
C489 C 0.06034 0.53666 0.38399 0.0
C490 C 0.081 0.5272 0.38838 0.0
C491 C 0.09972 0.54072 0.3904 0.0
C492 C 0.0405 0.52215 0.3823 0.0
C493 C 0.04114 0.50469 0.36947 0.0
C494 C 0.02104 0.52548 0.39312 0.0
C495 C 0.0197 0.54296 0.40752 0.0
C496 C 0.03527 0.54362 0.42202 0.0
C497 C 0.03397 0.56022 0.43549 0.0
C498 C 0.01705 0.57616 0.43468 0.0
C499 C 1.00136 0.57548 0.42043 0.0
C500 C 1.00261 0.55893 0.40692 0.0
C501 C 0.96956 0.44031 0.3806 0.0
C502 C 0.94797 0.44823 0.37705 0.0
C503 C 0.98758 0.45503 0.38093 0.0
C504 C 0.98443 0.47793 0.37759 0.0
C505 C 0.96294 0.48591 0.37405 0.0
C506 C 0.9449 0.47121 0.37371 0.0
C507 C 1.00352 0.49359 0.37818 0.0
C508 C 1.00273 0.51127 0.3908 0.0
C509 C 0.02284 0.49047 0.36715 0.0
C510 C 0.02415 0.47293 0.35278 0.0
C511 C 1.00797 0.47166 0.33878 0.0
C512 C 1.00921 0.45501 0.32535 0.0
C513 C 0.02664 0.43962 0.3257 0.0
C514 C 0.0429 0.44088 0.33945 0.0
C515 C 0.04173 0.45748 0.35293 0.0
H516 H 0.02757 0.42675 0.31529 0.0
H517 H 0.01606 0.58899 0.44512 0.0
H518 H 0.54592 0.92183 0.90697 0.0
H519 H 0.52307 0.95548 0.90712 0.0
H520 H 0.56904 0.98766 0.86889 0.0
H521 H 0.59216 0.95407 0.86895 0.0
H522 H 0.5572 0.01588 0.89471 0.0
H523 H 0.51785 0.96709 0.85449 0.0
H524 H 0.49974 0.93211 0.84504 0.0
H525 H 0.4527 0.93784 0.89003 0.0
H526 H 0.47072 0.97271 0.89991 0.0
H527 H 0.48215 0.10519 0.87292 0.0
H528 H 0.50611 0.07247 0.87025 0.0
H529 H 0.46779 0.03866 0.91307 0.0
H530 H 0.44412 0.0713 0.9162 0.0
H531 H 0.4761 1.01191 0.88281 0.0
H532 H 0.51718 0.06047 0.9233 0.0
H533 H 0.53537 0.09577 0.93181 0.0
H534 H 0.57922 0.09078 0.88456 0.0
H535 H 0.56107 0.05558 0.87561 0.0
C536 C 0.55107 0.936 0.89848 0.0
C537 C 0.57079 0.93521 0.88786 0.0
C538 C 0.53798 0.95525 0.89856 0.0
C539 C 0.5441 0.97404 0.88776 0.0
C540 C 0.56394 0.9734 0.87732 0.0
C541 C 0.57717 0.9542 0.87738 0.0
C542 C 0.52988 0.99437 0.88754 0.0
C543 C 0.53954 1.01504 0.8918 0.0
C544 C 0.50674 0.99332 0.884 0.0
C545 C 0.49576 0.97242 0.87803 0.0
C546 C 0.50374 0.96081 0.86245 0.0
C547 C 0.49347 0.94101 0.857 0.0
C548 C 0.47511 0.93273 0.86696 0.0
C549 C 0.46694 0.94426 0.88234 0.0
C550 C 0.47716 0.96406 0.88786 0.0
C551 C 0.47888 0.09093 0.88192 0.0
C552 C 0.46107 0.09107 0.8948 0.0
C553 C 0.49259 0.07217 0.88031 0.0
C554 C 0.48879 0.05315 0.89152 0.0
C555 C 0.47096 0.05311 0.90421 0.0
C556 C 0.45734 0.07186 0.90591 0.0
C557 C 0.5034 0.03326 0.89016 0.0
C558 C 0.4938 1.01271 0.88559 0.0
C559 C 0.52659 0.03445 0.89324 0.0
C560 C 0.53761 0.05552 0.89868 0.0
C561 C 0.53059 0.06699 0.91464 0.0
C562 C 0.54091 0.08696 0.91956 0.0
C563 C 0.5584 0.09555 0.90871 0.0
C564 C 0.56565 0.08413 0.89294 0.0
C565 C 0.55536 0.06416 0.88794 0.0
H566 H 0.56637 0.11101 0.91254 0.0
H567 H 0.46719 0.9174 0.86272 0.0
H568 H 0.95129 0.59016 0.87051 0.0
H569 H 0.98593 0.56875 0.87016 0.0
H570 H 0.95434 0.51654 0.90277 0.0
H571 H 0.91988 0.53802 0.90352 0.0
H572 H 0.99496 0.52817 0.91649 0.0
H573 H 0.96389 0.51034 0.85622 0.0
H574 H 0.94927 0.51929 0.82496 0.0
H575 H 1.01047 0.55226 0.81029 0.0
H576 H 0.02541 0.54376 0.84149 0.0
H577 H 0.0717 0.44114 0.91012 0.0
H578 H 0.03873 0.46416 0.90766 0.0
H579 H 0.07349 0.50933 0.8703 0.0
H580 H 0.1064 0.48568 0.87181 0.0
H581 H 0.03271 0.50368 0.85858 0.0
H582 H 0.06476 0.52186 0.91685 0.0
H583 H 0.0809 0.51483 0.94784 0.0
H584 H 0.01976 0.48451 0.96644 0.0
H585 H 1.00333 0.49106 0.93547 0.0
C586 C 0.95174 0.57418 0.87767 0.0
C587 C 0.93277 0.56582 0.88704 0.0
C588 C 0.9715 0.56186 0.87731 0.0
C589 C 0.97266 0.54096 0.88631 0.0
C590 C 0.95379 0.5326 0.89567 0.0
C591 C 0.93403 0.54484 0.89598 0.0
C592 C 0.99371 0.52803 0.88653 0.0
C593 C 1.00307 0.52257 0.90383 0.0
C594 C 1.00475 0.5215 0.86999 0.0
C595 C 0.99568 0.52662 0.85127 0.0
C596 C 0.97416 0.51967 0.84639 0.0
C597 C 0.96583 0.52462 0.82868 0.0
C598 C 0.97889 0.53638 0.8157 0.0
C599 C 1.00035 0.54318 0.82037 0.0
C600 C 1.00877 0.53829 0.83805 0.0
C601 C 0.07247 0.45575 0.90116 0.0
C602 C 0.09204 0.46144 0.89127 0.0
C603 C 0.05353 0.46911 0.89995 0.0
C604 C 0.05372 0.48877 0.88912 0.0
C605 C 0.07298 0.49433 0.87889 0.0
C606 C 0.09192 0.48083 0.87993 0.0
C607 C 0.03377 0.50343 0.88857 0.0
C608 C 0.02465 0.50931 0.87124 0.0
C609 C 0.02311 0.51068 0.90508 0.0
C610 C 0.03288 0.50678 0.92378 0.0
C611 C 0.0548 0.51354 0.92751 0.0
C612 C 0.064 0.50967 0.94508 0.0
C613 C 0.05138 0.49919 0.95909 0.0
C614 C 0.02952 0.49261 0.95557 0.0
C615 C 0.02025 0.49642 0.93801 0.0
H616 H 0.05853 0.4962 0.97268 0.0
H617 H 0.9724 0.54018 0.802 0.0
H618 H 0.56163 0.08421 0.42755 0.0
H619 H 0.54092 0.05011 0.42168 0.0
H620 H 0.54356 0.06409 0.36257 0.0
H621 H 0.56404 0.09873 0.36852 0.0
H622 H 0.50384 0.04963 0.37163 0.0
H623 H 0.57657 0.02298 0.38254 0.0
H624 H 0.61268 0.01898 0.39827 0.0
H625 H 0.57984 0.99212 0.44694 0.0
H626 H 0.54348 0.99626 0.43161 0.0
H627 H 0.47006 0.93084 0.36228 0.0
H628 H 0.49435 0.96396 0.35992 0.0
H629 H 0.47414 0.98319 0.41516 0.0
H630 H 0.44958 0.95062 0.41739 0.0
H631 H 0.52592 0.97856 0.40253 0.0
H632 H 0.45243 1.01273 0.39082 0.0
H633 H 0.4176 1.01567 0.37303 0.0
H634 H 0.45505 0.02625 0.32249 0.0
H635 H 0.49013 0.02303 0.34 0.0
C636 C 0.55801 0.07993 0.41329 0.0
C637 C 0.56467 0.094 0.39847 0.0
C638 C 0.54619 0.06039 0.40993 0.0
C639 C 0.54111 0.05422 0.39164 0.0
C640 C 0.54741 0.06843 0.37679 0.0
C641 C 0.55906 0.0882 0.38018 0.0
C642 C 0.52878 0.03317 0.38832 0.0
C643 C 0.50895 0.03402 0.3781 0.0
C644 C 0.53542 1.01268 0.39664 0.0
C645 C 0.55726 1.01007 0.40595 0.0
C646 C 0.57702 0.01636 0.39665 0.0
C647 C 0.59754 1.01405 0.40549 0.0
C648 C 0.59855 1.00534 0.4236 0.0
C649 C 0.57903 0.99888 0.43291 0.0
C650 C 0.55846 1.00117 0.42414 0.0
C651 C 0.4708 0.94226 0.37383 0.0
C652 C 0.45789 0.93835 0.38995 0.0
C653 C 0.48457 0.96109 0.37246 0.0
C654 C 0.48587 0.97593 0.38736 0.0
C655 C 0.47319 0.97192 0.40351 0.0
C656 C 0.45912 0.95344 0.40472 0.0
C657 C 0.50085 0.99544 0.38649 0.0
C658 C 0.52116 0.99416 0.39585 0.0
C659 C 0.4949 1.01536 0.37711 0.0
C660 C 0.47386 0.01731 0.36665 0.0
C661 C 0.45323 1.01541 0.37588 0.0
C662 C 0.43345 0.0172 0.36586 0.0
C663 C 0.43411 0.02105 0.34663 0.0
C664 C 0.45456 0.0232 0.33738 0.0
C665 C 0.47439 0.0214 0.34734 0.0
H666 H 0.41878 0.02245 0.33889 0.0
H667 H 0.61446 1.00356 0.43042 0.0
H668 H 0.8891 0.55148 0.66005 0.0
H669 H 0.9261 0.56843 0.6615 0.0
H670 H 0.95526 0.5078 0.64082 0.0
H671 H 0.91839 0.49081 0.63937 0.0
H672 H 0.97887 0.52276 0.66912 0.0
H673 H 0.94953 0.55484 0.61289 0.0
H674 H 0.92219 0.57501 0.59359 0.0
H675 H 0.92971 0.63311 0.62737 0.0
H676 H 0.95689 0.61317 0.64703 0.0
H677 H 0.0865 0.56809 0.64758 0.0
H678 H 0.04987 0.55023 0.64656 0.0
H679 H 0.01952 0.6105 0.6668 0.0
H680 H 0.05596 0.62839 0.66776 0.0
H681 H 0.99666 0.59532 0.63848 0.0
H682 H 0.02609 0.56307 0.69476 0.0
H683 H 0.05349 0.54279 0.71393 0.0
H684 H 0.04594 0.48492 0.6799 0.0
H685 H 0.0187 0.50496 0.66037 0.0
C686 C 0.90334 0.54185 0.65561 0.0
C687 C 0.90069 0.51974 0.64961 0.0
C688 C 0.92454 0.55155 0.65647 0.0
C689 C 0.94355 0.53947 0.65115 0.0
C690 C 0.94092 0.51745 0.6451 0.0
C691 C 0.91978 0.50773 0.6443 0.0
C692 C 0.96621 0.54963 0.65206 0.0
C693 C 0.98283 0.53849 0.66221 0.0
C694 C 0.97136 0.57038 0.64338 0.0
C695 C 0.95508 0.58243 0.63154 0.0
C696 C 0.94523 0.57186 0.61629 0.0
C697 C 0.92978 0.58326 0.60527 0.0
C698 C 0.92417 0.60531 0.60928 0.0
C699 C 0.93405 0.61602 0.62429 0.0
C700 C 0.94949 0.60468 0.63537 0.0
C701 C 0.07207 0.57744 0.65204 0.0
C702 C 0.07423 0.59974 0.65768 0.0
C703 C 0.05109 0.56721 0.65144 0.0
C704 C 0.03184 0.57895 0.65669 0.0
C705 C 0.03403 0.60109 0.66256 0.0
C706 C 0.05493 0.61134 0.66307 0.0
C707 C 1.00932 0.56852 0.65562 0.0
C708 C 0.99272 0.57959 0.6454 0.0
C709 C 1.00421 0.5477 0.66423 0.0
C710 C 0.02053 0.5356 0.67599 0.0
C711 C 0.0304 0.54608 0.69128 0.0
C712 C 0.04588 0.53462 0.70223 0.0
C713 C 0.0515 0.5126 0.69811 0.0
C714 C 0.0416 0.50198 0.68306 0.0
C715 C 0.02613 0.51338 0.67206 0.0
H716 H 0.06349 0.50375 0.7066 0.0
H717 H 0.91221 0.61411 0.60073 0.0
H718 H 0.43433 0.073 0.17155 0.0
H719 H 0.45819 0.03983 0.17314 0.0
H720 H 0.51323 0.07842 0.15112 0.0
H721 H 0.48951 0.11164 0.1497 0.0
H722 H 0.50448 0.03678 0.13252 0.0
H723 H 0.51637 0.0656 0.19404 0.0
H724 H 0.50464 0.07954 0.22473 0.0
H725 H 0.47087 0.01771 0.23649 0.0
H726 H 0.48237 1.0034 0.2058 0.0
H727 H 0.5928 0.96174 0.14402 0.0
H728 H 0.56887 0.99433 0.14568 0.0
H729 H 0.52017 0.95616 0.17699 0.0
H730 H 0.54455 0.92355 0.17611 0.0
H731 H 0.52432 0.99698 0.19112 0.0
H732 H 0.51303 0.96721 0.13062 0.0
H733 H 0.52374 0.95279 0.09982 0.0
H734 H 0.55413 1.01566 0.08552 0.0
H735 H 0.54388 0.03036 0.11635 0.0
C736 C 0.45154 0.07437 0.16712 0.0
C737 C 0.46011 0.09485 0.16052 0.0
C738 C 0.46515 0.0555 0.16812 0.0
C739 C 0.48745 0.05674 0.16228 0.0
C740 C 0.49607 0.07717 0.15572 0.0
C741 C 0.48257 0.09613 0.15503 0.0
C742 C 0.5016 0.03654 0.16241 0.0
C743 C 0.50909 0.02822 0.14532 0.0
C744 C 0.50692 0.02503 0.1791 0.0
C745 C 0.50002 0.03353 0.19755 0.0
C746 C 0.50628 0.05505 0.20311 0.0
C747 C 0.4997 0.06301 0.22052 0.0
C748 C 0.48689 0.04959 0.23251 0.0
C749 C 0.48074 0.02811 0.22716 0.0
C750 C 0.48733 0.02005 0.20978 0.0
C751 C 0.57718 0.96022 0.15149 0.0
C752 C 0.57064 0.93985 0.15986 0.0
C753 C 0.56336 0.97889 0.15225 0.0
C754 C 0.54254 0.97761 0.16118 0.0
C755 C 0.53611 0.9575 0.16991 0.0
C756 C 0.55 0.93879 0.16924 0.0
C757 C 0.52749 0.99727 0.16118 0.0
C758 C 0.51972 1.00547 0.17828 0.0
C759 C 0.52171 1.00857 0.14445 0.0
C760 C 0.52786 0.99982 0.12587 0.0
C761 C 0.52215 0.9779 0.12096 0.0
C762 C 0.52811 0.96969 0.10349 0.0
C763 C 0.53966 0.98328 0.09074 0.0
C764 C 0.54521 1.00514 0.09542 0.0
C765 C 0.53931 1.01343 0.11289 0.0
H766 H 0.54425 0.97689 0.07722 0.0
H767 H 0.48179 0.0558 0.24597 0.0
H768 H 0.24689 0.55772 0.34429 0.0
H769 H 0.24821 0.54043 0.31361 0.0
H770 H 0.17724 0.52966 0.31621 0.0
H771 H 0.17605 0.54582 0.34719 0.0
H772 H 0.19414 0.49615 0.30057 0.0
H773 H 0.20375 0.57494 0.29096 0.0
H774 H 0.22112 0.61184 0.2951 0.0
H775 H 0.28299 0.5869 0.27361 0.0
H776 H 0.26606 0.54975 0.26957 0.0
H777 H 0.17341 0.48619 0.20388 0.0
H778 H 0.17554 0.50269 0.23481 0.0
H779 H 0.24679 0.49476 0.2342 0.0
H780 H 0.24483 0.47796 0.2033 0.0
H781 H 0.23123 0.53703 0.24839 0.0
H782 H 0.21875 0.45787 0.25699 0.0
H783 H 0.19889 0.42249 0.25178 0.0
H784 H 0.13892 0.45066 0.27421 0.0
H785 H 0.15836 0.48634 0.27929 0.0
C786 C 0.23163 0.55138 0.33841 0.0
C787 C 0.21137 0.55321 0.34819 0.0
C788 C 0.23235 0.54168 0.32076 0.0
C789 C 0.21273 0.53419 0.31226 0.0
C790 C 0.19263 0.53532 0.32233 0.0
C791 C 0.19197 0.54459 0.34011 0.0
C792 C 0.21293 0.52555 0.29281 0.0
C793 C 0.20207 0.50529 0.28919 0.0
C794 C 0.22351 0.53718 0.27781 0.0
C795 C 0.2337 0.55951 0.28015 0.0
C796 C 0.2211 0.57729 0.28724 0.0
C797 C 0.23086 0.59825 0.28955 0.0
C798 C 0.25316 0.6017 0.28467 0.0
C799 C 0.26573 0.5842 0.27741 0.0
C800 C 0.25606 0.56319 0.2751 0.0
C801 C 0.18959 0.48821 0.21018 0.0
C802 C 0.20895 0.48065 0.20112 0.0
C803 C 0.19076 0.49757 0.22791 0.0
C804 C 0.2113 0.49974 0.23688 0.0
C805 C 0.23077 0.49319 0.22754 0.0
C806 C 0.2296 0.48356 0.20989 0.0
C807 C 0.21231 0.5079 0.25633 0.0
C808 C 0.2234 0.52799 0.25988 0.0
C809 C 0.20158 0.49637 0.2712 0.0
C810 C 0.18996 0.47484 0.26836 0.0
C811 C 0.20128 0.45657 0.26068 0.0
C812 C 0.19011 0.43646 0.25777 0.0
C813 C 0.16764 0.43434 0.26262 0.0
C814 C 0.15632 0.45233 0.27044 0.0
C815 C 0.16741 0.4725 0.27335 0.0
H816 H 0.15902 0.41876 0.26035 0.0
H817 H 0.26069 0.61794 0.28647 0.0
H818 H 0.58056 0.19889 0.71343 0.0
H819 H 0.56534 0.19941 0.74502 0.0
H820 H 0.49876 0.19838 0.72316 0.0
H821 H 0.51387 0.19774 0.69133 0.0
H822 H 0.50455 0.22851 0.7531 0.0
H823 H 0.5188 0.15181 0.73877 0.0
H824 H 0.54151 0.12024 0.72795 0.0
H825 H 0.58819 0.13142 0.77185 0.0
H826 H 0.56592 0.16331 0.78275 0.0
H827 H 0.44813 0.19447 0.83613 0.0
H828 H 0.46288 0.19869 0.80454 0.0
H829 H 0.52959 0.19034 0.82519 0.0
H830 H 0.5149 0.18563 0.85689 0.0
H831 H 0.52364 0.16549 0.79553 0.0
H832 H 0.50962 0.24185 0.81025 0.0
H833 H 0.48759 0.27399 0.82091 0.0
H834 H 0.44121 0.26413 0.77657 0.0
H835 H 0.46281 0.23173 0.76578 0.0
C836 C 0.56266 0.19896 0.71526 0.0
C837 C 0.54843 0.19814 0.6998 0.0
C838 C 0.554 0.19921 0.73336 0.0
C839 C 0.53094 0.19871 0.73644 0.0
C840 C 0.51662 0.19874 0.72108 0.0
C841 C 0.52529 0.19831 0.7029 0.0
C842 C 0.52192 0.19728 0.75574 0.0
C843 C 0.50845 0.21461 0.76234 0.0
C844 C 0.52748 0.17939 0.76789 0.0
C845 C 0.54081 0.16009 0.76146 0.0
C846 C 0.534 0.14766 0.74603 0.0
C847 C 0.54678 0.12968 0.73989 0.0
C848 C 0.56631 0.12386 0.74917 0.0
C849 C 0.57307 0.13597 0.76465 0.0
C850 C 0.56037 0.15399 0.77082 0.0
C851 C 0.46597 0.19372 0.83403 0.0
C852 C 0.48033 0.18972 0.8491 0.0
C853 C 0.4744 0.19624 0.81591 0.0
C854 C 0.49739 0.19507 0.81245 0.0
C855 C 0.51179 0.19133 0.82749 0.0
C856 C 0.50336 0.18872 0.84563 0.0
C857 C 0.50628 0.19681 0.79306 0.0
C858 C 0.51973 0.17947 0.78639 0.0
C859 C 0.50074 0.21474 0.78088 0.0
C860 C 0.48773 0.23423 0.78732 0.0
C861 C 0.49463 0.24642 0.80286 0.0
C862 C 0.48223 0.26471 0.80891 0.0
C863 C 0.46298 0.27106 0.79946 0.0
C864 C 0.45611 0.25917 0.7839 0.0
C865 C 0.46844 0.24086 0.7778 0.0
H866 H 0.45341 0.28522 0.80416 0.0
H867 H 0.57618 0.10994 0.7444 0.0
H868 H 0.83785 0.57702 0.21326 0.0
H869 H 0.83598 0.56146 0.24482 0.0
H870 H 0.8364 0.49489 0.22282 0.0
H871 H 0.8386 0.51033 0.191 0.0
H872 H 0.8048 0.50265 0.25361 0.0
H873 H 0.88237 0.51235 0.23744 0.0
H874 H 0.91477 0.53387 0.22593 0.0
H875 H 0.9061 0.58073 0.27013 0.0
H876 H 0.87339 0.55968 0.28171 0.0
H877 H 0.83667 0.44054 0.33366 0.0
H878 H 0.83122 0.45756 0.30308 0.0
H879 H 0.84821 0.52199 0.32507 0.0
H880 H 0.85448 0.50485 0.35572 0.0
H881 H 0.86965 0.51653 0.29423 0.0
H882 H 0.79352 0.50729 0.3116 0.0
H883 H 0.76 0.48758 0.32311 0.0
H884 H 0.76426 0.44216 0.27746 0.0
H885 H 0.798 0.46141 0.26581 0.0
C886 C 0.83729 0.55905 0.21504 0.0
C887 C 0.83849 0.54491 0.19955 0.0
C888 C 0.83626 0.5502 0.23313 0.0
C889 C 0.8362 0.52704 0.23616 0.0
C890 C 0.83643 0.51283 0.22076 0.0
C891 C 0.83775 0.52168 0.2026 0.0
C892 C 0.83714 0.51779 0.25544 0.0
C893 C 0.81905 0.50541 0.26247 0.0
C894 C 0.85546 0.52204 0.26714 0.0
C895 C 0.87529 0.53457 0.26032 0.0
C896 C 0.88725 0.52735 0.24461 0.0
C897 C 0.9057 0.53944 0.23809 0.0
C898 C 0.91246 0.55869 0.24727 0.0
C899 C 0.90083 0.56584 0.26302 0.0
C900 C 0.88234 0.55383 0.26957 0.0
C901 C 0.83894 0.4584 0.33213 0.0
C902 C 0.84604 0.47131 0.34722 0.0
C903 C 0.8357 0.46816 0.31456 0.0
C904 C 0.83906 0.49116 0.31168 0.0
C905 C 0.84551 0.50422 0.32687 0.0
C906 C 0.84899 0.49441 0.34444 0.0
C907 C 0.83725 0.50121 0.29261 0.0
C908 C 0.85525 0.51378 0.28553 0.0
C909 C 0.81871 0.49732 0.28097 0.0
C910 C 0.79842 0.48568 0.28793 0.0
C911 C 0.78742 0.49299 0.30409 0.0
C912 C 0.76836 0.48192 0.31063 0.0
C913 C 0.76004 0.4636 0.30105 0.0
C914 C 0.77074 0.45634 0.28488 0.0
C915 C 0.78982 0.46734 0.27829 0.0
H916 H 0.74528 0.45505 0.30613 0.0
H917 H 0.92674 0.56803 0.2422 0.0
H918 H 0.53879 0.85282 0.85019 0.0
H919 H 0.51881 0.85227 0.82066 0.0
H920 H 0.55034 0.78997 0.80687 0.0
H921 H 0.57062 0.79056 0.83622 0.0
H922 H 0.55251 0.81789 0.77798 0.0
H923 H 0.49491 0.79244 0.81984 0.0
H924 H 0.47051 0.7941 0.84756 0.0
H925 H 0.44355 0.85638 0.82804 0.0
H926 H 0.46799 0.85522 0.80031 0.0
H927 H 0.44838 0.80057 0.71486 0.0
H928 H 0.46797 0.79701 0.74443 0.0
H929 H 0.50991 0.8528 0.729 0.0
H930 H 0.49049 0.8564 0.69927 0.0
H931 H 0.4707 0.82587 0.77251 0.0
H932 H 0.56092 0.84567 0.74918 0.0
H933 H 0.5851 0.84148 0.72152 0.0
H934 H 0.5463 0.78537 0.70412 0.0
H935 H 0.52208 0.78904 0.73178 0.0
C936 C 0.54127 0.83884 0.841 0.0
C937 C 0.55633 0.82172 0.84564 0.0
C938 C 0.5298 0.83854 0.82409 0.0
C939 C 0.53298 0.82103 0.8115 0.0
C940 C 0.54765 0.8037 0.81628 0.0
C941 C 0.55915 0.804 0.83316 0.0
C942 C 0.52161 0.82113 0.7931 0.0
C943 C 0.53462 0.81963 0.77681 0.0
C944 C 0.49823 0.82317 0.79148 0.0
C945 C 0.48342 0.82383 0.80808 0.0
C946 C 0.48388 0.80656 0.82152 0.0
C947 C 0.47002 0.8074 0.83722 0.0
C948 C 0.45552 0.82535 0.83958 0.0
C949 C 0.4548 0.84249 0.82621 0.0
C950 C 0.46863 0.84174 0.81048 0.0
C951 C 0.46194 0.81196 0.71762 0.0
C952 C 0.46786 0.82876 0.70461 0.0
C953 C 0.47304 0.80997 0.73462 0.0
C954 C 0.49045 0.82459 0.73898 0.0
C955 C 0.49669 0.84115 0.7259 0.0
C956 C 0.48555 0.84319 0.70888 0.0
C957 C 0.50163 0.82285 0.75741 0.0
C958 C 0.4886 0.82413 0.77369 0.0
C959 C 0.52495 0.82031 0.75904 0.0
C960 C 0.53956 0.81779 0.74246 0.0
C961 C 0.5576 0.83239 0.73948 0.0
C962 C 0.5713 0.83011 0.7238 0.0
C963 C 0.56719 0.81321 0.71104 0.0
C964 C 0.54941 0.79851 0.71397 0.0
C965 C 0.53567 0.8007 0.72963 0.0
H966 H 0.57781 0.81149 0.6989 0.0
H967 H 0.44481 0.82598 0.85175 0.0
H968 H 0.84485 0.49534 0.87065 0.0
H969 H 0.84696 0.47426 0.84164 0.0
H970 H 0.83859 0.53535 0.81 0.0
H971 H 0.83559 0.5562 0.83873 0.0
H972 H 0.81618 0.50498 0.79423 0.0
H973 H 0.89027 0.50882 0.81931 0.0
H974 H 0.91883 0.50232 0.84323 0.0
H975 H 0.90957 0.43156 0.83881 0.0
H976 H 0.88032 0.43764 0.81537 0.0
H977 H 0.86813 0.49304 0.7096 0.0
H978 H 0.86952 0.49876 0.74316 0.0
H979 H 0.84517 0.4319 0.75283 0.0
H980 H 0.84373 0.42608 0.71889 0.0
H981 H 0.88226 0.45802 0.78099 0.0
H982 H 0.80651 0.45685 0.75492 0.0
H983 H 0.78062 0.46631 0.72951 0.0
H984 H 0.79711 0.5357 0.73456 0.0
H985 H 0.82339 0.52657 0.75978 0.0
C986 C 0.84317 0.50421 0.8575 0.0
C987 C 0.84008 0.52749 0.85706 0.0
C988 C 0.84455 0.49215 0.8409 0.0
C989 C 0.84333 0.5032 0.82352 0.0
C990 C 0.83958 0.52634 0.82315 0.0
C991 C 0.83788 0.5383 0.83967 0.0
C992 C 0.84634 0.49112 0.80561 0.0
C993 C 0.8306 0.49462 0.79151 0.0
C994 C 0.86504 0.47734 0.80188 0.0
C995 C 0.88289 0.4737 0.81575 0.0
C996 C 0.89419 0.49188 0.82354 0.0
C997 C 0.91051 0.48827 0.83701 0.0
C998 C 0.91606 0.46655 0.8425 0.0
C999 C 0.90525 0.44838 0.83456 0.0
C1000 C 0.88873 0.4519 0.82123 0.0
C1001 C 0.86405 0.47919 0.71889 0.0
C1002 C 0.85599 0.45907 0.71172 0.0
C1003 C 0.86482 0.4825 0.73805 0.0
C1004 C 0.85738 0.46581 0.75046 0.0
C1005 C 0.8512 0.4449 0.74345 0.0
C1006 C 0.85048 0.44154 0.7241 0.0
C1007 C 0.85217 0.47211 0.76994 0.0
C1008 C 0.86755 0.46779 0.78412 0.0
C1009 C 0.83335 0.48543 0.77379 0.0
C1010 C 0.81698 0.49101 0.75912 0.0
C1011 C 0.80468 0.4741 0.75053 0.0
C1012 C 0.78994 0.4794 0.73617 0.0
C1013 C 0.78725 0.50159 0.7304 0.0
C1014 C 0.79922 0.51853 0.73904 0.0
C1015 C 0.81402 0.5133 0.75337 0.0
H1016 H 0.77586 0.50566 0.71927 0.0
H1017 H 0.92875 0.4638 0.85289 0.0
H1018 H 0.44954 0.83749 0.33629 0.0
H1019 H 0.46408 0.83455 0.30467 0.0
H1020 H 0.53108 0.83945 0.32536 0.0
H1021 H 0.51652 0.84324 0.35713 0.0
H1022 H 0.52745 0.86508 0.29638 0.0
H1023 H 0.50759 0.78905 0.30869 0.0
H1024 H 0.48332 0.75774 0.31844 0.0
H1025 H 0.43759 0.77428 0.27476 0.0
H1026 H 0.46145 0.80588 0.26489 0.0
H1027 H 0.58018 0.8348 0.21203 0.0
H1028 H 0.56562 0.83191 0.2438 0.0
H1029 H 0.49896 0.84126 0.22346 0.0
H1030 H 0.51342 0.84438 0.19146 0.0
H1031 H 0.50297 0.80736 0.252 0.0
H1032 H 0.52337 0.88411 0.24055 0.0
H1033 H 0.54876 0.91446 0.23068 0.0
H1034 H 0.59493 0.89503 0.27323 0.0
H1035 H 0.56996 0.86431 0.28315 0.0
C1036 C 0.4674 0.83771 0.3342 0.0
C1037 C 0.48186 0.84055 0.34932 0.0
C1038 C 0.47572 0.83591 0.31604 0.0
C1039 C 0.49874 0.83644 0.31253 0.0
C1040 C 0.51325 0.83896 0.32765 0.0
C1041 C 0.50491 0.84103 0.34583 0.0
C1042 C 0.50755 0.83546 0.29304 0.0
C1043 C 0.52235 0.85219 0.28683 0.0
C1044 C 0.50058 0.81899 0.2803 0.0
C1045 C 0.48622 0.79996 0.28616 0.0
C1046 C 0.49228 0.78611 0.30125 0.0
C1047 C 0.47861 0.76829 0.30678 0.0
C1048 C 0.4589 0.76406 0.29725 0.0
C1049 C 0.45285 0.77759 0.28214 0.0
C1050 C 0.46645 0.79544 0.27655 0.0
C1051 C 0.56237 0.836 0.21421 0.0
C1052 C 0.54798 0.83996 0.19914 0.0
C1053 C 0.5541 0.8344 0.23243 0.0
C1054 C 0.53124 0.8366 0.23602 0.0
C1055 C 0.51667 0.83955 0.22099 0.0
C1056 C 0.52497 0.84138 0.20272 0.0
C1057 C 0.52279 0.83688 0.25555 0.0
C1058 C 0.50808 0.82011 0.26168 0.0
C1059 C 0.52996 0.85317 0.26829 0.0
C1060 C 0.5449 0.87177 0.26247 0.0
C1061 C 0.53902 0.8862 0.2477 0.0
C1062 C 0.55332 0.90348 0.24211 0.0
C1063 C 0.57347 0.90664 0.25129 0.0
C1064 C 0.57933 0.89255 0.26612 0.0
C1065 C 0.5651 0.8752 0.27173 0.0
H1066 H 0.58452 0.92003 0.24695 0.0
H1067 H 0.44833 0.75026 0.30156 0.0
H1068 H 0.18808 0.51989 0.85488 0.0
H1069 H 0.18741 0.53614 0.82346 0.0
H1070 H 0.18352 0.47022 0.80026 0.0
H1071 H 0.1849 0.45386 0.83154 0.0
H1072 H 0.20952 0.49457 0.77921 0.0
H1073 H 0.13691 0.50449 0.80535 0.0
H1074 H 0.10922 0.5164 0.8287 0.0
H1075 H 0.12977 0.58458 0.82102 0.0
H1076 H 0.15783 0.57303 0.79781 0.0
H1077 H 0.16632 0.52914 0.6902 0.0
H1078 H 0.17121 0.51208 0.72112 0.0
H1079 H 0.18391 0.57693 0.7441 0.0
H1080 H 0.17913 0.59409 0.71336 0.0
H1081 H 0.15337 0.55276 0.7649 0.0
H1082 H 0.226 0.54118 0.73763 0.0
H1083 H 0.25233 0.52776 0.71379 0.0
H1084 H 0.22934 0.46059 0.72282 0.0
H1085 H 0.20264 0.47365 0.74655 0.0
C1086 C 0.18727 0.50884 0.84309 0.0
C1087 C 0.18642 0.48557 0.84578 0.0
C1088 C 0.18676 0.51816 0.8251 0.0
C1089 C 0.18496 0.50445 0.80942 0.0
C1090 C 0.18484 0.48119 0.81207 0.0
C1091 C 0.1856 0.47186 0.83002 0.0
C1092 C 0.18269 0.5143 0.79031 0.0
C1093 C 0.19705 0.5071 0.77607 0.0
C1094 C 0.16658 0.53083 0.78612 0.0
C1095 C 0.14962 0.53786 0.79998 0.0
C1096 C 0.13563 0.522 0.80873 0.0
C1097 C 0.11986 0.52869 0.82193 0.0
C1098 C 0.11777 0.55122 0.82637 0.0
C1099 C 0.13142 0.56712 0.81758 0.0
C1100 C 0.14726 0.56052 0.8044 0.0
C1101 C 0.17031 0.53976 0.7018 0.0
C1102 C 0.17234 0.563 0.69924 0.0
C1103 C 0.17315 0.52997 0.71947 0.0
C1104 C 0.178 0.54322 0.73494 0.0
C1105 C 0.18015 0.56638 0.73239 0.0
C1106 C 0.17749 0.57614 0.71475 0.0
C1107 C 0.18028 0.53313 0.75391 0.0
C1108 C 0.16585 0.54025 0.7681 0.0
C1109 C 0.19608 0.5163 0.75796 0.0
C1110 C 0.21216 0.50843 0.74373 0.0
C1111 C 0.22643 0.52357 0.73442 0.0
C1112 C 0.24145 0.51603 0.72095 0.0
C1113 C 0.24247 0.49335 0.71676 0.0
C1114 C 0.22851 0.47815 0.72606 0.0
C1115 C 0.21344 0.48562 0.73954 0.0
H1116 H 0.25411 0.48754 0.70632 0.0
H1117 H 0.10555 0.55637 0.83659 0.0
H1118 H 0.58146 0.19197 0.33628 0.0
H1119 H 0.56779 0.19477 0.3044 0.0
H1120 H 0.50027 0.18897 0.3247 0.0
H1121 H 0.51386 0.18564 0.35663 0.0
H1122 H 0.50618 0.16275 0.29599 0.0
H1123 H 0.52268 0.23945 0.30845 0.0
H1124 H 0.54589 0.27117 0.3181 0.0
H1125 H 0.59248 0.25756 0.27408 0.0
H1126 H 0.56969 0.22556 0.26431 0.0
H1127 H 0.45045 0.19491 0.21397 0.0
H1128 H 0.4658 0.19633 0.24529 0.0
H1129 H 0.53224 0.1925 0.22253 0.0
H1130 H 0.51699 0.19095 0.19096 0.0
H1131 H 0.5277 0.22362 0.25189 0.0
H1132 H 0.51031 0.1474 0.23908 0.0
H1133 H 0.48639 0.1164 0.22914 0.0
H1134 H 0.44101 0.12937 0.27416 0.0
H1135 H 0.46434 0.16091 0.28407 0.0
C1136 C 0.56368 0.19146 0.334 0.0
C1137 C 0.54876 0.18861 0.34906 0.0
C1138 C 0.55587 0.19316 0.31573 0.0
C1139 C 0.53296 0.19233 0.3121 0.0
C1140 C 0.51802 0.18967 0.32712 0.0
C1141 C 0.52582 0.18784 0.34539 0.0
C1142 C 0.5246 0.19343 0.29262 0.0
C1143 C 0.51064 0.17626 0.28646 0.0
C1144 C 0.53088 0.21071 0.27995 0.0
C1145 C 0.54459 0.22997 0.28577 0.0
C1146 C 0.53797 0.24311 0.30092 0.0
C1147 C 0.55103 0.26116 0.30639 0.0
C1148 C 0.57068 0.26634 0.29674 0.0
C1149 C 0.57727 0.25351 0.28156 0.0
C1150 C 0.56428 0.23543 0.27603 0.0
C1151 C 0.46835 0.1946 0.21553 0.0
C1152 C 0.48248 0.19266 0.19991 0.0
C1153 C 0.47709 0.19535 0.23349 0.0
C1154 C 0.50014 0.19426 0.23625 0.0
C1155 C 0.51438 0.19331 0.22069 0.0
C1156 C 0.50564 0.19238 0.20267 0.0
C1157 C 0.50916 0.19311 0.25544 0.0
C1158 C 0.52326 0.21018 0.26148 0.0
C1159 C 0.50296 0.17578 0.26805 0.0
C1160 C 0.48898 0.15669 0.26221 0.0
C1161 C 0.49512 0.14379 0.24677 0.0
C1162 C 0.48169 0.12609 0.24115 0.0
C1163 C 0.4622 0.12089 0.25102 0.0
C1164 C 0.4561 0.13342 0.26652 0.0
C1165 C 0.46942 0.15123 0.27213 0.0
H1166 H 0.45185 0.10715 0.24667 0.0
H1167 H 0.58077 0.28032 0.301 0.0
H1168 H 0.21304 0.4388 0.943 0.0
H1169 H 0.21991 0.441 0.97652 0.0
H1170 H 0.17389 0.4959 0.98042 0.0
H1171 H 0.16715 0.494 0.947 0.0
H1172 H 0.20944 0.50245 1.00258 0.0
H1173 H 0.1575 0.44276 0.99073 0.0
H1174 H 0.14515 0.40783 0.97623 0.0
H1175 H 0.19991 0.37277 1.00104 0.0
H1176 H 0.21276 0.4076 1.01549 0.0
H1177 H 0.17066 0.49774 0.09587 0.0
H1178 H 0.17623 0.49821 0.06219 0.0
H1179 H 0.22012 0.44159 0.0669 0.0
H1180 H 0.21432 0.44077 0.10071 0.0
H1181 H 0.1906 0.435 0.04031 0.0
H1182 H 0.24003 0.49428 0.05528 0.0
H1183 H 0.25181 0.52932 0.0699 0.0
H1184 H 0.2018 0.56533 0.03957 0.0
H1185 H 0.1895 0.53044 0.02495 0.0
C1186 C 0.20467 0.45159 0.95092 0.0
C1187 C 0.18939 0.46611 0.9423 0.0
C1188 C 0.20853 0.45275 0.97012 0.0
C1189 C 0.19715 0.46839 0.98107 0.0
C1190 C 0.18283 0.48365 0.9723 0.0
C1191 C 0.17894 0.48249 0.95316 0.0
C1192 C 0.19901 0.46811 1.00177 0.0
C1193 C 0.20522 0.48775 1.01085 0.0
C1194 C 0.19401 0.44878 1.01259 0.0
C1195 C 0.18623 0.42782 1.004 0.0
C1196 C 0.167 0.42763 0.99297 0.0
C1197 C 0.1599 0.40785 0.98478 0.0
C1198 C 0.17178 0.3881 0.98766 0.0
C1199 C 0.19075 0.38809 0.99879 0.0
C1200 C 0.19795 0.40784 1.00699 0.0
C1201 C 0.18175 0.48554 0.08982 0.0
C1202 C 0.19202 0.4692 0.10106 0.0
C1203 C 0.185 0.4859 0.07051 0.0
C1204 C 0.19877 0.47006 0.06194 0.0
C1205 C 0.20945 0.45401 0.07316 0.0
C1206 C 0.20618 0.45362 0.09251 0.0
C1207 C 0.2008 0.46945 0.04122 0.0
C1208 C 0.1952 0.44964 0.03211 0.0
C1209 C 0.20634 0.48864 0.0304 0.0
C1210 C 0.21373 0.50969 0.03912 0.0
C1211 C 0.23143 0.50964 0.05182 0.0
C1212 C 0.23823 0.52948 0.0601 0.0
C1213 C 0.22754 0.54953 0.0557 0.0
C1214 C 0.21006 0.54978 0.04298 0.0
C1215 C 0.20319 0.52998 0.03467 0.0
H1216 H 0.23282 0.56487 0.06212 0.0
H1217 H 0.16626 0.3728 0.98131 0.0
H1218 H 0.59009 0.21969 0.44524 0.0
H1219 H 0.5883 0.22772 0.47855 0.0
H1220 H 0.53136 0.18429 0.48463 0.0
H1221 H 0.53279 0.17645 0.45138 0.0
H1222 H 0.52737 0.21992 0.50712 0.0
H1223 H 0.58314 0.16494 0.49293 0.0
H1224 H 0.61642 0.15053 0.47682 0.0
H1225 H 0.65584 0.20326 0.49957 0.0
H1226 H 0.62268 0.2182 0.51559 0.0
H1227 H 0.53667 0.17721 0.59975 0.0
H1228 H 0.53381 0.18431 0.56627 0.0
H1229 H 0.58982 0.22922 0.56853 0.0
H1230 H 0.59283 0.2222 0.60208 0.0
H1231 H 0.59507 0.19776 0.54183 0.0
H1232 H 0.53877 0.24952 0.5596 0.0
H1233 H 0.50495 0.26232 0.57586 0.0
H1234 H 0.46595 0.2139 0.54696 0.0
H1235 H 0.4996 0.20057 0.5307 0.0
C1236 C 0.57689 0.21222 0.45357 0.0
C1237 C 0.56175 0.1972 0.44565 0.0
C1238 C 0.57595 0.21675 0.47265 0.0
C1239 C 0.55995 0.20628 0.48417 0.0
C1240 C 0.54391 0.19251 0.47606 0.0
C1241 C 0.54481 0.18798 0.45701 0.0
C1242 C 0.56103 0.20799 0.5048 0.0
C1243 C 0.54213 0.21501 0.51473 0.0
C1244 C 0.58041 0.2019 0.51475 0.0
C1245 C 0.60039 0.19284 0.50527 0.0
C1246 C 0.59887 0.17356 0.49438 0.0
C1247 C 0.61771 0.16529 0.48528 0.0
C1248 C 0.63822 0.17601 0.48713 0.0
C1249 C 0.63993 0.195 0.49812 0.0
C1250 C 0.62113 0.20338 0.50722 0.0
C1251 C 0.54815 0.18891 0.59321 0.0
C1252 C 0.56503 0.19906 0.60361 0.0
C1253 C 0.54644 0.19302 0.57405 0.0
C1254 C 0.56156 0.20736 0.56487 0.0
C1255 C 0.57796 0.21811 0.57532 0.0
C1256 C 0.57959 0.21414 0.59452 0.0
C1257 C 0.56136 0.20958 0.54421 0.0
C1258 C 0.58042 0.20311 0.53426 0.0
C1259 C 0.54206 0.21596 0.53431 0.0
C1260 C 0.52176 0.22393 0.54403 0.0
C1261 C 0.52302 0.24147 0.55682 0.0
C1262 C 0.50387 0.24885 0.56602 0.0
C1263 C 0.48332 0.2389 0.56247 0.0
C1264 C 0.48188 0.22158 0.54969 0.0
C1265 C 0.50098 0.21413 0.54047 0.0
H1266 H 0.46851 0.24463 0.56961 0.0
H1267 H 0.65278 0.16958 0.48007 0.0
H1268 H 0.85618 0.56873 0.1006 0.0
H1269 H 0.85302 0.56518 0.06694 0.0
H1270 H 0.78206 0.57455 0.07101 0.0
H1271 H 0.78503 0.57795 0.10493 0.0
H1272 H 0.79349 0.54244 0.045 0.0
H1273 H 0.81365 0.61771 0.0586 0.0
H1274 H 0.8356 0.64745 0.07321 0.0
H1275 H 0.89437 0.62499 0.04477 0.0
H1276 H 0.87283 0.5949 0.03019 0.0
H1277 H 0.78283 0.5719 0.94773 0.0
H1278 H 0.78104 0.57032 0.98183 0.0
H1279 H 0.85253 0.56507 0.98393 0.0
H1280 H 0.85448 0.56692 0.95001 0.0
H1281 H 0.83818 0.59614 1.00707 0.0
H1282 H 0.81797 0.52022 0.99393 0.0
H1283 H 0.79589 0.49042 0.97952 0.0
H1284 H 0.73694 0.5143 1.00685 0.0
H1285 H 0.75863 0.54444 1.02123 0.0
C1286 C 0.83983 0.56981 0.09443 0.0
C1287 C 0.82087 0.57385 0.10551 0.0
C1288 C 0.83807 0.56783 0.07514 0.0
C1289 C 0.81736 0.56999 0.06639 0.0
C1290 C 0.79823 0.57292 0.07745 0.0
C1291 C 0.79997 0.57489 0.09684 0.0
C1292 C 0.81606 0.57034 0.04569 0.0
C1293 C 0.803 0.55436 0.03668 0.0
C1294 C 0.82868 0.58573 0.03481 0.0
C1295 C 0.84166 0.60393 0.04342 0.0
C1296 C 0.83129 0.61902 0.05556 0.0
C1297 C 0.84365 0.63595 0.06383 0.0
C1298 C 0.86638 0.63807 0.05996 0.0
C1299 C 0.87677 0.62331 0.04777 0.0
C1300 C 0.86449 0.60632 0.03949 0.0
C1301 C 0.79815 0.57016 0.95545 0.0
C1302 C 0.8188 0.56961 0.94609 0.0
C1303 C 0.7971 0.5692 0.97497 0.0
C1304 C 0.81665 0.5675 0.98551 0.0
C1305 C 0.83721 0.56645 0.97615 0.0
C1306 C 0.83828 0.56745 0.9567 0.0
C1307 C 0.81598 0.56792 1.00626 0.0
C1308 C 0.82861 0.58419 1.01532 0.0
C1309 C 0.80293 0.55284 1.01711 0.0
C1310 C 0.78988 0.53473 1.00849 0.0
C1311 C 0.80026 0.51923 0.99674 0.0
C1312 C 0.78782 0.50226 0.98861 0.0
C1313 C 0.76501 0.50051 0.99222 0.0
C1314 C 0.7546 0.5157 1.00403 0.0
C1315 C 0.76696 0.53272 1.01219 0.0
H1316 H 0.75541 0.48736 0.98591 0.0
H1317 H 0.87592 0.65119 0.06638 0.0
H1318 H 0.4567 0.86499 0.59928 0.0
H1319 H 0.45955 0.86139 0.56555 0.0
H1320 H 0.45299 0.78994 0.57106 0.0
H1321 H 0.45045 0.79336 0.60502 0.0
H1322 H 0.48354 0.80117 0.5442 0.0
H1323 H 0.40857 0.82106 0.55893 0.0
H1324 H 0.37869 0.84306 0.57355 0.0
H1325 H 0.40033 0.9015 0.54325 0.0
H1326 H 0.43056 0.87993 0.52864 0.0
H1327 H 0.45216 0.78806 0.44781 0.0
H1328 H 0.45484 0.78693 0.48188 0.0
H1329 H 0.4611 0.85861 0.48241 0.0
H1330 H 0.4583 0.85991 0.44857 0.0
H1331 H 0.42968 0.84464 0.50641 0.0
H1332 H 0.50531 0.82428 0.49205 0.0
H1333 H 0.53489 0.80178 0.47754 0.0
H1334 H 0.51125 0.7434 0.50688 0.0
H1335 H 0.48133 0.76551 0.52138 0.0
C1336 C 0.45603 0.84845 0.59339 0.0
C1337 C 0.45314 0.82947 0.6049 0.0
C1338 C 0.4576 0.84643 0.57405 0.0
C1339 C 0.45608 0.82543 0.56569 0.0
C1340 C 0.45411 0.80634 0.57716 0.0
C1341 C 0.45261 0.80833 0.59658 0.0
C1342 C 0.45566 0.82367 0.545 0.0
C1343 C 0.47158 0.81043 0.53594 0.0
C1344 C 0.4402 0.83591 0.53415 0.0
C1345 C 0.42195 0.84891 0.54281 0.0
C1346 C 0.40705 0.83864 0.55548 0.0
C1347 C 0.39004 0.85103 0.56375 0.0
C1348 C 0.38764 0.87368 0.55936 0.0
C1349 C 0.40222 0.88397 0.54665 0.0
C1350 C 0.41928 0.87166 0.53836 0.0
C1351 C 0.45445 0.80355 0.45516 0.0
C1352 C 0.45491 0.82408 0.4454 0.0
C1353 C 0.45601 0.80288 0.47465 0.0
C1354 C 0.45816 0.8227 0.48476 0.0
C1355 C 0.45934 0.8431 0.47497 0.0
C1356 C 0.4578 0.84379 0.45556 0.0
C1357 C 0.45787 0.82254 0.50553 0.0
C1358 C 0.44166 0.83535 0.51464 0.0
C1359 C 0.47297 0.80981 0.51635 0.0
C1360 C 0.49094 0.7965 0.50764 0.0
C1361 C 0.5063 0.8066 0.49528 0.0
C1362 C 0.52315 0.79393 0.48709 0.0
C1363 C 0.5249 0.77116 0.49124 0.0
C1364 C 0.50985 0.76103 0.50364 0.0
C1365 C 0.49295 0.77363 0.51187 0.0
H1366 H 0.53797 0.76138 0.48488 0.0
H1367 H 0.37446 0.88324 0.56578 0.0
H1368 H 0.1726 0.57392 0.45199 0.0
H1369 H 0.17249 0.57485 0.48589 0.0
H1370 H 0.2442 0.57558 0.48586 0.0
H1371 H 0.24453 0.57455 0.45167 0.0
H1372 H 0.22591 0.54819 0.51433 0.0
H1373 H 0.21825 0.62309 0.49148 0.0
H1374 H 0.20231 0.6533 0.47218 0.0
H1375 H 0.13844 0.64274 0.49802 0.0
H1376 H 0.15393 0.61221 0.51729 0.0
H1377 H 0.23012 0.58773 0.60888 0.0
H1378 H 0.23551 0.58181 0.57543 0.0
H1379 H 0.1646 0.5857 0.56731 0.0
H1380 H 0.1591 0.59183 0.60053 0.0
H1381 H 0.18588 0.61171 0.54281 0.0
H1382 H 0.19313 0.53591 0.56485 0.0
H1383 H 0.20884 0.50526 0.58382 0.0
H1384 H 0.27336 0.51743 0.55966 0.0
H1385 H 0.25808 0.54837 0.54072 0.0
C1386 C 0.18842 0.57406 0.45911 0.0
C1387 C 0.2086 0.57437 0.44902 0.0
C1388 C 0.1883 0.57464 0.47855 0.0
C1389 C 0.20832 0.57563 0.48843 0.0
C1390 C 0.22855 0.5749 0.47852 0.0
C1391 C 0.2287 0.57435 0.45897 0.0
C1392 C 0.20784 0.57856 0.50899 0.0
C1393 C 0.21747 0.56225 0.52059 0.0
C1394 C 0.19657 0.59674 0.51717 0.0
C1395 C 0.18722 0.61523 0.50572 0.0
C1396 C 0.20077 0.6271 0.49295 0.0
C1397 C 0.19182 0.6443 0.48203 0.0
C1398 C 0.16936 0.6499 0.48384 0.0
C1399 C 0.15583 0.63836 0.49662 0.0
C1400 C 0.16469 0.62112 0.50756 0.0
C1401 C 0.21565 0.58708 0.6 0.0
C1402 C 0.19418 0.59034 0.60743 0.0
C1403 C 0.21876 0.58364 0.58087 0.0
C1404 C 0.20046 0.58325 0.5688 0.0
C1405 C 0.17901 0.58601 0.57628 0.0
C1406 C 0.17589 0.58946 0.59534 0.0
C1407 C 0.2035 0.58108 0.54827 0.0
C1408 C 0.19442 0.59767 0.53662 0.0
C1409 C 0.21529 0.56316 0.54012 0.0
C1410 C 0.22451 0.54462 0.55153 0.0
C1411 C 0.21071 0.53219 0.56371 0.0
C1412 C 0.21953 0.51473 0.57443 0.0
C1413 C 0.2421 0.50945 0.57299 0.0
C1414 C 0.25589 0.52157 0.56079 0.0
C1415 C 0.24715 0.53906 0.55005 0.0
H1416 H 0.24889 0.49593 0.58129 0.0
H1417 H 0.16246 0.66323 0.47538 0.0
H1418 H 0.49464 0.17024 0.94847 0.0
H1419 H 0.49727 0.17573 0.98201 0.0
H1420 H 0.43632 0.21357 0.98122 0.0
H1421 H 0.43377 0.20851 0.9475 0.0
H1422 H 0.46588 0.23059 1.00628 0.0
H1423 H 0.43496 0.15889 0.99208 0.0
H1424 H 0.43398 0.12231 0.97677 0.0
H1425 H 0.49491 0.10368 1.00361 0.0
H1426 H 0.49642 0.14031 1.01887 0.0
H1427 H 0.43423 0.21026 0.10183 0.0
H1428 H 0.43705 0.21496 0.06798 0.0
H1429 H 0.49623 0.17436 0.0675 0.0
H1430 H 0.4933 0.16926 0.1012 0.0
H1431 H 0.46761 0.15983 0.0429 0.0
H1432 H 0.49757 0.2315 0.05829 0.0
H1433 H 0.49809 0.26818 0.07344 0.0
H1434 H 0.43838 0.28689 0.0448 0.0
H1435 H 0.43733 0.25019 0.02966 0.0
C1436 C 0.48197 0.18006 0.95534 0.0
C1437 C 0.46384 0.18869 0.94532 0.0
C1438 C 0.48348 0.18314 0.97455 0.0
C1439 C 0.46674 0.19465 0.98421 0.0
C1440 C 0.44937 0.20453 0.97408 0.0
C1441 C 0.44793 0.20159 0.9548 0.0
C1442 C 0.46646 0.19472 1.00494 0.0
C1443 C 0.46605 0.21514 1.01432 0.0
C1444 C 0.46694 0.17457 1.01545 0.0
C1445 C 0.46591 0.15242 1.00648 0.0
C1446 C 0.44822 0.14704 0.99462 0.0
C1447 C 0.44756 0.1263 0.98596 0.0
C1448 C 0.4644 0.1107 0.98917 0.0
C1449 C 0.48189 0.11579 1.00111 0.0
C1450 C 0.48266 0.13654 1.00978 0.0
C1451 C 0.44807 0.20266 0.09456 0.0
C1452 C 0.46347 0.18926 0.10424 0.0
C1453 C 0.4497 0.20542 0.07519 0.0
C1454 C 0.46689 0.19504 0.06514 0.0
C1455 C 0.48277 0.18245 0.0749 0.0
C1456 C 0.4811 0.1796 0.09421 0.0
C1457 C 0.46739 0.19572 0.04438 0.0
C1458 C 0.46763 0.17535 0.03494 0.0
C1459 C 0.46665 0.21592 0.03391 0.0
C1460 C 0.46726 0.23801 0.04298 0.0
C1461 C 0.48445 0.24336 0.05534 0.0
C1462 C 0.48486 0.26418 0.0639 0.0
C1463 C 0.46825 0.27984 0.06013 0.0
C1464 C 0.45122 0.27474 0.04774 0.0
C1465 C 0.45072 0.25394 0.03914 0.0
H1466 H 0.46859 0.29594 0.06677 0.0
H1467 H 0.46386 0.09465 0.98245 0.0
H1468 H 0.8078 0.42975 0.44548 0.0
H1469 H 0.80957 0.43003 0.4795 0.0
H1470 H 0.88124 0.43114 0.47661 0.0
H1471 H 0.87965 0.43061 0.44261 0.0
H1472 H 0.86727 0.40177 0.50289 0.0
H1473 H 0.85236 0.47806 0.48727 0.0
H1474 H 0.83268 0.50943 0.47219 0.0
H1475 H 0.77257 0.49135 0.5014 0.0
H1476 H 0.79183 0.45968 0.51647 0.0
H1477 H 0.87804 0.43456 0.60011 0.0
H1478 H 0.88108 0.42911 0.56621 0.0
H1479 H 0.80948 0.428 0.56241 0.0
H1480 H 0.8065 0.4338 0.59586 0.0
H1481 H 0.82644 0.45845 0.53936 0.0
H1482 H 0.84156 0.38134 0.55449 0.0
H1483 H 0.86172 0.35034 0.56965 0.0
H1484 H 0.92205 0.37052 0.54174 0.0
H1485 H 0.90229 0.40185 0.52661 0.0
C1486 C 0.82395 0.43022 0.45205 0.0
C1487 C 0.84356 0.43027 0.44125 0.0
C1488 C 0.82494 0.43038 0.47154 0.0
C1489 C 0.84556 0.43075 0.48067 0.0
C1490 C 0.86515 0.43081 0.46993 0.0
C1491 C 0.86418 0.43064 0.45045 0.0
C1492 C 0.84662 0.43109 0.50141 0.0
C1493 C 0.85858 0.41434 0.51088 0.0
C1494 C 0.83513 0.44732 0.51189 0.0
C1495 C 0.82349 0.46637 0.50286 0.0
C1496 C 0.8349 0.48067 0.49036 0.0
C1497 C 0.82383 0.49853 0.48184 0.0
C1498 C 0.80137 0.50235 0.4858 0.0
C1499 C 0.78996 0.48835 0.49833 0.0
C1500 C 0.80095 0.47046 0.50688 0.0
C1501 C 0.86305 0.43238 0.59206 0.0
C1502 C 0.84204 0.4346 0.60055 0.0
C1503 C 0.86475 0.4294 0.57269 0.0
C1504 C 0.84547 0.42837 0.56168 0.0
C1505 C 0.82459 0.42899 0.5705 0.0
C1506 C 0.8229 0.43215 0.58966 0.0
C1507 C 0.8466 0.42879 0.54092 0.0
C1508 C 0.83515 0.44585 0.53142 0.0
C1509 C 0.85861 0.41289 0.53049 0.0
C1510 C 0.8705 0.39409 0.53959 0.0
C1511 C 0.85917 0.3793 0.55172 0.0
C1512 C 0.87051 0.36163 0.56028 0.0
C1513 C 0.89317 0.3585 0.5567 0.0
C1514 C 0.90451 0.37299 0.54452 0.0
C1515 C 0.89324 0.39069 0.53594 0.0
H1516 H 0.90192 0.34481 0.56333 0.0
H1517 H 0.79283 0.51619 0.47919 0.0
H1518 H 0.57848 0.86027 0.0986 0.0
H1519 H 0.5745 0.85675 0.06505 0.0
H1520 H 0.56896 0.78527 0.0713 0.0
H1521 H 0.5735 0.78863 0.10506 0.0
H1522 H 0.59661 0.79539 0.04358 0.0
H1523 H 0.52319 0.81849 0.06016 0.0
H1524 H 0.49474 0.84183 0.0753 0.0
H1525 H 0.5173 0.89894 0.0437 0.0
H1526 H 0.54608 0.87602 0.02854 0.0
H1527 H 0.57235 0.7858 0.94656 0.0
H1528 H 0.56862 0.78368 0.98056 0.0
H1529 H 0.57565 0.85519 0.98343 0.0
H1530 H 0.57898 0.85749 0.94959 0.0
H1531 H 0.54383 0.84127 1.0067 0.0
H1532 H 0.61936 0.81917 0.99272 0.0
H1533 H 0.64828 0.79624 0.97774 0.0
H1534 H 0.62175 0.73745 1.00463 0.0
H1535 H 0.59248 0.76001 1.01958 0.0
C1536 C 0.57619 0.84377 0.09293 0.0
C1537 C 0.57626 0.82472 0.10461 0.0
C1538 C 0.57381 0.8418 0.07367 0.0
C1539 C 0.57111 0.82077 0.06557 0.0
C1540 C 0.57094 0.8017 0.07719 0.0
C1541 C 0.57344 0.80365 0.09652 0.0
C1542 C 0.56949 0.81879 0.04492 0.0
C1543 C 0.58474 0.80508 0.03556 0.0
C1544 C 0.55432 0.83173 0.03432 0.0
C1545 C 0.5369 0.84555 0.0433 0.0
C1546 C 0.52217 0.83606 0.05652 0.0
C1547 C 0.50598 0.84921 0.0651 0.0
C1548 C 0.50424 0.87186 0.06049 0.0
C1549 C 0.51866 0.8814 0.04726 0.0
C1550 C 0.5349 0.86832 0.03865 0.0
C1551 C 0.57296 0.80109 0.95442 0.0
C1552 C 0.57607 0.8218 0.9453 0.0
C1553 C 0.57092 0.79984 0.97388 0.0
C1554 C 0.57211 0.81926 0.98463 0.0
C1555 C 0.57467 0.83996 0.97549 0.0
C1556 C 0.57665 0.84123 0.95609 0.0
C1557 C 0.57118 0.81819 1.00539 0.0
C1558 C 0.55547 0.83135 1.01476 0.0
C1559 C 0.58594 0.80477 1.01599 0.0
C1560 C 0.60359 0.79123 1.00709 0.0
C1561 C 0.6196 0.80133 0.99532 0.0
C1562 C 0.63606 0.7884 0.98686 0.0
C1563 C 0.63681 0.76539 0.99019 0.0
C1564 C 0.62112 0.75527 1.00204 0.0
C1565 C 0.6046 0.76811 1.01051 0.0
H1566 H 0.64957 0.75542 0.98362 0.0
H1567 H 0.4917 0.88202 0.06715 0.0
H1568 H 0.23149 0.35932 0.19495 0.0
H1569 H 0.2613 0.33221 0.19183 0.0
H1570 H 0.27248 0.35379 0.13497 0.0
H1571 H 0.24192 0.38056 0.13778 0.0
H1572 H 0.27285 0.30919 0.13764 0.0
H1573 H 0.30888 0.36826 0.169 0.0
H1574 H 0.3139 0.39717 0.19272 0.0
H1575 H 0.31417 0.34682 0.23582 0.0
H1576 H 0.30882 0.31761 0.21238 0.0
H1577 H 0.37221 0.24182 0.13593 0.0
H1578 H 0.34758 0.27444 0.13421 0.0
H1579 H 0.32293 0.25935 0.18953 0.0
H1580 H 0.34752 0.22705 0.19138 0.0
H1581 H 0.33301 0.30406 0.18443 0.0
H1582 H 0.29276 0.24583 0.1526 0.0
H1583 H 0.2879 0.21729 0.12853 0.0
H1584 H 0.29668 0.26721 0.08564 0.0
H1585 H 0.30189 0.29602 0.10949 0.0
C1586 C 0.2401 0.35826 0.18171 0.0
C1587 C 0.23419 0.37215 0.1666 0.0
C1588 C 0.25738 0.34289 0.18002 0.0
C1589 C 0.26938 0.34116 0.16325 0.0
C1590 C 0.26354 0.35492 0.14808 0.0
C1591 C 0.24617 0.37034 0.14976 0.0
C1592 C 0.28756 0.3245 0.1616 0.0
C1593 C 0.28628 0.30836 0.14764 0.0
C1594 C 0.30498 0.32324 0.17475 0.0
C1595 C 0.30829 0.34074 0.18892 0.0
C1596 C 0.30985 0.36335 0.18354 0.0
C1597 C 0.31278 0.3798 0.19694 0.0
C1598 C 0.31431 0.37384 0.21576 0.0
C1599 C 0.31297 0.35141 0.22123 0.0
C1600 C 0.31002 0.3349 0.20789 0.0
C1601 C 0.36162 0.24558 0.14774 0.0
C1602 C 0.3617 0.23178 0.16374 0.0
C1603 C 0.34749 0.26412 0.1467 0.0
C1604 C 0.33334 0.26923 0.16171 0.0
C1605 C 0.33369 0.25569 0.17778 0.0
C1606 C 0.34761 0.23711 0.17876 0.0
C1607 C 0.31792 0.28852 0.1608 0.0
C1608 C 0.31977 0.30515 0.17427 0.0
C1609 C 0.30115 0.29031 0.14714 0.0
C1610 C 0.29799 0.27302 0.13282 0.0
C1611 C 0.29385 0.25068 0.13804 0.0
C1612 C 0.291 0.23447 0.12444 0.0
C1613 C 0.29206 0.24042 0.10557 0.0
C1614 C 0.29591 0.26262 0.10026 0.0
C1615 C 0.29881 0.2789 0.11381 0.0
H1616 H 0.28983 0.22784 0.09505 0.0
H1617 H 0.31658 0.3866 0.22612 0.0
H1618 H 0.78585 0.39126 0.67986 0.0
H1619 H 0.76276 0.35769 0.67961 0.0
H1620 H 0.71768 0.39 0.6414 0.0
H1621 H 0.74062 0.42386 0.64193 0.0
H1622 H 0.69468 0.36632 0.66597 0.0
H1623 H 0.75717 0.35127 0.62661 0.0
H1624 H 0.79688 0.3487 0.61804 0.0
H1625 H 0.80711 0.30059 0.66198 0.0
H1626 H 0.76751 0.30311 0.67098 0.0
H1627 H 0.64255 0.26367 0.63987 0.0
H1628 H 0.663 0.29899 0.63933 0.0
H1629 H 0.70844 0.27272 0.68025 0.0
H1630 H 0.68804 0.23755 0.68103 0.0
H1631 H 0.73056 0.29376 0.65244 0.0
H1632 H 0.66749 0.31005 0.69197 0.0
H1633 H 0.62753 0.31268 0.69966 0.0
H1634 H 0.61813 0.35839 0.65385 0.0
H1635 H 0.658 0.3558 0.64574 0.0
C1636 C 0.77102 0.39122 0.6714 0.0
C1637 C 0.76519 0.41017 0.66078 0.0
C1638 C 0.75783 0.37198 0.67123 0.0
C1639 C 0.73868 0.37104 0.66015 0.0
C1640 C 0.7324 0.39021 0.65 0.0
C1641 C 0.7455 0.4096 0.65034 0.0
C1642 C 0.72547 0.34996 0.65902 0.0
C1643 C 0.7025 0.35052 0.66274 0.0
C1644 C 0.73561 0.3292 0.65502 0.0
C1645 C 0.75941 0.32753 0.64957 0.0
C1646 C 0.76792 0.34026 0.63452 0.0
C1647 C 0.79041 0.3388 0.62958 0.0
C1648 C 0.80452 0.32453 0.63949 0.0
C1649 C 0.79616 0.31165 0.65433 0.0
C1650 C 0.77369 0.31307 0.65934 0.0
C1651 C 0.65674 0.26543 0.6489 0.0
C1652 C 0.66355 0.2476 0.66049 0.0
C1653 C 0.66847 0.28568 0.64855 0.0
C1654 C 0.68721 0.28864 0.65986 0.0
C1655 C 0.6941 0.27086 0.67135 0.0
C1656 C 0.68241 0.25066 0.67171 0.0
C1657 C 0.69986 0.31008 0.65965 0.0
C1658 C 0.72275 0.30958 0.65561 0.0
C1659 C 0.6896 0.33088 0.6632 0.0
C1660 C 0.66567 0.33255 0.66814 0.0
C1661 C 0.65686 0.32053 0.68346 0.0
C1662 C 0.63424 0.32203 0.68791 0.0
C1663 C 0.62029 0.33564 0.67722 0.0
C1664 C 0.62895 0.34783 0.6621 0.0
C1665 C 0.65156 0.34636 0.65758 0.0
H1666 H 0.60278 0.33678 0.68069 0.0
H1667 H 0.82192 0.32343 0.63564 0.0
H1668 H 0.77799 0.64474 0.1491 0.0
H1669 H 0.74793 0.67211 0.14581 0.0
H1670 H 0.79451 0.72532 0.15608 0.0
H1671 H 0.8244 0.69812 0.15945 0.0
H1672 H 0.75892 0.72864 0.17802 0.0
H1673 H 0.7723 0.716 0.1125 0.0
H1674 H 0.7756 0.69296 0.08441 0.0
H1675 H 0.70782 0.67146 0.09129 0.0
H1676 H 0.70422 0.69415 0.11959 0.0
H1677 H 0.69995 0.82545 0.15785 0.0
H1678 H 0.72636 0.7948 0.1549 0.0
H1679 H 0.67216 0.74883 0.14664 0.0
H1680 H 0.64553 0.77964 0.14951 0.0
H1681 H 0.70845 0.73911 0.12425 0.0
H1682 H 0.69438 0.75222 0.18876 0.0
H1683 H 0.69056 0.77472 0.21712 0.0
H1684 H 0.7592 0.79415 0.21267 0.0
H1685 H 0.76334 0.77204 0.18411 0.0
C1686 C 0.78185 0.6623 0.15031 0.0
C1687 C 0.80352 0.66927 0.15471 0.0
C1688 C 0.76467 0.67793 0.14844 0.0
C1689 C 0.76895 0.7008 0.15072 0.0
C1690 C 0.79075 0.70777 0.15441 0.0
C1691 C 0.80783 0.69221 0.15638 0.0
C1692 C 0.75069 0.7175 0.1505 0.0
C1693 C 0.74809 0.73108 0.16614 0.0
C1694 C 0.73595 0.72011 0.13534 0.0
C1695 C 0.73807 0.70659 0.11827 0.0
C1696 C 0.75816 0.70622 0.10811 0.0
C1697 C 0.76007 0.69325 0.09213 0.0
C1698 C 0.74195 0.6807 0.0861 0.0
C1699 C 0.72186 0.68116 0.096 0.0
C1700 C 0.71986 0.69409 0.112 0.0
C1701 C 0.69364 0.80884 0.15533 0.0
C1702 C 0.67064 0.80491 0.1542 0.0
C1703 C 0.70875 0.79134 0.1536 0.0
C1704 C 0.70121 0.76945 0.15092 0.0
C1705 C 0.67833 0.76559 0.14878 0.0
C1706 C 0.66314 0.7832 0.1504 0.0
C1707 C 0.71726 0.75064 0.15152 0.0
C1708 C 0.7193 0.73659 0.1361 0.0
C1709 C 0.73149 0.74742 0.16694 0.0
C1710 C 0.72911 0.76061 0.18421 0.0
C1711 C 0.70862 0.76142 0.19376 0.0
C1712 C 0.7064 0.77408 0.20987 0.0
C1713 C 0.72461 0.78589 0.21667 0.0
C1714 C 0.7451 0.78501 0.20738 0.0
C1715 C 0.7474 0.77239 0.19124 0.0
H1716 H 0.72286 0.79569 0.22915 0.0
H1717 H 0.74347 0.67066 0.07373 0.0
H1718 H 0.2019 0.71506 0.66331 0.0
H1719 H 0.23412 0.73936 0.65917 0.0
H1720 H 0.27434 0.68269 0.6443 0.0
H1721 H 0.24199 0.65804 0.64889 0.0
H1722 H 0.29552 0.70864 0.66912 0.0
H1723 H 0.25986 0.72095 0.61121 0.0
H1724 H 0.22888 0.72884 0.58983 0.0
H1725 H 0.21972 0.7931 0.61449 0.0
H1726 H 0.25044 0.78547 0.63622 0.0
H1727 H 0.38474 0.78594 0.64957 0.0
H1728 H 0.35661 0.75687 0.64467 0.0
H1729 H 0.30517 0.80228 0.66214 0.0
H1730 H 0.33307 0.83131 0.66683 0.0
H1731 H 0.29278 0.77863 0.63153 0.0
H1732 H 0.32538 0.76344 0.69194 0.0
H1733 H 0.35632 0.75521 0.7133 0.0
H1734 H 0.37151 0.69576 0.68301 0.0
H1735 H 0.34082 0.70381 0.6613 0.0
C1736 C 0.21756 0.7077 0.65915 0.0
C1737 C 0.21934 0.68455 0.65653 0.0
C1738 C 0.23598 0.72168 0.6566 0.0
C1739 C 0.25669 0.71295 0.65124 0.0
C1740 C 0.25853 0.68985 0.64837 0.0
C1741 C 0.23999 0.6758 0.65086 0.0
C1742 C 0.2764 0.72801 0.64949 0.0
C1743 C 0.29512 0.72368 0.66056 0.0
C1744 C 0.27586 0.74783 0.63852 0.0
C1745 C 0.25739 0.75256 0.62544 0.0
C1746 C 0.25114 0.7367 0.61217 0.0
C1747 C 0.23364 0.74114 0.59997 0.0
C1748 C 0.22232 0.76144 0.60082 0.0
C1749 C 0.2285 0.77737 0.61385 0.0
C1750 C 0.24598 0.77301 0.6261 0.0
C1751 C 0.36741 0.78979 0.65213 0.0
C1752 C 0.36117 0.81091 0.65872 0.0
C1753 C 0.35136 0.77312 0.64945 0.0
C1754 C 0.32876 0.77731 0.6532 0.0
C1755 C 0.32248 0.79861 0.65919 0.0
C1756 C 0.33847 0.81515 0.66201 0.0
C1757 C 0.31157 0.75951 0.6515 0.0
C1758 C 0.29332 0.76337 0.6398 0.0
C1759 C 0.3126 0.73923 0.66182 0.0
C1760 C 0.331 0.73437 0.67487 0.0
C1761 C 0.33545 0.74872 0.68974 0.0
C1762 C 0.35291 0.74407 0.70193 0.0
C1763 C 0.36592 0.72501 0.69948 0.0
C1764 C 0.36145 0.71054 0.68487 0.0
C1765 C 0.34402 0.71513 0.67262 0.0
H1766 H 0.37943 0.72144 0.70893 0.0
H1767 H 0.20877 0.76485 0.59136 0.0
H1768 H 0.33103 0.82015 0.39332 0.0
H1769 H 0.30617 0.78817 0.39643 0.0
H1770 H 0.3627 0.74424 0.40102 0.0
H1771 H 0.38778 0.77624 0.39725 0.0
H1772 H 0.33329 0.72822 0.3771 0.0
H1773 H 0.32995 0.75482 0.43901 0.0
H1774 H 0.32587 0.78236 0.46402 0.0
H1775 H 0.25903 0.79608 0.44666 0.0
H1776 H 0.26281 0.76886 0.42136 0.0
H1777 H 0.25868 0.63715 0.39697 0.0
H1778 H 0.2882 0.66482 0.40173 0.0
H1779 H 0.24173 0.71784 0.39001 0.0
H1780 H 0.21228 0.69031 0.38525 0.0
H1781 H 0.26917 0.72592 0.42103 0.0
H1782 H 0.27514 0.70236 0.35683 0.0
H1783 H 0.27957 0.67458 0.33204 0.0
H1784 H 0.3424 0.65452 0.35481 0.0
H1785 H 0.33817 0.68199 0.37991 0.0
C1786 C 0.33822 0.80372 0.39496 0.0
C1787 C 0.36143 0.80079 0.39494 0.0
C1788 C 0.32397 0.78543 0.39696 0.0
C1789 C 0.33256 0.76381 0.39918 0.0
C1790 C 0.35571 0.7608 0.39941 0.0
C1791 C 0.37002 0.77913 0.3974 0.0
C1792 C 0.31723 0.74437 0.40023 0.0
C1793 C 0.31957 0.72747 0.38699 0.0
C1794 C 0.29913 0.74351 0.41297 0.0
C1795 C 0.29673 0.75989 0.4282 0.0
C1796 C 0.31444 0.76383 0.44043 0.0
C1797 C 0.31217 0.77937 0.45468 0.0
C1798 C 0.29222 0.79099 0.4569 0.0
C1799 C 0.27448 0.78707 0.44491 0.0
C1800 C 0.27666 0.77156 0.43063 0.0
C1801 C 0.25476 0.65472 0.39563 0.0
C1802 C 0.23325 0.66161 0.39063 0.0
C1803 C 0.27161 0.67047 0.39827 0.0
C1804 C 0.26713 0.69334 0.39612 0.0
C1805 C 0.24551 0.70026 0.39172 0.0
C1806 C 0.22876 0.68454 0.38886 0.0
C1807 C 0.28506 0.71017 0.3977 0.0
C1808 C 0.28316 0.72653 0.4114 0.0
C1809 C 0.30363 0.71047 0.38548 0.0
C1810 C 0.3062 0.69401 0.37038 0.0
C1811 C 0.2898 0.69187 0.35665 0.0
C1812 C 0.29229 0.67622 0.34252 0.0
C1813 C 0.31122 0.66274 0.34189 0.0
C1814 C 0.32772 0.66494 0.35534 0.0
C1815 C 0.32529 0.68055 0.36952 0.0
H1816 H 0.31312 0.65063 0.33093 0.0
H1817 H 0.29049 0.80301 0.46794 0.0
H1818 H 0.38296 0.25003 0.8913 0.0
H1819 H 0.35636 0.28088 0.89232 0.0
H1820 H 0.30201 0.2339 0.89074 0.0
H1821 H 0.32839 0.20307 0.88988 0.0
H1822 H 0.2966 0.26697 0.86563 0.0
H1823 H 0.31552 0.26122 0.93074 0.0
H1824 H 0.34104 0.26063 0.95746 0.0
H1825 H 0.36332 0.32685 0.94326 0.0
H1826 H 0.33813 0.32771 0.91628 0.0
H1827 H 0.20381 0.3319 0.88745 0.0
H1828 H 0.23383 0.30468 0.88933 0.0
H1829 H 0.282 0.35803 0.89082 0.0
H1830 H 0.25184 0.3855 0.88896 0.0
H1831 H 0.29291 0.32422 0.91487 0.0
H1832 H 0.27341 0.3309 0.85072 0.0
H1833 H 0.24829 0.33192 0.82373 0.0
H1834 H 0.22805 0.26442 0.83549 0.0
H1835 H 0.25281 0.2631 0.86272 0.0
C1836 C 0.36536 0.24623 0.89145 0.0
C1837 C 0.35786 0.22401 0.89039 0.0
C1838 C 0.35016 0.26391 0.892 0.0
C1839 C 0.32716 0.25972 0.89165 0.0
C1840 C 0.31967 0.23756 0.89091 0.0
C1841 C 0.33481 0.21993 0.89035 0.0
C1842 C 0.31078 0.27829 0.89129 0.0
C1843 C 0.29565 0.27933 0.87652 0.0
C1844 C 0.31003 0.29491 0.90514 0.0
C1845 C 0.32512 0.29443 0.92137 0.0
C1846 C 0.326 0.27558 0.93322 0.0
C1847 C 0.34038 0.27521 0.94843 0.0
C1848 C 0.35384 0.29366 0.95202 0.0
C1849 C 0.35291 0.31255 0.94044 0.0
C1850 C 0.33857 0.313 0.9252 0.0
C1851 C 0.22077 0.33789 0.88812 0.0
C1852 C 0.22542 0.3609 0.88779 0.0
C1853 C 0.23794 0.32229 0.88924 0.0
C1854 C 0.26022 0.32929 0.88985 0.0
C1855 C 0.26494 0.35224 0.89028 0.0
C1856 C 0.24769 0.36792 0.88925 0.0
C1857 C 0.27842 0.31252 0.88943 0.0
C1858 C 0.29394 0.3119 0.90396 0.0
C1859 C 0.27966 0.2963 0.8753 0.0
C1860 C 0.26483 0.29697 0.85886 0.0
C1861 C 0.26348 0.31633 0.84763 0.0
C1862 C 0.24932 0.31695 0.83228 0.0
C1863 C 0.23655 0.29827 0.82792 0.0
C1864 C 0.23794 0.27889 0.83889 0.0
C1865 C 0.25205 0.27819 0.85427 0.0
H1866 H 0.2256 0.29878 0.81603 0.0
H1867 H 0.36497 0.29334 0.96381 0.0
H1868 H 0.65366 0.24118 0.41061 0.0
H1869 H 0.68286 0.26953 0.41243 0.0
H1870 H 0.72541 0.2297 0.37755 0.0
H1871 H 0.69632 0.20158 0.37532 0.0
H1872 H 0.74718 0.24549 0.40823 0.0
H1873 H 0.69894 0.27418 0.35974 0.0
H1874 H 0.66312 0.28694 0.34694 0.0
H1875 H 0.65939 0.33799 0.38826 0.0
H1876 H 0.69507 0.32532 0.40147 0.0
H1877 H 0.82921 0.31717 0.37153 0.0
H1878 H 0.7984 0.29152 0.37742 0.0
H1879 H 0.76401 0.34228 0.40842 0.0
H1880 H 0.79455 0.36839 0.40199 0.0
H1881 H 0.7366 0.32283 0.38448 0.0
H1882 H 0.78671 0.29725 0.43087 0.0
H1883 H 0.8225 0.28484 0.44391 0.0
H1884 H 0.82265 0.22836 0.40772 0.0
H1885 H 0.787 0.24059 0.39426 0.0
C1886 C 0.66912 0.23852 0.40316 0.0
C1887 C 0.67257 0.21899 0.39283 0.0
C1888 C 0.68583 0.25472 0.40429 0.0
C1889 C 0.70628 0.25172 0.39511 0.0
C1890 C 0.7098 0.23227 0.38486 0.0
C1891 C 0.69312 0.21615 0.38366 0.0
C1892 C 0.72413 0.26877 0.39598 0.0
C1893 C 0.74494 0.26237 0.40294 0.0
C1894 C 0.72093 0.29099 0.38968 0.0
C1895 C 0.69952 0.29863 0.38173 0.0
C1896 C 0.69038 0.28799 0.3662 0.0
C1897 C 0.67013 0.29524 0.35885 0.0
C1898 C 0.65895 0.31322 0.36682 0.0
C1899 C 0.66804 0.32404 0.38212 0.0
C1900 C 0.68828 0.31684 0.38954 0.0
C1901 C 0.81512 0.32292 0.37961 0.0
C1902 C 0.81436 0.34489 0.38622 0.0
C1903 C 0.79759 0.30814 0.38314 0.0
C1904 C 0.77897 0.31489 0.39354 0.0
C1905 C 0.77826 0.33669 0.40043 0.0
C1906 C 0.79583 0.35154 0.39688 0.0
C1907 C 0.75989 0.2994 0.39631 0.0
C1908 C 0.73882 0.30607 0.39006 0.0
C1909 C 0.76281 0.27744 0.40336 0.0
C1910 C 0.78423 0.26994 0.41147 0.0
C1911 C 0.79444 0.28227 0.42559 0.0
C1912 C 0.8147 0.27525 0.43308 0.0
C1913 C 0.82486 0.25584 0.42663 0.0
C1914 C 0.81476 0.24339 0.4127 0.0
C1915 C 0.79451 0.25034 0.40516 0.0
H1916 H 0.84054 0.25044 0.43244 0.0
H1917 H 0.64328 0.31881 0.36111 0.0
H1918 H 0.81218 0.68515 0.87486 0.0
H1919 H 0.78354 0.71311 0.88031 0.0
H1920 H 0.74426 0.66445 0.91079 0.0
H1921 H 0.7729 0.6361 0.90503 0.0
H1922 H 0.71938 0.68739 0.88542 0.0
H1923 H 0.76916 0.70627 0.93388 0.0
H1924 H 0.80524 0.71489 0.94822 0.0
H1925 H 0.81228 0.77269 0.91268 0.0
H1926 H 0.77638 0.76425 0.89793 0.0
H1927 H 0.64139 0.77473 0.90408 0.0
H1928 H 0.66807 0.74452 0.90969 0.0
H1929 H 0.71865 0.78199 0.87993 0.0
H1930 H 0.69236 0.81233 0.87475 0.0
H1931 H 0.73569 0.7624 0.91041 0.0
H1932 H 0.68909 0.74016 0.85908 0.0
H1933 H 0.65341 0.73145 0.84406 0.0
H1934 H 0.64079 0.67986 0.88487 0.0
H1935 H 0.67629 0.68848 0.90028 0.0
C1936 C 0.79748 0.68036 0.88275 0.0
C1937 C 0.79479 0.65834 0.88942 0.0
C1938 C 0.78119 0.69644 0.88602 0.0
C1939 C 0.76179 0.69098 0.89611 0.0
C1940 C 0.75913 0.66908 0.90304 0.0
C1941 C 0.77556 0.65294 0.89985 0.0
C1942 C 0.744 0.70799 0.89847 0.0
C1943 C 0.7228 0.70361 0.89129 0.0
C1944 C 0.74851 0.72932 0.90584 0.0
C1945 C 0.77011 0.73453 0.91471 0.0
C1946 C 0.77847 0.72073 0.92902 0.0
C1947 C 0.79888 0.7256 0.93724 0.0
C1948 C 0.81106 0.7443 0.93134 0.0
C1949 C 0.80283 0.7582 0.91723 0.0
C1950 C 0.78243 0.7534 0.90896 0.0
C1951 C 0.65827 0.77667 0.89898 0.0
C1952 C 0.66465 0.7959 0.88879 0.0
C1953 C 0.67347 0.7593 0.90207 0.0
C1954 C 0.69532 0.76083 0.89503 0.0
C1955 C 0.70189 0.78035 0.88546 0.0
C1956 C 0.68675 0.79763 0.88234 0.0
C1957 C 0.71129 0.74197 0.89692 0.0
C1958 C 0.73215 0.74602 0.90488 0.0
C1959 C 0.70649 0.72037 0.89023 0.0
C1960 C 0.68519 0.71515 0.88096 0.0
C1961 C 0.67861 0.72708 0.86494 0.0
C1962 C 0.65844 0.72214 0.85634 0.0
C1963 C 0.6448 0.70516 0.86355 0.0
C1964 C 0.65134 0.69304 0.87933 0.0
C1965 C 0.67149 0.69794 0.888 0.0
H1966 H 0.62919 0.70135 0.85687 0.0
H1967 H 0.82687 0.74804 0.93773 0.0
loop_
_geom_bond_atom_site_label_1
_geom_bond_atom_site_label_2
_geom_bond_distance
_geom_bond_site_symmetry_2
_ccdc_geom_bond_type
Cu0 N1 1.999 . S
Cu0 O6 1.974 . S
Cu0 N11 1.985 . S
Cu0 O20 1.959 . S
N1 Cu0 1.999 . S
N1 C3 1.263 . S
N1 C5 1.389 . S
N2 C3 1.358 . S
N2 C4 1.400 . S
C3 N1 1.263 . S
C3 N2 1.358 . S
C3 H9 0.930 . S
C4 N2 1.400 . S
C4 C5 1.351 . S
C4 H21 0.930 . S
C5 N1 1.389 . S
C5 C4 1.351 . S
C5 H10 0.930 . S
O6 Cu0 1.974 . S
O6 C16 1.282 . S
C7 O8 1.261 . S
C7 O20 1.251 . S
O8 C7 1.261 . S
H9 C3 0.930 . S
H10 C5 0.930 . S
N11 Cu0 1.985 . S
N11 C13 1.335 . S
N11 C14 1.390 . S
N12 C13 1.345 . S
N12 C15 1.336 . S
C13 N11 1.335 . S
C13 N12 1.345 . S
C13 H18 0.930 . S
C14 N11 1.390 . S
C14 C15 1.346 . S
C14 H19 0.930 . S
C15 N12 1.336 . S
C15 C14 1.346 . S
C15 H22 0.929 . S
C16 O6 1.282 . S
C16 O17 1.216 . S
O17 C16 1.216 . S
H18 C13 0.930 . S
H19 C14 0.930 . S
O20 Cu0 1.959 . S
O20 C7 1.251 . S
H21 C4 0.930 . S
H22 C15 0.929 . S
Cu23 N24 1.999 . S
Cu23 O29 1.974 . S
Cu23 N34 1.985 . S
Cu23 O43 1.959 . S
N24 Cu23 1.999 . S
N24 C26 1.263 . S
N24 C28 1.389 . S
N25 C26 1.358 . S
N25 C27 1.400 . S
C26 N24 1.263 . S
C26 N25 1.358 . S
C26 H32 0.930 . S
C27 N25 1.400 . S
C27 C28 1.351 . S
C27 H44 0.930 . S
C28 N24 1.389 . S
C28 C27 1.351 . S
C28 H33 0.930 . S
O29 Cu23 1.974 . S
O29 C39 1.282 . S
C30 O31 1.261 . S
C30 O43 1.251 . S
O31 C30 1.261 . S
H32 C26 0.930 . S
H33 C28 0.930 . S
N34 Cu23 1.985 . S
N34 C36 1.335 . S
N34 C37 1.390 . S
N35 C36 1.345 . S
N35 C38 1.336 . S
C36 N34 1.335 . S
C36 N35 1.345 . S
C36 H41 0.930 . S
C37 N34 1.390 . S
C37 C38 1.346 . S
C37 H42 0.930 . S
C38 N35 1.336 . S
C38 C37 1.346 . S
C38 H45 0.929 . S
C39 O29 1.282 . S
C39 O40 1.216 . S
O40 C39 1.216 . S
H41 C36 0.930 . S
H42 C37 0.930 . S
O43 Cu23 1.959 . S
O43 C30 1.251 . S
H44 C27 0.930 . S
H45 C38 0.929 . S
Cu46 N47 1.999 . S
Cu46 O52 1.974 . S
Cu46 N57 1.985 . S
Cu46 O66 1.959 . S
N47 Cu46 1.999 . S
N47 C49 1.263 . S
N47 C51 1.389 . S
N48 C49 1.358 . S
N48 C50 1.400 . S
C49 N47 1.263 . S
C49 N48 1.358 . S
C49 H55 0.930 . S
C50 N48 1.400 . S
C50 C51 1.351 . S
C50 H67 0.930 . S
C51 N47 1.389 . S
C51 C50 1.351 . S
C51 H56 0.930 . S
O52 Cu46 1.974 . S
O52 C62 1.282 . S
C53 O54 1.261 . S
C53 O66 1.251 . S
O54 C53 1.261 . S
H55 C49 0.930 . S
H56 C51 0.930 . S
N57 Cu46 1.985 . S
N57 C59 1.335 . S
N57 C60 1.390 . S
N58 C59 1.345 . S
N58 C61 1.336 . S
C59 N57 1.335 . S
C59 N58 1.345 . S
C59 H64 0.930 . S
C60 N57 1.390 . S
C60 C61 1.346 . S
C60 H65 0.930 . S
C61 N58 1.336 . S
C61 C60 1.346 . S
C61 H68 0.929 . S
C62 O52 1.282 . S
C62 O63 1.216 . S
O63 C62 1.216 . S
H64 C59 0.930 . S
H65 C60 0.930 . S
O66 Cu46 1.959 . S
O66 C53 1.251 . S
H67 C50 0.930 . S
H68 C61 0.929 . S
Cu69 N70 1.999 . S
Cu69 O75 1.974 . S
Cu69 N80 1.985 . S
Cu69 O89 1.959 . S
N70 Cu69 1.999 . S
N70 C72 1.263 . S
N70 C74 1.389 . S
N71 C72 1.358 . S
N71 C73 1.400 . S
C72 N70 1.263 . S
C72 N71 1.358 . S
C72 H78 0.930 . S
C73 N71 1.400 . S
C73 C74 1.351 . S
C73 H90 0.930 . S
C74 N70 1.389 . S
C74 C73 1.351 . S
C74 H79 0.930 . S
O75 Cu69 1.974 . S
O75 C85 1.282 . S
C76 O77 1.261 . S
C76 O89 1.251 . S
O77 C76 1.261 . S
H78 C72 0.930 . S
H79 C74 0.930 . S
N80 Cu69 1.985 . S
N80 C82 1.335 . S
N80 C83 1.390 . S
N81 C82 1.345 . S
N81 C84 1.336 . S
C82 N80 1.335 . S
C82 N81 1.345 . S
C82 H87 0.930 . S
C83 N80 1.390 . S
C83 C84 1.346 . S
C83 H88 0.930 . S
C84 N81 1.336 . S
C84 C83 1.346 . S
C84 H91 0.929 . S
C85 O75 1.282 . S
C85 O86 1.216 . S
O86 C85 1.216 . S
H87 C82 0.930 . S
H88 C83 0.930 . S
O89 Cu69 1.959 . S
O89 C76 1.251 . S
H90 C73 0.930 . S
H91 C84 0.929 . S
Cu92 N93 1.999 . S
Cu92 O98 1.974 . S
Cu92 N103 1.985 . S
Cu92 O112 1.959 . S
N93 Cu92 1.999 . S
N93 C95 1.263 . S
N93 C97 1.389 . S
N94 C95 1.358 . S
N94 C96 1.400 . S
C95 N93 1.263 . S
C95 N94 1.358 . S
C95 H101 0.930 . S
C96 N94 1.400 . S
C96 C97 1.351 . S
C96 H113 0.930 . S
C97 N93 1.389 . S
C97 C96 1.351 . S
C97 H102 0.930 . S
O98 Cu92 1.974 . S
O98 C108 1.282 . S
C99 O100 1.261 . S
C99 O112 1.251 . S
O100 C99 1.261 . S
H101 C95 0.930 . S
H102 C97 0.930 . S
N103 Cu92 1.985 . S
N103 C105 1.335 . S
N103 C106 1.390 . S
N104 C105 1.345 . S
N104 C107 1.336 . S
C105 N103 1.335 . S
C105 N104 1.345 . S
C105 H110 0.930 . S
C106 N103 1.390 . S
C106 C107 1.346 . S
C106 H111 0.930 . S
C107 N104 1.336 . S
C107 C106 1.346 . S
C107 H114 0.929 . S
C108 O98 1.282 . S
C108 O109 1.216 . S
O109 C108 1.216 . S
H110 C105 0.930 . S
H111 C106 0.930 . S
O112 Cu92 1.959 . S
O112 C99 1.251 . S
H113 C96 0.930 . S
H114 C107 0.929 . S
Cu115 N116 1.999 . S
Cu115 O121 1.974 . S
Cu115 N126 1.985 . S
Cu115 O135 1.959 . S
N116 Cu115 1.999 . S
N116 C118 1.263 . S
N116 C120 1.389 . S
N117 C118 1.358 . S
N117 C119 1.400 . S
C118 N116 1.263 . S
C118 N117 1.358 . S
C118 H124 0.930 . S
C119 N117 1.400 . S
C119 C120 1.351 . S
C119 H136 0.930 . S
C120 N116 1.389 . S
C120 C119 1.351 . S
C120 H125 0.930 . S
O121 Cu115 1.974 . S
O121 C131 1.282 . S
C122 O123 1.261 . S
C122 O135 1.251 . S
O123 C122 1.261 . S
H124 C118 0.930 . S
H125 C120 0.930 . S
N126 Cu115 1.985 . S
N126 C128 1.335 . S
N126 C129 1.390 . S
N127 C128 1.345 . S
N127 C130 1.336 . S
C128 N126 1.335 . S
C128 N127 1.345 . S
C128 H133 0.930 . S
C129 N126 1.390 . S
C129 C130 1.346 . S
C129 H134 0.930 . S
C130 N127 1.336 . S
C130 C129 1.346 . S
C130 H137 0.929 . S
C131 O121 1.282 . S
C131 O132 1.216 . S
O132 C131 1.216 . S
H133 C128 0.930 . S
H134 C129 0.930 . S
O135 Cu115 1.959 . S
O135 C122 1.251 . S
H136 C119 0.930 . S
H137 C130 0.929 . S
Cu138 N139 1.999 . S
Cu138 O144 1.974 . S
Cu138 N149 1.985 . S
Cu138 O158 1.959 . S
N139 Cu138 1.999 . S
N139 C141 1.263 . S
N139 C143 1.389 . S
N140 C141 1.358 . S
N140 C142 1.400 . S
C141 N139 1.263 . S
C141 N140 1.358 . S
C141 H147 0.930 . S
C142 N140 1.400 . S
C142 C143 1.351 . S
C142 H159 0.930 . S
C143 N139 1.389 . S
C143 C142 1.351 . S
C143 H148 0.930 . S
O144 Cu138 1.974 . S
O144 C154 1.282 . S
C145 O146 1.261 . S
C145 O158 1.251 . S
O146 C145 1.261 . S
H147 C141 0.930 . S
H148 C143 0.930 . S
N149 Cu138 1.985 . S
N149 C151 1.335 . S
N149 C152 1.390 . S
N150 C151 1.345 . S
N150 C153 1.336 . S
C151 N149 1.335 . S
C151 N150 1.345 . S
C151 H156 0.930 . S
C152 N149 1.390 . S
C152 C153 1.346 . S
C152 H157 0.930 . S
C153 N150 1.336 . S
C153 C152 1.346 . S
C153 H160 0.929 . S
C154 O144 1.282 . S
C154 O155 1.216 . S
O155 C154 1.216 . S
H156 C151 0.930 . S
H157 C152 0.930 . S
O158 Cu138 1.959 . S
O158 C145 1.251 . S
H159 C142 0.930 . S
H160 C153 0.929 . S
Cu161 N162 1.999 . S
Cu161 O167 1.974 . S
Cu161 N172 1.985 . S
Cu161 O181 1.959 . S
N162 Cu161 1.999 . S
N162 C164 1.263 . S
N162 C166 1.389 . S
N163 C164 1.358 . S
N163 C165 1.400 . S
C164 N162 1.263 . S
C164 N163 1.358 . S
C164 H170 0.930 . S
C165 N163 1.400 . S
C165 C166 1.351 . S
C165 H182 0.930 . S
C166 N162 1.389 . S
C166 C165 1.351 . S
C166 H171 0.930 . S
O167 Cu161 1.974 . S
O167 C177 1.282 . S
C168 O169 1.261 . S
C168 O181 1.251 . S
O169 C168 1.261 . S
H170 C164 0.930 . S
H171 C166 0.930 . S
N172 Cu161 1.985 . S
N172 C174 1.335 . S
N172 C175 1.390 . S
N173 C174 1.345 . S
N173 C176 1.336 . S
C174 N172 1.335 . S
C174 N173 1.345 . S
C174 H179 0.930 . S
C175 N172 1.390 . S
C175 C176 1.346 . S
C175 H180 0.930 . S
C176 N173 1.336 . S
C176 C175 1.346 . S
C176 H183 0.929 . S
C177 O167 1.282 . S
C177 O178 1.216 . S
O178 C177 1.216 . S
H179 C174 0.930 . S
H180 C175 0.930 . S
O181 Cu161 1.959 . S
O181 C168 1.251 . S
H182 C165 0.930 . S
H183 C176 0.929 . S
Cu184 N185 1.999 . S
Cu184 O190 1.974 . S
Cu184 N195 1.985 . S
Cu184 O204 1.959 . S
N185 Cu184 1.999 . S
N185 C187 1.263 . S
N185 C189 1.389 . S
N186 C187 1.358 . S
N186 C188 1.400 . S
C187 N185 1.263 . S
C187 N186 1.358 . S
C187 H193 0.930 . S
C188 N186 1.400 . S
C188 C189 1.351 . S
C188 H205 0.930 . S
C189 N185 1.389 . S
C189 C188 1.351 . S
C189 H194 0.930 . S
O190 Cu184 1.974 . S
O190 C200 1.282 . S
C191 O192 1.261 . S
C191 O204 1.251 . S
O192 C191 1.261 . S
H193 C187 0.930 . S
H194 C189 0.930 . S
N195 Cu184 1.985 . S
N195 C197 1.335 . S
N195 C198 1.390 . S
N196 C197 1.345 . S
N196 C199 1.336 . S
C197 N195 1.335 . S
C197 N196 1.345 . S
C197 H202 0.930 . S
C198 N195 1.390 . S
C198 C199 1.346 . S
C198 H203 0.930 . S
C199 N196 1.336 . S
C199 C198 1.346 . S
C199 H206 0.929 . S
C200 O190 1.282 . S
C200 O201 1.216 . S
O201 C200 1.216 . S
H202 C197 0.930 . S
H203 C198 0.930 . S
O204 Cu184 1.959 . S
O204 C191 1.251 . S
H205 C188 0.930 . S
H206 C199 0.929 . S
Cu207 N208 1.999 . S
Cu207 O213 1.974 . S
Cu207 N218 1.985 . S
Cu207 O227 1.959 . S
N208 Cu207 1.999 . S
N208 C210 1.263 . S
N208 C212 1.389 . S
N209 C210 1.358 . S
N209 C211 1.400 . S
C210 N208 1.263 . S
C210 N209 1.358 . S
C210 H216 0.930 . S
C211 N209 1.400 . S
C211 C212 1.351 . S
C211 H228 0.930 . S
C212 N208 1.389 . S
C212 C211 1.351 . S
C212 H217 0.930 . S
O213 Cu207 1.974 . S
O213 C223 1.282 . S
C214 O215 1.261 . S
C214 O227 1.251 . S
O215 C214 1.261 . S
H216 C210 0.930 . S
H217 C212 0.930 . S
N218 Cu207 1.985 . S
N218 C220 1.335 . S
N218 C221 1.390 . S
N219 C220 1.345 . S
N219 C222 1.336 . S
C220 N218 1.335 . S
C220 N219 1.345 . S
C220 H225 0.930 . S
C221 N218 1.390 . S
C221 C222 1.346 . S
C221 H226 0.930 . S
C222 N219 1.336 . S
C222 C221 1.346 . S
C222 H229 0.929 . S
C223 O213 1.282 . S
C223 O224 1.216 . S
O224 C223 1.216 . S
H225 C220 0.930 . S
H226 C221 0.930 . S
O227 Cu207 1.959 . S
O227 C214 1.251 . S
H228 C211 0.930 . S
H229 C222 0.929 . S
Cu230 N231 1.999 . S
Cu230 O236 1.974 . S
Cu230 N241 1.985 . S
Cu230 O250 1.959 . S
N231 Cu230 1.999 . S
N231 C233 1.263 . S
N231 C235 1.389 . S
N232 C233 1.358 . S
N232 C234 1.400 . S
C233 N231 1.263 . S
C233 N232 1.358 . S
C233 H239 0.930 . S
C234 N232 1.400 . S
C234 C235 1.351 . S
C234 H251 0.930 . S
C235 N231 1.389 . S
C235 C234 1.351 . S
C235 H240 0.930 . S
O236 Cu230 1.974 . S
O236 C246 1.282 . S
C237 O238 1.261 . S
C237 O250 1.251 . S
O238 C237 1.261 . S
H239 C233 0.930 . S
H240 C235 0.930 . S
N241 Cu230 1.985 . S
N241 C243 1.335 . S
N241 C244 1.390 . S
N242 C243 1.345 . S
N242 C245 1.336 . S
C243 N241 1.335 . S
C243 N242 1.345 . S
C243 H248 0.930 . S
C244 N241 1.390 . S
C244 C245 1.346 . S
C244 H249 0.930 . S
C245 N242 1.336 . S
C245 C244 1.346 . S
C245 H252 0.929 . S
C246 O236 1.282 . S
C246 O247 1.216 . S
O247 C246 1.216 . S
H248 C243 0.930 . S
H249 C244 0.930 . S
O250 Cu230 1.959 . S
O250 C237 1.251 . S
H251 C234 0.930 . S
H252 C245 0.929 . S
Cu253 N254 1.999 . S
Cu253 O259 1.974 . S
Cu253 N264 1.985 . S
Cu253 O273 1.959 . S
N254 Cu253 1.999 . S
N254 C256 1.263 . S
N254 C258 1.389 . S
N255 C256 1.358 . S
N255 C257 1.400 . S
C256 N254 1.263 . S
C256 N255 1.358 . S
C256 H262 0.930 . S
C257 N255 1.400 . S
C257 C258 1.351 . S
C257 H274 0.930 . S
C258 N254 1.389 . S
C258 C257 1.351 . S
C258 H263 0.930 . S
O259 Cu253 1.974 . S
O259 C269 1.282 . S
C260 O261 1.261 . S
C260 O273 1.251 . S
O261 C260 1.261 . S
H262 C256 0.930 . S
H263 C258 0.930 . S
N264 Cu253 1.985 . S
N264 C266 1.335 . S
N264 C267 1.390 . S
N265 C266 1.345 . S
N265 C268 1.336 . S
C266 N264 1.335 . S
C266 N265 1.345 . S
C266 H271 0.930 . S
C267 N264 1.390 . S
C267 C268 1.346 . S
C267 H272 0.930 . S
C268 N265 1.336 . S
C268 C267 1.346 . S
C268 H275 0.929 . S
C269 O259 1.282 . S
C269 O270 1.216 . S
O270 C269 1.216 . S
H271 C266 0.930 . S
H272 C267 0.930 . S
O273 Cu253 1.959 . S
O273 C260 1.251 . S
H274 C257 0.930 . S
H275 C268 0.929 . S
Cu276 N277 1.999 . S
Cu276 O282 1.974 . S
Cu276 N287 1.985 . S
Cu276 O296 1.959 . S
N277 Cu276 1.999 . S
N277 C279 1.263 . S
N277 C281 1.389 . S
N278 C279 1.358 . S
N278 C280 1.400 . S
C279 N277 1.263 . S
C279 N278 1.358 . S
C279 H285 0.930 . S
C280 N278 1.400 . S
C280 C281 1.351 . S
C280 H297 0.930 . S
C281 N277 1.389 . S
C281 C280 1.351 . S
C281 H286 0.930 . S
O282 Cu276 1.974 . S
O282 C292 1.282 . S
C283 O284 1.261 . S
C283 O296 1.251 . S
O284 C283 1.261 . S
H285 C279 0.930 . S
H286 C281 0.930 . S
N287 Cu276 1.985 . S
N287 C289 1.335 . S
N287 C290 1.390 . S
N288 C289 1.345 . S
N288 C291 1.336 . S
C289 N287 1.335 . S
C289 N288 1.345 . S
C289 H294 0.930 . S
C290 N287 1.390 . S
C290 C291 1.346 . S
C290 H295 0.930 . S
C291 N288 1.336 . S
C291 C290 1.346 . S
C291 H298 0.929 . S
C292 O282 1.282 . S
C292 O293 1.216 . S
O293 C292 1.216 . S
H294 C289 0.930 . S
H295 C290 0.930 . S
O296 Cu276 1.959 . S
O296 C283 1.251 . S
H297 C280 0.930 . S
H298 C291 0.929 . S
Cu299 N300 1.999 . S
Cu299 O305 1.974 . S
Cu299 N310 1.985 . S
Cu299 O319 1.959 . S
N300 Cu299 1.999 . S
N300 C302 1.263 . S
N300 C304 1.389 . S
N301 C302 1.358 . S
N301 C303 1.400 . S
C302 N300 1.263 . S
C302 N301 1.358 . S
C302 H308 0.930 . S
C303 N301 1.400 . S
C303 C304 1.351 . S
C303 H320 0.930 . S
C304 N300 1.389 . S
C304 C303 1.351 . S
C304 H309 0.930 . S
O305 Cu299 1.974 . S
O305 C315 1.282 . S
C306 O307 1.261 . S
C306 O319 1.251 . S
O307 C306 1.261 . S
H308 C302 0.930 . S
H309 C304 0.930 . S
N310 Cu299 1.985 . S
N310 C312 1.335 . S
N310 C313 1.390 . S
N311 C312 1.345 . S
N311 C314 1.336 . S
C312 N310 1.335 . S
C312 N311 1.345 . S
C312 H317 0.930 . S
C313 N310 1.390 . S
C313 C314 1.346 . S
C313 H318 0.930 . S
C314 N311 1.336 . S
C314 C313 1.346 . S
C314 H321 0.929 . S
C315 O305 1.282 . S
C315 O316 1.216 . S
O316 C315 1.216 . S
H317 C312 0.930 . S
H318 C313 0.930 . S
O319 Cu299 1.959 . S
O319 C306 1.251 . S
H320 C303 0.930 . S
H321 C314 0.929 . S
Cu322 N323 1.999 . S
Cu322 O328 1.974 . S
Cu322 N333 1.985 . S
Cu322 O342 1.959 . S
N323 Cu322 1.999 . S
N323 C325 1.263 . S
N323 C327 1.389 . S
N324 C325 1.358 . S
N324 C326 1.400 . S
C325 N323 1.263 . S
C325 N324 1.358 . S
C325 H331 0.930 . S
C326 N324 1.400 . S
C326 C327 1.351 . S
C326 H343 0.930 . S
C327 N323 1.389 . S
C327 C326 1.351 . S
C327 H332 0.930 . S
O328 Cu322 1.974 . S
O328 C338 1.282 . S
C329 O330 1.261 . S
C329 O342 1.251 . S
O330 C329 1.261 . S
H331 C325 0.930 . S
H332 C327 0.930 . S
N333 Cu322 1.985 . S
N333 C335 1.335 . S
N333 C336 1.390 . S
N334 C335 1.345 . S
N334 C337 1.336 . S
C335 N333 1.335 . S
C335 N334 1.345 . S
C335 H340 0.930 . S
C336 N333 1.390 . S
C336 C337 1.346 . S
C336 H341 0.930 . S
C337 N334 1.336 . S
C337 C336 1.346 . S
C337 H344 0.929 . S
C338 O328 1.282 . S
C338 O339 1.216 . S
O339 C338 1.216 . S
H340 C335 0.930 . S
H341 C336 0.930 . S
O342 Cu322 1.959 . S
O342 C329 1.251 . S
H343 C326 0.930 . S
H344 C337 0.929 . S
Cu345 N346 1.999 . S
Cu345 O351 1.974 . S
Cu345 N356 1.985 . S
Cu345 O365 1.959 . S
N346 Cu345 1.999 . S
N346 C348 1.263 . S
N346 C350 1.389 . S
N347 C348 1.358 . S
N347 C349 1.400 . S
C348 N346 1.263 . S
C348 N347 1.358 . S
C348 H354 0.930 . S
C349 N347 1.400 . S
C349 C350 1.351 . S
C349 H366 0.930 . S
C350 N346 1.389 . S
C350 C349 1.351 . S
C350 H355 0.930 . S
O351 Cu345 1.974 . S
O351 C361 1.282 . S
C352 O353 1.261 . S
C352 O365 1.251 . S
O353 C352 1.261 . S
H354 C348 0.930 . S
H355 C350 0.930 . S
N356 Cu345 1.985 . S
N356 C358 1.335 . S
N356 C359 1.390 . S
N357 C358 1.345 . S
N357 C360 1.336 . S
C358 N356 1.335 . S
C358 N357 1.345 . S
C358 H363 0.930 . S
C359 N356 1.390 . S
C359 C360 1.346 . S
C359 H364 0.930 . S
C360 N357 1.336 . S
C360 C359 1.346 . S
C360 H367 0.929 . S
C361 O351 1.282 . S
C361 O362 1.216 . S
O362 C361 1.216 . S
H363 C358 0.930 . S
H364 C359 0.930 . S
O365 Cu345 1.959 . S
O365 C352 1.251 . S
H366 C349 0.930 . S
H367 C360 0.929 . S
H368 C386 0.951 . S
H369 C388 0.951 . S
H370 C390 0.950 . S
H371 C391 0.950 . S
H372 C393 0.950 . S
H373 C396 0.950 . S
H374 C397 0.950 . S
H375 C399 0.950 . S
H376 C400 0.950 . S
H377 C401 0.951 . S
H378 C403 0.951 . S
H379 C405 0.950 . S
H380 C406 0.950 . S
H381 C408 0.950 . S
H382 C411 0.950 . S
H383 C412 0.950 . S
H384 C414 0.950 . S
H385 C415 0.950 . S
C386 H368 0.951 . S
C386 C387 1.366 . S
C386 C388 1.388 . S
C387 C386 1.366 . S
C387 C391 1.385 . S
C388 H369 0.951 . S
C388 C386 1.388 . S
C388 C389 1.366 . S
C389 C388 1.366 . S
C389 C390 1.414 . S
C389 C392 1.499 . S
C390 H370 0.950 . S
C390 C389 1.414 . S
C390 C391 1.374 . S
C391 H371 0.950 . S
C391 C387 1.385 . S
C391 C390 1.374 . S
C392 C389 1.499 . S
C392 C393 1.373 . S
C392 C394 1.389 . S
C393 H372 0.950 . S
C393 C392 1.373 . S
C393 C409 1.377 1_455 S
C394 C392 1.389 . S
C394 C395 1.524 . S
C394 C408 1.377 1_455 S
C395 C394 1.524 . S
C395 C396 1.397 . S
C395 C400 1.363 . S
C396 H373 0.950 . S
C396 C395 1.397 . S
C396 C397 1.334 . S
C397 H374 0.950 . S
C397 C396 1.334 . S
C397 C398 1.287 . S
C398 C397 1.287 . S
C398 C399 1.524 . S
C398 H417 0.913 . S
C399 H375 0.950 . S
C399 C398 1.524 . S
C399 C400 1.415 . S
C400 H376 0.950 . S
C400 C395 1.363 . S
C400 C399 1.415 . S
C401 H377 0.951 . S
C401 C402 1.366 . S
C401 C403 1.388 . S
C402 C401 1.366 . S
C402 C406 1.385 . S
C403 H378 0.951 . S
C403 C401 1.388 . S
C403 C404 1.366 . S
C404 C403 1.366 . S
C404 C405 1.414 . S
C404 C407 1.499 . S
C405 H379 0.950 . S
C405 C404 1.414 . S
C405 C406 1.374 . S
C406 H380 0.950 . S
C406 C402 1.385 . S
C406 C405 1.374 . S
C407 C404 1.499 . S
C407 C408 1.373 . S
C407 C409 1.389 . S
C408 H381 0.950 . S
C408 C394 1.377 1_655 S
C408 C407 1.373 . S
C409 C393 1.377 1_655 S
C409 C407 1.389 . S
C409 C410 1.524 . S
C410 C409 1.524 . S
C410 C411 1.397 . S
C410 C415 1.363 . S
C411 H382 0.950 . S
C411 C410 1.397 . S
C411 C412 1.334 . S
C412 H383 0.950 . S
C412 C411 1.334 . S
C412 C413 1.287 . S
C413 C412 1.287 . S
C413 C414 1.524 . S
C413 H416 0.999 . S
C414 H384 0.950 . S
C414 C413 1.524 . S
C414 C415 1.415 . S
C415 H385 0.950 . S
C415 C410 1.363 . S
C415 C414 1.415 . S
H416 C413 0.999 . S
H417 C398 0.913 . S
H418 C436 0.951 . S
H419 C438 0.951 . S
H420 C440 0.950 . S
H421 C441 0.950 . S
H422 C443 0.950 . S
H423 C446 0.950 . S
H424 C447 0.950 . S
H425 C449 0.950 . S
H426 C450 0.950 . S
H427 C451 0.951 . S
H428 C453 0.951 . S
H429 C455 0.950 . S
H430 C456 0.950 . S
H431 C458 0.950 . S
H432 C461 0.950 . S
H433 C462 0.950 . S
H434 C464 0.950 . S
H435 C465 0.950 . S
C436 H418 0.951 . S
C436 C437 1.366 . S
C436 C438 1.388 . S
C437 C436 1.366 . S
C437 C441 1.385 . S
C438 H419 0.951 . S
C438 C436 1.388 . S
C438 C439 1.366 . S
C439 C438 1.366 . S
C439 C440 1.414 . S
C439 C442 1.499 . S
C440 H420 0.950 . S
C440 C439 1.414 . S
C440 C441 1.374 . S
C441 H421 0.950 . S
C441 C437 1.385 . S
C441 C440 1.374 . S
C442 C439 1.499 . S
C442 C443 1.373 . S
C442 C444 1.389 . S
C443 H422 0.950 . S
C443 C442 1.373 . S
C443 C459 1.377 1_565 S
C444 C442 1.389 . S
C444 C445 1.524 . S
C444 C458 1.377 1_565 S
C445 C444 1.524 . S
C445 C446 1.397 . S
C445 C450 1.363 . S
C446 H423 0.950 . S
C446 C445 1.397 . S
C446 C447 1.334 . S
C447 H424 0.950 . S
C447 C446 1.334 . S
C447 C448 1.287 . S
C448 C447 1.287 . S
C448 C449 1.524 . S
C448 H467 0.913 . S
C449 H425 0.950 . S
C449 C448 1.524 . S
C449 C450 1.415 . S
C450 H426 0.950 . S
C450 C445 1.363 . S
C450 C449 1.415 . S
C451 H427 0.951 . S
C451 C452 1.366 . S
C451 C453 1.388 . S
C452 C451 1.366 . S
C452 C456 1.385 . S
C453 H428 0.951 . S
C453 C451 1.388 . S
C453 C454 1.366 . S
C454 C453 1.366 . S
C454 C455 1.414 . S
C454 C457 1.499 . S
C455 H429 0.950 . S
C455 C454 1.414 . S
C455 C456 1.374 . S
C456 H430 0.950 . S
C456 C452 1.385 . S
C456 C455 1.374 . S
C457 C454 1.499 . S
C457 C458 1.373 . S
C457 C459 1.389 . S
C458 H431 0.950 . S
C458 C444 1.377 1_545 S
C458 C457 1.373 . S
C459 C443 1.377 1_545 S
C459 C457 1.389 . S
C459 C460 1.524 . S
C460 C459 1.524 . S
C460 C461 1.397 . S
C460 C465 1.363 . S
C461 H432 0.950 . S
C461 C460 1.397 . S
C461 C462 1.334 . S
C462 H433 0.950 . S
C462 C461 1.334 . S
C462 C463 1.287 . S
C463 C462 1.287 . S
C463 C464 1.524 . S
C463 H466 0.999 . S
C464 H434 0.950 . S
C464 C463 1.524 . S
C464 C465 1.415 . S
C465 H435 0.950 . S
C465 C460 1.363 . S
C465 C464 1.415 . S
H466 C463 0.999 . S
H467 C448 0.913 . S
H468 C486 0.951 . S
H469 C488 0.951 . S
H470 C490 0.950 . S
H471 C491 0.950 . S
H472 C493 0.950 . S
H473 C496 0.950 . S
H474 C497 0.950 . S
H475 C499 0.955 . S
H476 C500 0.950 . S
H477 C501 0.951 . S
H478 C503 0.951 . S
H479 C505 0.950 . S
H480 C506 0.950 . S
H481 C508 0.950 . S
H482 C511 0.950 . S
H483 C512 0.950 . S
H484 C514 0.955 . S
H485 C515 0.950 . S
C486 H468 0.951 . S
C486 C487 1.366 . S
C486 C488 1.388 . S
C487 C486 1.366 . S
C487 C491 1.385 . S
C488 H469 0.951 . S
C488 C486 1.388 . S
C488 C489 1.366 . S
C489 C488 1.366 . S
C489 C490 1.414 . S
C489 C492 1.499 . S
C490 H470 0.950 . S
C490 C489 1.414 . S
C490 C491 1.374 . S
C491 H471 0.950 . S
C491 C487 1.385 . S
C491 C490 1.374 . S
C492 C489 1.499 . S
C492 C493 1.373 . S
C492 C494 1.389 . S
C493 H472 0.950 . S
C493 C492 1.373 . S
C493 C509 1.377 1_455 S
C494 C492 1.389 . S
C494 C495 1.524 . S
C494 C508 1.377 1_455 S
C495 C494 1.524 . S
C495 C496 1.397 . S
C495 C500 1.363 1_455 S
C496 H473 0.950 . S
C496 C495 1.397 . S
C496 C497 1.334 . S
C497 H474 0.950 . S
C497 C496 1.334 . S
C497 C498 1.287 . S
C498 C497 1.287 . S
C498 C499 1.516 1_455 S
C498 H517 0.913 . S
C499 H475 0.955 . S
C499 C498 1.516 1_655 S
C499 C500 1.417 . S
C500 H476 0.950 . S
C500 C495 1.363 1_655 S
C500 C499 1.417 . S
C501 H477 0.951 . S
C501 C502 1.366 . S
C501 C503 1.388 . S
C502 C501 1.366 . S
C502 C506 1.385 . S
C503 H478 0.951 . S
C503 C501 1.388 . S
C503 C504 1.366 . S
C504 C503 1.366 . S
C504 C505 1.414 . S
C504 C507 1.499 . S
C505 H479 0.950 . S
C505 C504 1.414 . S
C505 C506 1.374 . S
C506 H480 0.950 . S
C506 C502 1.385 . S
C506 C505 1.374 . S
C507 C504 1.499 . S
C507 C508 1.373 . S
C507 C509 1.389 . S
C508 H481 0.950 . S
C508 C494 1.377 1_655 S
C508 C507 1.373 . S
C509 C493 1.377 1_655 S
C509 C507 1.389 . S
C509 C510 1.524 . S
C510 C509 1.524 . S
C510 C511 1.397 . S
C510 C515 1.363 1_655 S
C511 H482 0.950 . S
C511 C510 1.397 . S
C511 C512 1.334 . S
C512 H483 0.950 . S
C512 C511 1.334 . S
C512 C513 1.287 . S
C513 C512 1.287 . S
C513 C514 1.516 1_655 S
C513 H516 0.999 . S
C514 H484 0.955 . S
C514 C513 1.516 1_455 S
C514 C515 1.416 . S
C515 H485 0.950 . S
C515 C510 1.363 1_455 S
C515 C514 1.416 . S
H516 C513 0.999 . S
H517 C498 0.913 . S
H518 C536 0.951 . S
H519 C538 0.951 . S
H520 C540 0.950 . S
H521 C541 0.950 . S
H522 C543 0.950 . S
H523 C546 0.950 . S
H524 C547 0.950 . S
H525 C549 0.950 . S
H526 C550 0.950 . S
H527 C551 0.951 . S
H528 C553 0.951 . S
H529 C555 0.950 . S
H530 C556 0.950 . S
H531 C558 0.950 . S
H532 C561 0.950 . S
H533 C562 0.950 . S
H534 C564 0.950 . S
H535 C565 0.950 . S
C536 H518 0.951 . S
C536 C537 1.366 . S
C536 C538 1.388 . S
C537 C536 1.366 . S
C537 C541 1.385 . S
C538 H519 0.951 . S
C538 C536 1.388 . S
C538 C539 1.366 . S
C539 C538 1.366 . S
C539 C540 1.414 . S
C539 C542 1.499 . S
C540 H520 0.950 . S
C540 C539 1.414 . S
C540 C541 1.374 . S
C541 H521 0.950 . S
C541 C537 1.385 . S
C541 C540 1.374 . S
C542 C539 1.499 . S
C542 C543 1.373 . S
C542 C544 1.389 . S
C543 H522 0.950 . S
C543 C542 1.373 . S
C543 C559 1.377 1_565 S
C544 C542 1.389 . S
C544 C545 1.524 . S
C544 C558 1.377 1_565 S
C545 C544 1.524 . S
C545 C546 1.397 . S
C545 C550 1.363 . S
C546 H523 0.950 . S
C546 C545 1.397 . S
C546 C547 1.334 . S
C547 H524 0.950 . S
C547 C546 1.334 . S
C547 C548 1.287 . S
C548 C547 1.287 . S
C548 C549 1.524 . S
C548 H567 0.913 . S
C549 H525 0.950 . S
C549 C548 1.524 . S
C549 C550 1.415 . S
C550 H526 0.950 . S
C550 C545 1.363 . S
C550 C549 1.415 . S
C551 H527 0.951 . S
C551 C552 1.366 . S
C551 C553 1.388 . S
C552 C551 1.366 . S
C552 C556 1.385 . S
C553 H528 0.951 . S
C553 C551 1.388 . S
C553 C554 1.366 . S
C554 C553 1.366 . S
C554 C555 1.414 . S
C554 C557 1.499 . S
C555 H529 0.950 . S
C555 C554 1.414 . S
C555 C556 1.374 . S
C556 H530 0.950 . S
C556 C552 1.385 . S
C556 C555 1.374 . S
C557 C554 1.499 . S
C557 C558 1.373 . S
C557 C559 1.389 . S
C558 H531 0.950 . S
C558 C544 1.377 1_545 S
C558 C557 1.373 . S
C559 C543 1.377 1_545 S
C559 C557 1.389 . S
C559 C560 1.524 . S
C560 C559 1.524 . S
C560 C561 1.397 . S
C560 C565 1.363 . S
C561 H532 0.950 . S
C561 C560 1.397 . S
C561 C562 1.334 . S
C562 H533 0.950 . S
C562 C561 1.334 . S
C562 C563 1.287 . S
C563 C562 1.287 . S
C563 C564 1.524 . S
C563 H566 0.999 . S
C564 H534 0.950 . S
C564 C563 1.524 . S
C564 C565 1.415 . S
C565 H535 0.950 . S
C565 C560 1.363 . S
C565 C564 1.415 . S
H566 C563 0.999 . S
H567 C548 0.913 . S
H568 C586 0.951 . S
H569 C588 0.951 . S
H570 C590 0.950 . S
H571 C591 0.950 . S
H572 C593 0.950 . S
H573 C596 0.950 . S
H574 C597 0.950 . S
H575 C599 0.950 . S
H576 C600 0.950 1_455 S
H577 C601 0.951 . S
H578 C603 0.951 . S
H579 C605 0.950 . S
H580 C606 0.950 . S
H581 C608 0.950 . S
H582 C611 0.950 . S
H583 C612 0.950 . S
H584 C614 0.950 . S
H585 C615 0.950 1_655 S
C586 H568 0.951 . S
C586 C587 1.366 . S
C586 C588 1.388 . S
C587 C586 1.366 . S
C587 C591 1.385 . S
C588 H569 0.951 . S
C588 C586 1.388 . S
C588 C589 1.366 . S
C589 C588 1.366 . S
C589 C590 1.414 . S
C589 C592 1.499 . S
C590 H570 0.950 . S
C590 C589 1.414 . S
C590 C591 1.374 . S
C591 H571 0.950 . S
C591 C587 1.385 . S
C591 C590 1.374 . S
C592 C589 1.499 . S
C592 C593 1.373 . S
C592 C594 1.389 . S
C593 H572 0.950 . S
C593 C592 1.373 . S
C593 C609 1.377 1_655 S
C594 C592 1.389 . S
C594 C595 1.524 . S
C594 C608 1.377 1_655 S
C595 C594 1.524 . S
C595 C596 1.397 . S
C595 C600 1.363 . S
C596 H573 0.950 . S
C596 C595 1.397 . S
C596 C597 1.334 . S
C597 H574 0.950 . S
C597 C596 1.334 . S
C597 C598 1.287 . S
C598 C597 1.287 . S
C598 C599 1.524 . S
C598 H617 0.913 . S
C599 H575 0.950 . S
C599 C598 1.524 . S
C599 C600 1.415 . S
C600 H576 0.950 1_655 S
C600 C595 1.363 . S
C600 C599 1.415 . S
C601 H577 0.951 . S
C601 C602 1.366 . S
C601 C603 1.388 . S
C602 C601 1.366 . S
C602 C606 1.385 . S
C603 H578 0.951 . S
C603 C601 1.388 . S
C603 C604 1.366 . S
C604 C603 1.366 . S
C604 C605 1.414 . S
C604 C607 1.499 . S
C605 H579 0.950 . S
C605 C604 1.414 . S
C605 C606 1.374 . S
C606 H580 0.950 . S
C606 C602 1.385 . S
C606 C605 1.374 . S
C607 C604 1.499 . S
C607 C608 1.373 . S
C607 C609 1.389 . S
C608 H581 0.950 . S
C608 C594 1.377 1_455 S
C608 C607 1.373 . S
C609 C593 1.377 1_455 S
C609 C607 1.389 . S
C609 C610 1.524 . S
C610 C609 1.524 . S
C610 C611 1.397 . S
C610 C615 1.363 . S
C611 H582 0.950 . S
C611 C610 1.397 . S
C611 C612 1.334 . S
C612 H583 0.950 . S
C612 C611 1.334 . S
C612 C613 1.287 . S
C613 C612 1.287 . S
C613 C614 1.524 . S
C613 H616 0.999 . S
C614 H584 0.950 . S
C614 C613 1.524 . S
C614 C615 1.415 . S
C615 H585 0.950 1_455 S
C615 C610 1.363 . S
C615 C614 1.415 . S
H616 C613 0.999 . S
H617 C598 0.913 . S
H618 C636 0.951 . S
H619 C638 0.951 . S
H620 C640 0.950 . S
H621 C641 0.950 . S
H622 C643 0.950 . S
H623 C646 0.950 . S
H624 C647 0.950 . S
H625 C649 0.950 . S
H626 C650 0.950 . S
H627 C651 0.951 . S
H628 C653 0.951 . S
H629 C655 0.950 . S
H630 C656 0.950 . S
H631 C658 0.950 . S
H632 C661 0.950 . S
H633 C662 0.950 . S
H634 C664 0.950 . S
H635 C665 0.950 . S
C636 H618 0.951 . S
C636 C637 1.366 . S
C636 C638 1.388 . S
C637 C636 1.366 . S
C637 C641 1.385 . S
C638 H619 0.951 . S
C638 C636 1.388 . S
C638 C639 1.366 . S
C639 C638 1.366 . S
C639 C640 1.414 . S
C639 C642 1.499 . S
C640 H620 0.950 . S
C640 C639 1.414 . S
C640 C641 1.374 . S
C641 H621 0.950 . S
C641 C637 1.385 . S
C641 C640 1.374 . S
C642 C639 1.499 . S
C642 C643 1.373 . S
C642 C644 1.389 . S
C643 H622 0.950 . S
C643 C642 1.373 . S
C643 C659 1.377 1_545 S
C644 C642 1.389 . S
C644 C645 1.524 . S
C644 C658 1.377 1_545 S
C645 C644 1.524 . S
C645 C646 1.397 . S
C645 C650 1.363 1_545 S
C646 H623 0.950 . S
C646 C645 1.397 . S
C646 C647 1.334 . S
C647 H624 0.950 . S
C647 C646 1.334 . S
C647 C648 1.287 . S
C648 C647 1.287 . S
C648 C649 1.524 1_545 S
C648 H667 0.913 . S
C649 H625 0.950 . S
C649 C648 1.524 1_565 S
C649 C650 1.415 . S
C650 H626 0.950 . S
C650 C645 1.363 1_565 S
C650 C649 1.415 . S
C651 H627 0.951 . S
C651 C652 1.366 . S
C651 C653 1.388 . S
C652 C651 1.366 . S
C652 C656 1.385 . S
C653 H628 0.951 . S
C653 C651 1.388 . S
C653 C654 1.366 . S
C654 C653 1.366 . S
C654 C655 1.414 . S
C654 C657 1.499 . S
C655 H629 0.950 . S
C655 C654 1.414 . S
C655 C656 1.374 . S
C656 H630 0.950 . S
C656 C652 1.385 . S
C656 C655 1.374 . S
C657 C654 1.499 . S
C657 C658 1.373 . S
C657 C659 1.389 . S
C658 H631 0.950 . S
C658 C644 1.377 1_565 S
C658 C657 1.373 . S
C659 C643 1.377 1_565 S
C659 C657 1.389 . S
C659 C660 1.524 . S
C660 C659 1.524 . S
C660 C661 1.397 . S
C660 C665 1.363 1_565 S
C661 H632 0.950 . S
C661 C660 1.397 . S
C661 C662 1.334 . S
C662 H633 0.950 . S
C662 C661 1.334 . S
C662 C663 1.287 . S
C663 C662 1.287 . S
C663 C664 1.524 1_565 S
C663 H666 0.999 . S
C664 H634 0.950 . S
C664 C663 1.524 1_545 S
C664 C665 1.415 . S
C665 H635 0.950 . S
C665 C660 1.363 1_545 S
C665 C664 1.415 . S
H666 C663 0.999 . S
H667 C648 0.913 . S
H668 C686 0.951 . S
H669 C688 0.951 . S
H670 C690 0.950 . S
H671 C691 0.950 . S
H672 C693 0.950 . S
H673 C696 0.950 . S
H674 C697 0.950 . S
H675 C699 0.950 . S
H676 C700 0.950 . S
H677 C701 0.951 . S
H678 C703 0.951 . S
H679 C705 0.950 . S
H680 C706 0.950 . S
H681 C708 0.950 . S
H682 C711 0.950 . S
H683 C712 0.950 . S
H684 C714 0.950 . S
H685 C715 0.950 . S
C686 H668 0.951 . S
C686 C687 1.366 . S
C686 C688 1.388 . S
C687 C686 1.366 . S
C687 C691 1.385 . S
C688 H669 0.951 . S
C688 C686 1.388 . S
C688 C689 1.366 . S
C689 C688 1.366 . S
C689 C690 1.414 . S
C689 C692 1.499 . S
C690 H670 0.950 . S
C690 C689 1.414 . S
C690 C691 1.374 . S
C691 H671 0.950 . S
C691 C687 1.385 . S
C691 C690 1.374 . S
C692 C689 1.499 . S
C692 C693 1.373 . S
C692 C694 1.389 . S
C693 H672 0.950 . S
C693 C692 1.373 . S
C693 C709 1.377 1_655 S
C694 C692 1.389 . S
C694 C695 1.524 . S
C694 C708 1.377 1_655 S
C695 C694 1.524 . S
C695 C696 1.397 . S
C695 C700 1.363 . S
C696 H673 0.950 . S
C696 C695 1.397 . S
C696 C697 1.334 . S
C697 H674 0.950 . S
C697 C696 1.334 . S
C697 C698 1.287 . S
C698 C697 1.287 . S
C698 C699 1.524 . S
C698 H717 0.913 . S
C699 H675 0.950 . S
C699 C698 1.524 . S
C699 C700 1.415 . S
C700 H676 0.950 . S
C700 C695 1.363 . S
C700 C699 1.415 . S
C701 H677 0.951 . S
C701 C702 1.366 . S
C701 C703 1.388 . S
C702 C701 1.366 . S
C702 C706 1.385 . S
C703 H678 0.951 . S
C703 C701 1.388 . S
C703 C704 1.366 . S
C704 C703 1.366 . S
C704 C705 1.414 . S
C704 C707 1.499 . S
C705 H679 0.950 . S
C705 C704 1.414 . S
C705 C706 1.374 . S
C706 H680 0.950 . S
C706 C702 1.385 . S
C706 C705 1.374 . S
C707 C704 1.499 . S
C707 C708 1.373 . S
C707 C709 1.389 . S
C708 H681 0.950 . S
C708 C694 1.377 1_455 S
C708 C707 1.373 . S
C709 C693 1.377 1_455 S
C709 C707 1.389 . S
C709 C710 1.524 . S
C710 C709 1.524 . S
C710 C711 1.397 . S
C710 C715 1.363 . S
C711 H682 0.950 . S
C711 C710 1.397 . S
C711 C712 1.334 . S
C712 H683 0.950 . S
C712 C711 1.334 . S
C712 C713 1.287 . S
C713 C712 1.287 . S
C713 C714 1.524 . S
C713 H716 0.999 . S
C714 H684 0.950 . S
C714 C713 1.524 . S
C714 C715 1.415 . S
C715 H685 0.950 . S
C715 C710 1.363 . S
C715 C714 1.415 . S
H716 C713 0.999 . S
H717 C698 0.913 . S
H718 C736 0.951 . S
H719 C738 0.951 . S
H720 C740 0.950 . S
H721 C741 0.950 . S
H722 C743 0.950 . S
H723 C746 0.950 . S
H724 C747 0.950 . S
H725 C749 0.950 . S
H726 C750 0.950 1_565 S
H727 C751 0.951 . S
H728 C753 0.951 . S
H729 C755 0.950 . S
H730 C756 0.950 . S
H731 C758 0.950 . S
H732 C761 0.950 . S
H733 C762 0.950 . S
H734 C764 0.950 . S
H735 C765 0.950 1_545 S
C736 H718 0.951 . S
C736 C737 1.366 . S
C736 C738 1.388 . S
C737 C736 1.366 . S
C737 C741 1.385 . S
C738 H719 0.951 . S
C738 C736 1.388 . S
C738 C739 1.366 . S
C739 C738 1.366 . S
C739 C740 1.414 . S
C739 C742 1.499 . S
C740 H720 0.950 . S
C740 C739 1.414 . S
C740 C741 1.374 . S
C741 H721 0.950 . S
C741 C737 1.385 . S
C741 C740 1.374 . S
C742 C739 1.499 . S
C742 C743 1.373 . S
C742 C744 1.389 . S
C743 H722 0.950 . S
C743 C742 1.373 . S
C743 C759 1.377 1_545 S
C744 C742 1.389 . S
C744 C745 1.524 . S
C744 C758 1.377 1_545 S
C745 C744 1.524 . S
C745 C746 1.397 . S
C745 C750 1.363 . S
C746 H723 0.950 . S
C746 C745 1.397 . S
C746 C747 1.334 . S
C747 H724 0.950 . S
C747 C746 1.334 . S
C747 C748 1.287 . S
C748 C747 1.287 . S
C748 C749 1.524 . S
C748 H767 0.913 . S
C749 H725 0.950 . S
C749 C748 1.524 . S
C749 C750 1.415 . S
C750 H726 0.950 1_545 S
C750 C745 1.363 . S
C750 C749 1.415 . S
C751 H727 0.951 . S
C751 C752 1.366 . S
C751 C753 1.388 . S
C752 C751 1.366 . S
C752 C756 1.385 . S
C753 H728 0.951 . S
C753 C751 1.388 . S
C753 C754 1.366 . S
C754 C753 1.366 . S
C754 C755 1.414 . S
C754 C757 1.499 . S
C755 H729 0.950 . S
C755 C754 1.414 . S
C755 C756 1.374 . S
C756 H730 0.950 . S
C756 C752 1.385 . S
C756 C755 1.374 . S
C757 C754 1.499 . S
C757 C758 1.373 . S
C757 C759 1.389 . S
C758 H731 0.950 . S
C758 C744 1.377 1_565 S
C758 C757 1.373 . S
C759 C743 1.377 1_565 S
C759 C757 1.389 . S
C759 C760 1.524 . S
C760 C759 1.524 . S
C760 C761 1.397 . S
C760 C765 1.363 . S
C761 H732 0.950 . S
C761 C760 1.397 . S
C761 C762 1.334 . S
C762 H733 0.950 . S
C762 C761 1.334 . S
C762 C763 1.287 . S
C763 C762 1.287 . S
C763 C764 1.524 . S
C763 H766 0.999 . S
C764 H734 0.950 . S
C764 C763 1.524 . S
C764 C765 1.415 . S
C765 H735 0.950 1_565 S
C765 C760 1.363 . S
C765 C764 1.415 . S
H766 C763 0.999 . S
H767 C748 0.913 . S
H768 C786 0.951 . S
H769 C788 0.951 . S
H770 C790 0.950 . S
H771 C791 0.950 . S
H772 C793 0.950 . S
H773 C796 0.950 . S
H774 C797 0.950 . S
H775 C799 0.950 . S
H776 C800 0.950 . S
H777 C801 0.951 . S
H778 C803 0.951 . S
H779 C805 0.950 . S
H780 C806 0.950 . S
H781 C808 0.950 . S
H782 C811 0.950 . S
H783 C812 0.950 . S
H784 C814 0.950 . S
H785 C815 0.950 . S
C786 H768 0.951 . S
C786 C787 1.366 . S
C786 C788 1.388 . S
C787 C786 1.366 . S
C787 C791 1.385 . S
C788 H769 0.951 . S
C788 C786 1.388 . S
C788 C789 1.366 . S
C789 C788 1.366 . S
C789 C790 1.414 . S
C789 C792 1.499 . S
C790 H770 0.950 . S
C790 C789 1.414 . S
C790 C791 1.374 . S
C791 H771 0.950 . S
C791 C787 1.385 . S
C791 C790 1.374 . S
C792 C789 1.499 . S
C792 C793 1.373 . S
C792 C794 1.389 . S
C793 H772 0.950 . S
C793 C792 1.373 . S
C793 C809 1.377 . S
C794 C792 1.389 . S
C794 C795 1.524 . S
C794 C808 1.377 . S
C795 C794 1.524 . S
C795 C796 1.397 . S
C795 C800 1.363 . S
C796 H773 0.950 . S
C796 C795 1.397 . S
C796 C797 1.334 . S
C797 H774 0.950 . S
C797 C796 1.334 . S
C797 C798 1.287 . S
C798 C797 1.287 . S
C798 C799 1.524 . S
C798 H817 0.913 . S
C799 H775 0.950 . S
C799 C798 1.524 . S
C799 C800 1.415 . S
C800 H776 0.950 . S
C800 C795 1.363 . S
C800 C799 1.415 . S
C801 H777 0.951 . S
C801 C802 1.366 . S
C801 C803 1.388 . S
C802 C801 1.366 . S
C802 C806 1.385 . S
C803 H778 0.951 . S
C803 C801 1.388 . S
C803 C804 1.366 . S
C804 C803 1.366 . S
C804 C805 1.414 . S
C804 C807 1.499 . S
C805 H779 0.950 . S
C805 C804 1.414 . S
C805 C806 1.374 . S
C806 H780 0.950 . S
C806 C802 1.385 . S
C806 C805 1.374 . S
C807 C804 1.499 . S
C807 C808 1.373 . S
C807 C809 1.389 . S
C808 H781 0.950 . S
C808 C794 1.377 . S
C808 C807 1.373 . S
C809 C793 1.377 . S
C809 C807 1.389 . S
C809 C810 1.524 . S
C810 C809 1.524 . S
C810 C811 1.397 . S
C810 C815 1.363 . S
C811 H782 0.950 . S
C811 C810 1.397 . S
C811 C812 1.334 . S
C812 H783 0.950 . S
C812 C811 1.334 . S
C812 C813 1.287 . S
C813 C812 1.287 . S
C813 C814 1.524 . S
C813 H816 0.999 . S
C814 H784 0.950 . S
C814 C813 1.524 . S
C814 C815 1.415 . S
C815 H785 0.950 . S
C815 C810 1.363 . S
C815 C814 1.415 . S
H816 C813 0.999 . S
H817 C798 0.913 . S
H818 C836 0.951 . S
H819 C838 0.951 . S
H820 C840 0.950 . S
H821 C841 0.950 . S
H822 C843 0.950 . S
H823 C846 0.950 . S
H824 C847 0.950 . S
H825 C849 0.950 . S
H826 C850 0.950 . S
H827 C851 0.951 . S
H828 C853 0.951 . S
H829 C855 0.950 . S
H830 C856 0.950 . S
H831 C858 0.950 . S
H832 C861 0.950 . S
H833 C862 0.950 . S
H834 C864 0.950 . S
H835 C865 0.950 . S
C836 H818 0.951 . S
C836 C837 1.366 . S
C836 C838 1.388 . S
C837 C836 1.366 . S
C837 C841 1.385 . S
C838 H819 0.951 . S
C838 C836 1.388 . S
C838 C839 1.366 . S
C839 C838 1.366 . S
C839 C840 1.414 . S
C839 C842 1.499 . S
C840 H820 0.950 . S
C840 C839 1.414 . S
C840 C841 1.374 . S
C841 H821 0.950 . S
C841 C837 1.385 . S
C841 C840 1.374 . S
C842 C839 1.499 . S
C842 C843 1.373 . S
C842 C844 1.389 . S
C843 H822 0.950 . S
C843 C842 1.373 . S
C843 C859 1.377 . S
C844 C842 1.389 . S
C844 C845 1.524 . S
C844 C858 1.377 . S
C845 C844 1.524 . S
C845 C846 1.397 . S
C845 C850 1.363 . S
C846 H823 0.950 . S
C846 C845 1.397 . S
C846 C847 1.334 . S
C847 H824 0.950 . S
C847 C846 1.334 . S
C847 C848 1.287 . S
C848 C847 1.287 . S
C848 C849 1.524 . S
C848 H867 0.913 . S
C849 H825 0.950 . S
C849 C848 1.524 . S
C849 C850 1.415 . S
C850 H826 0.950 . S
C850 C845 1.363 . S
C850 C849 1.415 . S
C851 H827 0.951 . S
C851 C852 1.366 . S
C851 C853 1.388 . S
C852 C851 1.366 . S
C852 C856 1.385 . S
C853 H828 0.951 . S
C853 C851 1.388 . S
C853 C854 1.366 . S
C854 C853 1.366 . S
C854 C855 1.414 . S
C854 C857 1.499 . S
C855 H829 0.950 . S
C855 C854 1.414 . S
C855 C856 1.374 . S
C856 H830 0.950 . S
C856 C852 1.385 . S
C856 C855 1.374 . S
C857 C854 1.499 . S
C857 C858 1.373 . S
C857 C859 1.389 . S
C858 H831 0.950 . S
C858 C844 1.377 . S
C858 C857 1.373 . S
C859 C843 1.377 . S
C859 C857 1.389 . S
C859 C860 1.524 . S
C860 C859 1.524 . S
C860 C861 1.397 . S
C860 C865 1.363 . S
C861 H832 0.950 . S
C861 C860 1.397 . S
C861 C862 1.334 . S
C862 H833 0.950 . S
C862 C861 1.334 . S
C862 C863 1.287 . S
C863 C862 1.287 . S
C863 C864 1.524 . S
C863 H866 0.999 . S
C864 H834 0.950 . S
C864 C863 1.524 . S
C864 C865 1.415 . S
C865 H835 0.950 . S
C865 C860 1.363 . S
C865 C864 1.415 . S
H866 C863 0.999 . S
H867 C848 0.913 . S
H868 C886 0.951 . S
H869 C888 0.951 . S
H870 C890 0.950 . S
H871 C891 0.950 . S
H872 C893 0.950 . S
H873 C896 0.950 . S
H874 C897 0.950 . S
H875 C899 0.950 . S
H876 C900 0.950 . S
H877 C901 0.951 . S
H878 C903 0.951 . S
H879 C905 0.950 . S
H880 C906 0.950 . S
H881 C908 0.950 . S
H882 C911 0.950 . S
H883 C912 0.950 . S
H884 C914 0.950 . S
H885 C915 0.950 . S
C886 H868 0.951 . S
C886 C887 1.366 . S
C886 C888 1.388 . S
C887 C886 1.366 . S
C887 C891 1.385 . S
C888 H869 0.951 . S
C888 C886 1.388 . S
C888 C889 1.366 . S
C889 C888 1.366 . S
C889 C890 1.414 . S
C889 C892 1.499 . S
C890 H870 0.950 . S
C890 C889 1.414 . S
C890 C891 1.374 . S
C891 H871 0.950 . S
C891 C887 1.385 . S
C891 C890 1.374 . S
C892 C889 1.499 . S
C892 C893 1.373 . S
C892 C894 1.389 . S
C893 H872 0.950 . S
C893 C892 1.373 . S
C893 C909 1.377 . S
C894 C892 1.389 . S
C894 C895 1.524 . S
C894 C908 1.377 . S
C895 C894 1.524 . S
C895 C896 1.397 . S
C895 C900 1.363 . S
C896 H873 0.950 . S
C896 C895 1.397 . S
C896 C897 1.334 . S
C897 H874 0.950 . S
C897 C896 1.334 . S
C897 C898 1.287 . S
C898 C897 1.287 . S
C898 C899 1.524 . S
C898 H917 0.913 . S
C899 H875 0.950 . S
C899 C898 1.524 . S
C899 C900 1.415 . S
C900 H876 0.950 . S
C900 C895 1.363 . S
C900 C899 1.415 . S
C901 H877 0.951 . S
C901 C902 1.366 . S
C901 C903 1.388 . S
C902 C901 1.366 . S
C902 C906 1.385 . S
C903 H878 0.951 . S
C903 C901 1.388 . S
C903 C904 1.366 . S
C904 C903 1.366 . S
C904 C905 1.414 . S
C904 C907 1.499 . S
C905 H879 0.950 . S
C905 C904 1.414 . S
C905 C906 1.374 . S
C906 H880 0.950 . S
C906 C902 1.385 . S
C906 C905 1.374 . S
C907 C904 1.499 . S
C907 C908 1.373 . S
C907 C909 1.389 . S
C908 H881 0.950 . S
C908 C894 1.377 . S
C908 C907 1.373 . S
C909 C893 1.377 . S
C909 C907 1.389 . S
C909 C910 1.524 . S
C910 C909 1.524 . S
C910 C911 1.397 . S
C910 C915 1.363 . S
C911 H882 0.950 . S
C911 C910 1.397 . S
C911 C912 1.334 . S
C912 H883 0.950 . S
C912 C911 1.334 . S
C912 C913 1.287 . S
C913 C912 1.287 . S
C913 C914 1.524 . S
C913 H916 0.999 . S
C914 H884 0.950 . S
C914 C913 1.524 . S
C914 C915 1.415 . S
C915 H885 0.950 . S
C915 C910 1.363 . S
C915 C914 1.415 . S
H916 C913 0.999 . S
H917 C898 0.913 . S
H918 C936 0.951 . S
H919 C938 0.951 . S
H920 C940 0.950 . S
H921 C941 0.950 . S
H922 C943 0.950 . S
H923 C946 0.950 . S
H924 C947 0.950 . S
H925 C949 0.950 . S
H926 C950 0.950 . S
H927 C951 0.951 . S
H928 C953 0.951 . S
H929 C955 0.950 . S
H930 C956 0.950 . S
H931 C958 0.950 . S
H932 C961 0.950 . S
H933 C962 0.950 . S
H934 C964 0.950 . S
H935 C965 0.950 . S
C936 H918 0.951 . S
C936 C937 1.366 . S
C936 C938 1.388 . S
C937 C936 1.366 . S
C937 C941 1.385 . S
C938 H919 0.951 . S
C938 C936 1.388 . S
C938 C939 1.366 . S
C939 C938 1.366 . S
C939 C940 1.414 . S
C939 C942 1.499 . S
C940 H920 0.950 . S
C940 C939 1.414 . S
C940 C941 1.374 . S
C941 H921 0.950 . S
C941 C937 1.385 . S
C941 C940 1.374 . S
C942 C939 1.499 . S
C942 C943 1.373 . S
C942 C944 1.389 . S
C943 H922 0.950 . S
C943 C942 1.373 . S
C943 C959 1.377 . S
C944 C942 1.389 . S
C944 C945 1.524 . S
C944 C958 1.377 . S
C945 C944 1.524 . S
C945 C946 1.397 . S
C945 C950 1.363 . S
C946 H923 0.950 . S
C946 C945 1.397 . S
C946 C947 1.334 . S
C947 H924 0.950 . S
C947 C946 1.334 . S
C947 C948 1.287 . S
C948 C947 1.287 . S
C948 C949 1.524 . S
C948 H967 0.913 . S
C949 H925 0.950 . S
C949 C948 1.524 . S
C949 C950 1.415 . S
C950 H926 0.950 . S
C950 C945 1.363 . S
C950 C949 1.415 . S
C951 H927 0.951 . S
C951 C952 1.366 . S
C951 C953 1.388 . S
C952 C951 1.366 . S
C952 C956 1.385 . S
C953 H928 0.951 . S
C953 C951 1.388 . S
C953 C954 1.366 . S
C954 C953 1.366 . S
C954 C955 1.414 . S
C954 C957 1.499 . S
C955 H929 0.950 . S
C955 C954 1.414 . S
C955 C956 1.374 . S
C956 H930 0.950 . S
C956 C952 1.385 . S
C956 C955 1.374 . S
C957 C954 1.499 . S
C957 C958 1.373 . S
C957 C959 1.389 . S
C958 H931 0.950 . S
C958 C944 1.377 . S
C958 C957 1.373 . S
C959 C943 1.377 . S
C959 C957 1.389 . S
C959 C960 1.524 . S
C960 C959 1.524 . S
C960 C961 1.397 . S
C960 C965 1.363 . S
C961 H932 0.950 . S
C961 C960 1.397 . S
C961 C962 1.334 . S
C962 H933 0.950 . S
C962 C961 1.334 . S
C962 C963 1.287 . S
C963 C962 1.287 . S
C963 C964 1.524 . S
C963 H966 0.999 . S
C964 H934 0.950 . S
C964 C963 1.524 . S
C964 C965 1.415 . S
C965 H935 0.950 . S
C965 C960 1.363 . S
C965 C964 1.415 . S
H966 C963 0.999 . S
H967 C948 0.913 . S
H968 C986 0.951 . S
H969 C988 0.951 . S
H970 C990 0.950 . S
H971 C991 0.950 . S
H972 C993 0.950 . S
H973 C996 0.950 . S
H974 C997 0.950 . S
H975 C999 0.950 . S
H976 C1000 0.950 . S
H977 C1001 0.951 . S
H978 C1003 0.951 . S
H979 C1005 0.950 . S
H980 C1006 0.950 . S
H981 C1008 0.950 . S
H982 C1011 0.950 . S
H983 C1012 0.950 . S
H984 C1014 0.950 . S
H985 C1015 0.950 . S
C986 H968 0.951 . S
C986 C987 1.366 . S
C986 C988 1.388 . S
C987 C986 1.366 . S
C987 C991 1.385 . S
C988 H969 0.951 . S
C988 C986 1.388 . S
C988 C989 1.366 . S
C989 C988 1.366 . S
C989 C990 1.414 . S
C989 C992 1.499 . S
C990 H970 0.950 . S
C990 C989 1.414 . S
C990 C991 1.374 . S
C991 H971 0.950 . S
C991 C987 1.385 . S
C991 C990 1.374 . S
C992 C989 1.499 . S
C992 C993 1.373 . S
C992 C994 1.389 . S
C993 H972 0.950 . S
C993 C992 1.373 . S
C993 C1009 1.377 . S
C994 C992 1.389 . S
C994 C995 1.524 . S
C994 C1008 1.377 . S
C995 C994 1.524 . S
C995 C996 1.397 . S
C995 C1000 1.363 . S
C996 H973 0.950 . S
C996 C995 1.397 . S
C996 C997 1.334 . S
C997 H974 0.950 . S
C997 C996 1.334 . S
C997 C998 1.287 . S
C998 C997 1.287 . S
C998 C999 1.524 . S
C998 H1017 0.913 . S
C999 H975 0.950 . S
C999 C998 1.524 . S
C999 C1000 1.415 . S
C1000 H976 0.950 . S
C1000 C995 1.363 . S
C1000 C999 1.415 . S
C1001 H977 0.951 . S
C1001 C1002 1.366 . S
C1001 C1003 1.388 . S
C1002 C1001 1.366 . S
C1002 C1006 1.385 . S
C1003 H978 0.951 . S
C1003 C1001 1.388 . S
C1003 C1004 1.366 . S
C1004 C1003 1.366 . S
C1004 C1005 1.414 . S
C1004 C1007 1.499 . S
C1005 H979 0.950 . S
C1005 C1004 1.414 . S
C1005 C1006 1.374 . S
C1006 H980 0.950 . S
C1006 C1002 1.385 . S
C1006 C1005 1.374 . S
C1007 C1004 1.499 . S
C1007 C1008 1.373 . S
C1007 C1009 1.389 . S
C1008 H981 0.950 . S
C1008 C994 1.377 . S
C1008 C1007 1.373 . S
C1009 C993 1.377 . S
C1009 C1007 1.389 . S
C1009 C1010 1.524 . S
C1010 C1009 1.524 . S
C1010 C1011 1.397 . S
C1010 C1015 1.363 . S
C1011 H982 0.950 . S
C1011 C1010 1.397 . S
C1011 C1012 1.334 . S
C1012 H983 0.950 . S
C1012 C1011 1.334 . S
C1012 C1013 1.287 . S
C1013 C1012 1.287 . S
C1013 C1014 1.524 . S
C1013 H1016 0.999 . S
C1014 H984 0.950 . S
C1014 C1013 1.524 . S
C1014 C1015 1.415 . S
C1015 H985 0.950 . S
C1015 C1010 1.363 . S
C1015 C1014 1.415 . S
H1016 C1013 0.999 . S
H1017 C998 0.913 . S
H1018 C1036 0.951 . S
H1019 C1038 0.951 . S
H1020 C1040 0.950 . S
H1021 C1041 0.950 . S
H1022 C1043 0.950 . S
H1023 C1046 0.950 . S
H1024 C1047 0.950 . S
H1025 C1049 0.950 . S
H1026 C1050 0.950 . S
H1027 C1051 0.951 . S
H1028 C1053 0.951 . S
H1029 C1055 0.950 . S
H1030 C1056 0.950 . S
H1031 C1058 0.950 . S
H1032 C1061 0.950 . S
H1033 C1062 0.950 . S
H1034 C1064 0.950 . S
H1035 C1065 0.950 . S
C1036 H1018 0.951 . S
C1036 C1037 1.366 . S
C1036 C1038 1.388 . S
C1037 C1036 1.366 . S
C1037 C1041 1.385 . S
C1038 H1019 0.951 . S
C1038 C1036 1.388 . S
C1038 C1039 1.366 . S
C1039 C1038 1.366 . S
C1039 C1040 1.414 . S
C1039 C1042 1.499 . S
C1040 H1020 0.950 . S
C1040 C1039 1.414 . S
C1040 C1041 1.374 . S
C1041 H1021 0.950 . S
C1041 C1037 1.385 . S
C1041 C1040 1.374 . S
C1042 C1039 1.499 . S
C1042 C1043 1.373 . S
C1042 C1044 1.389 . S
C1043 H1022 0.950 . S
C1043 C1042 1.373 . S
C1043 C1059 1.377 . S
C1044 C1042 1.389 . S
C1044 C1045 1.524 . S
C1044 C1058 1.377 . S
C1045 C1044 1.524 . S
C1045 C1046 1.397 . S
C1045 C1050 1.363 . S
C1046 H1023 0.950 . S
C1046 C1045 1.397 . S
C1046 C1047 1.334 . S
C1047 H1024 0.950 . S
C1047 C1046 1.334 . S
C1047 C1048 1.287 . S
C1048 C1047 1.287 . S
C1048 C1049 1.524 . S
C1048 H1067 0.913 . S
C1049 H1025 0.950 . S
C1049 C1048 1.524 . S
C1049 C1050 1.415 . S
C1050 H1026 0.950 . S
C1050 C1045 1.363 . S
C1050 C1049 1.415 . S
C1051 H1027 0.951 . S
C1051 C1052 1.366 . S
C1051 C1053 1.388 . S
C1052 C1051 1.366 . S
C1052 C1056 1.385 . S
C1053 H1028 0.951 . S
C1053 C1051 1.388 . S
C1053 C1054 1.366 . S
C1054 C1053 1.366 . S
C1054 C1055 1.414 . S
C1054 C1057 1.499 . S
C1055 H1029 0.950 . S
C1055 C1054 1.414 . S
C1055 C1056 1.374 . S
C1056 H1030 0.950 . S
C1056 C1052 1.385 . S
C1056 C1055 1.374 . S
C1057 C1054 1.499 . S
C1057 C1058 1.373 . S
C1057 C1059 1.389 . S
C1058 H1031 0.950 . S
C1058 C1044 1.377 . S
C1058 C1057 1.373 . S
C1059 C1043 1.377 . S
C1059 C1057 1.389 . S
C1059 C1060 1.524 . S
C1060 C1059 1.524 . S
C1060 C1061 1.397 . S
C1060 C1065 1.363 . S
C1061 H1032 0.950 . S
C1061 C1060 1.397 . S
C1061 C1062 1.334 . S
C1062 H1033 0.950 . S
C1062 C1061 1.334 . S
C1062 C1063 1.287 . S
C1063 C1062 1.287 . S
C1063 C1064 1.524 . S
C1063 H1066 0.999 . S
C1064 H1034 0.950 . S
C1064 C1063 1.524 . S
C1064 C1065 1.415 . S
C1065 H1035 0.950 . S
C1065 C1060 1.363 . S
C1065 C1064 1.415 . S
H1066 C1063 0.999 . S
H1067 C1048 0.913 . S
H1068 C1086 0.951 . S
H1069 C1088 0.951 . S
H1070 C1090 0.950 . S
H1071 C1091 0.950 . S
H1072 C1093 0.950 . S
H1073 C1096 0.950 . S
H1074 C1097 0.950 . S
H1075 C1099 0.950 . S
H1076 C1100 0.950 . S
H1077 C1101 0.951 . S
H1078 C1103 0.951 . S
H1079 C1105 0.950 . S
H1080 C1106 0.950 . S
H1081 C1108 0.950 . S
H1082 C1111 0.950 . S
H1083 C1112 0.950 . S
H1084 C1114 0.950 . S
H1085 C1115 0.950 . S
C1086 H1068 0.951 . S
C1086 C1087 1.366 . S
C1086 C1088 1.388 . S
C1087 C1086 1.366 . S
C1087 C1091 1.385 . S
C1088 H1069 0.951 . S
C1088 C1086 1.388 . S
C1088 C1089 1.366 . S
C1089 C1088 1.366 . S
C1089 C1090 1.414 . S
C1089 C1092 1.499 . S
C1090 H1070 0.950 . S
C1090 C1089 1.414 . S
C1090 C1091 1.374 . S
C1091 H1071 0.950 . S
C1091 C1087 1.385 . S
C1091 C1090 1.374 . S
C1092 C1089 1.499 . S
C1092 C1093 1.373 . S
C1092 C1094 1.389 . S
C1093 H1072 0.950 . S
C1093 C1092 1.373 . S
C1093 C1109 1.377 . S
C1094 C1092 1.389 . S
C1094 C1095 1.524 . S
C1094 C1108 1.377 . S
C1095 C1094 1.524 . S
C1095 C1096 1.397 . S
C1095 C1100 1.363 . S
C1096 H1073 0.950 . S
C1096 C1095 1.397 . S
C1096 C1097 1.334 . S
C1097 H1074 0.950 . S
C1097 C1096 1.334 . S
C1097 C1098 1.287 . S
C1098 C1097 1.287 . S
C1098 C1099 1.524 . S
C1098 H1117 0.913 . S
C1099 H1075 0.950 . S
C1099 C1098 1.524 . S
C1099 C1100 1.415 . S
C1100 H1076 0.950 . S
C1100 C1095 1.363 . S
C1100 C1099 1.415 . S
C1101 H1077 0.951 . S
C1101 C1102 1.366 . S
C1101 C1103 1.388 . S
C1102 C1101 1.366 . S
C1102 C1106 1.385 . S
C1103 H1078 0.951 . S
C1103 C1101 1.388 . S
C1103 C1104 1.366 . S
C1104 C1103 1.366 . S
C1104 C1105 1.414 . S
C1104 C1107 1.499 . S
C1105 H1079 0.950 . S
C1105 C1104 1.414 . S
C1105 C1106 1.374 . S
C1106 H1080 0.950 . S
C1106 C1102 1.385 . S
C1106 C1105 1.374 . S
C1107 C1104 1.499 . S
C1107 C1108 1.373 . S
C1107 C1109 1.389 . S
C1108 H1081 0.950 . S
C1108 C1094 1.377 . S
C1108 C1107 1.373 . S
C1109 C1093 1.377 . S
C1109 C1107 1.389 . S
C1109 C1110 1.524 . S
C1110 C1109 1.524 . S
C1110 C1111 1.397 . S
C1110 C1115 1.363 . S
C1111 H1082 0.950 . S
C1111 C1110 1.397 . S
C1111 C1112 1.334 . S
C1112 H1083 0.950 . S
C1112 C1111 1.334 . S
C1112 C1113 1.287 . S
C1113 C1112 1.287 . S
C1113 C1114 1.524 . S
C1113 H1116 0.999 . S
C1114 H1084 0.950 . S
C1114 C1113 1.524 . S
C1114 C1115 1.415 . S
C1115 H1085 0.950 . S
C1115 C1110 1.363 . S
C1115 C1114 1.415 . S
H1116 C1113 0.999 . S
H1117 C1098 0.913 . S
H1118 C1136 0.951 . S
H1119 C1138 0.951 . S
H1120 C1140 0.950 . S
H1121 C1141 0.950 . S
H1122 C1143 0.950 . S
H1123 C1146 0.950 . S
H1124 C1147 0.950 . S
H1125 C1149 0.950 . S
H1126 C1150 0.950 . S
H1127 C1151 0.951 . S
H1128 C1153 0.951 . S
H1129 C1155 0.950 . S
H1130 C1156 0.950 . S
H1131 C1158 0.950 . S
H1132 C1161 0.950 . S
H1133 C1162 0.950 . S
H1134 C1164 0.950 . S
H1135 C1165 0.950 . S
C1136 H1118 0.951 . S
C1136 C1137 1.366 . S
C1136 C1138 1.388 . S
C1137 C1136 1.366 . S
C1137 C1141 1.385 . S
C1138 H1119 0.951 . S
C1138 C1136 1.388 . S
C1138 C1139 1.366 . S
C1139 C1138 1.366 . S
C1139 C1140 1.414 . S
C1139 C1142 1.499 . S
C1140 H1120 0.950 . S
C1140 C1139 1.414 . S
C1140 C1141 1.374 . S
C1141 H1121 0.950 . S
C1141 C1137 1.385 . S
C1141 C1140 1.374 . S
C1142 C1139 1.499 . S
C1142 C1143 1.373 . S
C1142 C1144 1.389 . S
C1143 H1122 0.950 . S
C1143 C1142 1.373 . S
C1143 C1159 1.377 . S
C1144 C1142 1.389 . S
C1144 C1145 1.524 . S
C1144 C1158 1.377 . S
C1145 C1144 1.524 . S
C1145 C1146 1.397 . S
C1145 C1150 1.363 . S
C1146 H1123 0.950 . S
C1146 C1145 1.397 . S
C1146 C1147 1.334 . S
C1147 H1124 0.950 . S
C1147 C1146 1.334 . S
C1147 C1148 1.287 . S
C1148 C1147 1.287 . S
C1148 C1149 1.524 . S
C1148 H1167 0.913 . S
C1149 H1125 0.950 . S
C1149 C1148 1.524 . S
C1149 C1150 1.415 . S
C1150 H1126 0.950 . S
C1150 C1145 1.363 . S
C1150 C1149 1.415 . S
C1151 H1127 0.951 . S
C1151 C1152 1.366 . S
C1151 C1153 1.388 . S
C1152 C1151 1.366 . S
C1152 C1156 1.385 . S
C1153 H1128 0.951 . S
C1153 C1151 1.388 . S
C1153 C1154 1.366 . S
C1154 C1153 1.366 . S
C1154 C1155 1.414 . S
C1154 C1157 1.499 . S
C1155 H1129 0.950 . S
C1155 C1154 1.414 . S
C1155 C1156 1.374 . S
C1156 H1130 0.950 . S
C1156 C1152 1.385 . S
C1156 C1155 1.374 . S
C1157 C1154 1.499 . S
C1157 C1158 1.373 . S
C1157 C1159 1.389 . S
C1158 H1131 0.950 . S
C1158 C1144 1.377 . S
C1158 C1157 1.373 . S
C1159 C1143 1.377 . S
C1159 C1157 1.389 . S
C1159 C1160 1.524 . S
C1160 C1159 1.524 . S
C1160 C1161 1.397 . S
C1160 C1165 1.363 . S
C1161 H1132 0.950 . S
C1161 C1160 1.397 . S
C1161 C1162 1.334 . S
C1162 H1133 0.950 . S
C1162 C1161 1.334 . S
C1162 C1163 1.287 . S
C1163 C1162 1.287 . S
C1163 C1164 1.524 . S
C1163 H1166 0.999 . S
C1164 H1134 0.950 . S
C1164 C1163 1.524 . S
C1164 C1165 1.415 . S
C1165 H1135 0.950 . S
C1165 C1160 1.363 . S
C1165 C1164 1.415 . S
H1166 C1163 0.999 . S
H1167 C1148 0.913 . S
H1168 C1186 0.951 . S
H1169 C1188 0.951 . S
H1170 C1190 0.950 . S
H1171 C1191 0.950 . S
H1172 C1193 0.950 . S
H1173 C1196 0.950 . S
H1174 C1197 0.950 . S
H1175 C1199 0.950 . S
H1176 C1200 0.950 . S
H1177 C1201 0.951 . S
H1178 C1203 0.951 . S
H1179 C1205 0.950 . S
H1180 C1206 0.950 . S
H1181 C1208 0.950 . S
H1182 C1211 0.950 . S
H1183 C1212 0.950 . S
H1184 C1214 0.950 . S
H1185 C1215 0.950 . S
C1186 H1168 0.951 . S
C1186 C1187 1.366 . S
C1186 C1188 1.388 . S
C1187 C1186 1.366 . S
C1187 C1191 1.385 . S
C1188 H1169 0.951 . S
C1188 C1186 1.388 . S
C1188 C1189 1.366 . S
C1189 C1188 1.366 . S
C1189 C1190 1.414 . S
C1189 C1192 1.499 . S
C1190 H1170 0.950 . S
C1190 C1189 1.414 . S
C1190 C1191 1.374 . S
C1191 H1171 0.950 . S
C1191 C1187 1.385 . S
C1191 C1190 1.374 . S
C1192 C1189 1.499 . S
C1192 C1193 1.373 . S
C1192 C1194 1.389 . S
C1193 H1172 0.950 . S
C1193 C1192 1.373 . S
C1193 C1209 1.377 1_556 S
C1194 C1192 1.389 . S
C1194 C1195 1.524 . S
C1194 C1208 1.377 1_556 S
C1195 C1194 1.524 . S
C1195 C1196 1.397 . S
C1195 C1200 1.363 . S
C1196 H1173 0.950 . S
C1196 C1195 1.397 . S
C1196 C1197 1.334 . S
C1197 H1174 0.950 . S
C1197 C1196 1.334 . S
C1197 C1198 1.287 . S
C1198 C1197 1.287 . S
C1198 C1199 1.524 . S
C1198 H1217 0.913 . S
C1199 H1175 0.950 . S
C1199 C1198 1.524 . S
C1199 C1200 1.415 . S
C1200 H1176 0.950 . S
C1200 C1195 1.363 . S
C1200 C1199 1.415 . S
C1201 H1177 0.951 . S
C1201 C1202 1.366 . S
C1201 C1203 1.388 . S
C1202 C1201 1.366 . S
C1202 C1206 1.385 . S
C1203 H1178 0.951 . S
C1203 C1201 1.388 . S
C1203 C1204 1.366 . S
C1204 C1203 1.366 . S
C1204 C1205 1.414 . S
C1204 C1207 1.499 . S
C1205 H1179 0.950 . S
C1205 C1204 1.414 . S
C1205 C1206 1.374 . S
C1206 H1180 0.950 . S
C1206 C1202 1.385 . S
C1206 C1205 1.374 . S
C1207 C1204 1.499 . S
C1207 C1208 1.373 . S
C1207 C1209 1.389 . S
C1208 H1181 0.950 . S
C1208 C1194 1.377 1_554 S
C1208 C1207 1.373 . S
C1209 C1193 1.377 1_554 S
C1209 C1207 1.389 . S
C1209 C1210 1.524 . S
C1210 C1209 1.524 . S
C1210 C1211 1.397 . S
C1210 C1215 1.363 . S
C1211 H1182 0.950 . S
C1211 C1210 1.397 . S
C1211 C1212 1.334 . S
C1212 H1183 0.950 . S
C1212 C1211 1.334 . S
C1212 C1213 1.287 . S
C1213 C1212 1.287 . S
C1213 C1214 1.524 . S
C1213 H1216 0.999 . S
C1214 H1184 0.950 . S
C1214 C1213 1.524 . S
C1214 C1215 1.415 . S
C1215 H1185 0.950 . S
C1215 C1210 1.363 . S
C1215 C1214 1.415 . S
H1216 C1213 0.999 . S
H1217 C1198 0.913 . S
H1218 C1236 0.951 . S
H1219 C1238 0.951 . S
H1220 C1240 0.950 . S
H1221 C1241 0.950 . S
H1222 C1243 0.950 . S
H1223 C1246 0.950 . S
H1224 C1247 0.950 . S
H1225 C1249 0.950 . S
H1226 C1250 0.950 . S
H1227 C1251 0.951 . S
H1228 C1253 0.951 . S
H1229 C1255 0.950 . S
H1230 C1256 0.950 . S
H1231 C1258 0.950 . S
H1232 C1261 0.950 . S
H1233 C1262 0.950 . S
H1234 C1264 0.950 . S
H1235 C1265 0.950 . S
C1236 H1218 0.951 . S
C1236 C1237 1.366 . S
C1236 C1238 1.388 . S
C1237 C1236 1.366 . S
C1237 C1241 1.385 . S
C1238 H1219 0.951 . S
C1238 C1236 1.388 . S
C1238 C1239 1.366 . S
C1239 C1238 1.366 . S
C1239 C1240 1.414 . S
C1239 C1242 1.499 . S
C1240 H1220 0.950 . S
C1240 C1239 1.414 . S
C1240 C1241 1.374 . S
C1241 H1221 0.950 . S
C1241 C1237 1.385 . S
C1241 C1240 1.374 . S
C1242 C1239 1.499 . S
C1242 C1243 1.373 . S
C1242 C1244 1.389 . S
C1243 H1222 0.950 . S
C1243 C1242 1.373 . S
C1243 C1259 1.377 . S
C1244 C1242 1.389 . S
C1244 C1245 1.524 . S
C1244 C1258 1.377 . S
C1245 C1244 1.524 . S
C1245 C1246 1.397 . S
C1245 C1250 1.363 . S
C1246 H1223 0.950 . S
C1246 C1245 1.397 . S
C1246 C1247 1.334 . S
C1247 H1224 0.950 . S
C1247 C1246 1.334 . S
C1247 C1248 1.287 . S
C1248 C1247 1.287 . S
C1248 C1249 1.524 . S
C1248 H1267 0.913 . S
C1249 H1225 0.950 . S
C1249 C1248 1.524 . S
C1249 C1250 1.415 . S
C1250 H1226 0.950 . S
C1250 C1245 1.363 . S
C1250 C1249 1.415 . S
C1251 H1227 0.951 . S
C1251 C1252 1.366 . S
C1251 C1253 1.388 . S
C1252 C1251 1.366 . S
C1252 C1256 1.385 . S
C1253 H1228 0.951 . S
C1253 C1251 1.388 . S
C1253 C1254 1.366 . S
C1254 C1253 1.366 . S
C1254 C1255 1.414 . S
C1254 C1257 1.499 . S
C1255 H1229 0.950 . S
C1255 C1254 1.414 . S
C1255 C1256 1.374 . S
C1256 H1230 0.950 . S
C1256 C1252 1.385 . S
C1256 C1255 1.374 . S
C1257 C1254 1.499 . S
C1257 C1258 1.373 . S
C1257 C1259 1.389 . S
C1258 H1231 0.950 . S
C1258 C1244 1.377 . S
C1258 C1257 1.373 . S
C1259 C1243 1.377 . S
C1259 C1257 1.389 . S
C1259 C1260 1.524 . S
C1260 C1259 1.524 . S
C1260 C1261 1.397 . S
C1260 C1265 1.363 . S
C1261 H1232 0.950 . S
C1261 C1260 1.397 . S
C1261 C1262 1.334 . S
C1262 H1233 0.950 . S
C1262 C1261 1.334 . S
C1262 C1263 1.287 . S
C1263 C1262 1.287 . S
C1263 C1264 1.524 . S
C1263 H1266 0.999 . S
C1264 H1234 0.950 . S
C1264 C1263 1.524 . S
C1264 C1265 1.415 . S
C1265 H1235 0.950 . S
C1265 C1260 1.363 . S
C1265 C1264 1.415 . S
H1266 C1263 0.999 . S
H1267 C1248 0.913 . S
H1268 C1286 0.951 . S
H1269 C1288 0.951 . S
H1270 C1290 0.950 . S
H1271 C1291 0.950 . S
H1272 C1293 0.950 . S
H1273 C1296 0.950 . S
H1274 C1297 0.950 . S
H1275 C1299 0.950 . S
H1276 C1300 0.950 . S
H1277 C1301 0.951 . S
H1278 C1303 0.951 . S
H1279 C1305 0.950 . S
H1280 C1306 0.950 . S
H1281 C1308 0.950 . S
H1282 C1311 0.950 . S
H1283 C1312 0.950 . S
H1284 C1314 0.950 . S
H1285 C1315 0.950 . S
C1286 H1268 0.951 . S
C1286 C1287 1.366 . S
C1286 C1288 1.388 . S
C1287 C1286 1.366 . S
C1287 C1291 1.385 . S
C1288 H1269 0.951 . S
C1288 C1286 1.388 . S
C1288 C1289 1.366 . S
C1289 C1288 1.366 . S
C1289 C1290 1.414 . S
C1289 C1292 1.499 . S
C1290 H1270 0.950 . S
C1290 C1289 1.414 . S
C1290 C1291 1.374 . S
C1291 H1271 0.950 . S
C1291 C1287 1.385 . S
C1291 C1290 1.374 . S
C1292 C1289 1.499 . S
C1292 C1293 1.373 . S
C1292 C1294 1.389 . S
C1293 H1272 0.950 . S
C1293 C1292 1.373 . S
C1293 C1309 1.377 1_554 S
C1294 C1292 1.389 . S
C1294 C1295 1.524 . S
C1294 C1308 1.377 1_554 S
C1295 C1294 1.524 . S
C1295 C1296 1.397 . S
C1295 C1300 1.363 . S
C1296 H1273 0.950 . S
C1296 C1295 1.397 . S
C1296 C1297 1.334 . S
C1297 H1274 0.950 . S
C1297 C1296 1.334 . S
C1297 C1298 1.287 . S
C1298 C1297 1.287 . S
C1298 C1299 1.524 . S
C1298 H1317 0.913 . S
C1299 H1275 0.950 . S
C1299 C1298 1.524 . S
C1299 C1300 1.415 . S
C1300 H1276 0.950 . S
C1300 C1295 1.363 . S
C1300 C1299 1.415 . S
C1301 H1277 0.951 . S
C1301 C1302 1.366 . S
C1301 C1303 1.388 . S
C1302 C1301 1.366 . S
C1302 C1306 1.385 . S
C1303 H1278 0.951 . S
C1303 C1301 1.388 . S
C1303 C1304 1.366 . S
C1304 C1303 1.366 . S
C1304 C1305 1.414 . S
C1304 C1307 1.499 . S
C1305 H1279 0.950 . S
C1305 C1304 1.414 . S
C1305 C1306 1.374 . S
C1306 H1280 0.950 . S
C1306 C1302 1.385 . S
C1306 C1305 1.374 . S
C1307 C1304 1.499 . S
C1307 C1308 1.373 . S
C1307 C1309 1.389 . S
C1308 H1281 0.950 . S
C1308 C1294 1.377 1_556 S
C1308 C1307 1.373 . S
C1309 C1293 1.377 1_556 S
C1309 C1307 1.389 . S
C1309 C1310 1.524 . S
C1310 C1309 1.524 . S
C1310 C1311 1.397 . S
C1310 C1315 1.363 . S
C1311 H1282 0.950 . S
C1311 C1310 1.397 . S
C1311 C1312 1.334 . S
C1312 H1283 0.950 . S
C1312 C1311 1.334 . S
C1312 C1313 1.287 . S
C1313 C1312 1.287 . S
C1313 C1314 1.524 . S
C1313 H1316 0.999 . S
C1314 H1284 0.950 . S
C1314 C1313 1.524 . S
C1314 C1315 1.415 . S
C1315 H1285 0.950 . S
C1315 C1310 1.363 . S
C1315 C1314 1.415 . S
H1316 C1313 0.999 . S
H1317 C1298 0.913 . S
H1318 C1336 0.951 . S
H1319 C1338 0.951 . S
H1320 C1340 0.950 . S
H1321 C1341 0.950 . S
H1322 C1343 0.950 . S
H1323 C1346 0.950 . S
H1324 C1347 0.950 . S
H1325 C1349 0.950 . S
H1326 C1350 0.950 . S
H1327 C1351 0.951 . S
H1328 C1353 0.951 . S
H1329 C1355 0.950 . S
H1330 C1356 0.950 . S
H1331 C1358 0.950 . S
H1332 C1361 0.950 . S
H1333 C1362 0.950 . S
H1334 C1364 0.950 . S
H1335 C1365 0.950 . S
C1336 H1318 0.951 . S
C1336 C1337 1.366 . S
C1336 C1338 1.388 . S
C1337 C1336 1.366 . S
C1337 C1341 1.385 . S
C1338 H1319 0.951 . S
C1338 C1336 1.388 . S
C1338 C1339 1.366 . S
C1339 C1338 1.366 . S
C1339 C1340 1.414 . S
C1339 C1342 1.499 . S
C1340 H1320 0.950 . S
C1340 C1339 1.414 . S
C1340 C1341 1.374 . S
C1341 H1321 0.950 . S
C1341 C1337 1.385 . S
C1341 C1340 1.374 . S
C1342 C1339 1.499 . S
C1342 C1343 1.373 . S
C1342 C1344 1.389 . S
C1343 H1322 0.950 . S
C1343 C1342 1.373 . S
C1343 C1359 1.377 . S
C1344 C1342 1.389 . S
C1344 C1345 1.524 . S
C1344 C1358 1.377 . S
C1345 C1344 1.524 . S
C1345 C1346 1.397 . S
C1345 C1350 1.363 . S
C1346 H1323 0.950 . S
C1346 C1345 1.397 . S
C1346 C1347 1.334 . S
C1347 H1324 0.950 . S
C1347 C1346 1.334 . S
C1347 C1348 1.287 . S
C1348 C1347 1.287 . S
C1348 C1349 1.524 . S
C1348 H1367 0.913 . S
C1349 H1325 0.950 . S
C1349 C1348 1.524 . S
C1349 C1350 1.415 . S
C1350 H1326 0.950 . S
C1350 C1345 1.363 . S
C1350 C1349 1.415 . S
C1351 H1327 0.951 . S
C1351 C1352 1.366 . S
C1351 C1353 1.388 . S
C1352 C1351 1.366 . S
C1352 C1356 1.385 . S
C1353 H1328 0.951 . S
C1353 C1351 1.388 . S
C1353 C1354 1.366 . S
C1354 C1353 1.366 . S
C1354 C1355 1.414 . S
C1354 C1357 1.499 . S
C1355 H1329 0.950 . S
C1355 C1354 1.414 . S
C1355 C1356 1.374 . S
C1356 H1330 0.950 . S
C1356 C1352 1.385 . S
C1356 C1355 1.374 . S
C1357 C1354 1.499 . S
C1357 C1358 1.373 . S
C1357 C1359 1.389 . S
C1358 H1331 0.950 . S
C1358 C1344 1.377 . S
C1358 C1357 1.373 . S
C1359 C1343 1.377 . S
C1359 C1357 1.389 . S
C1359 C1360 1.524 . S
C1360 C1359 1.524 . S
C1360 C1361 1.397 . S
C1360 C1365 1.363 . S
C1361 H1332 0.950 . S
C1361 C1360 1.397 . S
C1361 C1362 1.334 . S
C1362 H1333 0.950 . S
C1362 C1361 1.334 . S
C1362 C1363 1.287 . S
C1363 C1362 1.287 . S
C1363 C1364 1.524 . S
C1363 H1366 0.999 . S
C1364 H1334 0.950 . S
C1364 C1363 1.524 . S
C1364 C1365 1.415 . S
C1365 H1335 0.950 . S
C1365 C1360 1.363 . S
C1365 C1364 1.415 . S
H1366 C1363 0.999 . S
H1367 C1348 0.913 . S
H1368 C1386 0.951 . S
H1369 C1388 0.951 . S
H1370 C1390 0.950 . S
H1371 C1391 0.950 . S
H1372 C1393 0.950 . S
H1373 C1396 0.950 . S
H1374 C1397 0.950 . S
H1375 C1399 0.950 . S
H1376 C1400 0.950 . S
H1377 C1401 0.951 . S
H1378 C1403 0.951 . S
H1379 C1405 0.950 . S
H1380 C1406 0.950 . S
H1381 C1408 0.950 . S
H1382 C1411 0.950 . S
H1383 C1412 0.950 . S
H1384 C1414 0.950 . S
H1385 C1415 0.950 . S
C1386 H1368 0.951 . S
C1386 C1387 1.366 . S
C1386 C1388 1.388 . S
C1387 C1386 1.366 . S
C1387 C1391 1.385 . S
C1388 H1369 0.951 . S
C1388 C1386 1.388 . S
C1388 C1389 1.366 . S
C1389 C1388 1.366 . S
C1389 C1390 1.414 . S
C1389 C1392 1.499 . S
C1390 H1370 0.950 . S
C1390 C1389 1.414 . S
C1390 C1391 1.374 . S
C1391 H1371 0.950 . S
C1391 C1387 1.385 . S
C1391 C1390 1.374 . S
C1392 C1389 1.499 . S
C1392 C1393 1.373 . S
C1392 C1394 1.389 . S
C1393 H1372 0.950 . S
C1393 C1392 1.373 . S
C1393 C1409 1.377 . S
C1394 C1392 1.389 . S
C1394 C1395 1.524 . S
C1394 C1408 1.377 . S
C1395 C1394 1.524 . S
C1395 C1396 1.397 . S
C1395 C1400 1.363 . S
C1396 H1373 0.950 . S
C1396 C1395 1.397 . S
C1396 C1397 1.334 . S
C1397 H1374 0.950 . S
C1397 C1396 1.334 . S
C1397 C1398 1.287 . S
C1398 C1397 1.287 . S
C1398 C1399 1.524 . S
C1398 H1417 0.913 . S
C1399 H1375 0.950 . S
C1399 C1398 1.524 . S
C1399 C1400 1.415 . S
C1400 H1376 0.950 . S
C1400 C1395 1.363 . S
C1400 C1399 1.415 . S
C1401 H1377 0.951 . S
C1401 C1402 1.366 . S
C1401 C1403 1.388 . S
C1402 C1401 1.366 . S
C1402 C1406 1.385 . S
C1403 H1378 0.951 . S
C1403 C1401 1.388 . S
C1403 C1404 1.366 . S
C1404 C1403 1.366 . S
C1404 C1405 1.414 . S
C1404 C1407 1.499 . S
C1405 H1379 0.950 . S
C1405 C1404 1.414 . S
C1405 C1406 1.374 . S
C1406 H1380 0.950 . S
C1406 C1402 1.385 . S
C1406 C1405 1.374 . S
C1407 C1404 1.499 . S
C1407 C1408 1.373 . S
C1407 C1409 1.389 . S
C1408 H1381 0.950 . S
C1408 C1394 1.377 . S
C1408 C1407 1.373 . S
C1409 C1393 1.377 . S
C1409 C1407 1.389 . S
C1409 C1410 1.524 . S
C1410 C1409 1.524 . S
C1410 C1411 1.397 . S
C1410 C1415 1.363 . S
C1411 H1382 0.950 . S
C1411 C1410 1.397 . S
C1411 C1412 1.334 . S
C1412 H1383 0.950 . S
C1412 C1411 1.334 . S
C1412 C1413 1.287 . S
C1413 C1412 1.287 . S
C1413 C1414 1.524 . S
C1413 H1416 0.999 . S
C1414 H1384 0.950 . S
C1414 C1413 1.524 . S
C1414 C1415 1.415 . S
C1415 H1385 0.950 . S
C1415 C1410 1.363 . S
C1415 C1414 1.415 . S
H1416 C1413 0.999 . S
H1417 C1398 0.913 . S
H1418 C1436 0.951 . S
H1419 C1438 0.951 . S
H1420 C1440 0.950 . S
H1421 C1441 0.950 . S
H1422 C1443 0.950 . S
H1423 C1446 0.950 . S
H1424 C1447 0.950 . S
H1425 C1449 0.950 . S
H1426 C1450 0.950 . S
H1427 C1451 0.951 . S
H1428 C1453 0.951 . S
H1429 C1455 0.950 . S
H1430 C1456 0.950 . S
H1431 C1458 0.950 . S
H1432 C1461 0.950 . S
H1433 C1462 0.950 . S
H1434 C1464 0.950 . S
H1435 C1465 0.950 . S
C1436 H1418 0.951 . S
C1436 C1437 1.366 . S
C1436 C1438 1.388 . S
C1437 C1436 1.366 . S
C1437 C1441 1.385 . S
C1438 H1419 0.951 . S
C1438 C1436 1.388 . S
C1438 C1439 1.366 . S
C1439 C1438 1.366 . S
C1439 C1440 1.414 . S
C1439 C1442 1.499 . S
C1440 H1420 0.950 . S
C1440 C1439 1.414 . S
C1440 C1441 1.374 . S
C1441 H1421 0.950 . S
C1441 C1437 1.385 . S
C1441 C1440 1.374 . S
C1442 C1439 1.499 . S
C1442 C1443 1.373 . S
C1442 C1444 1.389 . S
C1443 H1422 0.950 . S
C1443 C1442 1.373 . S
C1443 C1459 1.377 1_556 S
C1444 C1442 1.389 . S
C1444 C1445 1.524 . S
C1444 C1458 1.377 1_556 S
C1445 C1444 1.524 . S
C1445 C1446 1.397 . S
C1445 C1450 1.363 . S
C1446 H1423 0.950 . S
C1446 C1445 1.397 . S
C1446 C1447 1.334 . S
C1447 H1424 0.950 . S
C1447 C1446 1.334 . S
C1447 C1448 1.287 . S
C1448 C1447 1.287 . S
C1448 C1449 1.524 . S
C1448 H1467 0.913 . S
C1449 H1425 0.950 . S
C1449 C1448 1.524 . S
C1449 C1450 1.415 . S
C1450 H1426 0.950 . S
C1450 C1445 1.363 . S
C1450 C1449 1.415 . S
C1451 H1427 0.951 . S
C1451 C1452 1.366 . S
C1451 C1453 1.388 . S
C1452 C1451 1.366 . S
C1452 C1456 1.385 . S
C1453 H1428 0.951 . S
C1453 C1451 1.388 . S
C1453 C1454 1.366 . S
C1454 C1453 1.366 . S
C1454 C1455 1.414 . S
C1454 C1457 1.499 . S
C1455 H1429 0.950 . S
C1455 C1454 1.414 . S
C1455 C1456 1.374 . S
C1456 H1430 0.950 . S
C1456 C1452 1.385 . S
C1456 C1455 1.374 . S
C1457 C1454 1.499 . S
C1457 C1458 1.373 . S
C1457 C1459 1.389 . S
C1458 H1431 0.950 . S
C1458 C1444 1.377 1_554 S
C1458 C1457 1.373 . S
C1459 C1443 1.377 1_554 S
C1459 C1457 1.389 . S
C1459 C1460 1.524 . S
C1460 C1459 1.524 . S
C1460 C1461 1.397 . S
C1460 C1465 1.363 . S
C1461 H1432 0.950 . S
C1461 C1460 1.397 . S
C1461 C1462 1.334 . S
C1462 H1433 0.950 . S
C1462 C1461 1.334 . S
C1462 C1463 1.287 . S
C1463 C1462 1.287 . S
C1463 C1464 1.524 . S
C1463 H1466 0.999 . S
C1464 H1434 0.950 . S
C1464 C1463 1.524 . S
C1464 C1465 1.415 . S
C1465 H1435 0.950 . S
C1465 C1460 1.363 . S
C1465 C1464 1.415 . S
H1466 C1463 0.999 . S
H1467 C1448 0.913 . S
H1468 C1486 0.951 . S
H1469 C1488 0.951 . S
H1470 C1490 0.950 . S
H1471 C1491 0.950 . S
H1472 C1493 0.950 . S
H1473 C1496 0.950 . S
H1474 C1497 0.950 . S
H1475 C1499 0.950 . S
H1476 C1500 0.950 . S
H1477 C1501 0.951 . S
H1478 C1503 0.951 . S
H1479 C1505 0.950 . S
H1480 C1506 0.950 . S
H1481 C1508 0.950 . S
H1482 C1511 0.950 . S
H1483 C1512 0.950 . S
H1484 C1514 0.950 . S
H1485 C1515 0.950 . S
C1486 H1468 0.951 . S
C1486 C1487 1.366 . S
C1486 C1488 1.388 . S
C1487 C1486 1.366 . S
C1487 C1491 1.385 . S
C1488 H1469 0.951 . S
C1488 C1486 1.388 . S
C1488 C1489 1.366 . S
C1489 C1488 1.366 . S
C1489 C1490 1.414 . S
C1489 C1492 1.499 . S
C1490 H1470 0.950 . S
C1490 C1489 1.414 . S
C1490 C1491 1.374 . S
C1491 H1471 0.950 . S
C1491 C1487 1.385 . S
C1491 C1490 1.374 . S
C1492 C1489 1.499 . S
C1492 C1493 1.373 . S
C1492 C1494 1.389 . S
C1493 H1472 0.950 . S
C1493 C1492 1.373 . S
C1493 C1509 1.377 . S
C1494 C1492 1.389 . S
C1494 C1495 1.524 . S
C1494 C1508 1.377 . S
C1495 C1494 1.524 . S
C1495 C1496 1.397 . S
C1495 C1500 1.363 . S
C1496 H1473 0.950 . S
C1496 C1495 1.397 . S
C1496 C1497 1.334 . S
C1497 H1474 0.950 . S
C1497 C1496 1.334 . S
C1497 C1498 1.287 . S
C1498 C1497 1.287 . S
C1498 C1499 1.524 . S
C1498 H1517 0.913 . S
C1499 H1475 0.950 . S
C1499 C1498 1.524 . S
C1499 C1500 1.415 . S
C1500 H1476 0.950 . S
C1500 C1495 1.363 . S
C1500 C1499 1.415 . S
C1501 H1477 0.951 . S
C1501 C1502 1.366 . S
C1501 C1503 1.388 . S
C1502 C1501 1.366 . S
C1502 C1506 1.385 . S
C1503 H1478 0.951 . S
C1503 C1501 1.388 . S
C1503 C1504 1.366 . S
C1504 C1503 1.366 . S
C1504 C1505 1.414 . S
C1504 C1507 1.499 . S
C1505 H1479 0.950 . S
C1505 C1504 1.414 . S
C1505 C1506 1.374 . S
C1506 H1480 0.950 . S
C1506 C1502 1.385 . S
C1506 C1505 1.374 . S
C1507 C1504 1.499 . S
C1507 C1508 1.373 . S
C1507 C1509 1.389 . S
C1508 H1481 0.950 . S
C1508 C1494 1.377 . S
C1508 C1507 1.373 . S
C1509 C1493 1.377 . S
C1509 C1507 1.389 . S
C1509 C1510 1.524 . S
C1510 C1509 1.524 . S
C1510 C1511 1.397 . S
C1510 C1515 1.363 . S
C1511 H1482 0.950 . S
C1511 C1510 1.397 . S
C1511 C1512 1.334 . S
C1512 H1483 0.950 . S
C1512 C1511 1.334 . S
C1512 C1513 1.287 . S
C1513 C1512 1.287 . S
C1513 C1514 1.524 . S
C1513 H1516 0.999 . S
C1514 H1484 0.950 . S
C1514 C1513 1.524 . S
C1514 C1515 1.415 . S
C1515 H1485 0.950 . S
C1515 C1510 1.363 . S
C1515 C1514 1.415 . S
H1516 C1513 0.999 . S
H1517 C1498 0.913 . S
H1518 C1536 0.951 . S
H1519 C1538 0.951 . S
H1520 C1540 0.950 . S
H1521 C1541 0.950 . S
H1522 C1543 0.950 . S
H1523 C1546 0.950 . S
H1524 C1547 0.950 . S
H1525 C1549 0.950 . S
H1526 C1550 0.950 . S
H1527 C1551 0.951 . S
H1528 C1553 0.951 . S
H1529 C1555 0.950 . S
H1530 C1556 0.950 . S
H1531 C1558 0.950 . S
H1532 C1561 0.950 . S
H1533 C1562 0.950 . S
H1534 C1564 0.950 . S
H1535 C1565 0.950 . S
C1536 H1518 0.951 . S
C1536 C1537 1.366 . S
C1536 C1538 1.388 . S
C1537 C1536 1.366 . S
C1537 C1541 1.385 . S
C1538 H1519 0.951 . S
C1538 C1536 1.388 . S
C1538 C1539 1.366 . S
C1539 C1538 1.366 . S
C1539 C1540 1.414 . S
C1539 C1542 1.499 . S
C1540 H1520 0.950 . S
C1540 C1539 1.414 . S
C1540 C1541 1.374 . S
C1541 H1521 0.950 . S
C1541 C1537 1.385 . S
C1541 C1540 1.374 . S
C1542 C1539 1.499 . S
C1542 C1543 1.373 . S
C1542 C1544 1.389 . S
C1543 H1522 0.950 . S
C1543 C1542 1.373 . S
C1543 C1559 1.377 1_554 S
C1544 C1542 1.389 . S
C1544 C1545 1.524 . S
C1544 C1558 1.377 1_554 S
C1545 C1544 1.524 . S
C1545 C1546 1.397 . S
C1545 C1550 1.363 . S
C1546 H1523 0.950 . S
C1546 C1545 1.397 . S
C1546 C1547 1.334 . S
C1547 H1524 0.950 . S
C1547 C1546 1.334 . S
C1547 C1548 1.287 . S
C1548 C1547 1.287 . S
C1548 C1549 1.524 . S
C1548 H1567 0.913 . S
C1549 H1525 0.950 . S
C1549 C1548 1.524 . S
C1549 C1550 1.415 . S
C1550 H1526 0.950 . S
C1550 C1545 1.363 . S
C1550 C1549 1.415 . S
C1551 H1527 0.951 . S
C1551 C1552 1.366 . S
C1551 C1553 1.388 . S
C1552 C1551 1.366 . S
C1552 C1556 1.385 . S
C1553 H1528 0.951 . S
C1553 C1551 1.388 . S
C1553 C1554 1.366 . S
C1554 C1553 1.366 . S
C1554 C1555 1.414 . S
C1554 C1557 1.499 . S
C1555 H1529 0.950 . S
C1555 C1554 1.414 . S
C1555 C1556 1.374 . S
C1556 H1530 0.950 . S
C1556 C1552 1.385 . S
C1556 C1555 1.374 . S
C1557 C1554 1.499 . S
C1557 C1558 1.373 . S
C1557 C1559 1.389 . S
C1558 H1531 0.950 . S
C1558 C1544 1.377 1_556 S
C1558 C1557 1.373 . S
C1559 C1543 1.377 1_556 S
C1559 C1557 1.389 . S
C1559 C1560 1.524 . S
C1560 C1559 1.524 . S
C1560 C1561 1.397 . S
C1560 C1565 1.363 . S
C1561 H1532 0.950 . S
C1561 C1560 1.397 . S
C1561 C1562 1.334 . S
C1562 H1533 0.950 . S
C1562 C1561 1.334 . S
C1562 C1563 1.287 . S
C1563 C1562 1.287 . S
C1563 C1564 1.524 . S
C1563 H1566 0.999 . S
C1564 H1534 0.950 . S
C1564 C1563 1.524 . S
C1564 C1565 1.415 . S
C1565 H1535 0.950 . S
C1565 C1560 1.363 . S
C1565 C1564 1.415 . S
H1566 C1563 0.999 . S
H1567 C1548 0.913 . S
H1568 C1586 0.951 . S
H1569 C1588 0.951 . S
H1570 C1590 0.950 . S
H1571 C1591 0.950 . S
H1572 C1593 0.950 . S
H1573 C1596 0.950 . S
H1574 C1597 0.950 . S
H1575 C1599 0.950 . S
H1576 C1600 0.950 . S
H1577 C1601 0.951 . S
H1578 C1603 0.951 . S
H1579 C1605 0.950 . S
H1580 C1606 0.950 . S
H1581 C1608 0.950 . S
H1582 C1611 0.950 . S
H1583 C1612 0.950 . S
H1584 C1614 0.950 . S
H1585 C1615 0.950 . S
C1586 H1568 0.951 . S
C1586 C1587 1.366 . S
C1586 C1588 1.388 . S
C1587 C1586 1.366 . S
C1587 C1591 1.385 . S
C1588 H1569 0.951 . S
C1588 C1586 1.388 . S
C1588 C1589 1.366 . S
C1589 C1588 1.366 . S
C1589 C1590 1.414 . S
C1589 C1592 1.499 . S
C1590 H1570 0.950 . S
C1590 C1589 1.414 . S
C1590 C1591 1.374 . S
C1591 H1571 0.950 . S
C1591 C1587 1.385 . S
C1591 C1590 1.374 . S
C1592 C1589 1.499 . S
C1592 C1593 1.373 . S
C1592 C1594 1.389 . S
C1593 H1572 0.950 . S
C1593 C1592 1.373 . S
C1593 C1609 1.377 . S
C1594 C1592 1.389 . S
C1594 C1595 1.524 . S
C1594 C1608 1.377 . S
C1595 C1594 1.524 . S
C1595 C1596 1.397 . S
C1595 C1600 1.363 . S
C1596 H1573 0.950 . S
C1596 C1595 1.397 . S
C1596 C1597 1.334 . S
C1597 H1574 0.950 . S
C1597 C1596 1.334 . S
C1597 C1598 1.287 . S
C1598 C1597 1.287 . S
C1598 C1599 1.524 . S
C1598 H1617 0.913 . S
C1599 H1575 0.950 . S
C1599 C1598 1.524 . S
C1599 C1600 1.415 . S
C1600 H1576 0.950 . S
C1600 C1595 1.363 . S
C1600 C1599 1.415 . S
C1601 H1577 0.951 . S
C1601 C1602 1.366 . S
C1601 C1603 1.388 . S
C1602 C1601 1.366 . S
C1602 C1606 1.385 . S
C1603 H1578 0.951 . S
C1603 C1601 1.388 . S
C1603 C1604 1.366 . S
C1604 C1603 1.366 . S
C1604 C1605 1.414 . S
C1604 C1607 1.499 . S
C1605 H1579 0.950 . S
C1605 C1604 1.414 . S
C1605 C1606 1.374 . S
C1606 H1580 0.950 . S
C1606 C1602 1.385 . S
C1606 C1605 1.374 . S
C1607 C1604 1.499 . S
C1607 C1608 1.373 . S
C1607 C1609 1.389 . S
C1608 H1581 0.950 . S
C1608 C1594 1.377 . S
C1608 C1607 1.373 . S
C1609 C1593 1.377 . S
C1609 C1607 1.389 . S
C1609 C1610 1.524 . S
C1610 C1609 1.524 . S
C1610 C1611 1.397 . S
C1610 C1615 1.363 . S
C1611 H1582 0.950 . S
C1611 C1610 1.397 . S
C1611 C1612 1.334 . S
C1612 H1583 0.950 . S
C1612 C1611 1.334 . S
C1612 C1613 1.287 . S
C1613 C1612 1.287 . S
C1613 C1614 1.524 . S
C1613 H1616 0.999 . S
C1614 H1584 0.950 . S
C1614 C1613 1.524 . S
C1614 C1615 1.415 . S
C1615 H1585 0.950 . S
C1615 C1610 1.363 . S
C1615 C1614 1.415 . S
H1616 C1613 0.999 . S
H1617 C1598 0.913 . S
H1618 C1636 0.951 . S
H1619 C1638 0.951 . S
H1620 C1640 0.950 . S
H1621 C1641 0.950 . S
H1622 C1643 0.950 . S
H1623 C1646 0.950 . S
H1624 C1647 0.950 . S
H1625 C1649 0.950 . S
H1626 C1650 0.950 . S
H1627 C1651 0.951 . S
H1628 C1653 0.951 . S
H1629 C1655 0.950 . S
H1630 C1656 0.950 . S
H1631 C1658 0.950 . S
H1632 C1661 0.950 . S
H1633 C1662 0.950 . S
H1634 C1664 0.950 . S
H1635 C1665 0.950 . S
C1636 H1618 0.951 . S
C1636 C1637 1.366 . S
C1636 C1638 1.388 . S
C1637 C1636 1.366 . S
C1637 C1641 1.385 . S
C1638 H1619 0.951 . S
C1638 C1636 1.388 . S
C1638 C1639 1.366 . S
C1639 C1638 1.366 . S
C1639 C1640 1.414 . S
C1639 C1642 1.499 . S
C1640 H1620 0.950 . S
C1640 C1639 1.414 . S
C1640 C1641 1.374 . S
C1641 H1621 0.950 . S
C1641 C1637 1.385 . S
C1641 C1640 1.374 . S
C1642 C1639 1.499 . S
C1642 C1643 1.373 . S
C1642 C1644 1.389 . S
C1643 H1622 0.950 . S
C1643 C1642 1.373 . S
C1643 C1659 1.377 . S
C1644 C1642 1.389 . S
C1644 C1645 1.524 . S
C1644 C1658 1.377 . S
C1645 C1644 1.524 . S
C1645 C1646 1.397 . S
C1645 C1650 1.363 . S
C1646 H1623 0.950 . S
C1646 C1645 1.397 . S
C1646 C1647 1.334 . S
C1647 H1624 0.950 . S
C1647 C1646 1.334 . S
C1647 C1648 1.287 . S
C1648 C1647 1.287 . S
C1648 C1649 1.524 . S
C1648 H1667 0.913 . S
C1649 H1625 0.950 . S
C1649 C1648 1.524 . S
C1649 C1650 1.415 . S
C1650 H1626 0.950 . S
C1650 C1645 1.363 . S
C1650 C1649 1.415 . S
C1651 H1627 0.951 . S
C1651 C1652 1.366 . S
C1651 C1653 1.388 . S
C1652 C1651 1.366 . S
C1652 C1656 1.385 . S
C1653 H1628 0.951 . S
C1653 C1651 1.388 . S
C1653 C1654 1.366 . S
C1654 C1653 1.366 . S
C1654 C1655 1.414 . S
C1654 C1657 1.499 . S
C1655 H1629 0.950 . S
C1655 C1654 1.414 . S
C1655 C1656 1.374 . S
C1656 H1630 0.950 . S
C1656 C1652 1.385 . S
C1656 C1655 1.374 . S
C1657 C1654 1.499 . S
C1657 C1658 1.373 . S
C1657 C1659 1.389 . S
C1658 H1631 0.950 . S
C1658 C1644 1.377 . S
C1658 C1657 1.373 . S
C1659 C1643 1.377 . S
C1659 C1657 1.389 . S
C1659 C1660 1.524 . S
C1660 C1659 1.524 . S
C1660 C1661 1.397 . S
C1660 C1665 1.363 . S
C1661 H1632 0.950 . S
C1661 C1660 1.397 . S
C1661 C1662 1.334 . S
C1662 H1633 0.950 . S
C1662 C1661 1.334 . S
C1662 C1663 1.287 . S
C1663 C1662 1.287 . S
C1663 C1664 1.524 . S
C1663 H1666 0.999 . S
C1664 H1634 0.950 . S
C1664 C1663 1.524 . S
C1664 C1665 1.415 . S
C1665 H1635 0.950 . S
C1665 C1660 1.363 . S
C1665 C1664 1.415 . S
H1666 C1663 0.999 . S
H1667 C1648 0.913 . S
H1668 C1686 0.951 . S
H1669 C1688 0.951 . S
H1670 C1690 0.950 . S
H1671 C1691 0.950 . S
H1672 C1693 0.950 . S
H1673 C1696 0.950 . S
H1674 C1697 0.950 . S
H1675 C1699 0.950 . S
H1676 C1700 0.950 . S
H1677 C1701 0.951 . S
H1678 C1703 0.951 . S
H1679 C1705 0.950 . S
H1680 C1706 0.950 . S
H1681 C1708 0.950 . S
H1682 C1711 0.950 . S
H1683 C1712 0.950 . S
H1684 C1714 0.950 . S
H1685 C1715 0.950 . S
C1686 H1668 0.951 . S
C1686 C1687 1.366 . S
C1686 C1688 1.388 . S
C1687 C1686 1.366 . S
C1687 C1691 1.385 . S
C1688 H1669 0.951 . S
C1688 C1686 1.388 . S
C1688 C1689 1.366 . S
C1689 C1688 1.366 . S
C1689 C1690 1.414 . S
C1689 C1692 1.499 . S
C1690 H1670 0.950 . S
C1690 C1689 1.414 . S
C1690 C1691 1.374 . S
C1691 H1671 0.950 . S
C1691 C1687 1.385 . S
C1691 C1690 1.374 . S
C1692 C1689 1.499 . S
C1692 C1693 1.373 . S
C1692 C1694 1.389 . S
C1693 H1672 0.950 . S
C1693 C1692 1.373 . S
C1693 C1709 1.377 . S
C1694 C1692 1.389 . S
C1694 C1695 1.524 . S
C1694 C1708 1.377 . S
C1695 C1694 1.524 . S
C1695 C1696 1.397 . S
C1695 C1700 1.363 . S
C1696 H1673 0.950 . S
C1696 C1695 1.397 . S
C1696 C1697 1.334 . S
C1697 H1674 0.950 . S
C1697 C1696 1.334 . S
C1697 C1698 1.287 . S
C1698 C1697 1.287 . S
C1698 C1699 1.524 . S
C1698 H1717 0.913 . S
C1699 H1675 0.950 . S
C1699 C1698 1.524 . S
C1699 C1700 1.415 . S
C1700 H1676 0.950 . S
C1700 C1695 1.363 . S
C1700 C1699 1.415 . S
C1701 H1677 0.951 . S
C1701 C1702 1.366 . S
C1701 C1703 1.388 . S
C1702 C1701 1.366 . S
C1702 C1706 1.385 . S
C1703 H1678 0.951 . S
C1703 C1701 1.388 . S
C1703 C1704 1.366 . S
C1704 C1703 1.366 . S
C1704 C1705 1.414 . S
C1704 C1707 1.499 . S
C1705 H1679 0.950 . S
C1705 C1704 1.414 . S
C1705 C1706 1.374 . S
C1706 H1680 0.950 . S
C1706 C1702 1.385 . S
C1706 C1705 1.374 . S
C1707 C1704 1.499 . S
C1707 C1708 1.373 . S
C1707 C1709 1.389 . S
C1708 H1681 0.950 . S
C1708 C1694 1.377 . S
C1708 C1707 1.373 . S
C1709 C1693 1.377 . S
C1709 C1707 1.389 . S
C1709 C1710 1.524 . S
C1710 C1709 1.524 . S
C1710 C1711 1.397 . S
C1710 C1715 1.363 . S
C1711 H1682 0.950 . S
C1711 C1710 1.397 . S
C1711 C1712 1.334 . S
C1712 H1683 0.950 . S
C1712 C1711 1.334 . S
C1712 C1713 1.287 . S
C1713 C1712 1.287 . S
C1713 C1714 1.524 . S
C1713 H1716 0.999 . S
C1714 H1684 0.950 . S
C1714 C1713 1.524 . S
C1714 C1715 1.415 . S
C1715 H1685 0.950 . S
C1715 C1710 1.363 . S
C1715 C1714 1.415 . S
H1716 C1713 0.999 . S
H1717 C1698 0.913 . S
H1718 C1736 0.951 . S
H1719 C1738 0.951 . S
H1720 C1740 0.950 . S
H1721 C1741 0.950 . S
H1722 C1743 0.950 . S
H1723 C1746 0.950 . S
H1724 C1747 0.950 . S
H1725 C1749 0.950 . S
H1726 C1750 0.950 . S
H1727 C1751 0.951 . S
H1728 C1753 0.951 . S
H1729 C1755 0.950 . S
H1730 C1756 0.950 . S
H1731 C1758 0.950 . S
H1732 C1761 0.950 . S
H1733 C1762 0.950 . S
H1734 C1764 0.950 . S
H1735 C1765 0.950 . S
C1736 H1718 0.951 . S
C1736 C1737 1.366 . S
C1736 C1738 1.388 . S
C1737 C1736 1.366 . S
C1737 C1741 1.385 . S
C1738 H1719 0.951 . S
C1738 C1736 1.388 . S
C1738 C1739 1.366 . S
C1739 C1738 1.366 . S
C1739 C1740 1.414 . S
C1739 C1742 1.499 . S
C1740 H1720 0.950 . S
C1740 C1739 1.414 . S
C1740 C1741 1.374 . S
C1741 H1721 0.950 . S
C1741 C1737 1.385 . S
C1741 C1740 1.374 . S
C1742 C1739 1.499 . S
C1742 C1743 1.373 . S
C1742 C1744 1.389 . S
C1743 H1722 0.950 . S
C1743 C1742 1.373 . S
C1743 C1759 1.377 . S
C1744 C1742 1.389 . S
C1744 C1745 1.524 . S
C1744 C1758 1.377 . S
C1745 C1744 1.524 . S
C1745 C1746 1.397 . S
C1745 C1750 1.363 . S
C1746 H1723 0.950 . S
C1746 C1745 1.397 . S
C1746 C1747 1.334 . S
C1747 H1724 0.950 . S
C1747 C1746 1.334 . S
C1747 C1748 1.287 . S
C1748 C1747 1.287 . S
C1748 C1749 1.524 . S
C1748 H1767 0.913 . S
C1749 H1725 0.950 . S
C1749 C1748 1.524 . S
C1749 C1750 1.415 . S
C1750 H1726 0.950 . S
C1750 C1745 1.363 . S
C1750 C1749 1.415 . S
C1751 H1727 0.951 . S
C1751 C1752 1.366 . S
C1751 C1753 1.388 . S
C1752 C1751 1.366 . S
C1752 C1756 1.385 . S
C1753 H1728 0.951 . S
C1753 C1751 1.388 . S
C1753 C1754 1.366 . S
C1754 C1753 1.366 . S
C1754 C1755 1.414 . S
C1754 C1757 1.499 . S
C1755 H1729 0.950 . S
C1755 C1754 1.414 . S
C1755 C1756 1.374 . S
C1756 H1730 0.950 . S
C1756 C1752 1.385 . S
C1756 C1755 1.374 . S
C1757 C1754 1.499 . S
C1757 C1758 1.373 . S
C1757 C1759 1.389 . S
C1758 H1731 0.950 . S
C1758 C1744 1.377 . S
C1758 C1757 1.373 . S
C1759 C1743 1.377 . S
C1759 C1757 1.389 . S
C1759 C1760 1.524 . S
C1760 C1759 1.524 . S
C1760 C1761 1.397 . S
C1760 C1765 1.363 . S
C1761 H1732 0.950 . S
C1761 C1760 1.397 . S
C1761 C1762 1.334 . S
C1762 H1733 0.950 . S
C1762 C1761 1.334 . S
C1762 C1763 1.287 . S
C1763 C1762 1.287 . S
C1763 C1764 1.524 . S
C1763 H1766 0.999 . S
C1764 H1734 0.950 . S
C1764 C1763 1.524 . S
C1764 C1765 1.415 . S
C1765 H1735 0.950 . S
C1765 C1760 1.363 . S
C1765 C1764 1.415 . S
H1766 C1763 0.999 . S
H1767 C1748 0.913 . S
H1768 C1786 0.951 . S
H1769 C1788 0.951 . S
H1770 C1790 0.950 . S
H1771 C1791 0.950 . S
H1772 C1793 0.950 . S
H1773 C1796 0.950 . S
H1774 C1797 0.950 . S
H1775 C1799 0.950 . S
H1776 C1800 0.950 . S
H1777 C1801 0.951 . S
H1778 C1803 0.951 . S
H1779 C1805 0.950 . S
H1780 C1806 0.950 . S
H1781 C1808 0.950 . S
H1782 C1811 0.950 . S
H1783 C1812 0.950 . S
H1784 C1814 0.950 . S
H1785 C1815 0.950 . S
C1786 H1768 0.951 . S
C1786 C1787 1.366 . S
C1786 C1788 1.388 . S
C1787 C1786 1.366 . S
C1787 C1791 1.385 . S
C1788 H1769 0.951 . S
C1788 C1786 1.388 . S
C1788 C1789 1.366 . S
C1789 C1788 1.366 . S
C1789 C1790 1.414 . S
C1789 C1792 1.499 . S
C1790 H1770 0.950 . S
C1790 C1789 1.414 . S
C1790 C1791 1.374 . S
C1791 H1771 0.950 . S
C1791 C1787 1.385 . S
C1791 C1790 1.374 . S
C1792 C1789 1.499 . S
C1792 C1793 1.373 . S
C1792 C1794 1.389 . S
C1793 H1772 0.950 . S
C1793 C1792 1.373 . S
C1793 C1809 1.377 . S
C1794 C1792 1.389 . S
C1794 C1795 1.524 . S
C1794 C1808 1.377 . S
C1795 C1794 1.524 . S
C1795 C1796 1.397 . S
C1795 C1800 1.363 . S
C1796 H1773 0.950 . S
C1796 C1795 1.397 . S
C1796 C1797 1.334 . S
C1797 H1774 0.950 . S
C1797 C1796 1.334 . S
C1797 C1798 1.287 . S
C1798 C1797 1.287 . S
C1798 C1799 1.524 . S
C1798 H1817 0.913 . S
C1799 H1775 0.950 . S
C1799 C1798 1.524 . S
C1799 C1800 1.415 . S
C1800 H1776 0.950 . S
C1800 C1795 1.363 . S
C1800 C1799 1.415 . S
C1801 H1777 0.951 . S
C1801 C1802 1.366 . S
C1801 C1803 1.388 . S
C1802 C1801 1.366 . S
C1802 C1806 1.385 . S
C1803 H1778 0.951 . S
C1803 C1801 1.388 . S
C1803 C1804 1.366 . S
C1804 C1803 1.366 . S
C1804 C1805 1.414 . S
C1804 C1807 1.499 . S
C1805 H1779 0.950 . S
C1805 C1804 1.414 . S
C1805 C1806 1.374 . S
C1806 H1780 0.950 . S
C1806 C1802 1.385 . S
C1806 C1805 1.374 . S
C1807 C1804 1.499 . S
C1807 C1808 1.373 . S
C1807 C1809 1.389 . S
C1808 H1781 0.950 . S
C1808 C1794 1.377 . S
C1808 C1807 1.373 . S
C1809 C1793 1.377 . S
C1809 C1807 1.389 . S
C1809 C1810 1.524 . S
C1810 C1809 1.524 . S
C1810 C1811 1.397 . S
C1810 C1815 1.363 . S
C1811 H1782 0.950 . S
C1811 C1810 1.397 . S
C1811 C1812 1.334 . S
C1812 H1783 0.950 . S
C1812 C1811 1.334 . S
C1812 C1813 1.287 . S
C1813 C1812 1.287 . S
C1813 C1814 1.524 . S
C1813 H1816 0.999 . S
C1814 H1784 0.950 . S
C1814 C1813 1.524 . S
C1814 C1815 1.415 . S
C1815 H1785 0.950 . S
C1815 C1810 1.363 . S
C1815 C1814 1.415 . S
H1816 C1813 0.999 . S
H1817 C1798 0.913 . S
H1818 C1836 0.951 . S
H1819 C1838 0.951 . S
H1820 C1840 0.950 . S
H1821 C1841 0.950 . S
H1822 C1843 0.950 . S
H1823 C1846 0.950 . S
H1824 C1847 0.950 . S
H1825 C1849 0.950 . S
H1826 C1850 0.950 . S
H1827 C1851 0.951 . S
H1828 C1853 0.951 . S
H1829 C1855 0.950 . S
H1830 C1856 0.950 . S
H1831 C1858 0.950 . S
H1832 C1861 0.950 . S
H1833 C1862 0.950 . S
H1834 C1864 0.950 . S
H1835 C1865 0.950 . S
C1836 H1818 0.951 . S
C1836 C1837 1.366 . S
C1836 C1838 1.388 . S
C1837 C1836 1.366 . S
C1837 C1841 1.385 . S
C1838 H1819 0.951 . S
C1838 C1836 1.388 . S
C1838 C1839 1.366 . S
C1839 C1838 1.366 . S
C1839 C1840 1.414 . S
C1839 C1842 1.499 . S
C1840 H1820 0.950 . S
C1840 C1839 1.414 . S
C1840 C1841 1.374 . S
C1841 H1821 0.950 . S
C1841 C1837 1.385 . S
C1841 C1840 1.374 . S
C1842 C1839 1.499 . S
C1842 C1843 1.373 . S
C1842 C1844 1.389 . S
C1843 H1822 0.950 . S
C1843 C1842 1.373 . S
C1843 C1859 1.377 . S
C1844 C1842 1.389 . S
C1844 C1845 1.524 . S
C1844 C1858 1.377 . S
C1845 C1844 1.524 . S
C1845 C1846 1.397 . S
C1845 C1850 1.363 . S
C1846 H1823 0.950 . S
C1846 C1845 1.397 . S
C1846 C1847 1.334 . S
C1847 H1824 0.950 . S
C1847 C1846 1.334 . S
C1847 C1848 1.287 . S
C1848 C1847 1.287 . S
C1848 C1849 1.524 . S
C1848 H1867 0.913 . S
C1849 H1825 0.950 . S
C1849 C1848 1.524 . S
C1849 C1850 1.415 . S
C1850 H1826 0.950 . S
C1850 C1845 1.363 . S
C1850 C1849 1.415 . S
C1851 H1827 0.951 . S
C1851 C1852 1.366 . S
C1851 C1853 1.388 . S
C1852 C1851 1.366 . S
C1852 C1856 1.385 . S
C1853 H1828 0.951 . S
C1853 C1851 1.388 . S
C1853 C1854 1.366 . S
C1854 C1853 1.366 . S
C1854 C1855 1.414 . S
C1854 C1857 1.499 . S
C1855 H1829 0.950 . S
C1855 C1854 1.414 . S
C1855 C1856 1.374 . S
C1856 H1830 0.950 . S
C1856 C1852 1.385 . S
C1856 C1855 1.374 . S
C1857 C1854 1.499 . S
C1857 C1858 1.373 . S
C1857 C1859 1.389 . S
C1858 H1831 0.950 . S
C1858 C1844 1.377 . S
C1858 C1857 1.373 . S
C1859 C1843 1.377 . S
C1859 C1857 1.389 . S
C1859 C1860 1.524 . S
C1860 C1859 1.524 . S
C1860 C1861 1.397 . S
C1860 C1865 1.363 . S
C1861 H1832 0.950 . S
C1861 C1860 1.397 . S
C1861 C1862 1.334 . S
C1862 H1833 0.950 . S
C1862 C1861 1.334 . S
C1862 C1863 1.287 . S
C1863 C1862 1.287 . S
C1863 C1864 1.524 . S
C1863 H1866 0.999 . S
C1864 H1834 0.950 . S
C1864 C1863 1.524 . S
C1864 C1865 1.415 . S
C1865 H1835 0.950 . S
C1865 C1860 1.363 . S
C1865 C1864 1.415 . S
H1866 C1863 0.999 . S
H1867 C1848 0.913 . S
H1868 C1886 0.951 . S
H1869 C1888 0.951 . S
H1870 C1890 0.950 . S
H1871 C1891 0.950 . S
H1872 C1893 0.950 . S
H1873 C1896 0.950 . S
H1874 C1897 0.950 . S
H1875 C1899 0.950 . S
H1876 C1900 0.950 . S
H1877 C1901 0.951 . S
H1878 C1903 0.951 . S
H1879 C1905 0.950 . S
H1880 C1906 0.950 . S
H1881 C1908 0.950 . S
H1882 C1911 0.950 . S
H1883 C1912 0.950 . S
H1884 C1914 0.950 . S
H1885 C1915 0.950 . S
C1886 H1868 0.951 . S
C1886 C1887 1.366 . S
C1886 C1888 1.388 . S
C1887 C1886 1.366 . S
C1887 C1891 1.385 . S
C1888 H1869 0.951 . S
C1888 C1886 1.388 . S
C1888 C1889 1.366 . S
C1889 C1888 1.366 . S
C1889 C1890 1.414 . S
C1889 C1892 1.499 . S
C1890 H1870 0.950 . S
C1890 C1889 1.414 . S
C1890 C1891 1.374 . S
C1891 H1871 0.950 . S
C1891 C1887 1.385 . S
C1891 C1890 1.374 . S
C1892 C1889 1.499 . S
C1892 C1893 1.373 . S
C1892 C1894 1.389 . S
C1893 H1872 0.950 . S
C1893 C1892 1.373 . S
C1893 C1909 1.377 . S
C1894 C1892 1.389 . S
C1894 C1895 1.524 . S
C1894 C1908 1.377 . S
C1895 C1894 1.524 . S
C1895 C1896 1.397 . S
C1895 C1900 1.363 . S
C1896 H1873 0.950 . S
C1896 C1895 1.397 . S
C1896 C1897 1.334 . S
C1897 H1874 0.950 . S
C1897 C1896 1.334 . S
C1897 C1898 1.287 . S
C1898 C1897 1.287 . S
C1898 C1899 1.524 . S
C1898 H1917 0.913 . S
C1899 H1875 0.950 . S
C1899 C1898 1.524 . S
C1899 C1900 1.415 . S
C1900 H1876 0.950 . S
C1900 C1895 1.363 . S
C1900 C1899 1.415 . S
C1901 H1877 0.951 . S
C1901 C1902 1.366 . S
C1901 C1903 1.388 . S
C1902 C1901 1.366 . S
C1902 C1906 1.385 . S
C1903 H1878 0.951 . S
C1903 C1901 1.388 . S
C1903 C1904 1.366 . S
C1904 C1903 1.366 . S
C1904 C1905 1.414 . S
C1904 C1907 1.499 . S
C1905 H1879 0.950 . S
C1905 C1904 1.414 . S
C1905 C1906 1.374 . S
C1906 H1880 0.950 . S
C1906 C1902 1.385 . S
C1906 C1905 1.374 . S
C1907 C1904 1.499 . S
C1907 C1908 1.373 . S
C1907 C1909 1.389 . S
C1908 H1881 0.950 . S
C1908 C1894 1.377 . S
C1908 C1907 1.373 . S
C1909 C1893 1.377 . S
C1909 C1907 1.389 . S
C1909 C1910 1.524 . S
C1910 C1909 1.524 . S
C1910 C1911 1.397 . S
C1910 C1915 1.363 . S
C1911 H1882 0.950 . S
C1911 C1910 1.397 . S
C1911 C1912 1.334 . S
C1912 H1883 0.950 . S
C1912 C1911 1.334 . S
C1912 C1913 1.287 . S
C1913 C1912 1.287 . S
C1913 C1914 1.524 . S
C1913 H1916 0.999 . S
C1914 H1884 0.950 . S
C1914 C1913 1.524 . S
C1914 C1915 1.415 . S
C1915 H1885 0.950 . S
C1915 C1910 1.363 . S
C1915 C1914 1.415 . S
H1916 C1913 0.999 . S
H1917 C1898 0.913 . S
H1918 C1936 0.951 . S
H1919 C1938 0.951 . S
H1920 C1940 0.950 . S
H1921 C1941 0.950 . S
H1922 C1943 0.950 . S
H1923 C1946 0.950 . S
H1924 C1947 0.950 . S
H1925 C1949 0.950 . S
H1926 C1950 0.950 . S
H1927 C1951 0.951 . S
H1928 C1953 0.951 . S
H1929 C1955 0.950 . S
H1930 C1956 0.950 . S
H1931 C1958 0.950 . S
H1932 C1961 0.950 . S
H1933 C1962 0.950 . S
H1934 C1964 0.950 . S
H1935 C1965 0.950 . S
C1936 H1918 0.951 . S
C1936 C1937 1.366 . S
C1936 C1938 1.388 . S
C1937 C1936 1.366 . S
C1937 C1941 1.385 . S
C1938 H1919 0.951 . S
C1938 C1936 1.388 . S
C1938 C1939 1.366 . S
C1939 C1938 1.366 . S
C1939 C1940 1.414 . S
C1939 C1942 1.499 . S
C1940 H1920 0.950 . S
C1940 C1939 1.414 . S
C1940 C1941 1.374 . S
C1941 H1921 0.950 . S
C1941 C1937 1.385 . S
C1941 C1940 1.374 . S
C1942 C1939 1.499 . S
C1942 C1943 1.373 . S
C1942 C1944 1.389 . S
C1943 H1922 0.950 . S
C1943 C1942 1.373 . S
C1943 C1959 1.377 . S
C1944 C1942 1.389 . S
C1944 C1945 1.524 . S
C1944 C1958 1.377 . S
C1945 C1944 1.524 . S
C1945 C1946 1.397 . S
C1945 C1950 1.363 . S
C1946 H1923 0.950 . S
C1946 C1945 1.397 . S
C1946 C1947 1.334 . S
C1947 H1924 0.950 . S
C1947 C1946 1.334 . S
C1947 C1948 1.287 . S
C1948 C1947 1.287 . S
C1948 C1949 1.524 . S
C1948 H1967 0.913 . S
C1949 H1925 0.950 . S
C1949 C1948 1.524 . S
C1949 C1950 1.415 . S
C1950 H1926 0.950 . S
C1950 C1945 1.363 . S
C1950 C1949 1.415 . S
C1951 H1927 0.951 . S
C1951 C1952 1.366 . S
C1951 C1953 1.388 . S
C1952 C1951 1.366 . S
C1952 C1956 1.385 . S
C1953 H1928 0.951 . S
C1953 C1951 1.388 . S
C1953 C1954 1.366 . S
C1954 C1953 1.366 . S
C1954 C1955 1.414 . S
C1954 C1957 1.499 . S
C1955 H1929 0.950 . S
C1955 C1954 1.414 . S
C1955 C1956 1.374 . S
C1956 H1930 0.950 . S
C1956 C1952 1.385 . S
C1956 C1955 1.374 . S
C1957 C1954 1.499 . S
C1957 C1958 1.373 . S
C1957 C1959 1.389 . S
C1958 H1931 0.950 . S
C1958 C1944 1.377 . S
C1958 C1957 1.373 . S
C1959 C1943 1.377 . S
C1959 C1957 1.389 . S
C1959 C1960 1.524 . S
C1960 C1959 1.524 . S
C1960 C1961 1.397 . S
C1960 C1965 1.363 . S
C1961 H1932 0.950 . S
C1961 C1960 1.397 . S
C1961 C1962 1.334 . S
C1962 H1933 0.950 . S
C1962 C1961 1.334 . S
C1962 C1963 1.287 . S
C1963 C1962 1.287 . S
C1963 C1964 1.524 . S
C1963 H1966 0.999 . S
C1964 H1934 0.950 . S
C1964 C1963 1.524 . S
C1964 C1965 1.415 . S
C1965 H1935 0.950 . S
C1965 C1960 1.363 . S
C1965 C1964 1.415 . S
H1966 C1963 0.999 . S
H1967 C1948 0.913 . S
C387 N2 1.546 . S
C402 N48 1.546 . S
C437 N71 1.546 . S
C452 N25 1.546 . S
C487 N94 1.547 . S
C502 N140 1.547 . S
C537 N163 1.546 . S
C552 N117 1.546 . S
C587 N186 1.546 . S
C602 N232 1.547 . S
C637 N255 1.547 . S
C652 N209 1.547 . S
C687 N278 1.546 . S
C702 N324 1.546 . S
C737 N347 1.546 . S
C752 N301 1.547 . S
C787 C108 1.653 . S
C802 C16 1.653 . S
C837 C39 1.653 . S
C852 C131 1.654 . S
C887 C62 1.653 . S
C902 C154 1.654 . S
C937 C177 1.654 . S
C952 C85 1.654 . S
C987 C200 1.653 . S
C1002 C292 1.654 . S
C1037 C223 1.654 . S
C1052 C315 1.653 . S
C1087 C246 1.654 . S
C1102 C338 1.654 . S
C1137 C269 1.653 . S
C1152 C361 1.653 . S
C1187 C237 1.677 . S
C1202 C7 1.678 . S
C1237 C260 1.678 . S
C1252 C30 1.677 . S
C1287 C53 1.677 . S
C1302 C191 1.678 . S
C1337 C76 1.677 . S
C1352 C214 1.678 . S
C1387 C99 1.677 . S
C1402 C329 1.678 . S
C1437 C122 1.678 . S
C1452 C352 1.677 . S
C1487 C145 1.678 . S
C1502 C283 1.677 . S
C1537 C306 1.678 . S
C1552 C168 1.677 . S
C1587 N12 1.570 . S
C1602 N357 1.569 . S
C1637 N288 1.569 . S
C1652 N35 1.569 . S
C1687 N58 1.569 . S
C1702 N311 1.570 . S
C1737 N334 1.569 . S
C1752 N81 1.570 . S
C1787 N219 1.569 . S
C1802 N104 1.570 . S
C1837 N127 1.569 . S
C1852 N242 1.570 . S
C1887 N265 1.570 . S
C1902 N150 1.569 . S
C1937 N196 1.569 . S
C1952 N173 1.570 . S
