# Generated by pormake.
# Topology whd, (6)-cn, num edge types: 1
# Building blocks:
#     Node 0, Type 0, BuildingBlock: OJICUG_clean_sbu_0, # of connection points: 6
#     Node 1, Type 0, BuildingBlock: OJICUG_clean_sbu_0, # of connection points: 6
#     Node 2, Type 0, BuildingBlock: OJICUG_clean_sbu_0, # of connection points: 6
#     Node 3, Type 0, BuildingBlock: OJICUG_clean_sbu_0, # of connection points: 6
#     Node 4, Type 0, BuildingBlock: OJICUG_clean_sbu_0, # of connection points: 6
#     Node 5, Type 0, BuildingBlock: OJICUG_clean_sbu_0, # of connection points: 6
#     Node 6, Type 0, BuildingBlock: OJICUG_clean_sbu_0, # of connection points: 6
#     Node 7, Type 0, BuildingBlock: OJICUG_clean_sbu_0, # of connection points: 6
#     Node 8, Type 0, BuildingBlock: OJICUG_clean_sbu_0, # of connection points: 6
#     Node 9, Type 0, BuildingBlock: OJICUG_clean_sbu_0, # of connection points: 6
#     Node 10, Type 0, BuildingBlock: OJICUG_clean_sbu_0, # of connection points: 6
#     Node 11, Type 0, BuildingBlock: OJICUG_clean_sbu_0, # of connection points: 6
#     Node 12, Type 0, BuildingBlock: OJICUG_clean_sbu_0, # of connection points: 6
#     Node 13, Type 0, BuildingBlock: OJICUG_clean_sbu_0, # of connection points: 6
#     Node 14, Type 0, BuildingBlock: OJICUG_clean_sbu_0, # of connection points: 6
#     Node 15, Type 0, BuildingBlock: OJICUG_clean_sbu_0, # of connection points: 6
#     Edge 16, Type (0, 0), BuildingBlock: TEMPAE_clean_linker_10, # of connection points: 2
#     Edge 17, Type (0, 0), BuildingBlock: TEMPAE_clean_linker_10, # of connection points: 2
#     Edge 18, Type (0, 0), BuildingBlock: TEMPAE_clean_linker_10, # of connection points: 2
#     Edge 19, Type (0, 0), BuildingBlock: TEMPAE_clean_linker_10, # of connection points: 2
#     Edge 20, Type (0, 0), BuildingBlock: TEMPAE_clean_linker_10, # of connection points: 2
#     Edge 21, Type (0, 0), BuildingBlock: TEMPAE_clean_linker_10, # of connection points: 2
#     Edge 22, Type (0, 0), BuildingBlock: TEMPAE_clean_linker_10, # of connection points: 2
#     Edge 23, Type (0, 0), BuildingBlock: TEMPAE_clean_linker_10, # of connection points: 2
#     Edge 24, Type (0, 0), BuildingBlock: TEMPAE_clean_linker_10, # of connection points: 2
#     Edge 25, Type (0, 0), BuildingBlock: TEMPAE_clean_linker_10, # of connection points: 2
#     Edge 26, Type (0, 0), BuildingBlock: TEMPAE_clean_linker_10, # of connection points: 2
#     Edge 27, Type (0, 0), BuildingBlock: TEMPAE_clean_linker_10, # of connection points: 2
#     Edge 28, Type (0, 0), BuildingBlock: TEMPAE_clean_linker_10, # of connection points: 2
#     Edge 29, Type (0, 0), BuildingBlock: TEMPAE_clean_linker_10, # of connection points: 2
#     Edge 30, Type (0, 0), BuildingBlock: TEMPAE_clean_linker_10, # of connection points: 2
#     Edge 31, Type (0, 0), BuildingBlock: TEMPAE_clean_linker_10, # of connection points: 2
#     Edge 32, Type (0, 0), BuildingBlock: TEMPAE_clean_linker_10, # of connection points: 2
#     Edge 33, Type (0, 0), BuildingBlock: TEMPAE_clean_linker_10, # of connection points: 2
#     Edge 34, Type (0, 0), BuildingBlock: TEMPAE_clean_linker_10, # of connection points: 2
#     Edge 35, Type (0, 0), BuildingBlock: TEMPAE_clean_linker_10, # of connection points: 2
#     Edge 36, Type (0, 0), BuildingBlock: TEMPAE_clean_linker_10, # of connection points: 2
#     Edge 37, Type (0, 0), BuildingBlock: TEMPAE_clean_linker_10, # of connection points: 2
#     Edge 38, Type (0, 0), BuildingBlock: TEMPAE_clean_linker_10, # of connection points: 2
#     Edge 39, Type (0, 0), BuildingBlock: TEMPAE_clean_linker_10, # of connection points: 2
#     Edge 40, Type (0, 0), BuildingBlock: TEMPAE_clean_linker_10, # of connection points: 2
#     Edge 41, Type (0, 0), BuildingBlock: TEMPAE_clean_linker_10, # of connection points: 2
#     Edge 42, Type (0, 0), BuildingBlock: TEMPAE_clean_linker_10, # of connection points: 2
#     Edge 43, Type (0, 0), BuildingBlock: TEMPAE_clean_linker_10, # of connection points: 2
#     Edge 44, Type (0, 0), BuildingBlock: TEMPAE_clean_linker_10, # of connection points: 2
#     Edge 45, Type (0, 0), BuildingBlock: TEMPAE_clean_linker_10, # of connection points: 2
#     Edge 46, Type (0, 0), BuildingBlock: TEMPAE_clean_linker_10, # of connection points: 2
#     Edge 47, Type (0, 0), BuildingBlock: TEMPAE_clean_linker_10, # of connection points: 2
#     Edge 48, Type (0, 0), BuildingBlock: TEMPAE_clean_linker_10, # of connection points: 2
#     Edge 49, Type (0, 0), BuildingBlock: TEMPAE_clean_linker_10, # of connection points: 2
#     Edge 50, Type (0, 0), BuildingBlock: TEMPAE_clean_linker_10, # of connection points: 2
#     Edge 51, Type (0, 0), BuildingBlock: TEMPAE_clean_linker_10, # of connection points: 2
#     Edge 52, Type (0, 0), BuildingBlock: TEMPAE_clean_linker_10, # of connection points: 2
#     Edge 53, Type (0, 0), BuildingBlock: TEMPAE_clean_linker_10, # of connection points: 2
#     Edge 54, Type (0, 0), BuildingBlock: TEMPAE_clean_linker_10, # of connection points: 2
#     Edge 55, Type (0, 0), BuildingBlock: TEMPAE_clean_linker_10, # of connection points: 2
#     Edge 56, Type (0, 0), BuildingBlock: TEMPAE_clean_linker_10, # of connection points: 2
#     Edge 57, Type (0, 0), BuildingBlock: TEMPAE_clean_linker_10, # of connection points: 2
#     Edge 58, Type (0, 0), BuildingBlock: TEMPAE_clean_linker_10, # of connection points: 2
#     Edge 59, Type (0, 0), BuildingBlock: TEMPAE_clean_linker_10, # of connection points: 2
#     Edge 60, Type (0, 0), BuildingBlock: TEMPAE_clean_linker_10, # of connection points: 2
#     Edge 61, Type (0, 0), BuildingBlock: TEMPAE_clean_linker_10, # of connection points: 2
#     Edge 62, Type (0, 0), BuildingBlock: TEMPAE_clean_linker_10, # of connection points: 2
#     Edge 63, Type (0, 0), BuildingBlock: TEMPAE_clean_linker_10, # of connection points: 2
# Relax obj value: 0.256
# Max RMSD: 0.229
# Mean RMSD: 0.229
data_MOF--net-whd--node1-OJICUG_clean_sbu_0--edge1-TEMPAE_clean_linker_10
_symmetry_space_group_name_H-M    P1
_symmetry_Int_Tables_number       1
_symmetry_cell_setting            triclinic
loop_
_symmetry_equiv_pos_as_xyz
'x, y, z'
_cell_length_a     52.695626
_cell_length_b     52.574809
_cell_length_c     30.88666
_cell_angle_alpha  89.967091
_cell_angle_beta   90.031884
_cell_angle_gamma 90.02446
loop_
_atom_site_label
_atom_site_type_symbol
_atom_site_fract_x
_atom_site_fract_y
_atom_site_fract_z
_atom_type_partial_charge
Sc0 Sc 0.16592 0.3448 0.32238 0.0
Sc1 Sc 0.19906 0.39633 0.27538 0.0
Sc2 Sc 0.15529 0.40703 0.35908 0.0
O3 O 0.17337 0.3827 0.31882 0.0
C4 C 0.11089 0.37023 0.33085 0.0
C5 C 0.16983 0.3538 0.22053 0.0
C6 C 0.15797 0.43976 0.27174 0.0
C7 C 0.22576 0.3464 0.31015 0.0
C8 C 0.16357 0.35934 0.42189 0.0
C9 C 0.212 0.42723 0.36083 0.0
O10 O 0.12567 0.35144 0.32459 0.0
O11 O 0.18377 0.37347 0.22365 0.0
O12 O 0.15023 0.43574 0.31007 0.0
O13 O 0.20546 0.3349 0.32065 0.0
O14 O 0.15768 0.38228 0.41414 0.0
O15 O 0.21721 0.42094 0.32214 0.0
O16 O 0.16839 0.34349 0.39201 0.0
O17 O 0.22627 0.36839 0.29343 0.0
O18 O 0.19079 0.42284 0.37889 0.0
O19 O 0.1621 0.34144 0.25331 0.0
O20 O 0.11868 0.39216 0.34209 0.0
O21 O 0.17469 0.42611 0.25362 0.0
Sc22 Sc 0.33617 0.82044 0.67142 0.0
Sc23 Sc 0.39036 0.78407 0.69857 0.0
Sc24 Sc 0.39581 0.83624 0.62868 0.0
O25 O 0.37406 0.81361 0.66635 0.0
C26 C 0.34479 0.83457 0.57274 0.0
C27 C 0.33907 0.76025 0.66353 0.0
C28 C 0.41628 0.78127 0.60584 0.0
C29 C 0.3509 0.80491 0.76811 0.0
C30 C 0.36097 0.8759 0.6774 0.0
C31 C 0.43335 0.82541 0.70795 0.0
O32 O 0.33064 0.82626 0.60286 0.0
O33 O 0.36179 0.75852 0.67663 0.0
O34 O 0.41068 0.80394 0.59516 0.0
O35 O 0.33673 0.81591 0.74059 0.0
O36 O 0.38192 0.86982 0.65982 0.0
O37 O 0.42102 0.80669 0.72309 0.0
O38 O 0.34254 0.86043 0.68191 0.0
O39 O 0.37054 0.79242 0.7575 0.0
O40 O 0.42707 0.83668 0.67324 0.0
O41 O 0.32685 0.78106 0.66132 0.0
O42 O 0.36809 0.83947 0.57848 0.0
O43 O 0.41208 0.77221 0.64328 0.0
Sc44 Sc 0.82166 0.63411 0.32163 0.0
Sc45 Sc 0.78366 0.58031 0.29977 0.0
Sc46 Sc 0.83936 0.5743 0.36215 0.0
O47 O 0.8149 0.59622 0.32774 0.0
C48 C 0.87726 0.61067 0.31216 0.0
C49 C 0.80277 0.6192 0.22699 0.0
C50 C 0.82516 0.53759 0.28354 0.0
C51 C 0.76189 0.63256 0.33432 0.0
C52 C 0.83698 0.62472 0.41984 0.0
C53 C 0.78553 0.5526 0.39142 0.0
O54 O 0.86113 0.62844 0.30773 0.0
O55 O 0.79039 0.59961 0.23894 0.0
O56 O 0.83938 0.54443 0.31466 0.0
O57 O 0.78307 0.64401 0.33442 0.0
O58 O 0.84213 0.60135 0.41415 0.0
O59 O 0.77363 0.55933 0.35747 0.0
O60 O 0.82896 0.63898 0.3896 0.0
O61 O 0.75909 0.60961 0.32285 0.0
O62 O 0.80902 0.55687 0.39699 0.0
O63 O 0.8149 0.63328 0.25324 0.0
O64 O 0.87215 0.58971 0.33059 0.0
O65 O 0.80464 0.5489 0.27403 0.0
Sc66 Sc 0.62849 0.16809 0.6733 0.0
Sc67 Sc 0.57423 0.19598 0.71895 0.0
Sc68 Sc 0.56819 0.14468 0.64607 0.0
O69 O 0.59027 0.16952 0.67947 0.0
C70 C 0.61065 0.15673 0.57615 0.0
C71 C 0.61827 0.22724 0.67374 0.0
C72 C 0.53763 0.19707 0.63825 0.0
C73 C 0.62154 0.17897 0.77471 0.0
C74 C 0.61416 0.10962 0.67741 0.0
C75 C 0.53932 0.14733 0.7358 0.0
O76 O 0.62723 0.16234 0.60443 0.0
O77 O 0.59917 0.22581 0.69853 0.0
O78 O 0.54202 0.1741 0.62775 0.0
O79 O 0.63501 0.17353 0.74182 0.0
O80 O 0.59211 0.11279 0.66154 0.0
O81 O 0.54721 0.16952 0.74474 0.0
O82 O 0.62928 0.1279 0.68527 0.0
O83 O 0.59858 0.18607 0.77175 0.0
O84 O 0.54583 0.13539 0.70189 0.0
O85 O 0.63037 0.20798 0.66011 0.0
O86 O 0.58796 0.15093 0.58594 0.0
O87 O 0.54866 0.20842 0.66922 0.0
Sc88 Sc 0.14422 0.56934 0.60523 0.0
Sc89 Sc 0.19926 0.57158 0.67024 0.0
Sc90 Sc 0.16944 0.62816 0.63684 0.0
O91 O 0.17094 0.58966 0.63751 0.0
C92 C 0.1537 0.61495 0.53975 0.0
C93 C 0.19545 0.53904 0.58436 0.0
C94 C 0.22834 0.6181 0.62749 0.0
C95 C 0.15151 0.53607 0.68996 0.0
C96 C 0.11129 0.61368 0.64771 0.0
C97 C 0.18532 0.61625 0.73478 0.0
O98 O 0.1474 0.59211 0.54771 0.0
O99 O 0.20835 0.54788 0.61569 0.0
O100 O 0.20856 0.63102 0.61955 0.0
O101 O 0.13805 0.54411 0.65873 0.0
O102 O 0.12994 0.6286 0.65371 0.0
O103 O 0.19282 0.59368 0.72758 0.0
O104 O 0.11347 0.59215 0.62936 0.0
O105 O 0.17403 0.54362 0.69685 0.0
O106 O 0.17767 0.63103 0.70493 0.0
O107 O 0.17223 0.54451 0.57807 0.0
O108 O 0.16115 0.6302 0.56894 0.0
O109 O 0.22808 0.59728 0.64824 0.0
Sc110 Sc 0.57603 0.83588 0.39814 0.0
Sc111 Sc 0.57785 0.78276 0.32885 0.0
Sc112 Sc 0.63434 0.81493 0.35684 0.0
O113 O 0.59607 0.8112 0.36122 0.0
C114 C 0.61536 0.87238 0.35069 0.0
C115 C 0.53869 0.82832 0.31818 0.0
C116 C 0.61856 0.8006 0.25979 0.0
C117 C 0.55057 0.78232 0.42022 0.0
C118 C 0.62569 0.82908 0.45577 0.0
C119 C 0.62727 0.75516 0.36389 0.0
O120 O 0.59447 0.86839 0.37016 0.0
O121 O 0.54805 0.80721 0.30639 0.0
O122 O 0.63411 0.80907 0.28778 0.0
O123 O 0.55615 0.80529 0.42903 0.0
O124 O 0.6397 0.82155 0.42496 0.0
O125 O 0.60533 0.75485 0.34707 0.0
O126 O 0.60251 0.83472 0.45055 0.0
O127 O 0.55652 0.77165 0.38481 0.0
O128 O 0.64 0.77535 0.37006 0.0
O129 O 0.54674 0.84055 0.35077 0.0
O130 O 0.63165 0.85499 0.34382 0.0
O131 O 0.59729 0.79097 0.26982 0.0
Sc132 Sc 0.82467 0.40766 0.59724 0.0
Sc133 Sc 0.78142 0.40063 0.68295 0.0
Sc134 Sc 0.81287 0.34704 0.63954 0.0
O135 O 0.80631 0.38509 0.64003 0.0
C136 C 0.81367 0.35853 0.53906 0.0
C137 C 0.76855 0.42957 0.5952 0.0
C138 C 0.75335 0.34991 0.6561 0.0
C139 C 0.82409 0.44279 0.68165 0.0
C140 C 0.8684 0.37041 0.62592 0.0
C141 C 0.81062 0.35913 0.74053 0.0
O142 O 0.82083 0.38131 0.54481 0.0
O143 O 0.76355 0.42448 0.63454 0.0
O144 O 0.77345 0.33801 0.64601 0.0
O145 O 0.83122 0.43749 0.64347 0.0
O146 O 0.85311 0.35223 0.6335 0.0
O147 O 0.7966 0.37869 0.7362 0.0
O148 O 0.8611 0.39243 0.61435 0.0
O149 O 0.80703 0.4303 0.70131 0.0
O150 O 0.81828 0.34604 0.70853 0.0
O151 O 0.78946 0.42394 0.5771 0.0
O152 O 0.80846 0.3437 0.57031 0.0
O153 O 0.75306 0.37279 0.66897 0.0
Sc154 Sc 0.41797 0.15163 0.37547 0.0
Sc155 Sc 0.41294 0.20286 0.30259 0.0
Sc156 Sc 0.35824 0.17659 0.34929 0.0
O157 O 0.39641 0.17698 0.34247 0.0
C158 C 0.37086 0.11779 0.34528 0.0
C159 C 0.44705 0.15352 0.28632 0.0
C160 C 0.36546 0.18634 0.24739 0.0
C161 C 0.44947 0.20362 0.3828 0.0
C162 C 0.3765 0.16496 0.44626 0.0
C163 C 0.36894 0.23533 0.34601 0.0
O164 O 0.39301 0.12029 0.36113 0.0
O165 O 0.44032 0.17621 0.27813 0.0
O166 O 0.35174 0.1822 0.28061 0.0
O167 O 0.44517 0.18048 0.39244 0.0
O168 O 0.35974 0.17076 0.41834 0.0
O169 O 0.38777 0.23304 0.32078 0.0
O170 O 0.399 0.15881 0.4359 0.0
O171 O 0.43805 0.21552 0.35283 0.0
O172 O 0.35719 0.2165 0.36207 0.0
O173 O 0.43936 0.14137 0.31927 0.0
O174 O 0.35635 0.13653 0.33742 0.0
O175 O 0.38879 0.19228 0.24992 0.0
Sc176 Sc 0.65757 0.84572 0.85504 0.0
Sc177 Sc 0.69526 0.89962 0.83307 0.0
Sc178 Sc 0.63833 0.90576 0.89225 0.0
O179 O 0.6637 0.88373 0.85998 0.0
C180 C 0.60171 0.86768 0.84229 0.0
C181 C 0.67825 0.8597 0.76105 0.0
C182 C 0.65319 0.94155 0.81307 0.0
C183 C 0.71709 0.84779 0.87015 0.0
C184 C 0.6409 0.85644 0.95214 0.0
C185 C 0.6916 0.92873 0.92286 0.0
O186 O 0.61846 0.85052 0.83813 0.0
O187 O 0.68955 0.87996 0.77265 0.0
O188 O 0.6381 0.93441 0.84275 0.0
O189 O 0.6958 0.83658 0.87111 0.0
O190 O 0.63596 0.87978 0.94577 0.0
O191 O 0.70429 0.92078 0.89065 0.0
O192 O 0.6488 0.84178 0.92245 0.0
O193 O 0.71993 0.87043 0.8569 0.0
O194 O 0.66789 0.92496 0.9269 0.0
O195 O 0.66612 0.84556 0.78724 0.0
O196 O 0.606 0.88876 0.86103 0.0
O197 O 0.67442 0.93092 0.80609 0.0
Sc198 Sc 0.85423 0.3122 0.14062 0.0
Sc199 Sc 0.90897 0.28602 0.18784 0.0
Sc200 Sc 0.91425 0.33685 0.11406 0.0
O201 O 0.8925 0.31171 0.14744 0.0
C202 C 0.8722 0.32376 0.04358 0.0
C203 C 0.86507 0.25325 0.1444 0.0
C204 C 0.94557 0.28484 0.10721 0.0
C205 C 0.86114 0.30266 0.24254 0.0
C206 C 0.8676 0.37107 0.14455 0.0
C207 C 0.94334 0.33513 0.20374 0.0
O208 O 0.85567 0.31733 0.07144 0.0
O209 O 0.88442 0.25571 0.16842 0.0
O210 O 0.94074 0.30764 0.09607 0.0
O211 O 0.84765 0.30739 0.2093 0.0
O212 O 0.88992 0.36835 0.12962 0.0
O213 O 0.9357 0.31293 0.21324 0.0
O214 O 0.85266 0.3525 0.15134 0.0
O215 O 0.88429 0.2961 0.24009 0.0
O216 O 0.93659 0.34669 0.16959 0.0
O217 O 0.85272 0.27201 0.12931 0.0
O218 O 0.89458 0.33039 0.05396 0.0
O219 O 0.93481 0.27357 0.13857 0.0
Sc220 Sc 0.31702 0.14187 0.85046 0.0
Sc221 Sc 0.28554 0.08864 0.80583 0.0
Sc222 Sc 0.32706 0.08097 0.8935 0.0
O223 O 0.3099 0.10388 0.84981 0.0
C224 C 0.37191 0.11705 0.86512 0.0
C225 C 0.31528 0.13014 0.74931 0.0
C226 C 0.32715 0.04593 0.80893 0.0
C227 C 0.25751 0.13922 0.83331 0.0
C228 C 0.31706 0.1305 0.95111 0.0
C229 C 0.27083 0.05988 0.89298 0.0
O230 O 0.35725 0.13566 0.85668 0.0
O231 O 0.30126 0.11058 0.75324 0.0
O232 O 0.33328 0.05065 0.84787 0.0
O233 O 0.2775 0.15126 0.84396 0.0
O234 O 0.32347 0.10748 0.9457 0.0
O235 O 0.26693 0.06455 0.85312 0.0
O236 O 0.31258 0.14538 0.91963 0.0
O237 O 0.25748 0.11652 0.81961 0.0
O238 O 0.29123 0.06571 0.91256 0.0
O239 O 0.32268 0.14319 0.78153 0.0
O240 O 0.3639 0.09538 0.87728 0.0
O241 O 0.31121 0.05915 0.78806 0.0
Sc242 Sc 0.14003 0.66609 0.13561 0.0
Sc243 Sc 0.0843 0.69683 0.17115 0.0
Sc244 Sc 0.08076 0.64722 0.09508 0.0
O245 O 0.1017 0.66999 0.13404 0.0
C246 C 0.12964 0.65571 0.03592 0.0
C247 C 0.13269 0.726 0.1358 0.0
C248 C 0.05611 0.70186 0.08082 0.0
C249 C 0.12651 0.6759 0.23517 0.0
C250 C 0.12022 0.60866 0.13674 0.0
C251 C 0.04467 0.65169 0.17757 0.0
O252 O 0.14409 0.66244 0.06668 0.0
O253 O 0.11119 0.72535 0.15408 0.0
O254 O 0.0617 0.67951 0.06831 0.0
O255 O 0.14137 0.66881 0.20513 0.0
O256 O 0.09888 0.61359 0.11938 0.0
O257 O 0.0551 0.67156 0.19246 0.0
O258 O 0.13709 0.62552 0.14378 0.0
O259 O 0.10509 0.68604 0.22781 0.0
O260 O 0.05152 0.64133 0.1424 0.0
O261 O 0.14553 0.70623 0.12683 0.0
O262 O 0.10664 0.64958 0.04181 0.0
O263 O 0.06173 0.71044 0.11803 0.0
Sc264 Sc 0.65737 0.0751 0.13264 0.0
Sc265 Sc 0.70225 0.08257 0.21578 0.0
Sc266 Sc 0.67017 0.13598 0.17303 0.0
O267 O 0.67657 0.09789 0.17395 0.0
C268 C 0.66757 0.12377 0.07288 0.0
C269 C 0.71305 0.05249 0.12847 0.0
C270 C 0.73006 0.13265 0.18505 0.0
C271 C 0.65948 0.04069 0.21812 0.0
C272 C 0.61431 0.11276 0.16267 0.0
C273 C 0.6744 0.12465 0.2739 0.0
O274 O 0.66041 0.10104 0.07936 0.0
O275 O 0.71872 0.05777 0.16745 0.0
O276 O 0.70981 0.14483 0.17686 0.0
O277 O 0.6517 0.04562 0.1801 0.0
O278 O 0.62977 0.13092 0.16938 0.0
O279 O 0.68853 0.10522 0.26923 0.0
O280 O 0.6213 0.09066 0.15102 0.0
O281 O 0.67675 0.05345 0.23673 0.0
O282 O 0.66599 0.13744 0.24208 0.0
O283 O 0.69204 0.05843 0.11102 0.0
O284 O 0.67329 0.13877 0.1036 0.0
O285 O 0.73049 0.10984 0.19827 0.0
Sc286 Sc 0.0611 0.33299 0.85126 0.0
Sc287 Sc 0.06924 0.28379 0.77469 0.0
Sc288 Sc 0.12223 0.31277 0.82287 0.0
O289 O 0.08415 0.30989 0.81625 0.0
C290 C 0.10567 0.37064 0.82316 0.0
C291 C 0.03277 0.33162 0.76093 0.0
C292 C 0.11589 0.3043 0.72064 0.0
C293 C 0.03251 0.27926 0.85469 0.0
C294 C 0.10375 0.32065 0.92068 0.0
C295 C 0.11447 0.25338 0.81807 0.0
O296 O 0.08372 0.3663 0.83862 0.0
O297 O 0.04132 0.30991 0.75043 0.0
O298 O 0.12907 0.30955 0.75399 0.0
O299 O 0.03608 0.30209 0.86688 0.0
O300 O 0.12059 0.31649 0.89214 0.0
O301 O 0.09533 0.25443 0.79326 0.0
O302 O 0.08089 0.32589 0.91113 0.0
O303 O 0.044 0.26904 0.82312 0.0
O304 O 0.12572 0.27283 0.8329 0.0
O305 O 0.03876 0.34284 0.79583 0.0
O306 O 0.1214 0.35312 0.81419 0.0
O307 O 0.09331 0.29598 0.72292 0.0
Sc308 Sc 0.33692 0.91432 0.13212 0.0
Sc309 Sc 0.28019 0.91074 0.19268 0.0
Sc310 Sc 0.31655 0.85558 0.17313 0.0
O311 O 0.31121 0.89358 0.16612 0.0
C312 C 0.33254 0.86395 0.07496 0.0
C313 C 0.28428 0.93827 0.10119 0.0
C314 C 0.25693 0.85891 0.15957 0.0
C315 C 0.32356 0.95165 0.21005 0.0
C316 C 0.37305 0.87646 0.1829 0.0
C317 C 0.29675 0.87144 0.26661 0.0
O318 O 0.33853 0.88715 0.08025 0.0
O319 O 0.2716 0.93171 0.13436 0.0
O320 O 0.27787 0.8471 0.1601 0.0
O321 O 0.33797 0.94395 0.17982 0.0
O322 O 0.35603 0.85963 0.18783 0.0
O323 O 0.28527 0.89143 0.25398 0.0
O324 O 0.36904 0.89746 0.16382 0.0
O325 O 0.30226 0.9415 0.21851 0.0
O326 O 0.30908 0.85705 0.24117 0.0
O327 O 0.3077 0.93329 0.09673 0.0
O328 O 0.32406 0.85011 0.10541 0.0
O329 O 0.25453 0.88213 0.16972 0.0
Sc330 Sc 0.90686 0.64829 0.86235 0.0
Sc331 Sc 0.90201 0.7026 0.79572 0.0
Sc332 Sc 0.84752 0.66701 0.82262 0.0
O333 O 0.88551 0.67254 0.82673 0.0
C334 C 0.86971 0.61094 0.81191 0.0
C335 C 0.94473 0.66042 0.78457 0.0
C336 C 0.8625 0.68351 0.72584 0.0
C337 C 0.92766 0.70328 0.88852 0.0
C338 C 0.85685 0.65041 0.92041 0.0
C339 C 0.85149 0.72663 0.83291 0.0
O340 O 0.89052 0.61545 0.83144 0.0
O341 O 0.93392 0.68096 0.77353 0.0
O342 O 0.84716 0.67475 0.75394 0.0
O343 O 0.92398 0.67969 0.89556 0.0
O344 O 0.84253 0.65826 0.89023 0.0
O345 O 0.87265 0.72858 0.81381 0.0
O346 O 0.88026 0.64607 0.91469 0.0
O347 O 0.92164 0.71428 0.85335 0.0
O348 O 0.8402 0.7057 0.83964 0.0
O349 O 0.93699 0.64679 0.81577 0.0
O350 O 0.85246 0.62761 0.80668 0.0
O351 O 0.88368 0.69344 0.73582 0.0
C352 C 0.13468 0.48112 0.27003 0.0
C353 C 0.14858 0.46234 0.24822 0.0
C354 C 0.12844 0.50405 0.24955 0.0
C355 C 0.13618 0.50815 0.20626 0.0
C356 C 0.14901 0.48878 0.18333 0.0
C357 C 0.15509 0.46608 0.20462 0.0
C358 C 0.11465 0.52434 0.27493 0.0
C359 C 0.15737 0.49249 0.13698 0.0
C360 C 0.10663 0.56337 0.14592 0.0
C361 C 0.12505 0.58239 0.15169 0.0
C362 C 0.11015 0.53892 0.1629 0.0
C363 C 0.13259 0.53342 0.18615 0.0
C364 C 0.15151 0.55227 0.19124 0.0
C365 C 0.14753 0.57654 0.1739 0.0
C366 C 0.08963 0.51916 0.15687 0.0
C367 C 0.17574 0.547 0.21587 0.0
H368 H 0.1295 0.47837 0.30367 0.0
H369 H 0.16559 0.45155 0.18735 0.0
H370 H 0.12744 0.54084 0.28013 0.0
H371 H 0.09796 0.5313 0.2565 0.0
H372 H 0.10812 0.51737 0.307 0.0
H373 H 0.16502 0.47473 0.12255 0.0
H374 H 0.14128 0.49922 0.11685 0.0
H375 H 0.17234 0.50732 0.13559 0.0
H376 H 0.0892 0.56767 0.12877 0.0
H377 H 0.16188 0.59106 0.17855 0.0
H378 H 0.08179 0.51361 0.18883 0.0
H379 H 0.09767 0.50176 0.14193 0.0
H380 H 0.07383 0.52615 0.13622 0.0
H381 H 0.17122 0.54207 0.24995 0.0
H382 H 0.18885 0.56354 0.21582 0.0
H383 H 0.18571 0.53044 0.20154 0.0
C384 C 0.46296 0.82386 0.77126 0.0
C385 C 0.45654 0.83394 0.73065 0.0
C386 C 0.48572 0.83065 0.7917 0.0
C387 C 0.50244 0.84779 0.77087 0.0
C388 C 0.49574 0.85864 0.73057 0.0
C389 C 0.47282 0.85165 0.71099 0.0
C390 C 0.49225 0.81887 0.8349 0.0
C391 C 0.51322 0.8769 0.70734 0.0
C392 C 0.55564 0.87854 0.83483 0.0
C393 C 0.5762 0.86279 0.82423 0.0
C394 C 0.53138 0.8738 0.81797 0.0
C395 C 0.52775 0.85297 0.78967 0.0
C396 C 0.54842 0.83709 0.77868 0.0
C397 C 0.57237 0.84214 0.7962 0.0
C398 C 0.50966 0.89103 0.83039 0.0
C399 C 0.54528 0.81484 0.74819 0.0
H400 H 0.4504 0.81035 0.78686 0.0
H401 H 0.46803 0.8596 0.67965 0.0
H402 H 0.50901 0.80629 0.83126 0.0
H403 H 0.49738 0.83387 0.85859 0.0
H404 H 0.47633 0.80747 0.84833 0.0
H405 H 0.50444 0.88493 0.67762 0.0
H406 H 0.5186 0.89281 0.72907 0.0
H407 H 0.53096 0.86693 0.69808 0.0
H408 H 0.55843 0.89448 0.85657 0.0
H409 H 0.58818 0.82997 0.78757 0.0
H410 H 0.49429 0.87974 0.84569 0.0
H411 H 0.50154 0.90005 0.80101 0.0
H412 H 0.5156 0.90624 0.85319 0.0
H413 H 0.53097 0.80138 0.76123 0.0
H414 H 0.56332 0.80435 0.74298 0.0
H415 H 0.5382 0.8216 0.71636 0.0
C416 C 0.87358 0.41823 0.14537 0.0
C417 C 0.85946 0.39679 0.15778 0.0
C418 C 0.86778 0.44237 0.16176 0.0
C419 C 0.84756 0.44501 0.19148 0.0
C420 C 0.83259 0.42367 0.20278 0.0
C421 C 0.83865 0.39981 0.18559 0.0
C422 C 0.88392 0.46483 0.14867 0.0
C423 C 0.81095 0.4258 0.23463 0.0
C424 C 0.85026 0.49771 0.27456 0.0
C425 C 0.83222 0.51483 0.2583 0.0
C426 C 0.85576 0.4751 0.2526 0.0
C427 C 0.84312 0.46966 0.21325 0.0
C428 C 0.82555 0.48723 0.19586 0.0
C429 C 0.8202 0.50959 0.21874 0.0
C430 C 0.87454 0.45667 0.2722 0.0
C431 C 0.81198 0.48212 0.15367 0.0
H432 H 0.88956 0.41608 0.12359 0.0
H433 H 0.82767 0.38335 0.19542 0.0
H434 H 0.87176 0.48087 0.13799 0.0
H435 H 0.89505 0.47154 0.17696 0.0
H436 H 0.89733 0.46004 0.12215 0.0
H437 H 0.80017 0.40773 0.2378 0.0
H438 H 0.81847 0.43106 0.26697 0.0
H439 H 0.79766 0.44105 0.22452 0.0
H440 H 0.85958 0.50159 0.30515 0.0
H441 H 0.80642 0.52287 0.20576 0.0
H442 H 0.8898 0.45231 0.24863 0.0
H443 H 0.86485 0.43849 0.27997 0.0
H444 H 0.88336 0.46417 0.30227 0.0
H445 H 0.8259 0.47771 0.12781 0.0
H446 H 0.80021 0.49852 0.14311 0.0
H447 H 0.79949 0.46526 0.15725 0.0
C448 C 0.40784 0.14128 0.83303 0.0
C449 C 0.39931 0.1202 0.85671 0.0
C450 C 0.43306 0.14303 0.81945 0.0
C451 C 0.45028 0.1234 0.8304 0.0
C452 C 0.44226 0.10283 0.85652 0.0
C453 C 0.41674 0.10135 0.86913 0.0
C454 C 0.4409 0.16528 0.79143 0.0
C455 C 0.46029 0.08186 0.86952 0.0
C456 C 0.50169 0.11948 0.74643 0.0
C457 C 0.51964 0.13625 0.76388 0.0
C458 C 0.47971 0.11329 0.76953 0.0
C459 C 0.47597 0.1238 0.81123 0.0
C460 C 0.49533 0.13843 0.83081 0.0
C461 C 0.51691 0.14474 0.80666 0.0
C462 C 0.45941 0.09765 0.74751 0.0
C463 C 0.49232 0.14926 0.87577 0.0
H464 H 0.39457 0.15596 0.82333 0.0
H465 H 0.41034 0.0851 0.8878 0.0
H466 H 0.45749 0.17512 0.80587 0.0
H467 H 0.44669 0.15833 0.75898 0.0
H468 H 0.42538 0.17936 0.78719 0.0
H469 H 0.4524 0.06989 0.89593 0.0
H470 H 0.46407 0.06948 0.8412 0.0
H471 H 0.47874 0.08985 0.88025 0.0
H472 H 0.50382 0.11276 0.71345 0.0
H473 H 0.53107 0.15729 0.82056 0.0
H474 H 0.44332 0.11019 0.73841 0.0
H475 H 0.45193 0.08289 0.76974 0.0
H476 H 0.46655 0.08821 0.71773 0.0
H477 H 0.4794 0.1659 0.87454 0.0
H478 H 0.51078 0.15559 0.88945 0.0
H479 H 0.48375 0.13503 0.89792 0.0
C480 C 0.12156 0.50016 0.70244 0.0
C481 C 0.14128 0.51566 0.71765 0.0
C482 C 0.11428 0.47835 0.72523 0.0
C483 C 0.1268 0.4722 0.7644 0.0
C484 C 0.14529 0.48884 0.78167 0.0
C485 C 0.15249 0.51033 0.75785 0.0
C486 C 0.09456 0.46092 0.70569 0.0
C487 C 0.15859 0.48313 0.82387 0.0
C488 C 0.09801 0.41756 0.82735 0.0
C489 C 0.11259 0.39707 0.81226 0.0
C490 C 0.10312 0.44247 0.81367 0.0
C491 C 0.12298 0.44678 0.78379 0.0
C492 C 0.13832 0.42632 0.7697 0.0
C493 C 0.13304 0.40174 0.78436 0.0
C494 C 0.08673 0.46399 0.82989 0.0
C495 C 0.1596 0.43017 0.73754 0.0
H496 H 0.11276 0.50424 0.67147 0.0
H497 H 0.16744 0.52253 0.77012 0.0
H498 H 0.10378 0.44304 0.69489 0.0
H499 H 0.08005 0.45573 0.73014 0.0
H500 H 0.08487 0.46968 0.67743 0.0
H501 H 0.16926 0.49985 0.83623 0.0
H502 H 0.14476 0.477 0.84886 0.0
H503 H 0.17218 0.46727 0.81904 0.0
H504 H 0.08232 0.4141 0.84926 0.0
H505 H 0.1444 0.38603 0.7725 0.0
H506 H 0.07461 0.47112 0.80313 0.0
H507 H 0.09869 0.48011 0.84093 0.0
H508 H 0.07424 0.45797 0.85699 0.0
H509 H 0.15173 0.43715 0.70638 0.0
H510 H 0.17035 0.41238 0.73124 0.0
H511 H 0.17302 0.44481 0.74955 0.0
C512 C 0.50241 0.85856 0.31159 0.0
C513 C 0.51676 0.83857 0.29412 0.0
C514 C 0.48015 0.86685 0.2913 0.0
C515 C 0.47223 0.85498 0.25252 0.0
C516 C 0.48731 0.83577 0.23345 0.0
C517 C 0.50939 0.82771 0.25459 0.0
C518 C 0.46442 0.88734 0.31261 0.0
C519 C 0.47951 0.82292 0.19179 0.0
C520 C 0.4018 0.85179 0.23109 0.0
C521 C 0.39852 0.87128 0.2006 0.0
C522 C 0.42572 0.84643 0.24832 0.0
C523 C 0.44692 0.86077 0.23441 0.0
C524 C 0.44384 0.88047 0.20366 0.0
C525 C 0.41958 0.8856 0.18722 0.0
C526 C 0.42829 0.82545 0.28151 0.0
C527 C 0.46616 0.89597 0.18803 0.0
H528 H 0.50802 0.86715 0.34202 0.0
H529 H 0.52057 0.8125 0.24058 0.0
H530 H 0.4594 0.90235 0.28887 0.0
H531 H 0.4464 0.87899 0.32461 0.0
H532 H 0.47444 0.89631 0.34034 0.0
H533 H 0.49466 0.81038 0.17882 0.0
H534 H 0.46229 0.81123 0.19752 0.0
H535 H 0.47462 0.8373 0.16686 0.0
H536 H 0.38557 0.8408 0.24188 0.0
H537 H 0.41716 0.90063 0.16353 0.0
H538 H 0.43645 0.83316 0.31191 0.0
H539 H 0.44149 0.81063 0.26946 0.0
H540 H 0.40981 0.81631 0.28917 0.0
H541 H 0.47544 0.9056 0.2158 0.0
H542 H 0.46053 0.9106 0.16391 0.0
H543 H 0.48053 0.88328 0.17313 0.0
C544 C 0.84312 0.5802 0.77038 0.0
C545 C 0.8653 0.58525 0.79402 0.0
C546 C 0.83853 0.55608 0.75303 0.0
C547 C 0.85654 0.53652 0.75949 0.0
C548 C 0.87902 0.54139 0.78309 0.0
C549 C 0.88316 0.56576 0.80011 0.0
C550 C 0.81434 0.55155 0.72787 0.0
C551 C 0.8986 0.52087 0.79041 0.0
C552 C 0.82914 0.47062 0.74659 0.0
C553 C 0.83509 0.4653 0.70327 0.0
C554 C 0.83719 0.49324 0.76612 0.0
C555 C 0.85147 0.51092 0.74167 0.0
C556 C 0.85868 0.50512 0.69871 0.0
C557 C 0.85043 0.48231 0.68 0.0
C558 C 0.8293 0.4988 0.81216 0.0
C559 C 0.87392 0.52359 0.67172 0.0
H560 H 0.82924 0.59511 0.7653 0.0
H561 H 0.90037 0.56949 0.81825 0.0
H562 H 0.81889 0.545 0.69463 0.0
H563 H 0.80305 0.53632 0.74363 0.0
H564 H 0.8024 0.56891 0.72551 0.0
H565 H 0.91522 0.52786 0.80909 0.0
H566 H 0.88995 0.50472 0.80821 0.0
H567 H 0.90536 0.51339 0.75888 0.0
H568 H 0.81756 0.45744 0.76501 0.0
H569 H 0.85526 0.47831 0.64658 0.0
H570 H 0.81538 0.51463 0.81239 0.0
H571 H 0.84589 0.50496 0.83164 0.0
H572 H 0.82049 0.48203 0.82809 0.0
H573 H 0.86221 0.54059 0.6644 0.0
H574 H 0.88025 0.51508 0.64064 0.0
H575 H 0.89086 0.53019 0.68987 0.0
C576 C 0.58021 0.13798 0.19776 0.0
C577 C 0.58722 0.11727 0.17184 0.0
C578 C 0.55503 0.14148 0.21048 0.0
C579 C 0.53629 0.12407 0.19631 0.0
C580 C 0.54295 0.1038 0.16849 0.0
C581 C 0.56848 0.10045 0.1569 0.0
C582 C 0.54872 0.16325 0.24058 0.0
C583 C 0.52331 0.08523 0.15211 0.0
C584 C 0.4823 0.12268 0.27568 0.0
C585 C 0.46666 0.14182 0.25877 0.0
C586 C 0.5042 0.11502 0.25366 0.0
C587 C 0.51023 0.12651 0.21352 0.0
C588 C 0.4931 0.14383 0.19419 0.0
C589 C 0.47157 0.15151 0.2173 0.0
C590 C 0.52209 0.09658 0.27546 0.0
C591 C 0.49857 0.15586 0.1508 0.0
H592 H 0.59457 0.15101 0.20959 0.0
H593 H 0.57378 0.08453 0.13654 0.0
H594 H 0.53377 0.17541 0.22608 0.0
H595 H 0.54118 0.15569 0.27157 0.0
H596 H 0.56549 0.17534 0.24783 0.0
H597 H 0.53083 0.07304 0.1257 0.0
H598 H 0.51707 0.07275 0.17904 0.0
H599 H 0.50631 0.09548 0.14008 0.0
H600 H 0.4785 0.11497 0.30759 0.0
H601 H 0.4592 0.16593 0.2037 0.0
H602 H 0.53903 0.10705 0.2873 0.0
H603 H 0.52878 0.08199 0.25223 0.0
H604 H 0.5131 0.08684 0.30346 0.0
H605 H 0.51316 0.1709 0.15481 0.0
H606 H 0.48133 0.16468 0.13651 0.0
H607 H 0.50619 0.1416 0.12776 0.0
C608 C 0.6274 0.98072 0.80156 0.0
C609 C 0.64641 0.96413 0.7871 0.0
C610 C 0.62236 0.00347 0.77965 0.0
C611 C 0.63647 0.00957 0.74209 0.0
C612 C 0.65489 -0.00757 0.72617 0.0
C613 C 0.65976 0.96992 0.74904 0.0
C614 C 0.60263 0.02142 0.79768 0.0
C615 C 0.66998 -0.00178 0.68579 0.0
C616 C 0.60832 0.06249 0.67449 0.0
C617 C 0.62183 0.08364 0.6899 0.0
C618 C 0.61373 0.03797 0.68962 0.0
C619 C 0.63286 0.03465 0.72124 0.0
C620 C 0.64725 0.05575 0.73561 0.0
C621 C 0.64166 0.08 0.71954 0.0
C622 C 0.59827 0.01579 0.67316 0.0
C623 C 0.6677 0.05292 0.76959 0.0
H624 H 0.61701 0.97641 0.83094 0.0
H625 H 0.6743 0.95704 0.73742 0.0
H626 H 0.61182 0.03949 0.80762 0.0
H627 H 0.5884 0.02613 0.77246 0.0
H628 H 0.59258 0.01331 0.82613 0.0
H629 H 0.68189 0.98187 0.67553 0.0
H630 H 0.65707 0.00339 0.65879 0.0
H631 H 0.68254 0.01479 0.69171 0.0
H632 H 0.59315 0.06515 0.6512 0.0
H633 H 0.65216 0.09625 0.73165 0.0
H634 H 0.58592 0.00853 0.69949 0.0
H635 H 0.61091 -4e-05 0.66322 0.0
H636 H 0.58609 0.02114 0.64524 0.0
H637 H 0.65903 0.04683 0.80065 0.0
H638 H 0.67823 0.07093 0.77517 0.0
H639 H 0.68142 0.03798 0.75991 0.0
C640 C 0.07575 0.34576 0.29693 0.0
C641 C 0.08365 0.36674 0.32146 0.0
C642 C 0.05056 0.34332 0.28353 0.0
C643 C 0.03269 0.36213 0.29552 0.0
C644 C 0.04017 0.38271 0.32209 0.0
C645 C 0.0657 0.38492 0.33446 0.0
C646 C 0.04334 0.32114 0.25489 0.0
C647 C 0.02146 0.4028 0.33616 0.0
C648 C 0.97996 0.36445 0.21366 0.0
C649 C 0.96301 0.34673 0.23134 0.0
C650 C 0.00196 0.37145 0.23608 0.0
C651 C 0.00676 0.36076 0.27734 0.0
C652 C 0.98836 0.34506 0.29726 0.0
C653 C 0.96674 0.33799 0.27378 0.0
C654 C 0.02121 0.3882 0.2137 0.0
C655 C -0.00748 0.33395 0.34177 0.0
H656 H 0.08948 0.33165 0.28665 0.0
H657 H 0.07165 0.40108 0.35374 0.0
H658 H 0.02745 0.31033 0.26959 0.0
H659 H 0.03676 0.32825 0.22297 0.0
H660 H 0.05943 0.30786 0.24946 0.0
H661 H 0.02929 0.41512 0.36215 0.0
H662 H 0.01649 0.415 0.3081 0.0
H663 H 0.00364 0.39391 0.3479 0.0
H664 H 0.97708 0.3714 0.18098 0.0
H665 H 0.95337 0.32469 0.28793 0.0
H666 H 0.03763 0.37645 0.2034 0.0
H667 H 0.02847 0.40299 0.23609 0.0
H668 H 0.01318 0.39769 0.18461 0.0
H669 H 0.0062 0.31796 0.33959 0.0
H670 H 0.97458 0.32659 0.35597 0.0
H671 H 0.00071 0.34835 0.364 0.0
C672 C 0.37873 0.91894 0.69387 0.0
C673 C 0.35818 0.90193 0.69466 0.0
C674 C 0.37656 0.94335 0.71159 0.0
C675 C 0.3533 0.95085 0.73036 0.0
C676 C 0.33245 0.9339 0.73103 0.0
C677 C 0.33514 0.90963 0.71317 0.0
C678 C 0.39914 0.96104 0.71047 0.0
C679 C 0.3073 0.94136 0.75079 0.0
C680 C 0.34849 0.00362 0.81273 0.0
C681 C 0.33745 0.023 0.78786 0.0
C682 C 0.35499 0.9803 0.7939 0.0
C683 C 0.35045 0.97648 0.74923 0.0
C684 C 0.34085 -0.00349 0.72345 0.0
C685 C 0.33441 0.01956 0.74312 0.0
C686 C 0.36526 0.95928 0.82229 0.0
C687 C 0.336 -0.00688 0.67559 0.0
H688 H 0.39665 0.91314 0.67977 0.0
H689 H 0.31916 0.89665 0.71394 0.0
H690 H 0.39414 0.97879 0.693 0.0
H691 H 0.40454 0.96651 0.74391 0.0
H692 H 0.41586 0.9523 0.69444 0.0
H693 H 0.29298 0.9259 0.74867 0.0
H694 H 0.30995 0.94642 0.78537 0.0
H695 H 0.29966 0.95842 0.73412 0.0
H696 H 0.35096 0.00618 0.8473 0.0
H697 H 0.32623 0.03462 0.7236 0.0
H698 H 0.38235 0.95063 0.80741 0.0
H699 H 0.35081 0.94404 0.82549 0.0
H700 H 0.37025 0.96616 0.85522 0.0
H701 H 0.35292 0.98492 0.65944 0.0
H702 H 0.33108 0.01134 0.65939 0.0
H703 H 0.32008 0.97958 0.6708 0.0
C704 C 0.01699 0.64955 0.24292 0.0
C705 C 0.02261 0.64117 0.2009 0.0
C706 C -0.00547 0.64215 0.26351 0.0
C707 C 0.9773 0.62614 0.24139 0.0
C708 C 0.98349 0.61646 0.20001 0.0
C709 C 0.00618 0.62403 0.18027 0.0
C710 C 0.98861 0.6526 0.30792 0.0
C711 C 0.96549 0.59934 0.17551 0.0
C712 C 0.92253 0.59721 0.30365 0.0
C713 C 0.90297 0.61449 0.29434 0.0
C714 C 0.94692 0.60068 0.28658 0.0
C715 C 0.95171 0.62181 0.25949 0.0
C716 C 0.93205 0.63922 0.24977 0.0
C717 C 0.90794 0.63539 0.26741 0.0
C718 C 0.96757 0.58184 0.29763 0.0
C719 C 0.93649 0.66193 0.2207 0.0
H720 H 0.02979 0.66249 0.25934 0.0
H721 H 0.01045 0.61739 0.14787 0.0
H722 H 0.97275 0.6664 0.30552 0.0
H723 H 0.9824 0.63712 0.32993 0.0
H724 H 0.00519 0.66239 0.32264 0.0
H725 H 0.97433 0.59123 0.14594 0.0
H726 H 0.95893 0.5835 0.19643 0.0
H727 H 0.94846 0.61036 0.16573 0.0
H728 H 0.91885 0.58102 0.32447 0.0
H729 H 0.89291 0.64873 0.25978 0.0
H730 H 0.98345 0.59173 0.31416 0.0
H731 H 0.97534 0.57334 0.26758 0.0
H732 H 0.96065 0.56628 0.31893 0.0
H733 H 0.9514 0.67433 0.23477 0.0
H734 H 0.91904 0.67346 0.21593 0.0
H735 H 0.94335 0.65552 0.18855 0.0
C736 C 0.65599 0.01316 0.28379 0.0
C737 C 0.64925 0.0181 0.24064 0.0
C738 C 0.64883 0.99044 0.30404 0.0
C739 C 0.63465 0.97227 0.28051 0.0
C740 C 0.62675 0.97761 0.23769 0.0
C741 C 0.6341 0.00052 0.21826 0.0
C742 C 0.65742 0.98541 0.34992 0.0
C743 C 0.61156 0.95861 0.2117 0.0
C744 C 0.64286 0.90307 0.31056 0.0
C745 C 0.6206 0.89823 0.33406 0.0
C746 C 0.64767 0.92716 0.29315 0.0
C747 C 0.62981 0.94689 0.29946 0.0
C748 C 0.60743 0.9423 0.32344 0.0
C749 C 0.60308 0.91798 0.34048 0.0
C750 C 0.67176 0.93144 0.26765 0.0
C751 C 0.58802 0.96299 0.33071 0.0
H752 H 0.66746 0.02675 0.30151 0.0
H753 H 0.62873 0.0042 0.18496 0.0
H754 H 0.64113 0.97938 0.37022 0.0
H755 H 0.6714 0.96963 0.35012 0.0
H756 H 0.66636 0.00238 0.36497 0.0
H757 H 0.60509 0.96655 0.18023 0.0
H758 H 0.62333 0.94154 0.2052 0.0
H759 H 0.5947 0.95224 0.23028 0.0
H760 H 0.6565 0.88796 0.30532 0.0
H761 H 0.58581 0.91445 0.35856 0.0
H762 H 0.68301 0.947 0.28252 0.0
H763 H 0.66705 0.93741 0.23413 0.0
H764 H 0.68379 0.91412 0.26606 0.0
H765 H 0.59701 0.97951 0.34695 0.0
H766 H 0.5718 0.9564 0.35077 0.0
H767 H 0.5806 0.96979 0.29914 0.0
C768 C 0.9032 0.3437 0.65571 0.0
C769 C 0.8956 0.36612 0.63481 0.0
C770 C 0.9281 0.34056 0.67018 0.0
C771 C 0.94599 0.36017 0.66293 0.0
C772 C 0.939 0.38212 0.63932 0.0
C773 C 0.91374 0.38497 0.62579 0.0
C774 C 0.9348 0.31686 0.6955 0.0
C775 C 0.95781 0.4031 0.63017 0.0
C776 C -0.00485 0.35952 0.75105 0.0
C777 C 0.01335 0.34327 0.733 0.0
C778 C 0.97387 0.36697 0.72714 0.0
C779 C 0.97111 0.35832 0.68401 0.0
C780 C -0.00931 0.34408 0.66428 0.0
C781 C 0.01152 0.33642 0.68925 0.0
C782 C 0.95326 0.38202 0.74944 0.0
C783 C 0.98873 0.33525 0.61791 0.0
H784 H 0.88942 0.32894 0.66265 0.0
H785 H 0.90808 0.40225 0.60925 0.0
H786 H 0.95152 0.30736 0.68093 0.0
H787 H 0.93992 0.3221 0.7292 0.0
H788 H 0.91891 0.30299 0.69667 0.0
H789 H 0.95084 0.41633 0.60475 0.0
H790 H 0.96117 0.4142 0.66017 0.0
H791 H 0.97633 0.39512 0.61981 0.0
H792 H -0.00341 0.36497 0.78482 0.0
H793 H 0.02589 0.32428 0.67497 0.0
H794 H 0.93661 0.36953 0.7552 0.0
H795 H 0.94685 0.39801 0.72873 0.0
H796 H 0.95962 0.3898 0.78108 0.0
H797 H 0.97546 0.3189 0.616 0.0
H798 H 0.00741 0.32909 0.60498 0.0
H799 H 0.98107 0.35057 0.59692 0.0
C800 C 0.34171 0.08933 0.30416 0.0
C801 C 0.36228 0.09213 0.33261 0.0
C802 C 0.33502 0.06542 0.2879 0.0
C803 C 0.34907 0.04379 0.30083 0.0
C804 C 0.36904 0.04626 0.33114 0.0
C805 C 0.37553 0.07047 0.34652 0.0
C806 C 0.31372 0.06351 0.25529 0.0
C807 C 0.38418 0.02348 0.34598 0.0
C808 C 0.31923 0.9802 0.27432 0.0
C809 C 0.33145 0.97413 0.23531 0.0
C810 C 0.32544 0.00242 0.29701 0.0
C811 C 0.34404 0.019 0.27993 0.0
C812 C 0.35692 0.01265 0.24124 0.0
C813 C 0.35057 0.99019 0.21952 0.0
C814 C 0.3116 0.0085 0.33853 0.0
C815 C 0.37676 0.03004 0.22192 0.0
H816 H 0.33139 0.10596 0.29315 0.0
H817 H 0.3913 0.07247 0.36881 0.0
H818 H 0.32144 0.05735 0.22356 0.0
H819 H 0.29972 0.04898 0.26566 0.0
H820 H 0.30369 0.0819 0.25071 0.0
H821 H 0.39735 0.02824 0.37289 0.0
H822 H 0.3713 0.00804 0.35679 0.0
H823 H 0.39549 0.01595 0.31854 0.0
H824 H 0.30462 0.96771 0.28694 0.0
H825 H 0.36006 0.98566 0.18937 0.0
H826 H 0.29964 0.02565 0.33383 0.0
H827 H 0.32537 0.0129 0.36467 0.0
H828 H 0.29925 -0.0074 0.34934 0.0
H829 H 0.36794 0.04847 0.21293 0.0
H830 H 0.38576 0.02177 0.19262 0.0
H831 H 0.3918 0.03413 0.24607 0.0
C832 C 0.06422 0.60807 0.65133 0.0
C833 C 0.08611 0.62123 0.66431 0.0
C834 C 0.04041 0.61424 0.6685 0.0
C835 C 0.03853 0.63386 0.69963 0.0
C836 C 0.06045 0.64744 0.71248 0.0
C837 C 0.08398 0.64105 0.69449 0.0
C838 C 0.01733 0.5995 0.65388 0.0
C839 C 0.05915 0.66834 0.74596 0.0
C840 C 0.97517 0.66492 0.72292 0.0
C841 C 0.96794 0.65258 0.76129 0.0
C842 C -0.00213 0.65862 0.70192 0.0
C843 C 0.01376 0.63969 0.71991 0.0
C844 C 0.00639 0.62682 0.75812 0.0
C845 C 0.9835 0.63334 0.77826 0.0
C846 C 0.0051 0.67255 0.66095 0.0
C847 C 0.02297 0.60659 0.77831 0.0
H848 H 0.0657 0.59282 0.62785 0.0
H849 H 0.10081 0.65121 0.7049 0.0
H850 H 0.00903 0.58909 0.68174 0.0
H851 H 0.00258 0.61274 0.64167 0.0
H852 H 0.02187 0.58557 0.62799 0.0
H853 H 0.07789 0.67746 0.75161 0.0
H854 H 0.04547 0.68317 0.7356 0.0
H855 H 0.05221 0.66048 0.77713 0.0
H856 H 0.96318 0.67968 0.70941 0.0
H857 H 0.97812 0.62374 0.80793 0.0
H858 H 0.00893 0.65875 0.63459 0.0
H859 H 0.02282 0.6835 0.66635 0.0
H860 H 0.99005 0.68589 0.65003 0.0
H861 H 0.02698 0.59136 0.75445 0.0
H862 H 0.01411 0.59786 0.80737 0.0
H863 H 0.04146 0.61498 0.78789 0.0
C864 C 0.19263 0.50661 0.52653 0.0
C865 C 0.2078 0.52197 0.55292 0.0
C866 C 0.20331 0.49132 0.49452 0.0
C867 C 0.23 0.49145 0.48843 0.0
C868 C 0.24559 0.50661 0.51537 0.0
C869 C 0.23427 0.52159 0.54774 0.0
C870 C 0.18574 0.47522 0.46704 0.0
C871 C 0.27408 0.50699 0.51054 0.0
C872 C 0.23732 0.43241 0.42681 0.0
C873 C 0.23028 0.44184 0.38618 0.0
C874 C 0.24297 0.44916 0.46064 0.0
C875 C 0.24063 0.47558 0.45323 0.0
C876 C 0.2389 0.48482 0.41024 0.0
C877 C 0.23354 0.46763 0.37678 0.0
C878 C 0.24641 0.4386 0.50563 0.0
C879 C 0.23774 0.51293 0.40082 0.0
H880 H 0.17221 0.50656 0.5308 0.0
H881 H 0.24609 0.53341 0.56823 0.0
H882 H 0.18771 0.48047 0.43242 0.0
H883 H 0.19073 0.45482 0.47039 0.0
H884 H 0.16549 0.4775 0.47622 0.0
H885 H 0.28231 0.52495 0.52327 0.0
H886 H 0.28227 0.49101 0.52939 0.0
H887 H 0.27998 0.50465 0.4763 0.0
H888 H 0.23519 0.41226 0.43359 0.0
H889 H 0.22837 0.47477 0.34502 0.0
H890 H 0.22775 0.43808 0.52227 0.0
H891 H 0.25936 0.45077 0.52492 0.0
H892 H 0.25408 0.41892 0.50472 0.0
H893 H 0.21808 0.5198 0.40626 0.0
H894 H 0.24295 0.51702 0.36667 0.0
H895 H 0.25056 0.5237 0.42266 0.0
C896 C 0.43164 0.77372 0.53119 0.0
C897 C 0.43064 0.7659 0.57447 0.0
C898 C 0.45079 0.76491 0.50392 0.0
C899 C 0.46918 0.74791 0.52071 0.0
C900 C 0.46517 0.73622 0.56132 0.0
C901 C 0.44596 0.74563 0.58829 0.0
C902 C 0.45347 0.77679 0.4596 0.0
C903 C 0.483 0.71619 0.57843 0.0
C904 C 0.52139 0.7463 0.43877 0.0
C905 C 0.5346 0.76831 0.45127 0.0
C906 C 0.50174 0.73666 0.46461 0.0
C907 C 0.49513 0.74971 0.50296 0.0
C908 C 0.51081 0.76966 0.51846 0.0
C909 C 0.53048 0.77859 0.49242 0.0
C910 C 0.48681 0.71407 0.44859 0.0
C911 C 0.50504 0.78374 0.56002 0.0
H912 H 0.4189 0.78846 0.51971 0.0
H913 H 0.44455 0.73865 0.62124 0.0
H914 H 0.46983 0.79011 0.45949 0.0
H915 H 0.45714 0.76195 0.43493 0.0
H916 H 0.43622 0.78753 0.44992 0.0
H917 H 0.47284 0.70285 0.60029 0.0
H918 H 0.49188 0.70524 0.5517 0.0
H919 H 0.49831 0.7254 0.59747 0.0
H920 H 0.5251 0.73763 0.40758 0.0
H921 H 0.54141 0.79492 0.50304 0.0
H922 H 0.47383 0.72021 0.42229 0.0
H923 H 0.47543 0.70507 0.47465 0.0
H924 H 0.49983 0.69963 0.43464 0.0
H925 H 0.48684 0.79419 0.55671 0.0
H926 H 0.52009 0.79769 0.56852 0.0
H927 H 0.50305 0.7702 0.58728 0.0
C928 C 0.74886 0.43991 0.52514 0.0
C929 C 0.75085 0.44495 0.56949 0.0
C930 C 0.74267 0.45937 0.49617 0.0
C931 C 0.73882 0.48421 0.51247 0.0
C932 C 0.73505 0.48773 0.55743 0.0
C933 C 0.74152 0.46793 0.58594 0.0
C934 C 0.74505 0.45434 0.44827 0.0
C935 C 0.72845 0.51348 0.57556 0.0
C936 C 0.78625 0.52751 0.45946 0.0
C937 C 0.77213 0.53804 0.42547 0.0
C938 C 0.77509 0.51124 0.48958 0.0
C939 C 0.74881 0.50565 0.48634 0.0
C940 C 0.73391 0.51787 0.45435 0.0
C941 C 0.74584 0.53373 0.42382 0.0
C942 C 0.79204 0.49886 0.52315 0.0
C943 C 0.70568 0.51365 0.45081 0.0
H944 H 0.7552 0.42169 0.5127 0.0
H945 H 0.74233 0.47159 0.62046 0.0
H946 H 0.72979 0.46423 0.43021 0.0
H947 H 0.76355 0.46175 0.43653 0.0
H948 H 0.7441 0.43369 0.44082 0.0
H949 H 0.71876 0.51166 0.60735 0.0
H950 H 0.7461 0.52464 0.58049 0.0
H951 H 0.71606 0.52418 0.55287 0.0
H952 H 0.80648 0.53104 0.46161 0.0
H953 H 0.73461 0.54229 0.39824 0.0
H954 H 0.79181 0.4779 0.51912 0.0
H955 H 0.78513 0.50326 0.55618 0.0
H956 H 0.81206 0.50536 0.52086 0.0
H957 H 0.70177 0.50051 0.4235 0.0
H958 H 0.69594 0.53187 0.44339 0.0
H959 H 0.6974 0.50553 0.48081 0.0
C960 C 0.45707 0.23788 0.43598 0.0
C961 C 0.4665 0.21755 0.41157 0.0
C962 C 0.46907 0.24499 0.47467 0.0
C963 C 0.49079 0.23137 0.48834 0.0
C964 C 0.5025 0.21377 0.45991 0.0
C965 C 0.48992 0.20677 0.42197 0.0
C966 C 0.45659 0.26455 0.50325 0.0
C967 C 0.52631 0.19952 0.47239 0.0
C968 C 0.52982 0.23376 0.58972 0.0
C969 C 0.52089 0.21157 0.6097 0.0
C970 C 0.51808 0.24294 0.55206 0.0
C971 C 0.49708 0.22956 0.5349 0.0
C972 C 0.48589 0.20947 0.55894 0.0
C973 C 0.49824 0.20047 0.59587 0.0
C974 C 0.53003 0.26493 0.52825 0.0
C975 C 0.46283 0.19524 0.54273 0.0
H976 H 0.43893 0.24627 0.42752 0.0
H977 H 0.49722 0.19126 0.40246 0.0
H978 H 0.44274 0.25496 0.52483 0.0
H979 H 0.47067 0.27454 0.52386 0.0
H980 H 0.44609 0.27879 0.4836 0.0
H981 H 0.535 0.1897 0.4442 0.0
H982 H 0.54056 0.21263 0.48653 0.0
H983 H 0.52164 0.18498 0.49721 0.0
H984 H 0.54735 0.24238 0.60083 0.0
H985 H 0.49128 0.18352 0.61203 0.0
H986 H 0.51589 0.27553 0.50868 0.0
H987 H 0.54485 0.25758 0.50602 0.0
H988 H 0.53933 0.27827 0.55121 0.0
H989 H 0.448 0.20869 0.5316 0.0
H990 H 0.45454 0.18276 0.5681 0.0
H991 H 0.46826 0.18317 0.51476 0.0
C992 C 0.73244 0.04145 0.05862 0.0
C993 C 0.72981 0.03618 0.10279 0.0
C994 C 0.73713 0.02181 0.02925 0.0
C995 C 0.73871 -0.00342 0.04492 0.0
C996 C 0.74156 -0.00777 0.08989 0.0
C997 C 0.73682 0.01228 0.11876 0.0
C998 C 0.73556 0.02748 0.98144 0.0
C999 C 0.74522 0.96576 0.10752 0.0
C1000 C 0.69 0.9563 0.98803 0.0
C1001 C 0.70455 0.94385 0.95663 0.0
C1002 C 0.70124 0.9725 0.01821 0.0
C1003 C 0.72792 0.97614 0.01752 0.0
C1004 C 0.743 0.9624 0.98773 0.0
C1005 C 0.73108 0.94658 0.9572 0.0
C1006 C 0.68418 0.98664 0.04944 0.0
C1007 C 0.7715 0.96494 0.9866 0.0
H1008 H 0.7277 0.06026 0.04658 0.0
H1009 H 0.73531 0.00836 0.15314 0.0
H1010 H 0.7495 0.01591 0.9632 0.0
H1011 H 0.7163 0.02258 0.96944 0.0
H1012 H 0.73909 0.04793 0.97456 0.0
H1013 H 0.75412 0.96624 0.14013 0.0
H1014 H 0.72647 0.95628 0.1105 0.0
H1015 H 0.75716 0.95418 0.08545 0.0
H1016 H 0.66954 0.95415 0.9882 0.0
H1017 H 0.74255 0.93668 0.93347 0.0
H1018 H 0.68589 0.00745 0.04413 0.0
H1019 H 0.6899 0.98259 0.08329 0.0
H1020 H 0.66389 0.98134 0.04575 0.0
H1021 H 0.77685 0.97888 0.9612 0.0
H1022 H 0.78044 0.9465 0.97795 0.0
H1023 H 0.7794 0.97149 0.01798 0.0
C1024 C 0.98462 0.28224 0.06385 0.0
C1025 C 0.96268 0.27043 0.07921 0.0
C1026 C -0.0029 0.27283 0.0274 0.0
C1027 C 0.9868 0.25148 0.00544 0.0
C1028 C 0.96674 0.2375 0.02441 0.0
C1029 C 0.95482 0.2472 0.0615 0.0
C1030 C 0.01921 0.2878 0.00938 0.0
C1031 C 0.95591 0.21409 0.00314 0.0
C1032 C -0.00811 0.27252 0.89162 0.0
C1033 C 0.0162 0.26367 0.88211 0.0
C1034 C 0.97968 0.26491 0.92959 0.0
C1035 C -0.0073 0.24873 0.95887 0.0
C1036 C 0.01537 0.23659 0.9458 0.0
C1037 C 0.02703 0.2443 0.90714 0.0
C1038 C 0.95483 0.27744 0.94135 0.0
C1039 C 0.02915 0.21829 0.97515 0.0
H1040 H -0.00915 0.29997 0.07837 0.0
H1041 H 0.9379 0.23796 0.07388 0.0
H1042 H 0.03482 0.27489 -0.00036 0.0
H1043 H 0.01302 0.29844 0.98017 0.0
H1044 H 0.02681 0.3017 0.03319 0.0
H1045 H 0.94842 0.20067 0.02783 0.0
H1046 H 0.93986 0.21968 0.98192 0.0
H1047 H 0.97024 0.20413 0.98303 0.0
H1048 H 0.98355 0.28731 0.87164 0.0
H1049 H 0.04586 0.23738 0.89933 0.0
H1050 H 0.95834 0.29272 0.96542 0.0
H1051 H 0.94165 0.26349 0.95613 0.0
H1052 H 0.94544 0.28607 0.91267 0.0
H1053 H 0.0424 0.22906 0.99623 0.0
H1054 H 0.04052 0.20451 0.95602 0.0
H1055 H 0.01576 0.2077 0.99623 0.0
C1056 C 0.24888 0.05032 0.96131 0.0
C1057 C 0.25258 0.04455 0.91755 0.0
C1058 C 0.24241 0.03116 0.99069 0.0
C1059 C 0.24014 0.0059 0.97546 0.0
C1060 C 0.23813 0.00138 0.93042 0.0
C1061 C 0.24474 0.02091 0.90152 0.0
C1062 C 0.24293 0.03713 0.03844 0.0
C1063 C 0.23343 0.97501 0.91311 0.0
C1064 C 0.28699 0.96473 0.03486 0.0
C1065 C 0.27187 0.95328 0.06664 0.0
C1066 C 0.27652 0.98081 0.00375 0.0
C1067 C 0.24997 0.98534 0.00374 0.0
C1068 C 0.23426 0.97254 0.03389 0.0
C1069 C 0.24547 0.95685 0.06546 0.0
C1070 C 0.29431 -0.00608 0.97233 0.0
C1071 C 0.20584 0.97586 0.0342 0.0
H1072 H 0.25414 0.06898 0.97333 0.0
H1073 H 0.24696 0.01665 0.86738 0.0
H1074 H 0.22781 0.02653 0.05566 0.0
H1075 H 0.26149 0.03122 0.0522 0.0
H1076 H 0.2404 0.0578 0.04459 0.0
H1077 H 0.22504 0.97575 0.88013 0.0
H1078 H 0.25173 0.96462 0.91106 0.0
H1079 H 0.22061 0.96417 0.93488 0.0
H1080 H 0.30737 0.96192 0.03513 0.0
H1081 H 0.23355 0.94768 0.08944 0.0
H1082 H 0.29307 0.01485 0.97628 0.0
H1083 H 0.28895 0.98927 0.93853 0.0
H1084 H 0.31442 0.98823 0.97708 0.0
H1085 H 0.20057 0.98942 0.06019 0.0
H1086 H 0.19637 0.95749 0.04167 0.0
H1087 H 0.19843 0.98313 0.00292 0.0
C1088 C 0.95389 0.74053 0.91227 0.0
C1089 C 0.94097 0.71792 0.9222 0.0
C1090 C 0.97168 0.7506 0.9414 0.0
C1091 C 0.97685 0.73723 0.98012 0.0
C1092 C 0.96066 0.71711 0.99319 0.0
C1093 C 0.94282 0.70774 0.96394 0.0
C1094 C 0.98669 0.7738 0.92848 0.0
C1095 C 0.96446 0.70303 0.03541 0.0
C1096 C 0.0398 0.71113 0.00746 0.0
C1097 C 0.04098 0.71773 0.05127 0.0
C1098 C 0.02075 0.72087 0.98093 0.0
C1099 C 0.00262 0.73774 -0.00107 0.0
C1100 C 0.00664 0.74802 0.04065 0.0
C1101 C 0.02574 0.7376 0.06686 0.0
C1102 C 0.01807 0.71023 0.93567 0.0
C1103 C 0.9893 0.76797 0.05939 0.0
H1104 H 0.95166 0.74925 0.88068 0.0
H1105 H 0.93177 0.69109 0.9726 0.0
H1106 H -0.00385 0.78283 0.95668 0.0
H1107 H 0.00136 0.76838 0.90445 0.0
H1108 H 0.97406 0.78796 0.91271 0.0
H1109 H 0.94907 0.68907 0.04177 0.0
H1110 H 0.98278 0.69262 0.03469 0.0
H1111 H 0.9651 0.71661 0.06279 0.0
H1112 H 0.05251 0.69674 0.99472 0.0
H1113 H 0.02732 0.74363 0.10031 0.0
H1114 H 0.01578 0.72585 0.91193 0.0
H1115 H 0.00096 0.69796 0.93378 0.0
H1116 H 0.03478 0.69868 0.92594 0.0
H1117 H 0.97823 0.77796 0.03397 0.0
H1118 H 0.00055 0.78217 0.07787 0.0
H1119 H 0.97594 0.75895 0.0825 0.0
C1120 C 0.16417 0.36215 0.14136 0.0
C1121 C 0.1608 0.34597 0.17703 0.0
C1122 C 0.15406 0.35603 0.10069 0.0
C1123 C 0.14045 0.33302 0.09535 0.0
C1124 C 0.13736 0.31633 0.1309 0.0
C1125 C 0.14748 0.32305 0.17139 0.0
C1126 C 0.15761 0.37441 0.06357 0.0
C1127 C 0.12317 0.29152 0.12627 0.0
C1128 C 0.09616 0.33194 -0.00152 0.0
C1129 C 0.11166 0.32085 0.96675 0.0
C1130 C 0.10487 0.33504 0.04112 0.0
C1131 C 0.12955 0.32664 0.05232 0.0
C1132 C 0.14466 0.31405 0.02114 0.0
C1133 C 0.13558 0.3114 0.97871 0.0
C1134 C 0.08818 0.34853 0.07353 0.0
C1135 C 0.17088 0.30441 0.03206 0.0
H1136 H 0.17425 0.37997 0.14534 0.0
H1137 H 0.14476 0.31039 0.19871 0.0
H1138 H 0.16769 0.36489 0.03654 0.0
H1139 H 0.13884 0.38058 0.0511 0.0
H1140 H 0.16858 0.39156 0.07316 0.0
H1141 H 0.12307 0.28032 0.15677 0.0
H1142 H 0.10325 0.29529 0.11658 0.0
H1143 H 0.13187 0.27984 0.10033 0.0
H1144 H 0.07761 0.33917 0.98965 0.0
H1145 H 0.14756 0.30245 0.95461 0.0
H1146 H 0.09659 0.3673 0.08153 0.0
H1147 H 0.08702 0.33749 0.10408 0.0
H1148 H 0.06865 0.3516 0.06102 0.0
H1149 H 0.18372 0.32076 0.03808 0.0
H1150 H 0.17907 0.29269 0.00561 0.0
H1151 H 0.17039 0.29285 0.06212 0.0
C1152 C 0.32461 0.82881 0.02189 0.0
C1153 C 0.33485 0.85287 0.03111 0.0
C1154 C 0.32586 0.81859 0.98001 0.0
C1155 C 0.33775 0.83272 0.94675 0.0
C1156 C 0.34832 0.85688 0.95587 0.0
C1157 C 0.34669 0.86668 -0.0021 0.0
C1158 C 0.31426 0.79284 0.97124 0.0
C1159 C 0.36127 0.87245 0.92116 0.0
C1160 C 0.3636 0.80137 0.84586 0.0
C1161 C 0.34565 0.80878 0.81471 0.0
C1162 C 0.36071 0.80811 0.88945 0.0
C1163 C 0.33927 0.82242 0.90219 0.0
C1164 C 0.32036 0.82871 0.87148 0.0
C1165 C 0.3238 0.82187 0.82803 0.0
C1166 C 0.3813 0.80112 0.92135 0.0
C1167 C 0.29711 0.84378 0.88407 0.0
H1168 H 0.31529 0.81804 0.04726 0.0
H1169 H 0.35471 0.88525 0.00467 0.0
H1170 H 0.29928 0.79456 0.94615 0.0
H1171 H 0.32889 0.77969 0.95839 0.0
H1172 H 0.30578 0.78424 0.00074 0.0
H1173 H 0.36877 0.89076 0.93374 0.0
H1174 H 0.37723 0.8615 0.90698 0.0
H1175 H 0.34772 0.8766 0.89457 0.0
H1176 H 0.38054 0.79121 0.836 0.0
H1177 H 0.30972 0.82751 0.8043 0.0
H1178 H 0.37298 0.79199 0.95045 0.0
H1179 H 0.39118 0.81863 0.93227 0.0
H1180 H 0.39558 0.78803 0.90712 0.0
H1181 H 0.28791 0.83522 0.91291 0.0
H1182 H 0.28298 0.84479 0.85742 0.0
H1183 H 0.30276 0.86344 0.89284 0.0
C1184 C 0.86122 0.63565 0.99702 0.0
C1185 C 0.846 0.64596 0.96408 0.0
C1186 C 0.85152 0.63139 0.0386 0.0
C1187 C 0.82596 0.63765 0.04766 0.0
C1188 C 0.81038 0.6479 0.01465 0.0
C1189 C 0.82058 0.65191 0.97318 0.0
C1190 C 0.86877 0.62044 0.073 0.0
C1191 C 0.78307 0.65491 0.02331 0.0
C1192 C 0.80001 0.60629 0.14901 0.0
C1193 C 0.80489 0.62505 0.18022 0.0
C1194 C 0.80557 0.61057 0.10515 0.0
C1195 C 0.81606 0.6342 0.0923 0.0
C1196 C 0.81954 0.65371 0.12324 0.0
C1197 C 0.81399 0.64888 0.16682 0.0
C1198 C 0.80165 0.58928 0.07305 0.0
C1199 C 0.83049 0.67925 0.11076 0.0
H1200 H 0.88085 0.6309 0.99044 0.0
H1201 H 0.80865 0.6599 0.94802 0.0
H1202 H 0.87083 0.63417 0.10003 0.0
H1203 H 0.86034 0.60282 0.08658 0.0
H1204 H 0.88796 0.61591 0.06031 0.0
H1205 H 0.77326 0.66196 0.99382 0.0
H1206 H 0.77259 0.63817 0.03593 0.0
H1207 H 0.78219 0.66989 0.04855 0.0
H1208 H 0.793 0.58782 0.15907 0.0
H1209 H 0.81753 0.6636 0.19064 0.0
H1210 H 0.82036 0.58205 0.06213 0.0
H1211 H 0.79147 0.59633 0.04398 0.0
H1212 H 0.79077 0.57319 0.08717 0.0
H1213 H 0.85071 0.67692 0.10156 0.0
H1214 H 0.82937 0.69324 0.13763 0.0
H1215 H 0.82037 0.68712 0.08225 0.0
C1216 C 0.67185 0.15914 0.01861 0.0
C1217 C 0.66745 0.13335 0.02774 0.0
C1218 C 0.66836 0.16879 0.97662 0.0
C1219 C 0.66012 0.15229 0.94326 0.0
C1220 C 0.65725 0.126 0.95166 0.0
C1221 C 0.66106 0.11685 0.9937 0.0
C1222 C 0.6721 0.19686 0.96853 0.0
C1223 C 0.64852 0.10774 0.91692 0.0
C1224 C 0.61652 0.1759 0.85488 0.0
C1225 C 0.63242 0.17522 0.81848 0.0
C1226 C 0.62567 0.16956 0.89603 0.0
C1227 C 0.65145 0.16266 0.90109 0.0
C1228 C 0.66798 0.16329 0.86503 0.0
C1229 C 0.65823 0.1694 0.82401 0.0
C1230 C 0.60736 0.16893 0.93367 0.0
C1231 C 0.69567 0.15641 0.86939 0.0
H1232 H 0.67708 0.17201 0.04453 0.0
H1233 H 0.65798 0.09681 0.00015 0.0
H1234 H 0.68292 0.20001 0.93819 0.0
H1235 H 0.65335 0.20616 0.96456 0.0
H1236 H 0.68227 0.20628 0.99567 0.0
H1237 H 0.64934 0.0876 0.92776 0.0
H1238 H 0.62865 0.11221 0.90771 0.0
H1239 H 0.66034 0.1098 0.88743 0.0
H1240 H 0.59657 0.18041 0.85108 0.0
H1241 H 0.67072 0.16905 0.79616 0.0
H1242 H 0.61486 0.18032 0.96104 0.0
H1243 H 0.60517 0.14906 0.94527 0.0
H1244 H 0.58831 0.17635 0.92483 0.0
H1245 H 0.7042 0.16606 0.89783 0.0
H1246 H 0.7067 0.16158 0.84002 0.0
H1247 H 0.69751 0.13562 0.87468 0.0
C1248 C 0.18543 0.60753 0.81431 0.0
C1249 C 0.18318 0.62498 0.78016 0.0
C1250 C 0.17951 0.61457 0.85685 0.0
C1251 C 0.17137 0.63971 0.86542 0.0
C1252 C 0.17079 0.65789 0.83168 0.0
C1253 C 0.17663 0.65029 0.78937 0.0
C1254 C 0.18032 0.59463 0.89206 0.0
C1255 C 0.1625 0.68497 0.83976 0.0
C1256 C 0.12452 0.64585 0.95736 0.0
C1257 C 0.14015 0.65374 0.99162 0.0
C1258 C 0.13441 0.64187 0.9159 0.0
C1259 C 0.16057 0.646 0.90838 0.0
C1260 C 0.17633 0.65486 0.94224 0.0
C1261 C 0.16593 0.6586 0.98358 0.0
C1262 C 0.11696 0.63248 0.88047 0.0
C1263 C 0.20425 0.65971 0.93511 0.0
H1264 H 0.19058 0.58796 0.80762 0.0
H1265 H 0.17514 0.66401 0.76328 0.0
H1266 H 0.19072 0.60188 0.92074 0.0
H1267 H 0.16069 0.59013 0.90261 0.0
H1268 H 0.1895 0.57676 0.88103 0.0
H1269 H 0.16666 0.69756 0.81174 0.0
H1270 H 0.14175 0.68539 0.84586 0.0
H1271 H 0.17201 0.69279 0.86891 0.0
H1272 H 0.10455 0.64222 0.96305 0.0
H1273 H 0.17815 0.66484 0.00975 0.0
H1274 H 0.12324 0.61343 0.86935 0.0
H1275 H 0.11782 0.64544 0.85215 0.0
H1276 H 0.09692 0.63107 0.89131 0.0
H1277 H 0.21403 0.64149 0.92814 0.0
H1278 H 0.21342 0.66864 0.96372 0.0
H1279 H 0.20708 0.67225 0.90661 0.0
C1280 C 0.60636 0.79742 0.18187 0.0
C1281 C 0.62438 0.80415 0.21335 0.0
C1282 C 0.60987 0.80388 0.13833 0.0
C1283 C 0.63201 0.81722 0.12599 0.0
C1284 C 0.65094 0.82282 0.15704 0.0
C1285 C 0.64688 0.81624 0.20045 0.0
C1286 C 0.58927 0.79762 0.106 0.0
C1287 C 0.6749 0.83686 0.1448 0.0
C1288 C 0.64745 0.82179 0.00652 0.0
C1289 C 0.63814 0.84609 0.99638 0.0
C1290 C 0.64575 0.81214 0.04872 0.0
C1291 C 0.63434 0.82711 0.08133 0.0
C1292 C 0.62478 0.85156 0.07133 0.0
C1293 C 0.62684 0.86079 0.02898 0.0
C1294 C 0.65626 0.78604 0.05846 0.0
C1295 C 0.61234 0.86799 0.10539 0.0
H1296 H 0.58895 0.78795 0.19138 0.0
H1297 H 0.66099 0.82139 0.22445 0.0
H1298 H 0.58035 0.81547 0.09434 0.0
H1299 H 0.59742 0.78785 0.07739 0.0
H1300 H 0.57424 0.78534 0.12013 0.0
H1301 H 0.68883 0.83745 0.17179 0.0
H1302 H 0.68398 0.82778 0.11634 0.0
H1303 H 0.67014 0.85669 0.13553 0.0
H1304 H 0.65636 0.81035 0.98162 0.0
H1305 H 0.61957 0.87956 0.02145 0.0
H1306 H 0.64098 0.77354 0.07106 0.0
H1307 H 0.67099 0.78737 0.08403 0.0
H1308 H 0.66475 0.77691 0.02945 0.0
H1309 H 0.59575 0.85792 0.11938 0.0
H1310 H 0.60585 0.88655 0.09222 0.0
H1311 H 0.62585 0.87167 0.13223 0.0
C1312 C 0.81487 0.36801 0.81994 0.0
C1313 C 0.81923 0.35183 0.7846 0.0
C1314 C 0.82397 0.36196 0.86137 0.0
C1315 C 0.8376 0.33906 0.8678 0.0
C1316 C 0.84179 0.32245 0.8325 0.0
C1317 C 0.83264 0.32906 0.79131 0.0
C1318 C 0.81927 0.38025 0.8982 0.0
C1319 C 0.85611 0.2978 0.8382 0.0
C1320 C 0.88022 0.33719 0.96686 0.0
C1321 C 0.86451 0.32521 -0.0026 0.0
C1322 C 0.87201 0.34114 0.92415 0.0
C1323 C 0.84758 0.33272 0.91154 0.0
C1324 C 0.83211 0.31956 0.94155 0.0
C1325 C 0.84071 0.31604 0.98414 0.0
C1326 C 0.88907 0.35525 0.89304 0.0
C1327 C 0.80609 0.30996 0.9291 0.0
H1328 H 0.80468 0.3857 0.81516 0.0
H1329 H 0.8361 0.31638 0.7643 0.0
H1330 H 0.80868 0.37055 0.9245 0.0
H1331 H 0.83763 0.38667 0.91199 0.0
H1332 H 0.80831 0.39725 0.88784 0.0
H1333 H 0.85728 0.2867 0.80766 0.0
H1334 H 0.87566 0.30175 0.84972 0.0
H1335 H 0.84674 0.2859 0.86321 0.0
H1336 H 0.89866 0.3443 0.97665 0.0
H1337 H 0.8285 0.30653 0.00729 0.0
H1338 H 0.88024 0.3737 0.88424 0.0
H1339 H 0.89142 0.34423 0.86269 0.0
H1340 H 0.90814 0.35903 0.90699 0.0
H1341 H 0.79345 0.32632 0.92206 0.0
H1342 H 0.79729 0.29832 0.9551 0.0
H1343 H 0.80723 0.29833 0.89921 0.0
C1344 C 0.3218 0.12407 0.03077 0.0
C1345 C 0.31694 0.14055 0.99595 0.0
C1346 C 0.32593 0.13345 0.07256 0.0
C1347 C 0.32493 0.15998 0.07993 0.0
C1348 C 0.31805 0.17658 0.04579 0.0
C1349 C 0.31423 0.16668 0.00405 0.0
C1350 C 0.33318 0.11506 0.10811 0.0
C1351 C 0.31626 0.20494 0.05274 0.0
C1352 C 0.32814 0.1785 0.19852 0.0
C1353 C 0.3543 0.18255 0.20382 0.0
C1354 C 0.31794 0.17254 0.15774 0.0
C1355 C 0.33434 0.17024 0.12171 0.0
C1356 C 0.36057 0.17534 0.12652 0.0
C1357 C 0.37018 0.18158 0.1674 0.0
C1358 C 0.28981 0.16766 0.15363 0.0
C1359 C 0.37876 0.17289 0.08894 0.0
H1360 H 0.32353 0.1038 0.02512 0.0
H1361 H 0.3102 0.17956 0.97752 0.0
H1362 H 0.35333 0.11811 0.11723 0.0
H1363 H 0.32154 0.11843 0.13745 0.0
H1364 H 0.3308 0.0949 0.0981 0.0
H1365 H 0.30667 0.21465 0.02529 0.0
H1366 H 0.3058 0.20924 0.08302 0.0
H1367 H 0.33563 0.21299 0.05612 0.0
H1368 H 0.31567 0.17945 0.22637 0.0
H1369 H 0.3904 0.18472 0.17102 0.0
H1370 H 0.28644 0.147 0.14921 0.0
H1371 H 0.28201 0.17752 0.12477 0.0
H1372 H 0.27921 0.17404 0.18275 0.0
H1373 H 0.37942 0.15279 0.07802 0.0
H1374 H 0.39832 0.17896 0.09753 0.0
H1375 H 0.37214 0.18451 0.06117 0.0
C1376 C 0.66226 0.82598 0.50764 0.0
C1377 C 0.63674 0.83202 0.49952 0.0
C1378 C 0.6728 0.82932 0.54899 0.0
C1379 C 0.65746 0.83895 0.58276 0.0
C1380 C 0.63171 0.84497 0.57483 0.0
C1381 C 0.62168 0.84139 0.53339 0.0
C1382 C 0.70029 0.82257 0.55658 0.0
C1383 C 0.6147 0.85525 0.61014 0.0
C1384 C 0.66951 0.82874 0.70175 0.0
C1385 C 0.67743 0.85307 0.71461 0.0
C1386 C 0.66478 0.82325 0.65816 0.0
C1387 C 0.66787 0.84262 0.62683 0.0
C1388 C 0.67757 0.86666 0.63916 0.0
C1389 C 0.68235 0.87159 0.68301 0.0
C1390 C 0.65471 0.79729 0.64615 0.0
C1391 C 0.68107 0.88779 0.60657 0.0
H1392 H 0.67403 0.8187 0.4817 0.0
H1393 H 0.60195 0.84612 0.52758 0.0
H1394 H 0.71087 0.83959 0.56782 0.0
H1395 H 0.70178 0.80802 0.58248 0.0
H1396 H 0.70961 0.81513 0.52692 0.0
H1397 H 0.59517 0.85922 0.59842 0.0
H1398 H 0.61352 0.84139 0.63717 0.0
H1399 H 0.6228 0.8731 0.62342 0.0
H1400 H 0.66607 0.8142 0.72594 0.0
H1401 H 0.68856 0.8904 0.69268 0.0
H1402 H 0.66453 0.78987 0.61702 0.0
H1403 H 0.63422 0.79877 0.63822 0.0
H1404 H 0.65697 0.78335 0.67291 0.0
H1405 H 0.69102 0.88069 0.57733 0.0
H1406 H 0.69198 0.90402 0.62018 0.0
H1407 H 0.6622 0.89487 0.5961 0.0
C1408 C 0.80969 0.3227 0.4856 0.0
C1409 C 0.81346 0.34866 0.49411 0.0
C1410 C 0.8133 0.31285 0.44378 0.0
C1411 C 0.82105 0.32932 0.41 0.0
C1412 C 0.82315 0.35574 0.41776 0.0
C1413 C 0.81919 0.36509 0.45961 0.0
C1414 C 0.81031 0.28464 0.43638 0.0
C1415 C 0.83136 0.37398 0.3826 0.0
C1416 C 0.86572 0.30646 0.32272 0.0
C1417 C 0.84997 0.30646 0.28607 0.0
C1418 C 0.85619 0.31273 0.36362 0.0
C1419 C 0.83018 0.31888 0.36819 0.0
C1420 C 0.81385 0.31754 0.3319 0.0
C1421 C 0.82397 0.31151 0.29112 0.0
C1422 C 0.8743 0.31414 0.4015 0.0
C1423 C 0.78593 0.32357 0.33573 0.0
H1424 H 0.80496 0.30988 0.51188 0.0
H1425 H 0.82174 0.38524 0.46556 0.0
H1426 H 0.79979 0.28095 0.40589 0.0
H1427 H 0.82932 0.27578 0.43311 0.0
H1428 H 0.80019 0.27521 0.46355 0.0
H1429 H 0.82988 0.39417 0.39291 0.0
H1430 H 0.85138 0.37008 0.37364 0.0
H1431 H 0.81967 0.3713 0.35308 0.0
H1432 H 0.8858 0.30252 0.3193 0.0
H1433 H 0.81159 0.31132 0.26309 0.0
H1434 H 0.86704 0.30266 0.42897 0.0
H1435 H 0.87583 0.33412 0.41279 0.0
H1436 H 0.89361 0.30726 0.39307 0.0
H1437 H 0.77761 0.31396 0.36439 0.0
H1438 H 0.77518 0.31774 0.30641 0.0
H1439 H 0.78342 0.34434 0.3403 0.0
C1440 C 0.33659 0.16077 0.6986 0.0
C1441 C 0.3242 0.13745 0.70546 0.0
C1442 C 0.34586 0.16745 0.65751 0.0
C1443 C 0.34286 0.15032 0.62256 0.0
C1444 C 0.33039 0.12679 0.62923 0.0
C1445 C 0.32111 0.1207 0.67049 0.0
C1446 C 0.35888 0.1928 0.6515 0.0
C1447 C 0.32704 0.10791 0.59281 0.0
C1448 C 0.34479 0.17199 0.5055 0.0
C1449 C 0.369 0.16386 0.49254 0.0
C1450 C 0.33645 0.16871 0.54826 0.0
C1451 C 0.35263 0.15687 0.57879 0.0
C1452 C 0.37748 0.14966 0.56651 0.0
C1453 C 0.3854 0.15331 0.52357 0.0
C1454 C 0.30995 0.17703 0.56032 0.0
C1455 C 0.39532 0.13701 0.59818 0.0
H1456 H 0.33906 0.17387 0.72536 0.0
H1457 H 0.31176 0.10256 0.67544 0.0
H1458 H 0.37861 0.18985 0.64006 0.0
H1459 H 0.3489 0.20405 0.62631 0.0
H1460 H 0.35945 0.20409 0.68188 0.0
H1461 H 0.31714 0.09033 0.60346 0.0
H1462 H 0.31597 0.11668 0.56614 0.0
H1463 H 0.34583 0.10257 0.57942 0.0
H1464 H 0.33205 0.18043 0.48198 0.0
H1465 H 0.4042 0.14709 0.51406 0.0
H1466 H 0.31041 0.18892 0.58997 0.0
H1467 H 0.29815 0.16008 0.5676 0.0
H1468 H 0.30063 0.188 0.534 0.0
H1469 H 0.39661 0.14824 0.62849 0.0
H1470 H 0.41472 0.13467 0.58469 0.0
H1471 H 0.38783 0.11796 0.60691 0.0
C1472 C 0.16193 0.64838 0.48383 0.0
C1473 C 0.15215 0.62435 0.49467 0.0
C1474 C 0.1599 0.6579 0.44161 0.0
C1475 C 0.14768 0.64311 0.40957 0.0
C1476 C 0.13826 0.61865 0.41996 0.0
C1477 C 0.14066 0.60952 0.4624 0.0
C1478 C 0.17037 0.68398 0.43148 0.0
C1479 C 0.12509 0.60235 0.38651 0.0
C1480 C 0.11634 0.67549 0.31418 0.0
C1481 C 0.13343 0.67009 0.28057 0.0
C1482 C 0.12112 0.66737 0.35657 0.0
C1483 C 0.14358 0.65365 0.36565 0.0
C1484 C 0.16144 0.64905 0.3324 0.0
C1485 C 0.15614 0.6573 0.29018 0.0
C1486 C 0.10164 0.67262 0.39131 0.0
C1487 C 0.18569 0.63462 0.34109 0.0
H1488 H 0.17107 0.65989 0.50842 0.0
H1489 H 0.13312 0.59092 0.4704 0.0
H1490 H 0.18349 0.68296 0.40346 0.0
H1491 H 0.15465 0.69694 0.42231 0.0
H1492 H 0.18068 0.6924 0.4594 0.0
H1493 H 0.11971 0.58338 0.39943 0.0
H1494 H 0.10766 0.61208 0.37498 0.0
H1495 H 0.13758 0.59959 0.358 0.0
H1496 H 0.09878 0.68539 0.30721 0.0
H1497 H 0.16951 0.65308 0.26452 0.0
H1498 H 0.11065 0.68235 0.41922 0.0
H1499 H 0.09373 0.65439 0.40342 0.0
H1500 H 0.08573 0.68458 0.37936 0.0
H1501 H 0.19598 0.64314 0.36887 0.0
H1502 H 0.1985 0.63441 0.31254 0.0
H1503 H 0.18114 0.61468 0.34994 0.0
C1504 C 0.64233 0.16548 0.51767 0.0
C1505 C 0.61866 0.15566 0.53017 0.0
C1506 C 0.65131 0.16253 0.47525 0.0
C1507 C 0.63636 0.14928 0.44463 0.0
C1508 C 0.61203 0.14019 0.45648 0.0
C1509 C 0.60342 0.14359 0.49908 0.0
C1510 C 0.67718 0.17286 0.46363 0.0
C1511 C 0.59553 0.12598 0.42464 0.0
C1512 C 0.65214 0.15426 0.32496 0.0
C1513 C 0.66602 0.1318 0.31809 0.0
C1514 C 0.64257 0.16036 0.36605 0.0
C1515 C 0.64683 0.14354 0.40107 0.0
C1516 C 0.66107 0.12104 0.39455 0.0
C1517 C 0.67057 0.11549 0.35322 0.0
C1518 C 0.62765 0.18464 0.3719 0.0
C1519 C 0.66589 0.10256 0.43111 0.0
H1520 H 0.65413 0.17512 0.54128 0.0
H1521 H 0.58508 0.13599 0.50835 0.0
H1522 H 0.69026 0.15687 0.45653 0.0
H1523 H 0.67599 0.18471 0.43397 0.0
H1524 H 0.68551 0.18449 0.49008 0.0
H1525 H 0.57645 0.12165 0.43805 0.0
H1526 H 0.59315 0.13721 0.3945 0.0
H1527 H 0.60485 0.10782 0.41561 0.0
H1528 H 0.64852 0.16703 0.2981 0.0
H1529 H 0.68111 0.09803 0.3483 0.0
H1530 H 0.63639 0.19644 0.39767 0.0
H1531 H 0.60804 0.18012 0.38242 0.0
H1532 H 0.62667 0.19605 0.34166 0.0
H1533 H 0.67596 0.1123 0.45795 0.0
H1534 H 0.67738 0.08594 0.42071 0.0
H1535 H 0.64757 0.09554 0.44418 0.0
C1536 C 0.15235 0.31585 0.67207 0.0
C1537 C 0.12666 0.30941 0.67718 0.0
C1538 C 0.1621 0.32252 0.63129 0.0
C1539 C 0.14569 0.32307 0.59503 0.0
C1540 C 0.11995 0.31591 0.59977 0.0
C1541 C 0.11081 0.30904 0.64067 0.0
C1542 C 0.18973 0.32974 0.62728 0.0
C1543 C 0.10176 0.31647 0.56193 0.0
C1544 C 0.15615 0.36753 0.50058 0.0
C1545 C 0.16288 0.35051 0.4675 0.0
C1546 C 0.15189 0.35901 0.54292 0.0
C1547 C 0.15463 0.33286 0.5526 0.0
C1548 C 0.16312 0.31584 0.5202 0.0
C1549 C 0.16706 0.32485 0.47792 0.0
C1550 C 0.14286 0.37779 0.57659 0.0
C1551 C 0.16667 0.28789 0.52959 0.0
H1552 H 0.1648 0.31604 0.70003 0.0
H1553 H 0.09093 0.30414 0.64418 0.0
H1554 H 0.19866 0.31936 0.59997 0.0
H1555 H 0.19135 0.35035 0.62013 0.0
H1556 H 0.20055 0.32562 0.65735 0.0
H1557 H 0.08258 0.30936 0.57073 0.0
H1558 H 0.09988 0.33624 0.54975 0.0
H1559 H 0.1092 0.30472 0.53497 0.0
H1560 H 0.15316 0.38745 0.49313 0.0
H1561 H 0.17254 0.31158 0.45277 0.0
H1562 H 0.15426 0.37602 0.60663 0.0
H1563 H 0.12284 0.37358 0.58514 0.0
H1564 H 0.144 0.39776 0.565 0.0
H1565 H 0.17748 0.28518 0.56008 0.0
H1566 H 0.17676 0.27795 0.50295 0.0
H1567 H 0.14785 0.27877 0.53401 0.0
C1568 C 0.34975 0.84869 0.49611 0.0
C1569 C 0.33399 0.83936 0.52915 0.0
C1570 C 0.34024 0.8538 0.45477 0.0
C1571 C 0.31426 0.84946 0.44596 0.0
C1572 C 0.29812 0.84013 0.47898 0.0
C1573 C 0.30818 0.83518 0.52031 0.0
C1574 C 0.35813 0.86367 0.42036 0.0
C1575 C 0.27034 0.83521 0.4705 0.0
C1576 C 0.29264 0.8837 0.34466 0.0
C1577 C 0.29695 0.86498 0.3132 0.0
C1578 C 0.29649 0.87844 0.38874 0.0
C1579 C 0.30463 0.85387 0.40144 0.0
C1580 C 0.30716 0.83444 0.3701 0.0
C1581 C 0.30339 0.84026 0.32634 0.0
C1582 C 0.29364 0.89965 0.42129 0.0
C1583 C 0.31562 0.80794 0.38235 0.0
H1584 H 0.36971 0.85203 0.50242 0.0
H1585 H 0.29584 0.82804 0.5456 0.0
H1586 H 0.35907 0.84998 0.39307 0.0
H1587 H 0.351 0.88195 0.40718 0.0
H1588 H 0.37766 0.86669 0.43289 0.0
H1589 H 0.26017 0.82863 0.49996 0.0
H1590 H 0.26107 0.85278 0.45844 0.0
H1591 H 0.26823 0.82056 0.4449 0.0
H1592 H 0.28757 0.90282 0.33473 0.0
H1593 H 0.30632 0.82556 0.30225 0.0
H1594 H 0.3127 0.90581 0.43241 0.0
H1595 H 0.28303 0.89299 0.45015 0.0
H1596 H 0.2837 0.9164 0.40736 0.0
H1597 H 0.33598 0.80834 0.39155 0.0
H1598 H 0.31321 0.79424 0.35528 0.0
H1599 H 0.30482 0.80092 0.41075 0.0
C1600 C 0.83338 0.66881 0.6668 0.0
C1601 C 0.85653 0.67979 0.67939 0.0
C1602 C 0.82893 0.66196 0.62359 0.0
C1603 C 0.84811 0.6661 0.59233 0.0
C1604 C 0.87097 0.67832 0.60433 0.0
C1605 C 0.87487 0.6851 0.64769 0.0
C1606 C 0.80421 0.64916 0.61185 0.0
C1607 C 0.89188 0.683 0.57185 0.0
C1608 C 0.85063 0.62083 0.49714 0.0
C1609 C 0.84007 0.63557 0.46379 0.0
C1610 C 0.85332 0.6306 0.53907 0.0
C1611 C 0.84519 0.6557 0.54798 0.0
C1612 C 0.83451 0.67072 0.51463 0.0
C1613 C 0.83212 0.6605 0.47287 0.0
C1614 C 0.86488 0.61402 0.57385 0.0
C1615 C 0.82552 0.69753 0.52314 0.0
H1616 H 0.819 0.66478 0.69093 0.0
H1617 H 0.8928 0.69362 0.65696 0.0
H1618 H 0.79564 0.65835 0.583 0.0
H1619 H 0.80783 0.62897 0.60342 0.0
H1620 H 0.79027 0.64973 0.63881 0.0
H1621 H 0.90753 0.69467 0.58552 0.0
H1622 H 0.89984 0.66453 0.56103 0.0
H1623 H 0.88426 0.69277 0.54277 0.0
H1624 H 0.85685 0.60157 0.49055 0.0
H1625 H 0.82384 0.67203 0.44743 0.0
H1626 H 0.85123 0.6115 0.60085 0.0
H1627 H 0.88203 0.62335 0.58739 0.0
H1628 H 0.87032 0.59493 0.56154 0.0
H1629 H 0.8108 0.69744 0.5488 0.0
H1630 H 0.81751 0.70667 0.49372 0.0
H1631 H 0.84152 0.70932 0.53511 0.0
C1632 C 0.35666 0.27684 0.31511 0.0
C1633 C 0.35724 0.26041 0.35078 0.0
C1634 C 0.33854 0.29618 0.31279 0.0
C1635 C 0.32132 0.29925 0.34748 0.0
C1636 C 0.32473 0.28547 0.38636 0.0
C1637 C 0.34251 0.26577 0.38734 0.0
C1638 C 0.33557 0.3107 0.27092 0.0
C1639 C 0.30755 0.28936 0.42486 0.0
C1640 C 0.27034 0.34923 0.33505 0.0
C1641 C 0.25008 0.33439 0.31994 0.0
C1642 C 0.2936 0.33804 0.34564 0.0
C1643 C 0.29672 0.31164 0.33924 0.0
C1644 C 0.27626 0.29662 0.32377 0.0
C1645 C 0.25298 0.30818 0.31498 0.0
C1646 C 0.31472 0.35452 0.36314 0.0
C1647 C 0.27901 0.26836 0.31598 0.0
H1648 H 0.3683 0.27283 0.28698 0.0
H1649 H 0.34351 0.25338 0.41538 0.0
H1650 H 0.31921 0.30285 0.25261 0.0
H1651 H 0.33162 0.33106 0.27722 0.0
H1652 H 0.35276 0.30923 0.25025 0.0
H1653 H 0.31613 0.28166 0.45501 0.0
H1654 H 0.30331 0.30985 0.42955 0.0
H1655 H 0.2893 0.27936 0.41917 0.0
H1656 H 0.26783 0.36955 0.3394 0.0
H1657 H 0.23719 0.29686 0.30327 0.0
H1658 H 0.32804 0.35931 0.33657 0.0
H1659 H 0.32564 0.34449 0.38867 0.0
H1660 H 0.30732 0.37263 0.37672 0.0
H1661 H 0.29491 0.26473 0.29326 0.0
H1662 H 0.2615 0.25975 0.3023 0.0
H1663 H 0.28352 0.25853 0.34683 0.0
C1664 C 0.25504 0.64642 0.58257 0.0
C1665 C 0.25277 0.63007 0.61813 0.0
C1666 C 0.27456 0.66439 0.58104 0.0
C1667 C 0.29127 0.66636 0.61667 0.0
C1668 C 0.29123 0.64749 0.64934 0.0
C1669 C 0.27197 0.62922 0.6494 0.0
C1670 C 0.27523 0.68326 0.54425 0.0
C1671 C 0.3091 0.64878 0.68748 0.0
C1672 C 0.34059 0.71814 0.62758 0.0
C1673 C 0.32661 0.73684 0.64944 0.0
C1674 C 0.32914 0.69535 0.61473 0.0
C1675 C 0.30349 0.69101 0.62566 0.0
C1676 C 0.28925 0.71004 0.64736 0.0
C1677 C 0.30096 0.73297 0.65835 0.0
C1678 C 0.34474 0.67594 0.5905 0.0
C1679 C 0.26183 0.70597 0.66005 0.0
H1680 H 0.24045 0.64652 0.55778 0.0
H1681 H 0.27032 0.61628 0.67661 0.0
H1682 H 0.2655 0.70102 0.5543 0.0
H1683 H 0.29509 0.68819 0.5357 0.0
H1684 H 0.26546 0.67574 0.51506 0.0
H1685 H 0.3092 0.63077 0.70632 0.0
H1686 H 0.32871 0.65293 0.67663 0.0
H1687 H 0.30311 0.66444 0.7093 0.0
H1688 H 0.36045 0.72142 0.62023 0.0
H1689 H 0.2903 0.74753 0.67529 0.0
H1690 H 0.333 0.66485 0.56741 0.0
H1691 H 0.35329 0.66246 0.61396 0.0
H1692 H 0.36047 0.68515 0.57238 0.0
H1693 H 0.2501 0.70279 0.63073 0.0
H1694 H 0.25386 0.72244 0.67799 0.0
H1695 H 0.26011 0.6888 0.68075 0.0
C1696 C 0.65677 0.72876 0.40725 0.0
C1697 C 0.63967 0.73086 0.37278 0.0
C1698 C 0.67305 0.70785 0.41006 0.0
C1699 C 0.67271 0.68953 0.37658 0.0
C1700 C 0.65339 0.69005 0.34479 0.0
C1701 C 0.63678 0.71074 0.34357 0.0
C1702 C 0.69248 0.70692 0.44591 0.0
C1703 C 0.65237 0.67069 0.30876 0.0
C1704 C 0.73737 0.6724 0.33444 0.0
C1705 C 0.73935 0.64694 0.34676 0.0
C1706 C 0.71566 0.68637 0.34416 0.0
C1707 C 0.69587 0.6747 0.36808 0.0
C1708 C 0.69816 0.64919 0.38204 0.0
C1709 C 0.7198 0.63535 0.37032 0.0
C1710 C 0.71375 0.71347 0.328 0.0
C1711 C 0.67782 0.63631 0.40857 0.0
H1712 H 0.65839 0.74409 0.43056 0.0
H1713 H 0.62323 0.71232 0.31726 0.0
H1714 H 0.69562 0.68704 0.45683 0.0
H1715 H 0.71084 0.71439 0.43375 0.0
H1716 H 0.6866 0.71864 0.47408 0.0
H1717 H 0.6342 0.67161 0.29056 0.0
H1718 H 0.66817 0.67431 0.28579 0.0
H1719 H 0.65479 0.65119 0.32174 0.0
H1720 H 0.75254 0.68118 0.31598 0.0
H1721 H 0.72159 0.61561 0.38008 0.0
H1722 H 0.71229 0.72673 0.3558 0.0
H1723 H 0.69641 0.71584 0.30801 0.0
H1724 H 0.73042 0.71915 0.30821 0.0
H1725 H 0.68577 0.62042 0.42804 0.0
H1726 H 0.66326 0.62825 0.38657 0.0
H1727 H 0.66826 0.64988 0.43071 0.0
C1728 C 0.72885 0.31031 0.66459 0.0
C1729 C 0.72928 0.33614 0.65414 0.0
C1730 C 0.70611 0.29679 0.66431 0.0
C1731 C 0.68343 0.30934 0.65196 0.0
C1732 C 0.68382 0.33534 0.64035 0.0
C1733 C 0.70683 0.34865 0.64241 0.0
C1734 C 0.70643 0.26908 0.67756 0.0
C1735 C 0.66013 0.34917 0.62617 0.0
C1736 C 0.63963 0.25674 0.62313 0.0
C1737 C 0.62849 0.25235 0.66353 0.0
C1738 C 0.65486 0.27813 0.61649 0.0
C1739 C 0.65966 0.2946 0.65172 0.0
C1740 C 0.64589 0.29192 0.69075 0.0
C1741 C 0.63011 0.27077 0.69606 0.0
C1742 C 0.66825 0.2813 0.57365 0.0
C1743 C 0.65045 0.30924 0.72891 0.0
H1744 H 0.74626 0.30081 0.67403 0.0
H1745 H 0.70734 0.3687 0.63415 0.0
H1746 H 0.69281 0.26578 0.70437 0.0
H1747 H 0.7005 0.25699 0.64993 0.0
H1748 H 0.72552 0.26271 0.68836 0.0
H1749 H 0.66474 0.3667 0.60765 0.0
H1750 H 0.64786 0.33683 0.6059 0.0
H1751 H 0.64906 0.35482 0.65513 0.0
H1752 H 0.63768 0.24269 0.59762 0.0
H1753 H 0.62114 0.2674 0.72714 0.0
H1754 H 0.68779 0.27358 0.57624 0.0
H1755 H 0.66972 0.3017 0.56477 0.0
H1756 H 0.65827 0.27095 0.5473 0.0
H1757 H 0.66884 0.30422 0.74426 0.0
H1758 H 0.63527 0.30743 0.75367 0.0
H1759 H 0.65163 0.32936 0.7184 0.0
C1760 C 0.73886 0.80632 0.87411 0.0
C1761 C 0.7398 0.8327 0.87977 0.0
C1762 C 0.76099 0.79187 0.87443 0.0
C1763 C 0.78453 0.80408 0.88208 0.0
C1764 C 0.78535 0.83029 0.8922 0.0
C1765 C 0.76289 0.84449 0.89011 0.0
C1766 C 0.75928 0.76392 0.86308 0.0
C1767 C 0.80991 0.84368 0.90271 0.0
C1768 C 0.83186 0.7518 0.89128 0.0
C1769 C 0.83926 0.74976 0.84796 0.0
C1770 C 0.81672 0.77211 0.90479 0.0
C1771 C 0.80794 0.78967 0.87356 0.0
C1772 C 0.81743 0.78893 0.83065 0.0
C1773 C 0.83342 0.76899 0.81847 0.0
C1774 C 0.80824 0.77341 0.95139 0.0
C1775 C 0.80844 0.80736 0.79642 0.0
H1776 H 0.72101 0.79712 0.8663 0.0
H1777 H 0.76355 0.86488 0.89531 0.0
H1778 H 0.77001 0.76014 0.83284 0.0
H1779 H 0.76787 0.75221 0.88907 0.0
H1780 H 0.7394 0.75748 0.85828 0.0
H1781 H 0.80654 0.86024 0.9243 0.0
H1782 H 0.82373 0.83071 0.91848 0.0
H1783 H 0.81854 0.85095 0.87239 0.0
H1784 H 0.83716 0.73706 0.91415 0.0
H1785 H 0.83964 0.7673 0.78512 0.0
H1786 H 0.78916 0.7647 0.95456 0.0
H1787 H 0.80689 0.79345 0.96242 0.0
H1788 H 0.82146 0.76293 0.97303 0.0
H1789 H 0.78816 0.80363 0.78903 0.0
H1790 H 0.81949 0.80566 0.76593 0.0
H1791 H 0.80994 0.82719 0.80828 0.0
C1792 C 0.77425 0.13237 0.15735 0.0
C1793 C 0.75422 0.14544 0.17719 0.0
C1794 C 0.79672 0.14509 0.14642 0.0
C1795 C 0.79909 0.17119 0.15657 0.0
C1796 C 0.77914 0.18415 0.17803 0.0
C1797 C 0.75675 0.17114 0.18749 0.0
C1798 C 0.81726 0.13089 0.12247 0.0
C1799 C 0.78121 0.2119 0.19047 0.0
C1800 C 0.85767 0.20967 0.17221 0.0
C1801 C 0.85415 0.22773 0.13934 0.0
C1802 C 0.84152 0.18867 0.17545 0.0
C1803 C 0.82197 0.18568 0.14455 0.0
C1804 C 0.82112 0.20152 0.10756 0.0
C1805 C 0.83707 0.22274 0.10567 0.0
C1806 C 0.84315 0.17198 0.21515 0.0
C1807 C 0.80127 0.19799 0.07286 0.0
H1808 H 0.77197 0.11247 0.14893 0.0
H1809 H 0.74118 0.18105 0.20306 0.0
H1810 H 0.81642 0.13605 0.08766 0.0
H1811 H 0.83639 0.13614 0.13449 0.0
H1812 H 0.81488 0.10996 0.12527 0.0
H1813 H 0.76462 0.21851 0.20957 0.0
H1814 H 0.79864 0.21515 0.20988 0.0
H1815 H 0.78262 0.22379 0.16089 0.0
H1816 H 0.8712 0.21325 0.19796 0.0
H1817 H 0.83491 0.23634 0.07951 0.0
H1818 H 0.83933 0.15181 0.20701 0.0
H1819 H 0.82858 0.17814 0.23887 0.0
H1820 H 0.86207 0.17333 0.23091 0.0
H1821 H 0.79825 0.17751 0.06593 0.0
H1822 H 0.80664 0.20785 0.04238 0.0
H1823 H 0.78297 0.20602 0.08422 0.0
C1824 C 0.13652 0.22397 0.86758 0.0
C1825 C 0.1261 0.22875 0.82674 0.0
C1826 C 0.15382 0.20417 0.87336 0.0
C1827 C 0.16123 0.18966 0.83699 0.0
C1828 C 0.14843 0.19252 0.79698 0.0
C1829 C 0.13063 0.21204 0.79245 0.0
C1830 C 0.1664 0.20094 0.91693 0.0
C1831 C 0.15595 0.17747 0.7574 0.0
C1832 C 0.23157 0.17831 0.82879 0.0
C1833 C 0.23303 0.15218 0.83635 0.0
C1834 C 0.20815 0.19066 0.82889 0.0
C1835 C 0.18586 0.17651 0.83793 0.0
C1836 C 0.18731 0.15024 0.84703 0.0
C1837 C 0.21098 0.13824 0.84554 0.0
C1838 C 0.20725 0.21876 0.81855 0.0
C1839 C 0.16396 0.13486 0.85794 0.0
H1840 H 0.13248 0.23679 0.89422 0.0
H1841 H 0.12235 0.21584 0.76094 0.0
H1842 H 0.17007 0.18058 0.92398 0.0
H1843 H 0.18494 0.21096 0.91683 0.0
H1844 H 0.15463 0.20906 0.94336 0.0
H1845 H 0.14112 0.17827 0.73186 0.0
H1846 H 0.17375 0.18551 0.7439 0.0
H1847 H 0.15963 0.15729 0.76567 0.0
H1848 H 0.24868 0.18895 0.82146 0.0
H1849 H 0.21227 0.11799 0.85184 0.0
H1850 H 0.19936 0.22942 0.84645 0.0
H1851 H 0.19458 0.22219 0.79042 0.0
H1852 H 0.22629 0.22666 0.81093 0.0
H1853 H 0.15316 0.14418 0.88436 0.0
H1854 H 0.16873 0.11515 0.86804 0.0
H1855 H 0.15125 0.1339 0.82937 0.0
C1856 C 0.13686 0.77205 0.15176 0.0
C1857 C 0.14369 0.75101 0.12648 0.0
C1858 C 0.15066 0.79468 0.14917 0.0
C1859 C 0.17142 0.79608 0.12035 0.0
C1860 C 0.17578 0.77633 0.09021 0.0
C1861 C 0.16208 0.75369 0.09413 0.0
C1862 C 0.14526 0.81554 0.18144 0.0
C1863 C 0.19703 0.77783 0.05758 0.0
C1864 C 0.21511 0.85333 0.12313 0.0
C1865 C 0.23426 0.84403 0.15025 0.0
C1866 C 0.19416 0.83803 0.11277 0.0
C1867 C 0.19251 0.81335 0.13087 0.0
C1868 C 0.21153 0.8044 0.15948 0.0
C1869 C 0.23232 0.8198 0.16836 0.0
C1870 C 0.17455 0.84788 0.08135 0.0
C1871 C 0.21022 0.77839 0.18043 0.0
H1872 H 0.12217 0.7702 0.17614 0.0
H1873 H 0.16666 0.73771 0.07337 0.0
H1874 H 0.1588 0.81394 0.20885 0.0
H1875 H 0.14783 0.83458 0.16661 0.0
H1876 H 0.12569 0.81414 0.19459 0.0
H1877 H 0.19417 0.76416 0.0306 0.0
H1878 H 0.19862 0.79732 0.04406 0.0
H1879 H 0.21526 0.7732 0.07377 0.0
H1880 H 0.21693 0.87215 0.10904 0.0
H1881 H 0.24713 0.81293 0.18981 0.0
H1882 H 0.15512 0.84193 0.09075 0.0
H1883 H 0.17844 0.83986 0.0488 0.0
H1884 H 0.17513 0.86895 0.07883 0.0
H1885 H 0.19194 0.77604 0.1978 0.0
H1886 H 0.22589 0.77518 0.20387 0.0
H1887 H 0.21127 0.7634 0.15525 0.0
loop_
_geom_bond_atom_site_label_1
_geom_bond_atom_site_label_2
_geom_bond_distance
_geom_bond_site_symmetry_2
_ccdc_geom_bond_type
Sc0 O3 2.025 . S
Sc0 O10 2.105 . S
Sc0 O13 2.105 . S
Sc0 O16 2.105 . S
Sc0 O19 2.105 . S
Sc1 O3 2.025 . S
Sc1 O11 2.105 . S
Sc1 O15 2.105 . S
Sc1 O17 2.105 . S
Sc1 O21 2.105 . S
Sc2 O3 2.025 . S
Sc2 O12 2.105 . S
Sc2 O14 2.105 . S
Sc2 O18 2.105 . S
Sc2 O20 2.105 . S
O3 Sc0 2.025 . S
O3 Sc1 2.025 . S
O3 Sc2 2.025 . S
C4 O10 1.268 . S
C4 O20 1.268 . S
C5 O11 1.268 . S
C5 O19 1.268 . S
C6 O12 1.268 . S
C6 O21 1.268 . S
C7 O13 1.268 . S
C7 O17 1.268 . S
C8 O14 1.268 . S
C8 O16 1.268 . S
C9 O15 1.268 . S
C9 O18 1.268 . S
O10 Sc0 2.105 . S
O10 C4 1.268 . S
O11 Sc1 2.105 . S
O11 C5 1.268 . S
O12 Sc2 2.105 . S
O12 C6 1.268 . S
O13 Sc0 2.105 . S
O13 C7 1.268 . S
O14 Sc2 2.105 . S
O14 C8 1.268 . S
O15 Sc1 2.105 . S
O15 C9 1.268 . S
O16 Sc0 2.105 . S
O16 C8 1.268 . S
O17 Sc1 2.105 . S
O17 C7 1.268 . S
O18 Sc2 2.105 . S
O18 C9 1.268 . S
O19 Sc0 2.105 . S
O19 C5 1.268 . S
O20 Sc2 2.105 . S
O20 C4 1.268 . S
O21 Sc1 2.105 . S
O21 C6 1.268 . S
Sc22 O25 2.025 . S
Sc22 O32 2.105 . S
Sc22 O35 2.105 . S
Sc22 O38 2.105 . S
Sc22 O41 2.105 . S
Sc23 O25 2.025 . S
Sc23 O33 2.105 . S
Sc23 O37 2.105 . S
Sc23 O39 2.105 . S
Sc23 O43 2.105 . S
Sc24 O25 2.025 . S
Sc24 O34 2.105 . S
Sc24 O36 2.105 . S
Sc24 O40 2.105 . S
Sc24 O42 2.105 . S
O25 Sc22 2.025 . S
O25 Sc23 2.025 . S
O25 Sc24 2.025 . S
C26 O32 1.268 . S
C26 O42 1.268 . S
C27 O33 1.268 . S
C27 O41 1.268 . S
C28 O34 1.268 . S
C28 O43 1.268 . S
C29 O35 1.268 . S
C29 O39 1.268 . S
C30 O36 1.268 . S
C30 O38 1.268 . S
C31 O37 1.268 . S
C31 O40 1.268 . S
O32 Sc22 2.105 . S
O32 C26 1.268 . S
O33 Sc23 2.105 . S
O33 C27 1.268 . S
O34 Sc24 2.105 . S
O34 C28 1.268 . S
O35 Sc22 2.105 . S
O35 C29 1.268 . S
O36 Sc24 2.105 . S
O36 C30 1.268 . S
O37 Sc23 2.105 . S
O37 C31 1.268 . S
O38 Sc22 2.105 . S
O38 C30 1.268 . S
O39 Sc23 2.105 . S
O39 C29 1.268 . S
O40 Sc24 2.105 . S
O40 C31 1.268 . S
O41 Sc22 2.105 . S
O41 C27 1.268 . S
O42 Sc24 2.105 . S
O42 C26 1.268 . S
O43 Sc23 2.105 . S
O43 C28 1.268 . S
Sc44 O47 2.025 . S
Sc44 O54 2.105 . S
Sc44 O57 2.105 . S
Sc44 O60 2.105 . S
Sc44 O63 2.105 . S
Sc45 O47 2.025 . S
Sc45 O55 2.105 . S
Sc45 O59 2.105 . S
Sc45 O61 2.105 . S
Sc45 O65 2.105 . S
Sc46 O47 2.025 . S
Sc46 O56 2.105 . S
Sc46 O58 2.105 . S
Sc46 O62 2.105 . S
Sc46 O64 2.105 . S
O47 Sc44 2.025 . S
O47 Sc45 2.025 . S
O47 Sc46 2.025 . S
C48 O54 1.268 . S
C48 O64 1.268 . S
C49 O55 1.268 . S
C49 O63 1.268 . S
C50 O56 1.268 . S
C50 O65 1.268 . S
C51 O57 1.268 . S
C51 O61 1.268 . S
C52 O58 1.268 . S
C52 O60 1.268 . S
C53 O59 1.268 . S
C53 O62 1.268 . S
O54 Sc44 2.105 . S
O54 C48 1.268 . S
O55 Sc45 2.105 . S
O55 C49 1.268 . S
O56 Sc46 2.105 . S
O56 C50 1.268 . S
O57 Sc44 2.105 . S
O57 C51 1.268 . S
O58 Sc46 2.105 . S
O58 C52 1.268 . S
O59 Sc45 2.105 . S
O59 C53 1.268 . S
O60 Sc44 2.105 . S
O60 C52 1.268 . S
O61 Sc45 2.105 . S
O61 C51 1.268 . S
O62 Sc46 2.105 . S
O62 C53 1.268 . S
O63 Sc44 2.105 . S
O63 C49 1.268 . S
O64 Sc46 2.105 . S
O64 C48 1.268 . S
O65 Sc45 2.105 . S
O65 C50 1.268 . S
Sc66 O69 2.025 . S
Sc66 O76 2.105 . S
Sc66 O79 2.105 . S
Sc66 O82 2.105 . S
Sc66 O85 2.105 . S
Sc67 O69 2.025 . S
Sc67 O77 2.105 . S
Sc67 O81 2.105 . S
Sc67 O83 2.105 . S
Sc67 O87 2.105 . S
Sc68 O69 2.025 . S
Sc68 O78 2.105 . S
Sc68 O80 2.105 . S
Sc68 O84 2.105 . S
Sc68 O86 2.105 . S
O69 Sc66 2.025 . S
O69 Sc67 2.025 . S
O69 Sc68 2.025 . S
C70 O76 1.268 . S
C70 O86 1.268 . S
C71 O77 1.268 . S
C71 O85 1.268 . S
C72 O78 1.268 . S
C72 O87 1.268 . S
C73 O79 1.268 . S
C73 O83 1.268 . S
C74 O80 1.268 . S
C74 O82 1.268 . S
C75 O81 1.268 . S
C75 O84 1.268 . S
O76 Sc66 2.105 . S
O76 C70 1.268 . S
O77 Sc67 2.105 . S
O77 C71 1.268 . S
O78 Sc68 2.105 . S
O78 C72 1.268 . S
O79 Sc66 2.105 . S
O79 C73 1.268 . S
O80 Sc68 2.105 . S
O80 C74 1.268 . S
O81 Sc67 2.105 . S
O81 C75 1.268 . S
O82 Sc66 2.105 . S
O82 C74 1.268 . S
O83 Sc67 2.105 . S
O83 C73 1.268 . S
O84 Sc68 2.105 . S
O84 C75 1.268 . S
O85 Sc66 2.105 . S
O85 C71 1.268 . S
O86 Sc68 2.105 . S
O86 C70 1.268 . S
O87 Sc67 2.105 . S
O87 C72 1.268 . S
Sc88 O91 2.025 . S
Sc88 O98 2.105 . S
Sc88 O101 2.105 . S
Sc88 O104 2.105 . S
Sc88 O107 2.105 . S
Sc89 O91 2.025 . S
Sc89 O99 2.105 . S
Sc89 O103 2.105 . S
Sc89 O105 2.105 . S
Sc89 O109 2.105 . S
Sc90 O91 2.025 . S
Sc90 O100 2.105 . S
Sc90 O102 2.105 . S
Sc90 O106 2.105 . S
Sc90 O108 2.105 . S
O91 Sc88 2.025 . S
O91 Sc89 2.025 . S
O91 Sc90 2.025 . S
C92 O98 1.268 . S
C92 O108 1.268 . S
C93 O99 1.268 . S
C93 O107 1.268 . S
C94 O100 1.268 . S
C94 O109 1.268 . S
C95 O101 1.268 . S
C95 O105 1.268 . S
C96 O102 1.268 . S
C96 O104 1.268 . S
C97 O103 1.268 . S
C97 O106 1.268 . S
O98 Sc88 2.105 . S
O98 C92 1.268 . S
O99 Sc89 2.105 . S
O99 C93 1.268 . S
O100 Sc90 2.105 . S
O100 C94 1.268 . S
O101 Sc88 2.105 . S
O101 C95 1.268 . S
O102 Sc90 2.105 . S
O102 C96 1.268 . S
O103 Sc89 2.105 . S
O103 C97 1.268 . S
O104 Sc88 2.105 . S
O104 C96 1.268 . S
O105 Sc89 2.105 . S
O105 C95 1.268 . S
O106 Sc90 2.105 . S
O106 C97 1.268 . S
O107 Sc88 2.105 . S
O107 C93 1.268 . S
O108 Sc90 2.105 . S
O108 C92 1.268 . S
O109 Sc89 2.105 . S
O109 C94 1.268 . S
Sc110 O113 2.025 . S
Sc110 O120 2.105 . S
Sc110 O123 2.105 . S
Sc110 O126 2.105 . S
Sc110 O129 2.105 . S
Sc111 O113 2.025 . S
Sc111 O121 2.105 . S
Sc111 O125 2.105 . S
Sc111 O127 2.105 . S
Sc111 O131 2.105 . S
Sc112 O113 2.025 . S
Sc112 O122 2.105 . S
Sc112 O124 2.105 . S
Sc112 O128 2.105 . S
Sc112 O130 2.105 . S
O113 Sc110 2.025 . S
O113 Sc111 2.025 . S
O113 Sc112 2.025 . S
C114 O120 1.268 . S
C114 O130 1.268 . S
C115 O121 1.268 . S
C115 O129 1.268 . S
C116 O122 1.268 . S
C116 O131 1.268 . S
C117 O123 1.268 . S
C117 O127 1.268 . S
C118 O124 1.268 . S
C118 O126 1.268 . S
C119 O125 1.268 . S
C119 O128 1.268 . S
O120 Sc110 2.105 . S
O120 C114 1.268 . S
O121 Sc111 2.105 . S
O121 C115 1.268 . S
O122 Sc112 2.105 . S
O122 C116 1.268 . S
O123 Sc110 2.105 . S
O123 C117 1.268 . S
O124 Sc112 2.105 . S
O124 C118 1.268 . S
O125 Sc111 2.105 . S
O125 C119 1.268 . S
O126 Sc110 2.105 . S
O126 C118 1.268 . S
O127 Sc111 2.105 . S
O127 C117 1.268 . S
O128 Sc112 2.105 . S
O128 C119 1.268 . S
O129 Sc110 2.105 . S
O129 C115 1.268 . S
O130 Sc112 2.105 . S
O130 C114 1.268 . S
O131 Sc111 2.105 . S
O131 C116 1.268 . S
Sc132 O135 2.025 . S
Sc132 O142 2.105 . S
Sc132 O145 2.105 . S
Sc132 O148 2.105 . S
Sc132 O151 2.105 . S
Sc133 O135 2.025 . S
Sc133 O143 2.105 . S
Sc133 O147 2.105 . S
Sc133 O149 2.105 . S
Sc133 O153 2.105 . S
Sc134 O135 2.025 . S
Sc134 O144 2.105 . S
Sc134 O146 2.105 . S
Sc134 O150 2.105 . S
Sc134 O152 2.105 . S
O135 Sc132 2.025 . S
O135 Sc133 2.025 . S
O135 Sc134 2.025 . S
C136 O142 1.268 . S
C136 O152 1.268 . S
C137 O143 1.268 . S
C137 O151 1.268 . S
C138 O144 1.268 . S
C138 O153 1.268 . S
C139 O145 1.268 . S
C139 O149 1.268 . S
C140 O146 1.268 . S
C140 O148 1.268 . S
C141 O147 1.268 . S
C141 O150 1.268 . S
O142 Sc132 2.105 . S
O142 C136 1.268 . S
O143 Sc133 2.105 . S
O143 C137 1.268 . S
O144 Sc134 2.105 . S
O144 C138 1.268 . S
O145 Sc132 2.105 . S
O145 C139 1.268 . S
O146 Sc134 2.105 . S
O146 C140 1.268 . S
O147 Sc133 2.105 . S
O147 C141 1.268 . S
O148 Sc132 2.105 . S
O148 C140 1.268 . S
O149 Sc133 2.105 . S
O149 C139 1.268 . S
O150 Sc134 2.105 . S
O150 C141 1.268 . S
O151 Sc132 2.105 . S
O151 C137 1.268 . S
O152 Sc134 2.105 . S
O152 C136 1.268 . S
O153 Sc133 2.105 . S
O153 C138 1.268 . S
Sc154 O157 2.025 . S
Sc154 O164 2.105 . S
Sc154 O167 2.105 . S
Sc154 O170 2.105 . S
Sc154 O173 2.105 . S
Sc155 O157 2.025 . S
Sc155 O165 2.105 . S
Sc155 O169 2.105 . S
Sc155 O171 2.105 . S
Sc155 O175 2.105 . S
Sc156 O157 2.025 . S
Sc156 O166 2.105 . S
Sc156 O168 2.105 . S
Sc156 O172 2.105 . S
Sc156 O174 2.105 . S
O157 Sc154 2.025 . S
O157 Sc155 2.025 . S
O157 Sc156 2.025 . S
C158 O164 1.268 . S
C158 O174 1.268 . S
C159 O165 1.268 . S
C159 O173 1.268 . S
C160 O166 1.268 . S
C160 O175 1.268 . S
C161 O167 1.268 . S
C161 O171 1.268 . S
C162 O168 1.268 . S
C162 O170 1.268 . S
C163 O169 1.268 . S
C163 O172 1.268 . S
O164 Sc154 2.105 . S
O164 C158 1.268 . S
O165 Sc155 2.105 . S
O165 C159 1.268 . S
O166 Sc156 2.105 . S
O166 C160 1.268 . S
O167 Sc154 2.105 . S
O167 C161 1.268 . S
O168 Sc156 2.105 . S
O168 C162 1.268 . S
O169 Sc155 2.105 . S
O169 C163 1.268 . S
O170 Sc154 2.105 . S
O170 C162 1.268 . S
O171 Sc155 2.105 . S
O171 C161 1.268 . S
O172 Sc156 2.105 . S
O172 C163 1.268 . S
O173 Sc154 2.105 . S
O173 C159 1.268 . S
O174 Sc156 2.105 . S
O174 C158 1.268 . S
O175 Sc155 2.105 . S
O175 C160 1.268 . S
Sc176 O179 2.025 . S
Sc176 O186 2.105 . S
Sc176 O189 2.105 . S
Sc176 O192 2.105 . S
Sc176 O195 2.105 . S
Sc177 O179 2.025 . S
Sc177 O187 2.105 . S
Sc177 O191 2.105 . S
Sc177 O193 2.105 . S
Sc177 O197 2.105 . S
Sc178 O179 2.025 . S
Sc178 O188 2.105 . S
Sc178 O190 2.105 . S
Sc178 O194 2.105 . S
Sc178 O196 2.105 . S
O179 Sc176 2.025 . S
O179 Sc177 2.025 . S
O179 Sc178 2.025 . S
C180 O186 1.268 . S
C180 O196 1.268 . S
C181 O187 1.268 . S
C181 O195 1.268 . S
C182 O188 1.268 . S
C182 O197 1.268 . S
C183 O189 1.268 . S
C183 O193 1.268 . S
C184 O190 1.268 . S
C184 O192 1.268 . S
C185 O191 1.268 . S
C185 O194 1.268 . S
O186 Sc176 2.105 . S
O186 C180 1.268 . S
O187 Sc177 2.105 . S
O187 C181 1.268 . S
O188 Sc178 2.105 . S
O188 C182 1.268 . S
O189 Sc176 2.105 . S
O189 C183 1.268 . S
O190 Sc178 2.105 . S
O190 C184 1.268 . S
O191 Sc177 2.105 . S
O191 C185 1.268 . S
O192 Sc176 2.105 . S
O192 C184 1.268 . S
O193 Sc177 2.105 . S
O193 C183 1.268 . S
O194 Sc178 2.105 . S
O194 C185 1.268 . S
O195 Sc176 2.105 . S
O195 C181 1.268 . S
O196 Sc178 2.105 . S
O196 C180 1.268 . S
O197 Sc177 2.105 . S
O197 C182 1.268 . S
Sc198 O201 2.025 . S
Sc198 O208 2.105 . S
Sc198 O211 2.105 . S
Sc198 O214 2.105 . S
Sc198 O217 2.105 . S
Sc199 O201 2.025 . S
Sc199 O209 2.105 . S
Sc199 O213 2.105 . S
Sc199 O215 2.105 . S
Sc199 O219 2.105 . S
Sc200 O201 2.025 . S
Sc200 O210 2.105 . S
Sc200 O212 2.105 . S
Sc200 O216 2.105 . S
Sc200 O218 2.105 . S
O201 Sc198 2.025 . S
O201 Sc199 2.025 . S
O201 Sc200 2.025 . S
C202 O208 1.268 . S
C202 O218 1.268 . S
C203 O209 1.268 . S
C203 O217 1.268 . S
C204 O210 1.268 . S
C204 O219 1.268 . S
C205 O211 1.268 . S
C205 O215 1.268 . S
C206 O212 1.268 . S
C206 O214 1.268 . S
C207 O213 1.268 . S
C207 O216 1.268 . S
O208 Sc198 2.105 . S
O208 C202 1.268 . S
O209 Sc199 2.105 . S
O209 C203 1.268 . S
O210 Sc200 2.105 . S
O210 C204 1.268 . S
O211 Sc198 2.105 . S
O211 C205 1.268 . S
O212 Sc200 2.105 . S
O212 C206 1.268 . S
O213 Sc199 2.105 . S
O213 C207 1.268 . S
O214 Sc198 2.105 . S
O214 C206 1.268 . S
O215 Sc199 2.105 . S
O215 C205 1.268 . S
O216 Sc200 2.105 . S
O216 C207 1.268 . S
O217 Sc198 2.105 . S
O217 C203 1.268 . S
O218 Sc200 2.105 . S
O218 C202 1.268 . S
O219 Sc199 2.105 . S
O219 C204 1.268 . S
Sc220 O223 2.025 . S
Sc220 O230 2.105 . S
Sc220 O233 2.105 . S
Sc220 O236 2.105 . S
Sc220 O239 2.105 . S
Sc221 O223 2.025 . S
Sc221 O231 2.105 . S
Sc221 O235 2.105 . S
Sc221 O237 2.105 . S
Sc221 O241 2.105 . S
Sc222 O223 2.025 . S
Sc222 O232 2.105 . S
Sc222 O234 2.105 . S
Sc222 O238 2.105 . S
Sc222 O240 2.105 . S
O223 Sc220 2.025 . S
O223 Sc221 2.025 . S
O223 Sc222 2.025 . S
C224 O230 1.268 . S
C224 O240 1.268 . S
C225 O231 1.268 . S
C225 O239 1.268 . S
C226 O232 1.268 . S
C226 O241 1.268 . S
C227 O233 1.268 . S
C227 O237 1.268 . S
C228 O234 1.268 . S
C228 O236 1.268 . S
C229 O235 1.268 . S
C229 O238 1.268 . S
O230 Sc220 2.105 . S
O230 C224 1.268 . S
O231 Sc221 2.105 . S
O231 C225 1.268 . S
O232 Sc222 2.105 . S
O232 C226 1.268 . S
O233 Sc220 2.105 . S
O233 C227 1.268 . S
O234 Sc222 2.105 . S
O234 C228 1.268 . S
O235 Sc221 2.105 . S
O235 C229 1.268 . S
O236 Sc220 2.105 . S
O236 C228 1.268 . S
O237 Sc221 2.105 . S
O237 C227 1.268 . S
O238 Sc222 2.105 . S
O238 C229 1.268 . S
O239 Sc220 2.105 . S
O239 C225 1.268 . S
O240 Sc222 2.105 . S
O240 C224 1.268 . S
O241 Sc221 2.105 . S
O241 C226 1.268 . S
Sc242 O245 2.025 . S
Sc242 O252 2.105 . S
Sc242 O255 2.105 . S
Sc242 O258 2.105 . S
Sc242 O261 2.105 . S
Sc243 O245 2.025 . S
Sc243 O253 2.105 . S
Sc243 O257 2.105 . S
Sc243 O259 2.105 . S
Sc243 O263 2.105 . S
Sc244 O245 2.025 . S
Sc244 O254 2.105 . S
Sc244 O256 2.105 . S
Sc244 O260 2.105 . S
Sc244 O262 2.105 . S
O245 Sc242 2.025 . S
O245 Sc243 2.025 . S
O245 Sc244 2.025 . S
C246 O252 1.268 . S
C246 O262 1.268 . S
C247 O253 1.268 . S
C247 O261 1.268 . S
C248 O254 1.268 . S
C248 O263 1.268 . S
C249 O255 1.268 . S
C249 O259 1.268 . S
C250 O256 1.268 . S
C250 O258 1.268 . S
C251 O257 1.268 . S
C251 O260 1.268 . S
O252 Sc242 2.105 . S
O252 C246 1.268 . S
O253 Sc243 2.105 . S
O253 C247 1.268 . S
O254 Sc244 2.105 . S
O254 C248 1.268 . S
O255 Sc242 2.105 . S
O255 C249 1.268 . S
O256 Sc244 2.105 . S
O256 C250 1.268 . S
O257 Sc243 2.105 . S
O257 C251 1.268 . S
O258 Sc242 2.105 . S
O258 C250 1.268 . S
O259 Sc243 2.105 . S
O259 C249 1.268 . S
O260 Sc244 2.105 . S
O260 C251 1.268 . S
O261 Sc242 2.105 . S
O261 C247 1.268 . S
O262 Sc244 2.105 . S
O262 C246 1.268 . S
O263 Sc243 2.105 . S
O263 C248 1.268 . S
Sc264 O267 2.025 . S
Sc264 O274 2.105 . S
Sc264 O277 2.105 . S
Sc264 O280 2.105 . S
Sc264 O283 2.105 . S
Sc265 O267 2.025 . S
Sc265 O275 2.105 . S
Sc265 O279 2.105 . S
Sc265 O281 2.105 . S
Sc265 O285 2.105 . S
Sc266 O267 2.025 . S
Sc266 O276 2.105 . S
Sc266 O278 2.105 . S
Sc266 O282 2.105 . S
Sc266 O284 2.105 . S
O267 Sc264 2.025 . S
O267 Sc265 2.025 . S
O267 Sc266 2.025 . S
C268 O274 1.268 . S
C268 O284 1.268 . S
C269 O275 1.268 . S
C269 O283 1.268 . S
C270 O276 1.268 . S
C270 O285 1.268 . S
C271 O277 1.268 . S
C271 O281 1.268 . S
C272 O278 1.268 . S
C272 O280 1.268 . S
C273 O279 1.268 . S
C273 O282 1.268 . S
O274 Sc264 2.105 . S
O274 C268 1.268 . S
O275 Sc265 2.105 . S
O275 C269 1.268 . S
O276 Sc266 2.105 . S
O276 C270 1.268 . S
O277 Sc264 2.105 . S
O277 C271 1.268 . S
O278 Sc266 2.105 . S
O278 C272 1.268 . S
O279 Sc265 2.105 . S
O279 C273 1.268 . S
O280 Sc264 2.105 . S
O280 C272 1.268 . S
O281 Sc265 2.105 . S
O281 C271 1.268 . S
O282 Sc266 2.105 . S
O282 C273 1.268 . S
O283 Sc264 2.105 . S
O283 C269 1.268 . S
O284 Sc266 2.105 . S
O284 C268 1.268 . S
O285 Sc265 2.105 . S
O285 C270 1.268 . S
Sc286 O289 2.025 . S
Sc286 O296 2.105 . S
Sc286 O299 2.105 . S
Sc286 O302 2.105 . S
Sc286 O305 2.105 . S
Sc287 O289 2.025 . S
Sc287 O297 2.105 . S
Sc287 O301 2.105 . S
Sc287 O303 2.105 . S
Sc287 O307 2.105 . S
Sc288 O289 2.025 . S
Sc288 O298 2.105 . S
Sc288 O300 2.105 . S
Sc288 O304 2.105 . S
Sc288 O306 2.105 . S
O289 Sc286 2.025 . S
O289 Sc287 2.025 . S
O289 Sc288 2.025 . S
C290 O296 1.268 . S
C290 O306 1.268 . S
C291 O297 1.268 . S
C291 O305 1.268 . S
C292 O298 1.268 . S
C292 O307 1.268 . S
C293 O299 1.268 . S
C293 O303 1.268 . S
C294 O300 1.268 . S
C294 O302 1.268 . S
C295 O301 1.268 . S
C295 O304 1.268 . S
O296 Sc286 2.105 . S
O296 C290 1.268 . S
O297 Sc287 2.105 . S
O297 C291 1.268 . S
O298 Sc288 2.105 . S
O298 C292 1.268 . S
O299 Sc286 2.105 . S
O299 C293 1.268 . S
O300 Sc288 2.105 . S
O300 C294 1.268 . S
O301 Sc287 2.105 . S
O301 C295 1.268 . S
O302 Sc286 2.105 . S
O302 C294 1.268 . S
O303 Sc287 2.105 . S
O303 C293 1.268 . S
O304 Sc288 2.105 . S
O304 C295 1.268 . S
O305 Sc286 2.105 . S
O305 C291 1.268 . S
O306 Sc288 2.105 . S
O306 C290 1.268 . S
O307 Sc287 2.105 . S
O307 C292 1.268 . S
Sc308 O311 2.025 . S
Sc308 O318 2.105 . S
Sc308 O321 2.105 . S
Sc308 O324 2.105 . S
Sc308 O327 2.105 . S
Sc309 O311 2.025 . S
Sc309 O319 2.105 . S
Sc309 O323 2.105 . S
Sc309 O325 2.105 . S
Sc309 O329 2.105 . S
Sc310 O311 2.025 . S
Sc310 O320 2.105 . S
Sc310 O322 2.105 . S
Sc310 O326 2.105 . S
Sc310 O328 2.105 . S
O311 Sc308 2.025 . S
O311 Sc309 2.025 . S
O311 Sc310 2.025 . S
C312 O318 1.268 . S
C312 O328 1.268 . S
C313 O319 1.268 . S
C313 O327 1.268 . S
C314 O320 1.268 . S
C314 O329 1.268 . S
C315 O321 1.268 . S
C315 O325 1.268 . S
C316 O322 1.268 . S
C316 O324 1.268 . S
C317 O323 1.268 . S
C317 O326 1.268 . S
O318 Sc308 2.105 . S
O318 C312 1.268 . S
O319 Sc309 2.105 . S
O319 C313 1.268 . S
O320 Sc310 2.105 . S
O320 C314 1.268 . S
O321 Sc308 2.105 . S
O321 C315 1.268 . S
O322 Sc310 2.105 . S
O322 C316 1.268 . S
O323 Sc309 2.105 . S
O323 C317 1.268 . S
O324 Sc308 2.105 . S
O324 C316 1.268 . S
O325 Sc309 2.105 . S
O325 C315 1.268 . S
O326 Sc310 2.105 . S
O326 C317 1.268 . S
O327 Sc308 2.105 . S
O327 C313 1.268 . S
O328 Sc310 2.105 . S
O328 C312 1.268 . S
O329 Sc309 2.105 . S
O329 C314 1.268 . S
Sc330 O333 2.025 . S
Sc330 O340 2.105 . S
Sc330 O343 2.105 . S
Sc330 O346 2.105 . S
Sc330 O349 2.105 . S
Sc331 O333 2.025 . S
Sc331 O341 2.105 . S
Sc331 O345 2.105 . S
Sc331 O347 2.105 . S
Sc331 O351 2.105 . S
Sc332 O333 2.025 . S
Sc332 O342 2.105 . S
Sc332 O344 2.105 . S
Sc332 O348 2.105 . S
Sc332 O350 2.105 . S
O333 Sc330 2.025 . S
O333 Sc331 2.025 . S
O333 Sc332 2.025 . S
C334 O340 1.268 . S
C334 O350 1.268 . S
C335 O341 1.268 . S
C335 O349 1.268 . S
C336 O342 1.268 . S
C336 O351 1.268 . S
C337 O343 1.268 . S
C337 O347 1.268 . S
C338 O344 1.268 . S
C338 O346 1.268 . S
C339 O345 1.268 . S
C339 O348 1.268 . S
O340 Sc330 2.105 . S
O340 C334 1.268 . S
O341 Sc331 2.105 . S
O341 C335 1.268 . S
O342 Sc332 2.105 . S
O342 C336 1.268 . S
O343 Sc330 2.105 . S
O343 C337 1.268 . S
O344 Sc332 2.105 . S
O344 C338 1.268 . S
O345 Sc331 2.105 . S
O345 C339 1.268 . S
O346 Sc330 2.105 . S
O346 C338 1.268 . S
O347 Sc331 2.105 . S
O347 C337 1.268 . S
O348 Sc332 2.105 . S
O348 C339 1.268 . S
O349 Sc330 2.105 . S
O349 C335 1.268 . S
O350 Sc332 2.105 . S
O350 C334 1.268 . S
O351 Sc331 2.105 . S
O351 C336 1.268 . S
C352 C353 1.391 . S
C352 C354 1.394 . S
C352 H368 0.931 . S
C353 C352 1.391 . S
C353 C357 1.376 . S
C354 C352 1.394 . S
C354 C355 1.369 . S
C354 C358 1.531 . S
C355 C354 1.369 . S
C355 C356 1.410 . S
C355 C363 1.503 . S
C356 C355 1.410 . S
C356 C357 1.392 . S
C356 C359 1.511 . S
C357 C353 1.376 . S
C357 C356 1.392 . S
C357 H369 0.929 . S
C358 C354 1.531 . S
C358 H370 0.960 . S
C358 H371 0.962 . S
C358 H372 0.960 . S
C359 C356 1.511 . S
C359 H373 0.961 . S
C359 H374 0.961 . S
C359 H375 0.961 . S
C360 C361 1.370 . S
C360 C362 1.363 . S
C360 H376 0.931 . S
C361 C360 1.370 . S
C361 C365 1.408 . S
C362 C360 1.363 . S
C362 C363 1.370 . S
C362 C366 1.524 . S
C363 C355 1.503 . S
C363 C362 1.370 . S
C363 C364 1.403 . S
C364 C363 1.403 . S
C364 C365 1.404 . S
C364 C367 1.539 . S
C365 C361 1.408 . S
C365 C364 1.404 . S
C365 H377 0.930 . S
C366 C362 1.524 . S
C366 H378 0.956 . S
C366 H379 0.961 . S
C366 H380 0.961 . S
C367 C364 1.539 . S
C367 H381 0.958 . S
C367 H382 0.961 . S
C367 H383 0.960 . S
H368 C352 0.931 . S
H369 C357 0.929 . S
H370 C358 0.960 . S
H371 C358 0.962 . S
H372 C358 0.960 . S
H373 C359 0.961 . S
H374 C359 0.961 . S
H375 C359 0.961 . S
H376 C360 0.931 . S
H377 C365 0.930 . S
H378 C366 0.956 . S
H379 C366 0.961 . S
H380 C366 0.961 . S
H381 C367 0.958 . S
H382 C367 0.961 . S
H383 C367 0.960 . S
C384 C385 1.391 . S
C384 C386 1.394 . S
C384 H400 0.931 . S
C385 C384 1.391 . S
C385 C389 1.376 . S
C386 C384 1.394 . S
C386 C387 1.369 . S
C386 C390 1.531 . S
C387 C386 1.369 . S
C387 C388 1.410 . S
C387 C395 1.503 . S
C388 C387 1.410 . S
C388 C389 1.392 . S
C388 C391 1.511 . S
C389 C385 1.376 . S
C389 C388 1.392 . S
C389 H401 0.929 . S
C390 C386 1.531 . S
C390 H402 0.960 . S
C390 H403 0.962 . S
C390 H404 0.960 . S
C391 C388 1.511 . S
C391 H405 0.961 . S
C391 H406 0.961 . S
C391 H407 0.961 . S
C392 C393 1.370 . S
C392 C394 1.363 . S
C392 H408 0.931 . S
C393 C392 1.370 . S
C393 C397 1.408 . S
C394 C392 1.363 . S
C394 C395 1.370 . S
C394 C398 1.524 . S
C395 C387 1.503 . S
C395 C394 1.370 . S
C395 C396 1.403 . S
C396 C395 1.403 . S
C396 C397 1.404 . S
C396 C399 1.539 . S
C397 C393 1.408 . S
C397 C396 1.404 . S
C397 H409 0.930 . S
C398 C394 1.524 . S
C398 H410 0.956 . S
C398 H411 0.961 . S
C398 H412 0.961 . S
C399 C396 1.539 . S
C399 H413 0.958 . S
C399 H414 0.961 . S
C399 H415 0.960 . S
H400 C384 0.931 . S
H401 C389 0.929 . S
H402 C390 0.960 . S
H403 C390 0.962 . S
H404 C390 0.960 . S
H405 C391 0.961 . S
H406 C391 0.961 . S
H407 C391 0.961 . S
H408 C392 0.931 . S
H409 C397 0.930 . S
H410 C398 0.956 . S
H411 C398 0.961 . S
H412 C398 0.961 . S
H413 C399 0.958 . S
H414 C399 0.961 . S
H415 C399 0.960 . S
C416 C417 1.391 . S
C416 C418 1.394 . S
C416 H432 0.931 . S
C417 C416 1.391 . S
C417 C421 1.376 . S
C418 C416 1.394 . S
C418 C419 1.369 . S
C418 C422 1.531 . S
C419 C418 1.369 . S
C419 C420 1.410 . S
C419 C427 1.503 . S
C420 C419 1.410 . S
C420 C421 1.392 . S
C420 C423 1.511 . S
C421 C417 1.376 . S
C421 C420 1.392 . S
C421 H433 0.929 . S
C422 C418 1.531 . S
C422 H434 0.960 . S
C422 H435 0.962 . S
C422 H436 0.960 . S
C423 C420 1.511 . S
C423 H437 0.961 . S
C423 H438 0.961 . S
C423 H439 0.961 . S
C424 C425 1.370 . S
C424 C426 1.363 . S
C424 H440 0.931 . S
C425 C424 1.370 . S
C425 C429 1.408 . S
C426 C424 1.363 . S
C426 C427 1.370 . S
C426 C430 1.524 . S
C427 C419 1.503 . S
C427 C426 1.370 . S
C427 C428 1.403 . S
C428 C427 1.403 . S
C428 C429 1.404 . S
C428 C431 1.539 . S
C429 C425 1.408 . S
C429 C428 1.404 . S
C429 H441 0.930 . S
C430 C426 1.524 . S
C430 H442 0.956 . S
C430 H443 0.961 . S
C430 H444 0.961 . S
C431 C428 1.539 . S
C431 H445 0.958 . S
C431 H446 0.961 . S
C431 H447 0.960 . S
H432 C416 0.931 . S
H433 C421 0.929 . S
H434 C422 0.960 . S
H435 C422 0.962 . S
H436 C422 0.960 . S
H437 C423 0.961 . S
H438 C423 0.961 . S
H439 C423 0.961 . S
H440 C424 0.931 . S
H441 C429 0.930 . S
H442 C430 0.956 . S
H443 C430 0.961 . S
H444 C430 0.961 . S
H445 C431 0.958 . S
H446 C431 0.961 . S
H447 C431 0.960 . S
C448 C449 1.391 . S
C448 C450 1.394 . S
C448 H464 0.931 . S
C449 C448 1.391 . S
C449 C453 1.376 . S
C450 C448 1.394 . S
C450 C451 1.369 . S
C450 C454 1.531 . S
C451 C450 1.369 . S
C451 C452 1.410 . S
C451 C459 1.503 . S
C452 C451 1.410 . S
C452 C453 1.392 . S
C452 C455 1.511 . S
C453 C449 1.376 . S
C453 C452 1.392 . S
C453 H465 0.929 . S
C454 C450 1.531 . S
C454 H466 0.960 . S
C454 H467 0.962 . S
C454 H468 0.960 . S
C455 C452 1.511 . S
C455 H469 0.961 . S
C455 H470 0.961 . S
C455 H471 0.961 . S
C456 C457 1.370 . S
C456 C458 1.363 . S
C456 H472 0.931 . S
C457 C456 1.370 . S
C457 C461 1.408 . S
C458 C456 1.363 . S
C458 C459 1.370 . S
C458 C462 1.524 . S
C459 C451 1.503 . S
C459 C458 1.370 . S
C459 C460 1.403 . S
C460 C459 1.403 . S
C460 C461 1.404 . S
C460 C463 1.539 . S
C461 C457 1.408 . S
C461 C460 1.404 . S
C461 H473 0.930 . S
C462 C458 1.524 . S
C462 H474 0.956 . S
C462 H475 0.961 . S
C462 H476 0.961 . S
C463 C460 1.539 . S
C463 H477 0.958 . S
C463 H478 0.961 . S
C463 H479 0.960 . S
H464 C448 0.931 . S
H465 C453 0.929 . S
H466 C454 0.960 . S
H467 C454 0.962 . S
H468 C454 0.960 . S
H469 C455 0.961 . S
H470 C455 0.961 . S
H471 C455 0.961 . S
H472 C456 0.931 . S
H473 C461 0.930 . S
H474 C462 0.956 . S
H475 C462 0.961 . S
H476 C462 0.961 . S
H477 C463 0.958 . S
H478 C463 0.961 . S
H479 C463 0.960 . S
C480 C481 1.391 . S
C480 C482 1.394 . S
C480 H496 0.931 . S
C481 C480 1.391 . S
C481 C485 1.376 . S
C482 C480 1.394 . S
C482 C483 1.369 . S
C482 C486 1.531 . S
C483 C482 1.369 . S
C483 C484 1.410 . S
C483 C491 1.503 . S
C484 C483 1.410 . S
C484 C485 1.392 . S
C484 C487 1.511 . S
C485 C481 1.376 . S
C485 C484 1.392 . S
C485 H497 0.929 . S
C486 C482 1.531 . S
C486 H498 0.960 . S
C486 H499 0.962 . S
C486 H500 0.960 . S
C487 C484 1.511 . S
C487 H501 0.961 . S
C487 H502 0.961 . S
C487 H503 0.961 . S
C488 C489 1.370 . S
C488 C490 1.363 . S
C488 H504 0.931 . S
C489 C488 1.370 . S
C489 C493 1.408 . S
C490 C488 1.363 . S
C490 C491 1.370 . S
C490 C494 1.524 . S
C491 C483 1.503 . S
C491 C490 1.370 . S
C491 C492 1.403 . S
C492 C491 1.403 . S
C492 C493 1.404 . S
C492 C495 1.539 . S
C493 C489 1.408 . S
C493 C492 1.404 . S
C493 H505 0.930 . S
C494 C490 1.524 . S
C494 H506 0.956 . S
C494 H507 0.961 . S
C494 H508 0.961 . S
C495 C492 1.539 . S
C495 H509 0.958 . S
C495 H510 0.961 . S
C495 H511 0.960 . S
H496 C480 0.931 . S
H497 C485 0.929 . S
H498 C486 0.960 . S
H499 C486 0.962 . S
H500 C486 0.960 . S
H501 C487 0.961 . S
H502 C487 0.961 . S
H503 C487 0.961 . S
H504 C488 0.931 . S
H505 C493 0.930 . S
H506 C494 0.956 . S
H507 C494 0.961 . S
H508 C494 0.961 . S
H509 C495 0.958 . S
H510 C495 0.961 . S
H511 C495 0.960 . S
C512 C513 1.391 . S
C512 C514 1.394 . S
C512 H528 0.931 . S
C513 C512 1.391 . S
C513 C517 1.376 . S
C514 C512 1.394 . S
C514 C515 1.369 . S
C514 C518 1.531 . S
C515 C514 1.369 . S
C515 C516 1.410 . S
C515 C523 1.503 . S
C516 C515 1.410 . S
C516 C517 1.392 . S
C516 C519 1.511 . S
C517 C513 1.376 . S
C517 C516 1.392 . S
C517 H529 0.929 . S
C518 C514 1.531 . S
C518 H530 0.960 . S
C518 H531 0.962 . S
C518 H532 0.960 . S
C519 C516 1.511 . S
C519 H533 0.961 . S
C519 H534 0.961 . S
C519 H535 0.961 . S
C520 C521 1.370 . S
C520 C522 1.363 . S
C520 H536 0.931 . S
C521 C520 1.370 . S
C521 C525 1.408 . S
C522 C520 1.363 . S
C522 C523 1.370 . S
C522 C526 1.524 . S
C523 C515 1.503 . S
C523 C522 1.370 . S
C523 C524 1.403 . S
C524 C523 1.403 . S
C524 C525 1.404 . S
C524 C527 1.539 . S
C525 C521 1.408 . S
C525 C524 1.404 . S
C525 H537 0.930 . S
C526 C522 1.524 . S
C526 H538 0.956 . S
C526 H539 0.961 . S
C526 H540 0.961 . S
C527 C524 1.539 . S
C527 H541 0.958 . S
C527 H542 0.961 . S
C527 H543 0.960 . S
H528 C512 0.931 . S
H529 C517 0.929 . S
H530 C518 0.960 . S
H531 C518 0.962 . S
H532 C518 0.960 . S
H533 C519 0.961 . S
H534 C519 0.961 . S
H535 C519 0.961 . S
H536 C520 0.931 . S
H537 C525 0.930 . S
H538 C526 0.956 . S
H539 C526 0.961 . S
H540 C526 0.961 . S
H541 C527 0.958 . S
H542 C527 0.961 . S
H543 C527 0.960 . S
C544 C545 1.391 . S
C544 C546 1.394 . S
C544 H560 0.931 . S
C545 C544 1.391 . S
C545 C549 1.376 . S
C546 C544 1.394 . S
C546 C547 1.369 . S
C546 C550 1.531 . S
C547 C546 1.369 . S
C547 C548 1.410 . S
C547 C555 1.503 . S
C548 C547 1.410 . S
C548 C549 1.392 . S
C548 C551 1.511 . S
C549 C545 1.376 . S
C549 C548 1.392 . S
C549 H561 0.929 . S
C550 C546 1.531 . S
C550 H562 0.960 . S
C550 H563 0.962 . S
C550 H564 0.960 . S
C551 C548 1.511 . S
C551 H565 0.961 . S
C551 H566 0.961 . S
C551 H567 0.961 . S
C552 C553 1.370 . S
C552 C554 1.363 . S
C552 H568 0.931 . S
C553 C552 1.370 . S
C553 C557 1.408 . S
C554 C552 1.363 . S
C554 C555 1.370 . S
C554 C558 1.524 . S
C555 C547 1.503 . S
C555 C554 1.370 . S
C555 C556 1.403 . S
C556 C555 1.403 . S
C556 C557 1.404 . S
C556 C559 1.539 . S
C557 C553 1.408 . S
C557 C556 1.404 . S
C557 H569 0.930 . S
C558 C554 1.524 . S
C558 H570 0.956 . S
C558 H571 0.961 . S
C558 H572 0.961 . S
C559 C556 1.539 . S
C559 H573 0.958 . S
C559 H574 0.961 . S
C559 H575 0.960 . S
H560 C544 0.931 . S
H561 C549 0.929 . S
H562 C550 0.960 . S
H563 C550 0.962 . S
H564 C550 0.960 . S
H565 C551 0.961 . S
H566 C551 0.961 . S
H567 C551 0.961 . S
H568 C552 0.931 . S
H569 C557 0.930 . S
H570 C558 0.956 . S
H571 C558 0.961 . S
H572 C558 0.961 . S
H573 C559 0.958 . S
H574 C559 0.961 . S
H575 C559 0.960 . S
C576 C577 1.391 . S
C576 C578 1.394 . S
C576 H592 0.931 . S
C577 C576 1.391 . S
C577 C581 1.376 . S
C578 C576 1.394 . S
C578 C579 1.369 . S
C578 C582 1.531 . S
C579 C578 1.369 . S
C579 C580 1.410 . S
C579 C587 1.503 . S
C580 C579 1.410 . S
C580 C581 1.392 . S
C580 C583 1.511 . S
C581 C577 1.376 . S
C581 C580 1.392 . S
C581 H593 0.929 . S
C582 C578 1.531 . S
C582 H594 0.960 . S
C582 H595 0.962 . S
C582 H596 0.960 . S
C583 C580 1.511 . S
C583 H597 0.961 . S
C583 H598 0.961 . S
C583 H599 0.961 . S
C584 C585 1.370 . S
C584 C586 1.363 . S
C584 H600 0.931 . S
C585 C584 1.370 . S
C585 C589 1.408 . S
C586 C584 1.363 . S
C586 C587 1.370 . S
C586 C590 1.524 . S
C587 C579 1.503 . S
C587 C586 1.370 . S
C587 C588 1.403 . S
C588 C587 1.403 . S
C588 C589 1.404 . S
C588 C591 1.539 . S
C589 C585 1.408 . S
C589 C588 1.404 . S
C589 H601 0.930 . S
C590 C586 1.524 . S
C590 H602 0.956 . S
C590 H603 0.961 . S
C590 H604 0.961 . S
C591 C588 1.539 . S
C591 H605 0.958 . S
C591 H606 0.961 . S
C591 H607 0.960 . S
H592 C576 0.931 . S
H593 C581 0.929 . S
H594 C582 0.960 . S
H595 C582 0.962 . S
H596 C582 0.960 . S
H597 C583 0.961 . S
H598 C583 0.961 . S
H599 C583 0.961 . S
H600 C584 0.931 . S
H601 C589 0.930 . S
H602 C590 0.956 . S
H603 C590 0.961 . S
H604 C590 0.961 . S
H605 C591 0.958 . S
H606 C591 0.961 . S
H607 C591 0.960 . S
C608 C609 1.391 . S
C608 C610 1.394 1_565 S
C608 H624 0.931 . S
C609 C608 1.391 . S
C609 C613 1.376 . S
C610 C608 1.394 1_545 S
C610 C611 1.369 . S
C610 C614 1.531 . S
C611 C610 1.369 . S
C611 C612 1.410 . S
C611 C619 1.503 . S
C612 C611 1.410 . S
C612 C613 1.392 1_545 S
C612 C615 1.511 . S
C613 C609 1.376 . S
C613 C612 1.392 1_565 S
C613 H625 0.929 . S
C614 C610 1.531 . S
C614 H626 0.960 . S
C614 H627 0.962 . S
C614 H628 0.960 . S
C615 C612 1.511 . S
C615 H629 0.961 1_545 S
C615 H630 0.961 . S
C615 H631 0.961 . S
C616 C617 1.370 . S
C616 C618 1.363 . S
C616 H632 0.931 . S
C617 C616 1.370 . S
C617 C621 1.408 . S
C618 C616 1.363 . S
C618 C619 1.370 . S
C618 C622 1.524 . S
C619 C611 1.503 . S
C619 C618 1.370 . S
C619 C620 1.403 . S
C620 C619 1.403 . S
C620 C621 1.404 . S
C620 C623 1.539 . S
C621 C617 1.408 . S
C621 C620 1.404 . S
C621 H633 0.930 . S
C622 C618 1.524 . S
C622 H634 0.956 . S
C622 H635 0.961 . S
C622 H636 0.961 . S
C623 C620 1.539 . S
C623 H637 0.958 . S
C623 H638 0.961 . S
C623 H639 0.960 . S
H624 C608 0.931 . S
H625 C613 0.929 . S
H626 C614 0.960 . S
H627 C614 0.962 . S
H628 C614 0.960 . S
H629 C615 0.961 1_565 S
H630 C615 0.961 . S
H631 C615 0.961 . S
H632 C616 0.931 . S
H633 C621 0.930 . S
H634 C622 0.956 . S
H635 C622 0.961 . S
H636 C622 0.961 . S
H637 C623 0.958 . S
H638 C623 0.961 . S
H639 C623 0.960 . S
C640 C641 1.391 . S
C640 C642 1.394 . S
C640 H656 0.931 . S
C641 C640 1.391 . S
C641 C645 1.376 . S
C642 C640 1.394 . S
C642 C643 1.369 . S
C642 C646 1.531 . S
C643 C642 1.369 . S
C643 C644 1.410 . S
C643 C651 1.503 . S
C644 C643 1.410 . S
C644 C645 1.392 . S
C644 C647 1.511 . S
C645 C641 1.376 . S
C645 C644 1.392 . S
C645 H657 0.929 . S
C646 C642 1.531 . S
C646 H658 0.960 . S
C646 H659 0.962 . S
C646 H660 0.960 . S
C647 C644 1.511 . S
C647 H661 0.961 . S
C647 H662 0.961 . S
C647 H663 0.961 . S
C648 C649 1.370 . S
C648 C650 1.363 1_655 S
C648 H664 0.931 . S
C649 C648 1.370 . S
C649 C653 1.408 . S
C650 C648 1.363 1_455 S
C650 C651 1.370 . S
C650 C654 1.524 . S
C651 C643 1.503 . S
C651 C650 1.370 . S
C651 C652 1.403 . S
C652 C651 1.403 . S
C652 C653 1.404 1_455 S
C652 C655 1.539 . S
C653 C649 1.408 . S
C653 C652 1.404 1_655 S
C653 H665 0.930 . S
C654 C650 1.524 . S
C654 H666 0.956 . S
C654 H667 0.961 . S
C654 H668 0.961 . S
C655 C652 1.539 . S
C655 H669 0.958 . S
C655 H670 0.966 . S
C655 H671 0.960 . S
H656 C640 0.931 . S
H657 C645 0.929 . S
H658 C646 0.960 . S
H659 C646 0.962 . S
H660 C646 0.960 . S
H661 C647 0.961 . S
H662 C647 0.961 . S
H663 C647 0.961 . S
H664 C648 0.931 . S
H665 C653 0.930 . S
H666 C654 0.956 . S
H667 C654 0.961 . S
H668 C654 0.961 . S
H669 C655 0.958 . S
H670 C655 0.966 . S
H671 C655 0.960 . S
C672 C673 1.391 . S
C672 C674 1.394 . S
C672 H688 0.931 . S
C673 C672 1.391 . S
C673 C677 1.376 . S
C674 C672 1.394 . S
C674 C675 1.369 . S
C674 C678 1.531 . S
C675 C674 1.369 . S
C675 C676 1.410 . S
C675 C683 1.503 . S
C676 C675 1.410 . S
C676 C677 1.392 . S
C676 C679 1.511 . S
C677 C673 1.376 . S
C677 C676 1.392 . S
C677 H689 0.929 . S
C678 C674 1.531 . S
C678 H690 0.960 . S
C678 H691 0.962 . S
C678 H692 0.960 . S
C679 C676 1.511 . S
C679 H693 0.961 . S
C679 H694 0.961 . S
C679 H695 0.961 . S
C680 C681 1.370 . S
C680 C682 1.363 1_545 S
C680 H696 0.931 . S
C681 C680 1.370 . S
C681 C685 1.408 . S
C682 C680 1.363 1_565 S
C682 C683 1.370 . S
C682 C686 1.524 . S
C683 C675 1.503 . S
C683 C682 1.370 . S
C683 C684 1.403 . S
C684 C683 1.403 . S
C684 C685 1.404 1_565 S
C684 C687 1.539 . S
C685 C681 1.408 . S
C685 C684 1.404 1_545 S
C685 H697 0.930 . S
C686 C682 1.524 . S
C686 H698 0.956 . S
C686 H699 0.961 . S
C686 H700 0.961 . S
C687 C684 1.539 . S
C687 H701 0.958 . S
C687 H702 0.961 1_565 S
C687 H703 0.960 . S
H688 C672 0.931 . S
H689 C677 0.929 . S
H690 C678 0.960 . S
H691 C678 0.962 . S
H692 C678 0.960 . S
H693 C679 0.961 . S
H694 C679 0.961 . S
H695 C679 0.961 . S
H696 C680 0.931 . S
H697 C685 0.930 . S
H698 C686 0.956 . S
H699 C686 0.961 . S
H700 C686 0.961 . S
H701 C687 0.958 . S
H702 C687 0.961 1_545 S
H703 C687 0.960 . S
C704 C705 1.391 . S
C704 C706 1.394 1_455 S
C704 H720 0.931 . S
C705 C704 1.391 . S
C705 C709 1.376 . S
C706 C704 1.394 1_655 S
C706 C707 1.369 . S
C706 C710 1.531 . S
C707 C706 1.369 . S
C707 C708 1.410 . S
C707 C715 1.503 . S
C708 C707 1.410 . S
C708 C709 1.392 1_655 S
C708 C711 1.511 . S
C709 C705 1.376 . S
C709 C708 1.392 1_455 S
C709 H721 0.929 . S
C710 C706 1.531 . S
C710 H722 0.960 . S
C710 H723 0.962 . S
C710 H724 0.960 . S
C711 C708 1.511 . S
C711 H725 0.961 . S
C711 H726 0.961 . S
C711 H727 0.961 . S
C712 C713 1.370 . S
C712 C714 1.363 . S
C712 H728 0.931 . S
C713 C712 1.370 . S
C713 C717 1.408 . S
C714 C712 1.363 . S
C714 C715 1.370 . S
C714 C718 1.524 . S
C715 C707 1.503 . S
C715 C714 1.370 . S
C715 C716 1.403 . S
C716 C715 1.403 . S
C716 C717 1.404 . S
C716 C719 1.539 . S
C717 C713 1.408 . S
C717 C716 1.404 . S
C717 H729 0.930 . S
C718 C714 1.524 . S
C718 H730 0.956 . S
C718 H731 0.961 . S
C718 H732 0.961 . S
C719 C716 1.539 . S
C719 H733 0.958 . S
C719 H734 0.961 . S
C719 H735 0.960 . S
H720 C704 0.931 . S
H721 C709 0.929 . S
H722 C710 0.960 . S
H723 C710 0.962 . S
H724 C710 0.960 . S
H725 C711 0.961 . S
H726 C711 0.961 . S
H727 C711 0.961 . S
H728 C712 0.931 . S
H729 C717 0.930 . S
H730 C718 0.956 . S
H731 C718 0.961 . S
H732 C718 0.961 . S
H733 C719 0.958 . S
H734 C719 0.961 . S
H735 C719 0.960 . S
C736 C737 1.391 . S
C736 C738 1.394 1_545 S
C736 H752 0.931 . S
C737 C736 1.391 . S
C737 C741 1.376 . S
C738 C736 1.394 1_565 S
C738 C739 1.369 . S
C738 C742 1.531 . S
C739 C738 1.369 . S
C739 C740 1.410 . S
C739 C747 1.503 . S
C740 C739 1.410 . S
C740 C741 1.392 1_565 S
C740 C743 1.511 . S
C741 C737 1.376 . S
C741 C740 1.392 1_545 S
C741 H753 0.929 . S
C742 C738 1.531 . S
C742 H754 0.960 . S
C742 H755 0.962 . S
C742 H756 0.960 . S
C743 C740 1.511 . S
C743 H757 0.961 . S
C743 H758 0.961 . S
C743 H759 0.961 . S
C744 C745 1.370 . S
C744 C746 1.363 . S
C744 H760 0.931 . S
C745 C744 1.370 . S
C745 C749 1.408 . S
C746 C744 1.363 . S
C746 C747 1.370 . S
C746 C750 1.524 . S
C747 C739 1.503 . S
C747 C746 1.370 . S
C747 C748 1.403 . S
C748 C747 1.403 . S
C748 C749 1.404 . S
C748 C751 1.539 . S
C749 C745 1.408 . S
C749 C748 1.404 . S
C749 H761 0.930 . S
C750 C746 1.524 . S
C750 H762 0.956 . S
C750 H763 0.961 . S
C750 H764 0.961 . S
C751 C748 1.539 . S
C751 H765 0.958 . S
C751 H766 0.961 . S
C751 H767 0.960 . S
H752 C736 0.931 . S
H753 C741 0.929 . S
H754 C742 0.960 . S
H755 C742 0.962 . S
H756 C742 0.960 . S
H757 C743 0.961 . S
H758 C743 0.961 . S
H759 C743 0.961 . S
H760 C744 0.931 . S
H761 C749 0.930 . S
H762 C750 0.956 . S
H763 C750 0.961 . S
H764 C750 0.961 . S
H765 C751 0.958 . S
H766 C751 0.961 . S
H767 C751 0.960 . S
C768 C769 1.391 . S
C768 C770 1.394 . S
C768 H784 0.931 . S
C769 C768 1.391 . S
C769 C773 1.376 . S
C770 C768 1.394 . S
C770 C771 1.369 . S
C770 C774 1.531 . S
C771 C770 1.369 . S
C771 C772 1.410 . S
C771 C779 1.503 . S
C772 C771 1.410 . S
C772 C773 1.392 . S
C772 C775 1.511 . S
C773 C769 1.376 . S
C773 C772 1.392 . S
C773 H785 0.929 . S
C774 C770 1.531 . S
C774 H786 0.960 . S
C774 H787 0.962 . S
C774 H788 0.960 . S
C775 C772 1.511 . S
C775 H789 0.961 . S
C775 H790 0.961 . S
C775 H791 0.961 . S
C776 C777 1.370 . S
C776 C778 1.363 1_455 S
C776 H792 0.931 . S
C777 C776 1.370 . S
C777 C781 1.408 . S
C778 C776 1.363 1_655 S
C778 C779 1.370 . S
C778 C782 1.524 . S
C779 C771 1.503 . S
C779 C778 1.370 . S
C779 C780 1.403 . S
C780 C779 1.403 . S
C780 C781 1.404 1_655 S
C780 C783 1.539 . S
C781 C777 1.408 . S
C781 C780 1.404 1_455 S
C781 H793 0.930 . S
C782 C778 1.524 . S
C782 H794 0.956 . S
C782 H795 0.961 . S
C782 H796 0.961 . S
C783 C780 1.539 . S
C783 H797 0.958 . S
C783 H798 0.961 1_655 S
C783 H799 0.960 . S
H784 C768 0.931 . S
H785 C773 0.929 . S
H786 C774 0.960 . S
H787 C774 0.962 . S
H788 C774 0.960 . S
H789 C775 0.961 . S
H790 C775 0.961 . S
H791 C775 0.961 . S
H792 C776 0.931 . S
H793 C781 0.930 . S
H794 C782 0.956 . S
H795 C782 0.961 . S
H796 C782 0.961 . S
H797 C783 0.958 . S
H798 C783 0.961 1_455 S
H799 C783 0.960 . S
C800 C801 1.391 . S
C800 C802 1.394 . S
C800 H816 0.931 . S
C801 C800 1.391 . S
C801 C805 1.376 . S
C802 C800 1.394 . S
C802 C803 1.369 . S
C802 C806 1.531 . S
C803 C802 1.369 . S
C803 C804 1.410 . S
C803 C811 1.503 . S
C804 C803 1.410 . S
C804 C805 1.392 . S
C804 C807 1.511 . S
C805 C801 1.376 . S
C805 C804 1.392 . S
C805 H817 0.929 . S
C806 C802 1.531 . S
C806 H818 0.960 . S
C806 H819 0.962 . S
C806 H820 0.960 . S
C807 C804 1.511 . S
C807 H821 0.961 . S
C807 H822 0.961 . S
C807 H823 0.961 . S
C808 C809 1.370 . S
C808 C810 1.363 1_565 S
C808 H824 0.931 . S
C809 C808 1.370 . S
C809 C813 1.408 . S
C810 C808 1.363 1_545 S
C810 C811 1.370 . S
C810 C814 1.524 . S
C811 C803 1.503 . S
C811 C810 1.370 . S
C811 C812 1.403 . S
C812 C811 1.403 . S
C812 C813 1.404 1_545 S
C812 C815 1.539 . S
C813 C809 1.408 . S
C813 C812 1.404 1_565 S
C813 H825 0.930 . S
C814 C810 1.524 . S
C814 H826 0.956 . S
C814 H827 0.961 . S
C814 H828 0.961 . S
C815 C812 1.539 . S
C815 H829 0.958 . S
C815 H830 0.954 1_545 S
C815 H831 0.960 . S
H816 C800 0.931 . S
H817 C805 0.929 . S
H818 C806 0.960 . S
H819 C806 0.962 . S
H820 C806 0.960 . S
H821 C807 0.961 . S
H822 C807 0.961 . S
H823 C807 0.961 . S
H824 C808 0.931 . S
H825 C813 0.930 . S
H826 C814 0.956 . S
H827 C814 0.961 . S
H828 C814 0.961 . S
H829 C815 0.958 . S
H830 C815 0.954 1_565 S
H831 C815 0.960 . S
C832 C833 1.391 . S
C832 C834 1.394 . S
C832 H848 0.931 . S
C833 C832 1.391 . S
C833 C837 1.376 . S
C834 C832 1.394 . S
C834 C835 1.369 . S
C834 C838 1.531 . S
C835 C834 1.369 . S
C835 C836 1.410 . S
C835 C843 1.503 . S
C836 C835 1.410 . S
C836 C837 1.392 . S
C836 C839 1.511 . S
C837 C833 1.376 . S
C837 C836 1.392 . S
C837 H849 0.929 . S
C838 C834 1.531 . S
C838 H850 0.960 . S
C838 H851 0.962 . S
C838 H852 0.960 . S
C839 C836 1.511 . S
C839 H853 0.961 . S
C839 H854 0.961 . S
C839 H855 0.961 . S
C840 C841 1.370 . S
C840 C842 1.363 1_655 S
C840 H856 0.931 . S
C841 C840 1.370 . S
C841 C845 1.408 . S
C842 C840 1.363 1_455 S
C842 C843 1.370 . S
C842 C846 1.524 . S
C843 C835 1.503 . S
C843 C842 1.370 . S
C843 C844 1.403 . S
C844 C843 1.403 . S
C844 C845 1.404 1_455 S
C844 C847 1.539 . S
C845 C841 1.408 . S
C845 C844 1.404 1_655 S
C845 H857 0.930 . S
C846 C842 1.524 . S
C846 H858 0.956 . S
C846 H859 0.961 . S
C846 H860 0.961 . S
C847 C844 1.539 . S
C847 H861 0.958 . S
C847 H862 0.961 . S
C847 H863 0.960 . S
H848 C832 0.931 . S
H849 C837 0.929 . S
H850 C838 0.960 . S
H851 C838 0.962 . S
H852 C838 0.960 . S
H853 C839 0.961 . S
H854 C839 0.961 . S
H855 C839 0.961 . S
H856 C840 0.931 . S
H857 C845 0.930 . S
H858 C846 0.956 . S
H859 C846 0.961 . S
H860 C846 0.961 . S
H861 C847 0.958 . S
H862 C847 0.961 . S
H863 C847 0.960 . S
C864 C865 1.391 . S
C864 C866 1.394 . S
C864 H880 0.931 . S
C865 C864 1.391 . S
C865 C869 1.376 . S
C866 C864 1.394 . S
C866 C867 1.369 . S
C866 C870 1.531 . S
C867 C866 1.369 . S
C867 C868 1.410 . S
C867 C875 1.503 . S
C868 C867 1.410 . S
C868 C869 1.392 . S
C868 C871 1.511 . S
C869 C865 1.376 . S
C869 C868 1.392 . S
C869 H881 0.929 . S
C870 C866 1.531 . S
C870 H882 0.960 . S
C870 H883 0.962 . S
C870 H884 0.960 . S
C871 C868 1.511 . S
C871 H885 0.961 . S
C871 H886 0.961 . S
C871 H887 0.961 . S
C872 C873 1.370 . S
C872 C874 1.363 . S
C872 H888 0.931 . S
C873 C872 1.370 . S
C873 C877 1.408 . S
C874 C872 1.363 . S
C874 C875 1.370 . S
C874 C878 1.524 . S
C875 C867 1.503 . S
C875 C874 1.370 . S
C875 C876 1.403 . S
C876 C875 1.403 . S
C876 C877 1.404 . S
C876 C879 1.539 . S
C877 C873 1.408 . S
C877 C876 1.404 . S
C877 H889 0.930 . S
C878 C874 1.524 . S
C878 H890 0.956 . S
C878 H891 0.961 . S
C878 H892 0.961 . S
C879 C876 1.539 . S
C879 H893 0.958 . S
C879 H894 0.961 . S
C879 H895 0.960 . S
H880 C864 0.931 . S
H881 C869 0.929 . S
H882 C870 0.960 . S
H883 C870 0.962 . S
H884 C870 0.960 . S
H885 C871 0.961 . S
H886 C871 0.961 . S
H887 C871 0.961 . S
H888 C872 0.931 . S
H889 C877 0.930 . S
H890 C878 0.956 . S
H891 C878 0.961 . S
H892 C878 0.961 . S
H893 C879 0.958 . S
H894 C879 0.961 . S
H895 C879 0.960 . S
C896 C897 1.391 . S
C896 C898 1.394 . S
C896 H912 0.931 . S
C897 C896 1.391 . S
C897 C901 1.376 . S
C898 C896 1.394 . S
C898 C899 1.369 . S
C898 C902 1.531 . S
C899 C898 1.369 . S
C899 C900 1.410 . S
C899 C907 1.503 . S
C900 C899 1.410 . S
C900 C901 1.392 . S
C900 C903 1.511 . S
C901 C897 1.376 . S
C901 C900 1.392 . S
C901 H913 0.929 . S
C902 C898 1.531 . S
C902 H914 0.960 . S
C902 H915 0.962 . S
C902 H916 0.960 . S
C903 C900 1.511 . S
C903 H917 0.961 . S
C903 H918 0.961 . S
C903 H919 0.961 . S
C904 C905 1.370 . S
C904 C906 1.363 . S
C904 H920 0.931 . S
C905 C904 1.370 . S
C905 C909 1.408 . S
C906 C904 1.363 . S
C906 C907 1.370 . S
C906 C910 1.524 . S
C907 C899 1.503 . S
C907 C906 1.370 . S
C907 C908 1.403 . S
C908 C907 1.403 . S
C908 C909 1.404 . S
C908 C911 1.539 . S
C909 C905 1.408 . S
C909 C908 1.404 . S
C909 H921 0.930 . S
C910 C906 1.524 . S
C910 H922 0.956 . S
C910 H923 0.961 . S
C910 H924 0.961 . S
C911 C908 1.539 . S
C911 H925 0.958 . S
C911 H926 0.961 . S
C911 H927 0.960 . S
H912 C896 0.931 . S
H913 C901 0.929 . S
H914 C902 0.960 . S
H915 C902 0.962 . S
H916 C902 0.960 . S
H917 C903 0.961 . S
H918 C903 0.961 . S
H919 C903 0.961 . S
H920 C904 0.931 . S
H921 C909 0.930 . S
H922 C910 0.956 . S
H923 C910 0.961 . S
H924 C910 0.961 . S
H925 C911 0.958 . S
H926 C911 0.961 . S
H927 C911 0.960 . S
C928 C929 1.391 . S
C928 C930 1.394 . S
C928 H944 0.931 . S
C929 C928 1.391 . S
C929 C933 1.376 . S
C930 C928 1.394 . S
C930 C931 1.369 . S
C930 C934 1.531 . S
C931 C930 1.369 . S
C931 C932 1.410 . S
C931 C939 1.503 . S
C932 C931 1.410 . S
C932 C933 1.392 . S
C932 C935 1.511 . S
C933 C929 1.376 . S
C933 C932 1.392 . S
C933 H945 0.929 . S
C934 C930 1.531 . S
C934 H946 0.960 . S
C934 H947 0.962 . S
C934 H948 0.960 . S
C935 C932 1.511 . S
C935 H949 0.961 . S
C935 H950 0.961 . S
C935 H951 0.961 . S
C936 C937 1.370 . S
C936 C938 1.363 . S
C936 H952 0.931 . S
C937 C936 1.370 . S
C937 C941 1.408 . S
C938 C936 1.363 . S
C938 C939 1.370 . S
C938 C942 1.524 . S
C939 C931 1.503 . S
C939 C938 1.370 . S
C939 C940 1.403 . S
C940 C939 1.403 . S
C940 C941 1.404 . S
C940 C943 1.539 . S
C941 C937 1.408 . S
C941 C940 1.404 . S
C941 H953 0.930 . S
C942 C938 1.524 . S
C942 H954 0.956 . S
C942 H955 0.961 . S
C942 H956 0.961 . S
C943 C940 1.539 . S
C943 H957 0.958 . S
C943 H958 0.961 . S
C943 H959 0.960 . S
H944 C928 0.931 . S
H945 C933 0.929 . S
H946 C934 0.960 . S
H947 C934 0.962 . S
H948 C934 0.960 . S
H949 C935 0.961 . S
H950 C935 0.961 . S
H951 C935 0.961 . S
H952 C936 0.931 . S
H953 C941 0.930 . S
H954 C942 0.956 . S
H955 C942 0.961 . S
H956 C942 0.961 . S
H957 C943 0.958 . S
H958 C943 0.961 . S
H959 C943 0.960 . S
C960 C961 1.391 . S
C960 C962 1.394 . S
C960 H976 0.931 . S
C961 C960 1.391 . S
C961 C965 1.376 . S
C962 C960 1.394 . S
C962 C963 1.369 . S
C962 C966 1.531 . S
C963 C962 1.369 . S
C963 C964 1.410 . S
C963 C971 1.503 . S
C964 C963 1.410 . S
C964 C965 1.392 . S
C964 C967 1.511 . S
C965 C961 1.376 . S
C965 C964 1.392 . S
C965 H977 0.929 . S
C966 C962 1.531 . S
C966 H978 0.960 . S
C966 H979 0.962 . S
C966 H980 0.960 . S
C967 C964 1.511 . S
C967 H981 0.961 . S
C967 H982 0.961 . S
C967 H983 0.961 . S
C968 C969 1.370 . S
C968 C970 1.363 . S
C968 H984 0.931 . S
C969 C968 1.370 . S
C969 C973 1.408 . S
C970 C968 1.363 . S
C970 C971 1.370 . S
C970 C974 1.524 . S
C971 C963 1.503 . S
C971 C970 1.370 . S
C971 C972 1.403 . S
C972 C971 1.403 . S
C972 C973 1.404 . S
C972 C975 1.539 . S
C973 C969 1.408 . S
C973 C972 1.404 . S
C973 H985 0.930 . S
C974 C970 1.524 . S
C974 H986 0.956 . S
C974 H987 0.961 . S
C974 H988 0.961 . S
C975 C972 1.539 . S
C975 H989 0.958 . S
C975 H990 0.961 . S
C975 H991 0.960 . S
H976 C960 0.931 . S
H977 C965 0.929 . S
H978 C966 0.960 . S
H979 C966 0.962 . S
H980 C966 0.960 . S
H981 C967 0.961 . S
H982 C967 0.961 . S
H983 C967 0.961 . S
H984 C968 0.931 . S
H985 C973 0.930 . S
H986 C974 0.956 . S
H987 C974 0.961 . S
H988 C974 0.961 . S
H989 C975 0.958 . S
H990 C975 0.961 . S
H991 C975 0.960 . S
C992 C993 1.391 . S
C992 C994 1.394 . S
C992 H1008 0.931 . S
C993 C992 1.391 . S
C993 C997 1.376 . S
C994 C992 1.394 . S
C994 C995 1.369 . S
C994 C998 1.531 1_554 S
C995 C994 1.369 . S
C995 C996 1.410 . S
C995 C1003 1.503 1_544 S
C996 C995 1.410 . S
C996 C997 1.392 . S
C996 C999 1.511 1_545 S
C997 C993 1.376 . S
C997 C996 1.392 . S
C997 H1009 0.929 . S
C998 C994 1.531 1_556 S
C998 H1010 0.960 . S
C998 H1011 0.962 . S
C998 H1012 0.960 . S
C999 C996 1.511 1_565 S
C999 H1013 0.961 . S
C999 H1014 0.961 . S
C999 H1015 0.961 . S
C1000 C1001 1.370 . S
C1000 C1002 1.363 . S
C1000 H1016 0.931 . S
C1001 C1000 1.370 . S
C1001 C1005 1.408 . S
C1002 C1000 1.363 . S
C1002 C1003 1.370 . S
C1002 C1006 1.524 1_556 S
C1003 C995 1.503 1_566 S
C1003 C1002 1.370 . S
C1003 C1004 1.403 . S
C1004 C1003 1.403 . S
C1004 C1005 1.404 . S
C1004 C1007 1.539 . S
C1005 C1001 1.408 . S
C1005 C1004 1.404 . S
C1005 H1017 0.930 . S
C1006 C1002 1.524 1_554 S
C1006 H1018 0.956 1_564 S
C1006 H1019 0.961 . S
C1006 H1020 0.961 1_554 S
C1007 C1004 1.539 . S
C1007 H1021 0.958 1_565 S
C1007 H1022 0.961 . S
C1007 H1023 0.960 1_565 S
H1008 C992 0.931 . S
H1009 C997 0.929 . S
H1010 C998 0.960 . S
H1011 C998 0.962 . S
H1012 C998 0.960 . S
H1013 C999 0.961 . S
H1014 C999 0.961 . S
H1015 C999 0.961 . S
H1016 C1000 0.931 . S
H1017 C1005 0.930 . S
H1018 C1006 0.956 1_546 S
H1019 C1006 0.961 . S
H1020 C1006 0.961 1_556 S
H1021 C1007 0.958 1_545 S
H1022 C1007 0.961 . S
H1023 C1007 0.960 1_545 S
C1024 C1025 1.391 . S
C1024 C1026 1.394 . S
C1024 H1040 0.931 . S
C1025 C1024 1.391 . S
C1025 C1029 1.376 . S
C1026 C1024 1.394 . S
C1026 C1027 1.369 . S
C1026 C1030 1.531 1_655 S
C1027 C1026 1.369 . S
C1027 C1028 1.410 . S
C1027 C1035 1.503 1_654 S
C1028 C1027 1.410 . S
C1028 C1029 1.392 . S
C1028 C1031 1.511 1_554 S
C1029 C1025 1.376 . S
C1029 C1028 1.392 . S
C1029 H1041 0.929 . S
C1030 C1026 1.531 1_455 S
C1030 H1042 0.960 . S
C1030 H1043 0.962 . S
C1030 H1044 0.960 . S
C1031 C1028 1.511 1_556 S
C1031 H1045 0.961 . S
C1031 H1046 0.961 . S
C1031 H1047 0.961 1_556 S
C1032 C1033 1.370 . S
C1032 C1034 1.363 . S
C1032 H1048 0.931 . S
C1033 C1032 1.370 . S
C1033 C1037 1.408 . S
C1034 C1032 1.363 . S
C1034 C1035 1.370 . S
C1034 C1038 1.524 1_455 S
C1035 C1027 1.503 1_456 S
C1035 C1034 1.370 . S
C1035 C1036 1.403 . S
C1036 C1035 1.403 . S
C1036 C1037 1.404 . S
C1036 C1039 1.539 1_556 S
C1037 C1033 1.408 . S
C1037 C1036 1.404 . S
C1037 H1049 0.930 . S
C1038 C1034 1.524 1_655 S
C1038 H1050 0.956 . S
C1038 H1051 0.961 . S
C1038 H1052 0.961 . S
C1039 C1036 1.539 1_554 S
C1039 H1053 0.958 . S
C1039 H1054 0.961 . S
C1039 H1055 0.960 . S
H1040 C1024 0.931 . S
H1041 C1029 0.929 . S
H1042 C1030 0.960 . S
H1043 C1030 0.962 . S
H1044 C1030 0.960 . S
H1045 C1031 0.961 . S
H1046 C1031 0.961 . S
H1047 C1031 0.961 1_554 S
H1048 C1032 0.931 . S
H1049 C1037 0.930 . S
H1050 C1038 0.956 . S
H1051 C1038 0.961 . S
H1052 C1038 0.961 . S
H1053 C1039 0.958 . S
H1054 C1039 0.961 . S
H1055 C1039 0.960 . S
C1056 C1057 1.391 . S
C1056 C1058 1.394 . S
C1056 H1072 0.931 . S
C1057 C1056 1.391 . S
C1057 C1061 1.376 . S
C1058 C1056 1.394 . S
C1058 C1059 1.369 . S
C1058 C1062 1.531 1_556 S
C1059 C1058 1.369 . S
C1059 C1060 1.410 . S
C1059 C1067 1.503 1_546 S
C1060 C1059 1.410 . S
C1060 C1061 1.392 . S
C1060 C1063 1.511 1_545 S
C1061 C1057 1.376 . S
C1061 C1060 1.392 . S
C1061 H1073 0.929 . S
C1062 C1058 1.531 1_554 S
C1062 H1074 0.960 . S
C1062 H1075 0.962 . S
C1062 H1076 0.960 . S
C1063 C1060 1.511 1_565 S
C1063 H1077 0.961 . S
C1063 H1078 0.961 . S
C1063 H1079 0.961 . S
C1064 C1065 1.370 . S
C1064 C1066 1.363 . S
C1064 H1080 0.931 . S
C1065 C1064 1.370 . S
C1065 C1069 1.408 . S
C1066 C1064 1.363 . S
C1066 C1067 1.370 . S
C1066 C1070 1.524 . S
C1067 C1059 1.503 1_564 S
C1067 C1066 1.370 . S
C1067 C1068 1.403 . S
C1068 C1067 1.403 . S
C1068 C1069 1.404 . S
C1068 C1071 1.539 . S
C1069 C1065 1.408 . S
C1069 C1068 1.404 . S
C1069 H1081 0.930 . S
C1070 C1066 1.524 . S
C1070 H1082 0.956 1_565 S
C1070 H1083 0.961 1_554 S
C1070 H1084 0.961 . S
C1071 C1068 1.539 . S
C1071 H1085 0.958 1_565 S
C1071 H1086 0.961 . S
C1071 H1087 0.957 1_554 S
H1072 C1056 0.931 . S
H1073 C1061 0.929 . S
H1074 C1062 0.960 . S
H1075 C1062 0.962 . S
H1076 C1062 0.960 . S
H1077 C1063 0.961 . S
H1078 C1063 0.961 . S
H1079 C1063 0.961 . S
H1080 C1064 0.931 . S
H1081 C1069 0.930 . S
H1082 C1070 0.956 1_545 S
H1083 C1070 0.961 1_556 S
H1084 C1070 0.961 . S
H1085 C1071 0.958 1_545 S
H1086 C1071 0.961 . S
H1087 C1071 0.957 1_556 S
C1088 C1089 1.391 . S
C1088 C1090 1.394 . S
C1088 H1104 0.931 . S
C1089 C1088 1.391 . S
C1089 C1093 1.376 . S
C1090 C1088 1.394 . S
C1090 C1091 1.369 . S
C1090 C1094 1.531 1_655 S
C1091 C1090 1.369 . S
C1091 C1092 1.410 . S
C1091 C1099 1.503 1_656 S
C1092 C1091 1.410 . S
C1092 C1093 1.392 . S
C1092 C1095 1.511 1_556 S
C1093 C1089 1.376 . S
C1093 C1092 1.392 . S
C1093 H1105 0.929 . S
C1094 C1090 1.531 1_455 S
C1094 H1106 0.960 . S
C1094 H1107 0.962 . S
C1094 H1108 0.960 . S
C1095 C1092 1.511 1_554 S
C1095 H1109 0.961 . S
C1095 H1110 0.961 . S
C1095 H1111 0.961 . S
C1096 C1097 1.370 . S
C1096 C1098 1.363 . S
C1096 H1112 0.931 . S
C1097 C1096 1.370 . S
C1097 C1101 1.408 . S
C1098 C1096 1.363 . S
C1098 C1099 1.370 . S
C1098 C1102 1.524 1_554 S
C1099 C1091 1.503 1_454 S
C1099 C1098 1.370 . S
C1099 C1100 1.403 . S
C1100 C1099 1.403 . S
C1100 C1101 1.404 . S
C1100 C1103 1.539 1_455 S
C1101 C1097 1.408 . S
C1101 C1100 1.404 . S
C1101 H1113 0.930 . S
C1102 C1098 1.524 1_556 S
C1102 H1114 0.956 . S
C1102 H1115 0.961 . S
C1102 H1116 0.961 . S
C1103 C1100 1.539 1_655 S
C1103 H1117 0.958 1_655 S
C1103 H1118 0.961 . S
C1103 H1119 0.960 . S
H1104 C1088 0.931 . S
H1105 C1093 0.929 . S
H1106 C1094 0.960 . S
H1107 C1094 0.962 . S
H1108 C1094 0.960 . S
H1109 C1095 0.961 . S
H1110 C1095 0.961 . S
H1111 C1095 0.961 . S
H1112 C1096 0.931 . S
H1113 C1101 0.930 . S
H1114 C1102 0.956 . S
H1115 C1102 0.961 . S
H1116 C1102 0.961 . S
H1117 C1103 0.958 1_455 S
H1118 C1103 0.961 . S
H1119 C1103 0.960 . S
C1120 C1121 1.391 . S
C1120 C1122 1.394 . S
C1120 H1136 0.931 . S
C1121 C1120 1.391 . S
C1121 C1125 1.376 . S
C1122 C1120 1.394 . S
C1122 C1123 1.369 . S
C1122 C1126 1.531 . S
C1123 C1122 1.369 . S
C1123 C1124 1.410 . S
C1123 C1131 1.503 . S
C1124 C1123 1.410 . S
C1124 C1125 1.392 . S
C1124 C1127 1.511 . S
C1125 C1121 1.376 . S
C1125 C1124 1.392 . S
C1125 H1137 0.929 . S
C1126 C1122 1.531 . S
C1126 H1138 0.960 . S
C1126 H1139 0.962 . S
C1126 H1140 0.960 . S
C1127 C1124 1.511 . S
C1127 H1141 0.961 . S
C1127 H1142 0.961 . S
C1127 H1143 0.961 . S
C1128 C1129 1.370 1_554 S
C1128 C1130 1.363 . S
C1128 H1144 0.931 . S
C1129 C1128 1.370 1_556 S
C1129 C1133 1.408 . S
C1130 C1128 1.363 . S
C1130 C1131 1.370 . S
C1130 C1134 1.524 . S
C1131 C1123 1.503 . S
C1131 C1130 1.370 . S
C1131 C1132 1.403 . S
C1132 C1131 1.403 . S
C1132 C1133 1.404 1_554 S
C1132 C1135 1.539 . S
C1133 C1129 1.408 . S
C1133 C1132 1.404 1_556 S
C1133 H1145 0.930 . S
C1134 C1130 1.524 . S
C1134 H1146 0.956 . S
C1134 H1147 0.961 . S
C1134 H1148 0.961 . S
C1135 C1132 1.539 . S
C1135 H1149 0.958 . S
C1135 H1150 0.961 1_554 S
C1135 H1151 0.960 . S
H1136 C1120 0.931 . S
H1137 C1125 0.929 . S
H1138 C1126 0.960 . S
H1139 C1126 0.962 . S
H1140 C1126 0.960 . S
H1141 C1127 0.961 . S
H1142 C1127 0.961 . S
H1143 C1127 0.961 . S
H1144 C1128 0.931 . S
H1145 C1133 0.930 . S
H1146 C1134 0.956 . S
H1147 C1134 0.961 . S
H1148 C1134 0.961 . S
H1149 C1135 0.958 . S
H1150 C1135 0.961 1_556 S
H1151 C1135 0.960 . S
C1152 C1153 1.391 . S
C1152 C1154 1.394 1_554 S
C1152 H1168 0.931 . S
C1153 C1152 1.391 . S
C1153 C1157 1.376 1_554 S
C1154 C1152 1.394 1_556 S
C1154 C1155 1.369 . S
C1154 C1158 1.531 . S
C1155 C1154 1.369 . S
C1155 C1156 1.410 . S
C1155 C1163 1.503 . S
C1156 C1155 1.410 . S
C1156 C1157 1.392 . S
C1156 C1159 1.511 . S
C1157 C1153 1.376 1_556 S
C1157 C1156 1.392 . S
C1157 H1169 0.929 . S
C1158 C1154 1.531 . S
C1158 H1170 0.960 . S
C1158 H1171 0.962 . S
C1158 H1172 0.960 1_556 S
C1159 C1156 1.511 . S
C1159 H1173 0.961 . S
C1159 H1174 0.961 . S
C1159 H1175 0.961 . S
C1160 C1161 1.370 . S
C1160 C1162 1.363 . S
C1160 H1176 0.931 . S
C1161 C1160 1.370 . S
C1161 C1165 1.408 . S
C1162 C1160 1.363 . S
C1162 C1163 1.370 . S
C1162 C1166 1.524 . S
C1163 C1155 1.503 . S
C1163 C1162 1.370 . S
C1163 C1164 1.403 . S
C1164 C1163 1.403 . S
C1164 C1165 1.404 . S
C1164 C1167 1.539 . S
C1165 C1161 1.408 . S
C1165 C1164 1.404 . S
C1165 H1177 0.930 . S
C1166 C1162 1.524 . S
C1166 H1178 0.956 . S
C1166 H1179 0.961 . S
C1166 H1180 0.961 . S
C1167 C1164 1.539 . S
C1167 H1181 0.958 . S
C1167 H1182 0.961 . S
C1167 H1183 0.960 . S
H1168 C1152 0.931 . S
H1169 C1157 0.929 . S
H1170 C1158 0.960 . S
H1171 C1158 0.962 . S
H1172 C1158 0.960 1_554 S
H1173 C1159 0.961 . S
H1174 C1159 0.961 . S
H1175 C1159 0.961 . S
H1176 C1160 0.931 . S
H1177 C1165 0.930 . S
H1178 C1166 0.956 . S
H1179 C1166 0.961 . S
H1180 C1166 0.961 . S
H1181 C1167 0.958 . S
H1182 C1167 0.961 . S
H1183 C1167 0.960 . S
C1184 C1185 1.391 1_554 S
C1184 C1186 1.394 . S
C1184 H1200 0.931 . S
C1185 C1184 1.391 1_556 S
C1185 C1189 1.376 . S
C1186 C1184 1.394 . S
C1186 C1187 1.369 . S
C1186 C1190 1.531 . S
C1187 C1186 1.369 . S
C1187 C1188 1.410 . S
C1187 C1195 1.503 . S
C1188 C1187 1.410 . S
C1188 C1189 1.392 1_554 S
C1188 C1191 1.511 . S
C1189 C1185 1.376 . S
C1189 C1188 1.392 1_556 S
C1189 H1201 0.929 . S
C1190 C1186 1.531 . S
C1190 H1202 0.960 . S
C1190 H1203 0.962 . S
C1190 H1204 0.960 . S
C1191 C1188 1.511 . S
C1191 H1205 0.959 1_554 S
C1191 H1206 0.961 . S
C1191 H1207 0.961 . S
C1192 C1193 1.370 . S
C1192 C1194 1.363 . S
C1192 H1208 0.931 . S
C1193 C1192 1.370 . S
C1193 C1197 1.408 . S
C1194 C1192 1.363 . S
C1194 C1195 1.370 . S
C1194 C1198 1.524 . S
C1195 C1187 1.503 . S
C1195 C1194 1.370 . S
C1195 C1196 1.403 . S
C1196 C1195 1.403 . S
C1196 C1197 1.404 . S
C1196 C1199 1.539 . S
C1197 C1193 1.408 . S
C1197 C1196 1.404 . S
C1197 H1209 0.930 . S
C1198 C1194 1.524 . S
C1198 H1210 0.956 . S
C1198 H1211 0.961 . S
C1198 H1212 0.961 . S
C1199 C1196 1.539 . S
C1199 H1213 0.958 . S
C1199 H1214 0.961 . S
C1199 H1215 0.960 . S
H1200 C1184 0.931 . S
H1201 C1189 0.929 . S
H1202 C1190 0.960 . S
H1203 C1190 0.962 . S
H1204 C1190 0.960 . S
H1205 C1191 0.959 1_556 S
H1206 C1191 0.961 . S
H1207 C1191 0.961 . S
H1208 C1192 0.931 . S
H1209 C1197 0.930 . S
H1210 C1198 0.956 . S
H1211 C1198 0.961 . S
H1212 C1198 0.961 . S
H1213 C1199 0.958 . S
H1214 C1199 0.961 . S
H1215 C1199 0.960 . S
C1216 C1217 1.391 . S
C1216 C1218 1.394 1_554 S
C1216 H1232 0.931 . S
C1217 C1216 1.391 . S
C1217 C1221 1.376 1_554 S
C1218 C1216 1.394 1_556 S
C1218 C1219 1.369 . S
C1218 C1222 1.531 . S
C1219 C1218 1.369 . S
C1219 C1220 1.410 . S
C1219 C1227 1.503 . S
C1220 C1219 1.410 . S
C1220 C1221 1.392 . S
C1220 C1223 1.511 . S
C1221 C1217 1.376 1_556 S
C1221 C1220 1.392 . S
C1221 H1233 0.929 . S
C1222 C1218 1.531 . S
C1222 H1234 0.960 . S
C1222 H1235 0.962 . S
C1222 H1236 0.960 1_556 S
C1223 C1220 1.511 . S
C1223 H1237 0.961 . S
C1223 H1238 0.961 . S
C1223 H1239 0.961 . S
C1224 C1225 1.370 . S
C1224 C1226 1.363 . S
C1224 H1240 0.931 . S
C1225 C1224 1.370 . S
C1225 C1229 1.408 . S
C1226 C1224 1.363 . S
C1226 C1227 1.370 . S
C1226 C1230 1.524 . S
C1227 C1219 1.503 . S
C1227 C1226 1.370 . S
C1227 C1228 1.403 . S
C1228 C1227 1.403 . S
C1228 C1229 1.404 . S
C1228 C1231 1.539 . S
C1229 C1225 1.408 . S
C1229 C1228 1.404 . S
C1229 H1241 0.930 . S
C1230 C1226 1.524 . S
C1230 H1242 0.956 . S
C1230 H1243 0.961 . S
C1230 H1244 0.961 . S
C1231 C1228 1.539 . S
C1231 H1245 0.958 . S
C1231 H1246 0.961 . S
C1231 H1247 0.960 . S
H1232 C1216 0.931 . S
H1233 C1221 0.929 . S
H1234 C1222 0.960 . S
H1235 C1222 0.962 . S
H1236 C1222 0.960 1_554 S
H1237 C1223 0.961 . S
H1238 C1223 0.961 . S
H1239 C1223 0.961 . S
H1240 C1224 0.931 . S
H1241 C1229 0.930 . S
H1242 C1230 0.956 . S
H1243 C1230 0.961 . S
H1244 C1230 0.961 . S
H1245 C1231 0.958 . S
H1246 C1231 0.961 . S
H1247 C1231 0.960 . S
C1248 C1249 1.391 . S
C1248 C1250 1.394 . S
C1248 H1264 0.931 . S
C1249 C1248 1.391 . S
C1249 C1253 1.376 . S
C1250 C1248 1.394 . S
C1250 C1251 1.369 . S
C1250 C1254 1.531 . S
C1251 C1250 1.369 . S
C1251 C1252 1.410 . S
C1251 C1259 1.503 . S
C1252 C1251 1.410 . S
C1252 C1253 1.392 . S
C1252 C1255 1.511 . S
C1253 C1249 1.376 . S
C1253 C1252 1.392 . S
C1253 H1265 0.929 . S
C1254 C1250 1.531 . S
C1254 H1266 0.960 . S
C1254 H1267 0.962 . S
C1254 H1268 0.960 . S
C1255 C1252 1.511 . S
C1255 H1269 0.961 . S
C1255 H1270 0.961 . S
C1255 H1271 0.961 . S
C1256 C1257 1.370 1_556 S
C1256 C1258 1.363 . S
C1256 H1272 0.931 . S
C1257 C1256 1.370 1_554 S
C1257 C1261 1.408 . S
C1258 C1256 1.363 . S
C1258 C1259 1.370 . S
C1258 C1262 1.524 . S
C1259 C1251 1.503 . S
C1259 C1258 1.370 . S
C1259 C1260 1.403 . S
C1260 C1259 1.403 . S
C1260 C1261 1.404 1_556 S
C1260 C1263 1.539 . S
C1261 C1257 1.408 . S
C1261 C1260 1.404 1_554 S
C1261 H1273 0.930 . S
C1262 C1258 1.524 . S
C1262 H1274 0.956 . S
C1262 H1275 0.961 . S
C1262 H1276 0.961 . S
C1263 C1260 1.539 . S
C1263 H1277 0.958 . S
C1263 H1278 0.961 1_556 S
C1263 H1279 0.960 . S
H1264 C1248 0.931 . S
H1265 C1253 0.929 . S
H1266 C1254 0.960 . S
H1267 C1254 0.962 . S
H1268 C1254 0.960 . S
H1269 C1255 0.961 . S
H1270 C1255 0.961 . S
H1271 C1255 0.961 . S
H1272 C1256 0.931 . S
H1273 C1261 0.930 . S
H1274 C1262 0.956 . S
H1275 C1262 0.961 . S
H1276 C1262 0.961 . S
H1277 C1263 0.958 . S
H1278 C1263 0.961 1_554 S
H1279 C1263 0.960 . S
C1280 C1281 1.391 . S
C1280 C1282 1.394 . S
C1280 H1296 0.931 . S
C1281 C1280 1.391 . S
C1281 C1285 1.376 . S
C1282 C1280 1.394 . S
C1282 C1283 1.369 . S
C1282 C1286 1.531 . S
C1283 C1282 1.369 . S
C1283 C1284 1.410 . S
C1283 C1291 1.503 . S
C1284 C1283 1.410 . S
C1284 C1285 1.392 . S
C1284 C1287 1.511 . S
C1285 C1281 1.376 . S
C1285 C1284 1.392 . S
C1285 H1297 0.929 . S
C1286 C1282 1.531 . S
C1286 H1298 0.960 . S
C1286 H1299 0.962 . S
C1286 H1300 0.960 . S
C1287 C1284 1.511 . S
C1287 H1301 0.961 . S
C1287 H1302 0.961 . S
C1287 H1303 0.961 . S
C1288 C1289 1.370 . S
C1288 C1290 1.363 1_556 S
C1288 H1304 0.931 . S
C1289 C1288 1.370 . S
C1289 C1293 1.408 1_556 S
C1290 C1288 1.363 1_554 S
C1290 C1291 1.370 . S
C1290 C1294 1.524 . S
C1291 C1283 1.503 . S
C1291 C1290 1.370 . S
C1291 C1292 1.403 . S
C1292 C1291 1.403 . S
C1292 C1293 1.404 . S
C1292 C1295 1.539 . S
C1293 C1289 1.408 1_554 S
C1293 C1292 1.404 . S
C1293 H1305 0.930 1_554 S
C1294 C1290 1.524 . S
C1294 H1306 0.956 . S
C1294 H1307 0.961 . S
C1294 H1308 0.961 . S
C1295 C1292 1.539 . S
C1295 H1309 0.958 . S
C1295 H1310 0.961 . S
C1295 H1311 0.960 . S
H1296 C1280 0.931 . S
H1297 C1285 0.929 . S
H1298 C1286 0.960 . S
H1299 C1286 0.962 . S
H1300 C1286 0.960 . S
H1301 C1287 0.961 . S
H1302 C1287 0.961 . S
H1303 C1287 0.961 . S
H1304 C1288 0.931 . S
H1305 C1293 0.930 1_556 S
H1306 C1294 0.956 . S
H1307 C1294 0.961 . S
H1308 C1294 0.961 . S
H1309 C1295 0.958 . S
H1310 C1295 0.961 . S
H1311 C1295 0.960 . S
C1312 C1313 1.391 . S
C1312 C1314 1.394 . S
C1312 H1328 0.931 . S
C1313 C1312 1.391 . S
C1313 C1317 1.376 . S
C1314 C1312 1.394 . S
C1314 C1315 1.369 . S
C1314 C1318 1.531 . S
C1315 C1314 1.369 . S
C1315 C1316 1.410 . S
C1315 C1323 1.503 . S
C1316 C1315 1.410 . S
C1316 C1317 1.392 . S
C1316 C1319 1.511 . S
C1317 C1313 1.376 . S
C1317 C1316 1.392 . S
C1317 H1329 0.929 . S
C1318 C1314 1.531 . S
C1318 H1330 0.960 . S
C1318 H1331 0.962 . S
C1318 H1332 0.960 . S
C1319 C1316 1.511 . S
C1319 H1333 0.961 . S
C1319 H1334 0.961 . S
C1319 H1335 0.961 . S
C1320 C1321 1.370 . S
C1320 C1322 1.363 1_554 S
C1320 H1336 0.931 . S
C1321 C1320 1.370 . S
C1321 C1325 1.408 1_554 S
C1322 C1320 1.363 1_556 S
C1322 C1323 1.370 . S
C1322 C1326 1.524 . S
C1323 C1315 1.503 . S
C1323 C1322 1.370 . S
C1323 C1324 1.403 . S
C1324 C1323 1.403 . S
C1324 C1325 1.404 . S
C1324 C1327 1.539 . S
C1325 C1321 1.408 1_556 S
C1325 C1324 1.404 . S
C1325 H1337 0.930 . S
C1326 C1322 1.524 . S
C1326 H1338 0.956 . S
C1326 H1339 0.961 . S
C1326 H1340 0.961 . S
C1327 C1324 1.539 . S
C1327 H1341 0.958 . S
C1327 H1342 0.961 . S
C1327 H1343 0.960 . S
H1328 C1312 0.931 . S
H1329 C1317 0.929 . S
H1330 C1318 0.960 . S
H1331 C1318 0.962 . S
H1332 C1318 0.960 . S
H1333 C1319 0.961 . S
H1334 C1319 0.961 . S
H1335 C1319 0.961 . S
H1336 C1320 0.931 . S
H1337 C1325 0.930 . S
H1338 C1326 0.956 . S
H1339 C1326 0.961 . S
H1340 C1326 0.961 . S
H1341 C1327 0.958 . S
H1342 C1327 0.961 . S
H1343 C1327 0.960 . S
C1344 C1345 1.391 1_554 S
C1344 C1346 1.394 . S
C1344 H1360 0.931 . S
C1345 C1344 1.391 1_556 S
C1345 C1349 1.376 . S
C1346 C1344 1.394 . S
C1346 C1347 1.369 . S
C1346 C1350 1.531 . S
C1347 C1346 1.369 . S
C1347 C1348 1.410 . S
C1347 C1355 1.503 . S
C1348 C1347 1.410 . S
C1348 C1349 1.392 1_554 S
C1348 C1351 1.511 . S
C1349 C1345 1.376 . S
C1349 C1348 1.392 1_556 S
C1349 H1361 0.929 . S
C1350 C1346 1.531 . S
C1350 H1362 0.960 . S
C1350 H1363 0.962 . S
C1350 H1364 0.960 . S
C1351 C1348 1.511 . S
C1351 H1365 0.961 . S
C1351 H1366 0.961 . S
C1351 H1367 0.961 . S
C1352 C1353 1.370 . S
C1352 C1354 1.363 . S
C1352 H1368 0.931 . S
C1353 C1352 1.370 . S
C1353 C1357 1.408 . S
C1354 C1352 1.363 . S
C1354 C1355 1.370 . S
C1354 C1358 1.524 . S
C1355 C1347 1.503 . S
C1355 C1354 1.370 . S
C1355 C1356 1.403 . S
C1356 C1355 1.403 . S
C1356 C1357 1.404 . S
C1356 C1359 1.539 . S
C1357 C1353 1.408 . S
C1357 C1356 1.404 . S
C1357 H1369 0.930 . S
C1358 C1354 1.524 . S
C1358 H1370 0.956 . S
C1358 H1371 0.961 . S
C1358 H1372 0.961 . S
C1359 C1356 1.539 . S
C1359 H1373 0.958 . S
C1359 H1374 0.961 . S
C1359 H1375 0.960 . S
H1360 C1344 0.931 . S
H1361 C1349 0.929 . S
H1362 C1350 0.960 . S
H1363 C1350 0.962 . S
H1364 C1350 0.960 . S
H1365 C1351 0.961 . S
H1366 C1351 0.961 . S
H1367 C1351 0.961 . S
H1368 C1352 0.931 . S
H1369 C1357 0.930 . S
H1370 C1358 0.956 . S
H1371 C1358 0.961 . S
H1372 C1358 0.961 . S
H1373 C1359 0.958 . S
H1374 C1359 0.961 . S
H1375 C1359 0.960 . S
C1376 C1377 1.391 . S
C1376 C1378 1.394 . S
C1376 H1392 0.931 . S
C1377 C1376 1.391 . S
C1377 C1381 1.376 . S
C1378 C1376 1.394 . S
C1378 C1379 1.369 . S
C1378 C1382 1.531 . S
C1379 C1378 1.369 . S
C1379 C1380 1.410 . S
C1379 C1387 1.503 . S
C1380 C1379 1.410 . S
C1380 C1381 1.392 . S
C1380 C1383 1.511 . S
C1381 C1377 1.376 . S
C1381 C1380 1.392 . S
C1381 H1393 0.929 . S
C1382 C1378 1.531 . S
C1382 H1394 0.960 . S
C1382 H1395 0.962 . S
C1382 H1396 0.960 . S
C1383 C1380 1.511 . S
C1383 H1397 0.961 . S
C1383 H1398 0.961 . S
C1383 H1399 0.961 . S
C1384 C1385 1.370 . S
C1384 C1386 1.363 . S
C1384 H1400 0.931 . S
C1385 C1384 1.370 . S
C1385 C1389 1.408 . S
C1386 C1384 1.363 . S
C1386 C1387 1.370 . S
C1386 C1390 1.524 . S
C1387 C1379 1.503 . S
C1387 C1386 1.370 . S
C1387 C1388 1.403 . S
C1388 C1387 1.403 . S
C1388 C1389 1.404 . S
C1388 C1391 1.539 . S
C1389 C1385 1.408 . S
C1389 C1388 1.404 . S
C1389 H1401 0.930 . S
C1390 C1386 1.524 . S
C1390 H1402 0.956 . S
C1390 H1403 0.961 . S
C1390 H1404 0.961 . S
C1391 C1388 1.539 . S
C1391 H1405 0.958 . S
C1391 H1406 0.961 . S
C1391 H1407 0.960 . S
H1392 C1376 0.931 . S
H1393 C1381 0.929 . S
H1394 C1382 0.960 . S
H1395 C1382 0.962 . S
H1396 C1382 0.960 . S
H1397 C1383 0.961 . S
H1398 C1383 0.961 . S
H1399 C1383 0.961 . S
H1400 C1384 0.931 . S
H1401 C1389 0.930 . S
H1402 C1390 0.956 . S
H1403 C1390 0.961 . S
H1404 C1390 0.961 . S
H1405 C1391 0.958 . S
H1406 C1391 0.961 . S
H1407 C1391 0.960 . S
C1408 C1409 1.391 . S
C1408 C1410 1.394 . S
C1408 H1424 0.931 . S
C1409 C1408 1.391 . S
C1409 C1413 1.376 . S
C1410 C1408 1.394 . S
C1410 C1411 1.369 . S
C1410 C1414 1.531 . S
C1411 C1410 1.369 . S
C1411 C1412 1.410 . S
C1411 C1419 1.503 . S
C1412 C1411 1.410 . S
C1412 C1413 1.392 . S
C1412 C1415 1.511 . S
C1413 C1409 1.376 . S
C1413 C1412 1.392 . S
C1413 H1425 0.929 . S
C1414 C1410 1.531 . S
C1414 H1426 0.960 . S
C1414 H1427 0.962 . S
C1414 H1428 0.960 . S
C1415 C1412 1.511 . S
C1415 H1429 0.961 . S
C1415 H1430 0.961 . S
C1415 H1431 0.961 . S
C1416 C1417 1.370 . S
C1416 C1418 1.363 . S
C1416 H1432 0.931 . S
C1417 C1416 1.370 . S
C1417 C1421 1.408 . S
C1418 C1416 1.363 . S
C1418 C1419 1.370 . S
C1418 C1422 1.524 . S
C1419 C1411 1.503 . S
C1419 C1418 1.370 . S
C1419 C1420 1.403 . S
C1420 C1419 1.403 . S
C1420 C1421 1.404 . S
C1420 C1423 1.539 . S
C1421 C1417 1.408 . S
C1421 C1420 1.404 . S
C1421 H1433 0.930 . S
C1422 C1418 1.524 . S
C1422 H1434 0.956 . S
C1422 H1435 0.961 . S
C1422 H1436 0.961 . S
C1423 C1420 1.539 . S
C1423 H1437 0.958 . S
C1423 H1438 0.961 . S
C1423 H1439 0.960 . S
H1424 C1408 0.931 . S
H1425 C1413 0.929 . S
H1426 C1414 0.960 . S
H1427 C1414 0.962 . S
H1428 C1414 0.960 . S
H1429 C1415 0.961 . S
H1430 C1415 0.961 . S
H1431 C1415 0.961 . S
H1432 C1416 0.931 . S
H1433 C1421 0.930 . S
H1434 C1422 0.956 . S
H1435 C1422 0.961 . S
H1436 C1422 0.961 . S
H1437 C1423 0.958 . S
H1438 C1423 0.961 . S
H1439 C1423 0.960 . S
C1440 C1441 1.391 . S
C1440 C1442 1.394 . S
C1440 H1456 0.931 . S
C1441 C1440 1.391 . S
C1441 C1445 1.376 . S
C1442 C1440 1.394 . S
C1442 C1443 1.369 . S
C1442 C1446 1.531 . S
C1443 C1442 1.369 . S
C1443 C1444 1.410 . S
C1443 C1451 1.503 . S
C1444 C1443 1.410 . S
C1444 C1445 1.392 . S
C1444 C1447 1.511 . S
C1445 C1441 1.376 . S
C1445 C1444 1.392 . S
C1445 H1457 0.929 . S
C1446 C1442 1.531 . S
C1446 H1458 0.960 . S
C1446 H1459 0.962 . S
C1446 H1460 0.960 . S
C1447 C1444 1.511 . S
C1447 H1461 0.961 . S
C1447 H1462 0.961 . S
C1447 H1463 0.961 . S
C1448 C1449 1.370 . S
C1448 C1450 1.363 . S
C1448 H1464 0.931 . S
C1449 C1448 1.370 . S
C1449 C1453 1.408 . S
C1450 C1448 1.363 . S
C1450 C1451 1.370 . S
C1450 C1454 1.524 . S
C1451 C1443 1.503 . S
C1451 C1450 1.370 . S
C1451 C1452 1.403 . S
C1452 C1451 1.403 . S
C1452 C1453 1.404 . S
C1452 C1455 1.539 . S
C1453 C1449 1.408 . S
C1453 C1452 1.404 . S
C1453 H1465 0.930 . S
C1454 C1450 1.524 . S
C1454 H1466 0.956 . S
C1454 H1467 0.961 . S
C1454 H1468 0.961 . S
C1455 C1452 1.539 . S
C1455 H1469 0.958 . S
C1455 H1470 0.961 . S
C1455 H1471 0.960 . S
H1456 C1440 0.931 . S
H1457 C1445 0.929 . S
H1458 C1446 0.960 . S
H1459 C1446 0.962 . S
H1460 C1446 0.960 . S
H1461 C1447 0.961 . S
H1462 C1447 0.961 . S
H1463 C1447 0.961 . S
H1464 C1448 0.931 . S
H1465 C1453 0.930 . S
H1466 C1454 0.956 . S
H1467 C1454 0.961 . S
H1468 C1454 0.961 . S
H1469 C1455 0.958 . S
H1470 C1455 0.961 . S
H1471 C1455 0.960 . S
C1472 C1473 1.391 . S
C1472 C1474 1.394 . S
C1472 H1488 0.931 . S
C1473 C1472 1.391 . S
C1473 C1477 1.376 . S
C1474 C1472 1.394 . S
C1474 C1475 1.369 . S
C1474 C1478 1.531 . S
C1475 C1474 1.369 . S
C1475 C1476 1.410 . S
C1475 C1483 1.503 . S
C1476 C1475 1.410 . S
C1476 C1477 1.392 . S
C1476 C1479 1.511 . S
C1477 C1473 1.376 . S
C1477 C1476 1.392 . S
C1477 H1489 0.929 . S
C1478 C1474 1.531 . S
C1478 H1490 0.960 . S
C1478 H1491 0.962 . S
C1478 H1492 0.960 . S
C1479 C1476 1.511 . S
C1479 H1493 0.961 . S
C1479 H1494 0.961 . S
C1479 H1495 0.961 . S
C1480 C1481 1.370 . S
C1480 C1482 1.363 . S
C1480 H1496 0.931 . S
C1481 C1480 1.370 . S
C1481 C1485 1.408 . S
C1482 C1480 1.363 . S
C1482 C1483 1.370 . S
C1482 C1486 1.524 . S
C1483 C1475 1.503 . S
C1483 C1482 1.370 . S
C1483 C1484 1.403 . S
C1484 C1483 1.403 . S
C1484 C1485 1.404 . S
C1484 C1487 1.539 . S
C1485 C1481 1.408 . S
C1485 C1484 1.404 . S
C1485 H1497 0.930 . S
C1486 C1482 1.524 . S
C1486 H1498 0.956 . S
C1486 H1499 0.961 . S
C1486 H1500 0.961 . S
C1487 C1484 1.539 . S
C1487 H1501 0.958 . S
C1487 H1502 0.961 . S
C1487 H1503 0.960 . S
H1488 C1472 0.931 . S
H1489 C1477 0.929 . S
H1490 C1478 0.960 . S
H1491 C1478 0.962 . S
H1492 C1478 0.960 . S
H1493 C1479 0.961 . S
H1494 C1479 0.961 . S
H1495 C1479 0.961 . S
H1496 C1480 0.931 . S
H1497 C1485 0.930 . S
H1498 C1486 0.956 . S
H1499 C1486 0.961 . S
H1500 C1486 0.961 . S
H1501 C1487 0.958 . S
H1502 C1487 0.961 . S
H1503 C1487 0.960 . S
C1504 C1505 1.391 . S
C1504 C1506 1.394 . S
C1504 H1520 0.931 . S
C1505 C1504 1.391 . S
C1505 C1509 1.376 . S
C1506 C1504 1.394 . S
C1506 C1507 1.369 . S
C1506 C1510 1.531 . S
C1507 C1506 1.369 . S
C1507 C1508 1.410 . S
C1507 C1515 1.503 . S
C1508 C1507 1.410 . S
C1508 C1509 1.392 . S
C1508 C1511 1.511 . S
C1509 C1505 1.376 . S
C1509 C1508 1.392 . S
C1509 H1521 0.929 . S
C1510 C1506 1.531 . S
C1510 H1522 0.960 . S
C1510 H1523 0.962 . S
C1510 H1524 0.960 . S
C1511 C1508 1.511 . S
C1511 H1525 0.961 . S
C1511 H1526 0.961 . S
C1511 H1527 0.961 . S
C1512 C1513 1.370 . S
C1512 C1514 1.363 . S
C1512 H1528 0.931 . S
C1513 C1512 1.370 . S
C1513 C1517 1.408 . S
C1514 C1512 1.363 . S
C1514 C1515 1.370 . S
C1514 C1518 1.524 . S
C1515 C1507 1.503 . S
C1515 C1514 1.370 . S
C1515 C1516 1.403 . S
C1516 C1515 1.403 . S
C1516 C1517 1.404 . S
C1516 C1519 1.539 . S
C1517 C1513 1.408 . S
C1517 C1516 1.404 . S
C1517 H1529 0.930 . S
C1518 C1514 1.524 . S
C1518 H1530 0.956 . S
C1518 H1531 0.961 . S
C1518 H1532 0.961 . S
C1519 C1516 1.539 . S
C1519 H1533 0.958 . S
C1519 H1534 0.961 . S
C1519 H1535 0.960 . S
H1520 C1504 0.931 . S
H1521 C1509 0.929 . S
H1522 C1510 0.960 . S
H1523 C1510 0.962 . S
H1524 C1510 0.960 . S
H1525 C1511 0.961 . S
H1526 C1511 0.961 . S
H1527 C1511 0.961 . S
H1528 C1512 0.931 . S
H1529 C1517 0.930 . S
H1530 C1518 0.956 . S
H1531 C1518 0.961 . S
H1532 C1518 0.961 . S
H1533 C1519 0.958 . S
H1534 C1519 0.961 . S
H1535 C1519 0.960 . S
C1536 C1537 1.391 . S
C1536 C1538 1.394 . S
C1536 H1552 0.931 . S
C1537 C1536 1.391 . S
C1537 C1541 1.376 . S
C1538 C1536 1.394 . S
C1538 C1539 1.369 . S
C1538 C1542 1.531 . S
C1539 C1538 1.369 . S
C1539 C1540 1.410 . S
C1539 C1547 1.503 . S
C1540 C1539 1.410 . S
C1540 C1541 1.392 . S
C1540 C1543 1.511 . S
C1541 C1537 1.376 . S
C1541 C1540 1.392 . S
C1541 H1553 0.929 . S
C1542 C1538 1.531 . S
C1542 H1554 0.960 . S
C1542 H1555 0.962 . S
C1542 H1556 0.960 . S
C1543 C1540 1.511 . S
C1543 H1557 0.961 . S
C1543 H1558 0.961 . S
C1543 H1559 0.961 . S
C1544 C1545 1.370 . S
C1544 C1546 1.363 . S
C1544 H1560 0.931 . S
C1545 C1544 1.370 . S
C1545 C1549 1.408 . S
C1546 C1544 1.363 . S
C1546 C1547 1.370 . S
C1546 C1550 1.524 . S
C1547 C1539 1.503 . S
C1547 C1546 1.370 . S
C1547 C1548 1.403 . S
C1548 C1547 1.403 . S
C1548 C1549 1.404 . S
C1548 C1551 1.539 . S
C1549 C1545 1.408 . S
C1549 C1548 1.404 . S
C1549 H1561 0.930 . S
C1550 C1546 1.524 . S
C1550 H1562 0.956 . S
C1550 H1563 0.961 . S
C1550 H1564 0.961 . S
C1551 C1548 1.539 . S
C1551 H1565 0.958 . S
C1551 H1566 0.961 . S
C1551 H1567 0.960 . S
H1552 C1536 0.931 . S
H1553 C1541 0.929 . S
H1554 C1542 0.960 . S
H1555 C1542 0.962 . S
H1556 C1542 0.960 . S
H1557 C1543 0.961 . S
H1558 C1543 0.961 . S
H1559 C1543 0.961 . S
H1560 C1544 0.931 . S
H1561 C1549 0.930 . S
H1562 C1550 0.956 . S
H1563 C1550 0.961 . S
H1564 C1550 0.961 . S
H1565 C1551 0.958 . S
H1566 C1551 0.961 . S
H1567 C1551 0.960 . S
C1568 C1569 1.391 . S
C1568 C1570 1.394 . S
C1568 H1584 0.931 . S
C1569 C1568 1.391 . S
C1569 C1573 1.376 . S
C1570 C1568 1.394 . S
C1570 C1571 1.369 . S
C1570 C1574 1.531 . S
C1571 C1570 1.369 . S
C1571 C1572 1.410 . S
C1571 C1579 1.503 . S
C1572 C1571 1.410 . S
C1572 C1573 1.392 . S
C1572 C1575 1.511 . S
C1573 C1569 1.376 . S
C1573 C1572 1.392 . S
C1573 H1585 0.929 . S
C1574 C1570 1.531 . S
C1574 H1586 0.960 . S
C1574 H1587 0.962 . S
C1574 H1588 0.960 . S
C1575 C1572 1.511 . S
C1575 H1589 0.961 . S
C1575 H1590 0.961 . S
C1575 H1591 0.961 . S
C1576 C1577 1.370 . S
C1576 C1578 1.363 . S
C1576 H1592 0.931 . S
C1577 C1576 1.370 . S
C1577 C1581 1.408 . S
C1578 C1576 1.363 . S
C1578 C1579 1.370 . S
C1578 C1582 1.524 . S
C1579 C1571 1.503 . S
C1579 C1578 1.370 . S
C1579 C1580 1.403 . S
C1580 C1579 1.403 . S
C1580 C1581 1.404 . S
C1580 C1583 1.539 . S
C1581 C1577 1.408 . S
C1581 C1580 1.404 . S
C1581 H1593 0.930 . S
C1582 C1578 1.524 . S
C1582 H1594 0.956 . S
C1582 H1595 0.961 . S
C1582 H1596 0.961 . S
C1583 C1580 1.539 . S
C1583 H1597 0.958 . S
C1583 H1598 0.961 . S
C1583 H1599 0.960 . S
H1584 C1568 0.931 . S
H1585 C1573 0.929 . S
H1586 C1574 0.960 . S
H1587 C1574 0.962 . S
H1588 C1574 0.960 . S
H1589 C1575 0.961 . S
H1590 C1575 0.961 . S
H1591 C1575 0.961 . S
H1592 C1576 0.931 . S
H1593 C1581 0.930 . S
H1594 C1582 0.956 . S
H1595 C1582 0.961 . S
H1596 C1582 0.961 . S
H1597 C1583 0.958 . S
H1598 C1583 0.961 . S
H1599 C1583 0.960 . S
C1600 C1601 1.391 . S
C1600 C1602 1.394 . S
C1600 H1616 0.931 . S
C1601 C1600 1.391 . S
C1601 C1605 1.376 . S
C1602 C1600 1.394 . S
C1602 C1603 1.369 . S
C1602 C1606 1.531 . S
C1603 C1602 1.369 . S
C1603 C1604 1.410 . S
C1603 C1611 1.503 . S
C1604 C1603 1.410 . S
C1604 C1605 1.392 . S
C1604 C1607 1.511 . S
C1605 C1601 1.376 . S
C1605 C1604 1.392 . S
C1605 H1617 0.929 . S
C1606 C1602 1.531 . S
C1606 H1618 0.960 . S
C1606 H1619 0.962 . S
C1606 H1620 0.960 . S
C1607 C1604 1.511 . S
C1607 H1621 0.961 . S
C1607 H1622 0.961 . S
C1607 H1623 0.961 . S
C1608 C1609 1.370 . S
C1608 C1610 1.363 . S
C1608 H1624 0.931 . S
C1609 C1608 1.370 . S
C1609 C1613 1.408 . S
C1610 C1608 1.363 . S
C1610 C1611 1.370 . S
C1610 C1614 1.524 . S
C1611 C1603 1.503 . S
C1611 C1610 1.370 . S
C1611 C1612 1.403 . S
C1612 C1611 1.403 . S
C1612 C1613 1.404 . S
C1612 C1615 1.539 . S
C1613 C1609 1.408 . S
C1613 C1612 1.404 . S
C1613 H1625 0.930 . S
C1614 C1610 1.524 . S
C1614 H1626 0.956 . S
C1614 H1627 0.961 . S
C1614 H1628 0.961 . S
C1615 C1612 1.539 . S
C1615 H1629 0.958 . S
C1615 H1630 0.961 . S
C1615 H1631 0.960 . S
H1616 C1600 0.931 . S
H1617 C1605 0.929 . S
H1618 C1606 0.960 . S
H1619 C1606 0.962 . S
H1620 C1606 0.960 . S
H1621 C1607 0.961 . S
H1622 C1607 0.961 . S
H1623 C1607 0.961 . S
H1624 C1608 0.931 . S
H1625 C1613 0.930 . S
H1626 C1614 0.956 . S
H1627 C1614 0.961 . S
H1628 C1614 0.961 . S
H1629 C1615 0.958 . S
H1630 C1615 0.961 . S
H1631 C1615 0.960 . S
C1632 C1633 1.391 . S
C1632 C1634 1.394 . S
C1632 H1648 0.931 . S
C1633 C1632 1.391 . S
C1633 C1637 1.376 . S
C1634 C1632 1.394 . S
C1634 C1635 1.369 . S
C1634 C1638 1.531 . S
C1635 C1634 1.369 . S
C1635 C1636 1.410 . S
C1635 C1643 1.503 . S
C1636 C1635 1.410 . S
C1636 C1637 1.392 . S
C1636 C1639 1.511 . S
C1637 C1633 1.376 . S
C1637 C1636 1.392 . S
C1637 H1649 0.929 . S
C1638 C1634 1.531 . S
C1638 H1650 0.960 . S
C1638 H1651 0.962 . S
C1638 H1652 0.960 . S
C1639 C1636 1.511 . S
C1639 H1653 0.961 . S
C1639 H1654 0.961 . S
C1639 H1655 0.961 . S
C1640 C1641 1.370 . S
C1640 C1642 1.363 . S
C1640 H1656 0.931 . S
C1641 C1640 1.370 . S
C1641 C1645 1.408 . S
C1642 C1640 1.363 . S
C1642 C1643 1.370 . S
C1642 C1646 1.524 . S
C1643 C1635 1.503 . S
C1643 C1642 1.370 . S
C1643 C1644 1.403 . S
C1644 C1643 1.403 . S
C1644 C1645 1.404 . S
C1644 C1647 1.539 . S
C1645 C1641 1.408 . S
C1645 C1644 1.404 . S
C1645 H1657 0.930 . S
C1646 C1642 1.524 . S
C1646 H1658 0.956 . S
C1646 H1659 0.961 . S
C1646 H1660 0.961 . S
C1647 C1644 1.539 . S
C1647 H1661 0.958 . S
C1647 H1662 0.961 . S
C1647 H1663 0.960 . S
H1648 C1632 0.931 . S
H1649 C1637 0.929 . S
H1650 C1638 0.960 . S
H1651 C1638 0.962 . S
H1652 C1638 0.960 . S
H1653 C1639 0.961 . S
H1654 C1639 0.961 . S
H1655 C1639 0.961 . S
H1656 C1640 0.931 . S
H1657 C1645 0.930 . S
H1658 C1646 0.956 . S
H1659 C1646 0.961 . S
H1660 C1646 0.961 . S
H1661 C1647 0.958 . S
H1662 C1647 0.961 . S
H1663 C1647 0.960 . S
C1664 C1665 1.391 . S
C1664 C1666 1.394 . S
C1664 H1680 0.931 . S
C1665 C1664 1.391 . S
C1665 C1669 1.376 . S
C1666 C1664 1.394 . S
C1666 C1667 1.369 . S
C1666 C1670 1.531 . S
C1667 C1666 1.369 . S
C1667 C1668 1.410 . S
C1667 C1675 1.503 . S
C1668 C1667 1.410 . S
C1668 C1669 1.392 . S
C1668 C1671 1.511 . S
C1669 C1665 1.376 . S
C1669 C1668 1.392 . S
C1669 H1681 0.929 . S
C1670 C1666 1.531 . S
C1670 H1682 0.960 . S
C1670 H1683 0.962 . S
C1670 H1684 0.960 . S
C1671 C1668 1.511 . S
C1671 H1685 0.961 . S
C1671 H1686 0.961 . S
C1671 H1687 0.961 . S
C1672 C1673 1.370 . S
C1672 C1674 1.363 . S
C1672 H1688 0.931 . S
C1673 C1672 1.370 . S
C1673 C1677 1.408 . S
C1674 C1672 1.363 . S
C1674 C1675 1.370 . S
C1674 C1678 1.524 . S
C1675 C1667 1.503 . S
C1675 C1674 1.370 . S
C1675 C1676 1.403 . S
C1676 C1675 1.403 . S
C1676 C1677 1.404 . S
C1676 C1679 1.539 . S
C1677 C1673 1.408 . S
C1677 C1676 1.404 . S
C1677 H1689 0.930 . S
C1678 C1674 1.524 . S
C1678 H1690 0.956 . S
C1678 H1691 0.961 . S
C1678 H1692 0.961 . S
C1679 C1676 1.539 . S
C1679 H1693 0.958 . S
C1679 H1694 0.961 . S
C1679 H1695 0.960 . S
H1680 C1664 0.931 . S
H1681 C1669 0.929 . S
H1682 C1670 0.960 . S
H1683 C1670 0.962 . S
H1684 C1670 0.960 . S
H1685 C1671 0.961 . S
H1686 C1671 0.961 . S
H1687 C1671 0.961 . S
H1688 C1672 0.931 . S
H1689 C1677 0.930 . S
H1690 C1678 0.956 . S
H1691 C1678 0.961 . S
H1692 C1678 0.961 . S
H1693 C1679 0.958 . S
H1694 C1679 0.961 . S
H1695 C1679 0.960 . S
C1696 C1697 1.391 . S
C1696 C1698 1.394 . S
C1696 H1712 0.931 . S
C1697 C1696 1.391 . S
C1697 C1701 1.376 . S
C1698 C1696 1.394 . S
C1698 C1699 1.369 . S
C1698 C1702 1.531 . S
C1699 C1698 1.369 . S
C1699 C1700 1.410 . S
C1699 C1707 1.503 . S
C1700 C1699 1.410 . S
C1700 C1701 1.392 . S
C1700 C1703 1.511 . S
C1701 C1697 1.376 . S
C1701 C1700 1.392 . S
C1701 H1713 0.929 . S
C1702 C1698 1.531 . S
C1702 H1714 0.960 . S
C1702 H1715 0.962 . S
C1702 H1716 0.960 . S
C1703 C1700 1.511 . S
C1703 H1717 0.961 . S
C1703 H1718 0.961 . S
C1703 H1719 0.961 . S
C1704 C1705 1.370 . S
C1704 C1706 1.363 . S
C1704 H1720 0.931 . S
C1705 C1704 1.370 . S
C1705 C1709 1.408 . S
C1706 C1704 1.363 . S
C1706 C1707 1.370 . S
C1706 C1710 1.524 . S
C1707 C1699 1.503 . S
C1707 C1706 1.370 . S
C1707 C1708 1.403 . S
C1708 C1707 1.403 . S
C1708 C1709 1.404 . S
C1708 C1711 1.539 . S
C1709 C1705 1.408 . S
C1709 C1708 1.404 . S
C1709 H1721 0.930 . S
C1710 C1706 1.524 . S
C1710 H1722 0.956 . S
C1710 H1723 0.961 . S
C1710 H1724 0.961 . S
C1711 C1708 1.539 . S
C1711 H1725 0.958 . S
C1711 H1726 0.961 . S
C1711 H1727 0.960 . S
H1712 C1696 0.931 . S
H1713 C1701 0.929 . S
H1714 C1702 0.960 . S
H1715 C1702 0.962 . S
H1716 C1702 0.960 . S
H1717 C1703 0.961 . S
H1718 C1703 0.961 . S
H1719 C1703 0.961 . S
H1720 C1704 0.931 . S
H1721 C1709 0.930 . S
H1722 C1710 0.956 . S
H1723 C1710 0.961 . S
H1724 C1710 0.961 . S
H1725 C1711 0.958 . S
H1726 C1711 0.961 . S
H1727 C1711 0.960 . S
C1728 C1729 1.391 . S
C1728 C1730 1.394 . S
C1728 H1744 0.931 . S
C1729 C1728 1.391 . S
C1729 C1733 1.376 . S
C1730 C1728 1.394 . S
C1730 C1731 1.369 . S
C1730 C1734 1.531 . S
C1731 C1730 1.369 . S
C1731 C1732 1.410 . S
C1731 C1739 1.503 . S
C1732 C1731 1.410 . S
C1732 C1733 1.392 . S
C1732 C1735 1.511 . S
C1733 C1729 1.376 . S
C1733 C1732 1.392 . S
C1733 H1745 0.929 . S
C1734 C1730 1.531 . S
C1734 H1746 0.960 . S
C1734 H1747 0.962 . S
C1734 H1748 0.960 . S
C1735 C1732 1.511 . S
C1735 H1749 0.961 . S
C1735 H1750 0.961 . S
C1735 H1751 0.961 . S
C1736 C1737 1.370 . S
C1736 C1738 1.363 . S
C1736 H1752 0.931 . S
C1737 C1736 1.370 . S
C1737 C1741 1.408 . S
C1738 C1736 1.363 . S
C1738 C1739 1.370 . S
C1738 C1742 1.524 . S
C1739 C1731 1.503 . S
C1739 C1738 1.370 . S
C1739 C1740 1.403 . S
C1740 C1739 1.403 . S
C1740 C1741 1.404 . S
C1740 C1743 1.539 . S
C1741 C1737 1.408 . S
C1741 C1740 1.404 . S
C1741 H1753 0.930 . S
C1742 C1738 1.524 . S
C1742 H1754 0.956 . S
C1742 H1755 0.961 . S
C1742 H1756 0.961 . S
C1743 C1740 1.539 . S
C1743 H1757 0.958 . S
C1743 H1758 0.961 . S
C1743 H1759 0.960 . S
H1744 C1728 0.931 . S
H1745 C1733 0.929 . S
H1746 C1734 0.960 . S
H1747 C1734 0.962 . S
H1748 C1734 0.960 . S
H1749 C1735 0.961 . S
H1750 C1735 0.961 . S
H1751 C1735 0.961 . S
H1752 C1736 0.931 . S
H1753 C1741 0.930 . S
H1754 C1742 0.956 . S
H1755 C1742 0.961 . S
H1756 C1742 0.961 . S
H1757 C1743 0.958 . S
H1758 C1743 0.961 . S
H1759 C1743 0.960 . S
C1760 C1761 1.391 . S
C1760 C1762 1.394 . S
C1760 H1776 0.931 . S
C1761 C1760 1.391 . S
C1761 C1765 1.376 . S
C1762 C1760 1.394 . S
C1762 C1763 1.369 . S
C1762 C1766 1.531 . S
C1763 C1762 1.369 . S
C1763 C1764 1.410 . S
C1763 C1771 1.503 . S
C1764 C1763 1.410 . S
C1764 C1765 1.392 . S
C1764 C1767 1.511 . S
C1765 C1761 1.376 . S
C1765 C1764 1.392 . S
C1765 H1777 0.929 . S
C1766 C1762 1.531 . S
C1766 H1778 0.960 . S
C1766 H1779 0.962 . S
C1766 H1780 0.960 . S
C1767 C1764 1.511 . S
C1767 H1781 0.961 . S
C1767 H1782 0.961 . S
C1767 H1783 0.961 . S
C1768 C1769 1.370 . S
C1768 C1770 1.363 . S
C1768 H1784 0.931 . S
C1769 C1768 1.370 . S
C1769 C1773 1.408 . S
C1770 C1768 1.363 . S
C1770 C1771 1.370 . S
C1770 C1774 1.524 . S
C1771 C1763 1.503 . S
C1771 C1770 1.370 . S
C1771 C1772 1.403 . S
C1772 C1771 1.403 . S
C1772 C1773 1.404 . S
C1772 C1775 1.539 . S
C1773 C1769 1.408 . S
C1773 C1772 1.404 . S
C1773 H1785 0.930 . S
C1774 C1770 1.524 . S
C1774 H1786 0.956 . S
C1774 H1787 0.961 . S
C1774 H1788 0.961 . S
C1775 C1772 1.539 . S
C1775 H1789 0.958 . S
C1775 H1790 0.961 . S
C1775 H1791 0.960 . S
H1776 C1760 0.931 . S
H1777 C1765 0.929 . S
H1778 C1766 0.960 . S
H1779 C1766 0.962 . S
H1780 C1766 0.960 . S
H1781 C1767 0.961 . S
H1782 C1767 0.961 . S
H1783 C1767 0.961 . S
H1784 C1768 0.931 . S
H1785 C1773 0.930 . S
H1786 C1774 0.956 . S
H1787 C1774 0.961 . S
H1788 C1774 0.961 . S
H1789 C1775 0.958 . S
H1790 C1775 0.961 . S
H1791 C1775 0.960 . S
C1792 C1793 1.391 . S
C1792 C1794 1.394 . S
C1792 H1808 0.931 . S
C1793 C1792 1.391 . S
C1793 C1797 1.376 . S
C1794 C1792 1.394 . S
C1794 C1795 1.369 . S
C1794 C1798 1.531 . S
C1795 C1794 1.369 . S
C1795 C1796 1.410 . S
C1795 C1803 1.503 . S
C1796 C1795 1.410 . S
C1796 C1797 1.392 . S
C1796 C1799 1.511 . S
C1797 C1793 1.376 . S
C1797 C1796 1.392 . S
C1797 H1809 0.929 . S
C1798 C1794 1.531 . S
C1798 H1810 0.960 . S
C1798 H1811 0.962 . S
C1798 H1812 0.960 . S
C1799 C1796 1.511 . S
C1799 H1813 0.961 . S
C1799 H1814 0.961 . S
C1799 H1815 0.961 . S
C1800 C1801 1.370 . S
C1800 C1802 1.363 . S
C1800 H1816 0.931 . S
C1801 C1800 1.370 . S
C1801 C1805 1.408 . S
C1802 C1800 1.363 . S
C1802 C1803 1.370 . S
C1802 C1806 1.524 . S
C1803 C1795 1.503 . S
C1803 C1802 1.370 . S
C1803 C1804 1.403 . S
C1804 C1803 1.403 . S
C1804 C1805 1.404 . S
C1804 C1807 1.539 . S
C1805 C1801 1.408 . S
C1805 C1804 1.404 . S
C1805 H1817 0.930 . S
C1806 C1802 1.524 . S
C1806 H1818 0.956 . S
C1806 H1819 0.961 . S
C1806 H1820 0.961 . S
C1807 C1804 1.539 . S
C1807 H1821 0.958 . S
C1807 H1822 0.961 . S
C1807 H1823 0.960 . S
H1808 C1792 0.931 . S
H1809 C1797 0.929 . S
H1810 C1798 0.960 . S
H1811 C1798 0.962 . S
H1812 C1798 0.960 . S
H1813 C1799 0.961 . S
H1814 C1799 0.961 . S
H1815 C1799 0.961 . S
H1816 C1800 0.931 . S
H1817 C1805 0.930 . S
H1818 C1806 0.956 . S
H1819 C1806 0.961 . S
H1820 C1806 0.961 . S
H1821 C1807 0.958 . S
H1822 C1807 0.961 . S
H1823 C1807 0.960 . S
C1824 C1825 1.391 . S
C1824 C1826 1.394 . S
C1824 H1840 0.931 . S
C1825 C1824 1.391 . S
C1825 C1829 1.376 . S
C1826 C1824 1.394 . S
C1826 C1827 1.369 . S
C1826 C1830 1.531 . S
C1827 C1826 1.369 . S
C1827 C1828 1.410 . S
C1827 C1835 1.503 . S
C1828 C1827 1.410 . S
C1828 C1829 1.392 . S
C1828 C1831 1.511 . S
C1829 C1825 1.376 . S
C1829 C1828 1.392 . S
C1829 H1841 0.929 . S
C1830 C1826 1.531 . S
C1830 H1842 0.960 . S
C1830 H1843 0.962 . S
C1830 H1844 0.960 . S
C1831 C1828 1.511 . S
C1831 H1845 0.961 . S
C1831 H1846 0.961 . S
C1831 H1847 0.961 . S
C1832 C1833 1.370 . S
C1832 C1834 1.363 . S
C1832 H1848 0.931 . S
C1833 C1832 1.370 . S
C1833 C1837 1.408 . S
C1834 C1832 1.363 . S
C1834 C1835 1.370 . S
C1834 C1838 1.524 . S
C1835 C1827 1.503 . S
C1835 C1834 1.370 . S
C1835 C1836 1.403 . S
C1836 C1835 1.403 . S
C1836 C1837 1.404 . S
C1836 C1839 1.539 . S
C1837 C1833 1.408 . S
C1837 C1836 1.404 . S
C1837 H1849 0.930 . S
C1838 C1834 1.524 . S
C1838 H1850 0.956 . S
C1838 H1851 0.961 . S
C1838 H1852 0.961 . S
C1839 C1836 1.539 . S
C1839 H1853 0.958 . S
C1839 H1854 0.961 . S
C1839 H1855 0.960 . S
H1840 C1824 0.931 . S
H1841 C1829 0.929 . S
H1842 C1830 0.960 . S
H1843 C1830 0.962 . S
H1844 C1830 0.960 . S
H1845 C1831 0.961 . S
H1846 C1831 0.961 . S
H1847 C1831 0.961 . S
H1848 C1832 0.931 . S
H1849 C1837 0.930 . S
H1850 C1838 0.956 . S
H1851 C1838 0.961 . S
H1852 C1838 0.961 . S
H1853 C1839 0.958 . S
H1854 C1839 0.961 . S
H1855 C1839 0.960 . S
C1856 C1857 1.391 . S
C1856 C1858 1.394 . S
C1856 H1872 0.931 . S
C1857 C1856 1.391 . S
C1857 C1861 1.376 . S
C1858 C1856 1.394 . S
C1858 C1859 1.369 . S
C1858 C1862 1.531 . S
C1859 C1858 1.369 . S
C1859 C1860 1.410 . S
C1859 C1867 1.503 . S
C1860 C1859 1.410 . S
C1860 C1861 1.392 . S
C1860 C1863 1.511 . S
C1861 C1857 1.376 . S
C1861 C1860 1.392 . S
C1861 H1873 0.929 . S
C1862 C1858 1.531 . S
C1862 H1874 0.960 . S
C1862 H1875 0.962 . S
C1862 H1876 0.960 . S
C1863 C1860 1.511 . S
C1863 H1877 0.961 . S
C1863 H1878 0.961 . S
C1863 H1879 0.961 . S
C1864 C1865 1.370 . S
C1864 C1866 1.363 . S
C1864 H1880 0.931 . S
C1865 C1864 1.370 . S
C1865 C1869 1.408 . S
C1866 C1864 1.363 . S
C1866 C1867 1.370 . S
C1866 C1870 1.524 . S
C1867 C1859 1.503 . S
C1867 C1866 1.370 . S
C1867 C1868 1.403 . S
C1868 C1867 1.403 . S
C1868 C1869 1.404 . S
C1868 C1871 1.539 . S
C1869 C1865 1.408 . S
C1869 C1868 1.404 . S
C1869 H1881 0.930 . S
C1870 C1866 1.524 . S
C1870 H1882 0.956 . S
C1870 H1883 0.961 . S
C1870 H1884 0.961 . S
C1871 C1868 1.539 . S
C1871 H1885 0.958 . S
C1871 H1886 0.961 . S
C1871 H1887 0.960 . S
H1872 C1856 0.931 . S
H1873 C1861 0.929 . S
H1874 C1862 0.960 . S
H1875 C1862 0.962 . S
H1876 C1862 0.960 . S
H1877 C1863 0.961 . S
H1878 C1863 0.961 . S
H1879 C1863 0.961 . S
H1880 C1864 0.931 . S
H1881 C1869 0.930 . S
H1882 C1870 0.956 . S
H1883 C1870 0.961 . S
H1884 C1870 0.961 . S
H1885 C1871 0.958 . S
H1886 C1871 0.961 . S
H1887 C1871 0.960 . S
C353 C6 1.273 . S
C361 C250 1.326 . S
C385 C31 1.276 . S
C393 C180 1.329 . S
C417 C206 1.301 . S
C425 C50 1.311 . S
C449 C224 1.307 . S
C457 C75 1.317 . S
C481 C95 1.273 . S
C489 C290 1.321 . S
C513 C115 1.316 . S
C521 C316 1.314 . S
C545 C334 1.330 . S
C553 C139 1.294 . S
C577 C272 1.306 . S
C585 C159 1.316 . S
C609 C182 1.297 . S
C617 C74 1.315 . S
C641 C4 1.301 . S
C649 C207 1.313 . S
C673 C30 1.304 . S
C681 C226 1.314 . S
C705 C251 1.285 . S
C713 C48 1.319 . S
C737 C271 1.330 . S
C745 C114 1.320 . S
C769 C140 1.305 . S
C777 C291 1.316 . S
C801 C158 1.338 . S
C809 C315 1.307 . S
C833 C96 1.338 . S
C841 C335 1.303 . S
C865 C93 0.976 . S
C873 C9 0.928 . S
C897 C28 0.853 . S
C905 C117 0.914 . S
C929 C137 0.976 . S
C937 C53 0.936 . S
C961 C161 0.883 . S
C969 C72 0.891 . S
C993 C269 0.975 . S
C1001 C185 0.938 . S
C1025 C204 0.914 . S
C1033 C293 0.941 . S
C1057 C229 0.973 . S
C1065 C313 0.939 . S
C1089 C337 0.977 . S
C1097 C248 0.927 . S
C1121 C5 1.677 . S
C1129 C294 1.652 . S
C1153 C312 1.662 . S
C1161 C29 1.670 . S
C1185 C338 1.664 . S
C1193 C49 1.671 . S
C1217 C268 1.661 . S
C1225 C73 1.670 . S
C1249 C97 1.677 . S
C1257 C246 1.650 . S
C1281 C116 1.656 . S
C1289 C184 1.653 . S
C1313 C141 1.653 . S
C1321 C202 1.660 . S
C1345 C228 1.640 . S
C1353 C160 1.667 . S
C1377 C118 1.632 . S
C1385 C181 1.669 . S
C1409 C136 1.668 . S
C1417 C205 1.664 . S
C1441 C225 1.652 . S
C1449 C162 1.659 . S
C1473 C92 1.663 . S
C1481 C249 1.669 . S
C1505 C70 1.631 . S
C1513 C273 1.672 . S
C1537 C292 1.677 . S
C1545 C8 1.650 . S
C1569 C26 1.664 . S
C1577 C317 1.671 . S
C1601 C336 1.663 . S
C1609 C52 1.661 . S
C1633 C163 1.188 . S
C1641 C7 1.209 . S
C1665 C94 1.202 . S
C1673 C27 1.211 . S
C1697 C119 1.250 . S
C1705 C51 1.232 . S
C1729 C138 1.180 . S
C1737 C71 1.205 . S
C1761 C183 1.186 . S
C1769 C339 1.209 . S
C1793 C270 1.209 . S
C1801 C203 1.214 . S
C1825 C295 1.254 . S
C1833 C227 1.235 . S
C1857 C247 1.183 . S
C1865 C314 1.207 . S
