# Generated by pormake.
# Topology crb, (4)-cn, num edge types: 1
# Building blocks:
#     Node 0, Type 0, BuildingBlock: CEKHIL_clean_sbu_0, # of connection points: 4
#     Node 1, Type 0, BuildingBlock: CEKHIL_clean_sbu_0, # of connection points: 4
#     Node 2, Type 0, BuildingBlock: CEKHIL_clean_sbu_0, # of connection points: 4
#     Node 3, Type 0, BuildingBlock: CEKHIL_clean_sbu_0, # of connection points: 4
#     Node 4, Type 0, BuildingBlock: CEKHIL_clean_sbu_0, # of connection points: 4
#     Node 5, Type 0, BuildingBlock: CEKHIL_clean_sbu_0, # of connection points: 4
#     Node 6, Type 0, BuildingBlock: CEKHIL_clean_sbu_0, # of connection points: 4
#     Node 7, Type 0, BuildingBlock: CEKHIL_clean_sbu_0, # of connection points: 4
#     Edge 8, Type (0, 0), BuildingBlock: FUNLAD_clean_linker_0, # of connection points: 2
#     Edge 9, Type (0, 0), BuildingBlock: FUNLAD_clean_linker_0, # of connection points: 2
#     Edge 10, Type (0, 0), BuildingBlock: FUNLAD_clean_linker_0, # of connection points: 2
#     Edge 11, Type (0, 0), BuildingBlock: FUNLAD_clean_linker_0, # of connection points: 2
#     Edge 12, Type (0, 0), BuildingBlock: FUNLAD_clean_linker_0, # of connection points: 2
#     Edge 13, Type (0, 0), BuildingBlock: FUNLAD_clean_linker_0, # of connection points: 2
#     Edge 14, Type (0, 0), BuildingBlock: FUNLAD_clean_linker_0, # of connection points: 2
#     Edge 15, Type (0, 0), BuildingBlock: FUNLAD_clean_linker_0, # of connection points: 2
#     Edge 16, Type (0, 0), BuildingBlock: FUNLAD_clean_linker_0, # of connection points: 2
#     Edge 17, Type (0, 0), BuildingBlock: FUNLAD_clean_linker_0, # of connection points: 2
#     Edge 18, Type (0, 0), BuildingBlock: FUNLAD_clean_linker_0, # of connection points: 2
#     Edge 19, Type (0, 0), BuildingBlock: FUNLAD_clean_linker_0, # of connection points: 2
#     Edge 20, Type (0, 0), BuildingBlock: FUNLAD_clean_linker_0, # of connection points: 2
#     Edge 21, Type (0, 0), BuildingBlock: FUNLAD_clean_linker_0, # of connection points: 2
#     Edge 22, Type (0, 0), BuildingBlock: FUNLAD_clean_linker_0, # of connection points: 2
#     Edge 23, Type (0, 0), BuildingBlock: FUNLAD_clean_linker_0, # of connection points: 2
# Relax obj value: 0.118
# Max RMSD: 0.159
# Mean RMSD: 0.159
data_MOF--net-crb--node1-CEKHIL_clean_sbu_0--edge1-FUNLAD_clean_linker_0
_symmetry_space_group_name_H-M    P1
_symmetry_Int_Tables_number       1
_symmetry_cell_setting            triclinic
loop_
_symmetry_equiv_pos_as_xyz
'x, y, z'
_cell_length_a     50.951023
_cell_length_b     49.967696
_cell_length_c     26.580669
_cell_angle_alpha  90.066223
_cell_angle_beta   90.097975
_cell_angle_gamma 89.979166
loop_
_atom_site_label
_atom_site_type_symbol
_atom_site_fract_x
_atom_site_fract_y
_atom_site_fract_z
_atom_type_partial_charge
Co0 Co 0.33367 0.32902 0.03219 0.0
O1 O 0.30018 0.32508 0.06564 0.0
O2 O 0.33485 0.29936 0.07863 0.0
C3 C 0.33632 0.37383 0.04242 0.0
O4 O 0.37185 0.32727 0.00949 0.0
Co5 Co 0.34268 0.36331 0.93676 0.0
O6 O 0.38035 0.36062 0.95557 0.0
C7 C 0.31396 0.31187 0.92987 0.0
C8 C 0.31086 0.3055 0.09049 0.0
C9 C 0.38804 0.34207 0.98495 0.0
O10 O 0.32136 0.30524 0.97465 0.0
O11 O 0.31852 0.33487 0.91053 0.0
O12 O 0.34321 0.35792 0.0788 0.0
O13 O 0.32688 0.36238 1.00289 0.0
Co14 Co 0.67926 0.33178 0.05092 0.0
O15 O 0.71314 0.32575 0.01983 0.0
O16 O 0.67731 0.30198 1.005 0.0
C17 C 0.67894 0.37661 0.04087 0.0
O18 O 0.64045 0.33247 0.07054 0.0
Co19 Co 0.66986 0.36678 0.14572 0.0
O20 O 0.63326 0.36791 0.12043 0.0
C21 C 0.69262 0.31246 0.15661 0.0
C22 C 0.70182 0.30655 0.99486 0.0
C23 C 0.62489 0.34952 0.09134 0.0
O24 O 0.68908 0.30745 0.10937 0.0
O25 O 0.68746 0.33512 0.17683 0.0
O26 O 0.6724 0.36106 1.00361 0.0
O27 O 0.68704 0.36466 0.08093 0.0
Co28 Co 0.67347 0.66748 0.01743 0.0
O29 O 0.70733 0.66975 0.05042 0.0
O30 O 0.67293 0.69502 0.0683 0.0
C31 C 0.67004 0.6225 0.02023 0.0
O32 O 0.63508 0.67036 0.99584 0.0
Co33 Co 0.66416 0.63781 0.91612 0.0
O34 O 0.62637 0.64229 0.9319 0.0
C35 C 0.69425 0.68825 0.91909 0.0
C36 C 0.69702 0.68834 0.07835 0.0
C37 C 0.61885 0.6585 0.96601 0.0
O38 O 0.68567 0.69351 0.96368 0.0
O39 O 0.69011 0.66601 0.89655 0.0
O40 O 0.66411 0.63677 0.05956 0.0
O41 O 0.67951 0.63556 0.98265 0.0
Co42 Co 0.32785 0.66567 0.04285 0.0
O43 O 0.29267 0.66965 0.01638 0.0
O44 O 0.32716 0.69273 0.99084 0.0
C45 C 0.32815 0.62048 0.04045 0.0
O46 O 0.36732 0.66666 0.05706 0.0
Co47 Co 0.34123 0.63604 0.14186 0.0
O48 O 0.37798 0.63764 0.11813 0.0
C49 C 0.31904 0.6908 0.14599 0.0
C50 C 0.30233 0.68738 0.98586 0.0
C51 C 0.38446 0.65383 0.08336 0.0
O52 O 0.32005 0.69301 0.09762 0.0
O53 O 0.32537 0.66951 0.16979 0.0
O54 O 0.33343 0.6342 1.00021 0.0
O55 O 0.32152 0.63419 0.07956 0.0
Co56 Co 0.82924 0.83021 0.51818 0.0
O57 O 0.79637 0.82488 0.553 0.0
O58 O 0.8312 0.79865 0.55975 0.0
C59 C 0.83221 0.87436 0.5347 0.0
O60 O 0.86715 0.82995 0.49292 0.0
Co61 Co 0.8357 0.86837 0.42694 0.0
O62 O 0.87347 0.86612 0.44448 0.0
C63 C 0.80673 0.8174 0.41569 0.0
C64 C 0.80745 0.8043 0.57402 0.0
C65 C 0.88237 0.84678 0.47064 0.0
O66 O 0.81574 0.80887 0.45821 0.0
O67 O 0.81072 0.84115 0.39938 0.0
O68 O 0.83945 0.85702 0.56843 0.0
O69 O 0.82196 0.86453 0.49437 0.0
Co70 Co 0.17516 0.82914 0.53851 0.0
O71 O 0.20954 0.82556 0.50795 0.0
O72 O 0.17537 0.79971 0.49158 0.0
C73 C 0.17236 0.87403 0.52884 0.0
O74 O 0.13631 0.82683 0.55699 0.0
Co75 Co 0.16232 0.86267 0.63314 0.0
O76 O 0.12564 0.8607 0.60831 0.0
C77 C 0.18874 0.80999 0.64415 0.0
C78 C 0.19951 0.80609 0.48169 0.0
C79 C 0.11914 0.84184 0.57858 0.0
O80 O 0.18608 0.8051 0.59665 0.0
O81 O 0.18177 0.83211 0.66456 0.0
O82 O 0.16686 0.85812 0.49154 0.0
O83 O 0.18064 0.86254 0.56931 0.0
Co84 Co 0.17819 0.16672 0.52823 0.0
O85 O 0.21229 0.17199 0.5595 0.0
O86 O 0.17723 0.19718 0.57259 0.0
C87 C 0.17634 0.12199 0.5406 0.0
O88 O 0.13947 0.16751 0.50828 0.0
Co89 Co 0.16735 0.13114 0.43502 0.0
O90 O 0.13013 0.13354 0.45614 0.0
C91 C 0.19042 0.18511 0.42143 0.0
C92 C 0.20157 0.19196 0.58326 0.0
C93 C 0.12289 0.15249 0.48501 0.0
O94 O 0.18851 0.19011 0.46895 0.0
O95 O 0.18411 0.16266 0.40156 0.0
O96 O 0.17037 0.1384 0.57684 0.0
O97 O 0.18478 0.13296 0.4998 0.0
Co98 Co 0.83024 0.16577 0.55155 0.0
O99 O 0.79511 0.17125 0.52648 0.0
O100 O 0.82943 0.19608 0.5062 0.0
C101 C 0.83106 0.12122 0.538 0.0
O102 O 0.86974 0.16525 0.56632 0.0
Co103 Co 0.84209 0.12931 0.64353 0.0
O104 O 0.87807 0.12973 0.61559 0.0
C105 C 0.81836 0.18284 0.65917 0.0
C106 C 0.80467 0.19069 0.49983 0.0
C107 C 0.88576 0.14825 0.58619 0.0
O108 O 0.82224 0.18908 0.61256 0.0
O109 O 0.82328 0.15957 0.67694 0.0
O110 O 0.83584 0.13768 0.50136 0.0
O111 O 0.824 0.13211 0.57985 0.0
C112 C 0.32431 0.41934 0.01256 0.0
C113 C 0.3396 0.40317 0.04436 0.0
C114 C 0.32701 0.44711 0.01333 0.0
C115 C 0.34538 0.45933 0.04539 0.0
C116 C 0.36115 0.4432 0.07642 0.0
C117 C 0.35801 0.4153 0.0765 0.0
C118 C 0.34833 0.48886 0.04607 0.0
C119 C 0.32726 0.50508 0.04506 0.0
C120 C 0.3292 0.53461 0.04535 0.0
C121 C 0.31186 0.54929 0.07555 0.0
C122 C 0.31209 0.57721 0.0746 0.0
C123 C 0.329 0.59099 0.042 0.0
H124 H 0.35985 0.53737 0.98914 0.0
C125 C 0.34624 0.57636 0.01128 0.0
C126 C 0.3466 0.54832 0.01345 0.0
H127 H 0.35949 0.58658 0.98593 0.0
H128 H 0.31003 0.41053 0.98725 0.0
H129 H 0.31495 0.459 0.98828 0.0
H130 H 0.37557 0.45222 0.10117 0.0
H131 H 0.3702 0.40325 0.10103 0.0
H132 H 0.36789 0.49734 0.04977 0.0
H133 H 0.30771 0.49642 0.04678 0.0
H134 H 0.29813 0.53911 0.10004 0.0
H135 H 0.29852 0.58802 0.09849 0.0
C136 C 0.43481 0.35718 0.97585 0.0
C137 C 0.41666 0.33792 0.99248 0.0
C138 C 0.46158 0.35438 0.9864 0.0
C139 C 0.47086 0.3322 0.01373 0.0
C140 C 0.45293 0.31242 0.02852 0.0
C141 C 0.42609 0.31534 0.01847 0.0
C142 C 0.49908 0.32926 0.0273 0.0
C143 C 0.51444 0.35051 0.0378 0.0
C144 C 0.54244 0.34855 0.05346 0.0
C145 C 0.55331 0.36968 0.08136 0.0
C146 C 0.57981 0.36952 0.09485 0.0
C147 C 0.59631 0.34835 0.08012 0.0
H148 H 0.55124 0.31071 0.01681 0.0
C149 C 0.58543 0.32703 0.0524 0.0
C150 C 0.55876 0.32708 0.03929 0.0
H151 H 0.59759 0.31049 0.04014 0.0
H152 H 0.42831 0.37476 0.95554 0.0
H153 H 0.47494 0.36962 0.97303 0.0
H154 H 0.45959 0.29498 0.04912 0.0
H155 H 0.41272 0.30002 0.03157 0.0
H156 H 0.50672 0.30914 0.03222 0.0
H157 H 0.50578 0.37039 0.03757 0.0
H158 H 0.54127 0.38654 0.09256 0.0
H159 H 0.58745 0.38639 0.11588 0.0
C160 C 0.66272 0.41887 0.99986 0.0
C161 C 0.67452 0.40583 0.04083 0.0
C162 C 0.65839 0.44658 1.00132 0.0
C163 C 0.66598 0.46169 0.04379 0.0
C164 C 0.67742 0.44842 0.08478 0.0
C165 C 0.68172 0.42091 0.08329 0.0
C166 C 0.66262 0.49121 0.04742 0.0
C167 C 0.65987 0.50744 0.00737 0.0
C168 C 0.66047 0.53713 0.01137 0.0
C169 C 0.66892 0.55186 0.96957 0.0
C170 C 0.67162 0.57959 0.97247 0.0
C171 C 0.66568 0.59332 0.01719 0.0
H172 H 0.64606 0.54048 0.0882 0.0
C173 C 0.65621 0.57883 0.05855 0.0
C174 C 0.65353 0.55098 0.05568 0.0
H175 H 0.65117 0.58894 0.09328 0.0
H176 H 0.65669 0.40769 0.96689 0.0
H177 H 0.64886 0.45585 0.96942 0.0
H178 H 0.68337 0.45944 0.11804 0.0
H179 H 0.69078 0.41148 0.11563 0.0
H180 H 0.66486 0.50001 0.08454 0.0
H181 H 0.65982 0.49896 0.96977 0.0
H182 H 0.67416 0.54181 0.93485 0.0
H183 H 0.67877 0.59019 0.93973 0.0
C184 C 0.42133 0.6713 0.02952 0.0
C185 C 0.41284 0.65809 0.07329 0.0
C186 C 0.44817 0.67442 0.0196 0.0
C187 C 0.4671 0.66447 0.05343 0.0
C188 C 0.45857 0.65193 0.09769 0.0
C189 C 0.43183 0.64858 0.10735 0.0
C190 C 0.49584 0.66689 0.04438 0.0
C191 C 0.50662 0.66805 0.99814 0.0
C192 C 0.5355 0.66744 0.98956 0.0
C193 C 0.54513 0.65593 0.94508 0.0
C194 C 0.57214 0.65351 0.93695 0.0
C195 C 0.59024 0.66297 0.97284 0.0
H196 H 0.54688 0.68752 0.05879 0.0
C197 C 0.58059 0.67557 0.01644 0.0
C198 C 0.55354 0.67776 0.02476 0.0
H199 H 0.59392 0.68324 0.04477 0.0
H200 H 0.40725 0.679 1.00259 0.0
H201 H 0.45395 0.68485 0.98573 0.0
H202 H 0.47268 0.64428 0.12463 0.0
H203 H 0.42607 0.6385 0.14166 0.0
H204 H 0.50861 0.66537 0.07702 0.0
H205 H 0.49402 0.66696 0.96522 0.0
H206 H 0.5317 0.64808 0.91706 0.0
H207 H 0.57881 0.6439 0.90274 0.0
C208 C 0.82789 0.92072 0.50169 0.0
C209 C 0.83636 0.90346 0.5401 0.0
C210 C 0.83077 0.94833 0.50643 0.0
C211 C 0.84249 0.95942 0.54963 0.0
C212 C 0.85103 0.94215 0.58806 0.0
C213 C 0.84809 0.91439 0.5833 0.0
C214 C 0.84425 0.98887 0.5572 0.0
C215 C 0.84359 0.00661 0.51898 0.0
C216 C 0.84185 0.03609 0.52597 0.0
C217 C 0.84762 0.05288 0.48506 0.0
C218 C 0.84439 0.08061 0.48889 0.0
C219 C 0.83518 0.09207 0.53373 0.0
H220 H 0.82721 0.03559 0.60291 0.0
C221 C 0.82957 0.07536 0.57478 0.0
C222 C 0.83273 0.0477 0.57095 0.0
H223 H 0.82227 0.08361 0.60978 0.0
H224 H 0.81855 0.91294 0.46807 0.0
H225 H 0.82299 0.9608 0.47671 0.0
H226 H 0.85983 0.95016 0.62202 0.0
H227 H 0.85473 0.90156 0.61357 0.0
H228 H 0.84616 0.99593 0.59565 0.0
H229 H 0.84429 0.9994 0.48048 0.0
H230 H 0.85441 0.0445 0.44979 0.0
H231 H 0.84887 0.093 0.45662 0.0
C232 C 0.07206 0.85658 0.58168 0.0
C233 C 0.09083 0.83725 0.56803 0.0
C234 C 0.0456 0.85313 0.56929 0.0
C235 C 0.0372 0.83019 0.54308 0.0
C236 C 0.05575 0.81043 0.53098 0.0
C237 C 0.08232 0.81402 0.54282 0.0
C238 C 0.00922 0.82641 0.52848 0.0
C239 C 0.99378 0.84713 0.51509 0.0
C240 C 0.96569 0.84466 0.50028 0.0
C241 C 0.95459 0.86501 0.47079 0.0
C242 C 0.92783 0.86497 0.45943 0.0
C243 C 0.91127 0.84471 0.47788 0.0
H244 H 0.95712 0.80808 0.54118 0.0
C245 C 0.92246 0.82391 0.50649 0.0
C246 C 0.9494 0.82384 0.51753 0.0
H247 H 0.91031 0.80806 0.52157 0.0
H248 H 0.07784 0.87466 0.60128 0.0
H249 H 0.03173 0.86841 0.58058 0.0
H250 H 0.04976 0.79244 0.51129 0.0
H251 H 0.0962 0.79864 0.53201 0.0
H252 H 1.00176 0.80609 0.52598 0.0
H253 H 1.00236 0.86701 0.51306 0.0
H254 H 0.96661 0.88133 0.45712 0.0
H255 H 0.92003 0.88139 0.43744 0.0
C256 C 0.17935 0.07624 0.50318 0.0
C257 C 0.17248 0.09269 0.54401 0.0
C258 C 0.17648 0.04849 0.50604 0.0
C259 C 0.1664 0.03645 0.54978 0.0
C260 C 0.1595 0.05295 0.5906 0.0
C261 C 0.16242 0.08079 0.58774 0.0
C262 C 0.16446 0.00682 0.55538 0.0
C263 C 0.16407 0.98957 0.5162 0.0
C264 C 0.16471 0.95986 0.52156 0.0
C265 C 0.15783 0.94384 0.48002 0.0
C266 C 0.15984 0.91591 0.48238 0.0
C267 C 0.16892 0.90341 0.52635 0.0
H268 H 0.17992 0.95859 0.59815 0.0
C269 C 0.17556 0.91935 0.56806 0.0
C270 C 0.17362 0.94721 0.5657 0.0
H271 H 0.1828 0.91034 0.60244 0.0
H272 H 0.18736 0.08477 0.46905 0.0
H273 H 0.18292 0.03667 0.47428 0.0
H274 H 0.15195 0.04427 0.62499 0.0
H275 H 0.15701 0.09293 0.61987 0.0
H276 H 0.16304 0.99918 0.59346 0.0
H277 H 0.16305 0.99734 0.47815 0.0
H278 H 0.15113 0.95298 0.44535 0.0
H279 H 0.15462 0.90417 0.44957 0.0
C280 C 0.92518 0.17117 0.54781 0.0
C281 C 0.91415 0.14933 0.57362 0.0
C282 C 0.95185 0.17107 0.53447 0.0
C283 C 0.96787 0.14896 0.54635 0.0
C284 C 0.95679 0.12728 0.57207 0.0
C285 C 0.93041 0.12751 0.58588 0.0
C286 C 0.9958 0.14689 0.53069 0.0
C287 C 0.0118 0.16799 0.52343 0.0
C288 C 0.04008 0.16453 0.51093 0.0
C289 C 0.05849 0.18309 0.52905 0.0
C290 C 0.08535 0.17941 0.52025 0.0
C291 C 0.09435 0.15726 0.49238 0.0
H292 H 0.0353 0.12861 0.46574 0.0
C293 C 0.07576 0.13927 0.47261 0.0
C294 C 0.04898 0.14286 0.48172 0.0
H295 H 0.08189 0.12212 0.4506 0.0
H296 H 0.9132 0.18823 0.53753 0.0
H297 H 0.95961 0.18792 0.51373 0.0
H298 H 0.96859 0.10994 0.58147 0.0
H299 H 0.92267 0.1102 0.60532 0.0
H300 H 0.00396 0.12683 0.52826 0.0
H301 H 0.00464 0.18811 0.53062 0.0
H302 H 0.05215 0.20011 0.55121 0.0
H303 H 0.09905 0.19381 0.53574 0.0
C304 C 0.22284 0.22084 0.39745 0.0
C305 C 0.20017 0.2059 0.38666 0.0
C306 C 0.23405 0.23726 0.36038 0.0
C307 C 0.22242 0.23927 0.31234 0.0
C308 C 0.19891 0.22557 0.30299 0.0
C309 C 0.18812 0.20878 0.33941 0.0
C310 C 0.23432 0.25492 0.2706 0.0
C311 C 0.26044 0.2569 0.2636 0.0
C312 C 0.27253 0.26936 0.2182 0.0
C313 C 0.298 0.26162 0.20419 0.0
C314 C 0.31014 0.2728 0.16198 0.0
C315 C 0.29719 0.29225 0.13293 0.0
H316 H 0.24017 0.29594 0.19916 0.0
C317 C 0.27171 0.30008 0.14686 0.0
C318 C 0.25951 0.28884 0.18904 0.0
H319 H 0.26131 0.31526 0.12567 0.0
H320 H 0.23252 0.21889 0.43358 0.0
H321 H 0.25187 0.24811 0.36918 0.0
H322 H 0.18939 0.22697 0.2666 0.0
H323 H 0.17055 0.19758 0.33023 0.0
H324 H 0.22104 0.26239 0.24188 0.0
H325 H 0.27355 0.2471 0.29013 0.0
H326 H 0.30856 0.24677 0.22594 0.0
H327 H 0.32986 0.26646 0.15258 0.0
C328 C 0.69832 0.29299 0.24205 0.0
C329 C 0.70406 0.29193 0.19037 0.0
C330 C 0.71194 0.27708 0.27634 0.0
C331 C 0.73171 0.2595 0.25993 0.0
C332 C 0.73686 0.25769 0.208 0.0
C333 C 0.72299 0.27358 0.17339 0.0
C334 C 0.74859 0.24477 0.29657 0.0
C335 C 0.74055 0.2385 0.34348 0.0
C336 C 0.75771 0.22629 0.38261 0.0
C337 C 0.74599 0.21151 0.42144 0.0
C338 C 0.7612 0.2004 0.45991 0.0
C339 C 0.78851 0.20423 0.46104 0.0
H340 H 0.79468 0.24238 0.35552 0.0
C341 C 0.80026 0.21956 0.4229 0.0
C342 C 0.78504 0.23043 0.38395 0.0
H343 H 0.82128 0.22282 0.42266 0.0
H344 H 0.68385 0.30693 0.25638 0.0
H345 H 0.70771 0.27974 0.3159 0.0
H346 H 0.75211 0.24445 0.19428 0.0
H347 H 0.72803 0.27253 0.13387 0.0
H348 H 0.76814 0.23902 0.28443 0.0
H349 H 0.7202 0.24186 0.35379 0.0
H350 H 0.72495 0.20832 0.42178 0.0
H351 H 0.75154 0.18869 0.48872 0.0
C352 C 0.79472 0.77241 0.37824 0.0
C353 C 0.79009 0.8 0.38371 0.0
C354 C 0.78014 0.75736 0.34319 0.0
C355 C 0.76048 0.7697 0.31378 0.0
C356 C 0.75522 0.79694 0.32136 0.0
C357 C 0.76993 0.81191 0.3554 0.0
C358 C 0.74476 0.75545 0.27478 0.0
C359 C 0.75292 0.7336 0.24937 0.0
C360 C 0.73799 0.72189 0.2061 0.0
C361 C 0.75126 0.70558 0.17128 0.0
C362 C 0.73812 0.69486 0.12949 0.0
C363 C 0.71136 0.70025 0.12151 0.0
H364 H 0.69957 0.73822 0.2251 0.0
C365 C 0.69797 0.71625 0.15657 0.0
C366 C 0.71099 0.72671 0.19854 0.0
H367 H 0.67722 0.72036 0.1521 0.0
H368 H 0.8101 0.76273 0.39973 0.0
H369 H 0.78428 0.73622 0.3393 0.0
H370 H 0.74004 0.80696 0.29984 0.0
H371 H 0.76563 0.83306 0.35922 0.0
H372 H 0.72666 0.76517 0.26351 0.0
H373 H 0.77207 0.72518 0.25782 0.0
H374 H 0.77195 0.70129 0.17615 0.0
H375 H 0.74895 0.68239 0.1034 0.0
C376 C 0.2384 0.80309 0.42376 0.0
C377 C 0.21379 0.79345 0.43923 0.0
C378 C 0.25065 0.7927 0.38074 0.0
C379 C 0.23857 0.77223 0.35237 0.0
C380 C 0.21409 0.76251 0.36832 0.0
C381 C 0.20189 0.77291 0.41118 0.0
C382 C 0.2504 0.76061 0.3058 0.0
C383 C 0.27605 0.76238 0.29376 0.0
C384 C 0.28788 0.74729 0.25107 0.0
C385 C 0.31346 0.73735 0.25664 0.0
C386 C 0.32418 0.72026 0.22052 0.0
C387 C 0.30987 0.71335 0.17723 0.0
H388 H 0.25452 0.74955 0.2002 0.0
C389 C 0.28506 0.72487 0.16948 0.0
C390 C 0.27404 0.74161 0.2063 0.0
H391 H 0.27358 0.71965 0.13656 0.0
H392 H 0.24795 0.81916 0.44417 0.0
H393 H 0.26919 0.80127 0.36944 0.0
H394 H 0.20425 0.74682 0.34739 0.0
H395 H 0.18286 0.7651 0.4218 0.0
H396 H 0.23769 0.74835 0.28235 0.0
H397 H 0.28949 0.77258 0.31899 0.0
H398 H 0.32468 0.74162 0.29038 0.0
H399 H 0.34334 0.71155 0.22736 0.0
C400 C 0.19597 0.79099 0.72988 0.0
C401 C 0.20106 0.78988 0.67791 0.0
C402 C 0.20971 0.77478 0.76358 0.0
C403 C 0.22899 0.75687 0.74632 0.0
C404 C 0.23367 0.75521 0.69421 0.0
C405 C 0.21966 0.77136 0.66022 0.0
C406 C 0.24582 0.74152 0.78219 0.0
C407 C 0.23793 0.73484 0.82903 0.0
C408 C 0.25515 0.72204 0.86752 0.0
C409 C 0.24348 0.7074 0.90664 0.0
C410 C 0.25877 0.69622 0.94504 0.0
C411 C 0.28611 0.69983 0.94576 0.0
H412 H 0.29222 0.73745 0.83954 0.0
C413 C 0.29784 0.71473 0.90697 0.0
C414 C 0.28256 0.72567 0.86817 0.0
H415 H 0.31887 0.71787 0.90641 0.0
H416 H 0.18177 0.80502 0.74489 0.0
H417 H 0.20589 0.77732 0.80333 0.0
H418 H 0.24855 0.74174 0.67982 0.0
H419 H 0.22421 0.77018 0.62048 0.0
H420 H 0.26521 0.73559 0.76945 0.0
H421 H 0.21769 0.73846 0.83984 0.0
H422 H 0.2224 0.70455 0.90748 0.0
H423 H 0.2491 0.68487 0.97434 0.0
C424 C 0.27909 0.30265 0.867 0.0
C425 C 0.29923 0.29279 0.89794 0.0
C426 C 0.26708 0.2863 0.83124 0.0
C427 C 0.27539 0.25966 0.82432 0.0
C428 C 0.29457 0.24933 0.85727 0.0
C429 C 0.30637 0.26572 0.89394 0.0
C430 C 0.26441 0.24237 0.78332 0.0
C431 C 0.2523 0.25244 0.74219 0.0
C432 C 0.23998 0.23606 0.70178 0.0
C433 C 0.2184 0.24685 0.67591 0.0
C434 C 0.2062 0.23258 0.63722 0.0
C435 C 0.21566 0.20738 0.62253 0.0
H436 H 0.26663 0.20221 0.70543 0.0
C437 C 0.23769 0.19673 0.64747 0.0
C438 C 0.24966 0.21085 0.68706 0.0
H439 H 0.24537 0.17728 0.63703 0.0
H440 H 0.27282 0.32332 0.86999 0.0
H441 H 0.2514 0.2949 0.80912 0.0
H442 H 0.30104 0.22876 0.85364 0.0
H443 H 0.32185 0.25762 0.91738 0.0
H444 H 0.26659 0.22084 0.78706 0.0
H445 H 0.25033 0.27391 0.7379 0.0
H446 H 0.21068 0.26632 0.68614 0.0
H447 H 0.1893 0.24137 0.61872 0.0
C448 C 0.739 0.30104 0.93357 0.0
C449 C 0.71561 0.29137 0.95494 0.0
C450 C 0.75124 0.2871 0.89421 0.0
C451 C 0.74043 0.26306 0.87594 0.0
C452 C 0.71726 0.25333 0.89782 0.0
C453 C 0.70484 0.26744 0.93644 0.0
C454 C 0.75363 0.24649 0.83698 0.0
C455 C 0.76932 0.25621 0.80043 0.0
C456 C 0.78287 0.2381 0.76423 0.0
C457 C 0.78697 0.24594 0.71402 0.0
C458 C 0.79884 0.22836 0.6795 0.0
C459 C 0.80715 0.20277 0.69491 0.0
H460 H 0.79014 0.20659 0.81858 0.0
C461 C 0.80392 0.19559 0.74578 0.0
C462 C 0.79203 0.21295 0.77982 0.0
H463 H 0.81036 0.1763 0.75962 0.0
H464 H 0.74772 0.3195 0.94694 0.0
H465 H 0.76942 0.29485 0.87905 0.0
H466 H 0.70866 0.23472 0.88486 0.0
H467 H 0.68686 0.25945 0.95208 0.0
H468 H 0.74948 0.22515 0.8377 0.0
H469 H 0.77158 0.27768 0.79582 0.0
H470 H 0.78041 0.26541 0.70122 0.0
H471 H 0.80113 0.23464 0.64077 0.0
C472 C 0.73295 0.69937 0.86724 0.0
C473 C 0.70999 0.70804 0.89128 0.0
C474 C 0.7457 0.7157 0.83256 0.0
C475 C 0.73532 0.74093 0.81987 0.0
C476 C 0.71332 0.75036 0.84662 0.0
C477 C 0.70073 0.73404 0.88218 0.0
C478 C 0.74657 0.75737 0.77825 0.0
C479 C 0.76054 0.74658 0.74007 0.0
C480 C 0.77194 0.76207 0.69764 0.0
C481 C 0.79399 0.75157 0.67284 0.0
C482 C 0.80529 0.7651 0.63232 0.0
C483 C 0.79448 0.78923 0.61497 0.0
H484 H 0.74347 0.79444 0.69722 0.0
C485 C 0.77202 0.79949 0.63893 0.0
C486 C 0.76089 0.78611 0.68001 0.0
H487 H 0.76324 0.81809 0.62645 0.0
H488 H 0.74065 0.67949 0.87423 0.0
H489 H 0.76339 0.70812 0.81525 0.0
H490 H 0.70517 0.7699 0.8384 0.0
H491 H 0.68296 0.7411 0.90017 0.0
H492 H 0.74251 0.7787 0.77846 0.0
H493 H 0.7643 0.72522 0.73953 0.0
H494 H 0.80275 0.73295 0.68528 0.0
H495 H 0.82257 0.75665 0.61468 0.0
loop_
_geom_bond_atom_site_label_1
_geom_bond_atom_site_label_2
_geom_bond_distance
_geom_bond_site_symmetry_2
_ccdc_geom_bond_type
Co0 O1 2.216 . S
Co0 O2 2.091 . S
Co0 O4 2.004 . S
Co0 O10 2.021 . S
Co0 O12 2.137 . S
Co0 O13 2.244 . S
O1 Co0 2.216 . S
O1 C8 1.247 . S
O2 Co0 2.091 . S
O2 C8 1.261 . S
C3 O12 1.247 . S
C3 O13 1.272 . S
O4 Co0 2.004 . S
O4 C9 1.259 . S
Co5 O6 2.061 . S
Co5 O11 2.052 . S
Co5 O13 2.135 1_556 S
O6 Co5 2.061 . S
O6 C9 1.235 1_556 S
C7 O10 1.238 1_556 S
C7 O11 1.241 . S
C8 O1 1.247 . S
C8 O2 1.261 . S
C9 O4 1.259 . S
C9 O6 1.235 1_554 S
O10 Co0 2.021 . S
O10 C7 1.238 1_554 S
O11 Co5 2.052 . S
O11 C7 1.241 . S
O12 Co0 2.137 . S
O12 C3 1.247 . S
O13 Co0 2.244 . S
O13 C3 1.272 . S
O13 Co5 2.135 1_554 S
Co14 O15 2.216 . S
Co14 O16 2.091 . S
Co14 O18 2.004 1_556 S
Co14 O24 2.021 1_556 S
Co14 O26 2.137 . S
Co14 O27 2.244 1_556 S
O15 Co14 2.216 . S
O15 C22 1.247 . S
O16 Co14 2.091 . S
O16 C22 1.261 . S
C17 O26 1.247 1_554 S
C17 O27 1.272 . S
O18 Co14 2.004 1_554 S
O18 C23 1.259 . S
Co19 O20 2.061 . S
Co19 O25 2.052 . S
Co19 O27 2.135 . S
O20 Co19 2.061 . S
O20 C23 1.235 . S
C21 O24 1.238 . S
C21 O25 1.241 . S
C22 O15 1.247 . S
C22 O16 1.261 . S
C23 O18 1.259 . S
C23 O20 1.235 . S
O24 Co14 2.021 1_554 S
O24 C21 1.238 . S
O25 Co19 2.052 . S
O25 C21 1.241 . S
O26 Co14 2.137 . S
O26 C17 1.247 1_556 S
O27 Co14 2.244 1_554 S
O27 C17 1.272 . S
O27 Co19 2.135 . S
Co28 O29 2.216 . S
Co28 O30 2.091 . S
Co28 O32 2.004 . S
Co28 O38 2.021 . S
Co28 O40 2.137 . S
Co28 O41 2.244 . S
O29 Co28 2.216 . S
O29 C36 1.247 . S
O30 Co28 2.091 . S
O30 C36 1.261 . S
C31 O40 1.247 . S
C31 O41 1.272 . S
O32 Co28 2.004 . S
O32 C37 1.259 . S
Co33 O34 2.061 . S
Co33 O39 2.052 . S
Co33 O41 2.135 1_556 S
O34 Co33 2.061 . S
O34 C37 1.235 1_556 S
C35 O38 1.238 1_556 S
C35 O39 1.241 . S
C36 O29 1.247 . S
C36 O30 1.261 . S
C37 O32 1.259 . S
C37 O34 1.235 1_554 S
O38 Co28 2.021 . S
O38 C35 1.238 1_554 S
O39 Co33 2.052 . S
O39 C35 1.241 . S
O40 Co28 2.137 . S
O40 C31 1.247 . S
O41 Co28 2.244 . S
O41 C31 1.272 . S
O41 Co33 2.135 1_554 S
Co42 O43 2.216 . S
Co42 O44 2.091 . S
Co42 O46 2.004 1_556 S
Co42 O52 2.021 1_556 S
Co42 O54 2.137 . S
Co42 O55 2.244 1_556 S
O43 Co42 2.216 . S
O43 C50 1.247 . S
O44 Co42 2.091 . S
O44 C50 1.261 . S
C45 O54 1.247 1_554 S
C45 O55 1.272 . S
O46 Co42 2.004 1_554 S
O46 C51 1.259 . S
Co47 O48 2.061 . S
Co47 O53 2.052 . S
Co47 O55 2.135 . S
O48 Co47 2.061 . S
O48 C51 1.235 . S
C49 O52 1.238 . S
C49 O53 1.241 . S
C50 O43 1.247 . S
C50 O44 1.261 . S
C51 O46 1.259 . S
C51 O48 1.235 . S
O52 Co42 2.021 1_554 S
O52 C49 1.238 . S
O53 Co47 2.052 . S
O53 C49 1.241 . S
O54 Co42 2.137 . S
O54 C45 1.247 1_556 S
O55 Co42 2.244 1_554 S
O55 C45 1.272 . S
O55 Co47 2.135 . S
Co56 O57 2.216 . S
Co56 O58 2.091 . S
Co56 O60 2.004 . S
Co56 O66 2.021 . S
Co56 O68 2.137 . S
Co56 O69 2.244 . S
O57 Co56 2.216 . S
O57 C64 1.247 . S
O58 Co56 2.091 . S
O58 C64 1.261 . S
C59 O68 1.247 . S
C59 O69 1.272 . S
O60 Co56 2.004 . S
O60 C65 1.259 . S
Co61 O62 2.061 . S
Co61 O67 2.052 . S
Co61 O69 2.135 . S
O62 Co61 2.061 . S
O62 C65 1.235 . S
C63 O66 1.238 . S
C63 O67 1.241 . S
C64 O57 1.247 . S
C64 O58 1.261 . S
C65 O60 1.259 . S
C65 O62 1.235 . S
O66 Co56 2.021 . S
O66 C63 1.238 . S
O67 Co61 2.052 . S
O67 C63 1.241 . S
O68 Co56 2.137 . S
O68 C59 1.247 . S
O69 Co56 2.244 . S
O69 C59 1.272 . S
O69 Co61 2.135 . S
Co70 O71 2.216 . S
Co70 O72 2.091 . S
Co70 O74 2.004 . S
Co70 O80 2.021 . S
Co70 O82 2.137 . S
Co70 O83 2.244 . S
O71 Co70 2.216 . S
O71 C78 1.247 . S
O72 Co70 2.091 . S
O72 C78 1.261 . S
C73 O82 1.247 . S
C73 O83 1.272 . S
O74 Co70 2.004 . S
O74 C79 1.259 . S
Co75 O76 2.061 . S
Co75 O81 2.052 . S
Co75 O83 2.135 . S
O76 Co75 2.061 . S
O76 C79 1.235 . S
C77 O80 1.238 . S
C77 O81 1.241 . S
C78 O71 1.247 . S
C78 O72 1.261 . S
C79 O74 1.259 . S
C79 O76 1.235 . S
O80 Co70 2.021 . S
O80 C77 1.238 . S
O81 Co75 2.052 . S
O81 C77 1.241 . S
O82 Co70 2.137 . S
O82 C73 1.247 . S
O83 Co70 2.244 . S
O83 C73 1.272 . S
O83 Co75 2.135 . S
Co84 O85 2.216 . S
Co84 O86 2.091 . S
Co84 O88 2.004 . S
Co84 O94 2.021 . S
Co84 O96 2.137 . S
Co84 O97 2.244 . S
O85 Co84 2.216 . S
O85 C92 1.247 . S
O86 Co84 2.091 . S
O86 C92 1.261 . S
C87 O96 1.247 . S
C87 O97 1.272 . S
O88 Co84 2.004 . S
O88 C93 1.259 . S
Co89 O90 2.061 . S
Co89 O95 2.052 . S
Co89 O97 2.135 . S
O90 Co89 2.061 . S
O90 C93 1.235 . S
C91 O94 1.238 . S
C91 O95 1.241 . S
C92 O85 1.247 . S
C92 O86 1.261 . S
C93 O88 1.259 . S
C93 O90 1.235 . S
O94 Co84 2.021 . S
O94 C91 1.238 . S
O95 Co89 2.052 . S
O95 C91 1.241 . S
O96 Co84 2.137 . S
O96 C87 1.247 . S
O97 Co84 2.244 . S
O97 C87 1.272 . S
O97 Co89 2.135 . S
Co98 O99 2.216 . S
Co98 O100 2.091 . S
Co98 O102 2.004 . S
Co98 O108 2.021 . S
Co98 O110 2.137 . S
Co98 O111 2.244 . S
O99 Co98 2.216 . S
O99 C106 1.247 . S
O100 Co98 2.091 . S
O100 C106 1.261 . S
C101 O110 1.247 . S
C101 O111 1.272 . S
O102 Co98 2.004 . S
O102 C107 1.259 . S
Co103 O104 2.061 . S
Co103 O109 2.052 . S
Co103 O111 2.135 . S
O104 Co103 2.061 . S
O104 C107 1.235 . S
C105 O108 1.238 . S
C105 O109 1.241 . S
C106 O99 1.247 . S
C106 O100 1.261 . S
C107 O102 1.259 . S
C107 O104 1.235 . S
O108 Co98 2.021 . S
O108 C105 1.238 . S
O109 Co103 2.052 . S
O109 C105 1.241 . S
O110 Co98 2.137 . S
O110 C101 1.247 . S
O111 Co98 2.244 . S
O111 C101 1.272 . S
O111 Co103 2.135 . S
C112 C113 1.386 . S
C112 C114 1.383 . S
C112 H128 0.951 . S
C113 C112 1.386 . S
C113 C117 1.383 . S
C114 C112 1.383 . S
C114 C115 1.402 . S
C114 H129 0.951 . S
C115 C114 1.402 . S
C115 C116 1.375 . S
C115 C118 1.481 . S
C116 C115 1.375 . S
C116 C117 1.367 . S
C116 H130 0.951 . S
C117 C113 1.383 . S
C117 C116 1.367 . S
C117 H131 0.950 . S
C118 C115 1.481 . S
C118 C119 1.297 . S
C118 H132 0.950 . S
C119 C118 1.297 . S
C119 C120 1.479 . S
C119 H133 0.950 . S
C120 C119 1.479 . S
C120 C121 1.375 . S
C120 C126 1.404 . S
C121 C120 1.375 . S
C121 C122 1.369 . S
C121 H134 0.950 . S
C122 C121 1.369 . S
C122 C123 1.392 . S
C122 H135 0.951 . S
C123 C122 1.392 . S
C123 C125 1.384 . S
H124 C126 0.949 . S
C125 C123 1.384 . S
C125 C126 1.385 . S
C125 H127 0.950 . S
C126 C120 1.404 . S
C126 H124 0.949 . S
C126 C125 1.385 . S
H127 C125 0.950 . S
H128 C112 0.951 . S
H129 C114 0.951 . S
H130 C116 0.951 . S
H131 C117 0.950 . S
H132 C118 0.950 . S
H133 C119 0.950 . S
H134 C121 0.950 . S
H135 C122 0.951 . S
C136 C137 1.386 . S
C136 C138 1.383 . S
C136 H152 0.951 1_554 S
C137 C136 1.386 . S
C137 C141 1.383 . S
C138 C136 1.383 . S
C138 C139 1.402 . S
C138 H153 0.958 . S
C139 C138 1.402 . S
C139 C140 1.375 . S
C139 C142 1.481 . S
C140 C139 1.375 . S
C140 C141 1.367 . S
C140 H154 0.951 . S
C141 C137 1.383 . S
C141 C140 1.367 . S
C141 H155 0.950 . S
C142 C139 1.481 . S
C142 C143 1.297 . S
C142 H156 0.950 . S
C143 C142 1.297 . S
C143 C144 1.479 . S
C143 H157 0.950 . S
C144 C143 1.479 . S
C144 C145 1.375 . S
C144 C150 1.404 . S
C145 C144 1.375 . S
C145 C146 1.369 . S
C145 H158 0.950 . S
C146 C145 1.369 . S
C146 C147 1.392 . S
C146 H159 0.951 . S
C147 C146 1.392 . S
C147 C149 1.384 . S
H148 C150 0.949 . S
C149 C147 1.384 . S
C149 C150 1.385 . S
C149 H151 0.950 . S
C150 C144 1.404 . S
C150 H148 0.949 . S
C150 C149 1.385 . S
H151 C149 0.950 . S
H152 C136 0.951 1_556 S
H153 C138 0.958 . S
H154 C140 0.951 . S
H155 C141 0.950 . S
H156 C142 0.950 . S
H157 C143 0.950 . S
H158 C145 0.950 . S
H159 C146 0.951 . S
C160 C161 1.386 1_556 S
C160 C162 1.383 . S
C160 H176 0.951 . S
C161 C160 1.386 1_554 S
C161 C165 1.383 . S
C162 C160 1.383 . S
C162 C163 1.402 1_556 S
C162 H177 0.951 . S
C163 C162 1.402 1_554 S
C163 C164 1.375 . S
C163 C166 1.481 . S
C164 C163 1.375 . S
C164 C165 1.367 . S
C164 H178 0.951 . S
C165 C161 1.383 . S
C165 C164 1.367 . S
C165 H179 0.950 . S
C166 C163 1.481 . S
C166 C167 1.297 . S
C166 H180 0.950 . S
C167 C166 1.297 . S
C167 C168 1.479 . S
C167 H181 0.950 1_554 S
C168 C167 1.479 . S
C168 C169 1.375 1_554 S
C168 C174 1.404 . S
C169 C168 1.375 1_556 S
C169 C170 1.369 . S
C169 H182 0.950 . S
C170 C169 1.369 . S
C170 C171 1.392 1_556 S
C170 H183 0.951 . S
C171 C170 1.392 1_554 S
C171 C173 1.384 . S
H172 C174 0.949 . S
C173 C171 1.384 . S
C173 C174 1.385 . S
C173 H175 0.950 . S
C174 C168 1.404 . S
C174 H172 0.949 . S
C174 C173 1.385 . S
H175 C173 0.950 . S
H176 C160 0.951 . S
H177 C162 0.951 . S
H178 C164 0.951 . S
H179 C165 0.950 . S
H180 C166 0.950 . S
H181 C167 0.950 1_556 S
H182 C169 0.950 . S
H183 C170 0.951 . S
C184 C185 1.386 . S
C184 C186 1.383 . S
C184 H200 0.951 1_554 S
C185 C184 1.386 . S
C185 C189 1.383 . S
C186 C184 1.383 . S
C186 C187 1.402 . S
C186 H201 0.951 1_554 S
C187 C186 1.402 . S
C187 C188 1.375 . S
C187 C190 1.481 . S
C188 C187 1.375 . S
C188 C189 1.367 . S
C188 H202 0.951 . S
C189 C185 1.383 . S
C189 C188 1.367 . S
C189 H203 0.950 . S
C190 C187 1.481 . S
C190 C191 1.295 1_554 S
C190 H204 0.950 . S
C191 C190 1.295 1_556 S
C191 C192 1.479 . S
C191 H205 0.953 . S
C192 C191 1.479 . S
C192 C193 1.375 . S
C192 C198 1.404 1_556 S
C193 C192 1.375 . S
C193 C194 1.369 . S
C193 H206 0.950 . S
C194 C193 1.369 . S
C194 C195 1.392 1_556 S
C194 H207 0.951 . S
C195 C194 1.392 1_554 S
C195 C197 1.384 . S
H196 C198 0.949 . S
C197 C195 1.384 . S
C197 C198 1.385 . S
C197 H199 0.950 . S
C198 C192 1.404 1_554 S
C198 H196 0.949 . S
C198 C197 1.385 . S
H199 C197 0.950 . S
H200 C184 0.951 1_556 S
H201 C186 0.951 1_556 S
H202 C188 0.951 . S
H203 C189 0.950 . S
H204 C190 0.950 . S
H205 C191 0.953 . S
H206 C193 0.950 . S
H207 C194 0.951 . S
C208 C209 1.386 . S
C208 C210 1.383 . S
C208 H224 0.951 . S
C209 C208 1.386 . S
C209 C213 1.383 . S
C210 C208 1.383 . S
C210 C211 1.402 . S
C210 H225 0.951 . S
C211 C210 1.402 . S
C211 C212 1.375 . S
C211 C214 1.481 . S
C212 C211 1.375 . S
C212 C213 1.367 . S
C212 H226 0.951 . S
C213 C209 1.383 . S
C213 C212 1.367 . S
C213 H227 0.950 . S
C214 C211 1.481 . S
C214 C215 1.297 1_565 S
C214 H228 0.948 1_565 S
C215 C214 1.297 1_545 S
C215 C216 1.479 . S
C215 H229 0.950 . S
C216 C215 1.479 . S
C216 C217 1.375 . S
C216 C222 1.404 . S
C217 C216 1.375 . S
C217 C218 1.369 . S
C217 H230 0.950 . S
C218 C217 1.369 . S
C218 C219 1.392 . S
C218 H231 0.951 . S
C219 C218 1.392 . S
C219 C221 1.384 . S
H220 C222 0.949 . S
C221 C219 1.384 . S
C221 C222 1.385 . S
C221 H223 0.950 . S
C222 C216 1.404 . S
C222 H220 0.949 . S
C222 C221 1.385 . S
H223 C221 0.950 . S
H224 C208 0.951 . S
H225 C210 0.951 . S
H226 C212 0.951 . S
H227 C213 0.950 . S
H228 C214 0.948 1_545 S
H229 C215 0.950 . S
H230 C217 0.950 . S
H231 C218 0.951 . S
C232 C233 1.386 . S
C232 C234 1.383 . S
C232 H248 0.951 . S
C233 C232 1.386 . S
C233 C237 1.383 . S
C234 C232 1.383 . S
C234 C235 1.402 . S
C234 H249 0.951 . S
C235 C234 1.402 . S
C235 C236 1.375 . S
C235 C238 1.481 . S
C236 C235 1.375 . S
C236 C237 1.367 . S
C236 H250 0.951 . S
C237 C233 1.383 . S
C237 C236 1.367 . S
C237 H251 0.950 . S
C238 C235 1.481 . S
C238 C239 1.297 1_455 S
C238 H252 0.950 . S
C239 C238 1.297 1_655 S
C239 C240 1.479 . S
C239 H253 0.950 . S
C240 C239 1.479 . S
C240 C241 1.375 . S
C240 C246 1.404 . S
C241 C240 1.375 . S
C241 C242 1.369 . S
C241 H254 0.950 . S
C242 C241 1.369 . S
C242 C243 1.392 . S
C242 H255 0.951 . S
C243 C242 1.392 . S
C243 C245 1.384 . S
H244 C246 0.949 . S
C245 C243 1.384 . S
C245 C246 1.385 . S
C245 H247 0.950 . S
C246 C240 1.404 . S
C246 H244 0.949 . S
C246 C245 1.385 . S
H247 C245 0.950 . S
H248 C232 0.951 . S
H249 C234 0.951 . S
H250 C236 0.951 . S
H251 C237 0.950 . S
H252 C238 0.950 . S
H253 C239 0.950 . S
H254 C241 0.950 . S
H255 C242 0.951 . S
C256 C257 1.386 . S
C256 C258 1.383 . S
C256 H272 0.951 . S
C257 C256 1.386 . S
C257 C261 1.383 . S
C258 C256 1.383 . S
C258 C259 1.402 . S
C258 H273 0.951 . S
C259 C258 1.402 . S
C259 C260 1.375 . S
C259 C262 1.481 . S
C260 C259 1.375 . S
C260 C261 1.367 . S
C260 H274 0.951 . S
C261 C257 1.383 . S
C261 C260 1.367 . S
C261 H275 0.950 . S
C262 C259 1.481 . S
C262 C263 1.297 1_545 S
C262 H276 0.950 1_545 S
C263 C262 1.297 1_565 S
C263 C264 1.479 . S
C263 H277 0.965 . S
C264 C263 1.479 . S
C264 C265 1.375 . S
C264 C270 1.404 . S
C265 C264 1.375 . S
C265 C266 1.369 . S
C265 H278 0.950 . S
C266 C265 1.369 . S
C266 C267 1.392 . S
C266 H279 0.951 . S
C267 C266 1.392 . S
C267 C269 1.384 . S
H268 C270 0.949 . S
C269 C267 1.384 . S
C269 C270 1.385 . S
C269 H271 0.950 . S
C270 C264 1.404 . S
C270 H268 0.949 . S
C270 C269 1.385 . S
H271 C269 0.950 . S
H272 C256 0.951 . S
H273 C258 0.951 . S
H274 C260 0.951 . S
H275 C261 0.950 . S
H276 C262 0.950 1_565 S
H277 C263 0.965 . S
H278 C265 0.950 . S
H279 C266 0.951 . S
C280 C281 1.386 . S
C280 C282 1.383 . S
C280 H296 0.951 . S
C281 C280 1.386 . S
C281 C285 1.383 . S
C282 C280 1.383 . S
C282 C283 1.402 . S
C282 H297 0.951 . S
C283 C282 1.402 . S
C283 C284 1.375 . S
C283 C286 1.481 . S
C284 C283 1.375 . S
C284 C285 1.367 . S
C284 H298 0.951 . S
C285 C281 1.383 . S
C285 C284 1.367 . S
C285 H299 0.950 . S
C286 C283 1.481 . S
C286 C287 1.297 1_655 S
C286 H300 0.950 . S
C287 C286 1.297 1_455 S
C287 C288 1.479 . S
C287 H301 0.950 . S
C288 C287 1.479 . S
C288 C289 1.375 . S
C288 C294 1.404 . S
C289 C288 1.375 . S
C289 C290 1.369 . S
C289 H302 0.950 . S
C290 C289 1.369 . S
C290 C291 1.392 . S
C290 H303 0.951 . S
C291 C290 1.392 . S
C291 C293 1.384 . S
H292 C294 0.949 . S
C293 C291 1.384 . S
C293 C294 1.385 . S
C293 H295 0.950 . S
C294 C288 1.404 . S
C294 H292 0.949 . S
C294 C293 1.385 . S
H295 C293 0.950 . S
H296 C280 0.951 . S
H297 C282 0.951 . S
H298 C284 0.951 . S
H299 C285 0.950 . S
H300 C286 0.950 . S
H301 C287 0.950 . S
H302 C289 0.950 . S
H303 C290 0.951 . S
C304 C305 1.386 . S
C304 C306 1.383 . S
C304 H320 0.951 . S
C305 C304 1.386 . S
C305 C309 1.383 . S
C306 C304 1.383 . S
C306 C307 1.402 . S
C306 H321 0.951 . S
C307 C306 1.402 . S
C307 C308 1.375 . S
C307 C310 1.481 . S
C308 C307 1.375 . S
C308 C309 1.367 . S
C308 H322 0.951 . S
C309 C305 1.383 . S
C309 C308 1.367 . S
C309 H323 0.950 . S
C310 C307 1.481 . S
C310 C311 1.297 . S
C310 H324 0.950 . S
C311 C310 1.297 . S
C311 C312 1.479 . S
C311 H325 0.950 . S
C312 C311 1.479 . S
C312 C313 1.375 . S
C312 C318 1.404 . S
C313 C312 1.375 . S
C313 C314 1.369 . S
C313 H326 0.950 . S
C314 C313 1.369 . S
C314 C315 1.392 . S
C314 H327 0.951 . S
C315 C314 1.392 . S
C315 C317 1.384 . S
H316 C318 0.949 . S
C317 C315 1.384 . S
C317 C318 1.385 . S
C317 H319 0.950 . S
C318 C312 1.404 . S
C318 H316 0.949 . S
C318 C317 1.385 . S
H319 C317 0.950 . S
H320 C304 0.951 . S
H321 C306 0.951 . S
H322 C308 0.951 . S
H323 C309 0.950 . S
H324 C310 0.950 . S
H325 C311 0.950 . S
H326 C313 0.950 . S
H327 C314 0.951 . S
C328 C329 1.386 . S
C328 C330 1.383 . S
C328 H344 0.951 . S
C329 C328 1.386 . S
C329 C333 1.383 . S
C330 C328 1.383 . S
C330 C331 1.402 . S
C330 H345 0.951 . S
C331 C330 1.402 . S
C331 C332 1.375 . S
C331 C334 1.481 . S
C332 C331 1.375 . S
C332 C333 1.367 . S
C332 H346 0.951 . S
C333 C329 1.383 . S
C333 C332 1.367 . S
C333 H347 0.950 . S
C334 C331 1.481 . S
C334 C335 1.297 . S
C334 H348 0.950 . S
C335 C334 1.297 . S
C335 C336 1.479 . S
C335 H349 0.950 . S
C336 C335 1.479 . S
C336 C337 1.375 . S
C336 C342 1.404 . S
C337 C336 1.375 . S
C337 C338 1.369 . S
C337 H350 0.950 . S
C338 C337 1.369 . S
C338 C339 1.392 . S
C338 H351 0.951 . S
C339 C338 1.392 . S
C339 C341 1.384 . S
H340 C342 0.949 . S
C341 C339 1.384 . S
C341 C342 1.385 . S
C341 H343 0.950 . S
C342 C336 1.404 . S
C342 H340 0.949 . S
C342 C341 1.385 . S
H343 C341 0.950 . S
H344 C328 0.951 . S
H345 C330 0.951 . S
H346 C332 0.951 . S
H347 C333 0.950 . S
H348 C334 0.950 . S
H349 C335 0.950 . S
H350 C337 0.950 . S
H351 C338 0.951 . S
C352 C353 1.386 . S
C352 C354 1.383 . S
C352 H368 0.951 . S
C353 C352 1.386 . S
C353 C357 1.383 . S
C354 C352 1.383 . S
C354 C355 1.402 . S
C354 H369 0.951 . S
C355 C354 1.402 . S
C355 C356 1.375 . S
C355 C358 1.481 . S
C356 C355 1.375 . S
C356 C357 1.367 . S
C356 H370 0.951 . S
C357 C353 1.383 . S
C357 C356 1.367 . S
C357 H371 0.950 . S
C358 C355 1.481 . S
C358 C359 1.297 . S
C358 H372 0.950 . S
C359 C358 1.297 . S
C359 C360 1.479 . S
C359 H373 0.950 . S
C360 C359 1.479 . S
C360 C361 1.375 . S
C360 C366 1.404 . S
C361 C360 1.375 . S
C361 C362 1.369 . S
C361 H374 0.950 . S
C362 C361 1.369 . S
C362 C363 1.392 . S
C362 H375 0.951 . S
C363 C362 1.392 . S
C363 C365 1.384 . S
H364 C366 0.949 . S
C365 C363 1.384 . S
C365 C366 1.385 . S
C365 H367 0.950 . S
C366 C360 1.404 . S
C366 H364 0.949 . S
C366 C365 1.385 . S
H367 C365 0.950 . S
H368 C352 0.951 . S
H369 C354 0.951 . S
H370 C356 0.951 . S
H371 C357 0.950 . S
H372 C358 0.950 . S
H373 C359 0.950 . S
H374 C361 0.950 . S
H375 C362 0.951 . S
C376 C377 1.386 . S
C376 C378 1.383 . S
C376 H392 0.951 . S
C377 C376 1.386 . S
C377 C381 1.383 . S
C378 C376 1.383 . S
C378 C379 1.402 . S
C378 H393 0.951 . S
C379 C378 1.402 . S
C379 C380 1.375 . S
C379 C382 1.481 . S
C380 C379 1.375 . S
C380 C381 1.367 . S
C380 H394 0.951 . S
C381 C377 1.383 . S
C381 C380 1.367 . S
C381 H395 0.950 . S
C382 C379 1.481 . S
C382 C383 1.297 . S
C382 H396 0.950 . S
C383 C382 1.297 . S
C383 C384 1.479 . S
C383 H397 0.950 . S
C384 C383 1.479 . S
C384 C385 1.375 . S
C384 C390 1.404 . S
C385 C384 1.375 . S
C385 C386 1.369 . S
C385 H398 0.950 . S
C386 C385 1.369 . S
C386 C387 1.392 . S
C386 H399 0.951 . S
C387 C386 1.392 . S
C387 C389 1.384 . S
H388 C390 0.949 . S
C389 C387 1.384 . S
C389 C390 1.385 . S
C389 H391 0.950 . S
C390 C384 1.404 . S
C390 H388 0.949 . S
C390 C389 1.385 . S
H391 C389 0.950 . S
H392 C376 0.951 . S
H393 C378 0.951 . S
H394 C380 0.951 . S
H395 C381 0.950 . S
H396 C382 0.950 . S
H397 C383 0.950 . S
H398 C385 0.950 . S
H399 C386 0.951 . S
C400 C401 1.386 . S
C400 C402 1.383 . S
C400 H416 0.951 . S
C401 C400 1.386 . S
C401 C405 1.383 . S
C402 C400 1.383 . S
C402 C403 1.402 . S
C402 H417 0.951 . S
C403 C402 1.402 . S
C403 C404 1.375 . S
C403 C406 1.481 . S
C404 C403 1.375 . S
C404 C405 1.367 . S
C404 H418 0.951 . S
C405 C401 1.383 . S
C405 C404 1.367 . S
C405 H419 0.950 . S
C406 C403 1.481 . S
C406 C407 1.297 . S
C406 H420 0.950 . S
C407 C406 1.297 . S
C407 C408 1.479 . S
C407 H421 0.950 . S
C408 C407 1.479 . S
C408 C409 1.375 . S
C408 C414 1.404 . S
C409 C408 1.375 . S
C409 C410 1.369 . S
C409 H422 0.950 . S
C410 C409 1.369 . S
C410 C411 1.392 . S
C410 H423 0.951 . S
C411 C410 1.392 . S
C411 C413 1.384 . S
H412 C414 0.949 . S
C413 C411 1.384 . S
C413 C414 1.385 . S
C413 H415 0.950 . S
C414 C408 1.404 . S
C414 H412 0.949 . S
C414 C413 1.385 . S
H415 C413 0.950 . S
H416 C400 0.951 . S
H417 C402 0.951 . S
H418 C404 0.951 . S
H419 C405 0.950 . S
H420 C406 0.950 . S
H421 C407 0.950 . S
H422 C409 0.950 . S
H423 C410 0.951 . S
C424 C425 1.386 . S
C424 C426 1.383 . S
C424 H440 0.951 . S
C425 C424 1.386 . S
C425 C429 1.383 . S
C426 C424 1.383 . S
C426 C427 1.402 . S
C426 H441 0.951 . S
C427 C426 1.402 . S
C427 C428 1.375 . S
C427 C430 1.481 . S
C428 C427 1.375 . S
C428 C429 1.367 . S
C428 H442 0.951 . S
C429 C425 1.383 . S
C429 C428 1.367 . S
C429 H443 0.950 . S
C430 C427 1.481 . S
C430 C431 1.297 . S
C430 H444 0.950 . S
C431 C430 1.297 . S
C431 C432 1.479 . S
C431 H445 0.950 . S
C432 C431 1.479 . S
C432 C433 1.375 . S
C432 C438 1.404 . S
C433 C432 1.375 . S
C433 C434 1.369 . S
C433 H446 0.950 . S
C434 C433 1.369 . S
C434 C435 1.392 . S
C434 H447 0.951 . S
C435 C434 1.392 . S
C435 C437 1.384 . S
H436 C438 0.949 . S
C437 C435 1.384 . S
C437 C438 1.385 . S
C437 H439 0.950 . S
C438 C432 1.404 . S
C438 H436 0.949 . S
C438 C437 1.385 . S
H439 C437 0.950 . S
H440 C424 0.951 . S
H441 C426 0.951 . S
H442 C428 0.951 . S
H443 C429 0.950 . S
H444 C430 0.950 . S
H445 C431 0.950 . S
H446 C433 0.950 . S
H447 C434 0.951 . S
C448 C449 1.386 . S
C448 C450 1.383 . S
C448 H464 0.951 . S
C449 C448 1.386 . S
C449 C453 1.383 . S
C450 C448 1.383 . S
C450 C451 1.402 . S
C450 H465 0.951 . S
C451 C450 1.402 . S
C451 C452 1.375 . S
C451 C454 1.481 . S
C452 C451 1.375 . S
C452 C453 1.367 . S
C452 H466 0.951 . S
C453 C449 1.383 . S
C453 C452 1.367 . S
C453 H467 0.950 . S
C454 C451 1.481 . S
C454 C455 1.297 . S
C454 H468 0.950 . S
C455 C454 1.297 . S
C455 C456 1.479 . S
C455 H469 0.950 . S
C456 C455 1.479 . S
C456 C457 1.375 . S
C456 C462 1.404 . S
C457 C456 1.375 . S
C457 C458 1.369 . S
C457 H470 0.950 . S
C458 C457 1.369 . S
C458 C459 1.392 . S
C458 H471 0.951 . S
C459 C458 1.392 . S
C459 C461 1.384 . S
H460 C462 0.949 . S
C461 C459 1.384 . S
C461 C462 1.385 . S
C461 H463 0.950 . S
C462 C456 1.404 . S
C462 H460 0.949 . S
C462 C461 1.385 . S
H463 C461 0.950 . S
H464 C448 0.951 . S
H465 C450 0.951 . S
H466 C452 0.951 . S
H467 C453 0.950 . S
H468 C454 0.950 . S
H469 C455 0.950 . S
H470 C457 0.950 . S
H471 C458 0.951 . S
C472 C473 1.386 . S
C472 C474 1.383 . S
C472 H488 0.951 . S
C473 C472 1.386 . S
C473 C477 1.383 . S
C474 C472 1.383 . S
C474 C475 1.402 . S
C474 H489 0.951 . S
C475 C474 1.402 . S
C475 C476 1.375 . S
C475 C478 1.481 . S
C476 C475 1.375 . S
C476 C477 1.367 . S
C476 H490 0.951 . S
C477 C473 1.383 . S
C477 C476 1.367 . S
C477 H491 0.950 . S
C478 C475 1.481 . S
C478 C479 1.297 . S
C478 H492 0.950 . S
C479 C478 1.297 . S
C479 C480 1.479 . S
C479 H493 0.950 . S
C480 C479 1.479 . S
C480 C481 1.375 . S
C480 C486 1.404 . S
C481 C480 1.375 . S
C481 C482 1.369 . S
C481 H494 0.950 . S
C482 C481 1.369 . S
C482 C483 1.392 . S
C482 H495 0.951 . S
C483 C482 1.392 . S
C483 C485 1.384 . S
H484 C486 0.949 . S
C485 C483 1.384 . S
C485 C486 1.385 . S
C485 H487 0.950 . S
C486 C480 1.404 . S
C486 H484 0.949 . S
C486 C485 1.385 . S
H487 C485 0.950 . S
H488 C472 0.951 . S
H489 C474 0.951 . S
H490 C476 0.951 . S
H491 C477 0.950 . S
H492 C478 0.950 . S
H493 C479 0.950 . S
H494 C481 0.950 . S
H495 C482 0.951 . S
C113 C3 1.520 . S
C123 C45 1.499 . S
C137 C9 1.525 . S
C147 C23 1.505 . S
C161 C17 1.511 . S
C171 C31 1.498 . S
C185 C51 1.534 . S
C195 C37 1.528 . S
C209 C59 1.524 . S
C219 C101 1.505 . S
C233 C79 1.529 . S
C243 C65 1.512 . S
C257 C87 1.527 . S
C267 C73 1.512 . S
C281 C107 1.512 . S
C291 C93 1.509 . S
C305 C91 1.424 . S
C315 C8 1.454 . S
C329 C21 1.473 . S
C339 C106 1.487 . S
C353 C63 1.438 . S
C363 C36 1.452 . S
C377 C78 1.467 . S
C387 C49 1.402 . S
C401 C77 1.471 . S
C411 C50 1.490 . S
C425 C7 1.468 . S
C435 C92 1.491 . S
C449 C22 1.480 . S
C459 C105 1.417 . S
C473 C35 1.456 . S
C483 C64 1.488 . S
