# Generated by pormake.
# Topology smu, (6)-cn, num edge types: 1
# Building blocks:
#     Node 0, Type 0, BuildingBlock: MIDCAF_clean_sbu_0, # of connection points: 6
#     Node 1, Type 0, BuildingBlock: MIDCAF_clean_sbu_0, # of connection points: 6
#     Node 2, Type 0, BuildingBlock: MIDCAF_clean_sbu_0, # of connection points: 6
#     Node 3, Type 0, BuildingBlock: MIDCAF_clean_sbu_0, # of connection points: 6
#     Node 4, Type 0, BuildingBlock: MIDCAF_clean_sbu_0, # of connection points: 6
#     Node 5, Type 0, BuildingBlock: MIDCAF_clean_sbu_0, # of connection points: 6
#     Edge 6, Type (0, 0), BuildingBlock: ZUJKAS_clean_linker_0, # of connection points: 2
#     Edge 7, Type (0, 0), BuildingBlock: ZUJKAS_clean_linker_0, # of connection points: 2
#     Edge 8, Type (0, 0), BuildingBlock: ZUJKAS_clean_linker_0, # of connection points: 2
#     Edge 9, Type (0, 0), BuildingBlock: ZUJKAS_clean_linker_0, # of connection points: 2
#     Edge 10, Type (0, 0), BuildingBlock: ZUJKAS_clean_linker_0, # of connection points: 2
#     Edge 11, Type (0, 0), BuildingBlock: ZUJKAS_clean_linker_0, # of connection points: 2
#     Edge 12, Type (0, 0), BuildingBlock: ZUJKAS_clean_linker_0, # of connection points: 2
#     Edge 13, Type (0, 0), BuildingBlock: ZUJKAS_clean_linker_0, # of connection points: 2
#     Edge 14, Type (0, 0), BuildingBlock: ZUJKAS_clean_linker_0, # of connection points: 2
#     Edge 15, Type (0, 0), BuildingBlock: ZUJKAS_clean_linker_0, # of connection points: 2
#     Edge 16, Type (0, 0), BuildingBlock: ZUJKAS_clean_linker_0, # of connection points: 2
#     Edge 17, Type (0, 0), BuildingBlock: ZUJKAS_clean_linker_0, # of connection points: 2
#     Edge 18, Type (0, 0), BuildingBlock: ZUJKAS_clean_linker_0, # of connection points: 2
#     Edge 19, Type (0, 0), BuildingBlock: ZUJKAS_clean_linker_0, # of connection points: 2
#     Edge 20, Type (0, 0), BuildingBlock: ZUJKAS_clean_linker_0, # of connection points: 2
#     Edge 21, Type (0, 0), BuildingBlock: ZUJKAS_clean_linker_0, # of connection points: 2
#     Edge 22, Type (0, 0), BuildingBlock: ZUJKAS_clean_linker_0, # of connection points: 2
#     Edge 23, Type (0, 0), BuildingBlock: ZUJKAS_clean_linker_0, # of connection points: 2
# Relax obj value: 0.355
# Max RMSD: 0.260
# Mean RMSD: 0.260
data_MOF--net-smu--node1-MIDCAF_clean_sbu_0--edge1-ZUJKAS_clean_linker_0
_symmetry_space_group_name_H-M    P1
_symmetry_Int_Tables_number       1
_symmetry_cell_setting            triclinic
loop_
_symmetry_equiv_pos_as_xyz
'x, y, z'
_cell_length_a     35.446385
_cell_length_b     35.584052
_cell_length_c     38.478131
_cell_angle_alpha  89.836868
_cell_angle_beta   89.938755
_cell_angle_gamma 119.90046
loop_
_atom_site_label
_atom_site_type_symbol
_atom_site_fract_x
_atom_site_fract_y
_atom_site_fract_z
_atom_type_partial_charge
Zn0 Zn 0.25129 0.09603 0.23821 0.0
Zn1 Zn 0.38632 0.16055 0.29735 0.0
Zn2 Zn 0.32102 0.1259 0.26262 0.0
C3 C 0.3933 0.10216 0.25062 0.0
C4 C 0.31763 0.11758 0.34439 0.0
O5 O 0.30414 0.17577 0.24488 0.0
O6 O 0.23259 0.13842 0.24853 0.0
C7 C 0.30164 0.08714 0.18661 0.0
O8 O 0.35735 0.0976 0.23867 0.0
O9 O 0.41103 0.1258 0.27683 0.0
O10 O 0.35803 0.14415 0.34384 0.0
O11 O 0.29679 0.10487 0.31572 0.0
O12 O 0.27083 0.09539 0.1882 0.0
O13 O 0.32164 0.08837 0.21516 0.0
O14 O 0.30009 0.05826 0.24901 0.0
O15 O 0.23544 0.04361 0.26755 0.0
C16 C 0.26273 0.03122 0.26202 0.0
O17 O 0.35082 0.19501 0.24799 0.0
O18 O 0.40908 0.22139 0.28124 0.0
C19 C 0.26711 0.17437 0.24477 0.0
C20 C 0.38641 0.22749 0.25904 0.0
Zn21 Zn 0.81232 0.75323 0.23196 0.0
Zn22 Zn 0.75138 0.61269 0.2945 0.0
Zn23 Zn 0.77474 0.68117 0.26192 0.0
C24 C 0.67679 0.61537 0.27213 0.0
C25 C 0.7938 0.67337 0.34397 0.0
O26 O 0.83542 0.72365 0.29123 0.0
O27 O 0.8703 0.77679 0.25333 0.0
C28 C 0.79211 0.69309 0.17952 0.0
O29 O 0.70457 0.65572 0.26732 0.0
O30 O 0.68959 0.58921 0.28063 0.0
O31 O 0.76657 0.63341 0.34252 0.0
O32 O 0.80543 0.69605 0.31557 0.0
O33 O 0.80327 0.73253 0.18316 0.0
O34 O 0.78544 0.66916 0.20671 0.0
O35 O 0.72487 0.70105 0.26133 0.0
O36 O 0.77121 0.77036 0.25106 0.0
C37 C 0.73353 0.74066 0.2594 0.0
O38 O 0.79021 0.64054 0.22793 0.0
O39 O 0.79051 0.59723 0.26894 0.0
C40 C 0.87041 0.75795 0.28113 0.0
C41 C 0.79992 0.61201 0.23837 0.0
Zn42 Zn 0.92946 0.19873 0.25559 0.0
Zn43 Zn 0.85695 0.26591 0.29875 0.0
Zn44 Zn 0.89154 0.23373 0.26563 0.0
C45 C 0.90819 0.32437 0.24361 0.0
C46 C 0.90436 0.24612 0.34673 0.0
O47 O 0.8457 0.16626 0.25161 0.0
O48 O 0.88481 0.14394 0.27957 0.0
C49 C 0.92992 0.2391 0.19245 0.0
O50 O 0.91614 0.29388 0.23562 0.0
O51 O 0.88592 0.32093 0.27042 0.0
O52 O 0.88032 0.263 0.34548 0.0
O53 O 0.91276 0.23256 0.31866 0.0
O54 O 0.9261 0.2031 0.20169 0.0
O55 O 0.92696 0.26313 0.21626 0.0
O56 O 0.95667 0.28395 0.24751 0.0
O57 O 0.98184 0.24956 0.27871 0.0
C58 C 0.98854 0.28416 0.26377 0.0
O59 O 0.82376 0.19384 0.25035 0.0
O60 O 0.79534 0.22187 0.28564 0.0
C61 C 0.84882 0.1354 0.26616 0.0
C62 C 0.79047 0.19492 0.26222 0.0
Zn63 Zn 0.07808 0.27368 0.80446 0.0
Zn64 Zn 0.14084 0.38652 0.7298 0.0
Zn65 Zn 0.09523 0.32797 0.76733 0.0
C66 C 0.08806 0.40885 0.77335 0.0
C67 C 0.08276 0.32282 0.68417 0.0
O68 O 0.08279 0.27235 0.73444 0.0
O69 O 0.10902 0.24935 0.77598 0.0
C70 C 0.0804 0.33228 0.84492 0.0
O71 O 0.07244 0.37032 0.78522 0.0
O72 O 0.11817 0.42321 0.75081 0.0
O73 O 0.11525 0.36073 0.68389 0.0
O74 O 0.06942 0.30229 0.71349 0.0
O75 O 0.10238 0.31312 0.8452 0.0
O76 O 0.06567 0.33696 0.81556 0.0
O77 O 0.04035 0.273 0.74172 0.0
O78 O 0.01294 0.24911 0.7936 0.0
C79 C 0.00705 0.24981 0.76123 0.0
O80 O 0.15757 0.33969 0.78411 0.0
O81 O 0.197 0.39041 0.74609 0.0
C82 C 0.09974 0.24934 0.74417 0.0
C83 C 0.19458 0.36635 0.77129 0.0
Zn84 Zn 0.29667 0.89489 0.72678 0.0
Zn85 Zn 0.21696 0.95009 0.79952 0.0
Zn86 Zn 0.26309 0.92637 0.76532 0.0
C87 C 0.24982 0.00626 0.74407 0.0
C88 C 0.28009 0.95364 0.84534 0.0
O89 O 0.2224 0.85482 0.76528 0.0
O90 O 0.26447 0.83275 0.7414 0.0
C91 C 0.27957 0.94364 0.68243 0.0
O92 O 0.25943 0.97723 0.73495 0.0
O93 O 0.23556 0.00559 0.77428 0.0
O94 O 0.24316 0.95081 0.84474 0.0
O95 O 0.29733 0.95015 0.8168 0.0
O96 O 0.28352 0.91038 0.68078 0.0
O97 O 0.27633 0.95815 0.71241 0.0
O98 O 0.32286 0.93969 0.79312 0.0
O99 O 0.35552 0.93205 0.74706 0.0
C100 C 0.35704 0.94292 0.7785 0.0
O101 O 0.1957 0.87198 0.76811 0.0
O102 O 0.15781 0.90073 0.78908 0.0
C103 C 0.23012 0.82403 0.7577 0.0
C104 C 0.15885 0.86907 0.7754 0.0
Zn105 Zn 0.61501 0.69628 0.72385 0.0
Zn106 Zn 0.7335 0.76507 0.80333 0.0
Zn107 Zn 0.67692 0.72777 0.76575 0.0
C108 C 0.75846 0.71961 0.76099 0.0
C109 C 0.67558 0.71083 0.84665 0.0
O110 O 0.64779 0.77064 0.76544 0.0
O111 O 0.58735 0.73204 0.73559 0.0
C112 C 0.68746 0.71549 0.68362 0.0
O113 O 0.73115 0.72369 0.74154 0.0
O114 O 0.76094 0.72963 0.79268 0.0
O115 O 0.7006 0.7514 0.84791 0.0
O116 O 0.66474 0.6923 0.81664 0.0
O117 O 0.64855 0.70692 0.68002 0.0
O118 O 0.70385 0.72093 0.71444 0.0
O119 O 0.62947 0.66752 0.79162 0.0
O120 O 0.58884 0.63753 0.74542 0.0
C121 C 0.5982 0.6345 0.77662 0.0
O122 O 0.69189 0.79623 0.76842 0.0
O123 O 0.76086 0.82369 0.78187 0.0
C124 C 0.61048 0.76416 0.75478 0.0
C125 C 0.73068 0.82902 0.77017 0.0
H126 H 0.36519 0.01033 0.86528 0.0
H127 H 0.38994 0.03228 0.92561 0.0
H128 H 0.26349 0.93533 0.96318 0.0
H129 H 0.23983 0.91287 0.90411 0.0
H130 H 0.36119 0.06852 0.96792 0.0
H131 H 0.33328 0.92123 0.03552 0.0
H132 H 0.33397 0.92436 0.98868 0.0
H133 H 0.28432 0.90814 0.01273 0.0
C134 C 0.34358 0.99259 0.88662 0.0
C135 C 0.30064 0.95981 0.88001 0.0
C136 C 0.3575 0.00537 0.9211 0.0
C137 C 0.32883 0.98521 0.94937 0.0
C138 C 0.28693 0.95074 0.94241 0.0
H139 H 0.27701 0.09779 0.12202 0.0
H140 H 0.29175 0.07545 0.06637 0.0
C141 C 0.27323 0.93806 0.90836 0.0
C142 C 0.33932 0.00325 0.98547 0.0
H143 H 0.31934 0.97123 0.07062 0.0
C144 C 0.35308 0.04735 0.99037 0.0
C145 C 0.33007 0.9764 0.01525 0.0
C146 C 0.32012 0.93005 0.01266 0.0
C147 C 0.35418 0.06427 0.02364 0.0
C148 C 0.3394 0.03606 0.05287 0.0
C149 C 0.3294 0.99287 0.04835 0.0
C150 C 0.33103 0.04983 0.08748 0.0
C151 C 0.37078 0.11225 0.02685 0.0
C152 C 0.34588 0.04081 0.11864 0.0
C153 C 0.33616 0.05244 0.15094 0.0
C154 C 0.31194 0.07389 0.15279 0.0
C155 C 0.29641 0.08202 0.12167 0.0
C156 C 0.30542 0.06978 0.08959 0.0
H157 H 0.39618 0.13076 1.00696 0.0
H158 H 0.3436 0.11867 0.02223 0.0
H159 H 0.38471 0.12459 0.05295 0.0
H160 H 0.36488 0.02461 0.11803 0.0
H161 H 0.34692 0.04398 0.17446 0.0
H162 H 0.77483 0.77041 0.66964 0.0
H163 H 0.81229 0.7797 0.61346 0.0
H164 H 0.69326 0.67798 0.56949 0.0
H165 H 0.65616 0.66871 0.62488 0.0
H166 H 0.82421 0.72135 0.56981 0.0
H167 H 0.72543 0.78065 0.50392 0.0
H168 H 0.72814 0.77803 0.55067 0.0
H169 H 0.69193 0.73041 0.52626 0.0
C170 C 0.757 0.74971 0.64805 0.0
C171 C 0.71257 0.71877 0.65169 0.0
C172 C 0.77831 0.75517 0.61595 0.0
C173 C 0.75531 0.7302 0.58698 0.0
C174 C 0.71146 0.69836 0.59113 0.0
H175 H 0.79553 0.63297 0.40327 0.0
H176 H 0.7987 0.65764 0.46247 0.0
C177 C 0.69033 0.69293 0.62293 0.0
C178 C 0.77605 0.73693 0.55204 0.0
H179 H 0.75855 0.75058 0.46681 0.0
C180 C 0.81048 0.7286 0.54733 0.0
C181 C 0.7591 0.74757 0.52267 0.0
C182 C 0.72443 0.76015 0.52613 0.0
C183 C 0.82591 0.7272 0.51384 0.0
C184 C 0.8058 0.73343 0.48422 0.0
C185 C 0.77382 0.74524 0.48924 0.0
C186 C 0.81286 0.7223 0.44823 0.0
C187 C 0.86305 0.71817 0.51061 0.0
C188 C 0.82028 0.7504 0.41989 0.0
C189 C 0.81817 0.73606 0.38552 0.0
C190 C 0.80797 0.69316 0.37893 0.0
C191 C 0.80347 0.66623 0.40736 0.0
C192 C 0.80565 0.68049 0.44145 0.0
H193 H 0.88554 0.73182 0.53305 0.0
H194 H 0.84992 0.68259 0.51074 0.0
H195 H 0.88181 0.73192 0.48624 0.0
H196 H 0.82564 0.78275 0.42432 0.0
H197 H 0.82141 0.75748 0.36423 0.0
H198 H 0.93553 0.19532 0.13604 0.0
H199 H 0.95896 0.22288 0.07707 0.0
H200 H 0.97529 0.34673 0.10753 0.0
H201 H 0.95547 0.32033 0.16712 0.0
H202 H 0.9273 0.25035 0.02884 0.0
H203 H 0.08976 0.38727 0.06325 0.0
H204 H 0.05552 0.34675 0.09453 0.0
H205 H 0.046 0.39058 0.08357 0.0
C206 C 0.94439 0.22853 0.13026 0.0
C207 C 0.94302 0.25546 0.15631 0.0
C208 C 0.95759 0.24424 0.09641 0.0
C209 C 0.9695 0.28718 0.08767 0.0
C210 C 0.96731 0.31385 0.11353 0.0
H211 H 0.00971 0.34228 0.86078 0.0
H212 H 0.98077 0.34023 0.91938 0.0
C213 C 0.95501 0.2984 0.14757 0.0
C214 C 0.98428 0.30359 0.05155 0.0
H215 H 0.06923 0.38172 1.00445 0.0
C216 C 0.9583 0.27918 0.02351 0.0
C217 C 0.0248 0.34123 0.04445 0.0
C218 C 0.05583 0.36774 0.07301 0.0
C219 C 0.97232 0.29014 0.98884 0.0
C220 C 0.01289 0.32772 0.98173 0.0
C221 C 0.03797 0.3532 0.00975 0.0
C222 C 0.03298 0.33736 0.94631 0.0
C223 C 0.9446 0.25976 0.96042 0.0
C224 C 0.07359 0.34013 0.94191 0.0
C225 C 0.09056 0.34249 0.90878 0.0
C226 C 0.06726 0.34176 0.87897 0.0
C227 C 0.02833 0.34269 0.88322 0.0
C228 C 0.01145 0.3408 0.91671 0.0
H229 H 0.91932 0.2279 0.9709 0.0
H230 H 0.92779 0.27438 0.94627 0.0
H231 H 0.9649 0.25403 0.94155 0.0
H232 H 0.09123 0.33801 0.96411 0.0
H233 H 0.12092 0.34228 0.90651 0.0
H234 H 0.25068 0.03581 0.36074 0.0
H235 H 0.23045 0.00425 0.41951 0.0
H236 H 0.31972 0.12861 0.4638 0.0
H237 H 0.33999 0.15988 0.40576 0.0
H238 H 0.29397 0.00434 0.46356 0.0
H239 H 0.21481 0.08564 0.52877 0.0
H240 H 0.21901 0.08412 0.48203 0.0
H241 H 0.26468 0.12271 0.50717 0.0
C242 C 0.26483 0.05658 0.38309 0.0
C243 C 0.29704 0.10023 0.37867 0.0
C244 C 0.25343 0.03855 0.41663 0.0
C245 C 0.27332 0.06416 0.44615 0.0
C246 C 0.3033 0.10835 0.44162 0.0
H247 H 0.31786 0.02965 0.66339 0.0
H248 H 0.31339 0.05856 0.60614 0.0
C249 C 0.31504 0.12613 0.40832 0.0
C250 C 0.26798 0.04421 0.48118 0.0
H251 H 0.24395 0.05217 0.56606 0.0
C252 C 0.28231 0.01423 0.48587 0.0
C253 C 0.25361 0.05779 0.51042 0.0
C254 C 0.23678 0.08906 0.50688 0.0
C255 C 0.28401 0.9985 0.51901 0.0
C256 C 0.26986 0.01221 0.54835 0.0
C257 C 0.25491 0.04176 0.54365 0.0
C258 C 0.27001 0.99563 0.58389 0.0
C259 C 0.3026 0.96862 0.52239 0.0
C260 C 0.24622 0.95096 0.59071 0.0
C261 C 0.24909 0.93461 0.62299 0.0
C262 C 0.27503 0.96258 0.64953 0.0
C263 C 0.29758 0.00748 0.64334 0.0
C264 C 0.29498 0.02392 0.61073 0.0
H265 H 0.32317 0.97133 0.49966 0.0
H266 H 0.3225 0.97569 0.54631 0.0
H267 H 0.27554 0.93459 0.52387 0.0
H268 H 0.22592 0.92858 0.57078 0.0
H269 H 0.23106 0.89987 0.6272 0.0
H270 H 0.66756 0.63088 0.85734 0.0
H271 H 0.67408 0.60154 0.91357 0.0
H272 H 0.67253 0.70761 0.96619 0.0
H273 H 0.66597 0.73665 0.91058 0.0
H274 H 0.74539 0.64687 0.95504 0.0
H275 H 0.59859 0.60824 0.03119 0.0
H276 H 0.60048 0.61383 0.98442 0.0
H277 H 0.62096 0.66097 0.01181 0.0
C278 C 0.66679 0.64683 0.88105 0.0
C279 C 0.66622 0.68604 0.8796 0.0
C280 C 0.67087 0.63025 0.91315 0.0
C281 C 0.67357 0.65218 0.94426 0.0
C282 C 0.66967 0.68953 0.9428 0.0
H283 H 0.82846 0.73411 0.11875 0.0
H284 H 0.79847 0.71169 0.06067 0.0
C285 C 0.66605 0.70624 0.91089 0.0
C286 C 0.68679 0.64055 0.97755 0.0
H287 H 0.66505 0.63118 0.06466 0.0
C288 C 0.72723 0.64225 0.97889 0.0
C289 C 0.66304 0.63385 0.00876 0.0
C290 C 0.61814 0.62864 0.00892 0.0
C291 C 0.7461 0.6412 0.01077 0.0
C292 C 0.72429 0.639 0.0422 0.0
C293 C 0.68219 0.63345 0.04068 0.0
C294 C 0.74662 0.64839 0.07652 0.0
C295 C 0.79 0.64405 0.01049 0.0
C296 C 0.72808 0.62005 0.10499 0.0
C297 C 0.74553 0.63284 0.13848 0.0
C298 C 0.7813 0.67449 0.14408 0.0
C299 C 0.80114 0.7017 0.11525 0.0
C300 C 0.78403 0.68881 0.08192 0.0
H301 H 0.79462 0.62961 0.98643 0.0
H302 H 0.81586 0.67865 0.01108 0.0
H303 H 0.79413 0.62735 0.03336 0.0
H304 H 0.699 0.58884 0.10155 0.0
H305 H 0.72906 0.61147 0.16025 0.0
H306 H 0.95452 0.20863 0.36245 0.0
H307 H 0.98195 0.20344 0.42 0.0
H308 H 0.92192 0.27151 0.46534 0.0
H309 H 0.89402 0.27602 0.40892 0.0
H310 H 0.03685 0.26586 0.46323 0.0
H311 H 0.8806 0.17164 0.53182 0.0
H312 H 0.88399 0.17636 0.48504 0.0
H313 H 0.88248 0.21767 0.51107 0.0
C314 C 0.94691 0.22212 0.38479 0.0
C315 C 0.92177 0.24246 0.38099 0.0
C316 C 0.96252 0.21907 0.41767 0.0
C317 C 0.953 0.23601 0.44729 0.0
C318 C 0.92847 0.25679 0.44327 0.0
H319 H 0.09145 0.36515 0.62352 0.0
H320 H 0.06054 0.33539 0.56723 0.0
C321 C 0.91287 0.25973 0.41072 0.0
C322 C 0.97087 0.23523 0.48219 0.0
H323 H 0.94266 0.21932 0.56822 0.0
C324 C 0.01614 0.25474 0.48609 0.0
C325 C 0.94404 0.21973 0.51218 0.0
C326 C 0.89506 0.19472 0.50974 0.0
C327 C 0.03532 0.26256 0.51919 0.0
C328 C 0.00866 0.25162 0.54924 0.0
C329 C 0.96327 0.22862 0.54531 0.0
C330 C 0.02727 0.26846 0.58426 0.0
C331 C 0.08418 0.28362 0.52155 0.0
C332 C 0.01738 0.24097 0.61336 0.0
C333 C 0.03479 0.25817 0.6462 0.0
C334 C 0.06215 0.30311 0.6504 0.0
C335 C 0.07107 0.33031 0.62128 0.0
C336 C 0.05365 0.31329 0.58883 0.0
H337 H 0.09761 0.27469 0.49896 0.0
H338 H 0.09867 0.31938 0.52116 0.0
H339 H 0.09435 0.27421 0.54582 0.0
H340 H 0.99659 0.20626 0.61059 0.0
H341 H 0.02749 0.2364 0.66803 0.0
H342 H 0.41922 0.11067 0.18298 0.0
H343 H 0.4773 0.09899 0.1606 0.0
H344 H 0.48363 0.04606 0.26014 0.0
H345 H 0.42419 0.05512 0.28133 0.0
H346 H 0.55232 0.14472 0.18474 0.0
H347 H 0.52047 0.97907 0.20314 0.0
H348 H 0.47659 0.99108 0.20257 0.0
H349 H 0.50436 0.99352 0.24263 0.0
C350 C 0.43106 0.09376 0.19909 0.0
C351 C 0.41673 0.08289 0.23357 0.0
C352 C 0.46466 0.08757 0.18648 0.0
C353 C 0.48493 0.07125 0.20847 0.0
C354 C 0.46801 0.05733 0.24208 0.0
H355 H 0.71424 0.16322 0.29725 0.0
H356 H 0.6408 0.12382 0.27336 0.0
C357 C 0.43416 0.06292 0.25441 0.0
C358 C 0.52909 0.07836 0.20024 0.0
H359 H 0.59552 0.03779 0.22126 0.0
C360 C 0.56146 0.12064 0.19116 0.0
C361 C 0.54157 0.04718 0.20821 0.0
C362 C 0.50862 0.0001 0.21427 0.0
C363 C 0.60573 0.13382 0.19417 0.0
C364 C 0.6179 0.10411 0.20679 0.0
C365 C 0.58596 0.06069 0.21211 0.0
C366 C 0.66179 0.12009 0.22134 0.0
C367 C 0.63923 0.18061 0.1873 0.0
C368 C 0.69774 0.12996 0.20005 0.0
C369 C 0.73993 0.15237 0.21375 0.0
C370 C 0.74645 0.16552 0.24872 0.0
C371 C 0.71016 0.15369 0.27019 0.0
C372 C 0.66822 0.13096 0.25665 0.0
H373 H 0.62481 0.19879 0.17495 0.0
H374 H 0.65458 0.19666 0.21218 0.0
H375 H 0.6653 0.1825 0.1701 0.0
H376 H 0.69326 0.12209 0.17264 0.0
H377 H 0.76745 0.16137 0.19664 0.0
H378 H 0.6109 0.56111 0.31361 0.0
H379 H 0.53828 0.50832 0.29416 0.0
H380 H 0.56434 0.57234 0.19439 0.0
H381 H 0.63813 0.62535 0.21398 0.0
H382 H 0.46321 0.4991 0.26398 0.0
H383 H 0.55773 0.45822 0.1702 0.0
H384 H 0.58501 0.4978 0.20379 0.0
H385 H 0.56168 0.51047 0.16731 0.0
C386 C 0.60047 0.56511 0.28807 0.0
C387 C 0.63005 0.59692 0.26518 0.0
C388 C 0.5589 0.53485 0.27688 0.0
C389 C 0.5462 0.53555 0.24245 0.0
C390 C 0.57378 0.57063 0.22083 0.0
H391 H 0.36859 0.25829 0.19884 0.0
H392 H 0.3939 0.33495 0.18415 0.0
C393 C 0.61568 0.60125 0.23218 0.0
C394 C 0.50848 0.49534 0.22874 0.0
H395 H 0.4902 0.40252 0.18808 0.0
C396 C 0.46842 0.47848 0.24623 0.0
C397 C 0.51495 0.46832 0.20529 0.0
C398 C 0.55709 0.48431 0.18553 0.0
C399 C 0.43723 0.43422 0.24436 0.0
C400 C 0.44643 0.40634 0.22462 0.0
C401 C 0.48348 0.42412 0.20334 0.0
C402 C 0.42603 0.35971 0.23343 0.0
C403 C 0.39655 0.41672 0.26619 0.0
C404 C 0.43613 0.3486 0.26566 0.0
C405 C 0.42294 0.30566 0.2736 0.0
C406 C 0.39886 0.27254 0.24964 0.0
C407 C 0.38736 0.28329 0.21766 0.0
C408 C 0.4015 0.32685 0.20936 0.0
H409 H 0.38719 0.44185 0.27058 0.0
H410 H 0.36902 0.38804 0.25374 0.0
H411 H 0.40263 0.40658 0.29192 0.0
H412 H 0.45563 0.37351 0.28436 0.0
H413 H 0.43184 0.29844 0.29864 0.0
H414 H 0.94961 0.40854 0.2622 0.0
H415 H 0.9451 0.46644 0.23186 0.0
H416 H 0.88639 0.38246 0.14382 0.0
H417 H 0.88934 0.3237 0.17495 0.0
H418 H 0.96628 0.51224 0.16864 0.0
H419 H 0.78766 0.39769 0.18126 0.0
H420 H 0.82681 0.3865 0.20151 0.0
H421 H 0.81895 0.38119 0.15528 0.0
C422 C 0.93748 0.40307 0.23578 0.0
C423 C 0.92028 0.36191 0.22074 0.0
C424 C 0.93484 0.43615 0.21843 0.0
C425 C 0.91456 0.42853 0.18584 0.0
C426 C 0.90159 0.38885 0.16915 0.0
H427 H 0.78229 0.5798 0.17181 0.0
H428 H 0.81534 0.54152 0.14261 0.0
C429 C 0.90401 0.35553 0.18668 0.0
C430 C 0.90052 0.45917 0.17329 0.0
H431 H 0.81044 0.47059 0.17407 0.0
C432 C 0.93212 0.50297 0.16872 0.0
C433 C 0.85588 0.44711 0.173 0.0
C434 C 0.82021 0.40068 0.17815 0.0
C435 C 0.92047 0.53534 0.16724 0.0
C436 C 0.87622 0.52361 0.17094 0.0
C437 C 0.84439 0.47956 0.1714 0.0
C438 C 0.86311 0.55512 0.18287 0.0
C439 C 0.9559 0.58204 0.16401 0.0
C440 C 0.87944 0.57607 0.2147 0.0
C441 C 0.86034 0.59708 0.23138 0.0
C442 C 0.82468 0.59797 0.21653 0.0
C443 C 0.81008 0.57986 0.18351 0.0
C444 C 0.82891 0.55804 0.16691 0.0
H445 H 0.98297 0.58493 0.14751 0.0
H446 H 0.94342 0.6025 0.15275 0.0
H447 H 0.96943 0.59466 0.19014 0.0
H448 H 0.90487 0.57336 0.22808 0.0
H449 H 0.87204 0.61078 0.25689 0.0
H450 H 0.07092 0.46038 0.73357 0.0
H451 H 0.0701 0.52506 0.75222 0.0
H452 H 0.07203 0.49021 0.8595 0.0
H453 H 0.07394 0.42514 0.84049 0.0
H454 H 0.02781 0.55445 0.79456 0.0
H455 H 0.19102 0.59702 0.84749 0.0
H456 H 0.15999 0.54853 0.82236 0.0
H457 H 0.14351 0.55165 0.86595 0.0
C458 C 0.06968 0.46572 0.76117 0.0
C459 C 0.07321 0.43838 0.78563 0.0
C460 C 0.06897 0.50263 0.77186 0.0
C461 C 0.07213 0.51311 0.80724 0.0
C462 C 0.07043 0.48312 0.83202 0.0
H463 H 0.16506 0.79546 0.80678 0.0
H464 H 0.11944 0.72104 0.82812 0.0
C465 C 0.07108 0.4458 0.82121 0.0
C466 C 0.08576 0.55863 0.8162 0.0
H467 H 0.18018 0.6535 0.83047 0.0
C468 C 0.06055 0.5762 0.80369 0.0
C469 C 0.12861 0.58698 0.82807 0.0
C470 C 0.15759 0.57038 0.84166 0.0
C471 C 0.07873 0.62112 0.79896 0.0
C472 C 0.12286 0.64886 0.80743 0.0
C473 C 0.1464 0.6318 0.82373 0.0
C474 C 0.14756 0.69361 0.79371 0.0
C475 C 0.05218 0.63831 0.78178 0.0
C476 C 0.17803 0.70257 0.76712 0.0
C477 C 0.20389 0.74475 0.75481 0.0
C478 C 0.19982 0.77894 0.76884 0.0
C479 C 0.16852 0.76976 0.79502 0.0
C480 C 0.14254 0.72733 0.80738 0.0
H481 H 0.01832 0.6123 0.77637 0.0
H482 H 0.05099 0.66286 0.79877 0.0
H483 H 0.06783 0.6546 0.75693 0.0
H484 H 0.18222 0.67685 0.75617 0.0
H485 H 0.22755 0.75063 0.73462 0.0
H486 H 0.35903 0.9101 0.84232 0.0
H487 H 0.41489 0.89238 0.8597 0.0
H488 H 0.49574 0.969 0.77415 0.0
H489 H 0.44087 0.98732 0.75753 0.0
H490 H 0.42704 0.84336 0.81677 0.0
H491 H 0.58882 0.98432 0.83909 0.0
H492 H 0.54001 0.98827 0.84146 0.0
H493 H 0.56691 0.99383 0.80034 0.0
C494 C 0.38993 0.92536 0.82868 0.0
C495 C 0.39552 0.94972 0.79838 0.0
C496 C 0.42172 0.91484 0.83837 0.0
C497 C 0.4596 0.92898 0.81811 0.0
C498 C 0.46743 0.95812 0.79069 0.0
H499 H 0.55327 0.78114 0.72071 0.0
H500 H 0.51916 0.82182 0.74208 0.0
C501 C 0.43583 0.96858 0.78108 0.0
C502 C 0.48517 0.90609 0.81972 0.0
H503 H 0.58815 0.92259 0.8089 0.0
C504 C 0.46233 0.86076 0.8161 0.0
C505 C 0.53128 0.92829 0.81905 0.0
C506 C 0.55803 0.97633 0.82559 0.0
C507 C 0.48399 0.83766 0.80907 0.0
C508 C 0.52971 0.86047 0.8048 0.0
C509 C 0.55297 0.90523 0.81128 0.0
C510 C 0.55309 0.83859 0.79129 0.0
C511 C 0.45747 0.78907 0.80515 0.0
C512 C 0.58466 0.83579 0.81134 0.0
C513 C 0.60435 0.8126 0.79907 0.0
C514 C 0.59329 0.79245 0.76633 0.0
C515 C 0.56254 0.79637 0.74598 0.0
C516 C 0.54289 0.81944 0.75824 0.0
H517 H 0.42607 0.77546 0.81942 0.0
H518 H 0.45 0.78101 0.77724 0.0
H519 H 0.47556 0.77312 0.81479 0.0
H520 H 0.59309 0.85041 0.83687 0.0
H521 H 0.62744 0.80953 0.81555 0.0
H522 H 0.26924 0.38471 0.73811 0.0
H523 H 0.34063 0.41015 0.76427 0.0
H524 H 0.28389 0.39116 0.86653 0.0
H525 H 0.21165 0.36418 0.84027 0.0
H526 H 0.3513 0.48009 0.84537 0.0
H527 H 0.40466 0.35986 0.82552 0.0
H528 H 0.37605 0.3651 0.78897 0.0
H529 H 0.34801 0.34503 0.82968 0.0
C530 C 0.27175 0.38454 0.76617 0.0
C531 C 0.23511 0.3726 0.7872 0.0
C532 C 0.31246 0.3988 0.78111 0.0
C533 C 0.31744 0.40212 0.81733 0.0
C534 C 0.28054 0.38818 0.83854 0.0
H535 H 0.5791 0.62221 0.84676 0.0
H536 H 0.51633 0.55875 0.87303 0.0
C537 C 0.23941 0.37281 0.82354 0.0
C538 C 0.36192 0.42764 0.83162 0.0
H539 H 0.46139 0.43549 0.82454 0.0
C540 C 0.37549 0.47017 0.84214 0.0
C541 C 0.39301 0.41427 0.82757 0.0
C542 C 0.3797 0.36839 0.81762 0.0
C543 C 0.41986 0.50139 0.84404 0.0
C544 C 0.45138 0.48912 0.83625 0.0
C545 C 0.43742 0.4451 0.83027 0.0
C546 C 0.49622 0.52191 0.8252 0.0
C547 C 0.43212 0.548 0.85035 0.0
C548 C 0.50829 0.52058 0.79068 0.0
C549 C 0.54444 0.55602 0.77606 0.0
C550 C 0.56929 0.59384 0.79548 0.0
C551 C 0.56037 0.59356 0.83113 0.0
C552 C 0.52413 0.55753 0.84601 0.0
H553 H 0.40321 0.5523 0.85219 0.0
H554 H 0.45029 0.55922 0.87512 0.0
H555 H 0.45329 0.5691 0.82905 0.0
H556 H 0.48773 0.49349 0.77404 0.0
H557 H 0.55097 0.55495 0.74866 0.0
H558 H 0.31409 0.25326 0.27682 0.0
H559 H 0.29579 0.31154 0.27786 0.0
H560 H 0.19253 0.24059 0.20445 0.0
H561 H 0.21062 0.18282 0.20338 0.0
H562 H 0.24202 0.34045 0.19904 0.0
H563 H 0.17433 0.26801 0.32907 0.0
H564 H 0.23045 0.28614 0.31897 0.0
H565 H 0.1882 0.239 0.29795 0.0
C566 C 0.28869 0.2511 0.25992 0.0
C567 C 0.26361 0.21364 0.24009 0.0
C568 C 0.27817 0.28426 0.26061 0.0
C569 C 0.24268 0.28022 0.2413 0.0
C570 C 0.22019 0.24448 0.21934 0.0
H571 H 0.0299 0.29645 0.2027 0.0
H572 H 0.10602 0.31705 0.1979 0.0
C573 C 0.23033 0.21136 0.21894 0.0
C574 C 0.22286 0.30752 0.24841 0.0
H575 H 0.14542 0.30597 0.30156 0.0
C576 C 0.22185 0.33422 0.22194 0.0
C577 C 0.19709 0.29988 0.27848 0.0
C578 C 0.19725 0.27171 0.30786 0.0
C579 C 0.1931 0.35071 0.22363 0.0
C580 C 0.16341 0.33858 0.25179 0.0
C581 C 0.16771 0.31537 0.27974 0.0
C582 C 0.12299 0.34184 0.25046 0.0
C583 C 0.1941 0.37975 0.19463 0.0
C584 C 0.10676 0.35065 0.28092 0.0
C585 C 0.06244 0.3371 0.28403 0.0
C586 C 0.03409 0.31621 0.25626 0.0
C587 C 0.05136 0.3134 0.22422 0.0
C588 C 0.09529 0.32543 0.22147 0.0
H589 H 0.22819 0.40216 0.18635 0.0
H590 H 0.17664 0.35967 0.17175 0.0
H591 H 0.17889 0.39921 0.2024 0.0
H592 H 0.12727 0.36358 0.30362 0.0
H593 H 0.04965 0.33895 0.30916 0.0
H594 H 0.903 0.71086 0.31251 0.0
H595 H 0.97981 0.7381 0.32776 0.0
H596 H 0.00872 0.86833 0.3038 0.0
H597 H 0.93298 0.84148 0.28871 0.0
H598 H 0.0458 0.77767 0.2802 0.0
H599 H 0.08143 0.88905 0.38958 0.0
H600 H 0.02655 0.84754 0.37914 0.0
H601 H 0.05111 0.89965 0.35769 0.0
C602 C 0.92557 0.74546 0.31193 0.0
C603 C 0.91218 0.77416 0.29952 0.0
C604 C 0.96944 0.76093 0.32037 0.0
C605 C 1.00006 0.80535 0.31727 0.0
C606 C 0.98574 0.83411 0.30721 0.0
H607 H 0.21455 0.96681 0.21784 0.0
H608 H 0.15684 0.8967 0.23752 0.0
C609 C 0.94237 0.81871 0.29841 0.0
C610 C 0.04768 0.8219 0.31928 0.0
H611 H 0.13962 0.91247 0.34546 0.0
C612 C 0.06656 0.80634 0.29533 0.0
C613 C 0.07511 0.85838 0.3397 0.0
C614 C 0.05738 0.87422 0.36824 0.0
C615 C 0.11148 0.82954 0.28821 0.0
C616 C 0.13786 0.86983 0.30479 0.0
C617 C 0.11971 0.88217 0.33195 0.0
C618 C 0.18071 0.90338 0.29032 0.0
C619 C 0.12967 0.81156 0.26179 0.0
C620 C 0.21528 0.93001 0.31258 0.0
C621 C 0.24835 0.97066 0.30115 0.0
C622 C 0.24744 0.98501 0.26732 0.0
C623 C 0.21655 0.956 0.2438 0.0
C624 C 0.18327 0.91568 0.25522 0.0
H625 H 0.11386 0.77577 0.26451 0.0
H626 H 0.12233 0.81842 0.23526 0.0
H627 H 0.16541 0.82579 0.26448 0.0
H628 H 0.21428 0.92143 0.33973 0.0
H629 H 0.27139 0.99282 0.31994 0.0
H630 H 0.83807 0.07084 0.30992 0.0
H631 H 0.7828 0.99437 0.30741 0.0
H632 H 0.72075 0.02067 0.22188 0.0
H633 H 0.77677 0.09776 0.22396 0.0
H634 H 0.68629 0.94631 0.30854 0.0
H635 H 0.76043 0.93606 0.1834 0.0
H636 H 0.7886 0.98217 0.21169 0.0
H637 H 0.74226 0.97491 0.18743 0.0
C638 C 0.81239 0.06056 0.29082 0.0
C639 C 0.81197 0.0903 0.26693 0.0
C640 C 0.78059 0.01686 0.28962 0.0
C641 C 0.74782 0.0018 0.26438 0.0
C642 C 0.74587 0.03165 0.24152 0.0
H643 H 0.67297 0.73933 0.21563 0.0
H644 H 0.65204 0.79534 0.21636 0.0
C645 C 0.77774 0.07567 0.24283 0.0
C646 C 0.71975 0.95433 0.25994 0.0
H647 H 0.71668 0.87181 0.21314 0.0
C648 C 0.69184 0.92978 0.2872 0.0
C649 C 0.72649 0.93279 0.23187 0.0
C650 C 0.7561 0.95757 0.20188 0.0
C651 C 0.67328 0.88445 0.28843 0.0
C652 C 0.68399 0.8634 0.26228 0.0
C653 C 0.7084 0.88764 0.23336 0.0
C654 C 0.67879 0.8195 0.26737 0.0
C655 C 0.64386 0.85995 0.3185 0.0
C656 C 0.69727 0.81178 0.29694 0.0
C657 C 0.70823 0.77915 0.29676 0.0
C658 C 0.7014 0.75406 0.26692 0.0
C659 C 0.67774 0.75773 0.23922 0.0
C660 C 0.66629 0.79017 0.23949 0.0
H661 H 0.62315 0.87408 0.32558 0.0
H662 H 0.62253 0.82505 0.31249 0.0
H663 H 0.66399 0.86301 0.34156 0.0
H664 H 0.7083 0.8342 0.3185 0.0
H665 H 0.72736 0.77756 0.31808 0.0
H666 H 0.12543 0.26531 0.67581 0.0
H667 H 0.15007 0.22406 0.64017 0.0
H668 H 0.11483 0.13062 0.72329 0.0
H669 H 0.09084 0.17132 0.75841 0.0
H670 H 0.21798 0.21236 0.66033 0.0
H671 H 0.0758 0.05195 0.63974 0.0
H672 H 0.07069 0.09922 0.64814 0.0
H673 H 0.0737 0.06748 0.6836 0.0
C674 C 0.12179 0.23519 0.68581 0.0
C675 C 0.10659 0.22148 0.71984 0.0
C676 C 0.13588 0.21176 0.66552 0.0
C677 C 0.13366 0.17387 0.67883 0.0
C678 C 0.11587 0.15906 0.71202 0.0
H679 H 0.27561 0.09078 0.75429 0.0
H680 H 0.25598 0.13528 0.71922 0.0
C681 C 0.10258 0.18262 0.7323 0.0
C682 C 0.15606 0.15306 0.66182 0.0
H683 H 0.14304 0.05183 0.65995 0.0
C684 C 0.20155 0.17729 0.65868 0.0
C685 C 0.13489 0.10758 0.65802 0.0
C686 C 0.08598 0.08024 0.65714 0.0
C687 C 0.2265 0.15662 0.65804 0.0
C688 C 0.20529 0.11098 0.66168 0.0
C689 C 0.15976 0.08692 0.65844 0.0
C690 C 0.22754 0.0889 0.67721 0.0
C691 C 0.27536 0.1841 0.65622 0.0
C692 C 0.21856 0.04786 0.66551 0.0
C693 C 0.22885 0.02185 0.68626 0.0
C694 C 0.2491 0.03682 0.7186 0.0
C695 C 0.26078 0.07889 0.72913 0.0
C696 C 0.25001 0.1046 0.70873 0.0
H697 H 0.28487 0.21099 0.63728 0.0
H698 H 0.28806 0.19903 0.68197 0.0
H699 H 0.29085 0.16486 0.64851 0.0
H700 H 0.20072 0.03467 0.64161 0.0
H701 H 0.21781 0.98884 0.67828 0.0
H702 H 0.07945 0.83717 0.80568 0.0
H703 H 0.00946 0.78262 0.78193 0.0
H704 H 0.07494 0.76132 0.69625 0.0
H705 H 0.14558 0.81538 0.72042 0.0
H706 H 0.00242 0.79763 0.69158 0.0
H707 H 0.95585 0.6392 0.75316 0.0
H708 H 0.98793 0.68665 0.77928 0.0
H709 H 0.01116 0.67815 0.74069 0.0
C710 C 0.07904 0.82006 0.78231 0.0
C711 C 0.11781 0.83061 0.7648 0.0
C712 C 0.03914 0.78889 0.76882 0.0
C713 C 0.03728 0.76817 0.73739 0.0
C714 C 0.07593 0.77686 0.72067 0.0
H715 H 0.77007 0.69953 0.69355 0.0
H716 H 0.83286 0.69471 0.67183 0.0
C717 C 0.11611 0.80761 0.73456 0.0
C718 C 0.9945 0.74251 0.72063 0.0
H719 H 0.89754 0.65238 0.73833 0.0
C720 C 0.97942 0.76507 0.70037 0.0
C721 C 0.96518 0.69997 0.73174 0.0
C722 C 0.98068 0.67421 0.75225 0.0
C723 C 0.93469 0.7488 0.69561 0.0
C724 C 0.90476 0.70879 0.71136 0.0
C725 C 0.92044 0.68326 0.72661 0.0
C726 C 0.86145 0.70095 0.72274 0.0
C727 C 0.92 0.77724 0.67794 0.0
C728 C 0.85526 0.70331 0.75847 0.0
C729 C 0.82012 0.70649 0.77061 0.0
C730 C 0.79017 0.70767 0.74736 0.0
C731 C 0.79375 0.70087 0.71182 0.0
C732 C 0.82939 0.69772 0.69948 0.0
H733 H 0.94774 0.80766 0.66753 0.0
H734 H 0.89805 0.75945 0.65603 0.0
H735 H 0.90168 0.78596 0.69658 0.0
H736 H 0.87934 0.70572 0.77704 0.0
H737 H 0.81798 0.71046 0.79832 0.0
H738 H 0.92655 0.23738 0.77507 0.0
H739 H 0.85717 0.17162 0.76262 0.0
H740 H 0.9261 0.11982 0.70586 0.0
H741 H 0.9948 0.18636 0.71663 0.0
H742 H 0.84589 0.0897 0.67957 0.0
H743 H 0.83608 0.07257 0.82393 0.0
H744 H 0.83358 0.1182 0.8069 0.0
H745 H 0.8828 0.11563 0.80241 0.0
C746 C 0.9264 0.2125 0.7588 0.0
C747 C 0.9656 0.21663 0.74662 0.0
C748 C 0.88694 0.17486 0.752 0.0
C749 C 0.88659 0.14021 0.73431 0.0
C750 C 0.92551 0.14603 0.71965 0.0
H751 H 0.80231 0.88445 0.73418 0.0
H752 H 0.8263 0.95954 0.71866 0.0
C753 C 0.96477 0.1841 0.72566 0.0
C754 C 0.84794 0.09603 0.73533 0.0
H755 H 0.78909 0.0124 0.79161 0.0
C756 C 0.83276 0.07304 0.70406 0.0
C757 C 0.83064 0.0742 0.76735 0.0
C758 C 0.84671 0.09618 0.80207 0.0
C759 C 0.80324 0.02827 0.70406 0.0
C760 C 0.78849 0.00617 0.73608 0.0
C761 C 0.80044 0.02969 0.76713 0.0
C762 C 0.76879 0.95861 0.73876 0.0
C763 C 0.7899 0.00449 0.66995 0.0
C764 C 0.72831 0.93306 0.75505 0.0
C765 C 0.71441 0.88983 0.7638 0.0
C766 C 0.74134 0.87218 0.75717 0.0
C767 C 0.78103 0.89741 0.73975 0.0
C768 C 0.79451 0.94012 0.73047 0.0
H769 H 0.79188 0.02632 0.64845 0.0
H770 H 0.81227 0.99208 0.66366 0.0
H771 H 0.75625 0.97646 0.67137 0.0
H772 H 0.7084 0.94706 0.76226 0.0
H773 H 0.68408 0.87124 0.77753 0.0
loop_
_geom_bond_atom_site_label_1
_geom_bond_atom_site_label_2
_geom_bond_distance
_geom_bond_site_symmetry_2
_ccdc_geom_bond_type
Zn0 O6 1.920 . S
Zn0 O12 1.898 . S
Zn0 O15 1.905 1_545 S
Zn1 O9 1.905 . S
Zn1 O10 1.898 . S
Zn1 O18 1.920 . S
Zn2 O5 2.080 . S
Zn2 O8 2.114 . S
Zn2 O11 2.120 . S
Zn2 O13 2.120 . S
Zn2 O14 2.114 . S
Zn2 O17 2.080 . S
C3 O8 1.166 . S
C3 O9 1.182 . S
C4 O10 1.167 . S
C4 O11 1.299 . S
O5 Zn2 2.080 . S
O5 C19 1.305 . S
O6 Zn0 1.920 . S
O6 C19 1.234 . S
C7 O12 1.167 . S
C7 O13 1.299 . S
O8 Zn2 2.114 . S
O8 C3 1.166 . S
O9 Zn1 1.905 . S
O9 C3 1.182 . S
O10 Zn1 1.898 . S
O10 C4 1.167 . S
O11 Zn2 2.120 . S
O11 C4 1.299 . S
O12 Zn0 1.898 . S
O12 C7 1.167 . S
O13 Zn2 2.120 . S
O13 C7 1.299 . S
O14 Zn2 2.114 . S
O14 C16 1.166 1_545 S
O15 Zn0 1.905 1_565 S
O15 C16 1.179 . S
C16 O14 1.166 1_565 S
C16 O15 1.179 . S
O17 Zn2 2.080 . S
O17 C20 1.305 . S
O18 Zn1 1.920 . S
O18 C20 1.234 . S
C19 O5 1.305 . S
C19 O6 1.234 . S
C20 O17 1.305 . S
C20 O18 1.234 . S
Zn21 O27 1.920 . S
Zn21 O33 1.898 . S
Zn21 O36 1.905 . S
Zn22 O30 1.905 . S
Zn22 O31 1.898 . S
Zn22 O39 1.920 . S
Zn23 O26 2.080 . S
Zn23 O29 2.114 . S
Zn23 O32 2.120 . S
Zn23 O34 2.120 . S
Zn23 O35 2.114 . S
Zn23 O38 2.080 . S
C24 O29 1.166 . S
C24 O30 1.182 . S
C25 O31 1.167 . S
C25 O32 1.299 . S
O26 Zn23 2.080 . S
O26 C40 1.305 . S
O27 Zn21 1.920 . S
O27 C40 1.234 . S
C28 O33 1.167 . S
C28 O34 1.299 . S
O29 Zn23 2.114 . S
O29 C24 1.166 . S
O30 Zn22 1.905 . S
O30 C24 1.182 . S
O31 Zn22 1.898 . S
O31 C25 1.167 . S
O32 Zn23 2.120 . S
O32 C25 1.299 . S
O33 Zn21 1.898 . S
O33 C28 1.167 . S
O34 Zn23 2.120 . S
O34 C28 1.299 . S
O35 Zn23 2.114 . S
O35 C37 1.166 . S
O36 Zn21 1.905 . S
O36 C37 1.182 . S
C37 O35 1.166 . S
C37 O36 1.182 . S
O38 Zn23 2.080 . S
O38 C41 1.305 . S
O39 Zn22 1.920 . S
O39 C41 1.234 . S
C40 O26 1.305 . S
C40 O27 1.234 . S
C41 O38 1.305 . S
C41 O39 1.234 . S
Zn42 O48 1.920 . S
Zn42 O54 1.898 . S
Zn42 O57 1.905 1_655 S
Zn43 O51 1.905 . S
Zn43 O52 1.898 . S
Zn43 O60 1.920 . S
Zn44 O47 2.080 . S
Zn44 O50 2.114 . S
Zn44 O53 2.120 . S
Zn44 O55 2.120 . S
Zn44 O56 2.114 . S
Zn44 O59 2.080 . S
C45 O50 1.166 . S
C45 O51 1.182 . S
C46 O52 1.167 . S
C46 O53 1.299 . S
O47 Zn44 2.080 . S
O47 C61 1.305 . S
O48 Zn42 1.920 . S
O48 C61 1.234 . S
C49 O54 1.167 . S
C49 O55 1.299 . S
O50 Zn44 2.114 . S
O50 C45 1.166 . S
O51 Zn43 1.905 . S
O51 C45 1.182 . S
O52 Zn43 1.898 . S
O52 C46 1.167 . S
O53 Zn44 2.120 . S
O53 C46 1.299 . S
O54 Zn42 1.898 . S
O54 C49 1.167 . S
O55 Zn44 2.120 . S
O55 C49 1.299 . S
O56 Zn44 2.114 . S
O56 C58 1.158 1_655 S
O57 Zn42 1.905 1_455 S
O57 C58 1.186 . S
C58 O56 1.158 1_455 S
C58 O57 1.186 . S
O59 Zn44 2.080 . S
O59 C62 1.305 . S
O60 Zn43 1.920 . S
O60 C62 1.234 . S
C61 O47 1.305 . S
C61 O48 1.234 . S
C62 O59 1.305 . S
C62 O60 1.234 . S
Zn63 O69 1.920 . S
Zn63 O75 1.898 . S
Zn63 O78 1.905 1_455 S
Zn64 O72 1.905 . S
Zn64 O73 1.898 . S
Zn64 O81 1.920 . S
Zn65 O68 2.080 . S
Zn65 O71 2.114 . S
Zn65 O74 2.120 . S
Zn65 O76 2.120 . S
Zn65 O77 2.114 . S
Zn65 O80 2.080 . S
C66 O71 1.166 . S
C66 O72 1.182 . S
C67 O73 1.167 . S
C67 O74 1.299 . S
O68 Zn65 2.080 . S
O68 C82 1.305 . S
O69 Zn63 1.920 . S
O69 C82 1.234 . S
C70 O75 1.167 . S
C70 O76 1.299 . S
O71 Zn65 2.114 . S
O71 C66 1.166 . S
O72 Zn64 1.905 . S
O72 C66 1.182 . S
O73 Zn64 1.898 . S
O73 C67 1.167 . S
O74 Zn65 2.120 . S
O74 C67 1.299 . S
O75 Zn63 1.898 . S
O75 C70 1.167 . S
O76 Zn65 2.120 . S
O76 C70 1.299 . S
O77 Zn65 2.114 . S
O77 C79 1.166 1_455 S
O78 Zn63 1.905 1_655 S
O78 C79 1.179 . S
C79 O77 1.166 1_655 S
C79 O78 1.179 . S
O80 Zn65 2.080 . S
O80 C83 1.305 . S
O81 Zn64 1.920 . S
O81 C83 1.234 . S
C82 O68 1.305 . S
C82 O69 1.234 . S
C83 O80 1.305 . S
C83 O81 1.234 . S
Zn84 O90 1.920 . S
Zn84 O96 1.898 . S
Zn84 O99 1.905 . S
Zn85 O93 1.905 1_565 S
Zn85 O94 1.898 . S
Zn85 O102 1.920 . S
Zn86 O89 2.080 . S
Zn86 O92 2.114 . S
Zn86 O95 2.120 . S
Zn86 O97 2.120 . S
Zn86 O98 2.114 . S
Zn86 O101 2.080 . S
C87 O92 1.158 1_545 S
C87 O93 1.186 . S
C88 O94 1.167 . S
C88 O95 1.299 . S
O89 Zn86 2.080 . S
O89 C103 1.305 . S
O90 Zn84 1.920 . S
O90 C103 1.234 . S
C91 O96 1.167 . S
C91 O97 1.299 . S
O92 Zn86 2.114 . S
O92 C87 1.158 1_565 S
O93 Zn85 1.905 1_545 S
O93 C87 1.186 . S
O94 Zn85 1.898 . S
O94 C88 1.167 . S
O95 Zn86 2.120 . S
O95 C88 1.299 . S
O96 Zn84 1.898 . S
O96 C91 1.167 . S
O97 Zn86 2.120 . S
O97 C91 1.299 . S
O98 Zn86 2.114 . S
O98 C100 1.166 . S
O99 Zn84 1.905 . S
O99 C100 1.182 . S
C100 O98 1.166 . S
C100 O99 1.182 . S
O101 Zn86 2.080 . S
O101 C104 1.305 . S
O102 Zn85 1.920 . S
O102 C104 1.234 . S
C103 O89 1.305 . S
C103 O90 1.234 . S
C104 O101 1.305 . S
C104 O102 1.234 . S
Zn105 O111 1.920 . S
Zn105 O117 1.898 . S
Zn105 O120 1.905 . S
Zn106 O114 1.905 . S
Zn106 O115 1.898 . S
Zn106 O123 1.920 . S
Zn107 O110 2.080 . S
Zn107 O113 2.114 . S
Zn107 O116 2.120 . S
Zn107 O118 2.120 . S
Zn107 O119 2.114 . S
Zn107 O122 2.080 . S
C108 O113 1.166 . S
C108 O114 1.182 . S
C109 O115 1.167 . S
C109 O116 1.299 . S
O110 Zn107 2.080 . S
O110 C124 1.305 . S
O111 Zn105 1.920 . S
O111 C124 1.234 . S
C112 O117 1.167 . S
C112 O118 1.299 . S
O113 Zn107 2.114 . S
O113 C108 1.166 . S
O114 Zn106 1.905 . S
O114 C108 1.182 . S
O115 Zn106 1.898 . S
O115 C109 1.167 . S
O116 Zn107 2.120 . S
O116 C109 1.299 . S
O117 Zn105 1.898 . S
O117 C112 1.167 . S
O118 Zn107 2.120 . S
O118 C112 1.299 . S
O119 Zn107 2.114 . S
O119 C121 1.166 . S
O120 Zn105 1.905 . S
O120 C121 1.182 . S
C121 O119 1.166 . S
C121 O120 1.182 . S
O122 Zn107 2.080 . S
O122 C125 1.305 . S
O123 Zn106 1.920 . S
O123 C125 1.234 . S
C124 O110 1.305 . S
C124 O111 1.234 . S
C125 O122 1.305 . S
C125 O123 1.234 . S
H126 C134 0.929 1_545 S
H127 C136 0.915 1_545 S
H128 C138 0.930 . S
H129 C141 0.929 . S
H130 C144 0.930 . S
H131 C146 0.960 1_554 S
H132 C146 0.960 . S
H133 C146 0.960 . S
C134 H126 0.929 1_565 S
C134 C135 1.377 . S
C134 C136 1.390 . S
C135 C134 1.377 . S
C135 C141 1.390 . S
C136 H127 0.915 1_565 S
C136 C134 1.390 . S
C136 C137 1.381 . S
C137 C136 1.381 . S
C137 C138 1.400 . S
C137 C142 1.490 . S
C138 H128 0.930 . S
C138 C137 1.400 . S
C138 C141 1.386 . S
H139 C155 0.930 . S
H140 C156 0.931 1_565 S
C141 H129 0.929 . S
C141 C135 1.390 . S
C141 C138 1.386 . S
C142 C137 1.490 . S
C142 C144 1.395 1_565 S
C142 C145 1.403 . S
H143 C149 0.930 . S
C144 H130 0.930 . S
C144 C142 1.395 1_545 S
C144 C147 1.403 1_556 S
C145 C142 1.403 . S
C145 C146 1.524 . S
C145 C149 1.400 1_556 S
C146 H131 0.960 1_556 S
C146 H132 0.960 . S
C146 H133 0.960 . S
C146 C145 1.524 . S
C147 C144 1.403 1_554 S
C147 C148 1.392 . S
C147 C151 1.495 . S
C148 C147 1.392 . S
C148 C149 1.385 1_545 S
C148 C150 1.478 . S
C149 H143 0.930 . S
C149 C145 1.400 1_554 S
C149 C148 1.385 1_565 S
C150 C148 1.478 . S
C150 C152 1.381 . S
C150 C156 1.383 . S
C151 C147 1.495 . S
C151 H157 0.959 1_554 S
C151 H158 0.961 . S
C151 H159 0.960 . S
C152 C150 1.381 . S
C152 C153 1.394 . S
C152 H160 0.930 . S
C153 C152 1.394 . S
C153 C154 1.383 . S
C153 H161 0.929 . S
C154 C153 1.383 . S
C154 C155 1.377 . S
C155 H139 0.930 . S
C155 C154 1.377 . S
C155 C156 1.379 . S
C156 H140 0.931 1_545 S
C156 C150 1.383 . S
C156 C155 1.379 . S
H157 C151 0.959 1_556 S
H158 C151 0.961 . S
H159 C151 0.960 . S
H160 C152 0.930 . S
H161 C153 0.929 . S
H162 C170 0.929 . S
H163 C172 0.930 . S
H164 C174 0.930 . S
H165 C177 0.929 . S
H166 C180 0.930 . S
H167 C182 0.960 . S
H168 C182 0.960 . S
H169 C182 0.960 . S
C170 H162 0.929 . S
C170 C171 1.377 . S
C170 C172 1.384 . S
C171 C170 1.377 . S
C171 C177 1.390 . S
C172 H163 0.930 . S
C172 C170 1.384 . S
C172 C173 1.372 . S
C173 C172 1.372 . S
C173 C174 1.400 . S
C173 C178 1.490 . S
C174 H164 0.930 . S
C174 C173 1.400 . S
C174 C177 1.386 . S
H175 C191 0.930 . S
H176 C192 0.931 . S
C177 H165 0.929 . S
C177 C171 1.390 . S
C177 C174 1.386 . S
C178 C173 1.490 . S
C178 C180 1.395 . S
C178 C181 1.403 . S
H179 C185 0.930 . S
C180 H166 0.930 . S
C180 C178 1.395 . S
C180 C183 1.403 . S
C181 C178 1.403 . S
C181 C182 1.524 . S
C181 C185 1.400 . S
C182 H167 0.960 . S
C182 H168 0.960 . S
C182 H169 0.960 . S
C182 C181 1.524 . S
C183 C180 1.403 . S
C183 C184 1.392 . S
C183 C187 1.495 . S
C184 C183 1.392 . S
C184 C185 1.385 . S
C184 C186 1.478 . S
C185 H179 0.930 . S
C185 C181 1.400 . S
C185 C184 1.385 . S
C186 C184 1.478 . S
C186 C188 1.381 . S
C186 C192 1.383 . S
C187 C183 1.495 . S
C187 H193 0.959 . S
C187 H194 0.961 . S
C187 H195 0.960 . S
C188 C186 1.381 . S
C188 C189 1.394 . S
C188 H196 0.930 . S
C189 C188 1.394 . S
C189 C190 1.383 . S
C189 H197 0.929 . S
C190 C189 1.383 . S
C190 C191 1.377 . S
C191 H175 0.930 . S
C191 C190 1.377 . S
C191 C192 1.379 . S
C192 H176 0.931 . S
C192 C186 1.383 . S
C192 C191 1.379 . S
H193 C187 0.959 . S
H194 C187 0.961 . S
H195 C187 0.960 . S
H196 C188 0.930 . S
H197 C189 0.929 . S
H198 C206 0.929 . S
H199 C208 0.930 . S
H200 C210 0.930 . S
H201 C213 0.929 . S
H202 C216 0.930 . S
H203 C218 0.960 . S
H204 C218 0.960 . S
H205 C218 0.960 . S
C206 H198 0.929 . S
C206 C207 1.377 . S
C206 C208 1.384 . S
C207 C206 1.377 . S
C207 C213 1.390 . S
C208 H199 0.930 . S
C208 C206 1.384 . S
C208 C209 1.372 . S
C209 C208 1.372 . S
C209 C210 1.400 . S
C209 C214 1.490 . S
C210 H200 0.930 . S
C210 C209 1.400 . S
C210 C213 1.386 . S
H211 C227 0.930 . S
H212 C228 0.931 . S
C213 H201 0.929 . S
C213 C207 1.390 . S
C213 C210 1.386 . S
C214 C209 1.490 . S
C214 C216 1.395 . S
C214 C217 1.403 1_655 S
H215 C221 0.930 . S
C216 H202 0.930 . S
C216 C214 1.395 . S
C216 C219 1.403 1_554 S
C217 C214 1.403 1_455 S
C217 C218 1.524 . S
C217 C221 1.400 1_554 S
C218 H203 0.960 . S
C218 H204 0.960 . S
C218 H205 0.960 . S
C218 C217 1.524 . S
C219 C216 1.403 1_556 S
C219 C220 1.392 1_655 S
C219 C223 1.495 . S
C220 C219 1.392 1_455 S
C220 C221 1.385 . S
C220 C222 1.478 . S
C221 H215 0.930 . S
C221 C217 1.400 1_556 S
C221 C220 1.385 . S
C222 C220 1.478 . S
C222 C224 1.381 . S
C222 C228 1.383 . S
C223 C219 1.495 . S
C223 H229 0.959 . S
C223 H230 0.961 . S
C223 H231 0.960 . S
C224 C222 1.381 . S
C224 C225 1.394 . S
C224 H232 0.930 . S
C225 C224 1.394 . S
C225 C226 1.383 . S
C225 H233 0.929 . S
C226 C225 1.383 . S
C226 C227 1.377 . S
C227 H211 0.930 . S
C227 C226 1.377 . S
C227 C228 1.379 . S
C228 H212 0.931 . S
C228 C222 1.383 . S
C228 C227 1.379 . S
H229 C223 0.959 . S
H230 C223 0.961 . S
H231 C223 0.960 . S
H232 C224 0.930 . S
H233 C225 0.929 . S
H234 C242 0.929 . S
H235 C244 0.930 1_565 S
H236 C246 0.930 . S
H237 C249 0.929 . S
H238 C252 0.930 . S
H239 C254 0.960 . S
H240 C254 0.960 . S
H241 C254 0.960 . S
C242 H234 0.929 . S
C242 C243 1.377 . S
C242 C244 1.384 . S
C243 C242 1.377 . S
C243 C249 1.390 . S
C244 H235 0.930 1_545 S
C244 C242 1.384 . S
C244 C245 1.372 . S
C245 C244 1.372 . S
C245 C246 1.400 . S
C245 C250 1.490 . S
C246 H236 0.930 . S
C246 C245 1.400 . S
C246 C249 1.386 . S
H247 C263 0.930 . S
H248 C264 0.931 . S
C249 H237 0.929 . S
C249 C243 1.390 . S
C249 C246 1.386 . S
C250 C245 1.490 . S
C250 C252 1.395 1_545 S
C250 C253 1.403 . S
H251 C257 0.930 . S
C252 H238 0.930 . S
C252 C250 1.395 1_565 S
C252 C255 1.403 . S
C253 C250 1.403 . S
C253 C254 1.524 . S
C253 C257 1.400 . S
C254 H239 0.960 . S
C254 H240 0.960 . S
C254 H241 0.960 . S
C254 C253 1.524 . S
C255 C252 1.403 . S
C255 C256 1.392 . S
C255 C259 1.495 . S
C256 C255 1.392 . S
C256 C257 1.385 1_565 S
C256 C258 1.478 . S
C257 H251 0.930 . S
C257 C253 1.400 . S
C257 C256 1.385 1_545 S
C258 C256 1.478 . S
C258 C260 1.381 . S
C258 C264 1.383 . S
C259 C255 1.495 . S
C259 H265 0.959 . S
C259 H266 0.961 . S
C259 H267 0.960 . S
C260 C258 1.381 . S
C260 C261 1.394 . S
C260 H268 0.930 . S
C261 C260 1.394 . S
C261 C262 1.383 . S
C261 H269 0.929 . S
C262 C261 1.383 . S
C262 C263 1.377 . S
C263 H247 0.930 . S
C263 C262 1.377 . S
C263 C264 1.379 . S
C264 H248 0.931 . S
C264 C258 1.383 . S
C264 C263 1.379 . S
H265 C259 0.959 . S
H266 C259 0.961 . S
H267 C259 0.960 . S
H268 C260 0.930 . S
H269 C261 0.929 . S
H270 C278 0.929 . S
H271 C280 0.930 . S
H272 C282 0.930 . S
H273 C285 0.929 . S
H274 C288 0.930 . S
H275 C290 0.960 1_554 S
H276 C290 0.960 . S
H277 C290 0.960 . S
C278 H270 0.929 . S
C278 C279 1.377 . S
C278 C280 1.384 . S
C279 C278 1.377 . S
C279 C285 1.390 . S
C280 H271 0.930 . S
C280 C278 1.384 . S
C280 C281 1.372 . S
C281 C280 1.372 . S
C281 C282 1.400 . S
C281 C286 1.490 . S
C282 H272 0.930 . S
C282 C281 1.400 . S
C282 C285 1.386 . S
H283 C299 0.930 . S
H284 C300 0.931 . S
C285 H273 0.929 . S
C285 C279 1.390 . S
C285 C282 1.386 . S
C286 C281 1.490 . S
C286 C288 1.395 . S
C286 C289 1.403 . S
H287 C293 0.930 . S
C288 H274 0.930 . S
C288 C286 1.395 . S
C288 C291 1.403 1_556 S
C289 C286 1.403 . S
C289 C290 1.524 . S
C289 C293 1.400 1_556 S
C290 H275 0.960 1_556 S
C290 H276 0.960 . S
C290 H277 0.960 . S
C290 C289 1.524 . S
C291 C288 1.403 1_554 S
C291 C292 1.392 . S
C291 C295 1.495 . S
C292 C291 1.392 . S
C292 C293 1.385 . S
C292 C294 1.478 . S
C293 H287 0.930 . S
C293 C289 1.400 1_554 S
C293 C292 1.385 . S
C294 C292 1.478 . S
C294 C296 1.381 . S
C294 C300 1.383 . S
C295 C291 1.495 . S
C295 H301 0.959 1_554 S
C295 H302 0.961 . S
C295 H303 0.960 . S
C296 C294 1.381 . S
C296 C297 1.394 . S
C296 H304 0.930 . S
C297 C296 1.394 . S
C297 C298 1.383 . S
C297 H305 0.929 . S
C298 C297 1.383 . S
C298 C299 1.377 . S
C299 H283 0.930 . S
C299 C298 1.377 . S
C299 C300 1.379 . S
C300 H284 0.931 . S
C300 C294 1.383 . S
C300 C299 1.379 . S
H301 C295 0.959 1_556 S
H302 C295 0.961 . S
H303 C295 0.960 . S
H304 C296 0.930 . S
H305 C297 0.929 . S
H306 C314 0.929 . S
H307 C316 0.930 . S
H308 C318 0.930 . S
H309 C321 0.929 . S
H310 C324 0.930 . S
H311 C326 0.960 . S
H312 C326 0.960 . S
H313 C326 0.960 . S
C314 H306 0.929 . S
C314 C315 1.377 . S
C314 C316 1.384 . S
C315 C314 1.377 . S
C315 C321 1.390 . S
C316 H307 0.930 . S
C316 C314 1.384 . S
C316 C317 1.372 . S
C317 C316 1.372 . S
C317 C318 1.400 . S
C317 C322 1.490 . S
C318 H308 0.930 . S
C318 C317 1.400 . S
C318 C321 1.386 . S
H319 C335 0.930 . S
H320 C336 0.931 . S
C321 H309 0.929 . S
C321 C315 1.390 . S
C321 C318 1.386 . S
C322 C317 1.490 . S
C322 C324 1.395 1_655 S
C322 C325 1.403 . S
H323 C329 0.930 . S
C324 H310 0.930 . S
C324 C322 1.395 1_455 S
C324 C327 1.403 . S
C325 C322 1.403 . S
C325 C326 1.524 . S
C325 C329 1.400 . S
C326 H311 0.960 . S
C326 H312 0.960 . S
C326 H313 0.960 . S
C326 C325 1.524 . S
C327 C324 1.403 . S
C327 C328 1.392 . S
C327 C331 1.495 . S
C328 C327 1.392 . S
C328 C329 1.385 1_455 S
C328 C330 1.478 . S
C329 H323 0.930 . S
C329 C325 1.400 . S
C329 C328 1.385 1_655 S
C330 C328 1.478 . S
C330 C332 1.381 . S
C330 C336 1.383 . S
C331 C327 1.495 . S
C331 H337 0.959 . S
C331 H338 0.961 . S
C331 H339 0.960 . S
C332 C330 1.381 . S
C332 C333 1.394 . S
C332 H340 0.930 . S
C333 C332 1.394 . S
C333 C334 1.383 . S
C333 H341 0.929 . S
C334 C333 1.383 . S
C334 C335 1.377 . S
C335 H319 0.930 . S
C335 C334 1.377 . S
C335 C336 1.379 . S
C336 H320 0.931 . S
C336 C330 1.383 . S
C336 C335 1.379 . S
H337 C331 0.959 . S
H338 C331 0.961 . S
H339 C331 0.960 . S
H340 C332 0.930 . S
H341 C333 0.929 . S
H342 C350 0.929 . S
H343 C352 0.930 . S
H344 C354 0.930 . S
H345 C357 0.929 . S
H346 C360 0.930 . S
H347 C362 0.960 . S
H348 C362 0.960 . S
H349 C362 0.960 . S
C350 H342 0.929 . S
C350 C351 1.377 . S
C350 C352 1.384 . S
C351 C350 1.377 . S
C351 C357 1.390 . S
C352 H343 0.930 . S
C352 C350 1.384 . S
C352 C353 1.372 . S
C353 C352 1.372 . S
C353 C354 1.400 . S
C353 C358 1.490 . S
C354 H344 0.930 . S
C354 C353 1.400 . S
C354 C357 1.386 . S
H355 C371 0.930 . S
H356 C372 0.931 . S
C357 H345 0.929 . S
C357 C351 1.390 . S
C357 C354 1.386 . S
C358 C353 1.490 . S
C358 C360 1.395 . S
C358 C361 1.403 . S
H359 C365 0.930 . S
C360 H346 0.930 . S
C360 C358 1.395 . S
C360 C363 1.403 . S
C361 C358 1.403 . S
C361 C362 1.524 . S
C361 C365 1.400 . S
C362 H347 0.960 . S
C362 H348 0.960 . S
C362 H349 0.960 . S
C362 C361 1.524 . S
C363 C360 1.403 . S
C363 C364 1.392 . S
C363 C367 1.495 . S
C364 C363 1.392 . S
C364 C365 1.385 . S
C364 C366 1.478 . S
C365 H359 0.930 . S
C365 C361 1.400 . S
C365 C364 1.385 . S
C366 C364 1.478 . S
C366 C368 1.381 . S
C366 C372 1.383 . S
C367 C363 1.495 . S
C367 H373 0.959 . S
C367 H374 0.961 . S
C367 H375 0.960 . S
C368 C366 1.381 . S
C368 C369 1.394 . S
C368 H376 0.930 . S
C369 C368 1.394 . S
C369 C370 1.383 . S
C369 H377 0.929 . S
C370 C369 1.383 . S
C370 C371 1.377 . S
C371 H355 0.930 . S
C371 C370 1.377 . S
C371 C372 1.379 . S
C372 H356 0.931 . S
C372 C366 1.383 . S
C372 C371 1.379 . S
H373 C367 0.959 . S
H374 C367 0.961 . S
H375 C367 0.960 . S
H376 C368 0.930 . S
H377 C369 0.929 . S
H378 C386 0.929 . S
H379 C388 0.930 . S
H380 C390 0.930 . S
H381 C393 0.929 . S
H382 C396 0.930 . S
H383 C398 0.960 . S
H384 C398 0.960 . S
H385 C398 0.960 . S
C386 H378 0.929 . S
C386 C387 1.377 . S
C386 C388 1.384 . S
C387 C386 1.377 . S
C387 C393 1.390 . S
C388 H379 0.930 . S
C388 C386 1.384 . S
C388 C389 1.372 . S
C389 C388 1.372 . S
C389 C390 1.400 . S
C389 C394 1.490 . S
C390 H380 0.930 . S
C390 C389 1.400 . S
C390 C393 1.386 . S
H391 C407 0.930 . S
H392 C408 0.931 . S
C393 H381 0.929 . S
C393 C387 1.390 . S
C393 C390 1.386 . S
C394 C389 1.490 . S
C394 C396 1.395 . S
C394 C397 1.403 . S
H395 C401 0.930 . S
C396 H382 0.930 . S
C396 C394 1.395 . S
C396 C399 1.403 . S
C397 C394 1.403 . S
C397 C398 1.524 . S
C397 C401 1.400 . S
C398 H383 0.960 . S
C398 H384 0.960 . S
C398 H385 0.960 . S
C398 C397 1.524 . S
C399 C396 1.403 . S
C399 C400 1.392 . S
C399 C403 1.495 . S
C400 C399 1.392 . S
C400 C401 1.385 . S
C400 C402 1.478 . S
C401 H395 0.930 . S
C401 C397 1.400 . S
C401 C400 1.385 . S
C402 C400 1.478 . S
C402 C404 1.381 . S
C402 C408 1.383 . S
C403 C399 1.495 . S
C403 H409 0.959 . S
C403 H410 0.961 . S
C403 H411 0.960 . S
C404 C402 1.381 . S
C404 C405 1.394 . S
C404 H412 0.930 . S
C405 C404 1.394 . S
C405 C406 1.383 . S
C405 H413 0.929 . S
C406 C405 1.383 . S
C406 C407 1.377 . S
C407 H391 0.930 . S
C407 C406 1.377 . S
C407 C408 1.379 . S
C408 H392 0.931 . S
C408 C402 1.383 . S
C408 C407 1.379 . S
H409 C403 0.959 . S
H410 C403 0.961 . S
H411 C403 0.960 . S
H412 C404 0.930 . S
H413 C405 0.929 . S
H414 C422 0.929 . S
H415 C424 0.930 . S
H416 C426 0.930 . S
H417 C429 0.929 . S
H418 C432 0.930 . S
H419 C434 0.960 . S
H420 C434 0.960 . S
H421 C434 0.960 . S
C422 H414 0.929 . S
C422 C423 1.377 . S
C422 C424 1.384 . S
C423 C422 1.377 . S
C423 C429 1.390 . S
C424 H415 0.930 . S
C424 C422 1.384 . S
C424 C425 1.372 . S
C425 C424 1.372 . S
C425 C426 1.400 . S
C425 C430 1.490 . S
C426 H416 0.930 . S
C426 C425 1.400 . S
C426 C429 1.386 . S
H427 C443 0.930 . S
H428 C444 0.931 . S
C429 H417 0.929 . S
C429 C423 1.390 . S
C429 C426 1.386 . S
C430 C425 1.490 . S
C430 C432 1.395 . S
C430 C433 1.403 . S
H431 C437 0.930 . S
C432 H418 0.930 . S
C432 C430 1.395 . S
C432 C435 1.403 . S
C433 C430 1.403 . S
C433 C434 1.524 . S
C433 C437 1.400 . S
C434 H419 0.960 . S
C434 H420 0.960 . S
C434 H421 0.960 . S
C434 C433 1.524 . S
C435 C432 1.403 . S
C435 C436 1.392 . S
C435 C439 1.495 . S
C436 C435 1.392 . S
C436 C437 1.385 . S
C436 C438 1.478 . S
C437 H431 0.930 . S
C437 C433 1.400 . S
C437 C436 1.385 . S
C438 C436 1.478 . S
C438 C440 1.381 . S
C438 C444 1.383 . S
C439 C435 1.495 . S
C439 H445 0.959 . S
C439 H446 0.961 . S
C439 H447 0.960 . S
C440 C438 1.381 . S
C440 C441 1.394 . S
C440 H448 0.930 . S
C441 C440 1.394 . S
C441 C442 1.383 . S
C441 H449 0.929 . S
C442 C441 1.383 . S
C442 C443 1.377 . S
C443 H427 0.930 . S
C443 C442 1.377 . S
C443 C444 1.379 . S
C444 H428 0.931 . S
C444 C438 1.383 . S
C444 C443 1.379 . S
H445 C439 0.959 . S
H446 C439 0.961 . S
H447 C439 0.960 . S
H448 C440 0.930 . S
H449 C441 0.929 . S
H450 C458 0.929 . S
H451 C460 0.930 . S
H452 C462 0.930 . S
H453 C465 0.929 . S
H454 C468 0.930 . S
H455 C470 0.960 . S
H456 C470 0.960 . S
H457 C470 0.960 . S
C458 H450 0.929 . S
C458 C459 1.377 . S
C458 C460 1.384 . S
C459 C458 1.377 . S
C459 C465 1.390 . S
C460 H451 0.930 . S
C460 C458 1.384 . S
C460 C461 1.372 . S
C461 C460 1.372 . S
C461 C462 1.400 . S
C461 C466 1.490 . S
C462 H452 0.930 . S
C462 C461 1.400 . S
C462 C465 1.386 . S
H463 C479 0.930 . S
H464 C480 0.931 . S
C465 H453 0.929 . S
C465 C459 1.390 . S
C465 C462 1.386 . S
C466 C461 1.490 . S
C466 C468 1.395 . S
C466 C469 1.403 . S
H467 C473 0.930 . S
C468 H454 0.930 . S
C468 C466 1.395 . S
C468 C471 1.403 . S
C469 C466 1.403 . S
C469 C470 1.524 . S
C469 C473 1.400 . S
C470 H455 0.960 . S
C470 H456 0.960 . S
C470 H457 0.960 . S
C470 C469 1.524 . S
C471 C468 1.403 . S
C471 C472 1.392 . S
C471 C475 1.495 . S
C472 C471 1.392 . S
C472 C473 1.385 . S
C472 C474 1.478 . S
C473 H467 0.930 . S
C473 C469 1.400 . S
C473 C472 1.385 . S
C474 C472 1.478 . S
C474 C476 1.381 . S
C474 C480 1.383 . S
C475 C471 1.495 . S
C475 H481 0.959 . S
C475 H482 0.961 . S
C475 H483 0.960 . S
C476 C474 1.381 . S
C476 C477 1.394 . S
C476 H484 0.930 . S
C477 C476 1.394 . S
C477 C478 1.383 . S
C477 H485 0.929 . S
C478 C477 1.383 . S
C478 C479 1.377 . S
C479 H463 0.930 . S
C479 C478 1.377 . S
C479 C480 1.379 . S
C480 H464 0.931 . S
C480 C474 1.383 . S
C480 C479 1.379 . S
H481 C475 0.959 . S
H482 C475 0.961 . S
H483 C475 0.960 . S
H484 C476 0.930 . S
H485 C477 0.929 . S
H486 C494 0.929 . S
H487 C496 0.930 . S
H488 C498 0.930 . S
H489 C501 0.929 . S
H490 C504 0.930 . S
H491 C506 0.960 . S
H492 C506 0.960 . S
H493 C506 0.960 . S
C494 H486 0.929 . S
C494 C495 1.377 . S
C494 C496 1.384 . S
C495 C494 1.377 . S
C495 C501 1.390 . S
C496 H487 0.930 . S
C496 C494 1.384 . S
C496 C497 1.372 . S
C497 C496 1.372 . S
C497 C498 1.400 . S
C497 C502 1.490 . S
C498 H488 0.930 . S
C498 C497 1.400 . S
C498 C501 1.386 . S
H499 C515 0.930 . S
H500 C516 0.931 . S
C501 H489 0.929 . S
C501 C495 1.390 . S
C501 C498 1.386 . S
C502 C497 1.490 . S
C502 C504 1.395 . S
C502 C505 1.403 . S
H503 C509 0.930 . S
C504 H490 0.930 . S
C504 C502 1.395 . S
C504 C507 1.403 . S
C505 C502 1.403 . S
C505 C506 1.524 . S
C505 C509 1.400 . S
C506 H491 0.960 . S
C506 H492 0.960 . S
C506 H493 0.960 . S
C506 C505 1.524 . S
C507 C504 1.403 . S
C507 C508 1.392 . S
C507 C511 1.495 . S
C508 C507 1.392 . S
C508 C509 1.385 . S
C508 C510 1.478 . S
C509 H503 0.930 . S
C509 C505 1.400 . S
C509 C508 1.385 . S
C510 C508 1.478 . S
C510 C512 1.381 . S
C510 C516 1.383 . S
C511 C507 1.495 . S
C511 H517 0.959 . S
C511 H518 0.961 . S
C511 H519 0.960 . S
C512 C510 1.381 . S
C512 C513 1.394 . S
C512 H520 0.930 . S
C513 C512 1.394 . S
C513 C514 1.383 . S
C513 H521 0.929 . S
C514 C513 1.383 . S
C514 C515 1.377 . S
C515 H499 0.930 . S
C515 C514 1.377 . S
C515 C516 1.379 . S
C516 H500 0.931 . S
C516 C510 1.383 . S
C516 C515 1.379 . S
H517 C511 0.959 . S
H518 C511 0.961 . S
H519 C511 0.960 . S
H520 C512 0.930 . S
H521 C513 0.929 . S
H522 C530 0.929 . S
H523 C532 0.930 . S
H524 C534 0.930 . S
H525 C537 0.929 . S
H526 C540 0.930 . S
H527 C542 0.960 . S
H528 C542 0.960 . S
H529 C542 0.960 . S
C530 H522 0.929 . S
C530 C531 1.377 . S
C530 C532 1.384 . S
C531 C530 1.377 . S
C531 C537 1.390 . S
C532 H523 0.930 . S
C532 C530 1.384 . S
C532 C533 1.372 . S
C533 C532 1.372 . S
C533 C534 1.400 . S
C533 C538 1.490 . S
C534 H524 0.930 . S
C534 C533 1.400 . S
C534 C537 1.386 . S
H535 C551 0.930 . S
H536 C552 0.931 . S
C537 H525 0.929 . S
C537 C531 1.390 . S
C537 C534 1.386 . S
C538 C533 1.490 . S
C538 C540 1.395 . S
C538 C541 1.403 . S
H539 C545 0.930 . S
C540 H526 0.930 . S
C540 C538 1.395 . S
C540 C543 1.403 . S
C541 C538 1.403 . S
C541 C542 1.524 . S
C541 C545 1.400 . S
C542 H527 0.960 . S
C542 H528 0.960 . S
C542 H529 0.960 . S
C542 C541 1.524 . S
C543 C540 1.403 . S
C543 C544 1.392 . S
C543 C547 1.495 . S
C544 C543 1.392 . S
C544 C545 1.385 . S
C544 C546 1.478 . S
C545 H539 0.930 . S
C545 C541 1.400 . S
C545 C544 1.385 . S
C546 C544 1.478 . S
C546 C548 1.381 . S
C546 C552 1.383 . S
C547 C543 1.495 . S
C547 H553 0.959 . S
C547 H554 0.961 . S
C547 H555 0.960 . S
C548 C546 1.381 . S
C548 C549 1.394 . S
C548 H556 0.930 . S
C549 C548 1.394 . S
C549 C550 1.383 . S
C549 H557 0.929 . S
C550 C549 1.383 . S
C550 C551 1.377 . S
C551 H535 0.930 . S
C551 C550 1.377 . S
C551 C552 1.379 . S
C552 H536 0.931 . S
C552 C546 1.383 . S
C552 C551 1.379 . S
H553 C547 0.959 . S
H554 C547 0.961 . S
H555 C547 0.960 . S
H556 C548 0.930 . S
H557 C549 0.929 . S
H558 C566 0.929 . S
H559 C568 0.930 . S
H560 C570 0.930 . S
H561 C573 0.929 . S
H562 C576 0.930 . S
H563 C578 0.960 . S
H564 C578 0.960 . S
H565 C578 0.960 . S
C566 H558 0.929 . S
C566 C567 1.377 . S
C566 C568 1.384 . S
C567 C566 1.377 . S
C567 C573 1.390 . S
C568 H559 0.930 . S
C568 C566 1.384 . S
C568 C569 1.372 . S
C569 C568 1.372 . S
C569 C570 1.400 . S
C569 C574 1.490 . S
C570 H560 0.930 . S
C570 C569 1.400 . S
C570 C573 1.386 . S
H571 C587 0.930 1_655 S
H572 C588 0.931 . S
C573 H561 0.929 . S
C573 C567 1.390 . S
C573 C570 1.386 . S
C574 C569 1.490 . S
C574 C576 1.395 . S
C574 C577 1.403 . S
H575 C581 0.930 . S
C576 H562 0.930 . S
C576 C574 1.395 . S
C576 C579 1.403 . S
C577 C574 1.403 . S
C577 C578 1.524 . S
C577 C581 1.400 . S
C578 H563 0.960 . S
C578 H564 0.960 . S
C578 H565 0.960 . S
C578 C577 1.524 . S
C579 C576 1.403 . S
C579 C580 1.392 . S
C579 C583 1.495 . S
C580 C579 1.392 . S
C580 C581 1.385 . S
C580 C582 1.478 . S
C581 H575 0.930 . S
C581 C577 1.400 . S
C581 C580 1.385 . S
C582 C580 1.478 . S
C582 C584 1.381 . S
C582 C588 1.383 . S
C583 C579 1.495 . S
C583 H589 0.959 . S
C583 H590 0.961 . S
C583 H591 0.960 . S
C584 C582 1.381 . S
C584 C585 1.394 . S
C584 H592 0.930 . S
C585 C584 1.394 . S
C585 C586 1.383 . S
C585 H593 0.929 . S
C586 C585 1.383 . S
C586 C587 1.377 . S
C587 H571 0.930 1_455 S
C587 C586 1.377 . S
C587 C588 1.379 . S
C588 H572 0.931 . S
C588 C582 1.383 . S
C588 C587 1.379 . S
H589 C583 0.959 . S
H590 C583 0.961 . S
H591 C583 0.960 . S
H592 C584 0.930 . S
H593 C585 0.929 . S
H594 C602 0.929 . S
H595 C604 0.930 . S
H596 C606 0.930 . S
H597 C609 0.929 . S
H598 C612 0.930 . S
H599 C614 0.960 . S
H600 C614 0.960 1_655 S
H601 C614 0.961 1_655 S
C602 H594 0.929 . S
C602 C603 1.377 . S
C602 C604 1.384 . S
C603 C602 1.377 . S
C603 C609 1.390 . S
C604 H595 0.930 . S
C604 C602 1.384 . S
C604 C605 1.372 . S
C605 C604 1.372 . S
C605 C606 1.400 . S
C605 C610 1.490 1_655 S
C606 H596 0.930 . S
C606 C605 1.400 . S
C606 C609 1.386 . S
H607 C623 0.930 1_545 S
H608 C624 0.931 . S
C609 H597 0.929 . S
C609 C603 1.390 . S
C609 C606 1.386 . S
C610 C605 1.490 1_455 S
C610 C612 1.395 . S
C610 C613 1.403 . S
H611 C617 0.930 . S
C612 H598 0.930 . S
C612 C610 1.395 . S
C612 C615 1.403 . S
C613 C610 1.403 . S
C613 C614 1.523 . S
C613 C617 1.400 . S
C614 H599 0.960 . S
C614 H600 0.960 1_455 S
C614 H601 0.961 1_455 S
C614 C613 1.523 . S
C615 C612 1.403 . S
C615 C616 1.392 . S
C615 C619 1.495 . S
C616 C615 1.392 . S
C616 C617 1.385 . S
C616 C618 1.478 . S
C617 H611 0.930 . S
C617 C613 1.400 . S
C617 C616 1.385 . S
C618 C616 1.478 . S
C618 C620 1.381 . S
C618 C624 1.383 . S
C619 C615 1.495 . S
C619 H625 0.959 . S
C619 H626 0.961 . S
C619 H627 0.960 . S
C620 C618 1.381 . S
C620 C621 1.394 . S
C620 H628 0.930 . S
C621 C620 1.394 . S
C621 C622 1.383 . S
C621 H629 0.929 . S
C622 C621 1.383 . S
C622 C623 1.377 . S
C623 H607 0.930 1_565 S
C623 C622 1.377 . S
C623 C624 1.379 . S
C624 H608 0.931 . S
C624 C618 1.383 . S
C624 C623 1.379 . S
H625 C619 0.959 . S
H626 C619 0.961 . S
H627 C619 0.960 . S
H628 C620 0.930 . S
H629 C621 0.929 . S
H630 C638 0.929 . S
H631 C640 0.930 . S
H632 C642 0.930 . S
H633 C645 0.929 . S
H634 C648 0.930 . S
H635 C650 0.960 . S
H636 C650 0.960 . S
H637 C650 0.960 . S
C638 H630 0.929 . S
C638 C639 1.377 . S
C638 C640 1.384 . S
C639 C638 1.377 . S
C639 C645 1.390 . S
C640 H631 0.930 . S
C640 C638 1.384 . S
C640 C641 1.372 . S
C641 C640 1.372 . S
C641 C642 1.400 . S
C641 C646 1.490 1_545 S
C642 H632 0.930 . S
C642 C641 1.400 . S
C642 C645 1.386 . S
H643 C659 0.930 . S
H644 C660 0.931 . S
C645 H633 0.929 . S
C645 C639 1.390 . S
C645 C642 1.386 . S
C646 C641 1.490 1_565 S
C646 C648 1.395 . S
C646 C649 1.403 . S
H647 C653 0.930 . S
C648 H634 0.930 . S
C648 C646 1.395 . S
C648 C651 1.403 . S
C649 C646 1.403 . S
C649 C650 1.524 . S
C649 C653 1.400 . S
C650 H635 0.960 . S
C650 H636 0.960 . S
C650 H637 0.960 . S
C650 C649 1.524 . S
C651 C648 1.403 . S
C651 C652 1.392 . S
C651 C655 1.495 . S
C652 C651 1.392 . S
C652 C653 1.385 . S
C652 C654 1.478 . S
C653 H647 0.930 . S
C653 C649 1.400 . S
C653 C652 1.385 . S
C654 C652 1.478 . S
C654 C656 1.381 . S
C654 C660 1.383 . S
C655 C651 1.495 . S
C655 H661 0.959 . S
C655 H662 0.961 . S
C655 H663 0.960 . S
C656 C654 1.381 . S
C656 C657 1.394 . S
C656 H664 0.930 . S
C657 C656 1.394 . S
C657 C658 1.383 . S
C657 H665 0.929 . S
C658 C657 1.383 . S
C658 C659 1.377 . S
C659 H643 0.930 . S
C659 C658 1.377 . S
C659 C660 1.379 . S
C660 H644 0.931 . S
C660 C654 1.383 . S
C660 C659 1.379 . S
H661 C655 0.959 . S
H662 C655 0.961 . S
H663 C655 0.960 . S
H664 C656 0.930 . S
H665 C657 0.929 . S
H666 C674 0.929 . S
H667 C676 0.930 . S
H668 C678 0.930 . S
H669 C681 0.929 . S
H670 C684 0.930 . S
H671 C686 0.960 . S
H672 C686 0.960 . S
H673 C686 0.960 . S
C674 H666 0.929 . S
C674 C675 1.377 . S
C674 C676 1.384 . S
C675 C674 1.377 . S
C675 C681 1.390 . S
C676 H667 0.930 . S
C676 C674 1.384 . S
C676 C677 1.372 . S
C677 C676 1.372 . S
C677 C678 1.400 . S
C677 C682 1.490 . S
C678 H668 0.930 . S
C678 C677 1.400 . S
C678 C681 1.386 . S
H679 C695 0.930 1_565 S
H680 C696 0.931 . S
C681 H669 0.929 . S
C681 C675 1.390 . S
C681 C678 1.386 . S
C682 C677 1.490 . S
C682 C684 1.395 . S
C682 C685 1.403 . S
H683 C689 0.930 . S
C684 H670 0.930 . S
C684 C682 1.395 . S
C684 C687 1.403 . S
C685 C682 1.403 . S
C685 C686 1.524 . S
C685 C689 1.400 . S
C686 H671 0.960 . S
C686 H672 0.960 . S
C686 H673 0.960 . S
C686 C685 1.524 . S
C687 C684 1.403 . S
C687 C688 1.392 . S
C687 C691 1.495 . S
C688 C687 1.392 . S
C688 C689 1.385 . S
C688 C690 1.478 . S
C689 H683 0.930 . S
C689 C685 1.400 . S
C689 C688 1.385 . S
C690 C688 1.478 . S
C690 C692 1.381 . S
C690 C696 1.383 . S
C691 C687 1.495 . S
C691 H697 0.959 . S
C691 H698 0.961 . S
C691 H699 0.960 . S
C692 C690 1.381 . S
C692 C693 1.394 . S
C692 H700 0.930 . S
C693 C692 1.394 . S
C693 C694 1.383 . S
C693 H701 0.929 . S
C694 C693 1.383 . S
C694 C695 1.377 . S
C695 H679 0.930 1_545 S
C695 C694 1.377 . S
C695 C696 1.379 . S
C696 H680 0.931 . S
C696 C690 1.383 . S
C696 C695 1.379 . S
H697 C691 0.959 . S
H698 C691 0.961 . S
H699 C691 0.960 . S
H700 C692 0.930 . S
H701 C693 0.929 . S
H702 C710 0.929 . S
H703 C712 0.930 . S
H704 C714 0.930 . S
H705 C717 0.929 . S
H706 C720 0.930 . S
H707 C722 0.960 . S
H708 C722 0.960 . S
H709 C722 0.960 . S
C710 H702 0.929 . S
C710 C711 1.377 . S
C710 C712 1.384 . S
C711 C710 1.377 . S
C711 C717 1.390 . S
C712 H703 0.930 . S
C712 C710 1.384 . S
C712 C713 1.372 . S
C713 C712 1.372 . S
C713 C714 1.400 . S
C713 C718 1.490 1_455 S
C714 H704 0.930 . S
C714 C713 1.400 . S
C714 C717 1.386 . S
H715 C731 0.930 . S
H716 C732 0.931 . S
C717 H705 0.929 . S
C717 C711 1.390 . S
C717 C714 1.386 . S
C718 C713 1.490 1_655 S
C718 C720 1.395 . S
C718 C721 1.403 . S
H719 C725 0.930 . S
C720 H706 0.930 . S
C720 C718 1.395 . S
C720 C723 1.403 . S
C721 C718 1.403 . S
C721 C722 1.524 . S
C721 C725 1.400 . S
C722 H707 0.960 . S
C722 H708 0.960 . S
C722 H709 0.960 . S
C722 C721 1.524 . S
C723 C720 1.403 . S
C723 C724 1.392 . S
C723 C727 1.495 . S
C724 C723 1.392 . S
C724 C725 1.385 . S
C724 C726 1.478 . S
C725 H719 0.930 . S
C725 C721 1.400 . S
C725 C724 1.385 . S
C726 C724 1.478 . S
C726 C728 1.381 . S
C726 C732 1.383 . S
C727 C723 1.495 . S
C727 H733 0.959 . S
C727 H734 0.961 . S
C727 H735 0.960 . S
C728 C726 1.381 . S
C728 C729 1.394 . S
C728 H736 0.930 . S
C729 C728 1.394 . S
C729 C730 1.383 . S
C729 H737 0.929 . S
C730 C729 1.383 . S
C730 C731 1.377 . S
C731 H715 0.930 . S
C731 C730 1.377 . S
C731 C732 1.379 . S
C732 H716 0.931 . S
C732 C726 1.383 . S
C732 C731 1.379 . S
H733 C727 0.959 . S
H734 C727 0.961 . S
H735 C727 0.960 . S
H736 C728 0.930 . S
H737 C729 0.929 . S
H738 C746 0.929 . S
H739 C748 0.930 . S
H740 C750 0.930 . S
H741 C753 0.929 1_455 S
H742 C756 0.930 . S
H743 C758 0.960 . S
H744 C758 0.960 . S
H745 C758 0.960 . S
C746 H738 0.929 . S
C746 C747 1.377 . S
C746 C748 1.384 . S
C747 C746 1.377 . S
C747 C753 1.390 . S
C748 H739 0.930 . S
C748 C746 1.384 . S
C748 C749 1.372 . S
C749 C748 1.372 . S
C749 C750 1.400 . S
C749 C754 1.490 . S
C750 H740 0.930 . S
C750 C749 1.400 . S
C750 C753 1.386 . S
H751 C767 0.930 . S
H752 C768 0.931 . S
C753 H741 0.929 1_655 S
C753 C747 1.390 . S
C753 C750 1.386 . S
C754 C749 1.490 . S
C754 C756 1.395 . S
C754 C757 1.403 . S
H755 C761 0.930 . S
C756 H742 0.930 . S
C756 C754 1.395 . S
C756 C759 1.403 . S
C757 C754 1.403 . S
C757 C758 1.524 . S
C757 C761 1.400 . S
C758 H743 0.960 . S
C758 H744 0.960 . S
C758 H745 0.960 . S
C758 C757 1.524 . S
C759 C756 1.403 . S
C759 C760 1.392 . S
C759 C763 1.495 . S
C760 C759 1.392 . S
C760 C761 1.385 . S
C760 C762 1.478 1_545 S
C761 H755 0.930 . S
C761 C757 1.400 . S
C761 C760 1.385 . S
C762 C760 1.478 1_565 S
C762 C764 1.381 . S
C762 C768 1.383 . S
C763 C759 1.495 . S
C763 H769 0.959 . S
C763 H770 0.961 1_545 S
C763 H771 0.960 . S
C764 C762 1.381 . S
C764 C765 1.394 . S
C764 H772 0.930 . S
C765 C764 1.394 . S
C765 C766 1.383 . S
C765 H773 0.929 . S
C766 C765 1.383 . S
C766 C767 1.377 . S
C767 H751 0.930 . S
C767 C766 1.377 . S
C767 C768 1.379 . S
C768 H752 0.931 . S
C768 C762 1.383 . S
C768 C767 1.379 . S
H769 C763 0.959 . S
H770 C763 0.961 1_565 S
H771 C763 0.960 . S
H772 C764 0.930 . S
H773 C765 0.929 . S
C135 C88 1.446 . S
C154 C7 1.415 . S
C171 C112 1.508 . S
C190 C25 1.489 . S
C207 C49 1.430 . S
C226 C70 1.419 . S
C243 C4 1.511 . S
C262 C91 1.477 . S
C279 C109 1.445 . S
C298 C28 1.477 . S
C315 C46 1.505 . S
C334 C67 1.502 . S
C351 C3 0.884 . S
C370 C62 0.918 . S
C387 C24 0.849 . S
C406 C20 1.012 . S
C423 C45 0.857 . S
C442 C41 1.014 . S
C459 C66 0.855 . S
C478 C103 1.016 . S
C495 C100 0.884 . S
C514 C124 0.925 . S
C531 C83 0.967 . S
C550 C121 0.804 . S
C567 C19 0.792 . S
C586 C58 0.810 . S
C603 C40 0.792 . S
C622 C16 0.813 . S
C639 C61 0.780 . S
C658 C37 0.777 . S
C675 C82 0.794 . S
C694 C87 0.797 . S
C711 C104 0.795 . S
C730 C108 0.688 . S
C747 C79 0.775 . S
C766 C125 0.832 . S
