# Generated by pormake.
# Topology smn, (6)-cn, num edge types: 1
# Building blocks:
#     Node 0, Type 0, BuildingBlock: IZENUY_clean_sbu_0, # of connection points: 6
#     Node 1, Type 0, BuildingBlock: IZENUY_clean_sbu_0, # of connection points: 6
#     Node 2, Type 0, BuildingBlock: IZENUY_clean_sbu_0, # of connection points: 6
#     Node 3, Type 0, BuildingBlock: IZENUY_clean_sbu_0, # of connection points: 6
#     Node 4, Type 0, BuildingBlock: IZENUY_clean_sbu_0, # of connection points: 6
#     Node 5, Type 0, BuildingBlock: IZENUY_clean_sbu_0, # of connection points: 6
#     Node 6, Type 0, BuildingBlock: IZENUY_clean_sbu_0, # of connection points: 6
#     Node 7, Type 0, BuildingBlock: IZENUY_clean_sbu_0, # of connection points: 6
#     Node 8, Type 0, BuildingBlock: IZENUY_clean_sbu_0, # of connection points: 6
#     Node 9, Type 0, BuildingBlock: IZENUY_clean_sbu_0, # of connection points: 6
#     Node 10, Type 0, BuildingBlock: IZENUY_clean_sbu_0, # of connection points: 6
#     Node 11, Type 0, BuildingBlock: IZENUY_clean_sbu_0, # of connection points: 6
#     Node 12, Type 0, BuildingBlock: IZENUY_clean_sbu_0, # of connection points: 6
#     Node 13, Type 0, BuildingBlock: IZENUY_clean_sbu_0, # of connection points: 6
#     Node 14, Type 0, BuildingBlock: IZENUY_clean_sbu_0, # of connection points: 6
#     Node 15, Type 0, BuildingBlock: IZENUY_clean_sbu_0, # of connection points: 6
#     Node 16, Type 0, BuildingBlock: IZENUY_clean_sbu_0, # of connection points: 6
#     Node 17, Type 0, BuildingBlock: IZENUY_clean_sbu_0, # of connection points: 6
#     Edge 18, Type (0, 0), BuildingBlock: OJICUG_clean_linker_0, # of connection points: 2
#     Edge 19, Type (0, 0), BuildingBlock: OJICUG_clean_linker_0, # of connection points: 2
#     Edge 20, Type (0, 0), BuildingBlock: OJICUG_clean_linker_0, # of connection points: 2
#     Edge 21, Type (0, 0), BuildingBlock: OJICUG_clean_linker_0, # of connection points: 2
#     Edge 22, Type (0, 0), BuildingBlock: OJICUG_clean_linker_0, # of connection points: 2
#     Edge 23, Type (0, 0), BuildingBlock: OJICUG_clean_linker_0, # of connection points: 2
#     Edge 24, Type (0, 0), BuildingBlock: OJICUG_clean_linker_0, # of connection points: 2
#     Edge 25, Type (0, 0), BuildingBlock: OJICUG_clean_linker_0, # of connection points: 2
#     Edge 26, Type (0, 0), BuildingBlock: OJICUG_clean_linker_0, # of connection points: 2
#     Edge 27, Type (0, 0), BuildingBlock: OJICUG_clean_linker_0, # of connection points: 2
#     Edge 28, Type (0, 0), BuildingBlock: OJICUG_clean_linker_0, # of connection points: 2
#     Edge 29, Type (0, 0), BuildingBlock: OJICUG_clean_linker_0, # of connection points: 2
#     Edge 30, Type (0, 0), BuildingBlock: OJICUG_clean_linker_0, # of connection points: 2
#     Edge 31, Type (0, 0), BuildingBlock: OJICUG_clean_linker_0, # of connection points: 2
#     Edge 32, Type (0, 0), BuildingBlock: OJICUG_clean_linker_0, # of connection points: 2
#     Edge 33, Type (0, 0), BuildingBlock: OJICUG_clean_linker_0, # of connection points: 2
#     Edge 34, Type (0, 0), BuildingBlock: OJICUG_clean_linker_0, # of connection points: 2
#     Edge 35, Type (0, 0), BuildingBlock: OJICUG_clean_linker_0, # of connection points: 2
#     Edge 36, Type (0, 0), BuildingBlock: OJICUG_clean_linker_0, # of connection points: 2
#     Edge 37, Type (0, 0), BuildingBlock: OJICUG_clean_linker_0, # of connection points: 2
#     Edge 38, Type (0, 0), BuildingBlock: OJICUG_clean_linker_0, # of connection points: 2
#     Edge 39, Type (0, 0), BuildingBlock: OJICUG_clean_linker_0, # of connection points: 2
#     Edge 40, Type (0, 0), BuildingBlock: OJICUG_clean_linker_0, # of connection points: 2
#     Edge 41, Type (0, 0), BuildingBlock: OJICUG_clean_linker_0, # of connection points: 2
#     Edge 42, Type (0, 0), BuildingBlock: OJICUG_clean_linker_0, # of connection points: 2
#     Edge 43, Type (0, 0), BuildingBlock: OJICUG_clean_linker_0, # of connection points: 2
#     Edge 44, Type (0, 0), BuildingBlock: OJICUG_clean_linker_0, # of connection points: 2
#     Edge 45, Type (0, 0), BuildingBlock: OJICUG_clean_linker_0, # of connection points: 2
#     Edge 46, Type (0, 0), BuildingBlock: OJICUG_clean_linker_0, # of connection points: 2
#     Edge 47, Type (0, 0), BuildingBlock: OJICUG_clean_linker_0, # of connection points: 2
#     Edge 48, Type (0, 0), BuildingBlock: OJICUG_clean_linker_0, # of connection points: 2
#     Edge 49, Type (0, 0), BuildingBlock: OJICUG_clean_linker_0, # of connection points: 2
#     Edge 50, Type (0, 0), BuildingBlock: OJICUG_clean_linker_0, # of connection points: 2
#     Edge 51, Type (0, 0), BuildingBlock: OJICUG_clean_linker_0, # of connection points: 2
#     Edge 52, Type (0, 0), BuildingBlock: OJICUG_clean_linker_0, # of connection points: 2
#     Edge 53, Type (0, 0), BuildingBlock: OJICUG_clean_linker_0, # of connection points: 2
#     Edge 54, Type (0, 0), BuildingBlock: OJICUG_clean_linker_0, # of connection points: 2
#     Edge 55, Type (0, 0), BuildingBlock: OJICUG_clean_linker_0, # of connection points: 2
#     Edge 56, Type (0, 0), BuildingBlock: OJICUG_clean_linker_0, # of connection points: 2
#     Edge 57, Type (0, 0), BuildingBlock: OJICUG_clean_linker_0, # of connection points: 2
#     Edge 58, Type (0, 0), BuildingBlock: OJICUG_clean_linker_0, # of connection points: 2
#     Edge 59, Type (0, 0), BuildingBlock: OJICUG_clean_linker_0, # of connection points: 2
#     Edge 60, Type (0, 0), BuildingBlock: OJICUG_clean_linker_0, # of connection points: 2
#     Edge 61, Type (0, 0), BuildingBlock: OJICUG_clean_linker_0, # of connection points: 2
#     Edge 62, Type (0, 0), BuildingBlock: OJICUG_clean_linker_0, # of connection points: 2
#     Edge 63, Type (0, 0), BuildingBlock: OJICUG_clean_linker_0, # of connection points: 2
#     Edge 64, Type (0, 0), BuildingBlock: OJICUG_clean_linker_0, # of connection points: 2
#     Edge 65, Type (0, 0), BuildingBlock: OJICUG_clean_linker_0, # of connection points: 2
#     Edge 66, Type (0, 0), BuildingBlock: OJICUG_clean_linker_0, # of connection points: 2
#     Edge 67, Type (0, 0), BuildingBlock: OJICUG_clean_linker_0, # of connection points: 2
#     Edge 68, Type (0, 0), BuildingBlock: OJICUG_clean_linker_0, # of connection points: 2
#     Edge 69, Type (0, 0), BuildingBlock: OJICUG_clean_linker_0, # of connection points: 2
#     Edge 70, Type (0, 0), BuildingBlock: OJICUG_clean_linker_0, # of connection points: 2
#     Edge 71, Type (0, 0), BuildingBlock: OJICUG_clean_linker_0, # of connection points: 2
# Relax obj value: 0.165
# Max RMSD: 0.234
# Mean RMSD: 0.233
data_MOF--net-smn--node1-IZENUY_clean_sbu_0--edge1-OJICUG_clean_linker_0
_symmetry_space_group_name_H-M    P1
_symmetry_Int_Tables_number       1
_symmetry_cell_setting            triclinic
loop_
_symmetry_equiv_pos_as_xyz
'x, y, z'
_cell_length_a     45.368624
_cell_length_b     45.329021
_cell_length_c     13.621535
_cell_angle_alpha  90.04052
_cell_angle_beta   89.973295
_cell_angle_gamma 120.06919
loop_
_atom_site_label
_atom_site_type_symbol
_atom_site_fract_x
_atom_site_fract_y
_atom_site_fract_z
_atom_type_partial_charge
Fe0 Fe 1.0308 0.2408 0.67387 0.0
Fe1 Fe 0.05092 0.19302 0.77273 0.0
O2 O 0.051 0.23228 0.77256 0.0
Fe3 Fe 0.07126 0.26116 0.8711 0.0
O4 O 1.03502 0.26584 0.89657 0.0
O5 O 1.01079 0.25951 0.75168 0.0
O6 O 0.99097 0.20018 0.68734 0.0
C7 C 0.98905 0.17167 0.67971 0.0
C8 C 0.08943 0.30453 0.70168 0.0
O9 O 1.01556 0.16994 0.68903 0.0
C10 C 0.11283 0.23366 0.86566 0.0
O11 O 0.04974 0.2244 0.5825 0.0
O12 O 0.08032 0.20806 0.67152 0.0
O13 O 0.09139 0.29984 0.79301 0.0
O14 O 0.06713 0.28173 0.64818 0.0
C15 C 1.02665 0.19571 0.95245 0.0
O16 O 0.08625 0.20539 0.85648 0.0
O17 O 0.11101 0.2603 0.85786 0.0
C18 C 0.07524 0.21978 0.59289 0.0
O19 O 1.02151 0.17878 0.87393 0.0
O20 O 0.05221 0.22587 0.96271 0.0
C21 C 1.01276 0.26627 0.84295 0.0
Fe22 Fe 0.82678 0.83287 0.87041 0.0
Fe23 Fe 0.89473 0.88076 0.77157 0.0
O24 O 0.85555 0.84147 0.77171 0.0
Fe25 Fe 0.84698 0.81263 0.67311 0.0
O26 O 0.80602 0.80784 0.64772 0.0
O27 O 0.78806 0.8142 0.79256 0.0
O28 O 0.82758 0.87348 0.85716 0.0
C29 C 0.85418 0.902 0.86483 0.0
C30 C 0.82173 0.7692 0.84241 0.0
O31 O 0.88243 0.90377 0.85547 0.0
C32 C 0.91608 0.84026 0.67842 0.0
O33 O 0.86213 0.84925 0.96176 0.0
O34 O 0.90912 0.86574 0.87265 0.0
O35 O 0.82845 0.77392 0.75111 0.0
O36 O 0.82213 0.79194 0.89592 0.0
C37 C 0.86774 0.87806 0.59198 0.0
O38 O 0.91773 0.8685 0.68763 0.0
O39 O 0.88764 0.81358 0.68626 0.0
C40 C 0.89228 0.85394 0.95128 0.0
O41 O 0.87953 0.89499 0.67051 0.0
O42 O 0.8632 0.84794 0.58159 0.0
C43 C 0.7833 0.80742 0.70128 0.0
Fe44 Fe 0.255 1.01673 0.87042 0.0
Fe45 Fe 0.20723 0.03686 0.77169 0.0
O46 O 0.24644 0.03693 0.77177 0.0
Fe47 Fe 0.27526 0.05718 0.67319 0.0
O48 O 0.27982 1.02084 0.64754 0.0
O49 O 0.27375 0.99676 0.79256 0.0
O50 O 0.21443 0.97685 0.85687 0.0
C51 C 0.18593 0.9749 0.86441 0.0
C52 C 0.31866 0.07535 0.84253 0.0
O53 O 0.18418 1.00142 0.85519 0.0
C54 C 0.2479 0.09886 0.67902 0.0
O55 O 0.23857 0.03561 0.9619 0.0
O56 O 0.22225 0.06625 0.87303 0.0
O57 O 0.31396 0.07723 0.75117 0.0
O58 O 0.29587 0.05313 0.89616 0.0
C59 C 0.20985 1.01264 0.5918 0.0
O60 O 0.21963 0.07229 0.68817 0.0
O61 O 0.27449 0.097 0.68664 0.0
C62 C 0.23395 0.06112 0.95165 0.0
O63 O 0.19297 1.00747 0.67036 0.0
O64 O 0.23999 0.03821 0.5816 0.0
C65 C 0.28038 0.99864 0.70122 0.0
Fe66 Fe 1.03061 0.81261 0.17294 0.0
Fe67 Fe 0.07106 0.83293 0.37017 0.0
O68 O 0.05089 0.84148 0.27146 0.0
Fe69 Fe 0.05104 0.88077 0.27126 0.0
O70 O 0.08044 0.89497 0.17007 0.0
O71 O 0.04968 0.84789 0.08131 0.0
O72 O 0.06682 0.80788 0.14747 0.0
C73 C 0.08907 0.80743 0.20109 0.0
C74 C 0.98911 0.84018 0.17833 0.0
O75 O 0.09104 0.81418 0.29237 0.0
C76 C 1.02669 0.85405 0.45112 0.0
O77 O 1.01045 0.77392 0.25102 0.0
O78 O 1.03471 0.79202 0.39586 0.0
O79 O 1.01571 0.86844 0.1875 0.0
O80 O 0.99088 0.81352 0.18617 0.0
C81 C 0.11289 0.90205 0.3643 0.0
O82 O 0.05214 0.84936 0.46152 0.0
O83 O 1.02163 0.86578 0.37247 0.0
C84 C 1.0124 0.76923 0.34235 0.0
O85 O 0.11091 0.87352 0.35672 0.0
O86 O 0.0864 0.90382 0.35496 0.0
C87 C 0.07528 0.87803 0.09156 0.0
Fe88 Fe 0.27509 0.24086 0.17364 0.0
Fe89 Fe 0.20711 0.19303 0.27243 0.0
O90 O 0.24632 0.2323 0.27233 0.0
Fe91 Fe 0.25492 0.26114 0.37093 0.0
O92 O 0.29587 0.26588 0.39633 0.0
O93 O 0.3138 0.2595 0.25149 0.0
O94 O 0.27423 0.20022 0.1869 0.0
C95 C 0.24761 0.17171 0.17919 0.0
C96 C 0.28021 0.30456 0.20162 0.0
O97 O 0.21937 0.16999 0.18854 0.0
C98 C 0.18583 0.23359 0.36557 0.0
O99 O 0.23974 0.22452 0.08226 0.0
O100 O 0.19277 0.2081 0.17135 0.0
O101 O 0.27349 0.29984 0.29292 0.0
O102 O 0.27978 0.28181 0.14812 0.0
C103 C 0.23406 0.19567 0.45205 0.0
O104 O 0.18413 0.20534 0.35635 0.0
O105 O 0.2143 0.26024 0.35778 0.0
C106 C 0.20961 0.21988 0.09273 0.0
O107 O 0.22226 0.17876 0.37351 0.0
O108 O 0.23867 0.22582 0.46244 0.0
C109 C 0.31857 0.26628 0.34276 0.0
Fe110 Fe 0.89461 0.03683 0.27232 0.0
Fe111 Fe 0.8266 1.01661 0.37085 0.0
O112 O 0.85543 0.03683 0.27227 0.0
Fe113 Fe 0.84691 0.05705 0.17361 0.0
O114 O 0.88751 0.0969 0.18718 0.0
O115 O 0.9177 0.07226 0.18882 0.0
O116 O 0.90892 0.06621 0.37366 0.0
C117 C 0.89204 0.06107 0.45223 0.0
C118 C 0.86786 1.01259 0.09239 0.0
O119 O 0.86188 0.03554 0.46243 0.0
C120 C 0.78322 0.99847 0.20149 0.0
O121 O 0.88217 1.00139 0.35584 0.0
O122 O 0.82731 0.97675 0.35742 0.0
O123 O 0.8633 0.03813 0.08213 0.0
O124 O 0.87954 1.00743 0.17099 0.0
C125 C 0.82156 0.07518 0.3428 0.0
O126 O 0.78791 0.99659 0.29286 0.0
O127 O 0.80602 1.02069 0.14786 0.0
C128 C 0.85388 0.97484 0.36501 0.0
O129 O 0.8221 0.05297 0.39649 0.0
O130 O 0.8282 0.07706 0.25146 0.0
C131 C 0.91599 0.09881 0.1796 0.0
Fe132 Fe 0.73792 0.59452 0.20445 0.0
Fe133 Fe 0.71762 0.5264 0.10606 0.0
O134 O 0.71768 0.56565 0.10589 0.0
Fe135 Fe 0.6975 0.57417 1.00718 0.0
O136 O 0.73382 0.6151 0.9815 0.0
O137 O 0.75804 0.63321 0.12637 0.0
O138 O 0.77769 0.59369 0.19124 0.0
C139 C 0.77952 0.56706 0.19903 0.0
C140 C 0.67941 0.59962 0.17623 0.0
O141 O 0.75295 0.53878 0.18981 0.0
C142 C 0.65574 0.50504 1.01305 0.0
O143 O 0.71889 0.55924 0.29604 0.0
O144 O 0.68821 0.51214 0.20726 0.0
O145 O 0.67747 0.59288 0.08495 0.0
O146 O 0.70166 0.59917 0.22989 0.0
C147 C 0.74194 0.55316 0.92623 0.0
O148 O 0.68226 0.50332 0.02236 0.0
O149 O 0.65767 0.53355 1.02063 0.0
C150 C 0.69334 0.52907 0.28578 0.0
O151 O 0.74703 0.54144 1.00487 0.0
O152 O 0.71644 0.55777 0.91582 0.0
C153 C 0.75611 0.6379 0.03502 0.0
Fe154 Fe 0.49346 0.16621 0.2038 0.0
Fe155 Fe 0.5614 0.21411 0.10498 0.0
O156 O 0.52222 0.17481 0.1051 0.0
Fe157 Fe 0.51367 0.14598 1.00649 0.0
O158 O 0.4727 0.14118 0.98111 0.0
O159 O 0.45474 0.14754 0.12594 0.0
O160 O 0.49425 0.20681 0.19058 0.0
C161 C 0.52084 0.23534 0.19825 0.0
C162 C 0.48843 0.10254 0.17578 0.0
O163 O 0.5491 0.23711 0.18889 0.0
C164 C 0.58277 0.17363 1.01179 0.0
O165 O 0.5288 0.18258 0.29516 0.0
O166 O 0.5758 0.19909 0.20604 0.0
O167 O 0.49515 0.10727 0.08448 0.0
O168 O 0.48881 0.12528 0.22929 0.0
C169 C 0.53441 0.21142 0.92539 0.0
O170 O 0.58441 0.20186 1.02102 0.0
O171 O 0.55433 0.14695 1.01964 0.0
C172 C 0.55896 0.18729 0.28467 0.0
O173 O 0.5462 0.22834 1.00393 0.0
O174 O 0.52987 0.18129 0.91499 0.0
C175 C 0.44998 0.14077 0.03467 0.0
Fe176 Fe 0.92166 0.35006 0.20373 0.0
Fe177 Fe 0.87389 0.37017 0.10492 0.0
O178 O 0.91311 0.37024 0.10504 0.0
Fe179 Fe 0.94193 0.39049 1.00646 0.0
O180 O 0.9465 0.35416 0.98088 0.0
O181 O 0.9404 0.33007 0.12591 0.0
O182 O 0.88109 0.31017 0.19021 0.0
C183 C 0.85259 0.30822 0.19772 0.0
C184 C 0.98532 0.40869 0.17583 0.0
O185 O 0.85084 0.33474 0.18846 0.0
C186 C 0.91455 0.43216 1.01219 0.0
O187 O 0.90524 0.36896 0.29516 0.0
O188 O 0.8889 0.39957 0.20623 0.0
O189 O 0.98062 0.41056 0.08446 0.0
O190 O 0.96253 0.38645 0.22945 0.0
C191 C 0.87653 0.34593 0.92508 0.0
O192 O 0.88628 0.40558 1.02135 0.0
O193 O 0.94115 0.43031 1.01986 0.0
C194 C 0.9006 0.39446 0.28486 0.0
O195 O 0.85964 0.34077 1.00363 0.0
O196 O 0.90666 0.3715 0.91487 0.0
C197 C 0.94704 0.33195 0.03457 0.0
Fe198 Fe 0.69727 0.14593 0.50626 0.0
Fe199 Fe 0.7377 0.16622 0.70352 0.0
O200 O 0.71755 0.17479 0.60481 0.0
Fe201 Fe 0.71771 0.21409 0.60461 0.0
O202 O 0.74712 0.22828 0.50342 0.0
O203 O 0.71635 0.18121 0.41465 0.0
O204 O 0.73348 0.1412 0.48079 0.0
C205 C 0.75572 0.14073 0.53444 0.0
C206 C 0.65578 0.17351 0.51169 0.0
O207 O 0.75767 0.14746 0.62573 0.0
C208 C 0.69336 0.18737 0.78448 0.0
O209 O 0.6771 0.10723 0.58432 0.0
O210 O 0.70133 0.12532 0.72919 0.0
O211 O 0.68238 0.20176 0.52086 0.0
O212 O 0.65755 0.14685 0.5195 0.0
C213 C 0.77956 0.23534 0.69764 0.0
O214 O 0.7188 0.18267 0.79488 0.0
O215 O 0.68831 0.19912 0.70583 0.0
C216 C 0.67903 0.10254 0.67566 0.0
O217 O 0.77757 0.2068 0.69009 0.0
O218 O 0.75309 0.23713 0.6883 0.0
C219 C 0.74195 0.21134 0.4249 0.0
Fe220 Fe 0.87379 0.5264 0.60567 0.0
Fe221 Fe 0.94177 0.57421 0.5069 0.0
O222 O 0.91301 0.56565 0.6056 0.0
Fe223 Fe 0.92162 0.59449 0.70422 0.0
O224 O 0.881 0.5936 0.69112 0.0
O225 O 0.85082 0.5387 0.68963 0.0
O226 O 0.85946 0.5415 0.50463 0.0
C227 C 0.87631 0.55328 0.42601 0.0
C228 C 0.90073 0.529 0.78527 0.0
O229 O 0.90643 0.5579 0.41553 0.0
C230 C 0.98526 0.5996 0.67602 0.0
O231 O 0.88604 0.50336 0.52172 0.0
O232 O 0.94089 0.53357 0.52011 0.0
O233 O 0.90536 0.55916 0.79569 0.0
O234 O 0.88893 0.5121 0.70671 0.0
C235 C 0.9469 0.63792 0.53495 0.0
O236 O 0.98049 0.59283 0.58475 0.0
O237 O 0.96256 0.59922 0.72959 0.0
C238 C 0.91427 0.50507 0.51239 0.0
O239 O 0.94649 0.61518 0.48143 0.0
O240 O 0.94018 0.6332 0.62625 0.0
C241 C 0.85253 0.56695 0.69892 0.0
Fe242 Fe 0.49329 0.34997 0.70423 0.0
Fe243 Fe 0.56129 0.37018 0.60568 0.0
O244 O 0.52211 0.37018 0.60563 0.0
Fe245 Fe 0.51359 0.39041 0.50698 0.0
O246 O 0.4727 0.35404 0.48125 0.0
O247 O 0.45459 0.32994 0.62625 0.0
O248 O 0.494 0.31011 0.69082 0.0
C249 C 0.52057 0.30821 0.69843 0.0
C250 C 0.48826 0.40855 0.67616 0.0
O251 O 0.54886 0.33475 0.68921 0.0
C252 C 0.58267 0.43216 0.51295 0.0
O253 O 0.52857 0.36891 0.79579 0.0
O254 O 0.57561 0.39957 0.707 0.0
O255 O 0.49489 0.41043 0.58483 0.0
O256 O 0.48878 0.38633 0.72985 0.0
C257 C 0.53452 0.34593 0.42576 0.0
O258 O 0.58437 0.4056 0.52214 0.0
O259 O 0.55419 0.43026 0.52052 0.0
C260 C 0.55874 0.39443 0.78557 0.0
O261 O 0.54621 0.34078 0.50436 0.0
O262 O 0.52997 0.37148 0.41549 0.0
C263 C 0.4499 0.33182 0.53488 0.0
Fe264 Fe 0.40462 0.92784 0.53771 0.0
Fe265 Fe 0.36419 0.90756 0.34046 0.0
O266 O 0.38433 0.89898 0.43917 0.0
Fe267 Fe 0.38416 0.85968 0.43936 0.0
O268 O 0.35475 0.84549 0.54055 0.0
O269 O 0.38554 0.89256 0.62933 0.0
O270 O 0.36842 0.93258 0.56319 0.0
C271 C 0.34619 0.93306 0.50955 0.0
C272 C 0.4461 0.90024 0.53227 0.0
O273 O 0.34423 0.92633 0.41826 0.0
C274 C 0.40851 0.88639 0.25949 0.0
O275 O 0.4248 0.96654 0.45966 0.0
O276 O 0.40057 0.94845 0.31478 0.0
O277 O 0.41949 0.87199 0.5231 0.0
O278 O 0.44434 0.92691 0.52446 0.0
C279 C 0.32231 0.83844 0.34634 0.0
O280 O 0.38307 0.8911 0.2491 0.0
O281 O 0.41356 0.87464 0.33814 0.0
C282 C 0.42287 0.97123 0.36832 0.0
O283 O 0.32431 0.86699 0.3539 0.0
O284 O 0.34878 0.83664 0.35568 0.0
C285 C 0.35993 0.86243 0.61907 0.0
Fe286 Fe 0.16011 0.49956 0.53711 0.0
Fe287 Fe 0.22811 0.54736 0.43837 0.0
O288 O 0.18888 0.50811 0.43842 0.0
Fe289 Fe 0.18027 0.47928 0.3398 0.0
O290 O 0.13933 0.47456 0.31441 0.0
O291 O 0.1214 0.48095 0.45925 0.0
O292 O 0.16101 0.54021 0.52389 0.0
C293 C 0.18764 0.5687 0.53164 0.0
C294 C 0.15496 0.43584 0.50906 0.0
O295 O 0.21586 0.5704 0.5223 0.0
C296 C 0.24936 0.50679 0.34516 0.0
O297 O 0.19545 0.51587 0.6285 0.0
O298 O 0.24242 0.53225 0.53942 0.0
O299 O 0.16168 0.44056 0.41777 0.0
O300 O 0.15539 0.45859 0.56258 0.0
C301 C 0.20118 0.54477 0.25875 0.0
O302 O 0.25107 0.53505 0.35443 0.0
O303 O 0.22088 0.48015 0.35292 0.0
C304 C 0.22557 0.52047 0.61802 0.0
O305 O 0.21299 0.56167 0.33732 0.0
O306 O 0.19654 0.51461 0.24833 0.0
C307 C 0.11663 0.47418 0.36797 0.0
Fe308 Fe 0.60859 0.7238 0.33977 0.0
Fe309 Fe 0.58827 0.68335 0.53701 0.0
O310 O 0.57976 0.70358 0.43836 0.0
Fe311 Fe 0.54059 0.7036 0.43831 0.0
O312 O 0.52627 0.67421 0.33699 0.0
O313 O 0.57331 0.70486 0.2482 0.0
O314 O 0.61309 0.68743 0.31415 0.0
C315 C 0.61361 0.66521 0.36782 0.0
C316 C 0.58132 0.76557 0.34559 0.0
O317 O 0.60696 0.66332 0.45915 0.0
C318 C 0.56736 0.72785 0.61823 0.0
O319 O 0.64728 0.74382 0.41776 0.0
O320 O 0.62917 0.7197 0.56274 0.0
O321 O 0.55303 0.73903 0.35477 0.0
O322 O 0.60789 0.76366 0.35318 0.0
C323 C 0.51919 0.64162 0.53107 0.0
O324 O 0.57191 0.70229 0.62849 0.0
O325 O 0.55568 0.733 0.53962 0.0
C326 C 0.65198 0.74192 0.50912 0.0
O327 O 0.54766 0.64351 0.52347 0.0
O328 O 0.5175 0.66818 0.52184 0.0
C329 C 0.54314 0.67934 0.25841 0.0
Fe330 Fe 0.40439 0.4996 0.03683 0.0
Fe331 Fe 0.38425 0.54735 0.93796 0.0
O332 O 0.3842 0.50812 0.93812 0.0
Fe333 Fe 0.36396 0.47924 0.83957 0.0
O334 O 0.40023 0.4746 0.81411 0.0
O335 O 0.42442 0.4809 0.95904 0.0
O336 O 0.44421 0.54023 0.02335 0.0
C337 C 0.44612 0.56874 0.03098 0.0
C338 C 0.3458 0.43587 1.00899 0.0
O339 O 0.41961 0.57045 1.02165 0.0
C340 C 0.32234 0.50667 0.84504 0.0
O341 O 0.38544 0.51599 0.1282 0.0
O342 O 0.35484 0.5323 0.03916 0.0
O343 O 0.34386 0.44055 0.91764 0.0
O344 O 0.36808 0.45867 0.06251 0.0
C345 C 0.40852 0.5447 0.75822 0.0
O346 O 0.3489 0.53496 0.85422 0.0
O347 O 0.32419 0.48005 0.85279 0.0
C348 C 0.35994 0.52059 0.1178 0.0
O349 O 0.41365 0.56162 0.83675 0.0
O350 O 0.38298 0.51453 0.74797 0.0
C351 C 0.42248 0.47417 0.86776 0.0
Fe352 Fe 0.60842 0.90756 0.84019 0.0
Fe353 Fe 0.54048 0.85966 0.93901 0.0
O354 O 0.57965 0.89896 0.93888 0.0
Fe355 Fe 0.58821 0.92779 0.03749 0.0
O356 O 0.62918 0.93259 0.06288 0.0
O357 O 0.64714 0.92624 0.91805 0.0
O358 O 0.60763 0.86696 0.85341 0.0
C359 C 0.58104 0.83843 0.84575 0.0
C360 C 0.61345 0.97123 0.8682 0.0
O361 O 0.55278 0.83666 0.85511 0.0
C362 C 0.51911 0.90014 0.03218 0.0
O363 O 0.57308 0.89119 0.74883 0.0
O364 O 0.52608 0.87468 0.83793 0.0
O365 O 0.60673 0.9665 0.9595 0.0
O366 O 0.61306 0.94849 0.81469 0.0
C367 C 0.56747 0.86235 0.1186 0.0
O368 O 0.51746 0.87191 0.02295 0.0
O369 O 0.54755 0.92682 0.02434 0.0
C370 C 0.54292 0.88647 0.7593 0.0
O371 O 0.55568 0.84543 0.04006 0.0
O372 O 0.572 0.89248 0.129 0.0
C373 C 0.6519 0.93301 1.00932 0.0
Fe374 Fe 0.22801 0.70362 0.93907 0.0
Fe375 Fe 0.15996 0.68327 0.03752 0.0
O376 O 0.18879 0.70353 0.93895 0.0
Fe377 Fe 0.18022 0.72371 0.84027 0.0
O378 O 0.22078 0.7636 0.85379 0.0
O379 O 0.25106 0.73905 0.85553 0.0
O380 O 0.24225 0.73302 0.04036 0.0
C381 C 0.22536 0.72785 0.11891 0.0
C382 C 0.2013 0.67932 0.75913 0.0
O383 O 0.19523 0.70226 0.12912 0.0
C384 C 0.11657 0.66506 0.86816 0.0
O385 O 0.21564 0.66821 0.02265 0.0
O386 O 0.16077 0.64346 0.02412 0.0
O387 O 0.19665 0.70481 0.74884 0.0
O388 O 0.21301 0.67422 0.83776 0.0
C389 C 0.15482 0.74179 1.00944 0.0
O390 O 0.12127 0.66318 0.95952 0.0
O391 O 0.13936 0.6873 0.81455 0.0
C392 C 0.18738 0.64162 0.03181 0.0
O393 O 0.15537 0.71958 0.06312 0.0
O394 O 0.16147 0.74368 0.91811 0.0
C395 C 0.24929 0.76556 0.84627 0.0
C396 C 0.13072 0.25802 0.51395 0.0
C397 C 0.09952 0.22716 0.51271 0.0
H398 H 0.1829 0.28475 0.46659 0.0
C399 C 0.09563 0.20075 0.45118 0.0
H400 H 0.13431 0.27846 0.56277 0.0
C401 C 0.1233 0.20421 0.39688 0.0
C402 C 0.15548 0.234 0.40416 0.0
H403 H 0.07197 0.17657 0.45065 0.0
H404 H 0.12003 0.18263 0.354 0.0
C405 C 0.15852 0.26155 0.45942 0.0
C406 C 0.88296 0.94138 0.39524 0.0
C407 C 0.85336 0.944 0.40342 0.0
H408 H 0.91049 0.91753 0.44824 0.0
C409 C 0.82596 0.91968 0.45954 0.0
H410 H 0.90441 0.95955 0.35171 0.0
C411 C 0.82951 0.89542 0.51403 0.0
C412 C 0.86022 0.89488 0.51189 0.0
H413 H 0.80291 0.92104 0.46741 0.0
H414 H 0.80923 0.87876 0.56351 0.0
C415 C 0.88642 0.91716 0.44948 0.0
C416 C 0.19245 0.95711 0.51285 0.0
C417 C 0.19297 0.98837 0.51146 0.0
H418 H 0.1668 0.90487 0.46559 0.0
C419 C 0.17061 0.99233 0.44971 0.0
H420 H 0.20918 0.95346 0.56184 0.0
C421 C 0.14633 0.96465 0.39537 0.0
C422 C 0.14373 0.9324 0.40283 0.0
H423 H 0.17023 1.01605 0.44907 0.0
H424 H 0.12811 0.96797 0.35235 0.0
C425 C 0.16813 0.9293 0.45828 0.0
C426 C 0.21485 0.08146 0.09328 0.0
C427 C 0.24128 0.08538 0.03196 0.0
H428 H 0.19666 0.10585 0.19033 0.0
C429 C 0.27212 0.1166 0.03099 0.0
H430 H 0.19068 0.05779 0.09359 0.0
C431 C 0.27561 0.14441 0.08556 0.0
C432 C 0.24803 0.14135 0.14059 0.0
H433 H 0.29258 0.12021 0.98233 0.0
H434 H 0.2988 0.1688 0.07859 0.0
C435 C 0.21826 0.10914 0.14763 0.0
C436 C 0.94333 0.1541 0.08568 0.0
C437 C 0.94636 0.12965 0.14119 0.0
H438 H 0.96756 0.19517 0.98214 0.0
C439 C 0.97855 0.13218 0.14878 0.0
H440 H 0.91894 0.15282 0.07827 0.0
C441 C 1.00624 0.15644 0.09451 0.0
C442 C 1.00236 0.17886 0.03269 0.0
H443 H 0.9818 0.11393 0.19185 0.0
H444 H 1.02991 0.15601 0.09526 0.0
C445 C 0.97115 0.17841 0.03118 0.0
C446 C 0.93183 0.87305 0.09266 0.0
C447 C 0.90922 0.8466 0.03139 0.0
H448 H 0.97443 0.89122 0.18955 0.0
C449 C 0.90948 0.81572 0.03032 0.0
H450 H 0.93242 0.89725 0.09305 0.0
C451 C 0.93376 0.8122 0.08476 0.0
C452 C 0.95836 0.83979 0.13978 0.0
H453 H 0.89257 0.79524 0.9817 0.0
H454 H 0.93487 0.78897 0.07773 0.0
C455 C 0.95605 0.86961 0.14688 0.0
C456 C 0.97859 0.86976 0.64671 0.0
C457 C 0.94645 0.8399 0.63981 0.0
H458 H 1.02988 0.89743 0.59266 0.0
C459 C 0.94347 0.81229 0.58495 0.0
H460 H 0.98183 0.89139 0.68928 0.0
C461 C 0.97128 0.81582 0.53046 0.0
C462 C 1.00242 0.84673 0.53132 0.0
H463 H 0.91912 0.78903 0.57809 0.0
H464 H 0.96771 0.79532 0.48195 0.0
C465 C 1.00627 0.87321 0.59243 0.0
C466 C 0.21871 0.13219 0.6484 0.0
C467 C 0.24837 0.12968 0.64059 0.0
H468 H 0.19114 0.15597 0.59511 0.0
C469 C 0.27583 0.15411 0.58487 0.0
H470 H 0.1972 0.11394 0.69163 0.0
C471 C 0.27229 0.17839 0.5304 0.0
C472 C 0.24152 0.17882 0.53217 0.0
H473 H 0.29893 0.15285 0.57729 0.0
H474 H 0.29263 0.19514 0.48122 0.0
C475 C 0.21524 0.15642 0.59417 0.0
C476 C 0.93145 0.08141 0.59391 0.0
C477 C 0.90896 0.08532 0.53258 0.0
H478 H 0.97404 0.1058 0.69092 0.0
C479 C 0.90937 0.11654 0.5316 0.0
H480 H 0.93191 0.05773 0.59422 0.0
C481 C 0.93371 0.14435 0.58614 0.0
C482 C 0.95822 0.1413 0.64116 0.0
H483 H 0.89254 0.12015 0.48294 0.0
H484 H 0.93495 0.16875 0.57916 0.0
C485 C 0.95574 0.10909 0.64824 0.0
C486 C 0.82969 0.95704 1.01347 0.0
C487 C 0.86048 0.98831 1.01209 0.0
H488 H 0.80306 0.90481 0.96615 0.0
C489 C 0.88683 0.99227 0.95035 0.0
H490 H 0.8093 0.95339 0.06244 0.0
C491 C 0.88341 0.96459 0.89599 0.0
C492 C 0.85371 0.93235 0.90342 0.0
H493 H 0.91095 1.01599 0.94972 0.0
H494 H 0.90496 0.96792 0.85297 0.0
C495 C 0.82619 0.92924 0.95887 0.0
C496 C 0.15867 0.9197 0.95874 0.0
C497 C 0.15559 0.94403 0.90281 0.0
H498 H 0.13448 0.87874 0.06262 0.0
C499 C 0.12336 0.94138 0.89482 0.0
H500 H 0.18309 0.92108 0.96645 0.0
C501 C 0.09566 0.91712 0.9491 0.0
C502 C 0.0996 0.89484 1.01135 0.0
H503 H 0.12006 0.95954 0.85142 0.0
H504 H 0.07195 0.91747 0.94804 0.0
C505 C 0.13086 0.8954 1.01327 0.0
C506 C 0.14601 0.20435 0.89672 0.0
C507 C 0.14359 0.2341 0.90419 0.0
H508 H 0.16972 0.17674 0.95026 0.0
C509 C 0.16809 0.26163 0.95961 0.0
H510 H 0.12771 0.18278 0.85373 0.0
C511 C 0.19236 0.25811 1.01409 0.0
C512 C 0.19271 0.22727 1.01263 0.0
H513 H 0.16689 0.28481 0.96694 0.0
H514 H 0.20918 0.27852 0.06302 0.0
C515 C 0.17023 0.2009 0.95095 0.0
C516 C 0.79 0.5376 0.73016 0.0
C517 C 0.82219 0.56737 0.73751 0.0
H518 H 0.73866 0.50998 0.78387 0.0
C519 C 0.82524 0.59492 0.79285 0.0
H520 H 0.78672 0.51603 0.68723 0.0
C521 C 0.79744 0.59139 0.84738 0.0
C522 C 0.76623 0.56054 0.84606 0.0
H523 H 0.84963 0.61811 0.80006 0.0
H524 H 0.80105 0.61182 0.89625 0.0
C525 C 0.76232 0.53415 0.78445 0.0
C526 C 0.55309 0.25051 0.78291 0.0
C527 C 0.52688 0.22823 0.84531 0.0
H528 H 0.57109 0.2929 0.68514 0.0
C529 C 0.49618 0.22878 0.84745 0.0
H530 H 0.57716 0.25087 0.78167 0.0
C531 C 0.49264 0.25304 0.79295 0.0
C532 C 0.52004 0.27736 0.73684 0.0
H533 H 0.4759 0.21212 0.89692 0.0
H534 H 0.46959 0.25441 0.80083 0.0
C535 C 0.54963 0.27474 0.72866 0.0
C536 C 0.83735 0.32563 0.78286 0.0
C537 C 0.85966 0.32164 0.84478 0.0
H538 H 0.79488 0.30128 0.6854 0.0
C539 C 0.8591 0.29035 0.84632 0.0
H540 H 0.83701 0.34936 0.7821 0.0
C541 C 0.83477 0.26255 0.79174 0.0
C542 C 0.81042 0.26567 0.73615 0.0
H543 H 0.87579 0.28669 0.89542 0.0
H544 H 0.8334 0.2381 0.79917 0.0
C545 C 0.81306 0.29794 0.72853 0.0
C546 C 0.88488 0.4425 0.48071 0.0
C547 C 0.91467 0.4747 0.47376 0.0
H548 H 0.85729 0.39116 0.42662 0.0
C549 C 0.94226 0.47773 0.41882 0.0
H550 H 0.86327 0.43923 0.52334 0.0
C551 C 0.93877 0.44992 0.36427 0.0
C552 C 0.90791 0.41872 0.36516 0.0
H553 H 0.96547 0.50212 0.41193 0.0
H554 H 0.95924 0.45352 0.31569 0.0
C555 C 0.88146 0.41482 0.42638 0.0
C556 C 0.64522 0.46551 0.48205 0.0
C557 C 0.61304 0.463 0.47451 0.0
H558 H 0.69658 0.48932 0.42848 0.0
C559 C 0.61002 0.48746 0.41905 0.0
H560 H 0.64848 0.44724 0.52507 0.0
C561 C 0.63785 0.51177 0.36456 0.0
C562 C 0.66905 0.5122 0.36602 0.0
H563 H 0.58565 0.48619 0.41169 0.0
H564 H 0.63427 0.52855 0.31557 0.0
C565 C 0.67292 0.48977 0.42778 0.0
C566 C 0.62274 0.20295 0.48026 0.0
C567 C 0.62504 0.17313 0.47315 0.0
H568 H 0.59911 0.2306 0.42645 0.0
C569 C 0.60043 0.14554 0.41812 0.0
H570 H 0.64112 0.22456 0.52294 0.0
C571 C 0.57615 0.14906 0.36369 0.0
C572 C 0.5759 0.17995 0.36478 0.0
H573 H 0.60153 0.12231 0.41109 0.0
H574 H 0.55924 0.12859 0.31507 0.0
C575 C 0.59852 0.2064 0.42605 0.0
C576 C 0.61017 0.14564 0.91849 0.0
C577 C 0.61315 0.17328 0.97317 0.0
H578 H 0.63442 0.12863 0.81563 0.0
C579 C 0.64527 0.20316 0.97991 0.0
H580 H 0.58584 0.12237 0.91177 0.0
C581 C 0.67294 0.2066 0.92563 0.0
C582 C 0.66911 0.18009 0.86469 0.0
H583 H 0.6485 0.22481 0.02234 0.0
H584 H 0.69655 0.23083 0.92572 0.0
C585 C 0.63798 0.14915 0.86401 0.0
C586 C 0.88534 0.46546 0.98148 0.0
C587 C 0.91502 0.46298 0.97375 0.0
H588 H 0.85777 0.48923 0.92815 0.0
C589 C 0.94249 0.48743 0.91811 0.0
H590 H 0.86382 0.4472 0.02464 0.0
C591 C 0.93895 0.51171 0.86366 0.0
C592 C 0.90818 0.51213 0.86536 0.0
H593 H 0.9656 0.48618 0.91059 0.0
H594 H 0.95931 0.52849 0.81456 0.0
C595 C 0.88188 0.4897 0.92727 0.0
C596 C 0.62245 0.44246 0.98155 0.0
C597 C 0.62492 0.47467 0.97449 0.0
H598 H 0.59863 0.3911 0.92755 0.0
C599 C 0.60041 0.47771 0.91947 0.0
H600 H 0.64075 0.43918 0.02425 0.0
C601 C 0.57607 0.4499 0.86494 0.0
C602 C 0.57566 0.41868 0.86592 0.0
H603 H 0.60165 0.50211 0.91249 0.0
H604 H 0.55924 0.45351 0.81628 0.0
C605 C 0.59816 0.41477 0.92724 0.0
C606 C 0.55006 0.29793 0.22936 0.0
C607 C 0.52037 0.26568 0.23683 0.0
H608 H 0.5776 0.34933 0.28304 0.0
C609 C 0.49286 0.26257 0.29231 0.0
H610 H 0.57161 0.30125 0.18631 0.0
C611 C 0.49635 0.29037 0.34689 0.0
C612 C 0.52714 0.32164 0.34548 0.0
H613 H 0.46973 0.23813 0.29961 0.0
H614 H 0.47596 0.28672 0.39589 0.0
C615 C 0.55348 0.32561 0.2837 0.0
C616 C 0.82534 0.25302 0.29204 0.0
C617 C 0.82225 0.27735 0.23614 0.0
H618 H 0.80115 0.21205 0.3959 0.0
C619 C 0.79002 0.27471 0.22819 0.0
H620 H 0.84975 0.25439 0.29972 0.0
C621 C 0.76232 0.25045 0.28247 0.0
C622 C 0.76626 0.22816 0.34469 0.0
H623 H 0.78672 0.29288 0.18482 0.0
H624 H 0.73862 0.2508 0.28143 0.0
C625 C 0.79752 0.22872 0.34657 0.0
C626 C 0.85901 0.59151 0.34759 0.0
C627 C 0.85942 0.5607 0.34594 0.0
H628 H 0.83351 0.61818 0.3006 0.0
C629 C 0.83699 0.53436 0.28408 0.0
H630 H 0.87579 0.61189 0.39666 0.0
C631 C 0.81277 0.53781 0.22986 0.0
C632 C 0.8103 0.56752 0.23752 0.0
H633 H 0.83652 0.51022 0.28324 0.0
H634 H 0.79451 0.51626 0.18673 0.0
C635 C 0.83474 0.59503 0.29312 0.0
C636 C 0.4639 0.92461 0.18002 0.0
C637 C 0.43277 0.89368 0.17928 0.0
H638 H 0.51604 0.95139 0.1323 0.0
C639 C 0.42893 0.86717 0.11829 0.0
H640 H 0.46746 0.94512 0.22843 0.0
C641 C 0.4566 0.87062 0.06401 0.0
C642 C 0.48873 0.90049 0.0708 0.0
H643 H 0.40532 0.84295 0.11817 0.0
H644 H 0.45337 0.84897 1.02155 0.0
C645 C 0.49171 0.92812 0.12553 0.0
C646 C 0.22009 0.58413 0.11691 0.0
C647 C 0.19375 0.56165 0.17865 0.0
H648 H 0.23817 0.62667 1.01968 0.0
C649 C 0.16296 0.56203 0.18017 0.0
H650 H 0.24421 0.58463 0.11617 0.0
C651 C 0.15943 0.58632 0.12572 0.0
C652 C 0.18693 0.61082 0.07026 0.0
H653 H 0.14258 0.54521 0.22914 0.0
H654 H 0.13629 0.58753 0.13311 0.0
C655 C 0.21663 0.60837 0.06269 0.0
C656 C 0.50148 0.59608 0.12443 0.0
C657 C 0.47694 0.59912 0.06951 0.0
H658 H 0.54268 0.62029 0.22754 0.0
C659 C 0.4794 0.63131 0.06253 0.0
H660 H 0.50026 0.57169 0.13134 0.0
C661 C 0.50369 0.659 0.11684 0.0
C662 C 0.52622 0.6551 0.17806 0.0
H663 H 0.46108 0.63459 1.01991 0.0
H664 H 0.50321 0.68266 0.11659 0.0
C665 C 0.52583 0.62389 0.17895 0.0
C666 C 0.60903 0.81121 0.7517 0.0
C667 C 0.58151 0.80809 0.80717 0.0
H668 H 0.62593 0.78705 0.64813 0.0
C669 C 0.55182 0.77584 0.81462 0.0
H670 H 0.63216 0.83564 0.74442 0.0
C671 C 0.5484 0.74816 0.76027 0.0
C672 C 0.57475 0.75213 0.69851 0.0
H673 H 0.53027 0.77252 0.85766 0.0
H674 H 0.52428 0.72444 0.76092 0.0
C675 C 0.60554 0.7834 0.69712 0.0
C676 C 0.30435 0.84504 0.69733 0.0
C677 C 0.33562 0.84562 0.69929 0.0
H678 H 0.25211 0.81936 0.74412 0.0
C679 C 0.33956 0.82335 0.76159 0.0
H680 H 0.30072 0.86169 0.64794 0.0
C681 C 0.31186 0.79909 0.81588 0.0
C682 C 0.27963 0.79643 0.80786 0.0
H683 H 0.36327 0.82301 0.76268 0.0
H684 H 0.31517 0.78094 0.85931 0.0
C685 C 0.27653 0.82075 0.75188 0.0
C686 C 0.24287 0.48224 0.69638 0.0
C687 C 0.24245 0.51304 0.6981 0.0
H688 H 0.26839 0.45558 0.74332 0.0
C689 C 0.26485 0.53936 0.76005 0.0
H690 H 0.22611 0.46187 0.64725 0.0
C691 C 0.28907 0.53591 0.81428 0.0
C692 C 0.29156 0.50621 0.80654 0.0
H693 H 0.2653 0.56349 0.76095 0.0
H694 H 0.30731 0.55744 0.85747 0.0
C695 C 0.26714 0.47871 0.75086 0.0
C696 C 0.31189 0.53613 0.31395 0.0
C697 C 0.27969 0.50637 0.30655 0.0
H698 H 0.36323 0.56374 0.26027 0.0
C699 C 0.27663 0.47883 0.25115 0.0
H700 H 0.31517 0.55769 0.35694 0.0
C701 C 0.30443 0.48236 0.1966 0.0
C702 C 0.33564 0.5132 0.19797 0.0
H703 H 0.25224 0.45565 0.24389 0.0
H704 H 0.30081 0.46194 0.14768 0.0
C705 C 0.33956 0.53958 0.25965 0.0
C706 C 0.60924 0.82073 0.25105 0.0
C707 C 0.58184 0.79641 0.30716 0.0
H708 H 0.62598 0.86166 0.14708 0.0
C709 C 0.55225 0.79903 0.31533 0.0
H710 H 0.63229 0.81937 0.24319 0.0
C711 C 0.54879 0.82326 0.26108 0.0
C712 C 0.57499 0.84554 0.19868 0.0
H713 H 0.53079 0.78087 0.35886 0.0
H714 H 0.52472 0.8229 0.26232 0.0
C715 C 0.6057 0.845 0.19655 0.0
C716 C 0.26712 0.81125 0.25216 0.0
C717 C 0.29145 0.80811 0.30784 0.0
H718 H 0.22613 0.78711 0.14842 0.0
C719 C 0.28879 0.77584 0.31554 0.0
H720 H 0.26851 0.8357 0.24468 0.0
C721 C 0.2645 0.74815 0.26121 0.0
C722 C 0.24221 0.75214 0.19921 0.0
H723 H 0.30695 0.7725 0.35875 0.0
H724 H 0.26483 0.72441 0.26204 0.0
C725 C 0.2428 0.78344 0.19759 0.0
C726 C 0.16314 0.62386 0.6797 0.0
C727 C 0.194 0.65506 0.67884 0.0
H728 H 0.13643 0.57167 0.63203 0.0
C729 C 0.22046 0.65895 0.61766 0.0
H730 H 0.14266 0.62027 0.72825 0.0
C731 C 0.21704 0.63127 0.56333 0.0
C732 C 0.18724 0.59908 0.57025 0.0
H733 H 0.24463 0.68261 0.61744 0.0
H734 H 0.23865 0.63454 0.52074 0.0
C735 C 0.15965 0.59605 0.62515 0.0
C736 C 0.42894 0.58403 0.61632 0.0
C737 C 0.43281 0.56157 0.67799 0.0
H738 H 0.45339 0.62657 0.5191 0.0
C739 C 0.464 0.56199 0.67936 0.0
H740 H 0.40529 0.58449 0.61569 0.0
C741 C 0.49182 0.5863 0.62486 0.0
C742 C 0.48881 0.61078 0.5695 0.0
H743 H 0.46758 0.54519 0.72828 0.0
H744 H 0.5162 0.58755 0.63216 0.0
C745 C 0.45664 0.60829 0.56205 0.0
C746 C 0.50146 0.92822 0.62576 0.0
C747 C 0.47683 0.90062 0.57082 0.0
H748 H 0.54267 0.94519 0.72876 0.0
C749 C 0.47912 0.87079 0.56378 0.0
H750 H 0.50037 0.95146 0.63273 0.0
C751 C 0.50334 0.86734 0.618 0.0
C752 C 0.52598 0.89381 0.67919 0.0
H753 H 0.46073 0.84917 0.52116 0.0
H754 H 0.50274 0.84314 0.61766 0.0
C755 C 0.52574 0.9247 0.68019 0.0
C756 C 0.11392 0.34035 0.5502 0.0
C757 C 0.11172 0.33813 0.6538 0.0
H758 H 0.12949 0.37268 0.42291 0.0
C759 C 0.12797 0.36839 0.70834 0.0
H760 H 0.10215 0.3175 0.50553 0.0
C761 C 0.14369 0.40004 0.66051 0.0
C762 C 0.14372 0.40226 0.55692 0.0
H763 H 0.12699 0.36771 0.78781 0.0
H764 H 0.15472 0.42289 0.70519 0.0
C765 C 0.12978 0.372 0.50237 0.0
C766 C 0.74745 0.79604 0.54993 0.0
C767 C 0.74973 0.79615 0.65352 0.0
H768 H 0.71508 0.77931 0.42276 0.0
C769 C 0.71953 0.78229 0.70817 0.0
H770 H 0.77025 0.80701 0.50517 0.0
C771 C 0.68788 0.76645 0.66046 0.0
C772 C 0.68559 0.76419 0.55687 0.0
H773 H 0.72025 0.78206 0.78763 0.0
H774 H 0.66507 0.75475 0.70522 0.0
C775 C 0.7158 0.78034 0.50222 0.0
C776 C 0.30575 0.96025 0.70837 0.0
C777 C 0.29175 0.9764 0.65359 0.0
H778 H 0.33349 0.93356 0.70564 0.0
C779 C 0.29183 0.97411 0.55001 0.0
H780 H 0.30601 0.96129 0.78782 0.0
C781 C 0.30763 0.95825 0.50244 0.0
C782 C 0.32392 0.94439 0.55721 0.0
H783 H 0.28076 0.9858 0.50517 0.0
H784 H 0.30862 0.95845 0.42298 0.0
C785 C 0.32169 0.94452 0.66079 0.0
C786 C 0.38249 0.11372 0.8356 0.0
C787 C 0.35228 0.09761 0.89026 0.0
H788 H 0.43694 0.14033 0.83853 0.0
C789 C 0.35457 0.0999 0.99384 0.0
H790 H 0.38176 0.11268 0.75614 0.0
C791 C 0.38622 0.11571 0.04155 0.0
C792 C 0.41642 0.12952 0.98689 0.0
H793 H 0.33176 0.08823 0.0386 0.0
H794 H 0.38694 0.1155 0.12101 0.0
C795 C 0.41414 0.1294 0.8833 0.0
C796 C 0.97422 0.29147 0.83583 0.0
C797 C 0.99049 0.2776 0.89061 0.0
H798 H 0.94739 0.31907 0.83854 0.0
C799 C 0.98828 0.27776 0.99419 0.0
H800 H 0.97519 0.29166 0.75636 0.0
C801 C 0.97237 0.29351 0.04175 0.0
C802 C 0.95838 0.30967 0.98696 0.0
H803 H 1.00007 0.26679 0.03904 0.0
H804 H 0.97264 0.29457 0.12121 0.0
C805 C 0.95844 0.30736 0.88339 0.0
C806 C 0.81043 0.7334 0.99387 0.0
C807 C 0.81048 0.73562 0.89027 0.0
H808 H 0.79369 0.70108 0.12116 0.0
C809 C 0.79654 0.70536 0.83573 0.0
H810 H 0.82146 0.75625 0.03854 0.0
C811 C 0.78065 0.67371 0.88356 0.0
C812 C 0.77843 0.67149 0.98716 0.0
H813 H 0.79626 0.70604 0.75626 0.0
H814 H 0.76888 0.65086 0.83889 0.0
C815 C 0.79468 0.70175 0.0417 0.0
C816 C 0.95816 0.67372 0.3835 0.0
C817 C 0.95813 0.6715 0.4871 0.0
H818 H 0.97485 0.70605 0.25621 0.0
C819 C 0.97205 0.70176 0.54164 0.0
H820 H 0.94715 0.65087 0.33882 0.0
C821 C 0.98789 0.73341 0.49382 0.0
C822 C 0.9901 0.73564 0.39022 0.0
H823 H 0.97234 0.70108 0.62111 0.0
H824 H 0.99966 0.75626 0.53849 0.0
C825 C 0.97386 0.70537 0.33568 0.0
C826 C 0.35443 0.27766 0.49411 0.0
C827 C 0.35214 0.27755 0.39052 0.0
H828 H 0.3868 0.29442 0.62126 0.0
C829 C 0.38234 0.29141 0.33586 0.0
H830 H 0.33162 0.2667 0.53887 0.0
C831 C 0.41399 0.30727 0.38356 0.0
C832 C 0.41629 0.30955 0.48714 0.0
H833 H 0.38162 0.29164 0.25639 0.0
H834 H 0.4368 0.31898 0.33879 0.0
C835 C 0.38608 0.29338 0.5418 0.0
C836 C 0.81011 0.09972 0.49399 0.0
C837 C 0.8102 0.09744 0.39042 0.0
H838 H 0.79331 0.11537 0.62102 0.0
C839 C 0.79618 0.11357 0.33563 0.0
H840 H 0.82119 0.08803 0.53884 0.0
C841 C 0.78023 0.12928 0.3832 0.0
C842 C 0.778 0.12942 0.48678 0.0
H843 H 0.79592 0.11252 0.25618 0.0
H844 H 0.76842 0.14024 0.33835 0.0
C845 C 0.7943 0.11557 0.54156 0.0
C846 C 0.71566 0.95811 1.00245 0.0
C847 C 0.68547 0.94428 0.0571 0.0
H848 H 0.77012 0.98562 1.0054 0.0
C849 C 0.68774 0.94439 0.16069 0.0
H850 H 0.71494 0.95833 0.92299 0.0
C851 C 0.71939 0.96008 0.2084 0.0
C852 C 0.7496 0.97621 0.15374 0.0
H853 H 0.66494 0.93344 0.20545 0.0
H854 H 0.72011 0.96112 0.28786 0.0
C855 C 0.74731 0.97393 0.05016 0.0
C856 C 0.11355 0.79595 0.04986 0.0
C857 C 0.11134 0.79609 0.15344 0.0
H858 H 0.12921 0.77916 0.92283 0.0
C859 C 0.12761 0.78223 0.20821 0.0
H860 H 0.10176 0.80692 1.00501 0.0
C861 C 0.1434 0.76634 0.16063 0.0
C862 C 0.14347 0.76405 0.05706 0.0
H863 H 0.12663 0.78202 0.28767 0.0
H864 H 0.15445 0.75464 0.20548 0.0
C865 C 0.12947 0.78021 1.00228 0.0
C866 C 0.3054 0.3684 0.20829 0.0
C867 C 0.29146 0.33814 0.15375 0.0
H868 H 0.33304 0.4229 0.20513 0.0
C869 C 0.29151 0.34036 0.05015 0.0
H870 H 0.30567 0.36772 0.28775 0.0
C871 C 0.30725 0.37201 1.00232 0.0
C872 C 0.32349 0.40227 0.05686 0.0
H873 H 0.28049 0.31751 1.00548 0.0
H874 H 0.30824 0.37268 0.92286 0.0
C875 C 0.32127 0.40005 0.16046 0.0
C876 C 0.04914 0.44712 0.16891 0.0
C877 C 1.01893 0.43097 0.22357 0.0
H878 H 0.10359 0.47378 0.17185 0.0
C879 C 1.02122 0.43325 0.32715 0.0
H880 H 0.04841 0.44608 0.08945 0.0
C881 C 0.05287 0.44909 0.37486 0.0
C882 C 0.08307 0.46293 0.32021 0.0
H883 H 0.99841 0.42155 0.37191 0.0
H884 H 0.05359 0.44887 0.45433 0.0
C885 C 0.08079 0.46283 0.21662 0.0
C886 C 0.65487 0.61104 0.32743 0.0
C887 C 0.65712 0.61092 0.22386 0.0
H888 H 0.63918 0.6278 0.45445 0.0
C889 C 0.64085 0.62479 0.16906 0.0
H890 H 0.66666 0.60007 0.37229 0.0
C891 C 0.62505 0.64066 0.21663 0.0
C892 C 0.62495 0.64293 0.3202 0.0
H893 H 0.64185 0.62501 0.08961 0.0
H894 H 0.614 0.65237 0.17177 0.0
C895 C 0.63893 0.62677 0.37499 0.0
C896 C 0.44743 1.00706 0.21688 0.0
C897 C 0.4452 1.00483 0.32048 0.0
H898 H 0.46302 0.03939 0.08961 0.0
C899 C 0.46143 0.03509 0.37504 0.0
H900 H 0.43567 0.98421 0.1722 0.0
C901 C 0.47715 0.06674 0.32722 0.0
C902 C 0.4772 0.06897 0.22363 0.0
H903 H 0.46043 0.03441 0.4545 0.0
H904 H 0.48816 0.08959 0.37191 0.0
C905 C 0.46329 0.03871 0.16907 0.0
C906 C 0.62473 1.00703 0.71676 0.0
C907 C 0.62468 1.0048 0.82035 0.0
H908 H 0.64146 0.03936 0.58948 0.0
C909 C 0.6386 0.03506 0.87491 0.0
H910 H 0.61372 0.98418 0.67207 0.0
C911 C 0.65447 0.06671 0.8271 0.0
C912 C 0.6567 0.06894 0.7235 0.0
H913 H 0.63888 0.03438 0.95437 0.0
H914 H 0.66624 0.08956 0.87178 0.0
C915 C 0.64046 0.03868 0.66894 0.0
C916 C 0.08067 0.64051 0.71683 0.0
C917 C 0.08296 0.64278 0.82042 0.0
H918 H 0.0483 0.62492 0.58966 0.0
C919 C 0.05275 0.62663 0.87507 0.0
H920 H 0.10348 0.65221 0.67208 0.0
C921 C 1.0211 0.61094 0.82737 0.0
C922 C 1.01882 0.61084 0.72378 0.0
H923 H 0.05348 0.62766 0.95453 0.0
H924 H 0.9983 0.59998 0.87213 0.0
C925 C 0.04902 0.62468 0.66912 0.0
C926 C 0.47684 0.43312 0.82735 0.0
C927 C 0.47692 0.43083 0.72378 0.0
H928 H 0.46005 0.44878 0.95437 0.0
C929 C 0.46294 0.447 0.66899 0.0
H930 H 0.48788 0.4214 0.87221 0.0
C931 C 0.44701 0.46274 0.71655 0.0
C932 C 0.44478 0.46287 0.82013 0.0
H933 H 0.46268 0.44595 0.58953 0.0
H934 H 0.43522 0.47371 0.67169 0.0
C935 C 0.46105 0.44899 0.87492 0.0
loop_
_geom_bond_atom_site_label_1
_geom_bond_atom_site_label_2
_geom_bond_distance
_geom_bond_site_symmetry_2
_ccdc_geom_bond_type
Fe0 O2 1.918 . S
Fe0 O5 1.997 1_455 S
Fe0 O6 2.002 1_455 S
Fe0 O11 1.976 . S
Fe0 O14 1.996 . S
Fe1 O2 1.918 . S
Fe1 O9 1.997 1_455 S
Fe1 O12 1.996 . S
Fe1 O16 1.976 . S
Fe1 O19 2.002 1_455 S
O2 Fe0 1.918 . S
O2 Fe1 1.918 . S
O2 Fe3 1.918 . S
Fe3 O2 1.918 . S
Fe3 O4 2.002 1_455 S
Fe3 O13 1.976 . S
Fe3 O17 1.996 . S
Fe3 O20 1.997 1_455 S
O4 Fe3 2.002 1_655 S
O4 C21 1.295 . S
O5 Fe0 1.997 1_655 S
O5 C21 1.235 . S
O6 Fe0 2.002 1_655 S
O6 C7 1.295 . S
C7 O6 1.295 . S
C7 O9 1.235 . S
C8 O13 1.287 . S
C8 O14 1.255 . S
O9 Fe1 1.997 1_655 S
O9 C7 1.235 . S
C10 O16 1.287 . S
C10 O17 1.255 . S
O11 Fe0 1.976 . S
O11 C18 1.287 . S
O12 Fe1 1.996 . S
O12 C18 1.255 . S
O13 Fe3 1.976 . S
O13 C8 1.287 . S
O14 Fe0 1.996 . S
O14 C8 1.255 . S
C15 O19 1.295 . S
C15 O20 1.235 . S
O16 Fe1 1.976 . S
O16 C10 1.287 . S
O17 Fe3 1.996 . S
O17 C10 1.255 . S
C18 O11 1.287 . S
C18 O12 1.255 . S
O19 Fe1 2.002 1_655 S
O19 C15 1.295 . S
O20 Fe3 1.997 1_655 S
O20 C15 1.235 . S
C21 O4 1.295 . S
C21 O5 1.235 . S
Fe22 O24 1.918 . S
Fe22 O27 1.997 . S
Fe22 O28 2.002 . S
Fe22 O33 1.976 . S
Fe22 O36 1.996 . S
Fe23 O24 1.918 . S
Fe23 O31 1.997 . S
Fe23 O34 1.996 . S
Fe23 O38 1.976 . S
Fe23 O41 2.002 . S
O24 Fe22 1.918 . S
O24 Fe23 1.918 . S
O24 Fe25 1.918 . S
Fe25 O24 1.918 . S
Fe25 O26 2.002 . S
Fe25 O35 1.976 . S
Fe25 O39 1.996 . S
Fe25 O42 1.997 . S
O26 Fe25 2.002 . S
O26 C43 1.295 . S
O27 Fe22 1.997 . S
O27 C43 1.235 . S
O28 Fe22 2.002 . S
O28 C29 1.295 . S
C29 O28 1.295 . S
C29 O31 1.235 . S
C30 O35 1.287 . S
C30 O36 1.255 . S
O31 Fe23 1.997 . S
O31 C29 1.235 . S
C32 O38 1.287 . S
C32 O39 1.255 . S
O33 Fe22 1.976 . S
O33 C40 1.287 . S
O34 Fe23 1.996 . S
O34 C40 1.255 . S
O35 Fe25 1.976 . S
O35 C30 1.287 . S
O36 Fe22 1.996 . S
O36 C30 1.255 . S
C37 O41 1.295 . S
C37 O42 1.235 . S
O38 Fe23 1.976 . S
O38 C32 1.287 . S
O39 Fe25 1.996 . S
O39 C32 1.255 . S
C40 O33 1.287 . S
C40 O34 1.255 . S
O41 Fe23 2.002 . S
O41 C37 1.295 . S
O42 Fe25 1.997 . S
O42 C37 1.235 . S
C43 O26 1.295 . S
C43 O27 1.235 . S
Fe44 O46 1.918 . S
Fe44 O49 1.997 1_545 S
Fe44 O50 2.002 1_545 S
Fe44 O55 1.976 . S
Fe44 O58 1.996 . S
Fe45 O46 1.918 . S
Fe45 O53 1.997 1_545 S
Fe45 O56 1.996 . S
Fe45 O60 1.976 . S
Fe45 O63 2.002 1_545 S
O46 Fe44 1.918 . S
O46 Fe45 1.918 . S
O46 Fe47 1.918 . S
Fe47 O46 1.918 . S
Fe47 O48 2.002 1_545 S
Fe47 O57 1.976 . S
Fe47 O61 1.996 . S
Fe47 O64 1.997 1_545 S
O48 Fe47 2.002 1_565 S
O48 C65 1.295 . S
O49 Fe44 1.997 1_565 S
O49 C65 1.235 . S
O50 Fe44 2.002 1_565 S
O50 C51 1.295 . S
C51 O50 1.295 . S
C51 O53 1.235 . S
C52 O57 1.287 . S
C52 O58 1.255 . S
O53 Fe45 1.997 1_565 S
O53 C51 1.235 . S
C54 O60 1.287 . S
C54 O61 1.255 . S
O55 Fe44 1.976 . S
O55 C62 1.287 . S
O56 Fe45 1.996 . S
O56 C62 1.255 . S
O57 Fe47 1.976 . S
O57 C52 1.287 . S
O58 Fe44 1.996 . S
O58 C52 1.255 . S
C59 O63 1.295 . S
C59 O64 1.235 . S
O60 Fe45 1.976 . S
O60 C54 1.287 . S
O61 Fe47 1.996 . S
O61 C54 1.255 . S
C62 O55 1.287 . S
C62 O56 1.255 . S
O63 Fe45 2.002 1_565 S
O63 C59 1.295 . S
O64 Fe47 1.997 1_565 S
O64 C59 1.235 . S
C65 O48 1.295 . S
C65 O49 1.235 . S
Fe66 O68 1.918 . S
Fe66 O71 1.997 . S
Fe66 O72 2.002 . S
Fe66 O77 1.976 1_455 S
Fe66 O80 1.996 1_455 S
Fe67 O68 1.918 . S
Fe67 O75 1.997 . S
Fe67 O78 1.996 1_455 S
Fe67 O82 1.976 1_455 S
Fe67 O85 2.002 . S
O68 Fe66 1.918 . S
O68 Fe67 1.918 . S
O68 Fe69 1.918 . S
Fe69 O68 1.918 . S
Fe69 O70 2.002 . S
Fe69 O79 1.976 1_455 S
Fe69 O83 1.996 1_455 S
Fe69 O86 1.997 . S
O70 Fe69 2.002 . S
O70 C87 1.295 . S
O71 Fe66 1.997 . S
O71 C87 1.235 . S
O72 Fe66 2.002 . S
O72 C73 1.295 . S
C73 O72 1.295 . S
C73 O75 1.235 . S
C74 O79 1.287 . S
C74 O80 1.255 . S
O75 Fe67 1.997 . S
O75 C73 1.235 . S
C76 O82 1.287 . S
C76 O83 1.255 . S
O77 Fe66 1.976 1_655 S
O77 C84 1.287 . S
O78 Fe67 1.996 1_655 S
O78 C84 1.255 . S
O79 Fe69 1.976 1_655 S
O79 C74 1.287 . S
O80 Fe66 1.996 1_655 S
O80 C74 1.255 . S
C81 O85 1.295 . S
C81 O86 1.235 . S
O82 Fe67 1.976 1_655 S
O82 C76 1.287 . S
O83 Fe69 1.996 1_655 S
O83 C76 1.255 . S
C84 O77 1.287 . S
C84 O78 1.255 . S
O85 Fe67 2.002 . S
O85 C81 1.295 . S
O86 Fe69 1.997 . S
O86 C81 1.235 . S
C87 O70 1.295 . S
C87 O71 1.235 . S
Fe88 O90 1.918 . S
Fe88 O93 1.997 . S
Fe88 O94 2.002 . S
Fe88 O99 1.976 . S
Fe88 O102 1.996 . S
Fe89 O90 1.918 . S
Fe89 O97 1.997 . S
Fe89 O100 1.996 . S
Fe89 O104 1.976 . S
Fe89 O107 2.002 . S
O90 Fe88 1.918 . S
O90 Fe89 1.918 . S
O90 Fe91 1.918 . S
Fe91 O90 1.918 . S
Fe91 O92 2.002 . S
Fe91 O101 1.976 . S
Fe91 O105 1.996 . S
Fe91 O108 1.997 . S
O92 Fe91 2.002 . S
O92 C109 1.295 . S
O93 Fe88 1.997 . S
O93 C109 1.235 . S
O94 Fe88 2.002 . S
O94 C95 1.295 . S
C95 O94 1.295 . S
C95 O97 1.235 . S
C96 O101 1.287 . S
C96 O102 1.255 . S
O97 Fe89 1.997 . S
O97 C95 1.235 . S
C98 O104 1.287 . S
C98 O105 1.255 . S
O99 Fe88 1.976 . S
O99 C106 1.287 . S
O100 Fe89 1.996 . S
O100 C106 1.255 . S
O101 Fe91 1.976 . S
O101 C96 1.287 . S
O102 Fe88 1.996 . S
O102 C96 1.255 . S
C103 O107 1.295 . S
C103 O108 1.235 . S
O104 Fe89 1.976 . S
O104 C98 1.287 . S
O105 Fe91 1.996 . S
O105 C98 1.255 . S
C106 O99 1.287 . S
C106 O100 1.255 . S
O107 Fe89 2.002 . S
O107 C103 1.295 . S
O108 Fe91 1.997 . S
O108 C103 1.235 . S
C109 O92 1.295 . S
C109 O93 1.235 . S
Fe110 O112 1.918 . S
Fe110 O115 1.997 . S
Fe110 O116 2.002 . S
Fe110 O121 1.976 1_545 S
Fe110 O124 1.996 1_545 S
Fe111 O112 1.918 . S
Fe111 O119 1.997 . S
Fe111 O122 1.996 1_545 S
Fe111 O126 1.976 1_545 S
Fe111 O129 2.002 . S
O112 Fe110 1.918 . S
O112 Fe111 1.918 . S
O112 Fe113 1.918 . S
Fe113 O112 1.918 . S
Fe113 O114 2.002 . S
Fe113 O123 1.976 1_545 S
Fe113 O127 1.996 1_545 S
Fe113 O130 1.997 . S
O114 Fe113 2.002 . S
O114 C131 1.295 . S
O115 Fe110 1.997 . S
O115 C131 1.235 . S
O116 Fe110 2.002 . S
O116 C117 1.295 . S
C117 O116 1.295 . S
C117 O119 1.235 . S
C118 O123 1.287 . S
C118 O124 1.255 . S
O119 Fe111 1.997 . S
O119 C117 1.235 . S
C120 O126 1.287 . S
C120 O127 1.255 . S
O121 Fe110 1.976 1_565 S
O121 C128 1.287 . S
O122 Fe111 1.996 1_565 S
O122 C128 1.255 . S
O123 Fe113 1.976 1_565 S
O123 C118 1.287 . S
O124 Fe110 1.996 1_565 S
O124 C118 1.255 . S
C125 O129 1.295 . S
C125 O130 1.235 . S
O126 Fe111 1.976 1_565 S
O126 C120 1.287 . S
O127 Fe113 1.996 1_565 S
O127 C120 1.255 . S
C128 O121 1.287 . S
C128 O122 1.255 . S
O129 Fe111 2.002 . S
O129 C125 1.295 . S
O130 Fe113 1.997 . S
O130 C125 1.235 . S
C131 O114 1.295 . S
C131 O115 1.235 . S
Fe132 O134 1.918 . S
Fe132 O137 1.997 . S
Fe132 O138 2.002 . S
Fe132 O143 1.976 . S
Fe132 O146 1.996 . S
Fe133 O134 1.918 . S
Fe133 O141 1.997 . S
Fe133 O144 1.996 . S
Fe133 O148 1.976 1_554 S
Fe133 O151 2.002 1_554 S
O134 Fe132 1.918 . S
O134 Fe133 1.918 . S
O134 Fe135 1.918 1_554 S
Fe135 O134 1.918 1_556 S
Fe135 O136 2.002 . S
Fe135 O145 1.976 1_556 S
Fe135 O149 1.996 . S
Fe135 O152 1.997 . S
O136 Fe135 2.002 . S
O136 C153 1.295 1_556 S
O137 Fe132 1.997 . S
O137 C153 1.235 . S
O138 Fe132 2.002 . S
O138 C139 1.295 . S
C139 O138 1.295 . S
C139 O141 1.235 . S
C140 O145 1.287 . S
C140 O146 1.255 . S
O141 Fe133 1.997 . S
O141 C139 1.235 . S
C142 O148 1.287 . S
C142 O149 1.255 . S
O143 Fe132 1.976 . S
O143 C150 1.287 . S
O144 Fe133 1.996 . S
O144 C150 1.255 . S
O145 Fe135 1.976 1_554 S
O145 C140 1.287 . S
O146 Fe132 1.996 . S
O146 C140 1.255 . S
C147 O151 1.295 . S
C147 O152 1.235 . S
O148 Fe133 1.976 1_556 S
O148 C142 1.287 . S
O149 Fe135 1.996 . S
O149 C142 1.255 . S
C150 O143 1.287 . S
C150 O144 1.255 . S
O151 Fe133 2.002 1_556 S
O151 C147 1.295 . S
O152 Fe135 1.997 . S
O152 C147 1.235 . S
C153 O136 1.295 1_554 S
C153 O137 1.235 . S
Fe154 O156 1.918 . S
Fe154 O159 1.997 . S
Fe154 O160 2.002 . S
Fe154 O165 1.976 . S
Fe154 O168 1.996 . S
Fe155 O156 1.918 . S
Fe155 O163 1.997 . S
Fe155 O166 1.996 . S
Fe155 O170 1.976 1_554 S
Fe155 O173 2.002 1_554 S
O156 Fe154 1.918 . S
O156 Fe155 1.918 . S
O156 Fe157 1.918 1_554 S
Fe157 O156 1.918 1_556 S
Fe157 O158 2.002 . S
Fe157 O167 1.976 1_556 S
Fe157 O171 1.996 . S
Fe157 O174 1.997 . S
O158 Fe157 2.002 . S
O158 C175 1.295 1_556 S
O159 Fe154 1.997 . S
O159 C175 1.235 . S
O160 Fe154 2.002 . S
O160 C161 1.295 . S
C161 O160 1.295 . S
C161 O163 1.235 . S
C162 O167 1.287 . S
C162 O168 1.255 . S
O163 Fe155 1.997 . S
O163 C161 1.235 . S
C164 O170 1.287 . S
C164 O171 1.255 . S
O165 Fe154 1.976 . S
O165 C172 1.287 . S
O166 Fe155 1.996 . S
O166 C172 1.255 . S
O167 Fe157 1.976 1_554 S
O167 C162 1.287 . S
O168 Fe154 1.996 . S
O168 C162 1.255 . S
C169 O173 1.295 . S
C169 O174 1.235 . S
O170 Fe155 1.976 1_556 S
O170 C164 1.287 . S
O171 Fe157 1.996 . S
O171 C164 1.255 . S
C172 O165 1.287 . S
C172 O166 1.255 . S
O173 Fe155 2.002 1_556 S
O173 C169 1.295 . S
O174 Fe157 1.997 . S
O174 C169 1.235 . S
C175 O158 1.295 1_554 S
C175 O159 1.235 . S
Fe176 O178 1.918 . S
Fe176 O181 1.997 . S
Fe176 O182 2.002 . S
Fe176 O187 1.976 . S
Fe176 O190 1.996 . S
Fe177 O178 1.918 . S
Fe177 O185 1.997 . S
Fe177 O188 1.996 . S
Fe177 O192 1.976 1_554 S
Fe177 O195 2.002 1_554 S
O178 Fe176 1.918 . S
O178 Fe177 1.918 . S
O178 Fe179 1.918 1_554 S
Fe179 O178 1.918 1_556 S
Fe179 O180 2.002 . S
Fe179 O189 1.976 1_556 S
Fe179 O193 1.996 . S
Fe179 O196 1.997 . S
O180 Fe179 2.002 . S
O180 C197 1.295 1_556 S
O181 Fe176 1.997 . S
O181 C197 1.235 . S
O182 Fe176 2.002 . S
O182 C183 1.295 . S
C183 O182 1.295 . S
C183 O185 1.235 . S
C184 O189 1.287 . S
C184 O190 1.255 . S
O185 Fe177 1.997 . S
O185 C183 1.235 . S
C186 O192 1.287 . S
C186 O193 1.255 . S
O187 Fe176 1.976 . S
O187 C194 1.287 . S
O188 Fe177 1.996 . S
O188 C194 1.255 . S
O189 Fe179 1.976 1_554 S
O189 C184 1.287 . S
O190 Fe176 1.996 . S
O190 C184 1.255 . S
C191 O195 1.295 . S
C191 O196 1.235 . S
O192 Fe177 1.976 1_556 S
O192 C186 1.287 . S
O193 Fe179 1.996 . S
O193 C186 1.255 . S
C194 O187 1.287 . S
C194 O188 1.255 . S
O195 Fe177 2.002 1_556 S
O195 C191 1.295 . S
O196 Fe179 1.997 . S
O196 C191 1.235 . S
C197 O180 1.295 1_554 S
C197 O181 1.235 . S
Fe198 O200 1.918 . S
Fe198 O203 1.997 . S
Fe198 O204 2.002 . S
Fe198 O209 1.976 . S
Fe198 O212 1.996 . S
Fe199 O200 1.918 . S
Fe199 O207 1.997 . S
Fe199 O210 1.996 . S
Fe199 O214 1.976 . S
Fe199 O217 2.002 . S
O200 Fe198 1.918 . S
O200 Fe199 1.918 . S
O200 Fe201 1.918 . S
Fe201 O200 1.918 . S
Fe201 O202 2.002 . S
Fe201 O211 1.976 . S
Fe201 O215 1.996 . S
Fe201 O218 1.997 . S
O202 Fe201 2.002 . S
O202 C219 1.295 . S
O203 Fe198 1.997 . S
O203 C219 1.235 . S
O204 Fe198 2.002 . S
O204 C205 1.295 . S
C205 O204 1.295 . S
C205 O207 1.235 . S
C206 O211 1.287 . S
C206 O212 1.255 . S
O207 Fe199 1.997 . S
O207 C205 1.235 . S
C208 O214 1.287 . S
C208 O215 1.255 . S
O209 Fe198 1.976 . S
O209 C216 1.287 . S
O210 Fe199 1.996 . S
O210 C216 1.255 . S
O211 Fe201 1.976 . S
O211 C206 1.287 . S
O212 Fe198 1.996 . S
O212 C206 1.255 . S
C213 O217 1.295 . S
C213 O218 1.235 . S
O214 Fe199 1.976 . S
O214 C208 1.287 . S
O215 Fe201 1.996 . S
O215 C208 1.255 . S
C216 O209 1.287 . S
C216 O210 1.255 . S
O217 Fe199 2.002 . S
O217 C213 1.295 . S
O218 Fe201 1.997 . S
O218 C213 1.235 . S
C219 O202 1.295 . S
C219 O203 1.235 . S
Fe220 O222 1.918 . S
Fe220 O225 1.997 . S
Fe220 O226 2.002 . S
Fe220 O231 1.976 . S
Fe220 O234 1.996 . S
Fe221 O222 1.918 . S
Fe221 O229 1.997 . S
Fe221 O232 1.996 . S
Fe221 O236 1.976 . S
Fe221 O239 2.002 . S
O222 Fe220 1.918 . S
O222 Fe221 1.918 . S
O222 Fe223 1.918 . S
Fe223 O222 1.918 . S
Fe223 O224 2.002 . S
Fe223 O233 1.976 . S
Fe223 O237 1.996 . S
Fe223 O240 1.997 . S
O224 Fe223 2.002 . S
O224 C241 1.295 . S
O225 Fe220 1.997 . S
O225 C241 1.235 . S
O226 Fe220 2.002 . S
O226 C227 1.295 . S
C227 O226 1.295 . S
C227 O229 1.235 . S
C228 O233 1.287 . S
C228 O234 1.255 . S
O229 Fe221 1.997 . S
O229 C227 1.235 . S
C230 O236 1.287 . S
C230 O237 1.255 . S
O231 Fe220 1.976 . S
O231 C238 1.287 . S
O232 Fe221 1.996 . S
O232 C238 1.255 . S
O233 Fe223 1.976 . S
O233 C228 1.287 . S
O234 Fe220 1.996 . S
O234 C228 1.255 . S
C235 O239 1.295 . S
C235 O240 1.235 . S
O236 Fe221 1.976 . S
O236 C230 1.287 . S
O237 Fe223 1.996 . S
O237 C230 1.255 . S
C238 O231 1.287 . S
C238 O232 1.255 . S
O239 Fe221 2.002 . S
O239 C235 1.295 . S
O240 Fe223 1.997 . S
O240 C235 1.235 . S
C241 O224 1.295 . S
C241 O225 1.235 . S
Fe242 O244 1.918 . S
Fe242 O247 1.997 . S
Fe242 O248 2.002 . S
Fe242 O253 1.976 . S
Fe242 O256 1.996 . S
Fe243 O244 1.918 . S
Fe243 O251 1.997 . S
Fe243 O254 1.996 . S
Fe243 O258 1.976 . S
Fe243 O261 2.002 . S
O244 Fe242 1.918 . S
O244 Fe243 1.918 . S
O244 Fe245 1.918 . S
Fe245 O244 1.918 . S
Fe245 O246 2.002 . S
Fe245 O255 1.976 . S
Fe245 O259 1.996 . S
Fe245 O262 1.997 . S
O246 Fe245 2.002 . S
O246 C263 1.295 . S
O247 Fe242 1.997 . S
O247 C263 1.235 . S
O248 Fe242 2.002 . S
O248 C249 1.295 . S
C249 O248 1.295 . S
C249 O251 1.235 . S
C250 O255 1.287 . S
C250 O256 1.255 . S
O251 Fe243 1.997 . S
O251 C249 1.235 . S
C252 O258 1.287 . S
C252 O259 1.255 . S
O253 Fe242 1.976 . S
O253 C260 1.287 . S
O254 Fe243 1.996 . S
O254 C260 1.255 . S
O255 Fe245 1.976 . S
O255 C250 1.287 . S
O256 Fe242 1.996 . S
O256 C250 1.255 . S
C257 O261 1.295 . S
C257 O262 1.235 . S
O258 Fe243 1.976 . S
O258 C252 1.287 . S
O259 Fe245 1.996 . S
O259 C252 1.255 . S
C260 O253 1.287 . S
C260 O254 1.255 . S
O261 Fe243 2.002 . S
O261 C257 1.295 . S
O262 Fe245 1.997 . S
O262 C257 1.235 . S
C263 O246 1.295 . S
C263 O247 1.235 . S
Fe264 O266 1.918 . S
Fe264 O269 1.997 . S
Fe264 O270 2.002 . S
Fe264 O275 1.976 . S
Fe264 O278 1.996 . S
Fe265 O266 1.918 . S
Fe265 O273 1.997 . S
Fe265 O276 1.996 . S
Fe265 O280 1.976 . S
Fe265 O283 2.002 . S
O266 Fe264 1.918 . S
O266 Fe265 1.918 . S
O266 Fe267 1.918 . S
Fe267 O266 1.918 . S
Fe267 O268 2.002 . S
Fe267 O277 1.976 . S
Fe267 O281 1.996 . S
Fe267 O284 1.997 . S
O268 Fe267 2.002 . S
O268 C285 1.295 . S
O269 Fe264 1.997 . S
O269 C285 1.235 . S
O270 Fe264 2.002 . S
O270 C271 1.295 . S
C271 O270 1.295 . S
C271 O273 1.235 . S
C272 O277 1.287 . S
C272 O278 1.255 . S
O273 Fe265 1.997 . S
O273 C271 1.235 . S
C274 O280 1.287 . S
C274 O281 1.255 . S
O275 Fe264 1.976 . S
O275 C282 1.287 . S
O276 Fe265 1.996 . S
O276 C282 1.255 . S
O277 Fe267 1.976 . S
O277 C272 1.287 . S
O278 Fe264 1.996 . S
O278 C272 1.255 . S
C279 O283 1.295 . S
C279 O284 1.235 . S
O280 Fe265 1.976 . S
O280 C274 1.287 . S
O281 Fe267 1.996 . S
O281 C274 1.255 . S
C282 O275 1.287 . S
C282 O276 1.255 . S
O283 Fe265 2.002 . S
O283 C279 1.295 . S
O284 Fe267 1.997 . S
O284 C279 1.235 . S
C285 O268 1.295 . S
C285 O269 1.235 . S
Fe286 O288 1.918 . S
Fe286 O291 1.997 . S
Fe286 O292 2.002 . S
Fe286 O297 1.976 . S
Fe286 O300 1.996 . S
Fe287 O288 1.918 . S
Fe287 O295 1.997 . S
Fe287 O298 1.996 . S
Fe287 O302 1.976 . S
Fe287 O305 2.002 . S
O288 Fe286 1.918 . S
O288 Fe287 1.918 . S
O288 Fe289 1.918 . S
Fe289 O288 1.918 . S
Fe289 O290 2.002 . S
Fe289 O299 1.976 . S
Fe289 O303 1.996 . S
Fe289 O306 1.997 . S
O290 Fe289 2.002 . S
O290 C307 1.295 . S
O291 Fe286 1.997 . S
O291 C307 1.235 . S
O292 Fe286 2.002 . S
O292 C293 1.295 . S
C293 O292 1.295 . S
C293 O295 1.235 . S
C294 O299 1.287 . S
C294 O300 1.255 . S
O295 Fe287 1.997 . S
O295 C293 1.235 . S
C296 O302 1.287 . S
C296 O303 1.255 . S
O297 Fe286 1.976 . S
O297 C304 1.287 . S
O298 Fe287 1.996 . S
O298 C304 1.255 . S
O299 Fe289 1.976 . S
O299 C294 1.287 . S
O300 Fe286 1.996 . S
O300 C294 1.255 . S
C301 O305 1.295 . S
C301 O306 1.235 . S
O302 Fe287 1.976 . S
O302 C296 1.287 . S
O303 Fe289 1.996 . S
O303 C296 1.255 . S
C304 O297 1.287 . S
C304 O298 1.255 . S
O305 Fe287 2.002 . S
O305 C301 1.295 . S
O306 Fe289 1.997 . S
O306 C301 1.235 . S
C307 O290 1.295 . S
C307 O291 1.235 . S
Fe308 O310 1.918 . S
Fe308 O313 1.997 . S
Fe308 O314 2.002 . S
Fe308 O319 1.976 . S
Fe308 O322 1.996 . S
Fe309 O310 1.918 . S
Fe309 O317 1.997 . S
Fe309 O320 1.996 . S
Fe309 O324 1.976 . S
Fe309 O327 2.002 . S
O310 Fe308 1.918 . S
O310 Fe309 1.918 . S
O310 Fe311 1.918 . S
Fe311 O310 1.918 . S
Fe311 O312 2.002 . S
Fe311 O321 1.976 . S
Fe311 O325 1.996 . S
Fe311 O328 1.997 . S
O312 Fe311 2.002 . S
O312 C329 1.295 . S
O313 Fe308 1.997 . S
O313 C329 1.235 . S
O314 Fe308 2.002 . S
O314 C315 1.295 . S
C315 O314 1.295 . S
C315 O317 1.235 . S
C316 O321 1.287 . S
C316 O322 1.255 . S
O317 Fe309 1.997 . S
O317 C315 1.235 . S
C318 O324 1.287 . S
C318 O325 1.255 . S
O319 Fe308 1.976 . S
O319 C326 1.287 . S
O320 Fe309 1.996 . S
O320 C326 1.255 . S
O321 Fe311 1.976 . S
O321 C316 1.287 . S
O322 Fe308 1.996 . S
O322 C316 1.255 . S
C323 O327 1.295 . S
C323 O328 1.235 . S
O324 Fe309 1.976 . S
O324 C318 1.287 . S
O325 Fe311 1.996 . S
O325 C318 1.255 . S
C326 O319 1.287 . S
C326 O320 1.255 . S
O327 Fe309 2.002 . S
O327 C323 1.295 . S
O328 Fe311 1.997 . S
O328 C323 1.235 . S
C329 O312 1.295 . S
C329 O313 1.235 . S
Fe330 O332 1.918 1_554 S
Fe330 O335 1.997 1_554 S
Fe330 O336 2.002 . S
Fe330 O341 1.976 . S
Fe330 O344 1.996 . S
Fe331 O332 1.918 . S
Fe331 O339 1.997 1_556 S
Fe331 O342 1.996 1_556 S
Fe331 O346 1.976 . S
Fe331 O349 2.002 . S
O332 Fe330 1.918 1_556 S
O332 Fe331 1.918 . S
O332 Fe333 1.918 . S
Fe333 O332 1.918 . S
Fe333 O334 2.002 . S
Fe333 O343 1.976 . S
Fe333 O347 1.996 . S
Fe333 O350 1.997 . S
O334 Fe333 2.002 . S
O334 C351 1.295 . S
O335 Fe330 1.997 1_556 S
O335 C351 1.235 . S
O336 Fe330 2.002 . S
O336 C337 1.295 . S
C337 O336 1.295 . S
C337 O339 1.235 . S
C338 O343 1.287 . S
C338 O344 1.255 1_556 S
O339 Fe331 1.997 1_554 S
O339 C337 1.235 . S
C340 O346 1.287 . S
C340 O347 1.255 . S
O341 Fe330 1.976 . S
O341 C348 1.287 . S
O342 Fe331 1.996 1_554 S
O342 C348 1.255 . S
O343 Fe333 1.976 . S
O343 C338 1.287 . S
O344 Fe330 1.996 . S
O344 C338 1.255 1_554 S
C345 O349 1.295 . S
C345 O350 1.235 . S
O346 Fe331 1.976 . S
O346 C340 1.287 . S
O347 Fe333 1.996 . S
O347 C340 1.255 . S
C348 O341 1.287 . S
C348 O342 1.255 . S
O349 Fe331 2.002 . S
O349 C345 1.295 . S
O350 Fe333 1.997 . S
O350 C345 1.235 . S
C351 O334 1.295 . S
C351 O335 1.235 . S
Fe352 O354 1.918 . S
Fe352 O357 1.997 . S
Fe352 O358 2.002 . S
Fe352 O363 1.976 . S
Fe352 O366 1.996 . S
Fe353 O354 1.918 . S
Fe353 O361 1.997 . S
Fe353 O364 1.996 . S
Fe353 O368 1.976 1_556 S
Fe353 O371 2.002 1_556 S
O354 Fe352 1.918 . S
O354 Fe353 1.918 . S
O354 Fe355 1.918 1_556 S
Fe355 O354 1.918 1_554 S
Fe355 O356 2.002 . S
Fe355 O365 1.976 1_554 S
Fe355 O369 1.996 . S
Fe355 O372 1.997 . S
O356 Fe355 2.002 . S
O356 C373 1.295 1_554 S
O357 Fe352 1.997 . S
O357 C373 1.235 . S
O358 Fe352 2.002 . S
O358 C359 1.295 . S
C359 O358 1.295 . S
C359 O361 1.235 . S
C360 O365 1.287 . S
C360 O366 1.255 . S
O361 Fe353 1.997 . S
O361 C359 1.235 . S
C362 O368 1.287 . S
C362 O369 1.255 . S
O363 Fe352 1.976 . S
O363 C370 1.287 . S
O364 Fe353 1.996 . S
O364 C370 1.255 . S
O365 Fe355 1.976 1_556 S
O365 C360 1.287 . S
O366 Fe352 1.996 . S
O366 C360 1.255 . S
C367 O371 1.295 . S
C367 O372 1.235 . S
O368 Fe353 1.976 1_554 S
O368 C362 1.287 . S
O369 Fe355 1.996 . S
O369 C362 1.255 . S
C370 O363 1.287 . S
C370 O364 1.255 . S
O371 Fe353 2.002 1_554 S
O371 C367 1.295 . S
O372 Fe355 1.997 . S
O372 C367 1.235 . S
C373 O356 1.295 1_556 S
C373 O357 1.235 . S
Fe374 O376 1.918 . S
Fe374 O379 1.997 . S
Fe374 O380 2.002 1_556 S
Fe374 O385 1.968 1_556 S
Fe374 O388 1.996 . S
Fe375 O376 1.918 1_554 S
Fe375 O383 1.997 . S
Fe375 O386 1.996 . S
Fe375 O390 1.976 1_554 S
Fe375 O393 2.002 . S
O376 Fe374 1.918 . S
O376 Fe375 1.918 1_556 S
O376 Fe377 1.918 . S
Fe377 O376 1.918 . S
Fe377 O378 2.002 . S
Fe377 O387 1.976 . S
Fe377 O391 1.996 . S
Fe377 O394 1.997 . S
O378 Fe377 2.002 . S
O378 C395 1.295 . S
O379 Fe374 1.997 . S
O379 C395 1.235 . S
O380 Fe374 2.002 1_554 S
O380 C381 1.295 . S
C381 O380 1.295 . S
C381 O383 1.235 . S
C382 O387 1.287 . S
C382 O388 1.255 . S
O383 Fe375 1.997 . S
O383 C381 1.235 . S
C384 O390 1.287 . S
C384 O391 1.255 . S
O385 Fe374 1.968 1_554 S
O385 C392 1.295 . S
O386 Fe375 1.996 . S
O386 C392 1.255 . S
O387 Fe377 1.976 . S
O387 C382 1.287 . S
O388 Fe374 1.996 . S
O388 C382 1.255 . S
C389 O393 1.295 1_556 S
C389 O394 1.235 . S
O390 Fe375 1.976 1_556 S
O390 C384 1.287 . S
O391 Fe377 1.996 . S
O391 C384 1.255 . S
C392 O385 1.295 . S
C392 O386 1.255 . S
O393 Fe375 2.002 . S
O393 C389 1.295 1_554 S
O394 Fe377 1.997 . S
O394 C389 1.235 . S
C395 O378 1.295 . S
C395 O379 1.235 . S
C396 C397 1.387 . S
C396 H400 0.950 . S
C396 C405 1.390 . S
C397 C396 1.387 . S
C397 C399 1.387 . S
H398 C405 0.950 . S
C399 C397 1.387 . S
C399 C401 1.390 . S
C399 H403 0.950 . S
H400 C396 0.950 . S
C401 C399 1.390 . S
C401 C402 1.387 . S
C401 H404 0.950 . S
C402 C401 1.387 . S
C402 C405 1.387 . S
H403 C399 0.950 . S
H404 C401 0.950 . S
C405 C396 1.390 . S
C405 H398 0.950 . S
C405 C402 1.387 . S
C406 C407 1.387 . S
C406 H410 0.950 . S
C406 C415 1.390 . S
C407 C406 1.387 . S
C407 C409 1.387 . S
H408 C415 0.950 . S
C409 C407 1.387 . S
C409 C411 1.390 . S
C409 H413 0.950 . S
H410 C406 0.950 . S
C411 C409 1.390 . S
C411 C412 1.387 . S
C411 H414 0.950 . S
C412 C411 1.387 . S
C412 C415 1.387 . S
H413 C409 0.950 . S
H414 C411 0.950 . S
C415 C406 1.390 . S
C415 H408 0.950 . S
C415 C412 1.387 . S
C416 C417 1.387 . S
C416 H420 0.950 . S
C416 C425 1.390 . S
C417 C416 1.387 . S
C417 C419 1.387 . S
H418 C425 0.950 . S
C419 C417 1.387 . S
C419 C421 1.390 . S
C419 H423 0.950 . S
H420 C416 0.950 . S
C421 C419 1.390 . S
C421 C422 1.387 . S
C421 H424 0.950 . S
C422 C421 1.387 . S
C422 C425 1.387 . S
H423 C419 0.950 . S
H424 C421 0.950 . S
C425 C416 1.390 . S
C425 H418 0.950 . S
C425 C422 1.387 . S
C426 C427 1.387 1_554 S
C426 H430 0.950 . S
C426 C435 1.390 . S
C427 C426 1.387 1_556 S
C427 C429 1.387 . S
H428 C435 0.950 . S
C429 C427 1.387 . S
C429 C431 1.390 . S
C429 H433 0.950 . S
H430 C426 0.950 . S
C431 C429 1.390 . S
C431 C432 1.387 1_556 S
C431 H434 0.950 . S
C432 C431 1.387 1_554 S
C432 C435 1.387 . S
H433 C429 0.950 . S
H434 C431 0.950 . S
C435 C426 1.390 . S
C435 H428 0.950 . S
C435 C432 1.387 . S
C436 C437 1.387 . S
C436 H440 0.950 . S
C436 C445 1.390 . S
C437 C436 1.387 . S
C437 C439 1.387 1_554 S
H438 C445 0.950 . S
C439 C437 1.387 1_556 S
C439 C441 1.390 . S
C439 H443 0.950 . S
H440 C436 0.950 . S
C441 C439 1.390 . S
C441 C442 1.387 . S
C441 H444 0.950 . S
C442 C441 1.387 . S
C442 C445 1.387 1_556 S
H443 C439 0.950 . S
H444 C441 0.950 . S
C445 C436 1.390 . S
C445 H438 0.950 . S
C445 C442 1.387 1_554 S
C446 C447 1.387 1_554 S
C446 H450 0.950 . S
C446 C455 1.390 . S
C447 C446 1.387 1_556 S
C447 C449 1.387 . S
H448 C455 0.950 . S
C449 C447 1.387 . S
C449 C451 1.390 1_556 S
C449 H453 0.950 . S
H450 C446 0.950 . S
C451 C449 1.390 1_554 S
C451 C452 1.387 . S
C451 H454 0.950 1_554 S
C452 C451 1.387 . S
C452 C455 1.387 . S
H453 C449 0.950 . S
H454 C451 0.950 1_556 S
C455 C446 1.390 . S
C455 H448 0.950 . S
C455 C452 1.387 . S
C456 C457 1.387 . S
C456 H460 0.950 . S
C456 C465 1.390 . S
C457 C456 1.387 . S
C457 C459 1.387 . S
H458 C465 0.950 . S
C459 C457 1.387 . S
C459 C461 1.390 . S
C459 H463 0.950 . S
H460 C456 0.950 . S
C461 C459 1.390 . S
C461 C462 1.387 . S
C461 H464 0.950 . S
C462 C461 1.387 . S
C462 C465 1.387 . S
H463 C459 0.950 . S
H464 C461 0.950 . S
C465 C456 1.390 . S
C465 H458 0.950 . S
C465 C462 1.387 . S
C466 C467 1.387 . S
C466 H470 0.950 . S
C466 C475 1.390 . S
C467 C466 1.387 . S
C467 C469 1.387 . S
H468 C475 0.950 . S
C469 C467 1.387 . S
C469 C471 1.390 . S
C469 H473 0.950 . S
H470 C466 0.950 . S
C471 C469 1.390 . S
C471 C472 1.387 . S
C471 H474 0.950 . S
C472 C471 1.387 . S
C472 C475 1.387 . S
H473 C469 0.950 . S
H474 C471 0.950 . S
C475 C466 1.390 . S
C475 H468 0.950 . S
C475 C472 1.387 . S
C476 C477 1.387 . S
C476 H480 0.950 . S
C476 C485 1.390 . S
C477 C476 1.387 . S
C477 C479 1.387 . S
H478 C485 0.950 . S
C479 C477 1.387 . S
C479 C481 1.390 . S
C479 H483 0.950 . S
H480 C476 0.950 . S
C481 C479 1.390 . S
C481 C482 1.387 . S
C481 H484 0.950 . S
C482 C481 1.387 . S
C482 C485 1.387 . S
H483 C479 0.950 . S
H484 C481 0.950 . S
C485 C476 1.390 . S
C485 H478 0.950 . S
C485 C482 1.387 . S
C486 C487 1.387 . S
C486 H490 0.950 . S
C486 C495 1.390 . S
C487 C486 1.387 . S
C487 C489 1.387 1_554 S
H488 C495 0.950 . S
C489 C487 1.387 1_556 S
C489 C491 1.390 . S
C489 H493 0.950 . S
H490 C486 0.950 . S
C491 C489 1.390 . S
C491 C492 1.387 . S
C491 H494 0.950 . S
C492 C491 1.387 . S
C492 C495 1.387 1_556 S
H493 C489 0.950 . S
H494 C491 0.950 . S
C495 C486 1.390 . S
C495 H488 0.950 . S
C495 C492 1.387 1_554 S
C496 C497 1.387 1_554 S
C496 H500 0.950 . S
C496 C505 1.390 . S
C497 C496 1.387 1_556 S
C497 C499 1.387 . S
H498 C505 0.950 . S
C499 C497 1.387 . S
C499 C501 1.390 . S
C499 H503 0.950 . S
H500 C496 0.950 . S
C501 C499 1.390 . S
C501 C502 1.387 1_556 S
C501 H504 0.950 . S
C502 C501 1.387 1_554 S
C502 C505 1.387 . S
H503 C499 0.950 . S
H504 C501 0.950 . S
C505 C496 1.390 . S
C505 H498 0.950 . S
C505 C502 1.387 . S
C506 C507 1.387 . S
C506 H510 0.950 . S
C506 C515 1.390 . S
C507 C506 1.387 . S
C507 C509 1.387 . S
H508 C515 0.950 . S
C509 C507 1.387 . S
C509 C511 1.390 1_556 S
C509 H513 0.950 . S
H510 C506 0.950 . S
C511 C509 1.390 1_554 S
C511 C512 1.387 . S
C511 H514 0.950 . S
C512 C511 1.387 . S
C512 C515 1.387 1_554 S
H513 C509 0.950 . S
H514 C511 0.950 . S
C515 C506 1.390 . S
C515 H508 0.950 . S
C515 C512 1.387 1_556 S
C516 C517 1.387 . S
C516 H520 0.950 . S
C516 C525 1.390 . S
C517 C516 1.387 . S
C517 C519 1.387 . S
H518 C525 0.950 . S
C519 C517 1.387 . S
C519 C521 1.390 . S
C519 H523 0.950 . S
H520 C516 0.950 . S
C521 C519 1.390 . S
C521 C522 1.387 . S
C521 H524 0.950 . S
C522 C521 1.387 . S
C522 C525 1.387 . S
H523 C519 0.950 . S
H524 C521 0.950 . S
C525 C516 1.390 . S
C525 H518 0.950 . S
C525 C522 1.387 . S
C526 C527 1.387 . S
C526 H530 0.950 . S
C526 C535 1.390 . S
C527 C526 1.387 . S
C527 C529 1.387 . S
H528 C535 0.950 . S
C529 C527 1.387 . S
C529 C531 1.390 . S
C529 H533 0.950 . S
H530 C526 0.950 . S
C531 C529 1.390 . S
C531 C532 1.387 . S
C531 H534 0.950 . S
C532 C531 1.387 . S
C532 C535 1.387 . S
H533 C529 0.950 . S
H534 C531 0.950 . S
C535 C526 1.390 . S
C535 H528 0.950 . S
C535 C532 1.387 . S
C536 C537 1.387 . S
C536 H540 0.950 . S
C536 C545 1.390 . S
C537 C536 1.387 . S
C537 C539 1.387 . S
H538 C545 0.950 . S
C539 C537 1.387 . S
C539 C541 1.390 . S
C539 H543 0.950 . S
H540 C536 0.950 . S
C541 C539 1.390 . S
C541 C542 1.387 . S
C541 H544 0.950 . S
C542 C541 1.387 . S
C542 C545 1.387 . S
H543 C539 0.950 . S
H544 C541 0.950 . S
C545 C536 1.390 . S
C545 H538 0.950 . S
C545 C542 1.387 . S
C546 C547 1.387 . S
C546 H550 0.950 . S
C546 C555 1.390 . S
C547 C546 1.387 . S
C547 C549 1.387 . S
H548 C555 0.950 . S
C549 C547 1.387 . S
C549 C551 1.390 . S
C549 H553 0.950 . S
H550 C546 0.950 . S
C551 C549 1.390 . S
C551 C552 1.387 . S
C551 H554 0.950 . S
C552 C551 1.387 . S
C552 C555 1.387 . S
H553 C549 0.950 . S
H554 C551 0.950 . S
C555 C546 1.390 . S
C555 H548 0.950 . S
C555 C552 1.387 . S
C556 C557 1.387 . S
C556 H560 0.950 . S
C556 C565 1.390 . S
C557 C556 1.387 . S
C557 C559 1.387 . S
H558 C565 0.950 . S
C559 C557 1.387 . S
C559 C561 1.390 . S
C559 H563 0.950 . S
H560 C556 0.950 . S
C561 C559 1.390 . S
C561 C562 1.387 . S
C561 H564 0.950 . S
C562 C561 1.387 . S
C562 C565 1.387 . S
H563 C559 0.950 . S
H564 C561 0.950 . S
C565 C556 1.390 . S
C565 H558 0.950 . S
C565 C562 1.387 . S
C566 C567 1.387 . S
C566 H570 0.950 . S
C566 C575 1.390 . S
C567 C566 1.387 . S
C567 C569 1.387 . S
H568 C575 0.950 . S
C569 C567 1.387 . S
C569 C571 1.390 . S
C569 H573 0.950 . S
H570 C566 0.950 . S
C571 C569 1.390 . S
C571 C572 1.387 . S
C571 H574 0.950 . S
C572 C571 1.387 . S
C572 C575 1.387 . S
H573 C569 0.950 . S
H574 C571 0.950 . S
C575 C566 1.390 . S
C575 H568 0.950 . S
C575 C572 1.387 . S
C576 C577 1.387 . S
C576 H580 0.950 . S
C576 C585 1.390 . S
C577 C576 1.387 . S
C577 C579 1.387 . S
H578 C585 0.950 . S
C579 C577 1.387 . S
C579 C581 1.390 . S
C579 H583 0.950 . S
H580 C576 0.950 . S
C581 C579 1.390 . S
C581 C582 1.387 . S
C581 H584 0.950 . S
C582 C581 1.387 . S
C582 C585 1.387 . S
H583 C579 0.950 . S
H584 C581 0.950 . S
C585 C576 1.390 . S
C585 H578 0.950 . S
C585 C582 1.387 . S
C586 C587 1.387 . S
C586 H590 0.950 1_556 S
C586 C595 1.390 . S
C587 C586 1.387 . S
C587 C589 1.387 . S
H588 C595 0.950 . S
C589 C587 1.387 . S
C589 C591 1.390 . S
C589 H593 0.950 . S
H590 C586 0.950 1_554 S
C591 C589 1.390 . S
C591 C592 1.387 . S
C591 H594 0.950 . S
C592 C591 1.387 . S
C592 C595 1.387 . S
H593 C589 0.950 . S
H594 C591 0.950 . S
C595 C586 1.390 . S
C595 H588 0.950 . S
C595 C592 1.387 . S
C596 C597 1.387 . S
C596 H600 0.950 . S
C596 C605 1.390 . S
C597 C596 1.387 . S
C597 C599 1.387 . S
H598 C605 0.950 . S
C599 C597 1.387 . S
C599 C601 1.390 . S
C599 H603 0.950 . S
H600 C596 0.950 . S
C601 C599 1.390 . S
C601 C602 1.387 . S
C601 H604 0.950 . S
C602 C601 1.387 . S
C602 C605 1.387 . S
H603 C599 0.950 . S
H604 C601 0.950 . S
C605 C596 1.390 . S
C605 H598 0.950 . S
C605 C602 1.387 . S
C606 C607 1.387 . S
C606 H610 0.950 . S
C606 C615 1.390 . S
C607 C606 1.387 . S
C607 C609 1.387 . S
H608 C615 0.950 . S
C609 C607 1.387 . S
C609 C611 1.390 . S
C609 H613 0.950 . S
H610 C606 0.950 . S
C611 C609 1.390 . S
C611 C612 1.387 . S
C611 H614 0.950 . S
C612 C611 1.387 . S
C612 C615 1.387 . S
H613 C609 0.950 . S
H614 C611 0.950 . S
C615 C606 1.390 . S
C615 H608 0.950 . S
C615 C612 1.387 . S
C616 C617 1.387 . S
C616 H620 0.950 . S
C616 C625 1.390 . S
C617 C616 1.387 . S
C617 C619 1.387 . S
H618 C625 0.950 . S
C619 C617 1.387 . S
C619 C621 1.390 . S
C619 H623 0.950 . S
H620 C616 0.950 . S
C621 C619 1.390 . S
C621 C622 1.387 . S
C621 H624 0.950 . S
C622 C621 1.387 . S
C622 C625 1.387 . S
H623 C619 0.950 . S
H624 C621 0.950 . S
C625 C616 1.390 . S
C625 H618 0.950 . S
C625 C622 1.387 . S
C626 C627 1.387 . S
C626 H630 0.950 . S
C626 C635 1.390 . S
C627 C626 1.387 . S
C627 C629 1.387 . S
H628 C635 0.950 . S
C629 C627 1.387 . S
C629 C631 1.390 . S
C629 H633 0.950 . S
H630 C626 0.950 . S
C631 C629 1.390 . S
C631 C632 1.387 . S
C631 H634 0.950 . S
C632 C631 1.387 . S
C632 C635 1.387 . S
H633 C629 0.950 . S
H634 C631 0.950 . S
C635 C626 1.390 . S
C635 H628 0.950 . S
C635 C632 1.387 . S
C636 C637 1.387 . S
C636 H640 0.950 . S
C636 C645 1.390 . S
C637 C636 1.387 . S
C637 C639 1.387 . S
H638 C645 0.950 . S
C639 C637 1.387 . S
C639 C641 1.390 . S
C639 H643 0.950 . S
H640 C636 0.950 . S
C641 C639 1.390 . S
C641 C642 1.387 . S
C641 H644 0.950 . S
C642 C641 1.387 . S
C642 C645 1.387 . S
H643 C639 0.950 . S
H644 C641 0.950 . S
C645 C636 1.390 . S
C645 H638 0.950 . S
C645 C642 1.387 . S
C646 C647 1.387 . S
C646 H650 0.950 . S
C646 C655 1.390 . S
C647 C646 1.387 . S
C647 C649 1.387 . S
H648 C655 0.950 1_556 S
C649 C647 1.387 . S
C649 C651 1.390 . S
C649 H653 0.950 . S
H650 C646 0.950 . S
C651 C649 1.390 . S
C651 C652 1.387 . S
C651 H654 0.950 . S
C652 C651 1.387 . S
C652 C655 1.387 . S
H653 C649 0.950 . S
H654 C651 0.950 . S
C655 C646 1.390 . S
C655 H648 0.950 1_554 S
C655 C652 1.387 . S
C656 C657 1.387 . S
C656 H660 0.950 . S
C656 C665 1.390 . S
C657 C656 1.387 . S
C657 C659 1.387 . S
H658 C665 0.950 . S
C659 C657 1.387 . S
C659 C661 1.390 . S
C659 H663 0.950 . S
H660 C656 0.950 . S
C661 C659 1.390 . S
C661 C662 1.387 . S
C661 H664 0.950 . S
C662 C661 1.387 . S
C662 C665 1.387 . S
H663 C659 0.950 . S
H664 C661 0.950 . S
C665 C656 1.390 . S
C665 H658 0.950 . S
C665 C662 1.387 . S
C666 C667 1.387 . S
C666 H670 0.950 . S
C666 C675 1.390 . S
C667 C666 1.387 . S
C667 C669 1.387 . S
H668 C675 0.950 . S
C669 C667 1.387 . S
C669 C671 1.390 . S
C669 H673 0.950 . S
H670 C666 0.950 . S
C671 C669 1.390 . S
C671 C672 1.387 . S
C671 H674 0.950 . S
C672 C671 1.387 . S
C672 C675 1.387 . S
H673 C669 0.950 . S
H674 C671 0.950 . S
C675 C666 1.390 . S
C675 H668 0.950 . S
C675 C672 1.387 . S
C676 C677 1.387 . S
C676 H680 0.950 . S
C676 C685 1.390 . S
C677 C676 1.387 . S
C677 C679 1.387 . S
H678 C685 0.950 . S
C679 C677 1.387 . S
C679 C681 1.390 . S
C679 H683 0.950 . S
H680 C676 0.950 . S
C681 C679 1.390 . S
C681 C682 1.387 . S
C681 H684 0.950 . S
C682 C681 1.387 . S
C682 C685 1.387 . S
H683 C679 0.950 . S
H684 C681 0.950 . S
C685 C676 1.390 . S
C685 H678 0.950 . S
C685 C682 1.387 . S
C686 C687 1.387 . S
C686 H690 0.950 . S
C686 C695 1.390 . S
C687 C686 1.387 . S
C687 C689 1.387 . S
H688 C695 0.950 . S
C689 C687 1.387 . S
C689 C691 1.390 . S
C689 H693 0.950 . S
H690 C686 0.950 . S
C691 C689 1.390 . S
C691 C692 1.387 . S
C691 H694 0.950 . S
C692 C691 1.387 . S
C692 C695 1.387 . S
H693 C689 0.950 . S
H694 C691 0.950 . S
C695 C686 1.390 . S
C695 H688 0.950 . S
C695 C692 1.387 . S
C696 C697 1.387 . S
C696 H700 0.950 . S
C696 C705 1.390 . S
C697 C696 1.387 . S
C697 C699 1.387 . S
H698 C705 0.950 . S
C699 C697 1.387 . S
C699 C701 1.390 . S
C699 H703 0.950 . S
H700 C696 0.950 . S
C701 C699 1.390 . S
C701 C702 1.387 . S
C701 H704 0.950 . S
C702 C701 1.387 . S
C702 C705 1.387 . S
H703 C699 0.950 . S
H704 C701 0.950 . S
C705 C696 1.390 . S
C705 H698 0.950 . S
C705 C702 1.387 . S
C706 C707 1.387 . S
C706 H710 0.950 . S
C706 C715 1.390 . S
C707 C706 1.387 . S
C707 C709 1.387 . S
H708 C715 0.950 . S
C709 C707 1.387 . S
C709 C711 1.390 . S
C709 H713 0.950 . S
H710 C706 0.950 . S
C711 C709 1.390 . S
C711 C712 1.387 . S
C711 H714 0.950 . S
C712 C711 1.387 . S
C712 C715 1.387 . S
H713 C709 0.950 . S
H714 C711 0.950 . S
C715 C706 1.390 . S
C715 H708 0.950 . S
C715 C712 1.387 . S
C716 C717 1.387 . S
C716 H720 0.950 . S
C716 C725 1.390 . S
C717 C716 1.387 . S
C717 C719 1.387 . S
H718 C725 0.950 . S
C719 C717 1.387 . S
C719 C721 1.390 . S
C719 H723 0.950 . S
H720 C716 0.950 . S
C721 C719 1.390 . S
C721 C722 1.387 . S
C721 H724 0.950 . S
C722 C721 1.387 . S
C722 C725 1.387 . S
H723 C719 0.950 . S
H724 C721 0.950 . S
C725 C716 1.390 . S
C725 H718 0.950 . S
C725 C722 1.387 . S
C726 C727 1.387 . S
C726 H730 0.950 . S
C726 C735 1.390 . S
C727 C726 1.387 . S
C727 C729 1.387 . S
H728 C735 0.950 . S
C729 C727 1.387 . S
C729 C731 1.390 . S
C729 H733 0.950 . S
H730 C726 0.950 . S
C731 C729 1.390 . S
C731 C732 1.387 . S
C731 H734 0.950 . S
C732 C731 1.387 . S
C732 C735 1.387 . S
H733 C729 0.950 . S
H734 C731 0.950 . S
C735 C726 1.390 . S
C735 H728 0.950 . S
C735 C732 1.387 . S
C736 C737 1.387 . S
C736 H740 0.950 . S
C736 C745 1.390 . S
C737 C736 1.387 . S
C737 C739 1.387 . S
H738 C745 0.950 . S
C739 C737 1.387 . S
C739 C741 1.390 . S
C739 H743 0.950 . S
H740 C736 0.950 . S
C741 C739 1.390 . S
C741 C742 1.387 . S
C741 H744 0.950 . S
C742 C741 1.387 . S
C742 C745 1.387 . S
H743 C739 0.950 . S
H744 C741 0.950 . S
C745 C736 1.390 . S
C745 H738 0.950 . S
C745 C742 1.387 . S
C746 C747 1.387 . S
C746 H750 0.950 . S
C746 C755 1.390 . S
C747 C746 1.387 . S
C747 C749 1.387 . S
H748 C755 0.950 . S
C749 C747 1.387 . S
C749 C751 1.390 . S
C749 H753 0.950 . S
H750 C746 0.950 . S
C751 C749 1.390 . S
C751 C752 1.387 . S
C751 H754 0.950 . S
C752 C751 1.387 . S
C752 C755 1.387 . S
H753 C749 0.950 . S
H754 C751 0.950 . S
C755 C746 1.390 . S
C755 H748 0.950 . S
C755 C752 1.387 . S
C756 C757 1.387 . S
C756 H760 0.950 . S
C756 C765 1.390 . S
C757 C756 1.387 . S
C757 C759 1.387 . S
H758 C765 0.950 . S
C759 C757 1.387 . S
C759 C761 1.390 . S
C759 H763 0.950 . S
H760 C756 0.950 . S
C761 C759 1.390 . S
C761 C762 1.387 . S
C761 H764 0.950 . S
C762 C761 1.387 . S
C762 C765 1.387 . S
H763 C759 0.950 . S
H764 C761 0.950 . S
C765 C756 1.390 . S
C765 H758 0.950 . S
C765 C762 1.387 . S
C766 C767 1.387 . S
C766 H770 0.950 . S
C766 C775 1.390 . S
C767 C766 1.387 . S
C767 C769 1.387 . S
H768 C775 0.950 . S
C769 C767 1.387 . S
C769 C771 1.390 . S
C769 H773 0.950 . S
H770 C766 0.950 . S
C771 C769 1.390 . S
C771 C772 1.387 . S
C771 H774 0.950 . S
C772 C771 1.387 . S
C772 C775 1.387 . S
H773 C769 0.950 . S
H774 C771 0.950 . S
C775 C766 1.390 . S
C775 H768 0.950 . S
C775 C772 1.387 . S
C776 C777 1.387 . S
C776 H780 0.950 . S
C776 C785 1.390 . S
C777 C776 1.387 . S
C777 C779 1.387 . S
H778 C785 0.950 . S
C779 C777 1.387 . S
C779 C781 1.390 . S
C779 H783 0.950 . S
H780 C776 0.950 . S
C781 C779 1.390 . S
C781 C782 1.387 . S
C781 H784 0.950 . S
C782 C781 1.387 . S
C782 C785 1.387 . S
H783 C779 0.950 . S
H784 C781 0.950 . S
C785 C776 1.390 . S
C785 H778 0.950 . S
C785 C782 1.387 . S
C786 C787 1.387 . S
C786 H790 0.950 . S
C786 C795 1.390 . S
C787 C786 1.387 . S
C787 C789 1.387 . S
H788 C795 0.950 . S
C789 C787 1.387 . S
C789 C791 1.390 . S
C789 H793 0.950 . S
H790 C786 0.950 . S
C791 C789 1.390 . S
C791 C792 1.387 . S
C791 H794 0.950 1_556 S
C792 C791 1.387 . S
C792 C795 1.387 . S
H793 C789 0.950 . S
H794 C791 0.950 1_554 S
C795 C786 1.390 . S
C795 H788 0.950 . S
C795 C792 1.387 . S
C796 C797 1.387 . S
C796 H800 0.950 . S
C796 C805 1.390 . S
C797 C796 1.387 . S
C797 C799 1.387 . S
H798 C805 0.950 . S
C799 C797 1.387 . S
C799 C801 1.389 . S
C799 H803 0.950 . S
H800 C796 0.950 . S
C801 C799 1.389 . S
C801 C802 1.387 . S
C801 H804 0.951 1_556 S
C802 C801 1.387 . S
C802 C805 1.387 . S
H803 C799 0.950 . S
H804 C801 0.951 1_554 S
C805 C796 1.390 . S
C805 H798 0.950 . S
C805 C802 1.387 . S
C806 C807 1.387 . S
C806 H810 0.950 . S
C806 C815 1.390 . S
C807 C806 1.387 . S
C807 C809 1.387 . S
H808 C815 0.950 1_554 S
C809 C807 1.387 . S
C809 C811 1.390 . S
C809 H813 0.950 . S
H810 C806 0.950 . S
C811 C809 1.390 . S
C811 C812 1.387 . S
C811 H814 0.950 . S
C812 C811 1.387 . S
C812 C815 1.387 . S
H813 C809 0.950 . S
H814 C811 0.950 . S
C815 C806 1.390 . S
C815 H808 0.950 1_556 S
C815 C812 1.387 . S
C816 C817 1.387 . S
C816 H820 0.950 . S
C816 C825 1.390 . S
C817 C816 1.387 . S
C817 C819 1.387 . S
H818 C825 0.950 . S
C819 C817 1.387 . S
C819 C821 1.390 . S
C819 H823 0.950 . S
H820 C816 0.950 . S
C821 C819 1.390 . S
C821 C822 1.387 . S
C821 H824 0.950 . S
C822 C821 1.387 . S
C822 C825 1.387 . S
H823 C819 0.950 . S
H824 C821 0.950 . S
C825 C816 1.390 . S
C825 H818 0.950 . S
C825 C822 1.387 . S
C826 C827 1.387 . S
C826 H830 0.950 . S
C826 C835 1.390 . S
C827 C826 1.387 . S
C827 C829 1.387 . S
H828 C835 0.950 . S
C829 C827 1.387 . S
C829 C831 1.390 . S
C829 H833 0.950 . S
H830 C826 0.950 . S
C831 C829 1.390 . S
C831 C832 1.387 . S
C831 H834 0.950 . S
C832 C831 1.387 . S
C832 C835 1.387 . S
H833 C829 0.950 . S
H834 C831 0.950 . S
C835 C826 1.390 . S
C835 H828 0.950 . S
C835 C832 1.387 . S
C836 C837 1.387 . S
C836 H840 0.950 . S
C836 C845 1.390 . S
C837 C836 1.387 . S
C837 C839 1.387 . S
H838 C845 0.950 . S
C839 C837 1.387 . S
C839 C841 1.390 . S
C839 H843 0.950 . S
H840 C836 0.950 . S
C841 C839 1.390 . S
C841 C842 1.387 . S
C841 H844 0.950 . S
C842 C841 1.387 . S
C842 C845 1.387 . S
H843 C839 0.950 . S
H844 C841 0.950 . S
C845 C836 1.390 . S
C845 H838 0.950 . S
C845 C842 1.387 . S
C846 C847 1.387 . S
C846 H850 0.950 . S
C846 C855 1.390 . S
C847 C846 1.387 . S
C847 C849 1.387 . S
H848 C855 0.950 . S
C849 C847 1.387 . S
C849 C851 1.390 . S
C849 H853 0.950 . S
H850 C846 0.950 . S
C851 C849 1.390 . S
C851 C852 1.387 . S
C851 H854 0.950 . S
C852 C851 1.387 . S
C852 C855 1.387 . S
H853 C849 0.950 . S
H854 C851 0.950 . S
C855 C846 1.390 . S
C855 H848 0.950 . S
C855 C852 1.387 . S
C856 C857 1.387 . S
C856 H860 0.950 . S
C856 C865 1.390 1_554 S
C857 C856 1.387 . S
C857 C859 1.387 . S
H858 C865 0.950 . S
C859 C857 1.387 . S
C859 C861 1.390 . S
C859 H863 0.950 . S
H860 C856 0.950 . S
C861 C859 1.390 . S
C861 C862 1.387 . S
C861 H864 0.950 . S
C862 C861 1.387 . S
C862 C865 1.387 1_554 S
H863 C859 0.950 . S
H864 C861 0.950 . S
C865 C856 1.390 1_556 S
C865 H858 0.950 . S
C865 C862 1.387 1_556 S
C866 C867 1.387 . S
C866 H870 0.950 . S
C866 C875 1.390 . S
C867 C866 1.387 . S
C867 C869 1.387 . S
H868 C875 0.950 . S
C869 C867 1.387 . S
C869 C871 1.390 . S
C869 H873 0.950 . S
H870 C866 0.950 . S
C871 C869 1.390 . S
C871 C872 1.387 . S
C871 H874 0.950 . S
C872 C871 1.387 . S
C872 C875 1.387 . S
H873 C869 0.950 . S
H874 C871 0.950 . S
C875 C866 1.390 . S
C875 H868 0.950 . S
C875 C872 1.387 . S
C876 C877 1.387 1_455 S
C876 H880 0.956 1_455 S
C876 C885 1.390 . S
C877 C876 1.387 1_655 S
C877 C879 1.387 1_655 S
H878 C885 0.950 . S
C879 C877 1.387 1_455 S
C879 C881 1.390 . S
C879 H883 0.950 1_455 S
H880 C876 0.956 1_655 S
C881 C879 1.390 . S
C881 C882 1.387 . S
C881 H884 0.950 . S
C882 C881 1.387 . S
C882 C885 1.387 . S
H883 C879 0.950 1_655 S
H884 C881 0.950 . S
C885 C876 1.390 . S
C885 H878 0.950 . S
C885 C882 1.387 . S
C886 C887 1.387 . S
C886 H890 0.950 . S
C886 C895 1.390 . S
C887 C886 1.387 . S
C887 C889 1.387 . S
H888 C895 0.950 . S
C889 C887 1.387 . S
C889 C891 1.390 . S
C889 H893 0.950 . S
H890 C886 0.950 . S
C891 C889 1.390 . S
C891 C892 1.387 . S
C891 H894 0.950 . S
C892 C891 1.387 . S
C892 C895 1.387 . S
H893 C889 0.950 . S
H894 C891 0.950 . S
C895 C886 1.390 . S
C895 H888 0.950 . S
C895 C892 1.387 . S
C896 C897 1.392 1_545 S
C896 H900 0.932 1_545 S
C896 C905 1.404 . S
C897 C896 1.392 1_565 S
C897 C899 1.387 1_565 S
H898 C905 0.950 . S
C899 C897 1.387 1_545 S
C899 C901 1.390 . S
C899 H903 0.950 1_545 S
H900 C896 0.932 1_565 S
C901 C899 1.390 . S
C901 C902 1.387 . S
C901 H904 0.950 . S
C902 C901 1.387 . S
C902 C905 1.387 . S
H903 C899 0.950 1_565 S
H904 C901 0.950 . S
C905 C896 1.404 . S
C905 H898 0.950 . S
C905 C902 1.387 . S
C906 C907 1.387 1_545 S
C906 H910 0.950 1_545 S
C906 C915 1.390 . S
C907 C906 1.387 1_565 S
C907 C909 1.387 1_565 S
H908 C915 0.950 . S
C909 C907 1.387 1_545 S
C909 C911 1.390 . S
C909 H913 0.950 1_545 S
H910 C906 0.950 1_565 S
C911 C909 1.390 . S
C911 C912 1.387 . S
C911 H914 0.950 . S
C912 C911 1.387 . S
C912 C915 1.387 . S
H913 C909 0.950 1_565 S
H914 C911 0.950 . S
C915 C906 1.390 . S
C915 H908 0.950 . S
C915 C912 1.387 . S
C916 C917 1.387 . S
C916 H920 0.950 . S
C916 C925 1.390 . S
C917 C916 1.387 . S
C917 C919 1.387 . S
H918 C925 0.950 . S
C919 C917 1.387 . S
C919 C921 1.390 1_455 S
C919 H923 0.950 1_455 S
H920 C916 0.950 . S
C921 C919 1.390 1_655 S
C921 C922 1.387 . S
C921 H924 0.950 . S
C922 C921 1.387 . S
C922 C925 1.387 1_655 S
H923 C919 0.950 1_655 S
H924 C921 0.950 . S
C925 C916 1.390 . S
C925 H918 0.950 . S
C925 C922 1.387 1_455 S
C926 C927 1.387 . S
C926 H930 0.950 . S
C926 C935 1.390 . S
C927 C926 1.387 . S
C927 C929 1.387 . S
H928 C935 0.950 . S
C929 C927 1.387 . S
C929 C931 1.390 . S
C929 H933 0.950 . S
H930 C926 0.950 . S
C931 C929 1.390 . S
C931 C932 1.387 . S
C931 H934 0.950 . S
C932 C931 1.387 . S
C932 C935 1.387 . S
H933 C929 0.950 . S
H934 C931 0.950 . S
C935 C926 1.390 . S
C935 H928 0.950 . S
C935 C932 1.387 . S
C397 C18 1.290 . S
C402 C98 1.309 . S
C407 C128 1.329 . S
C412 C37 1.323 . S
C417 C59 1.338 . S
C422 C81 1.336 . S
C427 C62 1.297 . S
C432 C95 1.310 . S
C437 C131 1.341 . S
C442 C15 1.340 . S
C447 C40 1.269 . S
C452 C74 1.289 . S
C457 C32 1.287 . S
C462 C76 1.269 . S
C467 C54 1.316 . S
C472 C103 1.311 . S
C477 C117 1.338 . S
C482 C7 1.337 . S
C487 C118 1.304 . S
C492 C29 1.319 . S
C497 C51 1.341 . S
C502 C87 1.341 . S
C507 C10 1.312 . S
C512 C106 1.294 . S
C517 C241 1.346 . S
C522 C147 1.346 . S
C527 C169 1.351 . S
C532 C249 1.350 . S
C537 C191 1.327 . S
C542 C213 1.328 . S
C547 C238 1.289 . S
C552 C194 1.270 . S
C557 C252 1.293 . S
C562 C150 1.274 . S
C567 C206 1.312 . S
C572 C172 1.292 . S
C577 C164 1.306 . S
C582 C208 1.285 . S
C587 C186 1.309 . S
C592 C228 1.291 . S
C597 C142 1.287 . S
C602 C260 1.269 . S
C607 C161 1.330 . S
C612 C257 1.331 . S
C617 C183 1.335 . S
C622 C219 1.334 . S
C627 C227 1.352 . S
C632 C139 1.353 . S
C637 C274 1.282 . S
C642 C362 1.300 . S
C647 C301 1.324 . S
C652 C392 1.330 . S
C657 C337 1.349 . S
C662 C329 1.351 . S
C667 C359 1.309 . S
C672 C318 1.296 . S
C677 C285 1.333 . S
C682 C395 1.332 . S
C687 C304 1.285 . S
C692 C340 1.304 . S
C697 C296 1.300 . S
C702 C348 1.281 . S
C707 C316 1.320 . S
C712 C367 1.315 . S
C717 C279 1.328 . S
C722 C381 1.328 . S
C727 C382 1.309 . S
C732 C293 1.322 . S
C737 C345 1.354 . S
C742 C323 1.353 . S
C747 C272 1.302 . S
C752 C370 1.282 . S
C757 C8 1.944 . S
C762 C294 1.942 . S
C767 C43 1.949 . S
C772 C326 1.961 . S
C777 C65 1.965 . S
C782 C271 1.964 . S
C787 C52 1.949 . S
C792 C175 1.934 1_556 S
C797 C21 1.965 . S
C802 C197 1.969 1_556 S
C807 C30 1.959 . S
C812 C153 1.944 1_556 S
C817 C235 1.946 . S
C822 C84 1.966 . S
C827 C109 1.980 . S
C832 C263 1.981 . S
C837 C125 1.970 . S
C842 C205 1.969 . S
C847 C373 1.945 1_554 S
C852 C120 1.959 . S
C857 C73 1.962 . S
C862 C389 1.964 1_554 S
C867 C96 1.946 . S
C872 C338 1.946 1_554 S
C877 C184 1.974 . S
C882 C307 1.957 . S
C887 C140 1.963 . S
C892 C315 1.947 . S
C897 C282 1.943 . S
C902 C162 1.942 . S
C907 C360 1.939 . S
C912 C216 1.942 . S
C917 C384 1.926 . S
C922 C230 1.927 . S
C927 C250 1.963 . S
C932 C351 1.945 . S
