# Generated by pormake.
# Topology qtz-x, (6)-cn, num edge types: 1
# Building blocks:
#     Node 0, Type 0, BuildingBlock: KUMBOL_clean_sbu_0, # of connection points: 6
#     Node 1, Type 0, BuildingBlock: KUMBOL_clean_sbu_0, # of connection points: 6
#     Node 2, Type 0, BuildingBlock: KUMBOL_clean_sbu_0, # of connection points: 6
#     Edge 3, Type (0, 0), BuildingBlock: OJICUG_clean_linker_0, # of connection points: 2
#     Edge 4, Type (0, 0), BuildingBlock: OJICUG_clean_linker_0, # of connection points: 2
#     Edge 5, Type (0, 0), BuildingBlock: OJICUG_clean_linker_0, # of connection points: 2
#     Edge 6, Type (0, 0), BuildingBlock: OJICUG_clean_linker_0, # of connection points: 2
#     Edge 7, Type (0, 0), BuildingBlock: OJICUG_clean_linker_0, # of connection points: 2
#     Edge 8, Type (0, 0), BuildingBlock: OJICUG_clean_linker_0, # of connection points: 2
#     Edge 9, Type (0, 0), BuildingBlock: OJICUG_clean_linker_0, # of connection points: 2
#     Edge 10, Type (0, 0), BuildingBlock: OJICUG_clean_linker_0, # of connection points: 2
#     Edge 11, Type (0, 0), BuildingBlock: OJICUG_clean_linker_0, # of connection points: 2
# Relax obj value: 0.163
# Max RMSD: 0.287
# Mean RMSD: 0.287
data_MOF--net-qtz-x--node1-KUMBOL_clean_sbu_0--edge1-OJICUG_clean_linker_0
_symmetry_space_group_name_H-M    P1
_symmetry_Int_Tables_number       1
_symmetry_cell_setting            triclinic
loop_
_symmetry_equiv_pos_as_xyz
'x, y, z'
_cell_length_a     11.596092
_cell_length_b     11.569278
_cell_length_c     41.078271
_cell_angle_alpha  89.906763
_cell_angle_beta   89.923361
_cell_angle_gamma 120.37563
loop_
_atom_site_label
_atom_site_type_symbol
_atom_site_fract_x
_atom_site_fract_y
_atom_site_fract_z
_atom_type_partial_charge
Gd0 Gd -0.02233 0.35769 0.14462 0.0
Gd1 Gd 0.24082 0.48504 0.20344 0.0
C2 C 0.67766 0.68159 0.17455 0.0
C3 C 0.75001 0.54935 0.2048 0.0
C4 C 0.52014 0.49723 0.20811 0.0
C5 C 0.54752 0.60013 0.18659 0.0
C6 C 0.62172 0.47223 0.21796 0.0
C7 C 0.77653 0.65272 0.18306 0.0
C8 C 0.70535 0.79071 0.15461 0.0
C9 C 0.60527 0.82053 0.14865 0.0
N10 N 0.44913 0.6257 0.17901 0.0
C11 C 0.47819 0.73897 0.16196 0.0
H12 H 0.40354 0.76645 0.15775 0.0
C13 C 0.36535 0.3275 0.24328 0.0
N14 N 0.39491 0.42357 0.22006 0.0
C15 C 0.46217 0.29763 0.25341 0.0
C16 C 0.59069 0.36982 0.24045 0.0
H17 H 0.26605 0.27242 0.25359 0.0
H18 H 0.87262 0.70949 0.17248 0.0
H19 H 0.80853 0.08335 0.19186 0.0
H20 H 0.80423 0.85472 0.14458 0.0
H21 H 0.62611 0.90709 0.13413 0.0
H22 H 0.82875 0.52932 0.21084 0.0
H23 H 0.96279 0.57411 0.09367 0.0
H24 H 0.41504 0.01687 0.20618 0.0
H25 H 0.58531 0.95372 0.21664 0.0
H26 H 0.40773 0.35181 0.13959 0.0
H27 H 0.43777 0.21923 0.27114 0.0
H28 H 0.66476 0.34553 0.24784 0.0
H29 H 0.35526 0.1696 0.17813 0.0
H30 H 0.8089 0.65348 0.08091 0.0
N31 N 0.76887 0.22611 0.16953 0.0
C32 C 0.51343 0.07514 0.19543 0.0
C33 C 0.60935 0.0394 0.20149 0.0
C34 C 0.54477 0.18341 0.17481 0.0
C35 C 0.67445 0.25746 0.16195 0.0
C36 C 0.73636 0.11434 0.18758 0.0
N37 N 0.83093 0.42772 0.12774 0.0
C38 C 0.70629 0.36122 0.14036 0.0
C39 C 0.77629 0.56835 0.09674 0.0
C40 C 0.64833 0.50371 0.11019 0.0
C41 C 0.8647 0.52484 0.10465 0.0
C42 C 0.61036 0.39574 0.13145 0.0
H43 H 0.58148 0.54017 0.10468 0.0
O44 O -0.00553 0.34804 0.09209 0.0
O45 O 0.19584 0.44045 0.15048 0.0
O46 O 0.20383 0.65536 0.18859 0.0
O47 O 0.00453 0.56121 0.15932 0.0
O48 O 0.13354 0.53157 0.11696 0.0
O49 O 0.87448 0.16636 0.11961 0.0
O50 O 0.24265 0.49038 0.25653 0.0
O51 O 0.02533 0.4046 0.19679 0.0
O52 O 0.01499 0.18737 0.1597 0.0
O53 O 0.21399 0.28206 0.18909 0.0
O54 O 0.07865 0.3113 0.23088 0.0
O55 O 0.31327 0.67306 0.22904 0.0
C56 C 0.23504 0.5275 0.12786 0.0
C57 C 0.48199 0.32446 0.14493 0.0
C58 C 0.45058 0.21961 0.16669 0.0
C59 C 0.90756 0.22073 0.09078 0.0
C60 C 0.79922 0.18203 0.06698 0.0
C61 C 0.6656 0.12472 0.07708 0.0
C62 C 0.83171 0.21326 0.03394 0.0
C63 C 0.73308 0.19422 0.01107 0.0
C64 C 0.56661 0.10221 0.05461 0.0
C65 C 0.59984 0.13825 0.02203 0.0
C66 C 0.10743 0.66515 0.17375 0.0
C67 C -0.0196 0.3217 0.22007 0.0
C68 C 0.30341 0.62029 0.25768 0.0
C69 C 0.42298 0.68614 0.27843 0.0
C70 C 0.55122 0.74796 0.26444 0.0
C71 C 0.40964 0.68423 0.31252 0.0
C72 C 0.52405 0.74125 0.33232 0.0
C73 C 0.66459 0.80573 0.284 0.0
C74 C 0.65137 0.802 0.31774 0.0
C75 C 0.11227 0.17834 0.17436 0.0
H76 H 0.63779 0.10011 0.10239 0.0
H77 H 0.93487 0.25541 0.0264 0.0
H78 H 0.46411 0.06012 0.06265 0.0
H79 H 0.52097 0.12584 1.00581 0.0
H80 H 0.56416 0.75192 0.23839 0.0
H81 H 0.31111 0.63658 0.32356 0.0
H82 H 0.76296 0.85328 0.27297 0.0
H83 H 0.74092 0.84781 0.33253 0.0
Gd84 Gd 0.73341 0.14859 0.47673 0.0
Gd85 Gd 0.59997 0.89254 0.53724 0.0
C86 C 0.33405 0.47134 0.50045 0.0
C87 C 0.12218 0.41191 0.52561 0.0
C88 C 0.31613 0.62938 0.53568 0.0
C89 C 0.39247 0.5979 0.51524 0.0
C90 C 0.1808 0.53499 0.54161 0.0
C91 C 0.19846 0.38113 0.50501 0.0
C92 C 0.41424 0.4371 0.4823 0.0
C93 C 0.55133 0.52494 0.48113 0.0
N94 N 0.52514 0.68648 0.51167 0.0
C95 C 0.60606 0.64906 0.49655 0.0
H96 H 0.71236 0.71599 0.49501 0.0
C97 C 0.31036 0.77341 0.57568 0.0
N98 N 0.37609 0.74831 0.55145 0.0
C99 C 0.17499 0.68464 0.58154 0.0
C100 C 0.10909 0.56621 0.56383 0.0
H101 H 0.35984 0.86644 0.58887 0.0
H102 H 0.15209 0.28802 0.49235 0.0
H103 H 0.6219 0.30628 0.52622 0.0
H104 H 0.37222 0.34161 0.47005 0.0
H105 H 0.61492 0.49751 0.46823 0.0
H106 H 0.01708 0.34114 0.52828 0.0
H107 H 0.97288 0.17442 0.42735 0.0
H108 H 0.9139 0.72115 0.52714 0.0
H109 H 0.70232 0.53164 0.54755 0.0
H110 H 0.2366 0.7578 0.44908 0.0
H111 H 0.12141 0.70817 0.59944 0.0
H112 H 0.00364 0.49896 0.56797 0.0
H113 H 0.10312 0.80277 0.48781 0.0
H114 H 0.18343 0.35193 0.40318 0.0
N115 N 0.79942 0.36066 0.49899 0.0
C116 C 0.88263 0.6208 0.51896 0.0
C117 C 0.76346 0.51405 0.53064 0.0
C118 C 0.95736 0.59694 0.49606 0.0
C119 C 0.91397 0.46422 0.48684 0.0
C120 C 0.71977 0.38523 0.51898 0.0
N121 N 0.94358 0.30865 0.45682 0.0
C122 C -0.0129 0.4376 0.46463 0.0
C123 C 0.12951 0.3774 0.42053 0.0
C124 C 0.17685 0.51073 0.42876 0.0
C125 C 0.01102 0.27717 0.43453 0.0
C126 C 0.10542 0.54255 0.45091 0.0
H127 H 0.26796 0.58766 0.41775 0.0
O128 O 0.72593 0.13483 0.42388 0.0
O129 O 0.59857 0.92942 0.48388 0.0
O130 O 0.80594 0.92492 0.52155 0.0
O131 O 0.91066 0.1267 0.4924 0.0
O132 O 0.75644 -0.00925 0.45198 0.0
O133 O 0.61692 0.21373 0.44918 0.0
O134 O 0.72939 0.94603 0.5798 0.0
O135 O 0.7369 0.10896 0.52975 0.0
O136 O 0.5251 0.11195 0.49005 0.0
O137 O 0.43029 0.93401 0.52662 0.0
O138 O 0.58183 0.05334 0.56236 0.0
O139 O 0.56737 0.74544 0.5749 0.0
C140 C 0.647 0.88917 0.46192 0.0
C141 C 0.14757 0.67509 0.4596 0.0
C142 C 0.07292 0.7015 0.48195 0.0
C143 C 0.65933 0.19692 0.42116 0.0
C144 C 0.71393 0.31002 0.39803 0.0
C145 C 0.75077 0.43957 0.40829 0.0
C146 C 0.73349 0.28836 0.36539 0.0
C147 C 0.78331 0.39365 0.34227 0.0
C148 C 0.79861 0.54408 0.38592 0.0
C149 C 0.8104 0.52096 0.35311 0.0
C150 C 0.91374 0.02592 0.50741 0.0
C151 C 0.69446 0.15194 0.55244 0.0
C152 C 0.65782 0.83199 0.59425 0.0
C153 C 0.61222 0.83541 0.62759 0.0
C154 C 0.5525 0.91218 0.63455 0.0
C155 C 0.61785 0.75369 0.65213 0.0
C156 C 0.55467 0.74141 0.68228 0.0
C157 C 0.48464 0.89517 0.66374 0.0
C158 C 0.4817 0.80653 0.68706 0.0
C159 C 0.42349 0.02483 0.50828 0.0
H160 H 0.74336 0.46037 0.43355 0.0
H161 H 0.71268 0.18929 0.35879 0.0
H162 H 0.82635 0.64378 0.39403 0.0
H163 H 0.84226 0.60469 0.33669 0.0
H164 H 0.55425 0.98256 0.61725 0.0
H165 H 0.66852 0.69808 0.64764 0.0
H166 H 0.4336 0.95027 0.6682 0.0
H167 H 0.42552 0.79171 0.70924 0.0
Gd168 Gd 0.78782 0.40426 0.81129 0.0
Gd169 Gd 0.65848 0.53765 0.87014 0.0
C170 C 0.48125 0.7856 0.83539 0.0
C171 C 0.6245 -0.00221 0.86189 0.0
C172 C 0.66482 0.81385 0.86929 0.0
C173 C 0.55733 0.73386 0.84889 0.0
C174 C 0.69685 0.94559 0.87658 0.0
C175 C 0.51806 0.91832 0.84131 0.0
C176 C 0.36891 0.70226 0.81669 0.0
C177 C 0.32969 0.56781 0.81353 0.0
N178 N 0.52171 0.60387 0.84397 0.0
C179 C 0.40513 0.51897 0.82828 0.0
H180 H 0.3707 0.41382 0.82596 0.0
C181 C 0.82655 0.83019 0.90708 0.0
N182 N 0.73288 0.76073 0.88357 0.0
C183 C 0.86439 0.96237 0.91415 0.0
C184 C 0.80064 0.02104 0.89842 0.0
H185 H 0.87734 0.78594 0.91917 0.0
H186 H 0.46656 0.96064 0.82925 0.0
H187 H 0.06198 0.54056 0.86048 0.0
H188 H 0.30924 0.7395 0.8056 0.0
H189 H 0.24035 0.5011 0.80007 0.0
H190 H 0.65359 0.10101 0.86523 0.0
H191 H 0.58157 0.15213 0.76453 0.0
H192 H 0.18112 0.25055 0.87351 0.0
H193 H 0.20757 0.47132 0.88634 0.0
H194 H 0.88756 0.89314 0.80318 0.0
H195 H 0.94299 0.01904 0.93157 0.0
H196 H 0.83267 0.12445 0.9034 0.0
H197 H 0.06643 0.04356 0.84089 0.0
H198 H 0.54015 0.92915 0.74936 0.0
N199 N 0.93803 0.35258 0.83705 0.0
C200 C 0.11305 0.27867 0.86302 0.0
C201 C 0.1279 0.40283 0.87042 0.0
C202 C 0.01326 0.19426 0.84127 0.0
C203 C 0.92525 0.23342 0.82892 0.0
C204 C 0.04334 0.44091 0.85587 0.0
N205 N 0.7421 0.19181 0.79631 0.0
C206 C 0.82565 0.15156 0.80748 0.0
C207 C 0.62251 -0.00843 0.76506 0.0
C208 C 0.70493 0.9465 0.77717 0.0
C209 C 0.64474 0.11683 0.77427 0.0
C210 C 0.81015 0.02775 0.79796 0.0
H211 H 0.68365 0.84759 0.77127 0.0
O212 O 0.78221 0.41213 0.75845 0.0
O213 O 0.69711 0.53274 0.81679 0.0
O214 O 0.4868 0.33055 0.85507 0.0
O215 O 0.58588 0.22656 0.82697 0.0
O216 O 0.60791 0.37266 0.78469 0.0
O217 O 0.97214 0.50804 0.78323 0.0
O218 O 0.5808 0.40782 0.9129 0.0
O219 O 0.74101 0.40434 0.86392 0.0
O220 O 0.95436 0.61672 0.8225 0.0
O221 O 0.87091 0.70846 0.85944 0.0
O222 O 0.8387 0.56147 0.89587 0.0
O223 O 0.54426 0.56942 0.9079 0.0
C224 C 0.60895 0.47836 0.79465 0.0
C225 C 0.89771 -0.01183 0.8101 0.0
C226 C -0.00102 0.07219 0.83161 0.0
C227 C 0.91115 0.47159 0.75527 0.0
C228 C 0.95946 0.41032 0.7315 0.0
C229 C 0.02699 0.34459 0.74161 0.0
C230 C 0.92721 0.40812 0.69845 0.0
C231 C 0.95446 0.33397 0.67556 0.0
C232 C 0.05813 0.27427 0.7192 0.0
C233 C 0.0205 0.26687 0.68666 0.0
C234 C 0.48121 0.22349 0.84144 0.0
C235 C 0.82536 0.44874 0.88682 0.0
C236 C 0.53912 0.47893 0.92737 0.0
C237 C 0.58888 0.52504 0.9607 0.0
C238 C 0.7268 0.59263 0.96696 0.0
C239 C 0.50106 0.51379 0.98582 0.0
C240 C 0.55282 0.57978 0.01567 0.0
C241 C 0.7779 0.66267 0.99581 0.0
C242 C 0.6914 0.6605 0.01952 0.0
C243 C 0.96839 0.71663 0.84087 0.0
H244 H 0.05299 0.34476 0.76688 0.0
H245 H 0.87791 0.46212 0.69102 0.0
H246 H 0.10821 0.22181 0.72729 0.0
H247 H 0.03986 0.20446 0.67067 0.0
H248 H 0.7964 0.59586 0.94934 0.0
H249 H 0.39396 0.45771 0.98192 0.0
H250 H 0.88487 0.72012 0.99962 0.0
H251 H 0.73252 0.72005 0.04119 0.0
C252 C 0.09909 0.85593 0.14456 0.0
C253 C 0.11614 0.80016 0.17353 0.0
H254 H 0.08056 0.01492 0.12223 0.0
C255 C 0.13052 0.86999 0.20276 0.0
H256 H 0.08766 0.80564 0.12158 0.0
C257 C 0.1253 -0.01038 0.20315 0.0
C258 C 0.10645 0.04449 0.17428 0.0
H259 H 0.14291 0.83032 0.22555 0.0
H260 H 0.137 0.04002 0.22613 0.0
C261 C 0.09326 0.97533 0.14499 0.0
C262 C 0.25125 0.06582 0.4804 0.0
C263 C 0.29605 0.03091 0.50863 0.0
H264 H 0.09503 0.08486 0.45733 0.0
C265 C 0.21323 -0.00529 0.53651 0.0
H266 H 0.31047 0.09279 0.45831 0.0
C267 C 0.08987 -0.0078 0.53607 0.0
C268 C 0.04402 0.02481 0.50768 0.0
H269 H 0.24404 0.96899 0.55887 0.0
H270 H 0.03035 0.96515 0.55811 0.0
C271 C 0.12656 0.06028 0.47977 0.0
C272 C 0.17294 0.90003 0.81218 0.0
C273 C 0.10257 0.843 0.84135 0.0
H274 H 0.34373 0.06612 0.78922 0.0
C275 C 0.15926 0.91191 0.87068 0.0
H276 H 0.13264 0.85011 0.7892 0.0
C277 C 0.28043 0.03619 0.87065 0.0
C278 C 0.34917 0.09443 0.84138 0.0
H279 H 0.10878 0.87069 0.8936 0.0
H280 H 0.32105 0.08636 0.89359 0.0
C281 C 0.2933 0.02468 0.81215 0.0
C282 C 0.47621 0.6786 0.05834 0.0
C283 C 0.46572 0.56457 0.0435 0.0
H284 H 0.40856 0.75489 0.09658 0.0
C285 C 0.38344 0.43811 0.05765 0.0
H286 H 0.538 0.77696 0.04763 0.0
C287 C 0.31582 0.42671 0.08684 0.0
C288 C 0.32958 0.54153 0.10219 0.0
H289 H 0.37442 0.34889 0.04663 0.0
H290 H 0.24976 0.328 0.09689 0.0
C291 C 0.40575 0.66653 0.08687 0.0
C292 C 0.90553 0.48397 0.2887 0.0
C293 C 0.81546 0.37341 0.30794 0.0
H294 H 0.02097 0.55327 0.24509 0.0
C295 C 0.76565 0.24379 0.2947 0.0
H296 H 0.95167 0.58573 0.29736 0.0
C297 C 0.81266 0.22596 0.26482 0.0
C298 C 0.90281 0.33689 0.24624 0.0
H299 H 0.6933 0.15458 0.30745 0.0
H300 H 0.78237 0.12535 0.25691 0.0
C301 C 0.94666 0.46579 0.25824 0.0
C302 C 0.70869 0.65086 0.75128 0.0
C303 C 0.59434 0.55455 0.76801 0.0
H304 H 0.78522 0.78351 0.71012 0.0
C305 C 0.46832 0.50702 0.75377 0.0
H306 H 0.80765 0.68248 0.7606 0.0
C307 C 0.45508 0.56631 0.72553 0.0
C308 C 0.56887 0.66711 0.70965 0.0
H309 H 0.37987 0.42318 0.76434 0.0
H310 H 0.35617 0.53271 0.71589 0.0
C311 C 0.69608 0.70609 0.7221 0.0
C312 C 0.69752 0.24365 0.92109 0.0
C313 C 0.8184 0.36159 0.91406 0.0
H314 H 0.57947 0.09284 0.95588 0.0
C315 C 0.91817 0.41428 0.93798 0.0
H316 H 0.61511 0.20447 0.90416 0.0
C317 C 0.89372 0.35628 0.96901 0.0
C318 C 0.76945 0.24213 0.97665 0.0
H319 H 0.01081 0.50731 0.93358 0.0
H320 H 0.96919 0.40732 0.98746 0.0
C321 C 0.67487 0.18263 0.95158 0.0
C322 C 0.58458 0.69263 0.38641 0.0
C323 C 0.51478 0.73994 0.36824 0.0
H324 H 0.68411 0.70573 0.43096 0.0
C325 C 0.45949 0.80783 0.38423 0.0
H326 H 0.62782 0.64047 0.37434 0.0
C327 C 0.48489 0.83851 0.41742 0.0
C328 C 0.56699 0.80305 0.43482 0.0
H329 H 0.40681 0.84702 0.37058 0.0
H330 H 0.45378 0.90353 0.42835 0.0
C331 C 0.61318 0.72648 0.41913 0.0
C332 C 0.96386 0.28049 0.61619 0.0
C333 C 0.90461 0.31662 0.64114 0.0
H334 H 0.94109 0.19358 0.56922 0.0
C335 C 0.78913 0.32262 0.6334 0.0
H336 H 0.05502 0.27866 0.62027 0.0
C337 C 0.73033 0.28482 0.60262 0.0
C338 C 0.78268 0.23637 0.57902 0.0
H339 H 0.73754 0.34729 0.65156 0.0
H340 H 0.63681 0.28205 0.59825 0.0
C341 C 0.90142 0.2368 0.58601 0.0
loop_
_geom_bond_atom_site_label_1
_geom_bond_atom_site_label_2
_geom_bond_distance
_geom_bond_site_symmetry_2
_ccdc_geom_bond_type
Gd0 N31 2.661 . S
Gd0 N37 2.601 . S
Gd0 O44 2.545 . S
Gd0 O45 2.606 1_655 S
Gd0 O47 2.429 . S
Gd0 O48 2.545 . S
Gd0 O49 2.412 . S
Gd0 O51 2.362 . S
Gd0 O52 2.324 . S
Gd0 C59 2.828 . S
Gd1 N10 2.661 . S
Gd1 N14 2.601 . S
Gd1 O45 2.362 . S
Gd1 O46 2.324 . S
Gd1 O50 2.545 . S
Gd1 O51 2.606 1_455 S
Gd1 O53 2.429 . S
Gd1 O54 2.545 . S
Gd1 O55 2.412 . S
Gd1 C68 2.828 . S
C2 C5 1.417 . S
C2 C7 1.431 . S
C2 C8 1.412 . S
C3 C6 1.437 . S
C3 C7 1.317 . S
C3 H22 0.929 . S
C4 C5 1.426 . S
C4 C6 1.413 . S
C4 N14 1.359 . S
C5 C2 1.417 . S
C5 C4 1.426 . S
C5 N10 1.350 . S
C6 C3 1.437 . S
C6 C4 1.413 . S
C6 C16 1.391 . S
C7 C2 1.431 . S
C7 C3 1.317 . S
C7 H18 0.930 . S
C8 C2 1.412 . S
C8 C9 1.355 . S
C8 H20 0.930 . S
C9 C8 1.355 . S
C9 C11 1.402 . S
C9 H21 0.930 . S
N10 Gd1 2.661 . S
N10 C5 1.350 . S
N10 C11 1.307 . S
C11 C9 1.402 . S
C11 N10 1.307 . S
C11 H12 0.930 . S
H12 C11 0.930 . S
C13 N14 1.334 . S
C13 C15 1.394 . S
C13 H17 0.930 . S
N14 Gd1 2.601 . S
N14 C4 1.359 . S
N14 C13 1.334 . S
C15 C13 1.394 . S
C15 C16 1.359 . S
C15 H27 0.930 . S
C16 C6 1.391 . S
C16 C15 1.359 . S
C16 H28 0.929 . S
H17 C13 0.930 . S
H18 C7 0.930 . S
H19 C36 0.930 . S
H20 C8 0.930 . S
H21 C9 0.930 . S
H22 C3 0.929 . S
H23 C41 0.930 . S
H24 C32 0.930 . S
H25 C33 0.930 . S
H26 C57 0.929 . S
H27 C15 0.930 . S
H28 C16 0.929 . S
H29 C58 0.930 . S
H30 C39 0.930 . S
N31 Gd0 2.661 . S
N31 C35 1.350 . S
N31 C36 1.307 . S
C32 H24 0.930 . S
C32 C33 1.355 . S
C32 C34 1.412 1_565 S
C33 H25 0.930 . S
C33 C32 1.355 . S
C33 C36 1.402 1_565 S
C34 C32 1.412 1_545 S
C34 C35 1.417 . S
C34 C58 1.431 . S
C35 N31 1.350 . S
C35 C34 1.417 . S
C35 C38 1.426 . S
C36 H19 0.930 . S
C36 N31 1.307 . S
C36 C33 1.402 1_545 S
N37 Gd0 2.601 . S
N37 C38 1.359 . S
N37 C41 1.334 . S
C38 C35 1.426 . S
C38 N37 1.359 . S
C38 C42 1.413 . S
C39 H30 0.930 . S
C39 C40 1.359 . S
C39 C41 1.394 . S
C40 C39 1.359 . S
C40 C42 1.391 . S
C40 H43 0.929 . S
C41 H23 0.930 . S
C41 N37 1.334 . S
C41 C39 1.394 . S
C42 C38 1.413 . S
C42 C40 1.391 . S
C42 C57 1.437 . S
H43 C40 0.929 . S
O44 Gd0 2.545 . S
O44 C59 1.258 . S
O45 Gd0 2.606 1_455 S
O45 Gd1 2.362 . S
O45 C56 1.284 . S
O46 Gd1 2.324 . S
O46 C66 1.254 . S
O47 Gd0 2.429 . S
O47 C66 1.268 1_655 S
O48 Gd0 2.545 . S
O48 C56 1.250 1_655 S
O49 Gd0 2.412 . S
O49 C59 1.252 . S
O50 Gd1 2.545 . S
O50 C68 1.258 . S
O51 Gd0 2.362 . S
O51 Gd1 2.606 1_655 S
O51 C67 1.284 . S
O52 Gd0 2.324 . S
O52 C75 1.254 . S
O53 Gd1 2.429 . S
O53 C75 1.268 1_455 S
O54 Gd1 2.545 . S
O54 C67 1.250 1_455 S
O55 Gd1 2.412 . S
O55 C68 1.252 . S
C56 O45 1.284 . S
C56 O48 1.250 1_455 S
C57 H26 0.929 . S
C57 C42 1.437 . S
C57 C58 1.317 . S
C58 H29 0.930 . S
C58 C34 1.431 . S
C58 C57 1.317 . S
C59 Gd0 2.828 . S
C59 O44 1.258 . S
C59 O49 1.252 . S
C59 C60 1.497 . S
C60 C59 1.497 . S
C60 C61 1.395 . S
C60 C62 1.380 . S
C61 C60 1.395 . S
C61 C64 1.398 . S
C61 H76 0.930 . S
C62 C60 1.380 . S
C62 C63 1.391 . S
C62 H77 0.930 . S
C63 C62 1.391 . S
C63 C65 1.387 1_554 S
C64 C61 1.398 . S
C64 C65 1.380 1_554 S
C64 H78 0.919 1_554 S
C65 C63 1.387 1_556 S
C65 C64 1.380 1_556 S
C65 H79 0.930 . S
C66 O46 1.254 . S
C66 O47 1.268 1_455 S
C67 O51 1.284 . S
C67 O54 1.250 1_655 S
C68 Gd1 2.828 . S
C68 O50 1.258 . S
C68 O55 1.252 . S
C68 C69 1.497 . S
C69 C68 1.497 . S
C69 C70 1.395 . S
C69 C71 1.380 . S
C70 C69 1.395 . S
C70 C73 1.398 . S
C70 H80 0.930 . S
C71 C69 1.380 . S
C71 C72 1.391 . S
C71 H81 0.930 . S
C72 C71 1.391 . S
C72 C74 1.387 . S
C73 C70 1.398 . S
C73 C74 1.380 . S
C73 H82 0.930 . S
C74 C72 1.387 . S
C74 C73 1.380 . S
C74 H83 0.930 . S
C75 O52 1.254 . S
C75 O53 1.268 1_655 S
H76 C61 0.930 . S
H77 C62 0.930 . S
H78 C64 0.919 1_556 S
H79 C65 0.930 . S
H80 C70 0.930 . S
H81 C71 0.930 . S
H82 C73 0.930 . S
H83 C74 0.930 . S
Gd84 N115 2.661 . S
Gd84 N121 2.601 1_655 S
Gd84 O128 2.545 1_655 S
Gd84 O129 2.606 . S
Gd84 O131 2.429 1_655 S
Gd84 O132 2.545 . S
Gd84 O133 2.412 . S
Gd84 O135 2.362 . S
Gd84 O136 2.324 . S
Gd84 C143 2.828 . S
Gd85 N94 2.661 1_545 S
Gd85 N98 2.601 1_545 S
Gd85 O129 2.362 . S
Gd85 O130 2.324 . S
Gd85 O134 2.545 1_545 S
Gd85 O135 2.606 . S
Gd85 O137 2.429 . S
Gd85 O138 2.545 . S
Gd85 O139 2.412 1_545 S
Gd85 C152 2.828 1_545 S
C86 C89 1.417 . S
C86 C91 1.431 . S
C86 C92 1.412 . S
C87 C90 1.437 . S
C87 C91 1.317 . S
C87 H106 0.929 . S
C88 C89 1.426 . S
C88 C90 1.413 . S
C88 N98 1.359 . S
C89 C86 1.417 . S
C89 C88 1.426 . S
C89 N94 1.350 . S
C90 C87 1.437 . S
C90 C88 1.413 . S
C90 C100 1.391 . S
C91 C86 1.431 . S
C91 C87 1.317 . S
C91 H102 0.930 . S
C92 C86 1.412 . S
C92 C93 1.355 . S
C92 H104 0.930 . S
C93 C92 1.355 . S
C93 C95 1.402 . S
C93 H105 0.930 . S
N94 Gd85 2.661 1_565 S
N94 C89 1.350 . S
N94 C95 1.307 . S
C95 C93 1.402 . S
C95 N94 1.307 . S
C95 H96 0.930 . S
H96 C95 0.930 . S
C97 N98 1.334 . S
C97 C99 1.394 . S
C97 H101 0.930 . S
N98 Gd85 2.601 1_565 S
N98 C88 1.359 . S
N98 C97 1.334 . S
C99 C97 1.394 . S
C99 C100 1.359 . S
C99 H111 0.930 . S
C100 C90 1.391 . S
C100 C99 1.359 . S
C100 H112 0.929 . S
H101 C97 0.930 . S
H102 C91 0.930 . S
H103 C120 0.930 . S
H104 C92 0.930 . S
H105 C93 0.930 . S
H106 C87 0.929 . S
H107 C125 0.930 . S
H108 C116 0.930 . S
H109 C117 0.930 . S
H110 C141 0.930 . S
H111 C99 0.930 . S
H112 C100 0.929 . S
H113 C142 0.930 . S
H114 C123 0.930 . S
N115 Gd84 2.661 . S
N115 C119 1.350 1_655 S
N115 C120 1.307 . S
C116 H108 0.930 . S
C116 C117 1.355 . S
C116 C118 1.412 1_655 S
C117 H109 0.930 . S
C117 C116 1.355 . S
C117 C120 1.402 . S
C118 C116 1.412 1_455 S
C118 C119 1.417 . S
C118 C142 1.431 . S
C119 N115 1.350 1_455 S
C119 C118 1.417 . S
C119 C122 1.426 . S
C120 H103 0.930 . S
C120 N115 1.307 . S
C120 C117 1.402 . S
N121 Gd84 2.601 1_455 S
N121 C122 1.359 . S
N121 C125 1.334 . S
C122 C119 1.426 . S
C122 N121 1.359 . S
C122 C126 1.413 . S
C123 H114 0.930 . S
C123 C124 1.359 . S
C123 C125 1.394 . S
C124 C123 1.359 . S
C124 C126 1.391 . S
C124 H127 0.929 . S
C125 H107 0.930 . S
C125 N121 1.334 . S
C125 C123 1.394 . S
C126 C122 1.413 . S
C126 C124 1.391 . S
C126 C141 1.437 . S
H127 C124 0.929 . S
O128 Gd84 2.545 1_455 S
O128 C143 1.258 1_455 S
O129 Gd84 2.606 . S
O129 Gd85 2.362 . S
O129 C140 1.284 . S
O130 Gd85 2.324 . S
O130 C150 1.254 1_655 S
O131 Gd84 2.429 1_455 S
O131 C150 1.268 . S
O132 Gd84 2.545 . S
O132 C140 1.250 . S
O133 Gd84 2.412 . S
O133 C143 1.252 . S
O134 Gd85 2.545 1_565 S
O134 C152 1.258 . S
O135 Gd84 2.362 . S
O135 Gd85 2.606 . S
O135 C151 1.284 . S
O136 Gd84 2.324 . S
O136 C159 1.254 . S
O137 Gd85 2.429 . S
O137 C159 1.268 . S
O138 Gd85 2.545 . S
O138 C151 1.250 . S
O139 Gd85 2.412 1_565 S
O139 C152 1.252 . S
C140 O129 1.284 . S
C140 O132 1.250 . S
C141 H110 0.930 . S
C141 C126 1.437 . S
C141 C142 1.317 . S
C142 H113 0.930 . S
C142 C118 1.431 . S
C142 C141 1.317 . S
C143 Gd84 2.828 . S
C143 O128 1.258 1_655 S
C143 O133 1.252 . S
C143 C144 1.497 . S
C144 C143 1.497 . S
C144 C145 1.395 1_655 S
C144 C146 1.380 . S
C145 C144 1.395 1_455 S
C145 C148 1.398 . S
C145 H160 0.930 . S
C146 C144 1.380 . S
C146 C147 1.391 . S
C146 H161 0.930 . S
C147 C146 1.391 . S
C147 C149 1.387 1_655 S
C148 C145 1.398 . S
C148 C149 1.380 . S
C148 H162 0.930 . S
C149 C147 1.387 1_455 S
C149 C148 1.380 . S
C149 H163 0.930 . S
C150 O130 1.254 1_455 S
C150 O131 1.268 . S
C151 O135 1.284 . S
C151 O138 1.250 . S
C152 Gd85 2.828 1_565 S
C152 O134 1.258 . S
C152 O139 1.252 . S
C152 C153 1.497 . S
C153 C152 1.497 . S
C153 C154 1.395 . S
C153 C155 1.380 . S
C154 C153 1.395 . S
C154 C157 1.398 . S
C154 H164 0.930 . S
C155 C153 1.380 . S
C155 C156 1.391 . S
C155 H165 0.930 . S
C156 C155 1.391 . S
C156 C158 1.387 . S
C157 C154 1.398 . S
C157 C158 1.380 . S
C157 H166 0.930 . S
C158 C156 1.387 . S
C158 C157 1.380 . S
C158 H167 0.930 . S
C159 O136 1.254 . S
C159 O137 1.268 . S
H160 C145 0.930 . S
H161 C146 0.930 . S
H162 C148 0.930 . S
H163 C149 0.930 . S
H164 C154 0.930 . S
H165 C155 0.930 . S
H166 C157 0.930 . S
H167 C158 0.930 . S
Gd168 N199 2.661 1_655 S
Gd168 N205 2.601 . S
Gd168 O212 2.545 . S
Gd168 O213 2.606 . S
Gd168 O215 2.429 . S
Gd168 O216 2.545 . S
Gd168 O217 2.412 1_655 S
Gd168 O219 2.362 . S
Gd168 O220 2.324 1_655 S
Gd168 C227 2.828 . S
Gd169 N178 2.661 . S
Gd169 N182 2.601 . S
Gd169 O213 2.362 . S
Gd169 O214 2.324 . S
Gd169 O218 2.545 . S
Gd169 O219 2.606 . S
Gd169 O221 2.429 . S
Gd169 O222 2.545 . S
Gd169 O223 2.412 . S
Gd169 C236 2.828 . S
C170 C173 1.417 . S
C170 C175 1.431 . S
C170 C176 1.412 . S
C171 C174 1.437 . S
C171 C175 1.317 . S
C171 H190 0.929 1_565 S
C172 C173 1.426 . S
C172 C174 1.413 . S
C172 N182 1.359 . S
C173 C170 1.417 . S
C173 C172 1.426 . S
C173 N178 1.350 . S
C174 C171 1.437 . S
C174 C172 1.413 . S
C174 C184 1.391 1_565 S
C175 C170 1.431 . S
C175 C171 1.317 . S
C175 H186 0.930 . S
C176 C170 1.412 . S
C176 C177 1.355 . S
C176 H188 0.930 . S
C177 C176 1.355 . S
C177 C179 1.402 . S
C177 H189 0.930 . S
N178 Gd169 2.661 . S
N178 C173 1.350 . S
N178 C179 1.307 . S
C179 C177 1.402 . S
C179 N178 1.307 . S
C179 H180 0.930 . S
H180 C179 0.930 . S
C181 N182 1.334 . S
C181 C183 1.401 . S
C181 H185 0.930 . S
N182 Gd169 2.601 . S
N182 C172 1.359 . S
N182 C181 1.334 . S
C183 C181 1.401 . S
C183 C184 1.356 1_565 S
C183 H195 0.927 1_565 S
C184 C174 1.391 1_545 S
C184 C183 1.356 1_545 S
C184 H196 0.929 . S
H185 C181 0.930 . S
H186 C175 0.930 . S
H187 C204 0.930 . S
H188 C176 0.930 . S
H189 C177 0.930 . S
H190 C171 0.929 1_545 S
H191 C209 0.930 . S
H192 C200 0.930 . S
H193 C201 0.930 . S
H194 C225 0.929 . S
H195 C183 0.927 1_545 S
H196 C184 0.929 . S
H197 C226 0.930 . S
H198 C207 0.930 . S
N199 Gd168 2.661 1_455 S
N199 C203 1.350 . S
N199 C204 1.307 . S
C200 H192 0.930 . S
C200 C201 1.355 . S
C200 C202 1.412 . S
C201 H193 0.930 . S
C201 C200 1.355 . S
C201 C204 1.402 . S
C202 C200 1.412 . S
C202 C203 1.417 . S
C202 C226 1.431 1_545 S
C203 N199 1.350 . S
C203 C202 1.417 . S
C203 C206 1.426 1_455 S
C204 H187 0.930 . S
C204 N199 1.307 . S
C204 C201 1.402 . S
N205 Gd168 2.601 . S
N205 C206 1.359 . S
N205 C209 1.334 1_545 S
C206 C203 1.426 1_655 S
C206 N205 1.359 . S
C206 C210 1.413 1_545 S
C207 H198 0.930 . S
C207 C208 1.359 . S
C207 C209 1.394 . S
C208 C207 1.359 . S
C208 C210 1.391 . S
C208 H211 0.929 . S
C209 H191 0.930 . S
C209 N205 1.334 1_565 S
C209 C207 1.394 . S
C210 C206 1.413 1_565 S
C210 C208 1.391 . S
C210 C225 1.437 . S
H211 C208 0.929 . S
O212 Gd168 2.545 . S
O212 C227 1.258 . S
O213 Gd168 2.606 . S
O213 Gd169 2.362 . S
O213 C224 1.284 . S
O214 Gd169 2.324 . S
O214 C234 1.254 . S
O215 Gd168 2.429 . S
O215 C234 1.268 . S
O216 Gd168 2.545 . S
O216 C224 1.250 . S
O217 Gd168 2.412 1_455 S
O217 C227 1.252 1_455 S
O218 Gd169 2.545 . S
O218 C236 1.258 . S
O219 Gd168 2.362 . S
O219 Gd169 2.606 . S
O219 C235 1.284 . S
O220 Gd168 2.324 1_455 S
O220 C243 1.254 . S
O221 Gd169 2.429 . S
O221 C243 1.268 1_655 S
O222 Gd169 2.545 . S
O222 C235 1.250 . S
O223 Gd169 2.412 . S
O223 C236 1.252 . S
C224 O213 1.284 . S
C224 O216 1.250 . S
C225 H194 0.929 . S
C225 C210 1.437 . S
C225 C226 1.317 1_655 S
C226 H197 0.930 . S
C226 C202 1.431 1_565 S
C226 C225 1.317 1_455 S
C227 Gd168 2.828 . S
C227 O212 1.258 . S
C227 O217 1.252 1_655 S
C227 C228 1.497 1_655 S
C228 C227 1.497 1_455 S
C228 C229 1.395 1_455 S
C228 C230 1.380 . S
C229 C228 1.395 1_655 S
C229 C232 1.398 1_655 S
C229 H244 0.930 . S
C230 C228 1.380 . S
C230 C231 1.391 . S
C230 H245 0.930 . S
C231 C230 1.391 . S
C231 C233 1.387 . S
C232 C229 1.398 1_455 S
C232 C233 1.380 . S
C232 H246 0.930 1_445 S
C233 C231 1.387 . S
C233 C232 1.380 . S
C233 H247 0.930 . S
C234 O214 1.254 . S
C234 O215 1.268 . S
C235 O219 1.284 . S
C235 O222 1.250 . S
C236 Gd169 2.828 . S
C236 O218 1.258 . S
C236 O223 1.252 . S
C236 C237 1.497 . S
C237 C236 1.497 . S
C237 C238 1.395 . S
C237 C239 1.380 . S
C238 C237 1.395 . S
C238 C241 1.398 . S
C238 H248 0.930 . S
C239 C237 1.380 . S
C239 C240 1.391 . S
C239 H249 0.930 . S
C240 C239 1.391 . S
C240 C242 1.387 1_556 S
C241 C238 1.398 . S
C241 C242 1.380 1_556 S
C241 H250 0.918 1_556 S
C242 C240 1.387 1_554 S
C242 C241 1.380 1_554 S
C242 H251 0.930 . S
C243 O220 1.254 . S
C243 O221 1.268 1_455 S
H244 C229 0.930 . S
H245 C230 0.930 . S
H246 C232 0.930 1_665 S
H247 C233 0.930 . S
H248 C238 0.930 . S
H249 C239 0.930 . S
H250 C241 0.918 1_554 S
H251 C242 0.930 . S
C252 C253 1.387 . S
C252 H256 0.950 . S
C252 C261 1.390 . S
C253 C252 1.387 . S
C253 C255 1.387 1_455 S
H254 C261 0.950 . S
C255 C253 1.387 1_655 S
C255 C257 1.390 . S
C255 H259 0.950 . S
H256 C252 0.950 . S
C257 C255 1.390 . S
C257 C258 1.387 1_565 S
C257 H260 0.950 . S
C258 C257 1.387 1_545 S
C258 C261 1.387 1_645 S
H259 C255 0.950 . S
H260 C257 0.950 . S
C261 C252 1.390 . S
C261 H254 0.950 . S
C261 C258 1.387 1_465 S
C262 C263 1.387 . S
C262 H266 0.950 . S
C262 C271 1.390 . S
C263 C262 1.387 . S
C263 C265 1.387 . S
H264 C271 0.950 1_565 S
C265 C263 1.387 . S
C265 C267 1.390 . S
C265 H269 0.950 . S
H266 C262 0.950 . S
C267 C265 1.390 . S
C267 C268 1.387 . S
C267 H270 0.950 . S
C268 C267 1.387 . S
C268 C271 1.387 . S
H269 C265 0.950 . S
H270 C267 0.950 . S
C271 C262 1.390 . S
C271 H264 0.950 1_545 S
C271 C268 1.387 . S
C272 C273 1.387 . S
C272 H276 0.950 . S
C272 C281 1.390 . S
C273 C272 1.387 . S
C273 C275 1.387 . S
H274 C281 0.950 1_545 S
C275 C273 1.387 . S
C275 C277 1.390 . S
C275 H279 0.950 . S
H276 C272 0.950 . S
C277 C275 1.390 . S
C277 C278 1.387 1_565 S
C277 H280 0.950 . S
C278 C277 1.387 1_545 S
C278 C281 1.387 1_545 S
H279 C275 0.950 . S
H280 C277 0.950 . S
C281 C272 1.390 . S
C281 H274 0.950 1_565 S
C281 C278 1.387 1_565 S
C282 C283 1.387 . S
C282 H286 0.950 . S
C282 C291 1.390 . S
C283 C282 1.387 . S
C283 C285 1.387 . S
H284 C291 0.950 . S
C285 C283 1.387 . S
C285 C287 1.390 . S
C285 H289 0.950 . S
H286 C282 0.950 . S
C287 C285 1.390 . S
C287 C288 1.387 . S
C287 H290 0.950 . S
C288 C287 1.387 . S
C288 C291 1.387 . S
H289 C285 0.950 . S
H290 C287 0.950 . S
C291 C282 1.390 . S
C291 H284 0.950 . S
C291 C288 1.387 . S
C292 C293 1.387 . S
C292 H296 0.950 1_655 S
C292 C301 1.390 . S
C293 C292 1.387 . S
C293 C295 1.387 . S
H294 C301 0.950 1_455 S
C295 C293 1.387 . S
C295 C297 1.390 . S
C295 H299 0.950 . S
H296 C292 0.950 1_455 S
C297 C295 1.390 . S
C297 C298 1.387 . S
C297 H300 0.950 . S
C298 C297 1.387 . S
C298 C301 1.387 . S
H299 C295 0.950 . S
H300 C297 0.950 . S
C301 C292 1.390 . S
C301 H294 0.950 1_655 S
C301 C298 1.387 . S
C302 C303 1.387 . S
C302 H306 0.950 . S
C302 C311 1.390 . S
C303 C302 1.387 . S
C303 C305 1.387 . S
H304 C311 0.950 . S
C305 C303 1.387 . S
C305 C307 1.390 . S
C305 H309 0.950 . S
H306 C302 0.950 . S
C307 C305 1.390 . S
C307 C308 1.387 . S
C307 H310 0.950 . S
C308 C307 1.387 . S
C308 C311 1.387 . S
H309 C305 0.950 . S
H310 C307 0.950 . S
C311 C302 1.390 . S
C311 H304 0.950 . S
C311 C308 1.387 . S
C312 C313 1.387 . S
C312 H316 0.950 . S
C312 C321 1.390 . S
C313 C312 1.387 . S
C313 C315 1.387 . S
H314 C321 0.950 . S
C315 C313 1.387 . S
C315 C317 1.390 . S
C315 H319 0.950 . S
H316 C312 0.950 . S
C317 C315 1.390 . S
C317 C318 1.387 . S
C317 H320 0.950 1_545 S
C318 C317 1.387 . S
C318 C321 1.387 . S
H319 C315 0.950 . S
H320 C317 0.950 1_565 S
C321 C312 1.390 . S
C321 H314 0.950 . S
C321 C318 1.387 . S
C322 C323 1.387 . S
C322 H326 0.950 . S
C322 C331 1.390 . S
C323 C322 1.387 . S
C323 C325 1.387 . S
H324 C331 0.950 . S
C325 C323 1.387 . S
C325 C327 1.390 1_565 S
C325 H329 0.950 1_565 S
H326 C322 0.950 . S
C327 C325 1.390 1_545 S
C327 C328 1.387 1_545 S
C327 H330 0.950 . S
C328 C327 1.387 1_565 S
C328 C331 1.387 . S
H329 C325 0.950 1_545 S
H330 C327 0.950 . S
C331 C322 1.390 . S
C331 H324 0.950 . S
C331 C328 1.387 . S
C332 C333 1.387 . S
C332 H336 0.950 . S
C332 C341 1.390 1_455 S
C333 C332 1.387 . S
C333 C335 1.387 . S
H334 C341 0.950 . S
C335 C333 1.387 . S
C335 C337 1.390 . S
C335 H339 0.950 . S
H336 C332 0.950 . S
C337 C335 1.390 . S
C337 C338 1.387 1_455 S
C337 H340 0.950 . S
C338 C337 1.387 1_655 S
C338 C341 1.387 . S
H339 C335 0.950 . S
H340 C337 0.950 . S
C341 C332 1.390 1_655 S
C341 H334 0.950 . S
C341 C338 1.387 . S
C253 C66 1.573 . S
C258 C75 1.573 . S
C263 C159 1.575 . S
C268 C150 1.575 . S
C273 C243 1.573 . S
C278 C234 1.573 . S
C283 C240 1.579 1_554 S
C288 C56 1.708 . S
C293 C147 1.543 . S
C298 C67 1.725 . S
C303 C224 1.711 . S
C308 C156 1.580 . S
C313 C235 1.725 . S
C318 C63 1.543 1_556 S
C323 C72 1.582 . S
C328 C140 1.710 1_565 S
C333 C231 1.543 . S
C338 C151 1.725 . S
