# Generated by pormake.
# Topology wjh, (4)-cn, num edge types: 1
# Building blocks:
#     Node 0, Type 0, BuildingBlock: KUFVIS_clean_sbu_0, # of connection points: 4
#     Node 1, Type 0, BuildingBlock: KUFVIS_clean_sbu_0, # of connection points: 4
#     Node 2, Type 0, BuildingBlock: KUFVIS_clean_sbu_0, # of connection points: 4
#     Node 3, Type 0, BuildingBlock: KUFVIS_clean_sbu_0, # of connection points: 4
#     Node 4, Type 0, BuildingBlock: KUFVIS_clean_sbu_0, # of connection points: 4
#     Node 5, Type 0, BuildingBlock: KUFVIS_clean_sbu_0, # of connection points: 4
#     Node 6, Type 0, BuildingBlock: KUFVIS_clean_sbu_0, # of connection points: 4
#     Node 7, Type 0, BuildingBlock: KUFVIS_clean_sbu_0, # of connection points: 4
#     Node 8, Type 0, BuildingBlock: KUFVIS_clean_sbu_0, # of connection points: 4
#     Node 9, Type 0, BuildingBlock: KUFVIS_clean_sbu_0, # of connection points: 4
#     Node 10, Type 0, BuildingBlock: KUFVIS_clean_sbu_0, # of connection points: 4
#     Node 11, Type 0, BuildingBlock: KUFVIS_clean_sbu_0, # of connection points: 4
#     Edge 12, Type (0, 0), BuildingBlock: TEMPAE_clean_linker_10, # of connection points: 2
#     Edge 13, Type (0, 0), BuildingBlock: TEMPAE_clean_linker_10, # of connection points: 2
#     Edge 14, Type (0, 0), BuildingBlock: TEMPAE_clean_linker_10, # of connection points: 2
#     Edge 15, Type (0, 0), BuildingBlock: TEMPAE_clean_linker_10, # of connection points: 2
#     Edge 16, Type (0, 0), BuildingBlock: TEMPAE_clean_linker_10, # of connection points: 2
#     Edge 17, Type (0, 0), BuildingBlock: TEMPAE_clean_linker_10, # of connection points: 2
#     Edge 18, Type (0, 0), BuildingBlock: TEMPAE_clean_linker_10, # of connection points: 2
#     Edge 19, Type (0, 0), BuildingBlock: TEMPAE_clean_linker_10, # of connection points: 2
#     Edge 20, Type (0, 0), BuildingBlock: TEMPAE_clean_linker_10, # of connection points: 2
#     Edge 21, Type (0, 0), BuildingBlock: TEMPAE_clean_linker_10, # of connection points: 2
#     Edge 22, Type (0, 0), BuildingBlock: TEMPAE_clean_linker_10, # of connection points: 2
#     Edge 23, Type (0, 0), BuildingBlock: TEMPAE_clean_linker_10, # of connection points: 2
#     Edge 24, Type (0, 0), BuildingBlock: TEMPAE_clean_linker_10, # of connection points: 2
#     Edge 25, Type (0, 0), BuildingBlock: TEMPAE_clean_linker_10, # of connection points: 2
#     Edge 26, Type (0, 0), BuildingBlock: TEMPAE_clean_linker_10, # of connection points: 2
#     Edge 27, Type (0, 0), BuildingBlock: TEMPAE_clean_linker_10, # of connection points: 2
#     Edge 28, Type (0, 0), BuildingBlock: TEMPAE_clean_linker_10, # of connection points: 2
#     Edge 29, Type (0, 0), BuildingBlock: TEMPAE_clean_linker_10, # of connection points: 2
#     Edge 30, Type (0, 0), BuildingBlock: TEMPAE_clean_linker_10, # of connection points: 2
#     Edge 31, Type (0, 0), BuildingBlock: TEMPAE_clean_linker_10, # of connection points: 2
#     Edge 32, Type (0, 0), BuildingBlock: TEMPAE_clean_linker_10, # of connection points: 2
#     Edge 33, Type (0, 0), BuildingBlock: TEMPAE_clean_linker_10, # of connection points: 2
#     Edge 34, Type (0, 0), BuildingBlock: TEMPAE_clean_linker_10, # of connection points: 2
#     Edge 35, Type (0, 0), BuildingBlock: TEMPAE_clean_linker_10, # of connection points: 2
# Relax obj value: 0.090
# Max RMSD: 0.110
# Mean RMSD: 0.110
data_MOF--net-wjh--node1-KUFVIS_clean_sbu_0--edge1-TEMPAE_clean_linker_10
_symmetry_space_group_name_H-M    P1
_symmetry_Int_Tables_number       1
_symmetry_cell_setting            triclinic
loop_
_symmetry_equiv_pos_as_xyz
'x, y, z'
_cell_length_a     62.322164
_cell_length_b     62.331026
_cell_length_c     26.193239
_cell_angle_alpha  90.021216
_cell_angle_beta   89.975371
_cell_angle_gamma 119.99712
loop_
_atom_site_label
_atom_site_type_symbol
_atom_site_fract_x
_atom_site_fract_y
_atom_site_fract_z
_atom_type_partial_charge
Mn0 Mn 0.52277 0.15219 0.06132 0.0
Mn1 Mn 0.55604 0.12327 0.04593 0.0
C2 C 0.53239 0.13592 0.13115 0.0
C3 C 0.52193 0.18892 0.07525 0.0
C4 C 0.50091 0.09894 0.02339 0.0
O5 O 0.53674 0.16227 0.98891 0.0
O6 O 0.56153 0.14553 0.98767 0.0
C7 C 0.60633 0.16705 0.05464 0.0
N8 N 0.58919 0.14375 0.06958 0.0
C9 C 0.61855 0.14107 0.12488 0.0
C10 C 0.63666 0.16491 0.10953 0.0
C11 C 0.63045 0.17804 0.0746 0.0
C12 C 0.59476 0.13123 0.1042 0.0
H13 H 0.60159 0.17713 0.02784 0.0
C14 C 0.55331 0.15879 0.96816 0.0
O15 O 0.50321 0.16969 0.05469 0.0
O16 O 0.54134 0.18714 0.08517 0.0
N17 N 0.55305 0.1011 0.09955 0.0
C18 C 0.53304 0.07898 0.11287 0.0
C19 C 0.5359 0.06382 0.14861 0.0
C20 C 0.55936 0.07128 0.16943 0.0
C21 C 0.57967 0.09414 0.15527 0.0
C22 C 0.57567 0.10852 0.1197 0.0
H23 H 0.51508 0.07284 0.09611 0.0
O24 O 0.51462 0.141 0.13365 0.0
O25 O 0.54472 0.14141 0.08864 0.0
O26 O 0.49777 0.11681 0.03754 0.0
O27 O 0.52208 0.10034 0.022 0.0
C28 C 0.60375 0.10319 0.17485 0.0
C29 C 0.6231 0.12676 0.16015 0.0
H30 H 0.65531 0.1734 0.12465 0.0
H31 H 0.64424 0.19654 0.0629 0.0
H32 H 0.52014 0.04625 0.15956 0.0
H33 H 0.56156 0.05932 0.19631 0.0
H34 H 0.60758 0.09228 0.20158 0.0
H35 H 0.6414 0.13374 0.17635 0.0
Mn36 Mn 0.37522 0.52006 0.22428 0.0
Mn37 Mn 0.43733 0.55287 0.20684 0.0
C38 C 0.40158 0.53067 0.29349 0.0
C39 C 0.33776 0.51951 0.23774 0.0
C40 C 0.40627 0.49744 0.1882 0.0
O41 O 0.37863 0.53289 0.15106 0.0
O42 O 0.42019 0.55732 0.14794 0.0
C43 C 0.44411 0.60337 0.21111 0.0
N44 N 0.45017 0.58642 0.22796 0.0
C45 C 0.48229 0.61663 0.28194 0.0
C46 C 0.47656 0.6345 0.26481 0.0
C47 C 0.45725 0.62778 0.22953 0.0
C48 C 0.46831 0.59253 0.26274 0.0
H49 H 0.42937 0.59828 0.18386 0.0
C50 C 0.39855 0.54889 0.12907 0.0
O51 O 0.33815 0.50047 0.21861 0.0
O52 O 0.35901 0.53903 0.24669 0.0
N53 N 0.45688 0.55082 0.26086 0.0
C54 C 0.4592 0.53108 0.27548 0.0
C55 C 0.47739 0.53454 0.31133 0.0
C56 C 0.49333 0.55829 0.33093 0.0
C57 C 0.49058 0.57831 0.31541 0.0
C58 C 0.47206 0.57373 0.27974 0.0
H59 H 0.4474 0.51288 0.25969 0.0
O60 O 0.37872 0.51302 0.29708 0.0
O61 O 0.40818 0.54236 0.25022 0.0
O62 O 0.38536 0.49462 0.20228 0.0
O63 O 0.42609 0.51852 0.18555 0.0
C64 C 0.50555 0.60266 0.33371 0.0
C65 C 0.50122 0.62174 0.31744 0.0
H66 H 0.48676 0.65337 0.27873 0.0
H67 H 0.45262 0.64142 0.21634 0.0
H68 H 0.47936 0.519 0.3233 0.0
H69 H 0.50763 0.56093 0.35784 0.0
H70 H 0.52033 0.60691 0.36063 0.0
H71 H 0.51253 0.64026 0.33257 0.0
Mn72 Mn 0.85929 0.37337 0.39573 0.0
Mn73 Mn 0.88818 0.43559 0.38117 0.0
C74 C 0.87529 0.39903 0.46601 0.0
C75 C 0.82247 0.33577 0.40855 0.0
C76 C 0.91262 0.4049 0.35845 0.0
O77 O 0.84953 0.37752 0.32323 0.0
O78 O 0.86599 0.419 0.32274 0.0
C79 C 0.84442 0.44213 0.39005 0.0
N80 N 0.8677 0.44823 0.40502 0.0
C81 C 0.87042 0.48024 0.46048 0.0
C82 C 0.84659 0.47456 0.44512 0.0
C83 C 0.83345 0.45525 0.4101 0.0
C84 C 0.88023 0.46627 0.43973 0.0
H85 H 0.83434 0.42734 0.36313 0.0
C86 C 0.85291 0.39758 0.30283 0.0
O87 O 0.84183 0.33637 0.3884 0.0
O88 O 0.82422 0.35691 0.41885 0.0
N89 N 0.91031 0.45463 0.43497 0.0
C90 C 0.93243 0.45672 0.44821 0.0
C91 C 0.94763 0.47473 0.48393 0.0
C92 C 0.9402 0.49075 0.50481 0.0
C93 C 0.91734 0.48822 0.49077 0.0
C94 C 0.90293 0.46985 0.45521 0.0
H95 H 0.93855 0.44489 0.43136 0.0
O96 O 0.87015 0.37616 0.46824 0.0
O97 O 0.86996 0.40601 0.4235 0.0
O98 O 0.89477 0.38386 0.37254 0.0
O99 O 0.91114 0.42462 0.35701 0.0
C100 C 0.90832 0.50327 0.51042 0.0
C101 C 0.88475 0.49909 0.49578 0.0
H102 H 0.83813 0.48474 0.4603 0.0
H103 H 0.81496 0.4506 0.39839 0.0
H104 H 0.96521 0.47653 0.49477 0.0
H105 H 0.95221 0.50492 0.53164 0.0
H106 H 0.91925 0.518 0.53717 0.0
H107 H 0.8778 0.51042 0.51203 0.0
Mn108 Mn 0.48926 0.85702 0.56548 0.0
Mn109 Mn 0.45597 0.88611 0.55464 0.0
C110 C 0.48084 0.87332 0.63706 0.0
C111 C 0.49004 0.82014 0.57712 0.0
C112 C 0.51064 0.91019 0.52778 0.0
O113 O 0.47411 0.84708 0.49389 0.0
O114 O 0.44911 0.86354 0.49633 0.0
C115 C 0.40577 0.84258 0.56734 0.0
N116 N 0.42328 0.86596 0.58094 0.0
C117 C 0.39503 0.86944 0.6383 0.0
C118 C 0.37653 0.84554 0.62424 0.0
C119 C 0.38201 0.83195 0.589 0.0
C120 C 0.41845 0.87888 0.616 0.0
H121 H 0.40998 0.83214 0.54034 0.0
C122 C 0.45701 0.85032 0.47524 0.0
O123 O 0.50852 0.83939 0.556 0.0
O124 O 0.47089 0.82204 0.58909 0.0
N125 N 0.4602 0.90859 0.60861 0.0
C126 C 0.48057 0.93066 0.62067 0.0
C127 C 0.47848 0.94626 0.65653 0.0
C128 C 0.45539 0.93926 0.67878 0.0
C129 C 0.43472 0.9164 0.66608 0.0
C130 C 0.43796 0.90158 0.6303 0.0
H131 H 0.49823 0.93647 0.6027 0.0
O132 O 0.49855 0.86811 0.63766 0.0
O133 O 0.4679 0.86793 0.59541 0.0
O134 O 0.51399 0.89237 0.54127 0.0
O135 O 0.48947 0.90878 0.52795 0.0
C136 C 0.41099 0.90778 0.68722 0.0
C137 C 0.39124 0.88419 0.67384 0.0
H138 H 0.35814 0.83735 0.64067 0.0
H139 H 0.36792 0.81339 0.57836 0.0
H140 H 0.49453 0.96382 0.66641 0.0
H141 H 0.45378 0.95156 0.70572 0.0
H142 H 0.40774 0.91904 0.71409 0.0
H143 H 0.37324 0.87754 0.69125 0.0
Mn144 Mn 0.63679 0.48681 0.73695 0.0
Mn145 Mn 0.57441 0.45369 0.72625 0.0
C146 C 0.61213 0.47856 0.80858 0.0
C147 C 0.67441 0.48749 0.74853 0.0
C148 C 0.60514 0.50828 0.6989 0.0
O149 O 0.63147 0.47153 0.66544 0.0
O150 O 0.59001 0.44656 0.66811 0.0
C151 C 0.56745 0.40341 0.73954 0.0
N152 N 0.56172 0.42106 0.75294 0.0
C153 C 0.52996 0.39309 0.81051 0.0
C154 C 0.5352 0.37445 0.79669 0.0
C155 C 0.55421 0.37972 0.76144 0.0
C156 C 0.54403 0.41643 0.78799 0.0
H157 H 0.58204 0.40745 0.71251 0.0
C158 C 0.6111 0.45439 0.64695 0.0
O159 O 0.67368 0.50596 0.72732 0.0
O160 O 0.65335 0.4684 0.76067 0.0
N161 N 0.55628 0.4582 0.7801 0.0
C162 C 0.55473 0.47869 0.79188 0.0
C163 C 0.5371 0.47681 0.82768 0.0
C164 C 0.52094 0.45382 0.85018 0.0
C165 C 0.52299 0.43303 0.83776 0.0
C166 C 0.54098 0.43606 0.80203 0.0
H167 H 0.56663 0.49627 0.77372 0.0
O168 O 0.63506 0.49622 0.80911 0.0
O169 O 0.60453 0.46559 0.76696 0.0
O170 O 0.62628 0.5116 0.71258 0.0
O171 O 0.58535 0.48713 0.69912 0.0
C172 C 0.50778 0.40938 0.85912 0.0
C173 C 0.51147 0.38951 0.84601 0.0
H174 H 0.52492 0.35612 0.8133 0.0
H175 H 0.55856 0.36552 0.75098 0.0
H176 H 0.5357 0.49295 0.83731 0.0
H177 H 0.50707 0.45236 0.87709 0.0
H178 H 0.49328 0.40628 0.88591 0.0
H179 H 0.50004 0.37157 0.86358 0.0
Mn180 Mn 0.15463 0.63639 0.89193 0.0
Mn181 Mn 0.12577 0.57424 0.87578 0.0
C182 C 0.13861 0.61031 0.96156 0.0
C183 C 0.19129 0.674 0.90575 0.0
C184 C 0.10123 0.60497 0.85475 0.0
O185 O 0.16453 0.63273 0.81922 0.0
O186 O 0.14774 0.5912 0.81723 0.0
C187 C 0.16964 0.5678 0.88272 0.0
N188 N 0.14643 0.56161 0.89843 0.0
C189 C 0.14415 0.52958 0.95317 0.0
C190 C 0.16793 0.53539 0.93712 0.0
C191 C 0.18081 0.55474 0.90206 0.0
C192 C 0.13413 0.54347 0.93311 0.0
H193 H 0.17952 0.58261 0.85573 0.0
C194 C 0.16093 0.61275 0.79796 0.0
O195 O 0.17195 0.67343 0.8856 0.0
O196 O 0.18965 0.65285 0.91535 0.0
N197 N 0.10384 0.55486 0.92958 0.0
C198 C 0.0817 0.55259 0.94341 0.0
C199 C 0.06672 0.53446 0.97916 0.0
C200 C 0.0744 0.51853 -0.00053 0.0
C201 C 0.09726 0.52125 0.98478 0.0
C202 C 0.11144 0.53972 0.9492 0.0
H203 H 0.0754 0.56436 0.92704 0.0
O204 O 0.14364 0.63313 0.96443 0.0
O205 O 0.14401 0.6036 0.91876 0.0
O206 O 0.11916 0.62598 0.86878 0.0
O207 O 0.10265 0.58522 0.8529 0.0
C208 C 0.10652 0.50631 0.00384 0.0
C209 C 0.13006 0.51065 0.98852 0.0
H210 H 0.17654 0.52525 0.95175 0.0
H211 H 0.19925 0.55947 0.88976 0.0
H212 H 0.04914 0.53252 0.99048 0.0
H213 H 0.06257 0.50429 0.02632 0.0
H214 H 0.09579 0.49154 0.03065 0.0
H215 H 0.13719 0.49939 0.00429 0.0
Mn216 Mn 0.8693 0.48992 0.86562 0.0
Mn217 Mn 0.89962 0.4584 0.88732 0.0
C218 C 0.88438 0.47744 0.79835 0.0
C219 C 0.83225 0.49005 0.85124 0.0
C220 C 0.92349 0.51409 0.89972 0.0
O221 O 0.86014 0.47837 0.93955 0.0
O222 O 0.87908 0.45567 0.94705 0.0
C223 C 0.85641 0.40756 0.89068 0.0
N224 N 0.87878 0.42425 0.8705 0.0
C225 C 0.87915 0.39306 0.81702 0.0
C226 C 0.85616 0.3755 0.83738 0.0
C227 C 0.84469 0.38282 0.87419 0.0
C228 C 0.88981 0.41748 0.83457 0.0
H229 H 0.84761 0.4131 0.91918 0.0
C230 C 0.86531 0.46384 0.9641 0.0
O231 O 0.8518 0.50952 0.8687 0.0
O232 O 0.83397 0.47037 0.8443 0.0
N233 N 0.92021 0.45915 0.83234 0.0
C234 C 0.9419 0.47855 0.81507 0.0
C235 C 0.95555 0.47443 0.77762 0.0
C236 C 0.94701 0.45038 0.75895 0.0
C237 C 0.9247 0.43069 0.77743 0.0
C238 C 0.91188 0.43592 0.81472 0.0
H239 H 0.94879 0.49703 0.82982 0.0
O240 O 0.87935 0.49512 0.79234 0.0
O241 O 0.87988 0.46714 0.84304 0.0
O242 O 0.90493 0.51612 0.88579 0.0
O243 O 0.92279 0.49334 0.90407 0.0
C244 C 0.91473 0.40607 0.76047 0.0
C245 C 0.89185 0.38731 0.77984 0.0
H246 H 0.84711 0.35638 0.82488 0.0
H247 H 0.82691 0.3694 0.88997 0.0
H248 H 0.97274 0.48973 0.76352 0.0
H249 H 0.95775 0.44725 0.73047 0.0
H250 H 0.92446 0.40135 0.73244 0.0
H251 H 0.88418 0.36853 0.76585 0.0
Mn252 Mn 0.38314 0.86645 0.03573 0.0
Mn253 Mn 0.44479 0.89589 0.06011 0.0
C254 C 0.41138 0.881 0.9698 0.0
C255 C 0.34571 0.82986 0.01983 0.0
C256 C 0.41401 0.92104 0.0679 0.0
O257 O 0.38436 0.85712 0.11001 0.0
O258 O 0.42587 0.87683 0.12037 0.0
C259 C 0.45011 0.85144 0.06995 0.0
N260 N 0.45695 0.87367 0.04755 0.0
C261 C 0.48807 0.87142 -0.00272 0.0
C262 C 0.48145 0.84856 0.01997 0.0
C263 C 0.4623 0.83848 0.0563 0.0
C264 C 0.47512 0.88338 0.01208 0.0
H265 H 0.43548 0.84368 0.09804 0.0
C266 C 0.40375 0.86303 0.13639 0.0
O267 O 0.34602 0.84961 0.03677 0.0
O268 O 0.36697 0.8311 0.01446 0.0
N269 N 0.46582 0.91509 0.00505 0.0
C270 C 0.46951 0.93699 0.98574 0.0
C271 C 0.48782 0.94936 0.94846 0.0
C272 C 0.50248 0.93936 0.93217 0.0
C273 C 0.49856 0.91697 0.95302 0.0
C274 C 0.48001 0.90545 0.98999 0.0
H275 H 0.45855 0.94496 -0.00137 0.0
O276 O 0.38889 0.87646 0.96263 0.0
O277 O 0.41661 0.8763 0.01489 0.0
O278 O 0.39315 0.90237 0.0554 0.0
O279 O 0.43397 0.92017 0.07231 0.0
C280 C 0.51234 0.90563 0.93867 0.0
C281 C 0.50696 0.88277 0.96042 0.0
H282 H 0.49087 0.83855 0.00966 0.0
H283 H 0.45702 0.82081 0.07388 0.0
H284 H 0.49077 0.96666 0.9326 0.0
H285 H 0.51675 0.94909 0.90378 0.0
H286 H 0.52708 0.91426 0.91079 0.0
H287 H 0.51744 0.87406 0.94849 0.0
Mn288 Mn 0.52141 0.38061 0.20706 0.0
Mn289 Mn 0.55345 0.44223 0.23166 0.0
C290 C 0.53505 0.40889 0.14125 0.0
C291 C 0.52062 0.34323 0.19087 0.0
C292 C 0.49753 0.41136 0.23916 0.0
O293 O 0.53199 0.38179 0.28132 0.0
O294 O 0.55348 0.42328 0.29196 0.0
C295 C 0.60321 0.44757 0.24201 0.0
N296 N 0.58787 0.45442 0.21944 0.0
C297 C 0.62133 0.48555 0.1694 0.0
C298 C 0.63753 0.47892 0.19227 0.0
C299 C 0.6284 0.45977 0.22857 0.0
C300 C 0.59639 0.47259 0.184 0.0
H301 H 0.5963 0.43294 0.27008 0.0
C302 C 0.54529 0.40117 0.30787 0.0
O303 O 0.50118 0.34349 0.20797 0.0
O304 O 0.54063 0.3645 0.18556 0.0
N305 N 0.5554 0.46331 0.17662 0.0
C306 C 0.53722 0.46703 0.15718 0.0
C307 C 0.54323 0.48536 0.11992 0.0
C308 C 0.56791 0.5 0.10381 0.0
C309 C 0.58635 0.49606 0.12481 0.0
C310 C 0.57925 0.47749 0.16174 0.0
H311 H 0.51827 0.45607 0.16994 0.0
O312 O 0.51713 0.38641 0.13402 0.0
O313 O 0.54499 0.41411 0.18635 0.0
O314 O 0.49544 0.39052 0.22688 0.0
O315 O 0.51832 0.43137 0.24348 0.0
C316 C 0.6115 0.50984 0.11065 0.0
C317 C 0.62893 0.50445 0.13257 0.0
H318 H 0.65698 0.48835 0.18212 0.0
H319 H 0.64076 0.4545 0.24629 0.0
H320 H 0.52891 0.48832 0.10395 0.0
H321 H 0.5725 0.51428 0.07543 0.0
H322 H 0.61765 0.52458 0.08278 0.0
H323 H 0.64815 0.51493 0.12079 0.0
Mn324 Mn 0.14489 0.51969 0.36155 0.0
Mn325 Mn 0.11497 0.55167 0.38245 0.0
C326 C 0.12968 0.53183 0.29392 0.0
C327 C 0.18177 0.51924 0.34688 0.0
C328 C 0.09094 0.49606 0.39689 0.0
O329 O 0.15434 0.53173 0.43519 0.0
O330 O 0.13595 0.555 0.4418 0.0
C331 C 0.15821 0.60253 0.38343 0.0
N332 N 0.1357 0.58564 0.36414 0.0
C333 C 0.13486 0.61633 0.30985 0.0
C334 C 0.15798 0.63409 0.32928 0.0
C335 C 0.16976 0.62712 0.36604 0.0
C336 C 0.12437 0.59206 0.32826 0.0
H337 H 0.16724 0.59727 0.4119 0.0
C338 C 0.1496 0.54675 0.45912 0.0
O339 O 0.16226 0.49996 0.36506 0.0
O340 O 0.18014 0.53894 0.33951 0.0
N341 N 0.09403 0.55036 0.32771 0.0
C342 C 0.07229 0.53077 0.31122 0.0
C343 C 0.05837 0.53451 0.27383 0.0
C344 C 0.06671 0.55839 0.25441 0.0
C345 C 0.08909 0.57828 0.27205 0.0
C346 C 0.10219 0.57342 0.30929 0.0
H347 H 0.06555 0.51242 0.32655 0.0
O348 O 0.13456 0.51402 0.28842 0.0
O349 O 0.13439 0.54243 0.33833 0.0
O350 O 0.10931 0.49376 0.38257 0.0
O351 O 0.09186 0.51692 0.40083 0.0
C352 C 0.09888 0.60275 0.25428 0.0
C353 C 0.12186 0.62171 0.27275 0.0
H354 H 0.16691 0.65309 0.31609 0.0
H355 H 0.18765 0.6407 0.38111 0.0
H356 H 0.04113 0.51906 0.26036 0.0
H357 H 0.05577 0.56124 0.22597 0.0
H358 H 0.08892 0.60719 0.22629 0.0
H359 H 0.12939 0.64036 0.25812 0.0
Mn360 Mn 0.62942 0.14268 0.53092 0.0
Mn361 Mn 0.56756 0.1131 0.55256 0.0
C362 C 0.60189 0.12767 0.46367 0.0
C363 C 0.66687 0.17939 0.51603 0.0
C364 C 0.59873 0.08854 0.56517 0.0
O365 O 0.62721 0.15217 0.60469 0.0
O366 O 0.5856 0.13341 0.61237 0.0
C367 C 0.56092 0.15692 0.55635 0.0
N368 N 0.55481 0.13446 0.53605 0.0
C369 C 0.52343 0.13473 0.48309 0.0
C370 C 0.5293 0.15782 0.50359 0.0
C371 C 0.54822 0.16901 0.54019 0.0
C372 C 0.53689 0.12368 0.5003 0.0
H373 H 0.57535 0.16551 0.5847 0.0
C374 C 0.60755 0.14708 0.62935 0.0
O375 O 0.66652 0.15977 0.53392 0.0
O376 O 0.6456 0.17795 0.50905 0.0
N377 N 0.54745 0.09277 0.4976 0.0
C378 C 0.54473 0.07094 0.48016 0.0
C379 C 0.5268 0.05754 0.4428 0.0
C380 C 0.51157 0.06648 0.42447 0.0
C381 C 0.51462 0.08892 0.44316 0.0
C382 C 0.53282 0.10149 0.4803 0.0
H383 H 0.55609 0.06374 0.49468 0.0
O384 O 0.62452 0.13239 0.45785 0.0
O385 O 0.59615 0.13247 0.50818 0.0
O386 O 0.61951 0.10697 0.55164 0.0
O387 O 0.57879 0.08948 0.569 0.0
C388 C 0.50026 0.09929 0.42657 0.0
C389 C 0.50482 0.12229 0.44612 0.0
H390 H 0.51947 0.16716 0.49136 0.0
H391 H 0.55291 0.18687 0.55608 0.0
H392 H 0.52457 0.04024 0.42855 0.0
H393 H 0.49757 0.05594 0.39609 0.0
H394 H 0.4857 0.08977 0.39866 0.0
H395 H 0.49394 0.13025 0.43241 0.0
Mn396 Mn 0.49199 0.62746 0.69387 0.0
Mn397 Mn 0.45993 0.56554 0.71366 0.0
C398 C 0.48023 0.60041 0.62571 0.0
C399 C 0.49226 0.66473 0.67986 0.0
C400 C 0.51543 0.59723 0.73012 0.0
O401 O 0.47964 0.62448 0.7674 0.0
O402 O 0.45562 0.58285 0.77253 0.0
C403 C 0.40887 0.55736 0.71167 0.0
N404 N 0.42616 0.55206 0.69347 0.0
C405 C 0.39634 0.52048 0.63794 0.0
C406 C 0.37816 0.52551 0.65626 0.0
C407 C 0.38449 0.54413 0.69308 0.0
C408 C 0.42036 0.53444 0.65752 0.0
H409 H 0.41364 0.57155 0.74019 0.0
C410 C 0.46402 0.60468 0.79039 0.0
O411 O 0.51155 0.66454 0.69813 0.0
O412 O 0.47267 0.64339 0.67197 0.0
N413 N 0.46219 0.5463 0.65917 0.0
C414 C 0.48216 0.54458 0.64365 0.0
C415 C 0.47909 0.52716 0.60619 0.0
C416 C 0.45548 0.51142 0.58572 0.0
C417 C 0.4352 0.5135 0.60234 0.0
C418 C 0.4394 0.53125 0.63965 0.0
H419 H 0.50029 0.55632 0.65979 0.0
O420 O 0.49799 0.62316 0.62068 0.0
O421 O 0.46946 0.59433 0.66991 0.0
O422 O 0.51788 0.61782 0.71501 0.0
O423 O 0.4945 0.57735 0.7341 0.0
C424 C 0.41097 0.49862 0.58346 0.0
C425 C 0.39161 0.50227 0.60084 0.0
H426 H 0.35932 0.51529 0.64214 0.0
H427 H 0.37059 0.54819 0.70728 0.0
H428 H 0.49484 0.5257 0.5935 0.0
H429 H 0.45316 0.49784 0.55719 0.0
H430 H 0.40704 0.48434 0.55545 0.0
H431 H 0.37315 0.491 0.58533 0.0
C432 C 0.5227 0.11026 0.20921 0.0
C433 C 0.54029 0.12863 0.17738 0.0
C434 C 0.52961 0.10519 0.25661 0.0
C435 C 0.55461 0.11916 0.27252 0.0
C436 C 0.57257 0.13712 0.23935 0.0
C437 C 0.56505 0.14201 0.19259 0.0
C438 C 0.50977 0.08599 0.29043 0.0
C439 C 0.59957 0.15191 0.25416 0.0
C440 C 0.57613 0.13766 0.40795 0.0
C441 C 0.58603 0.12242 0.41893 0.0
C442 C 0.56363 0.13509 0.362 0.0
C443 C 0.56191 0.11749 0.32562 0.0
C444 C 0.57069 0.10113 0.33803 0.0
C445 C 0.58308 0.10409 0.38437 0.0
C446 C 0.55344 0.1521 0.35128 0.0
C447 C 0.56857 0.08155 0.30149 0.0
H448 H 0.50343 0.10023 0.19745 0.0
H449 H 0.57842 0.15683 0.16853 0.0
H450 H 0.51708 0.07665 0.31502 0.0
H451 H 0.50249 0.09529 0.31521 0.0
H452 H 0.49408 0.07174 0.26759 0.0
H453 H 0.61141 0.16352 0.22221 0.0
H454 H 0.60185 0.16426 0.28673 0.0
H455 H 0.60627 0.13928 0.26666 0.0
H456 H 0.57894 0.15218 0.43454 0.0
H457 H 0.59092 0.09242 0.39314 0.0
H458 H 0.53413 0.14126 0.337 0.0
H459 H 0.56467 0.16558 0.32115 0.0
H460 H 0.55363 0.16257 0.38577 0.0
H461 H 0.55152 0.07411 0.27806 0.0
H462 H 0.56858 0.06595 0.32199 0.0
H463 H 0.58481 0.08994 0.27576 0.0
C464 C 0.41826 0.52153 0.37102 0.0
C465 C 0.41719 0.53892 0.33911 0.0
C466 C 0.43057 0.52867 0.41803 0.0
C467 C 0.44165 0.55374 0.43357 0.0
C468 C 0.44142 0.57152 0.40019 0.0
C469 C 0.42869 0.56376 0.35376 0.0
C470 C 0.43018 0.50885 0.45148 0.0
C471 C 0.45368 0.59858 0.41448 0.0
C472 C 0.44464 0.57511 0.56926 0.0
C473 C 0.46975 0.58488 0.58044 0.0
C474 C 0.43478 0.56286 0.52305 0.0
C475 C 0.45069 0.56125 0.4866 0.0
C476 C 0.4758 0.56994 0.49911 0.0
C477 C 0.48518 0.58208 0.54573 0.0
C478 C 0.40758 0.55265 0.51228 0.0
C479 C 0.49316 0.56773 0.46241 0.0
H480 H 0.40901 0.5022 0.35966 0.0
H481 H 0.4271 0.577 0.32955 0.0
H482 H 0.41167 0.49838 0.46957 0.0
H483 H 0.43292 0.49552 0.42815 0.0
H484 H 0.44453 0.51647 0.48163 0.0
H485 H 0.45392 0.61028 0.38225 0.0
H486 H 0.44363 0.60102 0.44689 0.0
H487 H 0.47302 0.60532 0.42704 0.0
H488 H 0.43289 0.57779 0.59598 0.0
H489 H 0.50466 0.58981 0.55467 0.0
H490 H 0.39913 0.53329 0.49826 0.0
H491 H 0.40532 0.56377 0.48193 0.0
H492 H 0.39729 0.55294 0.54667 0.0
H493 H 0.48373 0.54979 0.44181 0.0
H494 H 0.50974 0.56947 0.48211 0.0
H495 H 0.49946 0.58286 0.4341 0.0
C496 C 0.90781 0.4818 0.71899 0.0
C497 C 0.88948 0.46662 0.75373 0.0
C498 C 0.91068 0.47214 0.67287 0.0
C499 C 0.89414 0.44699 0.66073 0.0
C500 C 0.87658 0.43131 0.69734 0.0
C501 C 0.87416 0.44145 0.74317 0.0
C502 C 0.9304 0.48932 0.63628 0.0
C503 C 0.85948 0.40409 0.68702 0.0
C504 C 0.86937 0.42562 0.52777 0.0
C505 C 0.88263 0.41414 0.51238 0.0
C506 C 0.87437 0.43802 0.5746 0.0
C507 C 0.89229 0.43788 0.60767 0.0
C508 C 0.90608 0.42666 0.59162 0.0
C509 C 0.90092 0.41473 0.54414 0.0
C510 C 0.85972 0.45036 0.58958 0.0
C511 C 0.92519 0.42576 0.62522 0.0
H512 H 0.9196 0.50133 0.72751 0.0
H513 H 0.8597 0.42987 0.76999 0.0
H514 H 0.93779 0.47948 0.61342 0.0
H515 H 0.92215 0.49711 0.61005 0.0
H516 H 0.94601 0.50498 0.65664 0.0
H517 H 0.84908 0.39395 0.72168 0.0
H518 H 0.84594 0.40179 0.65698 0.0
H519 H 0.87025 0.39553 0.67278 0.0
H520 H 0.85459 0.4243 0.50378 0.0
H521 H 0.91085 0.4054 0.53228 0.0
H522 H 0.87246 0.4697 0.602 0.0
H523 H 0.84741 0.44037 0.62225 0.0
H524 H 0.84809 0.45064 0.55775 0.0
H525 H 0.93368 0.44152 0.65221 0.0
H526 H 0.94011 0.42575 0.60199 0.0
H527 H 0.91607 0.40826 0.64732 0.0
C528 C 0.49143 0.89831 0.71642 0.0
C529 C 0.47349 0.88034 0.68442 0.0
C530 C 0.48491 0.90313 0.76456 0.0
C531 C 0.45994 0.88944 0.78079 0.0
C532 C 0.44168 0.8718 0.74764 0.0
C533 C 0.44883 0.86706 0.70029 0.0
C534 C 0.50489 0.92193 0.79875 0.0
C535 C 0.41472 0.85728 0.76291 0.0
C536 C 0.43747 0.87081 0.91551 0.0
C537 C 0.42776 0.88626 0.92598 0.0
C538 C 0.45041 0.87344 0.87013 0.0
C539 C 0.45283 0.89137 0.83389 0.0
C540 C 0.44439 0.90805 0.8461 0.0
C541 C 0.43147 0.90494 0.89172 0.0
C542 C 0.46018 0.85605 0.85971 0.0
C543 C 0.44739 0.92821 0.81028 0.0
H544 H 0.51062 0.90822 0.70414 0.0
H545 H 0.4352 0.85248 0.67616 0.0
H546 H 0.49877 0.934 0.81709 0.0
H547 H 0.5087 0.91205 0.82935 0.0
H548 H 0.5224 0.93374 0.77766 0.0
H549 H 0.40268 0.8457 0.73118 0.0
H550 H 0.41239 0.84493 0.79548 0.0
H551 H 0.40829 0.87013 0.77559 0.0
H552 H 0.43414 0.85609 0.94198 0.0
H553 H 0.42385 0.91685 0.90019 0.0
H554 H 0.47945 0.86652 0.84508 0.0
H555 H 0.44867 0.84247 0.82996 0.0
H556 H 0.45991 0.84569 0.89443 0.0
H557 H 0.46281 0.93355 0.78298 0.0
H558 H 0.45075 0.94494 0.83196 0.0
H559 H 0.42991 0.92157 0.7888 0.0
C560 C 0.53119 0.42904 0.06328 0.0
C561 C 0.54617 0.4253 0.09748 0.0
C562 C 0.54102 0.44202 0.01773 0.0
C563 C 0.56614 0.45047 0.00549 0.0
C564 C 0.58165 0.44802 0.0417 0.0
C565 C 0.57134 0.43503 0.08702 0.0
C566 C 0.52385 0.4451 0.98209 0.0
C567 C 0.60881 0.45781 0.03128 0.0
C568 C 0.58642 0.44654 0.87181 0.0
C569 C 0.59779 0.47121 0.856 0.0
C570 C 0.57457 0.43937 0.91917 0.0
C571 C 0.57518 0.45761 0.9524 0.0
C572 C 0.58644 0.48258 0.93623 0.0
C573 C 0.59777 0.48913 0.88808 0.0
C574 C 0.56214 0.41241 0.93437 0.0
C575 C 0.58756 0.50251 0.9705 0.0
H576 H 0.51167 0.42142 0.07175 0.0
H577 H 0.58274 0.4317 0.11346 0.0
H578 H 0.53391 0.4601 0.95396 0.0
H579 H 0.51242 0.42742 0.96162 0.0
H580 H 0.51099 0.44914 0.00395 0.0
H581 H 0.61891 0.45754 0.066 0.0
H582 H 0.6109 0.44631 0.00151 0.0
H583 H 0.6176 0.47708 0.01667 0.0
H584 H 0.58738 0.43293 0.84762 0.0
H585 H 0.60702 0.50831 0.87583 0.0
H586 H 0.54286 0.40597 0.94705 0.0
H587 H 0.57216 0.41007 0.96691 0.0
H588 H 0.56167 0.40038 0.90259 0.0
H589 H 0.56922 0.49649 0.98806 0.0
H590 H 0.59364 0.52016 0.94969 0.0
H591 H 0.60089 0.50601 0.00169 0.0
C592 C 0.10637 0.52716 0.2142 0.0
C593 C 0.12462 0.54248 0.24896 0.0
C594 C 0.10358 0.53667 0.1678 0.0
C595 C 0.12004 0.56181 0.15551 0.0
C596 C 0.13755 0.57761 0.19206 0.0
C597 C 0.13995 0.56762 0.23808 0.0
C598 C 0.08401 0.51938 0.13108 0.0
C599 C 0.15457 0.60482 0.18154 0.0
C600 C 0.14467 0.58355 0.0226 0.0
C601 C 0.1313 0.59496 0.00758 0.0
C602 C 0.13973 0.571 0.06923 0.0
C603 C 0.12173 0.57089 0.10248 0.0
C604 C 0.10777 0.58197 0.08671 0.0
C605 C 0.11289 0.59407 0.03945 0.0
C606 C 0.15453 0.55878 0.08385 0.0
C607 C 0.08849 0.58258 0.12033 0.0
H608 H 0.09462 0.50765 0.22292 0.0
H609 H 0.15439 0.57928 0.26485 0.0
H610 H 0.07603 0.52898 0.10931 0.0
H611 H 0.09265 0.51239 0.10381 0.0
H612 H 0.06878 0.5032 0.15106 0.0
H613 H 0.16506 0.61504 0.21606 0.0
H614 H 0.16804 0.60713 0.15131 0.0
H615 H 0.14372 0.61331 0.16745 0.0
H616 H 0.15951 0.58506 -0.00151 0.0
H617 H 0.10284 0.60332 0.02786 0.0
H618 H 0.14189 0.53942 0.0963 0.0
H619 H 0.16689 0.56881 0.1164 0.0
H620 H 0.16611 0.55857 0.05181 0.0
H621 H 0.08073 0.56732 0.14853 0.0
H622 H 0.07308 0.58149 0.09706 0.0
H623 H 0.09719 0.6005 0.14096 0.0
C624 C 0.53672 0.32111 0.13768 0.0
C625 C 0.5198 0.32006 0.17435 0.0
C626 C 0.53595 0.29949 0.11981 0.0
C627 C 0.51828 0.2762 0.14012 0.0
C628 C 0.50122 0.27501 0.17746 0.0
C629 C 0.50195 0.29694 0.19357 0.0
C630 C 0.5541 0.30161 0.07913 0.0
C631 C 0.48254 0.25064 0.20109 0.0
C632 C 0.50451 0.21752 0.0673 0.0
C633 C 0.52078 0.2112 0.09089 0.0
C634 C 0.50348 0.23865 0.08277 0.0
C635 C 0.51852 0.25332 0.12382 0.0
C636 C 0.53455 0.24662 0.14839 0.0
C637 C 0.53574 0.22591 0.13116 0.0
C638 C 0.48666 0.24553 0.05465 0.0
C639 C 0.55045 0.26131 0.19306 0.0
H640 H 0.55036 0.3389 0.12212 0.0
H641 H 0.48884 0.29603 0.22191 0.0
H642 H 0.56663 0.29536 0.09457 0.0
H643 H 0.54402 0.28939 0.04639 0.0
H644 H 0.56557 0.32088 0.06491 0.0
H645 H 0.4705 0.25282 0.22944 0.0
H646 H 0.47065 0.23757 0.17102 0.0
H647 H 0.4923 0.2421 0.22036 0.0
H648 H 0.49292 0.2062 0.03616 0.0
H649 H 0.54812 0.22093 0.15005 0.0
H650 H 0.49775 0.26433 0.03799 0.0
H651 H 0.47323 0.24615 0.08155 0.0
H652 H 0.47621 0.23227 0.02351 0.0
H653 H 0.56398 0.28041 0.18067 0.0
H654 H 0.5608 0.25281 0.2099 0.0
H655 H 0.53874 0.2628 0.22321 0.0
C656 C 0.29172 0.5019 0.22987 0.0
C657 C 0.31438 0.51868 0.25257 0.0
C658 C 0.26959 0.50113 0.24454 0.0
C659 C 0.27005 0.517 0.2839 0.0
C660 C 0.29285 0.53361 0.30756 0.0
C661 C 0.31473 0.53449 0.29112 0.0
C662 C 0.24579 0.48364 0.21739 0.0
C663 C 0.29416 0.55043 0.35046 0.0
C664 C 0.21998 0.53478 0.29384 0.0
C665 C 0.20431 0.5185 0.33155 0.0
C666 C 0.24097 0.53397 0.27701 0.0
C667 C 0.24691 0.51692 0.29944 0.0
C668 C 0.23126 0.50055 0.3379 0.0
C669 C 0.20993 0.50128 0.35295 0.0
C670 C 0.25675 0.55134 0.23509 0.0
C671 C 0.23729 0.48257 0.36376 0.0
H672 H 0.29137 0.48967 0.20004 0.0
H673 H 0.33214 0.54729 0.30931 0.0
H674 H 0.23192 0.4707 0.24518 0.0
H675 H 0.23788 0.49429 0.19942 0.0
H676 H 0.24855 0.47265 0.18739 0.0
H677 H 0.3131 0.56127 0.36674 0.0
H678 H 0.28837 0.56355 0.33643 0.0
H679 H 0.28118 0.53934 0.38145 0.0
H680 H 0.21556 0.54792 0.27664 0.0
H681 H 0.19787 0.48867 0.38211 0.0
H682 H 0.25882 0.54067 0.20344 0.0
H683 H 0.27558 0.56425 0.24985 0.0
H684 H 0.24878 0.56243 0.21951 0.0
H685 H 0.23839 0.47006 0.33508 0.0
H686 H 0.2233 0.47112 0.39301 0.0
H687 H 0.2557 0.49287 0.38244 0.0
C688 C 0.71306 0.2072 0.52149 0.0
C689 C 0.6902 0.20186 0.50066 0.0
C690 C 0.73515 0.22853 0.50654 0.0
C691 C 0.73441 0.24446 0.46879 0.0
C692 C 0.71139 0.23877 0.44689 0.0
C693 C 0.68958 0.21778 0.46359 0.0
C694 C 0.75921 0.23427 0.53182 0.0
C695 C 0.70977 0.25488 0.40575 0.0
C696 C 0.78466 0.31229 0.46222 0.0
C697 C 0.8 0.31225 0.42304 0.0
C698 C 0.76372 0.2903 0.4783 0.0
C699 C 0.75746 0.26768 0.45368 0.0
C700 C 0.77276 0.26753 0.41373 0.0
C701 C 0.79408 0.28978 0.39939 0.0
C702 C 0.74832 0.29128 0.52182 0.0
C703 C 0.76638 0.24394 0.3856 0.0
H704 H 0.71363 0.19496 0.55015 0.0
H705 H 0.672 0.21357 0.44682 0.0
H706 H 0.77275 0.23563 0.50269 0.0
H707 H 0.76737 0.25249 0.5513 0.0
H708 H 0.75669 0.21999 0.5603 0.0
H709 H 0.6907 0.24704 0.39033 0.0
H710 H 0.71573 0.27359 0.42123 0.0
H711 H 0.72247 0.25717 0.37384 0.0
H712 H 0.78931 0.32956 0.48115 0.0
H713 H 0.80587 0.28966 0.36908 0.0
H714 H 0.74646 0.27803 0.55216 0.0
H715 H 0.72938 0.28564 0.50815 0.0
H716 H 0.75648 0.31007 0.53884 0.0
H717 H 0.76544 0.22984 0.41271 0.0
H718 H 0.78011 0.24691 0.35536 0.0
H719 H 0.74782 0.23622 0.36774 0.0
C720 C 0.47598 0.78212 0.62995 0.0
C721 C 0.49118 0.79764 0.59079 0.0
C722 C 0.47718 0.76118 0.64533 0.0
C723 C 0.49354 0.75512 0.62007 0.0
C724 C 0.50881 0.77059 0.58012 0.0
C725 C 0.5077 0.79187 0.56643 0.0
C726 C 0.46097 0.74557 0.68882 0.0
C727 C 0.52604 0.76444 0.55136 0.0
C728 C 0.51026 0.71084 0.68628 0.0
C729 C 0.49284 0.688 0.66518 0.0
C730 C 0.51079 0.73289 0.67193 0.0
C731 C 0.49395 0.73213 0.63456 0.0
C732 C 0.4767 0.70914 0.61241 0.0
C733 C 0.47615 0.68737 0.62847 0.0
C734 C 0.52903 0.75691 0.69741 0.0
C735 C 0.45879 0.70751 0.57169 0.0
H736 H 0.46338 0.78663 0.64942 0.0
H737 H 0.51948 0.8038 0.53614 0.0
H738 H 0.44777 0.72664 0.67498 0.0
H739 H 0.47251 0.74375 0.71888 0.0
H740 H 0.45023 0.75353 0.70626 0.0
H741 H 0.53661 0.77826 0.52117 0.0
H742 H 0.53936 0.76354 0.5781 0.0
H743 H 0.51525 0.74591 0.53335 0.0
H744 H 0.52319 0.71143 0.71466 0.0
H745 H 0.46284 0.66981 0.61149 0.0
H746 H 0.51891 0.76489 0.71735 0.0
H747 H 0.54108 0.77058 0.66834 0.0
H748 H 0.54095 0.75441 0.72554 0.0
H749 H 0.446 0.71333 0.58764 0.0
H750 H 0.44759 0.68847 0.5561 0.0
H751 H 0.46904 0.72031 0.53983 0.0
C752 C 0.72027 0.50489 0.73732 0.0
C753 C 0.69805 0.48858 0.76211 0.0
C754 C 0.74267 0.50598 0.75093 0.0
C755 C 0.74294 0.49092 0.79124 0.0
C756 C 0.72058 0.47477 0.81691 0.0
C757 C 0.69841 0.47356 0.8016 0.0
C758 C 0.76598 0.52296 0.72172 0.0
C759 C 0.72006 0.4588 0.86081 0.0
C760 C 0.79331 0.47353 0.80028 0.0
C761 C 0.80949 0.49049 0.83649 0.0
C762 C 0.77204 0.47398 0.78418 0.0
C763 C 0.76636 0.49138 0.8058 0.0
C764 C 0.78256 0.50847 0.84269 0.0
C765 C 0.80413 0.50805 0.85706 0.0
C766 C 0.75564 0.4558 0.74395 0.0
C767 C 0.77686 0.52689 0.86764 0.0
H768 H 0.72008 0.51652 0.70677 0.0
H769 H 0.68135 0.46113 0.82139 0.0
H770 H 0.78027 0.53647 0.7481 0.0
H771 H 0.77365 0.51202 0.70411 0.0
H772 H 0.76266 0.53332 0.69117 0.0
H773 H 0.7014 0.44819 0.87846 0.0
H774 H 0.72574 0.4455 0.84733 0.0
H775 H 0.73349 0.4705 0.89061 0.0
H776 H 0.79751 0.46011 0.78372 0.0
H777 H 0.81657 0.52119 0.88507 0.0
H778 H 0.75301 0.46584 0.71177 0.0
H779 H 0.73707 0.44314 0.76021 0.0
H780 H 0.76342 0.44448 0.72872 0.0
H781 H 0.77519 0.53877 0.83824 0.0
H782 H 0.79133 0.53896 0.89553 0.0
H783 H 0.75879 0.51691 0.88775 0.0
C784 C 0.22022 0.71987 0.89659 0.0
C785 C 0.21351 0.69746 0.92136 0.0
C786 C 0.24138 0.74205 0.91186 0.0
C787 C 0.25563 0.7419 0.95396 0.0
C788 C 0.24848 0.71936 0.97978 0.0
C789 C 0.2278 0.69741 0.96268 0.0
C790 C 0.24876 0.76554 0.88239 0.0
C791 C 0.26269 0.71841 0.02562 0.0
C792 C 0.32355 0.79106 0.96838 0.0
C793 C 0.3225 0.80745 0.00366 0.0
C794 C 0.30191 0.77014 0.95082 0.0
C795 C 0.27857 0.76501 0.97 0.0
C796 C 0.27737 0.78141 0.00594 0.0
C797 C 0.29934 0.80264 0.02181 0.0
C798 C 0.30405 0.7535 0.91167 0.0
C799 C 0.25294 0.77629 0.02833 0.0
H800 H 0.20923 0.71997 0.86463 0.0
H801 H 0.22248 0.68018 0.98246 0.0
H802 H 0.24944 0.77996 0.90822 0.0
H803 H 0.26764 0.77283 0.86636 0.0
H804 H 0.23577 0.76258 0.85061 0.0
H805 H 0.25381 0.69973 0.04339 0.0
H806 H 0.28181 0.72357 0.0142 0.0
H807 H 0.26415 0.732 0.05476 0.0
H808 H 0.34136 0.79482 0.95365 0.0
H809 H 0.29842 0.81525 0.04907 0.0
H810 H 0.29213 0.75117 0.87824 0.0
H811 H 0.29743 0.73485 0.92821 0.0
H812 H 0.32339 0.76091 0.89821 0.0
H813 H 0.24017 0.77499 -0.00253 0.0
H814 H 0.25512 0.79087 0.0557 0.0
H815 H 0.24404 0.75819 0.04842 0.0
C816 C 0.6048 0.14251 0.72279 0.0
C817 C 0.60919 0.15759 0.68014 0.0
C818 C 0.59814 0.14836 0.76968 0.0
C819 C 0.59556 0.16967 0.77357 0.0
C820 C 0.60163 0.18583 0.7313 0.0
C821 C 0.60827 0.17949 0.6848 0.0
C822 C 0.59209 0.13073 0.81397 0.0
C823 C 0.59933 0.20878 0.73393 0.0
C824 C 0.548 0.15934 0.87459 0.0
C825 C 0.5632 0.16903 0.91748 0.0
C826 C 0.55841 0.16142 0.82598 0.0
C827 C 0.58456 0.17352 0.82066 0.0
C828 C 0.59984 0.1857 0.86312 0.0
C829 C 0.58894 0.18315 0.91119 0.0
C830 C 0.54145 0.14839 0.78148 0.0
C831 C 0.62773 0.19922 0.85897 0.0
H832 H 0.60495 0.12528 0.71852 0.0
H833 H 0.6111 0.19077 0.6512 0.0
H834 H 0.60234 0.14095 0.84861 0.0
H835 H 0.57201 0.12173 0.82278 0.0
H836 H 0.59675 0.11604 0.80578 0.0
H837 H 0.60901 0.22158 0.70164 0.0
H838 H 0.57946 0.20337 0.73243 0.0
H839 H 0.60696 0.21883 0.77036 0.0
H840 H 0.52811 0.14815 0.87968 0.0
H841 H 0.60068 0.19068 0.94448 0.0
H842 H 0.54219 0.1314 0.77215 0.0
H843 H 0.54755 0.16039 0.74711 0.0
H844 H 0.52192 0.14298 0.79004 0.0
H845 H 0.63414 0.18553 0.85714 0.0
H846 H 0.6367 0.21152 0.89232 0.0
H847 H 0.63401 0.21049 0.82358 0.0
C848 C 0.43022 0.60183 0.84436 0.0
C849 C 0.45444 0.60603 0.84061 0.0
C850 C 0.41742 0.59492 0.89101 0.0
C851 C 0.4291 0.59177 0.93438 0.0
C852 C 0.45423 0.59775 0.93135 0.0
C853 C 0.4666 0.60478 0.88429 0.0
C854 C 0.39085 0.58913 0.89278 0.0
C855 C 0.46743 0.59477 0.97677 0.0
C856 C 0.4068 0.58334 0.07098 0.0
C857 C 0.39781 0.55796 0.07784 0.0
C858 C 0.41505 0.59444 0.02301 0.0
C859 C 0.41464 0.57978 0.98138 0.0
C860 C 0.40341 0.55373 0.98723 0.0
C861 C 0.39506 0.54309 0.03562 0.0
C862 C 0.42633 0.62213 0.01818 0.0
C863 C 0.40247 0.5374 0.94371 0.0
H864 H 0.42076 0.60242 0.81012 0.0
H865 H 0.48514 0.6075 0.88082 0.0
H866 H 0.37837 0.56875 0.89301 0.0
H867 H 0.38719 0.59657 0.92814 0.0
H868 H 0.38609 0.59684 0.85923 0.0
H869 H 0.48745 0.60211 0.96921 0.0
H870 H 0.46556 0.60446 0.01052 0.0
H871 H 0.45883 0.57484 0.98666 0.0
H872 H 0.40902 0.59481 0.10389 0.0
H873 H 0.38852 0.52354 0.04131 0.0
H874 H 0.42065 0.62703 0.98188 0.0
H875 H 0.44682 0.63097 0.01778 0.0
H876 H 0.42097 0.63002 0.05052 0.0
H877 H 0.39535 0.54162 0.90858 0.0
H878 H 0.3906 0.5174 0.95271 0.0
H879 H 0.42148 0.54107 0.93538 0.0
C880 C 0.83283 0.4321 0.01931 0.0
C881 C 0.85478 0.45489 0.01481 0.0
C882 C 0.82638 0.41908 0.06574 0.0
C883 C 0.8425 0.4291 0.1081 0.0
C884 C 0.86389 0.45293 0.10436 0.0
C885 C 0.86983 0.46548 0.05754 0.0
C886 C 0.80335 0.39389 0.06824 0.0
C887 C 0.88148 0.46443 0.14875 0.0
C888 C 0.82882 0.4091 0.24568 0.0
C889 C 0.8428 0.39734 0.25208 0.0
C890 C 0.82635 0.41744 0.19756 0.0
C891 C 0.8385 0.41422 0.15518 0.0
C892 C 0.85047 0.40006 0.16061 0.0
C893 C 0.85243 0.39169 0.20925 0.0
C894 C 0.81295 0.43192 0.19329 0.0
C895 C 0.86348 0.39601 0.11619 0.0
H896 H 0.82158 0.42371 0.98564 0.0
H897 H 0.8871 0.48284 0.05338 0.0
H898 H 0.80868 0.37937 0.06678 0.0
H899 H 0.79326 0.39151 0.1046 0.0
H900 H 0.79062 0.39084 0.03586 0.0
H901 H 0.89628 0.48373 0.14062 0.0
H902 H 0.87124 0.46453 0.18331 0.0
H903 H 0.89034 0.45323 0.15766 0.0
H904 H 0.82132 0.41341 0.27893 0.0
H905 H 0.86351 0.38288 0.21442 0.0
H906 H 0.80172 0.42697 0.15786 0.0
H907 H 0.82672 0.452 0.19148 0.0
H908 H 0.80063 0.42867 0.22658 0.0
H909 H 0.85152 0.39017 0.08177 0.0
H910 H 0.86878 0.38183 0.12482 0.0
H911 H 0.88054 0.41369 0.10693 0.0
C912 C 0.46099 0.84708 0.38159 0.0
C913 C 0.44606 0.8399 0.4252 0.0
C914 C 0.4505 0.845 0.33305 0.0
C915 C 0.42458 0.83545 0.32858 0.0
C916 C 0.40927 0.82551 0.37199 0.0
C917 C 0.42024 0.82801 0.41989 0.0
C918 C 0.46744 0.8555 0.28746 0.0
C919 C 0.38157 0.8147 0.36885 0.0
C920 C 0.40865 0.86927 0.22919 0.0
C921 C 0.40165 0.85301 0.18781 0.0
C922 C 0.41484 0.86307 0.27616 0.0
C923 C 0.41437 0.84019 0.28137 0.0
C924 C 0.40577 0.82303 0.24048 0.0
C925 C 0.39953 0.82971 0.1939 0.0
C926 C 0.42354 0.88179 0.31903 0.0
C927 C 0.4049 0.79847 0.24453 0.0
H928 H 0.48096 0.85647 0.3858 0.0
H929 H 0.40868 0.82231 0.45368 0.0
H930 H 0.45969 0.84293 0.25415 0.0
H931 H 0.46909 0.87349 0.27671 0.0
H932 H 0.48628 0.85863 0.29559 0.0
H933 H 0.37201 0.80357 0.40324 0.0
H934 H 0.37735 0.82997 0.3657 0.0
H935 H 0.3739 0.80285 0.3345 0.0
H936 H 0.4108 0.88749 0.22377 0.0
H937 H 0.39477 0.81749 0.16119 0.0
H938 H 0.44345 0.88868 0.32681 0.0
H939 H 0.41315 0.87302 0.35456 0.0
H940 H 0.4212 0.8979 0.30989 0.0
H941 H 0.42398 0.80151 0.24145 0.0
H942 H 0.3935 0.78553 0.2137 0.0
H943 H 0.39735 0.78961 0.28202 0.0
C944 C 0.59633 0.41753 0.59174 0.0
C945 C 0.61051 0.44333 0.59698 0.0
C946 C 0.58789 0.40655 0.54382 0.0
C947 C 0.59354 0.42184 0.50032 0.0
C948 C 0.61013 0.44771 0.50476 0.0
C949 C 0.61852 0.4582 0.55332 0.0
C950 C 0.57073 0.37889 0.54073 0.0
C951 C 0.61687 0.46462 0.45909 0.0
C952 C 0.57412 0.39666 0.3657 0.0
C953 C 0.55312 0.39909 0.35938 0.0
C954 C 0.587 0.40285 0.41233 0.0
C955 C 0.5786 0.41172 0.45304 0.0
C956 C 0.55637 0.41252 0.4476 0.0
C957 C 0.54402 0.40637 0.40059 0.0
C958 C 0.61051 0.40164 0.41662 0.0
C959 C 0.54652 0.42151 0.49027 0.0
H960 H 0.59027 0.406 0.62556 0.0
H961 H 0.62931 0.47817 0.55747 0.0
H962 H 0.55133 0.37492 0.53735 0.0
H963 H 0.57484 0.37108 0.50652 0.0
H964 H 0.57209 0.36928 0.57524 0.0
H965 H 0.63275 0.48337 0.46723 0.0
H966 H 0.6216 0.4567 0.42592 0.0
H967 H 0.60071 0.46653 0.4481 0.0
H968 H 0.58148 0.39169 0.33313 0.0
H969 H 0.52809 0.40876 0.395 0.0
H970 H 0.61167 0.3941 0.45422 0.0
H971 H 0.62671 0.42062 0.41345 0.0
H972 H 0.61189 0.39007 0.38596 0.0
H973 H 0.54469 0.41111 0.52589 0.0
H974 H 0.52818 0.41944 0.48095 0.0
H975 H 0.55973 0.44137 0.498 0.0
C976 C 0.14591 0.5447 0.55281 0.0
C977 C 0.16032 0.55599 0.50961 0.0
C978 C 0.15159 0.5572 0.59972 0.0
C979 C 0.17206 0.58164 0.60309 0.0
C980 C 0.18767 0.5924 0.56024 0.0
C981 C 0.18148 0.57945 0.51372 0.0
C982 C 0.13455 0.54495 0.6446 0.0
C983 C 0.20978 0.61824 0.56235 0.0
C984 C 0.16019 0.6177 0.70443 0.0
C985 C 0.17095 0.61327 0.74696 0.0
C986 C 0.16225 0.60933 0.65585 0.0
C987 C 0.17545 0.59638 0.65016 0.0
C988 C 0.18855 0.59434 0.69217 0.0
C989 C 0.18597 0.60266 0.74027 0.0
C990 C 0.14816 0.61207 0.61187 0.0
C991 C 0.20326 0.58119 0.68757 0.0
H992 H 0.12922 0.52679 0.549 0.0
H993 H 0.19224 0.58833 0.47976 0.0
H994 H 0.14538 0.54567 0.67879 0.0
H995 H 0.12462 0.55508 0.65395 0.0
H996 H 0.12059 0.52529 0.63675 0.0
H997 H 0.22243 0.62204 0.52941 0.0
H998 H 0.20333 0.63191 0.56167 0.0
H999 H 0.22034 0.62116 0.59824 0.0
H1000 H 0.14827 0.62556 0.70989 0.0
H1001 H 0.19426 0.59924 0.77333 0.0
H1002 H 0.13176 0.59378 0.6031 0.0
H1003 H 0.15986 0.61846 0.57709 0.0
H1004 H 0.14166 0.62533 0.62069 0.0
H1005 H 0.19035 0.56089 0.68633 0.0
H1006 H 0.216 0.58532 0.72044 0.0
H1007 H 0.21422 0.58648 0.65175 0.0
C1008 C 0.45832 0.06602 0.04903 0.0
C1009 C 0.47913 0.07376 0.01748 0.0
C1010 C 0.44152 0.04066 0.0569 0.0
C1011 C 0.44565 0.02275 0.03248 0.0
C1012 C 0.46504 0.03056 -0.00372 0.0
C1013 C 0.48154 0.05594 0.98931 0.0
C1014 C 0.42089 0.03317 0.09516 0.0
C1015 C 0.46996 0.01215 0.96868 0.0
C1016 C 0.43626 0.96472 0.09814 0.0
C1017 C 0.41683 0.9461 0.06962 0.0
C1018 C 0.44444 0.98983 0.08925 0.0
C1019 C 0.43297 0.99655 0.05068 0.0
C1020 C 0.41182 0.97782 0.02519 0.0
C1021 C 0.40394 0.95273 0.03503 0.0
C1022 C 0.46687 0.00913 0.11793 0.0
C1023 C 0.39885 0.98415 0.98433 0.0
H1024 H 0.45636 0.07964 0.07118 0.0
H1025 H 0.49747 0.0618 0.96457 0.0
H1026 H 0.40378 0.01636 0.08233 0.0
H1027 H 0.42652 0.02874 0.13207 0.0
H1028 H 0.41667 0.04828 0.10183 0.0
H1029 H 0.48356 0.02092 0.93717 0.0
H1030 H 0.47742 1.00391 -0.00396 0.0
H1031 H 0.45255 0.99682 0.95267 0.0
H1032 H 0.44619 0.9597 0.12516 0.0
H1033 H 0.38902 0.93846 0.01256 0.0
H1034 H 0.46358 0.02393 0.1326 0.0
H1035 H 0.48297 0.01793 0.09161 0.0
H1036 H 0.47181 1.00105 0.15055 0.0
H1037 H 0.39751 1.00065 -0.00482 0.0
H1038 H 0.37993 0.96843 0.9767 0.0
H1039 H 0.40968 0.9886 0.94839 0.0
C1040 C 0.47608 0.43383 0.26804 0.0
C1041 C 0.47522 0.41409 0.24063 0.0
C1042 C 0.45904 0.44181 0.25854 0.0
C1043 C 0.44064 0.42978 0.22056 0.0
C1044 C 0.43814 0.4083 0.19639 0.0
C1045 C 0.45549 0.40066 0.20676 0.0
C1046 C 0.46228 0.46462 0.2858 0.0
C1047 C 0.41859 0.3947 0.1563 0.0
C1048 C 0.39661 0.45522 0.21669 0.0
C1049 C 0.40952 0.47551 0.18383 0.0
C1050 C 0.40517 0.4385 0.2258 0.0
C1051 C 0.42704 0.4422 0.20133 0.0
C1052 C 0.43844 0.46101 0.16391 0.0
C1053 C 0.42956 0.47742 0.15567 0.0
C1054 C 0.3922 0.41846 0.2653 0.0
C1055 C 0.4616 0.46546 0.13626 0.0
H1056 H 0.49117 0.44416 0.29456 0.0
H1057 H 0.45476 0.38546 0.18518 0.0
H1058 H 0.46941 0.48034 0.25854 0.0
H1059 H 0.44426 0.46152 0.30053 0.0
H1060 H 0.47549 0.47005 0.3182 0.0
H1061 H 0.41536 0.37568 0.14996 0.0
H1062 H 0.40081 0.39351 0.1671 0.0
H1063 H 0.42472 0.40496 0.11968 0.0
H1064 H 0.38119 0.45365 0.23883 0.0
H1065 H 0.4395 0.49295 0.12992 0.0
H1066 H 0.40241 0.42467 0.30199 0.0
H1067 H 0.39187 0.40118 0.25375 0.0
H1068 H 0.37289 0.41433 0.27189 0.0
H1069 H 0.47744 0.47326 0.1633 0.0
H1070 H 0.46631 0.47861 0.10393 0.0
H1071 H 0.45939 0.44781 0.12137 0.0
C1072 C 0.04769 0.47497 0.42985 0.0
C1073 C 0.06595 0.47382 0.40062 0.0
C1074 C 0.02246 0.45804 0.42224 0.0
C1075 C 0.01525 0.43949 0.38426 0.0
C1076 C 0.03364 0.43671 0.35822 0.0
C1077 C 0.05885 0.45392 0.3668 0.0
C1078 C 1.00353 0.46153 0.45151 0.0
C1079 C 0.0268 0.41704 0.31794 0.0
C1080 C 0.94569 0.39552 0.38436 0.0
C1081 C 0.93783 0.40838 0.35256 0.0
C1082 C 0.97109 0.40415 0.39196 0.0
C1083 C 0.9889 0.42602 0.36696 0.0
C1084 C 0.98096 0.43744 0.33067 0.0
C1085 C 0.95555 0.42851 0.32402 0.0
C1086 C 0.97872 0.39122 0.43041 0.0
C1087 C 0.99927 0.4606 0.30249 0.0
H1088 H 0.05306 0.49022 0.45628 0.0
H1089 H 0.07282 0.45298 0.34377 0.0
H1090 H 0.99463 0.46881 0.42544 0.0
H1091 H 0.98874 0.44358 0.46678 0.0
H1092 H 0.01198 0.47472 0.48377 0.0
H1093 H 0.04238 0.41371 0.30971 0.0
H1094 H 0.0104 0.39933 0.32976 0.0
H1095 H 0.02194 0.42311 0.2821 0.0
H1096 H 0.93215 0.38004 0.40685 0.0
H1097 H 0.94959 0.43844 0.29913 0.0
H1098 H 0.98336 0.40152 0.46706 0.0
H1099 H 0.99545 0.39078 0.41741 0.0
H1100 H 0.96361 0.37195 0.43766 0.0
H1101 H 1.00774 0.47642 0.32954 0.0
H1102 H 0.99037 0.46535 0.27114 0.0
H1103 H 0.01446 0.45836 0.28616 0.0
C1104 C 0.55347 0.94323 0.55146 0.0
C1105 C 0.53234 0.93533 0.52087 0.0
C1106 C 0.57037 0.96863 0.55852 0.0
C1107 C 0.56604 0.98641 0.53417 0.0
C1108 C 0.54624 0.97841 0.49894 0.0
C1109 C 0.52962 0.953 0.49286 0.0
C1110 C 0.59139 0.97632 0.59586 0.0
C1111 C 0.54112 0.99668 0.47141 0.0
C1112 C 0.57669 0.0453 0.59799 0.0
C1113 C 0.59587 0.0635 0.56826 0.0
C1114 C 0.56825 0.02006 0.59014 0.0
C1115 C 0.57914 0.01278 0.55132 0.0
C1116 C 0.60007 0.03111 0.52458 0.0
C1117 C 0.60826 0.05634 0.53347 0.0
C1118 C 0.5461 1.0012 0.62018 0.0
C1119 C 0.6124 0.02419 0.48333 0.0
H1120 H 0.55564 0.92973 0.57354 0.0
H1121 H 0.51341 0.947 0.46891 0.0
H1122 H 0.60841 0.99297 0.58212 0.0
H1123 H 0.58619 0.98111 0.6329 0.0
H1124 H 0.59557 0.9612 0.6026 0.0
H1125 H 0.52714 0.98773 0.44063 0.0
H1126 H 0.53406 1.00521 0.49904 0.0
H1127 H 0.55837 0.01183 0.45446 0.0
H1128 H 0.56713 0.05075 0.6251 0.0
H1129 H 0.62296 0.07028 0.51003 0.0
H1130 H 0.54936 0.98638 0.63485 0.0
H1131 H 0.52965 0.99233 0.59482 0.0
H1132 H 0.54174 0.0097 0.65295 0.0
H1133 H 0.61376 0.00775 0.49455 0.0
H1134 H 0.63125 0.03973 0.47444 0.0
H1135 H 0.6011 0.01938 0.44801 0.0
C1136 C 0.58146 0.52726 0.66321 0.0
C1137 C 0.60176 0.52999 0.69157 0.0
C1138 C 0.57277 0.54399 0.66868 0.0
C1139 C 0.58458 0.56392 0.70364 0.0
C1140 C 0.60658 0.56821 0.72842 0.0
C1141 C 0.61498 0.5512 0.72197 0.0
C1142 C 0.54947 0.53889 0.64072 0.0
C1143 C 0.6199 0.58934 0.76551 0.0
C1144 C 0.55732 0.60649 0.70019 0.0
C1145 C 0.53756 0.59435 0.73462 0.0
C1146 C 0.5743 0.59813 0.69238 0.0
C1147 C 0.57144 0.57729 0.71988 0.0
C1148 C 0.55309 0.5667 0.75844 0.0
C1149 C 0.53635 0.57532 0.76519 0.0
C1150 C 0.59374 0.61013 0.65139 0.0
C1151 C 0.54955 0.54469 0.78929 0.0
H1152 H 0.57126 0.51099 0.63942 0.0
H1153 H 0.63059 0.55337 0.74433 0.0
H1154 H 0.53385 0.53207 0.66818 0.0
H1155 H 0.55174 0.55611 0.62324 0.0
H1156 H 0.54441 0.52474 0.61029 0.0
H1157 H 0.63916 0.59344 0.77261 0.0
H1158 H 0.62042 0.60636 0.75132 0.0
H1159 H 0.60983 0.58434 0.80245 0.0
H1160 H 0.55828 0.62109 0.6761 0.0
H1161 H 0.5212 0.56595 0.79205 0.0
H1162 H 0.58735 0.59864 0.6163 0.0
H1163 H 0.61145 0.61144 0.66326 0.0
H1164 H 0.59721 0.62897 0.64182 0.0
H1165 H 0.54192 0.52807 0.76437 0.0
H1166 H 0.53662 0.54063 0.8218 0.0
H1167 H 0.56754 0.54789 0.80441 0.0
C1168 C 0.06846 0.61471 0.88129 0.0
C1169 C 0.07602 0.60156 0.84952 0.0
C1170 C 0.04314 0.6062 0.88968 0.0
C1171 C 0.0251 0.58415 0.86557 0.0
C1172 C 0.0327 0.57244 0.82923 0.0
C1173 C 0.05805 0.58128 0.82172 0.0
C1174 C 0.03586 0.61946 0.92808 0.0
C1175 C 0.01414 0.54908 0.80199 0.0
C1176 C 0.96699 0.53564 0.93119 0.0
C1177 C 0.94844 0.53645 0.90243 0.0
C1178 C 0.99212 0.55258 0.92252 0.0
C1179 C 0.99893 0.5708 0.88398 0.0
C1180 C 0.98026 0.5733 0.85845 0.0
C1181 C 0.95515 0.55608 0.86805 0.0
C1182 C 0.01136 0.54939 0.95126 0.0
C1183 C 0.98668 0.59264 0.81764 0.0
H1184 H 0.0822 0.63032 0.90316 0.0
H1185 H 0.06377 0.57115 0.79681 0.0
H1186 H 0.01901 0.61977 0.91559 0.0
H1187 H 0.03159 0.60949 0.96508 0.0
H1188 H 0.05103 0.63879 0.93442 0.0
H1189 H 0.02276 0.54408 0.77045 0.0
H1190 H 1.0059 0.53347 0.82956 0.0
H1191 H 0.99881 0.5512 0.78609 0.0
H1192 H 0.96191 0.52062 0.95805 0.0
H1193 H 0.94095 0.55676 0.8454 0.0
H1194 H 0.02625 0.56747 0.96577 0.0
H1195 H 0.02007 0.54195 0.92503 0.0
H1196 H 1.00324 0.53644 0.98399 0.0
H1197 H 1.0032 0.61045 0.82854 0.0
H1198 H 0.971 0.5959 0.80999 0.0
H1199 H 0.99113 0.58627 0.78169 0.0
loop_
_geom_bond_atom_site_label_1
_geom_bond_atom_site_label_2
_geom_bond_distance
_geom_bond_site_symmetry_2
_ccdc_geom_bond_type
Mn0 O5 2.095 1_554 S
Mn0 O15 2.162 . S
Mn0 O16 2.297 . S
Mn0 O24 2.385 . S
Mn0 O25 2.209 . S
Mn0 O26 2.094 . S
Mn1 O6 2.121 1_554 S
Mn1 N8 2.257 . S
Mn1 N17 2.282 . S
Mn1 O25 2.215 . S
Mn1 O27 2.117 . S
C2 O24 1.234 . S
C2 O25 1.283 . S
C3 O15 1.281 . S
C3 O16 1.236 . S
C4 O26 1.240 . S
C4 O27 1.264 . S
O5 Mn0 2.095 1_556 S
O5 C14 1.250 . S
O6 Mn1 2.121 1_556 S
O6 C14 1.258 . S
C7 N8 1.326 . S
C7 C11 1.460 . S
C7 H13 0.929 . S
N8 Mn1 2.257 . S
N8 C7 1.326 . S
N8 C12 1.362 . S
C9 C10 1.258 . S
C9 C12 1.431 . S
C9 C29 1.449 . S
C10 C9 1.258 . S
C10 C11 1.477 . S
C10 H30 0.931 . S
C11 C7 1.460 . S
C11 C10 1.477 . S
C11 H31 0.930 . S
C12 N8 1.362 . S
C12 C9 1.431 . S
C12 C22 1.476 . S
H13 C7 0.929 . S
C14 O5 1.250 . S
C14 O6 1.258 . S
O15 Mn0 2.162 . S
O15 C3 1.281 . S
O16 Mn0 2.297 . S
O16 C3 1.236 . S
N17 Mn1 2.282 . S
N17 C18 1.328 . S
N17 C22 1.318 . S
C18 N17 1.328 . S
C18 C19 1.457 . S
C18 H23 0.929 . S
C19 C18 1.457 . S
C19 C20 1.291 . S
C19 H32 0.931 . S
C20 C19 1.291 . S
C20 C21 1.373 . S
C20 H33 0.929 . S
C21 C20 1.373 . S
C21 C22 1.396 . S
C21 C28 1.403 . S
C22 C12 1.476 . S
C22 N17 1.318 . S
C22 C21 1.396 . S
H23 C18 0.929 . S
O24 Mn0 2.385 . S
O24 C2 1.234 . S
O25 Mn0 2.209 . S
O25 Mn1 2.215 . S
O25 C2 1.283 . S
O26 Mn0 2.094 . S
O26 C4 1.240 . S
O27 Mn1 2.117 . S
O27 C4 1.264 . S
C28 C21 1.403 . S
C28 C29 1.399 . S
C28 H34 0.929 . S
C29 C9 1.449 . S
C29 C28 1.399 . S
C29 H35 0.930 . S
H30 C10 0.931 . S
H31 C11 0.930 . S
H32 C19 0.931 . S
H33 C20 0.929 . S
H34 C28 0.929 . S
H35 C29 0.930 . S
Mn36 O41 2.095 . S
Mn36 O51 2.162 . S
Mn36 O52 2.297 . S
Mn36 O60 2.385 . S
Mn36 O61 2.209 . S
Mn36 O62 2.094 . S
Mn37 O42 2.121 . S
Mn37 N44 2.257 . S
Mn37 N53 2.282 . S
Mn37 O61 2.215 . S
Mn37 O63 2.117 . S
C38 O60 1.234 . S
C38 O61 1.283 . S
C39 O51 1.281 . S
C39 O52 1.236 . S
C40 O62 1.240 . S
C40 O63 1.264 . S
O41 Mn36 2.095 . S
O41 C50 1.250 . S
O42 Mn37 2.121 . S
O42 C50 1.258 . S
C43 N44 1.326 . S
C43 C47 1.460 . S
C43 H49 0.929 . S
N44 Mn37 2.257 . S
N44 C43 1.326 . S
N44 C48 1.362 . S
C45 C46 1.258 . S
C45 C48 1.431 . S
C45 C65 1.449 . S
C46 C45 1.258 . S
C46 C47 1.477 . S
C46 H66 0.931 . S
C47 C43 1.460 . S
C47 C46 1.477 . S
C47 H67 0.930 . S
C48 N44 1.362 . S
C48 C45 1.431 . S
C48 C58 1.476 . S
H49 C43 0.929 . S
C50 O41 1.250 . S
C50 O42 1.258 . S
O51 Mn36 2.162 . S
O51 C39 1.281 . S
O52 Mn36 2.297 . S
O52 C39 1.236 . S
N53 Mn37 2.282 . S
N53 C54 1.328 . S
N53 C58 1.318 . S
C54 N53 1.328 . S
C54 C55 1.457 . S
C54 H59 0.929 . S
C55 C54 1.457 . S
C55 C56 1.291 . S
C55 H68 0.931 . S
C56 C55 1.291 . S
C56 C57 1.373 . S
C56 H69 0.929 . S
C57 C56 1.373 . S
C57 C58 1.396 . S
C57 C64 1.403 . S
C58 C48 1.476 . S
C58 N53 1.318 . S
C58 C57 1.396 . S
H59 C54 0.929 . S
O60 Mn36 2.385 . S
O60 C38 1.234 . S
O61 Mn36 2.209 . S
O61 Mn37 2.215 . S
O61 C38 1.283 . S
O62 Mn36 2.094 . S
O62 C40 1.240 . S
O63 Mn37 2.117 . S
O63 C40 1.264 . S
C64 C57 1.403 . S
C64 C65 1.399 . S
C64 H70 0.929 . S
C65 C45 1.449 . S
C65 C64 1.399 . S
C65 H71 0.930 . S
H66 C46 0.931 . S
H67 C47 0.930 . S
H68 C55 0.931 . S
H69 C56 0.929 . S
H70 C64 0.929 . S
H71 C65 0.930 . S
Mn72 O77 2.095 . S
Mn72 O87 2.162 . S
Mn72 O88 2.297 . S
Mn72 O96 2.385 . S
Mn72 O97 2.209 . S
Mn72 O98 2.094 . S
Mn73 O78 2.121 . S
Mn73 N80 2.257 . S
Mn73 N89 2.282 . S
Mn73 O97 2.215 . S
Mn73 O99 2.117 . S
C74 O96 1.234 . S
C74 O97 1.283 . S
C75 O87 1.281 . S
C75 O88 1.236 . S
C76 O98 1.240 . S
C76 O99 1.264 . S
O77 Mn72 2.095 . S
O77 C86 1.250 . S
O78 Mn73 2.121 . S
O78 C86 1.258 . S
C79 N80 1.326 . S
C79 C83 1.460 . S
C79 H85 0.929 . S
N80 Mn73 2.257 . S
N80 C79 1.326 . S
N80 C84 1.362 . S
C81 C82 1.258 . S
C81 C84 1.431 . S
C81 C101 1.449 . S
C82 C81 1.258 . S
C82 C83 1.477 . S
C82 H102 0.931 . S
C83 C79 1.460 . S
C83 C82 1.477 . S
C83 H103 0.930 . S
C84 N80 1.362 . S
C84 C81 1.431 . S
C84 C94 1.476 . S
H85 C79 0.929 . S
C86 O77 1.250 . S
C86 O78 1.258 . S
O87 Mn72 2.162 . S
O87 C75 1.281 . S
O88 Mn72 2.297 . S
O88 C75 1.236 . S
N89 Mn73 2.282 . S
N89 C90 1.328 . S
N89 C94 1.318 . S
C90 N89 1.328 . S
C90 C91 1.457 . S
C90 H95 0.929 . S
C91 C90 1.457 . S
C91 C92 1.291 . S
C91 H104 0.931 . S
C92 C91 1.291 . S
C92 C93 1.373 . S
C92 H105 0.929 . S
C93 C92 1.373 . S
C93 C94 1.396 . S
C93 C100 1.403 . S
C94 C84 1.476 . S
C94 N89 1.318 . S
C94 C93 1.396 . S
H95 C90 0.929 . S
O96 Mn72 2.385 . S
O96 C74 1.234 . S
O97 Mn72 2.209 . S
O97 Mn73 2.215 . S
O97 C74 1.283 . S
O98 Mn72 2.094 . S
O98 C76 1.240 . S
O99 Mn73 2.117 . S
O99 C76 1.264 . S
C100 C93 1.403 . S
C100 C101 1.399 . S
C100 H106 0.929 . S
C101 C81 1.449 . S
C101 C100 1.399 . S
C101 H107 0.930 . S
H102 C82 0.931 . S
H103 C83 0.930 . S
H104 C91 0.931 . S
H105 C92 0.929 . S
H106 C100 0.929 . S
H107 C101 0.930 . S
Mn108 O113 2.095 . S
Mn108 O123 2.162 . S
Mn108 O124 2.297 . S
Mn108 O132 2.385 . S
Mn108 O133 2.209 . S
Mn108 O134 2.094 . S
Mn109 O114 2.121 . S
Mn109 N116 2.257 . S
Mn109 N125 2.282 . S
Mn109 O133 2.215 . S
Mn109 O135 2.117 . S
C110 O132 1.234 . S
C110 O133 1.283 . S
C111 O123 1.281 . S
C111 O124 1.236 . S
C112 O134 1.240 . S
C112 O135 1.264 . S
O113 Mn108 2.095 . S
O113 C122 1.250 . S
O114 Mn109 2.121 . S
O114 C122 1.258 . S
C115 N116 1.326 . S
C115 C119 1.460 . S
C115 H121 0.929 . S
N116 Mn109 2.257 . S
N116 C115 1.326 . S
N116 C120 1.362 . S
C117 C118 1.258 . S
C117 C120 1.431 . S
C117 C137 1.449 . S
C118 C117 1.258 . S
C118 C119 1.477 . S
C118 H138 0.931 . S
C119 C115 1.460 . S
C119 C118 1.477 . S
C119 H139 0.930 . S
C120 N116 1.362 . S
C120 C117 1.431 . S
C120 C130 1.476 . S
H121 C115 0.929 . S
C122 O113 1.250 . S
C122 O114 1.258 . S
O123 Mn108 2.162 . S
O123 C111 1.281 . S
O124 Mn108 2.297 . S
O124 C111 1.236 . S
N125 Mn109 2.282 . S
N125 C126 1.328 . S
N125 C130 1.318 . S
C126 N125 1.328 . S
C126 C127 1.457 . S
C126 H131 0.929 . S
C127 C126 1.457 . S
C127 C128 1.291 . S
C127 H140 0.931 . S
C128 C127 1.291 . S
C128 C129 1.373 . S
C128 H141 0.929 . S
C129 C128 1.373 . S
C129 C130 1.396 . S
C129 C136 1.403 . S
C130 C120 1.476 . S
C130 N125 1.318 . S
C130 C129 1.396 . S
H131 C126 0.929 . S
O132 Mn108 2.385 . S
O132 C110 1.234 . S
O133 Mn108 2.209 . S
O133 Mn109 2.215 . S
O133 C110 1.283 . S
O134 Mn108 2.094 . S
O134 C112 1.240 . S
O135 Mn109 2.117 . S
O135 C112 1.264 . S
C136 C129 1.403 . S
C136 C137 1.399 . S
C136 H142 0.929 . S
C137 C117 1.449 . S
C137 C136 1.399 . S
C137 H143 0.930 . S
H138 C118 0.931 . S
H139 C119 0.930 . S
H140 C127 0.931 . S
H141 C128 0.929 . S
H142 C136 0.929 . S
H143 C137 0.930 . S
Mn144 O149 2.095 . S
Mn144 O159 2.162 . S
Mn144 O160 2.297 . S
Mn144 O168 2.385 . S
Mn144 O169 2.209 . S
Mn144 O170 2.094 . S
Mn145 O150 2.121 . S
Mn145 N152 2.257 . S
Mn145 N161 2.282 . S
Mn145 O169 2.215 . S
Mn145 O171 2.117 . S
C146 O168 1.234 . S
C146 O169 1.283 . S
C147 O159 1.281 . S
C147 O160 1.236 . S
C148 O170 1.240 . S
C148 O171 1.264 . S
O149 Mn144 2.095 . S
O149 C158 1.250 . S
O150 Mn145 2.121 . S
O150 C158 1.258 . S
C151 N152 1.326 . S
C151 C155 1.460 . S
C151 H157 0.929 . S
N152 Mn145 2.257 . S
N152 C151 1.326 . S
N152 C156 1.362 . S
C153 C154 1.258 . S
C153 C156 1.431 . S
C153 C173 1.449 . S
C154 C153 1.258 . S
C154 C155 1.477 . S
C154 H174 0.931 . S
C155 C151 1.460 . S
C155 C154 1.477 . S
C155 H175 0.930 . S
C156 N152 1.362 . S
C156 C153 1.431 . S
C156 C166 1.476 . S
H157 C151 0.929 . S
C158 O149 1.250 . S
C158 O150 1.258 . S
O159 Mn144 2.162 . S
O159 C147 1.281 . S
O160 Mn144 2.297 . S
O160 C147 1.236 . S
N161 Mn145 2.282 . S
N161 C162 1.328 . S
N161 C166 1.318 . S
C162 N161 1.328 . S
C162 C163 1.457 . S
C162 H167 0.929 . S
C163 C162 1.457 . S
C163 C164 1.291 . S
C163 H176 0.931 . S
C164 C163 1.291 . S
C164 C165 1.373 . S
C164 H177 0.929 . S
C165 C164 1.373 . S
C165 C166 1.396 . S
C165 C172 1.403 . S
C166 C156 1.476 . S
C166 N161 1.318 . S
C166 C165 1.396 . S
H167 C162 0.929 . S
O168 Mn144 2.385 . S
O168 C146 1.234 . S
O169 Mn144 2.209 . S
O169 Mn145 2.215 . S
O169 C146 1.283 . S
O170 Mn144 2.094 . S
O170 C148 1.240 . S
O171 Mn145 2.117 . S
O171 C148 1.264 . S
C172 C165 1.403 . S
C172 C173 1.399 . S
C172 H178 0.929 . S
C173 C153 1.449 . S
C173 C172 1.399 . S
C173 H179 0.930 . S
H174 C154 0.931 . S
H175 C155 0.930 . S
H176 C163 0.931 . S
H177 C164 0.929 . S
H178 C172 0.929 . S
H179 C173 0.930 . S
Mn180 O185 2.095 . S
Mn180 O195 2.162 . S
Mn180 O196 2.297 . S
Mn180 O204 2.385 . S
Mn180 O205 2.209 . S
Mn180 O206 2.094 . S
Mn181 O186 2.121 . S
Mn181 N188 2.257 . S
Mn181 N197 2.282 . S
Mn181 O205 2.215 . S
Mn181 O207 2.117 . S
C182 O204 1.234 . S
C182 O205 1.283 . S
C183 O195 1.281 . S
C183 O196 1.236 . S
C184 O206 1.240 . S
C184 O207 1.264 . S
O185 Mn180 2.095 . S
O185 C194 1.250 . S
O186 Mn181 2.121 . S
O186 C194 1.258 . S
C187 N188 1.326 . S
C187 C191 1.460 . S
C187 H193 0.929 . S
N188 Mn181 2.257 . S
N188 C187 1.326 . S
N188 C192 1.362 . S
C189 C190 1.258 . S
C189 C192 1.431 . S
C189 C209 1.449 1_556 S
C190 C189 1.258 . S
C190 C191 1.477 . S
C190 H210 0.931 . S
C191 C187 1.460 . S
C191 C190 1.477 . S
C191 H211 0.930 . S
C192 N188 1.362 . S
C192 C189 1.431 . S
C192 C202 1.476 . S
H193 C187 0.929 . S
C194 O185 1.250 . S
C194 O186 1.258 . S
O195 Mn180 2.162 . S
O195 C183 1.281 . S
O196 Mn180 2.297 . S
O196 C183 1.236 . S
N197 Mn181 2.282 . S
N197 C198 1.328 1_556 S
N197 C202 1.318 . S
C198 N197 1.328 1_554 S
C198 C199 1.457 . S
C198 H203 0.929 1_554 S
C199 C198 1.457 . S
C199 C200 1.291 . S
C199 H212 0.931 . S
C200 C199 1.291 . S
C200 C201 1.373 . S
C200 H213 0.929 . S
C201 C200 1.373 . S
C201 C202 1.396 1_554 S
C201 C208 1.403 . S
C202 C192 1.476 . S
C202 N197 1.318 . S
C202 C201 1.396 1_556 S
H203 C198 0.929 1_556 S
O204 Mn180 2.385 . S
O204 C182 1.234 . S
O205 Mn180 2.209 . S
O205 Mn181 2.215 . S
O205 C182 1.283 . S
O206 Mn180 2.094 . S
O206 C184 1.240 . S
O207 Mn181 2.117 . S
O207 C184 1.264 . S
C208 C201 1.403 . S
C208 C209 1.399 . S
C208 H214 0.929 . S
C209 C189 1.449 1_554 S
C209 C208 1.399 . S
C209 H215 0.930 . S
H210 C190 0.931 . S
H211 C191 0.930 . S
H212 C199 0.931 . S
H213 C200 0.929 . S
H214 C208 0.929 . S
H215 C209 0.930 . S
Mn216 O221 2.095 . S
Mn216 O231 2.162 . S
Mn216 O232 2.297 . S
Mn216 O240 2.385 . S
Mn216 O241 2.209 . S
Mn216 O242 2.094 . S
Mn217 O222 2.121 . S
Mn217 N224 2.257 . S
Mn217 N233 2.282 . S
Mn217 O241 2.215 . S
Mn217 O243 2.117 . S
C218 O240 1.234 . S
C218 O241 1.283 . S
C219 O231 1.281 . S
C219 O232 1.236 . S
C220 O242 1.240 . S
C220 O243 1.264 . S
O221 Mn216 2.095 . S
O221 C230 1.250 . S
O222 Mn217 2.121 . S
O222 C230 1.258 . S
C223 N224 1.326 . S
C223 C227 1.460 . S
C223 H229 0.929 . S
N224 Mn217 2.257 . S
N224 C223 1.326 . S
N224 C228 1.362 . S
C225 C226 1.258 . S
C225 C228 1.431 . S
C225 C245 1.449 . S
C226 C225 1.258 . S
C226 C227 1.477 . S
C226 H246 0.931 . S
C227 C223 1.460 . S
C227 C226 1.477 . S
C227 H247 0.930 . S
C228 N224 1.362 . S
C228 C225 1.431 . S
C228 C238 1.476 . S
H229 C223 0.929 . S
C230 O221 1.250 . S
C230 O222 1.258 . S
O231 Mn216 2.162 . S
O231 C219 1.281 . S
O232 Mn216 2.297 . S
O232 C219 1.236 . S
N233 Mn217 2.282 . S
N233 C234 1.328 . S
N233 C238 1.318 . S
C234 N233 1.328 . S
C234 C235 1.457 . S
C234 H239 0.929 . S
C235 C234 1.457 . S
C235 C236 1.291 . S
C235 H248 0.931 . S
C236 C235 1.291 . S
C236 C237 1.373 . S
C236 H249 0.929 . S
C237 C236 1.373 . S
C237 C238 1.396 . S
C237 C244 1.403 . S
C238 C228 1.476 . S
C238 N233 1.318 . S
C238 C237 1.396 . S
H239 C234 0.929 . S
O240 Mn216 2.385 . S
O240 C218 1.234 . S
O241 Mn216 2.209 . S
O241 Mn217 2.215 . S
O241 C218 1.283 . S
O242 Mn216 2.094 . S
O242 C220 1.240 . S
O243 Mn217 2.117 . S
O243 C220 1.264 . S
C244 C237 1.403 . S
C244 C245 1.399 . S
C244 H250 0.929 . S
C245 C225 1.449 . S
C245 C244 1.399 . S
C245 H251 0.930 . S
H246 C226 0.931 . S
H247 C227 0.930 . S
H248 C235 0.931 . S
H249 C236 0.929 . S
H250 C244 0.929 . S
H251 C245 0.930 . S
Mn252 O257 2.095 . S
Mn252 O267 2.162 . S
Mn252 O268 2.297 . S
Mn252 O276 2.385 1_554 S
Mn252 O277 2.209 . S
Mn252 O278 2.094 . S
Mn253 O258 2.121 . S
Mn253 N260 2.257 . S
Mn253 N269 2.282 1_554 S
Mn253 O277 2.215 . S
Mn253 O279 2.117 . S
C254 O276 1.234 . S
C254 O277 1.283 1_556 S
C255 O267 1.281 . S
C255 O268 1.236 . S
C256 O278 1.240 . S
C256 O279 1.264 . S
O257 Mn252 2.095 . S
O257 C266 1.250 . S
O258 Mn253 2.121 . S
O258 C266 1.258 . S
C259 N260 1.326 . S
C259 C263 1.460 . S
C259 H265 0.929 . S
N260 Mn253 2.257 . S
N260 C259 1.326 . S
N260 C264 1.362 1_554 S
C261 C262 1.258 1_556 S
C261 C264 1.431 . S
C261 C281 1.449 . S
C262 C261 1.258 1_554 S
C262 C263 1.477 . S
C262 H282 0.931 1_554 S
C263 C259 1.460 . S
C263 C262 1.477 . S
C263 H283 0.930 . S
C264 N260 1.362 1_556 S
C264 C261 1.431 . S
C264 C274 1.476 . S
H265 C259 0.929 . S
C266 O257 1.250 . S
C266 O258 1.258 . S
O267 Mn252 2.162 . S
O267 C255 1.281 . S
O268 Mn252 2.297 . S
O268 C255 1.236 . S
N269 Mn253 2.282 1_556 S
N269 C270 1.328 . S
N269 C274 1.318 . S
C270 N269 1.328 . S
C270 C271 1.457 . S
C270 H275 0.929 . S
C271 C270 1.457 . S
C271 C272 1.291 . S
C271 H284 0.931 . S
C272 C271 1.291 . S
C272 C273 1.373 . S
C272 H285 0.929 . S
C273 C272 1.373 . S
C273 C274 1.396 . S
C273 C280 1.403 . S
C274 C264 1.476 . S
C274 N269 1.318 . S
C274 C273 1.396 . S
H275 C270 0.929 . S
O276 Mn252 2.385 1_556 S
O276 C254 1.234 . S
O277 Mn252 2.209 . S
O277 Mn253 2.215 . S
O277 C254 1.283 1_554 S
O278 Mn252 2.094 . S
O278 C256 1.240 . S
O279 Mn253 2.117 . S
O279 C256 1.264 . S
C280 C273 1.403 . S
C280 C281 1.399 . S
C280 H286 0.929 . S
C281 C261 1.449 . S
C281 C280 1.399 . S
C281 H287 0.930 . S
H282 C262 0.931 1_556 S
H283 C263 0.930 . S
H284 C271 0.931 . S
H285 C272 0.929 . S
H286 C280 0.929 . S
H287 C281 0.930 . S
Mn288 O293 2.095 . S
Mn288 O303 2.162 . S
Mn288 O304 2.297 . S
Mn288 O312 2.385 . S
Mn288 O313 2.209 . S
Mn288 O314 2.094 . S
Mn289 O294 2.121 . S
Mn289 N296 2.257 . S
Mn289 N305 2.282 . S
Mn289 O313 2.215 . S
Mn289 O315 2.117 . S
C290 O312 1.234 . S
C290 O313 1.283 . S
C291 O303 1.281 . S
C291 O304 1.236 . S
C292 O314 1.240 . S
C292 O315 1.264 . S
O293 Mn288 2.095 . S
O293 C302 1.250 . S
O294 Mn289 2.121 . S
O294 C302 1.258 . S
C295 N296 1.326 . S
C295 C299 1.460 . S
C295 H301 0.929 . S
N296 Mn289 2.257 . S
N296 C295 1.326 . S
N296 C300 1.362 . S
C297 C298 1.258 . S
C297 C300 1.431 . S
C297 C317 1.449 . S
C298 C297 1.258 . S
C298 C299 1.477 . S
C298 H318 0.931 . S
C299 C295 1.460 . S
C299 C298 1.477 . S
C299 H319 0.930 . S
C300 N296 1.362 . S
C300 C297 1.431 . S
C300 C310 1.476 . S
H301 C295 0.929 . S
C302 O293 1.250 . S
C302 O294 1.258 . S
O303 Mn288 2.162 . S
O303 C291 1.281 . S
O304 Mn288 2.297 . S
O304 C291 1.236 . S
N305 Mn289 2.282 . S
N305 C306 1.328 . S
N305 C310 1.318 . S
C306 N305 1.328 . S
C306 C307 1.457 . S
C306 H311 0.929 . S
C307 C306 1.457 . S
C307 C308 1.291 . S
C307 H320 0.931 . S
C308 C307 1.291 . S
C308 C309 1.373 . S
C308 H321 0.929 . S
C309 C308 1.373 . S
C309 C310 1.396 . S
C309 C316 1.403 . S
C310 C300 1.476 . S
C310 N305 1.318 . S
C310 C309 1.396 . S
H311 C306 0.929 . S
O312 Mn288 2.385 . S
O312 C290 1.234 . S
O313 Mn288 2.209 . S
O313 Mn289 2.215 . S
O313 C290 1.283 . S
O314 Mn288 2.094 . S
O314 C292 1.240 . S
O315 Mn289 2.117 . S
O315 C292 1.264 . S
C316 C309 1.403 . S
C316 C317 1.399 . S
C316 H322 0.929 . S
C317 C297 1.449 . S
C317 C316 1.399 . S
C317 H323 0.930 . S
H318 C298 0.931 . S
H319 C299 0.930 . S
H320 C307 0.931 . S
H321 C308 0.929 . S
H322 C316 0.929 . S
H323 C317 0.930 . S
Mn324 O329 2.095 . S
Mn324 O339 2.162 . S
Mn324 O340 2.297 . S
Mn324 O348 2.385 . S
Mn324 O349 2.209 . S
Mn324 O350 2.094 . S
Mn325 O330 2.121 . S
Mn325 N332 2.257 . S
Mn325 N341 2.282 . S
Mn325 O349 2.215 . S
Mn325 O351 2.117 . S
C326 O348 1.234 . S
C326 O349 1.283 . S
C327 O339 1.281 . S
C327 O340 1.236 . S
C328 O350 1.240 . S
C328 O351 1.264 . S
O329 Mn324 2.095 . S
O329 C338 1.250 . S
O330 Mn325 2.121 . S
O330 C338 1.258 . S
C331 N332 1.326 . S
C331 C335 1.460 . S
C331 H337 0.929 . S
N332 Mn325 2.257 . S
N332 C331 1.326 . S
N332 C336 1.362 . S
C333 C334 1.258 . S
C333 C336 1.431 . S
C333 C353 1.449 . S
C334 C333 1.258 . S
C334 C335 1.477 . S
C334 H354 0.931 . S
C335 C331 1.460 . S
C335 C334 1.477 . S
C335 H355 0.930 . S
C336 N332 1.362 . S
C336 C333 1.431 . S
C336 C346 1.476 . S
H337 C331 0.929 . S
C338 O329 1.250 . S
C338 O330 1.258 . S
O339 Mn324 2.162 . S
O339 C327 1.281 . S
O340 Mn324 2.297 . S
O340 C327 1.236 . S
N341 Mn325 2.282 . S
N341 C342 1.328 . S
N341 C346 1.318 . S
C342 N341 1.328 . S
C342 C343 1.457 . S
C342 H347 0.929 . S
C343 C342 1.457 . S
C343 C344 1.291 . S
C343 H356 0.931 . S
C344 C343 1.291 . S
C344 C345 1.373 . S
C344 H357 0.929 . S
C345 C344 1.373 . S
C345 C346 1.396 . S
C345 C352 1.403 . S
C346 C336 1.476 . S
C346 N341 1.318 . S
C346 C345 1.396 . S
H347 C342 0.929 . S
O348 Mn324 2.385 . S
O348 C326 1.234 . S
O349 Mn324 2.209 . S
O349 Mn325 2.215 . S
O349 C326 1.283 . S
O350 Mn324 2.094 . S
O350 C328 1.240 . S
O351 Mn325 2.117 . S
O351 C328 1.264 . S
C352 C345 1.403 . S
C352 C353 1.399 . S
C352 H358 0.929 . S
C353 C333 1.449 . S
C353 C352 1.399 . S
C353 H359 0.930 . S
H354 C334 0.931 . S
H355 C335 0.930 . S
H356 C343 0.931 . S
H357 C344 0.929 . S
H358 C352 0.929 . S
H359 C353 0.930 . S
Mn360 O365 2.095 . S
Mn360 O375 2.162 . S
Mn360 O376 2.297 . S
Mn360 O384 2.385 . S
Mn360 O385 2.209 . S
Mn360 O386 2.094 . S
Mn361 O366 2.121 . S
Mn361 N368 2.257 . S
Mn361 N377 2.282 . S
Mn361 O385 2.215 . S
Mn361 O387 2.117 . S
C362 O384 1.234 . S
C362 O385 1.283 . S
C363 O375 1.281 . S
C363 O376 1.236 . S
C364 O386 1.240 . S
C364 O387 1.264 . S
O365 Mn360 2.095 . S
O365 C374 1.250 . S
O366 Mn361 2.121 . S
O366 C374 1.258 . S
C367 N368 1.326 . S
C367 C371 1.460 . S
C367 H373 0.929 . S
N368 Mn361 2.257 . S
N368 C367 1.326 . S
N368 C372 1.362 . S
C369 C370 1.258 . S
C369 C372 1.431 . S
C369 C389 1.449 . S
C370 C369 1.258 . S
C370 C371 1.477 . S
C370 H390 0.931 . S
C371 C367 1.460 . S
C371 C370 1.477 . S
C371 H391 0.930 . S
C372 N368 1.362 . S
C372 C369 1.431 . S
C372 C382 1.476 . S
H373 C367 0.929 . S
C374 O365 1.250 . S
C374 O366 1.258 . S
O375 Mn360 2.162 . S
O375 C363 1.281 . S
O376 Mn360 2.297 . S
O376 C363 1.236 . S
N377 Mn361 2.282 . S
N377 C378 1.328 . S
N377 C382 1.318 . S
C378 N377 1.328 . S
C378 C379 1.457 . S
C378 H383 0.929 . S
C379 C378 1.457 . S
C379 C380 1.291 . S
C379 H392 0.931 . S
C380 C379 1.291 . S
C380 C381 1.373 . S
C380 H393 0.929 . S
C381 C380 1.373 . S
C381 C382 1.396 . S
C381 C388 1.403 . S
C382 C372 1.476 . S
C382 N377 1.318 . S
C382 C381 1.396 . S
H383 C378 0.929 . S
O384 Mn360 2.385 . S
O384 C362 1.234 . S
O385 Mn360 2.209 . S
O385 Mn361 2.215 . S
O385 C362 1.283 . S
O386 Mn360 2.094 . S
O386 C364 1.240 . S
O387 Mn361 2.117 . S
O387 C364 1.264 . S
C388 C381 1.403 . S
C388 C389 1.399 . S
C388 H394 0.929 . S
C389 C369 1.449 . S
C389 C388 1.399 . S
C389 H395 0.930 . S
H390 C370 0.931 . S
H391 C371 0.930 . S
H392 C379 0.931 . S
H393 C380 0.929 . S
H394 C388 0.929 . S
H395 C389 0.930 . S
Mn396 O401 2.095 . S
Mn396 O411 2.162 . S
Mn396 O412 2.297 . S
Mn396 O420 2.385 . S
Mn396 O421 2.209 . S
Mn396 O422 2.094 . S
Mn397 O402 2.121 . S
Mn397 N404 2.257 . S
Mn397 N413 2.282 . S
Mn397 O421 2.215 . S
Mn397 O423 2.117 . S
C398 O420 1.234 . S
C398 O421 1.283 . S
C399 O411 1.281 . S
C399 O412 1.236 . S
C400 O422 1.240 . S
C400 O423 1.264 . S
O401 Mn396 2.095 . S
O401 C410 1.250 . S
O402 Mn397 2.121 . S
O402 C410 1.258 . S
C403 N404 1.326 . S
C403 C407 1.460 . S
C403 H409 0.929 . S
N404 Mn397 2.257 . S
N404 C403 1.326 . S
N404 C408 1.362 . S
C405 C406 1.258 . S
C405 C408 1.431 . S
C405 C425 1.449 . S
C406 C405 1.258 . S
C406 C407 1.477 . S
C406 H426 0.931 . S
C407 C403 1.460 . S
C407 C406 1.477 . S
C407 H427 0.930 . S
C408 N404 1.362 . S
C408 C405 1.431 . S
C408 C418 1.476 . S
H409 C403 0.929 . S
C410 O401 1.250 . S
C410 O402 1.258 . S
O411 Mn396 2.162 . S
O411 C399 1.281 . S
O412 Mn396 2.297 . S
O412 C399 1.236 . S
N413 Mn397 2.282 . S
N413 C414 1.328 . S
N413 C418 1.318 . S
C414 N413 1.328 . S
C414 C415 1.457 . S
C414 H419 0.929 . S
C415 C414 1.457 . S
C415 C416 1.291 . S
C415 H428 0.931 . S
C416 C415 1.291 . S
C416 C417 1.373 . S
C416 H429 0.929 . S
C417 C416 1.373 . S
C417 C418 1.396 . S
C417 C424 1.403 . S
C418 C408 1.476 . S
C418 N413 1.318 . S
C418 C417 1.396 . S
H419 C414 0.929 . S
O420 Mn396 2.385 . S
O420 C398 1.234 . S
O421 Mn396 2.209 . S
O421 Mn397 2.215 . S
O421 C398 1.283 . S
O422 Mn396 2.094 . S
O422 C400 1.240 . S
O423 Mn397 2.117 . S
O423 C400 1.264 . S
C424 C417 1.403 . S
C424 C425 1.399 . S
C424 H430 0.929 . S
C425 C405 1.449 . S
C425 C424 1.399 . S
C425 H431 0.930 . S
H426 C406 0.931 . S
H427 C407 0.930 . S
H428 C415 0.931 . S
H429 C416 0.929 . S
H430 C424 0.929 . S
H431 C425 0.930 . S
C432 C433 1.391 . S
C432 C434 1.394 . S
C432 H448 0.931 . S
C433 C432 1.391 . S
C433 C437 1.376 . S
C434 C432 1.394 . S
C434 C435 1.369 . S
C434 C438 1.531 . S
C435 C434 1.369 . S
C435 C436 1.410 . S
C435 C443 1.503 . S
C436 C435 1.410 . S
C436 C437 1.392 . S
C436 C439 1.511 . S
C437 C433 1.376 . S
C437 C436 1.392 . S
C437 H449 0.929 . S
C438 C434 1.531 . S
C438 H450 0.960 . S
C438 H451 0.962 . S
C438 H452 0.960 . S
C439 C436 1.511 . S
C439 H453 0.961 . S
C439 H454 0.961 . S
C439 H455 0.961 . S
C440 C441 1.370 . S
C440 C442 1.363 . S
C440 H456 0.931 . S
C441 C440 1.370 . S
C441 C445 1.408 . S
C442 C440 1.363 . S
C442 C443 1.370 . S
C442 C446 1.524 . S
C443 C435 1.503 . S
C443 C442 1.370 . S
C443 C444 1.403 . S
C444 C443 1.403 . S
C444 C445 1.404 . S
C444 C447 1.539 . S
C445 C441 1.408 . S
C445 C444 1.404 . S
C445 H457 0.930 . S
C446 C442 1.524 . S
C446 H458 0.956 . S
C446 H459 0.961 . S
C446 H460 0.961 . S
C447 C444 1.539 . S
C447 H461 0.958 . S
C447 H462 0.961 . S
C447 H463 0.960 . S
H448 C432 0.931 . S
H449 C437 0.929 . S
H450 C438 0.960 . S
H451 C438 0.962 . S
H452 C438 0.960 . S
H453 C439 0.961 . S
H454 C439 0.961 . S
H455 C439 0.961 . S
H456 C440 0.931 . S
H457 C445 0.930 . S
H458 C446 0.956 . S
H459 C446 0.961 . S
H460 C446 0.961 . S
H461 C447 0.958 . S
H462 C447 0.961 . S
H463 C447 0.960 . S
C464 C465 1.391 . S
C464 C466 1.394 . S
C464 H480 0.931 . S
C465 C464 1.391 . S
C465 C469 1.376 . S
C466 C464 1.394 . S
C466 C467 1.369 . S
C466 C470 1.531 . S
C467 C466 1.369 . S
C467 C468 1.410 . S
C467 C475 1.503 . S
C468 C467 1.410 . S
C468 C469 1.392 . S
C468 C471 1.511 . S
C469 C465 1.376 . S
C469 C468 1.392 . S
C469 H481 0.929 . S
C470 C466 1.531 . S
C470 H482 0.960 . S
C470 H483 0.962 . S
C470 H484 0.960 . S
C471 C468 1.511 . S
C471 H485 0.961 . S
C471 H486 0.961 . S
C471 H487 0.961 . S
C472 C473 1.370 . S
C472 C474 1.363 . S
C472 H488 0.931 . S
C473 C472 1.370 . S
C473 C477 1.408 . S
C474 C472 1.363 . S
C474 C475 1.370 . S
C474 C478 1.524 . S
C475 C467 1.503 . S
C475 C474 1.370 . S
C475 C476 1.403 . S
C476 C475 1.403 . S
C476 C477 1.404 . S
C476 C479 1.539 . S
C477 C473 1.408 . S
C477 C476 1.404 . S
C477 H489 0.930 . S
C478 C474 1.524 . S
C478 H490 0.956 . S
C478 H491 0.961 . S
C478 H492 0.961 . S
C479 C476 1.539 . S
C479 H493 0.958 . S
C479 H494 0.961 . S
C479 H495 0.960 . S
H480 C464 0.931 . S
H481 C469 0.929 . S
H482 C470 0.960 . S
H483 C470 0.962 . S
H484 C470 0.960 . S
H485 C471 0.961 . S
H486 C471 0.961 . S
H487 C471 0.961 . S
H488 C472 0.931 . S
H489 C477 0.930 . S
H490 C478 0.956 . S
H491 C478 0.961 . S
H492 C478 0.961 . S
H493 C479 0.958 . S
H494 C479 0.961 . S
H495 C479 0.960 . S
C496 C497 1.391 . S
C496 C498 1.394 . S
C496 H512 0.931 . S
C497 C496 1.391 . S
C497 C501 1.376 . S
C498 C496 1.394 . S
C498 C499 1.369 . S
C498 C502 1.531 . S
C499 C498 1.369 . S
C499 C500 1.410 . S
C499 C507 1.503 . S
C500 C499 1.410 . S
C500 C501 1.392 . S
C500 C503 1.511 . S
C501 C497 1.376 . S
C501 C500 1.392 . S
C501 H513 0.929 . S
C502 C498 1.531 . S
C502 H514 0.960 . S
C502 H515 0.962 . S
C502 H516 0.960 . S
C503 C500 1.511 . S
C503 H517 0.961 . S
C503 H518 0.961 . S
C503 H519 0.961 . S
C504 C505 1.370 . S
C504 C506 1.363 . S
C504 H520 0.931 . S
C505 C504 1.370 . S
C505 C509 1.408 . S
C506 C504 1.363 . S
C506 C507 1.370 . S
C506 C510 1.524 . S
C507 C499 1.503 . S
C507 C506 1.370 . S
C507 C508 1.403 . S
C508 C507 1.403 . S
C508 C509 1.404 . S
C508 C511 1.539 . S
C509 C505 1.408 . S
C509 C508 1.404 . S
C509 H521 0.930 . S
C510 C506 1.524 . S
C510 H522 0.956 . S
C510 H523 0.961 . S
C510 H524 0.961 . S
C511 C508 1.539 . S
C511 H525 0.958 . S
C511 H526 0.961 . S
C511 H527 0.960 . S
H512 C496 0.931 . S
H513 C501 0.929 . S
H514 C502 0.960 . S
H515 C502 0.962 . S
H516 C502 0.960 . S
H517 C503 0.961 . S
H518 C503 0.961 . S
H519 C503 0.961 . S
H520 C504 0.931 . S
H521 C509 0.930 . S
H522 C510 0.956 . S
H523 C510 0.961 . S
H524 C510 0.961 . S
H525 C511 0.958 . S
H526 C511 0.961 . S
H527 C511 0.960 . S
C528 C529 1.391 . S
C528 C530 1.394 . S
C528 H544 0.931 . S
C529 C528 1.391 . S
C529 C533 1.376 . S
C530 C528 1.394 . S
C530 C531 1.369 . S
C530 C534 1.531 . S
C531 C530 1.369 . S
C531 C532 1.410 . S
C531 C539 1.503 . S
C532 C531 1.410 . S
C532 C533 1.392 . S
C532 C535 1.511 . S
C533 C529 1.376 . S
C533 C532 1.392 . S
C533 H545 0.929 . S
C534 C530 1.531 . S
C534 H546 0.960 . S
C534 H547 0.962 . S
C534 H548 0.960 . S
C535 C532 1.511 . S
C535 H549 0.961 . S
C535 H550 0.961 . S
C535 H551 0.961 . S
C536 C537 1.370 . S
C536 C538 1.363 . S
C536 H552 0.931 . S
C537 C536 1.370 . S
C537 C541 1.408 . S
C538 C536 1.363 . S
C538 C539 1.370 . S
C538 C542 1.524 . S
C539 C531 1.503 . S
C539 C538 1.370 . S
C539 C540 1.403 . S
C540 C539 1.403 . S
C540 C541 1.404 . S
C540 C543 1.539 . S
C541 C537 1.408 . S
C541 C540 1.404 . S
C541 H553 0.930 . S
C542 C538 1.524 . S
C542 H554 0.956 . S
C542 H555 0.961 . S
C542 H556 0.961 . S
C543 C540 1.539 . S
C543 H557 0.958 . S
C543 H558 0.961 . S
C543 H559 0.960 . S
H544 C528 0.931 . S
H545 C533 0.929 . S
H546 C534 0.960 . S
H547 C534 0.962 . S
H548 C534 0.960 . S
H549 C535 0.961 . S
H550 C535 0.961 . S
H551 C535 0.961 . S
H552 C536 0.931 . S
H553 C541 0.930 . S
H554 C542 0.956 . S
H555 C542 0.961 . S
H556 C542 0.961 . S
H557 C543 0.958 . S
H558 C543 0.961 . S
H559 C543 0.960 . S
C560 C561 1.391 . S
C560 C562 1.394 . S
C560 H576 0.931 . S
C561 C560 1.391 . S
C561 C565 1.376 . S
C562 C560 1.394 . S
C562 C563 1.369 . S
C562 C566 1.531 . S
C563 C562 1.369 . S
C563 C564 1.410 . S
C563 C571 1.503 1_554 S
C564 C563 1.410 . S
C564 C565 1.392 . S
C564 C567 1.511 1_554 S
C565 C561 1.376 . S
C565 C564 1.392 . S
C565 H577 0.929 . S
C566 C562 1.531 . S
C566 H578 0.960 1_554 S
C566 H579 0.962 1_554 S
C566 H580 0.960 . S
C567 C564 1.511 1_556 S
C567 H581 0.961 . S
C567 H582 0.961 . S
C567 H583 0.961 1_556 S
C568 C569 1.370 . S
C568 C570 1.363 . S
C568 H584 0.931 . S
C569 C568 1.370 . S
C569 C573 1.408 . S
C570 C568 1.363 . S
C570 C571 1.370 . S
C570 C574 1.524 . S
C571 C563 1.503 1_556 S
C571 C570 1.370 . S
C571 C572 1.403 . S
C572 C571 1.403 . S
C572 C573 1.404 . S
C572 C575 1.539 . S
C573 C569 1.408 . S
C573 C572 1.404 . S
C573 H585 0.930 . S
C574 C570 1.524 . S
C574 H586 0.956 . S
C574 H587 0.961 . S
C574 H588 0.961 . S
C575 C572 1.539 . S
C575 H589 0.958 1_556 S
C575 H590 0.961 . S
C575 H591 0.960 1_556 S
H576 C560 0.931 . S
H577 C565 0.929 . S
H578 C566 0.960 1_556 S
H579 C566 0.962 1_556 S
H580 C566 0.960 . S
H581 C567 0.961 . S
H582 C567 0.961 . S
H583 C567 0.961 1_554 S
H584 C568 0.931 . S
H585 C573 0.930 . S
H586 C574 0.956 . S
H587 C574 0.961 . S
H588 C574 0.961 . S
H589 C575 0.958 1_554 S
H590 C575 0.961 . S
H591 C575 0.960 1_554 S
C592 C593 1.391 . S
C592 C594 1.394 . S
C592 H608 0.931 . S
C593 C592 1.391 . S
C593 C597 1.376 . S
C594 C592 1.394 . S
C594 C595 1.369 . S
C594 C598 1.531 . S
C595 C594 1.369 . S
C595 C596 1.410 . S
C595 C603 1.503 . S
C596 C595 1.410 . S
C596 C597 1.392 . S
C596 C599 1.511 . S
C597 C593 1.376 . S
C597 C596 1.392 . S
C597 H609 0.929 . S
C598 C594 1.531 . S
C598 H610 0.960 . S
C598 H611 0.962 . S
C598 H612 0.960 . S
C599 C596 1.511 . S
C599 H613 0.961 . S
C599 H614 0.961 . S
C599 H615 0.961 . S
C600 C601 1.370 . S
C600 C602 1.363 . S
C600 H616 0.931 . S
C601 C600 1.370 . S
C601 C605 1.408 . S
C602 C600 1.363 . S
C602 C603 1.370 . S
C602 C606 1.524 . S
C603 C595 1.503 . S
C603 C602 1.370 . S
C603 C604 1.403 . S
C604 C603 1.403 . S
C604 C605 1.404 . S
C604 C607 1.539 . S
C605 C601 1.408 . S
C605 C604 1.404 . S
C605 H617 0.930 . S
C606 C602 1.524 . S
C606 H618 0.956 . S
C606 H619 0.961 . S
C606 H620 0.961 . S
C607 C604 1.539 . S
C607 H621 0.958 . S
C607 H622 0.961 . S
C607 H623 0.960 . S
H608 C592 0.931 . S
H609 C597 0.929 . S
H610 C598 0.960 . S
H611 C598 0.962 . S
H612 C598 0.960 . S
H613 C599 0.961 . S
H614 C599 0.961 . S
H615 C599 0.961 . S
H616 C600 0.931 . S
H617 C605 0.930 . S
H618 C606 0.956 . S
H619 C606 0.961 . S
H620 C606 0.961 . S
H621 C607 0.958 . S
H622 C607 0.961 . S
H623 C607 0.960 . S
C624 C625 1.391 . S
C624 C626 1.394 . S
C624 H640 0.931 . S
C625 C624 1.391 . S
C625 C629 1.376 . S
C626 C624 1.394 . S
C626 C627 1.369 . S
C626 C630 1.531 . S
C627 C626 1.369 . S
C627 C628 1.410 . S
C627 C635 1.503 . S
C628 C627 1.410 . S
C628 C629 1.392 . S
C628 C631 1.511 . S
C629 C625 1.376 . S
C629 C628 1.392 . S
C629 H641 0.929 . S
C630 C626 1.531 . S
C630 H642 0.960 . S
C630 H643 0.962 . S
C630 H644 0.960 . S
C631 C628 1.511 . S
C631 H645 0.961 . S
C631 H646 0.961 . S
C631 H647 0.961 . S
C632 C633 1.370 . S
C632 C634 1.363 . S
C632 H648 0.931 . S
C633 C632 1.370 . S
C633 C637 1.408 . S
C634 C632 1.363 . S
C634 C635 1.370 . S
C634 C638 1.524 . S
C635 C627 1.503 . S
C635 C634 1.370 . S
C635 C636 1.403 . S
C636 C635 1.403 . S
C636 C637 1.404 . S
C636 C639 1.539 . S
C637 C633 1.408 . S
C637 C636 1.404 . S
C637 H649 0.930 . S
C638 C634 1.524 . S
C638 H650 0.956 . S
C638 H651 0.961 . S
C638 H652 0.961 . S
C639 C636 1.539 . S
C639 H653 0.958 . S
C639 H654 0.961 . S
C639 H655 0.960 . S
H640 C624 0.931 . S
H641 C629 0.929 . S
H642 C630 0.960 . S
H643 C630 0.962 . S
H644 C630 0.960 . S
H645 C631 0.961 . S
H646 C631 0.961 . S
H647 C631 0.961 . S
H648 C632 0.931 . S
H649 C637 0.930 . S
H650 C638 0.956 . S
H651 C638 0.961 . S
H652 C638 0.961 . S
H653 C639 0.958 . S
H654 C639 0.961 . S
H655 C639 0.960 . S
C656 C657 1.391 . S
C656 C658 1.394 . S
C656 H672 0.931 . S
C657 C656 1.391 . S
C657 C661 1.376 . S
C658 C656 1.394 . S
C658 C659 1.369 . S
C658 C662 1.531 . S
C659 C658 1.369 . S
C659 C660 1.410 . S
C659 C667 1.503 . S
C660 C659 1.410 . S
C660 C661 1.392 . S
C660 C663 1.511 . S
C661 C657 1.376 . S
C661 C660 1.392 . S
C661 H673 0.929 . S
C662 C658 1.531 . S
C662 H674 0.960 . S
C662 H675 0.962 . S
C662 H676 0.960 . S
C663 C660 1.511 . S
C663 H677 0.961 . S
C663 H678 0.961 . S
C663 H679 0.961 . S
C664 C665 1.370 . S
C664 C666 1.363 . S
C664 H680 0.931 . S
C665 C664 1.370 . S
C665 C669 1.408 . S
C666 C664 1.363 . S
C666 C667 1.370 . S
C666 C670 1.524 . S
C667 C659 1.503 . S
C667 C666 1.370 . S
C667 C668 1.403 . S
C668 C667 1.403 . S
C668 C669 1.404 . S
C668 C671 1.539 . S
C669 C665 1.408 . S
C669 C668 1.404 . S
C669 H681 0.930 . S
C670 C666 1.524 . S
C670 H682 0.956 . S
C670 H683 0.961 . S
C670 H684 0.961 . S
C671 C668 1.539 . S
C671 H685 0.958 . S
C671 H686 0.961 . S
C671 H687 0.960 . S
H672 C656 0.931 . S
H673 C661 0.929 . S
H674 C662 0.960 . S
H675 C662 0.962 . S
H676 C662 0.960 . S
H677 C663 0.961 . S
H678 C663 0.961 . S
H679 C663 0.961 . S
H680 C664 0.931 . S
H681 C669 0.930 . S
H682 C670 0.956 . S
H683 C670 0.961 . S
H684 C670 0.961 . S
H685 C671 0.958 . S
H686 C671 0.961 . S
H687 C671 0.960 . S
C688 C689 1.391 . S
C688 C690 1.394 . S
C688 H704 0.931 . S
C689 C688 1.391 . S
C689 C693 1.376 . S
C690 C688 1.394 . S
C690 C691 1.369 . S
C690 C694 1.531 . S
C691 C690 1.369 . S
C691 C692 1.410 . S
C691 C699 1.503 . S
C692 C691 1.410 . S
C692 C693 1.392 . S
C692 C695 1.511 . S
C693 C689 1.376 . S
C693 C692 1.392 . S
C693 H705 0.929 . S
C694 C690 1.531 . S
C694 H706 0.960 . S
C694 H707 0.962 . S
C694 H708 0.960 . S
C695 C692 1.511 . S
C695 H709 0.961 . S
C695 H710 0.961 . S
C695 H711 0.961 . S
C696 C697 1.370 . S
C696 C698 1.363 . S
C696 H712 0.931 . S
C697 C696 1.370 . S
C697 C701 1.408 . S
C698 C696 1.363 . S
C698 C699 1.370 . S
C698 C702 1.524 . S
C699 C691 1.503 . S
C699 C698 1.370 . S
C699 C700 1.403 . S
C700 C699 1.403 . S
C700 C701 1.404 . S
C700 C703 1.539 . S
C701 C697 1.408 . S
C701 C700 1.404 . S
C701 H713 0.930 . S
C702 C698 1.524 . S
C702 H714 0.956 . S
C702 H715 0.961 . S
C702 H716 0.961 . S
C703 C700 1.539 . S
C703 H717 0.958 . S
C703 H718 0.961 . S
C703 H719 0.960 . S
H704 C688 0.931 . S
H705 C693 0.929 . S
H706 C694 0.960 . S
H707 C694 0.962 . S
H708 C694 0.960 . S
H709 C695 0.961 . S
H710 C695 0.961 . S
H711 C695 0.961 . S
H712 C696 0.931 . S
H713 C701 0.930 . S
H714 C702 0.956 . S
H715 C702 0.961 . S
H716 C702 0.961 . S
H717 C703 0.958 . S
H718 C703 0.961 . S
H719 C703 0.960 . S
C720 C721 1.391 . S
C720 C722 1.394 . S
C720 H736 0.931 . S
C721 C720 1.391 . S
C721 C725 1.376 . S
C722 C720 1.394 . S
C722 C723 1.369 . S
C722 C726 1.531 . S
C723 C722 1.369 . S
C723 C724 1.410 . S
C723 C731 1.503 . S
C724 C723 1.410 . S
C724 C725 1.392 . S
C724 C727 1.511 . S
C725 C721 1.376 . S
C725 C724 1.392 . S
C725 H737 0.929 . S
C726 C722 1.531 . S
C726 H738 0.960 . S
C726 H739 0.962 . S
C726 H740 0.960 . S
C727 C724 1.511 . S
C727 H741 0.961 . S
C727 H742 0.961 . S
C727 H743 0.961 . S
C728 C729 1.370 . S
C728 C730 1.363 . S
C728 H744 0.931 . S
C729 C728 1.370 . S
C729 C733 1.408 . S
C730 C728 1.363 . S
C730 C731 1.370 . S
C730 C734 1.524 . S
C731 C723 1.503 . S
C731 C730 1.370 . S
C731 C732 1.403 . S
C732 C731 1.403 . S
C732 C733 1.404 . S
C732 C735 1.539 . S
C733 C729 1.408 . S
C733 C732 1.404 . S
C733 H745 0.930 . S
C734 C730 1.524 . S
C734 H746 0.956 . S
C734 H747 0.961 . S
C734 H748 0.961 . S
C735 C732 1.539 . S
C735 H749 0.958 . S
C735 H750 0.961 . S
C735 H751 0.960 . S
H736 C720 0.931 . S
H737 C725 0.929 . S
H738 C726 0.960 . S
H739 C726 0.962 . S
H740 C726 0.960 . S
H741 C727 0.961 . S
H742 C727 0.961 . S
H743 C727 0.961 . S
H744 C728 0.931 . S
H745 C733 0.930 . S
H746 C734 0.956 . S
H747 C734 0.961 . S
H748 C734 0.961 . S
H749 C735 0.958 . S
H750 C735 0.961 . S
H751 C735 0.960 . S
C752 C753 1.391 . S
C752 C754 1.394 . S
C752 H768 0.931 . S
C753 C752 1.391 . S
C753 C757 1.376 . S
C754 C752 1.394 . S
C754 C755 1.369 . S
C754 C758 1.531 . S
C755 C754 1.369 . S
C755 C756 1.410 . S
C755 C763 1.503 . S
C756 C755 1.410 . S
C756 C757 1.392 . S
C756 C759 1.511 . S
C757 C753 1.376 . S
C757 C756 1.392 . S
C757 H769 0.929 . S
C758 C754 1.531 . S
C758 H770 0.960 . S
C758 H771 0.962 . S
C758 H772 0.960 . S
C759 C756 1.511 . S
C759 H773 0.961 . S
C759 H774 0.961 . S
C759 H775 0.961 . S
C760 C761 1.370 . S
C760 C762 1.363 . S
C760 H776 0.931 . S
C761 C760 1.370 . S
C761 C765 1.408 . S
C762 C760 1.363 . S
C762 C763 1.370 . S
C762 C766 1.524 . S
C763 C755 1.503 . S
C763 C762 1.370 . S
C763 C764 1.403 . S
C764 C763 1.403 . S
C764 C765 1.404 . S
C764 C767 1.539 . S
C765 C761 1.408 . S
C765 C764 1.404 . S
C765 H777 0.930 . S
C766 C762 1.524 . S
C766 H778 0.956 . S
C766 H779 0.961 . S
C766 H780 0.961 . S
C767 C764 1.539 . S
C767 H781 0.958 . S
C767 H782 0.961 . S
C767 H783 0.960 . S
H768 C752 0.931 . S
H769 C757 0.929 . S
H770 C758 0.960 . S
H771 C758 0.962 . S
H772 C758 0.960 . S
H773 C759 0.961 . S
H774 C759 0.961 . S
H775 C759 0.961 . S
H776 C760 0.931 . S
H777 C765 0.930 . S
H778 C766 0.956 . S
H779 C766 0.961 . S
H780 C766 0.961 . S
H781 C767 0.958 . S
H782 C767 0.961 . S
H783 C767 0.960 . S
C784 C785 1.391 . S
C784 C786 1.394 . S
C784 H800 0.931 . S
C785 C784 1.391 . S
C785 C789 1.376 . S
C786 C784 1.394 . S
C786 C787 1.369 . S
C786 C790 1.531 . S
C787 C786 1.369 . S
C787 C788 1.410 . S
C787 C795 1.503 . S
C788 C787 1.410 . S
C788 C789 1.392 . S
C788 C791 1.511 1_556 S
C789 C785 1.376 . S
C789 C788 1.392 . S
C789 H801 0.929 . S
C790 C786 1.531 . S
C790 H802 0.960 . S
C790 H803 0.962 . S
C790 H804 0.960 . S
C791 C788 1.511 1_554 S
C791 H805 0.961 . S
C791 H806 0.961 . S
C791 H807 0.961 . S
C792 C793 1.370 . S
C792 C794 1.363 . S
C792 H808 0.931 . S
C793 C792 1.370 . S
C793 C797 1.408 1_554 S
C794 C792 1.363 . S
C794 C795 1.370 1_554 S
C794 C798 1.524 . S
C795 C787 1.503 . S
C795 C794 1.370 1_556 S
C795 C796 1.403 . S
C796 C795 1.403 . S
C796 C797 1.404 . S
C796 C799 1.539 . S
C797 C793 1.408 1_556 S
C797 C796 1.404 . S
C797 H809 0.930 . S
C798 C794 1.524 . S
C798 H810 0.956 . S
C798 H811 0.961 . S
C798 H812 0.961 . S
C799 C796 1.539 . S
C799 H813 0.958 . S
C799 H814 0.961 . S
C799 H815 0.960 . S
H800 C784 0.931 . S
H801 C789 0.929 . S
H802 C790 0.960 . S
H803 C790 0.962 . S
H804 C790 0.960 . S
H805 C791 0.961 . S
H806 C791 0.961 . S
H807 C791 0.961 . S
H808 C792 0.931 . S
H809 C797 0.930 . S
H810 C798 0.956 . S
H811 C798 0.961 . S
H812 C798 0.961 . S
H813 C799 0.958 . S
H814 C799 0.961 . S
H815 C799 0.960 . S
C816 C817 1.391 . S
C816 C818 1.394 . S
C816 H832 0.931 . S
C817 C816 1.391 . S
C817 C821 1.376 . S
C818 C816 1.394 . S
C818 C819 1.369 . S
C818 C822 1.531 . S
C819 C818 1.369 . S
C819 C820 1.410 . S
C819 C827 1.503 . S
C820 C819 1.410 . S
C820 C821 1.392 . S
C820 C823 1.511 . S
C821 C817 1.376 . S
C821 C820 1.392 . S
C821 H833 0.929 . S
C822 C818 1.531 . S
C822 H834 0.960 . S
C822 H835 0.962 . S
C822 H836 0.960 . S
C823 C820 1.511 . S
C823 H837 0.961 . S
C823 H838 0.961 . S
C823 H839 0.961 . S
C824 C825 1.370 . S
C824 C826 1.363 . S
C824 H840 0.931 . S
C825 C824 1.370 . S
C825 C829 1.408 . S
C826 C824 1.363 . S
C826 C827 1.370 . S
C826 C830 1.524 . S
C827 C819 1.503 . S
C827 C826 1.370 . S
C827 C828 1.403 . S
C828 C827 1.403 . S
C828 C829 1.404 . S
C828 C831 1.539 . S
C829 C825 1.408 . S
C829 C828 1.404 . S
C829 H841 0.930 . S
C830 C826 1.524 . S
C830 H842 0.956 . S
C830 H843 0.961 . S
C830 H844 0.961 . S
C831 C828 1.539 . S
C831 H845 0.958 . S
C831 H846 0.961 . S
C831 H847 0.960 . S
H832 C816 0.931 . S
H833 C821 0.929 . S
H834 C822 0.960 . S
H835 C822 0.962 . S
H836 C822 0.960 . S
H837 C823 0.961 . S
H838 C823 0.961 . S
H839 C823 0.961 . S
H840 C824 0.931 . S
H841 C829 0.930 . S
H842 C830 0.956 . S
H843 C830 0.961 . S
H844 C830 0.961 . S
H845 C831 0.958 . S
H846 C831 0.961 . S
H847 C831 0.960 . S
C848 C849 1.391 . S
C848 C850 1.394 . S
C848 H864 0.931 . S
C849 C848 1.391 . S
C849 C853 1.376 . S
C850 C848 1.394 . S
C850 C851 1.369 . S
C850 C854 1.531 . S
C851 C850 1.369 . S
C851 C852 1.410 . S
C851 C859 1.490 1_556 S
C852 C851 1.410 . S
C852 C853 1.392 . S
C852 C855 1.511 . S
C853 C849 1.376 . S
C853 C852 1.392 . S
C853 H865 0.929 . S
C854 C850 1.531 . S
C854 H866 0.960 . S
C854 H867 0.962 . S
C854 H868 0.960 . S
C855 C852 1.511 . S
C855 H869 0.961 . S
C855 H870 0.961 1_556 S
C855 H871 0.961 1_556 S
C856 C857 1.370 . S
C856 C858 1.363 . S
C856 H872 0.931 . S
C857 C856 1.370 . S
C857 C861 1.408 . S
C858 C856 1.363 . S
C858 C859 1.374 . S
C858 C862 1.524 1_554 S
C859 C851 1.490 1_554 S
C859 C858 1.374 . S
C859 C860 1.413 . S
C860 C859 1.413 . S
C860 C861 1.404 . S
C860 C863 1.539 . S
C861 C857 1.408 . S
C861 C860 1.404 . S
C861 H873 0.930 . S
C862 C858 1.524 1_556 S
C862 H874 0.956 . S
C862 H875 0.961 . S
C862 H876 0.961 . S
C863 C860 1.539 . S
C863 H877 0.958 . S
C863 H878 0.961 . S
C863 H879 0.960 . S
H864 C848 0.931 . S
H865 C853 0.929 . S
H866 C854 0.960 . S
H867 C854 0.962 . S
H868 C854 0.960 . S
H869 C855 0.961 . S
H870 C855 0.961 1_554 S
H871 C855 0.961 1_554 S
H872 C856 0.931 . S
H873 C861 0.930 . S
H874 C862 0.956 . S
H875 C862 0.961 . S
H876 C862 0.961 . S
H877 C863 0.958 . S
H878 C863 0.961 . S
H879 C863 0.960 . S
C880 C881 1.391 . S
C880 C882 1.394 . S
C880 H896 0.931 . S
C881 C880 1.391 . S
C881 C885 1.376 . S
C882 C880 1.394 . S
C882 C883 1.369 . S
C882 C886 1.531 . S
C883 C882 1.369 . S
C883 C884 1.410 . S
C883 C891 1.503 . S
C884 C883 1.410 . S
C884 C885 1.392 . S
C884 C887 1.511 . S
C885 C881 1.376 . S
C885 C884 1.392 . S
C885 H897 0.929 . S
C886 C882 1.531 . S
C886 H898 0.960 . S
C886 H899 0.962 . S
C886 H900 0.960 . S
C887 C884 1.511 . S
C887 H901 0.961 . S
C887 H902 0.961 . S
C887 H903 0.961 . S
C888 C889 1.370 . S
C888 C890 1.363 . S
C888 H904 0.931 . S
C889 C888 1.370 . S
C889 C893 1.408 . S
C890 C888 1.363 . S
C890 C891 1.370 . S
C890 C894 1.524 . S
C891 C883 1.503 . S
C891 C890 1.370 . S
C891 C892 1.403 . S
C892 C891 1.403 . S
C892 C893 1.404 . S
C892 C895 1.539 . S
C893 C889 1.408 . S
C893 C892 1.404 . S
C893 H905 0.930 . S
C894 C890 1.524 . S
C894 H906 0.956 . S
C894 H907 0.961 . S
C894 H908 0.961 . S
C895 C892 1.539 . S
C895 H909 0.958 . S
C895 H910 0.961 . S
C895 H911 0.960 . S
H896 C880 0.931 . S
H897 C885 0.929 . S
H898 C886 0.960 . S
H899 C886 0.962 . S
H900 C886 0.960 . S
H901 C887 0.961 . S
H902 C887 0.961 . S
H903 C887 0.961 . S
H904 C888 0.931 . S
H905 C893 0.930 . S
H906 C894 0.956 . S
H907 C894 0.961 . S
H908 C894 0.961 . S
H909 C895 0.958 . S
H910 C895 0.961 . S
H911 C895 0.960 . S
C912 C913 1.391 . S
C912 C914 1.394 . S
C912 H928 0.931 . S
C913 C912 1.391 . S
C913 C917 1.376 . S
C914 C912 1.394 . S
C914 C915 1.369 . S
C914 C918 1.531 . S
C915 C914 1.369 . S
C915 C916 1.410 . S
C915 C923 1.503 . S
C916 C915 1.410 . S
C916 C917 1.392 . S
C916 C919 1.511 . S
C917 C913 1.376 . S
C917 C916 1.392 . S
C917 H929 0.929 . S
C918 C914 1.531 . S
C918 H930 0.960 . S
C918 H931 0.962 . S
C918 H932 0.960 . S
C919 C916 1.511 . S
C919 H933 0.961 . S
C919 H934 0.961 . S
C919 H935 0.961 . S
C920 C921 1.370 . S
C920 C922 1.363 . S
C920 H936 0.931 . S
C921 C920 1.370 . S
C921 C925 1.408 . S
C922 C920 1.363 . S
C922 C923 1.370 . S
C922 C926 1.524 . S
C923 C915 1.503 . S
C923 C922 1.370 . S
C923 C924 1.403 . S
C924 C923 1.403 . S
C924 C925 1.404 . S
C924 C927 1.539 . S
C925 C921 1.408 . S
C925 C924 1.404 . S
C925 H937 0.930 . S
C926 C922 1.524 . S
C926 H938 0.956 . S
C926 H939 0.961 . S
C926 H940 0.961 . S
C927 C924 1.539 . S
C927 H941 0.958 . S
C927 H942 0.961 . S
C927 H943 0.960 . S
H928 C912 0.931 . S
H929 C917 0.929 . S
H930 C918 0.960 . S
H931 C918 0.962 . S
H932 C918 0.960 . S
H933 C919 0.961 . S
H934 C919 0.961 . S
H935 C919 0.961 . S
H936 C920 0.931 . S
H937 C925 0.930 . S
H938 C926 0.956 . S
H939 C926 0.961 . S
H940 C926 0.961 . S
H941 C927 0.958 . S
H942 C927 0.961 . S
H943 C927 0.960 . S
C944 C945 1.391 . S
C944 C946 1.394 . S
C944 H960 0.931 . S
C945 C944 1.391 . S
C945 C949 1.376 . S
C946 C944 1.394 . S
C946 C947 1.369 . S
C946 C950 1.531 . S
C947 C946 1.369 . S
C947 C948 1.410 . S
C947 C955 1.503 . S
C948 C947 1.410 . S
C948 C949 1.392 . S
C948 C951 1.511 . S
C949 C945 1.376 . S
C949 C948 1.392 . S
C949 H961 0.929 . S
C950 C946 1.531 . S
C950 H962 0.960 . S
C950 H963 0.962 . S
C950 H964 0.960 . S
C951 C948 1.511 . S
C951 H965 0.961 . S
C951 H966 0.961 . S
C951 H967 0.961 . S
C952 C953 1.370 . S
C952 C954 1.363 . S
C952 H968 0.931 . S
C953 C952 1.370 . S
C953 C957 1.408 . S
C954 C952 1.363 . S
C954 C955 1.370 . S
C954 C958 1.524 . S
C955 C947 1.503 . S
C955 C954 1.370 . S
C955 C956 1.403 . S
C956 C955 1.403 . S
C956 C957 1.404 . S
C956 C959 1.539 . S
C957 C953 1.408 . S
C957 C956 1.404 . S
C957 H969 0.930 . S
C958 C954 1.524 . S
C958 H970 0.956 . S
C958 H971 0.961 . S
C958 H972 0.961 . S
C959 C956 1.539 . S
C959 H973 0.958 . S
C959 H974 0.961 . S
C959 H975 0.960 . S
H960 C944 0.931 . S
H961 C949 0.929 . S
H962 C950 0.960 . S
H963 C950 0.962 . S
H964 C950 0.960 . S
H965 C951 0.961 . S
H966 C951 0.961 . S
H967 C951 0.961 . S
H968 C952 0.931 . S
H969 C957 0.930 . S
H970 C958 0.956 . S
H971 C958 0.961 . S
H972 C958 0.961 . S
H973 C959 0.958 . S
H974 C959 0.961 . S
H975 C959 0.960 . S
C976 C977 1.391 . S
C976 C978 1.394 . S
C976 H992 0.931 . S
C977 C976 1.391 . S
C977 C981 1.376 . S
C978 C976 1.394 . S
C978 C979 1.369 . S
C978 C982 1.531 . S
C979 C978 1.369 . S
C979 C980 1.410 . S
C979 C987 1.503 . S
C980 C979 1.410 . S
C980 C981 1.392 . S
C980 C983 1.511 . S
C981 C977 1.376 . S
C981 C980 1.392 . S
C981 H993 0.929 . S
C982 C978 1.531 . S
C982 H994 0.960 . S
C982 H995 0.962 . S
C982 H996 0.960 . S
C983 C980 1.511 . S
C983 H997 0.961 . S
C983 H998 0.961 . S
C983 H999 0.961 . S
C984 C985 1.370 . S
C984 C986 1.363 . S
C984 H1000 0.931 . S
C985 C984 1.370 . S
C985 C989 1.408 . S
C986 C984 1.363 . S
C986 C987 1.370 . S
C986 C990 1.524 . S
C987 C979 1.503 . S
C987 C986 1.370 . S
C987 C988 1.403 . S
C988 C987 1.403 . S
C988 C989 1.404 . S
C988 C991 1.539 . S
C989 C985 1.408 . S
C989 C988 1.404 . S
C989 H1001 0.930 . S
C990 C986 1.524 . S
C990 H1002 0.956 . S
C990 H1003 0.961 . S
C990 H1004 0.961 . S
C991 C988 1.539 . S
C991 H1005 0.958 . S
C991 H1006 0.961 . S
C991 H1007 0.960 . S
H992 C976 0.931 . S
H993 C981 0.929 . S
H994 C982 0.960 . S
H995 C982 0.962 . S
H996 C982 0.960 . S
H997 C983 0.961 . S
H998 C983 0.961 . S
H999 C983 0.961 . S
H1000 C984 0.931 . S
H1001 C989 0.930 . S
H1002 C990 0.956 . S
H1003 C990 0.961 . S
H1004 C990 0.961 . S
H1005 C991 0.958 . S
H1006 C991 0.961 . S
H1007 C991 0.960 . S
C1008 C1009 1.391 . S
C1008 C1010 1.394 . S
C1008 H1024 0.931 . S
C1009 C1008 1.391 . S
C1009 C1013 1.376 . S
C1010 C1008 1.394 . S
C1010 C1011 1.369 . S
C1010 C1014 1.531 . S
C1011 C1010 1.369 . S
C1011 C1012 1.410 . S
C1011 C1019 1.503 1_545 S
C1012 C1011 1.410 . S
C1012 C1013 1.392 . S
C1012 C1015 1.511 . S
C1013 C1009 1.376 . S
C1013 C1012 1.392 . S
C1013 H1025 0.929 . S
C1014 C1010 1.531 . S
C1014 H1026 0.960 1_545 S
C1014 H1027 0.962 . S
C1014 H1028 0.960 . S
C1015 C1012 1.511 . S
C1015 H1029 0.961 . S
C1015 H1030 0.961 1_545 S
C1015 H1031 0.961 . S
C1016 C1017 1.370 . S
C1016 C1018 1.363 . S
C1016 H1032 0.931 . S
C1017 C1016 1.370 . S
C1017 C1021 1.408 . S
C1018 C1016 1.363 . S
C1018 C1019 1.370 . S
C1018 C1022 1.524 . S
C1019 C1011 1.503 1_565 S
C1019 C1018 1.370 . S
C1019 C1020 1.403 . S
C1020 C1019 1.403 . S
C1020 C1021 1.404 . S
C1020 C1023 1.539 1_554 S
C1021 C1017 1.408 . S
C1021 C1020 1.404 . S
C1021 H1033 0.930 1_554 S
C1022 C1018 1.524 . S
C1022 H1034 0.956 . S
C1022 H1035 0.969 . S
C1022 H1036 0.961 . S
C1023 C1020 1.539 1_556 S
C1023 H1037 0.958 . S
C1023 H1038 0.961 . S
C1023 H1039 0.963 . S
H1024 C1008 0.931 . S
H1025 C1013 0.929 . S
H1026 C1014 0.960 1_565 S
H1027 C1014 0.962 . S
H1028 C1014 0.960 . S
H1029 C1015 0.961 . S
H1030 C1015 0.961 1_565 S
H1031 C1015 0.961 . S
H1032 C1016 0.931 . S
H1033 C1021 0.930 1_556 S
H1034 C1022 0.956 . S
H1035 C1022 0.969 . S
H1036 C1022 0.961 . S
H1037 C1023 0.958 . S
H1038 C1023 0.961 . S
H1039 C1023 0.963 . S
C1040 C1041 1.391 . S
C1040 C1042 1.394 . S
C1040 H1056 0.931 . S
C1041 C1040 1.391 . S
C1041 C1045 1.376 . S
C1042 C1040 1.394 . S
C1042 C1043 1.369 . S
C1042 C1046 1.531 . S
C1043 C1042 1.369 . S
C1043 C1044 1.410 . S
C1043 C1051 1.503 . S
C1044 C1043 1.410 . S
C1044 C1045 1.392 . S
C1044 C1047 1.511 . S
C1045 C1041 1.376 . S
C1045 C1044 1.392 . S
C1045 H1057 0.929 . S
C1046 C1042 1.531 . S
C1046 H1058 0.960 . S
C1046 H1059 0.962 . S
C1046 H1060 0.960 . S
C1047 C1044 1.511 . S
C1047 H1061 0.961 . S
C1047 H1062 0.961 . S
C1047 H1063 0.961 . S
C1048 C1049 1.370 . S
C1048 C1050 1.363 . S
C1048 H1064 0.931 . S
C1049 C1048 1.370 . S
C1049 C1053 1.408 . S
C1050 C1048 1.363 . S
C1050 C1051 1.370 . S
C1050 C1054 1.524 . S
C1051 C1043 1.503 . S
C1051 C1050 1.370 . S
C1051 C1052 1.403 . S
C1052 C1051 1.403 . S
C1052 C1053 1.404 . S
C1052 C1055 1.539 . S
C1053 C1049 1.408 . S
C1053 C1052 1.404 . S
C1053 H1065 0.930 . S
C1054 C1050 1.524 . S
C1054 H1066 0.956 . S
C1054 H1067 0.961 . S
C1054 H1068 0.961 . S
C1055 C1052 1.539 . S
C1055 H1069 0.958 . S
C1055 H1070 0.961 . S
C1055 H1071 0.960 . S
H1056 C1040 0.931 . S
H1057 C1045 0.929 . S
H1058 C1046 0.960 . S
H1059 C1046 0.962 . S
H1060 C1046 0.960 . S
H1061 C1047 0.961 . S
H1062 C1047 0.961 . S
H1063 C1047 0.961 . S
H1064 C1048 0.931 . S
H1065 C1053 0.930 . S
H1066 C1054 0.956 . S
H1067 C1054 0.961 . S
H1068 C1054 0.961 . S
H1069 C1055 0.958 . S
H1070 C1055 0.961 . S
H1071 C1055 0.960 . S
C1072 C1073 1.391 . S
C1072 C1074 1.394 . S
C1072 H1088 0.931 . S
C1073 C1072 1.391 . S
C1073 C1077 1.376 . S
C1074 C1072 1.394 . S
C1074 C1075 1.369 . S
C1074 C1078 1.531 . S
C1075 C1074 1.369 . S
C1075 C1076 1.410 . S
C1075 C1083 1.503 1_455 S
C1076 C1075 1.410 . S
C1076 C1077 1.392 . S
C1076 C1079 1.511 . S
C1077 C1073 1.376 . S
C1077 C1076 1.392 . S
C1077 H1089 0.929 . S
C1078 C1074 1.531 . S
C1078 H1090 0.960 1_455 S
C1078 H1091 0.962 . S
C1078 H1092 0.960 . S
C1079 C1076 1.511 . S
C1079 H1093 0.961 . S
C1079 H1094 0.961 1_455 S
C1079 H1095 0.961 . S
C1080 C1081 1.370 . S
C1080 C1082 1.363 . S
C1080 H1096 0.931 . S
C1081 C1080 1.370 . S
C1081 C1085 1.408 . S
C1082 C1080 1.363 . S
C1082 C1083 1.370 . S
C1082 C1086 1.524 . S
C1083 C1075 1.503 1_655 S
C1083 C1082 1.370 . S
C1083 C1084 1.403 . S
C1084 C1083 1.403 . S
C1084 C1085 1.404 . S
C1084 C1087 1.539 . S
C1085 C1081 1.408 . S
C1085 C1084 1.404 . S
C1085 H1097 0.930 . S
C1086 C1082 1.524 . S
C1086 H1098 0.956 . S
C1086 H1099 0.955 1_655 S
C1086 H1100 0.961 . S
C1087 C1084 1.539 . S
C1087 H1101 0.958 . S
C1087 H1102 0.961 . S
C1087 H1103 0.960 . S
H1088 C1072 0.931 . S
H1089 C1077 0.929 . S
H1090 C1078 0.960 1_655 S
H1091 C1078 0.962 . S
H1092 C1078 0.960 . S
H1093 C1079 0.961 . S
H1094 C1079 0.961 1_655 S
H1095 C1079 0.961 . S
H1096 C1080 0.931 . S
H1097 C1085 0.930 . S
H1098 C1086 0.956 . S
H1099 C1086 0.955 1_455 S
H1100 C1086 0.961 . S
H1101 C1087 0.958 . S
H1102 C1087 0.961 . S
H1103 C1087 0.960 . S
C1104 C1105 1.391 . S
C1104 C1106 1.394 . S
C1104 H1120 0.931 . S
C1105 C1104 1.391 . S
C1105 C1109 1.376 . S
C1106 C1104 1.394 . S
C1106 C1107 1.369 . S
C1106 C1110 1.531 . S
C1107 C1106 1.369 . S
C1107 C1108 1.410 . S
C1107 C1115 1.503 1_565 S
C1108 C1107 1.410 . S
C1108 C1109 1.392 . S
C1108 C1111 1.511 . S
C1109 C1105 1.376 . S
C1109 C1108 1.392 . S
C1109 H1121 0.929 . S
C1110 C1106 1.531 . S
C1110 H1122 0.960 1_565 S
C1110 H1123 0.962 . S
C1110 H1124 0.960 . S
C1111 C1108 1.511 . S
C1111 H1125 0.961 . S
C1111 H1126 0.928 1_565 S
C1111 H1127 0.961 . S
C1112 C1113 1.370 . S
C1112 C1114 1.363 . S
C1112 H1128 0.931 . S
C1113 C1112 1.370 . S
C1113 C1117 1.408 . S
C1114 C1112 1.363 . S
C1114 C1115 1.370 . S
C1114 C1118 1.524 . S
C1115 C1107 1.503 1_545 S
C1115 C1114 1.370 . S
C1115 C1116 1.403 . S
C1116 C1115 1.403 . S
C1116 C1117 1.404 . S
C1116 C1119 1.539 . S
C1117 C1113 1.408 . S
C1117 C1116 1.404 . S
C1117 H1129 0.930 . S
C1118 C1114 1.524 . S
C1118 H1130 0.954 1_545 S
C1118 H1131 0.961 1_545 S
C1118 H1132 0.961 . S
C1119 C1116 1.539 . S
C1119 H1133 0.958 . S
C1119 H1134 0.961 . S
C1119 H1135 0.961 1_545 S
H1120 C1104 0.931 . S
H1121 C1109 0.929 . S
H1122 C1110 0.960 1_545 S
H1123 C1110 0.962 . S
H1124 C1110 0.960 . S
H1125 C1111 0.961 . S
H1126 C1111 0.928 1_545 S
H1127 C1111 0.961 . S
H1128 C1112 0.931 . S
H1129 C1117 0.930 . S
H1130 C1118 0.954 1_565 S
H1131 C1118 0.961 1_565 S
H1132 C1118 0.961 . S
H1133 C1119 0.958 . S
H1134 C1119 0.961 . S
H1135 C1119 0.961 1_565 S
C1136 C1137 1.391 . S
C1136 C1138 1.394 . S
C1136 H1152 0.931 . S
C1137 C1136 1.391 . S
C1137 C1141 1.376 . S
C1138 C1136 1.394 . S
C1138 C1139 1.369 . S
C1138 C1142 1.531 . S
C1139 C1138 1.369 . S
C1139 C1140 1.410 . S
C1139 C1147 1.503 . S
C1140 C1139 1.410 . S
C1140 C1141 1.392 . S
C1140 C1143 1.511 . S
C1141 C1137 1.376 . S
C1141 C1140 1.392 . S
C1141 H1153 0.929 . S
C1142 C1138 1.531 . S
C1142 H1154 0.960 . S
C1142 H1155 0.962 . S
C1142 H1156 0.960 . S
C1143 C1140 1.511 . S
C1143 H1157 0.961 . S
C1143 H1158 0.961 . S
C1143 H1159 0.961 . S
C1144 C1145 1.370 . S
C1144 C1146 1.363 . S
C1144 H1160 0.931 . S
C1145 C1144 1.370 . S
C1145 C1149 1.408 . S
C1146 C1144 1.363 . S
C1146 C1147 1.370 . S
C1146 C1150 1.524 . S
C1147 C1139 1.503 . S
C1147 C1146 1.370 . S
C1147 C1148 1.403 . S
C1148 C1147 1.403 . S
C1148 C1149 1.404 . S
C1148 C1151 1.539 . S
C1149 C1145 1.408 . S
C1149 C1148 1.404 . S
C1149 H1161 0.930 . S
C1150 C1146 1.524 . S
C1150 H1162 0.956 . S
C1150 H1163 0.961 . S
C1150 H1164 0.961 . S
C1151 C1148 1.539 . S
C1151 H1165 0.958 . S
C1151 H1166 0.961 . S
C1151 H1167 0.960 . S
H1152 C1136 0.931 . S
H1153 C1141 0.929 . S
H1154 C1142 0.960 . S
H1155 C1142 0.962 . S
H1156 C1142 0.960 . S
H1157 C1143 0.961 . S
H1158 C1143 0.961 . S
H1159 C1143 0.961 . S
H1160 C1144 0.931 . S
H1161 C1149 0.930 . S
H1162 C1150 0.956 . S
H1163 C1150 0.961 . S
H1164 C1150 0.961 . S
H1165 C1151 0.958 . S
H1166 C1151 0.961 . S
H1167 C1151 0.960 . S
C1168 C1169 1.391 . S
C1168 C1170 1.394 . S
C1168 H1184 0.931 . S
C1169 C1168 1.391 . S
C1169 C1173 1.376 . S
C1170 C1168 1.394 . S
C1170 C1171 1.369 . S
C1170 C1174 1.531 . S
C1171 C1170 1.369 . S
C1171 C1172 1.410 . S
C1171 C1179 1.503 1_455 S
C1172 C1171 1.410 . S
C1172 C1173 1.392 . S
C1172 C1175 1.511 . S
C1173 C1169 1.376 . S
C1173 C1172 1.392 . S
C1173 H1185 0.929 . S
C1174 C1170 1.531 . S
C1174 H1186 0.960 1_455 S
C1174 H1187 0.962 . S
C1174 H1188 0.960 . S
C1175 C1172 1.511 . S
C1175 H1189 0.961 . S
C1175 H1190 0.961 1_455 S
C1175 H1191 0.961 . S
C1176 C1177 1.370 . S
C1176 C1178 1.363 . S
C1176 H1192 0.931 . S
C1177 C1176 1.370 . S
C1177 C1181 1.408 . S
C1178 C1176 1.363 . S
C1178 C1179 1.370 . S
C1178 C1182 1.524 . S
C1179 C1171 1.503 1_655 S
C1179 C1178 1.370 . S
C1179 C1180 1.403 . S
C1180 C1179 1.403 . S
C1180 C1181 1.404 . S
C1180 C1183 1.539 . S
C1181 C1177 1.408 . S
C1181 C1180 1.404 . S
C1181 H1193 0.930 . S
C1182 C1178 1.524 . S
C1182 H1194 0.956 . S
C1182 H1195 0.961 . S
C1182 H1196 0.961 1_556 S
C1183 C1180 1.539 . S
C1183 H1197 0.958 . S
C1183 H1198 0.961 . S
C1183 H1199 0.960 . S
H1184 C1168 0.931 . S
H1185 C1173 0.929 . S
H1186 C1174 0.960 1_655 S
H1187 C1174 0.962 . S
H1188 C1174 0.960 . S
H1189 C1175 0.961 . S
H1190 C1175 0.961 1_655 S
H1191 C1175 0.961 . S
H1192 C1176 0.931 . S
H1193 C1181 0.930 . S
H1194 C1182 0.956 . S
H1195 C1182 0.961 . S
H1196 C1182 0.961 1_554 S
H1197 C1183 0.958 . S
H1198 C1183 0.961 . S
H1199 C1183 0.960 . S
C433 C2 1.205 . S
C441 C362 1.195 . S
C465 C38 1.184 . S
C473 C398 1.203 . S
C497 C218 1.220 . S
C505 C74 1.202 . S
C529 C110 1.205 . S
C537 C254 1.195 . S
C561 C290 1.220 . S
C569 C146 1.199 . S
C593 C326 1.198 . S
C601 C182 1.197 1_554 S
C625 C291 1.300 . S
C633 C3 1.286 . S
C657 C39 1.291 . S
C665 C327 1.292 . S
C689 C363 1.270 . S
C697 C75 1.292 . S
C721 C111 1.274 . S
C729 C399 1.288 . S
C753 C147 1.271 . S
C761 C219 1.294 . S
C785 C183 1.299 . S
C793 C255 1.288 . S
C817 C374 1.495 . S
C825 C14 1.470 . S
C849 C410 1.456 . S
C857 C50 1.461 . S
C881 C230 1.462 1_554 S
C889 C86 1.488 . S
C913 C122 1.502 . S
C921 C266 1.493 . S
C945 C158 1.461 . S
C953 C302 1.462 . S
C977 C338 1.468 . S
C985 C194 1.462 . S
C1009 C4 1.302 . S
C1017 C256 1.300 . S
C1041 C292 1.318 . S
C1049 C40 1.317 . S
C1073 C328 1.304 . S
C1081 C76 1.312 . S
C1105 C112 1.322 . S
C1113 C364 1.317 . S
C1137 C148 1.276 . S
C1145 C400 1.297 . S
C1169 C184 1.310 . S
C1177 C220 1.304 . S
