# Generated by pormake.
# Topology whp, (6)-cn, num edge types: 1
# Building blocks:
#     Node 0, Type 0, BuildingBlock: IZENUY_clean_sbu_0, # of connection points: 6
#     Node 1, Type 0, BuildingBlock: IZENUY_clean_sbu_0, # of connection points: 6
#     Node 2, Type 0, BuildingBlock: IZENUY_clean_sbu_0, # of connection points: 6
#     Node 3, Type 0, BuildingBlock: IZENUY_clean_sbu_0, # of connection points: 6
#     Node 4, Type 0, BuildingBlock: IZENUY_clean_sbu_0, # of connection points: 6
#     Node 5, Type 0, BuildingBlock: IZENUY_clean_sbu_0, # of connection points: 6
#     Node 6, Type 0, BuildingBlock: IZENUY_clean_sbu_0, # of connection points: 6
#     Node 7, Type 0, BuildingBlock: IZENUY_clean_sbu_0, # of connection points: 6
#     Node 8, Type 0, BuildingBlock: IZENUY_clean_sbu_0, # of connection points: 6
#     Node 9, Type 0, BuildingBlock: IZENUY_clean_sbu_0, # of connection points: 6
#     Node 10, Type 0, BuildingBlock: IZENUY_clean_sbu_0, # of connection points: 6
#     Node 11, Type 0, BuildingBlock: IZENUY_clean_sbu_0, # of connection points: 6
#     Node 12, Type 0, BuildingBlock: IZENUY_clean_sbu_0, # of connection points: 6
#     Node 13, Type 0, BuildingBlock: IZENUY_clean_sbu_0, # of connection points: 6
#     Node 14, Type 0, BuildingBlock: IZENUY_clean_sbu_0, # of connection points: 6
#     Node 15, Type 0, BuildingBlock: IZENUY_clean_sbu_0, # of connection points: 6
#     Edge 16, Type (0, 0), BuildingBlock: EZIPEK_clean_linker_0, # of connection points: 2
#     Edge 17, Type (0, 0), BuildingBlock: EZIPEK_clean_linker_0, # of connection points: 2
#     Edge 18, Type (0, 0), BuildingBlock: EZIPEK_clean_linker_0, # of connection points: 2
#     Edge 19, Type (0, 0), BuildingBlock: EZIPEK_clean_linker_0, # of connection points: 2
#     Edge 20, Type (0, 0), BuildingBlock: EZIPEK_clean_linker_0, # of connection points: 2
#     Edge 21, Type (0, 0), BuildingBlock: EZIPEK_clean_linker_0, # of connection points: 2
#     Edge 22, Type (0, 0), BuildingBlock: EZIPEK_clean_linker_0, # of connection points: 2
#     Edge 23, Type (0, 0), BuildingBlock: EZIPEK_clean_linker_0, # of connection points: 2
#     Edge 24, Type (0, 0), BuildingBlock: EZIPEK_clean_linker_0, # of connection points: 2
#     Edge 25, Type (0, 0), BuildingBlock: EZIPEK_clean_linker_0, # of connection points: 2
#     Edge 26, Type (0, 0), BuildingBlock: EZIPEK_clean_linker_0, # of connection points: 2
#     Edge 27, Type (0, 0), BuildingBlock: EZIPEK_clean_linker_0, # of connection points: 2
#     Edge 28, Type (0, 0), BuildingBlock: EZIPEK_clean_linker_0, # of connection points: 2
#     Edge 29, Type (0, 0), BuildingBlock: EZIPEK_clean_linker_0, # of connection points: 2
#     Edge 30, Type (0, 0), BuildingBlock: EZIPEK_clean_linker_0, # of connection points: 2
#     Edge 31, Type (0, 0), BuildingBlock: EZIPEK_clean_linker_0, # of connection points: 2
#     Edge 32, Type (0, 0), BuildingBlock: EZIPEK_clean_linker_0, # of connection points: 2
#     Edge 33, Type (0, 0), BuildingBlock: EZIPEK_clean_linker_0, # of connection points: 2
#     Edge 34, Type (0, 0), BuildingBlock: EZIPEK_clean_linker_0, # of connection points: 2
#     Edge 35, Type (0, 0), BuildingBlock: EZIPEK_clean_linker_0, # of connection points: 2
#     Edge 36, Type (0, 0), BuildingBlock: EZIPEK_clean_linker_0, # of connection points: 2
#     Edge 37, Type (0, 0), BuildingBlock: EZIPEK_clean_linker_0, # of connection points: 2
#     Edge 38, Type (0, 0), BuildingBlock: EZIPEK_clean_linker_0, # of connection points: 2
#     Edge 39, Type (0, 0), BuildingBlock: EZIPEK_clean_linker_0, # of connection points: 2
#     Edge 40, Type (0, 0), BuildingBlock: EZIPEK_clean_linker_0, # of connection points: 2
#     Edge 41, Type (0, 0), BuildingBlock: EZIPEK_clean_linker_0, # of connection points: 2
#     Edge 42, Type (0, 0), BuildingBlock: EZIPEK_clean_linker_0, # of connection points: 2
#     Edge 43, Type (0, 0), BuildingBlock: EZIPEK_clean_linker_0, # of connection points: 2
#     Edge 44, Type (0, 0), BuildingBlock: EZIPEK_clean_linker_0, # of connection points: 2
#     Edge 45, Type (0, 0), BuildingBlock: EZIPEK_clean_linker_0, # of connection points: 2
#     Edge 46, Type (0, 0), BuildingBlock: EZIPEK_clean_linker_0, # of connection points: 2
#     Edge 47, Type (0, 0), BuildingBlock: EZIPEK_clean_linker_0, # of connection points: 2
#     Edge 48, Type (0, 0), BuildingBlock: EZIPEK_clean_linker_0, # of connection points: 2
#     Edge 49, Type (0, 0), BuildingBlock: EZIPEK_clean_linker_0, # of connection points: 2
#     Edge 50, Type (0, 0), BuildingBlock: EZIPEK_clean_linker_0, # of connection points: 2
#     Edge 51, Type (0, 0), BuildingBlock: EZIPEK_clean_linker_0, # of connection points: 2
#     Edge 52, Type (0, 0), BuildingBlock: EZIPEK_clean_linker_0, # of connection points: 2
#     Edge 53, Type (0, 0), BuildingBlock: EZIPEK_clean_linker_0, # of connection points: 2
#     Edge 54, Type (0, 0), BuildingBlock: EZIPEK_clean_linker_0, # of connection points: 2
#     Edge 55, Type (0, 0), BuildingBlock: EZIPEK_clean_linker_0, # of connection points: 2
#     Edge 56, Type (0, 0), BuildingBlock: EZIPEK_clean_linker_0, # of connection points: 2
#     Edge 57, Type (0, 0), BuildingBlock: EZIPEK_clean_linker_0, # of connection points: 2
#     Edge 58, Type (0, 0), BuildingBlock: EZIPEK_clean_linker_0, # of connection points: 2
#     Edge 59, Type (0, 0), BuildingBlock: EZIPEK_clean_linker_0, # of connection points: 2
#     Edge 60, Type (0, 0), BuildingBlock: EZIPEK_clean_linker_0, # of connection points: 2
#     Edge 61, Type (0, 0), BuildingBlock: EZIPEK_clean_linker_0, # of connection points: 2
#     Edge 62, Type (0, 0), BuildingBlock: EZIPEK_clean_linker_0, # of connection points: 2
#     Edge 63, Type (0, 0), BuildingBlock: EZIPEK_clean_linker_0, # of connection points: 2
# Relax obj value: 0.322
# Max RMSD: 0.246
# Mean RMSD: 0.246
data_MOF--net-whp--node1-IZENUY_clean_sbu_0--edge1-EZIPEK_clean_linker_0
_symmetry_space_group_name_H-M    P1
_symmetry_Int_Tables_number       1
_symmetry_cell_setting            triclinic
loop_
_symmetry_equiv_pos_as_xyz
'x, y, z'
_cell_length_a     35.382666
_cell_length_b     35.491756
_cell_length_c     21.306428
_cell_angle_alpha  90.186693
_cell_angle_beta   89.776701
_cell_angle_gamma 89.990165
loop_
_atom_site_label
_atom_site_type_symbol
_atom_site_fract_x
_atom_site_fract_y
_atom_site_fract_z
_atom_type_partial_charge
Fe0 Fe 0.36658 0.53002 0.30145 0.0
Fe1 Fe 0.3151 0.57827 0.3852 0.0
O2 O 0.32232 0.5375 0.33869 0.0
Fe3 Fe 0.28461 0.50459 0.33208 0.0
O4 O 0.28373 0.50952 0.24779 0.0
O5 O 0.34516 0.51058 0.22876 0.0
O6 O 0.36648 0.57587 0.2634 0.0
C7 C 0.36569 0.60663 0.293 0.0
C8 C 0.35023 0.45682 0.33529 0.0
O9 O 0.34941 0.60848 0.34554 0.0
C10 C 0.27889 0.52395 0.45678 0.0
O11 O 0.39386 0.54803 0.36925 0.0
O12 O 0.35048 0.56254 0.44002 0.0
O13 O 0.31504 0.46184 0.32685 0.0
O14 O 0.37271 0.48407 0.33556 0.0
C15 C 0.2499 0.57693 0.31943 0.0
O16 O 0.27921 0.55689 0.43532 0.0
O17 O 0.28306 0.49739 0.41777 0.0
C18 C 0.38417 0.55373 0.42615 0.0
O19 O 0.27956 0.59525 0.33164 0.0
O20 O 0.2473 0.54193 0.33304 0.0
C21 C 0.31109 0.50905 0.20962 0.0
Fe22 Fe 1.01229 0.28338 0.83362 0.0
Fe23 Fe 0.98558 0.364 0.7987 0.0
O24 O 0.97941 0.32109 0.84041 0.0
Fe25 Fe 0.93982 0.31565 0.89123 0.0
O26 O 0.92095 0.27821 0.84241 0.0
O27 O 0.97494 0.24657 0.83805 0.0
O28 O 1.00637 0.28053 0.74911 0.0
C29 C 1.00573 0.3066 0.7089 0.0
C30 C 0.99532 0.27557 0.95832 0.0
O31 O 1.00314 0.34097 0.72576 0.0
C32 C 0.96557 0.38631 0.92361 0.0
O33 O 0.05493 0.3135 0.82587 0.0
O34 O 0.03277 0.37143 0.828 0.0
O35 O 0.96149 0.28078 0.94278 0.0
O36 O 0.02102 0.28282 0.91888 0.0
C37 C 0.90845 0.36238 0.79731 0.0
O38 O 0.96954 0.3934 0.86545 0.0
O39 O 0.95747 0.35321 0.94173 0.0
C40 C 0.05994 0.34881 0.83072 0.0
O41 O 0.93836 0.36224 0.76511 0.0
O42 O 0.90842 0.34866 0.85161 0.0
C43 C 0.93926 0.24848 0.8298 0.0
Fe44 Fe 0.24395 1.00771 0.32296 0.0
Fe45 Fe 0.16199 0.98172 0.29346 0.0
O46 O 0.2055 0.97569 0.3342 0.0
Fe47 Fe 0.21022 0.93665 0.38615 0.0
O48 O 0.24869 0.91713 0.33948 0.0
O49 O 0.28033 0.97022 0.32439 0.0
O50 O 0.24424 1.00133 0.23857 0.0
C51 C 0.21716 1.00236 0.2007 0.0
C52 C 0.25427 0.99283 0.44907 0.0
O53 O 0.18326 1.00014 0.22004 0.0
C54 C 0.13927 0.96062 0.41788 0.0
O55 O 0.21307 0.05051 0.31887 0.0
O56 O 0.15486 0.02815 0.32492 0.0
O57 O 0.24333 0.95941 0.44017 0.0
O58 O 0.24956 0.01715 0.40665 0.0
C59 C 0.16408 0.90545 0.2892 0.0
O60 O 0.13253 0.96465 0.35976 0.0
O61 O 0.17255 0.95409 0.43599 0.0
C62 C 0.17752 0.05535 0.32614 0.0
O63 O 0.16486 0.93537 0.25811 0.0
O64 O 0.17717 0.90502 0.34436 0.0
C65 C 0.27849 0.93439 0.32306 0.0
Fe66 Fe 0.50927 0.23782 0.83136 0.0
Fe67 Fe 0.53514 0.15825 0.79613 0.0
O68 O 0.54398 0.20148 0.83609 0.0
Fe69 Fe 0.58681 0.20768 0.87843 0.0
O70 O 0.59479 0.25584 0.85131 0.0
O71 O 0.54344 0.27091 0.79785 0.0
O72 O 0.49563 0.22544 0.75078 0.0
C73 C 0.51621 0.21183 0.70779 0.0
C74 C 0.53654 0.24679 0.95586 0.0
O75 O 0.53717 0.18352 0.72023 0.0
C76 C 0.55824 0.13592 0.91452 0.0
O77 O 0.47225 0.2072 0.86491 0.0
O78 O 0.48357 0.16147 0.79869 0.0
O79 O 0.56295 0.22344 0.94912 0.0
O80 O 0.51664 0.25716 0.91013 0.0
C81 C 0.61502 0.16108 0.78569 0.0
O82 O 0.53344 0.13284 0.87145 0.0
O83 O 0.58421 0.16061 0.91217 0.0
C84 C 0.46253 0.1764 0.83953 0.0
O85 O 0.58417 0.14364 0.78485 0.0
O86 O 0.61725 0.19237 0.8134 0.0
C87 C 0.57739 0.27695 0.81342 0.0
Fe88 Fe 0.81898 0.43595 0.14233 0.0
Fe89 Fe 0.78958 0.51313 0.19319 0.0
O90 O 0.82541 0.47775 0.18784 0.0
Fe91 Fe 0.86797 0.48482 0.23117 0.0
O92 O 0.88077 0.43562 0.24198 0.0
O93 O 0.83306 0.40389 0.20525 0.0
O94 O 0.77042 0.42829 0.16865 0.0
C95 C 0.74867 0.44589 0.20585 0.0
C96 C 0.89414 0.4615 0.11485 0.0
O97 O 0.75508 0.47943 0.2233 0.0
C98 C 0.85262 0.55821 0.18889 0.0
O99 O 0.80372 0.46078 0.07208 0.0
O100 O 0.77105 0.50721 0.11359 0.0
O101 O 0.89629 0.48579 0.15889 0.0
O102 O 0.86676 0.43856 0.11014 0.0
C103 C 0.81341 0.50474 0.31828 0.0
O104 O 0.82178 0.54961 0.16242 0.0
O105 O 0.86641 0.53651 0.22958 0.0
C106 C 0.78002 0.48702 0.0671 0.0
O107 O 0.80046 0.52567 0.27543 0.0
O108 O 0.8408 0.48282 0.30516 0.0
C109 C 0.863 0.40529 0.23671 0.0
Fe110 Fe 0.08509 0.80988 0.63858 0.0
Fe111 Fe 1.00882 0.78287 0.69598 0.0
O112 O 0.0439 0.81839 0.68491 0.0
Fe113 Fe 0.03755 0.86294 0.72209 0.0
O114 O 0.08728 0.87473 0.7287 0.0
O115 O 0.1175 0.82388 0.70087 0.0
O116 O 0.09136 0.76127 0.66524 0.0
C117 C 0.07535 0.74171 0.70723 0.0
C118 C 0.06153 0.88414 0.60463 0.0
O119 O 0.04296 0.74992 0.72846 0.0
C120 C 0.96315 0.84548 0.68684 0.0
O121 O 0.05797 0.79521 0.57073 0.0
O122 O 0.01368 0.76166 0.6171 0.0
O123 O 0.03589 0.88714 0.64637 0.0
O124 O 0.08517 0.85727 0.60467 0.0
C125 C 0.01753 0.81502 0.81819 0.0
O126 O 0.97128 0.81344 0.66416 0.0
O127 O 0.9859 0.86183 0.72305 0.0
C128 C 0.03204 0.77101 0.56848 0.0
O129 O 0.99836 0.79666 0.77801 0.0
O130 O 0.03988 0.8406 0.79938 0.0
C131 C 0.11741 0.85616 0.72533 0.0
Fe132 Fe 0.70506 0.08899 0.13695 0.0
Fe133 Fe 0.73659 0.01454 0.18796 0.0
O134 O 0.70014 0.04903 0.18651 0.0
Fe135 Fe 0.65865 0.04466 0.23361 0.0
O136 O 0.66645 0.09002 0.27122 0.0
O137 O 0.67549 0.12051 0.18486 0.0
O138 O 0.74551 0.10553 0.17991 0.0
C139 C 0.77488 0.0866 0.19118 0.0
C140 C 0.63191 0.07027 0.11408 0.0
O141 O 0.77521 0.05074 0.18292 0.0
C142 C 0.66766 0.97078 0.1944 0.0
O143 O 0.73617 0.06669 0.07875 0.0
O144 O 0.73485 1.00713 0.10298 0.0
O145 O 0.62706 0.06486 0.17274 0.0
O146 O 0.66466 0.07431 0.09134 0.0
C147 C 0.71773 0.01795 0.31419 0.0
O148 O 0.70363 0.97356 0.19576 0.0
O149 O 0.64679 0.99917 0.20122 0.0
C150 C 0.74165 0.03274 0.06376 0.0
O151 O 0.74241 0.01836 0.27168 0.0
O152 O 0.68309 0.02375 0.30212 0.0
C153 C 0.66966 0.12099 0.24334 0.0
Fe154 Fe 0.51376 0.73849 0.6977 0.0
Fe155 Fe 0.48114 0.65965 0.73322 0.0
O156 O 0.4776 0.7033 0.69145 0.0
Fe157 Fe 0.4374 0.71263 0.64324 0.0
O158 O 0.424 0.75313 0.69065 0.0
O159 O 0.48032 0.77883 0.69305 0.0
O160 O 0.50845 0.74122 0.78196 0.0
C161 C 0.50559 0.71523 0.82205 0.0
C162 C 0.49741 0.74705 0.57301 0.0
O163 O 0.49962 0.68129 0.80587 0.0
C164 C 0.45261 0.63849 0.61226 0.0
O165 O 0.55407 0.70527 0.7043 0.0
O166 O 0.52782 0.64925 0.70291 0.0
O167 O 0.46273 0.74259 0.58595 0.0
O168 O 0.52234 0.73924 0.61316 0.0
C169 C 0.40355 0.66804 0.74038 0.0
O170 O 0.46303 0.6314 0.66784 0.0
O171 O 0.44726 0.67197 0.59345 0.0
C172 C 0.55672 0.66971 0.70042 0.0
O173 O 0.43441 0.66316 0.76849 0.0
O174 O 0.40335 0.68529 0.68896 0.0
C175 C 0.44471 0.78144 0.70041 0.0
Fe176 Fe 0.73807 0.51424 0.69998 0.0
Fe177 Fe 0.65776 0.48531 0.72927 0.0
O178 O 0.70171 0.47982 0.68827 0.0
Fe179 Fe 0.70894 0.44031 0.63744 0.0
O180 O 0.75722 0.43173 0.66247 0.0
O181 O 0.77168 0.47861 0.72657 0.0
O182 O 0.7263 0.52247 0.7833 0.0
C183 C 0.70784 0.50346 0.82341 0.0
C184 C 0.74912 0.49497 0.57073 0.0
O185 O 0.68185 0.48159 0.80484 0.0
C186 C 0.63374 0.46484 0.6111 0.0
O187 O 0.70698 0.55292 0.6735 0.0
O188 O 0.65886 0.53688 0.73265 0.0
O189 O 0.72433 0.46939 0.57138 0.0
O190 O 0.75803 0.51225 0.62033 0.0
C191 C 0.6639 0.40545 0.72583 0.0
O192 O 0.63123 0.48845 0.65588 0.0
O193 O 0.66145 0.44254 0.60529 0.0
C194 C 0.67521 0.56063 0.6982 0.0
O195 O 0.64595 0.4355 0.73489 0.0
O196 O 0.69474 0.40558 0.6962 0.0
C197 C 0.77848 0.4463 0.70331 0.0
Fe198 Fe 1.01185 0.73428 0.19068 0.0
Fe199 Fe 0.04084 0.656 0.2257 0.0
O200 O 0.04714 0.69857 0.18267 0.0
Fe201 Fe 0.08813 0.70524 0.13491 0.0
O202 O 0.09605 0.75365 0.16139 0.0
O203 O 0.04638 0.76797 0.22085 0.0
O204 O 1.00021 0.72245 0.27296 0.0
C205 C 0.02185 0.70925 0.31459 0.0
C206 C 0.0356 0.74471 0.06327 0.0
O207 O 0.04404 0.68257 0.29963 0.0
C208 C 0.06229 0.63045 0.10857 0.0
O209 O 0.97473 0.70253 0.16049 0.0
O210 O 0.989 0.65747 0.2261 0.0
O211 O 0.06156 0.72053 0.06624 0.0
O212 O 0.01678 0.75386 0.11137 0.0
C213 C 0.12078 0.661 0.22656 0.0
O214 O 0.03862 0.62833 0.15349 0.0
O215 O 0.0855 0.65752 0.10289 0.0
C216 C 0.96664 0.67142 0.18649 0.0
O217 O 0.09041 0.64348 0.2344 0.0
O218 O 0.12145 0.69112 0.19573 0.0
C219 C 0.07964 0.77453 0.20144 0.0
Fe220 Fe 0.78745 1.00748 0.68902 0.0
Fe221 Fe 0.86714 0.03571 0.73045 0.0
O222 O 0.82417 0.04182 0.68795 0.0
Fe223 Fe 0.81716 0.08286 0.64213 0.0
O224 O 0.7783 0.09778 0.69211 0.0
O225 O 0.74889 0.04334 0.68453 0.0
O226 O 0.78325 0.01124 0.77336 0.0
C227 C 0.80841 0.01349 0.81512 0.0
C228 C 0.78157 0.02785 0.56627 0.0
O229 O 0.84322 0.01756 0.80154 0.0
C230 C 0.88884 0.06 0.608 0.0
O231 O 0.81843 0.96563 0.69494 0.0
O232 O 0.87577 0.98912 0.69857 0.0
O233 O 0.78438 0.06136 0.58566 0.0
O234 O 0.7892 1.00131 0.6034 0.0
C235 C 0.86318 0.1129 0.73948 0.0
O236 O 0.89666 0.05318 0.66509 0.0
O237 O 0.85577 0.06918 0.59159 0.0
C238 C 0.85394 0.96149 0.69231 0.0
O239 O 0.86519 0.08198 0.76794 0.0
O240 O 0.84823 0.11427 0.68613 0.0
C241 C 0.74865 0.07828 0.69896 0.0
Fe242 Fe 0.48464 0.85884 0.23154 0.0
Fe243 Fe 0.44332 0.80324 0.14754 0.0
O244 O 0.48245 0.8139 0.19462 0.0
Fe245 Fe 0.51913 0.78041 0.2027 0.0
O246 O 0.51295 0.78008 0.28689 0.0
O247 O 0.51024 0.84119 0.30163 0.0
O248 O 0.44086 0.85091 0.27492 0.0
C249 C 0.40951 0.84485 0.24872 0.0
C250 C 0.55831 0.85128 0.19314 0.0
O251 O 0.4097 0.83306 0.19265 0.0
C252 C 0.50267 0.76888 0.0789 0.0
O253 O 0.45874 0.88413 0.16774 0.0
O254 O 0.45694 0.84061 0.09552 0.0
O255 O 0.55756 0.81631 0.20685 0.0
O256 O 0.52828 0.87036 0.19125 0.0
C257 C 0.45052 0.73736 0.20893 0.0
O258 O 0.46818 0.77141 0.09357 0.0
O259 O 0.52789 0.77776 0.11796 0.0
C260 C 0.45331 0.87439 0.11088 0.0
O261 O 0.42932 0.76487 0.19702 0.0
O262 O 0.48631 0.73925 0.20132 0.0
C263 C 0.51316 0.80803 0.32354 0.0
Fe264 Fe 0.15787 0.53345 0.79732 0.0
Fe265 Fe 0.20299 0.58077 0.89194 0.0
O266 O 0.2 0.54061 0.8416 0.0
Fe267 Fe 0.23901 0.50876 0.83616 0.0
O268 O 0.24216 0.51323 0.7516 0.0
O269 O 0.18199 0.51611 0.72573 0.0
O270 O 0.16018 0.57986 0.76233 0.0
C271 C 0.15813 0.60994 0.79301 0.0
C272 C 0.17366 0.45991 0.83222 0.0
O273 O 0.16992 0.611 0.84867 0.0
C274 C 0.24621 0.52765 0.96087 0.0
O275 O 0.12658 0.54954 0.86179 0.0
O276 O 0.16488 0.56288 0.94017 0.0
O277 O 0.20925 0.46543 0.83033 0.0
O278 O 0.15062 0.4866 0.82708 0.0
C279 C 0.2722 0.58257 0.83249 0.0
O280 O 0.23587 0.56058 0.94805 0.0
O281 O 0.24121 0.50144 0.92133 0.0
C282 C 0.13234 0.55448 0.92008 0.0
O283 O 0.24183 0.60001 0.84574 0.0
O284 O 0.27478 0.54695 0.839 0.0
C285 C 0.2166 0.51335 0.71071 0.0
Fe286 Fe 0.94338 0.20798 0.38059 0.0
Fe287 Fe 0.01992 0.23606 0.33079 0.0
O288 O 0.98514 0.19938 0.33578 0.0
Fe289 Fe 0.99159 0.15503 0.29621 0.0
O290 O 0.94563 0.15486 0.25808 0.0
O291 O 0.91195 0.17866 0.3336 0.0
O292 O 0.92983 0.24664 0.33055 0.0
C293 C 0.94948 0.27561 0.3213 0.0
C294 C 0.96138 0.13579 0.41689 0.0
O295 O 0.9848 0.27522 0.33252 0.0
C296 C 0.06581 0.1692 0.33148 0.0
O297 O 0.96582 0.23969 0.43826 0.0
O298 O 0.02634 0.23818 0.41601 0.0
O299 O 0.97334 0.12741 0.36236 0.0
O300 O 0.9535 0.16926 0.43274 0.0
C301 C 0.01483 0.21062 0.20711 0.0
O302 O 0.06175 0.20455 0.32673 0.0
O303 O 0.03786 0.14757 0.32908 0.0
C304 C 0.99983 0.24491 0.45443 0.0
O305 O 0.016 0.23721 0.24646 0.0
O306 O 1.01057 0.17649 0.22363 0.0
C307 C 0.91384 0.16032 0.28307 0.0
Fe308 Fe 0.36333 0.98932 0.79826 0.0
Fe309 Fe 0.30432 0.94514 0.87144 0.0
O310 O 0.31637 0.98494 0.82721 0.0
Fe311 Fe 0.28174 0.02016 0.81572 0.0
O312 O 0.28604 0.01531 0.73192 0.0
O313 O 0.34816 0.01228 0.72377 0.0
O314 O 0.36152 0.9449 0.75542 0.0
C315 C 0.35736 0.91372 0.78232 0.0
C316 C 0.35023 0.06268 0.83409 0.0
O317 O 0.33968 0.91269 0.83421 0.0
C318 C 0.26449 1.00104 0.93739 0.0
O319 O 0.38507 0.96633 0.86893 0.0
O320 O 0.33615 0.96171 0.93109 0.0
O321 O 0.3156 0.06046 0.81815 0.0
O322 O 0.37044 0.03368 0.8377 0.0
C323 C 0.24327 0.9501 0.79626 0.0
O324 O 0.26703 0.9674 0.9185 0.0
O325 O 0.27422 0.02721 0.90056 0.0
C326 C 0.37109 0.96066 0.92364 0.0
O327 O 0.27086 0.92984 0.81301 0.0
O328 O 0.24258 0.98533 0.80897 0.0
C329 C 0.31552 0.01478 0.69866 0.0
Fe330 Fe 0.51539 0.2834 0.33275 0.0
Fe331 Fe 0.53769 0.36537 0.29854 0.0
O332 O 0.54574 0.32327 0.34163 0.0
Fe333 Fe 0.58501 0.32088 0.39359 0.0
O334 O 0.60614 0.28336 0.34751 0.0
O335 O 0.5544 0.24869 0.33983 0.0
O336 O 0.52377 0.28077 0.24915 0.0
C337 C 0.52336 0.30677 0.20928 0.0
C338 C 0.52971 0.27664 0.4577 0.0
O339 O 0.52203 0.34117 0.22587 0.0
C340 C 0.55882 0.39112 0.42144 0.0
O341 O 0.47122 0.31162 0.32299 0.0
O342 O 0.49046 0.37055 0.32853 0.0
O343 O 0.56349 0.28673 0.44806 0.0
O344 O 0.50478 0.28139 0.41636 0.0
C345 C 0.61462 0.36675 0.29525 0.0
O346 O 0.55221 0.39656 0.36359 0.0
O347 O 0.56595 0.35849 0.44197 0.0
C348 C 0.46444 0.34665 0.33 0.0
O349 O 0.58455 0.36493 0.26462 0.0
O350 O 0.61543 0.35467 0.35099 0.0
C351 C 0.59004 0.25257 0.33453 0.0
C352 C 0.44734 0.57777 0.46447 0.0
C353 C 0.41282 0.55916 0.4767 0.0
C354 C 0.41497 0.57966 0.58633 0.0
C355 C 0.44346 0.60642 0.56944 0.0
N356 N 0.4899 0.62805 0.49454 0.0
N357 N 0.3754 0.52698 0.55307 0.0
C358 C 0.46104 0.60414 0.50935 0.0
C359 C 0.40066 0.55494 0.53941 0.0
N360 N 0.46725 0.56953 0.4112 0.0
N361 N 0.39952 0.57965 0.64524 0.0
H362 H 0.36584 0.50835 0.51853 0.0
H363 H 0.36667 0.51985 0.59816 0.0
H364 H 0.40934 0.59607 0.68209 0.0
H365 H 0.37555 0.56442 0.65774 0.0
H366 H 0.49379 0.58065 0.40109 0.0
H367 H 0.45947 0.5476 0.38128 0.0
H368 H 0.50091 0.63107 0.44945 0.0
H369 H 0.50166 0.64633 0.52731 0.0
C370 C 0.95596 0.43315 0.08282 0.0
C371 C 0.92488 0.45664 0.0679 0.0
C372 C 0.94124 0.45055 0.95666 0.0
C373 C 0.96253 0.41781 0.9707 0.0
N374 N 0.99936 0.38422 0.04667 0.0
N375 N 0.88795 0.48847 0.98937 0.0
C376 C 0.97329 0.41148 0.03393 0.0
C377 C 0.91805 0.46629 1.00444 0.0
N378 N 0.96766 0.43072 0.14364 0.0
N379 N 0.94299 0.46653 0.89859 0.0
H380 H 0.86956 0.49919 0.02322 0.0
H381 H 0.87975 0.49386 0.94335 0.0
H382 H 0.96247 0.45801 0.86467 0.0
H383 H 0.92921 0.4916 0.88762 0.0
H384 H 0.99122 0.41551 0.15791 0.0
H385 H 0.95497 0.44636 0.17951 0.0
H386 H 1.00629 0.37539 0.09167 0.0
H387 H 0.0141 0.37022 1.01101 0.0
C388 C 0.09302 0.94476 0.57646 0.0
C389 C 0.06878 0.91476 0.55888 0.0
C390 C 0.07578 0.93311 0.44872 0.0
C391 C 0.10792 0.95499 0.4648 0.0
N392 N 0.142 0.9889 0.5446 0.0
N393 N 0.0367 0.88002 0.47783 0.0
C394 C 0.11449 0.96355 0.52915 0.0
C395 C 0.05956 0.90922 0.49487 0.0
N396 N 0.09601 0.95446 0.63835 0.0
N397 N 0.06008 0.9358 0.39055 0.0
H398 H 0.02381 0.86261 0.51082 0.0
H399 H 0.03264 0.87179 0.43133 0.0
H400 H 0.06788 0.95671 0.35891 0.0
H401 H 0.03551 0.92159 0.37777 0.0
H402 H 0.11154 0.97732 0.65473 0.0
H403 H 0.08009 0.94132 0.67324 0.0
H404 H 0.15182 0.99333 0.58999 0.0
H405 H 0.15556 1.00533 0.51086 0.0
C406 C 0.57457 0.07371 0.96463 0.0
C407 C 0.55958 0.11057 0.97022 0.0
C408 C 0.57959 0.11389 0.08033 0.0
C409 C 0.59946 0.0794 0.07221 0.0
N410 N 0.60821 0.02176 0.0146 0.0
N411 N 0.53539 0.15921 0.03742 0.0
C412 C 0.594 0.05755 0.01689 0.0
C413 C 0.55768 0.12814 0.02992 0.0
N414 N 0.57155 0.05521 0.90861 0.0
N415 N 0.58412 0.13468 0.13392 0.0
H416 H 0.51999 0.1703 1.0003 0.0
H417 H 0.52956 0.17182 0.08057 0.0
H418 H 0.59815 0.1248 0.17336 0.0
H419 H 0.57523 0.1625 0.13879 0.0
H420 H 0.58401 0.02935 0.8986 0.0
H421 H 0.55628 0.06634 0.87122 0.0
H422 H 0.60481 1.00333 0.97703 0.0
H423 H 0.6218 1.00959 0.05294 0.0
C424 C 0.55056 0.42437 0.52405 0.0
C425 C 0.56728 0.42361 0.46359 0.0
C426 C 0.6154 0.46814 0.49965 0.0
C427 C 0.60425 0.46129 0.56236 0.0
N428 N 0.55973 0.43483 0.63564 0.0
N429 N 0.61384 0.44878 0.39138 0.0
C430 C 0.57069 0.44084 0.575 0.0
C431 C 0.59837 0.4477 0.45012 0.0
N432 N 0.51543 0.40929 0.5321 0.0
N433 N 0.64354 0.49336 0.48794 0.0
H434 H 0.60033 0.43831 0.3521 0.0
H435 H 0.64047 0.45977 0.38138 0.0
H436 H 0.65841 0.5061 0.52409 0.0
H437 H 0.65008 0.50357 0.44345 0.0
H438 H 0.50019 0.41116 0.5739 0.0
H439 H 0.50019 0.39832 0.49433 0.0
H440 H 0.53832 0.41619 0.64832 0.0
H441 H 0.57329 0.44757 0.67355 0.0
C442 C 0.07006 0.58307 0.95086 0.0
C443 C 0.10022 0.55851 0.9651 0.0
C444 C 0.08824 0.56771 0.07747 0.0
C445 C 0.06596 0.59966 0.06218 0.0
N446 N 0.03457 0.63771 0.9846 0.0
N447 N 0.12819 0.51641 0.03884 0.0
C448 C 0.05574 0.60678 0.99898 0.0
C449 C 0.10575 0.54697 0.02789 0.0
N450 N 0.05478 0.58322 0.89223 0.0
N451 N 0.09451 0.55912 0.13903 0.0
H452 H 0.13896 0.50028 1.00177 0.0
H453 H 0.13444 0.50575 0.08297 0.0
H454 H 0.08124 0.57353 0.1757 0.0
H455 H 0.11217 0.53767 0.15432 0.0
H456 H 0.03132 0.59935 0.88016 0.0
H457 H 0.06195 0.56299 0.85874 0.0
H458 H 0.03007 0.64691 0.93886 0.0
H459 H 0.02361 0.65559 0.01897 0.0
C460 C 0.968 0.10708 0.52367 0.0
C461 C 0.95253 0.10537 0.46217 0.0
C462 C 0.90899 0.05592 0.49644 0.0
C463 C 0.91896 0.06378 0.55928 0.0
N464 N 0.97029 0.07997 0.62811 0.0
N465 N 0.90917 0.07618 0.38851 0.0
C466 C 0.95261 0.0839 0.57168 0.0
C467 C 0.92427 0.07819 0.44744 0.0
N468 N 0.99614 0.13221 0.53667 0.0
N469 N 0.88462 0.02701 0.48438 0.0
H470 H 0.9195 0.09102 0.3502 0.0
H471 H 0.88471 0.06122 0.37782 0.0
H472 H 0.87268 0.01123 0.52047 0.0
H473 H 0.87876 0.01679 0.43962 0.0
H474 H 1.00526 0.13863 0.58185 0.0
H475 H 1.0092 0.14811 0.50183 0.0
H476 H 0.9962 0.09225 0.63873 0.0
H477 H 0.96163 0.06034 0.66138 0.0
C478 C 0.42756 0.95384 0.9966 0.0
C479 C 0.39244 0.94022 0.97347 0.0
C480 C 0.39745 0.88443 0.04083 0.0
C481 C 0.43177 0.89859 0.06664 0.0
N482 N 0.47859 0.94774 0.07267 0.0
N483 N 0.34078 0.89461 0.98415 0.0
C484 C 0.44645 0.93378 0.04581 0.0
C485 C 0.37647 0.90657 0.99908 0.0
N486 N 0.44267 0.98597 0.97169 0.0
N487 N 0.38497 0.84853 0.05251 0.0
H488 H 0.32676 0.9002 0.94267 0.0
H489 H 0.32487 0.87757 0.01411 0.0
H490 H 0.39447 0.83085 0.08738 0.0
H491 H 0.36542 0.8347 0.02406 0.0
H492 H 0.46975 0.99575 0.98119 0.0
H493 H 0.42836 1.0026 0.93927 0.0
H494 H 0.48926 0.97457 0.06438 0.0
H495 H 0.49407 0.93294 0.10605 0.0
C496 C 0.38526 0.40629 0.39442 0.0
C497 C 0.36773 0.41838 0.33804 0.0
C498 C 0.40638 0.37304 0.278 0.0
C499 C 0.42518 0.36226 0.33392 0.0
N500 N 0.42633 0.36098 0.44639 0.0
N501 N 0.35452 0.40665 0.22908 0.0
C502 C 0.41216 0.3762 0.3926 0.0
C503 C 0.37561 0.39905 0.281 0.0
N504 N 0.3776 0.42505 0.44909 0.0
N505 N 0.41998 0.36078 0.22144 0.0
H506 H 0.33285 0.42643 0.22957 0.0
H507 H 0.35623 0.39125 0.1875 0.0
H508 H 0.44218 0.34167 0.21781 0.0
H509 H 0.41096 0.37109 0.17834 0.0
H510 H 0.39238 0.42094 0.49064 0.0
H511 H 0.35714 0.44617 0.45196 0.0
H512 H 0.41658 0.36774 0.49117 0.0
H513 H 0.4458 0.33888 0.44544 0.0
C514 C 0.11676 0.37545 0.77596 0.0
C515 C 0.09863 0.36576 0.83313 0.0
C516 C 0.14383 0.40589 0.89029 0.0
C517 C 0.15665 0.42118 0.83264 0.0
N518 N 0.15609 0.42018 0.71974 0.0
N519 N 0.09556 0.36988 0.94561 0.0
C520 C 0.14396 0.40517 0.77519 0.0
C521 C 0.11285 0.37997 0.89076 0.0
N522 N 0.1072 0.35676 0.72218 0.0
N523 N 0.16135 0.41655 0.94438 0.0
H524 H 0.07417 0.34963 0.94722 0.0
H525 H 0.10134 0.38232 0.98882 0.0
H526 H 0.18481 0.43431 0.94356 0.0
H527 H 0.15533 0.40522 0.98827 0.0
H528 H 0.12146 0.35989 0.67971 0.0
H529 H 0.08693 0.33546 0.72155 0.0
H530 H 0.14464 0.41341 0.67622 0.0
H531 H 0.1767 0.44103 0.71776 0.0
C532 C 0.13857 0.09941 0.39177 0.0
C533 C 0.15997 0.09345 0.33606 0.0
C534 C 0.1304 0.15005 0.29025 0.0
C535 C 0.10383 0.15098 0.34036 0.0
N536 N 0.08474 0.12948 0.44236 0.0
N537 N 0.17595 0.11283 0.2311 0.0
C538 C 0.10914 0.12691 0.39273 0.0
C539 C 0.15653 0.11932 0.28554 0.0
N540 N 0.1461 0.07798 0.44337 0.0
N541 N 0.13027 0.17815 0.24671 0.0
H542 H 0.19526 0.09089 0.2263 0.0
H543 H 0.17131 0.1276 0.18971 0.0
H544 H 0.11178 0.20095 0.24939 0.0
H545 H 0.15076 0.18092 0.21184 0.0
H546 H 0.13418 0.08249 0.48746 0.0
H547 H 0.16668 0.057 0.44286 0.0
H548 H 0.08332 0.11015 0.47889 0.0
H549 H 0.06485 0.15101 0.44567 0.0
C550 C 0.37324 0.1265 0.7948 0.0
C551 C 0.36993 0.09975 0.8443 0.0
C552 C 0.42072 0.13278 0.90164 0.0
C553 C 0.425 0.15816 0.85092 0.0
N554 N 0.39855 0.18659 0.75927 0.0
N555 N 0.38494 0.08233 0.95061 0.0
C556 C 0.3986 0.15757 0.80119 0.0
C557 C 0.3917 0.10482 0.89985 0.0
N558 N 0.355 0.12048 0.73931 0.0
N559 N 0.44604 0.13404 0.94972 0.0
H560 H 0.36512 0.06065 0.94994 0.0
H561 H 0.39694 0.08663 0.99457 0.0
H562 H 0.46579 0.15563 0.9535 0.0
H563 H 0.4484 0.11348 0.9842 0.0
H564 H 0.35981 0.13636 0.69906 0.0
H565 H 0.33721 0.09767 0.73162 0.0
H566 H 0.37805 0.18995 0.72481 0.0
H567 H 0.41701 0.20941 0.76345 0.0
C568 C 0.90338 0.64954 0.22791 0.0
C569 C 0.92945 0.65175 0.17706 0.0
C570 C 0.89653 0.59914 0.12456 0.0
C571 C 0.87246 0.59502 0.1776 0.0
N572 N 0.84637 0.6213 0.27213 0.0
N573 N 0.94639 0.63421 0.07175 0.0
C574 C 0.87375 0.62208 0.22674 0.0
C575 C 0.92416 0.62857 0.12332 0.0
N576 N 0.90802 0.67293 0.27838 0.0
N577 N 0.89436 0.57334 0.07711 0.0
H578 H 0.96738 0.65466 0.07101 0.0
H579 H 0.94267 0.62076 0.02878 0.0
H580 H 0.87327 0.55298 0.076 0.0
H581 H 0.91358 0.5712 0.04021 0.0
H582 H 0.89329 0.67034 0.32048 0.0
H583 H 0.92772 0.69481 0.27851 0.0
H584 H 0.84352 0.64144 0.30739 0.0
H585 H 0.8243 0.60179 0.27134 0.0
C586 C 0.89834 0.86484 0.72314 0.0
C587 C 0.92626 0.86492 0.67518 0.0
C588 C 0.89388 0.91845 0.62597 0.0
C589 C 0.87169 0.9236 0.68086 0.0
N590 N 0.84989 0.89979 0.78019 0.0
N591 N 0.95005 0.89092 0.57881 0.0
C592 C 0.8725 0.89576 0.72856 0.0
C593 C 0.9234 0.89108 0.62526 0.0
N594 N 0.89678 0.835 0.76325 0.0
N595 N 0.88603 0.93952 0.57423 0.0
H596 H 0.97087 0.87022 0.57603 0.0
H597 H 0.95251 0.91198 0.54512 0.0
H598 H 0.86293 0.95777 0.57347 0.0
H599 H 0.89925 0.93579 0.5309 0.0
H600 H 0.87588 0.83145 0.7972 0.0
H601 H 0.9146 0.81179 0.75768 0.0
H602 H 0.85216 0.88322 0.82021 0.0
H603 H 0.8294 0.92081 0.78361 0.0
C604 C 0.60699 0.8896 0.13345 0.0
C605 C 0.59472 0.87286 0.19057 0.0
C606 C 0.63478 0.91679 0.24952 0.0
C607 C 0.648 0.93325 0.19266 0.0
N608 N 0.65194 0.93076 0.08007 0.0
N609 N 0.60575 0.86326 0.30086 0.0
C610 C 0.63601 0.91785 0.13439 0.0
C611 C 0.61195 0.88379 0.2477 0.0
N612 N 0.58988 0.87937 0.07862 0.0
N613 N 0.64133 0.93437 0.30547 0.0
H614 H 0.58911 0.83908 0.30147 0.0
H615 H 0.62036 0.86787 0.34256 0.0
H616 H 0.6563 0.95942 0.30882 0.0
H617 H 0.62879 0.92622 0.3476 0.0
H618 H 0.59403 0.89331 0.03624 0.0
H619 H 0.57009 0.8576 0.07632 0.0
H620 H 0.64682 0.91894 0.03615 0.0
H621 H 0.67276 0.95159 0.07974 0.0
C622 C 0.62224 0.65036 0.7388 0.0
C623 C 0.59423 0.65032 0.69099 0.0
C624 C 0.62818 0.59884 0.63681 0.0
C625 C 0.65451 0.59698 0.68667 0.0
N626 N 0.68351 0.62739 0.77449 0.0
N627 N 0.5763 0.63179 0.58676 0.0
C628 C 0.65374 0.62503 0.7342 0.0
C629 C 0.59925 0.62687 0.6374 0.0
N630 N 0.61771 0.67305 0.79018 0.0
N631 N 0.62998 0.5725 0.59022 0.0
H632 H 0.55527 0.65228 0.58638 0.0
H633 H 0.57994 0.61819 0.54383 0.0
H634 H 0.65252 0.5538 0.5871 0.0
H635 H 0.60917 0.56841 0.5565 0.0
H636 H 0.63438 0.67132 0.83019 0.0
H637 H 0.59596 0.69273 0.79405 0.0
H638 H 0.68667 0.64853 0.808 0.0
H639 H 0.70712 0.61001 0.76944 0.0
C640 C 0.25229 0.49131 0.06296 0.0
C641 C 0.26539 0.52062 0.02294 0.0
C642 C 0.31635 0.53447 0.09876 0.0
C643 C 0.30147 0.50739 0.1409 0.0
N644 N 0.26182 0.45306 0.15595 0.0
N645 N 0.30368 0.57758 0.01502 0.0
C646 C 0.27135 0.48374 0.12064 0.0
C647 C 0.29568 0.5442 0.04402 0.0
N648 N 0.21908 0.4735 0.04928 0.0
N649 N 0.351 0.55031 0.10898 0.0
H650 H 0.29083 0.58727 0.97457 0.0
H651 H 0.32121 0.59798 0.03482 0.0
H652 H 0.36849 0.54335 0.14614 0.0
H653 H 0.36482 0.56684 0.07569 0.0
H654 H 0.20538 0.45485 0.07926 0.0
H655 H 0.2027 0.48059 1.01069 0.0
H656 H 0.24339 0.43203 0.14112 0.0
H657 H 0.27522 0.44657 0.19797 0.0
C658 C 0.98477 0.31111 0.59377 0.0
C659 C 1.0091 0.29566 0.64033 0.0
C660 C 0.03122 0.24863 0.56229 0.0
C661 C 1.00732 0.26456 0.51601 0.0
N662 N 0.97234 0.31917 0.48298 0.0
N663 N 0.06411 0.25734 0.66089 0.0
C664 C 0.98751 0.29832 0.53041 0.0
C665 C 0.03494 0.2667 0.62208 0.0
N666 N 0.95747 0.33658 0.60971 0.0
N667 N 0.04945 0.21549 0.55033 0.0
H668 H 0.069 0.27096 0.7035 0.0
H669 H 0.08588 0.23916 0.64773 0.0
H670 H 0.04874 0.20231 0.50672 0.0
H671 H 0.06314 0.1999 0.58479 0.0
H672 H 0.93602 0.34466 0.57919 0.0
H673 H 0.95405 0.34745 0.65452 0.0
H674 H 0.96078 0.34589 0.48966 0.0
H675 H 0.97555 0.31181 0.43593 0.0
C676 C 0.26425 0.03347 0.04591 0.0
C677 C 0.24769 1.00803 1.00192 0.0
C678 C 0.21162 0.97906 0.08838 0.0
C679 C 0.22597 1.00581 0.13173 0.0
N680 N 0.26058 0.06361 0.14822 0.0
N681 N 0.19609 0.96546 0.98086 0.0
C682 C 0.25058 0.03464 0.10932 0.0
C683 C 0.21826 0.98384 0.02318 0.0
N684 N 0.29441 0.05515 0.02881 0.0
N685 N 0.19417 0.94717 0.10919 0.0
H686 H 0.19942 0.96925 0.93294 0.0
H687 H 0.17199 0.95032 0.99343 0.0
H688 H 0.19192 0.94064 0.15643 0.0
H689 H 0.18657 0.92499 0.07964 0.0
H690 H 0.3109 0.06998 0.06087 0.0
H691 H 0.30461 0.05662 0.9832 0.0
H692 H 0.2746 0.08767 0.13268 0.0
H693 H 0.25206 0.06524 0.19499 0.0
C694 C 0.52186 0.21957 0.5279 0.0
C695 C 0.51993 0.25919 0.51926 0.0
C696 C 0.50972 0.268 0.63226 0.0
C697 C 0.51319 0.22804 0.64221 0.0
N698 N 0.50898 0.16617 0.59568 0.0
N699 N 0.50196 0.31975 0.55937 0.0
C700 C 0.51552 0.20389 0.58883 0.0
C701 C 0.511 0.28288 0.57036 0.0
N702 N 0.52989 0.19684 0.47779 0.0
N703 N 0.50625 0.29261 0.68131 0.0
H704 H 0.50256 0.33155 0.51465 0.0
H705 H 0.4904 0.33765 0.5932 0.0
H706 H 0.49415 0.28604 0.72419 0.0
H707 H 0.51404 0.32087 0.67805 0.0
H708 H 0.53685 0.16845 0.4819 0.0
H709 H 0.53148 0.20697 0.43202 0.0
H710 H 0.50706 0.1474 0.5582 0.0
H711 H 0.50083 0.15422 0.63827 0.0
C712 C 0.75967 0.51825 0.3983 0.0
C713 C 0.7984 0.50854 0.38506 0.0
C714 C 0.80705 0.49634 0.49853 0.0
C715 C 0.76837 0.50477 0.5099 0.0
N716 N 0.71634 0.54255 0.47675 0.0
N717 N 0.86109 0.50433 0.42942 0.0
C718 C 0.74722 0.52135 0.46162 0.0
C719 C 0.8228 0.5021 0.43723 0.0
N720 N 0.73366 0.52328 0.3519 0.0
N721 N 0.82899 0.48334 0.54627 0.0
H722 H 0.87365 0.51289 0.3875 0.0
H723 H 0.88018 0.50285 0.46639 0.0
H724 H 0.81965 0.48265 0.59268 0.0
H725 H 0.8558 0.47188 0.53931 0.0
H726 H 0.70475 0.52504 0.36125 0.0
H727 H 0.73945 0.52348 0.30438 0.0
H728 H 0.7017 0.55866 0.444 0.0
H729 H 0.70869 0.54771 0.52334 0.0
C730 C 0.04155 0.81831 0.93178 0.0
C731 C 0.01568 0.80358 0.88714 0.0
C732 C 0.99787 0.75428 0.96365 0.0
C733 C 0.02844 0.76505 1.00274 0.0
N734 N 0.08106 0.80669 0.02216 0.0
N735 N 0.95613 0.77108 0.87834 0.0
C736 C 0.05067 0.79694 0.98631 0.0
C737 C 0.99008 0.77512 0.90783 0.0
N738 N 0.05392 0.85457 0.92631 0.0
N739 N 0.97664 0.72357 0.97924 0.0
H740 H 0.94679 0.79033 0.84509 0.0
H741 H 0.93489 0.75287 0.89321 0.0
H742 H 0.98009 0.70934 0.02144 0.0
H743 H 0.9574 0.71086 0.94899 0.0
H744 H 0.07037 0.868 0.96009 0.0
H745 H 0.04276 0.87316 0.89347 0.0
H746 H 0.10089 0.82676 1.00839 0.0
H747 H 0.08816 0.79265 0.06325 0.0
C748 C 0.75096 0.05129 0.40055 0.0
C749 C 0.73152 0.01887 0.38026 0.0
C750 C 0.74224 0.99082 0.48423 0.0
C751 C 0.7663 0.02159 0.50101 0.0
N752 N 0.80358 0.07333 0.45991 0.0
N753 N 0.71887 0.95303 0.39748 0.0
C754 C 0.77348 0.0496 0.45486 0.0
C755 C 0.73007 0.98708 0.42046 0.0
N756 N 0.74815 0.0842 0.36821 0.0
N757 N 0.72937 0.96615 0.5284 0.0
H758 H 0.71312 0.94897 0.35004 0.0
H759 H 0.72004 0.92832 0.42375 0.0
H760 H 0.73501 0.96882 0.57606 0.0
H761 H 0.70942 0.94541 0.51825 0.0
H762 H 0.75807 0.10953 0.38681 0.0
H763 H 0.73253 0.08671 0.3271 0.0
H764 H 0.8119 0.0909 0.4234 0.0
H765 H 0.82335 0.07133 0.49536 0.0
C766 C 0.49572 0.77751 0.96468 0.0
C767 C 0.51168 0.75636 0.01364 0.0
C768 C 0.52823 0.7073 0.93607 0.0
C769 C 0.50627 0.72642 0.88996 0.0
N770 N 0.4573 0.77268 0.87264 0.0
N771 N 0.53986 0.69816 0.04766 0.0
C772 C 0.48658 0.75954 0.90777 0.0
C773 C 0.52722 0.72032 0.99995 0.0
N774 N 0.49025 0.81524 0.9718 0.0
N775 N 0.55063 0.67764 0.91919 0.0
H776 H 0.54026 0.70733 0.09422 0.0
H777 H 0.54769 0.6701 0.04135 0.0
H778 H 0.55218 0.66735 0.87344 0.0
H779 H 0.56988 0.66522 0.94969 0.0
H780 H 0.48052 0.83214 0.93545 0.0
H781 H 0.50117 0.8298 1.01026 0.0
H782 H 0.44024 0.79492 0.88785 0.0
H783 H 0.44736 0.7585 0.83303 0.0
C784 C 0.74782 0.53127 0.91227 0.0
C785 C 0.71988 0.50498 0.89194 0.0
C786 C 0.72882 0.46951 0.98985 0.0
C787 C 0.7599 0.49292 1.0062 0.0
N788 N 0.80006 0.54563 0.98205 0.0
N789 N 0.67054 0.46464 0.9317 0.0
C790 C 0.76951 0.52384 0.96729 0.0
C791 C 0.7065 0.47827 0.93628 0.0
N792 N 0.75051 0.5654 0.88325 0.0
N793 N 0.72074 0.43835 0.02486 0.0
H794 H 0.65111 0.4751 0.89956 0.0
H795 H 0.65804 0.44779 0.96592 0.0
H796 H 0.73566 0.43122 0.06508 0.0
H797 H 0.70131 0.41794 1.0109 0.0
H798 H 0.76816 0.58708 0.89815 0.0
H799 H 0.73072 0.57422 0.85041 0.0
H800 H 0.81179 0.56538 0.95166 0.0
H801 H 0.81542 0.54204 0.0232 0.0
C802 C 1.00656 0.76105 0.39687 0.0
C803 C 0.01925 0.72354 0.38177 0.0
C804 C 0.03909 0.71658 0.49199 0.0
C805 C 0.02403 0.75251 0.50695 0.0
N806 N 0.98161 0.80216 0.47814 0.0
N807 N 0.03285 0.6619 0.42522 0.0
C808 C 1.00385 0.77243 0.46085 0.0
C809 C 0.03119 0.70011 0.43236 0.0
N810 N 0.99921 0.78722 0.35162 0.0
N811 N 0.06158 0.69829 0.53391 0.0
H812 H 0.02256 0.64804 0.38563 0.0
H813 H 0.03905 0.64376 0.46217 0.0
H814 H 0.06813 0.70957 0.57773 0.0
H815 H 0.07623 0.67367 0.52268 0.0
H816 H 0.99451 0.81555 0.36216 0.0
H817 H 1.00136 0.78274 0.3038 0.0
H818 H 0.96334 0.81565 0.44719 0.0
H819 H 0.9784 0.81038 0.52491 0.0
C820 C 0.74719 0.04733 0.94896 0.0
C821 C 0.75858 0.0246 1.0003 0.0
C822 C 0.80453 0.99307 0.92991 0.0
C823 C 0.79508 0.01852 0.88123 0.0
N824 N 0.76734 0.07821 0.85392 0.0
N825 N 0.80584 0.98208 0.04211 0.0
C826 C 0.76951 0.04827 0.89383 0.0
C827 C 0.78933 0.99894 0.99162 0.0
N828 N 0.71417 0.06713 0.95163 0.0
N829 N 0.82769 0.96323 0.9174 0.0
H830 H 0.79752 0.98709 0.08829 0.0
H831 H 0.83051 0.96617 0.03868 0.0
H832 H 0.84062 0.95933 0.87383 0.0
H833 H 0.8321 0.94132 0.94898 0.0
H834 H 0.7044 0.08351 0.9147 0.0
H835 H 0.69445 0.06352 0.98745 0.0
H836 H 0.75178 0.10244 0.86397 0.0
H837 H 0.78478 0.0807 0.81464 0.0
C838 C 0.49837 0.82024 0.44057 0.0
C839 C 0.51838 0.80021 0.39273 0.0
C840 C 0.53106 0.74886 0.46741 0.0
C841 C 0.50818 0.76691 0.51328 0.0
N842 N 0.48115 0.82508 0.55083 0.0
N843 N 0.5679 0.75531 0.37194 0.0
C844 C 0.49513 0.80424 0.50196 0.0
C845 C 0.53916 0.76754 0.40987 0.0
N846 N 0.48205 0.85423 0.42804 0.0
N847 N 0.544 0.7132 0.47755 0.0
H848 H 0.57621 0.77002 0.33185 0.0
H849 H 0.58631 0.73365 0.38413 0.0
H850 H 0.53995 0.6993 0.51986 0.0
H851 H 0.55657 0.69669 0.44275 0.0
H852 H 0.46264 0.86734 0.45768 0.0
H853 H 0.48744 0.86993 0.38803 0.0
H854 H 0.47482 0.85366 0.5485 0.0
H855 H 0.47951 0.81476 0.59623 0.0
C856 C 0.22984 0.54692 0.61002 0.0
C857 C 0.22858 0.51258 0.6432 0.0
C858 C 0.26236 0.48237 0.5543 0.0
C859 C 0.26641 0.5183 0.52451 0.0
N860 N 0.27204 0.58497 0.5497 0.0
N861 N 0.25116 0.44873 0.65205 0.0
C862 C 0.25548 0.55076 0.55972 0.0
C863 C 0.24697 0.48051 0.61676 0.0
N864 N 0.20756 0.57653 0.62702 0.0
N865 N 0.27419 0.45016 0.52515 0.0
H866 H 0.24022 0.44627 0.69733 0.0
H867 H 0.26795 0.42599 0.63844 0.0
H868 H 0.29194 0.44975 0.48626 0.0
H869 H 0.26629 0.4234 0.5403 0.0
H870 H 0.20646 0.60143 0.60117 0.0
H871 H 0.18689 0.57421 0.66132 0.0
H872 H 0.26482 0.60893 0.57546 0.0
H873 H 0.29712 0.58795 0.52435 0.0
C874 C 0.03876 0.21781 0.09492 0.0
C875 C 1.00959 0.22145 0.14028 0.0
C876 C 0.97504 0.26313 0.07021 0.0
C877 C 1.00259 0.25782 0.02166 0.0
N878 N 0.05516 0.21954 0.98455 0.0
N879 N 0.94484 0.23739 0.16267 0.0
C880 C 0.03314 0.23229 0.03294 0.0
C881 C 0.97591 0.24041 0.12463 0.0
N882 N 0.0718 0.2006 0.1109 0.0
N883 N 0.94914 0.29152 0.06666 0.0
H884 H 0.94482 0.22176 0.20396 0.0
H885 H 0.91809 0.24694 0.15004 0.0
H886 H 0.9518 0.31384 0.03555 0.0
H887 H 0.92798 0.29584 0.09988 0.0
H888 H 0.09584 0.20102 0.08248 0.0
H889 H 0.07556 0.1877 0.15432 0.0
H890 H 0.07546 0.19855 0.98996 0.0
H891 H 0.05039 0.22618 0.93777 0.0
C892 C 0.30319 0.97753 0.53401 0.0
C893 C 0.27496 1.00248 0.50936 0.0
C894 C 0.28222 0.04211 0.60451 0.0
C895 C 0.30971 0.01677 0.62871 0.0
N896 N 0.35609 0.96918 0.60448 0.0
N897 N 0.24295 0.0628 0.51865 0.0
C898 C 0.32331 0.98739 0.58965 0.0
C899 C 0.26657 0.0363 0.5434 0.0
N900 N 0.31074 0.94368 0.50582 0.0
N901 N 0.26986 0.07123 0.64143 0.0
H902 H 0.22662 0.05858 0.479 0.0
H903 H 0.24065 0.09015 0.53603 0.0
H904 H 0.28297 0.07861 0.68339 0.0
H905 H 0.2458 0.08711 0.63217 0.0
H906 H 0.3259 0.92231 0.52777 0.0
H907 H 0.30064 0.93541 0.46231 0.0
H908 H 0.36944 0.95005 0.57453 0.0
H909 H 0.37286 0.97666 0.64245 0.0
C910 C 0.56058 0.28786 0.04291 0.0
C911 C 0.53126 0.26495 0.0184 0.0
C912 C 0.49401 0.27503 0.11502 0.0
C913 C 0.52458 0.29571 0.14136 0.0
N914 N 0.58904 0.31747 0.13284 0.0
N915 N 0.47102 0.23434 0.03141 0.0
C916 C 0.55815 0.30146 0.10554 0.0
C917 C 0.49797 0.25829 0.05423 0.0
N918 N 0.59101 0.29683 1.00609 0.0
N919 N 0.46105 0.27156 0.1482 0.0
H920 H 0.47258 0.22232 0.98684 0.0
H921 H 0.44827 0.22435 0.05753 0.0
H922 H 0.45789 0.28128 0.19409 0.0
H923 H 0.43607 0.261 0.12953 0.0
H924 H 0.61026 0.31802 0.01696 0.0
H925 H 0.5958 0.2851 0.96201 0.0
H926 H 0.61589 0.31816 0.11276 0.0
H927 H 0.58902 0.32649 0.17887 0.0
C928 C 0.18819 0.61095 0.33746 0.0
C929 C 0.21671 0.59821 0.29534 0.0
C930 C 0.18359 0.62863 0.20768 0.0
C931 C 0.15623 0.64332 0.2504 0.0
N932 N 0.13644 0.65455 0.35702 0.0
N933 N 0.24526 0.59997 0.1924 0.0
C934 C 0.1597 0.63614 0.31567 0.0
C935 C 0.21555 0.6087 0.23109 0.0
N936 N 0.18811 0.59868 0.39821 0.0
N937 N 0.17817 0.63196 0.14446 0.0
H938 H 0.26848 0.58421 0.20698 0.0
H939 H 0.24826 0.61056 0.14712 0.0
H940 H 0.15598 0.64715 0.12503 0.0
H941 H 0.19417 0.61748 0.11108 0.0
H942 H 0.16599 0.60355 0.42954 0.0
H943 H 0.20897 0.58109 0.41626 0.0
H944 H 0.13954 0.65351 0.40554 0.0
H945 H 0.11612 0.67395 0.34262 0.0
C946 C 0.87899 0.15871 0.82836 0.0
C947 C 0.88278 0.14747 0.76437 0.0
C948 C 0.91816 0.20589 0.74312 0.0
C949 C 0.91851 0.21448 0.80788 0.0
N950 N 0.90348 0.19671 0.91412 0.0
N951 N 0.91551 0.15685 0.66524 0.0
C952 C 0.90021 0.19015 0.85116 0.0
C953 C 0.90494 0.17014 0.72289 0.0
N954 N 0.85384 0.14073 0.86673 0.0
N955 N 0.9297 0.23219 0.70043 0.0
H956 H 0.90893 0.12999 0.64946 0.0
H957 H 0.93479 0.1707 0.63626 0.0
H958 H 0.93837 0.25917 0.71343 0.0
H959 H 0.92664 0.2287 0.65211 0.0
H960 H 0.84707 0.15015 0.91173 0.0
H961 H 0.83692 0.11852 0.85168 0.0
H962 H 0.89445 0.17769 0.94815 0.0
H963 H 0.91783 0.21993 0.93231 0.0
C964 C 0.30852 0.884 0.25514 0.0
C965 C 0.31226 0.91147 0.3036 0.0
C966 C 0.37458 0.88531 0.32914 0.0
C967 C 0.37333 0.86138 0.27587 0.0
N968 N 0.33197 0.8261 0.20803 0.0
N969 N 0.35389 0.94336 0.37673 0.0
C970 C 0.33822 0.85738 0.24407 0.0
C971 C 0.34675 0.91374 0.33751 0.0
N972 N 0.2775 0.88487 0.21704 0.0
N973 N 0.39972 0.87805 0.37582 0.0
H974 H 0.3352 0.96556 0.3841 0.0
H975 H 0.38022 0.94769 0.39734 0.0
H976 H 0.41521 0.85308 0.3764 0.0
H977 H 0.39996 0.89273 0.41828 0.0
H978 H 0.27485 0.86858 0.17658 0.0
H979 H 0.25591 0.90468 0.22217 0.0
H980 H 0.30611 0.81974 0.18746 0.0
H981 H 0.35097 0.80365 0.20626 0.0
C982 C 0.60662 0.3405 0.82903 0.0
C983 C 0.59787 0.31031 0.78812 0.0
C984 C 0.63337 0.34193 0.70381 0.0
C985 C 0.64587 0.3697 0.74753 0.0
N986 N 0.65125 0.38954 0.85524 0.0
N987 N 0.60627 0.27971 0.68789 0.0
C988 C 0.63454 0.36712 0.81124 0.0
C989 C 0.61224 0.31025 0.72579 0.0
N990 N 0.58674 0.34495 0.88354 0.0
N991 N 0.63998 0.34657 0.64111 0.0
H992 H 0.59004 0.25665 0.70179 0.0
H993 H 0.61945 0.27613 0.64449 0.0
H994 H 0.65576 0.3688 0.62299 0.0
H995 H 0.62752 0.32985 0.60666 0.0
H996 H 0.58977 0.36831 0.91286 0.0
H997 H 0.56409 0.32748 0.89532 0.0
H998 H 0.64649 0.38643 0.90325 0.0
H999 H 0.67313 0.40806 0.84396 0.0
C1000 C 0.67793 0.43836 0.20868 0.0
C1001 C 0.7141 0.42628 0.2285 0.0
C1002 C 0.68517 0.37145 0.27934 0.0
C1003 C 0.64852 0.38637 0.2681 0.0
N1004 N 0.61081 0.4386 0.22857 0.0
N1005 N 0.75169 0.38498 0.29253 0.0
C1006 C 0.645 0.42095 0.23413 0.0
C1007 C 0.71757 0.39387 0.26671 0.0
N1008 N 0.67491 0.46582 0.16412 0.0
N1009 N 0.68929 0.33506 0.29889 0.0
H1010 H 0.77578 0.40137 0.28569 0.0
H1011 H 0.75507 0.36377 0.32575 0.0
H1012 H 0.66652 0.31671 0.30401 0.0
H1013 H 0.71546 0.32178 0.30232 0.0
H1014 H 0.64957 0.47242 0.14196 0.0
H1015 H 0.69825 0.47965 0.14501 0.0
H1016 H 0.60797 0.46581 0.21099 0.0
H1017 H 0.5856 0.42846 0.24707 0.0
C1018 C 0.08039 0.67117 0.71986 0.0
C1019 C 0.09534 0.70767 0.7308 0.0
C1020 C 0.15349 0.67952 0.77215 0.0
C1021 C 0.13723 0.64306 0.76733 0.0
N1022 N 0.0816 0.6051 0.74657 0.0
N1023 N 0.14201 0.74649 0.78167 0.0
C1024 C 0.09975 0.63904 0.74361 0.0
C1025 C 0.13079 0.71182 0.7609 0.0
N1026 N 0.04814 0.66694 0.68541 0.0
N1027 N 0.19105 0.68337 0.78543 0.0
H1028 H 0.12496 0.7703 0.77788 0.0
H1029 H 0.16595 0.75073 0.80911 0.0
H1030 H 0.20894 0.6604 0.79197 0.0
H1031 H 0.20521 0.70907 0.7833 0.0
H1032 H 0.03871 0.64097 0.66878 0.0
H1033 H 0.03229 0.6896 0.66906 0.0
H1034 H 0.05286 0.60186 0.73764 0.0
H1035 H 0.09399 0.58057 0.76327 0.0
C1036 C 0.80932 0.13251 0.26304 0.0
C1037 C 0.81004 0.10764 0.21055 0.0
C1038 C 0.87655 0.12658 0.19455 0.0
C1039 C 0.87801 0.14268 0.25628 0.0
N1040 N 0.84374 0.1484 0.35575 0.0
N1041 N 0.84677 0.08102 0.12536 0.0
C1042 C 0.84385 0.14225 0.29238 0.0
C1043 C 0.84463 0.10409 0.17665 0.0
N1044 N 0.77634 0.14712 0.28598 0.0
N1045 N 0.90353 0.13505 0.15076 0.0
H1046 H 0.82341 0.06731 0.10632 0.0
H1047 H 0.87236 0.07426 0.10364 0.0
H1048 H 0.92408 0.15559 0.15742 0.0
H1049 H 0.90194 0.12608 0.10423 0.0
H1050 H 0.77601 0.16847 0.31978 0.0
H1051 H 0.74972 0.14112 0.26837 0.0
H1052 H 0.81896 0.1495 0.38226 0.0
H1053 H 0.8676 0.14554 0.3837 0.0
C1054 C 0.37253 0.8633 0.69996 0.0
C1055 C 0.38011 0.88017 0.75926 0.0
C1056 C 0.43767 0.84089 0.76681 0.0
C1057 C 0.42602 0.81885 0.71473 0.0
N1058 N 0.38396 0.8119 0.62649 0.0
N1059 N 0.4181 0.87988 0.8532 0.0
C1060 C 0.3938 0.83092 0.67984 0.0
C1061 C 0.41218 0.86751 0.79357 0.0
N1062 N 0.34545 0.8786 0.66228 0.0
N1063 N 0.47329 0.83746 0.79073 0.0
H1064 H 0.39963 0.89777 0.87573 0.0
H1065 H 0.4387 0.86901 0.88271 0.0
H1066 H 0.4933 0.81833 0.77462 0.0
H1067 H 0.48441 0.85648 0.82312 0.0
H1068 H 0.34105 0.87056 0.61587 0.0
H1069 H 0.32888 0.90143 0.6761 0.0
H1070 H 0.35819 0.81534 0.60382 0.0
H1071 H 0.40156 0.79205 0.60513 0.0
C1072 C 0.85273 0.40673 0.81416 0.0
C1073 C 0.87386 0.38218 0.77411 0.0
C1074 C 0.83352 0.40065 0.68597 0.0
C1075 C 0.81091 0.42333 0.7271 0.0
N1076 N 0.79158 0.43442 0.8346 0.0
N1077 N 0.87477 0.34641 0.67783 0.0
C1078 C 0.8183 0.42243 0.79249 0.0
C1079 C 0.86152 0.37644 0.71165 0.0
N1080 N 0.86567 0.41634 0.87229 0.0
N1081 N 0.8293 0.40245 0.62236 0.0
H1082 H 0.89315 0.32648 0.69667 0.0
H1083 H 0.86398 0.33876 0.63416 0.0
H1084 H 0.80911 0.41882 0.60009 0.0
H1085 H 0.84825 0.38985 0.59113 0.0
H1086 H 0.85266 0.43673 0.90023 0.0
H1087 H 0.89119 0.40708 0.89031 0.0
H1088 H 0.79436 0.43113 0.88296 0.0
H1089 H 0.76455 0.44282 0.82136 0.0
C1090 C 0.10575 0.87661 0.23858 0.0
C1091 C 0.14258 0.87213 0.26485 0.0
C1092 C 0.13469 0.80345 0.25843 0.0
C1093 C 0.10035 0.80818 0.22515 0.0
N1094 N 0.05696 0.84976 0.17268 0.0
N1095 N 0.19505 0.83064 0.28643 0.0
C1096 C 0.08698 0.84491 0.21202 0.0
C1097 C 0.1579 0.83532 0.27099 0.0
N1098 N 0.08748 0.91049 0.24186 0.0
N1099 N 0.14447 0.7687 0.28043 0.0
H1100 H 0.21345 0.85318 0.2934 0.0
H1101 H 0.20851 0.80453 0.28554 0.0
H1102 H 0.12713 0.74518 0.27513 0.0
H1103 H 0.16744 0.7642 0.30995 0.0
H1104 H 0.05916 0.91383 0.22983 0.0
H1105 H 0.09884 0.93442 0.26269 0.0
H1106 H 0.04884 0.87604 0.15568 0.0
H1107 H 0.04235 0.82735 0.15233 0.0
C1108 C 0.68836 0.08253 0.76436 0.0
C1109 C 0.7125 0.09786 0.71736 0.0
C1110 C 0.67246 0.15519 0.71403 0.0
C1111 C 0.64985 0.14067 0.76348 0.0
N1112 N 0.64075 0.0937 0.84348 0.0
N1113 N 0.72039 0.14334 0.63438 0.0
C1114 C 0.65872 0.10495 0.78994 0.0
C1115 C 0.7028 0.13296 0.68896 0.0
N1116 N 0.69324 0.0464 0.78496 0.0
N1117 N 0.66504 0.19037 0.6912 0.0
H1118 H 0.74007 0.1263 0.61134 0.0
H1119 H 0.71275 0.16662 0.60777 0.0
H1120 H 0.64184 0.20632 0.70562 0.0
H1121 H 0.68295 0.20488 0.6609 0.0
H1122 H 0.67289 0.03158 0.8102 0.0
H1123 H 0.71616 0.02955 0.77375 0.0
H1124 H 0.64695 0.06937 0.86843 0.0
H1125 H 0.62219 0.11094 0.86764 0.0
C1126 C 0.42901 0.6943 0.29424 0.0
C1127 C 0.43222 0.70197 0.22946 0.0
C1128 C 0.388 0.6504 0.20657 0.0
C1129 C 0.38851 0.63962 0.27077 0.0
N1130 N 0.41766 0.64767 0.37319 0.0
N1131 N 0.41981 0.68381 0.12245 0.0
C1132 C 0.41128 0.66054 0.31393 0.0
C1133 C 0.41338 0.67879 0.18511 0.0
N1134 N 0.44172 0.71985 0.33747 0.0
N1135 N 0.36168 0.63543 0.16689 0.0
H1136 H 0.43829 0.70425 0.10531 0.0
H1137 H 0.4097 0.66546 0.08813 0.0
H1138 H 0.34086 0.61663 0.18172 0.0
H1139 H 0.35777 0.64481 0.12111 0.0
H1140 H 0.436 0.71776 0.38536 0.0
H1141 H 0.4548 0.74504 0.32513 0.0
H1142 H 0.43725 0.65983 0.40348 0.0
H1143 H 0.40675 0.62265 0.39009 0.0
C1144 C 0.33654 0.64001 0.72373 0.0
C1145 C 0.36779 0.649 0.76417 0.0
C1146 C 0.33923 0.60761 0.84346 0.0
C1147 C 0.30548 0.60437 0.80816 0.0
N1148 N 0.27015 0.62383 0.71713 0.0
N1149 N 0.38856 0.65088 0.87261 0.0
C1150 C 0.3033 0.62327 0.74974 0.0
C1151 C 0.36605 0.63575 0.82716 0.0
N1152 N 0.33895 0.6437 0.65994 0.0
N1153 N 0.34671 0.58345 0.89138 0.0
H1154 H 0.40509 0.67479 0.86524 0.0
H1155 H 0.38629 0.64308 0.91965 0.0
H1156 H 0.32966 0.56034 0.90137 0.0
H1157 H 0.37231 0.58379 0.91553 0.0
H1158 H 0.31772 0.63457 0.62985 0.0
H1159 H 0.36341 0.64995 0.63514 0.0
H1160 H 0.26594 0.64142 0.67867 0.0
H1161 H 0.24614 0.60895 0.73091 0.0
C1162 C 0.91152 0.35503 0.21979 0.0
C1163 C 0.88223 0.37009 0.25791 0.0
C1164 C 0.89851 0.32473 0.34055 0.0
C1165 C 0.92942 0.31123 0.3034 0.0
N1166 N 0.97064 0.32084 0.21423 0.0
N1167 N 0.85183 0.37406 0.35877 0.0
C1168 C 0.93781 0.32896 0.24534 0.0
C1169 C 0.87679 0.35624 0.31956 0.0
N1170 N 0.91325 0.36477 0.15801 0.0
N1171 N 0.89005 0.30768 0.39628 0.0
H1172 H 0.83507 0.39657 0.34428 0.0
H1173 H 0.8495 0.36833 0.40652 0.0
H1174 H 0.90727 0.28733 0.41666 0.0
H1175 H 0.86524 0.31273 0.42137 0.0
H1176 H 0.93438 0.35644 0.1271 0.0
H1177 H 0.89109 0.37846 0.13593 0.0
H1178 H 0.98013 0.3356 0.17516 0.0
H1179 H 0.99053 0.30184 0.23068 0.0
C1180 C 0.18407 0.88009 0.702 0.0
C1181 C 0.15271 0.87621 0.7438 0.0
C1182 C 0.17486 0.93121 0.80215 0.0
C1183 C 0.20967 0.93042 0.76956 0.0
N1184 N 0.24747 0.90454 0.68567 0.0
N1185 N 0.12508 0.89251 0.8439 0.0
C1186 C 0.21442 0.90462 0.71893 0.0
C1187 C 0.15047 0.89995 0.79726 0.0
N1188 N 0.18403 0.86272 0.64467 0.0
N1189 N 0.16358 0.9624 0.83459 0.0
H1190 H 0.10846 0.86825 0.84343 0.0
H1191 H 0.12417 0.90787 0.88572 0.0
H1192 H 0.17858 0.98761 0.8339 0.0
H1193 H 0.13691 0.96452 0.85536 0.0
H1194 H 0.20407 0.86824 0.60997 0.0
H1195 H 0.16251 0.8451 0.62922 0.0
H1196 H 0.25475 0.88345 0.6537 0.0
H1197 H 0.26798 0.92536 0.69162 0.0
C1198 C 0.6437 0.15884 0.33793 0.0
C1199 C 0.65792 0.15744 0.27502 0.0
C1200 C 0.63009 0.21935 0.25445 0.0
C1201 C 0.61383 0.21994 0.31519 0.0
N1202 N 0.61457 0.1964 0.42089 0.0
N1203 N 0.68218 0.19677 0.19167 0.0
C1204 C 0.62326 0.19136 0.35886 0.0
C1205 C 0.65647 0.19086 0.2386 0.0
N1206 N 0.65071 0.13002 0.3785 0.0
N1207 N 0.61991 0.24566 0.21119 0.0
H1208 H 0.70548 0.1792 0.18486 0.0
H1209 H 0.68374 0.22188 0.16655 0.0
H1210 H 0.60065 0.26699 0.2214 0.0
H1211 H 0.62799 0.24405 0.16413 0.0
H1212 H 0.63567 0.12592 0.42002 0.0
H1213 H 0.67269 0.11093 0.3719 0.0
H1214 H 0.62352 0.17859 0.45655 0.0
H1215 H 0.60092 0.22046 0.43764 0.0
loop_
_geom_bond_atom_site_label_1
_geom_bond_atom_site_label_2
_geom_bond_distance
_geom_bond_site_symmetry_2
_ccdc_geom_bond_type
Fe0 O2 1.918 . S
Fe0 O5 1.997 . S
Fe0 O6 2.002 . S
Fe0 O11 1.976 . S
Fe0 O14 1.996 . S
Fe1 O2 1.918 . S
Fe1 O9 1.997 . S
Fe1 O12 1.996 . S
Fe1 O16 1.976 . S
Fe1 O19 2.002 . S
O2 Fe0 1.918 . S
O2 Fe1 1.918 . S
O2 Fe3 1.918 . S
Fe3 O2 1.918 . S
Fe3 O4 2.002 . S
Fe3 O13 1.976 . S
Fe3 O17 1.996 . S
Fe3 O20 1.997 . S
O4 Fe3 2.002 . S
O4 C21 1.295 . S
O5 Fe0 1.997 . S
O5 C21 1.235 . S
O6 Fe0 2.002 . S
O6 C7 1.295 . S
C7 O6 1.295 . S
C7 O9 1.235 . S
C8 O13 1.287 . S
C8 O14 1.255 . S
O9 Fe1 1.997 . S
O9 C7 1.235 . S
C10 O16 1.287 . S
C10 O17 1.255 . S
O11 Fe0 1.976 . S
O11 C18 1.287 . S
O12 Fe1 1.996 . S
O12 C18 1.255 . S
O13 Fe3 1.976 . S
O13 C8 1.287 . S
O14 Fe0 1.996 . S
O14 C8 1.255 . S
C15 O19 1.295 . S
C15 O20 1.235 . S
O16 Fe1 1.976 . S
O16 C10 1.287 . S
O17 Fe3 1.996 . S
O17 C10 1.255 . S
C18 O11 1.287 . S
C18 O12 1.255 . S
O19 Fe1 2.002 . S
O19 C15 1.295 . S
O20 Fe3 1.997 . S
O20 C15 1.235 . S
C21 O4 1.295 . S
C21 O5 1.235 . S
Fe22 O24 1.918 1_455 S
Fe22 O27 1.997 1_455 S
Fe22 O28 2.002 . S
Fe22 O33 1.976 . S
Fe22 O36 1.996 . S
Fe23 O24 1.918 . S
Fe23 O31 1.997 . S
Fe23 O34 1.996 1_655 S
Fe23 O38 1.976 . S
Fe23 O41 2.002 . S
O24 Fe22 1.918 1_655 S
O24 Fe23 1.918 . S
O24 Fe25 1.918 . S
Fe25 O24 1.918 . S
Fe25 O26 2.002 . S
Fe25 O35 1.976 . S
Fe25 O39 1.996 . S
Fe25 O42 1.997 . S
O26 Fe25 2.002 . S
O26 C43 1.295 . S
O27 Fe22 1.997 1_655 S
O27 C43 1.235 . S
O28 Fe22 2.002 . S
O28 C29 1.293 1_455 S
C29 O28 1.293 1_655 S
C29 O31 1.238 . S
C30 O35 1.287 . S
C30 O36 1.255 1_655 S
O31 Fe23 1.997 . S
O31 C29 1.238 . S
C32 O38 1.287 . S
C32 O39 1.255 . S
O33 Fe22 1.976 . S
O33 C40 1.287 . S
O34 Fe23 1.996 1_455 S
O34 C40 1.255 . S
O35 Fe25 1.976 . S
O35 C30 1.287 . S
O36 Fe22 1.996 . S
O36 C30 1.255 1_455 S
C37 O41 1.295 . S
C37 O42 1.235 . S
O38 Fe23 1.976 . S
O38 C32 1.287 . S
O39 Fe25 1.996 . S
O39 C32 1.255 . S
C40 O33 1.287 . S
C40 O34 1.255 . S
O41 Fe23 2.002 . S
O41 C37 1.295 . S
O42 Fe25 1.997 . S
O42 C37 1.235 . S
C43 O26 1.295 . S
C43 O27 1.235 . S
Fe44 O46 1.918 1_545 S
Fe44 O49 1.997 1_545 S
Fe44 O50 2.002 . S
Fe44 O55 1.976 . S
Fe44 O58 1.996 . S
Fe45 O46 1.918 . S
Fe45 O53 1.997 . S
Fe45 O56 1.996 1_565 S
Fe45 O60 1.976 . S
Fe45 O63 2.002 . S
O46 Fe44 1.918 1_565 S
O46 Fe45 1.918 . S
O46 Fe47 1.918 . S
Fe47 O46 1.918 . S
Fe47 O48 2.002 . S
Fe47 O57 1.976 . S
Fe47 O61 1.996 . S
Fe47 O64 1.997 . S
O48 Fe47 2.002 . S
O48 C65 1.295 . S
O49 Fe44 1.997 1_565 S
O49 C65 1.235 . S
O50 Fe44 2.002 . S
O50 C51 1.293 1_545 S
C51 O50 1.293 1_565 S
C51 O53 1.238 . S
C52 O57 1.287 . S
C52 O58 1.255 1_565 S
O53 Fe45 1.997 . S
O53 C51 1.238 . S
C54 O60 1.287 . S
C54 O61 1.255 . S
O55 Fe44 1.976 . S
O55 C62 1.287 . S
O56 Fe45 1.996 1_545 S
O56 C62 1.255 . S
O57 Fe47 1.976 . S
O57 C52 1.287 . S
O58 Fe44 1.996 . S
O58 C52 1.255 1_545 S
C59 O63 1.295 . S
C59 O64 1.235 . S
O60 Fe45 1.976 . S
O60 C54 1.287 . S
O61 Fe47 1.996 . S
O61 C54 1.255 . S
C62 O55 1.287 . S
C62 O56 1.255 . S
O63 Fe45 2.002 . S
O63 C59 1.295 . S
O64 Fe47 1.997 . S
O64 C59 1.235 . S
C65 O48 1.295 . S
C65 O49 1.235 . S
Fe66 O68 1.918 . S
Fe66 O71 1.997 . S
Fe66 O72 2.002 . S
Fe66 O77 1.976 . S
Fe66 O80 1.996 . S
Fe67 O68 1.918 . S
Fe67 O75 1.997 . S
Fe67 O78 1.996 . S
Fe67 O82 1.976 . S
Fe67 O85 2.002 . S
O68 Fe66 1.918 . S
O68 Fe67 1.918 . S
O68 Fe69 1.918 . S
Fe69 O68 1.918 . S
Fe69 O70 2.002 . S
Fe69 O79 1.976 . S
Fe69 O83 1.996 . S
Fe69 O86 1.997 . S
O70 Fe69 2.002 . S
O70 C87 1.295 . S
O71 Fe66 1.997 . S
O71 C87 1.235 . S
O72 Fe66 2.002 . S
O72 C73 1.295 . S
C73 O72 1.295 . S
C73 O75 1.235 . S
C74 O79 1.287 . S
C74 O80 1.255 . S
O75 Fe67 1.997 . S
O75 C73 1.235 . S
C76 O82 1.287 . S
C76 O83 1.255 . S
O77 Fe66 1.976 . S
O77 C84 1.287 . S
O78 Fe67 1.996 . S
O78 C84 1.255 . S
O79 Fe69 1.976 . S
O79 C74 1.287 . S
O80 Fe66 1.996 . S
O80 C74 1.255 . S
C81 O85 1.295 . S
C81 O86 1.235 . S
O82 Fe67 1.976 . S
O82 C76 1.287 . S
O83 Fe69 1.996 . S
O83 C76 1.255 . S
C84 O77 1.287 . S
C84 O78 1.255 . S
O85 Fe67 2.002 . S
O85 C81 1.295 . S
O86 Fe69 1.997 . S
O86 C81 1.235 . S
C87 O70 1.295 . S
C87 O71 1.235 . S
Fe88 O90 1.918 . S
Fe88 O93 1.997 . S
Fe88 O94 2.002 . S
Fe88 O99 1.976 . S
Fe88 O102 1.996 . S
Fe89 O90 1.918 . S
Fe89 O97 1.997 . S
Fe89 O100 1.996 . S
Fe89 O104 1.976 . S
Fe89 O107 2.002 . S
O90 Fe88 1.918 . S
O90 Fe89 1.918 . S
O90 Fe91 1.918 . S
Fe91 O90 1.918 . S
Fe91 O92 2.002 . S
Fe91 O101 1.976 . S
Fe91 O105 1.996 . S
Fe91 O108 1.997 . S
O92 Fe91 2.002 . S
O92 C109 1.295 . S
O93 Fe88 1.997 . S
O93 C109 1.235 . S
O94 Fe88 2.002 . S
O94 C95 1.295 . S
C95 O94 1.295 . S
C95 O97 1.235 . S
C96 O101 1.287 . S
C96 O102 1.255 . S
O97 Fe89 1.997 . S
O97 C95 1.235 . S
C98 O104 1.287 . S
C98 O105 1.255 . S
O99 Fe88 1.976 . S
O99 C106 1.287 . S
O100 Fe89 1.996 . S
O100 C106 1.255 . S
O101 Fe91 1.976 . S
O101 C96 1.287 . S
O102 Fe88 1.996 . S
O102 C96 1.255 . S
C103 O107 1.295 . S
C103 O108 1.235 . S
O104 Fe89 1.976 . S
O104 C98 1.287 . S
O105 Fe91 1.996 . S
O105 C98 1.255 . S
C106 O99 1.287 . S
C106 O100 1.255 . S
O107 Fe89 2.002 . S
O107 C103 1.295 . S
O108 Fe91 1.997 . S
O108 C103 1.235 . S
C109 O92 1.295 . S
C109 O93 1.235 . S
Fe110 O112 1.918 . S
Fe110 O115 1.997 . S
Fe110 O116 2.002 . S
Fe110 O121 1.976 . S
Fe110 O124 1.996 . S
Fe111 O112 1.918 1_655 S
Fe111 O119 1.997 1_655 S
Fe111 O122 1.996 . S
Fe111 O126 1.976 . S
Fe111 O129 2.002 . S
O112 Fe110 1.918 . S
O112 Fe111 1.918 1_455 S
O112 Fe113 1.918 . S
Fe113 O112 1.918 . S
Fe113 O114 2.002 . S
Fe113 O123 1.976 . S
Fe113 O127 1.996 1_455 S
Fe113 O130 1.997 . S
O114 Fe113 2.002 . S
O114 C131 1.295 . S
O115 Fe110 1.997 . S
O115 C131 1.235 . S
O116 Fe110 2.002 . S
O116 C117 1.295 . S
C117 O116 1.295 . S
C117 O119 1.235 . S
C118 O123 1.287 . S
C118 O124 1.255 . S
O119 Fe111 1.997 1_455 S
O119 C117 1.235 . S
C120 O126 1.287 . S
C120 O127 1.255 . S
O121 Fe110 1.976 . S
O121 C128 1.287 . S
O122 Fe111 1.996 . S
O122 C128 1.255 1_655 S
O123 Fe113 1.976 . S
O123 C118 1.287 . S
O124 Fe110 1.996 . S
O124 C118 1.255 . S
C125 O129 1.293 1_455 S
C125 O130 1.238 . S
O126 Fe111 1.976 . S
O126 C120 1.287 . S
O127 Fe113 1.996 1_655 S
O127 C120 1.255 . S
C128 O121 1.287 . S
C128 O122 1.255 1_455 S
O129 Fe111 2.002 . S
O129 C125 1.293 1_655 S
O130 Fe113 1.997 . S
O130 C125 1.238 . S
C131 O114 1.295 . S
C131 O115 1.235 . S
Fe132 O134 1.918 . S
Fe132 O137 1.997 . S
Fe132 O138 2.002 . S
Fe132 O143 1.976 . S
Fe132 O146 1.996 . S
Fe133 O134 1.918 1_565 S
Fe133 O141 1.997 1_565 S
Fe133 O144 1.996 . S
Fe133 O148 1.976 . S
Fe133 O151 2.002 . S
O134 Fe132 1.918 . S
O134 Fe133 1.918 1_545 S
O134 Fe135 1.918 . S
Fe135 O134 1.918 . S
Fe135 O136 2.002 . S
Fe135 O145 1.976 . S
Fe135 O149 1.996 1_545 S
Fe135 O152 1.997 . S
O136 Fe135 2.002 . S
O136 C153 1.295 . S
O137 Fe132 1.997 . S
O137 C153 1.235 . S
O138 Fe132 2.002 . S
O138 C139 1.295 . S
C139 O138 1.295 . S
C139 O141 1.235 . S
C140 O145 1.287 . S
C140 O146 1.255 . S
O141 Fe133 1.997 1_545 S
O141 C139 1.235 . S
C142 O148 1.287 . S
C142 O149 1.255 . S
O143 Fe132 1.976 . S
O143 C150 1.287 . S
O144 Fe133 1.996 . S
O144 C150 1.255 1_565 S
O145 Fe135 1.976 . S
O145 C140 1.287 . S
O146 Fe132 1.996 . S
O146 C140 1.255 . S
C147 O151 1.293 1_545 S
C147 O152 1.238 . S
O148 Fe133 1.976 . S
O148 C142 1.287 . S
O149 Fe135 1.996 1_565 S
O149 C142 1.255 . S
C150 O143 1.287 . S
C150 O144 1.255 1_545 S
O151 Fe133 2.002 . S
O151 C147 1.293 1_565 S
O152 Fe135 1.997 . S
O152 C147 1.238 . S
C153 O136 1.295 . S
C153 O137 1.235 . S
Fe154 O156 1.918 . S
Fe154 O159 1.997 . S
Fe154 O160 2.002 . S
Fe154 O165 1.976 . S
Fe154 O168 1.996 . S
Fe155 O156 1.918 . S
Fe155 O163 1.997 . S
Fe155 O166 1.996 . S
Fe155 O170 1.976 . S
Fe155 O173 2.002 . S
O156 Fe154 1.918 . S
O156 Fe155 1.918 . S
O156 Fe157 1.918 . S
Fe157 O156 1.918 . S
Fe157 O158 2.002 . S
Fe157 O167 1.976 . S
Fe157 O171 1.996 . S
Fe157 O174 1.997 . S
O158 Fe157 2.002 . S
O158 C175 1.295 . S
O159 Fe154 1.997 . S
O159 C175 1.235 . S
O160 Fe154 2.002 . S
O160 C161 1.295 . S
C161 O160 1.295 . S
C161 O163 1.235 . S
C162 O167 1.287 . S
C162 O168 1.255 . S
O163 Fe155 1.997 . S
O163 C161 1.235 . S
C164 O170 1.287 . S
C164 O171 1.255 . S
O165 Fe154 1.976 . S
O165 C172 1.287 . S
O166 Fe155 1.996 . S
O166 C172 1.255 . S
O167 Fe157 1.976 . S
O167 C162 1.287 . S
O168 Fe154 1.996 . S
O168 C162 1.255 . S
C169 O173 1.295 . S
C169 O174 1.235 . S
O170 Fe155 1.976 . S
O170 C164 1.287 . S
O171 Fe157 1.996 . S
O171 C164 1.255 . S
C172 O165 1.287 . S
C172 O166 1.255 . S
O173 Fe155 2.002 . S
O173 C169 1.295 . S
O174 Fe157 1.997 . S
O174 C169 1.235 . S
C175 O158 1.295 . S
C175 O159 1.235 . S
Fe176 O178 1.918 . S
Fe176 O181 1.997 . S
Fe176 O182 2.002 . S
Fe176 O187 1.976 . S
Fe176 O190 1.996 . S
Fe177 O178 1.918 . S
Fe177 O185 1.997 . S
Fe177 O188 1.996 . S
Fe177 O192 1.976 . S
Fe177 O195 2.002 . S
O178 Fe176 1.918 . S
O178 Fe177 1.918 . S
O178 Fe179 1.918 . S
Fe179 O178 1.918 . S
Fe179 O180 2.002 . S
Fe179 O189 1.976 . S
Fe179 O193 1.996 . S
Fe179 O196 1.997 . S
O180 Fe179 2.002 . S
O180 C197 1.295 . S
O181 Fe176 1.997 . S
O181 C197 1.235 . S
O182 Fe176 2.002 . S
O182 C183 1.295 . S
C183 O182 1.295 . S
C183 O185 1.235 . S
C184 O189 1.287 . S
C184 O190 1.255 . S
O185 Fe177 1.997 . S
O185 C183 1.235 . S
C186 O192 1.287 . S
C186 O193 1.255 . S
O187 Fe176 1.976 . S
O187 C194 1.287 . S
O188 Fe177 1.996 . S
O188 C194 1.255 . S
O189 Fe179 1.976 . S
O189 C184 1.287 . S
O190 Fe176 1.996 . S
O190 C184 1.255 . S
C191 O195 1.295 . S
C191 O196 1.235 . S
O192 Fe177 1.976 . S
O192 C186 1.287 . S
O193 Fe179 1.996 . S
O193 C186 1.255 . S
C194 O187 1.287 . S
C194 O188 1.255 . S
O195 Fe177 2.002 . S
O195 C191 1.295 . S
O196 Fe179 1.997 . S
O196 C191 1.235 . S
C197 O180 1.295 . S
C197 O181 1.235 . S
Fe198 O200 1.918 1_655 S
Fe198 O203 1.997 1_655 S
Fe198 O204 2.002 . S
Fe198 O209 1.976 . S
Fe198 O212 1.996 . S
Fe199 O200 1.918 . S
Fe199 O207 1.997 . S
Fe199 O210 1.996 1_455 S
Fe199 O214 1.976 . S
Fe199 O217 2.002 . S
O200 Fe198 1.918 1_455 S
O200 Fe199 1.918 . S
O200 Fe201 1.918 . S
Fe201 O200 1.918 . S
Fe201 O202 2.002 . S
Fe201 O211 1.976 . S
Fe201 O215 1.996 . S
Fe201 O218 1.997 . S
O202 Fe201 2.002 . S
O202 C219 1.295 . S
O203 Fe198 1.997 1_455 S
O203 C219 1.235 . S
O204 Fe198 2.002 . S
O204 C205 1.293 1_655 S
C205 O204 1.293 1_455 S
C205 O207 1.238 . S
C206 O211 1.287 . S
C206 O212 1.255 1_455 S
O207 Fe199 1.997 . S
O207 C205 1.238 . S
C208 O214 1.287 . S
C208 O215 1.255 . S
O209 Fe198 1.976 . S
O209 C216 1.287 . S
O210 Fe199 1.996 1_655 S
O210 C216 1.255 . S
O211 Fe201 1.976 . S
O211 C206 1.287 . S
O212 Fe198 1.996 . S
O212 C206 1.255 1_655 S
C213 O217 1.295 . S
C213 O218 1.235 . S
O214 Fe199 1.976 . S
O214 C208 1.287 . S
O215 Fe201 1.996 . S
O215 C208 1.255 . S
C216 O209 1.287 . S
C216 O210 1.255 . S
O217 Fe199 2.002 . S
O217 C213 1.295 . S
O218 Fe201 1.997 . S
O218 C213 1.235 . S
C219 O202 1.295 . S
C219 O203 1.235 . S
Fe220 O222 1.918 1_565 S
Fe220 O225 1.997 1_565 S
Fe220 O226 2.002 . S
Fe220 O231 1.976 . S
Fe220 O234 1.996 . S
Fe221 O222 1.918 . S
Fe221 O229 1.997 . S
Fe221 O232 1.996 1_545 S
Fe221 O236 1.976 . S
Fe221 O239 2.002 . S
O222 Fe220 1.918 1_545 S
O222 Fe221 1.918 . S
O222 Fe223 1.918 . S
Fe223 O222 1.918 . S
Fe223 O224 2.002 . S
Fe223 O233 1.976 . S
Fe223 O237 1.996 . S
Fe223 O240 1.997 . S
O224 Fe223 2.002 . S
O224 C241 1.295 . S
O225 Fe220 1.997 1_545 S
O225 C241 1.235 . S
O226 Fe220 2.002 . S
O226 C227 1.293 1_565 S
C227 O226 1.293 1_545 S
C227 O229 1.238 . S
C228 O233 1.287 . S
C228 O234 1.255 1_545 S
O229 Fe221 1.997 . S
O229 C227 1.238 . S
C230 O236 1.287 . S
C230 O237 1.255 . S
O231 Fe220 1.976 . S
O231 C238 1.287 . S
O232 Fe221 1.996 1_565 S
O232 C238 1.255 . S
O233 Fe223 1.976 . S
O233 C228 1.287 . S
O234 Fe220 1.996 . S
O234 C228 1.255 1_565 S
C235 O239 1.295 . S
C235 O240 1.235 . S
O236 Fe221 1.976 . S
O236 C230 1.287 . S
O237 Fe223 1.996 . S
O237 C230 1.255 . S
C238 O231 1.287 . S
C238 O232 1.255 . S
O239 Fe221 2.002 . S
O239 C235 1.295 . S
O240 Fe223 1.997 . S
O240 C235 1.235 . S
C241 O224 1.295 . S
C241 O225 1.235 . S
Fe242 O244 1.918 . S
Fe242 O247 1.997 . S
Fe242 O248 2.002 . S
Fe242 O253 1.976 . S
Fe242 O256 1.996 . S
Fe243 O244 1.918 . S
Fe243 O251 1.997 . S
Fe243 O254 1.996 . S
Fe243 O258 1.976 . S
Fe243 O261 2.002 . S
O244 Fe242 1.918 . S
O244 Fe243 1.918 . S
O244 Fe245 1.918 . S
Fe245 O244 1.918 . S
Fe245 O246 2.002 . S
Fe245 O255 1.976 . S
Fe245 O259 1.996 . S
Fe245 O262 1.997 . S
O246 Fe245 2.002 . S
O246 C263 1.295 . S
O247 Fe242 1.997 . S
O247 C263 1.235 . S
O248 Fe242 2.002 . S
O248 C249 1.295 . S
C249 O248 1.295 . S
C249 O251 1.235 . S
C250 O255 1.287 . S
C250 O256 1.255 . S
O251 Fe243 1.997 . S
O251 C249 1.235 . S
C252 O258 1.287 . S
C252 O259 1.255 . S
O253 Fe242 1.976 . S
O253 C260 1.287 . S
O254 Fe243 1.996 . S
O254 C260 1.255 . S
O255 Fe245 1.976 . S
O255 C250 1.287 . S
O256 Fe242 1.996 . S
O256 C250 1.255 . S
C257 O261 1.295 . S
C257 O262 1.235 . S
O258 Fe243 1.976 . S
O258 C252 1.287 . S
O259 Fe245 1.996 . S
O259 C252 1.255 . S
C260 O253 1.287 . S
C260 O254 1.255 . S
O261 Fe243 2.002 . S
O261 C257 1.295 . S
O262 Fe245 1.997 . S
O262 C257 1.235 . S
C263 O246 1.295 . S
C263 O247 1.235 . S
Fe264 O266 1.918 . S
Fe264 O269 1.997 . S
Fe264 O270 2.002 . S
Fe264 O275 1.976 . S
Fe264 O278 1.996 . S
Fe265 O266 1.918 . S
Fe265 O273 1.997 . S
Fe265 O276 1.996 . S
Fe265 O280 1.976 . S
Fe265 O283 2.002 . S
O266 Fe264 1.918 . S
O266 Fe265 1.918 . S
O266 Fe267 1.918 . S
Fe267 O266 1.918 . S
Fe267 O268 2.002 . S
Fe267 O277 1.976 . S
Fe267 O281 1.996 . S
Fe267 O284 1.997 . S
O268 Fe267 2.002 . S
O268 C285 1.295 . S
O269 Fe264 1.997 . S
O269 C285 1.235 . S
O270 Fe264 2.002 . S
O270 C271 1.295 . S
C271 O270 1.295 . S
C271 O273 1.235 . S
C272 O277 1.287 . S
C272 O278 1.255 . S
O273 Fe265 1.997 . S
O273 C271 1.235 . S
C274 O280 1.287 . S
C274 O281 1.255 . S
O275 Fe264 1.976 . S
O275 C282 1.287 . S
O276 Fe265 1.996 . S
O276 C282 1.255 . S
O277 Fe267 1.976 . S
O277 C272 1.287 . S
O278 Fe264 1.996 . S
O278 C272 1.255 . S
C279 O283 1.295 . S
C279 O284 1.235 . S
O280 Fe265 1.976 . S
O280 C274 1.287 . S
O281 Fe267 1.996 . S
O281 C274 1.255 . S
C282 O275 1.287 . S
C282 O276 1.255 . S
O283 Fe265 2.002 . S
O283 C279 1.295 . S
O284 Fe267 1.997 . S
O284 C279 1.235 . S
C285 O268 1.295 . S
C285 O269 1.235 . S
Fe286 O288 1.918 . S
Fe286 O291 1.997 . S
Fe286 O292 2.002 . S
Fe286 O297 1.976 . S
Fe286 O300 1.996 . S
Fe287 O288 1.918 1_455 S
Fe287 O295 1.997 1_455 S
Fe287 O298 1.996 . S
Fe287 O302 1.976 . S
Fe287 O305 2.002 . S
O288 Fe286 1.918 . S
O288 Fe287 1.918 1_655 S
O288 Fe289 1.918 . S
Fe289 O288 1.918 . S
Fe289 O290 2.002 . S
Fe289 O299 1.976 . S
Fe289 O303 1.996 1_655 S
Fe289 O306 1.997 . S
O290 Fe289 2.002 . S
O290 C307 1.295 . S
O291 Fe286 1.997 . S
O291 C307 1.235 . S
O292 Fe286 2.002 . S
O292 C293 1.295 . S
C293 O292 1.295 . S
C293 O295 1.235 . S
C294 O299 1.287 . S
C294 O300 1.255 . S
O295 Fe287 1.997 1_655 S
O295 C293 1.235 . S
C296 O302 1.287 . S
C296 O303 1.255 . S
O297 Fe286 1.976 . S
O297 C304 1.287 . S
O298 Fe287 1.996 . S
O298 C304 1.255 1_455 S
O299 Fe289 1.976 . S
O299 C294 1.287 . S
O300 Fe286 1.996 . S
O300 C294 1.255 . S
C301 O305 1.293 1_655 S
C301 O306 1.238 . S
O302 Fe287 1.976 . S
O302 C296 1.287 . S
O303 Fe289 1.996 1_455 S
O303 C296 1.255 . S
C304 O297 1.287 . S
C304 O298 1.255 1_655 S
O305 Fe287 2.002 . S
O305 C301 1.293 1_455 S
O306 Fe289 1.997 . S
O306 C301 1.238 . S
C307 O290 1.295 . S
C307 O291 1.235 . S
Fe308 O310 1.918 . S
Fe308 O313 1.997 . S
Fe308 O314 2.002 . S
Fe308 O319 1.976 . S
Fe308 O322 1.996 1_565 S
Fe309 O310 1.918 . S
Fe309 O317 1.997 . S
Fe309 O320 1.996 . S
Fe309 O324 1.976 . S
Fe309 O327 2.002 . S
O310 Fe308 1.918 . S
O310 Fe309 1.918 . S
O310 Fe311 1.918 1_565 S
Fe311 O310 1.918 1_545 S
Fe311 O312 2.002 . S
Fe311 O321 1.976 . S
Fe311 O325 1.996 . S
Fe311 O328 1.997 1_545 S
O312 Fe311 2.002 . S
O312 C329 1.293 1_545 S
O313 Fe308 1.997 . S
O313 C329 1.238 . S
O314 Fe308 2.002 . S
O314 C315 1.295 . S
C315 O314 1.295 . S
C315 O317 1.235 . S
C316 O321 1.287 . S
C316 O322 1.255 . S
O317 Fe309 1.997 . S
O317 C315 1.235 . S
C318 O324 1.287 . S
C318 O325 1.255 1_565 S
O319 Fe308 1.976 . S
O319 C326 1.287 . S
O320 Fe309 1.996 . S
O320 C326 1.255 . S
O321 Fe311 1.976 . S
O321 C316 1.287 . S
O322 Fe308 1.996 1_545 S
O322 C316 1.255 . S
C323 O327 1.295 . S
C323 O328 1.235 . S
O324 Fe309 1.976 . S
O324 C318 1.287 . S
O325 Fe311 1.996 . S
O325 C318 1.255 1_545 S
C326 O319 1.287 . S
C326 O320 1.255 . S
O327 Fe309 2.002 . S
O327 C323 1.295 . S
O328 Fe311 1.997 1_565 S
O328 C323 1.235 . S
C329 O312 1.293 1_565 S
C329 O313 1.238 . S
Fe330 O332 1.918 . S
Fe330 O335 1.997 . S
Fe330 O336 2.002 . S
Fe330 O341 1.976 . S
Fe330 O344 1.996 . S
Fe331 O332 1.918 . S
Fe331 O339 1.997 . S
Fe331 O342 1.996 . S
Fe331 O346 1.976 . S
Fe331 O349 2.002 . S
O332 Fe330 1.918 . S
O332 Fe331 1.918 . S
O332 Fe333 1.918 . S
Fe333 O332 1.918 . S
Fe333 O334 2.002 . S
Fe333 O343 1.976 . S
Fe333 O347 1.996 . S
Fe333 O350 1.997 . S
O334 Fe333 2.002 . S
O334 C351 1.295 . S
O335 Fe330 1.997 . S
O335 C351 1.235 . S
O336 Fe330 2.002 . S
O336 C337 1.295 . S
C337 O336 1.295 . S
C337 O339 1.235 . S
C338 O343 1.287 . S
C338 O344 1.255 . S
O339 Fe331 1.997 . S
O339 C337 1.235 . S
C340 O346 1.287 . S
C340 O347 1.255 . S
O341 Fe330 1.976 . S
O341 C348 1.287 . S
O342 Fe331 1.996 . S
O342 C348 1.255 . S
O343 Fe333 1.976 . S
O343 C338 1.287 . S
O344 Fe330 1.996 . S
O344 C338 1.255 . S
C345 O349 1.295 . S
C345 O350 1.235 . S
O346 Fe331 1.976 . S
O346 C340 1.287 . S
O347 Fe333 1.996 . S
O347 C340 1.255 . S
C348 O341 1.287 . S
C348 O342 1.255 . S
O349 Fe331 2.002 . S
O349 C345 1.295 . S
O350 Fe333 1.997 . S
O350 C345 1.235 . S
C351 O334 1.295 . S
C351 O335 1.235 . S
C352 C353 1.363 . S
C352 C358 1.379 . S
C352 N360 1.356 . S
C353 C352 1.363 . S
C353 C359 1.363 . S
C354 C355 1.363 . S
C354 C359 1.379 . S
C354 N361 1.356 . S
C355 C354 1.363 . S
C355 C358 1.363 . S
N356 C358 1.356 . S
N356 H368 0.984 . S
N356 H369 0.985 . S
N357 C359 1.356 . S
N357 H362 0.984 . S
N357 H363 0.985 . S
C358 C352 1.379 . S
C358 C355 1.363 . S
C358 N356 1.356 . S
C359 C353 1.363 . S
C359 C354 1.379 . S
C359 N357 1.356 . S
N360 C352 1.356 . S
N360 H366 0.984 . S
N360 H367 0.984 . S
N361 C354 1.356 . S
N361 H364 0.984 . S
N361 H365 0.985 . S
H362 N357 0.984 . S
H363 N357 0.985 . S
H364 N361 0.984 . S
H365 N361 0.985 . S
H366 N360 0.984 . S
H367 N360 0.984 . S
H368 N356 0.984 . S
H369 N356 0.985 . S
C370 C371 1.363 . S
C370 C376 1.379 . S
C370 N378 1.356 . S
C371 C370 1.363 . S
C371 C377 1.363 1_554 S
C372 C373 1.363 . S
C372 C377 1.379 . S
C372 N379 1.356 . S
C373 C372 1.363 . S
C373 C376 1.363 1_556 S
N374 C376 1.358 . S
N374 H386 0.995 . S
N374 H387 0.972 1_554 S
N375 C377 1.358 . S
N375 H380 0.972 1_556 S
N375 H381 0.995 . S
C376 C370 1.379 . S
C376 C373 1.363 1_554 S
C376 N374 1.358 . S
C377 C371 1.363 1_556 S
C377 C372 1.379 . S
C377 N375 1.358 . S
N378 C370 1.356 . S
N378 H384 0.984 . S
N378 H385 0.984 . S
N379 C372 1.356 . S
N379 H382 0.984 . S
N379 H383 0.985 . S
H380 N375 0.972 1_554 S
H381 N375 0.995 . S
H382 N379 0.984 . S
H383 N379 0.985 . S
H384 N378 0.984 . S
H385 N378 0.984 . S
H386 N374 0.995 . S
H387 N374 0.972 1_556 S
C388 C389 1.363 . S
C388 C394 1.379 . S
C388 N396 1.356 . S
C389 C388 1.363 . S
C389 C395 1.363 . S
C390 C391 1.363 . S
C390 C395 1.379 . S
C390 N397 1.356 . S
C391 C390 1.363 . S
C391 C394 1.363 . S
N392 C394 1.356 . S
N392 H404 0.984 1_565 S
N392 H405 0.985 . S
N393 C395 1.356 . S
N393 H398 0.984 . S
N393 H399 0.985 . S
C394 C388 1.379 . S
C394 C391 1.363 . S
C394 N392 1.356 . S
C395 C389 1.363 . S
C395 C390 1.379 . S
C395 N393 1.356 . S
N396 C388 1.356 . S
N396 H402 0.984 . S
N396 H403 0.984 . S
N397 C390 1.356 . S
N397 H400 0.984 . S
N397 H401 0.985 . S
H398 N393 0.984 . S
H399 N393 0.985 . S
H400 N397 0.984 . S
H401 N397 0.985 . S
H402 N396 0.984 . S
H403 N396 0.984 . S
H404 N392 0.984 1_545 S
H405 N392 0.985 . S
C406 C407 1.363 . S
C406 C412 1.379 . S
C406 N414 1.356 . S
C407 C406 1.363 . S
C407 C413 1.363 1_556 S
C408 C409 1.363 . S
C408 C413 1.379 . S
C408 N415 1.356 . S
C409 C408 1.363 . S
C409 C412 1.363 1_554 S
N410 C412 1.356 1_554 S
N410 H422 0.984 1_544 S
N410 H423 0.985 . S
N411 C413 1.356 1_556 S
N411 H416 0.984 . S
N411 H417 0.985 1_556 S
C412 C406 1.379 . S
C412 C409 1.363 1_556 S
C412 N410 1.356 1_556 S
C413 C407 1.363 1_554 S
C413 C408 1.379 . S
C413 N411 1.356 1_554 S
N414 C406 1.356 . S
N414 H420 0.984 . S
N414 H421 0.984 . S
N415 C408 1.356 . S
N415 H418 0.984 . S
N415 H419 0.985 . S
H416 N411 0.984 . S
H417 N411 0.985 1_554 S
H418 N415 0.984 . S
H419 N415 0.985 . S
H420 N414 0.984 . S
H421 N414 0.984 . S
H422 N410 0.984 1_566 S
H423 N410 0.985 . S
C424 C425 1.363 . S
C424 C430 1.379 . S
C424 N432 1.356 . S
C425 C424 1.363 . S
C425 C431 1.363 . S
C426 C427 1.363 . S
C426 C431 1.379 . S
C426 N433 1.356 . S
C427 C426 1.363 . S
C427 C430 1.363 . S
N428 C430 1.356 . S
N428 H440 0.984 . S
N428 H441 0.985 . S
N429 C431 1.356 . S
N429 H434 0.984 . S
N429 H435 0.985 . S
C430 C424 1.379 . S
C430 C427 1.363 . S
C430 N428 1.356 . S
C431 C425 1.363 . S
C431 C426 1.379 . S
C431 N429 1.356 . S
N432 C424 1.356 . S
N432 H438 0.984 . S
N432 H439 0.984 . S
N433 C426 1.356 . S
N433 H436 0.984 . S
N433 H437 0.985 . S
H434 N429 0.984 . S
H435 N429 0.985 . S
H436 N433 0.984 . S
H437 N433 0.985 . S
H438 N432 0.984 . S
H439 N432 0.984 . S
H440 N428 0.984 . S
H441 N428 0.985 . S
C442 C443 1.363 . S
C442 C448 1.379 1_556 S
C442 N450 1.356 . S
C443 C442 1.363 . S
C443 C449 1.363 . S
C444 C445 1.363 . S
C444 C449 1.379 1_554 S
C444 N451 1.356 . S
C445 C444 1.363 . S
C445 C448 1.363 . S
N446 C448 1.356 . S
N446 H458 0.984 . S
N446 H459 0.985 . S
N447 C449 1.356 . S
N447 H452 0.984 . S
N447 H453 0.985 . S
C448 C442 1.379 1_554 S
C448 C445 1.363 . S
C448 N446 1.356 . S
C449 C443 1.363 . S
C449 C444 1.379 1_556 S
C449 N447 1.356 . S
N450 C442 1.356 . S
N450 H456 0.984 . S
N450 H457 0.984 . S
N451 C444 1.356 . S
N451 H454 0.984 . S
N451 H455 0.985 . S
H452 N447 0.984 . S
H453 N447 0.985 . S
H454 N451 0.984 . S
H455 N451 0.985 . S
H456 N450 0.984 . S
H457 N450 0.984 . S
H458 N446 0.984 . S
H459 N446 0.985 . S
C460 C461 1.363 . S
C460 C466 1.379 . S
C460 N468 1.356 . S
C461 C460 1.363 . S
C461 C467 1.363 . S
C462 C463 1.363 . S
C462 C467 1.379 . S
C462 N469 1.356 . S
C463 C462 1.363 . S
C463 C466 1.363 . S
N464 C466 1.356 . S
N464 H476 0.984 . S
N464 H477 0.985 . S
N465 C467 1.356 . S
N465 H470 0.984 . S
N465 H471 0.985 . S
C466 C460 1.379 . S
C466 C463 1.363 . S
C466 N464 1.356 . S
C467 C461 1.363 . S
C467 C462 1.379 . S
C467 N465 1.356 . S
N468 C460 1.356 . S
N468 H474 0.984 . S
N468 H475 0.984 . S
N469 C462 1.356 . S
N469 H472 0.984 . S
N469 H473 0.985 . S
H470 N465 0.984 . S
H471 N465 0.985 . S
H472 N469 0.984 . S
H473 N469 0.985 . S
H474 N468 0.984 . S
H475 N468 0.984 . S
H476 N464 0.984 . S
H477 N464 0.985 . S
C478 C479 1.363 . S
C478 C484 1.379 1_556 S
C478 N486 1.356 . S
C479 C478 1.363 . S
C479 C485 1.363 . S
C480 C481 1.363 . S
C480 C485 1.379 1_554 S
C480 N487 1.356 . S
C481 C480 1.363 . S
C481 C484 1.363 . S
N482 C484 1.356 . S
N482 H494 0.984 . S
N482 H495 0.985 . S
N483 C485 1.356 . S
N483 H488 0.984 . S
N483 H489 0.985 . S
C484 C478 1.379 1_554 S
C484 C481 1.363 . S
C484 N482 1.356 . S
C485 C479 1.363 . S
C485 C480 1.379 1_556 S
C485 N483 1.356 . S
N486 C478 1.356 . S
N486 H492 0.984 . S
N486 H493 0.984 . S
N487 C480 1.356 . S
N487 H490 0.984 . S
N487 H491 0.985 . S
H488 N483 0.984 . S
H489 N483 0.985 . S
H490 N487 0.984 . S
H491 N487 0.985 . S
H492 N486 0.984 . S
H493 N486 0.984 . S
H494 N482 0.984 . S
H495 N482 0.985 . S
C496 C497 1.363 . S
C496 C502 1.379 . S
C496 N504 1.356 . S
C497 C496 1.363 . S
C497 C503 1.363 . S
C498 C499 1.363 . S
C498 C503 1.379 . S
C498 N505 1.356 . S
C499 C498 1.363 . S
C499 C502 1.363 . S
N500 C502 1.356 . S
N500 H512 0.984 . S
N500 H513 0.985 . S
N501 C503 1.356 . S
N501 H506 0.984 . S
N501 H507 0.985 . S
C502 C496 1.379 . S
C502 C499 1.363 . S
C502 N500 1.356 . S
C503 C497 1.363 . S
C503 C498 1.379 . S
C503 N501 1.356 . S
N504 C496 1.356 . S
N504 H510 0.984 . S
N504 H511 0.984 . S
N505 C498 1.356 . S
N505 H508 0.984 . S
N505 H509 0.985 . S
H506 N501 0.984 . S
H507 N501 0.985 . S
H508 N505 0.984 . S
H509 N505 0.985 . S
H510 N504 0.984 . S
H511 N504 0.984 . S
H512 N500 0.984 . S
H513 N500 0.985 . S
C514 C515 1.363 . S
C514 C520 1.379 . S
C514 N522 1.356 . S
C515 C514 1.363 . S
C515 C521 1.363 . S
C516 C517 1.363 . S
C516 C521 1.379 . S
C516 N523 1.356 . S
C517 C516 1.363 . S
C517 C520 1.363 . S
N518 C520 1.356 . S
N518 H530 0.984 . S
N518 H531 0.985 . S
N519 C521 1.356 . S
N519 H524 0.984 . S
N519 H525 0.985 . S
C520 C514 1.379 . S
C520 C517 1.363 . S
C520 N518 1.356 . S
C521 C515 1.363 . S
C521 C516 1.379 . S
C521 N519 1.356 . S
N522 C514 1.356 . S
N522 H528 0.984 . S
N522 H529 0.984 . S
N523 C516 1.356 . S
N523 H526 0.984 . S
N523 H527 0.985 . S
H524 N519 0.984 . S
H525 N519 0.985 . S
H526 N523 0.984 . S
H527 N523 0.985 . S
H528 N522 0.984 . S
H529 N522 0.984 . S
H530 N518 0.984 . S
H531 N518 0.985 . S
C532 C533 1.363 . S
C532 C538 1.379 . S
C532 N540 1.356 . S
C533 C532 1.363 . S
C533 C539 1.363 . S
C534 C535 1.363 . S
C534 C539 1.379 . S
C534 N541 1.356 . S
C535 C534 1.363 . S
C535 C538 1.363 . S
N536 C538 1.356 . S
N536 H548 0.984 . S
N536 H549 0.985 . S
N537 C539 1.356 . S
N537 H542 0.984 . S
N537 H543 0.985 . S
C538 C532 1.379 . S
C538 C535 1.363 . S
C538 N536 1.356 . S
C539 C533 1.363 . S
C539 C534 1.379 . S
C539 N537 1.356 . S
N540 C532 1.356 . S
N540 H546 0.984 . S
N540 H547 0.984 . S
N541 C534 1.356 . S
N541 H544 0.984 . S
N541 H545 0.985 . S
H542 N537 0.984 . S
H543 N537 0.985 . S
H544 N541 0.984 . S
H545 N541 0.985 . S
H546 N540 0.984 . S
H547 N540 0.984 . S
H548 N536 0.984 . S
H549 N536 0.985 . S
C550 C551 1.363 . S
C550 C556 1.379 . S
C550 N558 1.356 . S
C551 C550 1.363 . S
C551 C557 1.363 . S
C552 C553 1.363 . S
C552 C557 1.379 . S
C552 N559 1.356 . S
C553 C552 1.363 . S
C553 C556 1.363 . S
N554 C556 1.356 . S
N554 H566 0.984 . S
N554 H567 0.985 . S
N555 C557 1.356 . S
N555 H560 0.984 . S
N555 H561 0.985 . S
C556 C550 1.379 . S
C556 C553 1.363 . S
C556 N554 1.356 . S
C557 C551 1.363 . S
C557 C552 1.379 . S
C557 N555 1.356 . S
N558 C550 1.356 . S
N558 H564 0.984 . S
N558 H565 0.984 . S
N559 C552 1.356 . S
N559 H562 0.984 . S
N559 H563 0.985 . S
H560 N555 0.984 . S
H561 N555 0.985 . S
H562 N559 0.984 . S
H563 N559 0.985 . S
H564 N558 0.984 . S
H565 N558 0.984 . S
H566 N554 0.984 . S
H567 N554 0.985 . S
C568 C569 1.363 . S
C568 C574 1.379 . S
C568 N576 1.356 . S
C569 C568 1.363 . S
C569 C575 1.363 . S
C570 C571 1.363 . S
C570 C575 1.379 . S
C570 N577 1.356 . S
C571 C570 1.363 . S
C571 C574 1.363 . S
N572 C574 1.356 . S
N572 H584 0.984 . S
N572 H585 0.985 . S
N573 C575 1.356 . S
N573 H578 0.984 . S
N573 H579 0.985 . S
C574 C568 1.379 . S
C574 C571 1.363 . S
C574 N572 1.356 . S
C575 C569 1.363 . S
C575 C570 1.379 . S
C575 N573 1.356 . S
N576 C568 1.356 . S
N576 H582 0.984 . S
N576 H583 0.984 . S
N577 C570 1.356 . S
N577 H580 0.984 . S
N577 H581 0.985 . S
H578 N573 0.984 . S
H579 N573 0.985 . S
H580 N577 0.984 . S
H581 N577 0.985 . S
H582 N576 0.984 . S
H583 N576 0.984 . S
H584 N572 0.984 . S
H585 N572 0.985 . S
C586 C587 1.363 . S
C586 C592 1.379 . S
C586 N594 1.356 . S
C587 C586 1.363 . S
C587 C593 1.363 . S
C588 C589 1.363 . S
C588 C593 1.379 . S
C588 N595 1.356 . S
C589 C588 1.363 . S
C589 C592 1.363 . S
N590 C592 1.356 . S
N590 H602 0.984 . S
N590 H603 0.985 . S
N591 C593 1.356 . S
N591 H596 0.984 . S
N591 H597 0.985 . S
C592 C586 1.379 . S
C592 C589 1.363 . S
C592 N590 1.356 . S
C593 C587 1.363 . S
C593 C588 1.379 . S
C593 N591 1.356 . S
N594 C586 1.356 . S
N594 H600 0.984 . S
N594 H601 0.984 . S
N595 C588 1.356 . S
N595 H598 0.984 . S
N595 H599 0.985 . S
H596 N591 0.984 . S
H597 N591 0.985 . S
H598 N595 0.984 . S
H599 N595 0.985 . S
H600 N594 0.984 . S
H601 N594 0.984 . S
H602 N590 0.984 . S
H603 N590 0.985 . S
C604 C605 1.363 . S
C604 C610 1.379 . S
C604 N612 1.356 . S
C605 C604 1.363 . S
C605 C611 1.363 . S
C606 C607 1.363 . S
C606 C611 1.379 . S
C606 N613 1.356 . S
C607 C606 1.363 . S
C607 C610 1.363 . S
N608 C610 1.356 . S
N608 H620 0.984 . S
N608 H621 0.985 . S
N609 C611 1.356 . S
N609 H614 0.984 . S
N609 H615 0.985 . S
C610 C604 1.379 . S
C610 C607 1.363 . S
C610 N608 1.356 . S
C611 C605 1.363 . S
C611 C606 1.379 . S
C611 N609 1.356 . S
N612 C604 1.356 . S
N612 H618 0.984 . S
N612 H619 0.984 . S
N613 C606 1.356 . S
N613 H616 0.984 . S
N613 H617 0.985 . S
H614 N609 0.984 . S
H615 N609 0.985 . S
H616 N613 0.984 . S
H617 N613 0.985 . S
H618 N612 0.984 . S
H619 N612 0.984 . S
H620 N608 0.984 . S
H621 N608 0.985 . S
C622 C623 1.363 . S
C622 C628 1.379 . S
C622 N630 1.356 . S
C623 C622 1.363 . S
C623 C629 1.363 . S
C624 C625 1.363 . S
C624 C629 1.379 . S
C624 N631 1.356 . S
C625 C624 1.363 . S
C625 C628 1.363 . S
N626 C628 1.356 . S
N626 H638 0.984 . S
N626 H639 0.985 . S
N627 C629 1.356 . S
N627 H632 0.984 . S
N627 H633 0.985 . S
C628 C622 1.379 . S
C628 C625 1.363 . S
C628 N626 1.356 . S
C629 C623 1.363 . S
C629 C624 1.379 . S
C629 N627 1.356 . S
N630 C622 1.356 . S
N630 H636 0.984 . S
N630 H637 0.984 . S
N631 C624 1.356 . S
N631 H634 0.984 . S
N631 H635 0.985 . S
H632 N627 0.984 . S
H633 N627 0.985 . S
H634 N631 0.984 . S
H635 N631 0.985 . S
H636 N630 0.984 . S
H637 N630 0.984 . S
H638 N626 0.984 . S
H639 N626 0.985 . S
C640 C641 1.363 . S
C640 C646 1.379 . S
C640 N648 1.356 . S
C641 C640 1.363 . S
C641 C647 1.363 . S
C642 C643 1.363 . S
C642 C647 1.379 . S
C642 N649 1.356 . S
C643 C642 1.363 . S
C643 C646 1.363 . S
N644 C646 1.356 . S
N644 H656 0.984 . S
N644 H657 0.985 . S
N645 C647 1.356 1_556 S
N645 H650 0.984 . S
N645 H651 0.985 . S
C646 C640 1.379 . S
C646 C643 1.363 . S
C646 N644 1.356 . S
C647 C641 1.363 . S
C647 C642 1.379 . S
C647 N645 1.356 1_554 S
N648 C640 1.356 . S
N648 H654 0.984 . S
N648 H655 0.984 1_554 S
N649 C642 1.356 . S
N649 H652 0.984 . S
N649 H653 0.985 . S
H650 N645 0.984 . S
H651 N645 0.985 . S
H652 N649 0.984 . S
H653 N649 0.985 . S
H654 N648 0.984 . S
H655 N648 0.984 1_556 S
H656 N644 0.984 . S
H657 N644 0.985 . S
C658 C659 1.354 1_655 S
C658 C664 1.379 . S
C658 N666 1.356 . S
C659 C658 1.354 1_455 S
C659 C665 1.372 . S
C660 C661 1.363 1_455 S
C660 C665 1.379 . S
C660 N667 1.356 . S
C661 C660 1.363 1_655 S
C661 C664 1.363 . S
N662 C664 1.356 . S
N662 H674 0.984 . S
N662 H675 0.985 . S
N663 C665 1.356 . S
N663 H668 0.984 . S
N663 H669 0.985 . S
C664 C658 1.379 . S
C664 C661 1.363 . S
C664 N662 1.356 . S
C665 C659 1.372 . S
C665 C660 1.379 . S
C665 N663 1.356 . S
N666 C658 1.356 . S
N666 H672 0.984 . S
N666 H673 0.984 . S
N667 C660 1.356 . S
N667 H670 0.984 . S
N667 H671 0.985 . S
H668 N663 0.984 . S
H669 N663 0.985 . S
H670 N667 0.984 . S
H671 N667 0.985 . S
H672 N666 0.984 . S
H673 N666 0.984 . S
H674 N662 0.984 . S
H675 N662 0.985 . S
C676 C677 1.363 1_545 S
C676 C682 1.379 . S
C676 N684 1.356 . S
C677 C676 1.363 1_565 S
C677 C683 1.363 . S
C678 C679 1.352 1_565 S
C678 C683 1.379 . S
C678 N685 1.356 . S
C679 C678 1.352 1_545 S
C679 C682 1.373 . S
N680 C682 1.356 . S
N680 H692 0.984 . S
N680 H693 0.985 . S
N681 C683 1.356 1_556 S
N681 H686 0.984 . S
N681 H687 0.985 . S
C682 C676 1.379 . S
C682 C679 1.373 . S
C682 N680 1.356 . S
C683 C677 1.363 . S
C683 C678 1.379 . S
C683 N681 1.356 1_554 S
N684 C676 1.356 . S
N684 H690 0.984 . S
N684 H691 0.984 1_554 S
N685 C678 1.356 . S
N685 H688 0.984 . S
N685 H689 0.985 . S
H686 N681 0.984 . S
H687 N681 0.985 . S
H688 N685 0.984 . S
H689 N685 0.985 . S
H690 N684 0.984 . S
H691 N684 0.984 1_556 S
H692 N680 0.984 . S
H693 N680 0.985 . S
C694 C695 1.363 . S
C694 C700 1.379 . S
C694 N702 1.356 . S
C695 C694 1.363 . S
C695 C701 1.363 . S
C696 C697 1.363 . S
C696 C701 1.379 . S
C696 N703 1.356 . S
C697 C696 1.363 . S
C697 C700 1.363 . S
N698 C700 1.356 . S
N698 H710 0.984 . S
N698 H711 0.985 . S
N699 C701 1.356 . S
N699 H704 0.984 . S
N699 H705 0.985 . S
C700 C694 1.379 . S
C700 C697 1.363 . S
C700 N698 1.356 . S
C701 C695 1.363 . S
C701 C696 1.379 . S
C701 N699 1.356 . S
N702 C694 1.356 . S
N702 H708 0.984 . S
N702 H709 0.984 . S
N703 C696 1.356 . S
N703 H706 0.984 . S
N703 H707 0.985 . S
H704 N699 0.984 . S
H705 N699 0.985 . S
H706 N703 0.984 . S
H707 N703 0.985 . S
H708 N702 0.984 . S
H709 N702 0.984 . S
H710 N698 0.984 . S
H711 N698 0.985 . S
C712 C713 1.363 . S
C712 C718 1.379 . S
C712 N720 1.356 . S
C713 C712 1.363 . S
C713 C719 1.363 . S
C714 C715 1.363 . S
C714 C719 1.379 . S
C714 N721 1.356 . S
C715 C714 1.363 . S
C715 C718 1.363 . S
N716 C718 1.356 . S
N716 H728 0.984 . S
N716 H729 0.985 . S
N717 C719 1.356 . S
N717 H722 0.984 . S
N717 H723 0.985 . S
C718 C712 1.379 . S
C718 C715 1.363 . S
C718 N716 1.356 . S
C719 C713 1.363 . S
C719 C714 1.379 . S
C719 N717 1.356 . S
N720 C712 1.356 . S
N720 H726 0.984 . S
N720 H727 0.984 . S
N721 C714 1.356 . S
N721 H724 0.984 . S
N721 H725 0.985 . S
H722 N717 0.984 . S
H723 N717 0.985 . S
H724 N721 0.984 . S
H725 N721 0.985 . S
H726 N720 0.984 . S
H727 N720 0.984 . S
H728 N716 0.984 . S
H729 N716 0.985 . S
C730 C731 1.356 1_455 S
C730 C736 1.379 . S
C730 N738 1.356 . S
C731 C730 1.356 1_655 S
C731 C737 1.369 . S
C732 C733 1.363 1_655 S
C732 C737 1.379 . S
C732 N739 1.356 . S
C733 C732 1.363 1_455 S
C733 C736 1.363 . S
N734 C736 1.356 1_554 S
N734 H746 0.984 . S
N734 H747 0.985 . S
N735 C737 1.356 . S
N735 H740 0.984 . S
N735 H741 0.985 . S
C736 C730 1.379 . S
C736 C733 1.363 . S
C736 N734 1.356 1_556 S
C737 C731 1.369 . S
C737 C732 1.379 . S
C737 N735 1.356 . S
N738 C730 1.356 . S
N738 H744 0.984 . S
N738 H745 0.984 . S
N739 C732 1.356 . S
N739 H742 0.984 1_556 S
N739 H743 0.985 . S
H740 N735 0.984 . S
H741 N735 0.985 . S
H742 N739 0.984 1_554 S
H743 N739 0.985 . S
H744 N738 0.984 . S
H745 N738 0.984 . S
H746 N734 0.984 . S
H747 N734 0.985 . S
C748 C749 1.352 1_545 S
C748 C754 1.379 . S
C748 N756 1.356 . S
C749 C748 1.352 1_565 S
C749 C755 1.373 . S
C750 C751 1.363 1_565 S
C750 C755 1.379 . S
C750 N757 1.356 . S
C751 C750 1.363 1_545 S
C751 C754 1.363 . S
N752 C754 1.356 . S
N752 H764 0.984 . S
N752 H765 0.985 . S
N753 C755 1.356 . S
N753 H758 0.984 . S
N753 H759 0.985 . S
C754 C748 1.379 . S
C754 C751 1.363 . S
C754 N752 1.356 . S
C755 C749 1.373 . S
C755 C750 1.379 . S
C755 N753 1.356 . S
N756 C748 1.356 . S
N756 H762 0.984 . S
N756 H763 0.984 . S
N757 C750 1.356 . S
N757 H760 0.984 . S
N757 H761 0.985 . S
H758 N753 0.984 . S
H759 N753 0.985 . S
H760 N757 0.984 . S
H761 N757 0.985 . S
H762 N756 0.984 . S
H763 N756 0.984 . S
H764 N752 0.984 . S
H765 N752 0.985 . S
C766 C767 1.363 . S
C766 C772 1.379 . S
C766 N774 1.356 . S
C767 C766 1.363 . S
C767 C773 1.363 . S
C768 C769 1.363 . S
C768 C773 1.379 . S
C768 N775 1.356 . S
C769 C768 1.363 . S
C769 C772 1.363 . S
N770 C772 1.356 . S
N770 H782 0.984 . S
N770 H783 0.985 . S
N771 C773 1.356 1_554 S
N771 H776 0.984 . S
N771 H777 0.985 . S
C772 C766 1.379 . S
C772 C769 1.363 . S
C772 N770 1.356 . S
C773 C767 1.363 . S
C773 C768 1.379 . S
C773 N771 1.356 1_556 S
N774 C766 1.356 . S
N774 H780 0.984 . S
N774 H781 0.984 1_556 S
N775 C768 1.356 . S
N775 H778 0.984 . S
N775 H779 0.985 . S
H776 N771 0.984 . S
H777 N771 0.985 . S
H778 N775 0.984 . S
H779 N775 0.985 . S
H780 N774 0.984 . S
H781 N774 0.984 1_554 S
H782 N770 0.984 . S
H783 N770 0.985 . S
C784 C785 1.363 . S
C784 C790 1.379 . S
C784 N792 1.356 . S
C785 C784 1.363 . S
C785 C791 1.363 . S
C786 C787 1.363 . S
C786 C791 1.379 . S
C786 N793 1.356 1_556 S
C787 C786 1.363 . S
C787 C790 1.363 . S
N788 C790 1.356 . S
N788 H800 0.984 . S
N788 H801 0.985 1_556 S
N789 C791 1.356 . S
N789 H794 0.984 . S
N789 H795 0.985 . S
C790 C784 1.379 . S
C790 C787 1.363 . S
C790 N788 1.356 . S
C791 C785 1.363 . S
C791 C786 1.379 . S
C791 N789 1.356 . S
N792 C784 1.356 . S
N792 H798 0.984 . S
N792 H799 0.984 . S
N793 C786 1.356 1_554 S
N793 H796 0.984 . S
N793 H797 0.985 . S
H794 N789 0.984 . S
H795 N789 0.985 . S
H796 N793 0.984 . S
H797 N793 0.985 . S
H798 N792 0.984 . S
H799 N792 0.984 . S
H800 N788 0.984 . S
H801 N788 0.985 1_554 S
C802 C803 1.358 1_455 S
C802 C808 1.379 . S
C802 N810 1.356 . S
C803 C802 1.358 1_655 S
C803 C809 1.367 . S
C804 C805 1.363 1_655 S
C804 C809 1.379 . S
C804 N811 1.356 . S
C805 C804 1.363 1_455 S
C805 C808 1.363 . S
N806 C808 1.356 . S
N806 H818 0.984 . S
N806 H819 0.985 . S
N807 C809 1.356 . S
N807 H812 0.984 . S
N807 H813 0.985 . S
C808 C802 1.379 . S
C808 C805 1.363 . S
C808 N806 1.356 . S
C809 C803 1.367 . S
C809 C804 1.379 . S
C809 N807 1.356 . S
N810 C802 1.356 . S
N810 H816 0.984 . S
N810 H817 0.984 . S
N811 C804 1.356 . S
N811 H814 0.984 . S
N811 H815 0.985 . S
H812 N807 0.984 . S
H813 N807 0.985 . S
H814 N811 0.984 . S
H815 N811 0.985 . S
H816 N810 0.984 . S
H817 N810 0.984 . S
H818 N806 0.984 . S
H819 N806 0.985 . S
C820 C821 1.363 . S
C820 C826 1.379 . S
C820 N828 1.356 . S
C821 C820 1.363 . S
C821 C827 1.363 1_545 S
C822 C823 1.373 . S
C822 C827 1.379 . S
C822 N829 1.356 . S
C823 C822 1.373 . S
C823 C826 1.353 1_565 S
N824 C826 1.356 . S
N824 H836 0.984 . S
N824 H837 0.985 . S
N825 C827 1.356 1_554 S
N825 H830 0.984 . S
N825 H831 0.985 . S
C826 C820 1.379 . S
C826 C823 1.353 1_545 S
C826 N824 1.356 . S
C827 C821 1.363 1_565 S
C827 C822 1.379 . S
C827 N825 1.356 1_556 S
N828 C820 1.356 . S
N828 H834 0.984 . S
N828 H835 0.984 1_556 S
N829 C822 1.356 . S
N829 H832 0.984 . S
N829 H833 0.985 . S
H830 N825 0.984 . S
H831 N825 0.985 . S
H832 N829 0.984 . S
H833 N829 0.985 . S
H834 N828 0.984 . S
H835 N828 0.984 1_554 S
H836 N824 0.984 . S
H837 N824 0.985 . S
C838 C839 1.363 . S
C838 C844 1.379 . S
C838 N846 1.356 . S
C839 C838 1.363 . S
C839 C845 1.363 . S
C840 C841 1.363 . S
C840 C845 1.379 . S
C840 N847 1.356 . S
C841 C840 1.363 . S
C841 C844 1.363 . S
N842 C844 1.356 . S
N842 H854 0.984 . S
N842 H855 0.985 . S
N843 C845 1.356 . S
N843 H848 0.984 . S
N843 H849 0.985 . S
C844 C838 1.379 . S
C844 C841 1.363 . S
C844 N842 1.356 . S
C845 C839 1.363 . S
C845 C840 1.379 . S
C845 N843 1.356 . S
N846 C838 1.356 . S
N846 H852 0.984 . S
N846 H853 0.984 . S
N847 C840 1.356 . S
N847 H850 0.984 . S
N847 H851 0.985 . S
H848 N843 0.984 . S
H849 N843 0.985 . S
H850 N847 0.984 . S
H851 N847 0.985 . S
H852 N846 0.984 . S
H853 N846 0.984 . S
H854 N842 0.984 . S
H855 N842 0.985 . S
C856 C857 1.363 . S
C856 C862 1.379 . S
C856 N864 1.356 . S
C857 C856 1.363 . S
C857 C863 1.363 . S
C858 C859 1.363 . S
C858 C863 1.379 . S
C858 N865 1.356 . S
C859 C858 1.363 . S
C859 C862 1.363 . S
N860 C862 1.356 . S
N860 H872 0.984 . S
N860 H873 0.985 . S
N861 C863 1.356 . S
N861 H866 0.984 . S
N861 H867 0.985 . S
C862 C856 1.379 . S
C862 C859 1.363 . S
C862 N860 1.356 . S
C863 C857 1.363 . S
C863 C858 1.379 . S
C863 N861 1.356 . S
N864 C856 1.356 . S
N864 H870 0.984 . S
N864 H871 0.984 . S
N865 C858 1.356 . S
N865 H868 0.984 . S
N865 H869 0.985 . S
H866 N861 0.984 . S
H867 N861 0.985 . S
H868 N865 0.984 . S
H869 N865 0.985 . S
H870 N864 0.984 . S
H871 N864 0.984 . S
H872 N860 0.984 . S
H873 N860 0.985 . S
C874 C875 1.371 . S
C874 C880 1.379 . S
C874 N882 1.356 . S
C875 C874 1.371 . S
C875 C881 1.354 1_455 S
C876 C877 1.363 . S
C876 C881 1.379 . S
C876 N883 1.356 . S
C877 C876 1.363 . S
C877 C880 1.363 1_655 S
N878 C880 1.356 1_556 S
N878 H890 0.984 . S
N878 H891 0.985 . S
N879 C881 1.356 . S
N879 H884 0.984 . S
N879 H885 0.985 . S
C880 C874 1.379 . S
C880 C877 1.363 1_455 S
C880 N878 1.356 1_554 S
C881 C875 1.354 1_655 S
C881 C876 1.379 . S
C881 N879 1.356 . S
N882 C874 1.356 . S
N882 H888 0.984 . S
N882 H889 0.984 . S
N883 C876 1.356 . S
N883 H886 0.984 1_554 S
N883 H887 0.985 . S
H884 N879 0.984 . S
H885 N879 0.985 . S
H886 N883 0.984 1_556 S
H887 N883 0.985 . S
H888 N882 0.984 . S
H889 N882 0.984 . S
H890 N878 0.984 . S
H891 N878 0.985 . S
C892 C893 1.363 . S
C892 C898 1.379 . S
C892 N900 1.356 . S
C893 C892 1.363 . S
C893 C899 1.363 1_565 S
C894 C895 1.373 . S
C894 C899 1.379 . S
C894 N901 1.356 . S
C895 C894 1.373 . S
C895 C898 1.352 1_545 S
N896 C898 1.356 . S
N896 H908 0.984 . S
N896 H909 0.985 . S
N897 C899 1.356 . S
N897 H902 0.984 . S
N897 H903 0.985 . S
C898 C892 1.379 . S
C898 C895 1.352 1_565 S
C898 N896 1.356 . S
C899 C893 1.363 1_545 S
C899 C894 1.379 . S
C899 N897 1.356 . S
N900 C892 1.356 . S
N900 H906 0.984 . S
N900 H907 0.984 . S
N901 C894 1.356 . S
N901 H904 0.984 . S
N901 H905 0.985 . S
H902 N897 0.984 . S
H903 N897 0.985 . S
H904 N901 0.984 . S
H905 N901 0.985 . S
H906 N900 0.984 . S
H907 N900 0.984 . S
H908 N896 0.984 . S
H909 N896 0.985 . S
C910 C911 1.363 . S
C910 C916 1.379 . S
C910 N918 1.356 1_554 S
C911 C910 1.363 . S
C911 C917 1.363 . S
C912 C913 1.363 . S
C912 C917 1.379 . S
C912 N919 1.356 . S
C913 C912 1.363 . S
C913 C916 1.363 . S
N914 C916 1.356 . S
N914 H926 0.984 . S
N914 H927 0.985 . S
N915 C917 1.356 . S
N915 H920 0.984 1_554 S
N915 H921 0.985 . S
C916 C910 1.379 . S
C916 C913 1.363 . S
C916 N914 1.356 . S
C917 C911 1.363 . S
C917 C912 1.379 . S
C917 N915 1.356 . S
N918 C910 1.356 1_556 S
N918 H924 0.984 . S
N918 H925 0.984 . S
N919 C912 1.356 . S
N919 H922 0.984 . S
N919 H923 0.985 . S
H920 N915 0.984 1_556 S
H921 N915 0.985 . S
H922 N919 0.984 . S
H923 N919 0.985 . S
H924 N918 0.984 . S
H925 N918 0.984 . S
H926 N914 0.984 . S
H927 N914 0.985 . S
C928 C929 1.363 . S
C928 C934 1.379 . S
C928 N936 1.356 . S
C929 C928 1.363 . S
C929 C935 1.363 . S
C930 C931 1.363 . S
C930 C935 1.379 . S
C930 N937 1.356 . S
C931 C930 1.363 . S
C931 C934 1.363 . S
N932 C934 1.356 . S
N932 H944 0.984 . S
N932 H945 0.985 . S
N933 C935 1.356 . S
N933 H938 0.984 . S
N933 H939 0.985 . S
C934 C928 1.379 . S
C934 C931 1.363 . S
C934 N932 1.356 . S
C935 C929 1.363 . S
C935 C930 1.379 . S
C935 N933 1.356 . S
N936 C928 1.356 . S
N936 H942 0.984 . S
N936 H943 0.984 . S
N937 C930 1.356 . S
N937 H940 0.984 . S
N937 H941 0.985 . S
H938 N933 0.984 . S
H939 N933 0.985 . S
H940 N937 0.984 . S
H941 N937 0.985 . S
H942 N936 0.984 . S
H943 N936 0.984 . S
H944 N932 0.984 . S
H945 N932 0.985 . S
C946 C947 1.363 . S
C946 C952 1.379 . S
C946 N954 1.356 . S
C947 C946 1.363 . S
C947 C953 1.363 . S
C948 C949 1.363 . S
C948 C953 1.379 . S
C948 N955 1.356 . S
C949 C948 1.363 . S
C949 C952 1.363 . S
N950 C952 1.356 . S
N950 H962 0.984 . S
N950 H963 0.985 . S
N951 C953 1.356 . S
N951 H956 0.984 . S
N951 H957 0.985 . S
C952 C946 1.379 . S
C952 C949 1.363 . S
C952 N950 1.356 . S
C953 C947 1.363 . S
C953 C948 1.379 . S
C953 N951 1.356 . S
N954 C946 1.356 . S
N954 H960 0.984 . S
N954 H961 0.984 . S
N955 C948 1.356 . S
N955 H958 0.984 . S
N955 H959 0.985 . S
H956 N951 0.984 . S
H957 N951 0.985 . S
H958 N955 0.984 . S
H959 N955 0.985 . S
H960 N954 0.984 . S
H961 N954 0.984 . S
H962 N950 0.984 . S
H963 N950 0.985 . S
C964 C965 1.363 . S
C964 C970 1.379 . S
C964 N972 1.356 . S
C965 C964 1.363 . S
C965 C971 1.363 . S
C966 C967 1.363 . S
C966 C971 1.379 . S
C966 N973 1.356 . S
C967 C966 1.363 . S
C967 C970 1.363 . S
N968 C970 1.356 . S
N968 H980 0.984 . S
N968 H981 0.985 . S
N969 C971 1.356 . S
N969 H974 0.984 . S
N969 H975 0.985 . S
C970 C964 1.379 . S
C970 C967 1.363 . S
C970 N968 1.356 . S
C971 C965 1.363 . S
C971 C966 1.379 . S
C971 N969 1.356 . S
N972 C964 1.356 . S
N972 H978 0.984 . S
N972 H979 0.984 . S
N973 C966 1.356 . S
N973 H976 0.984 . S
N973 H977 0.985 . S
H974 N969 0.984 . S
H975 N969 0.985 . S
H976 N973 0.984 . S
H977 N973 0.985 . S
H978 N972 0.984 . S
H979 N972 0.984 . S
H980 N968 0.984 . S
H981 N968 0.985 . S
C982 C983 1.363 . S
C982 C988 1.379 . S
C982 N990 1.356 . S
C983 C982 1.363 . S
C983 C989 1.363 . S
C984 C985 1.363 . S
C984 C989 1.379 . S
C984 N991 1.356 . S
C985 C984 1.363 . S
C985 C988 1.363 . S
N986 C988 1.356 . S
N986 H998 0.984 . S
N986 H999 0.985 . S
N987 C989 1.356 . S
N987 H992 0.984 . S
N987 H993 0.985 . S
C988 C982 1.379 . S
C988 C985 1.363 . S
C988 N986 1.356 . S
C989 C983 1.363 . S
C989 C984 1.379 . S
C989 N987 1.356 . S
N990 C982 1.356 . S
N990 H996 0.984 . S
N990 H997 0.984 . S
N991 C984 1.356 . S
N991 H994 0.984 . S
N991 H995 0.985 . S
H992 N987 0.984 . S
H993 N987 0.985 . S
H994 N991 0.984 . S
H995 N991 0.985 . S
H996 N990 0.984 . S
H997 N990 0.984 . S
H998 N986 0.984 . S
H999 N986 0.985 . S
C1000 C1001 1.363 . S
C1000 C1006 1.379 . S
C1000 N1008 1.356 . S
C1001 C1000 1.363 . S
C1001 C1007 1.363 . S
C1002 C1003 1.363 . S
C1002 C1007 1.379 . S
C1002 N1009 1.356 . S
C1003 C1002 1.363 . S
C1003 C1006 1.363 . S
N1004 C1006 1.356 . S
N1004 H1016 0.984 . S
N1004 H1017 0.985 . S
N1005 C1007 1.356 . S
N1005 H1010 0.984 . S
N1005 H1011 0.985 . S
C1006 C1000 1.379 . S
C1006 C1003 1.363 . S
C1006 N1004 1.356 . S
C1007 C1001 1.363 . S
C1007 C1002 1.379 . S
C1007 N1005 1.356 . S
N1008 C1000 1.356 . S
N1008 H1014 0.984 . S
N1008 H1015 0.984 . S
N1009 C1002 1.356 . S
N1009 H1012 0.984 . S
N1009 H1013 0.985 . S
H1010 N1005 0.984 . S
H1011 N1005 0.985 . S
H1012 N1009 0.984 . S
H1013 N1009 0.985 . S
H1014 N1008 0.984 . S
H1015 N1008 0.984 . S
H1016 N1004 0.984 . S
H1017 N1004 0.985 . S
C1018 C1019 1.363 . S
C1018 C1024 1.379 . S
C1018 N1026 1.356 . S
C1019 C1018 1.363 . S
C1019 C1025 1.363 . S
C1020 C1021 1.363 . S
C1020 C1025 1.379 . S
C1020 N1027 1.356 . S
C1021 C1020 1.363 . S
C1021 C1024 1.363 . S
N1022 C1024 1.356 . S
N1022 H1034 0.984 . S
N1022 H1035 0.985 . S
N1023 C1025 1.356 . S
N1023 H1028 0.984 . S
N1023 H1029 0.985 . S
C1024 C1018 1.379 . S
C1024 C1021 1.363 . S
C1024 N1022 1.356 . S
C1025 C1019 1.363 . S
C1025 C1020 1.379 . S
C1025 N1023 1.356 . S
N1026 C1018 1.356 . S
N1026 H1032 0.984 . S
N1026 H1033 0.984 . S
N1027 C1020 1.356 . S
N1027 H1030 0.984 . S
N1027 H1031 0.985 . S
H1028 N1023 0.984 . S
H1029 N1023 0.985 . S
H1030 N1027 0.984 . S
H1031 N1027 0.985 . S
H1032 N1026 0.984 . S
H1033 N1026 0.984 . S
H1034 N1022 0.984 . S
H1035 N1022 0.985 . S
C1036 C1037 1.363 . S
C1036 C1042 1.379 . S
C1036 N1044 1.356 . S
C1037 C1036 1.363 . S
C1037 C1043 1.363 . S
C1038 C1039 1.363 . S
C1038 C1043 1.379 . S
C1038 N1045 1.356 . S
C1039 C1038 1.363 . S
C1039 C1042 1.363 . S
N1040 C1042 1.356 . S
N1040 H1052 0.984 . S
N1040 H1053 0.985 . S
N1041 C1043 1.356 . S
N1041 H1046 0.984 . S
N1041 H1047 0.985 . S
C1042 C1036 1.379 . S
C1042 C1039 1.363 . S
C1042 N1040 1.356 . S
C1043 C1037 1.363 . S
C1043 C1038 1.379 . S
C1043 N1041 1.356 . S
N1044 C1036 1.356 . S
N1044 H1050 0.984 . S
N1044 H1051 0.984 . S
N1045 C1038 1.356 . S
N1045 H1048 0.984 . S
N1045 H1049 0.985 . S
H1046 N1041 0.984 . S
H1047 N1041 0.985 . S
H1048 N1045 0.984 . S
H1049 N1045 0.985 . S
H1050 N1044 0.984 . S
H1051 N1044 0.984 . S
H1052 N1040 0.984 . S
H1053 N1040 0.985 . S
C1054 C1055 1.363 . S
C1054 C1060 1.379 . S
C1054 N1062 1.356 . S
C1055 C1054 1.363 . S
C1055 C1061 1.363 . S
C1056 C1057 1.363 . S
C1056 C1061 1.379 . S
C1056 N1063 1.356 . S
C1057 C1056 1.363 . S
C1057 C1060 1.363 . S
N1058 C1060 1.356 . S
N1058 H1070 0.984 . S
N1058 H1071 0.985 . S
N1059 C1061 1.356 . S
N1059 H1064 0.984 . S
N1059 H1065 0.985 . S
C1060 C1054 1.379 . S
C1060 C1057 1.363 . S
C1060 N1058 1.356 . S
C1061 C1055 1.363 . S
C1061 C1056 1.379 . S
C1061 N1059 1.356 . S
N1062 C1054 1.356 . S
N1062 H1068 0.984 . S
N1062 H1069 0.984 . S
N1063 C1056 1.356 . S
N1063 H1066 0.984 . S
N1063 H1067 0.985 . S
H1064 N1059 0.984 . S
H1065 N1059 0.985 . S
H1066 N1063 0.984 . S
H1067 N1063 0.985 . S
H1068 N1062 0.984 . S
H1069 N1062 0.984 . S
H1070 N1058 0.984 . S
H1071 N1058 0.985 . S
C1072 C1073 1.363 . S
C1072 C1078 1.379 . S
C1072 N1080 1.356 . S
C1073 C1072 1.363 . S
C1073 C1079 1.363 . S
C1074 C1075 1.363 . S
C1074 C1079 1.379 . S
C1074 N1081 1.356 . S
C1075 C1074 1.363 . S
C1075 C1078 1.363 . S
N1076 C1078 1.356 . S
N1076 H1088 0.984 . S
N1076 H1089 0.985 . S
N1077 C1079 1.356 . S
N1077 H1082 0.984 . S
N1077 H1083 0.985 . S
C1078 C1072 1.379 . S
C1078 C1075 1.363 . S
C1078 N1076 1.356 . S
C1079 C1073 1.363 . S
C1079 C1074 1.379 . S
C1079 N1077 1.356 . S
N1080 C1072 1.356 . S
N1080 H1086 0.984 . S
N1080 H1087 0.984 . S
N1081 C1074 1.356 . S
N1081 H1084 0.984 . S
N1081 H1085 0.985 . S
H1082 N1077 0.984 . S
H1083 N1077 0.985 . S
H1084 N1081 0.984 . S
H1085 N1081 0.985 . S
H1086 N1080 0.984 . S
H1087 N1080 0.984 . S
H1088 N1076 0.984 . S
H1089 N1076 0.985 . S
C1090 C1091 1.363 . S
C1090 C1096 1.379 . S
C1090 N1098 1.356 . S
C1091 C1090 1.363 . S
C1091 C1097 1.363 . S
C1092 C1093 1.363 . S
C1092 C1097 1.379 . S
C1092 N1099 1.356 . S
C1093 C1092 1.363 . S
C1093 C1096 1.363 . S
N1094 C1096 1.356 . S
N1094 H1106 0.984 . S
N1094 H1107 0.985 . S
N1095 C1097 1.356 . S
N1095 H1100 0.984 . S
N1095 H1101 0.985 . S
C1096 C1090 1.379 . S
C1096 C1093 1.363 . S
C1096 N1094 1.356 . S
C1097 C1091 1.363 . S
C1097 C1092 1.379 . S
C1097 N1095 1.356 . S
N1098 C1090 1.356 . S
N1098 H1104 0.984 . S
N1098 H1105 0.984 . S
N1099 C1092 1.356 . S
N1099 H1102 0.984 . S
N1099 H1103 0.985 . S
H1100 N1095 0.984 . S
H1101 N1095 0.985 . S
H1102 N1099 0.984 . S
H1103 N1099 0.985 . S
H1104 N1098 0.984 . S
H1105 N1098 0.984 . S
H1106 N1094 0.984 . S
H1107 N1094 0.985 . S
C1108 C1109 1.363 . S
C1108 C1114 1.379 . S
C1108 N1116 1.356 . S
C1109 C1108 1.363 . S
C1109 C1115 1.363 . S
C1110 C1111 1.363 . S
C1110 C1115 1.379 . S
C1110 N1117 1.356 . S
C1111 C1110 1.363 . S
C1111 C1114 1.363 . S
N1112 C1114 1.356 . S
N1112 H1124 0.984 . S
N1112 H1125 0.985 . S
N1113 C1115 1.356 . S
N1113 H1118 0.984 . S
N1113 H1119 0.985 . S
C1114 C1108 1.379 . S
C1114 C1111 1.363 . S
C1114 N1112 1.356 . S
C1115 C1109 1.363 . S
C1115 C1110 1.379 . S
C1115 N1113 1.356 . S
N1116 C1108 1.356 . S
N1116 H1122 0.984 . S
N1116 H1123 0.984 . S
N1117 C1110 1.356 . S
N1117 H1120 0.984 . S
N1117 H1121 0.985 . S
H1118 N1113 0.984 . S
H1119 N1113 0.985 . S
H1120 N1117 0.984 . S
H1121 N1117 0.985 . S
H1122 N1116 0.984 . S
H1123 N1116 0.984 . S
H1124 N1112 0.984 . S
H1125 N1112 0.985 . S
C1126 C1127 1.363 . S
C1126 C1132 1.379 . S
C1126 N1134 1.356 . S
C1127 C1126 1.363 . S
C1127 C1133 1.363 . S
C1128 C1129 1.363 . S
C1128 C1133 1.379 . S
C1128 N1135 1.356 . S
C1129 C1128 1.363 . S
C1129 C1132 1.363 . S
N1130 C1132 1.356 . S
N1130 H1142 0.984 . S
N1130 H1143 0.985 . S
N1131 C1133 1.356 . S
N1131 H1136 0.984 . S
N1131 H1137 0.985 . S
C1132 C1126 1.379 . S
C1132 C1129 1.363 . S
C1132 N1130 1.356 . S
C1133 C1127 1.363 . S
C1133 C1128 1.379 . S
C1133 N1131 1.356 . S
N1134 C1126 1.356 . S
N1134 H1140 0.984 . S
N1134 H1141 0.984 . S
N1135 C1128 1.356 . S
N1135 H1138 0.984 . S
N1135 H1139 0.985 . S
H1136 N1131 0.984 . S
H1137 N1131 0.985 . S
H1138 N1135 0.984 . S
H1139 N1135 0.985 . S
H1140 N1134 0.984 . S
H1141 N1134 0.984 . S
H1142 N1130 0.984 . S
H1143 N1130 0.985 . S
C1144 C1145 1.363 . S
C1144 C1150 1.379 . S
C1144 N1152 1.356 . S
C1145 C1144 1.363 . S
C1145 C1151 1.363 . S
C1146 C1147 1.363 . S
C1146 C1151 1.379 . S
C1146 N1153 1.356 . S
C1147 C1146 1.363 . S
C1147 C1150 1.363 . S
N1148 C1150 1.356 . S
N1148 H1160 0.984 . S
N1148 H1161 0.985 . S
N1149 C1151 1.356 . S
N1149 H1154 0.984 . S
N1149 H1155 0.985 . S
C1150 C1144 1.379 . S
C1150 C1147 1.363 . S
C1150 N1148 1.356 . S
C1151 C1145 1.363 . S
C1151 C1146 1.379 . S
C1151 N1149 1.356 . S
N1152 C1144 1.356 . S
N1152 H1158 0.984 . S
N1152 H1159 0.984 . S
N1153 C1146 1.356 . S
N1153 H1156 0.984 . S
N1153 H1157 0.985 . S
H1154 N1149 0.984 . S
H1155 N1149 0.985 . S
H1156 N1153 0.984 . S
H1157 N1153 0.985 . S
H1158 N1152 0.984 . S
H1159 N1152 0.984 . S
H1160 N1148 0.984 . S
H1161 N1148 0.985 . S
C1162 C1163 1.363 . S
C1162 C1168 1.379 . S
C1162 N1170 1.356 . S
C1163 C1162 1.363 . S
C1163 C1169 1.363 . S
C1164 C1165 1.363 . S
C1164 C1169 1.379 . S
C1164 N1171 1.356 . S
C1165 C1164 1.363 . S
C1165 C1168 1.363 . S
N1166 C1168 1.356 . S
N1166 H1178 0.984 . S
N1166 H1179 0.985 . S
N1167 C1169 1.356 . S
N1167 H1172 0.984 . S
N1167 H1173 0.985 . S
C1168 C1162 1.379 . S
C1168 C1165 1.363 . S
C1168 N1166 1.356 . S
C1169 C1163 1.363 . S
C1169 C1164 1.379 . S
C1169 N1167 1.356 . S
N1170 C1162 1.356 . S
N1170 H1176 0.984 . S
N1170 H1177 0.984 . S
N1171 C1164 1.356 . S
N1171 H1174 0.984 . S
N1171 H1175 0.985 . S
H1172 N1167 0.984 . S
H1173 N1167 0.985 . S
H1174 N1171 0.984 . S
H1175 N1171 0.985 . S
H1176 N1170 0.984 . S
H1177 N1170 0.984 . S
H1178 N1166 0.984 . S
H1179 N1166 0.985 . S
C1180 C1181 1.363 . S
C1180 C1186 1.379 . S
C1180 N1188 1.356 . S
C1181 C1180 1.363 . S
C1181 C1187 1.363 . S
C1182 C1183 1.363 . S
C1182 C1187 1.379 . S
C1182 N1189 1.356 . S
C1183 C1182 1.363 . S
C1183 C1186 1.363 . S
N1184 C1186 1.356 . S
N1184 H1196 0.984 . S
N1184 H1197 0.985 . S
N1185 C1187 1.356 . S
N1185 H1190 0.984 . S
N1185 H1191 0.985 . S
C1186 C1180 1.379 . S
C1186 C1183 1.363 . S
C1186 N1184 1.356 . S
C1187 C1181 1.363 . S
C1187 C1182 1.379 . S
C1187 N1185 1.356 . S
N1188 C1180 1.356 . S
N1188 H1194 0.984 . S
N1188 H1195 0.984 . S
N1189 C1182 1.356 . S
N1189 H1192 0.984 . S
N1189 H1193 0.985 . S
H1190 N1185 0.984 . S
H1191 N1185 0.985 . S
H1192 N1189 0.984 . S
H1193 N1189 0.985 . S
H1194 N1188 0.984 . S
H1195 N1188 0.984 . S
H1196 N1184 0.984 . S
H1197 N1184 0.985 . S
C1198 C1199 1.363 . S
C1198 C1204 1.379 . S
C1198 N1206 1.356 . S
C1199 C1198 1.363 . S
C1199 C1205 1.363 . S
C1200 C1201 1.363 . S
C1200 C1205 1.379 . S
C1200 N1207 1.356 . S
C1201 C1200 1.363 . S
C1201 C1204 1.363 . S
N1202 C1204 1.356 . S
N1202 H1214 0.984 . S
N1202 H1215 0.985 . S
N1203 C1205 1.356 . S
N1203 H1208 0.984 . S
N1203 H1209 0.985 . S
C1204 C1198 1.379 . S
C1204 C1201 1.363 . S
C1204 N1202 1.356 . S
C1205 C1199 1.363 . S
C1205 C1200 1.379 . S
C1205 N1203 1.356 . S
N1206 C1198 1.356 . S
N1206 H1212 0.984 . S
N1206 H1213 0.984 . S
N1207 C1200 1.356 . S
N1207 H1210 0.984 . S
N1207 H1211 0.985 . S
H1208 N1203 0.984 . S
H1209 N1203 0.985 . S
H1210 N1207 0.984 . S
H1211 N1207 0.985 . S
H1212 N1206 0.984 . S
H1213 N1206 0.984 . S
H1214 N1202 0.984 . S
H1215 N1202 0.985 . S
C353 C18 1.169 . S
C355 C164 1.169 . S
C371 C96 1.169 . S
C373 C32 1.169 . S
C389 C118 1.169 . S
C391 C54 1.169 . S
C407 C76 1.169 . S
C409 C140 1.169 . S
C425 C340 1.169 . S
C427 C186 1.169 . S
C443 C282 1.169 . S
C445 C208 1.169 . S
C461 C294 1.169 . S
C463 C230 1.169 . S
C479 C326 1.169 . S
C481 C260 1.169 . S
C497 C8 1.368 . S
C499 C348 1.368 . S
C515 C40 1.367 . S
C517 C272 1.367 . S
C533 C62 1.368 . S
C535 C296 1.368 . S
C551 C316 1.367 . S
C553 C84 1.367 . S
C569 C216 1.367 . S
C571 C98 1.367 . S
C587 C120 1.368 . S
C589 C238 1.368 . S
C605 C250 1.367 . S
C607 C142 1.367 . S
C623 C172 1.368 . S
C625 C194 1.368 . S
C641 C274 1.512 1_554 S
C643 C21 1.496 . S
C659 C29 1.496 1_455 S
C661 C304 1.512 . S
C677 C318 1.512 1_554 S
C679 C51 1.496 1_545 S
C695 C338 1.512 . S
C697 C73 1.496 . S
C713 C103 1.496 . S
C715 C184 1.512 . S
C731 C125 1.496 1_655 S
C733 C206 1.512 1_556 S
C749 C147 1.496 1_565 S
C751 C228 1.512 . S
C767 C252 1.512 1_556 S
C769 C161 1.496 . S
C785 C183 1.496 . S
C787 C106 1.512 1_556 S
C803 C205 1.496 1_655 S
C805 C128 1.512 . S
C821 C150 1.512 1_556 S
C823 C227 1.496 1_565 S
C839 C263 1.496 . S
C841 C162 1.512 . S
C857 C285 1.496 . S
C859 C10 1.512 . S
C875 C301 1.496 1_455 S
C877 C30 1.512 1_554 S
C893 C52 1.512 . S
C895 C329 1.496 1_545 S
C911 C74 1.512 1_554 S
C913 C337 1.496 . S
C929 C15 1.604 . S
C931 C213 1.536 . S
C947 C235 1.536 . S
C949 C43 1.604 . S
C965 C65 1.604 . S
C967 C249 1.536 . S
C983 C87 1.604 . S
C985 C191 1.536 . S
C1001 C95 1.604 . S
C1003 C345 1.536 . S
C1019 C117 1.604 . S
C1021 C271 1.536 . S
C1037 C139 1.604 . S
C1039 C307 1.536 . S
C1055 C315 1.536 . S
C1057 C175 1.604 . S
C1073 C37 1.536 . S
C1075 C197 1.604 . S
C1091 C59 1.536 . S
C1093 C219 1.604 . S
C1109 C241 1.604 . S
C1111 C81 1.536 . S
C1127 C257 1.604 . S
C1129 C7 1.536 . S
C1145 C169 1.536 . S
C1147 C279 1.604 . S
C1163 C109 1.536 . S
C1165 C293 1.604 . S
C1181 C131 1.536 . S
C1183 C323 1.604 . S
C1199 C153 1.536 . S
C1201 C351 1.604 . S
