# Generated by pormake.
# Topology wkf, (6)-cn, num edge types: 1
# Building blocks:
#     Node 0, Type 0, BuildingBlock: IZENUY_clean_sbu_0, # of connection points: 6
#     Node 1, Type 0, BuildingBlock: IZENUY_clean_sbu_0, # of connection points: 6
#     Node 2, Type 0, BuildingBlock: IZENUY_clean_sbu_0, # of connection points: 6
#     Node 3, Type 0, BuildingBlock: IZENUY_clean_sbu_0, # of connection points: 6
#     Node 4, Type 0, BuildingBlock: IZENUY_clean_sbu_0, # of connection points: 6
#     Node 5, Type 0, BuildingBlock: IZENUY_clean_sbu_0, # of connection points: 6
#     Node 6, Type 0, BuildingBlock: IZENUY_clean_sbu_0, # of connection points: 6
#     Node 7, Type 0, BuildingBlock: IZENUY_clean_sbu_0, # of connection points: 6
#     Node 8, Type 0, BuildingBlock: IZENUY_clean_sbu_0, # of connection points: 6
#     Node 9, Type 0, BuildingBlock: IZENUY_clean_sbu_0, # of connection points: 6
#     Node 10, Type 0, BuildingBlock: IZENUY_clean_sbu_0, # of connection points: 6
#     Node 11, Type 0, BuildingBlock: IZENUY_clean_sbu_0, # of connection points: 6
#     Edge 12, Type (0, 0), BuildingBlock: CIFDUS_clean_linker_0, # of connection points: 2
#     Edge 13, Type (0, 0), BuildingBlock: CIFDUS_clean_linker_0, # of connection points: 2
#     Edge 14, Type (0, 0), BuildingBlock: CIFDUS_clean_linker_0, # of connection points: 2
#     Edge 15, Type (0, 0), BuildingBlock: CIFDUS_clean_linker_0, # of connection points: 2
#     Edge 16, Type (0, 0), BuildingBlock: CIFDUS_clean_linker_0, # of connection points: 2
#     Edge 17, Type (0, 0), BuildingBlock: CIFDUS_clean_linker_0, # of connection points: 2
#     Edge 18, Type (0, 0), BuildingBlock: CIFDUS_clean_linker_0, # of connection points: 2
#     Edge 19, Type (0, 0), BuildingBlock: CIFDUS_clean_linker_0, # of connection points: 2
#     Edge 20, Type (0, 0), BuildingBlock: CIFDUS_clean_linker_0, # of connection points: 2
#     Edge 21, Type (0, 0), BuildingBlock: CIFDUS_clean_linker_0, # of connection points: 2
#     Edge 22, Type (0, 0), BuildingBlock: CIFDUS_clean_linker_0, # of connection points: 2
#     Edge 23, Type (0, 0), BuildingBlock: CIFDUS_clean_linker_0, # of connection points: 2
#     Edge 24, Type (0, 0), BuildingBlock: CIFDUS_clean_linker_0, # of connection points: 2
#     Edge 25, Type (0, 0), BuildingBlock: CIFDUS_clean_linker_0, # of connection points: 2
#     Edge 26, Type (0, 0), BuildingBlock: CIFDUS_clean_linker_0, # of connection points: 2
#     Edge 27, Type (0, 0), BuildingBlock: CIFDUS_clean_linker_0, # of connection points: 2
#     Edge 28, Type (0, 0), BuildingBlock: CIFDUS_clean_linker_0, # of connection points: 2
#     Edge 29, Type (0, 0), BuildingBlock: CIFDUS_clean_linker_0, # of connection points: 2
#     Edge 30, Type (0, 0), BuildingBlock: CIFDUS_clean_linker_0, # of connection points: 2
#     Edge 31, Type (0, 0), BuildingBlock: CIFDUS_clean_linker_0, # of connection points: 2
#     Edge 32, Type (0, 0), BuildingBlock: CIFDUS_clean_linker_0, # of connection points: 2
#     Edge 33, Type (0, 0), BuildingBlock: CIFDUS_clean_linker_0, # of connection points: 2
#     Edge 34, Type (0, 0), BuildingBlock: CIFDUS_clean_linker_0, # of connection points: 2
#     Edge 35, Type (0, 0), BuildingBlock: CIFDUS_clean_linker_0, # of connection points: 2
#     Edge 36, Type (0, 0), BuildingBlock: CIFDUS_clean_linker_0, # of connection points: 2
#     Edge 37, Type (0, 0), BuildingBlock: CIFDUS_clean_linker_0, # of connection points: 2
#     Edge 38, Type (0, 0), BuildingBlock: CIFDUS_clean_linker_0, # of connection points: 2
#     Edge 39, Type (0, 0), BuildingBlock: CIFDUS_clean_linker_0, # of connection points: 2
#     Edge 40, Type (0, 0), BuildingBlock: CIFDUS_clean_linker_0, # of connection points: 2
#     Edge 41, Type (0, 0), BuildingBlock: CIFDUS_clean_linker_0, # of connection points: 2
#     Edge 42, Type (0, 0), BuildingBlock: CIFDUS_clean_linker_0, # of connection points: 2
#     Edge 43, Type (0, 0), BuildingBlock: CIFDUS_clean_linker_0, # of connection points: 2
#     Edge 44, Type (0, 0), BuildingBlock: CIFDUS_clean_linker_0, # of connection points: 2
#     Edge 45, Type (0, 0), BuildingBlock: CIFDUS_clean_linker_0, # of connection points: 2
#     Edge 46, Type (0, 0), BuildingBlock: CIFDUS_clean_linker_0, # of connection points: 2
#     Edge 47, Type (0, 0), BuildingBlock: CIFDUS_clean_linker_0, # of connection points: 2
# Relax obj value: 0.283
# Max RMSD: 0.255
# Mean RMSD: 0.255
data_MOF--net-wkf--node1-IZENUY_clean_sbu_0--edge1-CIFDUS_clean_linker_0
_symmetry_space_group_name_H-M    P1
_symmetry_Int_Tables_number       1
_symmetry_cell_setting            triclinic
loop_
_symmetry_equiv_pos_as_xyz
'x, y, z'
_cell_length_a     23.999086
_cell_length_b     23.963119
_cell_length_c     65.645416
_cell_angle_alpha  89.918403
_cell_angle_beta   90.110432
_cell_angle_gamma 120.1843
loop_
_atom_site_label
_atom_site_type_symbol
_atom_site_fract_x
_atom_site_fract_y
_atom_site_fract_z
_atom_type_partial_charge
Fe0 Fe 0.42739 0.14176 0.348 0.0
Fe1 Fe 0.30166 0.12908 0.36407 0.0
O2 O 0.37173 0.12368 0.36809 0.0
Fe3 Fe 0.38491 0.09963 0.39232 0.0
O4 O 0.45868 0.17421 0.39542 0.0
O5 O 0.49926 0.18006 0.36481 0.0
O6 O 0.43927 0.22171 0.34462 0.0
C7 C 0.39541 0.23446 0.34123 0.0
C8 C 0.43142 0.03993 0.36507 0.0
O9 O 0.33715 0.19324 0.34479 0.0
C10 C 0.25638 0.01856 0.38932 0.0
O11 O 0.36424 0.10594 0.32806 0.0
O12 O 0.27318 0.06651 0.34516 0.0
O13 O 0.42803 0.05911 0.38276 0.0
O14 O 0.42041 0.06363 0.34959 0.0
C15 C 0.33685 0.18373 0.40144 0.0
O16 O 0.25198 0.06571 0.38253 0.0
O17 O 0.31066 0.02262 0.39075 0.0
C18 C 0.30426 0.06557 0.32985 0.0
O19 O 0.32709 0.19187 0.38308 0.0
O20 O 0.34591 0.13759 0.40648 0.0
C21 C 0.50545 0.19844 0.38327 0.0
Fe22 Fe 0.29286 0.41356 0.56031 0.0
Fe23 Fe 0.29163 0.45286 0.51576 0.0
O24 O 0.25599 0.39687 0.53596 0.0
Fe25 Fe 0.18343 0.32289 0.53202 0.0
O26 O 0.14195 0.34386 0.55083 0.0
O27 O 0.21593 0.36845 0.57441 0.0
O28 O 0.28504 0.48367 0.56302 0.0
C29 C 0.30574 0.53004 0.55063 0.0
C30 C 0.25704 0.28776 0.55705 0.0
O31 O 0.32 0.52457 0.53236 0.0
C32 C 0.2524 0.33075 0.49785 0.0
O33 O 0.37622 0.46202 0.55109 0.0
O34 O 0.36591 0.45273 0.51787 0.0
O35 O 0.20251 0.27719 0.55078 0.0
O36 O 0.30342 0.34444 0.55872 0.0
C37 C 0.16588 0.41125 0.5078 0.0
O38 O 0.26902 0.38997 0.49599 0.0
O39 O 0.22151 0.29856 0.51323 0.0
C40 C 0.39966 0.46558 0.53361 0.0
O41 O 0.22059 0.45801 0.51175 0.0
O42 O 0.1507 0.35403 0.51244 0.0
C43 C 0.15941 0.35464 0.56921 0.0
Fe44 Fe 0.89133 0.30077 0.72587 0.0
Fe45 Fe 0.83832 0.28686 0.68257 0.0
O46 O 0.86513 0.25678 0.70281 0.0
Fe47 Fe 0.86527 0.18352 0.69981 0.0
O48 O 0.84315 0.15742 0.72645 0.0
O49 O 0.83065 0.23394 0.74058 0.0
O50 O 0.83485 0.3309 0.72425 0.0
C51 C 0.78079 0.30615 0.7153 0.0
C52 C 0.97729 0.25317 0.72128 0.0
O53 O 0.77263 0.27987 0.69805 0.0
C54 C 0.91469 0.25057 0.66252 0.0
O55 O 0.9547 0.37067 0.71262 0.0
O56 O 0.88985 0.37194 0.68934 0.0
O57 O 0.95084 0.22149 0.70535 0.0
O58 O 0.95092 0.27732 0.73188 0.0
C59 C 0.7521 0.15395 0.68061 0.0
O60 O 0.90266 0.29509 0.6663 0.0
O61 O 0.8884 0.19821 0.67267 0.0
C62 C 0.94364 0.39917 0.69838 0.0
O63 O 0.78187 0.20787 0.67175 0.0
O64 O 0.77937 0.13975 0.69439 0.0
C65 C 0.82173 0.17734 0.74065 0.0
Fe66 Fe 0.54644 0.84316 0.85229 0.0
Fe67 Fe 0.68189 0.87604 0.86617 0.0
O68 O 0.60856 0.875 0.87085 0.0
Fe69 Fe 0.59839 0.90644 0.89401 0.0
O70 O 0.52922 0.83068 0.90061 0.0
O71 O 0.47991 0.80901 0.87095 0.0
O72 O 0.542 0.76596 0.8527 0.0
C73 C 0.58822 0.75742 0.84857 0.0
C74 C 0.53861 0.94758 0.86493 0.0
O75 O 0.64587 0.80362 0.84979 0.0
C76 C 0.72366 0.99385 0.88705 0.0
O77 O 0.60263 0.87208 0.83046 0.0
O78 O 0.69858 0.92957 0.84463 0.0
O79 O 0.54865 0.93765 0.88316 0.0
O80 O 0.54573 0.91769 0.85039 0.0
C81 C 0.65835 0.8351 0.90557 0.0
O82 O 0.73209 0.94786 0.88182 0.0
O83 O 0.66774 0.98507 0.88897 0.0
C84 C 0.66094 0.91749 0.8297 0.0
O85 O 0.6685 0.82316 0.88765 0.0
O86 O 0.64512 0.87925 0.90914 0.0
C87 C 0.47998 0.79786 0.88986 0.0
Fe88 Fe 0.71087 0.55357 0.01547 0.0
Fe89 Fe 0.81733 0.68628 0.03014 0.0
O90 O 0.74481 0.61277 0.03485 0.0
Fe91 Fe 0.70633 0.59778 0.05888 0.0
O92 O 0.67519 0.51057 0.05845 0.0
O93 O 0.7186 0.49534 0.03109 0.0
O94 O 0.78794 0.57347 0.00367 0.0
C95 C 0.84375 0.60054 0.01139 0.0
C96 C 0.60135 0.54737 0.03364 0.0
O97 O 0.85998 0.64392 0.02461 0.0
C98 C 0.75213 0.73116 0.05232 0.0
O99 O 0.70086 0.60861 0.99892 0.0
O100 O 0.79949 0.69042 0.00306 0.0
O101 O 0.63255 0.58834 0.04739 0.0
O102 O 0.6276 0.522 0.02353 0.0
C103 C 0.83383 0.65344 0.07021 0.0
O104 O 0.78016 0.73426 0.03576 0.0
O105 O 0.73118 0.68213 0.06373 0.0
C106 C 0.74615 0.66339 0.99363 0.0
O107 O 0.84809 0.69476 0.05619 0.0
O108 O 0.77721 0.60597 0.07191 0.0
C109 C 0.69405 0.47778 0.04859 0.0
Fe110 Fe 0.11537 0.78549 0.19974 0.0
Fe111 Fe 0.07656 0.67774 0.23114 0.0
O112 O 0.1078 0.71067 0.20695 0.0
Fe113 Fe 0.13029 0.66917 0.18972 0.0
O114 O 0.21127 0.73589 0.18862 0.0
O115 O 0.18435 0.80899 0.18218 0.0
O116 O 0.17357 0.8266 0.21974 0.0
C117 C 0.16135 0.81196 0.23831 0.0
C118 C 0.06107 0.71205 0.16599 0.0
O119 O 0.1132 0.75801 0.24366 0.0
C120 C 0.02061 0.56827 0.20514 0.0
O121 O 0.04839 0.77713 0.21596 0.0
O122 O 0.0023 0.67605 0.22553 0.0
O123 O 0.10358 0.69525 0.16689 0.0
O124 O 0.05672 0.74621 0.17976 0.0
C125 C 0.17312 0.65029 0.22837 0.0
O126 O 0.03601 0.59209 0.22289 0.0
O127 O 0.05104 0.60005 0.18978 0.0
C128 C -0.00055 0.72628 0.22246 0.0
O129 O 0.1481 0.677 0.23819 0.0
O130 O 0.15995 0.6356 0.20968 0.0
C131 C 0.22614 0.79142 0.18272 0.0
Fe132 Fe 0.82637 0.54711 0.48627 0.0
Fe133 Fe 0.86599 0.68228 0.47043 0.0
O134 O 0.86185 0.60694 0.46712 0.0
Fe135 Fe 0.89364 0.59249 0.4447 0.0
O136 O 0.81677 0.52428 0.43797 0.0
O137 O 0.79133 0.47886 0.46829 0.0
O138 O 0.75125 0.54637 0.48472 0.0
C139 C 0.74557 0.59488 0.48786 0.0
C140 C 0.92589 0.52966 0.47566 0.0
O141 O 0.79323 0.65132 0.48618 0.0
C142 C 0.98414 0.71744 0.45056 0.0
O143 O 0.85603 0.60547 0.50751 0.0
O144 O 0.91712 0.69945 0.4926 0.0
O145 O 0.92001 0.54022 0.45706 0.0
O146 O 0.89817 0.54274 0.48944 0.0
C147 C 0.82938 0.65811 0.43066 0.0
O148 O 0.93938 0.72834 0.45525 0.0
O149 O 0.97343 0.6604 0.44977 0.0
C150 C 0.90274 0.66324 0.50805 0.0
O151 O 0.81516 0.66822 0.44827 0.0
O152 O 0.87142 0.64115 0.42826 0.0
C153 C 0.78256 0.47643 0.44916 0.0
Fe154 Fe 0.2799 0.84989 0.6521 0.0
Fe155 Fe 0.17089 0.87231 0.63777 0.0
O156 O 0.24684 0.87888 0.6335 0.0
Fe157 Fe 0.28939 0.91492 0.61074 0.0
O158 O 0.28937 0.84221 0.60361 0.0
O159 O 0.3184 0.82298 0.63344 0.0
O160 O 0.21103 0.76932 0.65092 0.0
C161 C 0.15395 0.75552 0.65423 0.0
C162 C 0.38916 0.95979 0.64053 0.0
O163 O 0.13796 0.79831 0.65311 0.0
C164 C 0.24121 0.99386 0.61823 0.0
O165 O 0.24699 0.87209 0.67397 0.0
O166 O 0.20233 0.9238 0.66 0.0
O167 O 0.37015 0.95018 0.62219 0.0
O168 O 0.35169 0.92784 0.6548 0.0
C169 C 0.159 0.83956 0.59762 0.0
O170 O 0.18871 0.94462 0.62332 0.0
O171 O 0.29162 0.99033 0.61616 0.0
C172 C 0.22943 0.91383 0.67491 0.0
O173 O 0.13621 0.82146 0.61534 0.0
O174 O 0.21635 0.88551 0.59513 0.0
C175 C 0.30898 0.81219 0.61448 0.0
Fe176 Fe 0.44016 0.29079 0.81963 0.0
Fe177 Fe 0.30812 0.18758 0.80341 0.0
O178 O 0.38196 0.26032 0.79981 0.0
Fe179 Fe 0.39843 0.30324 0.77658 0.0
O180 O 0.48516 0.33278 0.77746 0.0
O181 O 0.49786 0.28339 0.80383 0.0
O182 O 0.41778 0.21161 0.83042 0.0
C183 C 0.39155 0.15712 0.8218 0.0
C184 C 0.4476 0.40309 0.80362 0.0
O185 O 0.34972 0.14332 0.80815 0.0
C186 C 0.26537 0.25736 0.78248 0.0
O187 O 0.385 0.29956 0.83626 0.0
O188 O 0.30278 0.20186 0.83076 0.0
O189 O 0.40702 0.37406 0.78965 0.0
O190 O 0.47398 0.37591 0.81274 0.0
C191 C 0.34134 0.17932 0.76231 0.0
O192 O 0.26118 0.22665 0.79857 0.0
O193 O 0.31492 0.28014 0.77137 0.0
C194 C 0.32957 0.25407 0.84091 0.0
O195 O 0.30086 0.161 0.77675 0.0
O196 O 0.39012 0.23535 0.76203 0.0
C197 C 0.51505 0.30878 0.78642 0.0
Fe198 Fe 0.12717 0.30648 0.97328 0.0
Fe199 Fe 0.10482 0.39927 0.94673 0.0
O200 O 0.12783 0.38019 0.97018 0.0
Fe201 Fe 0.1525 0.43623 0.99057 0.0
O202 O 0.20829 0.41419 0.00214 0.0
O203 O 0.21212 0.34835 0.97991 0.0
O204 O 0.15235 0.30414 0.94695 0.0
C205 C 0.17772 0.34787 0.93347 0.0
C206 C 0.07293 0.32147 0.00971 0.0
O207 O 0.16842 0.39519 0.9333 0.0
C208 C 0.04926 0.44399 0.97306 0.0
O209 O 0.04269 0.25874 0.96666 0.0
O210 O 0.04578 0.31584 0.94004 0.0
O211 O 0.08622 0.37869 0.00615 0.0
O212 O 0.10083 0.29639 1.00007 0.0
C213 C 0.21354 0.51586 0.95843 0.0
O214 O 0.03968 0.40482 0.95883 0.0
O215 O 0.10137 0.46921 0.98308 0.0
C216 C 0.01806 0.26446 0.9504 0.0
O217 O 0.16054 0.48629 0.94893 0.0
O218 O 0.21991 0.49636 0.97571 0.0
C219 C 0.23808 0.38915 0.99399 0.0
Fe220 Fe 0.78982 0.119 0.13579 0.0
Fe221 Fe 0.67646 0.07908 0.10672 0.0
O222 O 0.71286 0.10887 0.13072 0.0
Fe223 Fe 0.67278 0.12803 0.1495 0.0
O224 O 0.73796 0.20958 0.15116 0.0
O225 O 0.8155 0.18697 0.15385 0.0
O226 O 0.82516 0.17818 0.11567 0.0
C227 C 0.80785 0.16526 0.09733 0.0
C228 C 0.72434 0.06066 0.1706 0.0
O229 O 0.75426 0.11569 0.09271 0.0
C230 C 0.57025 0.02037 0.13389 0.0
O231 O 0.77848 0.05239 0.11884 0.0
O232 O 0.67556 0.00437 0.11106 0.0
O233 O 0.70248 0.09935 0.171 0.0
O234 O 0.75743 0.06027 0.1558 0.0
C235 C 0.65259 0.17754 0.11251 0.0
O236 O 0.59207 0.03857 0.11606 0.0
O237 O 0.60455 0.04789 0.14915 0.0
C238 C 0.72646 0.00233 0.11356 0.0
O239 O 0.67605 0.15181 0.10142 0.0
O240 O 0.6369 0.15977 0.13093 0.0
C241 C 0.79503 0.22622 0.15545 0.0
Fe242 Fe 0.61157 0.70718 0.27701 0.0
Fe243 Fe 0.54177 0.69656 0.31711 0.0
O244 O 0.60883 0.73918 0.30088 0.0
Fe245 Fe 0.67446 0.8149 0.30865 0.0
O246 O 0.65958 0.85556 0.28791 0.0
O247 O 0.65492 0.78732 0.26456 0.0
O248 O 0.53926 0.70412 0.26851 0.0
C249 C 0.48583 0.67653 0.27744 0.0
C250 C 0.73668 0.75917 0.2867 0.0
O251 O 0.48168 0.66243 0.29626 0.0
C252 C 0.65103 0.74223 0.34294 0.0
O253 O 0.56764 0.62184 0.28517 0.0
O254 O 0.55105 0.62682 0.31792 0.0
O255 O 0.73659 0.80852 0.29363 0.0
O256 O 0.68424 0.70783 0.28399 0.0
C257 C 0.56623 0.81876 0.32327 0.0
O258 O 0.59128 0.72314 0.34072 0.0
O259 O 0.69146 0.77658 0.32951 0.0
C260 C 0.55331 0.59629 0.30271 0.0
O261 O 0.52688 0.76291 0.31722 0.0
O262 O 0.62558 0.83705 0.325 0.0
C263 C 0.65849 0.84047 0.26943 0.0
H264 H 0.1191 0.82689 0.27504 0.0
H265 H 0.28531 0.91103 0.23568 0.0
H266 H 0.34481 -0.00232 0.26033 0.0
H267 H 0.3491 0.05011 0.2931 0.0
H268 H 0.18002 0.96696 0.33146 0.0
H269 H 0.12243 0.88016 0.30716 0.0
C270 C 0.16852 0.8639 0.27196 0.0
C271 C 0.19791 0.86241 0.25367 0.0
C272 C 0.20188 0.91429 0.28595 0.0
C273 C 0.26165 0.91126 0.24969 0.0
C274 C 0.29567 0.96083 0.26376 0.0
C275 C 0.29958 0.01324 0.29607 0.0
C276 C 0.26916 0.01553 0.3141 0.0
C277 C 0.26615 0.96309 0.28191 0.0
C278 C 0.20484 0.96702 0.31769 0.0
C279 C 0.17171 0.91693 0.30383 0.0
H280 H 0.28919 0.36862 0.45835 0.0
H281 H 0.25204 0.21783 0.50161 0.0
H282 H 0.27811 0.16129 0.47604 0.0
H283 H 0.30905 0.15265 0.44131 0.0
H284 H 0.34195 0.29974 0.3972 0.0
H285 H 0.32043 0.35966 0.42315 0.0
C286 C 0.2869 0.32345 0.46215 0.0
C287 C 0.26825 0.29744 0.48184 0.0
C288 C 0.30132 0.29043 0.44723 0.0
C289 C 0.26548 0.23874 0.48652 0.0
C290 C 0.28067 0.20635 0.47193 0.0
C291 C 0.31206 0.19809 0.43739 0.0
C292 C 0.32719 0.2217 0.41737 0.0
C293 C 0.29836 0.23153 0.45223 0.0
C294 C 0.3302 0.28037 0.41251 0.0
C295 C 0.31787 0.31466 0.42734 0.0
H296 H 0.93704 0.32116 0.62797 0.0
H297 H -0.00447 0.2021 0.66025 0.0
H298 H 0.07863 0.22601 0.63465 0.0
H299 H 0.13646 0.28309 0.60341 0.0
H300 H 0.07173 0.39429 0.56962 0.0
H301 H 0.9895 0.37168 0.5955 0.0
C302 C 0.96774 0.30014 0.62929 0.0
C303 C 0.9603 0.26002 0.64596 0.0
C304 C 0.01461 0.31324 0.61435 0.0
C305 C -2e-05 0.23265 0.64744 0.0
C306 C 0.04779 0.24669 0.6329 0.0
C307 C 0.10445 0.30253 0.60185 0.0
C308 C 0.11047 0.34112 0.58492 0.0
C309 C 0.05594 0.28739 0.61639 0.0
C310 C 0.06797 0.36486 0.58267 0.0
C311 C 0.02103 0.35186 0.59742 0.0
H312 H 0.74615 0.04651 0.7427 0.0
H313 H 0.83539 0.21828 0.77981 0.0
H314 H 0.79583 0.15271 0.81063 0.0
H315 H 0.73709 0.04647 0.82716 0.0
H316 H 0.6385 0.87493 0.79036 0.0
H317 H 0.6804 0.94005 0.7593 0.0
C318 C 0.75666 0.06936 0.75756 0.0
C319 C 0.79388 0.13701 0.75902 0.0
C320 C 0.73235 0.03137 0.77525 0.0
C321 C 0.80657 0.16628 0.77831 0.0
C322 C 0.78425 0.12883 0.79594 0.0
C323 C 0.72513 0.0235 0.81231 0.0
C324 C 0.68576 0.95617 0.81094 0.0
C325 C 0.74745 0.06138 0.79461 0.0
C326 C 0.66913 0.92679 0.79168 0.0
C327 C 0.69304 0.96397 0.77397 0.0
H328 H 0.75587 0.81123 0.9128 0.0
H329 H 0.57602 0.78087 0.93704 0.0
H330 H 0.58469 0.72053 0.96578 0.0
H331 H 0.64485 0.67828 0.98442 0.0
H332 H 0.83107 0.72007 0.96255 0.0
H333 H 0.81904 0.77406 0.93251 0.0
C334 C 0.71868 0.79111 0.92439 0.0
C335 C 0.66509 0.79968 0.92283 0.0
C336 C 0.72535 0.75872 0.94127 0.0
C337 C 0.61758 0.77458 0.93802 0.0
C338 C 0.62251 0.7401 0.95441 0.0
C339 C 0.68245 0.69895 0.97296 0.0
C340 C 0.73836 0.69482 0.97543 0.0
C341 C 0.67628 0.73205 0.95623 0.0
C342 C 0.78757 0.72274 0.96082 0.0
C343 C 0.78067 0.7535 0.94369 0.0
H344 H 0.08031 0.73885 0.12542 0.0
H345 H 0.9335 0.6341 0.17035 0.0
H346 H 0.84937 0.60171 0.14443 0.0
H347 H 0.81715 0.60953 0.10941 0.0
H348 H 0.96374 0.72155 0.06498 0.0
H349 H 0.04792 0.74473 0.09005 0.0
C350 C 0.0299 0.7082 0.12934 0.0
C351 C 0.01272 0.68834 0.14958 0.0
C352 C 0.98166 0.69171 0.11447 0.0
C353 C 0.94741 0.6496 0.15474 0.0
C354 C 0.89939 0.63127 0.13997 0.0
C355 C 0.86751 0.63855 0.10519 0.0
C356 C 0.88405 0.6641 0.0854 0.0
C357 C 0.91582 0.65301 0.11984 0.0
C358 C 0.94963 0.70191 0.0802 0.0
C359 C -0.0021 0.71507 0.09451 0.0
H360 H 0.03793 0.73258 0.59472 0.0
H361 H 0.1855 0.8893 0.55933 0.0
H362 H 0.11842 0.85025 0.5291 0.0
H363 H 0.01916 0.77152 0.51229 0.0
H364 H 0.87185 0.61173 0.54656 0.0
H365 H 0.93724 0.65221 0.5775 0.0
C366 C 0.05527 0.75816 0.5804 0.0
C367 C 0.11682 0.81382 0.57941 0.0
C368 C 0.01646 0.73506 0.5628 0.0
C369 C 0.13859 0.84617 0.56065 0.0
C370 C 0.10016 0.82402 0.54327 0.0
C371 C 0.00096 0.74574 0.52655 0.0
C372 C 0.9405 0.68893 0.52709 0.0
C373 C 0.03915 0.76856 0.54414 0.0
C374 C 0.91822 0.65572 0.54569 0.0
C375 C 0.95563 0.67879 0.5634 0.0
H376 H 0.28438 0.04275 0.6766 0.0
H377 H 0.20837 0.87316 0.71445 0.0
H378 H 0.23537 0.94048 0.74513 0.0
H379 H 0.28136 0.04834 0.76104 0.0
H380 H 0.36736 0.21788 0.72286 0.0
H381 H 0.33646 0.15016 0.69243 0.0
C382 C 0.27332 0.02072 0.6916 0.0
C383 C 0.24344 0.95335 0.69341 0.0
C384 C 0.29135 0.05979 0.70905 0.0
C385 C 0.23084 0.92505 0.71282 0.0
C386 C 0.24639 0.96348 0.7303 0.0
C387 C 0.29338 0.07024 0.74603 0.0
C388 C 0.32628 0.13787 0.74415 0.0
C389 C 0.27681 0.03098 0.72859 0.0
C390 C 0.34238 0.1659 0.72467 0.0
C391 C 0.32441 0.12724 0.70727 0.0
H392 H 0.16432 0.23671 0.91795 0.0
H393 H 0.27252 0.44378 0.91093 0.0
H394 H 0.33113 0.43306 0.88221 0.0
H395 H 0.34952 0.36482 0.85852 0.0
H396 H 0.23639 0.1575 0.86405 0.0
H397 H 0.18175 0.16828 0.8939 0.0
C398 C 0.2011 0.27944 0.91022 0.0
C399 C 0.2143 0.34092 0.91657 0.0
C400 C 0.23348 0.27286 0.89341 0.0
C401 C 0.2614 0.3959 0.90625 0.0
C402 C 0.29495 0.38983 0.88986 0.0
C403 C 0.31322 0.32201 0.86636 0.0
C404 C 0.29727 0.26048 0.85917 0.0
C405 C 0.28108 0.32855 0.88322 0.0
C406 C 0.24945 0.20542 0.86927 0.0
C407 C 0.21828 0.21154 0.88636 0.0
H408 H 0.84638 0.11971 0.06578 0.0
H409 H 0.87741 0.29513 0.09416 0.0
H410 H 0.96244 0.35951 0.06954 0.0
H411 H 0.02925 0.36575 0.04037 0.0
H412 H 0.00415 0.19028 0.01351 0.0
H413 H 0.91641 0.12608 0.03724 0.0
C414 C 0.87141 0.17204 0.06634 0.0
C415 C 0.85536 0.20295 0.08146 0.0
C416 C 0.9219 0.20862 0.05262 0.0
C417 C 0.88892 0.27062 0.08247 0.0
C418 C 0.93759 0.30732 0.06848 0.0
C419 C 0.0048 0.31347 0.03976 0.0
C420 C 0.02341 0.28293 0.02521 0.0
C421 C 0.95486 0.27685 0.05359 0.0
C422 C -0.00869 0.21508 0.0247 0.0
C423 C 0.94076 0.17828 0.03817 0.0
H424 H 0.68476 0.83627 0.22953 0.0
H425 H 0.65237 0.95128 0.27323 0.0
H426 H 0.66773 0.02926 0.24658 0.0
H427 H 0.69215 0.06568 0.21058 0.0
H428 H 0.72698 0.94973 0.16783 0.0
H429 H 0.70862 0.87163 0.1943 0.0
C430 C 0.68093 0.8783 0.23328 0.0
C431 C 0.66767 0.8879 0.25337 0.0
C432 C 0.69035 0.9231 0.21798 0.0
C433 C 0.66302 0.94285 0.2579 0.0
C434 C 0.67164 0.98745 0.24265 0.0
C435 C 0.69555 0.02326 0.20712 0.0
C436 C 0.71156 0.01409 0.18729 0.0
C437 C 0.6856 0.97825 0.2226 0.0
C438 C 0.71572 0.95871 0.18303 0.0
C439 C 0.70499 0.91368 0.19814 0.0
H440 H 0.71856 0.66365 0.42783 0.0
H441 H 0.8819 0.68954 0.39275 0.0
H442 H 0.84176 0.71933 0.36296 0.0
H443 H 0.76096 0.7382 0.34678 0.0
H444 H 0.59391 0.70708 0.38068 0.0
H445 H 0.63473 0.67914 0.41101 0.0
C446 C 0.74532 0.6759 0.41366 0.0
C447 C 0.80332 0.67456 0.41257 0.0
C448 C 0.72137 0.69212 0.39639 0.0
C449 C 0.83706 0.68986 0.39402 0.0
C450 C 0.81425 0.70714 0.37698 0.0
C451 C 0.73357 0.72574 0.36084 0.0
C452 C 0.67483 0.72551 0.36153 0.0
C453 C 0.75662 0.70854 0.37799 0.0
C454 C 0.63937 0.70789 0.37976 0.0
C455 C 0.66273 0.69194 0.3971 0.0
H456 H 0.5826 0.88694 0.35837 0.0
H457 H 0.49047 0.84317 0.29946 0.0
H458 H 0.43796 0.90495 0.30767 0.0
H459 H 0.41744 0.97016 0.33139 0.0
H460 H 0.50497 0.01273 0.39103 0.0
H461 H 0.55868 0.95121 0.38304 0.0
C462 C 0.55169 0.89193 0.34734 0.0
C463 C 0.54092 0.86163 0.32825 0.0
C464 C 0.51996 0.92608 0.35242 0.0
C465 C 0.49965 0.86674 0.31417 0.0
C466 C 0.4694 0.90166 0.31889 0.0
C467 C 0.44802 0.96581 0.34273 0.0
C468 C 0.45736 -0.00384 0.36175 0.0
C469 C 0.47885 0.93109 0.33798 0.0
C470 C 0.49659 0.9894 0.37632 0.0
C471 C 0.5278 0.95479 0.37167 0.0
H472 H 0.47738 0.56382 0.50945 0.0
H473 H 0.47459 0.42367 0.55125 0.0
H474 H 0.58471 0.45381 0.54113 0.0
H475 H 0.67651 0.51262 0.51781 0.0
H476 H 0.6808 0.65612 0.47712 0.0
H477 H 0.57463 0.6324 0.48939 0.0
C478 C 0.50164 0.54091 0.51657 0.0
C479 C 0.46874 0.49155 0.53089 0.0
C480 C 0.56429 0.55851 0.51069 0.0
C481 C 0.49984 0.4621 0.54026 0.0
C482 C 0.56225 0.47891 0.53435 0.0
C483 C 0.6541 0.53882 0.51178 0.0
C484 C 0.68504 0.58503 0.49639 0.0
C485 C 0.59407 0.52572 0.51916 0.0
C486 C 0.65705 0.62006 0.48891 0.0
C487 C 0.59662 0.60646 0.49588 0.0
H488 H 0.17859 0.67117 0.67441 0.0
H489 H 0.02358 0.69435 0.65068 0.0
H490 H 0.94483 0.58642 0.66271 0.0
H491 H 0.92032 0.48548 0.67945 0.0
H492 H 0.07411 0.4629 0.7046 0.0
H493 H 0.15338 0.5713 0.69272 0.0
C494 C 0.12756 0.65242 0.67183 0.0
C495 C 0.1068 0.69032 0.66155 0.0
C496 C 0.08255 0.59086 0.67913 0.0
C497 C 0.04059 0.66599 0.65857 0.0
C498 C -0.00437 0.60436 0.66543 0.0
C499 C 0.9712 0.5043 0.6824 0.0
C500 C -0.00854 0.46621 0.69279 0.0
C501 C 0.01611 0.56643 0.67568 0.0
C502 C 0.05739 0.4915 0.6967 0.0
C503 C 0.10266 0.55324 0.68982 0.0
H504 H 0.45547 0.15775 0.85613 0.0
H505 H 0.36958 0.04945 0.8011 0.0
H506 H 0.40751 0.97507 0.80976 0.0
H507 H 0.46807 0.94317 0.83221 0.0
H508 H 0.55115 0.04848 0.88785 0.0
H509 H 0.51116 0.12193 0.87967 0.0
C510 C 0.44476 0.11767 0.84609 0.0
C511 C 0.40999 0.1093 0.82796 0.0
C512 C 0.46644 0.07489 0.8512 0.0
C513 C 0.39602 0.05683 0.81518 0.0
C514 C 0.41795 0.01446 0.82006 0.0
C515 C 0.47753 0.98226 0.84255 0.0
C516 C 0.51305 0.9909 0.8605 0.0
C517 C 0.45375 0.02349 0.8379 0.0
C518 C 0.52396 0.04099 0.87392 0.0
C519 C 0.50122 0.08297 0.86924 0.0
H520 H 0.31361 0.4842 0.02109 0.0
H521 H 0.3114 0.3371 0.98252 0.0
H522 H 0.42226 0.37219 0.99211 0.0
H523 H 0.52037 0.44622 0.01014 0.0
H524 H 0.52604 0.59516 0.04853 0.0
H525 H 0.41268 0.55725 0.04035 0.0
C526 C 0.33715 0.4594 0.01492 0.0
C527 C 0.30397 0.40796 1.00107 0.0
C528 C 0.40144 0.48025 0.02038 0.0
C529 C 0.33552 0.37673 0.99317 0.0
C530 C 0.39904 0.39683 0.99863 0.0
C531 C 0.49711 0.47062 0.01683 0.0
C532 C 0.53198 0.5238 0.02989 0.0
C533 C 0.43255 0.44888 0.01201 0.0
C534 C 0.50045 0.55415 0.03846 0.0
C535 C 0.43569 0.53255 0.03374 0.0
H536 H 0.94047 0.52242 0.17356 0.0
H537 H -0.00457 0.46199 0.22814 0.0
H538 H 0.93226 0.34869 0.21709 0.0
H539 H 0.86651 0.26783 0.1904 0.0
H540 H 0.81264 0.33231 0.1364 0.0
H541 H 0.87188 0.44362 0.14841 0.0
C542 C 0.93778 0.48427 0.1832 0.0
C543 C 0.97233 0.50008 0.20157 0.0
C544 C 0.90308 0.42038 0.17654 0.0
C545 C 0.96841 0.45058 0.21403 0.0
C546 C 0.93318 0.38609 0.20756 0.0
C547 C 0.86882 0.30667 0.18126 0.0
C548 C 0.83676 0.29274 0.16239 0.0
C549 C 0.90162 0.3706 0.18856 0.0
C550 C 0.83799 0.3426 0.15083 0.0
C551 C 0.87128 0.40595 0.15774 0.0
H552 H 0.03201 0.53556 0.45848 0.0
H553 H 0.89202 0.44355 0.50638 0.0
H554 H 0.94893 0.38998 0.51876 0.0
H555 H 0.04457 0.37793 0.51824 0.0
H556 H 0.1904 0.47812 0.47266 0.0
H557 H 0.1252 0.51873 0.45687 0.0
C558 C 0.01377 0.50311 0.47144 0.0
C559 C 0.95854 0.49402 0.48163 0.0
C560 C 0.04785 0.47382 0.4789 0.0
C561 C 0.93521 0.45206 0.49847 0.0
C562 C 0.9675 0.42117 0.50554 0.0
C563 C 0.06095 0.40727 0.50455 0.0
C564 C 0.12141 0.42479 0.49644 0.0
C565 C 0.02468 0.43284 0.49618 0.0
C566 C 0.14348 0.46403 0.47901 0.0
C567 C 0.10649 0.48748 0.47007 0.0
H568 H 0.45544 0.95188 0.67277 0.0
H569 H 0.4782 0.06232 0.61829 0.0
H570 H 0.59333 0.13096 0.62555 0.0
H571 H 0.68682 0.15996 0.64757 0.0
H572 H 0.66439 0.04664 0.70138 0.0
H573 H 0.54966 0.97799 0.69399 0.0
C574 C 0.4855 0.99127 0.66255 0.0
C575 C 0.45829 0.00254 0.64513 0.0
C576 C 0.55167 0.02947 0.66658 0.0
C577 C 0.49805 0.0529 0.63183 0.0
C578 C 0.56381 0.09202 0.63595 0.0
C579 C 0.65697 0.11997 0.65762 0.0
C580 C 0.6842 0.10851 0.67502 0.0
C581 C 0.59109 0.08069 0.65328 0.0
C582 C 0.64482 0.05631 0.68782 0.0
C583 C 0.57911 0.01729 0.68368 0.0
H584 H 0.48085 0.6721 0.82815 0.0
H585 H 0.66359 0.70201 0.84997 0.0
H586 H 0.63675 0.59514 0.83736 0.0
H587 H 0.55953 0.49205 0.82131 0.0
H588 H 0.37882 0.46435 0.79823 0.0
H589 H 0.40698 0.57221 0.81005 0.0
C590 C 0.51484 0.65522 0.83014 0.0
C591 C 0.57383 0.69444 0.84017 0.0
C592 C 0.49949 0.59442 0.82261 0.0
C593 C 0.61789 0.67255 0.84232 0.0
C594 C 0.60249 0.61151 0.83516 0.0
C595 C 0.52644 0.50977 0.81878 0.0
C596 C 0.46697 0.47022 0.80904 0.0
C597 C 0.54319 0.57187 0.82545 0.0
C598 C 0.42494 0.49403 0.80563 0.0
C599 C 0.44088 0.55549 0.81247 0.0
H600 H 0.8244 0.50545 0.9846 0.0
H601 H 0.96879 0.65302 0.02346 0.0
H602 H 0.04474 0.61802 0.0145 0.0
H603 H 0.06912 0.54404 0.99684 0.0
H604 H 0.92646 0.39538 0.95799 0.0
H605 H 0.85066 0.43268 0.96576 0.0
C606 C 0.87266 0.53031 0.99098 0.0
C607 C 0.89079 0.58179 0.0047 0.0
C608 C 0.91619 0.50965 0.98587 0.0
C609 C 0.95346 0.61331 0.01286 0.0
C610 C -0.00304 0.59326 0.00779 0.0
C611 C 0.02149 0.51961 0.99 0.0
C612 C 0.00334 0.46676 0.97692 0.0
C613 C 0.97858 0.54116 0.99451 0.0
C614 C 0.94159 0.43619 0.9681 0.0
C615 C 0.89829 0.45744 0.97257 0.0
H616 H 0.52327 0.94181 0.16604 0.0
H617 H 0.46389 -0.00463 0.11093 0.0
H618 H 0.35054 0.93142 0.12159 0.0
H619 H 0.26882 0.86399 0.14784 0.0
H620 H 0.33223 0.81068 0.20222 0.0
H621 H 0.44382 0.87223 0.19087 0.0
C622 C 0.48544 0.93897 0.15623 0.0
C623 C 0.5017 0.97328 0.13779 0.0
C624 C 0.4213 0.90333 0.16258 0.0
C625 C 0.45235 0.96877 0.12512 0.0
C626 C 0.38773 0.93293 0.13135 0.0
C627 C 0.30742 0.8668 0.15721 0.0
C628 C 0.29289 0.83397 0.17596 0.0
C629 C 0.37172 0.90102 0.15028 0.0
C630 C 0.3427 0.83624 0.18782 0.0
C631 C 0.40634 0.87099 0.1813 0.0
H632 H 0.44341 0.51155 0.32097 0.0
H633 H 0.60935 0.52679 0.29052 0.0
H634 H 0.57374 0.41387 0.29923 0.0
H635 H 0.49873 0.31373 0.31772 0.0
H636 H 0.33022 0.29866 0.34657 0.0
H637 H 0.36318 0.40883 0.33615 0.0
C638 C 0.47134 0.48975 0.31609 0.0
C639 C 0.52909 0.52695 0.30537 0.0
C640 C 0.45021 0.42525 0.32094 0.0
C641 C 0.56468 0.49857 0.29879 0.0
C642 C 0.54449 0.43436 0.30387 0.0
C643 C 0.46905 0.33451 0.32155 0.0
C644 C 0.41243 0.29847 0.33304 0.0
C645 C 0.48791 0.39765 0.31527 0.0
C646 C 0.37388 0.32545 0.3377 0.0
C647 C 0.39283 0.38848 0.33183 0.0
H648 H -0.00405 0.82296 0.43203 0.0
H649 H 0.10266 0.72733 0.44659 0.0
H650 H 0.19681 0.81165 0.42839 0.0
H651 H 0.24791 0.9125 0.40819 0.0
H652 H 0.13655 0.00306 0.39276 0.0
H653 H 0.04467 0.9199 0.41128 0.0
C654 C 0.04003 0.82083 0.43148 0.0
C655 C 0.04278 0.7696 0.44089 0.0
C656 C 0.0928 0.86809 0.42062 0.0
C657 C 0.09969 0.7667 0.43957 0.0
C658 C 0.1533 0.81468 0.42912 0.0
C659 C 0.20343 0.91382 0.40879 0.0
C660 C 0.19947 0.96433 0.39918 0.0
C661 C 0.15026 0.86551 0.41949 0.0
C662 C 0.14126 0.96502 0.40003 0.0
C663 C 0.0886 0.91758 0.4107 0.0
H664 H 0.16946 0.19087 0.58046 0.0
H665 H 0.36107 0.27177 0.55583 0.0
H666 H 0.37566 0.19034 0.5738 0.0
H667 H 0.33282 0.09511 0.59613 0.0
H668 H 0.14253 0.01808 0.62189 0.0
H669 H 0.12922 0.09999 0.60427 0.0
C670 C 0.214 0.18997 0.57886 0.0
C671 C 0.26366 0.23601 0.56662 0.0
C672 C 0.22271 0.1445 0.5897 0.0
C673 C 0.32199 0.23597 0.56507 0.0
C674 C 0.33045 0.1898 0.5754 0.0
C675 C 0.28884 0.09681 0.59813 0.0
C676 C 0.23861 0.05012 0.61018 0.0
C677 C 0.28115 0.14388 0.58782 0.0
C678 C 0.1819 0.05313 0.6126 0.0
C679 C 0.17397 0.09974 0.60243 0.0
H680 H 0.23464 0.25731 0.74305 0.0
H681 H 0.16804 0.25743 0.80405 0.0
H682 H 0.07353 0.25841 0.79021 0.0
H683 H 0.01028 0.25838 0.7608 0.0
H684 H 0.07337 0.25064 0.69988 0.0
H685 H 0.16968 0.25351 0.71372 0.0
C686 C 0.19967 0.25807 0.75333 0.0
C687 C 0.20839 0.25811 0.77453 0.0
C688 C 0.14519 0.25712 0.74528 0.0
C689 C 0.16216 0.25756 0.78769 0.0
C690 C 0.10837 0.2582 0.77978 0.0
C691 C 0.0454 0.2578 0.75054 0.0
C692 C 0.03542 0.25504 0.72935 0.0
C693 C 0.09951 0.25796 0.75862 0.0
C694 C 0.08034 0.25288 0.71623 0.0
C695 C 0.13525 0.25461 0.72413 0.0
H696 H 0.80624 -0.00358 0.91509 0.0
H697 H 0.75788 0.11931 0.88057 0.0
H698 H 0.84462 0.21491 0.89759 0.0
H699 H 0.93433 0.2627 0.92221 0.0
H700 H 0.97626 0.13788 0.95853 0.0
H701 H 0.89091 0.04342 0.94116 0.0
C702 C 0.81535 0.04433 0.91118 0.0
C703 C 0.77724 0.05158 0.89636 0.0
C704 C 0.86333 0.09828 0.92154 0.0
C705 C 0.7876 0.11324 0.89179 0.0
C706 C 0.83681 0.16759 0.90156 0.0
C707 C 0.92445 0.21475 0.92639 0.0
C708 C 0.96175 0.20729 0.94154 0.0
C709 C 0.8749 0.16061 0.91648 0.0
C710 C 0.94805 0.14491 0.94699 0.0
C711 C 0.89959 0.0909 0.93696 0.0
H712 H 0.80256 0.00159 0.0836 0.0
H713 H 0.64985 0.87816 0.12467 0.0
H714 H 0.6428 0.78247 0.1087 0.0
H715 H 0.67881 0.73466 0.08281 0.0
H716 H 0.82753 0.85717 0.04026 0.0
H717 H 0.83635 0.95292 0.05669 0.0
C718 C 0.76862 0.95361 0.08918 0.0
C719 C 0.72766 0.94618 0.10546 0.0
C720 C 0.76328 0.89908 0.07942 0.0
C721 C 0.68232 0.8843 0.11231 0.0
C722 C 0.67803 0.82989 0.10311 0.0
C723 C 0.71302 0.78229 0.07705 0.0
C724 C 0.75264 0.78884 0.06041 0.0
C725 C 0.71788 0.83677 0.08656 0.0
C726 C 0.79621 0.85083 0.05299 0.0
C727 C 0.80169 0.90557 0.06248 0.0
H728 H 0.74209 0.6683 0.26399 0.0
H729 H 0.86113 0.86278 0.28632 0.0
H730 H 0.95275 0.87248 0.26677 0.0
H731 H -0.00137 0.82422 0.2434 0.0
H732 H 0.87603 0.63 0.22148 0.0
H733 H 0.78519 0.62251 0.24038 0.0
C734 C 0.78802 0.71297 0.26477 0.0
C735 C 0.79469 0.76464 0.27676 0.0
C736 C 0.83942 0.71864 0.2532 0.0
C737 C 0.85474 0.82205 0.27736 0.0
C738 C 0.90693 0.82778 0.26605 0.0
C739 C 0.95156 0.78098 0.24245 0.0
C740 C 0.94358 0.72785 0.23096 0.0
C741 C 0.89967 0.77644 0.25379 0.0
C742 C 0.88295 0.67148 0.23016 0.0
C743 C 0.83124 0.667 0.24107 0.0
H744 H 0.75991 0.45057 0.4086 0.0
H745 H 0.69267 0.36633 0.46815 0.0
H746 H 0.60518 0.2697 0.45248 0.0
H747 H 0.54338 0.21323 0.42238 0.0
H748 H 0.60707 0.29686 0.36271 0.0
H749 H 0.70182 0.38953 0.37798 0.0
C750 C 0.72639 0.41093 0.41818 0.0
C751 C 0.73247 0.41605 0.43957 0.0
C752 C 0.67592 0.35556 0.40907 0.0
C753 C 0.68899 0.36392 0.45169 0.0
C754 C 0.63893 0.30863 0.44275 0.0
C755 C 0.57828 0.25144 0.41264 0.0
C756 C 0.568 0.24875 0.39147 0.0
C757 C 0.63134 0.30457 0.42152 0.0
C758 C 0.61411 0.29791 0.37904 0.0
C759 C 0.66785 0.35103 0.38779 0.0
H760 H 0.30636 0.78487 0.57401 0.0
H761 H 0.33644 0.72799 0.63368 0.0
H762 H 0.34336 0.63886 0.61868 0.0
H763 H 0.3322 0.57223 0.58928 0.0
H764 H 0.30178 0.62675 0.52944 0.0
H765 H 0.3046 0.7226 0.54387 0.0
C766 C 0.31507 0.75338 0.58372 0.0
C767 C 0.32022 0.7628 0.60499 0.0
C768 C 0.31873 0.70185 0.575 0.0
C769 C 0.33208 0.72185 0.6173 0.0
C770 C 0.33589 0.67071 0.60875 0.0
C771 C 0.32664 0.60534 0.57934 0.0
C772 C 0.31594 0.5922 0.55839 0.0
C773 C 0.32791 0.65954 0.58772 0.0
C774 C 0.31005 0.63601 0.54563 0.0
C775 C 0.31128 0.69046 0.55389 0.0
H776 H 0.5352 0.31123 0.74604 0.0
H777 H 0.61913 0.31115 0.80423 0.0
H778 H 0.71062 0.31334 0.78703 0.0
H779 H 0.76496 0.31302 0.75556 0.0
H780 H 0.67714 0.30479 0.69737 0.0
H781 H 0.5883 0.30812 0.71452 0.0
C782 C 0.57391 0.31236 0.75494 0.0
C783 C 0.57113 0.31186 0.77633 0.0
C784 C 0.62519 0.31194 0.74498 0.0
C785 C 0.62059 0.31177 0.78774 0.0
C786 C 0.67275 0.31305 0.77793 0.0
C787 C 0.72667 0.31261 0.74663 0.0
C788 C 0.72776 0.30952 0.72526 0.0
C789 C 0.67534 0.31292 0.75657 0.0
C790 C 0.67725 0.30744 0.71385 0.0
C791 C 0.62663 0.30937 0.72363 0.0
H792 H 0.46773 0.76265 0.92954 0.0
H793 H 0.36173 0.71566 0.87289 0.0
H794 H 0.26873 0.62597 0.88963 0.0
H795 H 0.21993 0.55877 0.91984 0.0
H796 H 0.32832 0.60344 0.97598 0.0
H797 H 0.41884 0.6967 0.95972 0.0
C798 C 0.42436 0.73307 0.92077 0.0
C799 C 0.42187 0.74585 0.89993 0.0
C800 C 0.37179 0.68122 0.93036 0.0
C801 C 0.365 0.70696 0.88893 0.0
C802 C 0.3119 0.65563 0.89848 0.0
C803 C 0.26305 0.58922 0.92863 0.0
C804 C 0.26723 0.57436 0.94915 0.0
C805 C 0.31509 0.64204 0.91913 0.0
C806 C 0.32379 0.6139 0.9602 0.0
C807 C 0.37553 0.66715 0.95092 0.0
H808 H 0.67013 0.21351 0.07307 0.0
H809 H 0.62272 0.26197 0.13139 0.0
H810 H 0.62833 0.35837 0.11626 0.0
H811 H 0.65484 0.4323 0.08703 0.0
H812 H 0.7082 0.38453 0.02956 0.0
H813 H 0.69288 0.28413 0.04407 0.0
C814 C 0.66042 0.24465 0.08257 0.0
C815 C 0.64629 0.23062 0.10341 0.0
C816 C 0.66564 0.30039 0.07398 0.0
C817 C 0.63345 0.27148 0.11532 0.0
C818 C 0.63715 0.32679 0.1067 0.0
C819 C 0.66268 0.39971 0.07762 0.0
C820 C 0.6828 0.41601 0.05722 0.0
C821 C 0.65453 0.34232 0.08614 0.0
C822 C 0.69301 0.37338 0.04529 0.0
C823 C 0.68411 0.31589 0.05356 0.0
H824 H 0.36475 0.63977 0.29097 0.0
H825 H 0.47704 0.67682 0.2361 0.0
H826 H 0.38648 0.66284 0.21559 0.0
H827 H 0.2794 0.65221 0.21342 0.0
H828 H 0.16904 0.62039 0.26834 0.0
H829 H 0.25383 0.61891 0.28845 0.0
C830 C 0.36901 0.64377 0.27452 0.0
C831 C 0.42782 0.66016 0.26519 0.0
C832 C 0.31695 0.63674 0.26273 0.0
C833 C 0.43255 0.66511 0.24378 0.0
C834 C 0.38071 0.65701 0.23196 0.0
C835 C 0.2734 0.64331 0.2297 0.0
C836 C 0.21852 0.6368 0.23941 0.0
C837 C 0.32323 0.64451 0.24129 0.0
C838 C 0.21138 0.62605 0.26057 0.0
C839 C 0.25986 0.6254 0.2721 0.0
loop_
_geom_bond_atom_site_label_1
_geom_bond_atom_site_label_2
_geom_bond_distance
_geom_bond_site_symmetry_2
_ccdc_geom_bond_type
Fe0 O2 1.918 . S
Fe0 O5 1.997 . S
Fe0 O6 2.002 . S
Fe0 O11 1.976 . S
Fe0 O14 1.996 . S
Fe1 O2 1.918 . S
Fe1 O9 1.997 . S
Fe1 O12 1.996 . S
Fe1 O16 1.976 . S
Fe1 O19 2.002 . S
O2 Fe0 1.918 . S
O2 Fe1 1.918 . S
O2 Fe3 1.918 . S
Fe3 O2 1.918 . S
Fe3 O4 2.002 . S
Fe3 O13 1.976 . S
Fe3 O17 1.996 . S
Fe3 O20 1.997 . S
O4 Fe3 2.002 . S
O4 C21 1.295 . S
O5 Fe0 1.997 . S
O5 C21 1.235 . S
O6 Fe0 2.002 . S
O6 C7 1.295 . S
C7 O6 1.295 . S
C7 O9 1.235 . S
C8 O13 1.287 . S
C8 O14 1.255 . S
O9 Fe1 1.997 . S
O9 C7 1.235 . S
C10 O16 1.287 . S
C10 O17 1.255 . S
O11 Fe0 1.976 . S
O11 C18 1.287 . S
O12 Fe1 1.996 . S
O12 C18 1.255 . S
O13 Fe3 1.976 . S
O13 C8 1.287 . S
O14 Fe0 1.996 . S
O14 C8 1.255 . S
C15 O19 1.295 . S
C15 O20 1.235 . S
O16 Fe1 1.976 . S
O16 C10 1.287 . S
O17 Fe3 1.996 . S
O17 C10 1.255 . S
C18 O11 1.287 . S
C18 O12 1.255 . S
O19 Fe1 2.002 . S
O19 C15 1.295 . S
O20 Fe3 1.997 . S
O20 C15 1.235 . S
C21 O4 1.295 . S
C21 O5 1.235 . S
Fe22 O24 1.918 . S
Fe22 O27 1.997 . S
Fe22 O28 2.002 . S
Fe22 O33 1.976 . S
Fe22 O36 1.996 . S
Fe23 O24 1.918 . S
Fe23 O31 1.997 . S
Fe23 O34 1.996 . S
Fe23 O38 1.976 . S
Fe23 O41 2.002 . S
O24 Fe22 1.918 . S
O24 Fe23 1.918 . S
O24 Fe25 1.918 . S
Fe25 O24 1.918 . S
Fe25 O26 2.002 . S
Fe25 O35 1.976 . S
Fe25 O39 1.996 . S
Fe25 O42 1.997 . S
O26 Fe25 2.002 . S
O26 C43 1.295 . S
O27 Fe22 1.997 . S
O27 C43 1.235 . S
O28 Fe22 2.002 . S
O28 C29 1.295 . S
C29 O28 1.295 . S
C29 O31 1.235 . S
C30 O35 1.287 . S
C30 O36 1.255 . S
O31 Fe23 1.997 . S
O31 C29 1.235 . S
C32 O38 1.287 . S
C32 O39 1.255 . S
O33 Fe22 1.976 . S
O33 C40 1.287 . S
O34 Fe23 1.996 . S
O34 C40 1.255 . S
O35 Fe25 1.976 . S
O35 C30 1.287 . S
O36 Fe22 1.996 . S
O36 C30 1.255 . S
C37 O41 1.295 . S
C37 O42 1.235 . S
O38 Fe23 1.976 . S
O38 C32 1.287 . S
O39 Fe25 1.996 . S
O39 C32 1.255 . S
C40 O33 1.287 . S
C40 O34 1.255 . S
O41 Fe23 2.002 . S
O41 C37 1.295 . S
O42 Fe25 1.997 . S
O42 C37 1.235 . S
C43 O26 1.295 . S
C43 O27 1.235 . S
Fe44 O46 1.918 . S
Fe44 O49 1.997 . S
Fe44 O50 2.002 . S
Fe44 O55 1.976 . S
Fe44 O58 1.996 . S
Fe45 O46 1.918 . S
Fe45 O53 1.997 . S
Fe45 O56 1.996 . S
Fe45 O60 1.976 . S
Fe45 O63 2.002 . S
O46 Fe44 1.918 . S
O46 Fe45 1.918 . S
O46 Fe47 1.918 . S
Fe47 O46 1.918 . S
Fe47 O48 2.002 . S
Fe47 O57 1.976 . S
Fe47 O61 1.996 . S
Fe47 O64 1.997 . S
O48 Fe47 2.002 . S
O48 C65 1.295 . S
O49 Fe44 1.997 . S
O49 C65 1.235 . S
O50 Fe44 2.002 . S
O50 C51 1.295 . S
C51 O50 1.295 . S
C51 O53 1.235 . S
C52 O57 1.287 . S
C52 O58 1.255 . S
O53 Fe45 1.997 . S
O53 C51 1.235 . S
C54 O60 1.287 . S
C54 O61 1.255 . S
O55 Fe44 1.976 . S
O55 C62 1.287 . S
O56 Fe45 1.996 . S
O56 C62 1.255 . S
O57 Fe47 1.976 . S
O57 C52 1.287 . S
O58 Fe44 1.996 . S
O58 C52 1.255 . S
C59 O63 1.295 . S
C59 O64 1.235 . S
O60 Fe45 1.976 . S
O60 C54 1.287 . S
O61 Fe47 1.996 . S
O61 C54 1.255 . S
C62 O55 1.287 . S
C62 O56 1.255 . S
O63 Fe45 2.002 . S
O63 C59 1.295 . S
O64 Fe47 1.997 . S
O64 C59 1.235 . S
C65 O48 1.295 . S
C65 O49 1.235 . S
Fe66 O68 1.918 . S
Fe66 O71 1.997 . S
Fe66 O72 2.002 . S
Fe66 O77 1.976 . S
Fe66 O80 1.996 . S
Fe67 O68 1.918 . S
Fe67 O75 1.997 . S
Fe67 O78 1.996 . S
Fe67 O82 1.976 . S
Fe67 O85 2.002 . S
O68 Fe66 1.918 . S
O68 Fe67 1.918 . S
O68 Fe69 1.918 . S
Fe69 O68 1.918 . S
Fe69 O70 2.002 . S
Fe69 O79 1.976 . S
Fe69 O83 1.996 . S
Fe69 O86 1.997 . S
O70 Fe69 2.002 . S
O70 C87 1.295 . S
O71 Fe66 1.997 . S
O71 C87 1.235 . S
O72 Fe66 2.002 . S
O72 C73 1.295 . S
C73 O72 1.295 . S
C73 O75 1.235 . S
C74 O79 1.287 . S
C74 O80 1.255 . S
O75 Fe67 1.997 . S
O75 C73 1.235 . S
C76 O82 1.287 . S
C76 O83 1.255 . S
O77 Fe66 1.976 . S
O77 C84 1.287 . S
O78 Fe67 1.996 . S
O78 C84 1.255 . S
O79 Fe69 1.976 . S
O79 C74 1.287 . S
O80 Fe66 1.996 . S
O80 C74 1.255 . S
C81 O85 1.295 . S
C81 O86 1.235 . S
O82 Fe67 1.976 . S
O82 C76 1.287 . S
O83 Fe69 1.996 . S
O83 C76 1.255 . S
C84 O77 1.287 . S
C84 O78 1.255 . S
O85 Fe67 2.002 . S
O85 C81 1.295 . S
O86 Fe69 1.997 . S
O86 C81 1.235 . S
C87 O70 1.295 . S
C87 O71 1.235 . S
Fe88 O90 1.918 . S
Fe88 O93 1.997 . S
Fe88 O94 2.002 . S
Fe88 O99 1.976 1_554 S
Fe88 O102 1.996 . S
Fe89 O90 1.918 . S
Fe89 O97 1.997 . S
Fe89 O100 1.996 . S
Fe89 O104 1.976 . S
Fe89 O107 2.002 . S
O90 Fe88 1.918 . S
O90 Fe89 1.918 . S
O90 Fe91 1.918 . S
Fe91 O90 1.918 . S
Fe91 O92 2.002 . S
Fe91 O101 1.976 . S
Fe91 O105 1.996 . S
Fe91 O108 1.997 . S
O92 Fe91 2.002 . S
O92 C109 1.295 . S
O93 Fe88 1.997 . S
O93 C109 1.235 . S
O94 Fe88 2.002 . S
O94 C95 1.295 . S
C95 O94 1.295 . S
C95 O97 1.235 . S
C96 O101 1.287 . S
C96 O102 1.255 . S
O97 Fe89 1.997 . S
O97 C95 1.235 . S
C98 O104 1.287 . S
C98 O105 1.255 . S
O99 Fe88 1.976 1_556 S
O99 C106 1.287 . S
O100 Fe89 1.996 . S
O100 C106 1.255 1_554 S
O101 Fe91 1.976 . S
O101 C96 1.287 . S
O102 Fe88 1.996 . S
O102 C96 1.255 . S
C103 O107 1.295 . S
C103 O108 1.235 . S
O104 Fe89 1.976 . S
O104 C98 1.287 . S
O105 Fe91 1.996 . S
O105 C98 1.255 . S
C106 O99 1.287 . S
C106 O100 1.255 1_556 S
O107 Fe89 2.002 . S
O107 C103 1.295 . S
O108 Fe91 1.997 . S
O108 C103 1.235 . S
C109 O92 1.295 . S
C109 O93 1.235 . S
Fe110 O112 1.918 . S
Fe110 O115 1.997 . S
Fe110 O116 2.002 . S
Fe110 O121 1.976 . S
Fe110 O124 1.996 . S
Fe111 O112 1.918 . S
Fe111 O119 1.997 . S
Fe111 O122 1.996 . S
Fe111 O126 1.976 . S
Fe111 O129 2.002 . S
O112 Fe110 1.918 . S
O112 Fe111 1.918 . S
O112 Fe113 1.918 . S
Fe113 O112 1.918 . S
Fe113 O114 2.002 . S
Fe113 O123 1.976 . S
Fe113 O127 1.996 . S
Fe113 O130 1.997 . S
O114 Fe113 2.002 . S
O114 C131 1.295 . S
O115 Fe110 1.997 . S
O115 C131 1.235 . S
O116 Fe110 2.002 . S
O116 C117 1.295 . S
C117 O116 1.295 . S
C117 O119 1.235 . S
C118 O123 1.287 . S
C118 O124 1.255 . S
O119 Fe111 1.997 . S
O119 C117 1.235 . S
C120 O126 1.287 . S
C120 O127 1.255 . S
O121 Fe110 1.976 . S
O121 C128 1.287 . S
O122 Fe111 1.996 . S
O122 C128 1.255 . S
O123 Fe113 1.976 . S
O123 C118 1.287 . S
O124 Fe110 1.996 . S
O124 C118 1.255 . S
C125 O129 1.295 . S
C125 O130 1.235 . S
O126 Fe111 1.976 . S
O126 C120 1.287 . S
O127 Fe113 1.996 . S
O127 C120 1.255 . S
C128 O121 1.287 . S
C128 O122 1.255 . S
O129 Fe111 2.002 . S
O129 C125 1.295 . S
O130 Fe113 1.997 . S
O130 C125 1.235 . S
C131 O114 1.295 . S
C131 O115 1.235 . S
Fe132 O134 1.918 . S
Fe132 O137 1.997 . S
Fe132 O138 2.002 . S
Fe132 O143 1.976 . S
Fe132 O146 1.996 . S
Fe133 O134 1.918 . S
Fe133 O141 1.997 . S
Fe133 O144 1.996 . S
Fe133 O148 1.976 . S
Fe133 O151 2.002 . S
O134 Fe132 1.918 . S
O134 Fe133 1.918 . S
O134 Fe135 1.918 . S
Fe135 O134 1.918 . S
Fe135 O136 2.002 . S
Fe135 O145 1.976 . S
Fe135 O149 1.996 . S
Fe135 O152 1.997 . S
O136 Fe135 2.002 . S
O136 C153 1.295 . S
O137 Fe132 1.997 . S
O137 C153 1.235 . S
O138 Fe132 2.002 . S
O138 C139 1.295 . S
C139 O138 1.295 . S
C139 O141 1.235 . S
C140 O145 1.287 . S
C140 O146 1.255 . S
O141 Fe133 1.997 . S
O141 C139 1.235 . S
C142 O148 1.287 . S
C142 O149 1.255 . S
O143 Fe132 1.976 . S
O143 C150 1.287 . S
O144 Fe133 1.996 . S
O144 C150 1.255 . S
O145 Fe135 1.976 . S
O145 C140 1.287 . S
O146 Fe132 1.996 . S
O146 C140 1.255 . S
C147 O151 1.295 . S
C147 O152 1.235 . S
O148 Fe133 1.976 . S
O148 C142 1.287 . S
O149 Fe135 1.996 . S
O149 C142 1.255 . S
C150 O143 1.287 . S
C150 O144 1.255 . S
O151 Fe133 2.002 . S
O151 C147 1.295 . S
O152 Fe135 1.997 . S
O152 C147 1.235 . S
C153 O136 1.295 . S
C153 O137 1.235 . S
Fe154 O156 1.918 . S
Fe154 O159 1.997 . S
Fe154 O160 2.002 . S
Fe154 O165 1.976 . S
Fe154 O168 1.996 . S
Fe155 O156 1.918 . S
Fe155 O163 1.997 . S
Fe155 O166 1.996 . S
Fe155 O170 1.976 . S
Fe155 O173 2.002 . S
O156 Fe154 1.918 . S
O156 Fe155 1.918 . S
O156 Fe157 1.918 . S
Fe157 O156 1.918 . S
Fe157 O158 2.002 . S
Fe157 O167 1.976 . S
Fe157 O171 1.996 . S
Fe157 O174 1.997 . S
O158 Fe157 2.002 . S
O158 C175 1.295 . S
O159 Fe154 1.997 . S
O159 C175 1.235 . S
O160 Fe154 2.002 . S
O160 C161 1.295 . S
C161 O160 1.295 . S
C161 O163 1.235 . S
C162 O167 1.287 . S
C162 O168 1.255 . S
O163 Fe155 1.997 . S
O163 C161 1.235 . S
C164 O170 1.287 . S
C164 O171 1.255 . S
O165 Fe154 1.976 . S
O165 C172 1.287 . S
O166 Fe155 1.996 . S
O166 C172 1.255 . S
O167 Fe157 1.976 . S
O167 C162 1.287 . S
O168 Fe154 1.996 . S
O168 C162 1.255 . S
C169 O173 1.295 . S
C169 O174 1.235 . S
O170 Fe155 1.976 . S
O170 C164 1.287 . S
O171 Fe157 1.996 . S
O171 C164 1.255 . S
C172 O165 1.287 . S
C172 O166 1.255 . S
O173 Fe155 2.002 . S
O173 C169 1.295 . S
O174 Fe157 1.997 . S
O174 C169 1.235 . S
C175 O158 1.295 . S
C175 O159 1.235 . S
Fe176 O178 1.918 . S
Fe176 O181 1.997 . S
Fe176 O182 2.002 . S
Fe176 O187 1.976 . S
Fe176 O190 1.996 . S
Fe177 O178 1.918 . S
Fe177 O185 1.997 . S
Fe177 O188 1.996 . S
Fe177 O192 1.976 . S
Fe177 O195 2.002 . S
O178 Fe176 1.918 . S
O178 Fe177 1.918 . S
O178 Fe179 1.918 . S
Fe179 O178 1.918 . S
Fe179 O180 2.002 . S
Fe179 O189 1.976 . S
Fe179 O193 1.996 . S
Fe179 O196 1.997 . S
O180 Fe179 2.002 . S
O180 C197 1.295 . S
O181 Fe176 1.997 . S
O181 C197 1.235 . S
O182 Fe176 2.002 . S
O182 C183 1.295 . S
C183 O182 1.295 . S
C183 O185 1.235 . S
C184 O189 1.287 . S
C184 O190 1.255 . S
O185 Fe177 1.997 . S
O185 C183 1.235 . S
C186 O192 1.287 . S
C186 O193 1.255 . S
O187 Fe176 1.976 . S
O187 C194 1.287 . S
O188 Fe177 1.996 . S
O188 C194 1.255 . S
O189 Fe179 1.976 . S
O189 C184 1.287 . S
O190 Fe176 1.996 . S
O190 C184 1.255 . S
C191 O195 1.295 . S
C191 O196 1.235 . S
O192 Fe177 1.976 . S
O192 C186 1.287 . S
O193 Fe179 1.996 . S
O193 C186 1.255 . S
C194 O187 1.287 . S
C194 O188 1.255 . S
O195 Fe177 2.002 . S
O195 C191 1.295 . S
O196 Fe179 1.997 . S
O196 C191 1.235 . S
C197 O180 1.295 . S
C197 O181 1.235 . S
Fe198 O200 1.918 . S
Fe198 O203 1.997 . S
Fe198 O204 2.002 . S
Fe198 O209 1.976 . S
Fe198 O212 1.996 . S
Fe199 O200 1.918 . S
Fe199 O207 1.997 . S
Fe199 O210 1.996 . S
Fe199 O214 1.976 . S
Fe199 O217 2.002 . S
O200 Fe198 1.918 . S
O200 Fe199 1.918 . S
O200 Fe201 1.918 . S
Fe201 O200 1.918 . S
Fe201 O202 2.002 . S
Fe201 O211 1.976 1_556 S
Fe201 O215 1.996 . S
Fe201 O218 1.997 . S
O202 Fe201 2.002 . S
O202 C219 1.295 . S
O203 Fe198 1.997 . S
O203 C219 1.235 . S
O204 Fe198 2.002 . S
O204 C205 1.295 . S
C205 O204 1.295 . S
C205 O207 1.235 . S
C206 O211 1.287 . S
C206 O212 1.255 1_554 S
O207 Fe199 1.997 . S
O207 C205 1.235 . S
C208 O214 1.287 . S
C208 O215 1.255 . S
O209 Fe198 1.976 . S
O209 C216 1.287 . S
O210 Fe199 1.996 . S
O210 C216 1.255 . S
O211 Fe201 1.976 1_554 S
O211 C206 1.287 . S
O212 Fe198 1.996 . S
O212 C206 1.255 1_556 S
C213 O217 1.295 . S
C213 O218 1.235 . S
O214 Fe199 1.976 . S
O214 C208 1.287 . S
O215 Fe201 1.996 . S
O215 C208 1.255 . S
C216 O209 1.287 . S
C216 O210 1.255 . S
O217 Fe199 2.002 . S
O217 C213 1.295 . S
O218 Fe201 1.997 . S
O218 C213 1.235 . S
C219 O202 1.295 . S
C219 O203 1.235 . S
Fe220 O222 1.918 . S
Fe220 O225 1.997 . S
Fe220 O226 2.002 . S
Fe220 O231 1.976 . S
Fe220 O234 1.996 . S
Fe221 O222 1.918 . S
Fe221 O229 1.997 . S
Fe221 O232 1.996 . S
Fe221 O236 1.976 . S
Fe221 O239 2.002 . S
O222 Fe220 1.918 . S
O222 Fe221 1.918 . S
O222 Fe223 1.918 . S
Fe223 O222 1.918 . S
Fe223 O224 2.002 . S
Fe223 O233 1.976 . S
Fe223 O237 1.996 . S
Fe223 O240 1.997 . S
O224 Fe223 2.002 . S
O224 C241 1.295 . S
O225 Fe220 1.997 . S
O225 C241 1.235 . S
O226 Fe220 2.002 . S
O226 C227 1.295 . S
C227 O226 1.295 . S
C227 O229 1.235 . S
C228 O233 1.287 . S
C228 O234 1.255 . S
O229 Fe221 1.997 . S
O229 C227 1.235 . S
C230 O236 1.287 . S
C230 O237 1.255 . S
O231 Fe220 1.976 . S
O231 C238 1.287 . S
O232 Fe221 1.996 . S
O232 C238 1.255 . S
O233 Fe223 1.976 . S
O233 C228 1.287 . S
O234 Fe220 1.996 . S
O234 C228 1.255 . S
C235 O239 1.295 . S
C235 O240 1.235 . S
O236 Fe221 1.976 . S
O236 C230 1.287 . S
O237 Fe223 1.996 . S
O237 C230 1.255 . S
C238 O231 1.287 . S
C238 O232 1.255 . S
O239 Fe221 2.002 . S
O239 C235 1.295 . S
O240 Fe223 1.997 . S
O240 C235 1.235 . S
C241 O224 1.295 . S
C241 O225 1.235 . S
Fe242 O244 1.918 . S
Fe242 O247 1.997 . S
Fe242 O248 2.002 . S
Fe242 O253 1.976 . S
Fe242 O256 1.996 . S
Fe243 O244 1.918 . S
Fe243 O251 1.997 . S
Fe243 O254 1.996 . S
Fe243 O258 1.976 . S
Fe243 O261 2.002 . S
O244 Fe242 1.918 . S
O244 Fe243 1.918 . S
O244 Fe245 1.918 . S
Fe245 O244 1.918 . S
Fe245 O246 2.002 . S
Fe245 O255 1.976 . S
Fe245 O259 1.996 . S
Fe245 O262 1.997 . S
O246 Fe245 2.002 . S
O246 C263 1.295 . S
O247 Fe242 1.997 . S
O247 C263 1.235 . S
O248 Fe242 2.002 . S
O248 C249 1.295 . S
C249 O248 1.295 . S
C249 O251 1.235 . S
C250 O255 1.287 . S
C250 O256 1.255 . S
O251 Fe243 1.997 . S
O251 C249 1.235 . S
C252 O258 1.287 . S
C252 O259 1.255 . S
O253 Fe242 1.976 . S
O253 C260 1.287 . S
O254 Fe243 1.996 . S
O254 C260 1.255 . S
O255 Fe245 1.976 . S
O255 C250 1.287 . S
O256 Fe242 1.996 . S
O256 C250 1.255 . S
C257 O261 1.295 . S
C257 O262 1.235 . S
O258 Fe243 1.976 . S
O258 C252 1.287 . S
O259 Fe245 1.996 . S
O259 C252 1.255 . S
C260 O253 1.287 . S
C260 O254 1.255 . S
O261 Fe243 2.002 . S
O261 C257 1.295 . S
O262 Fe245 1.997 . S
O262 C257 1.235 . S
C263 O246 1.295 . S
C263 O247 1.235 . S
H264 C270 0.930 . S
H265 C273 0.930 . S
H266 C274 0.930 1_545 S
H267 C275 0.930 . S
H268 C278 0.930 . S
H269 C279 0.930 . S
C270 H264 0.930 . S
C270 C271 1.355 . S
C270 C272 1.415 . S
C271 C270 1.355 . S
C271 C273 1.419 . S
C272 C270 1.415 . S
C272 C277 1.425 1_565 S
C272 C279 1.409 . S
C273 H265 0.930 . S
C273 C271 1.419 . S
C273 C274 1.362 . S
C274 H266 0.930 1_565 S
C274 C273 1.362 . S
C274 C277 1.409 1_565 S
C275 H267 0.930 . S
C275 C276 1.355 . S
C275 C277 1.415 . S
C276 C275 1.355 . S
C276 C278 1.419 . S
C277 C272 1.425 1_545 S
C277 C274 1.409 1_545 S
C277 C275 1.415 . S
C278 H268 0.930 . S
C278 C276 1.419 . S
C278 C279 1.362 1_545 S
C279 H269 0.930 . S
C279 C272 1.409 . S
C279 C278 1.362 1_565 S
H280 C286 0.930 . S
H281 C289 0.930 . S
H282 C290 0.930 . S
H283 C291 0.930 . S
H284 C294 0.930 . S
H285 C295 0.930 . S
C286 H280 0.930 . S
C286 C287 1.355 . S
C286 C288 1.415 . S
C287 C286 1.355 . S
C287 C289 1.419 . S
C288 C286 1.415 . S
C288 C293 1.425 . S
C288 C295 1.409 . S
C289 H281 0.930 . S
C289 C287 1.419 . S
C289 C290 1.362 . S
C290 H282 0.930 . S
C290 C289 1.362 . S
C290 C293 1.409 . S
C291 H283 0.930 . S
C291 C292 1.355 . S
C291 C293 1.415 . S
C292 C291 1.355 . S
C292 C294 1.419 . S
C293 C288 1.425 . S
C293 C290 1.409 . S
C293 C291 1.415 . S
C294 H284 0.930 . S
C294 C292 1.419 . S
C294 C295 1.362 . S
C295 H285 0.930 . S
C295 C288 1.409 . S
C295 C294 1.362 . S
H296 C302 0.930 . S
H297 C305 0.930 . S
H298 C306 0.930 . S
H299 C307 0.930 . S
H300 C310 0.930 . S
H301 C311 0.930 . S
C302 H296 0.930 . S
C302 C303 1.355 . S
C302 C304 1.415 . S
C303 C302 1.355 . S
C303 C305 1.419 . S
C304 C302 1.415 . S
C304 C309 1.425 1_655 S
C304 C311 1.409 . S
C305 H297 0.930 . S
C305 C303 1.419 . S
C305 C306 1.362 1_655 S
C306 H298 0.930 . S
C306 C305 1.362 1_455 S
C306 C309 1.409 . S
C307 H299 0.930 . S
C307 C308 1.355 . S
C307 C309 1.415 . S
C308 C307 1.355 . S
C308 C310 1.419 . S
C309 C304 1.425 1_455 S
C309 C306 1.409 . S
C309 C307 1.415 . S
C310 H300 0.930 . S
C310 C308 1.419 . S
C310 C311 1.362 1_455 S
C311 H301 0.930 . S
C311 C304 1.409 . S
C311 C310 1.362 1_655 S
H312 C318 0.930 . S
H313 C321 0.930 . S
H314 C322 0.930 . S
H315 C323 0.926 1_545 S
H316 C326 0.930 . S
H317 C327 0.930 . S
C318 H312 0.930 . S
C318 C319 1.355 . S
C318 C320 1.414 . S
C319 C318 1.355 . S
C319 C321 1.419 . S
C320 C318 1.414 . S
C320 C325 1.425 . S
C320 C327 1.410 1_545 S
C321 H313 0.930 . S
C321 C319 1.419 . S
C321 C322 1.362 . S
C322 H314 0.930 . S
C322 C321 1.362 . S
C322 C325 1.409 . S
C323 H315 0.926 1_565 S
C323 C324 1.355 . S
C323 C325 1.415 1_565 S
C324 C323 1.355 . S
C324 C326 1.419 . S
C325 C320 1.425 . S
C325 C322 1.409 . S
C325 C323 1.415 1_545 S
C326 H316 0.930 . S
C326 C324 1.419 . S
C326 C327 1.362 . S
C327 H317 0.930 . S
C327 C320 1.410 1_565 S
C327 C326 1.362 . S
H328 C334 0.930 . S
H329 C337 0.930 . S
H330 C338 0.930 . S
H331 C339 0.930 . S
H332 C342 0.930 . S
H333 C343 0.930 . S
C334 H328 0.930 . S
C334 C335 1.355 . S
C334 C336 1.415 . S
C335 C334 1.355 . S
C335 C337 1.419 . S
C336 C334 1.415 . S
C336 C341 1.425 . S
C336 C343 1.409 . S
C337 H329 0.930 . S
C337 C335 1.419 . S
C337 C338 1.362 . S
C338 H330 0.930 . S
C338 C337 1.362 . S
C338 C341 1.409 . S
C339 H331 0.930 . S
C339 C340 1.355 . S
C339 C341 1.415 . S
C340 C339 1.355 . S
C340 C342 1.419 . S
C341 C336 1.425 . S
C341 C338 1.409 . S
C341 C339 1.415 . S
C342 H332 0.930 . S
C342 C340 1.419 . S
C342 C343 1.362 . S
C343 H333 0.930 . S
C343 C336 1.409 . S
C343 C342 1.362 . S
H344 C350 0.930 . S
H345 C353 0.930 1_655 S
H346 C354 0.930 . S
H347 C355 0.930 . S
H348 C358 0.930 . S
H349 C359 0.930 . S
C350 H344 0.930 . S
C350 C351 1.355 . S
C350 C352 1.415 . S
C351 C350 1.355 . S
C351 C353 1.419 . S
C352 C350 1.415 . S
C352 C357 1.425 1_455 S
C352 C359 1.409 . S
C353 H345 0.930 1_455 S
C353 C351 1.419 . S
C353 C354 1.362 1_455 S
C354 H346 0.930 . S
C354 C353 1.362 1_655 S
C354 C357 1.409 . S
C355 H347 0.930 . S
C355 C356 1.355 . S
C355 C357 1.415 . S
C356 C355 1.355 . S
C356 C358 1.419 . S
C357 C352 1.425 1_655 S
C357 C354 1.409 . S
C357 C355 1.415 . S
C358 H348 0.930 . S
C358 C356 1.419 . S
C358 C359 1.362 1_655 S
C359 H349 0.930 . S
C359 C352 1.409 . S
C359 C358 1.362 1_455 S
H360 C366 0.930 . S
H361 C369 0.930 . S
H362 C370 0.930 . S
H363 C371 0.930 1_455 S
H364 C374 0.930 . S
H365 C375 0.930 . S
C366 H360 0.930 . S
C366 C367 1.355 . S
C366 C368 1.415 1_455 S
C367 C366 1.355 . S
C367 C369 1.419 . S
C368 C366 1.415 1_655 S
C368 C373 1.425 1_655 S
C368 C375 1.409 . S
C369 H361 0.930 . S
C369 C367 1.419 . S
C369 C370 1.362 . S
C370 H362 0.930 . S
C370 C369 1.362 . S
C370 C373 1.409 . S
C371 H363 0.930 1_655 S
C371 C372 1.355 . S
C371 C373 1.415 1_655 S
C372 C371 1.355 . S
C372 C374 1.419 . S
C373 C368 1.425 1_455 S
C373 C370 1.409 . S
C373 C371 1.415 1_455 S
C374 H364 0.930 . S
C374 C372 1.419 . S
C374 C375 1.362 . S
C375 H365 0.930 . S
C375 C368 1.409 . S
C375 C374 1.362 . S
H376 C382 0.930 . S
H377 C385 0.930 . S
H378 C386 0.930 . S
H379 C387 0.930 . S
H380 C390 0.930 . S
H381 C391 0.930 . S
C382 H376 0.930 . S
C382 C383 1.355 . S
C382 C384 1.415 1_565 S
C383 C382 1.355 . S
C383 C385 1.419 . S
C384 C382 1.415 1_545 S
C384 C389 1.425 . S
C384 C391 1.409 . S
C385 H377 0.930 . S
C385 C383 1.419 . S
C385 C386 1.362 . S
C386 H378 0.930 . S
C386 C385 1.362 . S
C386 C389 1.409 1_565 S
C387 H379 0.930 . S
C387 C388 1.355 . S
C387 C389 1.415 . S
C388 C387 1.355 . S
C388 C390 1.419 . S
C389 C384 1.425 . S
C389 C386 1.409 1_545 S
C389 C387 1.415 . S
C390 H380 0.930 . S
C390 C388 1.419 . S
C390 C391 1.362 . S
C391 H381 0.930 . S
C391 C384 1.409 . S
C391 C390 1.362 . S
H392 C398 0.930 . S
H393 C401 0.930 . S
H394 C402 0.930 . S
H395 C403 0.930 . S
H396 C406 0.930 . S
H397 C407 0.930 . S
C398 H392 0.930 . S
C398 C399 1.355 . S
C398 C400 1.415 . S
C399 C398 1.355 . S
C399 C401 1.419 . S
C400 C398 1.415 . S
C400 C405 1.425 . S
C400 C407 1.409 . S
C401 H393 0.930 . S
C401 C399 1.419 . S
C401 C402 1.362 . S
C402 H394 0.930 . S
C402 C401 1.362 . S
C402 C405 1.409 . S
C403 H395 0.930 . S
C403 C404 1.355 . S
C403 C405 1.415 . S
C404 C403 1.355 . S
C404 C406 1.419 . S
C405 C400 1.425 . S
C405 C402 1.409 . S
C405 C403 1.415 . S
C406 H396 0.930 . S
C406 C404 1.419 . S
C406 C407 1.362 . S
C407 H397 0.930 . S
C407 C400 1.409 . S
C407 C406 1.362 . S
H408 C414 0.930 . S
H409 C417 0.930 . S
H410 C418 0.930 . S
H411 C419 0.930 . S
H412 C422 0.968 . S
H413 C423 0.930 . S
C414 H408 0.930 . S
C414 C415 1.355 . S
C414 C416 1.415 . S
C415 C414 1.355 . S
C415 C417 1.419 . S
C416 C414 1.415 . S
C416 C421 1.425 1_655 S
C416 C423 1.409 . S
C417 H409 0.930 . S
C417 C415 1.419 . S
C417 C418 1.362 1_655 S
C418 H410 0.930 . S
C418 C417 1.362 1_455 S
C418 C421 1.409 . S
C419 H411 0.930 . S
C419 C420 1.355 . S
C419 C421 1.415 . S
C420 C419 1.355 . S
C420 C422 1.419 . S
C421 C416 1.425 1_455 S
C421 C418 1.409 . S
C421 C419 1.415 . S
C422 H412 0.968 . S
C422 C420 1.419 . S
C422 C423 1.362 1_455 S
C423 H413 0.930 . S
C423 C416 1.409 . S
C423 C422 1.362 1_655 S
H424 C430 0.930 . S
H425 C433 0.930 . S
H426 C434 0.930 . S
H427 C435 0.930 . S
H428 C438 0.930 1_565 S
H429 C439 0.930 . S
C430 H424 0.930 . S
C430 C431 1.355 . S
C430 C432 1.415 . S
C431 C430 1.355 . S
C431 C433 1.419 . S
C432 C430 1.415 . S
C432 C437 1.425 1_565 S
C432 C439 1.409 . S
C433 H425 0.930 . S
C433 C431 1.419 . S
C433 C434 1.362 1_565 S
C434 H426 0.930 . S
C434 C433 1.362 1_545 S
C434 C437 1.409 . S
C435 H427 0.930 . S
C435 C436 1.355 . S
C435 C437 1.415 . S
C436 C435 1.355 . S
C436 C438 1.419 . S
C437 C432 1.425 1_545 S
C437 C434 1.409 . S
C437 C435 1.415 . S
C438 H428 0.930 1_545 S
C438 C436 1.419 . S
C438 C439 1.362 1_545 S
C439 H429 0.930 . S
C439 C432 1.409 . S
C439 C438 1.362 1_565 S
H440 C446 0.930 . S
H441 C449 0.930 . S
H442 C450 0.930 . S
H443 C451 0.930 . S
H444 C454 0.930 . S
H445 C455 0.930 . S
C446 H440 0.930 . S
C446 C447 1.355 . S
C446 C448 1.415 . S
C447 C446 1.355 . S
C447 C449 1.419 . S
C448 C446 1.415 . S
C448 C453 1.425 . S
C448 C455 1.409 . S
C449 H441 0.930 . S
C449 C447 1.419 . S
C449 C450 1.362 . S
C450 H442 0.930 . S
C450 C449 1.362 . S
C450 C453 1.409 . S
C451 H443 0.930 . S
C451 C452 1.355 . S
C451 C453 1.415 . S
C452 C451 1.355 . S
C452 C454 1.419 . S
C453 C448 1.425 . S
C453 C450 1.409 . S
C453 C451 1.415 . S
C454 H444 0.930 . S
C454 C452 1.419 . S
C454 C455 1.362 . S
C455 H445 0.930 . S
C455 C448 1.409 . S
C455 C454 1.362 . S
H456 C462 0.930 . S
H457 C465 0.930 . S
H458 C466 0.930 . S
H459 C467 0.930 . S
H460 C470 0.930 . S
H461 C471 0.930 . S
C462 H456 0.930 . S
C462 C463 1.355 . S
C462 C464 1.415 . S
C463 C462 1.355 . S
C463 C465 1.419 . S
C464 C462 1.415 . S
C464 C469 1.425 . S
C464 C471 1.409 1_565 S
C465 H457 0.930 . S
C465 C463 1.419 . S
C465 C466 1.362 . S
C466 H458 0.930 . S
C466 C465 1.362 . S
C466 C469 1.409 . S
C467 H459 0.930 . S
C467 C468 1.355 . S
C467 C469 1.415 1_545 S
C468 C467 1.355 . S
C468 C470 1.419 . S
C469 C464 1.425 . S
C469 C466 1.409 . S
C469 C467 1.415 1_565 S
C470 H460 0.930 . S
C470 C468 1.419 . S
C470 C471 1.362 . S
C471 H461 0.930 . S
C471 C464 1.409 1_545 S
C471 C470 1.362 . S
H472 C478 0.930 . S
H473 C481 0.930 . S
H474 C482 0.930 . S
H475 C483 0.930 . S
H476 C486 0.930 . S
H477 C487 0.930 . S
C478 H472 0.930 . S
C478 C479 1.355 . S
C478 C480 1.415 . S
C479 C478 1.355 . S
C479 C481 1.419 . S
C480 C478 1.415 . S
C480 C485 1.425 . S
C480 C487 1.409 . S
C481 H473 0.930 . S
C481 C479 1.419 . S
C481 C482 1.362 . S
C482 H474 0.930 . S
C482 C481 1.362 . S
C482 C485 1.409 . S
C483 H475 0.930 . S
C483 C484 1.355 . S
C483 C485 1.415 . S
C484 C483 1.355 . S
C484 C486 1.419 . S
C485 C480 1.425 . S
C485 C482 1.409 . S
C485 C483 1.415 . S
C486 H476 0.930 . S
C486 C484 1.419 . S
C486 C487 1.362 . S
C487 H477 0.930 . S
C487 C480 1.409 . S
C487 C486 1.362 . S
H488 C494 0.930 . S
H489 C497 0.930 . S
H490 C498 0.930 . S
H491 C499 0.930 . S
H492 C502 0.930 . S
H493 C503 0.930 . S
C494 H488 0.930 . S
C494 C495 1.355 . S
C494 C496 1.415 . S
C495 C494 1.355 . S
C495 C497 1.419 . S
C496 C494 1.415 . S
C496 C501 1.425 . S
C496 C503 1.409 . S
C497 H489 0.930 . S
C497 C495 1.419 . S
C497 C498 1.362 . S
C498 H490 0.930 . S
C498 C497 1.362 . S
C498 C501 1.409 . S
C499 H491 0.930 . S
C499 C500 1.355 . S
C499 C501 1.415 1_655 S
C500 C499 1.355 . S
C500 C502 1.419 . S
C501 C496 1.425 . S
C501 C498 1.409 . S
C501 C499 1.415 1_455 S
C502 H492 0.930 . S
C502 C500 1.419 . S
C502 C503 1.362 1_655 S
C503 H493 0.930 . S
C503 C496 1.409 . S
C503 C502 1.362 1_455 S
H504 C510 0.930 . S
H505 C513 0.930 . S
H506 C514 0.930 . S
H507 C515 0.930 . S
H508 C518 0.930 . S
H509 C519 0.930 . S
C510 H504 0.930 . S
C510 C511 1.355 . S
C510 C512 1.415 . S
C511 C510 1.355 . S
C511 C513 1.419 . S
C512 C510 1.415 . S
C512 C517 1.425 . S
C512 C519 1.409 . S
C513 H505 0.930 . S
C513 C511 1.419 . S
C513 C514 1.362 . S
C514 H506 0.930 . S
C514 C513 1.362 . S
C514 C517 1.409 . S
C515 H507 0.930 . S
C515 C516 1.355 . S
C515 C517 1.415 1_565 S
C516 C515 1.355 . S
C516 C518 1.419 . S
C517 C512 1.425 . S
C517 C514 1.409 . S
C517 C515 1.415 1_545 S
C518 H508 0.930 . S
C518 C516 1.419 . S
C518 C519 1.362 1_565 S
C519 H509 0.930 . S
C519 C512 1.409 . S
C519 C518 1.362 1_545 S
H520 C526 0.930 . S
H521 C529 0.930 . S
H522 C530 0.930 . S
H523 C531 0.930 . S
H524 C534 0.930 . S
H525 C535 0.930 . S
C526 H520 0.930 . S
C526 C527 1.355 1_554 S
C526 C528 1.415 . S
C527 C526 1.355 1_556 S
C527 C529 1.419 . S
C528 C526 1.415 . S
C528 C533 1.425 . S
C528 C535 1.409 . S
C529 H521 0.930 . S
C529 C527 1.419 . S
C529 C530 1.362 . S
C530 H522 0.930 . S
C530 C529 1.362 . S
C530 C533 1.409 1_556 S
C531 H523 0.930 . S
C531 C532 1.355 . S
C531 C533 1.415 . S
C532 C531 1.355 . S
C532 C534 1.419 . S
C533 C528 1.425 . S
C533 C530 1.409 1_554 S
C533 C531 1.415 . S
C534 H524 0.930 . S
C534 C532 1.419 . S
C534 C535 1.362 . S
C535 H525 0.930 . S
C535 C528 1.409 . S
C535 C534 1.362 . S
H536 C542 0.930 . S
H537 C545 0.930 . S
H538 C546 0.930 . S
H539 C547 0.930 1_455 S
H540 C550 0.930 . S
H541 C551 0.930 . S
C542 H536 0.930 . S
C542 C543 1.355 1_655 S
C542 C544 1.415 . S
C543 C542 1.355 1_455 S
C543 C545 1.419 . S
C544 C542 1.415 . S
C544 C549 1.425 . S
C544 C551 1.409 . S
C545 H537 0.930 . S
C545 C543 1.419 . S
C545 C546 1.362 . S
C546 H538 0.930 . S
C546 C545 1.362 . S
C546 C549 1.409 1_455 S
C547 H539 0.930 1_655 S
C547 C548 1.355 . S
C547 C549 1.415 . S
C548 C547 1.355 . S
C548 C550 1.419 . S
C549 C544 1.425 . S
C549 C546 1.409 1_655 S
C549 C547 1.415 . S
C550 H540 0.930 . S
C550 C548 1.419 . S
C550 C551 1.362 . S
C551 H541 0.930 . S
C551 C544 1.409 . S
C551 C550 1.362 . S
H552 C558 0.930 . S
H553 C561 0.930 . S
H554 C562 0.930 . S
H555 C563 0.930 . S
H556 C566 0.930 . S
H557 C567 0.930 . S
C558 H552 0.930 . S
C558 C559 1.355 1_455 S
C558 C560 1.415 . S
C559 C558 1.355 1_655 S
C559 C561 1.419 . S
C560 C558 1.415 . S
C560 C565 1.425 . S
C560 C567 1.409 . S
C561 H553 0.930 . S
C561 C559 1.419 . S
C561 C562 1.362 . S
C562 H554 0.930 . S
C562 C561 1.362 . S
C562 C565 1.409 1_655 S
C563 H555 0.930 . S
C563 C564 1.355 . S
C563 C565 1.415 . S
C564 C563 1.355 . S
C564 C566 1.419 . S
C565 C560 1.425 . S
C565 C562 1.409 1_455 S
C565 C563 1.415 . S
C566 H556 0.930 . S
C566 C564 1.419 . S
C566 C567 1.362 . S
C567 H557 0.930 . S
C567 C560 1.409 . S
C567 C566 1.362 . S
H568 C574 0.930 . S
H569 C577 0.930 . S
H570 C578 0.930 . S
H571 C579 0.930 . S
H572 C582 0.930 . S
H573 C583 0.930 . S
C574 H568 0.930 . S
C574 C575 1.355 1_545 S
C574 C576 1.415 . S
C575 C574 1.355 1_565 S
C575 C577 1.419 . S
C576 C574 1.415 . S
C576 C581 1.425 . S
C576 C583 1.409 . S
C577 H569 0.930 . S
C577 C575 1.419 . S
C577 C578 1.362 . S
C578 H570 0.930 . S
C578 C577 1.362 . S
C578 C581 1.409 1_565 S
C579 H571 0.930 . S
C579 C580 1.355 . S
C579 C581 1.415 . S
C580 C579 1.355 . S
C580 C582 1.419 . S
C581 C576 1.425 . S
C581 C578 1.409 1_545 S
C581 C579 1.415 . S
C582 H572 0.930 . S
C582 C580 1.419 . S
C582 C583 1.362 . S
C583 H573 0.930 . S
C583 C576 1.409 . S
C583 C582 1.362 . S
H584 C590 0.930 . S
H585 C593 0.930 . S
H586 C594 0.930 . S
H587 C595 0.930 . S
H588 C598 0.930 . S
H589 C599 0.930 . S
C590 H584 0.930 . S
C590 C591 1.355 . S
C590 C592 1.415 . S
C591 C590 1.355 . S
C591 C593 1.419 . S
C592 C590 1.415 . S
C592 C597 1.425 . S
C592 C599 1.409 . S
C593 H585 0.930 . S
C593 C591 1.419 . S
C593 C594 1.362 . S
C594 H586 0.930 . S
C594 C593 1.362 . S
C594 C597 1.409 . S
C595 H587 0.930 . S
C595 C596 1.355 . S
C595 C597 1.415 . S
C596 C595 1.355 . S
C596 C598 1.419 . S
C597 C592 1.425 . S
C597 C594 1.409 . S
C597 C595 1.415 . S
C598 H588 0.930 . S
C598 C596 1.419 . S
C598 C599 1.362 . S
C599 H589 0.930 . S
C599 C592 1.409 . S
C599 C598 1.362 . S
H600 C606 0.930 . S
H601 C609 0.930 . S
H602 C610 0.930 . S
H603 C611 0.930 . S
H604 C614 0.930 . S
H605 C615 0.930 . S
C606 H600 0.930 . S
C606 C607 1.355 1_556 S
C606 C608 1.415 . S
C607 C606 1.355 1_554 S
C607 C609 1.419 . S
C608 C606 1.415 . S
C608 C613 1.425 . S
C608 C615 1.409 . S
C609 H601 0.930 . S
C609 C607 1.419 . S
C609 C610 1.362 . S
C610 H602 0.930 . S
C610 C609 1.362 . S
C610 C613 1.409 1_554 S
C611 H603 0.930 . S
C611 C612 1.355 . S
C611 C613 1.415 1_455 S
C612 C611 1.355 . S
C612 C614 1.419 . S
C613 C608 1.425 . S
C613 C610 1.409 1_556 S
C613 C611 1.415 1_655 S
C614 H604 0.930 . S
C614 C612 1.419 . S
C614 C615 1.362 1_455 S
C615 H605 0.930 . S
C615 C608 1.409 . S
C615 C614 1.362 1_655 S
H616 C622 0.930 . S
H617 C625 0.930 . S
H618 C626 0.930 . S
H619 C627 0.930 1_545 S
H620 C630 0.930 . S
H621 C631 0.930 . S
C622 H616 0.930 . S
C622 C623 1.355 1_565 S
C622 C624 1.415 . S
C623 C622 1.355 1_545 S
C623 C625 1.419 . S
C624 C622 1.415 . S
C624 C629 1.439 . S
C624 C631 1.409 . S
C625 H617 0.930 . S
C625 C623 1.419 . S
C625 C626 1.362 . S
C626 H618 0.930 . S
C626 C625 1.362 . S
C626 C629 1.399 1_545 S
C627 H619 0.930 1_565 S
C627 C628 1.355 . S
C627 C629 1.412 . S
C628 C627 1.355 . S
C628 C630 1.419 . S
C629 C624 1.439 . S
C629 C626 1.399 1_565 S
C629 C627 1.412 . S
C630 H620 0.930 . S
C630 C628 1.419 . S
C630 C631 1.362 . S
C631 H621 0.930 . S
C631 C624 1.409 . S
C631 C630 1.362 . S
H632 C638 0.930 . S
H633 C641 0.930 . S
H634 C642 0.930 . S
H635 C643 0.930 . S
H636 C646 0.930 . S
H637 C647 0.930 . S
C638 H632 0.930 . S
C638 C639 1.355 . S
C638 C640 1.415 . S
C639 C638 1.355 . S
C639 C641 1.419 . S
C640 C638 1.415 . S
C640 C645 1.425 . S
C640 C647 1.409 . S
C641 H633 0.930 . S
C641 C639 1.419 . S
C641 C642 1.362 . S
C642 H634 0.930 . S
C642 C641 1.362 . S
C642 C645 1.409 . S
C643 H635 0.930 . S
C643 C644 1.355 . S
C643 C645 1.415 . S
C644 C643 1.355 . S
C644 C646 1.419 . S
C645 C640 1.425 . S
C645 C642 1.409 . S
C645 C643 1.415 . S
C646 H636 0.930 . S
C646 C644 1.419 . S
C646 C647 1.362 . S
C647 H637 0.930 . S
C647 C640 1.409 . S
C647 C646 1.362 . S
H648 C654 0.930 1_655 S
H649 C657 0.930 . S
H650 C658 0.930 . S
H651 C659 0.930 . S
H652 C662 0.930 1_545 S
H653 C663 0.930 . S
C654 H648 0.930 1_455 S
C654 C655 1.355 . S
C654 C656 1.415 . S
C655 C654 1.355 . S
C655 C657 1.419 . S
C656 C654 1.415 . S
C656 C661 1.425 . S
C656 C663 1.409 . S
C657 H649 0.930 . S
C657 C655 1.419 . S
C657 C658 1.362 . S
C658 H650 0.930 . S
C658 C657 1.362 . S
C658 C661 1.409 . S
C659 H651 0.930 . S
C659 C660 1.355 . S
C659 C661 1.415 . S
C660 C659 1.355 . S
C660 C662 1.419 . S
C661 C656 1.425 . S
C661 C658 1.409 . S
C661 C659 1.415 . S
C662 H652 0.930 1_565 S
C662 C660 1.419 . S
C662 C663 1.362 . S
C663 H653 0.930 . S
C663 C656 1.409 . S
C663 C662 1.362 . S
H664 C670 0.930 . S
H665 C673 0.930 . S
H666 C674 0.930 . S
H667 C675 0.930 . S
H668 C678 0.930 . S
H669 C679 0.930 . S
C670 H664 0.930 . S
C670 C671 1.355 . S
C670 C672 1.415 . S
C671 C670 1.355 . S
C671 C673 1.419 . S
C672 C670 1.415 . S
C672 C677 1.425 . S
C672 C679 1.409 . S
C673 H665 0.930 . S
C673 C671 1.419 . S
C673 C674 1.362 . S
C674 H666 0.930 . S
C674 C673 1.362 . S
C674 C677 1.409 . S
C675 H667 0.930 . S
C675 C676 1.355 . S
C675 C677 1.415 . S
C676 C675 1.355 . S
C676 C678 1.419 1_545 S
C677 C672 1.425 . S
C677 C674 1.409 . S
C677 C675 1.415 . S
C678 H668 0.930 . S
C678 C676 1.419 1_565 S
C678 C679 1.362 1_565 S
C679 H669 0.930 . S
C679 C672 1.409 . S
C679 C678 1.362 1_545 S
H680 C686 0.930 . S
H681 C689 0.930 . S
H682 C690 0.930 . S
H683 C691 0.930 . S
H684 C694 0.930 . S
H685 C695 0.930 . S
C686 H680 0.930 . S
C686 C687 1.355 . S
C686 C688 1.415 . S
C687 C686 1.355 . S
C687 C689 1.419 . S
C688 C686 1.415 . S
C688 C693 1.425 . S
C688 C695 1.409 . S
C689 H681 0.930 . S
C689 C687 1.419 . S
C689 C690 1.362 . S
C690 H682 0.930 . S
C690 C689 1.362 . S
C690 C693 1.409 . S
C691 H683 0.930 . S
C691 C692 1.355 . S
C691 C693 1.415 . S
C692 C691 1.355 . S
C692 C694 1.419 . S
C693 C688 1.425 . S
C693 C690 1.409 . S
C693 C691 1.415 . S
C694 H684 0.930 . S
C694 C692 1.419 . S
C694 C695 1.362 . S
C695 H685 0.930 . S
C695 C688 1.409 . S
C695 C694 1.362 . S
H696 C702 0.930 1_565 S
H697 C705 0.930 . S
H698 C706 0.930 . S
H699 C707 0.930 . S
H700 C710 0.930 1_455 S
H701 C711 0.930 . S
C702 H696 0.930 1_545 S
C702 C703 1.355 . S
C702 C704 1.415 . S
C703 C702 1.355 . S
C703 C705 1.419 . S
C704 C702 1.415 . S
C704 C709 1.425 . S
C704 C711 1.409 . S
C705 H697 0.930 . S
C705 C703 1.419 . S
C705 C706 1.362 . S
C706 H698 0.930 . S
C706 C705 1.362 . S
C706 C709 1.409 . S
C707 H699 0.930 . S
C707 C708 1.355 . S
C707 C709 1.415 . S
C708 C707 1.355 . S
C708 C710 1.419 . S
C709 C704 1.425 . S
C709 C706 1.409 . S
C709 C707 1.415 . S
C710 H700 0.930 1_655 S
C710 C708 1.419 . S
C710 C711 1.362 . S
C711 H701 0.930 . S
C711 C704 1.409 . S
C711 C710 1.362 . S
H712 C718 0.930 1_545 S
H713 C721 0.930 . S
H714 C722 0.930 . S
H715 C723 0.930 . S
H716 C726 0.930 . S
H717 C727 0.930 . S
C718 H712 0.930 1_565 S
C718 C719 1.355 . S
C718 C720 1.415 . S
C719 C718 1.355 . S
C719 C721 1.419 . S
C720 C718 1.415 . S
C720 C725 1.425 . S
C720 C727 1.409 . S
C721 H713 0.930 . S
C721 C719 1.419 . S
C721 C722 1.362 . S
C722 H714 0.930 . S
C722 C721 1.362 . S
C722 C725 1.409 . S
C723 H715 0.930 . S
C723 C724 1.355 . S
C723 C725 1.415 . S
C724 C723 1.355 . S
C724 C726 1.419 . S
C725 C720 1.425 . S
C725 C722 1.409 . S
C725 C723 1.415 . S
C726 H716 0.930 . S
C726 C724 1.419 . S
C726 C727 1.362 . S
C727 H717 0.930 . S
C727 C720 1.409 . S
C727 C726 1.362 . S
H728 C734 0.930 . S
H729 C737 0.930 . S
H730 C738 0.930 . S
H731 C739 0.930 . S
H732 C742 0.930 1_455 S
H733 C743 0.930 . S
C734 H728 0.930 . S
C734 C735 1.355 . S
C734 C736 1.415 . S
C735 C734 1.355 . S
C735 C737 1.419 . S
C736 C734 1.415 . S
C736 C741 1.425 . S
C736 C743 1.409 . S
C737 H729 0.930 . S
C737 C735 1.419 . S
C737 C738 1.362 . S
C738 H730 0.930 . S
C738 C737 1.362 . S
C738 C741 1.409 . S
C739 H731 0.930 . S
C739 C740 1.355 . S
C739 C741 1.415 . S
C740 C739 1.355 . S
C740 C742 1.419 . S
C741 C736 1.425 . S
C741 C738 1.409 . S
C741 C739 1.415 . S
C742 H732 0.930 1_655 S
C742 C740 1.419 . S
C742 C743 1.362 . S
C743 H733 0.930 . S
C743 C736 1.409 . S
C743 C742 1.362 . S
H744 C750 0.930 . S
H745 C753 0.930 . S
H746 C754 0.930 . S
H747 C755 0.930 . S
H748 C758 0.930 . S
H749 C759 0.930 . S
C750 H744 0.930 . S
C750 C751 1.355 . S
C750 C752 1.415 . S
C751 C750 1.355 . S
C751 C753 1.419 . S
C752 C750 1.415 . S
C752 C757 1.425 . S
C752 C759 1.409 . S
C753 H745 0.930 . S
C753 C751 1.419 . S
C753 C754 1.362 . S
C754 H746 0.930 . S
C754 C753 1.362 . S
C754 C757 1.409 . S
C755 H747 0.930 . S
C755 C756 1.355 . S
C755 C757 1.415 . S
C756 C755 1.355 . S
C756 C758 1.419 . S
C757 C752 1.425 . S
C757 C754 1.409 . S
C757 C755 1.415 . S
C758 H748 0.930 . S
C758 C756 1.419 . S
C758 C759 1.362 . S
C759 H749 0.930 . S
C759 C752 1.409 . S
C759 C758 1.362 . S
H760 C766 0.930 . S
H761 C769 0.930 . S
H762 C770 0.930 . S
H763 C771 0.930 . S
H764 C774 0.930 . S
H765 C775 0.930 . S
C766 H760 0.930 . S
C766 C767 1.355 . S
C766 C768 1.415 . S
C767 C766 1.355 . S
C767 C769 1.419 . S
C768 C766 1.415 . S
C768 C773 1.425 . S
C768 C775 1.409 . S
C769 H761 0.930 . S
C769 C767 1.419 . S
C769 C770 1.362 . S
C770 H762 0.930 . S
C770 C769 1.362 . S
C770 C773 1.409 . S
C771 H763 0.930 . S
C771 C772 1.355 . S
C771 C773 1.415 . S
C772 C771 1.355 . S
C772 C774 1.419 . S
C773 C768 1.425 . S
C773 C770 1.409 . S
C773 C771 1.415 . S
C774 H764 0.930 . S
C774 C772 1.419 . S
C774 C775 1.362 . S
C775 H765 0.930 . S
C775 C768 1.409 . S
C775 C774 1.362 . S
H776 C782 0.930 . S
H777 C785 0.930 . S
H778 C786 0.930 . S
H779 C787 0.930 . S
H780 C790 0.930 . S
H781 C791 0.930 . S
C782 H776 0.930 . S
C782 C783 1.355 . S
C782 C784 1.415 . S
C783 C782 1.355 . S
C783 C785 1.419 . S
C784 C782 1.415 . S
C784 C789 1.425 . S
C784 C791 1.409 . S
C785 H777 0.930 . S
C785 C783 1.419 . S
C785 C786 1.362 . S
C786 H778 0.930 . S
C786 C785 1.362 . S
C786 C789 1.409 . S
C787 H779 0.930 . S
C787 C788 1.355 . S
C787 C789 1.415 . S
C788 C787 1.355 . S
C788 C790 1.419 . S
C789 C784 1.425 . S
C789 C786 1.409 . S
C789 C787 1.415 . S
C790 H780 0.930 . S
C790 C788 1.419 . S
C790 C791 1.362 . S
C791 H781 0.930 . S
C791 C784 1.409 . S
C791 C790 1.362 . S
H792 C798 0.930 . S
H793 C801 0.930 . S
H794 C802 0.930 . S
H795 C803 0.930 . S
H796 C806 0.930 . S
H797 C807 0.930 . S
C798 H792 0.930 . S
C798 C799 1.355 . S
C798 C800 1.415 . S
C799 C798 1.355 . S
C799 C801 1.419 . S
C800 C798 1.415 . S
C800 C805 1.425 . S
C800 C807 1.409 . S
C801 H793 0.930 . S
C801 C799 1.419 . S
C801 C802 1.362 . S
C802 H794 0.930 . S
C802 C801 1.362 . S
C802 C805 1.409 . S
C803 H795 0.930 . S
C803 C804 1.355 . S
C803 C805 1.415 . S
C804 C803 1.355 . S
C804 C806 1.419 . S
C805 C800 1.425 . S
C805 C802 1.409 . S
C805 C803 1.415 . S
C806 H796 0.930 . S
C806 C804 1.419 . S
C806 C807 1.362 . S
C807 H797 0.930 . S
C807 C800 1.409 . S
C807 C806 1.362 . S
H808 C814 0.930 . S
H809 C817 0.930 . S
H810 C818 0.930 . S
H811 C819 0.930 . S
H812 C822 0.930 . S
H813 C823 0.930 . S
C814 H808 0.930 . S
C814 C815 1.355 . S
C814 C816 1.415 . S
C815 C814 1.355 . S
C815 C817 1.419 . S
C816 C814 1.415 . S
C816 C821 1.425 . S
C816 C823 1.409 . S
C817 H809 0.930 . S
C817 C815 1.419 . S
C817 C818 1.362 . S
C818 H810 0.930 . S
C818 C817 1.362 . S
C818 C821 1.409 . S
C819 H811 0.930 . S
C819 C820 1.355 . S
C819 C821 1.415 . S
C820 C819 1.355 . S
C820 C822 1.419 . S
C821 C816 1.425 . S
C821 C818 1.409 . S
C821 C819 1.415 . S
C822 H812 0.930 . S
C822 C820 1.419 . S
C822 C823 1.362 . S
C823 H813 0.930 . S
C823 C816 1.409 . S
C823 C822 1.362 . S
H824 C830 0.930 . S
H825 C833 0.930 . S
H826 C834 0.930 . S
H827 C835 0.930 . S
H828 C838 0.930 . S
H829 C839 0.930 . S
C830 H824 0.930 . S
C830 C831 1.355 . S
C830 C832 1.415 . S
C831 C830 1.355 . S
C831 C833 1.419 . S
C832 C830 1.415 . S
C832 C837 1.425 . S
C832 C839 1.409 . S
C833 H825 0.930 . S
C833 C831 1.419 . S
C833 C834 1.362 . S
C834 H826 0.930 . S
C834 C833 1.362 . S
C834 C837 1.409 . S
C835 H827 0.930 . S
C835 C836 1.355 . S
C835 C837 1.415 . S
C836 C835 1.355 . S
C836 C838 1.419 . S
C837 C832 1.425 . S
C837 C834 1.409 . S
C837 C835 1.415 . S
C838 H828 0.930 . S
C838 C836 1.419 . S
C838 C839 1.362 . S
C839 H829 0.930 . S
C839 C832 1.409 . S
C839 C838 1.362 . S
C271 C117 1.134 . S
C276 C18 1.105 . S
C287 C32 1.124 . S
C292 C15 1.140 . S
C303 C54 1.113 . S
C308 C43 1.138 . S
C319 C65 1.138 . S
C324 C84 1.139 . S
C335 C81 1.135 . S
C340 C106 1.141 . S
C351 C118 1.090 . S
C356 C103 1.123 . S
C367 C169 1.134 . S
C372 C150 1.142 . S
C383 C172 1.093 . S
C388 C191 1.098 . S
C399 C205 1.128 . S
C404 C194 1.096 . S
C415 C227 1.121 . S
C420 C206 1.089 . S
C431 C263 1.117 . S
C436 C228 1.086 . S
C447 C147 1.103 . S
C452 C252 1.085 . S
C463 C257 1.371 . S
C468 C8 1.389 . S
C479 C40 1.407 . S
C484 C139 1.402 . S
C495 C161 1.386 . S
C500 C62 1.363 . S
C511 C183 1.379 . S
C516 C74 1.396 . S
C527 C219 1.398 . S
C532 C96 1.406 . S
C543 C120 1.359 . S
C548 C241 1.354 . S
C559 C140 1.356 . S
C564 C37 1.354 . S
C575 C162 1.388 . S
C580 C59 1.371 . S
C591 C73 1.391 . S
C596 C184 1.368 . S
C607 C95 1.377 . S
C612 C208 1.394 . S
C623 C230 1.373 . S
C628 C131 1.359 . S
C639 C260 1.403 . S
C644 C7 1.390 . S
C655 C142 1.135 1_455 S
C660 C10 1.121 1_565 S
C671 C30 1.112 . S
C676 C164 1.102 1_545 S
C687 C186 1.151 . S
C692 C52 1.140 1_455 S
C703 C76 1.133 1_545 S
C708 C216 1.118 1_655 S
C719 C238 1.144 1_565 S
C724 C98 1.131 . S
C735 C250 1.102 . S
C740 C128 1.111 1_655 S
C751 C153 1.044 . S
C756 C21 1.039 . S
C767 C175 1.044 . S
C772 C29 1.041 . S
C783 C197 1.029 . S
C788 C51 1.040 . S
C799 C87 1.043 . S
C804 C213 1.043 . S
C815 C235 1.031 . S
C820 C109 1.017 . S
C831 C249 0.988 . S
C836 C125 0.994 . S
