# Generated by pormake.
# Topology unw, (4)-cn, num edge types: 1
# Building blocks:
#     Node 0, Type 0, BuildingBlock: GALJAG_clean_sbu_0, # of connection points: 4
#     Node 1, Type 0, BuildingBlock: GALJAG_clean_sbu_0, # of connection points: 4
#     Node 2, Type 0, BuildingBlock: GALJAG_clean_sbu_0, # of connection points: 4
#     Node 3, Type 0, BuildingBlock: GALJAG_clean_sbu_0, # of connection points: 4
#     Node 4, Type 0, BuildingBlock: GALJAG_clean_sbu_0, # of connection points: 4
#     Node 5, Type 0, BuildingBlock: GALJAG_clean_sbu_0, # of connection points: 4
#     Node 6, Type 0, BuildingBlock: GALJAG_clean_sbu_0, # of connection points: 4
#     Node 7, Type 0, BuildingBlock: GALJAG_clean_sbu_0, # of connection points: 4
#     Node 8, Type 0, BuildingBlock: GALJAG_clean_sbu_0, # of connection points: 4
#     Node 9, Type 0, BuildingBlock: GALJAG_clean_sbu_0, # of connection points: 4
#     Node 10, Type 0, BuildingBlock: GALJAG_clean_sbu_0, # of connection points: 4
#     Node 11, Type 0, BuildingBlock: GALJAG_clean_sbu_0, # of connection points: 4
#     Node 12, Type 0, BuildingBlock: GALJAG_clean_sbu_0, # of connection points: 4
#     Node 13, Type 0, BuildingBlock: GALJAG_clean_sbu_0, # of connection points: 4
#     Node 14, Type 0, BuildingBlock: GALJAG_clean_sbu_0, # of connection points: 4
#     Node 15, Type 0, BuildingBlock: GALJAG_clean_sbu_0, # of connection points: 4
#     Node 16, Type 0, BuildingBlock: GALJAG_clean_sbu_0, # of connection points: 4
#     Node 17, Type 0, BuildingBlock: GALJAG_clean_sbu_0, # of connection points: 4
#     Node 18, Type 0, BuildingBlock: GALJAG_clean_sbu_0, # of connection points: 4
#     Node 19, Type 0, BuildingBlock: GALJAG_clean_sbu_0, # of connection points: 4
#     Node 20, Type 0, BuildingBlock: GALJAG_clean_sbu_0, # of connection points: 4
#     Node 21, Type 0, BuildingBlock: GALJAG_clean_sbu_0, # of connection points: 4
#     Node 22, Type 0, BuildingBlock: GALJAG_clean_sbu_0, # of connection points: 4
#     Node 23, Type 0, BuildingBlock: GALJAG_clean_sbu_0, # of connection points: 4
#     Edge 24, Type (0, 0), BuildingBlock: CIFDUS_clean_linker_0, # of connection points: 2
#     Edge 25, Type (0, 0), BuildingBlock: CIFDUS_clean_linker_0, # of connection points: 2
#     Edge 26, Type (0, 0), BuildingBlock: CIFDUS_clean_linker_0, # of connection points: 2
#     Edge 27, Type (0, 0), BuildingBlock: CIFDUS_clean_linker_0, # of connection points: 2
#     Edge 28, Type (0, 0), BuildingBlock: CIFDUS_clean_linker_0, # of connection points: 2
#     Edge 29, Type (0, 0), BuildingBlock: CIFDUS_clean_linker_0, # of connection points: 2
#     Edge 30, Type (0, 0), BuildingBlock: CIFDUS_clean_linker_0, # of connection points: 2
#     Edge 31, Type (0, 0), BuildingBlock: CIFDUS_clean_linker_0, # of connection points: 2
#     Edge 32, Type (0, 0), BuildingBlock: CIFDUS_clean_linker_0, # of connection points: 2
#     Edge 33, Type (0, 0), BuildingBlock: CIFDUS_clean_linker_0, # of connection points: 2
#     Edge 34, Type (0, 0), BuildingBlock: CIFDUS_clean_linker_0, # of connection points: 2
#     Edge 35, Type (0, 0), BuildingBlock: CIFDUS_clean_linker_0, # of connection points: 2
#     Edge 36, Type (0, 0), BuildingBlock: CIFDUS_clean_linker_0, # of connection points: 2
#     Edge 37, Type (0, 0), BuildingBlock: CIFDUS_clean_linker_0, # of connection points: 2
#     Edge 38, Type (0, 0), BuildingBlock: CIFDUS_clean_linker_0, # of connection points: 2
#     Edge 39, Type (0, 0), BuildingBlock: CIFDUS_clean_linker_0, # of connection points: 2
#     Edge 40, Type (0, 0), BuildingBlock: CIFDUS_clean_linker_0, # of connection points: 2
#     Edge 41, Type (0, 0), BuildingBlock: CIFDUS_clean_linker_0, # of connection points: 2
#     Edge 42, Type (0, 0), BuildingBlock: CIFDUS_clean_linker_0, # of connection points: 2
#     Edge 43, Type (0, 0), BuildingBlock: CIFDUS_clean_linker_0, # of connection points: 2
#     Edge 44, Type (0, 0), BuildingBlock: CIFDUS_clean_linker_0, # of connection points: 2
#     Edge 45, Type (0, 0), BuildingBlock: CIFDUS_clean_linker_0, # of connection points: 2
#     Edge 46, Type (0, 0), BuildingBlock: CIFDUS_clean_linker_0, # of connection points: 2
#     Edge 47, Type (0, 0), BuildingBlock: CIFDUS_clean_linker_0, # of connection points: 2
#     Edge 48, Type (0, 0), BuildingBlock: CIFDUS_clean_linker_0, # of connection points: 2
#     Edge 49, Type (0, 0), BuildingBlock: CIFDUS_clean_linker_0, # of connection points: 2
#     Edge 50, Type (0, 0), BuildingBlock: CIFDUS_clean_linker_0, # of connection points: 2
#     Edge 51, Type (0, 0), BuildingBlock: CIFDUS_clean_linker_0, # of connection points: 2
#     Edge 52, Type (0, 0), BuildingBlock: CIFDUS_clean_linker_0, # of connection points: 2
#     Edge 53, Type (0, 0), BuildingBlock: CIFDUS_clean_linker_0, # of connection points: 2
#     Edge 54, Type (0, 0), BuildingBlock: CIFDUS_clean_linker_0, # of connection points: 2
#     Edge 55, Type (0, 0), BuildingBlock: CIFDUS_clean_linker_0, # of connection points: 2
#     Edge 56, Type (0, 0), BuildingBlock: CIFDUS_clean_linker_0, # of connection points: 2
#     Edge 57, Type (0, 0), BuildingBlock: CIFDUS_clean_linker_0, # of connection points: 2
#     Edge 58, Type (0, 0), BuildingBlock: CIFDUS_clean_linker_0, # of connection points: 2
#     Edge 59, Type (0, 0), BuildingBlock: CIFDUS_clean_linker_0, # of connection points: 2
#     Edge 60, Type (0, 0), BuildingBlock: CIFDUS_clean_linker_0, # of connection points: 2
#     Edge 61, Type (0, 0), BuildingBlock: CIFDUS_clean_linker_0, # of connection points: 2
#     Edge 62, Type (0, 0), BuildingBlock: CIFDUS_clean_linker_0, # of connection points: 2
#     Edge 63, Type (0, 0), BuildingBlock: CIFDUS_clean_linker_0, # of connection points: 2
#     Edge 64, Type (0, 0), BuildingBlock: CIFDUS_clean_linker_0, # of connection points: 2
#     Edge 65, Type (0, 0), BuildingBlock: CIFDUS_clean_linker_0, # of connection points: 2
#     Edge 66, Type (0, 0), BuildingBlock: CIFDUS_clean_linker_0, # of connection points: 2
#     Edge 67, Type (0, 0), BuildingBlock: CIFDUS_clean_linker_0, # of connection points: 2
#     Edge 68, Type (0, 0), BuildingBlock: CIFDUS_clean_linker_0, # of connection points: 2
#     Edge 69, Type (0, 0), BuildingBlock: CIFDUS_clean_linker_0, # of connection points: 2
#     Edge 70, Type (0, 0), BuildingBlock: CIFDUS_clean_linker_0, # of connection points: 2
#     Edge 71, Type (0, 0), BuildingBlock: CIFDUS_clean_linker_0, # of connection points: 2
# Relax obj value: 0.374
# Max RMSD: 0.256
# Mean RMSD: 0.255
data_MOF--net-unw--node1-GALJAG_clean_sbu_0--edge1-CIFDUS_clean_linker_0
_symmetry_space_group_name_H-M    P1
_symmetry_Int_Tables_number       1
_symmetry_cell_setting            triclinic
loop_
_symmetry_equiv_pos_as_xyz
'x, y, z'
_cell_length_a     41.436916
_cell_length_b     41.554178
_cell_length_c     41.512764
_cell_angle_alpha  90.077108
_cell_angle_beta   90.116052
_cell_angle_gamma 90.10904
loop_
_atom_site_label
_atom_site_type_symbol
_atom_site_fract_x
_atom_site_fract_y
_atom_site_fract_z
_atom_type_partial_charge
In0 In 0.13115 0.36855 0.25619 0.0
O1 O 0.08323 0.38479 0.27727 0.0
O2 O 0.11999 0.36947 0.30985 0.0
C3 C 0.19494 0.36109 0.24839 0.0
C4 C 0.11081 0.30813 0.24649 0.0
C5 C 0.13443 0.42189 0.22068 0.0
O6 O 0.17424 0.35383 0.22729 0.0
O7 O 0.18356 0.37034 0.27518 0.0
O8 O 0.14638 0.41981 0.24865 0.0
O9 O 0.11726 0.39814 0.21185 0.0
C10 C 0.09092 0.37794 0.30597 0.0
O11 O 0.12502 0.31756 0.27163 0.0
O12 O 0.1073 0.32919 0.22472 0.0
In13 In 0.6296 0.1379 0.26162 0.0
O14 O 0.65049 0.14763 0.21153 0.0
O15 O 0.63442 0.18692 0.24098 0.0
C16 C 0.63645 0.07651 0.2799 0.0
C17 C 0.56801 0.15232 0.24917 0.0
C18 C 0.68073 0.15554 0.2964 0.0
O19 O 0.6416 0.08572 0.2512 0.0
O20 O 0.62424 0.09764 0.29827 0.0
O21 O 0.65236 0.16257 0.30576 0.0
O22 O 0.68248 0.14035 0.27011 0.0
C23 C 0.64629 0.1778 0.21456 0.0
O24 O 0.58284 0.16416 0.27325 0.0
O25 O 0.58283 0.13 0.23462 0.0
In26 In 0.87564 0.62694 0.24122 0.0
O27 O 0.85052 0.63961 0.28848 0.0
O28 O 0.8676 0.67737 0.25767 0.0
C29 C 0.8705 0.56493 0.2245 0.0
C30 C 0.93627 0.64011 0.25933 0.0
C31 C 0.82937 0.64346 0.19974 0.0
O32 O 0.86114 0.57524 0.25173 0.0
O33 O 0.8855 0.58531 0.20746 0.0
O34 O 0.8588 0.65024 0.19411 0.0
O35 O 0.82413 0.62876 0.22582 0.0
C36 C 0.85375 0.66967 0.28362 0.0
O37 O 0.92547 0.6485 0.23193 0.0
O38 O 0.91769 0.62208 0.27544 0.0
In39 In 0.36378 0.8814 0.2334 0.0
O40 O 0.34083 0.92931 0.22168 0.0
O41 O 0.37292 0.92693 0.26219 0.0
C42 C 0.34376 0.83356 0.19564 0.0
C43 C 0.32179 0.86634 0.27913 0.0
C44 C 0.42422 0.87163 0.21374 0.0
O45 O 0.33915 0.86271 0.18756 0.0
O46 O 0.35765 0.8294 0.22239 0.0
O47 O 0.41434 0.86185 0.24097 0.0
O48 O 0.40486 0.88972 0.1986 0.0
C49 C 0.35221 0.94308 0.24657 0.0
O50 O 0.35182 0.86146 0.28341 0.0
O51 O 0.31387 0.87787 0.25216 0.0
In52 In 0.10938 0.61808 0.7596 0.0
O53 O 0.12825 0.63593 0.71144 0.0
O54 O 0.11046 0.66991 0.74635 0.0
C55 C 0.1202 0.55745 0.77748 0.0
C56 C 0.04689 0.62274 0.74361 0.0
C57 C 0.16035 0.63689 0.79433 0.0
O58 O 0.12883 0.56815 0.75014 0.0
O59 O 0.10317 0.57644 0.79428 0.0
O60 O 0.13167 0.64231 0.80416 0.0
O61 O 0.16244 0.62228 0.76768 0.0
C62 C 0.12273 0.6652 0.71883 0.0
O63 O 0.05739 0.63256 0.77079 0.0
O64 O 0.0674 0.60801 0.72641 0.0
In65 In 0.34128 0.12177 0.79355 0.0
O66 O 0.33779 0.14587 0.7441 0.0
O67 O 0.29465 0.13155 0.76813 0.0
C68 C 0.39823 0.15229 0.80546 0.0
C69 C 0.33744 0.05986 0.7733 0.0
C70 C 0.30808 0.14607 0.84398 0.0
O71 O 0.37882 0.1609 0.78363 0.0
O72 O 0.38977 0.12714 0.82042 0.0
O73 O 0.33187 0.12751 0.84828 0.0
O74 O 0.3011 0.15107 0.81496 0.0
C75 C 0.30729 0.14383 0.74345 0.0
O76 O 0.32074 0.07065 0.79623 0.0
O77 O 0.35934 0.07875 0.76402 0.0
In78 In 0.89104 0.37883 0.75982 0.0
O79 O 0.88149 0.43235 0.75297 0.0
O80 O 0.8978 0.41563 0.79916 0.0
C81 C 0.87359 0.3354 0.71638 0.0
C82 C 0.83997 0.35992 0.79414 0.0
C83 C 0.95287 0.36957 0.74339 0.0
O84 O 0.86792 0.3652 0.71174 0.0
O85 O 0.88793 0.3285 0.74241 0.0
O86 O 0.94153 0.35901 0.76984 0.0
O87 O 0.93379 0.38716 0.72729 0.0
C88 C 0.88775 0.43895 0.78227 0.0
O89 O 0.86867 0.35291 0.8028 0.0
O90 O 0.83767 0.37674 0.76882 0.0
In91 In 0.65526 0.88304 0.78677 0.0
O92 O 0.65374 0.85194 0.74093 0.0
O93 O 0.69845 0.87165 0.75705 0.0
C94 C 0.59794 0.85741 0.80493 0.0
C95 C 0.65876 0.94381 0.76396 0.0
C96 C 0.69246 0.8598 0.83528 0.0
O97 O 0.61703 0.84326 0.78589 0.0
O98 O 0.60704 0.88526 0.81356 0.0
O99 O 0.66515 0.87213 0.84058 0.0
O100 O 0.70142 0.86178 0.80652 0.0
C101 C 0.68382 0.85493 0.73638 0.0
O102 O 0.6741 0.93483 0.78865 0.0
O103 O 0.63838 0.92365 0.75379 0.0
In104 In 0.21041 0.1315 0.3313 0.0
O105 O 0.21991 0.17468 0.36388 0.0
O106 O 0.19091 0.13727 0.38323 0.0
C107 C 0.25362 0.16163 0.29391 0.0
C108 C 0.15375 0.14695 0.30293 0.0
C109 C 0.2339 0.07059 0.32743 0.0
O110 O 0.25736 0.15906 0.32402 0.0
O111 O 0.22787 0.14962 0.28299 0.0
O112 O 0.20561 0.07777 0.31896 0.0
O113 O 0.2486 0.09301 0.34161 0.0
C114 C 0.20317 0.16493 0.38725 0.0
O115 O 0.18012 0.14527 0.28803 0.0
O116 O 0.15543 0.13861 0.33214 0.0
In117 In 0.89276 0.26287 0.3862 0.0
O118 O 0.88073 0.30592 0.35649 0.0
O119 O 0.90043 0.26383 0.33262 0.0
C120 C 0.88307 0.23114 0.44034 0.0
C121 C 0.95137 0.28705 0.39356 0.0
C122 C 0.83557 0.24043 0.37069 0.0
O123 O 0.87441 0.26041 0.43701 0.0
O124 O 0.8996 0.21916 0.4174 0.0
O125 O 0.8615 0.22557 0.36313 0.0
O126 O 0.83897 0.26706 0.38571 0.0
C127 C 0.88961 0.2925 0.33027 0.0
O128 O 0.94674 0.25835 0.38359 0.0
O129 O 0.92628 0.30242 0.40239 0.0
In130 In 0.7281 0.86587 0.37769 0.0
O131 O 0.77827 0.85489 0.3571 0.0
O132 O 0.74437 0.81662 0.36467 0.0
C133 C 0.71443 0.92892 0.37509 0.0
C134 C 0.74036 0.84372 0.43698 0.0
C135 C 0.68721 0.85169 0.32993 0.0
O136 O 0.73965 0.91717 0.36255 0.0
O137 O 0.69831 0.90955 0.39223 0.0
O138 O 0.68054 0.84463 0.35893 0.0
O139 O 0.71389 0.8657 0.32581 0.0
C140 C 0.77231 0.82487 0.35591 0.0
O141 O 0.71312 0.8398 0.42347 0.0
O142 O 0.75935 0.86266 0.42243 0.0
In143 In 0.13416 0.73311 0.38058 0.0
O144 O 0.15265 0.68418 0.36343 0.0
O145 O 0.13691 0.71963 0.32901 0.0
C146 C 0.1415 0.75433 0.44075 0.0
C147 C 0.0722 0.72012 0.36983 0.0
C148 C 0.18601 0.76696 0.3652 0.0
O149 O 0.14829 0.72545 0.43294 0.0
O150 O 0.12749 0.77069 0.41908 0.0
O151 O 0.15772 0.77775 0.35979 0.0
O152 O 0.18749 0.73923 0.37771 0.0
C153 C 0.14783 0.69165 0.33399 0.0
O154 O 0.08563 0.74522 0.35856 0.0
O155 O 0.08905 0.70406 0.38966 0.0
In156 In 0.23339 0.87593 0.63844 0.0
O157 O 0.21817 0.92226 0.66352 0.0
O158 O 0.26324 0.92186 0.63879 0.0
C159 C 0.19146 0.83034 0.6563 0.0
C160 C 0.28081 0.85618 0.67696 0.0
C161 C 0.21915 0.86732 0.5759 0.0
O162 O 0.18551 0.85988 0.66124 0.0
O163 O 0.21823 0.82456 0.64323 0.0
O164 O 0.24454 0.85625 0.58866 0.0
O165 O 0.20332 0.88645 0.59354 0.0
C166 C 0.24469 0.93648 0.65805 0.0
O167 O 0.28469 0.85708 0.64665 0.0
O168 O 0.25319 0.86409 0.68687 0.0
In169 In 0.1528 0.28169 0.60737 0.0
O170 O 0.15012 0.23889 0.64201 0.0
O171 O 0.19185 0.24505 0.61271 0.0
C172 C 0.09742 0.3041 0.6337 0.0
C173 C 0.1481 0.26072 0.54544 0.0
C174 C 0.19508 0.32555 0.63237 0.0
O175 O 0.11383 0.28183 0.64639 0.0
O176 O 0.10805 0.3139 0.60686 0.0
O177 O 0.16817 0.33368 0.62069 0.0
O178 O 0.20165 0.29639 0.6283 0.0
C179 C 0.17797 0.22899 0.63437 0.0
O180 O 0.16626 0.28388 0.55346 0.0
O181 O 0.13035 0.25057 0.56786 0.0
In182 In 0.76323 0.12533 0.62995 0.0
O183 O 0.71225 0.1446 0.63949 0.0
O184 O 0.74387 0.13418 0.67902 0.0
C185 C 0.77828 0.13363 0.56771 0.0
C186 C 0.75307 0.06434 0.64821 0.0
C187 C 0.80318 0.17248 0.64837 0.0
O188 O 0.75084 0.14102 0.57893 0.0
O189 O 0.79614 0.11808 0.5869 0.0
O190 O 0.81038 0.14311 0.6526 0.0
O191 O 0.77605 0.17745 0.63551 0.0
C192 C 0.71632 0.14322 0.6698 0.0
O193 O 0.77922 0.07901 0.65438 0.0
O194 O 0.73454 0.07879 0.62877 0.0
In195 In 0.83696 0.69847 0.61421 0.0
O196 O 0.81599 0.69827 0.56316 0.0
O197 O 0.85423 0.73074 0.57315 0.0
C198 C 0.80029 0.6498 0.63756 0.0
C199 C 0.80829 0.7499 0.63993 0.0
C200 C 0.89465 0.68017 0.63918 0.0
O201 O 0.82427 0.6443 0.6196 0.0
O202 O 0.79459 0.6791 0.64201 0.0
O203 O 0.87537 0.69848 0.65398 0.0
O204 O 0.88556 0.67238 0.61108 0.0
C205 C 0.83243 0.72206 0.55374 0.0
O206 O 0.83831 0.74529 0.64361 0.0
O207 O 0.7937 0.72861 0.62393 0.0
In208 In 0.39493 0.29347 0.13086 0.0
O209 O 0.38982 0.28305 0.07701 0.0
O210 O 0.40553 0.32993 0.09094 0.0
C211 C 0.35916 0.24921 0.16119 0.0
C212 C 0.35574 0.33863 0.15531 0.0
C213 C 0.45221 0.27008 0.15089 0.0
O214 O 0.35845 0.25147 0.13075 0.0
O215 O 0.37785 0.26862 0.17515 0.0
O216 O 0.44416 0.29908 0.15598 0.0
O217 O 0.43328 0.25476 0.13257 0.0
C218 C 0.39703 0.31133 0.06829 0.0
O219 O 0.38382 0.33435 0.16665 0.0
O220 O 0.34872 0.32158 0.13115 0.0
In221 In 0.38414 0.7353 0.86698 0.0
O222 O 0.36418 0.78517 0.8568 0.0
O223 O 0.37976 0.75532 0.81748 0.0
C224 C 0.37402 0.71368 0.9265 0.0
C225 C 0.4468 0.75061 0.86065 0.0
C226 C 0.33449 0.69932 0.84653 0.0
O227 O 0.36477 0.74139 0.91759 0.0
O228 O 0.39159 0.69869 0.90656 0.0
O229 O 0.36346 0.69141 0.83987 0.0
O230 O 0.33148 0.72496 0.86258 0.0
C231 C 0.36786 0.78183 0.82655 0.0
O232 O 0.43516 0.72488 0.84864 0.0
O233 O 0.42748 0.76647 0.87816 0.0
In234 In 0.2699 0.37254 0.86415 0.0
O235 O 0.28245 0.38716 0.91559 0.0
O236 O 0.32121 0.37376 0.8845 0.0
C237 C 0.27026 0.36355 0.79995 0.0
C238 C 0.2568 0.31205 0.88232 0.0
C239 C 0.23885 0.42847 0.85609 0.0
O240 O 0.24544 0.36089 0.81722 0.0
O241 O 0.29622 0.36957 0.8151 0.0
O242 O 0.26873 0.42502 0.85075 0.0
O243 O 0.2251 0.40434 0.86889 0.0
C244 C 0.3123 0.38141 0.91268 0.0
O245 O 0.28387 0.32135 0.87218 0.0
O246 O 0.23495 0.33339 0.88288 0.0
In247 In 0.62228 0.25274 0.87039 0.0
O248 O 0.56931 0.26112 0.85658 0.0
O249 O 0.58085 0.22225 0.88836 0.0
C250 C 0.66902 0.29066 0.84742 0.0
C251 C 0.63471 0.20817 0.82629 0.0
C252 C 0.64052 0.27189 0.929 0.0
O253 O 0.63948 0.29887 0.84458 0.0
O254 O 0.67382 0.26371 0.86056 0.0
O255 O 0.64816 0.24452 0.91775 0.0
O256 O 0.6205 0.28778 0.91222 0.0
C257 C 0.55948 0.2364 0.87176 0.0
O258 O 0.64129 0.20355 0.85587 0.0
O259 O 0.62169 0.23487 0.81971 0.0
In260 In 0.75581 0.62719 0.86739 0.0
O261 O 0.74801 0.6389 0.91977 0.0
O262 O 0.70888 0.61651 0.89461 0.0
C263 C 0.74483 0.61406 0.80487 0.0
C264 C 0.75944 0.69159 0.86571 0.0
C265 C 0.80011 0.58052 0.87399 0.0
O266 O 0.77169 0.62278 0.81604 0.0
O267 O 0.72212 0.61263 0.82522 0.0
O268 O 0.77043 0.57563 0.87925 0.0
O269 O 0.80763 0.6095 0.8686 0.0
C270 C 0.71874 0.63028 0.92009 0.0
O271 O 0.73466 0.67592 0.85759 0.0
O272 O 0.78378 0.67481 0.87326 0.0
In273 In 0.61436 0.74378 0.11484 0.0
O274 O 0.63106 0.75676 0.06462 0.0
O275 O 0.60769 0.71126 0.07147 0.0
C276 C 0.63066 0.78414 0.16181 0.0
C277 C 0.66213 0.70456 0.13189 0.0
C278 C 0.5531 0.76029 0.12542 0.0
O279 O 0.63605 0.79127 0.13248 0.0
O280 O 0.61799 0.75689 0.16663 0.0
O281 O 0.56384 0.73276 0.1334 0.0
O282 O 0.57207 0.77708 0.10841 0.0
C283 C 0.6233 0.72963 0.05273 0.0
O284 O 0.63277 0.69658 0.13636 0.0
O285 O 0.66655 0.73182 0.11915 0.0
In286 In 0.24446 0.61552 0.11632 0.0
O287 O 0.19654 0.6346 0.13559 0.0
O288 O 0.23222 0.61631 0.16848 0.0
C289 C 0.26231 0.6268 0.05581 0.0
C290 C 0.23156 0.55309 0.12243 0.0
C291 C 0.2817 0.66422 0.13459 0.0
O292 O 0.23423 0.63407 0.06582 0.0
O293 O 0.27927 0.61049 0.07525 0.0
O294 O 0.29033 0.63522 0.13953 0.0
O295 O 0.25458 0.66786 0.12105 0.0
C296 C 0.20457 0.62859 0.16464 0.0
O297 O 0.25857 0.56507 0.13081 0.0
O298 O 0.21277 0.57214 0.10768 0.0
In299 In 0.79197 0.35454 0.11069 0.0
O300 O 0.78026 0.40268 0.13313 0.0
O301 O 0.82091 0.39988 0.10123 0.0
C302 C 0.75532 0.30512 0.12774 0.0
C303 C 0.83512 0.33894 0.15534 0.0
C304 C 0.76802 0.34804 0.05142 0.0
O305 O 0.74656 0.33398 0.13317 0.0
O306 O 0.78258 0.30179 0.11448 0.0
O307 O 0.7969 0.33982 0.05799 0.0
O308 O 0.75339 0.36294 0.07366 0.0
C309 C 0.80484 0.41653 0.12121 0.0
O310 O 0.84096 0.3333 0.1257 0.0
O311 O 0.80813 0.3517 0.16137 0.0
H312 H 0.17089 0.52786 0.11817 0.0
H313 H 0.26524 0.51015 0.15874 0.0
H314 H 0.24286 0.46779 0.19267 0.0
H315 H 0.19586 0.44011 0.215 0.0
H316 H 0.10162 0.45527 0.1738 0.0
H317 H 0.12445 0.49495 0.13616 0.0
C318 C 0.18669 0.51423 0.13388 0.0
C319 C 0.21968 0.52241 0.13613 0.0
C320 C 0.17352 0.49024 0.15383 0.0
C321 C 0.23981 0.50445 0.15658 0.0
C322 C 0.22696 0.48044 0.17625 0.0
C323 C 0.1803 0.45225 0.19784 0.0
C324 C 0.14701 0.44575 0.19768 0.0
C325 C 0.19373 0.47403 0.1759 0.0
C326 C 0.12722 0.46055 0.17466 0.0
C327 C 0.14031 0.48302 0.15312 0.0
H328 H 0.55526 0.21636 0.24996 0.0
H329 H 0.52194 0.1263 0.21023 0.0
H330 H 0.4845 0.15509 0.17494 0.0
H331 H 0.46291 0.20579 0.15381 0.0
H332 H 0.49673 0.29622 0.19245 0.0
H333 H 0.53298 0.26742 0.2291 0.0
C334 C 0.53915 0.20303 0.2342 0.0
C335 C 0.54084 0.16915 0.23322 0.0
C336 C 0.51853 0.21986 0.21309 0.0
C337 C 0.52065 0.15229 0.21185 0.0
C338 C 0.49954 0.16878 0.1914 0.0
C339 C 0.47849 0.2193 0.16995 0.0
C340 C 0.47735 0.25321 0.17005 0.0
C341 C 0.49873 0.20256 0.19138 0.0
C342 C 0.49738 0.27018 0.19155 0.0
C343 C 0.51788 0.25368 0.21275 0.0
H344 H 0.79627 0.43936 0.18152 0.0
H345 H 0.84417 0.46037 0.09188 0.0
H346 H 0.87063 0.50709 0.11663 0.0
H347 H 0.88017 0.54175 0.16392 0.0
H348 H 0.83375 0.51915 0.2541 0.0
H349 H 0.80738 0.4727 0.22922 0.0
C350 C 0.81207 0.45451 0.16726 0.0
C351 C 0.81773 0.4469 0.13471 0.0
C352 C 0.82803 0.48056 0.18197 0.0
C353 C 0.83907 0.46609 0.11682 0.0
C354 C 0.85439 0.4926 0.13105 0.0
C355 C 0.86467 0.52639 0.17828 0.0
C356 C 0.85906 0.5339 0.21091 0.0
C357 C 0.84925 0.49991 0.16369 0.0
C358 C 0.8387 0.51383 0.22905 0.0
C359 C 0.82335 0.48743 0.21474 0.0
H360 H 0.53178 0.82172 0.11914 0.0
H361 H 0.51217 0.73292 0.16928 0.0
H362 H 0.47275 0.76051 0.20327 0.0
H363 H 0.44493 0.81027 0.21974 0.0
H364 H 0.46319 0.89848 0.16834 0.0
H365 H 0.50288 0.87095 0.13446 0.0
C366 C 0.51851 0.80822 0.13713 0.0
C367 C 0.52483 0.77518 0.14147 0.0
C368 C 0.49636 0.82438 0.15699 0.0
C369 C 0.50757 0.75823 0.16514 0.0
C370 C 0.4853 0.7741 0.18486 0.0
C371 C 0.45816 0.8236 0.20159 0.0
C372 C 0.45183 0.85657 0.19706 0.0
C373 C 0.47994 0.80729 0.18139 0.0
C374 C 0.46819 0.87327 0.17266 0.0
C375 C 0.49058 0.85744 0.15308 0.0
H376 H 0.17383 0.44091 0.85956 0.0
H377 H 0.26322 0.47761 0.82074 0.0
H378 H 0.23384 0.51836 0.79069 0.0
H379 H 0.18299 0.54318 0.77431 0.0
H380 H 0.0936 0.51099 0.81612 0.0
H381 H 0.12249 0.4685 0.84557 0.0
C382 C 0.18687 0.45814 0.84489 0.0
C383 C 0.22075 0.4561 0.84247 0.0
C384 C 0.16974 0.48185 0.8276 0.0
C385 C 0.23723 0.4786 0.82325 0.0
C386 C 0.22042 0.50181 0.80576 0.0
C387 C 0.16978 0.52642 0.7894 0.0
C388 C 0.13617 0.5294 0.79232 0.0
C389 C 0.1867 0.50335 0.80737 0.0
C390 C 0.11943 0.50855 0.813 0.0
C391 C 0.13599 0.48452 0.83003 0.0
H392 H 0.51687 0.24757 0.82264 0.0
H393 H 0.53042 0.19028 0.90814 0.0
H394 H 0.48213 0.159 0.89521 0.0
H395 H 0.43743 0.14584 0.85811 0.0
H396 H 0.42412 0.2027 0.77228 0.0
H397 H 0.47083 0.23577 0.7866 0.0
C398 C 0.50888 0.22867 0.83877 0.0
C399 C 0.52721 0.22147 0.86645 0.0
C400 C 0.48137 0.21019 0.83079 0.0
C401 C 0.51674 0.19649 0.88677 0.0
C402 C 0.4892 0.17839 0.87927 0.0
C403 C 0.44484 0.16538 0.84247 0.0
C404 C 0.42741 0.17151 0.81397 0.0
C405 C 0.47165 0.18458 0.85102 0.0
C406 C 0.43716 0.19725 0.79424 0.0
C407 C 0.46384 0.2163 0.80248 0.0
H408 H 0.83669 0.57634 0.82095 0.0
H409 H 0.80982 0.52425 0.90647 0.0
H410 H 0.83904 0.47674 0.88699 0.0
H411 H 0.86718 0.44861 0.8431 0.0
H412 H 0.88667 0.49842 0.7542 0.0
H413 H 0.86552 0.54842 0.77735 0.0
C414 C 0.83804 0.55481 0.83566 0.0
C415 C 0.82187 0.55384 0.86543 0.0
C416 C 0.8532 0.52718 0.8234 0.0
C417 C 0.8226 0.52555 0.88377 0.0
C418 C 0.83909 0.49842 0.8725 0.0
C419 C 0.86742 0.47061 0.82906 0.0
C420 C 0.87882 0.47003 0.79713 0.0
C421 C 0.8538 0.49873 0.84201 0.0
C422 C 0.8782 0.49841 0.77887 0.0
C423 C 0.86605 0.52692 0.79209 0.0
H424 H 0.57733 0.79557 0.7953 0.0
H425 H 0.55266 0.88359 0.84465 0.0
H426 H 0.5054 0.8575 0.86816 0.0
H427 H 0.47036 0.81021 0.8739 0.0
H428 H 0.49387 0.72228 0.8239 0.0
H429 H 0.54253 0.74759 0.80197 0.0
C430 C 0.56152 0.80909 0.81109 0.0
C431 C 0.56847 0.84164 0.81798 0.0
C432 C 0.53436 0.79382 0.82472 0.0
C433 C 0.54785 0.85864 0.83874 0.0
C434 C 0.52085 0.84367 0.85232 0.0
C435 C 0.48633 0.79636 0.85857 0.0
C436 C 0.4785 0.76424 0.85076 0.0
C437 C 0.51385 0.8113 0.84549 0.0
C438 C 0.49937 0.74691 0.83052 0.0
C439 C 0.52711 0.76148 0.81779 0.0
H440 H 0.19401 0.26845 0.49894 0.0
H441 H 0.11039 0.21157 0.52329 0.0
H442 H 0.12041 0.17626 0.47731 0.0
H443 H 0.15437 0.15991 0.43125 0.0
H444 H 0.23754 0.21728 0.40662 0.0
H445 H 0.22654 0.25353 0.45163 0.0
C446 C 0.17766 0.24867 0.49387 0.0
C447 C 0.15141 0.24282 0.51455 0.0
C448 C 0.18385 0.22807 0.46758 0.0
C449 C 0.1307 0.2168 0.50774 0.0
C450 C 0.13654 0.19639 0.48154 0.0
C451 C 0.17019 0.18021 0.43591 0.0
C452 C 0.19696 0.18562 0.4158 0.0
C453 C 0.16338 0.20142 0.4616 0.0
C454 C 0.21689 0.21241 0.42183 0.0
C455 C 0.21054 0.23327 0.44752 0.0
H456 H 0.83908 0.12831 0.54328 0.0
H457 H 0.748 0.17622 0.52798 0.0
H458 H 0.77316 0.2119 0.48866 0.0
H459 H 0.8217 0.23182 0.46112 0.0
H460 H 0.91217 0.18247 0.47365 0.0
H461 H 0.88683 0.14542 0.51214 0.0
C462 C 0.82457 0.14609 0.53084 0.0
C463 C 0.79166 0.14956 0.53867 0.0
C464 C 0.83932 0.16687 0.50849 0.0
C465 C 0.77329 0.17285 0.52236 0.0
C466 C 0.78776 0.19355 0.50012 0.0
C467 C 0.83593 0.21321 0.47269 0.0
C468 C 0.86895 0.21039 0.46548 0.0
C469 C 0.8209 0.19133 0.49366 0.0
C470 C 0.88688 0.18543 0.47948 0.0
C471 C 0.87232 0.16414 0.50121 0.0
H472 H 0.80222 0.8354 0.45743 0.0
H473 H 0.70514 0.80089 0.47241 0.0
H474 H 0.7256 0.75799 0.5071 0.0
H475 H 0.77112 0.72971 0.53253 0.0
H476 H 0.86802 0.76508 0.51902 0.0
H477 H 0.84772 0.80761 0.48357 0.0
C478 C 0.78545 0.81887 0.46874 0.0
C479 C 0.75209 0.82164 0.46255 0.0
C480 C 0.79747 0.79383 0.48816 0.0
C481 C 0.73084 0.7996 0.47702 0.0
C482 C 0.74258 0.77482 0.49659 0.0
C483 C 0.78788 0.74628 0.52122 0.0
C484 C 0.82115 0.74379 0.5278 0.0
C485 C 0.77587 0.7714 0.50193 0.0
C486 C 0.8424 0.76613 0.51384 0.0
C487 C 0.83074 0.79067 0.4939 0.0
H488 H 0.13494 0.81688 0.45929 0.0
H489 H 0.18016 0.72753 0.48684 0.0
H490 H 0.21038 0.75548 0.52907 0.0
H491 H 0.22511 0.80546 0.55726 0.0
H492 H 0.17803 0.89434 0.532 0.0
H493 H 0.14799 0.86661 0.48913 0.0
C494 C 0.15103 0.80339 0.47485 0.0
C495 C 0.15514 0.77005 0.46991 0.0
C496 C 0.16863 0.81972 0.4989 0.0
C497 C 0.17626 0.75308 0.49022 0.0
C498 C 0.19384 0.76914 0.51417 0.0
C499 C 0.20875 0.81889 0.54192 0.0
C500 C 0.20442 0.8521 0.54714 0.0
C501 C 0.19063 0.80251 0.51835 0.0
C502 C 0.18223 0.86893 0.52795 0.0
C503 C 0.16485 0.853 0.50371 0.0
H504 H 0.71981 0.96635 0.75921 0.0
H505 H 0.62421 0.97828 0.71994 0.0
H506 H 0.6455 0.01464 0.67866 0.0
H507 H 0.69153 0.04209 0.65317 0.0
H508 H 0.78741 0.02872 0.69158 0.0
H509 H 0.76594 0.99295 0.7331 0.0
C510 C 0.70353 0.97751 0.74207 0.0
C511 C 0.67033 0.97026 0.74308 0.0
C512 C 0.71617 0.99729 0.71765 0.0
C513 C 0.64972 0.98401 0.72002 0.0
C514 C 0.66197 0.00445 0.69619 0.0
C515 C 0.70786 0.03086 0.67021 0.0
C516 C 0.74115 0.03784 0.66899 0.0
C517 C 0.69523 0.01087 0.69448 0.0
C518 C 0.76179 0.02348 0.69168 0.0
C519 C 0.74946 0.00333 0.71569 0.0
H520 H 0.91443 0.6863 0.70178 0.0
H521 H 0.94147 0.64389 0.61084 0.0
H522 H 0.98939 0.62043 0.63577 0.0
H523 H 0.02431 0.61281 0.68293 0.0
H524 H 0.9982 0.65559 0.77393 0.0
H525 H 0.94901 0.6775 0.74963 0.0
C526 C 0.93089 0.67204 0.68739 0.0
C527 C 0.92442 0.6671 0.65436 0.0
C528 C 0.95841 0.65835 0.70199 0.0
C529 C 0.94588 0.64826 0.6362 0.0
C530 C 0.97327 0.63471 0.65049 0.0
C531 C 0.00767 0.62654 0.69764 0.0
C532 C 0.01493 0.63234 0.73034 0.0
C533 C 0.97979 0.63959 0.68333 0.0
C534 C 0.99316 0.65051 0.74882 0.0
C535 C 0.96512 0.66325 0.73485 0.0
H536 H 0.27639 0.03715 0.76768 0.0
H537 H 0.37268 0.02403 0.73083 0.0
H538 H 0.35204 0.9865 0.69008 0.0
H539 H 0.30637 0.95839 0.66423 0.0
H540 H 0.20991 0.97291 0.70032 0.0
H541 H 0.23074 0.00972 0.74142 0.0
C542 C 0.29298 0.02553 0.75119 0.0
C543 C 0.32617 0.03285 0.75274 0.0
C544 C 0.28075 0.00499 0.72708 0.0
C545 C 0.34715 0.01836 0.73051 0.0
C546 C 0.33528 0.99721 0.70698 0.0
C547 C 0.2898 0.97007 0.68068 0.0
C548 C 0.2565 0.96314 0.67889 0.0
C549 C 0.30206 0.99072 0.70472 0.0
C550 C 0.23554 0.97807 0.70086 0.0
C551 C 0.2475 0.99886 0.72462 0.0
H552 H 0.07701 0.295 0.69559 0.0
H553 H 0.05534 0.34795 0.60888 0.0
H554 H 0.01052 0.3747 0.63602 0.0
H555 H 0.97665 0.38222 0.68382 0.0
H556 H 0.99754 0.32919 0.77063 0.0
H557 H 0.04382 0.30385 0.74426 0.0
C558 C 0.06237 0.31228 0.68259 0.0
C559 C 0.06939 0.31922 0.65009 0.0
C560 C 0.03672 0.32787 0.6985 0.0
C561 C 0.0504 0.34198 0.63378 0.0
C562 C 0.02482 0.3574 0.64934 0.0
C563 C 0.99157 0.36547 0.69719 0.0
C564 C 0.98365 0.35778 0.72929 0.0
C565 C 0.01774 0.35053 0.68167 0.0
C566 C 0.00316 0.33577 0.74604 0.0
C567 C 0.02951 0.32107 0.73086 0.0
H568 H 0.71723 0.95284 0.31496 0.0
H569 H 0.6776 0.97181 0.40893 0.0
H570 H 0.64836 0.01847 0.38747 0.0
H571 H 0.63371 0.05347 0.34153 0.0
H572 H 0.67075 0.0314 0.24694 0.0
H573 H 0.70061 0.98587 0.26889 0.0
C574 C 0.70269 0.9676 0.33087 0.0
C575 C 0.70027 0.95953 0.36368 0.0
C576 C 0.68485 0.99334 0.31804 0.0
C577 C 0.68034 0.97803 0.38375 0.0
C578 C 0.6634 0.00447 0.3714 0.0
C579 C 0.64793 0.03841 0.32563 0.0
C580 C 0.64986 0.04588 0.29256 0.0
C581 C 0.66522 0.01218 0.33848 0.0
C582 C 0.66857 0.02615 0.2724 0.0
C583 C 0.68596 0.00025 0.285 0.0
H584 H 0.95659 0.63421 0.32122 0.0
H585 H 0.97927 0.68194 0.23181 0.0
H586 H 0.02128 0.71336 0.25904 0.0
H587 H 0.0512 0.72764 0.30847 0.0
H588 H 0.02932 0.67878 0.39736 0.0
H589 H 0.98664 0.64808 0.37033 0.0
C590 C 0.971 0.65116 0.30753 0.0
C591 C 0.96493 0.65549 0.2744 0.0
C592 C 0.99467 0.66954 0.32347 0.0
C593 C 0.98363 0.67786 0.25721 0.0
C594 C 0.00743 0.69608 0.27286 0.0
C595 C 0.03656 0.71081 0.32207 0.0
C596 C 0.0429 0.70596 0.35506 0.0
C597 C 0.01288 0.69242 0.30606 0.0
C598 C 0.0245 0.6833 0.37211 0.0
C599 C 1.00036 0.66552 0.35657 0.0
H600 H 0.28867 0.95617 0.24445 0.0
H601 H 0.37845 0.99006 0.28475 0.0
H602 H 0.34933 0.03107 0.31576 0.0
H603 H 0.29814 0.05711 0.33128 0.0
H604 H 0.20831 0.02101 0.2926 0.0
H605 H 0.23757 0.98028 0.26192 0.0
C606 C 0.30192 0.97301 0.2595 0.0
C607 C 0.33575 0.97083 0.26158 0.0
C608 C 0.28491 0.99548 0.27821 0.0
C609 C 0.35249 0.99185 0.28221 0.0
C610 C 0.3358 0.01501 0.30018 0.0
C611 C 0.2849 0.03995 0.3166 0.0
C612 C 0.251 0.04209 0.31435 0.0
C613 C 0.30196 0.01687 0.29857 0.0
C614 C 0.23432 0.01981 0.29498 0.0
C615 C 0.25108 0.99672 0.27712 0.0
H616 H 0.08901 0.32751 0.34647 0.0
H617 H 0.03573 0.41167 0.31766 0.0
H618 H 0.98885 0.39304 0.3484 0.0
H619 H 0.96066 0.34889 0.37604 0.0
H620 H 0.01166 0.26111 0.3972 0.0
H621 H 0.06189 0.28497 0.37732 0.0
C622 C 0.06748 0.34228 0.34789 0.0
C623 C 0.06589 0.37118 0.33032 0.0
C624 C 0.04008 0.33039 0.36389 0.0
C625 C 0.03755 0.38957 0.33136 0.0
C626 C 0.01071 0.37877 0.34871 0.0
C627 C 0.98302 0.3354 0.37723 0.0
C628 C 0.98263 0.30343 0.38839 0.0
C629 C 0.01132 0.34866 0.36406 0.0
C630 C 0.0115 0.28583 0.38894 0.0
C631 C 0.04014 0.29942 0.37741 0.0
H632 H 0.71874 0.69036 0.9427 0.0
H633 H 0.66778 0.60028 0.9502 0.0
H634 H 0.63105 0.62416 0.99019 0.0
H635 H 0.6158 0.6703 0.025 0.0
H636 H 0.66533 0.76109 0.01355 0.0
H637 H 0.69953 0.73762 0.97204 0.0
C638 C 0.69961 0.67594 0.95319 0.0
C639 C 0.69638 0.64343 0.94437 0.0
C640 C 0.67808 0.69015 0.97495 0.0
C641 C 0.67097 0.6252 0.95721 0.0
C642 C 0.64996 0.63892 0.97986 0.0
C643 C 0.63361 0.68513 0.01293 0.0
C644 C 0.63813 0.7174 0.02262 0.0
C645 C 0.65348 0.67136 0.98912 0.0
C646 C 0.66129 0.73626 0.00665 0.0
C647 C 0.68112 0.72276 0.98312 0.0
H648 H 0.32357 0.61945 0.03399 0.0
H649 H 0.23512 0.67083 0.01509 0.0
H650 H 0.26293 0.7043 0.97543 0.0
H651 H 0.31281 0.72014 0.94743 0.0
H652 H 0.4006 0.66735 0.96458 0.0
H653 H 0.37285 0.6338 0.00444 0.0
C654 C 0.3102 0.63761 0.02083 0.0
C655 C 0.27722 0.64252 0.02745 0.0
C656 C 0.32647 0.6571 0.99847 0.0
C657 C 0.26039 0.66631 0.01028 0.0
C658 C 0.27638 0.68573 0.98787 0.0
C659 C 0.32599 0.70171 0.96043 0.0
C660 C 0.35891 0.69672 0.95382 0.0
C661 C 0.30954 0.68174 0.98224 0.0
C662 C 0.37543 0.67199 0.96983 0.0
C663 C 0.35948 0.65264 0.99231 0.0
H664 H 0.35345 0.33246 0.9243 0.0
H665 H 0.31601 0.4197 0.96592 0.0
H666 H 0.3436 0.40779 0.01683 0.0
H667 H 0.37317 0.36948 0.05124 0.0
H668 H 0.40359 0.27856 0.01172 0.0
H669 H 0.38439 0.29485 0.9583 0.0
C670 C 0.35212 0.34925 0.94429 0.0
C671 C 0.33328 0.37725 0.94127 0.0
C672 C 0.36656 0.34128 0.97399 0.0
C673 C 0.33073 0.39826 0.96763 0.0
C674 C 0.34635 0.39132 0.99676 0.0
C675 C 0.37629 0.3536 0.03072 0.0
C676 C 0.3902 0.32304 0.03526 0.0
C677 C 0.36364 0.3625 0.00048 0.0
C678 C 0.39323 0.30229 0.00872 0.0
C679 C 0.38212 0.31156 0.97823 0.0
H680 H 0.70519 0.3586 0.03601 0.0
H681 H 0.78955 0.30627 0.00518 0.0
H682 H 0.75678 0.27632 0.96623 0.0
H683 H 0.7037 0.26339 0.94256 0.0
H684 H 0.61984 0.31709 0.97191 0.0
H685 H 0.65272 0.34756 0.01055 0.0
C686 C 0.71658 0.34102 0.02042 0.0
C687 C 0.74988 0.33477 0.02351 0.0
C688 C 0.69748 0.32351 0.99849 0.0
C689 C 0.76409 0.31179 0.00315 0.0
C690 C 0.74527 0.29438 0.98114 0.0
C691 C 0.69255 0.28135 0.95789 0.0
C692 C 0.65923 0.28742 0.95512 0.0
C693 C 0.71184 0.29956 0.97909 0.0
C694 C 0.6453 0.3116 0.97415 0.0
C695 C 0.66415 0.3292 0.99597 0.0
H696 H 0.07981 0.27129 0.28915 0.0
H697 H 0.12651 0.26864 0.19665 0.0
H698 H 0.13612 0.21085 0.20274 0.0
H699 H 0.14553 0.16712 0.24143 0.0
H700 H 0.10268 0.17194 0.33594 0.0
H701 H 0.07595 0.22216 0.32164 0.0
C702 C 0.09064 0.25759 0.26969 0.0
C703 C 0.10298 0.2739 0.24278 0.0
C704 C 0.09727 0.22487 0.2741 0.0
C705 C 0.11685 0.25635 0.21752 0.0
C706 C 0.12273 0.22342 0.22127 0.0
C707 C 0.12921 0.17846 0.2584 0.0
C708 C 0.12703 0.1666 0.29008 0.0
C709 C 0.11524 0.20815 0.25051 0.0
C710 C 0.10524 0.18095 0.3116 0.0
C711 C 0.09023 0.20991 0.30355 0.0
H712 H 0.82228 0.18407 0.34103 0.0
H713 H 0.77668 0.26796 0.38178 0.0
H714 H 0.72368 0.24754 0.36541 0.0
H715 H 0.69065 0.20729 0.33595 0.0
H716 H 0.73768 0.12471 0.2941 0.0
H717 H 0.78957 0.14288 0.31486 0.0
C718 C 0.80075 0.19784 0.34648 0.0
C719 C 0.80341 0.22758 0.36225 0.0
C720 C 0.77053 0.18611 0.33686 0.0
C721 C 0.77526 0.24504 0.36939 0.0
C722 C 0.74495 0.23337 0.36009 0.0
C723 C 0.71222 0.1931 0.33198 0.0
C724 C 0.71047 0.16484 0.31348 0.0
C725 C 0.7423 0.20412 0.34338 0.0
C726 C 0.73855 0.1467 0.30815 0.0
C727 C 0.76825 0.15708 0.31992 0.0
H728 H 0.86667 0.7333 0.28191 0.0
H729 H 0.81094 0.66193 0.33299 0.0
H730 H 0.78304 0.70458 0.36254 0.0
H731 H 0.77057 0.76173 0.36916 0.0
H732 H 0.82535 0.83331 0.31748 0.0
H733 H 0.85809 0.79075 0.29289 0.0
C734 C 0.84866 0.72707 0.29979 0.0
C735 C 0.84042 0.6946 0.30499 0.0
C736 C 0.83254 0.75165 0.31628 0.0
C737 C 0.8175 0.68677 0.32851 0.0
C738 C 0.80149 0.71113 0.34526 0.0
C739 C 0.78989 0.76804 0.35271 0.0
C740 C 0.7953 0.80045 0.34458 0.0
C741 C 0.80818 0.74358 0.33859 0.0
C742 C 0.82074 0.80846 0.32387 0.0
C743 C 0.83928 0.78416 0.30976 0.0
H744 H 0.32222 0.81547 0.31994 0.0
H745 H 0.2645 0.89554 0.28796 0.0
H746 H 0.21719 0.8732 0.3148 0.0
H747 H 0.19071 0.82727 0.34065 0.0
H748 H 0.24785 0.74592 0.3707 0.0
H749 H 0.29674 0.77227 0.35149 0.0
C750 C 0.29949 0.82838 0.31976 0.0
C751 C 0.29658 0.85682 0.30196 0.0
C752 C 0.27209 0.81482 0.33428 0.0
C753 C 0.26704 0.87337 0.30145 0.0
C754 C 0.23997 0.86055 0.31659 0.0
C755 C 0.21391 0.81551 0.34328 0.0
C756 C 0.21561 0.78455 0.35649 0.0
C757 C 0.24191 0.83064 0.33191 0.0
C758 C 0.24587 0.76968 0.3602 0.0
C759 C 0.27388 0.78472 0.34927 0.0
H760 H 0.10687 0.7276 0.72739 0.0
H761 H 0.16103 0.66424 0.66532 0.0
H762 H 0.18446 0.71079 0.63788 0.0
H763 H 0.19422 0.76888 0.63612 0.0
H764 H 0.1414 0.83232 0.69918 0.0
H765 H 0.11229 0.78612 0.72159 0.0
C766 C 0.12348 0.72396 0.70755 0.0
C767 C 0.13263 0.69259 0.69863 0.0
C768 C 0.13719 0.75075 0.69235 0.0
C769 C 0.15377 0.68817 0.67266 0.0
C770 C 0.16727 0.71475 0.65711 0.0
C771 C 0.17606 0.77264 0.65454 0.0
C772 C 0.17025 0.8038 0.66646 0.0
C773 C 0.1599 0.74606 0.66748 0.0
C774 C 0.14633 0.80849 0.68983 0.0
C775 C 0.12985 0.7821 0.70269 0.0
H776 H 0.24232 0.14465 0.74092 0.0
H777 H 0.32735 0.17025 0.68666 0.0
H778 H 0.29344 0.19456 0.64499 0.0
H779 H 0.2405 0.21324 0.62734 0.0
H780 H 0.15585 0.19151 0.68382 0.0
H781 H 0.18887 0.16001 0.72116 0.0
C782 C 0.25345 0.15529 0.71983 0.0
C783 C 0.28726 0.15609 0.71694 0.0
C784 C 0.23392 0.16973 0.69649 0.0
C785 C 0.30137 0.16969 0.68946 0.0
C786 C 0.28201 0.18351 0.66569 0.0
C787 C 0.22912 0.20113 0.64749 0.0
C788 C 0.19586 0.20484 0.65306 0.0
C789 C 0.24836 0.18433 0.66941 0.0
C790 C 0.18144 0.18901 0.67916 0.0
C791 C 0.20033 0.17124 0.70058 0.0
H792 H 0.79477 0.23547 0.63484 0.0
H793 H 0.85761 0.16996 0.68551 0.0
H794 H 0.88766 0.21553 0.70794 0.0
H795 H 0.89226 0.27345 0.71736 0.0
H796 H 0.82847 0.33913 0.6682 0.0
H797 H 0.8028 0.2938 0.64026 0.0
C798 C 0.81524 0.23115 0.65057 0.0
C799 C 0.82373 0.19946 0.65896 0.0
C800 C 0.8321 0.2574 0.66356 0.0
C801 C 0.85053 0.19416 0.67893 0.0
C802 C 0.86764 0.22017 0.69177 0.0
C803 C 0.873 0.27791 0.7002 0.0
C804 C 0.86191 0.30948 0.69509 0.0
C805 C 0.85807 0.25182 0.68488 0.0
C806 C 0.83732 0.31501 0.67252 0.0
C807 C 0.82254 0.2891 0.65676 0.0
H808 H 0.74425 0.75971 0.63669 0.0
H809 H 0.83196 0.79886 0.67736 0.0
H810 H 0.80032 0.83817 0.70785 0.0
H811 H 0.74797 0.85683 0.72708 0.0
H812 H 0.6602 0.8148 0.68954 0.0
H813 H 0.69192 0.78109 0.653 0.0
C814 C 0.75653 0.77706 0.65197 0.0
C815 C 0.79033 0.77622 0.65521 0.0
C816 C 0.73823 0.79877 0.66995 0.0
C817 C 0.80594 0.79897 0.67477 0.0
C818 C 0.78788 0.82132 0.69219 0.0
C819 C 0.73569 0.84056 0.71064 0.0
C820 C 0.70184 0.83789 0.71118 0.0
C821 C 0.75402 0.82074 0.69062 0.0
C822 C 0.68625 0.81701 0.68963 0.0
C823 C 0.70436 0.79774 0.66889 0.0
H824 H 0.25203 0.16585 0.22875 0.0
H825 H 0.30868 0.19235 0.31214 0.0
H826 H 0.34761 0.21963 0.27758 0.0
H827 H 0.36409 0.2378 0.2245 0.0
H828 H 0.30772 0.21271 0.14059 0.0
H829 H 0.27017 0.18227 0.17466 0.0
C830 C 0.27295 0.17755 0.23931 0.0
C831 C 0.27743 0.17736 0.27293 0.0
C832 C 0.29522 0.19317 0.2193 0.0
C833 C 0.30469 0.19234 0.28634 0.0
C834 C 0.32695 0.20788 0.26662 0.0
C835 C 0.34372 0.22548 0.21354 0.0
C836 C 0.33847 0.22759 0.18015 0.0
C837 C 0.32224 0.20867 0.23318 0.0
C838 C 0.3122 0.21133 0.16627 0.0
C839 C 0.2907 0.19415 0.18574 0.0
H840 H 0.90203 0.26826 0.27032 0.0
H841 H 0.86676 0.35272 0.31962 0.0
H842 H 0.85157 0.37671 0.26834 0.0
H843 H 0.84174 0.37077 0.21078 0.0
H844 H 0.87486 0.28635 0.16049 0.0
H845 H 0.89832 0.26552 0.21074 0.0
C846 C 0.89149 0.29211 0.26975 0.0
C847 C 0.88503 0.30846 0.29879 0.0
C848 C 0.88243 0.30571 0.24005 0.0
C849 C 0.87164 0.33947 0.29768 0.0
C850 C 0.86293 0.35323 0.26836 0.0
C851 C 0.85474 0.34811 0.21071 0.0
C852 C 0.85639 0.32988 0.18226 0.0
C853 C 0.86726 0.33613 0.2396 0.0
C854 C 0.87349 0.30079 0.18219 0.0
C855 C 0.88652 0.28877 0.21096 0.0
H856 H 0.61022 0.77806 0.22299 0.0
H857 H 0.67071 0.83664 0.16205 0.0
H858 H 0.69055 0.86586 0.20945 0.0
H859 H 0.69508 0.87013 0.26819 0.0
H860 H 0.63601 0.81005 0.3291 0.0
H861 H 0.61063 0.7862 0.2814 0.0
C862 C 0.62754 0.79744 0.22003 0.0
C863 C 0.63949 0.8049 0.18922 0.0
C864 C 0.63904 0.81368 0.24728 0.0
C865 C 0.66139 0.83039 0.18559 0.0
C866 C 0.67277 0.84697 0.21266 0.0
C867 C 0.67631 0.85212 0.27106 0.0
C868 C 0.66769 0.84145 0.30205 0.0
C869 C 0.66243 0.83814 0.24363 0.0
C870 C 0.64309 0.8185 0.30547 0.0
C871 C 0.62876 0.80476 0.27823 0.0
H872 H 0.21357 0.60941 0.2261 0.0
H873 H 0.15188 0.66813 0.16648 0.0
H874 H 0.12584 0.68991 0.21468 0.0
H875 H 0.12567 0.69709 0.27329 0.0
H876 H 0.18855 0.63978 0.33298 0.0
H877 H 0.20892 0.61206 0.285 0.0
C878 C 0.19411 0.62667 0.22362 0.0
C879 C 0.18495 0.63761 0.19284 0.0
C880 C 0.17974 0.63939 0.25137 0.0
C881 C 0.15942 0.65952 0.18992 0.0
C882 C 0.14468 0.67206 0.21746 0.0
C883 C 0.14356 0.67823 0.27584 0.0
C884 C 0.15608 0.67079 0.30649 0.0
C885 C 0.15543 0.66294 0.24824 0.0
C886 C 0.17873 0.64596 0.3096 0.0
C887 C 0.19046 0.63029 0.28218 0.0
H888 H 0.37982 0.78209 0.7627 0.0
H889 H 0.32844 0.8333 0.83714 0.0
H890 H 0.29967 0.86433 0.79618 0.0
H891 H 0.28373 0.87081 0.7398 0.0
H892 H 0.33349 0.81836 0.66525 0.0
H893 H 0.36883 0.79393 0.70584 0.0
C894 C 0.36271 0.80044 0.76997 0.0
C895 C 0.35572 0.80507 0.80279 0.0
C896 C 0.34585 0.81757 0.74634 0.0
C897 C 0.33399 0.82922 0.81198 0.0
C898 C 0.31744 0.84678 0.78859 0.0
C899 C 0.3026 0.85432 0.73242 0.0
C900 C 0.30573 0.84573 0.69982 0.0
C901 C 0.32229 0.84019 0.75579 0.0
C902 C 0.33061 0.82502 0.69031 0.0
C903 C 0.35064 0.81101 0.71349 0.0
H904 H 0.22763 0.39343 0.76176 0.0
H905 H 0.30655 0.32619 0.75969 0.0
H906 H 0.29337 0.31221 0.70365 0.0
H907 H 0.25368 0.31295 0.65913 0.0
H908 H 0.17487 0.38065 0.66179 0.0
H909 H 0.19435 0.40152 0.71329 0.0
C910 C 0.24241 0.37632 0.74866 0.0
C911 C 0.26776 0.36053 0.76466 0.0
C912 C 0.23462 0.36851 0.71666 0.0
C913 C 0.28699 0.33862 0.74766 0.0
C914 C 0.27929 0.33053 0.71576 0.0
C915 C 0.24137 0.33299 0.67047 0.0
C916 C 0.21256 0.34491 0.65685 0.0
C917 C 0.25237 0.34444 0.70048 0.0
C918 C 0.19703 0.371 0.67172 0.0
C919 C 0.20796 0.38271 0.70139 0.0
H920 H 0.71334 0.12318 0.73098 0.0
H921 H 0.66462 0.18348 0.66186 0.0
H922 H 0.63073 0.20563 0.70488 0.0
H923 H 0.62122 0.21329 0.76278 0.0
H924 H 0.67216 0.1545 0.8318 0.0
H925 H 0.69871 0.12569 0.7879 0.0
C926 C 0.69498 0.14089 0.72528 0.0
C927 C 0.6918 0.15233 0.69359 0.0
C928 C 0.67625 0.15379 0.75006 0.0
C929 C 0.66754 0.17461 0.68621 0.0
C930 C 0.64836 0.18733 0.71079 0.0
C931 C 0.6377 0.19377 0.76821 0.0
C932 C 0.64526 0.18637 0.80043 0.0
C933 C 0.65343 0.17795 0.74293 0.0
C934 C 0.66621 0.16076 0.80717 0.0
C935 C 0.6815 0.14444 0.78211 0.0
H936 H 0.74022 0.65117 0.66227 0.0
H937 H 0.82835 0.59626 0.66277 0.0
H938 H 0.81414 0.57341 0.71507 0.0
H939 H 0.78443 0.58141 0.76573 0.0
H940 H 0.69755 0.63816 0.76626 0.0
H941 H 0.703 0.64762 0.70828 0.0
C942 C 0.75552 0.63302 0.6732 0.0
C943 C 0.78556 0.62583 0.65915 0.0
C944 C 0.74774 0.62101 0.70379 0.0
C945 C 0.80515 0.60216 0.67318 0.0
C946 C 0.79725 0.5895 0.70335 0.0
C947 C 0.766 0.5947 0.75276 0.0
C948 C 0.7409 0.60951 0.76998 0.0
C949 C 0.76978 0.60057 0.71973 0.0
C950 C 0.71699 0.62654 0.7533 0.0
C951 C 0.72034 0.63222 0.72025 0.0
H952 H 0.21928 0.38355 0.19358 0.0
H953 H 0.24738 0.34192 0.28432 0.0
H954 H 0.30336 0.33716 0.26511 0.0
H955 H 0.34165 0.33734 0.21905 0.0
H956 H 0.31128 0.37721 0.12813 0.0
H957 H 0.25905 0.39147 0.15115 0.0
C958 C 0.23782 0.37386 0.20931 0.0
C959 C 0.2294 0.36243 0.23996 0.0
C960 C 0.26951 0.37123 0.19808 0.0
C961 C 0.25349 0.35057 0.26049 0.0
C962 C 0.28537 0.34783 0.24946 0.0
C963 C 0.32401 0.35036 0.20481 0.0
C964 C 0.33016 0.35647 0.17204 0.0
C965 C 0.29342 0.35713 0.21787 0.0
C966 C 0.30699 0.37258 0.15345 0.0
C967 C 0.27705 0.38034 0.16648 0.0
H968 H 0.27342 0.70758 0.86753 0.0
H969 H 0.33045 0.65037 0.80219 0.0
H970 H 0.28123 0.62433 0.782 0.0
H971 H 0.22202 0.62078 0.78047 0.0
H972 H 0.16507 0.67851 0.84545 0.0
H973 H 0.21453 0.70133 0.8686 0.0
C974 C 0.27516 0.68928 0.84896 0.0
C975 C 0.30554 0.68115 0.83605 0.0
C976 C 0.24684 0.67465 0.83745 0.0
C977 C 0.30739 0.6571 0.81239 0.0
C978 C 0.27925 0.64232 0.80082 0.0
C979 C 0.22038 0.6382 0.79988 0.0
C980 C 0.18987 0.64821 0.81105 0.0
C981 C 0.24884 0.65135 0.81279 0.0
C982 C 0.18821 0.67048 0.83641 0.0
C983 C 0.21647 0.6836 0.84953 0.0
H984 H 0.29574 0.2726 0.9154 0.0
H985 H 0.20711 0.2747 0.86108 0.0
H986 H 0.21118 0.21672 0.85135 0.0
H987 H 0.24802 0.17072 0.84552 0.0
H988 H 0.33831 0.1699 0.89722 0.0
H989 H 0.3251 0.22162 0.92194 0.0
C990 C 0.27658 0.25996 0.90273 0.0
C991 C 0.25146 0.27765 0.88847 0.0
C992 C 0.27976 0.22697 0.89639 0.0
C993 C 0.22661 0.26139 0.87224 0.0
C994 C 0.22921 0.22834 0.86634 0.0
C995 C 0.26406 0.18121 0.86338 0.0
C996 C 0.29439 0.16708 0.86905 0.0
C997 C 0.25684 0.21152 0.87639 0.0
C998 C 0.3149 0.18046 0.89243 0.0
C999 C 0.30754 0.21029 0.90618 0.0
H1000 H 0.7305 0.28468 0.86725 0.0
H1001 H 0.67008 0.34054 0.80379 0.0
H1002 H 0.71802 0.36855 0.7831 0.0
H1003 H 0.77734 0.3741 0.78065 0.0
H1004 H 0.83708 0.31762 0.84434 0.0
H1005 H 0.7889 0.29291 0.86762 0.0
C1006 C 0.72773 0.3031 0.84895 0.0
C1007 C 0.69683 0.31027 0.83669 0.0
C1008 C 0.75524 0.31884 0.83725 0.0
C1009 C 0.6936 0.33456 0.81348 0.0
C1010 C 0.72101 0.35044 0.80162 0.0
C1011 C 0.77982 0.35659 0.79984 0.0
C1012 C 0.81082 0.34751 0.8106 0.0
C1013 C 0.75199 0.34233 0.81294 0.0
C1014 C 0.81358 0.32497 0.8356 0.0
C1015 C 0.78604 0.31077 0.84882 0.0
H1016 H 0.71447 0.72715 0.89504 0.0
H1017 H 0.802 0.73444 0.83973 0.0
H1018 H 0.79245 0.7922 0.83176 0.0
H1019 H 0.75331 0.83674 0.83145 0.0
H1020 H 0.66531 0.82853 0.88621 0.0
H1021 H 0.68174 0.7754 0.90511 0.0
C1022 C 0.7319 0.74169 0.88208 0.0
C1023 C 0.75856 0.72686 0.86747 0.0
C1024 C 0.72615 0.7746 0.87765 0.0
C1025 C 0.78127 0.74561 0.85099 0.0
C1026 C 0.77571 0.77849 0.84637 0.0
C1027 C 0.73835 0.82383 0.84855 0.0
C1028 C 0.70782 0.83614 0.85687 0.0
C1029 C 0.74741 0.79282 0.8583 0.0
C1030 C 0.68882 0.81949 0.87933 0.0
C1031 C 0.69798 0.78887 0.88973 0.0
H1032 H 0.72466 0.71391 0.11645 0.0
H1033 H 0.66193 0.65197 0.17155 0.0
H1034 H 0.70905 0.62522 0.19502 0.0
H1035 H 0.76754 0.62352 0.20383 0.0
H1036 H 0.83022 0.68646 0.14982 0.0
H1037 H 0.78339 0.70867 0.12149 0.0
C1038 C 0.72126 0.6943 0.13335 0.0
C1039 C 0.68989 0.68515 0.14265 0.0
C1040 C 0.74836 0.67945 0.14696 0.0
C1041 C 0.68584 0.65948 0.16416 0.0
C1042 C 0.71275 0.64432 0.17765 0.0
C1043 C 0.77102 0.64187 0.18559 0.0
C1044 C 0.80221 0.6537 0.17917 0.0
C1045 C 0.74405 0.65473 0.16985 0.0
C1046 C 0.80643 0.6771 0.15522 0.0
C1047 C 0.77967 0.68987 0.13917 0.0
H1048 H 0.36272 0.77215 0.20304 0.0
H1049 H 0.30027 0.83248 0.14589 0.0
H1050 H 0.27741 0.78463 0.11978 0.0
H1051 H 0.27193 0.72592 0.11719 0.0
H1052 H 0.33374 0.66569 0.17518 0.0
H1053 H 0.36053 0.71358 0.197 0.0
C1054 C 0.34427 0.77486 0.18466 0.0
C1055 C 0.33277 0.80568 0.17664 0.0
C1056 C 0.33114 0.74739 0.17016 0.0
C1057 C 0.30933 0.80896 0.15248 0.0
C1058 C 0.29622 0.78164 0.1377 0.0
C1059 C 0.29146 0.72324 0.13443 0.0
C1060 C 0.30062 0.6924 0.14498 0.0
C1061 C 0.30641 0.75077 0.14698 0.0
C1062 C 0.32623 0.68921 0.16688 0.0
C1063 C 0.34142 0.71655 0.17939 0.0
H1064 H 0.69435 0.30462 0.15134 0.0
H1065 H 0.77287 0.24224 0.12411 0.0
H1066 H 0.74313 0.19554 0.14366 0.0
H1067 H 0.69776 0.17346 0.17471 0.0
H1068 H 0.62043 0.2363 0.20381 0.0
H1069 H 0.64619 0.28153 0.17656 0.0
C1070 C 0.70477 0.28076 0.14944 0.0
C1071 C 0.7359 0.27692 0.13692 0.0
C1072 C 0.68766 0.25403 0.16093 0.0
C1073 C 0.74901 0.24585 0.13408 0.0
C1074 C 0.73203 0.21909 0.14519 0.0
C1075 C 0.68618 0.19685 0.17416 0.0
C1076 C 0.65755 0.2018 0.1913 0.0
C1077 C 0.70171 0.223 0.15946 0.0
C1078 C 0.64273 0.23218 0.19084 0.0
C1079 C 0.65751 0.25806 0.17549 0.0
loop_
_geom_bond_atom_site_label_1
_geom_bond_atom_site_label_2
_geom_bond_distance
_geom_bond_site_symmetry_2
_ccdc_geom_bond_type
In0 O1 2.294 . S
In0 O2 2.326 . S
In0 O6 2.266 . S
In0 O7 2.326 . S
In0 O8 2.266 . S
In0 O9 2.326 . S
In0 O11 2.294 . S
In0 O12 2.326 . S
O1 In0 2.294 . S
O1 C10 1.240 . S
O2 In0 2.326 . S
O2 C10 1.252 . S
C3 O6 1.252 . S
C3 O7 1.260 . S
C4 O11 1.240 . S
C4 O12 1.252 . S
C5 O8 1.252 . S
C5 O9 1.260 . S
O6 In0 2.266 . S
O6 C3 1.252 . S
O7 In0 2.326 . S
O7 C3 1.260 . S
O8 In0 2.266 . S
O8 C5 1.252 . S
O9 In0 2.326 . S
O9 C5 1.260 . S
C10 O1 1.240 . S
C10 O2 1.252 . S
O11 In0 2.294 . S
O11 C4 1.240 . S
O12 In0 2.326 . S
O12 C4 1.252 . S
In13 O14 2.294 . S
In13 O15 2.326 . S
In13 O19 2.266 . S
In13 O20 2.326 . S
In13 O21 2.266 . S
In13 O22 2.326 . S
In13 O24 2.294 . S
In13 O25 2.326 . S
O14 In13 2.294 . S
O14 C23 1.240 . S
O15 In13 2.326 . S
O15 C23 1.252 . S
C16 O19 1.252 . S
C16 O20 1.260 . S
C17 O24 1.240 . S
C17 O25 1.252 . S
C18 O21 1.252 . S
C18 O22 1.260 . S
O19 In13 2.266 . S
O19 C16 1.252 . S
O20 In13 2.326 . S
O20 C16 1.260 . S
O21 In13 2.266 . S
O21 C18 1.252 . S
O22 In13 2.326 . S
O22 C18 1.260 . S
C23 O14 1.240 . S
C23 O15 1.252 . S
O24 In13 2.294 . S
O24 C17 1.240 . S
O25 In13 2.326 . S
O25 C17 1.252 . S
In26 O27 2.294 . S
In26 O28 2.326 . S
In26 O32 2.266 . S
In26 O33 2.326 . S
In26 O34 2.266 . S
In26 O35 2.326 . S
In26 O37 2.294 . S
In26 O38 2.326 . S
O27 In26 2.294 . S
O27 C36 1.240 . S
O28 In26 2.326 . S
O28 C36 1.252 . S
C29 O32 1.252 . S
C29 O33 1.260 . S
C30 O37 1.240 . S
C30 O38 1.252 . S
C31 O34 1.252 . S
C31 O35 1.260 . S
O32 In26 2.266 . S
O32 C29 1.252 . S
O33 In26 2.326 . S
O33 C29 1.260 . S
O34 In26 2.266 . S
O34 C31 1.252 . S
O35 In26 2.326 . S
O35 C31 1.260 . S
C36 O27 1.240 . S
C36 O28 1.252 . S
O37 In26 2.294 . S
O37 C30 1.240 . S
O38 In26 2.326 . S
O38 C30 1.252 . S
In39 O40 2.294 . S
In39 O41 2.326 . S
In39 O45 2.266 . S
In39 O46 2.326 . S
In39 O47 2.266 . S
In39 O48 2.326 . S
In39 O50 2.294 . S
In39 O51 2.326 . S
O40 In39 2.294 . S
O40 C49 1.240 . S
O41 In39 2.326 . S
O41 C49 1.252 . S
C42 O45 1.252 . S
C42 O46 1.260 . S
C43 O50 1.240 . S
C43 O51 1.252 . S
C44 O47 1.252 . S
C44 O48 1.260 . S
O45 In39 2.266 . S
O45 C42 1.252 . S
O46 In39 2.326 . S
O46 C42 1.260 . S
O47 In39 2.266 . S
O47 C44 1.252 . S
O48 In39 2.326 . S
O48 C44 1.260 . S
C49 O40 1.240 . S
C49 O41 1.252 . S
O50 In39 2.294 . S
O50 C43 1.240 . S
O51 In39 2.326 . S
O51 C43 1.252 . S
In52 O53 2.294 . S
In52 O54 2.326 . S
In52 O58 2.266 . S
In52 O59 2.326 . S
In52 O60 2.266 . S
In52 O61 2.326 . S
In52 O63 2.294 . S
In52 O64 2.326 . S
O53 In52 2.294 . S
O53 C62 1.240 . S
O54 In52 2.326 . S
O54 C62 1.252 . S
C55 O58 1.252 . S
C55 O59 1.260 . S
C56 O63 1.240 . S
C56 O64 1.252 . S
C57 O60 1.252 . S
C57 O61 1.260 . S
O58 In52 2.266 . S
O58 C55 1.252 . S
O59 In52 2.326 . S
O59 C55 1.260 . S
O60 In52 2.266 . S
O60 C57 1.252 . S
O61 In52 2.326 . S
O61 C57 1.260 . S
C62 O53 1.240 . S
C62 O54 1.252 . S
O63 In52 2.294 . S
O63 C56 1.240 . S
O64 In52 2.326 . S
O64 C56 1.252 . S
In65 O66 2.294 . S
In65 O67 2.326 . S
In65 O71 2.266 . S
In65 O72 2.326 . S
In65 O73 2.266 . S
In65 O74 2.326 . S
In65 O76 2.294 . S
In65 O77 2.326 . S
O66 In65 2.294 . S
O66 C75 1.240 . S
O67 In65 2.326 . S
O67 C75 1.252 . S
C68 O71 1.252 . S
C68 O72 1.260 . S
C69 O76 1.240 . S
C69 O77 1.252 . S
C70 O73 1.252 . S
C70 O74 1.260 . S
O71 In65 2.266 . S
O71 C68 1.252 . S
O72 In65 2.326 . S
O72 C68 1.260 . S
O73 In65 2.266 . S
O73 C70 1.252 . S
O74 In65 2.326 . S
O74 C70 1.260 . S
C75 O66 1.240 . S
C75 O67 1.252 . S
O76 In65 2.294 . S
O76 C69 1.240 . S
O77 In65 2.326 . S
O77 C69 1.252 . S
In78 O79 2.294 . S
In78 O80 2.326 . S
In78 O84 2.266 . S
In78 O85 2.326 . S
In78 O86 2.266 . S
In78 O87 2.326 . S
In78 O89 2.294 . S
In78 O90 2.326 . S
O79 In78 2.294 . S
O79 C88 1.240 . S
O80 In78 2.326 . S
O80 C88 1.252 . S
C81 O84 1.252 . S
C81 O85 1.260 . S
C82 O89 1.240 . S
C82 O90 1.252 . S
C83 O86 1.252 . S
C83 O87 1.260 . S
O84 In78 2.266 . S
O84 C81 1.252 . S
O85 In78 2.326 . S
O85 C81 1.260 . S
O86 In78 2.266 . S
O86 C83 1.252 . S
O87 In78 2.326 . S
O87 C83 1.260 . S
C88 O79 1.240 . S
C88 O80 1.252 . S
O89 In78 2.294 . S
O89 C82 1.240 . S
O90 In78 2.326 . S
O90 C82 1.252 . S
In91 O92 2.294 . S
In91 O93 2.326 . S
In91 O97 2.266 . S
In91 O98 2.326 . S
In91 O99 2.266 . S
In91 O100 2.326 . S
In91 O102 2.294 . S
In91 O103 2.326 . S
O92 In91 2.294 . S
O92 C101 1.240 . S
O93 In91 2.326 . S
O93 C101 1.252 . S
C94 O97 1.252 . S
C94 O98 1.260 . S
C95 O102 1.240 . S
C95 O103 1.252 . S
C96 O99 1.252 . S
C96 O100 1.260 . S
O97 In91 2.266 . S
O97 C94 1.252 . S
O98 In91 2.326 . S
O98 C94 1.260 . S
O99 In91 2.266 . S
O99 C96 1.252 . S
O100 In91 2.326 . S
O100 C96 1.260 . S
C101 O92 1.240 . S
C101 O93 1.252 . S
O102 In91 2.294 . S
O102 C95 1.240 . S
O103 In91 2.326 . S
O103 C95 1.252 . S
In104 O105 2.294 . S
In104 O106 2.326 . S
In104 O110 2.266 . S
In104 O111 2.326 . S
In104 O112 2.266 . S
In104 O113 2.326 . S
In104 O115 2.294 . S
In104 O116 2.326 . S
O105 In104 2.294 . S
O105 C114 1.240 . S
O106 In104 2.326 . S
O106 C114 1.252 . S
C107 O110 1.252 . S
C107 O111 1.260 . S
C108 O115 1.240 . S
C108 O116 1.252 . S
C109 O112 1.252 . S
C109 O113 1.260 . S
O110 In104 2.266 . S
O110 C107 1.252 . S
O111 In104 2.326 . S
O111 C107 1.260 . S
O112 In104 2.266 . S
O112 C109 1.252 . S
O113 In104 2.326 . S
O113 C109 1.260 . S
C114 O105 1.240 . S
C114 O106 1.252 . S
O115 In104 2.294 . S
O115 C108 1.240 . S
O116 In104 2.326 . S
O116 C108 1.252 . S
In117 O118 2.294 . S
In117 O119 2.326 . S
In117 O123 2.266 . S
In117 O124 2.326 . S
In117 O125 2.266 . S
In117 O126 2.326 . S
In117 O128 2.294 . S
In117 O129 2.326 . S
O118 In117 2.294 . S
O118 C127 1.240 . S
O119 In117 2.326 . S
O119 C127 1.252 . S
C120 O123 1.252 . S
C120 O124 1.260 . S
C121 O128 1.240 . S
C121 O129 1.252 . S
C122 O125 1.252 . S
C122 O126 1.260 . S
O123 In117 2.266 . S
O123 C120 1.252 . S
O124 In117 2.326 . S
O124 C120 1.260 . S
O125 In117 2.266 . S
O125 C122 1.252 . S
O126 In117 2.326 . S
O126 C122 1.260 . S
C127 O118 1.240 . S
C127 O119 1.252 . S
O128 In117 2.294 . S
O128 C121 1.240 . S
O129 In117 2.326 . S
O129 C121 1.252 . S
In130 O131 2.294 . S
In130 O132 2.326 . S
In130 O136 2.266 . S
In130 O137 2.326 . S
In130 O138 2.266 . S
In130 O139 2.326 . S
In130 O141 2.294 . S
In130 O142 2.326 . S
O131 In130 2.294 . S
O131 C140 1.240 . S
O132 In130 2.326 . S
O132 C140 1.252 . S
C133 O136 1.252 . S
C133 O137 1.260 . S
C134 O141 1.240 . S
C134 O142 1.252 . S
C135 O138 1.252 . S
C135 O139 1.260 . S
O136 In130 2.266 . S
O136 C133 1.252 . S
O137 In130 2.326 . S
O137 C133 1.260 . S
O138 In130 2.266 . S
O138 C135 1.252 . S
O139 In130 2.326 . S
O139 C135 1.260 . S
C140 O131 1.240 . S
C140 O132 1.252 . S
O141 In130 2.294 . S
O141 C134 1.240 . S
O142 In130 2.326 . S
O142 C134 1.252 . S
In143 O144 2.294 . S
In143 O145 2.326 . S
In143 O149 2.266 . S
In143 O150 2.326 . S
In143 O151 2.266 . S
In143 O152 2.326 . S
In143 O154 2.294 . S
In143 O155 2.326 . S
O144 In143 2.294 . S
O144 C153 1.240 . S
O145 In143 2.326 . S
O145 C153 1.252 . S
C146 O149 1.252 . S
C146 O150 1.260 . S
C147 O154 1.240 . S
C147 O155 1.252 . S
C148 O151 1.252 . S
C148 O152 1.260 . S
O149 In143 2.266 . S
O149 C146 1.252 . S
O150 In143 2.326 . S
O150 C146 1.260 . S
O151 In143 2.266 . S
O151 C148 1.252 . S
O152 In143 2.326 . S
O152 C148 1.260 . S
C153 O144 1.240 . S
C153 O145 1.252 . S
O154 In143 2.294 . S
O154 C147 1.240 . S
O155 In143 2.326 . S
O155 C147 1.252 . S
In156 O157 2.294 . S
In156 O158 2.326 . S
In156 O162 2.266 . S
In156 O163 2.326 . S
In156 O164 2.266 . S
In156 O165 2.326 . S
In156 O167 2.294 . S
In156 O168 2.326 . S
O157 In156 2.294 . S
O157 C166 1.240 . S
O158 In156 2.326 . S
O158 C166 1.252 . S
C159 O162 1.252 . S
C159 O163 1.260 . S
C160 O167 1.240 . S
C160 O168 1.252 . S
C161 O164 1.252 . S
C161 O165 1.260 . S
O162 In156 2.266 . S
O162 C159 1.252 . S
O163 In156 2.326 . S
O163 C159 1.260 . S
O164 In156 2.266 . S
O164 C161 1.252 . S
O165 In156 2.326 . S
O165 C161 1.260 . S
C166 O157 1.240 . S
C166 O158 1.252 . S
O167 In156 2.294 . S
O167 C160 1.240 . S
O168 In156 2.326 . S
O168 C160 1.252 . S
In169 O170 2.294 . S
In169 O171 2.326 . S
In169 O175 2.266 . S
In169 O176 2.326 . S
In169 O177 2.266 . S
In169 O178 2.326 . S
In169 O180 2.294 . S
In169 O181 2.326 . S
O170 In169 2.294 . S
O170 C179 1.240 . S
O171 In169 2.326 . S
O171 C179 1.252 . S
C172 O175 1.252 . S
C172 O176 1.260 . S
C173 O180 1.240 . S
C173 O181 1.252 . S
C174 O177 1.252 . S
C174 O178 1.260 . S
O175 In169 2.266 . S
O175 C172 1.252 . S
O176 In169 2.326 . S
O176 C172 1.260 . S
O177 In169 2.266 . S
O177 C174 1.252 . S
O178 In169 2.326 . S
O178 C174 1.260 . S
C179 O170 1.240 . S
C179 O171 1.252 . S
O180 In169 2.294 . S
O180 C173 1.240 . S
O181 In169 2.326 . S
O181 C173 1.252 . S
In182 O183 2.294 . S
In182 O184 2.326 . S
In182 O188 2.266 . S
In182 O189 2.326 . S
In182 O190 2.266 . S
In182 O191 2.326 . S
In182 O193 2.294 . S
In182 O194 2.326 . S
O183 In182 2.294 . S
O183 C192 1.240 . S
O184 In182 2.326 . S
O184 C192 1.252 . S
C185 O188 1.252 . S
C185 O189 1.260 . S
C186 O193 1.240 . S
C186 O194 1.252 . S
C187 O190 1.252 . S
C187 O191 1.260 . S
O188 In182 2.266 . S
O188 C185 1.252 . S
O189 In182 2.326 . S
O189 C185 1.260 . S
O190 In182 2.266 . S
O190 C187 1.252 . S
O191 In182 2.326 . S
O191 C187 1.260 . S
C192 O183 1.240 . S
C192 O184 1.252 . S
O193 In182 2.294 . S
O193 C186 1.240 . S
O194 In182 2.326 . S
O194 C186 1.252 . S
In195 O196 2.294 . S
In195 O197 2.326 . S
In195 O201 2.266 . S
In195 O202 2.326 . S
In195 O203 2.266 . S
In195 O204 2.326 . S
In195 O206 2.294 . S
In195 O207 2.326 . S
O196 In195 2.294 . S
O196 C205 1.240 . S
O197 In195 2.326 . S
O197 C205 1.252 . S
C198 O201 1.252 . S
C198 O202 1.260 . S
C199 O206 1.240 . S
C199 O207 1.252 . S
C200 O203 1.252 . S
C200 O204 1.260 . S
O201 In195 2.266 . S
O201 C198 1.252 . S
O202 In195 2.326 . S
O202 C198 1.260 . S
O203 In195 2.266 . S
O203 C200 1.252 . S
O204 In195 2.326 . S
O204 C200 1.260 . S
C205 O196 1.240 . S
C205 O197 1.252 . S
O206 In195 2.294 . S
O206 C199 1.240 . S
O207 In195 2.326 . S
O207 C199 1.252 . S
In208 O209 2.294 . S
In208 O210 2.326 . S
In208 O214 2.266 . S
In208 O215 2.326 . S
In208 O216 2.266 . S
In208 O217 2.326 . S
In208 O219 2.294 . S
In208 O220 2.326 . S
O209 In208 2.294 . S
O209 C218 1.240 . S
O210 In208 2.326 . S
O210 C218 1.252 . S
C211 O214 1.252 . S
C211 O215 1.260 . S
C212 O219 1.240 . S
C212 O220 1.252 . S
C213 O216 1.252 . S
C213 O217 1.260 . S
O214 In208 2.266 . S
O214 C211 1.252 . S
O215 In208 2.326 . S
O215 C211 1.260 . S
O216 In208 2.266 . S
O216 C213 1.252 . S
O217 In208 2.326 . S
O217 C213 1.260 . S
C218 O209 1.240 . S
C218 O210 1.252 . S
O219 In208 2.294 . S
O219 C212 1.240 . S
O220 In208 2.326 . S
O220 C212 1.252 . S
In221 O222 2.294 . S
In221 O223 2.326 . S
In221 O227 2.266 . S
In221 O228 2.326 . S
In221 O229 2.266 . S
In221 O230 2.326 . S
In221 O232 2.294 . S
In221 O233 2.326 . S
O222 In221 2.294 . S
O222 C231 1.240 . S
O223 In221 2.326 . S
O223 C231 1.252 . S
C224 O227 1.252 . S
C224 O228 1.260 . S
C225 O232 1.240 . S
C225 O233 1.252 . S
C226 O229 1.252 . S
C226 O230 1.260 . S
O227 In221 2.266 . S
O227 C224 1.252 . S
O228 In221 2.326 . S
O228 C224 1.260 . S
O229 In221 2.266 . S
O229 C226 1.252 . S
O230 In221 2.326 . S
O230 C226 1.260 . S
C231 O222 1.240 . S
C231 O223 1.252 . S
O232 In221 2.294 . S
O232 C225 1.240 . S
O233 In221 2.326 . S
O233 C225 1.252 . S
In234 O235 2.294 . S
In234 O236 2.326 . S
In234 O240 2.266 . S
In234 O241 2.326 . S
In234 O242 2.266 . S
In234 O243 2.326 . S
In234 O245 2.294 . S
In234 O246 2.326 . S
O235 In234 2.294 . S
O235 C244 1.240 . S
O236 In234 2.326 . S
O236 C244 1.252 . S
C237 O240 1.252 . S
C237 O241 1.260 . S
C238 O245 1.240 . S
C238 O246 1.252 . S
C239 O242 1.252 . S
C239 O243 1.260 . S
O240 In234 2.266 . S
O240 C237 1.252 . S
O241 In234 2.326 . S
O241 C237 1.260 . S
O242 In234 2.266 . S
O242 C239 1.252 . S
O243 In234 2.326 . S
O243 C239 1.260 . S
C244 O235 1.240 . S
C244 O236 1.252 . S
O245 In234 2.294 . S
O245 C238 1.240 . S
O246 In234 2.326 . S
O246 C238 1.252 . S
In247 O248 2.294 . S
In247 O249 2.326 . S
In247 O253 2.266 . S
In247 O254 2.326 . S
In247 O255 2.266 . S
In247 O256 2.326 . S
In247 O258 2.294 . S
In247 O259 2.326 . S
O248 In247 2.294 . S
O248 C257 1.240 . S
O249 In247 2.326 . S
O249 C257 1.252 . S
C250 O253 1.252 . S
C250 O254 1.260 . S
C251 O258 1.240 . S
C251 O259 1.252 . S
C252 O255 1.252 . S
C252 O256 1.260 . S
O253 In247 2.266 . S
O253 C250 1.252 . S
O254 In247 2.326 . S
O254 C250 1.260 . S
O255 In247 2.266 . S
O255 C252 1.252 . S
O256 In247 2.326 . S
O256 C252 1.260 . S
C257 O248 1.240 . S
C257 O249 1.252 . S
O258 In247 2.294 . S
O258 C251 1.240 . S
O259 In247 2.326 . S
O259 C251 1.252 . S
In260 O261 2.294 . S
In260 O262 2.326 . S
In260 O266 2.266 . S
In260 O267 2.326 . S
In260 O268 2.266 . S
In260 O269 2.326 . S
In260 O271 2.294 . S
In260 O272 2.326 . S
O261 In260 2.294 . S
O261 C270 1.240 . S
O262 In260 2.326 . S
O262 C270 1.252 . S
C263 O266 1.252 . S
C263 O267 1.260 . S
C264 O271 1.240 . S
C264 O272 1.252 . S
C265 O268 1.252 . S
C265 O269 1.260 . S
O266 In260 2.266 . S
O266 C263 1.252 . S
O267 In260 2.326 . S
O267 C263 1.260 . S
O268 In260 2.266 . S
O268 C265 1.252 . S
O269 In260 2.326 . S
O269 C265 1.260 . S
C270 O261 1.240 . S
C270 O262 1.252 . S
O271 In260 2.294 . S
O271 C264 1.240 . S
O272 In260 2.326 . S
O272 C264 1.252 . S
In273 O274 2.294 . S
In273 O275 2.326 . S
In273 O279 2.266 . S
In273 O280 2.326 . S
In273 O281 2.266 . S
In273 O282 2.326 . S
In273 O284 2.294 . S
In273 O285 2.326 . S
O274 In273 2.294 . S
O274 C283 1.240 . S
O275 In273 2.326 . S
O275 C283 1.252 . S
C276 O279 1.252 . S
C276 O280 1.260 . S
C277 O284 1.240 . S
C277 O285 1.252 . S
C278 O281 1.252 . S
C278 O282 1.260 . S
O279 In273 2.266 . S
O279 C276 1.252 . S
O280 In273 2.326 . S
O280 C276 1.260 . S
O281 In273 2.266 . S
O281 C278 1.252 . S
O282 In273 2.326 . S
O282 C278 1.260 . S
C283 O274 1.240 . S
C283 O275 1.252 . S
O284 In273 2.294 . S
O284 C277 1.240 . S
O285 In273 2.326 . S
O285 C277 1.252 . S
In286 O287 2.294 . S
In286 O288 2.326 . S
In286 O292 2.266 . S
In286 O293 2.326 . S
In286 O294 2.266 . S
In286 O295 2.326 . S
In286 O297 2.294 . S
In286 O298 2.326 . S
O287 In286 2.294 . S
O287 C296 1.240 . S
O288 In286 2.326 . S
O288 C296 1.252 . S
C289 O292 1.252 . S
C289 O293 1.260 . S
C290 O297 1.240 . S
C290 O298 1.252 . S
C291 O294 1.252 . S
C291 O295 1.260 . S
O292 In286 2.266 . S
O292 C289 1.252 . S
O293 In286 2.326 . S
O293 C289 1.260 . S
O294 In286 2.266 . S
O294 C291 1.252 . S
O295 In286 2.326 . S
O295 C291 1.260 . S
C296 O287 1.240 . S
C296 O288 1.252 . S
O297 In286 2.294 . S
O297 C290 1.240 . S
O298 In286 2.326 . S
O298 C290 1.252 . S
In299 O300 2.294 . S
In299 O301 2.326 . S
In299 O305 2.266 . S
In299 O306 2.326 . S
In299 O307 2.266 . S
In299 O308 2.326 . S
In299 O310 2.294 . S
In299 O311 2.326 . S
O300 In299 2.294 . S
O300 C309 1.240 . S
O301 In299 2.326 . S
O301 C309 1.252 . S
C302 O305 1.252 . S
C302 O306 1.260 . S
C303 O310 1.240 . S
C303 O311 1.252 . S
C304 O307 1.252 . S
C304 O308 1.260 . S
O305 In299 2.266 . S
O305 C302 1.252 . S
O306 In299 2.326 . S
O306 C302 1.260 . S
O307 In299 2.266 . S
O307 C304 1.252 . S
O308 In299 2.326 . S
O308 C304 1.260 . S
C309 O300 1.240 . S
C309 O301 1.252 . S
O310 In299 2.294 . S
O310 C303 1.240 . S
O311 In299 2.326 . S
O311 C303 1.252 . S
H312 C318 0.930 . S
H313 C321 0.930 . S
H314 C322 0.930 . S
H315 C323 0.930 . S
H316 C326 0.930 . S
H317 C327 0.930 . S
C318 H312 0.930 . S
C318 C319 1.355 . S
C318 C320 1.415 . S
C319 C318 1.355 . S
C319 C321 1.419 . S
C320 C318 1.415 . S
C320 C325 1.425 . S
C320 C327 1.409 . S
C321 H313 0.930 . S
C321 C319 1.419 . S
C321 C322 1.362 . S
C322 H314 0.930 . S
C322 C321 1.362 . S
C322 C325 1.409 . S
C323 H315 0.930 . S
C323 C324 1.355 . S
C323 C325 1.415 . S
C324 C323 1.355 . S
C324 C326 1.419 . S
C325 C320 1.425 . S
C325 C322 1.409 . S
C325 C323 1.415 . S
C326 H316 0.930 . S
C326 C324 1.419 . S
C326 C327 1.362 . S
C327 H317 0.930 . S
C327 C320 1.409 . S
C327 C326 1.362 . S
H328 C334 0.930 . S
H329 C337 0.930 . S
H330 C338 0.930 . S
H331 C339 0.930 . S
H332 C342 0.930 . S
H333 C343 0.930 . S
C334 H328 0.930 . S
C334 C335 1.355 . S
C334 C336 1.415 . S
C335 C334 1.355 . S
C335 C337 1.419 . S
C336 C334 1.415 . S
C336 C341 1.425 . S
C336 C343 1.409 . S
C337 H329 0.930 . S
C337 C335 1.419 . S
C337 C338 1.362 . S
C338 H330 0.930 . S
C338 C337 1.362 . S
C338 C341 1.409 . S
C339 H331 0.930 . S
C339 C340 1.355 . S
C339 C341 1.415 . S
C340 C339 1.355 . S
C340 C342 1.419 . S
C341 C336 1.425 . S
C341 C338 1.409 . S
C341 C339 1.415 . S
C342 H332 0.930 . S
C342 C340 1.419 . S
C342 C343 1.362 . S
C343 H333 0.930 . S
C343 C336 1.409 . S
C343 C342 1.362 . S
H344 C350 0.930 . S
H345 C353 0.930 . S
H346 C354 0.930 . S
H347 C355 0.930 . S
H348 C358 0.930 . S
H349 C359 0.930 . S
C350 H344 0.930 . S
C350 C351 1.355 . S
C350 C352 1.415 . S
C351 C350 1.355 . S
C351 C353 1.419 . S
C352 C350 1.415 . S
C352 C357 1.425 . S
C352 C359 1.409 . S
C353 H345 0.930 . S
C353 C351 1.419 . S
C353 C354 1.362 . S
C354 H346 0.930 . S
C354 C353 1.362 . S
C354 C357 1.409 . S
C355 H347 0.930 . S
C355 C356 1.355 . S
C355 C357 1.415 . S
C356 C355 1.355 . S
C356 C358 1.419 . S
C357 C352 1.425 . S
C357 C354 1.409 . S
C357 C355 1.415 . S
C358 H348 0.930 . S
C358 C356 1.419 . S
C358 C359 1.362 . S
C359 H349 0.930 . S
C359 C352 1.409 . S
C359 C358 1.362 . S
H360 C366 0.930 . S
H361 C369 0.930 . S
H362 C370 0.930 . S
H363 C371 0.930 . S
H364 C374 0.930 . S
H365 C375 0.930 . S
C366 H360 0.930 . S
C366 C367 1.355 . S
C366 C368 1.415 . S
C367 C366 1.355 . S
C367 C369 1.419 . S
C368 C366 1.415 . S
C368 C373 1.425 . S
C368 C375 1.409 . S
C369 H361 0.930 . S
C369 C367 1.419 . S
C369 C370 1.362 . S
C370 H362 0.930 . S
C370 C369 1.362 . S
C370 C373 1.409 . S
C371 H363 0.930 . S
C371 C372 1.355 . S
C371 C373 1.415 . S
C372 C371 1.355 . S
C372 C374 1.419 . S
C373 C368 1.425 . S
C373 C370 1.409 . S
C373 C371 1.415 . S
C374 H364 0.930 . S
C374 C372 1.419 . S
C374 C375 1.362 . S
C375 H365 0.930 . S
C375 C368 1.409 . S
C375 C374 1.362 . S
H376 C382 0.930 . S
H377 C385 0.930 . S
H378 C386 0.930 . S
H379 C387 0.930 . S
H380 C390 0.930 . S
H381 C391 0.930 . S
C382 H376 0.930 . S
C382 C383 1.355 . S
C382 C384 1.415 . S
C383 C382 1.355 . S
C383 C385 1.419 . S
C384 C382 1.415 . S
C384 C389 1.425 . S
C384 C391 1.409 . S
C385 H377 0.930 . S
C385 C383 1.419 . S
C385 C386 1.362 . S
C386 H378 0.930 . S
C386 C385 1.362 . S
C386 C389 1.409 . S
C387 H379 0.930 . S
C387 C388 1.355 . S
C387 C389 1.415 . S
C388 C387 1.355 . S
C388 C390 1.419 . S
C389 C384 1.425 . S
C389 C386 1.409 . S
C389 C387 1.415 . S
C390 H380 0.930 . S
C390 C388 1.419 . S
C390 C391 1.362 . S
C391 H381 0.930 . S
C391 C384 1.409 . S
C391 C390 1.362 . S
H392 C398 0.930 . S
H393 C401 0.930 . S
H394 C402 0.930 . S
H395 C403 0.930 . S
H396 C406 0.930 . S
H397 C407 0.930 . S
C398 H392 0.930 . S
C398 C399 1.355 . S
C398 C400 1.415 . S
C399 C398 1.355 . S
C399 C401 1.419 . S
C400 C398 1.415 . S
C400 C405 1.425 . S
C400 C407 1.409 . S
C401 H393 0.930 . S
C401 C399 1.419 . S
C401 C402 1.362 . S
C402 H394 0.930 . S
C402 C401 1.362 . S
C402 C405 1.409 . S
C403 H395 0.930 . S
C403 C404 1.355 . S
C403 C405 1.415 . S
C404 C403 1.355 . S
C404 C406 1.419 . S
C405 C400 1.425 . S
C405 C402 1.409 . S
C405 C403 1.415 . S
C406 H396 0.930 . S
C406 C404 1.419 . S
C406 C407 1.362 . S
C407 H397 0.930 . S
C407 C400 1.409 . S
C407 C406 1.362 . S
H408 C414 0.930 . S
H409 C417 0.930 . S
H410 C418 0.930 . S
H411 C419 0.930 . S
H412 C422 0.930 . S
H413 C423 0.930 . S
C414 H408 0.930 . S
C414 C415 1.355 . S
C414 C416 1.415 . S
C415 C414 1.355 . S
C415 C417 1.419 . S
C416 C414 1.415 . S
C416 C421 1.425 . S
C416 C423 1.409 . S
C417 H409 0.930 . S
C417 C415 1.419 . S
C417 C418 1.362 . S
C418 H410 0.930 . S
C418 C417 1.362 . S
C418 C421 1.409 . S
C419 H411 0.930 . S
C419 C420 1.355 . S
C419 C421 1.415 . S
C420 C419 1.355 . S
C420 C422 1.419 . S
C421 C416 1.425 . S
C421 C418 1.409 . S
C421 C419 1.415 . S
C422 H412 0.930 . S
C422 C420 1.419 . S
C422 C423 1.362 . S
C423 H413 0.930 . S
C423 C416 1.409 . S
C423 C422 1.362 . S
H424 C430 0.930 . S
H425 C433 0.930 . S
H426 C434 0.930 . S
H427 C435 0.930 . S
H428 C438 0.930 . S
H429 C439 0.930 . S
C430 H424 0.930 . S
C430 C431 1.355 . S
C430 C432 1.415 . S
C431 C430 1.355 . S
C431 C433 1.419 . S
C432 C430 1.415 . S
C432 C437 1.425 . S
C432 C439 1.409 . S
C433 H425 0.930 . S
C433 C431 1.419 . S
C433 C434 1.362 . S
C434 H426 0.930 . S
C434 C433 1.362 . S
C434 C437 1.409 . S
C435 H427 0.930 . S
C435 C436 1.355 . S
C435 C437 1.415 . S
C436 C435 1.355 . S
C436 C438 1.419 . S
C437 C432 1.425 . S
C437 C434 1.409 . S
C437 C435 1.415 . S
C438 H428 0.930 . S
C438 C436 1.419 . S
C438 C439 1.362 . S
C439 H429 0.930 . S
C439 C432 1.409 . S
C439 C438 1.362 . S
H440 C446 0.930 . S
H441 C449 0.930 . S
H442 C450 0.930 . S
H443 C451 0.930 . S
H444 C454 0.930 . S
H445 C455 0.930 . S
C446 H440 0.930 . S
C446 C447 1.355 . S
C446 C448 1.415 . S
C447 C446 1.355 . S
C447 C449 1.419 . S
C448 C446 1.415 . S
C448 C453 1.425 . S
C448 C455 1.409 . S
C449 H441 0.930 . S
C449 C447 1.419 . S
C449 C450 1.362 . S
C450 H442 0.930 . S
C450 C449 1.362 . S
C450 C453 1.409 . S
C451 H443 0.930 . S
C451 C452 1.355 . S
C451 C453 1.415 . S
C452 C451 1.355 . S
C452 C454 1.419 . S
C453 C448 1.425 . S
C453 C450 1.409 . S
C453 C451 1.415 . S
C454 H444 0.930 . S
C454 C452 1.419 . S
C454 C455 1.362 . S
C455 H445 0.930 . S
C455 C448 1.409 . S
C455 C454 1.362 . S
H456 C462 0.930 . S
H457 C465 0.930 . S
H458 C466 0.930 . S
H459 C467 0.930 . S
H460 C470 0.930 . S
H461 C471 0.930 . S
C462 H456 0.930 . S
C462 C463 1.355 . S
C462 C464 1.415 . S
C463 C462 1.355 . S
C463 C465 1.419 . S
C464 C462 1.415 . S
C464 C469 1.425 . S
C464 C471 1.409 . S
C465 H457 0.930 . S
C465 C463 1.419 . S
C465 C466 1.362 . S
C466 H458 0.930 . S
C466 C465 1.362 . S
C466 C469 1.409 . S
C467 H459 0.930 . S
C467 C468 1.355 . S
C467 C469 1.415 . S
C468 C467 1.355 . S
C468 C470 1.419 . S
C469 C464 1.425 . S
C469 C466 1.409 . S
C469 C467 1.415 . S
C470 H460 0.930 . S
C470 C468 1.419 . S
C470 C471 1.362 . S
C471 H461 0.930 . S
C471 C464 1.409 . S
C471 C470 1.362 . S
H472 C478 0.930 . S
H473 C481 0.930 . S
H474 C482 0.930 . S
H475 C483 0.930 . S
H476 C486 0.930 . S
H477 C487 0.930 . S
C478 H472 0.930 . S
C478 C479 1.355 . S
C478 C480 1.415 . S
C479 C478 1.355 . S
C479 C481 1.419 . S
C480 C478 1.415 . S
C480 C485 1.425 . S
C480 C487 1.409 . S
C481 H473 0.930 . S
C481 C479 1.419 . S
C481 C482 1.362 . S
C482 H474 0.930 . S
C482 C481 1.362 . S
C482 C485 1.409 . S
C483 H475 0.930 . S
C483 C484 1.355 . S
C483 C485 1.415 . S
C484 C483 1.355 . S
C484 C486 1.419 . S
C485 C480 1.425 . S
C485 C482 1.409 . S
C485 C483 1.415 . S
C486 H476 0.930 . S
C486 C484 1.419 . S
C486 C487 1.362 . S
C487 H477 0.930 . S
C487 C480 1.409 . S
C487 C486 1.362 . S
H488 C494 0.930 . S
H489 C497 0.930 . S
H490 C498 0.930 . S
H491 C499 0.930 . S
H492 C502 0.930 . S
H493 C503 0.930 . S
C494 H488 0.930 . S
C494 C495 1.355 . S
C494 C496 1.415 . S
C495 C494 1.355 . S
C495 C497 1.419 . S
C496 C494 1.415 . S
C496 C501 1.425 . S
C496 C503 1.409 . S
C497 H489 0.930 . S
C497 C495 1.419 . S
C497 C498 1.362 . S
C498 H490 0.930 . S
C498 C497 1.362 . S
C498 C501 1.409 . S
C499 H491 0.930 . S
C499 C500 1.355 . S
C499 C501 1.415 . S
C500 C499 1.355 . S
C500 C502 1.419 . S
C501 C496 1.425 . S
C501 C498 1.409 . S
C501 C499 1.415 . S
C502 H492 0.930 . S
C502 C500 1.419 . S
C502 C503 1.362 . S
C503 H493 0.930 . S
C503 C496 1.409 . S
C503 C502 1.362 . S
H504 C510 0.930 . S
H505 C513 0.930 . S
H506 C514 0.930 . S
H507 C515 0.930 . S
H508 C518 0.930 . S
H509 C519 0.930 . S
C510 H504 0.930 . S
C510 C511 1.355 . S
C510 C512 1.415 . S
C511 C510 1.355 . S
C511 C513 1.419 . S
C512 C510 1.415 . S
C512 C517 1.425 1_565 S
C512 C519 1.409 . S
C513 H505 0.930 . S
C513 C511 1.419 . S
C513 C514 1.362 1_565 S
C514 H506 0.930 . S
C514 C513 1.362 1_545 S
C514 C517 1.409 . S
C515 H507 0.930 . S
C515 C516 1.355 . S
C515 C517 1.415 . S
C516 C515 1.355 . S
C516 C518 1.419 . S
C517 C512 1.425 1_545 S
C517 C514 1.409 . S
C517 C515 1.415 . S
C518 H508 0.930 . S
C518 C516 1.419 . S
C518 C519 1.362 1_545 S
C519 H509 0.930 . S
C519 C512 1.409 . S
C519 C518 1.362 1_565 S
H520 C526 0.930 . S
H521 C529 0.930 . S
H522 C530 0.930 . S
H523 C531 0.930 . S
H524 C534 0.930 . S
H525 C535 0.930 . S
C526 H520 0.930 . S
C526 C527 1.355 . S
C526 C528 1.415 . S
C527 C526 1.355 . S
C527 C529 1.419 . S
C528 C526 1.415 . S
C528 C533 1.425 1_655 S
C528 C535 1.409 . S
C529 H521 0.930 . S
C529 C527 1.419 . S
C529 C530 1.362 1_655 S
C530 H522 0.930 . S
C530 C529 1.362 1_455 S
C530 C533 1.409 . S
C531 H523 0.930 . S
C531 C532 1.355 . S
C531 C533 1.415 . S
C532 C531 1.355 . S
C532 C534 1.419 . S
C533 C528 1.425 1_455 S
C533 C530 1.409 . S
C533 C531 1.415 . S
C534 H524 0.930 . S
C534 C532 1.419 . S
C534 C535 1.362 1_455 S
C535 H525 0.930 . S
C535 C528 1.409 . S
C535 C534 1.362 1_655 S
H536 C542 0.930 . S
H537 C545 0.930 . S
H538 C546 0.930 . S
H539 C547 0.930 . S
H540 C550 0.930 . S
H541 C551 0.930 . S
C542 H536 0.930 . S
C542 C543 1.355 . S
C542 C544 1.415 . S
C543 C542 1.355 . S
C543 C545 1.419 . S
C544 C542 1.415 . S
C544 C549 1.425 1_545 S
C544 C551 1.409 . S
C545 H537 0.930 . S
C545 C543 1.419 . S
C545 C546 1.362 1_545 S
C546 H538 0.930 . S
C546 C545 1.362 1_565 S
C546 C549 1.409 . S
C547 H539 0.930 . S
C547 C548 1.355 . S
C547 C549 1.415 . S
C548 C547 1.355 . S
C548 C550 1.419 . S
C549 C544 1.425 1_565 S
C549 C546 1.409 . S
C549 C547 1.415 . S
C550 H540 0.930 . S
C550 C548 1.419 . S
C550 C551 1.362 1_565 S
C551 H541 0.930 . S
C551 C544 1.409 . S
C551 C550 1.362 1_545 S
H552 C558 0.930 . S
H553 C561 0.930 . S
H554 C562 0.930 . S
H555 C563 0.930 . S
H556 C566 0.930 . S
H557 C567 0.930 . S
C558 H552 0.930 . S
C558 C559 1.355 . S
C558 C560 1.415 . S
C559 C558 1.355 . S
C559 C561 1.419 . S
C560 C558 1.415 . S
C560 C565 1.425 1_455 S
C560 C567 1.409 . S
C561 H553 0.930 . S
C561 C559 1.419 . S
C561 C562 1.362 1_455 S
C562 H554 0.930 . S
C562 C561 1.362 1_655 S
C562 C565 1.409 . S
C563 H555 0.930 . S
C563 C564 1.355 . S
C563 C565 1.415 . S
C564 C563 1.355 . S
C564 C566 1.419 . S
C565 C560 1.425 1_655 S
C565 C562 1.409 . S
C565 C563 1.415 . S
C566 H556 0.930 . S
C566 C564 1.419 . S
C566 C567 1.362 1_655 S
C567 H557 0.930 . S
C567 C560 1.409 . S
C567 C566 1.362 1_455 S
H568 C574 0.930 . S
H569 C577 0.930 . S
H570 C578 0.930 . S
H571 C579 0.930 . S
H572 C582 0.930 . S
H573 C583 0.930 . S
C574 H568 0.930 . S
C574 C575 1.355 . S
C574 C576 1.415 . S
C575 C574 1.355 . S
C575 C577 1.419 . S
C576 C574 1.415 . S
C576 C581 1.425 1_565 S
C576 C583 1.409 . S
C577 H569 0.930 . S
C577 C575 1.419 . S
C577 C578 1.362 1_565 S
C578 H570 0.930 . S
C578 C577 1.362 1_545 S
C578 C581 1.409 . S
C579 H571 0.930 . S
C579 C580 1.355 . S
C579 C581 1.415 . S
C580 C579 1.355 . S
C580 C582 1.419 . S
C581 C576 1.425 1_545 S
C581 C578 1.409 . S
C581 C579 1.415 . S
C582 H572 0.930 . S
C582 C580 1.419 . S
C582 C583 1.362 1_545 S
C583 H573 0.930 . S
C583 C576 1.409 . S
C583 C582 1.362 1_565 S
H584 C590 0.930 . S
H585 C593 0.930 . S
H586 C594 0.930 . S
H587 C595 0.930 . S
H588 C598 0.930 . S
H589 C599 0.930 . S
C590 H584 0.930 . S
C590 C591 1.355 . S
C590 C592 1.415 . S
C591 C590 1.355 . S
C591 C593 1.419 . S
C592 C590 1.415 . S
C592 C597 1.425 1_655 S
C592 C599 1.409 . S
C593 H585 0.930 . S
C593 C591 1.419 . S
C593 C594 1.362 1_655 S
C594 H586 0.930 . S
C594 C593 1.362 1_455 S
C594 C597 1.409 . S
C595 H587 0.930 . S
C595 C596 1.355 . S
C595 C597 1.415 . S
C596 C595 1.355 . S
C596 C598 1.419 . S
C597 C592 1.425 1_455 S
C597 C594 1.409 . S
C597 C595 1.415 . S
C598 H588 0.930 . S
C598 C596 1.419 . S
C598 C599 1.362 1_455 S
C599 H589 0.930 . S
C599 C592 1.409 . S
C599 C598 1.362 1_655 S
H600 C606 0.930 . S
H601 C609 0.930 . S
H602 C610 0.930 . S
H603 C611 0.930 . S
H604 C614 0.930 . S
H605 C615 0.930 . S
C606 H600 0.930 . S
C606 C607 1.355 . S
C606 C608 1.415 . S
C607 C606 1.355 . S
C607 C609 1.419 . S
C608 C606 1.415 . S
C608 C613 1.425 1_565 S
C608 C615 1.409 . S
C609 H601 0.930 . S
C609 C607 1.419 . S
C609 C610 1.362 1_565 S
C610 H602 0.930 . S
C610 C609 1.362 1_545 S
C610 C613 1.409 . S
C611 H603 0.930 . S
C611 C612 1.355 . S
C611 C613 1.415 . S
C612 C611 1.355 . S
C612 C614 1.419 . S
C613 C608 1.425 1_545 S
C613 C610 1.409 . S
C613 C611 1.415 . S
C614 H604 0.930 . S
C614 C612 1.419 . S
C614 C615 1.362 1_545 S
C615 H605 0.930 . S
C615 C608 1.409 . S
C615 C614 1.362 1_565 S
H616 C622 0.930 . S
H617 C625 0.930 . S
H618 C626 0.930 . S
H619 C627 0.930 . S
H620 C630 0.930 . S
H621 C631 0.930 . S
C622 H616 0.930 . S
C622 C623 1.355 . S
C622 C624 1.415 1_455 S
C623 C622 1.355 . S
C623 C625 1.419 . S
C624 C622 1.415 1_655 S
C624 C629 1.425 1_655 S
C624 C631 1.409 . S
C625 H617 0.930 . S
C625 C623 1.419 . S
C625 C626 1.362 . S
C626 H618 0.930 . S
C626 C625 1.362 . S
C626 C629 1.409 . S
C627 H619 0.930 . S
C627 C628 1.355 . S
C627 C629 1.415 1_655 S
C628 C627 1.355 . S
C628 C630 1.419 . S
C629 C624 1.425 1_455 S
C629 C626 1.409 . S
C629 C627 1.415 1_455 S
C630 H620 0.930 . S
C630 C628 1.419 . S
C630 C631 1.362 . S
C631 H621 0.930 . S
C631 C624 1.409 . S
C631 C630 1.362 . S
H632 C638 0.930 . S
H633 C641 0.930 . S
H634 C642 0.930 . S
H635 C643 0.930 . S
H636 C646 0.930 . S
H637 C647 0.930 . S
C638 H632 0.930 . S
C638 C639 1.355 . S
C638 C640 1.395 1_556 S
C639 C638 1.355 . S
C639 C641 1.419 . S
C640 C638 1.395 1_554 S
C640 C645 1.424 1_554 S
C640 C647 1.431 . S
C641 H633 0.930 . S
C641 C639 1.419 . S
C641 C642 1.362 . S
C642 H634 0.930 . S
C642 C641 1.362 . S
C642 C645 1.427 . S
C643 H635 0.930 . S
C643 C644 1.355 . S
C643 C645 1.398 1_554 S
C644 C643 1.355 . S
C644 C646 1.419 . S
C645 C640 1.424 1_556 S
C645 C642 1.427 . S
C645 C643 1.398 1_556 S
C646 H636 0.930 . S
C646 C644 1.419 . S
C646 C647 1.362 . S
C647 H637 0.930 . S
C647 C640 1.431 . S
C647 C646 1.362 . S
H648 C654 0.930 . S
H649 C657 0.930 . S
H650 C658 0.930 . S
H651 C659 0.930 . S
H652 C662 0.930 . S
H653 C663 0.930 . S
C654 H648 0.930 . S
C654 C655 1.355 . S
C654 C656 1.415 . S
C655 C654 1.355 . S
C655 C657 1.419 . S
C656 C654 1.415 . S
C656 C661 1.425 1_554 S
C656 C663 1.409 . S
C657 H649 0.930 . S
C657 C655 1.419 . S
C657 C658 1.362 1_554 S
C658 H650 0.930 . S
C658 C657 1.362 1_556 S
C658 C661 1.409 . S
C659 H651 0.930 . S
C659 C660 1.355 . S
C659 C661 1.415 . S
C660 C659 1.355 . S
C660 C662 1.419 . S
C661 C656 1.425 1_556 S
C661 C658 1.409 . S
C661 C659 1.415 . S
C662 H652 0.930 . S
C662 C660 1.419 . S
C662 C663 1.362 1_556 S
C663 H653 0.930 . S
C663 C656 1.409 . S
C663 C662 1.362 1_554 S
H664 C670 0.930 . S
H665 C673 0.930 . S
H666 C674 0.930 . S
H667 C675 0.930 . S
H668 C678 0.930 . S
H669 C679 0.930 . S
C670 H664 0.930 . S
C670 C671 1.355 . S
C670 C672 1.415 . S
C671 C670 1.355 . S
C671 C673 1.419 . S
C672 C670 1.415 . S
C672 C677 1.425 1_556 S
C672 C679 1.409 . S
C673 H665 0.930 . S
C673 C671 1.419 . S
C673 C674 1.362 1_556 S
C674 H666 0.930 . S
C674 C673 1.362 1_554 S
C674 C677 1.409 . S
C675 H667 0.930 . S
C675 C676 1.355 . S
C675 C677 1.415 . S
C676 C675 1.355 . S
C676 C678 1.419 . S
C677 C672 1.425 1_554 S
C677 C674 1.409 . S
C677 C675 1.415 . S
C678 H668 0.930 . S
C678 C676 1.419 . S
C678 C679 1.362 1_554 S
C679 H669 0.930 . S
C679 C672 1.409 . S
C679 C678 1.362 1_556 S
H680 C686 0.930 . S
H681 C689 0.930 . S
H682 C690 0.930 . S
H683 C691 0.930 . S
H684 C694 0.930 . S
H685 C695 0.930 . S
C686 H680 0.930 . S
C686 C687 1.355 . S
C686 C688 1.415 1_554 S
C687 C686 1.355 . S
C687 C689 1.419 . S
C688 C686 1.415 1_556 S
C688 C693 1.425 1_556 S
C688 C695 1.409 . S
C689 H681 0.930 . S
C689 C687 1.419 . S
C689 C690 1.362 . S
C690 H682 0.930 . S
C690 C689 1.362 . S
C690 C693 1.409 . S
C691 H683 0.930 . S
C691 C692 1.355 . S
C691 C693 1.415 1_556 S
C692 C691 1.355 . S
C692 C694 1.419 . S
C693 C688 1.425 1_554 S
C693 C690 1.409 . S
C693 C691 1.415 1_554 S
C694 H684 0.930 . S
C694 C692 1.419 . S
C694 C695 1.362 . S
C695 H685 0.930 . S
C695 C688 1.409 . S
C695 C694 1.362 . S
H696 C702 0.930 . S
H697 C705 0.930 . S
H698 C706 0.930 . S
H699 C707 0.930 . S
H700 C710 0.930 . S
H701 C711 0.930 . S
C702 H696 0.930 . S
C702 C703 1.355 . S
C702 C704 1.415 . S
C703 C702 1.355 . S
C703 C705 1.419 . S
C704 C702 1.415 . S
C704 C709 1.425 . S
C704 C711 1.409 . S
C705 H697 0.930 . S
C705 C703 1.419 . S
C705 C706 1.362 . S
C706 H698 0.930 . S
C706 C705 1.362 . S
C706 C709 1.409 . S
C707 H699 0.930 . S
C707 C708 1.355 . S
C707 C709 1.415 . S
C708 C707 1.355 . S
C708 C710 1.419 . S
C709 C704 1.425 . S
C709 C706 1.409 . S
C709 C707 1.415 . S
C710 H700 0.930 . S
C710 C708 1.419 . S
C710 C711 1.362 . S
C711 H701 0.930 . S
C711 C704 1.409 . S
C711 C710 1.362 . S
H712 C718 0.930 . S
H713 C721 0.930 . S
H714 C722 0.930 . S
H715 C723 0.930 . S
H716 C726 0.930 . S
H717 C727 0.930 . S
C718 H712 0.930 . S
C718 C719 1.355 . S
C718 C720 1.415 . S
C719 C718 1.355 . S
C719 C721 1.419 . S
C720 C718 1.415 . S
C720 C725 1.425 . S
C720 C727 1.409 . S
C721 H713 0.930 . S
C721 C719 1.419 . S
C721 C722 1.362 . S
C722 H714 0.930 . S
C722 C721 1.362 . S
C722 C725 1.409 . S
C723 H715 0.930 . S
C723 C724 1.355 . S
C723 C725 1.415 . S
C724 C723 1.355 . S
C724 C726 1.419 . S
C725 C720 1.425 . S
C725 C722 1.409 . S
C725 C723 1.415 . S
C726 H716 0.930 . S
C726 C724 1.419 . S
C726 C727 1.362 . S
C727 H717 0.930 . S
C727 C720 1.409 . S
C727 C726 1.362 . S
H728 C734 0.930 . S
H729 C737 0.930 . S
H730 C738 0.930 . S
H731 C739 0.930 . S
H732 C742 0.930 . S
H733 C743 0.930 . S
C734 H728 0.930 . S
C734 C735 1.355 . S
C734 C736 1.415 . S
C735 C734 1.355 . S
C735 C737 1.419 . S
C736 C734 1.415 . S
C736 C741 1.425 . S
C736 C743 1.409 . S
C737 H729 0.930 . S
C737 C735 1.419 . S
C737 C738 1.362 . S
C738 H730 0.930 . S
C738 C737 1.362 . S
C738 C741 1.409 . S
C739 H731 0.930 . S
C739 C740 1.355 . S
C739 C741 1.415 . S
C740 C739 1.355 . S
C740 C742 1.419 . S
C741 C736 1.425 . S
C741 C738 1.409 . S
C741 C739 1.415 . S
C742 H732 0.930 . S
C742 C740 1.419 . S
C742 C743 1.362 . S
C743 H733 0.930 . S
C743 C736 1.409 . S
C743 C742 1.362 . S
H744 C750 0.930 . S
H745 C753 0.930 . S
H746 C754 0.930 . S
H747 C755 0.930 . S
H748 C758 0.930 . S
H749 C759 0.930 . S
C750 H744 0.930 . S
C750 C751 1.355 . S
C750 C752 1.415 . S
C751 C750 1.355 . S
C751 C753 1.419 . S
C752 C750 1.415 . S
C752 C757 1.425 . S
C752 C759 1.409 . S
C753 H745 0.930 . S
C753 C751 1.419 . S
C753 C754 1.362 . S
C754 H746 0.930 . S
C754 C753 1.362 . S
C754 C757 1.409 . S
C755 H747 0.930 . S
C755 C756 1.355 . S
C755 C757 1.415 . S
C756 C755 1.355 . S
C756 C758 1.419 . S
C757 C752 1.425 . S
C757 C754 1.409 . S
C757 C755 1.415 . S
C758 H748 0.930 . S
C758 C756 1.419 . S
C758 C759 1.362 . S
C759 H749 0.930 . S
C759 C752 1.409 . S
C759 C758 1.362 . S
H760 C766 0.930 . S
H761 C769 0.930 . S
H762 C770 0.930 . S
H763 C771 0.930 . S
H764 C774 0.930 . S
H765 C775 0.930 . S
C766 H760 0.930 . S
C766 C767 1.355 . S
C766 C768 1.415 . S
C767 C766 1.355 . S
C767 C769 1.419 . S
C768 C766 1.415 . S
C768 C773 1.425 . S
C768 C775 1.409 . S
C769 H761 0.930 . S
C769 C767 1.419 . S
C769 C770 1.362 . S
C770 H762 0.930 . S
C770 C769 1.362 . S
C770 C773 1.409 . S
C771 H763 0.930 . S
C771 C772 1.355 . S
C771 C773 1.415 . S
C772 C771 1.355 . S
C772 C774 1.419 . S
C773 C768 1.425 . S
C773 C770 1.409 . S
C773 C771 1.415 . S
C774 H764 0.930 . S
C774 C772 1.419 . S
C774 C775 1.362 . S
C775 H765 0.930 . S
C775 C768 1.409 . S
C775 C774 1.362 . S
H776 C782 0.930 . S
H777 C785 0.930 . S
H778 C786 0.930 . S
H779 C787 0.930 . S
H780 C790 0.930 . S
H781 C791 0.930 . S
C782 H776 0.930 . S
C782 C783 1.355 . S
C782 C784 1.415 . S
C783 C782 1.355 . S
C783 C785 1.419 . S
C784 C782 1.415 . S
C784 C789 1.425 . S
C784 C791 1.409 . S
C785 H777 0.930 . S
C785 C783 1.419 . S
C785 C786 1.362 . S
C786 H778 0.930 . S
C786 C785 1.362 . S
C786 C789 1.409 . S
C787 H779 0.930 . S
C787 C788 1.355 . S
C787 C789 1.415 . S
C788 C787 1.355 . S
C788 C790 1.419 . S
C789 C784 1.425 . S
C789 C786 1.409 . S
C789 C787 1.415 . S
C790 H780 0.930 . S
C790 C788 1.419 . S
C790 C791 1.362 . S
C791 H781 0.930 . S
C791 C784 1.409 . S
C791 C790 1.362 . S
H792 C798 0.930 . S
H793 C801 0.930 . S
H794 C802 0.930 . S
H795 C803 0.930 . S
H796 C806 0.930 . S
H797 C807 0.930 . S
C798 H792 0.930 . S
C798 C799 1.355 . S
C798 C800 1.415 . S
C799 C798 1.355 . S
C799 C801 1.419 . S
C800 C798 1.415 . S
C800 C805 1.425 . S
C800 C807 1.409 . S
C801 H793 0.930 . S
C801 C799 1.419 . S
C801 C802 1.362 . S
C802 H794 0.930 . S
C802 C801 1.362 . S
C802 C805 1.409 . S
C803 H795 0.930 . S
C803 C804 1.355 . S
C803 C805 1.415 . S
C804 C803 1.355 . S
C804 C806 1.419 . S
C805 C800 1.425 . S
C805 C802 1.409 . S
C805 C803 1.415 . S
C806 H796 0.930 . S
C806 C804 1.419 . S
C806 C807 1.362 . S
C807 H797 0.930 . S
C807 C800 1.409 . S
C807 C806 1.362 . S
H808 C814 0.930 . S
H809 C817 0.930 . S
H810 C818 0.930 . S
H811 C819 0.930 . S
H812 C822 0.930 . S
H813 C823 0.930 . S
C814 H808 0.930 . S
C814 C815 1.355 . S
C814 C816 1.415 . S
C815 C814 1.355 . S
C815 C817 1.419 . S
C816 C814 1.415 . S
C816 C821 1.425 . S
C816 C823 1.409 . S
C817 H809 0.930 . S
C817 C815 1.419 . S
C817 C818 1.362 . S
C818 H810 0.930 . S
C818 C817 1.362 . S
C818 C821 1.409 . S
C819 H811 0.930 . S
C819 C820 1.355 . S
C819 C821 1.415 . S
C820 C819 1.355 . S
C820 C822 1.419 . S
C821 C816 1.425 . S
C821 C818 1.409 . S
C821 C819 1.415 . S
C822 H812 0.930 . S
C822 C820 1.419 . S
C822 C823 1.362 . S
C823 H813 0.930 . S
C823 C816 1.409 . S
C823 C822 1.362 . S
H824 C830 0.930 . S
H825 C833 0.930 . S
H826 C834 0.930 . S
H827 C835 0.930 . S
H828 C838 0.930 . S
H829 C839 0.930 . S
C830 H824 0.930 . S
C830 C831 1.355 . S
C830 C832 1.415 . S
C831 C830 1.355 . S
C831 C833 1.419 . S
C832 C830 1.415 . S
C832 C837 1.425 . S
C832 C839 1.409 . S
C833 H825 0.930 . S
C833 C831 1.419 . S
C833 C834 1.362 . S
C834 H826 0.930 . S
C834 C833 1.362 . S
C834 C837 1.409 . S
C835 H827 0.930 . S
C835 C836 1.355 . S
C835 C837 1.415 . S
C836 C835 1.355 . S
C836 C838 1.419 . S
C837 C832 1.425 . S
C837 C834 1.409 . S
C837 C835 1.415 . S
C838 H828 0.930 . S
C838 C836 1.419 . S
C838 C839 1.362 . S
C839 H829 0.930 . S
C839 C832 1.409 . S
C839 C838 1.362 . S
H840 C846 0.930 . S
H841 C849 0.930 . S
H842 C850 0.930 . S
H843 C851 0.930 . S
H844 C854 0.930 . S
H845 C855 0.930 . S
C846 H840 0.930 . S
C846 C847 1.355 . S
C846 C848 1.415 . S
C847 C846 1.355 . S
C847 C849 1.419 . S
C848 C846 1.415 . S
C848 C853 1.425 . S
C848 C855 1.409 . S
C849 H841 0.930 . S
C849 C847 1.419 . S
C849 C850 1.362 . S
C850 H842 0.930 . S
C850 C849 1.362 . S
C850 C853 1.409 . S
C851 H843 0.930 . S
C851 C852 1.355 . S
C851 C853 1.415 . S
C852 C851 1.355 . S
C852 C854 1.419 . S
C853 C848 1.425 . S
C853 C850 1.409 . S
C853 C851 1.415 . S
C854 H844 0.930 . S
C854 C852 1.419 . S
C854 C855 1.362 . S
C855 H845 0.930 . S
C855 C848 1.409 . S
C855 C854 1.362 . S
H856 C862 0.930 . S
H857 C865 0.930 . S
H858 C866 0.930 . S
H859 C867 0.930 . S
H860 C870 0.930 . S
H861 C871 0.930 . S
C862 H856 0.930 . S
C862 C863 1.355 . S
C862 C864 1.415 . S
C863 C862 1.355 . S
C863 C865 1.419 . S
C864 C862 1.415 . S
C864 C869 1.425 . S
C864 C871 1.409 . S
C865 H857 0.930 . S
C865 C863 1.419 . S
C865 C866 1.362 . S
C866 H858 0.930 . S
C866 C865 1.362 . S
C866 C869 1.409 . S
C867 H859 0.930 . S
C867 C868 1.355 . S
C867 C869 1.415 . S
C868 C867 1.355 . S
C868 C870 1.419 . S
C869 C864 1.425 . S
C869 C866 1.409 . S
C869 C867 1.415 . S
C870 H860 0.930 . S
C870 C868 1.419 . S
C870 C871 1.362 . S
C871 H861 0.930 . S
C871 C864 1.409 . S
C871 C870 1.362 . S
H872 C878 0.930 . S
H873 C881 0.930 . S
H874 C882 0.930 . S
H875 C883 0.930 . S
H876 C886 0.930 . S
H877 C887 0.930 . S
C878 H872 0.930 . S
C878 C879 1.355 . S
C878 C880 1.415 . S
C879 C878 1.355 . S
C879 C881 1.419 . S
C880 C878 1.415 . S
C880 C885 1.425 . S
C880 C887 1.409 . S
C881 H873 0.930 . S
C881 C879 1.419 . S
C881 C882 1.362 . S
C882 H874 0.930 . S
C882 C881 1.362 . S
C882 C885 1.409 . S
C883 H875 0.930 . S
C883 C884 1.355 . S
C883 C885 1.415 . S
C884 C883 1.355 . S
C884 C886 1.419 . S
C885 C880 1.425 . S
C885 C882 1.409 . S
C885 C883 1.415 . S
C886 H876 0.930 . S
C886 C884 1.419 . S
C886 C887 1.362 . S
C887 H877 0.930 . S
C887 C880 1.409 . S
C887 C886 1.362 . S
H888 C894 0.930 . S
H889 C897 0.930 . S
H890 C898 0.930 . S
H891 C899 0.930 . S
H892 C902 0.930 . S
H893 C903 0.930 . S
C894 H888 0.930 . S
C894 C895 1.355 . S
C894 C896 1.415 . S
C895 C894 1.355 . S
C895 C897 1.419 . S
C896 C894 1.415 . S
C896 C901 1.425 . S
C896 C903 1.409 . S
C897 H889 0.930 . S
C897 C895 1.419 . S
C897 C898 1.362 . S
C898 H890 0.930 . S
C898 C897 1.362 . S
C898 C901 1.409 . S
C899 H891 0.930 . S
C899 C900 1.355 . S
C899 C901 1.415 . S
C900 C899 1.355 . S
C900 C902 1.419 . S
C901 C896 1.425 . S
C901 C898 1.409 . S
C901 C899 1.415 . S
C902 H892 0.930 . S
C902 C900 1.419 . S
C902 C903 1.362 . S
C903 H893 0.930 . S
C903 C896 1.409 . S
C903 C902 1.362 . S
H904 C910 0.930 . S
H905 C913 0.930 . S
H906 C914 0.930 . S
H907 C915 0.930 . S
H908 C918 0.930 . S
H909 C919 0.930 . S
C910 H904 0.930 . S
C910 C911 1.355 . S
C910 C912 1.415 . S
C911 C910 1.355 . S
C911 C913 1.419 . S
C912 C910 1.415 . S
C912 C917 1.425 . S
C912 C919 1.409 . S
C913 H905 0.930 . S
C913 C911 1.419 . S
C913 C914 1.362 . S
C914 H906 0.930 . S
C914 C913 1.362 . S
C914 C917 1.409 . S
C915 H907 0.930 . S
C915 C916 1.355 . S
C915 C917 1.415 . S
C916 C915 1.355 . S
C916 C918 1.419 . S
C917 C912 1.425 . S
C917 C914 1.409 . S
C917 C915 1.415 . S
C918 H908 0.930 . S
C918 C916 1.419 . S
C918 C919 1.362 . S
C919 H909 0.930 . S
C919 C912 1.409 . S
C919 C918 1.362 . S
H920 C926 0.930 . S
H921 C929 0.930 . S
H922 C930 0.930 . S
H923 C931 0.930 . S
H924 C934 0.930 . S
H925 C935 0.930 . S
C926 H920 0.930 . S
C926 C927 1.355 . S
C926 C928 1.415 . S
C927 C926 1.355 . S
C927 C929 1.419 . S
C928 C926 1.415 . S
C928 C933 1.425 . S
C928 C935 1.409 . S
C929 H921 0.930 . S
C929 C927 1.419 . S
C929 C930 1.362 . S
C930 H922 0.930 . S
C930 C929 1.362 . S
C930 C933 1.409 . S
C931 H923 0.930 . S
C931 C932 1.355 . S
C931 C933 1.415 . S
C932 C931 1.355 . S
C932 C934 1.419 . S
C933 C928 1.425 . S
C933 C930 1.409 . S
C933 C931 1.415 . S
C934 H924 0.930 . S
C934 C932 1.419 . S
C934 C935 1.362 . S
C935 H925 0.930 . S
C935 C928 1.409 . S
C935 C934 1.362 . S
H936 C942 0.930 . S
H937 C945 0.930 . S
H938 C946 0.930 . S
H939 C947 0.930 . S
H940 C950 0.930 . S
H941 C951 0.930 . S
C942 H936 0.930 . S
C942 C943 1.355 . S
C942 C944 1.415 . S
C943 C942 1.355 . S
C943 C945 1.419 . S
C944 C942 1.415 . S
C944 C949 1.425 . S
C944 C951 1.409 . S
C945 H937 0.930 . S
C945 C943 1.419 . S
C945 C946 1.362 . S
C946 H938 0.930 . S
C946 C945 1.362 . S
C946 C949 1.409 . S
C947 H939 0.930 . S
C947 C948 1.355 . S
C947 C949 1.415 . S
C948 C947 1.355 . S
C948 C950 1.419 . S
C949 C944 1.425 . S
C949 C946 1.409 . S
C949 C947 1.415 . S
C950 H940 0.930 . S
C950 C948 1.419 . S
C950 C951 1.362 . S
C951 H941 0.930 . S
C951 C944 1.409 . S
C951 C950 1.362 . S
H952 C958 0.930 . S
H953 C961 0.930 . S
H954 C962 0.930 . S
H955 C963 0.930 . S
H956 C966 0.930 . S
H957 C967 0.930 . S
C958 H952 0.930 . S
C958 C959 1.355 . S
C958 C960 1.415 . S
C959 C958 1.355 . S
C959 C961 1.419 . S
C960 C958 1.415 . S
C960 C965 1.425 . S
C960 C967 1.409 . S
C961 H953 0.930 . S
C961 C959 1.419 . S
C961 C962 1.362 . S
C962 H954 0.930 . S
C962 C961 1.362 . S
C962 C965 1.409 . S
C963 H955 0.930 . S
C963 C964 1.355 . S
C963 C965 1.415 . S
C964 C963 1.355 . S
C964 C966 1.419 . S
C965 C960 1.425 . S
C965 C962 1.409 . S
C965 C963 1.415 . S
C966 H956 0.930 . S
C966 C964 1.419 . S
C966 C967 1.362 . S
C967 H957 0.930 . S
C967 C960 1.409 . S
C967 C966 1.362 . S
H968 C974 0.930 . S
H969 C977 0.930 . S
H970 C978 0.930 . S
H971 C979 0.930 . S
H972 C982 0.930 . S
H973 C983 0.930 . S
C974 H968 0.930 . S
C974 C975 1.355 . S
C974 C976 1.415 . S
C975 C974 1.355 . S
C975 C977 1.419 . S
C976 C974 1.415 . S
C976 C981 1.425 . S
C976 C983 1.409 . S
C977 H969 0.930 . S
C977 C975 1.419 . S
C977 C978 1.362 . S
C978 H970 0.930 . S
C978 C977 1.362 . S
C978 C981 1.409 . S
C979 H971 0.930 . S
C979 C980 1.355 . S
C979 C981 1.415 . S
C980 C979 1.355 . S
C980 C982 1.419 . S
C981 C976 1.425 . S
C981 C978 1.409 . S
C981 C979 1.415 . S
C982 H972 0.930 . S
C982 C980 1.419 . S
C982 C983 1.362 . S
C983 H973 0.930 . S
C983 C976 1.409 . S
C983 C982 1.362 . S
H984 C990 0.930 . S
H985 C993 0.930 . S
H986 C994 0.930 . S
H987 C995 0.930 . S
H988 C998 0.930 . S
H989 C999 0.930 . S
C990 H984 0.930 . S
C990 C991 1.355 . S
C990 C992 1.415 . S
C991 C990 1.355 . S
C991 C993 1.419 . S
C992 C990 1.415 . S
C992 C997 1.425 . S
C992 C999 1.409 . S
C993 H985 0.930 . S
C993 C991 1.419 . S
C993 C994 1.362 . S
C994 H986 0.930 . S
C994 C993 1.362 . S
C994 C997 1.409 . S
C995 H987 0.930 . S
C995 C996 1.355 . S
C995 C997 1.415 . S
C996 C995 1.355 . S
C996 C998 1.419 . S
C997 C992 1.425 . S
C997 C994 1.409 . S
C997 C995 1.415 . S
C998 H988 0.930 . S
C998 C996 1.419 . S
C998 C999 1.362 . S
C999 H989 0.930 . S
C999 C992 1.409 . S
C999 C998 1.362 . S
H1000 C1006 0.930 . S
H1001 C1009 0.930 . S
H1002 C1010 0.930 . S
H1003 C1011 0.930 . S
H1004 C1014 0.930 . S
H1005 C1015 0.930 . S
C1006 H1000 0.930 . S
C1006 C1007 1.355 . S
C1006 C1008 1.415 . S
C1007 C1006 1.355 . S
C1007 C1009 1.419 . S
C1008 C1006 1.415 . S
C1008 C1013 1.425 . S
C1008 C1015 1.409 . S
C1009 H1001 0.930 . S
C1009 C1007 1.419 . S
C1009 C1010 1.362 . S
C1010 H1002 0.930 . S
C1010 C1009 1.362 . S
C1010 C1013 1.409 . S
C1011 H1003 0.930 . S
C1011 C1012 1.355 . S
C1011 C1013 1.415 . S
C1012 C1011 1.355 . S
C1012 C1014 1.419 . S
C1013 C1008 1.425 . S
C1013 C1010 1.409 . S
C1013 C1011 1.415 . S
C1014 H1004 0.930 . S
C1014 C1012 1.419 . S
C1014 C1015 1.362 . S
C1015 H1005 0.930 . S
C1015 C1008 1.409 . S
C1015 C1014 1.362 . S
H1016 C1022 0.930 . S
H1017 C1025 0.930 . S
H1018 C1026 0.930 . S
H1019 C1027 0.930 . S
H1020 C1030 0.930 . S
H1021 C1031 0.930 . S
C1022 H1016 0.930 . S
C1022 C1023 1.355 . S
C1022 C1024 1.415 . S
C1023 C1022 1.355 . S
C1023 C1025 1.419 . S
C1024 C1022 1.415 . S
C1024 C1029 1.425 . S
C1024 C1031 1.409 . S
C1025 H1017 0.930 . S
C1025 C1023 1.419 . S
C1025 C1026 1.362 . S
C1026 H1018 0.930 . S
C1026 C1025 1.362 . S
C1026 C1029 1.409 . S
C1027 H1019 0.930 . S
C1027 C1028 1.355 . S
C1027 C1029 1.415 . S
C1028 C1027 1.355 . S
C1028 C1030 1.419 . S
C1029 C1024 1.425 . S
C1029 C1026 1.409 . S
C1029 C1027 1.415 . S
C1030 H1020 0.930 . S
C1030 C1028 1.419 . S
C1030 C1031 1.362 . S
C1031 H1021 0.930 . S
C1031 C1024 1.409 . S
C1031 C1030 1.362 . S
H1032 C1038 0.930 . S
H1033 C1041 0.930 . S
H1034 C1042 0.930 . S
H1035 C1043 0.930 . S
H1036 C1046 0.930 . S
H1037 C1047 0.930 . S
C1038 H1032 0.930 . S
C1038 C1039 1.355 . S
C1038 C1040 1.415 . S
C1039 C1038 1.355 . S
C1039 C1041 1.419 . S
C1040 C1038 1.415 . S
C1040 C1045 1.425 . S
C1040 C1047 1.409 . S
C1041 H1033 0.930 . S
C1041 C1039 1.419 . S
C1041 C1042 1.362 . S
C1042 H1034 0.930 . S
C1042 C1041 1.362 . S
C1042 C1045 1.409 . S
C1043 H1035 0.930 . S
C1043 C1044 1.355 . S
C1043 C1045 1.415 . S
C1044 C1043 1.355 . S
C1044 C1046 1.419 . S
C1045 C1040 1.425 . S
C1045 C1042 1.409 . S
C1045 C1043 1.415 . S
C1046 H1036 0.930 . S
C1046 C1044 1.419 . S
C1046 C1047 1.362 . S
C1047 H1037 0.930 . S
C1047 C1040 1.409 . S
C1047 C1046 1.362 . S
H1048 C1054 0.930 . S
H1049 C1057 0.930 . S
H1050 C1058 0.930 . S
H1051 C1059 0.930 . S
H1052 C1062 0.930 . S
H1053 C1063 0.930 . S
C1054 H1048 0.930 . S
C1054 C1055 1.355 . S
C1054 C1056 1.415 . S
C1055 C1054 1.355 . S
C1055 C1057 1.419 . S
C1056 C1054 1.415 . S
C1056 C1061 1.425 . S
C1056 C1063 1.409 . S
C1057 H1049 0.930 . S
C1057 C1055 1.419 . S
C1057 C1058 1.362 . S
C1058 H1050 0.930 . S
C1058 C1057 1.362 . S
C1058 C1061 1.409 . S
C1059 H1051 0.930 . S
C1059 C1060 1.355 . S
C1059 C1061 1.415 . S
C1060 C1059 1.355 . S
C1060 C1062 1.419 . S
C1061 C1056 1.425 . S
C1061 C1058 1.409 . S
C1061 C1059 1.415 . S
C1062 H1052 0.930 . S
C1062 C1060 1.419 . S
C1062 C1063 1.362 . S
C1063 H1053 0.930 . S
C1063 C1056 1.409 . S
C1063 C1062 1.362 . S
H1064 C1070 0.930 . S
H1065 C1073 0.930 . S
H1066 C1074 0.930 . S
H1067 C1075 0.930 . S
H1068 C1078 0.930 . S
H1069 C1079 0.930 . S
C1070 H1064 0.930 . S
C1070 C1071 1.355 . S
C1070 C1072 1.415 . S
C1071 C1070 1.355 . S
C1071 C1073 1.419 . S
C1072 C1070 1.415 . S
C1072 C1077 1.425 . S
C1072 C1079 1.409 . S
C1073 H1065 0.930 . S
C1073 C1071 1.419 . S
C1073 C1074 1.362 . S
C1074 H1066 0.930 . S
C1074 C1073 1.362 . S
C1074 C1077 1.409 . S
C1075 H1067 0.930 . S
C1075 C1076 1.355 . S
C1075 C1077 1.415 . S
C1076 C1075 1.355 . S
C1076 C1078 1.419 . S
C1077 C1072 1.425 . S
C1077 C1074 1.409 . S
C1077 C1075 1.415 . S
C1078 H1068 0.930 . S
C1078 C1076 1.419 . S
C1078 C1079 1.362 . S
C1079 H1069 0.930 . S
C1079 C1072 1.409 . S
C1079 C1078 1.362 . S
C319 C290 1.612 . S
C324 C5 1.623 . S
C335 C17 1.586 . S
C340 C213 1.595 . S
C351 C309 1.602 . S
C356 C29 1.611 . S
C367 C278 1.582 . S
C372 C44 1.582 . S
C383 C239 1.639 . S
C388 C55 1.639 . S
C399 C257 1.580 . S
C404 C68 1.591 . S
C415 C265 1.604 . S
C420 C88 1.592 . S
C431 C94 1.638 . S
C436 C225 1.628 . S
C447 C173 1.653 . S
C452 C114 1.652 . S
C463 C185 1.585 . S
C468 C120 1.586 . S
C479 C134 1.631 . S
C484 C205 1.634 . S
C495 C146 1.583 . S
C500 C161 1.583 . S
C511 C95 1.645 . S
C516 C186 1.643 . S
C527 C200 1.658 . S
C532 C56 1.651 . S
C543 C69 1.647 . S
C548 C166 1.646 . S
C559 C172 1.657 . S
C564 C83 1.657 . S
C575 C133 1.658 . S
C580 C16 1.658 . S
C591 C30 1.633 . S
C596 C147 1.635 . S
C607 C49 1.649 . S
C612 C109 1.656 . S
C623 C10 1.572 . S
C628 C121 1.572 . S
C639 C270 1.610 . S
C644 C283 1.606 . S
C655 C289 1.649 . S
C660 C224 1.648 . S
C671 C244 1.640 . S
C676 C218 1.637 . S
C687 C304 1.584 . S
C692 C252 1.584 . S
C703 C4 0.935 . S
C708 C108 0.994 . S
C719 C122 0.951 . S
C724 C18 0.978 . S
C735 C36 0.975 . S
C740 C140 1.039 . S
C751 C43 0.944 . S
C756 C148 0.993 . S
C767 C62 1.000 . S
C772 C159 1.051 . S
C783 C75 0.991 . S
C788 C179 1.045 . S
C799 C187 1.006 . S
C804 C81 0.946 . S
C815 C199 1.040 . S
C820 C101 1.019 . S
C831 C107 0.953 . S
C836 C211 1.030 . S
C847 C127 1.017 . S
C852 C303 0.949 . S
C863 C276 1.027 . S
C868 C135 0.952 . S
C879 C296 1.047 . S
C884 C153 0.996 . S
C895 C231 1.039 . S
C900 C160 1.032 . S
C911 C237 0.965 . S
C916 C174 0.956 . S
C927 C192 1.048 . S
C932 C251 1.007 . S
C943 C198 0.942 . S
C948 C263 0.996 . S
C959 C3 0.941 . S
C964 C212 1.020 . S
C975 C226 1.058 . S
C980 C57 1.046 . S
C991 C238 0.949 . S
C996 C70 1.013 . S
C1007 C250 1.057 . S
C1012 C82 1.011 . S
C1023 C264 0.938 . S
C1028 C96 0.980 . S
C1039 C277 1.048 . S
C1044 C31 0.982 . S
C1055 C42 0.980 . S
C1060 C291 1.054 . S
C1071 C302 0.948 . S
C1076 C23 1.023 . S
