# Generated by pormake.
# Topology umy, (4)-cn, num edge types: 1
# Building blocks:
#     Node 0, Type 0, BuildingBlock: CEKHIL_clean_sbu_0, # of connection points: 4
#     Node 1, Type 0, BuildingBlock: CEKHIL_clean_sbu_0, # of connection points: 4
#     Node 2, Type 0, BuildingBlock: CEKHIL_clean_sbu_0, # of connection points: 4
#     Node 3, Type 0, BuildingBlock: CEKHIL_clean_sbu_0, # of connection points: 4
#     Node 4, Type 0, BuildingBlock: CEKHIL_clean_sbu_0, # of connection points: 4
#     Node 5, Type 0, BuildingBlock: CEKHIL_clean_sbu_0, # of connection points: 4
#     Node 6, Type 0, BuildingBlock: CEKHIL_clean_sbu_0, # of connection points: 4
#     Node 7, Type 0, BuildingBlock: CEKHIL_clean_sbu_0, # of connection points: 4
#     Node 8, Type 0, BuildingBlock: CEKHIL_clean_sbu_0, # of connection points: 4
#     Node 9, Type 0, BuildingBlock: CEKHIL_clean_sbu_0, # of connection points: 4
#     Node 10, Type 0, BuildingBlock: CEKHIL_clean_sbu_0, # of connection points: 4
#     Node 11, Type 0, BuildingBlock: CEKHIL_clean_sbu_0, # of connection points: 4
#     Edge 12, Type (0, 0), BuildingBlock: TEMPAE_clean_linker_10, # of connection points: 2
#     Edge 13, Type (0, 0), BuildingBlock: TEMPAE_clean_linker_10, # of connection points: 2
#     Edge 14, Type (0, 0), BuildingBlock: TEMPAE_clean_linker_10, # of connection points: 2
#     Edge 15, Type (0, 0), BuildingBlock: TEMPAE_clean_linker_10, # of connection points: 2
#     Edge 16, Type (0, 0), BuildingBlock: TEMPAE_clean_linker_10, # of connection points: 2
#     Edge 17, Type (0, 0), BuildingBlock: TEMPAE_clean_linker_10, # of connection points: 2
#     Edge 18, Type (0, 0), BuildingBlock: TEMPAE_clean_linker_10, # of connection points: 2
#     Edge 19, Type (0, 0), BuildingBlock: TEMPAE_clean_linker_10, # of connection points: 2
#     Edge 20, Type (0, 0), BuildingBlock: TEMPAE_clean_linker_10, # of connection points: 2
#     Edge 21, Type (0, 0), BuildingBlock: TEMPAE_clean_linker_10, # of connection points: 2
#     Edge 22, Type (0, 0), BuildingBlock: TEMPAE_clean_linker_10, # of connection points: 2
#     Edge 23, Type (0, 0), BuildingBlock: TEMPAE_clean_linker_10, # of connection points: 2
#     Edge 24, Type (0, 0), BuildingBlock: TEMPAE_clean_linker_10, # of connection points: 2
#     Edge 25, Type (0, 0), BuildingBlock: TEMPAE_clean_linker_10, # of connection points: 2
#     Edge 26, Type (0, 0), BuildingBlock: TEMPAE_clean_linker_10, # of connection points: 2
#     Edge 27, Type (0, 0), BuildingBlock: TEMPAE_clean_linker_10, # of connection points: 2
#     Edge 28, Type (0, 0), BuildingBlock: TEMPAE_clean_linker_10, # of connection points: 2
#     Edge 29, Type (0, 0), BuildingBlock: TEMPAE_clean_linker_10, # of connection points: 2
#     Edge 30, Type (0, 0), BuildingBlock: TEMPAE_clean_linker_10, # of connection points: 2
#     Edge 31, Type (0, 0), BuildingBlock: TEMPAE_clean_linker_10, # of connection points: 2
#     Edge 32, Type (0, 0), BuildingBlock: TEMPAE_clean_linker_10, # of connection points: 2
#     Edge 33, Type (0, 0), BuildingBlock: TEMPAE_clean_linker_10, # of connection points: 2
#     Edge 34, Type (0, 0), BuildingBlock: TEMPAE_clean_linker_10, # of connection points: 2
#     Edge 35, Type (0, 0), BuildingBlock: TEMPAE_clean_linker_10, # of connection points: 2
# Relax obj value: 0.117
# Max RMSD: 0.082
# Mean RMSD: 0.082
data_MOF--net-umy--node1-CEKHIL_clean_sbu_0--edge1-TEMPAE_clean_linker_10
_symmetry_space_group_name_H-M    P1
_symmetry_Int_Tables_number       1
_symmetry_cell_setting            triclinic
loop_
_symmetry_equiv_pos_as_xyz
'x, y, z'
_cell_length_a     38.079645
_cell_length_b     38.076782
_cell_length_c     52.129797
_cell_angle_alpha  89.995966
_cell_angle_beta   90.004118
_cell_angle_gamma 120.02022
loop_
_atom_site_label
_atom_site_type_symbol
_atom_site_fract_x
_atom_site_fract_y
_atom_site_fract_z
_atom_type_partial_charge
Co0 Co 0.05324 0.34709 0.13105 0.0
O1 O 0.03522 0.37177 0.10576 0.0
O2 O 0.08893 0.40536 0.13064 0.0
C3 C 0.99168 0.30649 0.14907 0.0
O4 O 0.08048 0.33342 0.15998 0.0
Co5 Co 0.0225 0.25472 0.13223 0.0
O6 O 0.04509 0.26635 0.16755 0.0
C7 C 0.08771 0.30748 0.09576 0.0
C8 C 0.06524 0.40647 0.11309 0.0
C9 C 0.07232 0.30215 0.17373 0.0
O10 O 0.08799 0.33925 0.10469 0.0
O11 O 0.06246 0.27141 0.10327 0.0
O12 O 0.01304 0.34443 0.15556 0.0
O13 O 0.0063 0.29533 0.13046 0.0
Co14 Co 0.70763 0.05337 0.29803 0.0
O15 O 0.66533 0.03616 0.27254 0.0
O16 O 0.6855 0.08941 0.29786 0.0
C17 C 0.68588 0.9913 0.31552 0.0
O18 O 0.74825 0.07978 0.32723 0.0
Co19 Co 0.7687 0.02195 0.29907 0.0
O20 O 0.77939 0.04383 0.33457 0.0
C21 C 0.78187 0.08771 0.26287 0.0
C22 C 0.66082 0.06618 0.28011 0.0
C23 C 0.77103 0.07113 0.34094 0.0
O24 O 0.75069 0.08839 0.27197 0.0
O25 O 0.79221 0.06201 0.27015 0.0
O26 O 0.66948 0.01275 0.32213 0.0
O27 O 0.71202 0.00623 0.29711 0.0
Co28 Co 0.65734 0.70827 0.46479 0.0
O29 O 0.63242 0.66569 0.43944 0.0
O30 O 0.59902 0.68527 0.4649 0.0
C31 C 0.69879 0.68801 0.48242 0.0
O32 O 0.67138 0.74886 0.49398 0.0
Co33 Co 0.74984 0.7705 0.46401 0.0
O34 O 0.73907 0.78957 0.49686 0.0
C35 C 0.69545 0.7817 0.42866 0.0
C36 C 0.59777 0.66072 0.44712 0.0
C37 C 0.70321 0.77739 0.50494 0.0
O38 O 0.66413 0.75087 0.43859 0.0
O39 O 0.7319 0.79219 0.43496 0.0
O40 O 0.66086 0.67086 0.48901 0.0
O41 O 0.70928 0.71352 0.46368 0.0
Co42 Co 0.95092 0.65469 0.63109 0.0
O43 O 0.96821 0.63015 0.60525 0.0
O44 O 0.91513 0.59647 0.63061 0.0
C45 C 0.01307 0.69506 0.64856 0.0
O46 O 0.92441 0.66815 0.66062 0.0
Co47 Co 0.98193 0.74714 0.633 0.0
O48 O 0.95991 0.73514 0.66845 0.0
C49 C 0.91617 0.69496 0.59664 0.0
C50 C 0.93836 0.59542 0.61271 0.0
C51 C 0.93278 0.69928 0.67458 0.0
O52 O 0.9157 0.66296 0.60532 0.0
O53 O 0.9417 0.7309 0.60423 0.0
O54 O 0.99184 0.65705 0.65491 0.0
O55 O 0.99783 0.70639 0.63041 0.0
Co56 Co 0.29676 0.95078 0.79761 0.0
O57 O 0.33889 0.96854 0.77192 0.0
O58 O 0.32071 0.91632 0.79786 0.0
C59 C 0.31632 0.01272 0.81473 0.0
O60 O 0.25694 0.92429 0.82721 0.0
Co61 Co 0.23322 0.97945 0.79706 0.0
O62 O 0.215 0.94985 0.83002 0.0
C63 C 0.22213 0.91301 0.76248 0.0
C64 C 0.34469 0.93947 0.77981 0.0
C65 C 0.22807 0.92695 0.8382 0.0
O66 O 0.25387 0.91378 0.77191 0.0
O67 O 0.21091 0.9384 0.76881 0.0
O68 O 0.33431 0.99273 0.82128 0.0
O69 O 0.29039 0.9968 0.79628 0.0
Co70 Co 0.34761 0.29651 0.96431 0.0
O71 O 0.3724 0.33908 0.93891 0.0
O72 O 0.40586 0.3192 0.9641 0.0
C73 C 0.30683 0.31751 0.982 0.0
O74 O 0.33402 0.25586 0.99343 0.0
Co75 Co 0.25531 0.23461 0.96583 0.0
O76 O 0.26707 0.22447 0.0013 0.0
C77 C 0.3082 0.22157 0.92979 0.0
C78 C 0.40707 0.34391 0.94645 0.0
C79 C 0.3029 0.23306 0.00738 0.0
O80 O 0.33993 0.25372 0.93813 0.0
O81 O 0.27218 0.21037 0.93756 0.0
O82 O 0.34474 0.33423 0.98857 0.0
O83 O 0.29577 0.29145 0.96355 0.0
Co84 Co 0.65759 0.9519 0.70337 0.0
O85 O 0.63286 0.9695 0.7289 0.0
O86 O 0.5992 0.91715 0.70299 0.0
C87 C 0.6998 0.01381 0.6862 0.0
O88 O 0.67134 0.92555 0.67391 0.0
Co89 Co 0.74993 0.98112 0.70418 0.0
O90 O 0.73894 0.95171 0.67116 0.0
C91 C 0.69463 0.91455 0.73871 0.0
C92 C 0.5981 0.94027 0.72096 0.0
C93 C 0.70305 0.92858 0.66294 0.0
O94 O 0.6636 0.91516 0.72923 0.0
O95 O 0.73123 0.94001 0.73238 0.0
O96 O 0.66187 0.99358 0.67954 0.0
O97 O 0.70986 0.99815 0.70478 0.0
Co98 Co 0.70771 0.65616 0.87009 0.0
O99 O 0.66584 0.6318 0.89596 0.0
O100 O 0.68486 0.5979 0.87052 0.0
C101 C 0.68639 0.69694 0.8527 0.0
O102 O 0.74753 0.66928 0.8405 0.0
Co103 Co 0.76987 0.74839 0.86805 0.0
O104 O 0.7794 0.73623 0.83254 0.0
C105 C 0.78323 0.69579 0.90415 0.0
C106 C 0.66066 0.59698 0.88843 0.0
C107 C 0.77036 0.70027 0.82645 0.0
O108 O 0.75114 0.664 0.89581 0.0
O109 O 0.79421 0.73178 0.89641 0.0
O110 O 0.6693 0.65891 0.84634 0.0
O111 O 0.71303 0.7081 0.8708 0.0
Co112 Co 0.05374 0.70733 0.03679 0.0
O113 O 0.03612 0.66497 0.06232 0.0
O114 O 0.08866 0.68392 0.03654 0.0
C115 C 0.99188 0.6874 0.01943 0.0
O116 O 0.08022 0.74752 0.00738 0.0
Co117 Co 0.02424 0.77021 0.03739 0.0
O118 O 0.05371 0.78861 0.00438 0.0
C119 C 0.09054 0.78163 0.07221 0.0
C120 C 0.06551 0.65963 0.05448 0.0
C121 C 0.0771 0.77608 0.99631 0.0
O122 O 0.09018 0.75012 0.06273 0.0
O123 O 0.06502 0.79263 0.06579 0.0
O124 O 0.01225 0.66981 0.01288 0.0
O125 O 0.00737 0.71314 0.03802 0.0
Co126 Co 0.34887 0.0537 0.20313 0.0
O127 O 0.37355 0.03681 0.22913 0.0
O128 O 0.4071 0.08931 0.20329 0.0
C129 C 0.30806 0.99129 0.18615 0.0
O130 O 0.33525 0.0797 0.17338 0.0
Co131 Co 0.25656 0.02329 0.20161 0.0
O132 O 0.26816 0.04438 0.16595 0.0
C133 C 0.30959 0.09013 0.23704 0.0
C134 C 0.40824 0.06645 0.22142 0.0
C135 C 0.30399 0.07121 0.15953 0.0
O136 O 0.34124 0.08971 0.22856 0.0
O137 O 0.27347 0.06483 0.22964 0.0
O138 O 0.34604 0.0122 0.17968 0.0
O139 O 0.29702 0.00696 0.20421 0.0
Co140 Co 0.29826 0.34893 0.36929 0.0
O141 O 0.34022 0.37358 0.39506 0.0
O142 O 0.32082 0.40718 0.36962 0.0
C143 C 0.3196 0.30828 0.35181 0.0
O144 O 0.25814 0.33523 0.33984 0.0
Co145 Co 0.23656 0.25647 0.36789 0.0
O146 O 0.2268 0.26815 0.3323 0.0
C147 C 0.22321 0.30925 0.40379 0.0
C148 C 0.3451 0.40829 0.38755 0.0
C149 C 0.23549 0.30392 0.32597 0.0
O150 O 0.25494 0.34103 0.39509 0.0
O151 O 0.21252 0.27318 0.39637 0.0
O152 O 0.33655 0.34628 0.3454 0.0
O153 O 0.29331 0.29717 0.37012 0.0
Co154 Co 0.95238 0.29629 0.53622 0.0
O155 O 0.9699 0.33879 0.56162 0.0
O156 O 0.91643 0.31851 0.53649 0.0
C157 C 0.01419 0.3177 0.51844 0.0
O158 O 0.9256 0.25556 0.5071 0.0
Co159 Co 0.98348 0.23495 0.53498 0.0
O160 O 0.96132 0.22425 0.49956 0.0
C161 C 0.91784 0.22188 0.57123 0.0
C162 C 0.93983 0.34328 0.55415 0.0
C163 C 0.93404 0.2327 0.49331 0.0
O164 O 0.91756 0.25343 0.56244 0.0
O165 O 0.94311 0.21112 0.56368 0.0
O166 O 0.9928 0.33423 0.51194 0.0
O167 O 0.9994 0.2917 0.53693 0.0
C168 C 0.04647 0.60155 0.08464 0.0
C169 C 0.07048 0.6257 0.06426 0.0
C170 C 0.04838 0.56735 0.0928 0.0
C171 C 0.07472 0.55673 0.08018 0.0
C172 C 0.09976 0.58155 0.06 0.0
C173 C 0.09745 0.6158 0.05235 0.0
C174 C 0.02142 0.54197 0.11455 0.0
C175 C 0.12809 0.57124 0.04595 0.0
C176 C 0.09858 0.48247 0.11434 0.0
C177 C 0.07024 0.44536 0.10324 0.0
C178 C 0.10098 0.51908 0.1067 0.0
C179 C 0.07458 0.51865 0.08738 0.0
C180 C 0.04678 0.48141 0.07558 0.0
C181 C 0.04487 0.44528 0.08369 0.0
C182 C 0.13095 0.55805 0.11983 0.0
C183 C 0.01829 0.47957 0.05479 0.0
H184 H 0.02562 0.609 0.09401 0.0
H185 H 0.11604 0.6342 0.03654 0.0
H186 H 0.99938 0.5112 0.10743 0.0
H187 H 0.03983 0.53832 0.12969 0.0
H188 H 0.00432 0.55552 0.12329 0.0
H189 H 0.14703 0.59468 0.03158 0.0
H190 H 0.14838 0.56786 0.05976 0.0
H191 H 0.11026 0.54174 0.03595 0.0
H192 H 0.11823 0.48283 0.12951 0.0
H193 H 0.02293 0.4168 0.07496 0.0
H194 H 0.11441 0.57063 0.13039 0.0
H195 H 0.1504 0.581 0.1054 0.0
H196 H 0.1507 0.55362 0.13357 0.0
H197 H 0.99736 0.48921 0.06265 0.0
H198 H 0.99994 0.44861 0.04663 0.0
H199 H 0.03569 0.50083 0.03904 0.0
C200 C 0.60223 0.04691 0.25041 0.0
C201 C 0.62717 0.07157 0.27031 0.0
C202 C 0.56811 0.04903 0.24237 0.0
C203 C 0.55841 0.07632 0.25462 0.0
C204 C 0.58406 0.10206 0.27429 0.0
C205 C 0.61819 0.09947 0.28184 0.0
C206 C 0.54181 0.02126 0.22119 0.0
C207 C 0.57474 0.13145 0.28789 0.0
C208 C 0.48415 0.09951 0.21993 0.0
C209 C 0.44716 0.07185 0.23147 0.0
C210 C 0.52076 0.10204 0.22767 0.0
C211 C 0.52046 0.07648 0.24753 0.0
C212 C 0.48339 0.04951 0.25983 0.0
C213 C 0.44724 0.04744 0.2516 0.0
C214 C 0.55956 0.13111 0.21401 0.0
C215 C 0.48171 0.02196 0.28121 0.0
H216 H 0.60896 0.02533 0.24134 0.0
H217 H 0.63721 0.11857 0.29729 0.0
H218 H 0.51115 0.99994 0.2288 0.0
H219 H 0.53807 0.03917 0.20574 0.0
H220 H 0.55464 0.00333 0.21271 0.0
H221 H 0.59879 0.15087 0.30181 0.0
H222 H 0.57121 0.15126 0.27377 0.0
H223 H 0.54557 0.11444 0.29835 0.0
H224 H 0.4844 0.11844 0.20433 0.0
H225 H 0.41885 0.02606 0.26068 0.0
H226 H 0.57146 0.11382 0.20362 0.0
H227 H 0.58303 0.15088 0.22809 0.0
H228 H 0.55514 0.15058 0.20003 0.0
H229 H 0.49059 1.00022 0.27376 0.0
H230 H 0.45098 0.00449 0.28981 0.0
H231 H 0.5036 0.03995 0.29653 0.0
C232 C 0.55876 0.60203 0.4174 0.0
C233 C 0.55882 0.62694 0.43726 0.0
C234 C 0.52259 0.56796 0.40919 0.0
C235 C 0.48543 0.55828 0.4212 0.0
C236 C 0.48512 0.58388 0.44082 0.0
C237 C 0.52178 0.61794 0.44856 0.0
C238 C 0.5243 0.54172 0.38807 0.0
C239 C 0.44623 0.5746 0.45416 0.0
C240 C 0.38827 0.48421 0.38607 0.0
C241 C 0.37868 0.44718 0.39763 0.0
C242 C 0.42236 0.52077 0.39391 0.0
C243 C 0.44734 0.52038 0.41392 0.0
C244 C 0.43698 0.48325 0.42623 0.0
C245 C 0.40293 0.44715 0.41789 0.0
C246 C 0.43239 0.55962 0.38021 0.0
C247 C 0.46253 0.48146 0.44779 0.0
H248 H 0.58719 0.60877 0.4085 0.0
H249 H 0.52152 0.63695 0.46395 0.0
H250 H 0.51476 0.51101 0.39567 0.0
H251 H 0.50291 0.53809 0.37248 0.0
H252 H 0.55519 0.55452 0.37978 0.0
H253 H 0.45072 0.59859 0.46808 0.0
H254 H 0.42315 0.57123 0.43987 0.0
H255 H 0.43379 0.54535 0.46456 0.0
H256 H 0.36979 0.48453 0.37036 0.0
H257 H 0.39571 0.41873 0.42701 0.0
H258 H 0.46174 0.5715 0.36999 0.0
H259 H 0.43595 0.58308 0.39425 0.0
H260 H 0.40873 0.55527 0.36606 0.0
H261 H 0.49326 0.49036 0.44053 0.0
H262 H 0.44911 0.45069 0.45636 0.0
H263 H 0.46624 0.5033 0.4631 0.0
C264 C 0.9058 0.51954 0.61434 0.0
C265 C 0.9332 0.55656 0.60272 0.0
C266 C 0.90357 0.48303 0.60668 0.0
C267 C 0.92914 0.48344 0.5868 0.0
C268 C 0.95585 0.52053 0.57442 0.0
C269 C 0.95766 0.55659 0.58258 0.0
C270 C 0.8748 0.44422 0.62045 0.0
C271 C 0.98337 0.52232 0.55299 0.0
C272 C 0.95924 0.40203 0.58377 0.0
C273 C 0.93445 0.37694 0.56395 0.0
C274 C 0.957 0.43608 0.59183 0.0
C275 C 0.92948 0.44558 0.57969 0.0
C276 C 0.90365 0.4198 0.5601 0.0
C277 C 0.90635 0.38574 0.55253 0.0
C278 C 0.98486 0.46252 0.61294 0.0
C279 C 0.87403 0.42889 0.5466 0.0
H280 H 0.88686 0.51922 0.62996 0.0
H281 H 0.97884 0.585 0.57344 0.0
H282 H 0.85499 0.42064 0.60644 0.0
H283 H 0.89232 0.43252 0.63077 0.0
H284 H 0.85537 0.44856 0.63451 0.0
H285 H 1.00066 0.55305 0.54435 0.0
H286 H 0.00527 0.51361 0.5604 0.0
H287 H 0.96539 0.50035 0.5377 0.0
H288 H 0.98097 0.39544 0.59276 0.0
H289 H 0.88714 0.36661 0.53715 0.0
H290 H 0.967 0.4662 0.62844 0.0
H291 H 0.00602 0.49319 0.60528 0.0
H292 H 1.00296 0.44983 0.62136 0.0
H293 H 0.85421 0.43228 0.56079 0.0
H294 H 0.85463 0.40481 0.5327 0.0
H295 H 0.89084 0.4581 0.53614 0.0
C296 C 0.55921 0.96003 0.75073 0.0
C297 C 0.55923 0.93545 0.73069 0.0
C298 C 0.5231 0.95816 0.75886 0.0
C299 C 0.48601 0.93122 0.74657 0.0
C300 C 0.48568 0.90566 0.72671 0.0
C301 C 0.52225 0.90799 0.71906 0.0
C302 C 0.52483 0.98575 0.78024 0.0
C303 C 0.44687 0.87664 0.71305 0.0
C304 C 0.38833 0.90726 0.78134 0.0
C305 C 0.3788 0.93486 0.76995 0.0
C306 C 0.42264 0.90514 0.77361 0.0
C307 C 0.44796 0.93107 0.7539 0.0
C308 C 0.43779 0.95814 0.74182 0.0
C309 C 0.40346 0.95978 0.75003 0.0
C310 C 0.43243 0.87594 0.78703 0.0
C311 C 0.46375 0.98613 0.72062 0.0
H312 H 0.58759 0.98128 0.75987 0.0
H313 H 0.52196 0.88895 0.70351 0.0
H314 H 0.51551 0.0072 0.77286 0.0
H315 H 0.50326 0.96771 0.79569 0.0
H316 H 0.55567 0.00353 0.78865 0.0
H317 H 0.45135 0.85753 0.69881 0.0
H318 H 0.42359 0.85653 0.72711 0.0
H319 H 0.43467 0.89392 0.70295 0.0
H320 H 0.36953 0.88794 0.79678 0.0
H321 H 0.39633 0.98114 0.74106 0.0
H322 H 0.4618 0.89311 0.79726 0.0
H323 H 0.43582 0.85617 0.7728 0.0
H324 H 0.40871 0.85648 0.80111 0.0
H325 H 0.49443 0.00759 0.72814 0.0
H326 H 0.45062 0.00391 0.71232 0.0
H327 H 0.46751 0.96841 0.70506 0.0
C328 C 0.44627 0.40275 0.91684 0.0
C329 C 0.44604 0.37791 0.93679 0.0
C330 C 0.48247 0.43705 0.90888 0.0
C331 C 0.51944 0.44706 0.92128 0.0
C332 C 0.51956 0.42159 0.94105 0.0
C333 C 0.48292 0.38725 0.9485 0.0
C334 C 0.48098 0.46315 0.88757 0.0
C335 C 0.55823 0.43125 0.95485 0.0
C336 C 0.61742 0.5211 0.88694 0.0
C337 C 0.62676 0.55817 0.89836 0.0
C338 C 0.58308 0.48458 0.89454 0.0
C339 C 0.55757 0.48503 0.91417 0.0
C340 C 0.56761 0.52219 0.92632 0.0
C341 C 0.60195 0.55826 0.91823 0.0
C342 C 0.57342 0.4457 0.88103 0.0
C343 C 0.54148 0.52403 0.94747 0.0
H344 H 0.41796 0.39575 0.90764 0.0
H345 H 0.48304 0.36834 0.96399 0.0
H346 H 0.49019 0.49383 0.89507 0.0
H347 H 0.50274 0.46687 0.8722 0.0
H348 H 0.45024 0.45014 0.87902 0.0
H349 H 0.55359 0.40747 0.96899 0.0
H350 H 0.58167 0.43461 0.94087 0.0
H351 H 0.57029 0.4606 0.96509 0.0
H352 H 0.63633 0.52072 0.87153 0.0
H353 H 0.60895 0.58671 0.9272 0.0
H354 H 0.54419 0.43362 0.87063 0.0
H355 H 0.5698 0.42239 0.8952 0.0
H356 H 0.59732 0.45007 0.86706 0.0
H357 H 0.51091 0.51498 0.93984 0.0
H358 H 0.55461 0.55485 0.95592 0.0
H359 H 0.53747 0.50232 0.96294 0.0
C360 C 0.12546 0.27935 0.07211 0.0
C361 C 0.11956 0.31232 0.07714 0.0
C362 C 0.15676 0.28331 0.05603 0.0
C363 C 0.18276 0.32106 0.04422 0.0
C364 C 0.17665 0.35434 0.04871 0.0
C365 C 0.14532 0.34969 0.06528 0.0
C366 C 0.16241 0.24711 0.05206 0.0
C367 C 0.20336 0.3949 0.03615 0.0
C368 C 0.2848 0.33561 0.02277 0.0
C369 C 0.27683 0.32269 0.99717 0.0
C370 C 0.25492 0.33661 0.0381 0.0
C371 C 0.21644 0.32526 0.02741 0.0
C372 C 0.20901 0.31411 0.0012 0.0
C373 C 0.23909 0.31246 0.9865 0.0
C374 C 0.26384 0.34781 0.06608 0.0
C375 C 0.16874 0.30249 0.98891 0.0
H376 H 0.10608 0.25035 0.08124 0.0
H377 H 0.14109 0.37534 0.06896 0.0
H378 H 0.15973 0.23928 0.03139 0.0
H379 H 0.19326 0.2546 0.0583 0.0
H380 H 0.13983 0.21997 0.06283 0.0
H381 H 0.19373 0.41731 0.04078 0.0
H382 H 0.23521 0.40728 0.0425 0.0
H383 H 0.20288 0.39122 0.01501 0.0
H384 H 0.31383 0.3433 0.03115 0.0
H385 H 0.2329 0.30269 0.96667 0.0
H386 H 0.24438 0.32094 0.07812 0.0
H387 H 0.25656 0.37176 0.07113 0.0
H388 H 0.29607 0.35872 0.07099 0.0
H389 H 0.14483 0.2733 0.99703 0.0
H390 H 0.16936 0.2991 0.96778 0.0
H391 H 0.15999 0.32565 0.99314 0.0
C392 C 0.84684 0.12364 0.23803 0.0
C393 C 0.80902 0.11951 0.24424 0.0
C394 C 0.87441 0.15487 0.22197 0.0
C395 C 0.86395 0.18264 0.21141 0.0
C396 C 0.82555 0.1783 0.21706 0.0
C397 C 0.79863 0.14696 0.23353 0.0
C398 C 0.91516 0.15855 0.21671 0.0
C399 C 0.81307 0.20697 0.20586 0.0
C400 C 0.95334 0.28382 0.19043 0.0
C401 C 0.95669 0.27663 0.16443 0.0
C402 C 0.92252 0.25395 0.20582 0.0
C403 C 0.89376 0.21638 0.19477 0.0
C404 C 0.89595 0.20981 0.16821 0.0
C405 C 0.92774 0.23977 0.15345 0.0
C406 C 0.92196 0.26186 0.23415 0.0
C407 C 0.86549 0.17058 0.15554 0.0
H408 H 0.85551 0.1029 0.2462 0.0
H409 H 0.76956 0.14413 0.23812 0.0
H410 H 0.91914 0.15647 0.19579 0.0
H411 H 0.93983 0.18863 0.22318 0.0
H412 H 0.91874 0.13463 0.22653 0.0
H413 H 0.78155 0.1985 0.21118 0.0
H414 H 0.83389 0.23827 0.21269 0.0
H415 H 0.81544 0.20735 0.18464 0.0
H416 H 0.97588 0.31216 0.19904 0.0
H417 H 0.93012 0.23422 0.1333 0.0
H418 H 0.92845 0.24084 0.24521 0.0
H419 H 0.89149 0.25593 0.24004 0.0
H420 H 0.94473 0.29349 0.23947 0.0
H421 H 0.86962 0.14545 0.16269 0.0
H422 H 0.86864 0.17197 0.13432 0.0
H423 H 0.83416 0.1631 0.16051 0.0
C424 C 0.72203 0.84839 0.4064 0.0
C425 C 0.68989 0.80868 0.41044 0.0
C426 C 0.71767 0.87559 0.39045 0.0
C427 C 0.68041 0.86284 0.3777 0.0
C428 C 0.6479 0.82269 0.38134 0.0
C429 C 0.65287 0.79617 0.39788 0.0
C430 C 0.75297 0.91828 0.3875 0.0
C431 C 0.60793 0.80781 0.36775 0.0
C432 C 0.6648 0.94934 0.3556 0.0
C433 C 0.67998 0.95565 0.3305 0.0
C434 C 0.66308 0.91806 0.37089 0.0
C435 C 0.67612 0.892 0.36065 0.0
C436 C 0.68945 0.897 0.33484 0.0
C437 C 0.69165 0.92902 0.32019 0.0
C438 C 0.64942 0.91436 0.39843 0.0
C439 C 0.70305 0.86957 0.32302 0.0
H440 H 0.75065 0.85872 0.4162 0.0
H441 H 0.62789 0.76562 0.40086 0.0
H442 H 0.76238 0.92434 0.36709 0.0
H443 H 0.74374 0.94052 0.39335 0.0
H444 H 0.77963 0.92367 0.39917 0.0
H445 H 0.58598 0.7755 0.3721 0.0
H446 H 0.59432 0.82646 0.37345 0.0
H447 H 0.61287 0.81125 0.3467 0.0
H448 H 0.65589 0.96992 0.36371 0.0
H449 H 0.70312 0.93359 0.30071 0.0
H450 H 0.67557 0.9226 0.41136 0.0
H451 H 0.62611 0.88259 0.40286 0.0
H452 H 0.63678 0.93441 0.4028 0.0
H453 H 0.732 0.8756 0.33193 0.0
H454 H 0.70774 0.87419 0.30199 0.0
H455 H 0.68036 0.8373 0.32673 0.0
C456 C 0.72016 0.6679 0.52266 0.0
C457 C 0.72899 0.68301 0.49753 0.0
C458 C 0.74976 0.6664 0.538 0.0
C459 C 0.78891 0.67956 0.5278 0.0
C460 C 0.79733 0.69306 0.50202 0.0
C461 C 0.76743 0.69508 0.4873 0.0
C462 C 0.73972 0.65259 0.56552 0.0
C463 C 0.83839 0.7067 0.49024 0.0
C464 C 0.87772 0.72335 0.57421 0.0
C465 C 0.88442 0.69064 0.57813 0.0
C466 C 0.84684 0.71998 0.55795 0.0
C467 C 0.82212 0.68314 0.54481 0.0
C468 C 0.829 0.65012 0.54826 0.0
C469 C 0.85984 0.65412 0.56505 0.0
C470 C 0.84027 0.7558 0.55518 0.0
C471 C 0.8037 0.61056 0.53427 0.0
H472 H 0.69054 0.65868 0.53071 0.0
H473 H 0.77432 0.70651 0.46782 0.0
H474 H 0.74737 0.62865 0.56971 0.0
H475 H 0.75823 0.67845 0.57853 0.0
H476 H 0.70717 0.64067 0.57001 0.0
H477 H 0.83866 0.71195 0.46926 0.0
H478 H 0.86142 0.73533 0.49943 0.0
H479 H 0.84767 0.68372 0.49366 0.0
H480 H 0.89614 0.75165 0.58432 0.0
H481 H 0.86475 0.6287 0.56788 0.0
H482 H 0.80891 0.74702 0.56104 0.0
H483 H 0.8438 0.76544 0.53482 0.0
H484 H 0.86184 0.78218 0.56695 0.0
H485 H 0.77143 0.59702 0.53998 0.0
H486 H 0.81376 0.58829 0.53828 0.0
H487 H 0.8053 0.61605 0.51328 0.0
C488 C 0.05821 0.71396 0.68722 0.0
C489 C 0.04885 0.72473 0.66353 0.0
C490 C 0.08961 0.74303 0.70269 0.0
C491 C 0.11246 0.78373 0.69412 0.0
C492 C 0.10441 0.79423 0.66963 0.0
C493 C 0.07257 0.7647 0.65472 0.0
C494 C 0.09681 0.73062 0.72878 0.0
C495 C 0.12822 0.83713 0.65964 0.0
C496 C 0.15377 0.86828 0.7435 0.0
C497 C 0.19498 0.87971 0.74482 0.0
C498 C 0.12674 0.83671 0.72749 0.0
C499 C 0.14119 0.81623 0.7119 0.0
C500 C 0.18274 0.82745 0.71307 0.0
C501 C 0.20912 0.85881 0.72976 0.0
C502 C 0.08258 0.82531 0.72728 0.0
C503 C 0.19937 0.8067 0.69646 0.0
H504 H 0.04002 0.68313 0.69415 0.0
H505 H 0.06571 0.77318 0.63634 0.0
H506 H 0.12954 0.74155 0.73166 0.0
H507 H 0.08739 0.74479 0.74386 0.0
H508 H 0.07958 0.6972 0.7315 0.0
H509 H 0.12154 0.83934 0.63915 0.0
H510 H 0.12067 0.85707 0.67104 0.0
H511 H 0.16125 0.84891 0.66177 0.0
H512 H 0.14231 0.88372 0.75537 0.0
H513 H 0.24087 0.86742 0.73069 0.0
H514 H 0.06312 0.79265 0.73187 0.0
H515 H 0.0739 0.83023 0.70787 0.0
H516 H 0.07593 0.84323 0.74127 0.0
H517 H 0.1827 0.77358 0.7002 0.0
H518 H 0.23222 0.81855 0.69982 0.0
H519 H 0.19478 0.81102 0.67593 0.0
C520 C 0.34229 0.05878 0.85294 0.0
C521 C 0.321 0.04803 0.82964 0.0
C522 C 0.34397 0.08993 0.86833 0.0
C523 C 0.32425 0.11117 0.86011 0.0
C524 C 0.30426 0.1016 0.83605 0.0
C525 C 0.30265 0.07001 0.8212 0.0
C526 C 0.36518 0.09875 0.89396 0.0
C527 C 0.28319 0.12371 0.82643 0.0
C528 C 0.28344 0.1529 0.91089 0.0
C529 C 0.313 0.19424 0.91153 0.0
C530 C 0.2871 0.12574 0.89448 0.0
C531 C 0.32082 0.14019 0.87779 0.0
C532 C 0.35072 0.18195 0.87812 0.0
C533 C 0.34671 0.20843 0.89522 0.0
C534 C 0.25491 0.08138 0.8952 0.0
C535 C 0.38673 0.19862 0.86029 0.0
H536 H 0.35657 0.04197 0.8596 0.0
H537 H 0.28637 0.06206 0.80313 0.0
H538 H 0.38685 0.1317 0.896 0.0
H539 H 0.34252 0.08995 0.90959 0.0
H540 H 0.38189 0.08204 0.89661 0.0
H541 H 0.27285 0.11578 0.80625 0.0
H542 H 0.25638 0.11593 0.83862 0.0
H543 H 0.30376 0.15699 0.82778 0.0
H544 H 0.25755 0.14144 0.92367 0.0
H545 H 0.36963 0.24031 0.89558 0.0
H546 H 0.26896 0.06263 0.89962 0.0
H547 H 0.24022 0.0717 0.87613 0.0
H548 H 0.23108 0.07487 0.90973 0.0
H549 H 0.40449 0.18324 0.86381 0.0
H550 H 0.40706 0.23183 0.86267 0.0
H551 H 0.37618 0.19238 0.84009 0.0
C552 C 0.69752 0.76694 0.84635 0.0
C553 C 0.68041 0.72676 0.83779 0.0
C554 C 0.69519 0.79649 0.83147 0.0
C555 C 0.6757 0.78578 0.80726 0.0
C556 C 0.65702 0.74489 0.79897 0.0
C557 C 0.65942 0.71583 0.81439 0.0
C558 C 0.71522 0.8396 0.84117 0.0
C559 C 0.63636 0.73223 0.77318 0.0
C560 C 0.65405 0.86104 0.77195 0.0
C561 C 0.68857 0.88131 0.75637 0.0
C562 C 0.64928 0.82986 0.78872 0.0
C563 C 0.67926 0.81813 0.78944 0.0
C564 C 0.71364 0.83796 0.77331 0.0
C565 C 0.71802 0.8694 0.75724 0.0
C566 C 0.61253 0.80985 0.80592 0.0
C567 C 0.74599 0.826 0.77301 0.0
H568 H 0.71354 0.77557 0.86451 0.0
H569 H 0.64609 0.68483 0.80765 0.0
H570 H 0.74235 0.85906 0.82934 0.0
H571 H 0.69425 0.85177 0.83939 0.0
H572 H 0.72489 0.84207 0.86152 0.0
H573 H 0.61974 0.69876 0.77068 0.0
H574 H 0.61475 0.74346 0.77068 0.0
H575 H 0.6594 0.74593 0.75774 0.0
H576 H 0.63119 0.87005 0.77136 0.0
H577 H 0.74449 0.88436 0.74498 0.0
H578 H 0.62225 0.81453 0.8263 0.0
H579 H 0.59558 0.77665 0.80247 0.0
H580 H 0.59172 0.822 0.80285 0.0
H581 H 0.76031 0.83113 0.79221 0.0
H582 H 0.77008 0.84341 0.75864 0.0
H583 H 0.7322 0.7932 0.76864 0.0
C584 C 0.85143 0.72184 0.92423 0.0
C585 C 0.81061 0.6911 0.92247 0.0
C586 C 0.87863 0.71821 0.94063 0.0
C587 C 0.86475 0.68324 0.95615 0.0
C588 C 0.82351 0.65217 0.95473 0.0
C589 C 0.79699 0.65626 0.9377 0.0
C590 C 0.92246 0.75177 0.94114 0.0
C591 C 0.80742 0.61475 0.97128 0.0
C592 C 0.94769 0.66354 0.98032 0.0
C593 C 0.95673 0.6827 0.00434 0.0
C594 C 0.91674 0.66205 0.96482 0.0
C595 C 0.89385 0.67966 0.9737 0.0
C596 C 0.90167 0.69743 0.99843 0.0
C597 C 0.93321 0.69903 0.01335 0.0
C598 C 0.90986 0.64336 0.93845 0.0
C599 C 0.87771 0.71611 0.00878 0.0
H600 H 0.86251 0.74868 0.91235 0.0
H601 H 0.76554 0.63241 0.9365 0.0
H602 H 0.9308 0.76477 0.96072 0.0
H603 H 0.94254 0.73942 0.93623 0.0
H604 H 0.92858 0.77662 0.92751 0.0
H605 H 0.77448 0.5937 0.96827 0.0
H606 H 0.82397 0.59834 0.96703 0.0
H607 H 0.81266 0.62355 0.99181 0.0
H608 H 0.96577 0.65089 0.97319 0.0
H609 H 0.93984 0.71365 0.03197 0.0
H610 H 0.91841 0.66729 0.92368 0.0
H611 H 0.8773 0.62086 0.93561 0.0
H612 H 0.9279 0.62815 0.93518 0.0
H613 H 0.88495 0.7437 0.99758 0.0
H614 H 0.88447 0.72472 0.02931 0.0
H615 H 0.8447 0.69467 0.00668 0.0
C616 C 0.28891 0.94552 0.14781 0.0
C617 C 0.27818 0.95541 0.17134 0.0
C618 C 0.25978 0.91403 0.13244 0.0
C619 C 0.21901 0.89157 0.14094 0.0
C620 C 0.20851 0.90015 0.16528 0.0
C621 C 0.23813 0.93211 0.18009 0.0
C622 C 0.2722 0.90628 0.1065 0.0
C623 C 0.16555 0.87676 0.1752 0.0
C624 C 0.13504 0.85006 0.09115 0.0
C625 C 0.12355 0.80881 0.09002 0.0
C626 C 0.16639 0.87714 0.10727 0.0
C627 C 0.18654 0.86271 0.1232 0.0
C628 C 0.17518 0.8211 0.12227 0.0
C629 C 0.14409 0.79468 0.10544 0.0
C630 C 0.17797 0.92136 0.1072 0.0
C631 C 0.19554 0.80449 0.13925 0.0
H632 H 0.3198 0.96337 0.14092 0.0
H633 H 0.22967 0.93937 0.19834 0.0
H634 H 0.26117 0.87348 0.10391 0.0
H635 H 0.25814 0.9155 0.09123 0.0
H636 H 0.30563 0.92336 0.10382 0.0
H637 H 0.1633 0.8838 0.19561 0.0
H638 H 0.14582 0.88434 0.16358 0.0
H639 H 0.15354 0.84366 0.17329 0.0
H640 H 0.11987 0.86149 0.07902 0.0
H641 H 0.13541 0.7629 0.10467 0.0
H642 H 0.21068 0.94065 0.10268 0.0
H643 H 0.17297 0.93032 0.12651 0.0
H644 H 0.16023 0.92795 0.09303 0.0
H645 H 0.22868 0.82084 0.13559 0.0
H646 H 0.18344 0.77154 0.13617 0.0
H647 H 0.19116 0.80952 0.15969 0.0
C648 C 0.2833 0.13164 0.25782 0.0
C649 C 0.31467 0.12262 0.25512 0.0
C650 C 0.28738 0.16295 0.27394 0.0
C651 C 0.32351 0.18567 0.28819 0.0
C652 C 0.35526 0.17664 0.2858 0.0
C653 C 0.35063 0.14546 0.26911 0.0
C654 C 0.25298 0.1719 0.27556 0.0
C655 C 0.39401 0.19981 0.30095 0.0
C656 C 0.34184 0.28809 0.3119 0.0
C657 C 0.32476 0.27832 0.33652 0.0
C658 C 0.34308 0.25861 0.29627 0.0
C659 C 0.32744 0.21857 0.30564 0.0
C660 C 0.31192 0.20912 0.33095 0.0
C661 C 0.31044 0.23898 0.34598 0.0
C662 C 0.35928 0.26984 0.26928 0.0
C663 C 0.29544 0.167 0.34182 0.0
H664 H 0.25555 0.11462 0.24691 0.0
H665 H 0.37501 0.13875 0.26718 0.0
H666 H 0.24156 0.1677 0.29554 0.0
H667 H 0.26397 0.20398 0.27026 0.0
H668 H 0.22727 0.15206 0.26277 0.0
H669 H 0.41563 0.18885 0.29718 0.0
H670 H 0.40899 0.23254 0.29613 0.0
H671 H 0.38706 0.19694 0.32178 0.0
H672 H 0.35283 0.3184 0.30444 0.0
H673 H 0.29743 0.23131 0.36506 0.0
H674 H 0.33416 0.25344 0.25539 0.0
H675 H 0.38211 0.26049 0.26552 0.0
H676 H 0.37339 0.30291 0.26562 0.0
H677 H 0.26718 0.14557 0.33156 0.0
H678 H 0.28853 0.16568 0.36262 0.0
H679 H 0.31749 0.15639 0.33892 0.0
C680 C 0.15614 0.28181 0.42582 0.0
C681 C 0.19589 0.31405 0.42213 0.0
C682 C 0.12882 0.28564 0.44199 0.0
C683 C 0.1415 0.32248 0.45526 0.0
C684 C 0.18169 0.35507 0.45197 0.0
C685 C 0.20832 0.35061 0.43527 0.0
C686 C 0.08612 0.25028 0.44461 0.0
C687 C 0.19648 0.39461 0.46609 0.0
C688 C 0.05562 0.33857 0.47813 0.0
C689 C 0.04941 0.32312 0.50317 0.0
C690 C 0.08652 0.34001 0.4626 0.0
C691 C 0.11228 0.32635 0.4725 0.0
C692 C 0.10731 0.31257 0.4982 0.0
C693 C 0.07568 0.31072 0.51312 0.0
C694 C 0.09026 0.35421 0.43518 0.0
C695 C 0.13443 0.2983 0.50965 0.0
H696 H 0.1459 0.25352 0.41562 0.0
H697 H 0.23891 0.37568 0.4326 0.0
H698 H 0.07989 0.2403 0.46492 0.0
H699 H 0.06394 0.25969 0.43895 0.0
H700 H 0.08082 0.22395 0.43262 0.0
H701 H 0.22882 0.4167 0.46193 0.0
H702 H 0.17788 0.40842 0.46067 0.0
H703 H 0.19289 0.389 0.48707 0.0
H704 H 0.0353 0.34803 0.47029 0.0
H705 H 0.07118 0.299 0.53253 0.0
H706 H 0.08214 0.32837 0.422 0.0
H707 H 0.12202 0.37769 0.43089 0.0
H708 H 0.07016 0.36687 0.43101 0.0
H709 H 0.12835 0.26965 0.50026 0.0
H710 H 0.1296 0.29284 0.53063 0.0
H711 H 0.16677 0.321 0.50618 0.0
C712 C 0.8771 0.15439 0.5925 0.0
C713 C 0.88606 0.19476 0.58979 0.0
C714 C 0.84621 0.12728 0.60891 0.0
C715 C 0.82391 0.14083 0.62348 0.0
C716 C 0.83308 0.18168 0.62121 0.0
C717 C 0.86378 0.20808 0.60419 0.0
C718 C 0.83707 0.08386 0.61035 0.0
C719 C 0.81045 0.19743 0.63676 0.0
C720 C 0.721 0.05703 0.64667 0.0
C721 C 0.73043 0.04891 0.67117 0.0
C722 C 0.75078 0.0879 0.63128 0.0
C723 C 0.79082 0.11171 0.64077 0.0
C724 C 0.79998 0.10483 0.66598 0.0
C725 C 0.7698 0.07327 0.68077 0.0
C726 C 0.73984 0.09369 0.60438 0.0
C727 C 0.84208 0.12987 0.67699 0.0
H728 H 0.89372 0.14352 0.5813 0.0
H729 H 0.8705 0.23919 0.60228 0.0
H730 H 0.84115 0.07637 0.63029 0.0
H731 H 0.80498 0.06295 0.60499 0.0
H732 H 0.85685 0.078 0.59751 0.0
H733 H 0.82202 0.23024 0.63343 0.0
H734 H 0.77773 0.18037 0.63183 0.0
H735 H 0.81305 0.19256 0.6575 0.0
H736 H 0.69066 0.03825 0.6391 0.0
H737 H 0.7772 0.06733 0.69976 0.0
H738 H 0.75639 0.08542 0.59033 0.0
H739 H 0.74922 0.12598 0.60104 0.0
H740 H 0.70681 0.07483 0.60054 0.0
H741 H 0.86335 0.12295 0.66664 0.0
H742 H 0.84317 0.1238 0.69774 0.0
H743 H 0.85307 0.16267 0.67437 0.0
C744 C 0.2083 0.28326 0.28161 0.0
C745 C 0.21609 0.30884 0.30276 0.0
C746 C 0.18705 0.28532 0.2602 0.0
C747 C 0.17216 0.31277 0.2603 0.0
C748 C 0.18053 0.33915 0.28146 0.0
C749 C 0.20294 0.33727 0.30231 0.0
C750 C 0.17979 0.25748 0.23772 0.0
C751 C 0.16436 0.36812 0.28258 0.0
C752 C 0.13874 0.33607 0.19683 0.0
C753 C 0.09725 0.30726 0.19667 0.0
C754 C 0.16354 0.33852 0.21752 0.0
C755 C 0.14613 0.31231 0.23882 0.0
C756 C 0.10389 0.28432 0.23916 0.0
C757 C 0.08008 0.28171 0.2179 0.0
C758 C 0.20856 0.36803 0.21614 0.0
C759 C 0.08394 0.2566 0.2618 0.0
H760 H 0.21875 0.26148 0.28186 0.0
H761 H 0.20862 0.35681 0.31876 0.0
H762 H 0.14693 0.23527 0.23602 0.0
H763 H 0.18939 0.27517 0.21962 0.0
H764 H 0.19639 0.24053 0.23969 0.0
H765 H 0.17495 0.38775 0.29989 0.0
H766 H 0.17379 0.38774 0.2653 0.0
H767 H 0.1307 0.3507 0.28272 0.0
H768 H 0.15213 0.35559 0.1803 0.0
H769 H 0.04792 0.25963 0.21788 0.0
H770 H 0.22526 0.35108 0.21618 0.0
H771 H 0.21865 0.38805 0.23323 0.0
H772 H 0.21714 0.38723 0.19864 0.0
H773 H 0.09535 0.23502 0.26363 0.0
H774 H 0.05039 0.23893 0.25993 0.0
H775 H 0.09179 0.27453 0.2798 0.0
C776 C 0.92663 0.20407 0.44927 0.0
C777 C 0.90939 0.21298 0.47024 0.0
C778 C 0.90304 0.18289 0.42793 0.0
C779 C 0.86093 0.16925 0.42789 0.0
C780 C 0.84347 0.17865 0.44889 0.0
C781 C 0.86806 0.20093 0.46968 0.0
C782 C 0.92307 0.17448 0.40563 0.0
C783 C 0.79857 0.16384 0.44986 0.0
C784 C 0.8048 0.1374 0.36416 0.0
C785 C 0.79087 0.09565 0.364 0.0
C786 C 0.82736 0.16178 0.38494 0.0
C787 C 0.83504 0.14369 0.40635 0.0
C788 C 0.81945 0.10121 0.40671 0.0
C789 C 0.79811 0.0778 0.38534 0.0
C790 C 0.84435 0.20705 0.38353 0.0
C791 C 0.82595 0.08056 0.42946 0.0
H792 H 0.95867 0.21366 0.44958 0.0
H793 H 0.85459 0.20747 0.48598 0.0
H794 H 0.91121 0.14138 0.404 0.0
H795 H 0.91579 0.18459 0.38743 0.0
H796 H 0.95657 0.18996 0.40774 0.0
H797 H 0.78995 0.17489 0.46714 0.0
H798 H 0.7891 0.17391 0.43255 0.0
H799 H 0.78137 0.13018 0.44993 0.0
H800 H 0.79956 0.15129 0.34754 0.0
H801 H 0.78707 0.04545 0.3853 0.0
H802 H 0.87798 0.22276 0.38371 0.0
H803 H 0.83485 0.21772 0.40054 0.0
H804 H 0.83444 0.21619 0.36596 0.0
H805 H 0.85869 0.09083 0.43145 0.0
H806 H 0.809 0.04699 0.42761 0.0
H807 H 0.81623 0.08902 0.44737 0.0
C808 C 0.67005 0.89766 0.621 0.0
C809 C 0.698 0.90325 0.64028 0.0
C810 C 0.66734 0.87581 0.59861 0.0
C811 C 0.69226 0.85815 0.59596 0.0
C812 C 0.71921 0.8623 0.61597 0.0
C813 C 0.72223 0.88537 0.63768 0.0
C814 C 0.63909 0.87304 0.57739 0.0
C815 C 0.7455 0.84305 0.61425 0.0
C816 C 0.66836 0.77631 0.54593 0.0
C817 C 0.69835 0.79801 0.52752 0.0
C818 C 0.66547 0.79556 0.56821 0.0
C819 C 0.69242 0.83766 0.57166 0.0
C820 C 0.72159 0.85993 0.55254 0.0
C821 C 0.72461 0.83971 0.53091 0.0
C822 C 0.63471 0.77059 0.58847 0.0
C823 C 0.7502 0.90503 0.55513 0.0
H824 H 0.65147 0.9117 0.623 0.0
H825 H 0.74351 0.88929 0.65277 0.0
H826 H 0.65705 0.88901 0.56012 0.0
H827 H 0.61865 0.84093 0.57193 0.0
H828 H 0.62034 0.88668 0.58294 0.0
H829 H 0.76192 0.84591 0.63244 0.0
H830 H 0.72674 0.8104 0.60938 0.0
H831 H 0.76817 0.85767 0.59871 0.0
H832 H 0.64817 0.74401 0.54335 0.0
H833 H 0.74749 0.85664 0.51651 0.0
H834 H 0.6156 0.78408 0.59326 0.0
H835 H 0.65065 0.77063 0.60631 0.0
H836 H 0.61467 0.73867 0.58232 0.0
H837 H 0.73294 0.92073 0.55941 0.0
H838 H 0.76845 0.91848 0.5375 0.0
H839 H 0.77126 0.91101 0.57139 0.0
C840 C 0.86649 0.66539 0.69787 0.0
C841 C 0.90803 0.69404 0.69765 0.0
C842 C 0.8418 0.66319 0.71857 0.0
C843 C 0.85935 0.68947 0.73982 0.0
C844 C 0.90166 0.71716 0.74016 0.0
C845 C 0.92537 0.71953 0.7189 0.0
C846 C 0.79671 0.63397 0.71719 0.0
C847 C 0.92178 0.74492 0.76275 0.0
C848 C 0.79785 0.72013 0.78206 0.0
C849 C 0.78963 0.69473 0.80337 0.0
C850 C 0.819 0.71748 0.76079 0.0
C851 C 0.83338 0.68961 0.76118 0.0
C852 C 0.82458 0.66342 0.78249 0.0
C853 C 0.80227 0.6659 0.8032 0.0
C854 C 0.82672 0.74514 0.73814 0.0
C855 C 0.8402 0.63401 0.78393 0.0
H856 H 0.85296 0.64591 0.68135 0.0
H857 H 0.95756 0.7415 0.71884 0.0
H858 H 0.78635 0.61433 0.73445 0.0
H859 H 0.7803 0.6512 0.71685 0.0
H860 H 0.78807 0.61437 0.69987 0.0
H861 H 0.95536 0.76212 0.76097 0.0
H862 H 0.91087 0.76693 0.76437 0.0
H863 H 0.91355 0.72713 0.78081 0.0
H864 H 0.78782 0.74224 0.78209 0.0
H865 H 0.79628 0.6465 0.81977 0.0
H866 H 0.81701 0.72725 0.72012 0.0
H867 H 0.85967 0.76702 0.73646 0.0
H868 H 0.81049 0.76248 0.73988 0.0
H869 H 0.83076 0.61428 0.76671 0.0
H870 H 0.82921 0.61452 0.80129 0.0
H871 H 0.87386 0.65109 0.78421 0.0
C872 C 0.16577 0.88358 0.86352 0.0
C873 C 0.20787 0.90142 0.86081 0.0
C874 C 0.14579 0.86039 0.88521 0.0
C875 C 0.16867 0.85605 0.90509 0.0
C876 C 0.21122 0.87357 0.90231 0.0
C877 C 0.23029 0.89558 0.87994 0.0
C878 C 0.10027 0.8413 0.88707 0.0
C879 C 0.23676 0.87055 0.92338 0.0
C880 C 0.1184 0.83819 0.97026 0.0
C881 C 0.10258 0.79645 0.97368 0.0
C882 C 0.14163 0.85822 0.9486 0.0
C883 C 0.14815 0.83572 0.92946 0.0
C884 C 0.13266 0.79357 0.93295 0.0
C885 C 0.11052 0.7745 0.95527 0.0
C886 C 0.15848 0.90337 0.94596 0.0
C887 C 0.13805 0.76837 0.91267 0.0
H888 H 0.14836 0.88766 0.84854 0.0
H889 H 0.26289 0.90955 0.87786 0.0
H890 H 0.08628 0.80865 0.89196 0.0
H891 H 0.09245 0.85604 0.90265 0.0
H892 H 0.08662 0.84418 0.86893 0.0
H893 H 0.26905 0.88383 0.91765 0.0
H894 H 0.23523 0.88674 0.94066 0.0
H895 H 0.22481 0.83841 0.92889 0.0
H896 H 0.11274 0.85531 0.98467 0.0
H897 H 0.09814 0.74217 0.95788 0.0
H898 H 0.14337 0.90946 0.92977 0.0
H899 H 0.19139 0.91882 0.94157 0.0
H900 H 0.15399 0.91699 0.96362 0.0
H901 H 0.12192 0.76832 0.89493 0.0
H902 H 0.12614 0.73648 0.91891 0.0
H903 H 0.17058 0.78172 0.9077 0.0
C904 C 0.33816 0.13696 0.13568 0.0
C905 C 0.30906 0.09556 0.1363 0.0
C906 C 0.34025 0.1614 0.11487 0.0
C907 C 0.31335 0.14372 0.09391 0.0
C908 C 0.28519 0.10153 0.09396 0.0
C909 C 0.28298 0.07808 0.11533 0.0
C910 C 0.37001 0.2064 0.11583 0.0
C911 C 0.25676 0.08127 0.07167 0.0
C912 C 0.28322 0.20577 0.0518 0.0
C913 C 0.30816 0.21339 0.03034 0.0
C914 C 0.28582 0.18456 0.07306 0.0
C915 C 0.31313 0.1695 0.07248 0.0
C916 C 0.33878 0.1776 0.05095 0.0
C917 C 0.3364 0.2 0.03028 0.0
C918 C 0.25876 0.1776 0.09593 0.0
C919 C 0.36754 0.16121 0.04931 0.0
H920 H 0.3581 0.15061 0.152 0.0
H921 H 0.26066 0.04599 0.11569 0.0
H922 H 0.38925 0.21616 0.09838 0.0
H923 H 0.35323 0.22326 0.11622 0.0
H924 H 0.39 0.21513 0.13297 0.0
H925 H 0.23921 0.04774 0.07372 0.0
H926 H 0.23507 0.0926 0.0702 0.0
H927 H 0.27407 0.08893 0.05343 0.0
H928 H 0.26158 0.2164 0.05194 0.0
H929 H 0.35544 0.20555 0.01357 0.0
H930 H 0.27708 0.18744 0.11378 0.0
H931 H 0.23662 0.14475 0.0979 0.0
H932 H 0.24175 0.19417 0.09426 0.0
H933 H 0.38779 0.17079 0.06629 0.0
H934 H 0.38652 0.17151 0.03171 0.0
H935 H 0.34999 0.12756 0.04937 0.0
loop_
_geom_bond_atom_site_label_1
_geom_bond_atom_site_label_2
_geom_bond_distance
_geom_bond_site_symmetry_2
_ccdc_geom_bond_type
Co0 O1 2.216 . S
Co0 O2 2.091 . S
Co0 O4 2.004 . S
Co0 O10 2.021 . S
Co0 O12 2.137 1_455 S
Co0 O13 2.244 . S
O1 Co0 2.216 . S
O1 C8 1.247 . S
O2 Co0 2.091 . S
O2 C8 1.261 . S
C3 O12 1.247 . S
C3 O13 1.272 1_655 S
O4 Co0 2.004 . S
O4 C9 1.259 . S
Co5 O6 2.061 . S
Co5 O11 2.052 . S
Co5 O13 2.135 . S
O6 Co5 2.061 . S
O6 C9 1.235 . S
C7 O10 1.238 . S
C7 O11 1.241 . S
C8 O1 1.247 . S
C8 O2 1.261 . S
C9 O4 1.259 . S
C9 O6 1.235 . S
O10 Co0 2.021 . S
O10 C7 1.238 . S
O11 Co5 2.052 . S
O11 C7 1.241 . S
O12 Co0 2.137 1_655 S
O12 C3 1.247 . S
O13 Co0 2.244 . S
O13 C3 1.272 1_455 S
O13 Co5 2.135 . S
Co14 O15 2.216 . S
Co14 O16 2.091 . S
Co14 O18 2.004 . S
Co14 O24 2.021 . S
Co14 O26 2.137 1_545 S
Co14 O27 2.244 . S
O15 Co14 2.216 . S
O15 C22 1.247 . S
O16 Co14 2.091 . S
O16 C22 1.261 . S
C17 O26 1.247 . S
C17 O27 1.272 1_565 S
O18 Co14 2.004 . S
O18 C23 1.259 . S
Co19 O20 2.061 . S
Co19 O25 2.052 . S
Co19 O27 2.135 . S
O20 Co19 2.061 . S
O20 C23 1.235 . S
C21 O24 1.238 . S
C21 O25 1.241 . S
C22 O15 1.247 . S
C22 O16 1.261 . S
C23 O18 1.259 . S
C23 O20 1.235 . S
O24 Co14 2.021 . S
O24 C21 1.238 . S
O25 Co19 2.052 . S
O25 C21 1.241 . S
O26 Co14 2.137 1_565 S
O26 C17 1.247 . S
O27 Co14 2.244 . S
O27 C17 1.272 1_545 S
O27 Co19 2.135 . S
Co28 O29 2.216 . S
Co28 O30 2.091 . S
Co28 O32 2.004 . S
Co28 O38 2.021 . S
Co28 O40 2.137 . S
Co28 O41 2.244 . S
O29 Co28 2.216 . S
O29 C36 1.247 . S
O30 Co28 2.091 . S
O30 C36 1.261 . S
C31 O40 1.247 . S
C31 O41 1.272 . S
O32 Co28 2.004 . S
O32 C37 1.259 . S
Co33 O34 2.061 . S
Co33 O39 2.052 . S
Co33 O41 2.135 . S
O34 Co33 2.061 . S
O34 C37 1.235 . S
C35 O38 1.238 . S
C35 O39 1.241 . S
C36 O29 1.247 . S
C36 O30 1.261 . S
C37 O32 1.259 . S
C37 O34 1.235 . S
O38 Co28 2.021 . S
O38 C35 1.238 . S
O39 Co33 2.052 . S
O39 C35 1.241 . S
O40 Co28 2.137 . S
O40 C31 1.247 . S
O41 Co28 2.244 . S
O41 C31 1.272 . S
O41 Co33 2.135 . S
Co42 O43 2.216 . S
Co42 O44 2.091 . S
Co42 O46 2.004 . S
Co42 O52 2.021 . S
Co42 O54 2.137 1_655 S
Co42 O55 2.244 . S
O43 Co42 2.216 . S
O43 C50 1.247 . S
O44 Co42 2.091 . S
O44 C50 1.261 . S
C45 O54 1.247 . S
C45 O55 1.272 1_455 S
O46 Co42 2.004 . S
O46 C51 1.259 . S
Co47 O48 2.061 . S
Co47 O53 2.052 . S
Co47 O55 2.135 . S
O48 Co47 2.061 . S
O48 C51 1.235 . S
C49 O52 1.238 . S
C49 O53 1.241 . S
C50 O43 1.247 . S
C50 O44 1.261 . S
C51 O46 1.259 . S
C51 O48 1.235 . S
O52 Co42 2.021 . S
O52 C49 1.238 . S
O53 Co47 2.052 . S
O53 C49 1.241 . S
O54 Co42 2.137 1_455 S
O54 C45 1.247 . S
O55 Co42 2.244 . S
O55 C45 1.272 1_655 S
O55 Co47 2.135 . S
Co56 O57 2.216 . S
Co56 O58 2.091 . S
Co56 O60 2.004 . S
Co56 O66 2.021 . S
Co56 O68 2.137 1_565 S
Co56 O69 2.244 . S
O57 Co56 2.216 . S
O57 C64 1.247 . S
O58 Co56 2.091 . S
O58 C64 1.261 . S
C59 O68 1.247 . S
C59 O69 1.272 1_545 S
O60 Co56 2.004 . S
O60 C65 1.259 . S
Co61 O62 2.061 . S
Co61 O67 2.052 . S
Co61 O69 2.135 . S
O62 Co61 2.061 . S
O62 C65 1.235 . S
C63 O66 1.238 . S
C63 O67 1.241 . S
C64 O57 1.247 . S
C64 O58 1.261 . S
C65 O60 1.259 . S
C65 O62 1.235 . S
O66 Co56 2.021 . S
O66 C63 1.238 . S
O67 Co61 2.052 . S
O67 C63 1.241 . S
O68 Co56 2.137 1_545 S
O68 C59 1.247 . S
O69 Co56 2.244 . S
O69 C59 1.272 1_565 S
O69 Co61 2.135 . S
Co70 O71 2.216 . S
Co70 O72 2.091 . S
Co70 O74 1.982 1_556 S
Co70 O80 2.021 . S
Co70 O82 2.137 . S
Co70 O83 2.244 . S
O71 Co70 2.216 . S
O71 C78 1.247 . S
O72 Co70 2.091 . S
O72 C78 1.261 . S
C73 O82 1.247 . S
C73 O83 1.272 . S
O74 Co70 1.982 1_554 S
O74 C79 1.269 . S
Co75 O76 2.065 . S
Co75 O81 2.052 . S
Co75 O83 2.135 . S
O76 Co75 2.065 . S
O76 C79 1.233 1_556 S
C77 O80 1.238 . S
C77 O81 1.241 . S
C78 O71 1.247 . S
C78 O72 1.261 . S
C79 O74 1.269 . S
C79 O76 1.233 1_554 S
O80 Co70 2.021 . S
O80 C77 1.238 . S
O81 Co75 2.052 . S
O81 C77 1.241 . S
O82 Co70 2.137 . S
O82 C73 1.247 . S
O83 Co70 2.244 . S
O83 C73 1.272 . S
O83 Co75 2.135 . S
Co84 O85 2.216 . S
Co84 O86 2.091 . S
Co84 O88 2.004 . S
Co84 O94 2.021 . S
Co84 O96 2.137 1_565 S
Co84 O97 2.244 . S
O85 Co84 2.216 . S
O85 C92 1.247 . S
O86 Co84 2.091 . S
O86 C92 1.261 . S
C87 O96 1.247 . S
C87 O97 1.272 1_545 S
O88 Co84 2.004 . S
O88 C93 1.259 . S
Co89 O90 2.061 . S
Co89 O95 2.052 . S
Co89 O97 2.135 . S
O90 Co89 2.061 . S
O90 C93 1.235 . S
C91 O94 1.238 . S
C91 O95 1.241 . S
C92 O85 1.247 . S
C92 O86 1.261 . S
C93 O88 1.259 . S
C93 O90 1.235 . S
O94 Co84 2.021 . S
O94 C91 1.238 . S
O95 Co89 2.052 . S
O95 C91 1.241 . S
O96 Co84 2.137 1_545 S
O96 C87 1.247 . S
O97 Co84 2.244 . S
O97 C87 1.272 1_565 S
O97 Co89 2.135 . S
Co98 O99 2.216 . S
Co98 O100 2.091 . S
Co98 O102 2.004 . S
Co98 O108 2.021 . S
Co98 O110 2.137 . S
Co98 O111 2.244 . S
O99 Co98 2.216 . S
O99 C106 1.247 . S
O100 Co98 2.091 . S
O100 C106 1.261 . S
C101 O110 1.247 . S
C101 O111 1.272 . S
O102 Co98 2.004 . S
O102 C107 1.259 . S
Co103 O104 2.061 . S
Co103 O109 2.052 . S
Co103 O111 2.135 . S
O104 Co103 2.061 . S
O104 C107 1.235 . S
C105 O108 1.238 . S
C105 O109 1.241 . S
C106 O99 1.247 . S
C106 O100 1.261 . S
C107 O102 1.259 . S
C107 O104 1.235 . S
O108 Co98 2.021 . S
O108 C105 1.238 . S
O109 Co103 2.052 . S
O109 C105 1.241 . S
O110 Co98 2.137 . S
O110 C101 1.247 . S
O111 Co98 2.244 . S
O111 C101 1.272 . S
O111 Co103 2.135 . S
Co112 O113 2.216 . S
Co112 O114 2.091 . S
Co112 O116 1.982 1_554 S
Co112 O122 2.021 . S
Co112 O124 2.137 1_455 S
Co112 O125 2.244 . S
O113 Co112 2.216 . S
O113 C120 1.247 . S
O114 Co112 2.091 . S
O114 C120 1.261 . S
C115 O124 1.247 . S
C115 O125 1.272 1_655 S
O116 Co112 1.982 1_556 S
O116 C121 1.269 . S
Co117 O118 2.065 . S
Co117 O123 2.052 . S
Co117 O125 2.135 . S
O118 Co117 2.065 . S
O118 C121 1.233 1_554 S
C119 O122 1.238 . S
C119 O123 1.241 . S
C120 O113 1.247 . S
C120 O114 1.261 . S
C121 O116 1.269 . S
C121 O118 1.233 1_556 S
O122 Co112 2.021 . S
O122 C119 1.238 . S
O123 Co117 2.052 . S
O123 C119 1.241 . S
O124 Co112 2.137 1_655 S
O124 C115 1.247 . S
O125 Co112 2.244 . S
O125 C115 1.272 1_455 S
O125 Co117 2.135 . S
Co126 O127 2.216 . S
Co126 O128 2.091 . S
Co126 O130 2.004 . S
Co126 O136 2.021 . S
Co126 O138 2.137 1_545 S
Co126 O139 2.244 . S
O127 Co126 2.216 . S
O127 C134 1.247 . S
O128 Co126 2.091 . S
O128 C134 1.261 . S
C129 O138 1.247 . S
C129 O139 1.272 1_565 S
O130 Co126 2.004 . S
O130 C135 1.259 . S
Co131 O132 2.061 . S
Co131 O137 2.052 . S
Co131 O139 2.135 . S
O132 Co131 2.061 . S
O132 C135 1.235 . S
C133 O136 1.238 . S
C133 O137 1.241 . S
C134 O127 1.247 . S
C134 O128 1.261 . S
C135 O130 1.259 . S
C135 O132 1.235 . S
O136 Co126 2.021 . S
O136 C133 1.238 . S
O137 Co131 2.052 . S
O137 C133 1.241 . S
O138 Co126 2.137 1_565 S
O138 C129 1.247 . S
O139 Co126 2.244 . S
O139 C129 1.272 1_545 S
O139 Co131 2.135 . S
Co140 O141 2.216 . S
Co140 O142 2.091 . S
Co140 O144 2.004 . S
Co140 O150 2.021 . S
Co140 O152 2.137 . S
Co140 O153 2.244 . S
O141 Co140 2.216 . S
O141 C148 1.247 . S
O142 Co140 2.091 . S
O142 C148 1.261 . S
C143 O152 1.247 . S
C143 O153 1.272 . S
O144 Co140 2.004 . S
O144 C149 1.259 . S
Co145 O146 2.061 . S
Co145 O151 2.052 . S
Co145 O153 2.135 . S
O146 Co145 2.061 . S
O146 C149 1.235 . S
C147 O150 1.238 . S
C147 O151 1.241 . S
C148 O141 1.247 . S
C148 O142 1.261 . S
C149 O144 1.259 . S
C149 O146 1.235 . S
O150 Co140 2.021 . S
O150 C147 1.238 . S
O151 Co145 2.052 . S
O151 C147 1.241 . S
O152 Co140 2.137 . S
O152 C143 1.247 . S
O153 Co140 2.244 . S
O153 C143 1.272 . S
O153 Co145 2.135 . S
Co154 O155 2.216 . S
Co154 O156 2.091 . S
Co154 O158 2.004 . S
Co154 O164 2.021 . S
Co154 O166 2.137 1_655 S
Co154 O167 2.244 . S
O155 Co154 2.216 . S
O155 C162 1.247 . S
O156 Co154 2.091 . S
O156 C162 1.261 . S
C157 O166 1.247 . S
C157 O167 1.272 1_455 S
O158 Co154 2.004 . S
O158 C163 1.259 . S
Co159 O160 2.061 . S
Co159 O165 2.052 . S
Co159 O167 2.135 . S
O160 Co159 2.061 . S
O160 C163 1.235 . S
C161 O164 1.238 . S
C161 O165 1.241 . S
C162 O155 1.247 . S
C162 O156 1.261 . S
C163 O158 1.259 . S
C163 O160 1.235 . S
O164 Co154 2.021 . S
O164 C161 1.238 . S
O165 Co159 2.052 . S
O165 C161 1.241 . S
O166 Co154 2.137 1_455 S
O166 C157 1.247 . S
O167 Co154 2.244 . S
O167 C157 1.272 1_655 S
O167 Co159 2.135 . S
C168 C169 1.391 . S
C168 C170 1.394 . S
C168 H184 0.931 . S
C169 C168 1.391 . S
C169 C173 1.376 . S
C170 C168 1.394 . S
C170 C171 1.369 . S
C170 C174 1.531 . S
C171 C170 1.369 . S
C171 C172 1.410 . S
C171 C179 1.503 . S
C172 C171 1.410 . S
C172 C173 1.392 . S
C172 C175 1.511 1_455 S
C173 C169 1.376 . S
C173 C172 1.392 . S
C173 H185 0.929 . S
C174 C170 1.531 . S
C174 H186 0.960 . S
C174 H187 0.962 . S
C174 H188 0.960 . S
C175 C172 1.511 1_655 S
C175 H189 0.961 . S
C175 H190 0.934 1_655 S
C175 H191 0.961 . S
C176 C177 1.370 . S
C176 C178 1.363 . S
C176 H192 0.931 . S
C177 C176 1.370 . S
C177 C181 1.408 . S
C178 C176 1.363 . S
C178 C179 1.370 . S
C178 C182 1.524 . S
C179 C171 1.503 . S
C179 C178 1.370 . S
C179 C180 1.403 . S
C180 C179 1.403 . S
C180 C181 1.404 . S
C180 C183 1.539 1_455 S
C181 C177 1.408 . S
C181 C180 1.404 . S
C181 H193 0.930 1_455 S
C182 C178 1.524 . S
C182 H194 0.956 . S
C182 H195 0.961 . S
C182 H196 0.961 . S
C183 C180 1.539 1_655 S
C183 H197 0.958 . S
C183 H198 0.961 . S
C183 H199 0.960 . S
H184 C168 0.931 . S
H185 C173 0.929 . S
H186 C174 0.960 . S
H187 C174 0.962 . S
H188 C174 0.960 . S
H189 C175 0.961 . S
H190 C175 0.934 1_455 S
H191 C175 0.961 . S
H192 C176 0.931 . S
H193 C181 0.930 1_655 S
H194 C182 0.956 . S
H195 C182 0.961 . S
H196 C182 0.961 . S
H197 C183 0.958 . S
H198 C183 0.961 . S
H199 C183 0.960 . S
C200 C201 1.391 . S
C200 C202 1.394 . S
C200 H216 0.924 1_545 S
C201 C200 1.391 . S
C201 C205 1.376 . S
C202 C200 1.394 . S
C202 C203 1.369 . S
C202 C206 1.531 1_545 S
C203 C202 1.369 . S
C203 C204 1.410 . S
C203 C211 1.503 . S
C204 C203 1.410 . S
C204 C205 1.392 . S
C204 C207 1.511 . S
C205 C201 1.376 . S
C205 C204 1.392 . S
C205 H217 0.929 . S
C206 C202 1.531 1_565 S
C206 H218 0.960 . S
C206 H219 0.962 1_565 S
C206 H220 0.960 . S
C207 C204 1.511 . S
C207 H221 0.961 . S
C207 H222 0.961 . S
C207 H223 0.961 . S
C208 C209 1.370 . S
C208 C210 1.363 . S
C208 H224 0.931 . S
C209 C208 1.370 . S
C209 C213 1.408 . S
C210 C208 1.363 . S
C210 C211 1.370 . S
C210 C214 1.524 . S
C211 C203 1.503 . S
C211 C210 1.370 . S
C211 C212 1.403 . S
C212 C211 1.403 . S
C212 C213 1.404 . S
C212 C215 1.539 1_545 S
C213 C209 1.408 . S
C213 C212 1.404 . S
C213 H225 0.930 1_545 S
C214 C210 1.524 . S
C214 H226 0.956 . S
C214 H227 0.961 . S
C214 H228 0.961 . S
C215 C212 1.539 1_565 S
C215 H229 0.958 . S
C215 H230 0.961 . S
C215 H231 0.960 . S
H216 C200 0.924 1_565 S
H217 C205 0.929 . S
H218 C206 0.960 . S
H219 C206 0.962 1_545 S
H220 C206 0.960 . S
H221 C207 0.961 . S
H222 C207 0.961 . S
H223 C207 0.961 . S
H224 C208 0.931 . S
H225 C213 0.930 1_565 S
H226 C214 0.956 . S
H227 C214 0.961 . S
H228 C214 0.961 . S
H229 C215 0.958 . S
H230 C215 0.961 . S
H231 C215 0.960 . S
C232 C233 1.391 . S
C232 C234 1.394 . S
C232 H248 0.931 . S
C233 C232 1.391 . S
C233 C237 1.376 . S
C234 C232 1.394 . S
C234 C235 1.369 . S
C234 C238 1.531 . S
C235 C234 1.369 . S
C235 C236 1.410 . S
C235 C243 1.503 . S
C236 C235 1.410 . S
C236 C237 1.392 . S
C236 C239 1.511 . S
C237 C233 1.376 . S
C237 C236 1.392 . S
C237 H249 0.929 . S
C238 C234 1.531 . S
C238 H250 0.960 . S
C238 H251 0.962 . S
C238 H252 0.960 . S
C239 C236 1.511 . S
C239 H253 0.961 . S
C239 H254 0.961 . S
C239 H255 0.961 . S
C240 C241 1.370 . S
C240 C242 1.363 . S
C240 H256 0.931 . S
C241 C240 1.370 . S
C241 C245 1.408 . S
C242 C240 1.363 . S
C242 C243 1.370 . S
C242 C246 1.524 . S
C243 C235 1.503 . S
C243 C242 1.370 . S
C243 C244 1.403 . S
C244 C243 1.403 . S
C244 C245 1.404 . S
C244 C247 1.539 . S
C245 C241 1.408 . S
C245 C244 1.404 . S
C245 H257 0.930 . S
C246 C242 1.524 . S
C246 H258 0.956 . S
C246 H259 0.961 . S
C246 H260 0.961 . S
C247 C244 1.539 . S
C247 H261 0.958 . S
C247 H262 0.961 . S
C247 H263 0.960 . S
H248 C232 0.931 . S
H249 C237 0.929 . S
H250 C238 0.960 . S
H251 C238 0.962 . S
H252 C238 0.960 . S
H253 C239 0.961 . S
H254 C239 0.961 . S
H255 C239 0.961 . S
H256 C240 0.931 . S
H257 C245 0.930 . S
H258 C246 0.956 . S
H259 C246 0.961 . S
H260 C246 0.961 . S
H261 C247 0.958 . S
H262 C247 0.961 . S
H263 C247 0.960 . S
C264 C265 1.391 . S
C264 C266 1.394 . S
C264 H280 0.931 . S
C265 C264 1.391 . S
C265 C269 1.376 . S
C266 C264 1.394 . S
C266 C267 1.369 . S
C266 C270 1.531 . S
C267 C266 1.369 . S
C267 C268 1.410 . S
C267 C275 1.503 . S
C268 C267 1.410 . S
C268 C269 1.392 . S
C268 C271 1.511 . S
C269 C265 1.376 . S
C269 C268 1.392 . S
C269 H281 0.929 . S
C270 C266 1.531 . S
C270 H282 0.960 . S
C270 H283 0.962 . S
C270 H284 0.960 . S
C271 C268 1.511 . S
C271 H285 0.961 . S
C271 H286 0.961 . S
C271 H287 0.961 . S
C272 C273 1.370 . S
C272 C274 1.363 . S
C272 H288 0.931 1_655 S
C273 C272 1.370 . S
C273 C277 1.408 . S
C274 C272 1.363 . S
C274 C275 1.370 . S
C274 C278 1.524 1_655 S
C275 C267 1.503 . S
C275 C274 1.370 . S
C275 C276 1.403 . S
C276 C275 1.403 . S
C276 C277 1.404 . S
C276 C279 1.539 . S
C277 C273 1.408 . S
C277 C276 1.404 . S
C277 H289 0.930 . S
C278 C274 1.524 1_455 S
C278 H290 0.956 . S
C278 H291 0.961 . S
C278 H292 0.961 . S
C279 C276 1.539 . S
C279 H293 0.958 . S
C279 H294 0.961 . S
C279 H295 0.960 . S
H280 C264 0.931 . S
H281 C269 0.929 . S
H282 C270 0.960 . S
H283 C270 0.962 . S
H284 C270 0.960 . S
H285 C271 0.961 . S
H286 C271 0.961 . S
H287 C271 0.961 . S
H288 C272 0.931 1_455 S
H289 C277 0.930 . S
H290 C278 0.956 . S
H291 C278 0.961 . S
H292 C278 0.961 . S
H293 C279 0.958 . S
H294 C279 0.961 . S
H295 C279 0.960 . S
C296 C297 1.391 . S
C296 C298 1.394 . S
C296 H312 0.931 . S
C297 C296 1.391 . S
C297 C301 1.376 . S
C298 C296 1.394 . S
C298 C299 1.369 . S
C298 C302 1.531 . S
C299 C298 1.369 . S
C299 C300 1.410 . S
C299 C307 1.503 . S
C300 C299 1.410 . S
C300 C301 1.392 . S
C300 C303 1.511 . S
C301 C297 1.376 . S
C301 C300 1.392 . S
C301 H313 0.929 . S
C302 C298 1.531 . S
C302 H314 0.960 . S
C302 H315 0.962 . S
C302 H316 0.961 . S
C303 C300 1.511 . S
C303 H317 0.961 . S
C303 H318 0.961 . S
C303 H319 0.961 . S
C304 C305 1.370 . S
C304 C306 1.363 . S
C304 H320 0.931 . S
C305 C304 1.370 . S
C305 C309 1.392 1_565 S
C306 C304 1.363 . S
C306 C307 1.370 . S
C306 C310 1.524 . S
C307 C299 1.503 . S
C307 C306 1.370 . S
C307 C308 1.403 1_565 S
C308 C307 1.403 1_545 S
C308 C309 1.392 . S
C308 C311 1.539 . S
C309 C305 1.392 1_545 S
C309 C308 1.392 . S
C309 H321 0.957 . S
C310 C306 1.524 . S
C310 H322 0.956 . S
C310 H323 0.961 . S
C310 H324 0.961 . S
C311 C308 1.539 . S
C311 H325 0.958 . S
C311 H326 0.961 . S
C311 H327 0.960 . S
H312 C296 0.931 . S
H313 C301 0.929 . S
H314 C302 0.960 . S
H315 C302 0.962 . S
H316 C302 0.961 . S
H317 C303 0.961 . S
H318 C303 0.961 . S
H319 C303 0.961 . S
H320 C304 0.931 . S
H321 C309 0.957 . S
H322 C310 0.956 . S
H323 C310 0.961 . S
H324 C310 0.961 . S
H325 C311 0.958 . S
H326 C311 0.961 . S
H327 C311 0.960 . S
C328 C329 1.391 . S
C328 C330 1.394 . S
C328 H344 0.931 . S
C329 C328 1.391 . S
C329 C333 1.376 . S
C330 C328 1.394 . S
C330 C331 1.369 . S
C330 C334 1.531 . S
C331 C330 1.369 . S
C331 C332 1.410 . S
C331 C339 1.503 . S
C332 C331 1.410 . S
C332 C333 1.392 . S
C332 C335 1.511 . S
C333 C329 1.376 . S
C333 C332 1.392 . S
C333 H345 0.929 . S
C334 C330 1.531 . S
C334 H346 0.960 . S
C334 H347 0.962 . S
C334 H348 0.960 . S
C335 C332 1.511 . S
C335 H349 0.961 . S
C335 H350 0.961 . S
C335 H351 0.961 . S
C336 C337 1.370 . S
C336 C338 1.363 . S
C336 H352 0.931 . S
C337 C336 1.370 . S
C337 C341 1.408 . S
C338 C336 1.363 . S
C338 C339 1.370 . S
C338 C342 1.524 . S
C339 C331 1.503 . S
C339 C338 1.370 . S
C339 C340 1.403 . S
C340 C339 1.403 . S
C340 C341 1.404 . S
C340 C343 1.539 . S
C341 C337 1.408 . S
C341 C340 1.404 . S
C341 H353 0.930 . S
C342 C338 1.524 . S
C342 H354 0.956 . S
C342 H355 0.961 . S
C342 H356 0.961 . S
C343 C340 1.539 . S
C343 H357 0.958 . S
C343 H358 0.961 . S
C343 H359 0.960 . S
H344 C328 0.931 . S
H345 C333 0.929 . S
H346 C334 0.960 . S
H347 C334 0.962 . S
H348 C334 0.960 . S
H349 C335 0.961 . S
H350 C335 0.961 . S
H351 C335 0.961 . S
H352 C336 0.931 . S
H353 C341 0.930 . S
H354 C342 0.956 . S
H355 C342 0.961 . S
H356 C342 0.961 . S
H357 C343 0.958 . S
H358 C343 0.961 . S
H359 C343 0.960 . S
C360 C361 1.391 . S
C360 C362 1.394 . S
C360 H376 0.931 . S
C361 C360 1.391 . S
C361 C365 1.376 . S
C362 C360 1.394 . S
C362 C363 1.369 . S
C362 C366 1.531 . S
C363 C362 1.369 . S
C363 C364 1.410 . S
C363 C371 1.503 . S
C364 C363 1.410 . S
C364 C365 1.392 . S
C364 C367 1.511 . S
C365 C361 1.376 . S
C365 C364 1.392 . S
C365 H377 0.929 . S
C366 C362 1.531 . S
C366 H378 0.963 . S
C366 H379 0.962 . S
C366 H380 0.960 . S
C367 C364 1.511 . S
C367 H381 0.961 . S
C367 H382 0.961 . S
C367 H383 0.961 . S
C368 C369 1.370 1_554 S
C368 C370 1.363 . S
C368 H384 0.931 . S
C369 C368 1.370 1_556 S
C369 C373 1.408 . S
C370 C368 1.363 . S
C370 C371 1.370 . S
C370 C374 1.524 . S
C371 C363 1.503 . S
C371 C370 1.370 . S
C371 C372 1.403 . S
C372 C371 1.403 . S
C372 C373 1.404 1_554 S
C372 C375 1.539 . S
C373 C369 1.408 . S
C373 C372 1.404 1_556 S
C373 H385 0.930 . S
C374 C370 1.524 . S
C374 H386 0.956 . S
C374 H387 0.961 . S
C374 H388 0.961 . S
C375 C372 1.539 . S
C375 H389 0.958 1_554 S
C375 H390 0.961 1_554 S
C375 H391 0.960 . S
H376 C360 0.931 . S
H377 C365 0.929 . S
H378 C366 0.963 . S
H379 C366 0.962 . S
H380 C366 0.960 . S
H381 C367 0.961 . S
H382 C367 0.961 . S
H383 C367 0.961 . S
H384 C368 0.931 . S
H385 C373 0.930 . S
H386 C374 0.956 . S
H387 C374 0.961 . S
H388 C374 0.961 . S
H389 C375 0.958 1_556 S
H390 C375 0.961 1_556 S
H391 C375 0.960 . S
C392 C393 1.391 . S
C392 C394 1.394 . S
C392 H408 0.931 . S
C393 C392 1.391 . S
C393 C397 1.376 . S
C394 C392 1.394 . S
C394 C395 1.369 . S
C394 C398 1.531 . S
C395 C394 1.369 . S
C395 C396 1.410 . S
C395 C403 1.503 . S
C396 C395 1.410 . S
C396 C397 1.392 . S
C396 C399 1.511 . S
C397 C393 1.376 . S
C397 C396 1.392 . S
C397 H409 0.929 . S
C398 C394 1.531 . S
C398 H410 0.960 . S
C398 H411 0.962 . S
C398 H412 0.960 . S
C399 C396 1.511 . S
C399 H413 0.961 . S
C399 H414 0.961 . S
C399 H415 0.961 . S
C400 C401 1.370 . S
C400 C402 1.363 . S
C400 H416 0.931 . S
C401 C400 1.370 . S
C401 C405 1.408 . S
C402 C400 1.363 . S
C402 C403 1.370 . S
C402 C406 1.524 . S
C403 C395 1.503 . S
C403 C402 1.370 . S
C403 C404 1.403 . S
C404 C403 1.403 . S
C404 C405 1.404 . S
C404 C407 1.539 . S
C405 C401 1.408 . S
C405 C404 1.404 . S
C405 H417 0.930 . S
C406 C402 1.524 . S
C406 H418 0.956 . S
C406 H419 0.961 . S
C406 H420 0.961 . S
C407 C404 1.539 . S
C407 H421 0.958 . S
C407 H422 0.961 . S
C407 H423 0.960 . S
H408 C392 0.931 . S
H409 C397 0.929 . S
H410 C398 0.960 . S
H411 C398 0.962 . S
H412 C398 0.960 . S
H413 C399 0.961 . S
H414 C399 0.961 . S
H415 C399 0.961 . S
H416 C400 0.931 . S
H417 C405 0.930 . S
H418 C406 0.956 . S
H419 C406 0.961 . S
H420 C406 0.961 . S
H421 C407 0.958 . S
H422 C407 0.961 . S
H423 C407 0.960 . S
C424 C425 1.391 . S
C424 C426 1.394 . S
C424 H440 0.931 . S
C425 C424 1.391 . S
C425 C429 1.376 . S
C426 C424 1.394 . S
C426 C427 1.369 . S
C426 C430 1.531 . S
C427 C426 1.369 . S
C427 C428 1.410 . S
C427 C435 1.503 . S
C428 C427 1.410 . S
C428 C429 1.392 . S
C428 C431 1.511 . S
C429 C425 1.376 . S
C429 C428 1.392 . S
C429 H441 0.929 . S
C430 C426 1.531 . S
C430 H442 0.960 . S
C430 H443 0.962 . S
C430 H444 0.960 . S
C431 C428 1.511 . S
C431 H445 0.961 . S
C431 H446 0.961 . S
C431 H447 0.961 . S
C432 C433 1.370 . S
C432 C434 1.363 . S
C432 H448 0.931 . S
C433 C432 1.370 . S
C433 C437 1.408 . S
C434 C432 1.363 . S
C434 C435 1.370 . S
C434 C438 1.524 . S
C435 C427 1.503 . S
C435 C434 1.370 . S
C435 C436 1.403 . S
C436 C435 1.403 . S
C436 C437 1.404 . S
C436 C439 1.539 . S
C437 C433 1.408 . S
C437 C436 1.404 . S
C437 H449 0.930 . S
C438 C434 1.524 . S
C438 H450 0.956 . S
C438 H451 0.961 . S
C438 H452 0.961 . S
C439 C436 1.539 . S
C439 H453 0.958 . S
C439 H454 0.961 . S
C439 H455 0.960 . S
H440 C424 0.931 . S
H441 C429 0.929 . S
H442 C430 0.960 . S
H443 C430 0.962 . S
H444 C430 0.960 . S
H445 C431 0.961 . S
H446 C431 0.961 . S
H447 C431 0.961 . S
H448 C432 0.931 . S
H449 C437 0.930 . S
H450 C438 0.956 . S
H451 C438 0.961 . S
H452 C438 0.961 . S
H453 C439 0.958 . S
H454 C439 0.961 . S
H455 C439 0.960 . S
C456 C457 1.391 . S
C456 C458 1.394 . S
C456 H472 0.931 . S
C457 C456 1.391 . S
C457 C461 1.376 . S
C458 C456 1.394 . S
C458 C459 1.369 . S
C458 C462 1.531 . S
C459 C458 1.369 . S
C459 C460 1.410 . S
C459 C467 1.503 . S
C460 C459 1.410 . S
C460 C461 1.392 . S
C460 C463 1.511 . S
C461 C457 1.376 . S
C461 C460 1.392 . S
C461 H473 0.929 . S
C462 C458 1.531 . S
C462 H474 0.960 . S
C462 H475 0.962 . S
C462 H476 0.960 . S
C463 C460 1.511 . S
C463 H477 0.961 . S
C463 H478 0.961 . S
C463 H479 0.961 . S
C464 C465 1.370 . S
C464 C466 1.363 . S
C464 H480 0.931 . S
C465 C464 1.370 . S
C465 C469 1.408 . S
C466 C464 1.363 . S
C466 C467 1.370 . S
C466 C470 1.524 . S
C467 C459 1.503 . S
C467 C466 1.370 . S
C467 C468 1.403 . S
C468 C467 1.403 . S
C468 C469 1.404 . S
C468 C471 1.539 . S
C469 C465 1.408 . S
C469 C468 1.404 . S
C469 H481 0.930 . S
C470 C466 1.524 . S
C470 H482 0.956 . S
C470 H483 0.961 . S
C470 H484 0.961 . S
C471 C468 1.539 . S
C471 H485 0.958 . S
C471 H486 0.961 . S
C471 H487 0.960 . S
H472 C456 0.931 . S
H473 C461 0.929 . S
H474 C462 0.960 . S
H475 C462 0.962 . S
H476 C462 0.960 . S
H477 C463 0.961 . S
H478 C463 0.961 . S
H479 C463 0.961 . S
H480 C464 0.931 . S
H481 C469 0.930 . S
H482 C470 0.956 . S
H483 C470 0.961 . S
H484 C470 0.961 . S
H485 C471 0.958 . S
H486 C471 0.961 . S
H487 C471 0.960 . S
C488 C489 1.391 . S
C488 C490 1.394 . S
C488 H504 0.931 . S
C489 C488 1.391 . S
C489 C493 1.376 . S
C490 C488 1.394 . S
C490 C491 1.369 . S
C490 C494 1.531 . S
C491 C490 1.369 . S
C491 C492 1.410 . S
C491 C499 1.503 . S
C492 C491 1.410 . S
C492 C493 1.392 . S
C492 C495 1.511 . S
C493 C489 1.376 . S
C493 C492 1.392 . S
C493 H505 0.929 . S
C494 C490 1.531 . S
C494 H506 0.960 . S
C494 H507 0.962 . S
C494 H508 0.960 . S
C495 C492 1.511 . S
C495 H509 0.961 . S
C495 H510 0.961 . S
C495 H511 0.961 . S
C496 C497 1.370 . S
C496 C498 1.363 . S
C496 H512 0.931 . S
C497 C496 1.370 . S
C497 C501 1.408 . S
C498 C496 1.363 . S
C498 C499 1.370 . S
C498 C502 1.524 . S
C499 C491 1.503 . S
C499 C498 1.370 . S
C499 C500 1.403 . S
C500 C499 1.403 . S
C500 C501 1.404 . S
C500 C503 1.539 . S
C501 C497 1.408 . S
C501 C500 1.404 . S
C501 H513 0.930 . S
C502 C498 1.524 . S
C502 H514 0.956 . S
C502 H515 0.961 . S
C502 H516 0.961 . S
C503 C500 1.539 . S
C503 H517 0.958 . S
C503 H518 0.961 . S
C503 H519 0.960 . S
H504 C488 0.931 . S
H505 C493 0.929 . S
H506 C494 0.960 . S
H507 C494 0.962 . S
H508 C494 0.960 . S
H509 C495 0.961 . S
H510 C495 0.961 . S
H511 C495 0.961 . S
H512 C496 0.931 . S
H513 C501 0.930 . S
H514 C502 0.956 . S
H515 C502 0.961 . S
H516 C502 0.961 . S
H517 C503 0.958 . S
H518 C503 0.961 . S
H519 C503 0.960 . S
C520 C521 1.391 . S
C520 C522 1.394 . S
C520 H536 0.931 . S
C521 C520 1.391 . S
C521 C525 1.376 . S
C522 C520 1.394 . S
C522 C523 1.369 . S
C522 C526 1.531 . S
C523 C522 1.369 . S
C523 C524 1.410 . S
C523 C531 1.503 . S
C524 C523 1.410 . S
C524 C525 1.392 . S
C524 C527 1.511 . S
C525 C521 1.376 . S
C525 C524 1.392 . S
C525 H537 0.929 . S
C526 C522 1.531 . S
C526 H538 0.960 . S
C526 H539 0.962 . S
C526 H540 0.960 . S
C527 C524 1.511 . S
C527 H541 0.961 . S
C527 H542 0.961 . S
C527 H543 0.961 . S
C528 C529 1.370 . S
C528 C530 1.363 . S
C528 H544 0.931 . S
C529 C528 1.370 . S
C529 C533 1.408 . S
C530 C528 1.363 . S
C530 C531 1.370 . S
C530 C534 1.524 . S
C531 C523 1.503 . S
C531 C530 1.370 . S
C531 C532 1.403 . S
C532 C531 1.403 . S
C532 C533 1.404 . S
C532 C535 1.539 . S
C533 C529 1.408 . S
C533 C532 1.404 . S
C533 H545 0.930 . S
C534 C530 1.524 . S
C534 H546 0.956 . S
C534 H547 0.961 . S
C534 H548 0.961 . S
C535 C532 1.539 . S
C535 H549 0.958 . S
C535 H550 0.961 . S
C535 H551 0.960 . S
H536 C520 0.931 . S
H537 C525 0.929 . S
H538 C526 0.960 . S
H539 C526 0.962 . S
H540 C526 0.960 . S
H541 C527 0.961 . S
H542 C527 0.961 . S
H543 C527 0.961 . S
H544 C528 0.931 . S
H545 C533 0.930 . S
H546 C534 0.956 . S
H547 C534 0.961 . S
H548 C534 0.961 . S
H549 C535 0.958 . S
H550 C535 0.961 . S
H551 C535 0.960 . S
C552 C553 1.391 . S
C552 C554 1.394 . S
C552 H568 0.931 . S
C553 C552 1.391 . S
C553 C557 1.376 . S
C554 C552 1.394 . S
C554 C555 1.369 . S
C554 C558 1.531 . S
C555 C554 1.369 . S
C555 C556 1.410 . S
C555 C563 1.503 . S
C556 C555 1.410 . S
C556 C557 1.392 . S
C556 C559 1.511 . S
C557 C553 1.376 . S
C557 C556 1.392 . S
C557 H569 0.929 . S
C558 C554 1.531 . S
C558 H570 0.960 . S
C558 H571 0.962 . S
C558 H572 0.960 . S
C559 C556 1.511 . S
C559 H573 0.961 . S
C559 H574 0.961 . S
C559 H575 0.961 . S
C560 C561 1.370 . S
C560 C562 1.363 . S
C560 H576 0.931 . S
C561 C560 1.370 . S
C561 C565 1.408 . S
C562 C560 1.363 . S
C562 C563 1.370 . S
C562 C566 1.524 . S
C563 C555 1.503 . S
C563 C562 1.370 . S
C563 C564 1.403 . S
C564 C563 1.403 . S
C564 C565 1.404 . S
C564 C567 1.539 . S
C565 C561 1.408 . S
C565 C564 1.404 . S
C565 H577 0.930 . S
C566 C562 1.524 . S
C566 H578 0.956 . S
C566 H579 0.961 . S
C566 H580 0.961 . S
C567 C564 1.539 . S
C567 H581 0.958 . S
C567 H582 0.961 . S
C567 H583 0.960 . S
H568 C552 0.931 . S
H569 C557 0.929 . S
H570 C558 0.960 . S
H571 C558 0.962 . S
H572 C558 0.960 . S
H573 C559 0.961 . S
H574 C559 0.961 . S
H575 C559 0.961 . S
H576 C560 0.931 . S
H577 C565 0.930 . S
H578 C566 0.956 . S
H579 C566 0.961 . S
H580 C566 0.961 . S
H581 C567 0.958 . S
H582 C567 0.961 . S
H583 C567 0.960 . S
C584 C585 1.391 . S
C584 C586 1.394 . S
C584 H600 0.931 . S
C585 C584 1.391 . S
C585 C589 1.376 . S
C586 C584 1.394 . S
C586 C587 1.369 . S
C586 C590 1.531 . S
C587 C586 1.369 . S
C587 C588 1.410 . S
C587 C595 1.503 . S
C588 C587 1.410 . S
C588 C589 1.392 . S
C588 C591 1.511 . S
C589 C585 1.376 . S
C589 C588 1.392 . S
C589 H601 0.929 . S
C590 C586 1.531 . S
C590 H602 0.960 . S
C590 H603 0.962 . S
C590 H604 0.960 . S
C591 C588 1.511 . S
C591 H605 0.961 . S
C591 H606 0.952 1_556 S
C591 H607 0.961 . S
C592 C593 1.370 1_556 S
C592 C594 1.363 . S
C592 H608 0.931 . S
C593 C592 1.370 1_554 S
C593 C597 1.408 1_554 S
C594 C592 1.363 . S
C594 C595 1.370 . S
C594 C598 1.524 . S
C595 C587 1.503 . S
C595 C594 1.370 . S
C595 C596 1.403 . S
C596 C595 1.403 . S
C596 C597 1.404 . S
C596 C599 1.539 . S
C597 C593 1.408 1_556 S
C597 C596 1.404 . S
C597 H609 0.921 1_556 S
C598 C594 1.524 . S
C598 H610 0.956 . S
C598 H611 0.961 . S
C598 H612 0.961 . S
C599 C596 1.539 . S
C599 H613 0.958 . S
C599 H614 0.961 . S
C599 H615 0.960 . S
H600 C584 0.931 . S
H601 C589 0.929 . S
H602 C590 0.960 . S
H603 C590 0.962 . S
H604 C590 0.960 . S
H605 C591 0.961 . S
H606 C591 0.952 1_554 S
H607 C591 0.961 . S
H608 C592 0.931 . S
H609 C597 0.921 1_554 S
H610 C598 0.956 . S
H611 C598 0.961 . S
H612 C598 0.961 . S
H613 C599 0.958 . S
H614 C599 0.961 . S
H615 C599 0.960 . S
C616 C617 1.391 . S
C616 C618 1.394 . S
C616 H632 0.931 . S
C617 C616 1.391 . S
C617 C621 1.376 . S
C618 C616 1.394 . S
C618 C619 1.369 . S
C618 C622 1.531 . S
C619 C618 1.369 . S
C619 C620 1.410 . S
C619 C627 1.503 . S
C620 C619 1.410 . S
C620 C621 1.392 . S
C620 C623 1.511 . S
C621 C617 1.376 . S
C621 C620 1.392 . S
C621 H633 0.929 . S
C622 C618 1.531 . S
C622 H634 0.960 . S
C622 H635 0.962 . S
C622 H636 0.960 . S
C623 C620 1.511 . S
C623 H637 0.961 . S
C623 H638 0.961 . S
C623 H639 0.961 . S
C624 C625 1.370 . S
C624 C626 1.363 . S
C624 H640 0.931 . S
C625 C624 1.370 . S
C625 C629 1.408 . S
C626 C624 1.363 . S
C626 C627 1.370 . S
C626 C630 1.524 . S
C627 C619 1.503 . S
C627 C626 1.370 . S
C627 C628 1.403 . S
C628 C627 1.403 . S
C628 C629 1.404 . S
C628 C631 1.539 . S
C629 C625 1.408 . S
C629 C628 1.404 . S
C629 H641 0.930 . S
C630 C626 1.524 . S
C630 H642 0.956 . S
C630 H643 0.961 . S
C630 H644 0.961 . S
C631 C628 1.539 . S
C631 H645 0.958 . S
C631 H646 0.961 . S
C631 H647 0.960 . S
H632 C616 0.931 . S
H633 C621 0.929 . S
H634 C622 0.960 . S
H635 C622 0.962 . S
H636 C622 0.960 . S
H637 C623 0.961 . S
H638 C623 0.961 . S
H639 C623 0.961 . S
H640 C624 0.931 . S
H641 C629 0.930 . S
H642 C630 0.956 . S
H643 C630 0.961 . S
H644 C630 0.961 . S
H645 C631 0.958 . S
H646 C631 0.961 . S
H647 C631 0.960 . S
C648 C649 1.391 . S
C648 C650 1.394 . S
C648 H664 0.931 . S
C649 C648 1.391 . S
C649 C653 1.376 . S
C650 C648 1.394 . S
C650 C651 1.369 . S
C650 C654 1.531 . S
C651 C650 1.369 . S
C651 C652 1.410 . S
C651 C659 1.503 . S
C652 C651 1.410 . S
C652 C653 1.392 . S
C652 C655 1.511 . S
C653 C649 1.376 . S
C653 C652 1.392 . S
C653 H665 0.929 . S
C654 C650 1.531 . S
C654 H666 0.960 . S
C654 H667 0.962 . S
C654 H668 0.960 . S
C655 C652 1.511 . S
C655 H669 0.961 . S
C655 H670 0.961 . S
C655 H671 0.961 . S
C656 C657 1.370 . S
C656 C658 1.363 . S
C656 H672 0.931 . S
C657 C656 1.370 . S
C657 C661 1.408 . S
C658 C656 1.363 . S
C658 C659 1.370 . S
C658 C662 1.524 . S
C659 C651 1.503 . S
C659 C658 1.370 . S
C659 C660 1.403 . S
C660 C659 1.403 . S
C660 C661 1.404 . S
C660 C663 1.539 . S
C661 C657 1.408 . S
C661 C660 1.404 . S
C661 H673 0.930 . S
C662 C658 1.524 . S
C662 H674 0.956 . S
C662 H675 0.961 . S
C662 H676 0.961 . S
C663 C660 1.539 . S
C663 H677 0.958 . S
C663 H678 0.961 . S
C663 H679 0.960 . S
H664 C648 0.931 . S
H665 C653 0.929 . S
H666 C654 0.960 . S
H667 C654 0.962 . S
H668 C654 0.960 . S
H669 C655 0.961 . S
H670 C655 0.961 . S
H671 C655 0.961 . S
H672 C656 0.931 . S
H673 C661 0.930 . S
H674 C662 0.956 . S
H675 C662 0.961 . S
H676 C662 0.961 . S
H677 C663 0.958 . S
H678 C663 0.961 . S
H679 C663 0.960 . S
C680 C681 1.391 . S
C680 C682 1.394 . S
C680 H696 0.931 . S
C681 C680 1.391 . S
C681 C685 1.376 . S
C682 C680 1.394 . S
C682 C683 1.369 . S
C682 C686 1.531 . S
C683 C682 1.369 . S
C683 C684 1.410 . S
C683 C691 1.503 . S
C684 C683 1.410 . S
C684 C685 1.392 . S
C684 C687 1.511 . S
C685 C681 1.376 . S
C685 C684 1.392 . S
C685 H697 0.929 . S
C686 C682 1.531 . S
C686 H698 0.960 . S
C686 H699 0.962 . S
C686 H700 0.960 . S
C687 C684 1.511 . S
C687 H701 0.961 . S
C687 H702 0.961 . S
C687 H703 0.961 . S
C688 C689 1.370 . S
C688 C690 1.363 . S
C688 H704 0.931 . S
C689 C688 1.370 . S
C689 C693 1.408 . S
C690 C688 1.363 . S
C690 C691 1.370 . S
C690 C694 1.524 . S
C691 C683 1.503 . S
C691 C690 1.370 . S
C691 C692 1.403 . S
C692 C691 1.403 . S
C692 C693 1.404 . S
C692 C695 1.539 . S
C693 C689 1.408 . S
C693 C692 1.404 . S
C693 H705 0.930 . S
C694 C690 1.524 . S
C694 H706 0.956 . S
C694 H707 0.961 . S
C694 H708 0.961 . S
C695 C692 1.539 . S
C695 H709 0.958 . S
C695 H710 0.961 . S
C695 H711 0.960 . S
H696 C680 0.931 . S
H697 C685 0.929 . S
H698 C686 0.960 . S
H699 C686 0.962 . S
H700 C686 0.960 . S
H701 C687 0.961 . S
H702 C687 0.961 . S
H703 C687 0.961 . S
H704 C688 0.931 . S
H705 C693 0.930 . S
H706 C694 0.956 . S
H707 C694 0.961 . S
H708 C694 0.961 . S
H709 C695 0.958 . S
H710 C695 0.961 . S
H711 C695 0.960 . S
C712 C713 1.391 . S
C712 C714 1.394 . S
C712 H728 0.931 . S
C713 C712 1.391 . S
C713 C717 1.376 . S
C714 C712 1.394 . S
C714 C715 1.369 . S
C714 C718 1.531 . S
C715 C714 1.369 . S
C715 C716 1.410 . S
C715 C723 1.503 . S
C716 C715 1.410 . S
C716 C717 1.392 . S
C716 C719 1.511 . S
C717 C713 1.376 . S
C717 C716 1.392 . S
C717 H729 0.929 . S
C718 C714 1.531 . S
C718 H730 0.960 . S
C718 H731 0.962 . S
C718 H732 0.960 . S
C719 C716 1.511 . S
C719 H733 0.961 . S
C719 H734 0.961 . S
C719 H735 0.961 . S
C720 C721 1.370 . S
C720 C722 1.363 . S
C720 H736 0.931 . S
C721 C720 1.370 . S
C721 C725 1.408 . S
C722 C720 1.363 . S
C722 C723 1.370 . S
C722 C726 1.524 . S
C723 C715 1.503 . S
C723 C722 1.370 . S
C723 C724 1.403 . S
C724 C723 1.403 . S
C724 C725 1.404 . S
C724 C727 1.539 . S
C725 C721 1.408 . S
C725 C724 1.404 . S
C725 H737 0.930 . S
C726 C722 1.524 . S
C726 H738 0.956 . S
C726 H739 0.961 . S
C726 H740 0.961 . S
C727 C724 1.539 . S
C727 H741 0.958 . S
C727 H742 0.961 . S
C727 H743 0.960 . S
H728 C712 0.931 . S
H729 C717 0.929 . S
H730 C718 0.960 . S
H731 C718 0.962 . S
H732 C718 0.960 . S
H733 C719 0.961 . S
H734 C719 0.961 . S
H735 C719 0.961 . S
H736 C720 0.931 . S
H737 C725 0.930 . S
H738 C726 0.956 . S
H739 C726 0.961 . S
H740 C726 0.961 . S
H741 C727 0.958 . S
H742 C727 0.961 . S
H743 C727 0.960 . S
C744 C745 1.391 . S
C744 C746 1.394 . S
C744 H760 0.931 . S
C745 C744 1.391 . S
C745 C749 1.376 . S
C746 C744 1.394 . S
C746 C747 1.369 . S
C746 C750 1.531 . S
C747 C746 1.369 . S
C747 C748 1.410 . S
C747 C755 1.503 . S
C748 C747 1.410 . S
C748 C749 1.392 . S
C748 C751 1.511 . S
C749 C745 1.376 . S
C749 C748 1.392 . S
C749 H761 0.929 . S
C750 C746 1.531 . S
C750 H762 0.960 . S
C750 H763 0.962 . S
C750 H764 0.960 . S
C751 C748 1.511 . S
C751 H765 0.961 . S
C751 H766 0.961 . S
C751 H767 0.961 . S
C752 C753 1.370 . S
C752 C754 1.363 . S
C752 H768 0.931 . S
C753 C752 1.370 . S
C753 C757 1.408 . S
C754 C752 1.363 . S
C754 C755 1.370 . S
C754 C758 1.524 . S
C755 C747 1.503 . S
C755 C754 1.370 . S
C755 C756 1.403 . S
C756 C755 1.403 . S
C756 C757 1.404 . S
C756 C759 1.539 . S
C757 C753 1.408 . S
C757 C756 1.404 . S
C757 H769 0.930 . S
C758 C754 1.524 . S
C758 H770 0.956 . S
C758 H771 0.961 . S
C758 H772 0.961 . S
C759 C756 1.539 . S
C759 H773 0.958 . S
C759 H774 0.961 . S
C759 H775 0.960 . S
H760 C744 0.931 . S
H761 C749 0.929 . S
H762 C750 0.960 . S
H763 C750 0.962 . S
H764 C750 0.960 . S
H765 C751 0.961 . S
H766 C751 0.961 . S
H767 C751 0.961 . S
H768 C752 0.931 . S
H769 C757 0.930 . S
H770 C758 0.956 . S
H771 C758 0.961 . S
H772 C758 0.961 . S
H773 C759 0.958 . S
H774 C759 0.961 . S
H775 C759 0.960 . S
C776 C777 1.391 . S
C776 C778 1.394 . S
C776 H792 0.931 . S
C777 C776 1.391 . S
C777 C781 1.376 . S
C778 C776 1.394 . S
C778 C779 1.369 . S
C778 C782 1.531 . S
C779 C778 1.369 . S
C779 C780 1.410 . S
C779 C787 1.503 . S
C780 C779 1.410 . S
C780 C781 1.392 . S
C780 C783 1.511 . S
C781 C777 1.376 . S
C781 C780 1.392 . S
C781 H793 0.929 . S
C782 C778 1.531 . S
C782 H794 0.960 . S
C782 H795 0.962 . S
C782 H796 0.960 . S
C783 C780 1.511 . S
C783 H797 0.961 . S
C783 H798 0.961 . S
C783 H799 0.961 . S
C784 C785 1.370 . S
C784 C786 1.363 . S
C784 H800 0.931 . S
C785 C784 1.370 . S
C785 C789 1.408 . S
C786 C784 1.363 . S
C786 C787 1.370 . S
C786 C790 1.524 . S
C787 C779 1.503 . S
C787 C786 1.370 . S
C787 C788 1.403 . S
C788 C787 1.403 . S
C788 C789 1.404 . S
C788 C791 1.539 . S
C789 C785 1.408 . S
C789 C788 1.404 . S
C789 H801 0.930 . S
C790 C786 1.524 . S
C790 H802 0.956 . S
C790 H803 0.961 . S
C790 H804 0.961 . S
C791 C788 1.539 . S
C791 H805 0.958 . S
C791 H806 0.961 . S
C791 H807 0.960 . S
H792 C776 0.931 . S
H793 C781 0.929 . S
H794 C782 0.960 . S
H795 C782 0.962 . S
H796 C782 0.960 . S
H797 C783 0.961 . S
H798 C783 0.961 . S
H799 C783 0.961 . S
H800 C784 0.931 . S
H801 C789 0.930 . S
H802 C790 0.956 . S
H803 C790 0.961 . S
H804 C790 0.961 . S
H805 C791 0.958 . S
H806 C791 0.961 . S
H807 C791 0.960 . S
C808 C809 1.391 . S
C808 C810 1.394 . S
C808 H824 0.931 . S
C809 C808 1.391 . S
C809 C813 1.376 . S
C810 C808 1.394 . S
C810 C811 1.369 . S
C810 C814 1.531 . S
C811 C810 1.369 . S
C811 C812 1.410 . S
C811 C819 1.503 . S
C812 C811 1.410 . S
C812 C813 1.392 . S
C812 C815 1.511 . S
C813 C809 1.376 . S
C813 C812 1.392 . S
C813 H825 0.929 . S
C814 C810 1.531 . S
C814 H826 0.960 . S
C814 H827 0.962 . S
C814 H828 0.960 . S
C815 C812 1.511 . S
C815 H829 0.961 . S
C815 H830 0.961 . S
C815 H831 0.961 . S
C816 C817 1.370 . S
C816 C818 1.363 . S
C816 H832 0.931 . S
C817 C816 1.370 . S
C817 C821 1.408 . S
C818 C816 1.363 . S
C818 C819 1.370 . S
C818 C822 1.524 . S
C819 C811 1.503 . S
C819 C818 1.370 . S
C819 C820 1.403 . S
C820 C819 1.403 . S
C820 C821 1.404 . S
C820 C823 1.539 . S
C821 C817 1.408 . S
C821 C820 1.404 . S
C821 H833 0.930 . S
C822 C818 1.524 . S
C822 H834 0.956 . S
C822 H835 0.961 . S
C822 H836 0.961 . S
C823 C820 1.539 . S
C823 H837 0.958 . S
C823 H838 0.961 . S
C823 H839 0.960 . S
H824 C808 0.931 . S
H825 C813 0.929 . S
H826 C814 0.960 . S
H827 C814 0.962 . S
H828 C814 0.960 . S
H829 C815 0.961 . S
H830 C815 0.961 . S
H831 C815 0.961 . S
H832 C816 0.931 . S
H833 C821 0.930 . S
H834 C822 0.956 . S
H835 C822 0.961 . S
H836 C822 0.961 . S
H837 C823 0.958 . S
H838 C823 0.961 . S
H839 C823 0.960 . S
C840 C841 1.391 . S
C840 C842 1.394 . S
C840 H856 0.931 . S
C841 C840 1.391 . S
C841 C845 1.376 . S
C842 C840 1.394 . S
C842 C843 1.369 . S
C842 C846 1.531 . S
C843 C842 1.369 . S
C843 C844 1.410 . S
C843 C851 1.503 . S
C844 C843 1.410 . S
C844 C845 1.392 . S
C844 C847 1.511 . S
C845 C841 1.376 . S
C845 C844 1.392 . S
C845 H857 0.929 . S
C846 C842 1.531 . S
C846 H858 0.960 . S
C846 H859 0.962 . S
C846 H860 0.960 . S
C847 C844 1.511 . S
C847 H861 0.961 . S
C847 H862 0.961 . S
C847 H863 0.961 . S
C848 C849 1.370 . S
C848 C850 1.363 . S
C848 H864 0.931 . S
C849 C848 1.370 . S
C849 C853 1.408 . S
C850 C848 1.363 . S
C850 C851 1.370 . S
C850 C854 1.524 . S
C851 C843 1.503 . S
C851 C850 1.370 . S
C851 C852 1.403 . S
C852 C851 1.403 . S
C852 C853 1.404 . S
C852 C855 1.539 . S
C853 C849 1.408 . S
C853 C852 1.404 . S
C853 H865 0.930 . S
C854 C850 1.524 . S
C854 H866 0.956 . S
C854 H867 0.961 . S
C854 H868 0.961 . S
C855 C852 1.539 . S
C855 H869 0.958 . S
C855 H870 0.961 . S
C855 H871 0.960 . S
H856 C840 0.931 . S
H857 C845 0.929 . S
H858 C846 0.960 . S
H859 C846 0.962 . S
H860 C846 0.960 . S
H861 C847 0.961 . S
H862 C847 0.961 . S
H863 C847 0.961 . S
H864 C848 0.931 . S
H865 C853 0.930 . S
H866 C854 0.956 . S
H867 C854 0.961 . S
H868 C854 0.961 . S
H869 C855 0.958 . S
H870 C855 0.961 . S
H871 C855 0.960 . S
C872 C873 1.391 . S
C872 C874 1.394 . S
C872 H888 0.931 . S
C873 C872 1.391 . S
C873 C877 1.376 . S
C874 C872 1.394 . S
C874 C875 1.369 . S
C874 C878 1.531 . S
C875 C874 1.369 . S
C875 C876 1.410 . S
C875 C883 1.503 . S
C876 C875 1.410 . S
C876 C877 1.392 . S
C876 C879 1.511 . S
C877 C873 1.376 . S
C877 C876 1.392 . S
C877 H889 0.929 . S
C878 C874 1.531 . S
C878 H890 0.960 . S
C878 H891 0.962 . S
C878 H892 0.960 . S
C879 C876 1.511 . S
C879 H893 0.961 . S
C879 H894 0.961 . S
C879 H895 0.961 . S
C880 C881 1.370 . S
C880 C882 1.363 . S
C880 H896 0.931 . S
C881 C880 1.370 . S
C881 C885 1.408 . S
C882 C880 1.363 . S
C882 C883 1.370 . S
C882 C886 1.524 . S
C883 C875 1.503 . S
C883 C882 1.370 . S
C883 C884 1.403 . S
C884 C883 1.403 . S
C884 C885 1.404 . S
C884 C887 1.539 . S
C885 C881 1.408 . S
C885 C884 1.404 . S
C885 H897 0.930 . S
C886 C882 1.524 . S
C886 H898 0.956 . S
C886 H899 0.961 . S
C886 H900 0.961 . S
C887 C884 1.539 . S
C887 H901 0.958 . S
C887 H902 0.961 . S
C887 H903 0.960 . S
H888 C872 0.931 . S
H889 C877 0.929 . S
H890 C878 0.960 . S
H891 C878 0.962 . S
H892 C878 0.960 . S
H893 C879 0.961 . S
H894 C879 0.961 . S
H895 C879 0.961 . S
H896 C880 0.931 . S
H897 C885 0.930 . S
H898 C886 0.956 . S
H899 C886 0.961 . S
H900 C886 0.961 . S
H901 C887 0.958 . S
H902 C887 0.961 . S
H903 C887 0.960 . S
C904 C905 1.391 . S
C904 C906 1.394 . S
C904 H920 0.931 . S
C905 C904 1.391 . S
C905 C909 1.376 . S
C906 C904 1.394 . S
C906 C907 1.369 . S
C906 C910 1.531 . S
C907 C906 1.369 . S
C907 C908 1.410 . S
C907 C915 1.503 . S
C908 C907 1.410 . S
C908 C909 1.392 . S
C908 C911 1.511 . S
C909 C905 1.376 . S
C909 C908 1.392 . S
C909 H921 0.929 . S
C910 C906 1.531 . S
C910 H922 0.960 . S
C910 H923 0.962 . S
C910 H924 0.960 . S
C911 C908 1.511 . S
C911 H925 0.961 . S
C911 H926 0.961 . S
C911 H927 0.961 . S
C912 C913 1.370 . S
C912 C914 1.363 . S
C912 H928 0.931 . S
C913 C912 1.370 . S
C913 C917 1.408 . S
C914 C912 1.363 . S
C914 C915 1.370 . S
C914 C918 1.524 . S
C915 C907 1.503 . S
C915 C914 1.370 . S
C915 C916 1.403 . S
C916 C915 1.403 . S
C916 C917 1.404 . S
C916 C919 1.539 . S
C917 C913 1.408 . S
C917 C916 1.404 . S
C917 H929 0.930 . S
C918 C914 1.524 . S
C918 H930 0.956 . S
C918 H931 0.961 . S
C918 H932 0.961 . S
C919 C916 1.539 . S
C919 H933 0.958 . S
C919 H934 0.961 . S
C919 H935 0.960 . S
H920 C904 0.931 . S
H921 C909 0.929 . S
H922 C910 0.960 . S
H923 C910 0.962 . S
H924 C910 0.960 . S
H925 C911 0.961 . S
H926 C911 0.961 . S
H927 C911 0.961 . S
H928 C912 0.931 . S
H929 C917 0.930 . S
H930 C918 0.956 . S
H931 C918 0.961 . S
H932 C918 0.961 . S
H933 C919 0.958 . S
H934 C919 0.961 . S
H935 C919 0.960 . S
C169 C120 1.413 . S
C177 C8 1.401 . S
C201 C22 1.394 . S
C209 C134 1.409 . S
C233 C36 1.378 . S
C241 C148 1.405 . S
C265 C50 1.391 . S
C273 C162 1.396 . S
C297 C92 1.402 . S
C305 C64 1.407 . S
C329 C78 1.410 . S
C337 C106 1.403 . S
C361 C7 1.528 . S
C369 C73 1.530 . S
C393 C21 1.526 . S
C401 C3 1.529 . S
C425 C35 1.527 . S
C433 C17 1.532 . S
C457 C31 1.513 . S
C465 C49 1.508 . S
C489 C45 1.535 . S
C497 C63 1.514 . S
C521 C59 1.535 . S
C529 C77 1.514 . S
C553 C101 1.504 . S
C561 C91 1.502 . S
C585 C105 1.493 . S
C593 C115 1.522 . S
C617 C129 1.536 . S
C625 C119 1.515 . S
C649 C133 1.523 . S
C657 C143 1.531 . S
C681 C147 1.530 . S
C689 C157 1.532 . S
C713 C161 1.513 . S
C721 C87 1.528 . S
C745 C149 1.244 . S
C753 C9 1.257 . S
C777 C163 1.259 . S
C785 C23 1.263 . S
C809 C93 1.242 . S
C817 C37 1.256 . S
C841 C51 1.276 . S
C849 C107 1.270 . S
C873 C65 1.279 . S
C881 C121 1.271 . S
C905 C135 1.265 . S
C913 C79 1.265 . S
