# Generated by pormake.
# Topology umk, (4)-cn, num edge types: 1
# Building blocks:
#     Node 0, Type 0, BuildingBlock: CEKHIL_clean_sbu_0, # of connection points: 4
#     Node 1, Type 0, BuildingBlock: CEKHIL_clean_sbu_0, # of connection points: 4
#     Node 2, Type 0, BuildingBlock: CEKHIL_clean_sbu_0, # of connection points: 4
#     Node 3, Type 0, BuildingBlock: CEKHIL_clean_sbu_0, # of connection points: 4
#     Node 4, Type 0, BuildingBlock: CEKHIL_clean_sbu_0, # of connection points: 4
#     Node 5, Type 0, BuildingBlock: CEKHIL_clean_sbu_0, # of connection points: 4
#     Node 6, Type 0, BuildingBlock: CEKHIL_clean_sbu_0, # of connection points: 4
#     Node 7, Type 0, BuildingBlock: CEKHIL_clean_sbu_0, # of connection points: 4
#     Node 8, Type 0, BuildingBlock: CEKHIL_clean_sbu_0, # of connection points: 4
#     Node 9, Type 0, BuildingBlock: CEKHIL_clean_sbu_0, # of connection points: 4
#     Node 10, Type 0, BuildingBlock: CEKHIL_clean_sbu_0, # of connection points: 4
#     Node 11, Type 0, BuildingBlock: CEKHIL_clean_sbu_0, # of connection points: 4
#     Node 12, Type 0, BuildingBlock: CEKHIL_clean_sbu_0, # of connection points: 4
#     Node 13, Type 0, BuildingBlock: CEKHIL_clean_sbu_0, # of connection points: 4
#     Node 14, Type 0, BuildingBlock: CEKHIL_clean_sbu_0, # of connection points: 4
#     Node 15, Type 0, BuildingBlock: CEKHIL_clean_sbu_0, # of connection points: 4
#     Node 16, Type 0, BuildingBlock: CEKHIL_clean_sbu_0, # of connection points: 4
#     Node 17, Type 0, BuildingBlock: CEKHIL_clean_sbu_0, # of connection points: 4
#     Node 18, Type 0, BuildingBlock: CEKHIL_clean_sbu_0, # of connection points: 4
#     Node 19, Type 0, BuildingBlock: CEKHIL_clean_sbu_0, # of connection points: 4
#     Node 20, Type 0, BuildingBlock: CEKHIL_clean_sbu_0, # of connection points: 4
#     Node 21, Type 0, BuildingBlock: CEKHIL_clean_sbu_0, # of connection points: 4
#     Node 22, Type 0, BuildingBlock: CEKHIL_clean_sbu_0, # of connection points: 4
#     Node 23, Type 0, BuildingBlock: CEKHIL_clean_sbu_0, # of connection points: 4
#     Edge 24, Type (0, 0), BuildingBlock: TEMPAE_clean_linker_10, # of connection points: 2
#     Edge 25, Type (0, 0), BuildingBlock: TEMPAE_clean_linker_10, # of connection points: 2
#     Edge 26, Type (0, 0), BuildingBlock: TEMPAE_clean_linker_10, # of connection points: 2
#     Edge 27, Type (0, 0), BuildingBlock: TEMPAE_clean_linker_10, # of connection points: 2
#     Edge 28, Type (0, 0), BuildingBlock: TEMPAE_clean_linker_10, # of connection points: 2
#     Edge 29, Type (0, 0), BuildingBlock: TEMPAE_clean_linker_10, # of connection points: 2
#     Edge 30, Type (0, 0), BuildingBlock: TEMPAE_clean_linker_10, # of connection points: 2
#     Edge 31, Type (0, 0), BuildingBlock: TEMPAE_clean_linker_10, # of connection points: 2
#     Edge 32, Type (0, 0), BuildingBlock: TEMPAE_clean_linker_10, # of connection points: 2
#     Edge 33, Type (0, 0), BuildingBlock: TEMPAE_clean_linker_10, # of connection points: 2
#     Edge 34, Type (0, 0), BuildingBlock: TEMPAE_clean_linker_10, # of connection points: 2
#     Edge 35, Type (0, 0), BuildingBlock: TEMPAE_clean_linker_10, # of connection points: 2
#     Edge 36, Type (0, 0), BuildingBlock: TEMPAE_clean_linker_10, # of connection points: 2
#     Edge 37, Type (0, 0), BuildingBlock: TEMPAE_clean_linker_10, # of connection points: 2
#     Edge 38, Type (0, 0), BuildingBlock: TEMPAE_clean_linker_10, # of connection points: 2
#     Edge 39, Type (0, 0), BuildingBlock: TEMPAE_clean_linker_10, # of connection points: 2
#     Edge 40, Type (0, 0), BuildingBlock: TEMPAE_clean_linker_10, # of connection points: 2
#     Edge 41, Type (0, 0), BuildingBlock: TEMPAE_clean_linker_10, # of connection points: 2
#     Edge 42, Type (0, 0), BuildingBlock: TEMPAE_clean_linker_10, # of connection points: 2
#     Edge 43, Type (0, 0), BuildingBlock: TEMPAE_clean_linker_10, # of connection points: 2
#     Edge 44, Type (0, 0), BuildingBlock: TEMPAE_clean_linker_10, # of connection points: 2
#     Edge 45, Type (0, 0), BuildingBlock: TEMPAE_clean_linker_10, # of connection points: 2
#     Edge 46, Type (0, 0), BuildingBlock: TEMPAE_clean_linker_10, # of connection points: 2
#     Edge 47, Type (0, 0), BuildingBlock: TEMPAE_clean_linker_10, # of connection points: 2
#     Edge 48, Type (0, 0), BuildingBlock: TEMPAE_clean_linker_10, # of connection points: 2
#     Edge 49, Type (0, 0), BuildingBlock: TEMPAE_clean_linker_10, # of connection points: 2
#     Edge 50, Type (0, 0), BuildingBlock: TEMPAE_clean_linker_10, # of connection points: 2
#     Edge 51, Type (0, 0), BuildingBlock: TEMPAE_clean_linker_10, # of connection points: 2
#     Edge 52, Type (0, 0), BuildingBlock: TEMPAE_clean_linker_10, # of connection points: 2
#     Edge 53, Type (0, 0), BuildingBlock: TEMPAE_clean_linker_10, # of connection points: 2
#     Edge 54, Type (0, 0), BuildingBlock: TEMPAE_clean_linker_10, # of connection points: 2
#     Edge 55, Type (0, 0), BuildingBlock: TEMPAE_clean_linker_10, # of connection points: 2
#     Edge 56, Type (0, 0), BuildingBlock: TEMPAE_clean_linker_10, # of connection points: 2
#     Edge 57, Type (0, 0), BuildingBlock: TEMPAE_clean_linker_10, # of connection points: 2
#     Edge 58, Type (0, 0), BuildingBlock: TEMPAE_clean_linker_10, # of connection points: 2
#     Edge 59, Type (0, 0), BuildingBlock: TEMPAE_clean_linker_10, # of connection points: 2
#     Edge 60, Type (0, 0), BuildingBlock: TEMPAE_clean_linker_10, # of connection points: 2
#     Edge 61, Type (0, 0), BuildingBlock: TEMPAE_clean_linker_10, # of connection points: 2
#     Edge 62, Type (0, 0), BuildingBlock: TEMPAE_clean_linker_10, # of connection points: 2
#     Edge 63, Type (0, 0), BuildingBlock: TEMPAE_clean_linker_10, # of connection points: 2
#     Edge 64, Type (0, 0), BuildingBlock: TEMPAE_clean_linker_10, # of connection points: 2
#     Edge 65, Type (0, 0), BuildingBlock: TEMPAE_clean_linker_10, # of connection points: 2
#     Edge 66, Type (0, 0), BuildingBlock: TEMPAE_clean_linker_10, # of connection points: 2
#     Edge 67, Type (0, 0), BuildingBlock: TEMPAE_clean_linker_10, # of connection points: 2
#     Edge 68, Type (0, 0), BuildingBlock: TEMPAE_clean_linker_10, # of connection points: 2
#     Edge 69, Type (0, 0), BuildingBlock: TEMPAE_clean_linker_10, # of connection points: 2
#     Edge 70, Type (0, 0), BuildingBlock: TEMPAE_clean_linker_10, # of connection points: 2
#     Edge 71, Type (0, 0), BuildingBlock: TEMPAE_clean_linker_10, # of connection points: 2
# Relax obj value: 0.068
# Max RMSD: 0.047
# Mean RMSD: 0.047
data_MOF--net-umk--node1-CEKHIL_clean_sbu_0--edge1-TEMPAE_clean_linker_10
_symmetry_space_group_name_H-M    P1
_symmetry_Int_Tables_number       1
_symmetry_cell_setting            triclinic
loop_
_symmetry_equiv_pos_as_xyz
'x, y, z'
_cell_length_a     66.650028
_cell_length_b     66.772494
_cell_length_c     43.473247
_cell_angle_alpha  89.998358
_cell_angle_beta   90.005153
_cell_angle_gamma 120.17043
loop_
_atom_site_label
_atom_site_type_symbol
_atom_site_fract_x
_atom_site_fract_y
_atom_site_fract_z
_atom_type_partial_charge
Co0 Co 0.3313 0.46651 0.07963 0.0
O1 O 0.31054 0.47864 0.07673 0.0
O2 O 0.31135 0.454 0.04362 0.0
C3 C 0.32556 0.45766 0.13021 0.0
O4 O 0.34995 0.44971 0.07645 0.0
Co5 Co 0.3748 0.49228 0.12217 0.0
O6 O 0.3796 0.4663 0.11034 0.0
C7 C 0.37332 0.51321 0.06365 0.0
C8 C 0.30191 0.46607 0.05229 0.0
C9 C 0.36785 0.45106 0.09001 0.0
O10 O 0.35575 0.4938 0.05505 0.0
O11 O 0.38158 0.51697 0.09095 0.0
O12 O 0.31079 0.44358 0.1101 0.0
O13 O 0.34148 0.47724 0.11945 0.0
Co14 Co 0.87167 0.33317 0.58541 0.0
O15 O 0.83861 0.31271 0.58233 0.0
O16 O 0.86387 0.3148 0.54782 0.0
C17 C 0.87473 0.32518 0.63503 0.0
O18 O 0.90732 0.35175 0.58214 0.0
Co19 Co 0.89013 0.37467 0.63146 0.0
O20 O 0.92082 0.37969 0.61851 0.0
C21 C 0.86716 0.37574 0.57443 0.0
C22 C 0.84233 0.30509 0.55681 0.0
C23 C 0.92411 0.36885 0.59673 0.0
O24 O 0.86884 0.35861 0.56374 0.0
O25 O 0.87206 0.3828 0.60226 0.0
O26 O 0.87391 0.3113 0.61351 0.0
O27 O 0.87131 0.34163 0.62619 0.0
Co28 Co 0.53807 0.86138 0.08543 0.0
O29 O 0.52693 0.82886 0.07996 0.0
O30 O 0.55159 0.85623 0.04861 0.0
C31 C 0.54628 0.86225 0.13597 0.0
O32 O 0.55395 0.89687 0.08486 0.0
Co33 Co 0.51143 0.87623 0.13011 0.0
O34 O 0.53734 0.90793 0.12118 0.0
C35 C 0.49101 0.85591 0.07027 0.0
C36 C 0.53981 0.83429 0.05561 0.0
C37 C 0.55256 0.91265 0.10032 0.0
O38 O 0.51058 0.85835 0.06131 0.0
O39 O 0.48706 0.85944 0.09796 0.0
O40 O 0.5612 0.86385 0.11548 0.0
O41 O 0.52653 0.85821 0.1254 0.0
Co42 Co 0.67233 0.53804 0.58812 0.0
O43 O 0.69245 0.52519 0.58373 0.0
O44 O 0.69178 0.5504 0.5516 0.0
C45 C 0.67946 0.54634 0.63887 0.0
O46 O 0.65455 0.55592 0.5862 0.0
Co47 Co 0.62986 0.51466 0.63268 0.0
O48 O 0.62715 0.54215 0.62327 0.0
C49 C 0.62699 0.49392 0.57164 0.0
C50 C 0.70098 0.53794 0.55941 0.0
C51 C 0.63815 0.55634 0.6016 0.0
O52 O 0.64696 0.51113 0.56386 0.0
O53 O 0.61819 0.49155 0.59849 0.0
O54 O 0.69376 0.56046 0.61838 0.0
O55 O 0.66279 0.52716 0.62819 0.0
Co56 Co 0.14147 0.6756 0.08878 0.0
O57 O 0.1741 0.69617 0.08234 0.0
O58 O 0.14674 0.69384 0.05141 0.0
C59 C 0.14235 0.68438 0.13901 0.0
O60 O 0.10583 0.65679 0.08937 0.0
Co61 Co 0.12534 0.63498 0.13508 0.0
O62 O 0.09528 0.63434 0.13171 0.0
C63 C 0.14379 0.6322 0.07458 0.0
C64 C 0.16877 0.70368 0.05803 0.0
C65 C 0.09039 0.64315 0.10891 0.0
O66 O 0.14303 0.65017 0.06529 0.0
O67 O 0.13961 0.62483 0.10235 0.0
O68 O 0.14056 0.69737 0.11826 0.0
O69 O 0.14516 0.66783 0.12885 0.0
Co70 Co 0.47284 0.14374 0.58702 0.0
O71 O 0.48542 0.17659 0.58201 0.0
O72 O 0.46086 0.15019 0.54964 0.0
C73 C 0.46384 0.14331 0.63721 0.0
O74 O 0.45533 0.10807 0.58556 0.0
Co75 Co 0.49538 0.12549 0.63364 0.0
O76 O 0.4682 0.09487 0.6241 0.0
C77 C 0.51743 0.14302 0.57302 0.0
C78 C 0.47303 0.17197 0.55728 0.0
C79 C 0.45453 0.09139 0.60163 0.0
O80 O 0.50037 0.14561 0.56413 0.0
O81 O 0.51921 0.13683 0.60028 0.0
O82 O 0.44959 0.14229 0.61608 0.0
O83 O 0.48333 0.14607 0.62755 0.0
Co84 Co 0.54268 0.67435 0.91423 0.0
O85 O 0.53102 0.69544 0.91741 0.0
O86 O 0.55408 0.69286 0.95163 0.0
C87 C 0.55333 0.68194 0.8644 0.0
O88 O 0.55893 0.65516 0.91727 0.0
Co89 Co 0.51805 0.63265 0.86884 0.0
O90 O 0.54355 0.62716 0.88107 0.0
C91 C 0.4951 0.63227 0.92653 0.0
C92 C 0.54277 0.70305 0.94267 0.0
C93 C 0.55803 0.63786 0.90265 0.0
O94 O 0.51428 0.64943 0.93656 0.0
O95 O 0.49229 0.6249 0.89881 0.0
O96 O 0.56687 0.69571 0.88573 0.0
O97 O 0.53327 0.66581 0.87357 0.0
Co98 Co 0.86722 0.54141 0.42417 0.0
O99 O 0.8341 0.52864 0.42696 0.0
O100 O 0.85934 0.5536 0.46011 0.0
C101 C 0.8703 0.55005 0.3735 0.0
O102 O 0.90283 0.55885 0.42748 0.0
Co103 Co 0.88566 0.51624 0.38183 0.0
O104 O 0.91636 0.54236 0.39424 0.0
C105 C 0.86331 0.49523 0.4404 0.0
C106 C 0.83778 0.54111 0.45141 0.0
C107 C 0.9196 0.55764 0.41433 0.0
O108 O 0.86479 0.51445 0.4489 0.0
O109 O 0.86797 0.49155 0.41318 0.0
O110 O 0.86931 0.56402 0.39344 0.0
O111 O 0.86694 0.53069 0.38447 0.0
Co112 Co 0.33156 0.86362 0.91542 0.0
O113 O 0.30966 0.83107 0.91938 0.0
O114 O 0.31238 0.85766 0.95199 0.0
C115 C 0.32477 0.86542 0.86492 0.0
O116 O 0.35153 0.89907 0.91745 0.0
Co117 Co 0.37366 0.87938 0.87156 0.0
O118 O 0.37978 0.91092 0.88175 0.0
C119 C 0.37276 0.85754 0.9305 0.0
C120 C 0.30187 0.83594 0.94384 0.0
C121 C 0.36905 0.91518 0.90271 0.0
O122 O 0.35555 0.85981 0.9395 0.0
O123 O 0.38064 0.86177 0.90299 0.0
O124 O 0.31138 0.86688 0.88542 0.0
O125 O 0.34034 0.86118 0.87539 0.0
Co126 Co 0.46948 0.32995 0.41122 0.0
O127 O 0.48293 0.31059 0.41723 0.0
O128 O 0.45875 0.31281 0.44982 0.0
C129 C 0.45955 0.31918 0.36183 0.0
O130 O 0.45132 0.34745 0.41168 0.0
Co131 Co 0.48929 0.36887 0.36199 0.0
O132 O 0.45884 0.36702 0.36707 0.0
C133 C 0.51363 0.37645 0.42168 0.0
C134 C 0.47115 0.3034 0.44251 0.0
C135 C 0.44706 0.35918 0.3917 0.0
O136 O 0.4972 0.3569 0.43202 0.0
O137 O 0.51417 0.38339 0.39406 0.0
O138 O 0.44587 0.3066 0.38387 0.0
O139 O 0.47897 0.33677 0.37019 0.0
Co140 Co 0.13942 0.46811 0.91534 0.0
O141 O 0.17224 0.47992 0.9195 0.0
O142 O 0.14588 0.45525 0.95184 0.0
C143 C 0.13757 0.45959 0.86465 0.0
O144 O 0.1038 0.45159 0.91701 0.0
Co145 Co 0.12332 0.4944 0.87171 0.0
O146 O 0.09199 0.46822 0.88163 0.0
C147 C 0.14405 0.51471 0.93135 0.0
C148 C 0.16766 0.4672 0.94387 0.0
C149 C 0.0877 0.45295 0.90222 0.0
O150 O 0.14215 0.4953 0.9398 0.0
O151 O 0.14012 0.51873 0.9039 0.0
O152 O 0.13721 0.44524 0.88512 0.0
O153 O 0.14129 0.47918 0.87534 0.0
Co154 Co 0.67988 0.14568 0.41239 0.0
O155 O 0.69971 0.17852 0.41853 0.0
O156 O 0.69744 0.15181 0.45054 0.0
C157 C 0.68984 0.14636 0.36266 0.0
O158 O 0.66211 0.10999 0.41277 0.0
Co159 Co 0.64021 0.12672 0.36403 0.0
O160 O 0.64139 0.09783 0.36902 0.0
C161 C 0.63366 0.14351 0.42423 0.0
C162 C 0.70704 0.17369 0.44348 0.0
C163 C 0.64972 0.0939 0.39316 0.0
O164 O 0.65332 0.14659 0.43405 0.0
O165 O 0.62631 0.13711 0.39674 0.0
O166 O 0.70272 0.14527 0.38427 0.0
O167 O 0.67254 0.14838 0.37165 0.0
Co168 Co 0.68024 0.53739 0.91729 0.0
O169 O 0.69978 0.52398 0.9225 0.0
O170 O 0.69842 0.54868 0.95496 0.0
C171 C 0.68931 0.54665 0.8674 0.0
O172 O 0.66295 0.5557 0.91869 0.0
Co173 Co 0.6395 0.51699 0.87048 0.0
O174 O 0.64212 0.54774 0.8751 0.0
C175 C 0.63341 0.49441 0.93107 0.0
C176 C 0.70758 0.53613 0.94744 0.0
C177 C 0.65084 0.55987 0.89924 0.0
O178 O 0.65387 0.51021 0.93966 0.0
O179 O 0.62499 0.49368 0.90436 0.0
O180 O 0.7028 0.56044 0.88874 0.0
O181 O 0.67196 0.52734 0.87659 0.0
Co182 Co 0.1429 0.67428 0.41835 0.0
O183 O 0.17616 0.69316 0.4231 0.0
O184 O 0.15061 0.69307 0.45545 0.0
C185 C 0.14218 0.68235 0.36796 0.0
O186 O 0.10717 0.65802 0.42018 0.0
Co187 Co 0.12119 0.63253 0.37279 0.0
O188 O 0.09318 0.63524 0.37834 0.0
C189 C 0.13909 0.62765 0.43288 0.0
C190 C 0.17228 0.70163 0.44775 0.0
C191 C 0.09037 0.64514 0.40166 0.0
O192 O 0.143 0.64782 0.4415 0.0
O193 O 0.13189 0.61937 0.40596 0.0
O194 O 0.14329 0.69679 0.38884 0.0
O195 O 0.14356 0.66492 0.378 0.0
Co196 Co 0.46881 0.13857 0.91639 0.0
O197 O 0.48276 0.17165 0.92089 0.0
O198 O 0.45734 0.14608 0.95334 0.0
C199 C 0.46003 0.13749 0.86597 0.0
O200 O 0.45013 0.10296 0.91808 0.0
Co201 Co 0.49119 0.11887 0.87134 0.0
O202 O 0.46117 0.08977 0.87744 0.0
C203 C 0.51371 0.13895 0.93066 0.0
C204 C 0.47037 0.16773 0.94551 0.0
C205 C 0.44765 0.08648 0.90003 0.0
O206 O 0.49545 0.13922 0.93989 0.0
O207 O 0.51628 0.13375 0.90315 0.0
O208 O 0.44645 0.13835 0.88669 0.0
O209 O 0.47911 0.13951 0.8762 0.0
Co210 Co 0.33647 0.4719 0.40907 0.0
O211 O 0.31593 0.48412 0.41435 0.0
O212 O 0.31845 0.46016 0.44692 0.0
C213 C 0.32743 0.46244 0.35908 0.0
O214 O 0.35507 0.45486 0.41023 0.0
Co215 Co 0.37687 0.4947 0.36167 0.0
O216 O 0.38113 0.46815 0.37153 0.0
C217 C 0.38127 0.51747 0.42158 0.0
C218 C 0.30857 0.47208 0.4394 0.0
C219 C 0.37112 0.45442 0.39401 0.0
O220 O 0.36228 0.49981 0.43128 0.0
O221 O 0.38864 0.51933 0.39395 0.0
O222 O 0.31442 0.44828 0.38047 0.0
O223 O 0.34413 0.48208 0.36841 0.0
Co224 Co 0.86402 0.32947 0.91324 0.0
O225 O 0.83105 0.30939 0.91839 0.0
O226 O 0.85747 0.31082 0.95035 0.0
C227 C 0.86412 0.32121 0.86293 0.0
O228 O 0.89973 0.34723 0.91455 0.0
Co229 Co 0.88399 0.37069 0.86737 0.0
O230 O 0.91238 0.36835 0.87121 0.0
C231 C 0.86691 0.37549 0.92833 0.0
C232 C 0.83564 0.30138 0.9429 0.0
C233 C 0.91598 0.35958 0.89512 0.0
O234 O 0.86275 0.35517 0.9365 0.0
O235 O 0.87436 0.38413 0.90161 0.0
O236 O 0.86485 0.30765 0.88377 0.0
O237 O 0.86198 0.3382 0.87298 0.0
Co238 Co 0.54059 0.87016 0.41375 0.0
O239 O 0.5273 0.83705 0.4174 0.0
O240 O 0.55083 0.86238 0.45161 0.0
C241 C 0.55164 0.8725 0.36411 0.0
O242 O 0.55852 0.90581 0.41686 0.0
Co243 Co 0.51953 0.88996 0.36648 0.0
O244 O 0.54565 0.92023 0.3797 0.0
C245 C 0.49483 0.86924 0.42456 0.0
C246 C 0.53871 0.84083 0.44293 0.0
C247 C 0.55915 0.92292 0.40206 0.0
O248 O 0.51244 0.8682 0.43502 0.0
O249 O 0.49364 0.87508 0.39687 0.0
O250 O 0.56455 0.8716 0.38583 0.0
O251 O 0.53198 0.86979 0.37281 0.0
Co252 Co 0.4688 0.32952 0.08435 0.0
O253 O 0.48272 0.31033 0.08054 0.0
O254 O 0.45854 0.3113 0.04669 0.0
C255 C 0.45825 0.32075 0.13417 0.0
O256 O 0.45007 0.34635 0.08147 0.0
Co257 Co 0.48863 0.37057 0.13102 0.0
O258 O 0.45847 0.36883 0.12358 0.0
C259 C 0.51371 0.37521 0.07293 0.0
C260 C 0.47106 0.30233 0.05524 0.0
C261 C 0.44618 0.35929 0.09977 0.0
O262 O 0.49648 0.35607 0.06272 0.0
O263 O 0.51445 0.38262 0.1003 0.0
O264 O 0.44535 0.30674 0.11257 0.0
O265 O 0.47763 0.3381 0.12519 0.0
Co266 Co 0.14734 0.46865 0.58741 0.0
O267 O 0.18039 0.48237 0.5818 0.0
O268 O 0.15415 0.45843 0.54877 0.0
C269 C 0.14738 0.45814 0.63668 0.0
O270 O 0.1116 0.45021 0.5862 0.0
Co271 Co 0.12728 0.48755 0.63686 0.0
O272 O 0.09858 0.45739 0.63022 0.0
C273 C 0.14445 0.51242 0.57756 0.0
C274 C 0.17596 0.47081 0.55634 0.0
C275 C 0.09516 0.4458 0.60555 0.0
O276 O 0.14802 0.49638 0.56698 0.0
O277 O 0.13777 0.51256 0.60514 0.0
O278 O 0.14698 0.44492 0.61451 0.0
O279 O 0.14928 0.47755 0.6286 0.0
Co280 Co 0.67668 0.13624 0.08431 0.0
O281 O 0.69577 0.16931 0.07966 0.0
O282 O 0.69555 0.14378 0.04721 0.0
C283 C 0.68468 0.13545 0.13463 0.0
O284 O 0.65971 0.10065 0.08284 0.0
Co285 Co 0.63463 0.11647 0.1296 0.0
O286 O 0.63581 0.08756 0.12391 0.0
C287 C 0.63199 0.13629 0.07031 0.0
C288 C 0.70418 0.16542 0.05498 0.0
C289 C 0.6459 0.08425 0.1012 0.0
O290 O 0.65052 0.13662 0.06098 0.0
O291 O 0.6242 0.13111 0.09781 0.0
O292 O 0.69906 0.13632 0.11378 0.0
O293 O 0.66748 0.13727 0.12455 0.0
Co294 Co 0.5393 0.67988 0.58601 0.0
O295 O 0.52557 0.69909 0.58044 0.0
O296 O 0.5511 0.69851 0.54874 0.0
C297 C 0.54742 0.68845 0.63634 0.0
O298 O 0.55806 0.66299 0.5851 0.0
Co299 Co 0.51876 0.63889 0.63241 0.0
O300 O 0.54988 0.6421 0.62862 0.0
C301 C 0.49663 0.63314 0.57136 0.0
C302 C 0.53813 0.70729 0.5559 0.0
C303 C 0.56225 0.65099 0.60468 0.0
O304 O 0.51261 0.65355 0.56287 0.0
O305 O 0.49561 0.62487 0.59826 0.0
O306 O 0.56166 0.70222 0.61552 0.0
O307 O 0.52849 0.67108 0.62624 0.0
Co308 Co 0.86595 0.53324 0.09455 0.0
O309 O 0.83318 0.52138 0.08924 0.0
O310 O 0.86004 0.54532 0.05686 0.0
C311 C 0.86662 0.5426 0.14463 0.0
O312 O 0.90164 0.54996 0.0934 0.0
Co313 Co 0.88299 0.50981 0.14148 0.0
O314 O 0.91419 0.53594 0.13137 0.0
C315 C 0.8646 0.4876 0.08127 0.0
C316 C 0.83815 0.53358 0.06431 0.0
C317 C 0.91805 0.54994 0.10923 0.0
O318 O 0.86344 0.50537 0.07196 0.0
O319 O 0.87001 0.48546 0.10883 0.0
O320 O 0.86796 0.55685 0.12333 0.0
O321 O 0.86328 0.52288 0.13518 0.0
Co322 Co 0.33281 0.8685 0.58555 0.0
O323 O 0.31449 0.83517 0.58195 0.0
O324 O 0.31342 0.85967 0.54889 0.0
C325 C 0.32536 0.86987 0.63597 0.0
O326 O 0.34839 0.90409 0.58246 0.0
Co327 Co 0.37534 0.89212 0.62987 0.0
O328 O 0.37112 0.91919 0.62421 0.0
C329 C 0.37991 0.87364 0.57009 0.0
C330 C 0.30549 0.83826 0.55723 0.0
C331 C 0.36086 0.9212 0.60073 0.0
O332 O 0.35923 0.86861 0.56212 0.0
O333 O 0.38884 0.88198 0.59639 0.0
O334 O 0.31041 0.86802 0.61535 0.0
O335 O 0.34301 0.86893 0.62576 0.0
C336 C 0.30213 0.44076 0.1778 0.0
C337 C 0.32382 0.45238 0.16333 0.0
C338 C 0.30047 0.43887 0.21003 0.0
C339 C 0.32101 0.44819 0.22791 0.0
C340 C 0.34287 0.45832 0.21307 0.0
C341 C 0.34402 0.4607 0.18097 0.0
C342 C 0.27688 0.4285 0.22495 0.0
C343 C 0.36515 0.4678 0.23117 0.0
C344 C 0.325 0.47463 0.30625 0.0
C345 C 0.32328 0.45732 0.32604 0.0
C346 C 0.32296 0.47125 0.27437 0.0
C347 C 0.32004 0.45036 0.26189 0.0
C348 C 0.31791 0.4326 0.28188 0.0
C349 C 0.31917 0.43617 0.31392 0.0
C350 C 0.32464 0.49038 0.25402 0.0
C351 C 0.31549 0.4104 0.26943 0.0
H352 H 0.28651 0.43443 0.16408 0.0
H353 H 0.3608 0.46945 0.1697 0.0
H354 H 0.27493 0.41605 0.24321 0.0
H355 H 0.27507 0.44247 0.23604 0.0
H356 H 0.26259 0.41949 0.20802 0.0
H357 H 0.38022 0.47181 0.21619 0.0
H358 H 0.36869 0.48395 0.24309 0.0
H359 H 0.36362 0.45524 0.24905 0.0
H360 H 0.32804 0.49093 0.31578 0.0
H361 H 0.3181 0.42291 0.32938 0.0
H362 H 0.31005 0.48334 0.23736 0.0
H363 H 0.341 0.49806 0.24058 0.0
H364 H 0.3244 0.50441 0.26746 0.0
H365 H 0.30134 0.40256 0.25219 0.0
H366 H 0.31194 0.39753 0.28789 0.0
H367 H 0.33179 0.41424 0.25755 0.0
C368 C 0.86318 0.29993 0.68132 0.0
C369 C 0.87739 0.32158 0.66777 0.0
C370 C 0.86218 0.29741 0.71347 0.0
C371 C 0.87634 0.31688 0.73219 0.0
C372 C 0.89221 0.33827 0.71826 0.0
C373 C 0.89215 0.34049 0.6862 0.0
C374 C 0.84457 0.2745 0.72737 0.0
C375 C 0.90818 0.35924 0.73728 0.0
C376 C 0.85442 0.32465 0.80901 0.0
C377 C 0.86623 0.31823 0.82976 0.0
C378 C 0.85685 0.32328 0.77723 0.0
C379 C 0.87212 0.31604 0.76589 0.0
C380 C 0.88398 0.30931 0.7868 0.0
C381 C 0.8806 0.31015 0.81864 0.0
C382 C 0.8434 0.33006 0.7558 0.0
C383 C 0.9009 0.30218 0.7756 0.0
H384 H 0.85163 0.28538 0.66692 0.0
H385 H 0.90323 0.3572 0.67557 0.0
H386 H 0.85241 0.26953 0.74621 0.0
H387 H 0.83017 0.27615 0.73747 0.0
H388 H 0.83718 0.26039 0.71 0.0
H389 H 0.92204 0.37315 0.72308 0.0
H390 H 0.89802 0.36629 0.74832 0.0
H391 H 0.9164 0.35445 0.75588 0.0
H392 H 0.84318 0.33074 0.81769 0.0
H393 H 0.88991 0.30541 0.8348 0.0
H394 H 0.83391 0.31626 0.73847 0.0
H395 H 0.85556 0.34608 0.74317 0.0
H396 H 0.83072 0.33324 0.76827 0.0
H397 H 0.89266 0.28833 0.75802 0.0
H398 H 0.90747 0.29591 0.79461 0.0
H399 H 0.91589 0.31719 0.76444 0.0
C400 C 0.55267 0.8891 0.31275 0.0
C401 C 0.55811 0.8754 0.33138 0.0
C402 C 0.55491 0.88913 0.28071 0.0
C403 C 0.5619 0.87439 0.26695 0.0
C404 C 0.5686 0.86142 0.28583 0.0
C405 C 0.56694 0.86236 0.31799 0.0
C406 C 0.54832 0.9038 0.26153 0.0
C407 C 0.57564 0.84511 0.27209 0.0
C408 C 0.53303 0.8515 0.1898 0.0
C409 C 0.55112 0.86454 0.16923 0.0
C410 C 0.53672 0.85377 0.22163 0.0
C411 C 0.55888 0.87014 0.2332 0.0
C412 C 0.57733 0.88326 0.21248 0.0
C413 C 0.57331 0.88001 0.18059 0.0
C414 C 0.5167 0.83898 0.24287 0.0
C415 C 0.60097 0.90136 0.22392 0.0
H416 H 0.54602 0.89934 0.32321 0.0
H417 H 0.57095 0.85163 0.3325 0.0
H418 H 0.56127 0.91283 0.24305 0.0
H419 H 0.53131 0.89254 0.25033 0.0
H420 H 0.54692 0.91693 0.27562 0.0
H421 H 0.58337 0.83881 0.28953 0.0
H422 H 0.56012 0.82991 0.26214 0.0
H423 H 0.58829 0.85362 0.25316 0.0
H424 H 0.51592 0.83937 0.18094 0.0
H425 H 0.58724 0.8902 0.16458 0.0
H426 H 0.51154 0.85007 0.25564 0.0
H427 H 0.522 0.83025 0.26009 0.0
H428 H 0.5013 0.82557 0.23022 0.0
H429 H 0.59967 0.91556 0.23526 0.0
H430 H 0.61388 0.90886 0.20501 0.0
H431 H 0.60742 0.89386 0.2414 0.0
C432 C 0.6989 0.53956 0.81519 0.0
C433 C 0.69291 0.55241 0.83458 0.0
C434 C 0.69911 0.54214 0.78317 0.0
C435 C 0.69242 0.55742 0.77034 0.0
C436 C 0.68713 0.57107 0.79003 0.0
C437 C 0.68766 0.56854 0.82209 0.0
C438 C 0.70525 0.52754 0.76308 0.0
C439 C 0.67951 0.58721 0.77729 0.0
C440 C 0.70322 0.56879 0.68443 0.0
C441 C 0.68221 0.55122 0.67226 0.0
C442 C 0.7066 0.57173 0.71644 0.0
C443 C 0.68843 0.55691 0.73657 0.0
C444 C 0.66681 0.53996 0.72428 0.0
C445 C 0.66403 0.53723 0.69232 0.0
C446 C 0.72994 0.58989 0.72868 0.0
C447 C 0.64686 0.52399 0.74489 0.0
H448 H 0.70283 0.52701 0.8251 0.0
H449 H 0.68276 0.57823 0.83732 0.0
H450 H 0.68946 0.51422 0.75105 0.0
H451 H 0.71798 0.53842 0.74523 0.0
H452 H 0.71263 0.51863 0.77657 0.0
H453 H 0.67844 0.59836 0.79543 0.0
H454 H 0.69164 0.59843 0.75912 0.0
H455 H 0.66214 0.5769 0.76653 0.0
H456 H 0.71733 0.57965 0.669 0.0
H457 H 0.64767 0.52375 0.68307 0.0
H458 H 0.73866 0.58129 0.73968 0.0
H459 H 0.72782 0.60052 0.74658 0.0
H460 H 0.74141 0.60153 0.71024 0.0
H461 H 0.6513 0.51222 0.75734 0.0
H462 H 0.63057 0.51326 0.73178 0.0
H463 H 0.64364 0.53413 0.76241 0.0
C464 C 0.12827 0.66533 0.31609 0.0
C465 C 0.13897 0.685 0.33491 0.0
C466 C 0.12701 0.66731 0.28418 0.0
C467 C 0.13742 0.68956 0.27058 0.0
C468 C 0.14748 0.70953 0.28957 0.0
C469 C 0.14786 0.70698 0.32167 0.0
C470 C 0.11556 0.64553 0.26491 0.0
C471 C 0.15915 0.73355 0.2759 0.0
C472 C 0.15932 0.6885 0.19074 0.0
C473 C 0.14219 0.68849 0.17217 0.0
C474 C 0.15879 0.69053 0.22274 0.0
C475 C 0.14012 0.69163 0.23655 0.0
C476 C 0.12301 0.69217 0.21774 0.0
C477 C 0.12447 0.69096 0.18556 0.0
C478 C 0.17773 0.69052 0.24182 0.0
C479 C 0.10249 0.69262 0.23161 0.0
H480 H 0.12116 0.64829 0.32621 0.0
H481 H 0.15621 0.72222 0.33622 0.0
H482 H 0.10362 0.64637 0.24786 0.0
H483 H 0.12899 0.64388 0.25193 0.0
H484 H 0.10562 0.62972 0.27916 0.0
H485 H 0.16359 0.7471 0.29368 0.0
H486 H 0.17537 0.73701 0.26416 0.0
H487 H 0.14786 0.73498 0.25835 0.0
H488 H 0.17309 0.68674 0.18016 0.0
H489 H 0.11114 0.69073 0.17101 0.0
H490 H 0.17056 0.67399 0.25471 0.0
H491 H 0.18452 0.70478 0.25893 0.0
H492 H 0.1924 0.69249 0.22745 0.0
H493 H 0.09102 0.67581 0.24311 0.0
H494 H 0.09217 0.69558 0.21399 0.0
H495 H 0.10827 0.70632 0.2494 0.0
C496 C 0.44353 0.14576 0.81931 0.0
C497 C 0.45454 0.13479 0.83285 0.0
C498 C 0.44149 0.14619 0.78714 0.0
C499 C 0.44998 0.13472 0.76837 0.0
C500 C 0.45946 0.12213 0.78225 0.0
C501 C 0.46207 0.12274 0.81427 0.0
C502 C 0.43183 0.16031 0.77325 0.0
C503 C 0.46806 0.10904 0.76321 0.0
C504 C 0.43743 0.12568 0.6824 0.0
C505 C 0.45891 0.14228 0.67032 0.0
C506 C 0.43389 0.12327 0.71444 0.0
C507 C 0.45203 0.13836 0.73448 0.0
C508 C 0.47326 0.15598 0.72205 0.0
C509 C 0.47658 0.15741 0.69016 0.0
C510 C 0.41129 0.10385 0.72681 0.0
C511 C 0.49284 0.17287 0.74248 0.0
H512 H 0.43782 0.1552 0.83373 0.0
H513 H 0.47043 0.11409 0.82471 0.0
H514 H 0.44617 0.17614 0.76255 0.0
H515 H 0.41915 0.15044 0.75484 0.0
H516 H 0.42327 0.16564 0.79073 0.0
H517 H 0.47157 0.09734 0.7775 0.0
H518 H 0.45517 0.09858 0.74526 0.0
H519 H 0.48436 0.12149 0.75133 0.0
H520 H 0.42387 0.11388 0.66691 0.0
H521 H 0.49313 0.17038 0.68066 0.0
H522 H 0.40408 0.1104 0.74456 0.0
H523 H 0.41446 0.09076 0.73803 0.0
H524 H 0.39815 0.09516 0.70839 0.0
H525 H 0.48632 0.18055 0.75962 0.0
H526 H 0.50708 0.18711 0.72914 0.0
H527 H 0.50013 0.16363 0.75535 0.0
C528 C 0.57474 0.69892 0.6809 0.0
C529 C 0.55241 0.6914 0.66954 0.0
C530 C 0.57867 0.69924 0.71277 0.0
C531 C 0.55992 0.69254 0.73348 0.0
C532 C 0.53757 0.68595 0.72192 0.0
C533 C 0.53404 0.68508 0.6901 0.0
C534 C 0.60255 0.7057 0.72419 0.0
C535 C 0.5172 0.67926 0.74313 0.0
C536 C 0.55441 0.66683 0.81264 0.0
C537 C 0.55921 0.68567 0.83153 0.0
C538 C 0.55674 0.66941 0.78059 0.0
C539 C 0.56295 0.69111 0.76718 0.0
C540 C 0.56876 0.71044 0.78636 0.0
C541 C 0.56722 0.70755 0.81846 0.0
C542 C 0.55121 0.64856 0.76105 0.0
C543 C 0.57473 0.73366 0.77304 0.0
H544 H 0.58887 0.70352 0.66487 0.0
H545 H 0.51678 0.67937 0.68122 0.0
H546 H 0.60835 0.71925 0.7422 0.0
H547 H 0.60198 0.69032 0.73487 0.0
H548 H 0.6156 0.71208 0.70538 0.0
H549 H 0.50156 0.67668 0.73055 0.0
H550 H 0.51274 0.66292 0.75527 0.0
H551 H 0.52175 0.69283 0.76087 0.0
H552 H 0.54835 0.64994 0.8229 0.0
H553 H 0.5707 0.72204 0.83322 0.0
H554 H 0.56433 0.65331 0.74259 0.0
H555 H 0.53409 0.64207 0.74983 0.0
H556 H 0.55056 0.63426 0.7749 0.0
H557 H 0.58777 0.73872 0.75442 0.0
H558 H 0.58154 0.74752 0.79076 0.0
H559 H 0.55891 0.73244 0.76274 0.0
C560 C 0.88641 0.5474 0.32315 0.0
C561 C 0.87389 0.55516 0.34035 0.0
C562 C 0.88755 0.54932 0.291 0.0
C563 C 0.8751 0.55839 0.27565 0.0
C564 C 0.86326 0.5672 0.29307 0.0
C565 C 0.86312 0.56581 0.32536 0.0
C566 C 0.90103 0.54042 0.2734 0.0
C567 C 0.84929 0.57645 0.27763 0.0
C568 C 0.88462 0.5694 0.18937 0.0
C569 C 0.86794 0.54782 0.1777 0.0
C570 C 0.88707 0.57338 0.22133 0.0
C571 C 0.87191 0.55558 0.24171 0.0
C572 C 0.85434 0.53417 0.2297 0.0
C573 C 0.85289 0.53041 0.19789 0.0
C574 C 0.90647 0.59614 0.23328 0.0
C575 C 0.83737 0.51495 0.25048 0.0
H576 H 0.89497 0.5394 0.33481 0.0
H577 H 0.85333 0.57169 0.33874 0.0
H578 H 0.88878 0.52386 0.26194 0.0
H579 H 0.91172 0.5529 0.2552 0.0
H580 H 0.91258 0.53734 0.28866 0.0
H581 H 0.84354 0.58524 0.29417 0.0
H582 H 0.85948 0.58881 0.25908 0.0
H583 H 0.83368 0.5619 0.2668 0.0
H584 H 0.89638 0.58276 0.17362 0.0
H585 H 0.83988 0.51378 0.18871 0.0
H586 H 0.91928 0.59311 0.24563 0.0
H587 H 0.89971 0.60384 0.25002 0.0
H588 H 0.91557 0.60881 0.2145 0.0
H589 H 0.84665 0.50816 0.26429 0.0
H590 H 0.82335 0.50034 0.23734 0.0
H591 H 0.82934 0.52166 0.26679 0.0
C592 C 0.34254 0.88584 0.68714 0.0
C593 C 0.32275 0.8729 0.66904 0.0
C594 C 0.34092 0.88671 0.71917 0.0
C595 C 0.31905 0.87349 0.73358 0.0
C596 C 0.29883 0.86113 0.71532 0.0
C597 C 0.30089 0.8613 0.68309 0.0
C598 C 0.36284 0.90072 0.73766 0.0
C599 C 0.27529 0.84635 0.72982 0.0
C600 C 0.32479 0.85211 0.81183 0.0
C601 C 0.32158 0.86676 0.83165 0.0
C602 C 0.32265 0.8533 0.77995 0.0
C603 C 0.31807 0.8702 0.76751 0.0
C604 C 0.31454 0.88492 0.78751 0.0
C605 C 0.31594 0.88274 0.81953 0.0
C606 C 0.3259 0.83682 0.75955 0.0
C607 C 0.31039 0.90363 0.77508 0.0
H608 H 0.35945 0.89495 0.67635 0.0
H609 H 0.2856 0.85116 0.66907 0.0
H610 H 0.36015 0.91092 0.75567 0.0
H611 H 0.36751 0.88889 0.74943 0.0
H612 H 0.37769 0.91278 0.72297 0.0
H613 H 0.26104 0.84032 0.71268 0.0
H614 H 0.27456 0.83094 0.74062 0.0
H615 H 0.27226 0.85602 0.74824 0.0
H616 H 0.32889 0.83957 0.82134 0.0
H617 H 0.31358 0.89413 0.83499 0.0
H618 H 0.34221 0.84656 0.7462 0.0
H619 H 0.31142 0.82841 0.74281 0.0
H620 H 0.3268 0.82312 0.77295 0.0
H621 H 0.32621 0.91686 0.763 0.0
H622 H 0.30608 0.91234 0.79358 0.0
H623 H 0.29609 0.89634 0.75802 0.0
C624 C 0.4711 0.31487 0.30945 0.0
C625 C 0.45401 0.31388 0.32908 0.0
C626 C 0.46762 0.31248 0.27762 0.0
C627 C 0.44685 0.3099 0.26501 0.0
C628 C 0.42915 0.30809 0.2849 0.0
C629 C 0.43283 0.30979 0.31692 0.0
C630 C 0.48675 0.31394 0.25738 0.0
C631 C 0.40704 0.30592 0.27235 0.0
C632 C 0.45934 0.33687 0.18601 0.0
C633 C 0.45158 0.31747 0.16692 0.0
C634 C 0.45597 0.33443 0.21788 0.0
C635 C 0.44531 0.31205 0.23114 0.0
C636 C 0.43638 0.2923 0.21183 0.0
C637 C 0.43934 0.29525 0.17977 0.0
C638 C 0.46519 0.35597 0.23748 0.0
C639 C 0.42528 0.26818 0.2251 0.0
H640 H 0.48742 0.31791 0.31906 0.0
H641 H 0.41975 0.30926 0.33226 0.0
H642 H 0.47956 0.29974 0.24018 0.0
H643 H 0.49502 0.33057 0.24459 0.0
H644 H 0.50037 0.31294 0.27089 0.0
H645 H 0.39375 0.30136 0.29058 0.0
H646 H 0.41091 0.32267 0.26196 0.0
H647 H 0.39968 0.29263 0.25396 0.0
H648 H 0.46861 0.35407 0.17615 0.0
H649 H 0.4334 0.28024 0.16499 0.0
H650 H 0.481 0.35884 0.24982 0.0
H651 H 0.45221 0.35391 0.25505 0.0
H652 H 0.46976 0.37163 0.22352 0.0
H653 H 0.4389 0.26548 0.23567 0.0
H654 H 0.41615 0.25468 0.20725 0.0
H655 H 0.41275 0.26587 0.24349 0.0
C656 C 0.12319 0.43645 0.68168 0.0
C657 C 0.14504 0.45161 0.66923 0.0
C658 C 0.11998 0.43416 0.71373 0.0
C659 C 0.13919 0.44716 0.73346 0.0
C660 C 0.16156 0.46131 0.72069 0.0
C661 C 0.16413 0.46362 0.68867 0.0
C662 C 0.09584 0.41914 0.72639 0.0
C663 C 0.18256 0.47519 0.74083 0.0
C664 C 0.13238 0.46913 0.81088 0.0
C665 C 0.13535 0.4546 0.83129 0.0
C666 C 0.13238 0.46607 0.77897 0.0
C667 C 0.13575 0.44822 0.76714 0.0
C668 C 0.13787 0.4329 0.78765 0.0
C669 C 0.13751 0.4362 0.81956 0.0
C670 C 0.12973 0.4826 0.75791 0.0
C671 C 0.14164 0.41377 0.77593 0.0
H672 H 0.10841 0.42747 0.66643 0.0
H673 H 0.18095 0.47552 0.67881 0.0
H674 H 0.0959 0.40788 0.7451 0.0
H675 H 0.08959 0.43031 0.73643 0.0
H676 H 0.08337 0.40809 0.70834 0.0
H677 H 0.19899 0.48314 0.72746 0.0
H678 H 0.18113 0.48923 0.7524 0.0
H679 H 0.18349 0.46405 0.75905 0.0
H680 H 0.13049 0.48325 0.81982 0.0
H681 H 0.1398 0.4249 0.83527 0.0
H682 H 0.11611 0.47283 0.74043 0.0
H683 H 0.14623 0.49353 0.74542 0.0
H684 H 0.12512 0.49414 0.77067 0.0
H685 H 0.12864 0.40349 0.75803 0.0
H686 H 0.14058 0.40194 0.79463 0.0
H687 H 0.15903 0.42144 0.76508 0.0
C688 C 0.69809 0.12772 0.31836 0.0
C689 C 0.69394 0.14492 0.32975 0.0
C690 C 0.69877 0.12454 0.28644 0.0
C691 C 0.69591 0.13937 0.26581 0.0
C692 C 0.6931 0.1576 0.27751 0.0
C693 C 0.6917 0.15985 0.30933 0.0
C694 C 0.70115 0.10452 0.27487 0.0
C695 C 0.69059 0.17419 0.25641 0.0
C696 C 0.71026 0.14437 0.18059 0.0
C697 C 0.68797 0.13339 0.16776 0.0
C698 C 0.71332 0.14553 0.21268 0.0
C699 C 0.6936 0.13482 0.23212 0.0
C700 C 0.67116 0.12218 0.21902 0.0
C701 C 0.6686 0.12201 0.18701 0.0
C702 C 0.73748 0.15962 0.22573 0.0
C703 C 0.64971 0.1099 0.23884 0.0
H704 H 0.69953 0.11602 0.33431 0.0
H705 H 0.68859 0.1732 0.31831 0.0
H706 H 0.68442 0.09125 0.26466 0.0
H707 H 0.71446 0.11031 0.25651 0.0
H708 H 0.70585 0.09629 0.29356 0.0
H709 H 0.69124 0.18894 0.26915 0.0
H710 H 0.70454 0.18118 0.23882 0.0
H711 H 0.67375 0.1649 0.24409 0.0
H712 H 0.72524 0.15327 0.16564 0.0
H713 H 0.65135 0.11333 0.1771 0.0
H714 H 0.74033 0.15004 0.24445 0.0
H715 H 0.7396 0.17585 0.23582 0.0
H716 H 0.75105 0.16428 0.20788 0.0
H717 H 0.65215 0.09973 0.25713 0.0
H718 H 0.63406 0.09807 0.2252 0.0
H719 H 0.64649 0.12287 0.25031 0.0
C720 C 0.18204 0.45156 0.98609 0.0
C721 C 0.1866 0.46611 0.96059 0.0
C722 C 0.20013 0.45031 0.00119 0.0
C723 C 0.2233 0.46394 0.99057 0.0
C724 C 0.22792 0.47858 0.96481 0.0
C725 C 0.20959 0.47948 0.95021 0.0
C726 C 0.19447 0.4345 0.0286 0.0
C727 C 0.25231 0.49351 0.95274 0.0
C728 C 0.27387 0.48025 0.04527 0.0
C729 C 0.28185 0.46531 0.03609 0.0
C730 C 0.25468 0.47971 0.031 0.0
C731 C 0.24296 0.46372 0.00696 0.0
C732 C 0.2508 0.44843 0.99769 0.0
C733 C 0.2702 0.44946 0.01228 0.0
C734 C 0.24713 0.49649 0.04145 0.0
C735 C 0.23877 0.43109 0.97221 0.0
H736 H 0.16435 0.4411 0.9942 0.0
H737 H 0.21336 0.49076 0.93049 0.0
H738 H 0.20069 0.42211 0.02457 0.0
H739 H 0.20362 0.44481 0.04927 0.0
H740 H 0.17556 0.42455 0.03351 0.0
H741 H 0.25294 0.5036 0.93208 0.0
H742 H 0.26345 0.50579 0.97085 0.0
H743 H 0.2599 0.48255 0.94674 0.0
H744 H 0.28271 0.49257 0.06365 0.0
H745 H 0.27614 0.43775 0.00516 0.0
H746 H 0.22863 0.48691 0.04849 0.0
H747 H 0.24866 0.50803 0.02213 0.0
H748 H 0.25766 0.50739 0.06104 0.0
H749 H 0.22005 0.42001 0.97761 0.0
H750 H 0.24637 0.41981 0.9685 0.0
H751 H 0.24001 0.4403 0.95042 0.0
C752 C 0.73727 0.18737 0.48541 0.0
C753 C 0.72635 0.19241 0.46152 0.0
C754 C 0.75651 0.20521 0.50105 0.0
C755 C 0.76495 0.22867 0.49273 0.0
C756 C 0.75378 0.2338 0.46888 0.0
C757 C 0.73473 0.21568 0.45359 0.0
C758 C 0.76791 0.19898 0.52634 0.0
C759 C 0.76199 0.2585 0.45942 0.0
C760 C 0.79994 0.27669 0.55052 0.0
C761 C 0.82278 0.28573 0.53985 0.0
C762 C 0.7811 0.25802 0.53566 0.0
C763 C 0.78505 0.24795 0.5094 0.0
C764 C 0.80808 0.25692 0.4985 0.0
C765 C 0.82666 0.27572 0.51382 0.0
C766 C 0.75689 0.24919 0.54797 0.0
C767 C 0.81306 0.24669 0.47059 0.0
H768 H 0.73102 0.16946 0.49158 0.0
H769 H 0.72644 0.21981 0.43519 0.0
H770 H 0.78648 0.20581 0.52078 0.0
H771 H 0.76727 0.20716 0.54825 0.0
H772 H 0.75945 0.17997 0.52989 0.0
H773 H 0.75148 0.2596 0.44036 0.0
H774 H 0.76111 0.26843 0.47933 0.0
H775 H 0.78039 0.26705 0.45197 0.0
H776 H 0.7967 0.28424 0.57064 0.0
H777 H 0.84423 0.28249 0.50548 0.0
H778 H 0.74866 0.23048 0.5535 0.0
H779 H 0.746 0.25106 0.53018 0.0
H780 H 0.75676 0.2586 0.56898 0.0
H781 H 0.80621 0.22789 0.47414 0.0
H782 H 0.83191 0.25517 0.4655 0.0
H783 H 0.80407 0.2485 0.45021 0.0
C784 C 0.56013 0.82124 0.01872 0.0
C785 C 0.54108 0.81603 0.03765 0.0
C786 C 0.56185 0.80352 0.00345 0.0
C787 C 0.54389 0.78013 0.00673 0.0
C788 C 0.52447 0.7749 0.02543 0.0
C789 C 0.52341 0.79284 0.04081 0.0
C790 C 0.58294 0.80979 0.98398 0.0
C791 C 0.5047 0.75033 0.02913 0.0
C792 C 0.53437 0.73552 0.94541 0.0
C793 C 0.54367 0.72297 0.95929 0.0
C794 C 0.53491 0.75447 0.96024 0.0
C795 C 0.54485 0.76107 0.98991 0.0
C796 C 0.55449 0.74863 0.004 0.0
C797 C 0.55388 0.72978 0.98847 0.0
C798 C 0.52449 0.76722 0.94429 0.0
C799 C 0.56512 0.75502 0.03568 0.0
H800 H 0.57393 0.83909 0.01641 0.0
H801 H 0.50857 0.78868 0.0553 0.0
H802 H 0.59173 0.80047 0.9924 0.0
H803 H 0.57763 0.80427 0.95985 0.0
H804 H 0.5956 0.82869 0.98423 0.0
H805 H 0.49086 0.74915 0.04456 0.0
H806 H 0.4969 0.74308 0.00636 0.0
H807 H 0.51127 0.73928 0.03864 0.0
H808 H 0.52661 0.73055 0.92276 0.0
H809 H 0.56115 0.72024 0.99932 0.0
H810 H 0.53747 0.78596 0.94275 0.0
H811 H 0.50963 0.76554 0.95789 0.0
H812 H 0.51829 0.76054 0.92072 0.0
H813 H 0.57884 0.77355 0.03626 0.0
H814 H 0.57278 0.74434 0.04292 0.0
H815 H 0.5517 0.75267 0.05269 0.0
C816 C 0.73186 0.55419 0.51821 0.0
C817 C 0.72091 0.53876 0.54268 0.0
C818 C 0.75132 0.55553 0.50333 0.0
C819 C 0.76003 0.54106 0.51306 0.0
C820 C 0.74896 0.52541 0.53767 0.0
C821 C 0.72964 0.52448 0.55212 0.0
C822 C 0.76256 0.57243 0.47719 0.0
C823 C 0.75749 0.50955 0.54871 0.0
C824 C 0.79529 0.52682 0.45734 0.0
C825 C 0.81815 0.54128 0.46764 0.0
C826 C 0.77637 0.5268 0.47165 0.0
C827 C 0.78023 0.54164 0.49698 0.0
C828 C 0.80327 0.55637 0.50748 0.0
C829 C 0.82194 0.55599 0.49273 0.0
C830 C 0.75217 0.51071 0.45976 0.0
C831 C 0.80817 0.57246 0.53439 0.0
H832 H 0.72535 0.56537 0.51082 0.0
H833 H 0.72138 0.5125 0.57102 0.0
H834 H 0.78114 0.58446 0.48243 0.0
H835 H 0.76186 0.56296 0.45588 0.0
H836 H 0.75401 0.58276 0.4727 0.0
H837 H 0.74719 0.49859 0.56839 0.0
H838 H 0.75662 0.49806 0.52968 0.0
H839 H 0.77593 0.5199 0.55587 0.0
H840 H 0.79211 0.51539 0.43796 0.0
H841 H 0.8395 0.56728 0.50079 0.0
H842 H 0.74372 0.52079 0.45323 0.0
H843 H 0.74145 0.49845 0.47813 0.0
H844 H 0.7521 0.50057 0.43946 0.0
H845 H 0.8011 0.58407 0.52977 0.0
H846 H 0.82703 0.58324 0.53928 0.0
H847 H 0.79934 0.56226 0.55527 0.0
C848 C 0.27223 0.8221 0.98659 0.0
C849 C 0.28156 0.81733 0.96056 0.0
C850 C 0.25287 0.80425 0.00202 0.0
C851 C 0.24263 0.78112 0.99117 0.0
C852 C 0.25184 0.77633 0.96468 0.0
C853 C 0.27111 0.79443 0.94978 0.0
C854 C 0.24358 0.81006 0.03019 0.0
C855 C 0.24162 0.75197 0.95238 0.0
C856 C 0.21063 0.7312 0.04721 0.0
C857 C 0.18725 0.72318 0.04004 0.0
C858 C 0.22868 0.75016 0.03179 0.0
C859 C 0.22336 0.7616 0.00855 0.0
C860 C 0.1998 0.75365 1.00113 0.0
C861 C 0.182 0.73447 0.01691 0.0
C862 C 0.2535 0.75781 0.04024 0.0
C863 C 0.19343 0.7654 0.97652 0.0
H864 H 0.2801 0.83974 0.99498 0.0
H865 H 0.27807 0.79051 0.92961 0.0
H866 H 0.22474 0.80358 0.02747 0.0
H867 H 0.24566 0.80129 0.05061 0.0
H868 H 0.2526 0.82899 0.03472 0.0
H869 H 0.25012 0.75129 0.93073 0.0
H870 H 0.24353 0.74086 0.96974 0.0
H871 H 0.22279 0.74442 0.94798 0.0
H872 H 0.21493 0.72262 0.06503 0.0
H873 H 0.16401 0.72849 0.01136 0.0
H874 H 0.26272 0.77629 0.04723 0.0
H875 H 0.26274 0.75628 0.01995 0.0
H876 H 0.25471 0.74739 0.05931 0.0
H877 H 0.20114 0.78408 0.98195 0.0
H878 H 0.17435 0.75761 0.97407 0.0
H879 H 0.20068 0.7642 0.95408 0.0
C880 C 0.45688 0.18602 0.51537 0.0
C881 C 0.4723 0.19083 0.53993 0.0
C882 C 0.45569 0.20398 0.49994 0.0
C883 C 0.47033 0.22733 0.50919 0.0
C884 C 0.48593 0.23222 0.53394 0.0
C885 C 0.4867 0.21399 0.54896 0.0
C886 C 0.43882 0.19801 0.47367 0.0
C887 C 0.50199 0.2568 0.54445 0.0
C888 C 0.48554 0.27577 0.45144 0.0
C889 C 0.47118 0.28448 0.46062 0.0
C890 C 0.48525 0.25714 0.46685 0.0
C891 C 0.4702 0.24678 0.49221 0.0
C892 C 0.4557 0.25552 0.50177 0.0
C893 C 0.45637 0.27429 0.48589 0.0
C894 C 0.50113 0.24856 0.45595 0.0
C895 C 0.43944 0.245 0.52873 0.0
H896 H 0.4456 0.1682 0.50834 0.0
H897 H 0.49868 0.21795 0.56792 0.0
H898 H 0.42706 0.20492 0.47828 0.0
H899 H 0.44841 0.20628 0.45219 0.0
H900 H 0.42815 0.17903 0.46983 0.0
H901 H 0.51273 0.25767 0.56452 0.0
H902 H 0.51375 0.26705 0.52538 0.0
H903 H 0.4918 0.26515 0.5508 0.0
H904 H 0.49705 0.28347 0.43194 0.0
H905 H 0.44513 0.28079 0.49306 0.0
H906 H 0.4908 0.22994 0.44981 0.0
H907 H 0.51313 0.25017 0.47474 0.0
H908 H 0.51161 0.25831 0.43564 0.0
H909 H 0.42741 0.22628 0.52454 0.0
H910 H 0.42905 0.25352 0.53304 0.0
H911 H 0.44948 0.24644 0.54979 0.0
C912 C 0.82472 0.54925 0.02103 0.0
C913 C 0.81955 0.53444 0.04638 0.0
C914 C 0.807 0.55049 0.00492 0.0
C915 C 0.78354 0.53655 0.01431 0.0
C916 C 0.77829 0.52156 0.03984 0.0
C917 C 0.79628 0.52072 0.0555 0.0
C918 C 0.81335 0.5667 0.97784 0.0
C919 C 0.75358 0.50628 0.05057 0.0
C920 C 0.73746 0.55149 0.98985 0.0
C921 C 0.7267 0.53618 0.96523 0.0
C922 C 0.75621 0.55209 0.00575 0.0
C923 C 0.76433 0.53694 0.99694 0.0
C924 C 0.75345 0.52142 0.97216 0.0
C925 C 0.73487 0.52126 0.95664 0.0
C926 C 0.76732 0.56891 0.03201 0.0
C927 C 0.76134 0.50482 0.96212 0.0
H928 H 0.84263 0.55999 0.01389 0.0
H929 H 0.79204 0.50922 0.07507 0.0
H930 H 0.80476 0.5567 0.95673 0.0
H931 H 0.807 0.57901 0.98165 0.0
H932 H 0.83238 0.57674 0.97381 0.0
H933 H 0.75241 0.49582 0.07108 0.0
H934 H 0.7457 0.51702 0.05631 0.0
H935 H 0.74304 0.49432 0.03182 0.0
H936 H 0.73138 0.56317 0.99655 0.0
H937 H 0.72673 0.50937 0.93764 0.0
H938 H 0.78616 0.58027 0.02759 0.0
H939 H 0.76556 0.5593 0.0536 0.0
H940 H 0.75942 0.57996 0.03554 0.0
H941 H 0.78001 0.51455 0.95591 0.0
H942 H 0.75135 0.49413 0.94208 0.0
H943 H 0.75938 0.49307 0.98139 0.0
C944 C 0.21476 0.72954 0.45543 0.0
C945 C 0.19172 0.72101 0.46491 0.0
C946 C 0.23337 0.74859 0.47013 0.0
C947 C 0.22897 0.75954 0.49501 0.0
C948 C 0.20577 0.75089 0.50491 0.0
C949 C 0.18744 0.73175 0.48978 0.0
C950 C 0.25778 0.7571 0.45887 0.0
C951 C 0.20028 0.762 0.53136 0.0
C952 C 0.27858 0.79553 0.55065 0.0
C953 C 0.28639 0.81826 0.54053 0.0
C954 C 0.25995 0.77636 0.53614 0.0
C955 C 0.2487 0.77987 0.51081 0.0
C956 C 0.25657 0.80277 0.50035 0.0
C957 C 0.2753 0.82166 0.51529 0.0
C958 C 0.25227 0.75231 0.54801 0.0
C959 C 0.24512 0.80731 0.47342 0.0
H960 H 0.2183 0.72143 0.43623 0.0
H961 H 0.16973 0.72537 0.49723 0.0
H962 H 0.2658 0.77542 0.45139 0.0
H963 H 0.26859 0.75649 0.47786 0.0
H964 H 0.25833 0.74665 0.43934 0.0
H965 H 0.18139 0.75322 0.53635 0.0
H966 H 0.20948 0.76155 0.55238 0.0
H967 H 0.20654 0.78047 0.52607 0.0
H968 H 0.28696 0.79266 0.57014 0.0
H969 H 0.28113 0.83912 0.50735 0.0
H970 H 0.25366 0.74166 0.52948 0.0
H971 H 0.23377 0.74369 0.55504 0.0
H972 H 0.26276 0.75249 0.56798 0.0
H973 H 0.2463 0.79828 0.45267 0.0
H974 H 0.25316 0.82607 0.46816 0.0
H975 H 0.22641 0.80026 0.4783 0.0
C976 C 0.48566 0.21014 0.95333 0.0
C977 C 0.47057 0.18717 0.96257 0.0
C978 C 0.48563 0.22888 0.968 0.0
C979 C 0.47008 0.2247 0.99259 0.0
C980 C 0.45485 0.20157 0.00217 0.0
C981 C 0.45529 0.18309 0.9871 0.0
C982 C 0.50228 0.2532 0.95712 0.0
C983 C 0.438 0.19635 0.02829 0.0
C984 C 0.48529 0.27427 0.04861 0.0
C985 C 0.4712 0.283 0.03832 0.0
C986 C 0.48498 0.2553 0.03409 0.0
C987 C 0.47017 0.24463 0.00858 0.0
C988 C 0.45596 0.25341 0.99794 0.0
C989 C 0.45666 0.27249 0.01289 0.0
C990 C 0.50053 0.24666 0.04611 0.0
C991 C 0.43995 0.24258 0.9708 0.0
H992 H 0.49754 0.21353 0.93441 0.0
H993 H 0.4435 0.16544 0.99432 0.0
H994 H 0.4925 0.26178 0.94974 0.0
H995 H 0.51381 0.2636 0.97629 0.0
H996 H 0.51322 0.25354 0.93763 0.0
H997 H 0.42718 0.17748 0.03285 0.0
H998 H 0.44761 0.20506 0.04959 0.0
H999 H 0.42638 0.20331 0.02293 0.0
H1000 H 0.49657 0.2822 0.06826 0.0
H1001 H 0.44563 0.27902 0.00485 0.0
H1002 H 0.5126 0.24774 0.02774 0.0
H1003 H 0.48996 0.22818 0.05282 0.0
H1004 H 0.51092 0.25672 0.06631 0.0
H1005 H 0.45015 0.24354 0.95013 0.0
H1006 H 0.42981 0.25123 0.96556 0.0
H1007 H 0.42769 0.22398 0.97542 0.0
C1008 C 0.21822 0.48569 0.54692 0.0
C1009 C 0.19502 0.47094 0.53823 0.0
C1010 C 0.2366 0.48545 0.53138 0.0
C1011 C 0.2318 0.47001 0.50648 0.0
C1012 C 0.20841 0.4551 0.49749 0.0
C1013 C 0.19031 0.45578 0.5134 0.0
C1014 C 0.26122 0.50181 0.54161 0.0
C1015 C 0.20251 0.43837 0.4711 0.0
C1016 C 0.2802 0.48565 0.44821 0.0
C1017 C 0.28927 0.47159 0.45733 0.0
C1018 C 0.26148 0.48514 0.46381 0.0
C1019 C 0.25136 0.47015 0.48927 0.0
C1020 C 0.26042 0.45589 0.49869 0.0
C1021 C 0.27928 0.45681 0.48265 0.0
C1022 C 0.25257 0.50077 0.45305 0.0
C1023 C 0.25016 0.43966 0.5257 0.0
H1024 H 0.2221 0.49747 0.56607 0.0
H1025 H 0.17246 0.44423 0.50663 0.0
H1026 H 0.26984 0.49188 0.54799 0.0
H1027 H 0.27129 0.5135 0.52239 0.0
H1028 H 0.26205 0.51257 0.56159 0.0
H1029 H 0.1835 0.42763 0.46729 0.0
H1030 H 0.21073 0.44803 0.44965 0.0
H1031 H 0.20956 0.42673 0.47559 0.0
H1032 H 0.28773 0.49715 0.42868 0.0
H1033 H 0.28607 0.44581 0.4898 0.0
H1034 H 0.25415 0.51271 0.47185 0.0
H1035 H 0.23389 0.49028 0.44709 0.0
H1036 H 0.26215 0.51125 0.43266 0.0
H1037 H 0.25167 0.44967 0.54681 0.0
H1038 H 0.25885 0.42942 0.52983 0.0
H1039 H 0.2314 0.42754 0.52172 0.0
C1040 C 0.79358 0.27247 0.95084 0.0
C1041 C 0.81675 0.28165 0.96015 0.0
C1042 C 0.77538 0.25322 0.96571 0.0
C1043 C 0.78034 0.24274 0.99061 0.0
C1044 C 0.80369 0.25193 1.00023 0.0
C1045 C 0.82161 0.27129 0.98491 0.0
C1046 C 0.75078 0.24414 0.95477 0.0
C1047 C 0.80973 0.24131 0.02672 0.0
C1048 C 0.73137 0.20785 0.04726 0.0
C1049 C 0.72333 0.18494 0.03775 0.0
C1050 C 0.74996 0.2267 0.03232 0.0
C1051 C 0.76095 0.22268 0.00715 0.0
C1052 C 0.75293 0.1996 0.99734 0.0
C1053 C 0.7342 0.18101 0.01273 0.0
C1054 C 0.7578 0.25096 0.04347 0.0
C1055 C 0.76414 0.19457 0.97058 0.0
H1056 H 0.78959 0.28029 0.9317 0.0
H1057 H 0.83945 0.27817 0.99218 0.0
H1058 H 0.74287 0.22565 0.94813 0.0
H1059 H 0.74013 0.24509 0.9737 0.0
H1060 H 0.74985 0.254 0.93478 0.0
H1061 H 0.82871 0.2502 0.03106 0.0
H1062 H 0.80095 0.24214 0.04796 0.0
H1063 H 0.80338 0.22275 0.02196 0.0
H1064 H 0.72314 0.21113 0.06657 0.0
H1065 H 0.72819 0.1634 0.0053 0.0
H1066 H 0.75603 0.26123 0.0247 0.0
H1067 H 0.77642 0.25977 0.04994 0.0
H1068 H 0.74765 0.25115 0.06362 0.0
H1069 H 0.7626 0.20307 0.9495 0.0
H1070 H 0.75616 0.17571 0.96609 0.0
H1071 H 0.78293 0.20188 0.97513 0.0
C1072 C 0.55261 0.82557 0.48611 0.0
C1073 C 0.5386 0.82144 0.46009 0.0
C1074 C 0.55317 0.80725 0.50148 0.0
C1075 C 0.53935 0.7842 0.49066 0.0
C1076 C 0.52511 0.77996 0.46449 0.0
C1077 C 0.52493 0.79856 0.44957 0.0
C1078 C 0.56858 0.81255 0.52931 0.0
C1079 C 0.50998 0.75571 0.45223 0.0
C1080 C 0.55398 0.73773 0.5142 0.0
C1081 C 0.53818 0.72645 0.53822 0.0
C1082 C 0.55468 0.75663 0.49865 0.0
C1083 C 0.53917 0.76439 0.50718 0.0
C1084 C 0.52307 0.75289 0.53122 0.0
C1085 C 0.52281 0.73417 0.54641 0.0
C1086 C 0.57212 0.76838 0.47316 0.0
C1087 C 0.50609 0.76039 0.54097 0.0
H1088 H 0.56331 0.84316 0.49435 0.0
H1089 H 0.51405 0.79512 0.42947 0.0
H1090 H 0.55793 0.80327 0.54968 0.0
H1091 H 0.58097 0.80629 0.52553 0.0
H1092 H 0.57857 0.83138 0.53454 0.0
H1093 H 0.50009 0.75532 0.43145 0.0
H1094 H 0.5208 0.74794 0.44636 0.0
H1095 H 0.49748 0.74462 0.47018 0.0
H1096 H 0.56599 0.73199 0.50779 0.0
H1097 H 0.51052 0.72562 0.56492 0.0
H1098 H 0.58356 0.787 0.47867 0.0
H1099 H 0.56301 0.76743 0.45138 0.0
H1100 H 0.5831 0.76043 0.46941 0.0
H1101 H 0.51561 0.77877 0.54842 0.0
H1102 H 0.4947 0.74969 0.56012 0.0
H1103 H 0.495 0.75917 0.5212 0.0
C1104 C 0.36036 0.41109 0.07652 0.0
C1105 C 0.37593 0.43462 0.08215 0.0
C1106 C 0.36832 0.39512 0.07433 0.0
C1107 C 0.39235 0.40299 0.07753 0.0
C1108 C 0.40817 0.42701 0.0809 0.0
C1109 C 0.39977 0.44242 0.08334 0.0
C1110 C 0.35088 0.36971 0.07059 0.0
C1111 C 0.43396 0.43637 0.08399 0.0
C1112 C 0.41701 0.36968 0.11705 0.0
C1113 C 0.42794 0.36514 0.09266 0.0
C1114 C 0.40355 0.3801 0.112 0.0
C1115 C 0.40105 0.38642 0.08175 0.0
C1116 C 0.41039 0.3801 0.05671 0.0
C1117 C 0.42371 0.36943 0.06246 0.0
C1118 C 0.39372 0.38615 0.13944 0.0
C1119 C 0.40795 0.38628 0.02411 0.0
H1120 H 0.34191 0.40496 0.0756 0.0
H1121 H 0.41193 0.46066 0.08721 0.0
H1122 H 0.35723 0.36152 0.05401 0.0
H1123 H 0.34836 0.36083 0.09303 0.0
H1124 H 0.33378 0.36683 0.06265 0.0
H1125 H 0.44408 0.4556 0.08329 0.0
H1126 H 0.43758 0.43057 0.10618 0.0
H1127 H 0.44022 0.42957 0.06532 0.0
H1128 H 0.41995 0.36609 0.14044 0.0
H1129 H 0.43211 0.36598 0.04351 0.0
H1130 H 0.3754 0.38127 0.13521 0.0
H1131 H 0.40373 0.40515 0.14329 0.0
H1132 H 0.39452 0.37741 0.16077 0.0
H1133 H 0.39018 0.38312 0.01985 0.0
H1134 H 0.41185 0.37627 0.00712 0.0
H1135 H 0.42023 0.405 0.02026 0.0
C1136 C 0.05529 0.4167 0.62278 0.0
C1137 C 0.07073 0.42809 0.59846 0.0
C1138 C 0.03126 0.40355 0.61783 0.0
C1139 C 0.02226 0.4019 0.58782 0.0
C1140 C 0.03788 0.41181 0.56278 0.0
C1141 C 0.06199 0.42473 0.56838 0.0
C1142 C 0.01542 0.39303 0.64523 0.0
C1143 C 0.0291 0.41037 0.53042 0.0
C1144 C 0.95655 0.36164 0.58165 0.0
C1145 C 0.94868 0.37705 0.58852 0.0
C1146 C 0.98056 0.36955 0.57949 0.0
C1147 C 0.9969 0.3934 0.584 0.0
C1148 C 0.9888 0.40913 0.58869 0.0
C1149 C 0.96491 0.40076 0.59106 0.0
C1150 C 0.9884 0.35221 0.57432 0.0
C1151 C 0.00542 0.43473 0.5932 0.0
H1152 H 0.06197 0.41895 0.64605 0.0
H1153 H 0.07382 0.43349 0.54948 0.0
H1154 H 0.00656 0.40299 0.65019 0.0
H1155 H 1.00181 0.37491 0.64027 0.0
H1156 H 0.02505 0.39316 0.66617 0.0
H1157 H 0.04298 0.41485 0.5131 0.0
H1158 H 0.01442 0.39275 0.52546 0.0
H1159 H 0.0226 0.42267 0.52785 0.0
H1160 H 0.94409 0.34329 0.57975 0.0
H1161 H 0.95891 0.41281 0.59597 0.0
H1162 H 0.99473 0.34903 0.59636 0.0
H1163 H 1.003 0.35898 0.55771 0.0
H1164 H 0.97407 0.33541 0.56569 0.0
H1165 H 0.01479 0.43755 0.61531 0.0
H1166 H 0.99639 0.44489 0.59356 0.0
H1167 H 0.01858 0.44156 0.57458 0.0
C1168 C 0.59168 0.94563 0.08389 0.0
C1169 C 0.56885 0.93758 0.09383 0.0
C1170 C 0.60757 0.96959 0.08098 0.0
C1171 C 0.6003 0.98577 0.08769 0.0
C1172 C 0.57693 0.97757 0.09618 0.0
C1173 C 0.56163 0.9537 0.09937 0.0
C1174 C 0.63236 0.9776 0.07215 0.0
C1175 C 0.5682 0.99406 0.10311 0.0
C1176 C 0.638 0.04592 0.12036 0.0
C1177 C 0.63974 0.05997 0.09538 0.0
C1178 C 0.62714 0.02176 0.11732 0.0
C1179 C 0.61718 0.01126 0.08875 0.0
C1180 C 0.62038 0.02552 0.06285 0.0
C1181 C 0.63182 0.04979 0.06643 0.0
C1182 C 0.62463 0.0074 0.14543 0.0
C1183 C 0.60995 0.01512 0.03204 0.0
H1184 H 0.59739 0.93328 0.07963 0.0
H1185 H 0.54392 0.94763 0.10663 0.0
H1186 H 0.63828 0.99096 0.05386 0.0
H1187 H 0.64377 0.98568 0.09239 0.0
H1188 H 0.6346 0.96308 0.064 0.0
H1189 H 0.54913 0.98489 0.10681 0.0
H1190 H 0.57682 0.00417 0.12413 0.0
H1191 H 0.57257 0.00656 0.08395 0.0
H1192 H 0.6442 0.05379 0.14276 0.0
H1193 H 0.63295 0.06061 0.04714 0.0
H1194 H 0.62848 0.99348 0.13972 0.0
H1195 H 0.60646 0.99897 0.15383 0.0
H1196 H 0.6363 0.01807 0.16439 0.0
H1197 H 0.61278 1.00052 0.02647 0.0
H1198 H 0.61731 0.02814 0.01326 0.0
H1199 H 0.59093 0.00813 0.03287 0.0
C1200 C 0.60687 0.5661 0.59722 0.0
C1201 C 0.63043 0.5731 0.5938 0.0
C1202 C 0.5989 0.58182 0.59422 0.0
C1203 C 0.61488 0.60542 0.58796 0.0
C1204 C 0.63858 0.61247 0.58287 0.0
C1205 C 0.64609 0.59615 0.58567 0.0
C1206 C 0.57343 0.57329 0.59941 0.0
C1207 C 0.65618 0.63742 0.57615 0.0
C1208 C 0.58355 0.63841 0.56894 0.0
C1209 C 0.58041 0.64483 0.59849 0.0
C1210 C 0.59651 0.6272 0.56452 0.0
C1211 C 0.60674 0.6226 0.59019 0.0
C1212 C 0.60542 0.63112 0.61952 0.0
C1213 C 0.59214 0.64191 0.62333 0.0
C1214 C 0.5975 0.61852 0.53286 0.0
C1215 C 0.61631 0.62705 0.6475 0.0
H1216 H 0.5946 0.54822 0.60303 0.0
H1217 H 0.66432 0.60168 0.58305 0.0
H1218 H 0.57123 0.58095 0.62091 0.0
H1219 H 0.56635 0.57886 0.58025 0.0
H1220 H 0.56299 0.55413 0.60136 0.0
H1221 H 0.67283 0.63942 0.56772 0.0
H1222 H 0.64941 0.64471 0.5588 0.0
H1223 H 0.6597 0.64778 0.59748 0.0
H1224 H 0.57447 0.64054 0.54967 0.0
H1225 H 0.58997 0.64708 0.64618 0.0
H1226 H 0.5851 0.59961 0.53164 0.0
H1227 H 0.61506 0.6213 0.52799 0.0
H1228 H 0.59283 0.62716 0.51469 0.0
H1229 H 0.60616 0.6085 0.65414 0.0
H1230 H 0.61675 0.63766 0.66746 0.0
H1231 H 0.63427 0.6311 0.6424 0.0
C1232 C 0.95848 0.55799 0.10289 0.0
C1233 C 0.94273 0.56606 0.1014 0.0
C1234 C 0.98243 0.57308 0.09968 0.0
C1235 C 0.99108 0.59709 0.09552 0.0
C1236 C 0.97519 0.60526 0.09259 0.0
C1237 C 0.95112 0.58958 0.09528 0.0
C1238 C 0.99854 0.5634 0.10234 0.0
C1239 C 0.98365 0.63071 0.08843 0.0
C1240 C 0.05125 0.63127 0.13014 0.0
C1241 C 0.06555 0.63579 0.10436 0.0
C1242 C 0.02704 0.62045 0.1272 0.0
C1243 C 0.01669 0.61345 0.09777 0.0
C1244 C 0.03113 0.61929 0.07141 0.0
C1245 C 0.05545 0.63059 0.075 0.0
C1246 C 0.01247 0.61507 0.15593 0.0
C1247 C 0.02089 0.61207 0.03964 0.0
H1248 H 0.95204 0.53976 0.10729 0.0
H1249 H 0.939 0.5959 0.09426 0.0
H1250 H 0.01116 0.56966 0.08307 0.0
H1251 H 0.00859 0.56951 0.12405 0.0
H1252 H 0.98902 0.54416 0.1023 0.0
H1253 H 0.96935 0.63388 0.08203 0.0
H1254 H 0.99149 0.63997 0.11026 0.0
H1255 H 0.99732 0.63827 0.0705 0.0
H1256 H 0.05899 0.63551 0.15288 0.0
H1257 H 0.06642 0.63396 0.05501 0.0
H1258 H 1.00361 0.59618 0.16061 0.0
H1259 H 0.99884 0.61979 0.15278 0.0
H1260 H 0.02307 0.62438 0.17637 0.0
H1261 H 0.01365 0.59314 0.03692 0.0
H1262 H 0.03408 0.62112 0.02138 0.0
H1263 H 0.00644 0.61558 0.03626 0.0
C1264 C 0.41558 0.05961 0.58234 0.0
C1265 C 0.43792 0.06682 0.59363 0.0
C1266 C 0.39927 0.03581 0.5784 0.0
C1267 C 0.40563 0.01899 0.58553 0.0
C1268 C 0.42862 0.02642 0.59521 0.0
C1269 C 0.44431 0.05009 0.59931 0.0
C1270 C 0.37497 0.02867 0.56812 0.0
C1271 C 0.43643 0.00928 0.60266 0.0
C1272 C 0.36662 0.95917 0.61797 0.0
C1273 C 0.36584 0.94498 0.59368 0.0
C1274 C 0.37741 0.98329 0.61453 0.0
C1275 C 0.38814 0.99363 0.58622 0.0
C1276 C 0.38554 0.97919 0.56076 0.0
C1277 C 0.37428 0.95495 0.56475 0.0
C1278 C 0.37932 0.9978 0.64221 0.0
C1279 C 0.39657 0.9894 0.53013 0.0
H1280 H 0.41052 0.07243 0.5779 0.0
H1281 H 0.46167 0.05554 0.60755 0.0
H1282 H 0.36893 0.01491 0.55035 0.0
H1283 H 0.36298 0.02142 0.588 0.0
H1284 H 0.37378 0.04351 0.55875 0.0
H1285 H 0.45535 0.01791 0.6074 0.0
H1286 H 0.42699 0.99901 0.62322 0.0
H1287 H 0.43233 0.99698 0.58332 0.0
H1288 H 0.36001 0.95147 0.64035 0.0
H1289 H 0.37389 0.94407 0.54598 0.0
H1290 H 0.37592 0.01189 0.6357 0.0
H1291 H 0.39722 0.00599 0.65157 0.0
H1292 H 0.36703 0.98728 0.66073 0.0
H1293 H 0.3944 0.00436 0.52421 0.0
H1294 H 0.38911 0.97637 0.51137 0.0
H1295 H 0.41546 0.99579 0.53147 0.0
C1296 C 0.56658 0.60573 0.90671 0.0
C1297 C 0.5741 0.62933 0.91065 0.0
C1298 C 0.58187 0.59721 0.90981 0.0
C1299 C 0.60553 0.61267 0.9167 0.0
C1300 C 0.61305 0.63635 0.92237 0.0
C1301 C 0.59718 0.6444 0.91945 0.0
C1302 C 0.57287 0.57177 0.90402 0.0
C1303 C 0.63808 0.65339 0.92977 0.0
C1304 C 0.63777 0.58052 0.93527 0.0
C1305 C 0.64455 0.57783 0.90573 0.0
C1306 C 0.62657 0.59345 0.93986 0.0
C1307 C 0.62237 0.60412 0.91437 0.0
C1308 C 0.63119 0.60317 0.88508 0.0
C1309 C 0.64194 0.5899 0.8811 0.0
C1310 C 0.61752 0.59401 0.97145 0.0
C1311 C 0.62754 0.61455 0.85731 0.0
H1312 H 0.54868 0.5939 0.90036 0.0
H1313 H 0.60311 0.66266 0.92249 0.0
H1314 H 0.58056 0.56967 0.88249 0.0
H1315 H 0.57806 0.56423 0.92301 0.0
H1316 H 0.55367 0.56172 0.90179 0.0
H1317 H 0.6404 0.67009 0.93843 0.0
H1318 H 0.64484 0.64614 0.94719 0.0
H1319 H 0.64872 0.6569 0.90869 0.0
H1320 H 0.63965 0.57114 0.95436 0.0
H1321 H 0.64738 0.58805 0.85826 0.0
H1322 H 0.59852 0.58179 0.97215 0.0
H1323 H 0.62045 0.61153 0.97679 0.0
H1324 H 0.62582 0.5889 0.98959 0.0
H1325 H 0.609 0.60476 0.85043 0.0
H1326 H 0.63822 0.61506 0.83739 0.0
H1327 H 0.63185 0.63251 0.8628 0.0
C1328 C 0.95938 0.56559 0.42582 0.0
C1329 C 0.94409 0.5741 0.42258 0.0
C1330 C 0.98344 0.58056 0.42759 0.0
C1331 C 0.99262 0.6048 0.42558 0.0
C1332 C 0.97717 0.6136 0.4245 0.0
C1333 C 0.95298 0.5981 0.42315 0.0
C1334 C 0.99907 0.57027 0.42919 0.0
C1335 C 0.98617 0.63928 0.42248 0.0
C1336 C 0.05819 0.63884 0.43818 0.0
C1337 C 0.06619 0.63963 0.40809 0.0
C1338 C 0.03425 0.62914 0.44427 0.0
C1339 C 0.01806 0.6201 0.4197 0.0
C1340 C 0.02634 0.62266 0.38913 0.0
C1341 C 0.05018 0.63235 0.38376 0.0
C1342 C 0.02623 0.62711 0.47714 0.0
C1343 C 0.00988 0.6135 0.3621 0.0
H1344 H 0.95252 0.54701 0.42568 0.0
H1345 H 0.94121 0.60474 0.42052 0.0
H1346 H 0.00815 0.57291 0.40687 0.0
H1347 H 0.01251 0.57905 0.44718 0.0
H1348 H 0.98926 0.5514 0.43422 0.0
H1349 H 0.97246 0.64355 0.4279 0.0
H1350 H 1.00101 0.64897 0.43839 0.0
H1351 H 0.99251 0.64536 0.3988 0.0
H1352 H 0.07041 0.64448 0.45712 0.0
H1353 H 0.05622 0.63327 0.36035 0.0
H1354 H 0.01938 0.60905 0.48519 0.0
H1355 H 0.01198 0.63107 0.47902 0.0
H1356 H 0.04063 0.63887 0.49265 0.0
H1357 H 1.00011 0.59428 0.36274 0.0
H1358 H 0.01912 0.6191 0.33972 0.0
H1359 H 0.99705 0.61941 0.36335 0.0
C1360 C 0.42626 0.05246 0.93546 0.0
C1361 C 0.42948 0.06215 0.906 0.0
C1362 C 0.41334 0.02823 0.93964 0.0
C1363 C 0.40322 0.01352 0.91381 0.0
C1364 C 0.40472 0.02351 0.88453 0.0
C1365 C 0.41801 0.04762 0.88096 0.0
C1366 C 0.41223 0.01838 0.97122 0.0
C1367 C 0.3939 0.00865 0.8564 0.0
C1368 C 0.40137 0.95605 0.90634 0.0
C1369 C 0.37769 0.93994 0.90997 0.0
C1370 C 0.40999 0.97991 0.9095 0.0
C1371 C 0.39452 0.98809 0.91594 0.0
C1372 C 0.37069 0.97188 0.92104 0.0
C1373 C 0.36257 0.94793 0.91823 0.0
C1374 C 0.43558 0.99641 0.90441 0.0
C1375 C 0.3536 0.97984 0.92775 0.0
H1376 H 0.43525 0.06364 0.95483 0.0
H1377 H 0.42036 0.0551 0.85817 0.0
H1378 H 0.3946 0.00365 0.97604 0.0
H1379 H 0.42447 0.01171 0.97231 0.0
H1380 H 0.41703 0.03166 0.9895 0.0
H1381 H 0.39375 0.01896 0.83644 0.0
H1382 H 0.4039 1.0001 0.8499 0.0
H1383 H 0.37583 0.99482 0.86128 0.0
H1384 H 0.41322 0.94999 0.9004 0.0
H1385 H 0.34423 0.93557 0.921 0.0
H1386 H 0.44287 0.0091 0.92353 0.0
H1387 H 0.43809 0.00631 0.88286 0.0
H1388 H 0.44559 0.98727 0.90261 0.0
H1389 H 0.36054 0.99362 0.94553 0.0
H1390 H 0.3366 0.96537 0.93564 0.0
H1391 H 0.35072 0.98733 0.90657 0.0
C1392 C 0.3642 0.41522 0.41108 0.0
C1393 C 0.37939 0.43806 0.40163 0.0
C1394 C 0.37202 0.39915 0.41401 0.0
C1395 C 0.39559 0.40625 0.40778 0.0
C1396 C 0.41116 0.42969 0.40011 0.0
C1397 C 0.40286 0.44515 0.39691 0.0
C1398 C 0.35481 0.37434 0.42211 0.0
C1399 C 0.4365 0.43828 0.39375 0.0
C1400 C 0.42725 0.37358 0.42728 0.0
C1401 C 0.42948 0.36611 0.39798 0.0
C1402 C 0.41468 0.38522 0.43152 0.0
C1403 C 0.40388 0.38916 0.40593 0.0
C1404 C 0.40438 0.37972 0.37695 0.0
C1405 C 0.41731 0.36855 0.37329 0.0
C1406 C 0.41463 0.39495 0.4628 0.0
C1407 C 0.39284 0.38306 0.34909 0.0
H1408 H 0.34604 0.40961 0.41469 0.0
H1409 H 0.41478 0.46288 0.39003 0.0
H1410 H 0.35109 0.36334 0.40137 0.0
H1411 H 0.36209 0.36779 0.43979 0.0
H1412 H 0.3382 0.37232 0.43075 0.0
H1413 H 0.44672 0.45739 0.39087 0.0
H1414 H 0.44422 0.43332 0.41279 0.0
H1415 H 0.43818 0.43011 0.37242 0.0
H1416 H 0.4367 0.37186 0.44643 0.0
H1417 H 0.41878 0.36259 0.35064 0.0
H1418 H 0.39721 0.39229 0.46835 0.0
H1419 H 0.427 0.41389 0.4628 0.0
H1420 H 0.4199 0.38696 0.48118 0.0
H1421 H 0.375 0.37913 0.35477 0.0
H1422 H 0.39193 0.37192 0.32953 0.0
H1423 H 0.4028 0.40141 0.34158 0.0
C1424 C 0.05464 0.41331 0.91661 0.0
C1425 C 0.06282 0.43657 0.909 0.0
C1426 C 0.03059 0.39736 0.91867 0.0
C1427 C 0.01448 0.405 0.91339 0.0
C1428 C 0.02283 0.42877 0.90761 0.0
C1429 C 0.04677 0.44414 0.9053 0.0
C1430 C 0.02244 0.37219 0.92481 0.0
C1431 C 0.00644 0.43788 0.90229 0.0
C1432 C 0.95529 0.36944 0.87677 0.0
C1433 C 0.9404 0.36612 0.90148 0.0
C1434 C 0.97939 0.38017 0.88095 0.0
C1435 C 0.989 0.38825 0.91053 0.0
C1436 C 0.97392 0.38339 0.936 0.0
C1437 C 0.94973 0.37221 0.9312 0.0
C1438 C 0.99465 0.38452 0.85317 0.0
C1439 C 0.98337 0.39169 0.96789 0.0
H1440 H 0.06695 0.40734 0.91944 0.0
H1441 H 0.05297 0.46217 0.89988 0.0
H1442 H 0.00827 0.365 0.94209 0.0
H1443 H 0.01536 0.36213 0.90328 0.0
H1444 H 0.03675 0.36961 0.93308 0.0
H1445 H 0.01568 0.45709 0.90088 0.0
H1446 H 0.99682 0.43072 0.88047 0.0
H1447 H 0.99347 0.43223 0.9211 0.0
H1448 H 0.94812 0.36452 0.85379 0.0
H1449 H 0.93831 0.36977 0.95037 0.0
H1450 H 0.0083 0.38014 0.85828 0.0
H1451 H 1.00347 0.40318 0.84708 0.0
H1452 H 0.98456 0.37432 0.83288 0.0
H1453 H 0.99789 0.38856 0.97295 0.0
H1454 H 0.96977 0.38305 0.98578 0.0
H1455 H 0.9903 0.41064 0.96936 0.0
C1456 C 0.56694 0.96255 0.41339 0.0
C1457 C 0.57543 0.94719 0.41125 0.0
C1458 C 0.582 0.98654 0.41561 0.0
C1459 C 0.6063 0.99558 0.41514 0.0
C1460 C 0.615 0.98003 0.41512 0.0
C1461 C 0.5994 0.95591 0.41331 0.0
C1462 C 0.5718 1.00227 0.41604 0.0
C1463 C 0.64073 0.98887 0.41474 0.0
C1464 C 0.63609 0.05368 0.37465 0.0
C1465 C 0.64293 0.06934 0.3993 0.0
C1466 C 0.62576 0.02975 0.37958 0.0
C1467 C 0.62199 0.02102 0.41002 0.0
C1468 C 0.63037 0.03682 0.43502 0.0
C1469 C 0.64081 0.06084 0.42938 0.0
C1470 C 0.6174 0.01371 0.35212 0.0
C1471 C 0.62692 0.02832 0.4678 0.0
H1472 H 0.54838 0.95581 0.41197 0.0
H1473 H 0.60601 0.94408 0.41143 0.0
H1474 H 0.58005 0.01556 0.43429 0.0
H1475 H 0.57526 0.01147 0.39369 0.0
H1476 H 0.55275 0.99255 0.41994 0.0
H1477 H 0.6447 0.97503 0.4206 0.0
H1478 H 0.64766 0.99547 0.39141 0.0
H1479 H 0.64995 0.00346 0.4311 0.0
H1480 H 0.63801 0.06009 0.35129 0.0
H1481 H 0.64608 0.07278 0.44858 0.0
H1482 H 0.59814 0.00417 0.35153 0.0
H1483 H 0.62302 1.00069 0.35393 0.0
H1484 H 0.62392 0.02321 0.33006 0.0
H1485 H 0.6085 0.02132 0.47441 0.0
H1486 H 0.63799 0.04242 0.48408 0.0
H1487 H 0.63081 0.01407 0.47021 0.0
C1488 C 0.45284 0.61006 0.9389 0.0
C1489 C 0.4759 0.61869 0.94821 0.0
C1490 C 0.43424 0.59431 0.95731 0.0
C1491 C 0.43884 0.58629 0.98509 0.0
C1492 C 0.46212 0.59547 0.99499 0.0
C1493 C 0.48038 0.61188 0.97664 0.0
C1494 C 0.4097 0.58569 0.94653 0.0
C1495 C 0.46783 0.58702 0.02409 0.0
C1496 C 0.39373 0.55457 0.04737 0.0
C1497 C 0.38657 0.5314 0.04067 0.0
C1498 C 0.4097 0.57259 0.0284 0.0
C1499 C 0.41949 0.56733 0.00293 0.0
C1500 C 0.41175 0.54385 0.99561 0.0
C1501 C 0.39506 0.52613 0.01432 0.0
C1502 C 0.41674 0.59728 0.03629 0.0
C1503 C 0.42213 0.53748 0.96914 0.0
H1504 H 0.44939 0.61538 0.9169 0.0
H1505 H 0.4982 0.61831 0.98364 0.0
H1506 H 0.40157 0.56723 0.93969 0.0
H1507 H 0.39911 0.58675 0.96547 0.0
H1508 H 0.40905 0.59573 0.92656 0.0
H1509 H 0.48676 0.59623 0.0289 0.0
H1510 H 0.45884 0.58937 0.04403 0.0
H1511 H 0.46154 0.5682 0.02211 0.0
H1512 H 0.38717 0.55861 0.06787 0.0
H1513 H 0.3898 0.50822 0.0095 0.0
H1514 H 0.41622 0.60663 0.01547 0.0
H1515 H 0.43483 0.60648 0.045 0.0
H1516 H 0.40531 0.59823 0.05414 0.0
H1517 H 0.42038 0.54519 0.94744 0.0
H1518 H 0.41381 0.51843 0.96601 0.0
H1519 H 0.44096 0.54464 0.97325 0.0
C1520 C 0.8699 0.39435 0.52346 0.0
C1521 C 0.86123 0.3895 0.55355 0.0
C1522 C 0.86788 0.41073 0.50541 0.0
C1523 C 0.85636 0.42201 0.51748 0.0
C1524 C 0.84626 0.41599 0.54711 0.0
C1525 C 0.84911 0.40007 0.56494 0.0
C1526 C 0.87925 0.41694 0.47413 0.0
C1527 C 0.83319 0.427 0.56044 0.0
C1528 C 0.87513 0.48228 0.48692 0.0
C1529 C 0.85893 0.47736 0.46347 0.0
C1530 C 0.87428 0.46443 0.50499 0.0
C1531 C 0.85636 0.44123 0.50003 0.0
C1532 C 0.83915 0.43645 0.47753 0.0
C1533 C 0.84095 0.45454 0.45902 0.0
C1534 C 0.8933 0.47024 0.52819 0.0
C1535 C 0.8193 0.41214 0.47229 0.0
H1536 H 0.87946 0.38637 0.51472 0.0
H1537 H 0.84225 0.39623 0.58816 0.0
H1538 H 0.86654 0.41519 0.45634 0.0
H1539 H 0.89342 0.43531 0.47413 0.0
H1540 H 0.88663 0.40589 0.46752 0.0
H1541 H 0.82402 0.41843 0.58208 0.0
H1542 H 0.84545 0.44554 0.56541 0.0
H1543 H 0.8203 0.42624 0.54362 0.0
H1544 H 0.88932 0.49991 0.48981 0.0
H1545 H 0.82859 0.45079 0.44058 0.0
H1546 H 0.90297 0.4613 0.52189 0.0
H1547 H 0.88575 0.46397 0.55134 0.0
H1548 H 0.90578 0.48915 0.52956 0.0
H1549 H 0.82596 0.40138 0.46211 0.0
H1550 H 0.80595 0.41176 0.4566 0.0
H1551 H 0.81092 0.40404 0.49449 0.0
C1552 C 0.39272 0.86399 0.9811 0.0
C1553 C 0.38586 0.85207 0.95309 0.0
C1554 C 0.40901 0.86246 1.00003 0.0
C1555 C 0.41802 0.84807 0.99114 0.0
C1556 C 0.40991 0.83482 0.96383 0.0
C1557 C 0.39426 0.83733 0.94483 0.0
C1558 C 0.41757 0.87727 0.0286 0.0
C1559 C 0.41837 0.81863 0.9541 0.0
C1560 C 0.47814 0.86458 0.02076 0.0
C1561 C 0.47274 0.85113 0.04746 0.0
C1562 C 0.46047 0.86349 0.00192 0.0
C1563 C 0.4369 0.848 0.00948 0.0
C1564 C 0.43147 0.83333 0.03541 0.0
C1565 C 0.44946 0.83542 0.05445 0.0
C1566 C 0.46701 0.87983 0.97492 0.0
C1567 C 0.40666 0.81596 0.0436 0.0
H1568 H 0.38649 0.87566 0.98724 0.0
H1569 H 0.38893 0.82809 0.92313 0.0
H1570 H 0.41528 0.86638 0.04903 0.0
H1571 H 0.43641 0.88985 0.02636 0.0
H1572 H 0.40836 0.88702 0.03276 0.0
H1573 H 0.40829 0.80751 0.93441 0.0
H1574 H 0.43689 0.82882 0.94725 0.0
H1575 H 0.4172 0.80735 0.97359 0.0
H1576 H 0.49614 0.877 0.01567 0.0
H1577 H 0.44531 0.82505 0.07518 0.0
H1578 H 0.45994 0.89158 0.97834 0.0
H1579 H 0.45929 0.86997 0.95344 0.0
H1580 H 0.48611 0.8905 0.97181 0.0
H1581 H 0.3976 0.82517 0.05137 0.0
H1582 H 0.40552 0.80402 0.0622 0.0
H1583 H 0.39726 0.80556 0.0231 0.0
C1584 C 0.54537 0.41627 0.43533 0.0
C1585 C 0.53246 0.39259 0.44269 0.0
C1586 C 0.56238 0.4323 0.4553 0.0
C1587 C 0.56701 0.42453 0.48323 0.0
C1588 C 0.55475 0.40054 0.49031 0.0
C1589 C 0.53741 0.38487 0.47012 0.0
C1590 C 0.57456 0.45774 0.44715 0.0
C1591 C 0.55951 0.39152 0.5196 0.0
C1592 C 0.62167 0.46831 0.52617 0.0
C1593 C 0.61229 0.47643 0.54843 0.0
C1594 C 0.60711 0.45079 0.50534 0.0
C1595 C 0.58277 0.44183 0.50631 0.0
C1596 C 0.57338 0.45032 0.52849 0.0
C1597 C 0.58819 0.46725 0.54945 0.0
C1598 C 0.61769 0.44179 0.48243 0.0
C1599 C 0.54767 0.44185 0.5298 0.0
H1600 H 0.54166 0.42251 0.4143 0.0
H1601 H 0.5277 0.3666 0.47586 0.0
H1602 H 0.56978 0.46712 0.46401 0.0
H1603 H 0.59365 0.46537 0.44841 0.0
H1604 H 0.56999 0.46082 0.42374 0.0
H1605 H 0.55059 0.3723 0.52002 0.0
H1606 H 0.57844 0.39858 0.52243 0.0
H1607 H 0.5535 0.39739 0.53964 0.0
H1608 H 0.64027 0.47524 0.52553 0.0
H1609 H 0.58088 0.47365 0.56646 0.0
H1610 H 0.61438 0.44548 0.45868 0.0
H1611 H 0.60944 0.4227 0.48461 0.0
H1612 H 0.63672 0.44968 0.48567 0.0
H1613 H 0.54182 0.44526 0.50751 0.0
H1614 H 0.54319 0.45035 0.54837 0.0
H1615 H 0.53779 0.42286 0.53363 0.0
C1616 C 0.16431 0.55595 0.94835 0.0
C1617 C 0.14858 0.53258 0.95464 0.0
C1618 C 0.16632 0.57353 0.9681 0.0
C1619 C 0.15151 0.56761 0.994 0.0
C1620 C 0.13593 0.54394 1.00076 0.0
C1621 C 0.13496 0.52668 0.98125 0.0
C1622 C 0.18381 0.59844 0.96076 0.0
C1623 C 0.1194 0.53689 0.02764 0.0
C1624 C 0.16243 0.60921 0.06009 0.0
C1625 C 0.14812 0.6182 0.05213 0.0
C1626 C 0.16462 0.59361 0.04065 0.0
C1627 C 0.15144 0.5861 0.0132 0.0
C1628 C 0.13728 0.59551 0.0048 0.0
C1629 C 0.13612 0.61177 0.02414 0.0
C1630 C 0.18061 0.58474 0.04985 0.0
C1631 C 0.12248 0.58755 0.97614 0.0
H1632 H 0.17481 0.56048 0.92768 0.0
H1633 H 0.12252 0.50862 0.98579 0.0
H1634 H 0.17467 0.60769 0.95354 0.0
H1635 H 0.19416 0.60736 0.98151 0.0
H1636 H 0.19583 0.59993 0.94203 0.0
H1637 H 0.10862 0.51777 0.03002 0.0
H1638 H 0.12915 0.5441 0.04934 0.0
H1639 H 0.10771 0.54409 0.02466 0.0
H1640 H 0.17177 0.61425 0.08174 0.0
H1641 H 0.12482 0.61851 0.0182 0.0
H1642 H 0.19215 0.58647 0.03039 0.0
H1643 H 0.17026 0.56607 0.05568 0.0
H1644 H 0.19151 0.59416 0.07004 0.0
H1645 H 0.13346 0.5904 0.9556 0.0
H1646 H 0.11262 0.59672 0.9727 0.0
H1647 H 0.10998 0.56867 0.97765 0.0
C1648 C 0.54269 0.16167 0.52656 0.0
C1649 C 0.53537 0.14559 0.55067 0.0
C1650 C 0.56015 0.16406 0.50603 0.0
C1651 C 0.56988 0.14953 0.50924 0.0
C1652 C 0.56235 0.13319 0.53346 0.0
C1653 C 0.54545 0.13163 0.554 0.0
C1654 C 0.5681 0.18201 0.48086 0.0
C1655 C 0.57165 0.11683 0.53721 0.0
C1656 C 0.59388 0.13417 0.43983 0.0
C1657 C 0.61786 0.14627 0.44564 0.0
C1658 C 0.57821 0.13565 0.45986 0.0
C1659 C 0.58667 0.14998 0.48618 0.0
C1660 C 0.61091 0.16286 0.49174 0.0
C1661 C 0.62624 0.16062 0.4716 0.0
C1662 C 0.5525 0.12108 0.45347 0.0
C1663 C 0.62061 0.17866 0.51926 0.0
H1664 H 0.53507 0.1726 0.52406 0.0
H1665 H 0.53968 0.11897 0.57241 0.0
H1666 H 0.58727 0.19317 0.48148 0.0
H1667 H 0.56347 0.17337 0.45808 0.0
H1668 H 0.56018 0.19314 0.48292 0.0
H1669 H 0.56414 0.10529 0.5575 0.0
H1670 H 0.56766 0.10588 0.51635 0.0
H1671 H 0.59079 0.12675 0.53974 0.0
H1672 H 0.58719 0.12288 0.41996 0.0
H1673 H 0.64474 0.17018 0.47607 0.0
H1674 H 0.54445 0.13212 0.45289 0.0
H1675 H 0.54398 0.10829 0.47226 0.0
H1676 H 0.54881 0.11157 0.43132 0.0
H1677 H 0.61333 0.19038 0.52045 0.0
H1678 H 0.63985 0.1893 0.51859 0.0
H1679 H 0.61546 0.16822 0.54068 0.0
C1680 C 0.55232 0.41073 0.06382 0.0
C1681 C 0.5333 0.39037 0.0521 0.0
C1682 C 0.56995 0.42671 0.04451 0.0
C1683 C 0.56884 0.42228 0.01259 0.0
C1684 C 0.5504 0.40127 1.00071 0.0
C1685 C 0.5328 0.38558 0.0206 0.0
C1686 C 0.58915 0.44894 0.05817 0.0
C1687 C 0.5488 0.39578 0.96682 0.0
C1688 C 0.59636 0.47464 0.95978 0.0
C1689 C 0.6179 0.47674 0.95329 0.0
C1690 C 0.58035 0.45707 0.97913 0.0
C1691 C 0.58571 0.44069 0.99152 0.0
C1692 C 0.60745 0.44262 0.98477 0.0
C1693 C 0.62348 0.4609 0.96603 0.0
C1694 C 0.55774 0.45614 0.98646 0.0
C1695 C 0.61357 0.42521 0.99696 0.0
H1696 H 0.55317 0.41462 0.08813 0.0
H1697 H 0.51833 0.36989 0.01127 0.0
H1698 H 0.60636 0.45172 0.05112 0.0
H1699 H 0.58779 0.46382 0.04938 0.0
H1700 H 0.58845 0.44902 0.0837 0.0
H1701 H 0.53504 0.3777 0.96174 0.0
H1702 H 0.54489 0.40773 0.95386 0.0
H1703 H 0.56565 0.39844 0.95823 0.0
H1704 H 0.5921 0.48693 0.94975 0.0
H1705 H 0.64004 0.46239 0.96052 0.0
H1706 H 0.55602 0.45725 0.01171 0.0
H1707 H 0.54291 0.43938 0.97873 0.0
H1708 H 0.5564 0.4704 0.97533 0.0
H1709 H 0.61347 0.42529 0.02247 0.0
H1710 H 0.63089 0.42879 0.98896 0.0
H1711 H 0.60033 0.40753 0.98947 0.0
C1712 C 0.12792 0.58829 0.45203 0.0
C1713 C 0.14204 0.6124 0.45495 0.0
C1714 C 0.13027 0.5731 0.47191 0.0
C1715 C 0.14754 0.58213 0.49504 0.0
C1716 C 0.16215 0.60647 0.49789 0.0
C1717 C 0.15901 0.62137 0.47803 0.0
C1718 C 0.11385 0.54734 0.46858 0.0
C1719 C 0.18102 0.61671 0.52191 0.0
C1720 C 0.13477 0.54291 0.56409 0.0
C1721 C 0.14674 0.53119 0.55689 0.0
C1722 C 0.13551 0.56 0.54464 0.0
C1723 C 0.14892 0.56595 0.51743 0.0
C1724 C 0.16173 0.55481 0.51046 0.0
C1725 C 0.16027 0.53733 0.53009 0.0
C1726 C 0.12108 0.57093 0.5526 0.0
C1727 C 0.17657 0.56102 0.48192 0.0
H1728 H 0.11462 0.58123 0.43439 0.0
H1729 H 0.17011 0.63997 0.48017 0.0
H1730 H 0.12377 0.5383 0.46485 0.0
H1731 H 0.10369 0.54033 0.49007 0.0
H1732 H 0.10154 0.54312 0.44914 0.0
H1733 H 0.19192 0.63583 0.5198 0.0
H1734 H 0.17322 0.61251 0.54523 0.0
H1735 H 0.19234 0.609 0.51992 0.0
H1736 H 0.1241 0.53822 0.5846 0.0
H1737 H 0.16971 0.52851 0.5245 0.0
H1738 H 0.10752 0.56637 0.53481 0.0
H1739 H 0.13205 0.59008 0.55284 0.0
H1740 H 0.11245 0.56517 0.57535 0.0
H1741 H 0.16534 0.55547 0.4612 0.0
H1742 H 0.18738 0.55266 0.48149 0.0
H1743 H 0.18813 0.58007 0.4804 0.0
C1744 C 0.60759 0.12536 0.02323 0.0
C1745 C 0.61781 0.14044 0.04807 0.0
C1746 C 0.59114 0.1268 0.00458 0.0
C1747 C 0.58543 0.14425 0.01037 0.0
C1748 C 0.59663 0.16023 0.03463 0.0
C1749 C 0.61233 0.1578 0.05364 0.0
C1750 C 0.57917 0.10904 0.97949 0.0
C1751 C 0.59173 0.1796 0.04084 0.0
C1752 C 0.55549 0.15545 0.94375 0.0
C1753 C 0.53217 0.14315 0.95292 0.0
C1754 C 0.57316 0.15701 0.96295 0.0
C1755 C 0.56727 0.14528 0.99154 0.0
C1756 C 0.54377 0.13336 0.00128 0.0
C1757 C 0.52652 0.13275 0.98201 0.0
C1758 C 0.59804 0.1706 0.9522 0.0
C1759 C 0.53668 0.12017 0.03126 0.0
H1760 H 0.61161 0.1117 0.01936 0.0
H1761 H 0.62024 0.16937 0.07303 0.0
H1762 H 0.56017 0.09931 0.98371 0.0
H1763 H 0.582 0.11776 0.95689 0.0
H1764 H 0.58547 0.0965 0.97811 0.0
H1765 H 0.60344 0.19179 0.05867 0.0
H1766 H 0.59372 0.18945 0.01939 0.0
H1767 H 0.57354 0.17232 0.04868 0.0
H1768 H 0.55987 0.16358 0.92127 0.0
H1769 H 0.50846 0.12301 0.98894 0.0
H1770 H 0.60453 0.15858 0.94705 0.0
H1771 H 0.60923 0.18252 0.97058 0.0
H1772 H 0.59996 0.18089 0.93119 0.0
H1773 H 0.54087 0.10606 0.0306 0.0
H1774 H 0.51784 0.11245 0.03598 0.0
H1775 H 0.54655 0.13174 0.05064 0.0
C1776 C 0.46918 0.626 0.52754 0.0
C1777 C 0.47886 0.61761 0.549 0.0
C1778 C 0.45155 0.61075 0.50736 0.0
C1779 C 0.44407 0.58676 0.50808 0.0
C1780 C 0.45402 0.57834 0.52957 0.0
C1781 C 0.47102 0.59381 0.54998 0.0
C1782 C 0.44097 0.62026 0.48523 0.0
C1783 C 0.44718 0.55307 0.53049 0.0
C1784 C 0.38823 0.53959 0.47129 0.0
C1785 C 0.39656 0.53611 0.44335 0.0
C1786 C 0.40327 0.55687 0.49203 0.0
C1787 C 0.42723 0.57055 0.48494 0.0
C1788 C 0.43559 0.5673 0.45659 0.0
C1789 C 0.42018 0.55035 0.43612 0.0
C1790 C 0.39365 0.56017 0.5218 0.0
C1791 C 0.46106 0.58104 0.44839 0.0
H1792 H 0.47505 0.64437 0.52699 0.0
H1793 H 0.4786 0.58729 0.56642 0.0
H1794 H 0.44509 0.61794 0.46124 0.0
H1795 H 0.42179 0.61056 0.48752 0.0
H1796 H 0.4474 0.63897 0.48914 0.0
H1797 H 0.45642 0.54931 0.54884 0.0
H1798 H 0.42824 0.54212 0.53438 0.0
H1799 H 0.4511 0.5479 0.50803 0.0
H1800 H 0.37001 0.52881 0.47695 0.0
H1801 H 0.42691 0.54775 0.41472 0.0
H1802 H 0.39942 0.57876 0.52525 0.0
H1803 H 0.4004 0.55464 0.54139 0.0
H1804 H 0.37438 0.55002 0.52239 0.0
H1805 H 0.46745 0.59987 0.44989 0.0
H1806 H 0.46461 0.57708 0.42487 0.0
H1807 H 0.47124 0.57712 0.46506 0.0
C1808 C 0.88025 0.41431 0.95108 0.0
C1809 C 0.86414 0.39049 0.95092 0.0
C1810 C 0.87829 0.42924 0.97192 0.0
C1811 C 0.85933 0.42028 0.9926 0.0
C1812 C 0.84264 0.39629 0.99207 0.0
C1813 C 0.84547 0.38156 0.97154 0.0
C1814 C 0.89693 0.45451 0.97237 0.0
C1815 C 0.82189 0.38622 0.01323 0.0
C1816 C 0.87026 0.45473 0.0661 0.0
C1817 C 0.8613 0.46927 0.05903 0.0
C1818 C 0.86907 0.43829 0.04505 0.0
C1819 C 0.85822 0.43586 0.01626 0.0
C1820 C 0.84828 0.44979 0.00933 0.0
C1821 C 0.85018 0.46655 0.03067 0.0
C1822 C 0.88043 0.42427 0.05315 0.0
C1823 C 0.83613 0.44734 0.9791 0.0
H1824 H 0.8948 0.42123 0.93526 0.0
H1825 H 0.83287 0.36319 0.97118 0.0
H1826 H 0.88913 0.46558 0.96858 0.0
H1827 H 0.90545 0.45907 0.99526 0.0
H1828 H 0.91043 0.45874 0.95456 0.0
H1829 H 0.80955 0.36766 0.00827 0.0
H1830 H 0.82768 0.38781 0.03747 0.0
H1831 H 0.8126 0.39605 0.01102 0.0
H1832 H 0.87905 0.45672 0.08783 0.0
H1833 H 0.84307 0.47756 0.02509 0.0
H1834 H 0.89498 0.42861 0.03705 0.0
H1835 H 0.86787 0.4055 0.05064 0.0
H1836 H 0.88732 0.42756 0.07701 0.0
H1837 H 0.84896 0.45348 0.96009 0.0
H1838 H 0.82703 0.45744 0.97864 0.0
H1839 H 0.82333 0.42885 0.97456 0.0
C1840 C 0.47376 0.8568 0.47548 0.0
C1841 C 0.47554 0.86537 0.44552 0.0
C1842 C 0.45649 0.85511 0.49578 0.0
C1843 C 0.44099 0.86258 0.48607 0.0
C1844 C 0.44222 0.87046 0.45559 0.0
C1845 C 0.45926 0.87155 0.43571 0.0
C1846 C 0.45535 0.8461 0.52795 0.0
C1847 C 0.4264 0.87905 0.4444 0.0
C1848 C 0.38659 0.85029 0.53046 0.0
C1849 C 0.3949 0.8706 0.54784 0.0
C1850 C 0.4016 0.84694 0.5111 0.0
C1851 C 0.42517 0.86465 0.50841 0.0
C1852 C 0.43342 0.88532 0.52564 0.0
C1853 C 0.41828 0.88786 0.54546 0.0
C1854 C 0.39233 0.82445 0.4937 0.0
C1855 C 0.45817 0.90498 0.52272 0.0
H1856 H 0.48607 0.85179 0.48324 0.0
H1857 H 0.46033 0.8782 0.41265 0.0
H1858 H 0.46127 0.86055 0.54464 0.0
H1859 H 0.43719 0.83308 0.53397 0.0
H1860 H 0.46639 0.83812 0.53063 0.0
H1861 H 0.42861 0.88326 0.41946 0.0
H1862 H 0.40799 0.86588 0.44867 0.0
H1863 H 0.43009 0.89486 0.45735 0.0
H1864 H 0.36857 0.83682 0.53267 0.0
H1865 H 0.42467 0.9036 0.55888 0.0
H1866 H 0.40308 0.81643 0.49873 0.0
H1867 H 0.39346 0.82777 0.46859 0.0
H1868 H 0.37399 0.8119 0.49966 0.0
H1869 H 0.47039 0.89893 0.52888 0.0
H1870 H 0.46179 0.91992 0.53769 0.0
H1871 H 0.46179 0.91107 0.49852 0.0
loop_
_geom_bond_atom_site_label_1
_geom_bond_atom_site_label_2
_geom_bond_distance
_geom_bond_site_symmetry_2
_ccdc_geom_bond_type
Co0 O1 2.216 . S
Co0 O2 2.091 . S
Co0 O4 2.004 . S
Co0 O10 2.021 . S
Co0 O12 2.137 . S
Co0 O13 2.244 . S
O1 Co0 2.216 . S
O1 C8 1.247 . S
O2 Co0 2.091 . S
O2 C8 1.261 . S
C3 O12 1.247 . S
C3 O13 1.272 . S
O4 Co0 2.004 . S
O4 C9 1.259 . S
Co5 O6 2.061 . S
Co5 O11 2.052 . S
Co5 O13 2.135 . S
O6 Co5 2.061 . S
O6 C9 1.235 . S
C7 O10 1.238 . S
C7 O11 1.241 . S
C8 O1 1.247 . S
C8 O2 1.261 . S
C9 O4 1.259 . S
C9 O6 1.235 . S
O10 Co0 2.021 . S
O10 C7 1.238 . S
O11 Co5 2.052 . S
O11 C7 1.241 . S
O12 Co0 2.137 . S
O12 C3 1.247 . S
O13 Co0 2.244 . S
O13 C3 1.272 . S
O13 Co5 2.135 . S
Co14 O15 2.216 . S
Co14 O16 2.091 . S
Co14 O18 2.004 . S
Co14 O24 2.021 . S
Co14 O26 2.137 . S
Co14 O27 2.244 . S
O15 Co14 2.216 . S
O15 C22 1.247 . S
O16 Co14 2.091 . S
O16 C22 1.261 . S
C17 O26 1.247 . S
C17 O27 1.272 . S
O18 Co14 2.004 . S
O18 C23 1.259 . S
Co19 O20 2.061 . S
Co19 O25 2.052 . S
Co19 O27 2.135 . S
O20 Co19 2.061 . S
O20 C23 1.235 . S
C21 O24 1.238 . S
C21 O25 1.241 . S
C22 O15 1.247 . S
C22 O16 1.261 . S
C23 O18 1.259 . S
C23 O20 1.235 . S
O24 Co14 2.021 . S
O24 C21 1.238 . S
O25 Co19 2.052 . S
O25 C21 1.241 . S
O26 Co14 2.137 . S
O26 C17 1.247 . S
O27 Co14 2.244 . S
O27 C17 1.272 . S
O27 Co19 2.135 . S
Co28 O29 2.216 . S
Co28 O30 2.091 . S
Co28 O32 2.004 . S
Co28 O38 2.021 . S
Co28 O40 2.137 . S
Co28 O41 2.244 . S
O29 Co28 2.216 . S
O29 C36 1.247 . S
O30 Co28 2.091 . S
O30 C36 1.261 . S
C31 O40 1.247 . S
C31 O41 1.272 . S
O32 Co28 2.004 . S
O32 C37 1.259 . S
Co33 O34 2.061 . S
Co33 O39 2.052 . S
Co33 O41 2.135 . S
O34 Co33 2.061 . S
O34 C37 1.235 . S
C35 O38 1.238 . S
C35 O39 1.241 . S
C36 O29 1.247 . S
C36 O30 1.261 . S
C37 O32 1.259 . S
C37 O34 1.235 . S
O38 Co28 2.021 . S
O38 C35 1.238 . S
O39 Co33 2.052 . S
O39 C35 1.241 . S
O40 Co28 2.137 . S
O40 C31 1.247 . S
O41 Co28 2.244 . S
O41 C31 1.272 . S
O41 Co33 2.135 . S
Co42 O43 2.216 . S
Co42 O44 2.091 . S
Co42 O46 2.004 . S
Co42 O52 2.021 . S
Co42 O54 2.137 . S
Co42 O55 2.244 . S
O43 Co42 2.216 . S
O43 C50 1.247 . S
O44 Co42 2.091 . S
O44 C50 1.261 . S
C45 O54 1.247 . S
C45 O55 1.272 . S
O46 Co42 2.004 . S
O46 C51 1.259 . S
Co47 O48 2.061 . S
Co47 O53 2.052 . S
Co47 O55 2.135 . S
O48 Co47 2.061 . S
O48 C51 1.235 . S
C49 O52 1.238 . S
C49 O53 1.241 . S
C50 O43 1.247 . S
C50 O44 1.261 . S
C51 O46 1.259 . S
C51 O48 1.235 . S
O52 Co42 2.021 . S
O52 C49 1.238 . S
O53 Co47 2.052 . S
O53 C49 1.241 . S
O54 Co42 2.137 . S
O54 C45 1.247 . S
O55 Co42 2.244 . S
O55 C45 1.272 . S
O55 Co47 2.135 . S
Co56 O57 2.216 . S
Co56 O58 2.091 . S
Co56 O60 2.004 . S
Co56 O66 2.021 . S
Co56 O68 2.137 . S
Co56 O69 2.244 . S
O57 Co56 2.216 . S
O57 C64 1.247 . S
O58 Co56 2.091 . S
O58 C64 1.261 . S
C59 O68 1.247 . S
C59 O69 1.272 . S
O60 Co56 2.004 . S
O60 C65 1.259 . S
Co61 O62 2.061 . S
Co61 O67 2.052 . S
Co61 O69 2.135 . S
O62 Co61 2.061 . S
O62 C65 1.235 . S
C63 O66 1.238 . S
C63 O67 1.241 . S
C64 O57 1.247 . S
C64 O58 1.261 . S
C65 O60 1.259 . S
C65 O62 1.235 . S
O66 Co56 2.021 . S
O66 C63 1.238 . S
O67 Co61 2.052 . S
O67 C63 1.241 . S
O68 Co56 2.137 . S
O68 C59 1.247 . S
O69 Co56 2.244 . S
O69 C59 1.272 . S
O69 Co61 2.135 . S
Co70 O71 2.216 . S
Co70 O72 2.091 . S
Co70 O74 2.004 . S
Co70 O80 2.021 . S
Co70 O82 2.137 . S
Co70 O83 2.244 . S
O71 Co70 2.216 . S
O71 C78 1.247 . S
O72 Co70 2.091 . S
O72 C78 1.261 . S
C73 O82 1.247 . S
C73 O83 1.272 . S
O74 Co70 2.004 . S
O74 C79 1.259 . S
Co75 O76 2.061 . S
Co75 O81 2.052 . S
Co75 O83 2.135 . S
O76 Co75 2.061 . S
O76 C79 1.235 . S
C77 O80 1.238 . S
C77 O81 1.241 . S
C78 O71 1.247 . S
C78 O72 1.261 . S
C79 O74 1.259 . S
C79 O76 1.235 . S
O80 Co70 2.021 . S
O80 C77 1.238 . S
O81 Co75 2.052 . S
O81 C77 1.241 . S
O82 Co70 2.137 . S
O82 C73 1.247 . S
O83 Co70 2.244 . S
O83 C73 1.272 . S
O83 Co75 2.135 . S
Co84 O85 2.216 . S
Co84 O86 2.091 . S
Co84 O88 2.004 . S
Co84 O94 2.021 . S
Co84 O96 2.137 . S
Co84 O97 2.244 . S
O85 Co84 2.216 . S
O85 C92 1.247 . S
O86 Co84 2.091 . S
O86 C92 1.261 . S
C87 O96 1.247 . S
C87 O97 1.272 . S
O88 Co84 2.004 . S
O88 C93 1.259 . S
Co89 O90 2.061 . S
Co89 O95 2.052 . S
Co89 O97 2.135 . S
O90 Co89 2.061 . S
O90 C93 1.235 . S
C91 O94 1.238 . S
C91 O95 1.241 . S
C92 O85 1.247 . S
C92 O86 1.261 . S
C93 O88 1.259 . S
C93 O90 1.235 . S
O94 Co84 2.021 . S
O94 C91 1.238 . S
O95 Co89 2.052 . S
O95 C91 1.241 . S
O96 Co84 2.137 . S
O96 C87 1.247 . S
O97 Co84 2.244 . S
O97 C87 1.272 . S
O97 Co89 2.135 . S
Co98 O99 2.216 . S
Co98 O100 2.091 . S
Co98 O102 2.004 . S
Co98 O108 2.021 . S
Co98 O110 2.137 . S
Co98 O111 2.244 . S
O99 Co98 2.216 . S
O99 C106 1.247 . S
O100 Co98 2.091 . S
O100 C106 1.261 . S
C101 O110 1.247 . S
C101 O111 1.272 . S
O102 Co98 2.004 . S
O102 C107 1.259 . S
Co103 O104 2.061 . S
Co103 O109 2.052 . S
Co103 O111 2.135 . S
O104 Co103 2.061 . S
O104 C107 1.235 . S
C105 O108 1.238 . S
C105 O109 1.241 . S
C106 O99 1.247 . S
C106 O100 1.261 . S
C107 O102 1.259 . S
C107 O104 1.235 . S
O108 Co98 2.021 . S
O108 C105 1.238 . S
O109 Co103 2.052 . S
O109 C105 1.241 . S
O110 Co98 2.137 . S
O110 C101 1.247 . S
O111 Co98 2.244 . S
O111 C101 1.272 . S
O111 Co103 2.135 . S
Co112 O113 2.216 . S
Co112 O114 2.091 . S
Co112 O116 2.004 . S
Co112 O122 2.021 . S
Co112 O124 2.137 . S
Co112 O125 2.244 . S
O113 Co112 2.216 . S
O113 C120 1.247 . S
O114 Co112 2.091 . S
O114 C120 1.261 . S
C115 O124 1.247 . S
C115 O125 1.272 . S
O116 Co112 2.004 . S
O116 C121 1.259 . S
Co117 O118 2.061 . S
Co117 O123 2.052 . S
Co117 O125 2.135 . S
O118 Co117 2.061 . S
O118 C121 1.235 . S
C119 O122 1.238 . S
C119 O123 1.241 . S
C120 O113 1.247 . S
C120 O114 1.261 . S
C121 O116 1.259 . S
C121 O118 1.235 . S
O122 Co112 2.021 . S
O122 C119 1.238 . S
O123 Co117 2.052 . S
O123 C119 1.241 . S
O124 Co112 2.137 . S
O124 C115 1.247 . S
O125 Co112 2.244 . S
O125 C115 1.272 . S
O125 Co117 2.135 . S
Co126 O127 2.216 . S
Co126 O128 2.091 . S
Co126 O130 2.004 . S
Co126 O136 2.021 . S
Co126 O138 2.137 . S
Co126 O139 2.244 . S
O127 Co126 2.216 . S
O127 C134 1.247 . S
O128 Co126 2.091 . S
O128 C134 1.261 . S
C129 O138 1.247 . S
C129 O139 1.272 . S
O130 Co126 2.004 . S
O130 C135 1.259 . S
Co131 O132 2.061 . S
Co131 O137 2.052 . S
Co131 O139 2.135 . S
O132 Co131 2.061 . S
O132 C135 1.235 . S
C133 O136 1.238 . S
C133 O137 1.241 . S
C134 O127 1.247 . S
C134 O128 1.261 . S
C135 O130 1.259 . S
C135 O132 1.235 . S
O136 Co126 2.021 . S
O136 C133 1.238 . S
O137 Co131 2.052 . S
O137 C133 1.241 . S
O138 Co126 2.137 . S
O138 C129 1.247 . S
O139 Co126 2.244 . S
O139 C129 1.272 . S
O139 Co131 2.135 . S
Co140 O141 2.216 . S
Co140 O142 2.091 . S
Co140 O144 2.004 . S
Co140 O150 2.021 . S
Co140 O152 2.137 . S
Co140 O153 2.244 . S
O141 Co140 2.216 . S
O141 C148 1.247 . S
O142 Co140 2.091 . S
O142 C148 1.261 . S
C143 O152 1.247 . S
C143 O153 1.272 . S
O144 Co140 2.004 . S
O144 C149 1.259 . S
Co145 O146 2.061 . S
Co145 O151 2.052 . S
Co145 O153 2.135 . S
O146 Co145 2.061 . S
O146 C149 1.235 . S
C147 O150 1.238 . S
C147 O151 1.241 . S
C148 O141 1.247 . S
C148 O142 1.261 . S
C149 O144 1.259 . S
C149 O146 1.235 . S
O150 Co140 2.021 . S
O150 C147 1.238 . S
O151 Co145 2.052 . S
O151 C147 1.241 . S
O152 Co140 2.137 . S
O152 C143 1.247 . S
O153 Co140 2.244 . S
O153 C143 1.272 . S
O153 Co145 2.135 . S
Co154 O155 2.216 . S
Co154 O156 2.091 . S
Co154 O158 2.004 . S
Co154 O164 2.021 . S
Co154 O166 2.137 . S
Co154 O167 2.244 . S
O155 Co154 2.216 . S
O155 C162 1.247 . S
O156 Co154 2.091 . S
O156 C162 1.261 . S
C157 O166 1.247 . S
C157 O167 1.272 . S
O158 Co154 2.004 . S
O158 C163 1.259 . S
Co159 O160 2.061 . S
Co159 O165 2.052 . S
Co159 O167 2.135 . S
O160 Co159 2.061 . S
O160 C163 1.235 . S
C161 O164 1.238 . S
C161 O165 1.241 . S
C162 O155 1.247 . S
C162 O156 1.261 . S
C163 O158 1.259 . S
C163 O160 1.235 . S
O164 Co154 2.021 . S
O164 C161 1.238 . S
O165 Co159 2.052 . S
O165 C161 1.241 . S
O166 Co154 2.137 . S
O166 C157 1.247 . S
O167 Co154 2.244 . S
O167 C157 1.272 . S
O167 Co159 2.135 . S
Co168 O169 2.216 . S
Co168 O170 2.091 . S
Co168 O172 2.004 . S
Co168 O178 2.021 . S
Co168 O180 2.137 . S
Co168 O181 2.244 . S
O169 Co168 2.216 . S
O169 C176 1.247 . S
O170 Co168 2.091 . S
O170 C176 1.261 . S
C171 O180 1.247 . S
C171 O181 1.272 . S
O172 Co168 2.004 . S
O172 C177 1.259 . S
Co173 O174 2.061 . S
Co173 O179 2.052 . S
Co173 O181 2.135 . S
O174 Co173 2.061 . S
O174 C177 1.235 . S
C175 O178 1.238 . S
C175 O179 1.241 . S
C176 O169 1.247 . S
C176 O170 1.261 . S
C177 O172 1.259 . S
C177 O174 1.235 . S
O178 Co168 2.021 . S
O178 C175 1.238 . S
O179 Co173 2.052 . S
O179 C175 1.241 . S
O180 Co168 2.137 . S
O180 C171 1.247 . S
O181 Co168 2.244 . S
O181 C171 1.272 . S
O181 Co173 2.135 . S
Co182 O183 2.216 . S
Co182 O184 2.091 . S
Co182 O186 2.004 . S
Co182 O192 2.021 . S
Co182 O194 2.137 . S
Co182 O195 2.244 . S
O183 Co182 2.216 . S
O183 C190 1.247 . S
O184 Co182 2.091 . S
O184 C190 1.261 . S
C185 O194 1.247 . S
C185 O195 1.272 . S
O186 Co182 2.004 . S
O186 C191 1.259 . S
Co187 O188 2.061 . S
Co187 O193 2.052 . S
Co187 O195 2.135 . S
O188 Co187 2.061 . S
O188 C191 1.235 . S
C189 O192 1.238 . S
C189 O193 1.241 . S
C190 O183 1.247 . S
C190 O184 1.261 . S
C191 O186 1.259 . S
C191 O188 1.235 . S
O192 Co182 2.021 . S
O192 C189 1.238 . S
O193 Co187 2.052 . S
O193 C189 1.241 . S
O194 Co182 2.137 . S
O194 C185 1.247 . S
O195 Co182 2.244 . S
O195 C185 1.272 . S
O195 Co187 2.135 . S
Co196 O197 2.216 . S
Co196 O198 2.091 . S
Co196 O200 2.004 . S
Co196 O206 2.021 . S
Co196 O208 2.137 . S
Co196 O209 2.244 . S
O197 Co196 2.216 . S
O197 C204 1.247 . S
O198 Co196 2.091 . S
O198 C204 1.261 . S
C199 O208 1.247 . S
C199 O209 1.272 . S
O200 Co196 2.004 . S
O200 C205 1.259 . S
Co201 O202 2.061 . S
Co201 O207 2.052 . S
Co201 O209 2.135 . S
O202 Co201 2.061 . S
O202 C205 1.235 . S
C203 O206 1.238 . S
C203 O207 1.241 . S
C204 O197 1.247 . S
C204 O198 1.261 . S
C205 O200 1.259 . S
C205 O202 1.235 . S
O206 Co196 2.021 . S
O206 C203 1.238 . S
O207 Co201 2.052 . S
O207 C203 1.241 . S
O208 Co196 2.137 . S
O208 C199 1.247 . S
O209 Co196 2.244 . S
O209 C199 1.272 . S
O209 Co201 2.135 . S
Co210 O211 2.216 . S
Co210 O212 2.091 . S
Co210 O214 2.004 . S
Co210 O220 2.021 . S
Co210 O222 2.137 . S
Co210 O223 2.244 . S
O211 Co210 2.216 . S
O211 C218 1.247 . S
O212 Co210 2.091 . S
O212 C218 1.261 . S
C213 O222 1.247 . S
C213 O223 1.272 . S
O214 Co210 2.004 . S
O214 C219 1.259 . S
Co215 O216 2.061 . S
Co215 O221 2.052 . S
Co215 O223 2.135 . S
O216 Co215 2.061 . S
O216 C219 1.235 . S
C217 O220 1.238 . S
C217 O221 1.241 . S
C218 O211 1.247 . S
C218 O212 1.261 . S
C219 O214 1.259 . S
C219 O216 1.235 . S
O220 Co210 2.021 . S
O220 C217 1.238 . S
O221 Co215 2.052 . S
O221 C217 1.241 . S
O222 Co210 2.137 . S
O222 C213 1.247 . S
O223 Co210 2.244 . S
O223 C213 1.272 . S
O223 Co215 2.135 . S
Co224 O225 2.216 . S
Co224 O226 2.091 . S
Co224 O228 2.004 . S
Co224 O234 2.021 . S
Co224 O236 2.137 . S
Co224 O237 2.244 . S
O225 Co224 2.216 . S
O225 C232 1.247 . S
O226 Co224 2.091 . S
O226 C232 1.261 . S
C227 O236 1.247 . S
C227 O237 1.272 . S
O228 Co224 2.004 . S
O228 C233 1.259 . S
Co229 O230 2.061 . S
Co229 O235 2.052 . S
Co229 O237 2.135 . S
O230 Co229 2.061 . S
O230 C233 1.235 . S
C231 O234 1.238 . S
C231 O235 1.241 . S
C232 O225 1.247 . S
C232 O226 1.261 . S
C233 O228 1.259 . S
C233 O230 1.235 . S
O234 Co224 2.021 . S
O234 C231 1.238 . S
O235 Co229 2.052 . S
O235 C231 1.241 . S
O236 Co224 2.137 . S
O236 C227 1.247 . S
O237 Co224 2.244 . S
O237 C227 1.272 . S
O237 Co229 2.135 . S
Co238 O239 2.216 . S
Co238 O240 2.091 . S
Co238 O242 2.004 . S
Co238 O248 2.021 . S
Co238 O250 2.137 . S
Co238 O251 2.244 . S
O239 Co238 2.216 . S
O239 C246 1.247 . S
O240 Co238 2.091 . S
O240 C246 1.261 . S
C241 O250 1.247 . S
C241 O251 1.272 . S
O242 Co238 2.004 . S
O242 C247 1.259 . S
Co243 O244 2.061 . S
Co243 O249 2.052 . S
Co243 O251 2.135 . S
O244 Co243 2.061 . S
O244 C247 1.235 . S
C245 O248 1.238 . S
C245 O249 1.241 . S
C246 O239 1.247 . S
C246 O240 1.261 . S
C247 O242 1.259 . S
C247 O244 1.235 . S
O248 Co238 2.021 . S
O248 C245 1.238 . S
O249 Co243 2.052 . S
O249 C245 1.241 . S
O250 Co238 2.137 . S
O250 C241 1.247 . S
O251 Co238 2.244 . S
O251 C241 1.272 . S
O251 Co243 2.135 . S
Co252 O253 2.216 . S
Co252 O254 2.091 . S
Co252 O256 2.004 . S
Co252 O262 2.021 . S
Co252 O264 2.137 . S
Co252 O265 2.244 . S
O253 Co252 2.216 . S
O253 C260 1.247 . S
O254 Co252 2.091 . S
O254 C260 1.261 . S
C255 O264 1.247 . S
C255 O265 1.272 . S
O256 Co252 2.004 . S
O256 C261 1.259 . S
Co257 O258 2.061 . S
Co257 O263 2.052 . S
Co257 O265 2.135 . S
O258 Co257 2.061 . S
O258 C261 1.235 . S
C259 O262 1.238 . S
C259 O263 1.241 . S
C260 O253 1.247 . S
C260 O254 1.261 . S
C261 O256 1.259 . S
C261 O258 1.235 . S
O262 Co252 2.021 . S
O262 C259 1.238 . S
O263 Co257 2.052 . S
O263 C259 1.241 . S
O264 Co252 2.137 . S
O264 C255 1.247 . S
O265 Co252 2.244 . S
O265 C255 1.272 . S
O265 Co257 2.135 . S
Co266 O267 2.216 . S
Co266 O268 2.091 . S
Co266 O270 2.004 . S
Co266 O276 2.021 . S
Co266 O278 2.137 . S
Co266 O279 2.244 . S
O267 Co266 2.216 . S
O267 C274 1.247 . S
O268 Co266 2.091 . S
O268 C274 1.261 . S
C269 O278 1.247 . S
C269 O279 1.272 . S
O270 Co266 2.004 . S
O270 C275 1.259 . S
Co271 O272 2.061 . S
Co271 O277 2.052 . S
Co271 O279 2.135 . S
O272 Co271 2.061 . S
O272 C275 1.235 . S
C273 O276 1.238 . S
C273 O277 1.241 . S
C274 O267 1.247 . S
C274 O268 1.261 . S
C275 O270 1.259 . S
C275 O272 1.235 . S
O276 Co266 2.021 . S
O276 C273 1.238 . S
O277 Co271 2.052 . S
O277 C273 1.241 . S
O278 Co266 2.137 . S
O278 C269 1.247 . S
O279 Co266 2.244 . S
O279 C269 1.272 . S
O279 Co271 2.135 . S
Co280 O281 2.216 . S
Co280 O282 2.091 . S
Co280 O284 2.004 . S
Co280 O290 2.021 . S
Co280 O292 2.137 . S
Co280 O293 2.244 . S
O281 Co280 2.216 . S
O281 C288 1.247 . S
O282 Co280 2.091 . S
O282 C288 1.261 . S
C283 O292 1.247 . S
C283 O293 1.272 . S
O284 Co280 2.004 . S
O284 C289 1.259 . S
Co285 O286 2.061 . S
Co285 O291 2.052 . S
Co285 O293 2.135 . S
O286 Co285 2.061 . S
O286 C289 1.235 . S
C287 O290 1.238 . S
C287 O291 1.241 . S
C288 O281 1.247 . S
C288 O282 1.261 . S
C289 O284 1.259 . S
C289 O286 1.235 . S
O290 Co280 2.021 . S
O290 C287 1.238 . S
O291 Co285 2.052 . S
O291 C287 1.241 . S
O292 Co280 2.137 . S
O292 C283 1.247 . S
O293 Co280 2.244 . S
O293 C283 1.272 . S
O293 Co285 2.135 . S
Co294 O295 2.216 . S
Co294 O296 2.091 . S
Co294 O298 2.004 . S
Co294 O304 2.021 . S
Co294 O306 2.137 . S
Co294 O307 2.244 . S
O295 Co294 2.216 . S
O295 C302 1.247 . S
O296 Co294 2.091 . S
O296 C302 1.261 . S
C297 O306 1.247 . S
C297 O307 1.272 . S
O298 Co294 2.004 . S
O298 C303 1.259 . S
Co299 O300 2.061 . S
Co299 O305 2.052 . S
Co299 O307 2.135 . S
O300 Co299 2.061 . S
O300 C303 1.235 . S
C301 O304 1.238 . S
C301 O305 1.241 . S
C302 O295 1.247 . S
C302 O296 1.261 . S
C303 O298 1.259 . S
C303 O300 1.235 . S
O304 Co294 2.021 . S
O304 C301 1.238 . S
O305 Co299 2.052 . S
O305 C301 1.241 . S
O306 Co294 2.137 . S
O306 C297 1.247 . S
O307 Co294 2.244 . S
O307 C297 1.272 . S
O307 Co299 2.135 . S
Co308 O309 2.216 . S
Co308 O310 2.091 . S
Co308 O312 2.004 . S
Co308 O318 2.021 . S
Co308 O320 2.137 . S
Co308 O321 2.244 . S
O309 Co308 2.216 . S
O309 C316 1.247 . S
O310 Co308 2.091 . S
O310 C316 1.261 . S
C311 O320 1.247 . S
C311 O321 1.272 . S
O312 Co308 2.004 . S
O312 C317 1.259 . S
Co313 O314 2.061 . S
Co313 O319 2.052 . S
Co313 O321 2.135 . S
O314 Co313 2.061 . S
O314 C317 1.235 . S
C315 O318 1.238 . S
C315 O319 1.241 . S
C316 O309 1.247 . S
C316 O310 1.261 . S
C317 O312 1.259 . S
C317 O314 1.235 . S
O318 Co308 2.021 . S
O318 C315 1.238 . S
O319 Co313 2.052 . S
O319 C315 1.241 . S
O320 Co308 2.137 . S
O320 C311 1.247 . S
O321 Co308 2.244 . S
O321 C311 1.272 . S
O321 Co313 2.135 . S
Co322 O323 2.216 . S
Co322 O324 2.091 . S
Co322 O326 2.004 . S
Co322 O332 2.021 . S
Co322 O334 2.137 . S
Co322 O335 2.244 . S
O323 Co322 2.216 . S
O323 C330 1.247 . S
O324 Co322 2.091 . S
O324 C330 1.261 . S
C325 O334 1.247 . S
C325 O335 1.272 . S
O326 Co322 2.004 . S
O326 C331 1.259 . S
Co327 O328 2.061 . S
Co327 O333 2.052 . S
Co327 O335 2.135 . S
O328 Co327 2.061 . S
O328 C331 1.235 . S
C329 O332 1.238 . S
C329 O333 1.241 . S
C330 O323 1.247 . S
C330 O324 1.261 . S
C331 O326 1.259 . S
C331 O328 1.235 . S
O332 Co322 2.021 . S
O332 C329 1.238 . S
O333 Co327 2.052 . S
O333 C329 1.241 . S
O334 Co322 2.137 . S
O334 C325 1.247 . S
O335 Co322 2.244 . S
O335 C325 1.272 . S
O335 Co327 2.135 . S
C336 C337 1.391 . S
C336 C338 1.394 . S
C336 H352 0.931 . S
C337 C336 1.391 . S
C337 C341 1.376 . S
C338 C336 1.394 . S
C338 C339 1.369 . S
C338 C342 1.531 . S
C339 C338 1.369 . S
C339 C340 1.410 . S
C339 C347 1.503 . S
C340 C339 1.410 . S
C340 C341 1.392 . S
C340 C343 1.511 . S
C341 C337 1.376 . S
C341 C340 1.392 . S
C341 H353 0.929 . S
C342 C338 1.531 . S
C342 H354 0.960 . S
C342 H355 0.962 . S
C342 H356 0.960 . S
C343 C340 1.511 . S
C343 H357 0.961 . S
C343 H358 0.961 . S
C343 H359 0.961 . S
C344 C345 1.370 . S
C344 C346 1.363 . S
C344 H360 0.931 . S
C345 C344 1.370 . S
C345 C349 1.408 . S
C346 C344 1.363 . S
C346 C347 1.370 . S
C346 C350 1.524 . S
C347 C339 1.503 . S
C347 C346 1.370 . S
C347 C348 1.403 . S
C348 C347 1.403 . S
C348 C349 1.404 . S
C348 C351 1.539 . S
C349 C345 1.408 . S
C349 C348 1.404 . S
C349 H361 0.930 . S
C350 C346 1.524 . S
C350 H362 0.956 . S
C350 H363 0.961 . S
C350 H364 0.961 . S
C351 C348 1.539 . S
C351 H365 0.958 . S
C351 H366 0.961 . S
C351 H367 0.960 . S
H352 C336 0.931 . S
H353 C341 0.929 . S
H354 C342 0.960 . S
H355 C342 0.962 . S
H356 C342 0.960 . S
H357 C343 0.961 . S
H358 C343 0.961 . S
H359 C343 0.961 . S
H360 C344 0.931 . S
H361 C349 0.930 . S
H362 C350 0.956 . S
H363 C350 0.961 . S
H364 C350 0.961 . S
H365 C351 0.958 . S
H366 C351 0.961 . S
H367 C351 0.960 . S
C368 C369 1.391 . S
C368 C370 1.394 . S
C368 H384 0.931 . S
C369 C368 1.391 . S
C369 C373 1.376 . S
C370 C368 1.394 . S
C370 C371 1.369 . S
C370 C374 1.531 . S
C371 C370 1.369 . S
C371 C372 1.410 . S
C371 C379 1.503 . S
C372 C371 1.410 . S
C372 C373 1.392 . S
C372 C375 1.511 . S
C373 C369 1.376 . S
C373 C372 1.392 . S
C373 H385 0.929 . S
C374 C370 1.531 . S
C374 H386 0.960 . S
C374 H387 0.962 . S
C374 H388 0.960 . S
C375 C372 1.511 . S
C375 H389 0.961 . S
C375 H390 0.961 . S
C375 H391 0.961 . S
C376 C377 1.370 . S
C376 C378 1.363 . S
C376 H392 0.931 . S
C377 C376 1.370 . S
C377 C381 1.408 . S
C378 C376 1.363 . S
C378 C379 1.370 . S
C378 C382 1.524 . S
C379 C371 1.503 . S
C379 C378 1.370 . S
C379 C380 1.403 . S
C380 C379 1.403 . S
C380 C381 1.404 . S
C380 C383 1.539 . S
C381 C377 1.408 . S
C381 C380 1.404 . S
C381 H393 0.930 . S
C382 C378 1.524 . S
C382 H394 0.956 . S
C382 H395 0.961 . S
C382 H396 0.961 . S
C383 C380 1.539 . S
C383 H397 0.958 . S
C383 H398 0.961 . S
C383 H399 0.960 . S
H384 C368 0.931 . S
H385 C373 0.929 . S
H386 C374 0.960 . S
H387 C374 0.962 . S
H388 C374 0.960 . S
H389 C375 0.961 . S
H390 C375 0.961 . S
H391 C375 0.961 . S
H392 C376 0.931 . S
H393 C381 0.930 . S
H394 C382 0.956 . S
H395 C382 0.961 . S
H396 C382 0.961 . S
H397 C383 0.958 . S
H398 C383 0.961 . S
H399 C383 0.960 . S
C400 C401 1.391 . S
C400 C402 1.394 . S
C400 H416 0.931 . S
C401 C400 1.391 . S
C401 C405 1.376 . S
C402 C400 1.394 . S
C402 C403 1.369 . S
C402 C406 1.531 . S
C403 C402 1.369 . S
C403 C404 1.410 . S
C403 C411 1.503 . S
C404 C403 1.410 . S
C404 C405 1.392 . S
C404 C407 1.511 . S
C405 C401 1.376 . S
C405 C404 1.392 . S
C405 H417 0.929 . S
C406 C402 1.531 . S
C406 H418 0.960 . S
C406 H419 0.962 . S
C406 H420 0.960 . S
C407 C404 1.511 . S
C407 H421 0.961 . S
C407 H422 0.961 . S
C407 H423 0.961 . S
C408 C409 1.370 . S
C408 C410 1.363 . S
C408 H424 0.931 . S
C409 C408 1.370 . S
C409 C413 1.408 . S
C410 C408 1.363 . S
C410 C411 1.370 . S
C410 C414 1.524 . S
C411 C403 1.503 . S
C411 C410 1.370 . S
C411 C412 1.403 . S
C412 C411 1.403 . S
C412 C413 1.404 . S
C412 C415 1.539 . S
C413 C409 1.408 . S
C413 C412 1.404 . S
C413 H425 0.930 . S
C414 C410 1.524 . S
C414 H426 0.956 . S
C414 H427 0.961 . S
C414 H428 0.961 . S
C415 C412 1.539 . S
C415 H429 0.958 . S
C415 H430 0.961 . S
C415 H431 0.960 . S
H416 C400 0.931 . S
H417 C405 0.929 . S
H418 C406 0.960 . S
H419 C406 0.962 . S
H420 C406 0.960 . S
H421 C407 0.961 . S
H422 C407 0.961 . S
H423 C407 0.961 . S
H424 C408 0.931 . S
H425 C413 0.930 . S
H426 C414 0.956 . S
H427 C414 0.961 . S
H428 C414 0.961 . S
H429 C415 0.958 . S
H430 C415 0.961 . S
H431 C415 0.960 . S
C432 C433 1.391 . S
C432 C434 1.394 . S
C432 H448 0.931 . S
C433 C432 1.391 . S
C433 C437 1.376 . S
C434 C432 1.394 . S
C434 C435 1.369 . S
C434 C438 1.531 . S
C435 C434 1.369 . S
C435 C436 1.410 . S
C435 C443 1.503 . S
C436 C435 1.410 . S
C436 C437 1.392 . S
C436 C439 1.511 . S
C437 C433 1.376 . S
C437 C436 1.392 . S
C437 H449 0.929 . S
C438 C434 1.531 . S
C438 H450 0.960 . S
C438 H451 0.962 . S
C438 H452 0.960 . S
C439 C436 1.511 . S
C439 H453 0.961 . S
C439 H454 0.961 . S
C439 H455 0.961 . S
C440 C441 1.370 . S
C440 C442 1.363 . S
C440 H456 0.931 . S
C441 C440 1.370 . S
C441 C445 1.408 . S
C442 C440 1.363 . S
C442 C443 1.370 . S
C442 C446 1.524 . S
C443 C435 1.503 . S
C443 C442 1.370 . S
C443 C444 1.403 . S
C444 C443 1.403 . S
C444 C445 1.404 . S
C444 C447 1.539 . S
C445 C441 1.408 . S
C445 C444 1.404 . S
C445 H457 0.930 . S
C446 C442 1.524 . S
C446 H458 0.956 . S
C446 H459 0.961 . S
C446 H460 0.961 . S
C447 C444 1.539 . S
C447 H461 0.958 . S
C447 H462 0.961 . S
C447 H463 0.960 . S
H448 C432 0.931 . S
H449 C437 0.929 . S
H450 C438 0.960 . S
H451 C438 0.962 . S
H452 C438 0.960 . S
H453 C439 0.961 . S
H454 C439 0.961 . S
H455 C439 0.961 . S
H456 C440 0.931 . S
H457 C445 0.930 . S
H458 C446 0.956 . S
H459 C446 0.961 . S
H460 C446 0.961 . S
H461 C447 0.958 . S
H462 C447 0.961 . S
H463 C447 0.960 . S
C464 C465 1.391 . S
C464 C466 1.394 . S
C464 H480 0.931 . S
C465 C464 1.391 . S
C465 C469 1.376 . S
C466 C464 1.394 . S
C466 C467 1.369 . S
C466 C470 1.531 . S
C467 C466 1.369 . S
C467 C468 1.410 . S
C467 C475 1.503 . S
C468 C467 1.410 . S
C468 C469 1.392 . S
C468 C471 1.511 . S
C469 C465 1.376 . S
C469 C468 1.392 . S
C469 H481 0.929 . S
C470 C466 1.531 . S
C470 H482 0.960 . S
C470 H483 0.962 . S
C470 H484 0.960 . S
C471 C468 1.511 . S
C471 H485 0.961 . S
C471 H486 0.961 . S
C471 H487 0.961 . S
C472 C473 1.370 . S
C472 C474 1.363 . S
C472 H488 0.931 . S
C473 C472 1.370 . S
C473 C477 1.408 . S
C474 C472 1.363 . S
C474 C475 1.370 . S
C474 C478 1.524 . S
C475 C467 1.503 . S
C475 C474 1.370 . S
C475 C476 1.403 . S
C476 C475 1.403 . S
C476 C477 1.404 . S
C476 C479 1.539 . S
C477 C473 1.408 . S
C477 C476 1.404 . S
C477 H489 0.930 . S
C478 C474 1.524 . S
C478 H490 0.956 . S
C478 H491 0.961 . S
C478 H492 0.961 . S
C479 C476 1.539 . S
C479 H493 0.958 . S
C479 H494 0.961 . S
C479 H495 0.960 . S
H480 C464 0.931 . S
H481 C469 0.929 . S
H482 C470 0.960 . S
H483 C470 0.962 . S
H484 C470 0.960 . S
H485 C471 0.961 . S
H486 C471 0.961 . S
H487 C471 0.961 . S
H488 C472 0.931 . S
H489 C477 0.930 . S
H490 C478 0.956 . S
H491 C478 0.961 . S
H492 C478 0.961 . S
H493 C479 0.958 . S
H494 C479 0.961 . S
H495 C479 0.960 . S
C496 C497 1.391 . S
C496 C498 1.394 . S
C496 H512 0.931 . S
C497 C496 1.391 . S
C497 C501 1.376 . S
C498 C496 1.394 . S
C498 C499 1.369 . S
C498 C502 1.531 . S
C499 C498 1.369 . S
C499 C500 1.410 . S
C499 C507 1.503 . S
C500 C499 1.410 . S
C500 C501 1.392 . S
C500 C503 1.511 . S
C501 C497 1.376 . S
C501 C500 1.392 . S
C501 H513 0.929 . S
C502 C498 1.531 . S
C502 H514 0.960 . S
C502 H515 0.962 . S
C502 H516 0.960 . S
C503 C500 1.511 . S
C503 H517 0.961 . S
C503 H518 0.961 . S
C503 H519 0.961 . S
C504 C505 1.370 . S
C504 C506 1.363 . S
C504 H520 0.931 . S
C505 C504 1.370 . S
C505 C509 1.408 . S
C506 C504 1.363 . S
C506 C507 1.370 . S
C506 C510 1.524 . S
C507 C499 1.503 . S
C507 C506 1.370 . S
C507 C508 1.403 . S
C508 C507 1.403 . S
C508 C509 1.404 . S
C508 C511 1.539 . S
C509 C505 1.408 . S
C509 C508 1.404 . S
C509 H521 0.930 . S
C510 C506 1.524 . S
C510 H522 0.956 . S
C510 H523 0.961 . S
C510 H524 0.961 . S
C511 C508 1.539 . S
C511 H525 0.958 . S
C511 H526 0.961 . S
C511 H527 0.960 . S
H512 C496 0.931 . S
H513 C501 0.929 . S
H514 C502 0.960 . S
H515 C502 0.962 . S
H516 C502 0.960 . S
H517 C503 0.961 . S
H518 C503 0.961 . S
H519 C503 0.961 . S
H520 C504 0.931 . S
H521 C509 0.930 . S
H522 C510 0.956 . S
H523 C510 0.961 . S
H524 C510 0.961 . S
H525 C511 0.958 . S
H526 C511 0.961 . S
H527 C511 0.960 . S
C528 C529 1.391 . S
C528 C530 1.394 . S
C528 H544 0.931 . S
C529 C528 1.391 . S
C529 C533 1.376 . S
C530 C528 1.394 . S
C530 C531 1.369 . S
C530 C534 1.531 . S
C531 C530 1.369 . S
C531 C532 1.410 . S
C531 C539 1.503 . S
C532 C531 1.410 . S
C532 C533 1.392 . S
C532 C535 1.511 . S
C533 C529 1.376 . S
C533 C532 1.392 . S
C533 H545 0.929 . S
C534 C530 1.531 . S
C534 H546 0.960 . S
C534 H547 0.962 . S
C534 H548 0.960 . S
C535 C532 1.511 . S
C535 H549 0.961 . S
C535 H550 0.961 . S
C535 H551 0.961 . S
C536 C537 1.370 . S
C536 C538 1.363 . S
C536 H552 0.931 . S
C537 C536 1.370 . S
C537 C541 1.408 . S
C538 C536 1.363 . S
C538 C539 1.370 . S
C538 C542 1.524 . S
C539 C531 1.503 . S
C539 C538 1.370 . S
C539 C540 1.403 . S
C540 C539 1.403 . S
C540 C541 1.404 . S
C540 C543 1.539 . S
C541 C537 1.408 . S
C541 C540 1.404 . S
C541 H553 0.930 . S
C542 C538 1.524 . S
C542 H554 0.956 . S
C542 H555 0.961 . S
C542 H556 0.961 . S
C543 C540 1.539 . S
C543 H557 0.958 . S
C543 H558 0.961 . S
C543 H559 0.960 . S
H544 C528 0.931 . S
H545 C533 0.929 . S
H546 C534 0.960 . S
H547 C534 0.962 . S
H548 C534 0.960 . S
H549 C535 0.961 . S
H550 C535 0.961 . S
H551 C535 0.961 . S
H552 C536 0.931 . S
H553 C541 0.930 . S
H554 C542 0.956 . S
H555 C542 0.961 . S
H556 C542 0.961 . S
H557 C543 0.958 . S
H558 C543 0.961 . S
H559 C543 0.960 . S
C560 C561 1.391 . S
C560 C562 1.394 . S
C560 H576 0.931 . S
C561 C560 1.391 . S
C561 C565 1.376 . S
C562 C560 1.394 . S
C562 C563 1.369 . S
C562 C566 1.531 . S
C563 C562 1.369 . S
C563 C564 1.410 . S
C563 C571 1.503 . S
C564 C563 1.410 . S
C564 C565 1.392 . S
C564 C567 1.511 . S
C565 C561 1.376 . S
C565 C564 1.392 . S
C565 H577 0.929 . S
C566 C562 1.531 . S
C566 H578 0.960 . S
C566 H579 0.962 . S
C566 H580 0.960 . S
C567 C564 1.511 . S
C567 H581 0.961 . S
C567 H582 0.961 . S
C567 H583 0.961 . S
C568 C569 1.370 . S
C568 C570 1.363 . S
C568 H584 0.931 . S
C569 C568 1.370 . S
C569 C573 1.408 . S
C570 C568 1.363 . S
C570 C571 1.370 . S
C570 C574 1.524 . S
C571 C563 1.503 . S
C571 C570 1.370 . S
C571 C572 1.403 . S
C572 C571 1.403 . S
C572 C573 1.404 . S
C572 C575 1.539 . S
C573 C569 1.408 . S
C573 C572 1.404 . S
C573 H585 0.930 . S
C574 C570 1.524 . S
C574 H586 0.956 . S
C574 H587 0.961 . S
C574 H588 0.961 . S
C575 C572 1.539 . S
C575 H589 0.958 . S
C575 H590 0.961 . S
C575 H591 0.960 . S
H576 C560 0.931 . S
H577 C565 0.929 . S
H578 C566 0.960 . S
H579 C566 0.962 . S
H580 C566 0.960 . S
H581 C567 0.961 . S
H582 C567 0.961 . S
H583 C567 0.961 . S
H584 C568 0.931 . S
H585 C573 0.930 . S
H586 C574 0.956 . S
H587 C574 0.961 . S
H588 C574 0.961 . S
H589 C575 0.958 . S
H590 C575 0.961 . S
H591 C575 0.960 . S
C592 C593 1.391 . S
C592 C594 1.394 . S
C592 H608 0.931 . S
C593 C592 1.391 . S
C593 C597 1.376 . S
C594 C592 1.394 . S
C594 C595 1.369 . S
C594 C598 1.531 . S
C595 C594 1.369 . S
C595 C596 1.410 . S
C595 C603 1.503 . S
C596 C595 1.410 . S
C596 C597 1.392 . S
C596 C599 1.511 . S
C597 C593 1.376 . S
C597 C596 1.392 . S
C597 H609 0.929 . S
C598 C594 1.531 . S
C598 H610 0.960 . S
C598 H611 0.962 . S
C598 H612 0.960 . S
C599 C596 1.511 . S
C599 H613 0.961 . S
C599 H614 0.961 . S
C599 H615 0.961 . S
C600 C601 1.370 . S
C600 C602 1.363 . S
C600 H616 0.931 . S
C601 C600 1.370 . S
C601 C605 1.408 . S
C602 C600 1.363 . S
C602 C603 1.370 . S
C602 C606 1.524 . S
C603 C595 1.503 . S
C603 C602 1.370 . S
C603 C604 1.403 . S
C604 C603 1.403 . S
C604 C605 1.404 . S
C604 C607 1.539 . S
C605 C601 1.408 . S
C605 C604 1.404 . S
C605 H617 0.930 . S
C606 C602 1.524 . S
C606 H618 0.956 . S
C606 H619 0.961 . S
C606 H620 0.961 . S
C607 C604 1.539 . S
C607 H621 0.958 . S
C607 H622 0.961 . S
C607 H623 0.960 . S
H608 C592 0.931 . S
H609 C597 0.929 . S
H610 C598 0.960 . S
H611 C598 0.962 . S
H612 C598 0.960 . S
H613 C599 0.961 . S
H614 C599 0.961 . S
H615 C599 0.961 . S
H616 C600 0.931 . S
H617 C605 0.930 . S
H618 C606 0.956 . S
H619 C606 0.961 . S
H620 C606 0.961 . S
H621 C607 0.958 . S
H622 C607 0.961 . S
H623 C607 0.960 . S
C624 C625 1.391 . S
C624 C626 1.394 . S
C624 H640 0.931 . S
C625 C624 1.391 . S
C625 C629 1.376 . S
C626 C624 1.394 . S
C626 C627 1.369 . S
C626 C630 1.531 . S
C627 C626 1.369 . S
C627 C628 1.410 . S
C627 C635 1.503 . S
C628 C627 1.410 . S
C628 C629 1.392 . S
C628 C631 1.511 . S
C629 C625 1.376 . S
C629 C628 1.392 . S
C629 H641 0.929 . S
C630 C626 1.531 . S
C630 H642 0.960 . S
C630 H643 0.962 . S
C630 H644 0.960 . S
C631 C628 1.511 . S
C631 H645 0.961 . S
C631 H646 0.961 . S
C631 H647 0.961 . S
C632 C633 1.370 . S
C632 C634 1.363 . S
C632 H648 0.931 . S
C633 C632 1.370 . S
C633 C637 1.408 . S
C634 C632 1.363 . S
C634 C635 1.370 . S
C634 C638 1.524 . S
C635 C627 1.503 . S
C635 C634 1.370 . S
C635 C636 1.403 . S
C636 C635 1.403 . S
C636 C637 1.404 . S
C636 C639 1.539 . S
C637 C633 1.408 . S
C637 C636 1.404 . S
C637 H649 0.930 . S
C638 C634 1.524 . S
C638 H650 0.956 . S
C638 H651 0.961 . S
C638 H652 0.961 . S
C639 C636 1.539 . S
C639 H653 0.958 . S
C639 H654 0.961 . S
C639 H655 0.960 . S
H640 C624 0.931 . S
H641 C629 0.929 . S
H642 C630 0.960 . S
H643 C630 0.962 . S
H644 C630 0.960 . S
H645 C631 0.961 . S
H646 C631 0.961 . S
H647 C631 0.961 . S
H648 C632 0.931 . S
H649 C637 0.930 . S
H650 C638 0.956 . S
H651 C638 0.961 . S
H652 C638 0.961 . S
H653 C639 0.958 . S
H654 C639 0.961 . S
H655 C639 0.960 . S
C656 C657 1.391 . S
C656 C658 1.394 . S
C656 H672 0.931 . S
C657 C656 1.391 . S
C657 C661 1.376 . S
C658 C656 1.394 . S
C658 C659 1.369 . S
C658 C662 1.531 . S
C659 C658 1.369 . S
C659 C660 1.410 . S
C659 C667 1.503 . S
C660 C659 1.410 . S
C660 C661 1.392 . S
C660 C663 1.511 . S
C661 C657 1.376 . S
C661 C660 1.392 . S
C661 H673 0.929 . S
C662 C658 1.531 . S
C662 H674 0.960 . S
C662 H675 0.962 . S
C662 H676 0.960 . S
C663 C660 1.511 . S
C663 H677 0.961 . S
C663 H678 0.961 . S
C663 H679 0.961 . S
C664 C665 1.370 . S
C664 C666 1.363 . S
C664 H680 0.931 . S
C665 C664 1.370 . S
C665 C669 1.408 . S
C666 C664 1.363 . S
C666 C667 1.370 . S
C666 C670 1.524 . S
C667 C659 1.503 . S
C667 C666 1.370 . S
C667 C668 1.403 . S
C668 C667 1.403 . S
C668 C669 1.404 . S
C668 C671 1.539 . S
C669 C665 1.408 . S
C669 C668 1.404 . S
C669 H681 0.930 . S
C670 C666 1.524 . S
C670 H682 0.956 . S
C670 H683 0.961 . S
C670 H684 0.961 . S
C671 C668 1.539 . S
C671 H685 0.958 . S
C671 H686 0.961 . S
C671 H687 0.960 . S
H672 C656 0.931 . S
H673 C661 0.929 . S
H674 C662 0.960 . S
H675 C662 0.962 . S
H676 C662 0.960 . S
H677 C663 0.961 . S
H678 C663 0.961 . S
H679 C663 0.961 . S
H680 C664 0.931 . S
H681 C669 0.930 . S
H682 C670 0.956 . S
H683 C670 0.961 . S
H684 C670 0.961 . S
H685 C671 0.958 . S
H686 C671 0.961 . S
H687 C671 0.960 . S
C688 C689 1.391 . S
C688 C690 1.394 . S
C688 H704 0.931 . S
C689 C688 1.391 . S
C689 C693 1.376 . S
C690 C688 1.394 . S
C690 C691 1.369 . S
C690 C694 1.531 . S
C691 C690 1.369 . S
C691 C692 1.410 . S
C691 C699 1.503 . S
C692 C691 1.410 . S
C692 C693 1.392 . S
C692 C695 1.511 . S
C693 C689 1.376 . S
C693 C692 1.392 . S
C693 H705 0.929 . S
C694 C690 1.531 . S
C694 H706 0.960 . S
C694 H707 0.962 . S
C694 H708 0.960 . S
C695 C692 1.511 . S
C695 H709 0.961 . S
C695 H710 0.961 . S
C695 H711 0.961 . S
C696 C697 1.370 . S
C696 C698 1.363 . S
C696 H712 0.931 . S
C697 C696 1.370 . S
C697 C701 1.408 . S
C698 C696 1.363 . S
C698 C699 1.370 . S
C698 C702 1.524 . S
C699 C691 1.503 . S
C699 C698 1.370 . S
C699 C700 1.403 . S
C700 C699 1.403 . S
C700 C701 1.404 . S
C700 C703 1.539 . S
C701 C697 1.408 . S
C701 C700 1.404 . S
C701 H713 0.930 . S
C702 C698 1.524 . S
C702 H714 0.956 . S
C702 H715 0.961 . S
C702 H716 0.961 . S
C703 C700 1.539 . S
C703 H717 0.958 . S
C703 H718 0.961 . S
C703 H719 0.960 . S
H704 C688 0.931 . S
H705 C693 0.929 . S
H706 C694 0.960 . S
H707 C694 0.962 . S
H708 C694 0.960 . S
H709 C695 0.961 . S
H710 C695 0.961 . S
H711 C695 0.961 . S
H712 C696 0.931 . S
H713 C701 0.930 . S
H714 C702 0.956 . S
H715 C702 0.961 . S
H716 C702 0.961 . S
H717 C703 0.958 . S
H718 C703 0.961 . S
H719 C703 0.960 . S
C720 C721 1.391 . S
C720 C722 1.394 1_556 S
C720 H736 0.931 . S
C721 C720 1.391 . S
C721 C725 1.376 . S
C722 C720 1.394 1_554 S
C722 C723 1.369 1_554 S
C722 C726 1.531 . S
C723 C722 1.369 1_556 S
C723 C724 1.410 . S
C723 C731 1.503 1_556 S
C724 C723 1.410 . S
C724 C725 1.392 . S
C724 C727 1.511 . S
C725 C721 1.376 . S
C725 C724 1.392 . S
C725 H737 0.929 . S
C726 C722 1.531 . S
C726 H738 0.960 . S
C726 H739 0.962 . S
C726 H740 0.960 . S
C727 C724 1.511 . S
C727 H741 0.961 . S
C727 H742 0.961 . S
C727 H743 0.961 . S
C728 C729 1.370 . S
C728 C730 1.363 . S
C728 H744 0.931 . S
C729 C728 1.370 . S
C729 C733 1.408 . S
C730 C728 1.363 . S
C730 C731 1.370 . S
C730 C734 1.524 1_554 S
C731 C723 1.503 1_554 S
C731 C730 1.370 . S
C731 C732 1.403 . S
C732 C731 1.403 . S
C732 C733 1.404 . S
C732 C735 1.539 . S
C733 C729 1.408 . S
C733 C732 1.404 . S
C733 H745 0.930 . S
C734 C730 1.524 1_556 S
C734 H746 0.956 . S
C734 H747 0.961 . S
C734 H748 0.961 . S
C735 C732 1.539 . S
C735 H749 0.958 . S
C735 H750 0.961 . S
C735 H751 0.960 . S
H736 C720 0.931 . S
H737 C725 0.929 . S
H738 C726 0.960 . S
H739 C726 0.962 . S
H740 C726 0.960 . S
H741 C727 0.961 . S
H742 C727 0.961 . S
H743 C727 0.961 . S
H744 C728 0.931 . S
H745 C733 0.930 . S
H746 C734 0.956 . S
H747 C734 0.961 . S
H748 C734 0.961 . S
H749 C735 0.958 . S
H750 C735 0.961 . S
H751 C735 0.960 . S
C752 C753 1.391 . S
C752 C754 1.394 . S
C752 H768 0.931 . S
C753 C752 1.391 . S
C753 C757 1.376 . S
C754 C752 1.394 . S
C754 C755 1.369 . S
C754 C758 1.531 . S
C755 C754 1.369 . S
C755 C756 1.410 . S
C755 C763 1.503 . S
C756 C755 1.410 . S
C756 C757 1.392 . S
C756 C759 1.511 . S
C757 C753 1.376 . S
C757 C756 1.392 . S
C757 H769 0.929 . S
C758 C754 1.531 . S
C758 H770 0.960 . S
C758 H771 0.962 . S
C758 H772 0.960 . S
C759 C756 1.511 . S
C759 H773 0.961 . S
C759 H774 0.961 . S
C759 H775 0.961 . S
C760 C761 1.370 . S
C760 C762 1.363 . S
C760 H776 0.931 . S
C761 C760 1.370 . S
C761 C765 1.408 . S
C762 C760 1.363 . S
C762 C763 1.370 . S
C762 C766 1.524 . S
C763 C755 1.503 . S
C763 C762 1.370 . S
C763 C764 1.403 . S
C764 C763 1.403 . S
C764 C765 1.404 . S
C764 C767 1.539 . S
C765 C761 1.408 . S
C765 C764 1.404 . S
C765 H777 0.930 . S
C766 C762 1.524 . S
C766 H778 0.956 . S
C766 H779 0.961 . S
C766 H780 0.961 . S
C767 C764 1.539 . S
C767 H781 0.958 . S
C767 H782 0.961 . S
C767 H783 0.960 . S
H768 C752 0.931 . S
H769 C757 0.929 . S
H770 C758 0.960 . S
H771 C758 0.962 . S
H772 C758 0.960 . S
H773 C759 0.961 . S
H774 C759 0.961 . S
H775 C759 0.961 . S
H776 C760 0.931 . S
H777 C765 0.930 . S
H778 C766 0.956 . S
H779 C766 0.961 . S
H780 C766 0.961 . S
H781 C767 0.958 . S
H782 C767 0.961 . S
H783 C767 0.960 . S
C784 C785 1.391 . S
C784 C786 1.394 . S
C784 H800 0.931 . S
C785 C784 1.391 . S
C785 C789 1.376 . S
C786 C784 1.394 . S
C786 C787 1.369 . S
C786 C790 1.531 . S
C787 C786 1.369 . S
C787 C788 1.410 . S
C787 C795 1.503 1_554 S
C788 C787 1.410 . S
C788 C789 1.392 . S
C788 C791 1.511 1_554 S
C789 C785 1.376 . S
C789 C788 1.392 . S
C789 H801 0.929 . S
C790 C786 1.531 . S
C790 H802 0.960 . S
C790 H803 0.962 . S
C790 H804 0.960 . S
C791 C788 1.511 1_556 S
C791 H805 0.961 . S
C791 H806 0.961 . S
C791 H807 0.961 . S
C792 C793 1.370 . S
C792 C794 1.363 . S
C792 H808 0.931 . S
C793 C792 1.370 . S
C793 C797 1.408 . S
C794 C792 1.363 . S
C794 C795 1.370 . S
C794 C798 1.524 . S
C795 C787 1.503 1_556 S
C795 C794 1.370 . S
C795 C796 1.403 1_556 S
C796 C795 1.403 1_554 S
C796 C797 1.404 1_554 S
C796 C799 1.539 . S
C797 C793 1.408 . S
C797 C796 1.404 1_556 S
C797 H809 0.930 . S
C798 C794 1.524 . S
C798 H810 0.956 . S
C798 H811 0.961 . S
C798 H812 0.961 . S
C799 C796 1.539 . S
C799 H813 0.958 . S
C799 H814 0.961 . S
C799 H815 0.960 . S
H800 C784 0.931 . S
H801 C789 0.929 . S
H802 C790 0.960 . S
H803 C790 0.962 . S
H804 C790 0.960 . S
H805 C791 0.961 . S
H806 C791 0.961 . S
H807 C791 0.961 . S
H808 C792 0.931 . S
H809 C797 0.930 . S
H810 C798 0.956 . S
H811 C798 0.961 . S
H812 C798 0.961 . S
H813 C799 0.958 . S
H814 C799 0.961 . S
H815 C799 0.960 . S
C816 C817 1.391 . S
C816 C818 1.394 . S
C816 H832 0.931 . S
C817 C816 1.391 . S
C817 C821 1.376 . S
C818 C816 1.394 . S
C818 C819 1.369 . S
C818 C822 1.531 . S
C819 C818 1.369 . S
C819 C820 1.410 . S
C819 C827 1.503 . S
C820 C819 1.410 . S
C820 C821 1.392 . S
C820 C823 1.511 . S
C821 C817 1.376 . S
C821 C820 1.392 . S
C821 H833 0.929 . S
C822 C818 1.531 . S
C822 H834 0.960 . S
C822 H835 0.962 . S
C822 H836 0.960 . S
C823 C820 1.511 . S
C823 H837 0.961 . S
C823 H838 0.961 . S
C823 H839 0.961 . S
C824 C825 1.370 . S
C824 C826 1.363 . S
C824 H840 0.931 . S
C825 C824 1.370 . S
C825 C829 1.408 . S
C826 C824 1.363 . S
C826 C827 1.370 . S
C826 C830 1.524 . S
C827 C819 1.503 . S
C827 C826 1.370 . S
C827 C828 1.403 . S
C828 C827 1.403 . S
C828 C829 1.404 . S
C828 C831 1.539 . S
C829 C825 1.408 . S
C829 C828 1.404 . S
C829 H841 0.930 . S
C830 C826 1.524 . S
C830 H842 0.956 . S
C830 H843 0.961 . S
C830 H844 0.961 . S
C831 C828 1.539 . S
C831 H845 0.958 . S
C831 H846 0.961 . S
C831 H847 0.960 . S
H832 C816 0.931 . S
H833 C821 0.929 . S
H834 C822 0.960 . S
H835 C822 0.962 . S
H836 C822 0.960 . S
H837 C823 0.961 . S
H838 C823 0.961 . S
H839 C823 0.961 . S
H840 C824 0.931 . S
H841 C829 0.930 . S
H842 C830 0.956 . S
H843 C830 0.961 . S
H844 C830 0.961 . S
H845 C831 0.958 . S
H846 C831 0.961 . S
H847 C831 0.960 . S
C848 C849 1.391 . S
C848 C850 1.394 1_556 S
C848 H864 0.931 . S
C849 C848 1.391 . S
C849 C853 1.376 . S
C850 C848 1.394 1_554 S
C850 C851 1.369 1_554 S
C850 C854 1.531 . S
C851 C850 1.369 1_556 S
C851 C852 1.410 . S
C851 C859 1.503 1_556 S
C852 C851 1.410 . S
C852 C853 1.392 . S
C852 C855 1.511 . S
C853 C849 1.376 . S
C853 C852 1.392 . S
C853 H865 0.929 . S
C854 C850 1.531 . S
C854 H866 0.960 . S
C854 H867 0.962 . S
C854 H868 0.960 . S
C855 C852 1.511 . S
C855 H869 0.961 . S
C855 H870 0.961 . S
C855 H871 0.961 . S
C856 C857 1.370 . S
C856 C858 1.363 . S
C856 H872 0.931 . S
C857 C856 1.370 . S
C857 C861 1.408 . S
C858 C856 1.363 . S
C858 C859 1.370 . S
C858 C862 1.524 1_554 S
C859 C851 1.503 1_554 S
C859 C858 1.370 . S
C859 C860 1.403 . S
C860 C859 1.403 . S
C860 C861 1.404 . S
C860 C863 1.539 . S
C861 C857 1.408 . S
C861 C860 1.404 . S
C861 H873 0.930 . S
C862 C858 1.524 1_556 S
C862 H874 0.956 . S
C862 H875 0.961 . S
C862 H876 0.961 . S
C863 C860 1.539 . S
C863 H877 0.958 . S
C863 H878 0.961 . S
C863 H879 0.960 . S
H864 C848 0.931 . S
H865 C853 0.929 . S
H866 C854 0.960 . S
H867 C854 0.962 . S
H868 C854 0.960 . S
H869 C855 0.961 . S
H870 C855 0.961 . S
H871 C855 0.961 . S
H872 C856 0.931 . S
H873 C861 0.930 . S
H874 C862 0.956 . S
H875 C862 0.961 . S
H876 C862 0.961 . S
H877 C863 0.958 . S
H878 C863 0.961 . S
H879 C863 0.960 . S
C880 C881 1.391 . S
C880 C882 1.394 . S
C880 H896 0.931 . S
C881 C880 1.391 . S
C881 C885 1.376 . S
C882 C880 1.394 . S
C882 C883 1.369 . S
C882 C886 1.531 . S
C883 C882 1.369 . S
C883 C884 1.410 . S
C883 C891 1.503 . S
C884 C883 1.410 . S
C884 C885 1.392 . S
C884 C887 1.511 . S
C885 C881 1.376 . S
C885 C884 1.392 . S
C885 H897 0.929 . S
C886 C882 1.531 . S
C886 H898 0.960 . S
C886 H899 0.962 . S
C886 H900 0.960 . S
C887 C884 1.511 . S
C887 H901 0.961 . S
C887 H902 0.961 . S
C887 H903 0.961 . S
C888 C889 1.370 . S
C888 C890 1.363 . S
C888 H904 0.931 . S
C889 C888 1.370 . S
C889 C893 1.408 . S
C890 C888 1.363 . S
C890 C891 1.370 . S
C890 C894 1.524 . S
C891 C883 1.503 . S
C891 C890 1.370 . S
C891 C892 1.403 . S
C892 C891 1.403 . S
C892 C893 1.404 . S
C892 C895 1.539 . S
C893 C889 1.408 . S
C893 C892 1.404 . S
C893 H905 0.930 . S
C894 C890 1.524 . S
C894 H906 0.956 . S
C894 H907 0.961 . S
C894 H908 0.961 . S
C895 C892 1.539 . S
C895 H909 0.958 . S
C895 H910 0.961 . S
C895 H911 0.960 . S
H896 C880 0.931 . S
H897 C885 0.929 . S
H898 C886 0.960 . S
H899 C886 0.962 . S
H900 C886 0.960 . S
H901 C887 0.961 . S
H902 C887 0.961 . S
H903 C887 0.961 . S
H904 C888 0.931 . S
H905 C893 0.930 . S
H906 C894 0.956 . S
H907 C894 0.961 . S
H908 C894 0.961 . S
H909 C895 0.958 . S
H910 C895 0.961 . S
H911 C895 0.960 . S
C912 C913 1.391 . S
C912 C914 1.394 1_554 S
C912 H928 0.931 1_554 S
C913 C912 1.391 . S
C913 C917 1.376 . S
C914 C912 1.394 1_556 S
C914 C915 1.369 1_556 S
C914 C918 1.531 . S
C915 C914 1.369 1_554 S
C915 C916 1.410 . S
C915 C923 1.503 1_554 S
C916 C915 1.410 . S
C916 C917 1.392 . S
C916 C919 1.511 . S
C917 C913 1.376 . S
C917 C916 1.392 . S
C917 H929 0.929 . S
C918 C914 1.531 . S
C918 H930 0.960 . S
C918 H931 0.962 . S
C918 H932 0.960 . S
C919 C916 1.511 . S
C919 H933 0.961 . S
C919 H934 0.961 . S
C919 H935 0.961 . S
C920 C921 1.370 . S
C920 C922 1.363 . S
C920 H936 0.931 . S
C921 C920 1.370 . S
C921 C925 1.408 . S
C922 C920 1.363 . S
C922 C923 1.370 . S
C922 C926 1.524 . S
C923 C915 1.503 1_556 S
C923 C922 1.370 . S
C923 C924 1.403 . S
C924 C923 1.403 . S
C924 C925 1.404 . S
C924 C927 1.539 . S
C925 C921 1.408 . S
C925 C924 1.404 . S
C925 H937 0.930 . S
C926 C922 1.524 . S
C926 H938 0.956 . S
C926 H939 0.961 1_556 S
C926 H940 0.961 . S
C927 C924 1.539 . S
C927 H941 0.958 . S
C927 H942 0.961 1_556 S
C927 H943 0.960 1_556 S
H928 C912 0.931 1_556 S
H929 C917 0.929 . S
H930 C918 0.960 . S
H931 C918 0.962 . S
H932 C918 0.960 . S
H933 C919 0.961 . S
H934 C919 0.961 . S
H935 C919 0.961 . S
H936 C920 0.931 . S
H937 C925 0.930 . S
H938 C926 0.956 . S
H939 C926 0.961 1_554 S
H940 C926 0.961 . S
H941 C927 0.958 . S
H942 C927 0.961 1_554 S
H943 C927 0.960 1_554 S
C944 C945 1.391 . S
C944 C946 1.394 . S
C944 H960 0.931 . S
C945 C944 1.391 . S
C945 C949 1.376 . S
C946 C944 1.394 . S
C946 C947 1.369 . S
C946 C950 1.531 . S
C947 C946 1.369 . S
C947 C948 1.410 . S
C947 C955 1.503 . S
C948 C947 1.410 . S
C948 C949 1.392 . S
C948 C951 1.511 . S
C949 C945 1.376 . S
C949 C948 1.392 . S
C949 H961 0.929 . S
C950 C946 1.531 . S
C950 H962 0.960 . S
C950 H963 0.962 . S
C950 H964 0.960 . S
C951 C948 1.511 . S
C951 H965 0.961 . S
C951 H966 0.961 . S
C951 H967 0.961 . S
C952 C953 1.370 . S
C952 C954 1.363 . S
C952 H968 0.931 . S
C953 C952 1.370 . S
C953 C957 1.408 . S
C954 C952 1.363 . S
C954 C955 1.370 . S
C954 C958 1.524 . S
C955 C947 1.503 . S
C955 C954 1.370 . S
C955 C956 1.403 . S
C956 C955 1.403 . S
C956 C957 1.404 . S
C956 C959 1.539 . S
C957 C953 1.408 . S
C957 C956 1.404 . S
C957 H969 0.930 . S
C958 C954 1.524 . S
C958 H970 0.956 . S
C958 H971 0.961 . S
C958 H972 0.961 . S
C959 C956 1.539 . S
C959 H973 0.958 . S
C959 H974 0.961 . S
C959 H975 0.960 . S
H960 C944 0.931 . S
H961 C949 0.929 . S
H962 C950 0.960 . S
H963 C950 0.962 . S
H964 C950 0.960 . S
H965 C951 0.961 . S
H966 C951 0.961 . S
H967 C951 0.961 . S
H968 C952 0.931 . S
H969 C957 0.930 . S
H970 C958 0.956 . S
H971 C958 0.961 . S
H972 C958 0.961 . S
H973 C959 0.958 . S
H974 C959 0.961 . S
H975 C959 0.960 . S
C976 C977 1.391 . S
C976 C978 1.394 . S
C976 H992 0.931 . S
C977 C976 1.391 . S
C977 C981 1.376 . S
C978 C976 1.394 . S
C978 C979 1.369 . S
C978 C982 1.531 . S
C979 C978 1.369 . S
C979 C980 1.410 . S
C979 C987 1.503 1_556 S
C980 C979 1.410 . S
C980 C981 1.392 . S
C980 C983 1.511 . S
C981 C977 1.376 . S
C981 C980 1.392 . S
C981 H993 0.929 . S
C982 C978 1.531 . S
C982 H994 0.960 . S
C982 H995 0.962 . S
C982 H996 0.960 . S
C983 C980 1.511 . S
C983 H997 0.961 . S
C983 H998 0.961 1_556 S
C983 H999 0.961 . S
C984 C985 1.370 . S
C984 C986 1.363 . S
C984 H1000 0.931 . S
C985 C984 1.370 . S
C985 C989 1.408 . S
C986 C984 1.363 . S
C986 C987 1.370 . S
C986 C990 1.524 . S
C987 C979 1.503 1_554 S
C987 C986 1.370 . S
C987 C988 1.403 1_554 S
C988 C987 1.403 1_556 S
C988 C989 1.404 1_556 S
C988 C991 1.539 . S
C989 C985 1.408 . S
C989 C988 1.404 1_554 S
C989 H1001 0.930 1_554 S
C990 C986 1.524 . S
C990 H1002 0.956 . S
C990 H1003 0.961 . S
C990 H1004 0.961 . S
C991 C988 1.539 . S
C991 H1005 0.958 . S
C991 H1006 0.961 . S
C991 H1007 0.960 . S
H992 C976 0.931 . S
H993 C981 0.929 . S
H994 C982 0.960 . S
H995 C982 0.962 . S
H996 C982 0.960 . S
H997 C983 0.961 . S
H998 C983 0.961 1_554 S
H999 C983 0.961 . S
H1000 C984 0.931 . S
H1001 C989 0.930 1_556 S
H1002 C990 0.956 . S
H1003 C990 0.961 . S
H1004 C990 0.961 . S
H1005 C991 0.958 . S
H1006 C991 0.961 . S
H1007 C991 0.960 . S
C1008 C1009 1.391 . S
C1008 C1010 1.394 . S
C1008 H1024 0.931 . S
C1009 C1008 1.391 . S
C1009 C1013 1.376 . S
C1010 C1008 1.394 . S
C1010 C1011 1.369 . S
C1010 C1014 1.531 . S
C1011 C1010 1.369 . S
C1011 C1012 1.410 . S
C1011 C1019 1.503 . S
C1012 C1011 1.410 . S
C1012 C1013 1.392 . S
C1012 C1015 1.511 . S
C1013 C1009 1.376 . S
C1013 C1012 1.392 . S
C1013 H1025 0.929 . S
C1014 C1010 1.531 . S
C1014 H1026 0.960 . S
C1014 H1027 0.962 . S
C1014 H1028 0.960 . S
C1015 C1012 1.511 . S
C1015 H1029 0.961 . S
C1015 H1030 0.961 . S
C1015 H1031 0.961 . S
C1016 C1017 1.370 . S
C1016 C1018 1.363 . S
C1016 H1032 0.931 . S
C1017 C1016 1.370 . S
C1017 C1021 1.408 . S
C1018 C1016 1.363 . S
C1018 C1019 1.370 . S
C1018 C1022 1.524 . S
C1019 C1011 1.503 . S
C1019 C1018 1.370 . S
C1019 C1020 1.403 . S
C1020 C1019 1.403 . S
C1020 C1021 1.404 . S
C1020 C1023 1.539 . S
C1021 C1017 1.408 . S
C1021 C1020 1.404 . S
C1021 H1033 0.930 . S
C1022 C1018 1.524 . S
C1022 H1034 0.956 . S
C1022 H1035 0.961 . S
C1022 H1036 0.961 . S
C1023 C1020 1.539 . S
C1023 H1037 0.958 . S
C1023 H1038 0.961 . S
C1023 H1039 0.960 . S
H1024 C1008 0.931 . S
H1025 C1013 0.929 . S
H1026 C1014 0.960 . S
H1027 C1014 0.962 . S
H1028 C1014 0.960 . S
H1029 C1015 0.961 . S
H1030 C1015 0.961 . S
H1031 C1015 0.961 . S
H1032 C1016 0.931 . S
H1033 C1021 0.930 . S
H1034 C1022 0.956 . S
H1035 C1022 0.961 . S
H1036 C1022 0.961 . S
H1037 C1023 0.958 . S
H1038 C1023 0.961 . S
H1039 C1023 0.960 . S
C1040 C1041 1.391 . S
C1040 C1042 1.394 . S
C1040 H1056 0.931 . S
C1041 C1040 1.391 . S
C1041 C1045 1.376 . S
C1042 C1040 1.394 . S
C1042 C1043 1.369 . S
C1042 C1046 1.531 . S
C1043 C1042 1.369 . S
C1043 C1044 1.410 1_556 S
C1043 C1051 1.503 1_556 S
C1044 C1043 1.410 1_554 S
C1044 C1045 1.392 1_554 S
C1044 C1047 1.511 . S
C1045 C1041 1.376 . S
C1045 C1044 1.392 1_556 S
C1045 H1057 0.929 . S
C1046 C1042 1.531 . S
C1046 H1058 0.960 . S
C1046 H1059 0.962 . S
C1046 H1060 0.960 . S
C1047 C1044 1.511 . S
C1047 H1061 0.961 . S
C1047 H1062 0.961 . S
C1047 H1063 0.961 . S
C1048 C1049 1.370 . S
C1048 C1050 1.363 . S
C1048 H1064 0.931 . S
C1049 C1048 1.370 . S
C1049 C1053 1.408 . S
C1050 C1048 1.363 . S
C1050 C1051 1.370 . S
C1050 C1054 1.524 . S
C1051 C1043 1.503 1_554 S
C1051 C1050 1.370 . S
C1051 C1052 1.403 . S
C1052 C1051 1.403 . S
C1052 C1053 1.404 . S
C1052 C1055 1.539 1_554 S
C1053 C1049 1.408 . S
C1053 C1052 1.404 . S
C1053 H1065 0.930 . S
C1054 C1050 1.524 . S
C1054 H1066 0.956 . S
C1054 H1067 0.961 . S
C1054 H1068 0.961 . S
C1055 C1052 1.539 1_556 S
C1055 H1069 0.958 . S
C1055 H1070 0.961 . S
C1055 H1071 0.960 . S
H1056 C1040 0.931 . S
H1057 C1045 0.929 . S
H1058 C1046 0.960 . S
H1059 C1046 0.962 . S
H1060 C1046 0.960 . S
H1061 C1047 0.961 . S
H1062 C1047 0.961 . S
H1063 C1047 0.961 . S
H1064 C1048 0.931 . S
H1065 C1053 0.930 . S
H1066 C1054 0.956 . S
H1067 C1054 0.961 . S
H1068 C1054 0.961 . S
H1069 C1055 0.958 . S
H1070 C1055 0.961 . S
H1071 C1055 0.960 . S
C1072 C1073 1.391 . S
C1072 C1074 1.394 . S
C1072 H1088 0.931 . S
C1073 C1072 1.391 . S
C1073 C1077 1.376 . S
C1074 C1072 1.394 . S
C1074 C1075 1.369 . S
C1074 C1078 1.531 . S
C1075 C1074 1.369 . S
C1075 C1076 1.410 . S
C1075 C1083 1.503 . S
C1076 C1075 1.410 . S
C1076 C1077 1.392 . S
C1076 C1079 1.511 . S
C1077 C1073 1.376 . S
C1077 C1076 1.392 . S
C1077 H1089 0.929 . S
C1078 C1074 1.531 . S
C1078 H1090 0.960 . S
C1078 H1091 0.962 . S
C1078 H1092 0.960 . S
C1079 C1076 1.511 . S
C1079 H1093 0.961 . S
C1079 H1094 0.961 . S
C1079 H1095 0.961 . S
C1080 C1081 1.370 . S
C1080 C1082 1.363 . S
C1080 H1096 0.931 . S
C1081 C1080 1.370 . S
C1081 C1085 1.408 . S
C1082 C1080 1.363 . S
C1082 C1083 1.370 . S
C1082 C1086 1.524 . S
C1083 C1075 1.503 . S
C1083 C1082 1.370 . S
C1083 C1084 1.403 . S
C1084 C1083 1.403 . S
C1084 C1085 1.404 . S
C1084 C1087 1.539 . S
C1085 C1081 1.408 . S
C1085 C1084 1.404 . S
C1085 H1097 0.930 . S
C1086 C1082 1.524 . S
C1086 H1098 0.956 . S
C1086 H1099 0.961 . S
C1086 H1100 0.961 . S
C1087 C1084 1.539 . S
C1087 H1101 0.958 . S
C1087 H1102 0.961 . S
C1087 H1103 0.960 . S
H1088 C1072 0.931 . S
H1089 C1077 0.929 . S
H1090 C1078 0.960 . S
H1091 C1078 0.962 . S
H1092 C1078 0.960 . S
H1093 C1079 0.961 . S
H1094 C1079 0.961 . S
H1095 C1079 0.961 . S
H1096 C1080 0.931 . S
H1097 C1085 0.930 . S
H1098 C1086 0.956 . S
H1099 C1086 0.961 . S
H1100 C1086 0.961 . S
H1101 C1087 0.958 . S
H1102 C1087 0.961 . S
H1103 C1087 0.960 . S
C1104 C1105 1.391 . S
C1104 C1106 1.394 . S
C1104 H1120 0.931 . S
C1105 C1104 1.391 . S
C1105 C1109 1.376 . S
C1106 C1104 1.394 . S
C1106 C1107 1.369 . S
C1106 C1110 1.531 . S
C1107 C1106 1.369 . S
C1107 C1108 1.410 . S
C1107 C1115 1.503 . S
C1108 C1107 1.410 . S
C1108 C1109 1.392 . S
C1108 C1111 1.511 . S
C1109 C1105 1.376 . S
C1109 C1108 1.392 . S
C1109 H1121 0.929 . S
C1110 C1106 1.531 . S
C1110 H1122 0.960 . S
C1110 H1123 0.962 . S
C1110 H1124 0.960 . S
C1111 C1108 1.511 . S
C1111 H1125 0.961 . S
C1111 H1126 0.961 . S
C1111 H1127 0.961 . S
C1112 C1113 1.370 . S
C1112 C1114 1.363 . S
C1112 H1128 0.931 . S
C1113 C1112 1.370 . S
C1113 C1117 1.408 . S
C1114 C1112 1.363 . S
C1114 C1115 1.370 . S
C1114 C1118 1.524 . S
C1115 C1107 1.503 . S
C1115 C1114 1.370 . S
C1115 C1116 1.403 . S
C1116 C1115 1.403 . S
C1116 C1117 1.404 . S
C1116 C1119 1.539 . S
C1117 C1113 1.408 . S
C1117 C1116 1.404 . S
C1117 H1129 0.930 . S
C1118 C1114 1.524 . S
C1118 H1130 0.956 . S
C1118 H1131 0.961 . S
C1118 H1132 0.961 . S
C1119 C1116 1.539 . S
C1119 H1133 0.958 . S
C1119 H1134 0.961 . S
C1119 H1135 0.960 . S
H1120 C1104 0.931 . S
H1121 C1109 0.929 . S
H1122 C1110 0.960 . S
H1123 C1110 0.962 . S
H1124 C1110 0.960 . S
H1125 C1111 0.961 . S
H1126 C1111 0.961 . S
H1127 C1111 0.961 . S
H1128 C1112 0.931 . S
H1129 C1117 0.930 . S
H1130 C1118 0.956 . S
H1131 C1118 0.961 . S
H1132 C1118 0.961 . S
H1133 C1119 0.958 . S
H1134 C1119 0.961 . S
H1135 C1119 0.960 . S
C1136 C1137 1.391 . S
C1136 C1138 1.394 . S
C1136 H1152 0.931 . S
C1137 C1136 1.391 . S
C1137 C1141 1.376 . S
C1138 C1136 1.394 . S
C1138 C1139 1.369 . S
C1138 C1142 1.531 . S
C1139 C1138 1.369 . S
C1139 C1140 1.410 . S
C1139 C1147 1.503 1_455 S
C1140 C1139 1.410 . S
C1140 C1141 1.392 . S
C1140 C1143 1.511 . S
C1141 C1137 1.376 . S
C1141 C1140 1.392 . S
C1141 H1153 0.929 . S
C1142 C1138 1.531 . S
C1142 H1154 0.960 1_455 S
C1142 H1155 0.962 . S
C1142 H1156 0.960 . S
C1143 C1140 1.511 . S
C1143 H1157 0.961 . S
C1143 H1158 0.961 1_455 S
C1143 H1159 0.961 . S
C1144 C1145 1.370 . S
C1144 C1146 1.363 . S
C1144 H1160 0.931 . S
C1145 C1144 1.370 . S
C1145 C1149 1.408 . S
C1146 C1144 1.363 . S
C1146 C1147 1.370 . S
C1146 C1150 1.524 . S
C1147 C1139 1.503 1_655 S
C1147 C1146 1.370 . S
C1147 C1148 1.403 . S
C1148 C1147 1.403 . S
C1148 C1149 1.404 . S
C1148 C1151 1.539 . S
C1149 C1145 1.408 . S
C1149 C1148 1.404 . S
C1149 H1161 0.930 . S
C1150 C1146 1.524 . S
C1150 H1162 0.956 . S
C1150 H1163 0.961 1_655 S
C1150 H1164 0.961 . S
C1151 C1148 1.539 . S
C1151 H1165 0.958 . S
C1151 H1166 0.961 . S
C1151 H1167 0.970 . S
H1152 C1136 0.931 . S
H1153 C1141 0.929 . S
H1154 C1142 0.960 1_655 S
H1155 C1142 0.962 . S
H1156 C1142 0.960 . S
H1157 C1143 0.961 . S
H1158 C1143 0.961 1_655 S
H1159 C1143 0.961 . S
H1160 C1144 0.931 . S
H1161 C1149 0.930 . S
H1162 C1150 0.956 . S
H1163 C1150 0.961 1_455 S
H1164 C1150 0.961 . S
H1165 C1151 0.958 . S
H1166 C1151 0.961 . S
H1167 C1151 0.970 . S
C1168 C1169 1.391 . S
C1168 C1170 1.394 . S
C1168 H1184 0.931 . S
C1169 C1168 1.391 . S
C1169 C1173 1.376 . S
C1170 C1168 1.394 . S
C1170 C1171 1.369 . S
C1170 C1174 1.531 . S
C1171 C1170 1.369 . S
C1171 C1172 1.410 . S
C1171 C1179 1.503 1_565 S
C1172 C1171 1.410 . S
C1172 C1173 1.392 . S
C1172 C1175 1.511 . S
C1173 C1169 1.376 . S
C1173 C1172 1.392 . S
C1173 H1185 0.929 . S
C1174 C1170 1.531 . S
C1174 H1186 0.960 1_565 S
C1174 H1187 0.962 . S
C1174 H1188 0.960 . S
C1175 C1172 1.511 . S
C1175 H1189 0.961 . S
C1175 H1190 0.961 1_565 S
C1175 H1191 0.961 . S
C1176 C1177 1.370 . S
C1176 C1178 1.363 . S
C1176 H1192 0.931 . S
C1177 C1176 1.370 . S
C1177 C1181 1.408 . S
C1178 C1176 1.363 . S
C1178 C1179 1.370 . S
C1178 C1182 1.524 . S
C1179 C1171 1.503 1_545 S
C1179 C1178 1.370 . S
C1179 C1180 1.403 . S
C1180 C1179 1.403 . S
C1180 C1181 1.404 . S
C1180 C1183 1.539 . S
C1181 C1177 1.408 . S
C1181 C1180 1.404 . S
C1181 H1193 0.930 . S
C1182 C1178 1.524 . S
C1182 H1194 0.956 . S
C1182 H1195 0.961 1_545 S
C1182 H1196 0.961 . S
C1183 C1180 1.539 . S
C1183 H1197 0.958 . S
C1183 H1198 0.961 . S
C1183 H1199 0.968 . S
H1184 C1168 0.931 . S
H1185 C1173 0.929 . S
H1186 C1174 0.960 1_545 S
H1187 C1174 0.962 . S
H1188 C1174 0.960 . S
H1189 C1175 0.961 . S
H1190 C1175 0.961 1_545 S
H1191 C1175 0.961 . S
H1192 C1176 0.931 . S
H1193 C1181 0.930 . S
H1194 C1182 0.956 . S
H1195 C1182 0.961 1_565 S
H1196 C1182 0.961 . S
H1197 C1183 0.958 . S
H1198 C1183 0.961 . S
H1199 C1183 0.968 . S
C1200 C1201 1.391 . S
C1200 C1202 1.394 . S
C1200 H1216 0.931 . S
C1201 C1200 1.391 . S
C1201 C1205 1.376 . S
C1202 C1200 1.394 . S
C1202 C1203 1.369 . S
C1202 C1206 1.531 . S
C1203 C1202 1.369 . S
C1203 C1204 1.410 . S
C1203 C1211 1.503 . S
C1204 C1203 1.410 . S
C1204 C1205 1.392 . S
C1204 C1207 1.511 . S
C1205 C1201 1.376 . S
C1205 C1204 1.392 . S
C1205 H1217 0.929 . S
C1206 C1202 1.531 . S
C1206 H1218 0.960 . S
C1206 H1219 0.962 . S
C1206 H1220 0.960 . S
C1207 C1204 1.511 . S
C1207 H1221 0.961 . S
C1207 H1222 0.961 . S
C1207 H1223 0.961 . S
C1208 C1209 1.370 . S
C1208 C1210 1.363 . S
C1208 H1224 0.931 . S
C1209 C1208 1.370 . S
C1209 C1213 1.408 . S
C1210 C1208 1.363 . S
C1210 C1211 1.370 . S
C1210 C1214 1.524 . S
C1211 C1203 1.503 . S
C1211 C1210 1.370 . S
C1211 C1212 1.403 . S
C1212 C1211 1.403 . S
C1212 C1213 1.404 . S
C1212 C1215 1.539 . S
C1213 C1209 1.408 . S
C1213 C1212 1.404 . S
C1213 H1225 0.930 . S
C1214 C1210 1.524 . S
C1214 H1226 0.956 . S
C1214 H1227 0.961 . S
C1214 H1228 0.961 . S
C1215 C1212 1.539 . S
C1215 H1229 0.958 . S
C1215 H1230 0.961 . S
C1215 H1231 0.960 . S
H1216 C1200 0.931 . S
H1217 C1205 0.929 . S
H1218 C1206 0.960 . S
H1219 C1206 0.962 . S
H1220 C1206 0.960 . S
H1221 C1207 0.961 . S
H1222 C1207 0.961 . S
H1223 C1207 0.961 . S
H1224 C1208 0.931 . S
H1225 C1213 0.930 . S
H1226 C1214 0.956 . S
H1227 C1214 0.961 . S
H1228 C1214 0.961 . S
H1229 C1215 0.958 . S
H1230 C1215 0.961 . S
H1231 C1215 0.960 . S
C1232 C1233 1.391 . S
C1232 C1234 1.394 . S
C1232 H1248 0.931 . S
C1233 C1232 1.391 . S
C1233 C1237 1.376 . S
C1234 C1232 1.394 . S
C1234 C1235 1.369 . S
C1234 C1238 1.531 . S
C1235 C1234 1.369 . S
C1235 C1236 1.410 . S
C1235 C1243 1.503 1_655 S
C1236 C1235 1.410 . S
C1236 C1237 1.392 . S
C1236 C1239 1.511 . S
C1237 C1233 1.376 . S
C1237 C1236 1.392 . S
C1237 H1249 0.929 . S
C1238 C1234 1.531 . S
C1238 H1250 0.960 1_655 S
C1238 H1251 0.962 . S
C1238 H1252 0.960 . S
C1239 C1236 1.511 . S
C1239 H1253 0.961 . S
C1239 H1254 0.961 1_655 S
C1239 H1255 0.961 . S
C1240 C1241 1.370 . S
C1240 C1242 1.363 . S
C1240 H1256 0.931 . S
C1241 C1240 1.370 . S
C1241 C1245 1.408 . S
C1242 C1240 1.363 . S
C1242 C1243 1.370 . S
C1242 C1246 1.524 . S
C1243 C1235 1.503 1_455 S
C1243 C1242 1.370 . S
C1243 C1244 1.403 . S
C1244 C1243 1.403 . S
C1244 C1245 1.404 . S
C1244 C1247 1.539 . S
C1245 C1241 1.408 . S
C1245 C1244 1.404 . S
C1245 H1257 0.930 . S
C1246 C1242 1.524 . S
C1246 H1258 0.956 . S
C1246 H1259 0.961 1_455 S
C1246 H1260 0.961 . S
C1247 C1244 1.539 . S
C1247 H1261 0.958 . S
C1247 H1262 0.961 . S
C1247 H1263 0.973 . S
H1248 C1232 0.931 . S
H1249 C1237 0.929 . S
H1250 C1238 0.960 1_455 S
H1251 C1238 0.962 . S
H1252 C1238 0.960 . S
H1253 C1239 0.961 . S
H1254 C1239 0.961 1_455 S
H1255 C1239 0.961 . S
H1256 C1240 0.931 . S
H1257 C1245 0.930 . S
H1258 C1246 0.956 . S
H1259 C1246 0.961 1_655 S
H1260 C1246 0.961 . S
H1261 C1247 0.958 . S
H1262 C1247 0.961 . S
H1263 C1247 0.973 . S
C1264 C1265 1.391 . S
C1264 C1266 1.394 . S
C1264 H1280 0.931 . S
C1265 C1264 1.391 . S
C1265 C1269 1.376 . S
C1266 C1264 1.394 . S
C1266 C1267 1.369 . S
C1266 C1270 1.531 . S
C1267 C1266 1.369 . S
C1267 C1268 1.410 . S
C1267 C1275 1.503 1_545 S
C1268 C1267 1.410 . S
C1268 C1269 1.392 . S
C1268 C1271 1.511 . S
C1269 C1265 1.376 . S
C1269 C1268 1.392 . S
C1269 H1281 0.929 . S
C1270 C1266 1.531 . S
C1270 H1282 0.960 1_545 S
C1270 H1283 0.962 . S
C1270 H1284 0.960 . S
C1271 C1268 1.511 . S
C1271 H1285 0.961 . S
C1271 H1286 0.961 1_545 S
C1271 H1287 0.961 . S
C1272 C1273 1.370 . S
C1272 C1274 1.363 . S
C1272 H1288 0.931 . S
C1273 C1272 1.370 . S
C1273 C1277 1.408 . S
C1274 C1272 1.363 . S
C1274 C1275 1.370 . S
C1274 C1278 1.524 . S
C1275 C1267 1.503 1_565 S
C1275 C1274 1.370 . S
C1275 C1276 1.403 . S
C1276 C1275 1.403 . S
C1276 C1277 1.404 . S
C1276 C1279 1.539 . S
C1277 C1273 1.408 . S
C1277 C1276 1.404 . S
C1277 H1289 0.930 . S
C1278 C1274 1.524 . S
C1278 H1290 0.956 . S
C1278 H1291 0.961 1_565 S
C1278 H1292 0.961 . S
C1279 C1276 1.539 . S
C1279 H1293 0.958 . S
C1279 H1294 0.961 . S
C1279 H1295 0.967 . S
H1280 C1264 0.931 . S
H1281 C1269 0.929 . S
H1282 C1270 0.960 1_565 S
H1283 C1270 0.962 . S
H1284 C1270 0.960 . S
H1285 C1271 0.961 . S
H1286 C1271 0.961 1_565 S
H1287 C1271 0.961 . S
H1288 C1272 0.931 . S
H1289 C1277 0.930 . S
H1290 C1278 0.956 . S
H1291 C1278 0.961 1_545 S
H1292 C1278 0.961 . S
H1293 C1279 0.958 . S
H1294 C1279 0.961 . S
H1295 C1279 0.967 . S
C1296 C1297 1.391 . S
C1296 C1298 1.394 . S
C1296 H1312 0.931 . S
C1297 C1296 1.391 . S
C1297 C1301 1.376 . S
C1298 C1296 1.394 . S
C1298 C1299 1.369 . S
C1298 C1302 1.531 . S
C1299 C1298 1.369 . S
C1299 C1300 1.410 . S
C1299 C1307 1.503 . S
C1300 C1299 1.410 . S
C1300 C1301 1.392 . S
C1300 C1303 1.511 . S
C1301 C1297 1.376 . S
C1301 C1300 1.392 . S
C1301 H1313 0.929 . S
C1302 C1298 1.531 . S
C1302 H1314 0.960 . S
C1302 H1315 0.962 . S
C1302 H1316 0.960 . S
C1303 C1300 1.511 . S
C1303 H1317 0.961 . S
C1303 H1318 0.961 . S
C1303 H1319 0.961 . S
C1304 C1305 1.370 . S
C1304 C1306 1.363 . S
C1304 H1320 0.931 . S
C1305 C1304 1.370 . S
C1305 C1309 1.408 . S
C1306 C1304 1.363 . S
C1306 C1307 1.370 . S
C1306 C1310 1.524 . S
C1307 C1299 1.503 . S
C1307 C1306 1.370 . S
C1307 C1308 1.403 . S
C1308 C1307 1.403 . S
C1308 C1309 1.404 . S
C1308 C1311 1.539 . S
C1309 C1305 1.408 . S
C1309 C1308 1.404 . S
C1309 H1321 0.930 . S
C1310 C1306 1.524 . S
C1310 H1322 0.956 . S
C1310 H1323 0.961 . S
C1310 H1324 0.961 . S
C1311 C1308 1.539 . S
C1311 H1325 0.958 . S
C1311 H1326 0.961 . S
C1311 H1327 0.960 . S
H1312 C1296 0.931 . S
H1313 C1301 0.929 . S
H1314 C1302 0.960 . S
H1315 C1302 0.962 . S
H1316 C1302 0.960 . S
H1317 C1303 0.961 . S
H1318 C1303 0.961 . S
H1319 C1303 0.961 . S
H1320 C1304 0.931 . S
H1321 C1309 0.930 . S
H1322 C1310 0.956 . S
H1323 C1310 0.961 . S
H1324 C1310 0.961 . S
H1325 C1311 0.958 . S
H1326 C1311 0.961 . S
H1327 C1311 0.960 . S
C1328 C1329 1.391 . S
C1328 C1330 1.394 . S
C1328 H1344 0.931 . S
C1329 C1328 1.391 . S
C1329 C1333 1.376 . S
C1330 C1328 1.394 . S
C1330 C1331 1.369 . S
C1330 C1334 1.531 . S
C1331 C1330 1.369 . S
C1331 C1332 1.410 . S
C1331 C1339 1.503 1_655 S
C1332 C1331 1.410 . S
C1332 C1333 1.392 . S
C1332 C1335 1.511 . S
C1333 C1329 1.376 . S
C1333 C1332 1.392 . S
C1333 H1345 0.929 . S
C1334 C1330 1.531 . S
C1334 H1346 0.960 1_655 S
C1334 H1347 0.962 . S
C1334 H1348 0.960 . S
C1335 C1332 1.511 . S
C1335 H1349 0.961 . S
C1335 H1350 0.961 1_655 S
C1335 H1351 0.961 . S
C1336 C1337 1.370 . S
C1336 C1338 1.363 . S
C1336 H1352 0.931 . S
C1337 C1336 1.370 . S
C1337 C1341 1.408 . S
C1338 C1336 1.363 . S
C1338 C1339 1.370 . S
C1338 C1342 1.524 . S
C1339 C1331 1.503 1_455 S
C1339 C1338 1.370 . S
C1339 C1340 1.403 . S
C1340 C1339 1.403 . S
C1340 C1341 1.404 . S
C1340 C1343 1.539 . S
C1341 C1337 1.408 . S
C1341 C1340 1.404 . S
C1341 H1353 0.930 . S
C1342 C1338 1.524 . S
C1342 H1354 0.956 . S
C1342 H1355 0.961 1_455 S
C1342 H1356 0.961 . S
C1343 C1340 1.539 . S
C1343 H1357 0.958 . S
C1343 H1358 0.961 . S
C1343 H1359 0.973 . S
H1344 C1328 0.931 . S
H1345 C1333 0.929 . S
H1346 C1334 0.960 1_455 S
H1347 C1334 0.962 . S
H1348 C1334 0.960 . S
H1349 C1335 0.961 . S
H1350 C1335 0.961 1_455 S
H1351 C1335 0.961 . S
H1352 C1336 0.931 . S
H1353 C1341 0.930 . S
H1354 C1342 0.956 . S
H1355 C1342 0.961 1_655 S
H1356 C1342 0.961 . S
H1357 C1343 0.958 . S
H1358 C1343 0.961 . S
H1359 C1343 0.973 . S
C1360 C1361 1.391 . S
C1360 C1362 1.394 . S
C1360 H1376 0.931 . S
C1361 C1360 1.391 . S
C1361 C1365 1.376 . S
C1362 C1360 1.394 . S
C1362 C1363 1.369 . S
C1362 C1366 1.531 . S
C1363 C1362 1.369 . S
C1363 C1364 1.410 . S
C1363 C1371 1.503 1_545 S
C1364 C1363 1.410 . S
C1364 C1365 1.392 . S
C1364 C1367 1.511 . S
C1365 C1361 1.376 . S
C1365 C1364 1.392 . S
C1365 H1377 0.929 . S
C1366 C1362 1.531 . S
C1366 H1378 0.960 1_545 S
C1366 H1379 0.962 . S
C1366 H1380 0.960 . S
C1367 C1364 1.511 . S
C1367 H1381 0.961 . S
C1367 H1382 0.961 1_545 S
C1367 H1383 0.961 . S
C1368 C1369 1.370 . S
C1368 C1370 1.363 . S
C1368 H1384 0.931 . S
C1369 C1368 1.370 . S
C1369 C1373 1.408 . S
C1370 C1368 1.363 . S
C1370 C1371 1.370 . S
C1370 C1374 1.524 . S
C1371 C1363 1.503 1_565 S
C1371 C1370 1.370 . S
C1371 C1372 1.403 . S
C1372 C1371 1.403 . S
C1372 C1373 1.404 . S
C1372 C1375 1.539 . S
C1373 C1369 1.408 . S
C1373 C1372 1.404 . S
C1373 H1385 0.930 . S
C1374 C1370 1.524 . S
C1374 H1386 0.956 . S
C1374 H1387 0.961 1_565 S
C1374 H1388 0.961 . S
C1375 C1372 1.539 . S
C1375 H1389 0.958 . S
C1375 H1390 0.961 . S
C1375 H1391 0.970 . S
H1376 C1360 0.931 . S
H1377 C1365 0.929 . S
H1378 C1366 0.960 1_565 S
H1379 C1366 0.962 . S
H1380 C1366 0.960 . S
H1381 C1367 0.961 . S
H1382 C1367 0.961 1_565 S
H1383 C1367 0.961 . S
H1384 C1368 0.931 . S
H1385 C1373 0.930 . S
H1386 C1374 0.956 . S
H1387 C1374 0.961 1_545 S
H1388 C1374 0.961 . S
H1389 C1375 0.958 . S
H1390 C1375 0.961 . S
H1391 C1375 0.970 . S
C1392 C1393 1.391 . S
C1392 C1394 1.394 . S
C1392 H1408 0.931 . S
C1393 C1392 1.391 . S
C1393 C1397 1.376 . S
C1394 C1392 1.394 . S
C1394 C1395 1.369 . S
C1394 C1398 1.531 . S
C1395 C1394 1.369 . S
C1395 C1396 1.410 . S
C1395 C1403 1.503 . S
C1396 C1395 1.410 . S
C1396 C1397 1.392 . S
C1396 C1399 1.511 . S
C1397 C1393 1.376 . S
C1397 C1396 1.392 . S
C1397 H1409 0.929 . S
C1398 C1394 1.531 . S
C1398 H1410 0.960 . S
C1398 H1411 0.962 . S
C1398 H1412 0.960 . S
C1399 C1396 1.511 . S
C1399 H1413 0.961 . S
C1399 H1414 0.961 . S
C1399 H1415 0.961 . S
C1400 C1401 1.370 . S
C1400 C1402 1.363 . S
C1400 H1416 0.931 . S
C1401 C1400 1.370 . S
C1401 C1405 1.408 . S
C1402 C1400 1.363 . S
C1402 C1403 1.370 . S
C1402 C1406 1.524 . S
C1403 C1395 1.503 . S
C1403 C1402 1.370 . S
C1403 C1404 1.403 . S
C1404 C1403 1.403 . S
C1404 C1405 1.404 . S
C1404 C1407 1.539 . S
C1405 C1401 1.408 . S
C1405 C1404 1.404 . S
C1405 H1417 0.930 . S
C1406 C1402 1.524 . S
C1406 H1418 0.956 . S
C1406 H1419 0.961 . S
C1406 H1420 0.961 . S
C1407 C1404 1.539 . S
C1407 H1421 0.958 . S
C1407 H1422 0.961 . S
C1407 H1423 0.960 . S
H1408 C1392 0.931 . S
H1409 C1397 0.929 . S
H1410 C1398 0.960 . S
H1411 C1398 0.962 . S
H1412 C1398 0.960 . S
H1413 C1399 0.961 . S
H1414 C1399 0.961 . S
H1415 C1399 0.961 . S
H1416 C1400 0.931 . S
H1417 C1405 0.930 . S
H1418 C1406 0.956 . S
H1419 C1406 0.961 . S
H1420 C1406 0.961 . S
H1421 C1407 0.958 . S
H1422 C1407 0.961 . S
H1423 C1407 0.960 . S
C1424 C1425 1.391 . S
C1424 C1426 1.394 . S
C1424 H1440 0.931 . S
C1425 C1424 1.391 . S
C1425 C1429 1.376 . S
C1426 C1424 1.394 . S
C1426 C1427 1.369 . S
C1426 C1430 1.531 . S
C1427 C1426 1.369 . S
C1427 C1428 1.410 . S
C1427 C1435 1.503 1_455 S
C1428 C1427 1.410 . S
C1428 C1429 1.392 . S
C1428 C1431 1.511 . S
C1429 C1425 1.376 . S
C1429 C1428 1.392 . S
C1429 H1441 0.929 . S
C1430 C1426 1.531 . S
C1430 H1442 0.960 1_455 S
C1430 H1443 0.962 . S
C1430 H1444 0.960 . S
C1431 C1428 1.511 . S
C1431 H1445 0.961 . S
C1431 H1446 0.961 1_455 S
C1431 H1447 0.961 . S
C1432 C1433 1.370 . S
C1432 C1434 1.363 . S
C1432 H1448 0.931 . S
C1433 C1432 1.370 . S
C1433 C1437 1.408 . S
C1434 C1432 1.363 . S
C1434 C1435 1.370 . S
C1434 C1438 1.524 . S
C1435 C1427 1.503 1_655 S
C1435 C1434 1.370 . S
C1435 C1436 1.403 . S
C1436 C1435 1.403 . S
C1436 C1437 1.404 . S
C1436 C1439 1.539 . S
C1437 C1433 1.408 . S
C1437 C1436 1.404 . S
C1437 H1449 0.930 . S
C1438 C1434 1.524 . S
C1438 H1450 0.956 . S
C1438 H1451 0.961 1_655 S
C1438 H1452 0.961 . S
C1439 C1436 1.539 . S
C1439 H1453 0.958 . S
C1439 H1454 0.961 . S
C1439 H1455 0.968 . S
H1440 C1424 0.931 . S
H1441 C1429 0.929 . S
H1442 C1430 0.960 1_655 S
H1443 C1430 0.962 . S
H1444 C1430 0.960 . S
H1445 C1431 0.961 . S
H1446 C1431 0.961 1_655 S
H1447 C1431 0.961 . S
H1448 C1432 0.931 . S
H1449 C1437 0.930 . S
H1450 C1438 0.956 . S
H1451 C1438 0.961 1_455 S
H1452 C1438 0.961 . S
H1453 C1439 0.958 . S
H1454 C1439 0.961 . S
H1455 C1439 0.968 . S
C1456 C1457 1.391 . S
C1456 C1458 1.394 . S
C1456 H1472 0.931 . S
C1457 C1456 1.391 . S
C1457 C1461 1.376 . S
C1458 C1456 1.394 . S
C1458 C1459 1.369 . S
C1458 C1462 1.531 . S
C1459 C1458 1.369 . S
C1459 C1460 1.410 . S
C1459 C1467 1.503 1_565 S
C1460 C1459 1.410 . S
C1460 C1461 1.392 . S
C1460 C1463 1.511 . S
C1461 C1457 1.376 . S
C1461 C1460 1.392 . S
C1461 H1473 0.929 . S
C1462 C1458 1.531 . S
C1462 H1474 0.960 1_565 S
C1462 H1475 0.962 . S
C1462 H1476 0.960 . S
C1463 C1460 1.511 . S
C1463 H1477 0.961 . S
C1463 H1478 0.961 1_565 S
C1463 H1479 0.961 . S
C1464 C1465 1.370 . S
C1464 C1466 1.363 . S
C1464 H1480 0.931 . S
C1465 C1464 1.370 . S
C1465 C1469 1.408 . S
C1466 C1464 1.363 . S
C1466 C1467 1.370 . S
C1466 C1470 1.524 . S
C1467 C1459 1.503 1_545 S
C1467 C1466 1.370 . S
C1467 C1468 1.403 . S
C1468 C1467 1.403 . S
C1468 C1469 1.404 . S
C1468 C1471 1.539 . S
C1469 C1465 1.408 . S
C1469 C1468 1.404 . S
C1469 H1481 0.930 . S
C1470 C1466 1.524 . S
C1470 H1482 0.956 . S
C1470 H1483 0.961 1_545 S
C1470 H1484 0.961 . S
C1471 C1468 1.539 . S
C1471 H1485 0.958 . S
C1471 H1486 0.961 . S
C1471 H1487 0.973 . S
H1472 C1456 0.931 . S
H1473 C1461 0.929 . S
H1474 C1462 0.960 1_545 S
H1475 C1462 0.962 . S
H1476 C1462 0.960 . S
H1477 C1463 0.961 . S
H1478 C1463 0.961 1_545 S
H1479 C1463 0.961 . S
H1480 C1464 0.931 . S
H1481 C1469 0.930 . S
H1482 C1470 0.956 . S
H1483 C1470 0.961 1_565 S
H1484 C1470 0.961 . S
H1485 C1471 0.958 . S
H1486 C1471 0.961 . S
H1487 C1471 0.973 . S
C1488 C1489 1.391 . S
C1488 C1490 1.394 . S
C1488 H1504 0.931 . S
C1489 C1488 1.391 . S
C1489 C1493 1.376 . S
C1490 C1488 1.394 . S
C1490 C1491 1.369 . S
C1490 C1494 1.531 . S
C1491 C1490 1.369 . S
C1491 C1492 1.410 1_556 S
C1491 C1499 1.503 1_556 S
C1492 C1491 1.410 1_554 S
C1492 C1493 1.392 1_554 S
C1492 C1495 1.511 . S
C1493 C1489 1.376 . S
C1493 C1492 1.392 1_556 S
C1493 H1505 0.929 1_556 S
C1494 C1490 1.531 . S
C1494 H1506 0.960 . S
C1494 H1507 0.962 . S
C1494 H1508 0.960 . S
C1495 C1492 1.511 . S
C1495 H1509 0.961 . S
C1495 H1510 0.961 . S
C1495 H1511 0.961 . S
C1496 C1497 1.370 . S
C1496 C1498 1.363 . S
C1496 H1512 0.931 . S
C1497 C1496 1.370 . S
C1497 C1501 1.408 . S
C1498 C1496 1.363 . S
C1498 C1499 1.370 . S
C1498 C1502 1.524 . S
C1499 C1491 1.503 1_554 S
C1499 C1498 1.370 . S
C1499 C1500 1.406 . S
C1500 C1499 1.406 . S
C1500 C1501 1.416 . S
C1500 C1503 1.525 1_554 S
C1501 C1497 1.408 . S
C1501 C1500 1.416 . S
C1501 H1513 0.930 . S
C1502 C1498 1.524 . S
C1502 H1514 0.956 . S
C1502 H1515 0.961 . S
C1502 H1516 0.961 . S
C1503 C1500 1.525 1_556 S
C1503 H1517 0.958 . S
C1503 H1518 0.961 . S
C1503 H1519 0.960 . S
H1504 C1488 0.931 . S
H1505 C1493 0.929 1_554 S
H1506 C1494 0.960 . S
H1507 C1494 0.962 . S
H1508 C1494 0.960 . S
H1509 C1495 0.961 . S
H1510 C1495 0.961 . S
H1511 C1495 0.961 . S
H1512 C1496 0.931 . S
H1513 C1501 0.930 . S
H1514 C1502 0.956 . S
H1515 C1502 0.961 . S
H1516 C1502 0.961 . S
H1517 C1503 0.958 . S
H1518 C1503 0.961 . S
H1519 C1503 0.960 . S
C1520 C1521 1.391 . S
C1520 C1522 1.394 . S
C1520 H1536 0.931 . S
C1521 C1520 1.391 . S
C1521 C1525 1.376 . S
C1522 C1520 1.394 . S
C1522 C1523 1.369 . S
C1522 C1526 1.531 . S
C1523 C1522 1.369 . S
C1523 C1524 1.410 . S
C1523 C1531 1.503 . S
C1524 C1523 1.410 . S
C1524 C1525 1.392 . S
C1524 C1527 1.511 . S
C1525 C1521 1.376 . S
C1525 C1524 1.392 . S
C1525 H1537 0.929 . S
C1526 C1522 1.531 . S
C1526 H1538 0.960 . S
C1526 H1539 0.962 . S
C1526 H1540 0.960 . S
C1527 C1524 1.511 . S
C1527 H1541 0.961 . S
C1527 H1542 0.961 . S
C1527 H1543 0.961 . S
C1528 C1529 1.370 . S
C1528 C1530 1.363 . S
C1528 H1544 0.931 . S
C1529 C1528 1.370 . S
C1529 C1533 1.408 . S
C1530 C1528 1.363 . S
C1530 C1531 1.370 . S
C1530 C1534 1.524 . S
C1531 C1523 1.503 . S
C1531 C1530 1.370 . S
C1531 C1532 1.403 . S
C1532 C1531 1.403 . S
C1532 C1533 1.404 . S
C1532 C1535 1.539 . S
C1533 C1529 1.408 . S
C1533 C1532 1.404 . S
C1533 H1545 0.930 . S
C1534 C1530 1.524 . S
C1534 H1546 0.956 . S
C1534 H1547 0.961 . S
C1534 H1548 0.961 . S
C1535 C1532 1.539 . S
C1535 H1549 0.958 . S
C1535 H1550 0.961 . S
C1535 H1551 0.960 . S
H1536 C1520 0.931 . S
H1537 C1525 0.929 . S
H1538 C1526 0.960 . S
H1539 C1526 0.962 . S
H1540 C1526 0.960 . S
H1541 C1527 0.961 . S
H1542 C1527 0.961 . S
H1543 C1527 0.961 . S
H1544 C1528 0.931 . S
H1545 C1533 0.930 . S
H1546 C1534 0.956 . S
H1547 C1534 0.961 . S
H1548 C1534 0.961 . S
H1549 C1535 0.958 . S
H1550 C1535 0.961 . S
H1551 C1535 0.960 . S
C1552 C1553 1.391 . S
C1552 C1554 1.394 1_556 S
C1552 H1568 0.931 1_556 S
C1553 C1552 1.391 . S
C1553 C1557 1.376 . S
C1554 C1552 1.394 1_554 S
C1554 C1555 1.369 1_554 S
C1554 C1558 1.531 . S
C1555 C1554 1.369 1_556 S
C1555 C1556 1.410 . S
C1555 C1563 1.503 1_556 S
C1556 C1555 1.410 . S
C1556 C1557 1.392 . S
C1556 C1559 1.511 . S
C1557 C1553 1.376 . S
C1557 C1556 1.392 . S
C1557 H1569 0.929 . S
C1558 C1554 1.531 . S
C1558 H1570 0.960 . S
C1558 H1571 0.962 . S
C1558 H1572 0.960 . S
C1559 C1556 1.511 . S
C1559 H1573 0.961 . S
C1559 H1574 0.961 . S
C1559 H1575 0.961 . S
C1560 C1561 1.370 . S
C1560 C1562 1.363 . S
C1560 H1576 0.931 . S
C1561 C1560 1.370 . S
C1561 C1565 1.408 . S
C1562 C1560 1.363 . S
C1562 C1563 1.370 . S
C1562 C1566 1.524 1_554 S
C1563 C1555 1.503 1_554 S
C1563 C1562 1.370 . S
C1563 C1564 1.403 . S
C1564 C1563 1.403 . S
C1564 C1565 1.404 . S
C1564 C1567 1.539 . S
C1565 C1561 1.408 . S
C1565 C1564 1.404 . S
C1565 H1577 0.930 . S
C1566 C1562 1.524 1_556 S
C1566 H1578 0.951 1_556 S
C1566 H1579 0.961 . S
C1566 H1580 0.961 . S
C1567 C1564 1.539 . S
C1567 H1581 0.958 . S
C1567 H1582 0.961 . S
C1567 H1583 0.960 . S
H1568 C1552 0.931 1_554 S
H1569 C1557 0.929 . S
H1570 C1558 0.960 . S
H1571 C1558 0.962 . S
H1572 C1558 0.960 . S
H1573 C1559 0.961 . S
H1574 C1559 0.961 . S
H1575 C1559 0.961 . S
H1576 C1560 0.931 . S
H1577 C1565 0.930 . S
H1578 C1566 0.951 1_554 S
H1579 C1566 0.961 . S
H1580 C1566 0.961 . S
H1581 C1567 0.958 . S
H1582 C1567 0.961 . S
H1583 C1567 0.960 . S
C1584 C1585 1.391 . S
C1584 C1586 1.394 . S
C1584 H1600 0.931 . S
C1585 C1584 1.391 . S
C1585 C1589 1.376 . S
C1586 C1584 1.394 . S
C1586 C1587 1.369 . S
C1586 C1590 1.531 . S
C1587 C1586 1.369 . S
C1587 C1588 1.410 . S
C1587 C1595 1.503 . S
C1588 C1587 1.410 . S
C1588 C1589 1.392 . S
C1588 C1591 1.511 . S
C1589 C1585 1.376 . S
C1589 C1588 1.392 . S
C1589 H1601 0.929 . S
C1590 C1586 1.531 . S
C1590 H1602 0.960 . S
C1590 H1603 0.962 . S
C1590 H1604 0.960 . S
C1591 C1588 1.511 . S
C1591 H1605 0.961 . S
C1591 H1606 0.961 . S
C1591 H1607 0.961 . S
C1592 C1593 1.370 . S
C1592 C1594 1.363 . S
C1592 H1608 0.931 . S
C1593 C1592 1.370 . S
C1593 C1597 1.408 . S
C1594 C1592 1.363 . S
C1594 C1595 1.370 . S
C1594 C1598 1.524 . S
C1595 C1587 1.503 . S
C1595 C1594 1.370 . S
C1595 C1596 1.403 . S
C1596 C1595 1.403 . S
C1596 C1597 1.404 . S
C1596 C1599 1.539 . S
C1597 C1593 1.408 . S
C1597 C1596 1.404 . S
C1597 H1609 0.930 . S
C1598 C1594 1.524 . S
C1598 H1610 0.956 . S
C1598 H1611 0.961 . S
C1598 H1612 0.961 . S
C1599 C1596 1.539 . S
C1599 H1613 0.958 . S
C1599 H1614 0.961 . S
C1599 H1615 0.960 . S
H1600 C1584 0.931 . S
H1601 C1589 0.929 . S
H1602 C1590 0.960 . S
H1603 C1590 0.962 . S
H1604 C1590 0.960 . S
H1605 C1591 0.961 . S
H1606 C1591 0.961 . S
H1607 C1591 0.961 . S
H1608 C1592 0.931 . S
H1609 C1597 0.930 . S
H1610 C1598 0.956 . S
H1611 C1598 0.961 . S
H1612 C1598 0.961 . S
H1613 C1599 0.958 . S
H1614 C1599 0.961 . S
H1615 C1599 0.960 . S
C1616 C1617 1.391 . S
C1616 C1618 1.394 . S
C1616 H1632 0.931 . S
C1617 C1616 1.391 . S
C1617 C1621 1.376 . S
C1618 C1616 1.394 . S
C1618 C1619 1.369 . S
C1618 C1622 1.531 . S
C1619 C1618 1.369 . S
C1619 C1620 1.410 . S
C1619 C1627 1.503 1_556 S
C1620 C1619 1.410 . S
C1620 C1621 1.392 . S
C1620 C1623 1.511 1_556 S
C1621 C1617 1.376 . S
C1621 C1620 1.392 . S
C1621 H1633 0.929 . S
C1622 C1618 1.531 . S
C1622 H1634 0.960 . S
C1622 H1635 0.962 . S
C1622 H1636 0.960 . S
C1623 C1620 1.511 1_554 S
C1623 H1637 0.961 . S
C1623 H1638 0.961 . S
C1623 H1639 0.961 1_554 S
C1624 C1625 1.370 . S
C1624 C1626 1.363 . S
C1624 H1640 0.931 . S
C1625 C1624 1.370 . S
C1625 C1629 1.408 . S
C1626 C1624 1.363 . S
C1626 C1627 1.370 . S
C1626 C1630 1.524 . S
C1627 C1619 1.503 1_554 S
C1627 C1626 1.370 . S
C1627 C1628 1.403 1_554 S
C1628 C1627 1.403 1_556 S
C1628 C1629 1.404 1_556 S
C1628 C1631 1.539 . S
C1629 C1625 1.408 . S
C1629 C1628 1.404 1_554 S
C1629 H1641 0.930 1_554 S
C1630 C1626 1.524 . S
C1630 H1642 0.956 . S
C1630 H1643 0.961 . S
C1630 H1644 0.961 . S
C1631 C1628 1.539 . S
C1631 H1645 0.958 . S
C1631 H1646 0.961 . S
C1631 H1647 0.960 . S
H1632 C1616 0.931 . S
H1633 C1621 0.929 . S
H1634 C1622 0.960 . S
H1635 C1622 0.962 . S
H1636 C1622 0.960 . S
H1637 C1623 0.961 . S
H1638 C1623 0.961 . S
H1639 C1623 0.961 1_556 S
H1640 C1624 0.931 . S
H1641 C1629 0.930 1_556 S
H1642 C1630 0.956 . S
H1643 C1630 0.961 . S
H1644 C1630 0.961 . S
H1645 C1631 0.958 . S
H1646 C1631 0.961 . S
H1647 C1631 0.960 . S
C1648 C1649 1.391 . S
C1648 C1650 1.394 . S
C1648 H1664 0.931 . S
C1649 C1648 1.391 . S
C1649 C1653 1.376 . S
C1650 C1648 1.394 . S
C1650 C1651 1.369 . S
C1650 C1654 1.531 . S
C1651 C1650 1.369 . S
C1651 C1652 1.410 . S
C1651 C1659 1.503 . S
C1652 C1651 1.410 . S
C1652 C1653 1.392 . S
C1652 C1655 1.511 . S
C1653 C1649 1.376 . S
C1653 C1652 1.392 . S
C1653 H1665 0.929 . S
C1654 C1650 1.531 . S
C1654 H1666 0.960 . S
C1654 H1667 0.962 . S
C1654 H1668 0.960 . S
C1655 C1652 1.511 . S
C1655 H1669 0.961 . S
C1655 H1670 0.961 . S
C1655 H1671 0.961 . S
C1656 C1657 1.370 . S
C1656 C1658 1.363 . S
C1656 H1672 0.931 . S
C1657 C1656 1.370 . S
C1657 C1661 1.408 . S
C1658 C1656 1.363 . S
C1658 C1659 1.370 . S
C1658 C1662 1.524 . S
C1659 C1651 1.503 . S
C1659 C1658 1.370 . S
C1659 C1660 1.403 . S
C1660 C1659 1.403 . S
C1660 C1661 1.404 . S
C1660 C1663 1.539 . S
C1661 C1657 1.408 . S
C1661 C1660 1.404 . S
C1661 H1673 0.930 . S
C1662 C1658 1.524 . S
C1662 H1674 0.956 . S
C1662 H1675 0.961 . S
C1662 H1676 0.961 . S
C1663 C1660 1.539 . S
C1663 H1677 0.958 . S
C1663 H1678 0.961 . S
C1663 H1679 0.960 . S
H1664 C1648 0.931 . S
H1665 C1653 0.929 . S
H1666 C1654 0.960 . S
H1667 C1654 0.962 . S
H1668 C1654 0.960 . S
H1669 C1655 0.961 . S
H1670 C1655 0.961 . S
H1671 C1655 0.961 . S
H1672 C1656 0.931 . S
H1673 C1661 0.930 . S
H1674 C1662 0.956 . S
H1675 C1662 0.961 . S
H1676 C1662 0.961 . S
H1677 C1663 0.958 . S
H1678 C1663 0.961 . S
H1679 C1663 0.960 . S
C1680 C1681 1.391 . S
C1680 C1682 1.394 . S
C1680 H1696 0.931 . S
C1681 C1680 1.391 . S
C1681 C1685 1.376 . S
C1682 C1680 1.394 . S
C1682 C1683 1.369 . S
C1682 C1686 1.531 . S
C1683 C1682 1.369 . S
C1683 C1684 1.410 1_554 S
C1683 C1691 1.503 1_554 S
C1684 C1683 1.410 1_556 S
C1684 C1685 1.392 1_556 S
C1684 C1687 1.511 . S
C1685 C1681 1.376 . S
C1685 C1684 1.392 1_554 S
C1685 H1697 0.929 1_554 S
C1686 C1682 1.531 . S
C1686 H1698 0.960 . S
C1686 H1699 0.962 . S
C1686 H1700 0.960 . S
C1687 C1684 1.511 . S
C1687 H1701 0.961 . S
C1687 H1702 0.961 . S
C1687 H1703 0.961 . S
C1688 C1689 1.370 . S
C1688 C1690 1.363 . S
C1688 H1704 0.931 . S
C1689 C1688 1.370 . S
C1689 C1693 1.408 . S
C1690 C1688 1.363 . S
C1690 C1691 1.370 . S
C1690 C1694 1.524 1_556 S
C1691 C1683 1.503 1_556 S
C1691 C1690 1.370 . S
C1691 C1692 1.403 . S
C1692 C1691 1.403 . S
C1692 C1693 1.404 . S
C1692 C1695 1.539 . S
C1693 C1689 1.408 . S
C1693 C1692 1.404 . S
C1693 H1705 0.930 . S
C1694 C1690 1.524 1_554 S
C1694 H1706 0.956 . S
C1694 H1707 0.961 1_554 S
C1694 H1708 0.961 1_554 S
C1695 C1692 1.539 . S
C1695 H1709 0.961 . S
C1695 H1710 0.961 . S
C1695 H1711 0.960 . S
H1696 C1680 0.931 . S
H1697 C1685 0.929 1_556 S
H1698 C1686 0.960 . S
H1699 C1686 0.962 . S
H1700 C1686 0.960 . S
H1701 C1687 0.961 . S
H1702 C1687 0.961 . S
H1703 C1687 0.961 . S
H1704 C1688 0.931 . S
H1705 C1693 0.930 . S
H1706 C1694 0.956 . S
H1707 C1694 0.961 1_556 S
H1708 C1694 0.961 1_556 S
H1709 C1695 0.961 . S
H1710 C1695 0.961 . S
H1711 C1695 0.960 . S
C1712 C1713 1.391 . S
C1712 C1714 1.394 . S
C1712 H1728 0.931 . S
C1713 C1712 1.391 . S
C1713 C1717 1.376 . S
C1714 C1712 1.394 . S
C1714 C1715 1.369 . S
C1714 C1718 1.531 . S
C1715 C1714 1.369 . S
C1715 C1716 1.410 . S
C1715 C1723 1.503 . S
C1716 C1715 1.410 . S
C1716 C1717 1.392 . S
C1716 C1719 1.511 . S
C1717 C1713 1.376 . S
C1717 C1716 1.392 . S
C1717 H1729 0.929 . S
C1718 C1714 1.531 . S
C1718 H1730 0.960 . S
C1718 H1731 0.962 . S
C1718 H1732 0.960 . S
C1719 C1716 1.511 . S
C1719 H1733 0.961 . S
C1719 H1734 0.961 . S
C1719 H1735 0.961 . S
C1720 C1721 1.370 . S
C1720 C1722 1.363 . S
C1720 H1736 0.931 . S
C1721 C1720 1.370 . S
C1721 C1725 1.408 . S
C1722 C1720 1.363 . S
C1722 C1723 1.370 . S
C1722 C1726 1.524 . S
C1723 C1715 1.503 . S
C1723 C1722 1.370 . S
C1723 C1724 1.403 . S
C1724 C1723 1.403 . S
C1724 C1725 1.404 . S
C1724 C1727 1.539 . S
C1725 C1721 1.408 . S
C1725 C1724 1.404 . S
C1725 H1737 0.930 . S
C1726 C1722 1.524 . S
C1726 H1738 0.956 . S
C1726 H1739 0.961 . S
C1726 H1740 0.961 . S
C1727 C1724 1.539 . S
C1727 H1741 0.958 . S
C1727 H1742 0.961 . S
C1727 H1743 0.960 . S
H1728 C1712 0.931 . S
H1729 C1717 0.929 . S
H1730 C1718 0.960 . S
H1731 C1718 0.962 . S
H1732 C1718 0.960 . S
H1733 C1719 0.961 . S
H1734 C1719 0.961 . S
H1735 C1719 0.961 . S
H1736 C1720 0.931 . S
H1737 C1725 0.930 . S
H1738 C1726 0.956 . S
H1739 C1726 0.961 . S
H1740 C1726 0.961 . S
H1741 C1727 0.958 . S
H1742 C1727 0.961 . S
H1743 C1727 0.960 . S
C1744 C1745 1.391 . S
C1744 C1746 1.394 . S
C1744 H1760 0.931 . S
C1745 C1744 1.391 . S
C1745 C1749 1.376 . S
C1746 C1744 1.394 . S
C1746 C1747 1.369 . S
C1746 C1750 1.531 1_554 S
C1747 C1746 1.369 . S
C1747 C1748 1.410 . S
C1747 C1755 1.503 1_554 S
C1748 C1747 1.410 . S
C1748 C1749 1.392 . S
C1748 C1751 1.511 . S
C1749 C1745 1.376 . S
C1749 C1748 1.392 . S
C1749 H1761 0.929 . S
C1750 C1746 1.531 1_556 S
C1750 H1762 0.960 1_556 S
C1750 H1763 0.962 . S
C1750 H1764 0.960 1_556 S
C1751 C1748 1.511 . S
C1751 H1765 0.961 . S
C1751 H1766 0.961 . S
C1751 H1767 0.961 . S
C1752 C1753 1.370 . S
C1752 C1754 1.363 . S
C1752 H1768 0.931 . S
C1753 C1752 1.370 . S
C1753 C1757 1.433 . S
C1754 C1752 1.363 . S
C1754 C1755 1.370 . S
C1754 C1758 1.524 . S
C1755 C1747 1.503 1_556 S
C1755 C1754 1.370 . S
C1755 C1756 1.403 1_556 S
C1756 C1755 1.403 1_554 S
C1756 C1757 1.392 1_554 S
C1756 C1759 1.539 . S
C1757 C1753 1.433 . S
C1757 C1756 1.392 1_556 S
C1757 H1769 0.917 1_556 S
C1758 C1754 1.524 . S
C1758 H1770 0.956 . S
C1758 H1771 0.961 . S
C1758 H1772 0.961 . S
C1759 C1756 1.539 . S
C1759 H1773 0.958 . S
C1759 H1774 0.961 . S
C1759 H1775 0.960 . S
H1760 C1744 0.931 . S
H1761 C1749 0.929 . S
H1762 C1750 0.960 1_554 S
H1763 C1750 0.962 . S
H1764 C1750 0.960 1_554 S
H1765 C1751 0.961 . S
H1766 C1751 0.961 . S
H1767 C1751 0.961 . S
H1768 C1752 0.931 . S
H1769 C1757 0.917 1_554 S
H1770 C1758 0.956 . S
H1771 C1758 0.961 . S
H1772 C1758 0.961 . S
H1773 C1759 0.958 . S
H1774 C1759 0.961 . S
H1775 C1759 0.960 . S
C1776 C1777 1.391 . S
C1776 C1778 1.394 . S
C1776 H1792 0.931 . S
C1777 C1776 1.391 . S
C1777 C1781 1.376 . S
C1778 C1776 1.394 . S
C1778 C1779 1.369 . S
C1778 C1782 1.531 . S
C1779 C1778 1.369 . S
C1779 C1780 1.410 . S
C1779 C1787 1.503 . S
C1780 C1779 1.410 . S
C1780 C1781 1.392 . S
C1780 C1783 1.511 . S
C1781 C1777 1.376 . S
C1781 C1780 1.392 . S
C1781 H1793 0.929 . S
C1782 C1778 1.531 . S
C1782 H1794 0.960 . S
C1782 H1795 0.962 . S
C1782 H1796 0.960 . S
C1783 C1780 1.511 . S
C1783 H1797 0.961 . S
C1783 H1798 0.961 . S
C1783 H1799 0.961 . S
C1784 C1785 1.370 . S
C1784 C1786 1.363 . S
C1784 H1800 0.931 . S
C1785 C1784 1.370 . S
C1785 C1789 1.408 . S
C1786 C1784 1.363 . S
C1786 C1787 1.370 . S
C1786 C1790 1.524 . S
C1787 C1779 1.503 . S
C1787 C1786 1.370 . S
C1787 C1788 1.403 . S
C1788 C1787 1.403 . S
C1788 C1789 1.404 . S
C1788 C1791 1.539 . S
C1789 C1785 1.408 . S
C1789 C1788 1.404 . S
C1789 H1801 0.930 . S
C1790 C1786 1.524 . S
C1790 H1802 0.956 . S
C1790 H1803 0.961 . S
C1790 H1804 0.961 . S
C1791 C1788 1.539 . S
C1791 H1805 0.958 . S
C1791 H1806 0.961 . S
C1791 H1807 0.960 . S
H1792 C1776 0.931 . S
H1793 C1781 0.929 . S
H1794 C1782 0.960 . S
H1795 C1782 0.962 . S
H1796 C1782 0.960 . S
H1797 C1783 0.961 . S
H1798 C1783 0.961 . S
H1799 C1783 0.961 . S
H1800 C1784 0.931 . S
H1801 C1789 0.930 . S
H1802 C1790 0.956 . S
H1803 C1790 0.961 . S
H1804 C1790 0.961 . S
H1805 C1791 0.958 . S
H1806 C1791 0.961 . S
H1807 C1791 0.960 . S
C1808 C1809 1.391 . S
C1808 C1810 1.394 . S
C1808 H1824 0.931 . S
C1809 C1808 1.391 . S
C1809 C1813 1.376 . S
C1810 C1808 1.394 . S
C1810 C1811 1.369 . S
C1810 C1814 1.531 . S
C1811 C1810 1.369 . S
C1811 C1812 1.410 . S
C1811 C1819 1.503 1_556 S
C1812 C1811 1.410 . S
C1812 C1813 1.392 . S
C1812 C1815 1.511 . S
C1813 C1809 1.376 . S
C1813 C1812 1.392 . S
C1813 H1825 0.929 . S
C1814 C1810 1.531 . S
C1814 H1826 0.960 . S
C1814 H1827 0.962 . S
C1814 H1828 0.960 . S
C1815 C1812 1.511 . S
C1815 H1829 0.957 1_556 S
C1815 H1830 0.961 1_556 S
C1815 H1831 0.961 . S
C1816 C1817 1.370 . S
C1816 C1818 1.363 . S
C1816 H1832 0.931 . S
C1817 C1816 1.370 . S
C1817 C1821 1.406 1_554 S
C1818 C1816 1.363 . S
C1818 C1819 1.370 . S
C1818 C1822 1.524 . S
C1819 C1811 1.503 1_554 S
C1819 C1818 1.370 . S
C1819 C1820 1.403 1_554 S
C1820 C1819 1.403 1_556 S
C1820 C1821 1.405 . S
C1820 C1823 1.539 . S
C1821 C1817 1.406 1_556 S
C1821 C1820 1.405 . S
C1821 H1833 0.931 . S
C1822 C1818 1.524 . S
C1822 H1834 0.956 . S
C1822 H1835 0.961 . S
C1822 H1836 0.961 . S
C1823 C1820 1.539 . S
C1823 H1837 0.958 . S
C1823 H1838 0.961 . S
C1823 H1839 0.960 . S
H1824 C1808 0.931 . S
H1825 C1813 0.929 . S
H1826 C1814 0.960 . S
H1827 C1814 0.962 . S
H1828 C1814 0.960 . S
H1829 C1815 0.957 1_554 S
H1830 C1815 0.961 1_554 S
H1831 C1815 0.961 . S
H1832 C1816 0.931 . S
H1833 C1821 0.931 . S
H1834 C1822 0.956 . S
H1835 C1822 0.961 . S
H1836 C1822 0.961 . S
H1837 C1823 0.958 . S
H1838 C1823 0.961 . S
H1839 C1823 0.960 . S
C1840 C1841 1.391 . S
C1840 C1842 1.394 . S
C1840 H1856 0.931 . S
C1841 C1840 1.391 . S
C1841 C1845 1.376 . S
C1842 C1840 1.394 . S
C1842 C1843 1.369 . S
C1842 C1846 1.531 . S
C1843 C1842 1.369 . S
C1843 C1844 1.410 . S
C1843 C1851 1.503 . S
C1844 C1843 1.410 . S
C1844 C1845 1.392 . S
C1844 C1847 1.511 . S
C1845 C1841 1.376 . S
C1845 C1844 1.392 . S
C1845 H1857 0.929 . S
C1846 C1842 1.531 . S
C1846 H1858 0.960 . S
C1846 H1859 0.962 . S
C1846 H1860 0.960 . S
C1847 C1844 1.511 . S
C1847 H1861 0.961 . S
C1847 H1862 0.961 . S
C1847 H1863 0.961 . S
C1848 C1849 1.370 . S
C1848 C1850 1.363 . S
C1848 H1864 0.931 . S
C1849 C1848 1.370 . S
C1849 C1853 1.408 . S
C1850 C1848 1.363 . S
C1850 C1851 1.370 . S
C1850 C1854 1.524 . S
C1851 C1843 1.503 . S
C1851 C1850 1.370 . S
C1851 C1852 1.403 . S
C1852 C1851 1.403 . S
C1852 C1853 1.404 . S
C1852 C1855 1.539 . S
C1853 C1849 1.408 . S
C1853 C1852 1.404 . S
C1853 H1865 0.930 . S
C1854 C1850 1.524 . S
C1854 H1866 0.956 . S
C1854 H1867 0.961 . S
C1854 H1868 0.961 . S
C1855 C1852 1.539 . S
C1855 H1869 0.958 . S
C1855 H1870 0.961 . S
C1855 H1871 0.960 . S
H1856 C1840 0.931 . S
H1857 C1845 0.929 . S
H1858 C1846 0.960 . S
H1859 C1846 0.962 . S
H1860 C1846 0.960 . S
H1861 C1847 0.961 . S
H1862 C1847 0.961 . S
H1863 C1847 0.961 . S
H1864 C1848 0.931 . S
H1865 C1853 0.930 . S
H1866 C1854 0.956 . S
H1867 C1854 0.961 . S
H1868 C1854 0.961 . S
H1869 C1855 0.958 . S
H1870 C1855 0.961 . S
H1871 C1855 0.960 . S
C337 C3 1.487 . S
C345 C213 1.493 . S
C369 C17 1.490 . S
C377 C227 1.494 . S
C401 C241 1.484 . S
C409 C31 1.492 . S
C433 C171 1.490 . S
C441 C45 1.494 . S
C465 C185 1.484 . S
C473 C59 1.492 . S
C497 C199 1.495 . S
C505 C73 1.496 . S
C529 C297 1.498 . S
C537 C87 1.498 . S
C561 C101 1.496 . S
C569 C311 1.497 . S
C593 C325 1.485 . S
C601 C115 1.493 . S
C625 C129 1.497 . S
C633 C255 1.497 . S
C657 C269 1.492 . S
C665 C143 1.495 . S
C689 C157 1.484 . S
C697 C283 1.492 . S
C721 C148 1.368 . S
C729 C8 1.378 . S
C753 C162 1.379 . S
C761 C22 1.374 . S
C785 C36 1.379 . S
C793 C92 1.375 . S
C817 C50 1.374 . S
C825 C106 1.375 . S
C849 C120 1.369 . S
C857 C64 1.377 . S
C881 C78 1.380 . S
C889 C134 1.374 . S
C913 C316 1.375 . S
C921 C176 1.376 . S
C945 C190 1.376 . S
C953 C330 1.375 . S
C977 C204 1.380 . S
C985 C260 1.374 . S
C1009 C274 1.380 . S
C1017 C218 1.374 . S
C1041 C232 1.375 . S
C1049 C288 1.375 . S
C1073 C246 1.375 . S
C1081 C302 1.376 . S
C1105 C9 1.419 . S
C1113 C261 1.409 . S
C1137 C275 1.373 . S
C1145 C23 1.391 . S
C1169 C37 1.401 . S
C1177 C289 1.401 . S
C1201 C51 1.397 . S
C1209 C303 1.402 . S
C1233 C317 1.414 . S
C1241 C65 1.409 . S
C1265 C79 1.409 . S
C1273 C331 1.404 . S
C1297 C93 1.396 . S
C1305 C177 1.402 . S
C1329 C107 1.373 . S
C1337 C191 1.391 . S
C1361 C205 1.416 . S
C1369 C121 1.407 . S
C1393 C219 1.386 . S
C1401 C135 1.395 . S
C1425 C149 1.397 . S
C1433 C233 1.399 . S
C1457 C247 1.420 . S
C1465 C163 1.411 . S
C1489 C91 1.417 . S
C1497 C7 1.444 . S
C1521 C21 1.468 . S
C1529 C105 1.456 . S
C1553 C119 1.471 . S
C1561 C35 1.455 . S
C1585 C133 1.436 . S
C1593 C49 1.437 . S
C1617 C147 1.414 . S
C1625 C63 1.454 . S
C1649 C77 1.432 . S
C1657 C161 1.461 . S
C1681 C259 1.468 . S
C1689 C175 1.453 . S
C1713 C189 1.435 . S
C1721 C273 1.462 . S
C1745 C287 1.415 . S
C1753 C203 1.459 . S
C1777 C301 1.465 . S
C1785 C217 1.436 . S
C1809 C231 1.423 . S
C1817 C315 1.461 . S
C1841 C245 1.429 . S
C1849 C329 1.442 . S
