# Generated by pormake.
# Topology umk, (4)-cn, num edge types: 1
# Building blocks:
#     Node 0, Type 0, BuildingBlock: AZAVOO_clean_sbu_0, # of connection points: 4
#     Node 1, Type 0, BuildingBlock: AZAVOO_clean_sbu_0, # of connection points: 4
#     Node 2, Type 0, BuildingBlock: AZAVOO_clean_sbu_0, # of connection points: 4
#     Node 3, Type 0, BuildingBlock: AZAVOO_clean_sbu_0, # of connection points: 4
#     Node 4, Type 0, BuildingBlock: AZAVOO_clean_sbu_0, # of connection points: 4
#     Node 5, Type 0, BuildingBlock: AZAVOO_clean_sbu_0, # of connection points: 4
#     Node 6, Type 0, BuildingBlock: AZAVOO_clean_sbu_0, # of connection points: 4
#     Node 7, Type 0, BuildingBlock: AZAVOO_clean_sbu_0, # of connection points: 4
#     Node 8, Type 0, BuildingBlock: AZAVOO_clean_sbu_0, # of connection points: 4
#     Node 9, Type 0, BuildingBlock: AZAVOO_clean_sbu_0, # of connection points: 4
#     Node 10, Type 0, BuildingBlock: AZAVOO_clean_sbu_0, # of connection points: 4
#     Node 11, Type 0, BuildingBlock: AZAVOO_clean_sbu_0, # of connection points: 4
#     Node 12, Type 0, BuildingBlock: AZAVOO_clean_sbu_0, # of connection points: 4
#     Node 13, Type 0, BuildingBlock: AZAVOO_clean_sbu_0, # of connection points: 4
#     Node 14, Type 0, BuildingBlock: AZAVOO_clean_sbu_0, # of connection points: 4
#     Node 15, Type 0, BuildingBlock: AZAVOO_clean_sbu_0, # of connection points: 4
#     Node 16, Type 0, BuildingBlock: AZAVOO_clean_sbu_0, # of connection points: 4
#     Node 17, Type 0, BuildingBlock: AZAVOO_clean_sbu_0, # of connection points: 4
#     Node 18, Type 0, BuildingBlock: AZAVOO_clean_sbu_0, # of connection points: 4
#     Node 19, Type 0, BuildingBlock: AZAVOO_clean_sbu_0, # of connection points: 4
#     Node 20, Type 0, BuildingBlock: AZAVOO_clean_sbu_0, # of connection points: 4
#     Node 21, Type 0, BuildingBlock: AZAVOO_clean_sbu_0, # of connection points: 4
#     Node 22, Type 0, BuildingBlock: AZAVOO_clean_sbu_0, # of connection points: 4
#     Node 23, Type 0, BuildingBlock: AZAVOO_clean_sbu_0, # of connection points: 4
#     Edge 24, Type (0, 0), BuildingBlock: EZIPEK_clean_linker_0, # of connection points: 2
#     Edge 25, Type (0, 0), BuildingBlock: EZIPEK_clean_linker_0, # of connection points: 2
#     Edge 26, Type (0, 0), BuildingBlock: EZIPEK_clean_linker_0, # of connection points: 2
#     Edge 27, Type (0, 0), BuildingBlock: EZIPEK_clean_linker_0, # of connection points: 2
#     Edge 28, Type (0, 0), BuildingBlock: EZIPEK_clean_linker_0, # of connection points: 2
#     Edge 29, Type (0, 0), BuildingBlock: EZIPEK_clean_linker_0, # of connection points: 2
#     Edge 30, Type (0, 0), BuildingBlock: EZIPEK_clean_linker_0, # of connection points: 2
#     Edge 31, Type (0, 0), BuildingBlock: EZIPEK_clean_linker_0, # of connection points: 2
#     Edge 32, Type (0, 0), BuildingBlock: EZIPEK_clean_linker_0, # of connection points: 2
#     Edge 33, Type (0, 0), BuildingBlock: EZIPEK_clean_linker_0, # of connection points: 2
#     Edge 34, Type (0, 0), BuildingBlock: EZIPEK_clean_linker_0, # of connection points: 2
#     Edge 35, Type (0, 0), BuildingBlock: EZIPEK_clean_linker_0, # of connection points: 2
#     Edge 36, Type (0, 0), BuildingBlock: EZIPEK_clean_linker_0, # of connection points: 2
#     Edge 37, Type (0, 0), BuildingBlock: EZIPEK_clean_linker_0, # of connection points: 2
#     Edge 38, Type (0, 0), BuildingBlock: EZIPEK_clean_linker_0, # of connection points: 2
#     Edge 39, Type (0, 0), BuildingBlock: EZIPEK_clean_linker_0, # of connection points: 2
#     Edge 40, Type (0, 0), BuildingBlock: EZIPEK_clean_linker_0, # of connection points: 2
#     Edge 41, Type (0, 0), BuildingBlock: EZIPEK_clean_linker_0, # of connection points: 2
#     Edge 42, Type (0, 0), BuildingBlock: EZIPEK_clean_linker_0, # of connection points: 2
#     Edge 43, Type (0, 0), BuildingBlock: EZIPEK_clean_linker_0, # of connection points: 2
#     Edge 44, Type (0, 0), BuildingBlock: EZIPEK_clean_linker_0, # of connection points: 2
#     Edge 45, Type (0, 0), BuildingBlock: EZIPEK_clean_linker_0, # of connection points: 2
#     Edge 46, Type (0, 0), BuildingBlock: EZIPEK_clean_linker_0, # of connection points: 2
#     Edge 47, Type (0, 0), BuildingBlock: EZIPEK_clean_linker_0, # of connection points: 2
#     Edge 48, Type (0, 0), BuildingBlock: EZIPEK_clean_linker_0, # of connection points: 2
#     Edge 49, Type (0, 0), BuildingBlock: EZIPEK_clean_linker_0, # of connection points: 2
#     Edge 50, Type (0, 0), BuildingBlock: EZIPEK_clean_linker_0, # of connection points: 2
#     Edge 51, Type (0, 0), BuildingBlock: EZIPEK_clean_linker_0, # of connection points: 2
#     Edge 52, Type (0, 0), BuildingBlock: EZIPEK_clean_linker_0, # of connection points: 2
#     Edge 53, Type (0, 0), BuildingBlock: EZIPEK_clean_linker_0, # of connection points: 2
#     Edge 54, Type (0, 0), BuildingBlock: EZIPEK_clean_linker_0, # of connection points: 2
#     Edge 55, Type (0, 0), BuildingBlock: EZIPEK_clean_linker_0, # of connection points: 2
#     Edge 56, Type (0, 0), BuildingBlock: EZIPEK_clean_linker_0, # of connection points: 2
#     Edge 57, Type (0, 0), BuildingBlock: EZIPEK_clean_linker_0, # of connection points: 2
#     Edge 58, Type (0, 0), BuildingBlock: EZIPEK_clean_linker_0, # of connection points: 2
#     Edge 59, Type (0, 0), BuildingBlock: EZIPEK_clean_linker_0, # of connection points: 2
#     Edge 60, Type (0, 0), BuildingBlock: EZIPEK_clean_linker_0, # of connection points: 2
#     Edge 61, Type (0, 0), BuildingBlock: EZIPEK_clean_linker_0, # of connection points: 2
#     Edge 62, Type (0, 0), BuildingBlock: EZIPEK_clean_linker_0, # of connection points: 2
#     Edge 63, Type (0, 0), BuildingBlock: EZIPEK_clean_linker_0, # of connection points: 2
#     Edge 64, Type (0, 0), BuildingBlock: EZIPEK_clean_linker_0, # of connection points: 2
#     Edge 65, Type (0, 0), BuildingBlock: EZIPEK_clean_linker_0, # of connection points: 2
#     Edge 66, Type (0, 0), BuildingBlock: EZIPEK_clean_linker_0, # of connection points: 2
#     Edge 67, Type (0, 0), BuildingBlock: EZIPEK_clean_linker_0, # of connection points: 2
#     Edge 68, Type (0, 0), BuildingBlock: EZIPEK_clean_linker_0, # of connection points: 2
#     Edge 69, Type (0, 0), BuildingBlock: EZIPEK_clean_linker_0, # of connection points: 2
#     Edge 70, Type (0, 0), BuildingBlock: EZIPEK_clean_linker_0, # of connection points: 2
#     Edge 71, Type (0, 0), BuildingBlock: EZIPEK_clean_linker_0, # of connection points: 2
# Relax obj value: 0.148
# Max RMSD: 0.167
# Mean RMSD: 0.167
data_MOF--net-umk--node1-AZAVOO_clean_sbu_0--edge1-EZIPEK_clean_linker_0
_symmetry_space_group_name_H-M    P1
_symmetry_Int_Tables_number       1
_symmetry_cell_setting            triclinic
loop_
_symmetry_equiv_pos_as_xyz
'x, y, z'
_cell_length_a     47.87338
_cell_length_b     47.934889
_cell_length_c     31.89629
_cell_angle_alpha  89.952665
_cell_angle_beta   90.049567
_cell_angle_gamma 119.88964
loop_
_atom_site_label
_atom_site_type_symbol
_atom_site_fract_x
_atom_site_fract_y
_atom_site_fract_z
_atom_type_partial_charge
Mg0 Mg 0.34345 0.46383 0.07109 0.0
O1 O 0.38753 0.51116 0.04947 0.0
O2 O 0.42708 0.51884 0.09285 0.0
Mg3 Mg 0.41267 0.47178 0.1282 0.0
C4 C 0.41632 0.52846 0.06286 0.0
C5 C 0.28083 0.465 0.05698 0.0
O6 O 0.27321 0.44295 0.08605 0.0
O7 O 0.34067 0.48415 0.13546 0.0
O8 O 0.37975 0.48111 0.17 0.0
O9 O 0.35314 0.43711 0.02031 0.0
O10 O 0.37248 0.44442 0.08473 0.0
C11 C 0.35585 0.48592 0.16924 0.0
C12 C 0.37092 0.43324 0.04767 0.0
O13 O 0.3094 0.47861 0.04268 0.0
Mg14 Mg 0.88686 0.33748 0.57249 0.0
O15 O 0.8753 0.37519 0.54748 0.0
O16 O 0.91741 0.42325 0.56328 0.0
Mg17 Mg 0.95468 0.41646 0.59969 0.0
C18 C 0.89003 0.40582 0.546 0.0
C19 C 0.83478 0.2741 0.54308 0.0
O20 O 0.86138 0.27265 0.53981 0.0
O21 O 0.87561 0.34483 0.63962 0.0
O22 O 0.92032 0.3913 0.65464 0.0
O23 O 0.91293 0.34041 0.51275 0.0
O24 O 0.93573 0.36951 0.56958 0.0
C25 C 0.8934 0.36712 0.66529 0.0
C26 C 0.93824 0.36275 0.53134 0.0
O27 O 0.83591 0.29886 0.55904 0.0
Mg28 Mg 0.53782 0.87371 0.0796 0.0
O29 O 0.49283 0.87439 0.05577 0.0
O30 O 0.48887 0.91145 0.09405 0.0
Mg31 Mg 0.53213 0.9364 0.13817 0.0
C32 C 0.47857 0.89003 0.06536 0.0
C33 C 0.53126 0.80693 0.06475 0.0
O34 O 0.55011 0.81739 0.09777 0.0
O35 O 0.51315 0.84881 0.14079 0.0
O36 O 0.51653 0.89049 0.17657 0.0
O37 O 0.56873 0.91151 0.03182 0.0
O38 O 0.55859 0.92217 0.09528 0.0
C39 C 0.50987 0.86122 0.17447 0.0
C40 C 0.57174 0.93269 0.05929 0.0
O41 O 0.52184 0.82522 0.04891 0.0
Mg42 Mg 0.67696 0.55538 0.58704 0.0
O43 O 0.65583 0.51346 0.54004 0.0
O44 O 0.60339 0.49752 0.55035 0.0
Mg45 Mg 0.59298 0.53374 0.58337 0.0
C46 C 0.62575 0.49329 0.53515 0.0
C47 C 0.74364 0.54851 0.59427 0.0
O48 O 0.76479 0.54969 0.62152 0.0
O49 O 0.65096 0.517 0.6357 0.0
O50 O 0.60796 0.52245 0.64657 0.0
O51 O 0.69086 0.59707 0.54158 0.0
O52 O 0.64275 0.56639 0.56781 0.0
C53 C 0.62795 0.51387 0.65869 0.0
C54 C 0.66169 0.59137 0.54676 0.0
O55 O 0.72148 0.55347 0.60715 0.0
Mg56 Mg 0.11445 0.65286 0.06469 0.0
O57 O 0.12097 0.61091 0.04904 0.0
O58 O 0.0811 0.56618 0.07667 0.0
Mg59 Mg 0.05029 0.58156 0.11486 0.0
C60 C 0.10657 0.58074 0.05448 0.0
C61 C 0.18118 0.71023 0.05546 0.0
O62 O 0.16914 0.71922 0.08617 0.0
O63 O 0.13401 0.65519 0.13011 0.0
O64 O 0.09195 0.61274 0.15996 0.0
O65 O 0.08094 0.6422 0.01013 0.0
O66 O 0.06529 0.62412 0.07467 0.0
C67 C 0.11998 0.63765 0.16192 0.0
C68 C 0.05791 0.62522 0.03623 0.0
O69 O 0.16418 0.68287 0.03915 0.0
Mg70 Mg 0.44683 0.12873 0.55269 0.0
O71 O 0.48825 0.12002 0.53056 0.0
O72 O 0.48907 0.08316 0.57332 0.0
Mg73 Mg 0.45661 0.07733 0.6275 0.0
C74 C 0.49887 0.10107 0.54081 0.0
C75 C 0.4348 0.17265 0.50431 0.0
O76 O 0.40811 0.15088 0.52242 0.0
O77 O 0.47397 0.16162 0.60765 0.0
O78 O 0.49278 0.13118 0.6323 0.0
O79 O 0.41216 0.08552 0.51631 0.0
O80 O 0.4259 0.08458 0.58236 0.0
C81 C 0.48813 0.15488 0.63633 0.0
C82 C 0.41056 0.06902 0.54932 0.0
O83 O 0.46032 0.17113 0.50946 0.0
Mg84 Mg 0.56333 0.68901 0.90519 0.0
O85 O 0.52119 0.65794 0.95129 0.0
O86 O 0.50568 0.60757 0.9305 0.0
Mg87 Mg 0.53723 0.60582 0.87813 0.0
C88 C 0.50258 0.62739 0.95407 0.0
C89 C 0.55879 0.75781 0.9292 0.0
O90 O 0.56782 0.78398 0.90691 0.0
O91 O 0.52862 0.67744 0.85086 0.0
O92 O 0.51745 0.62851 0.83119 0.0
O93 O 0.60057 0.68996 0.94944 0.0
O94 O 0.57472 0.65286 0.90132 0.0
C95 C 0.51511 0.6537 0.82581 0.0
C96 C 0.59552 0.66371 0.93124 0.0
O97 O 0.56295 0.73568 0.91419 0.0
Mg98 Mg 0.86748 0.55296 0.40627 0.0
O99 O 0.86393 0.50935 0.44104 0.0
O100 O 0.90377 0.50266 0.41567 0.0
Mg101 Mg 0.93213 0.54079 0.36589 0.0
C102 C 0.88004 0.49471 0.44048 0.0
C103 C 0.81403 0.54005 0.46852 0.0
O104 O 0.83765 0.54405 0.49332 0.0
O105 O 0.84569 0.52271 0.34779 0.0
O106 O 0.88804 0.52046 0.32223 0.0
O107 O 0.90304 0.58663 0.45439 0.0
O108 O 0.91643 0.57149 0.39606 0.0
C109 C 0.85913 0.51502 0.31909 0.0
C110 C 0.92522 0.5871 0.43074 0.0
O111 O 0.81784 0.5408 0.42919 0.0
Mg112 Mg 0.30927 0.87341 0.93115 0.0
O113 O 0.35539 0.87427 0.9556 0.0
O114 O 0.39692 0.90189 0.91207 0.0
Mg115 Mg 0.37293 0.90649 0.85329 0.0
C116 C 0.38531 0.88698 0.94657 0.0
C117 C 0.27074 0.82436 0.01643 0.0
O118 O 0.25941 0.83629 0.04443 0.0
O119 O 0.29252 0.83188 0.88303 0.0
O120 O 0.34298 0.85365 0.86817 0.0
O121 O 0.32768 0.92121 0.9589 0.0
O122 O 0.33853 0.91382 0.89359 0.0
C123 C 0.3141 0.83604 0.85681 0.0
C124 C 0.34295 0.9333 0.92417 0.0
O125 O 0.28499 0.8405 0.98435 0.0
Mg126 Mg 0.46361 0.32167 0.43669 0.0
O127 O 0.51347 0.36091 0.45947 0.0
O128 O 0.51989 0.40704 0.43329 0.0
Mg129 Mg 0.47562 0.39905 0.3964 0.0
C130 C 0.53013 0.39136 0.4546 0.0
C131 C 0.40144 0.25422 0.41455 0.0
O132 O 0.37325 0.23572 0.39712 0.0
O133 O 0.48373 0.32523 0.37121 0.0
O134 O 0.48471 0.36969 0.34721 0.0
O135 O 0.43784 0.33036 0.49202 0.0
O136 O 0.44722 0.3551 0.43227 0.0
C137 C 0.48794 0.34505 0.34188 0.0
C138 C 0.43536 0.3509 0.46883 0.0
O139 O 0.41457 0.28451 0.41098 0.0
Mg140 Mg 0.11805 0.42903 0.91434 0.0
O141 O 0.12986 0.47297 0.955 0.0
O142 O 0.0901 0.48311 0.93939 0.0
Mg143 Mg 0.05262 0.44601 0.89539 0.0
C144 C 0.1159 0.48957 0.95898 0.0
C145 C 0.19695 0.44265 0.92528 0.0
O146 O 0.21168 0.43882 0.89293 0.0
O147 O 0.13301 0.45976 0.85526 0.0
O148 O 0.08894 0.46314 0.84114 0.0
O149 O 0.08784 0.39513 0.96636 0.0
O150 O 0.06974 0.41403 0.91666 0.0
C151 C 0.11679 0.46777 0.83134 0.0
C152 C 0.06411 0.39708 0.94995 0.0
O153 O 0.16854 0.43774 0.9213 0.0
Mg154 Mg 0.67091 0.11188 0.42866 0.0
O155 O 0.62328 0.10714 0.45081 0.0
O156 O 0.5842 0.06869 0.41163 0.0
Mg157 Mg 0.60657 0.04754 0.36789 0.0
C158 C 0.59369 0.08996 0.44046 0.0
C159 C 0.72956 0.16958 0.45782 0.0
O160 O 0.73935 0.15354 0.43451 0.0
O161 O 0.66938 0.13714 0.36883 0.0
O162 O 0.63188 0.09555 0.33196 0.0
O163 O 0.66651 0.07606 0.47642 0.0
O164 O 0.64713 0.06386 0.41181 0.0
C165 C 0.65293 0.12532 0.3355 0.0
C166 C 0.6499 0.05438 0.44864 0.0
O167 O 0.69963 0.15901 0.46218 0.0
Mg168 Mg 0.6797 0.55585 0.90899 0.0
O169 O 0.65806 0.51539 0.95852 0.0
O170 O 0.60545 0.4985 0.94842 0.0
Mg171 Mg 0.59389 0.53125 0.90946 0.0
C172 C 0.62814 0.49553 0.96507 0.0
C173 C 0.74652 0.54932 0.91434 0.0
O174 O 0.77109 0.55248 0.89228 0.0
O175 O 0.65635 0.51748 0.85896 0.0
O176 O 0.61 0.51735 0.84971 0.0
O177 O 0.68978 0.59821 0.95157 0.0
O178 O 0.64366 0.56589 0.92158 0.0
C179 C 0.63169 0.51131 0.837 0.0
C180 C 0.66066 0.59137 0.94279 0.0
O181 O 0.72656 0.55574 0.89694 0.0
Mg182 Mg 0.11917 0.68917 0.41661 0.0
O183 O 0.1478 0.67752 0.46674 0.0
O184 O 0.1094 0.63588 0.43711 0.0
Mg185 Mg 0.06879 0.59727 0.40003 0.0
C186 C 0.13247 0.64711 0.46305 0.0
C187 C 0.1829 0.76497 0.41752 0.0
O188 O 0.19369 0.79346 0.40045 0.0
O189 O 0.14077 0.67468 0.36207 0.0
O190 O 0.10057 0.62554 0.34364 0.0
O191 O 0.0805 0.68627 0.45981 0.0
O192 O 0.07734 0.64377 0.42889 0.0
C193 C 0.12653 0.65191 0.33536 0.0
C194 C 0.06323 0.65628 0.44949 0.0
O195 O 0.15515 0.74251 0.407 0.0
Mg196 Mg 0.44542 0.13057 0.89102 0.0
O197 O 0.48424 0.13972 0.94123 0.0
O198 O 0.51453 0.12443 0.90508 0.0
Mg199 Mg 0.48233 0.08397 0.85951 0.0
C200 C 0.50895 0.13607 0.938 0.0
C201 C 0.43934 0.19588 0.92433 0.0
O202 O 0.42802 0.21362 0.90868 0.0
O203 O 0.48262 0.16 0.841 0.0
O204 O 0.48733 0.12061 0.81068 0.0
O205 O 0.40673 0.089 0.92737 0.0
O206 O 0.4413 0.0862 0.88466 0.0
C207 C 0.48919 0.14807 0.80936 0.0
C208 C 0.41695 0.07171 0.90902 0.0
O209 O 0.43738 0.1729 0.90243 0.0
Mg210 Mg 0.33265 0.44078 0.4319 0.0
O211 O 0.3747 0.48955 0.45053 0.0
O212 O 0.41928 0.49594 0.4203 0.0
Mg213 Mg 0.40504 0.4511 0.38043 0.0
C214 C 0.40478 0.50638 0.44361 0.0
C215 C 0.2688 0.43728 0.45058 0.0
O216 O 0.25958 0.41219 0.42606 0.0
O217 O 0.33083 0.46116 0.36803 0.0
O218 O 0.37478 0.46491 0.33784 0.0
O219 O 0.34303 0.41726 0.48533 0.0
O220 O 0.36348 0.42281 0.42153 0.0
C221 C 0.34959 0.46772 0.33666 0.0
C222 C 0.36209 0.41378 0.45986 0.0
O223 O 0.29838 0.4551 0.45912 0.0
Mg224 Mg 0.87796 0.31159 0.92476 0.0
O225 O 0.84469 0.32372 0.96568 0.0
O226 O 0.89004 0.36435 0.9485 0.0
Mg227 Mg 0.93702 0.40414 0.92521 0.0
C228 C 0.86316 0.35399 0.96654 0.0
C229 C 0.81221 0.23874 0.9119 0.0
O230 O 0.79874 0.21389 0.88652 0.0
O231 O 0.87039 0.33398 0.8652 0.0
O232 O 0.91354 0.384 0.86098 0.0
O233 O 0.90696 0.30671 0.97726 0.0
O234 O 0.91936 0.35332 0.94895 0.0
C235 C 0.88875 0.35979 0.84488 0.0
C236 C 0.92829 0.33656 0.97072 0.0
O237 O 0.83978 0.26195 0.90247 0.0
Mg238 Mg 0.53963 0.85873 0.43881 0.0
O239 O 0.49637 0.85977 0.47004 0.0
O240 O 0.49455 0.90061 0.43854 0.0
Mg241 Mg 0.53594 0.92727 0.39216 0.0
C242 C 0.48354 0.87741 0.46481 0.0
C243 C 0.59482 0.84221 0.41284 0.0
O244 O 0.61931 0.84617 0.38993 0.0
O245 O 0.51256 0.83899 0.37654 0.0
O246 O 0.51816 0.8842 0.34812 0.0
O247 O 0.57481 0.89586 0.4866 0.0
O248 O 0.56229 0.90852 0.427 0.0
C249 C 0.51002 0.85455 0.3456 0.0
C250 C 0.57824 0.91793 0.4609 0.0
O251 O 0.58282 0.86019 0.40668 0.0
Mg252 Mg 0.46519 0.33176 0.07266 0.0
O253 O 0.5152 0.37146 0.05268 0.0
O254 O 0.5234 0.41768 0.08014 0.0
Mg255 Mg 0.4797 0.40768 0.12005 0.0
C256 C 0.5326 0.40175 0.05764 0.0
C257 C 0.46499 0.26634 0.06244 0.0
O258 O 0.44465 0.25867 0.09374 0.0
O259 O 0.48451 0.33064 0.13725 0.0
O260 O 0.48865 0.37558 0.16491 0.0
O261 O 0.44 0.34269 0.02015 0.0
O262 O 0.4495 0.36462 0.08295 0.0
C263 C 0.4904 0.34991 0.16788 0.0
C264 C 0.43769 0.36214 0.0462 0.0
O265 O 0.47701 0.29451 0.04711 0.0
Mg266 Mg 0.12328 0.47033 0.56003 0.0
O267 O 0.13347 0.52027 0.53913 0.0
O268 O 0.09321 0.52601 0.56513 0.0
Mg269 Mg 0.05688 0.47983 0.59861 0.0
C270 C 0.1194 0.53666 0.54451 0.0
C271 C 0.17017 0.45411 0.52876 0.0
O272 O 0.14203 0.42763 0.53082 0.0
O273 O 0.13807 0.48748 0.62715 0.0
O274 O 0.09335 0.48653 0.65004 0.0
O275 O 0.09448 0.44718 0.5024 0.0
O276 O 0.07429 0.45286 0.56206 0.0
C277 C 0.12114 0.48973 0.65646 0.0
C278 C 0.06974 0.44265 0.52404 0.0
O279 O 0.17273 0.48042 0.54135 0.0
Mg280 Mg 0.65999 0.12987 0.07602 0.0
O281 O 0.61591 0.13247 0.05242 0.0
O282 O 0.57384 0.09686 0.09029 0.0
Mg283 Mg 0.58974 0.06866 0.13275 0.0
C284 C 0.58608 0.11863 0.0621 0.0
C285 C 0.72038 0.17923 0.03347 0.0
O286 O 0.72494 0.15502 0.0424 0.0
O287 O 0.6615 0.15444 0.13801 0.0
O288 O 0.62154 0.11318 0.17233 0.0
O289 O 0.6516 0.09179 0.02794 0.0
O290 O 0.63123 0.0815 0.09173 0.0
C291 C 0.64541 0.14186 0.17139 0.0
C292 C 0.63395 0.07082 0.05594 0.0
O293 O 0.69434 0.17775 0.04514 0.0
Mg294 Mg 0.55778 0.68184 0.56766 0.0
O295 O 0.51557 0.63859 0.53578 0.0
O296 O 0.51154 0.59444 0.5656 0.0
Mg297 Mg 0.55144 0.60947 0.61483 0.0
C298 C 0.50216 0.60807 0.53918 0.0
C299 C 0.56856 0.74219 0.52877 0.0
O300 O 0.59674 0.74719 0.54172 0.0
O301 O 0.52726 0.67433 0.62647 0.0
O302 O 0.52941 0.63308 0.65599 0.0
O303 O 0.5928 0.68111 0.52122 0.0
O304 O 0.57979 0.65505 0.58155 0.0
C305 C 0.52177 0.6551 0.65716 0.0
C306 C 0.59549 0.66167 0.54685 0.0
O307 O 0.54353 0.71564 0.53739 0.0
Mg308 Mg 0.86311 0.52862 0.05812 0.0
O309 O 0.85682 0.4806 0.03419 0.0
O310 O 0.89449 0.47365 0.06646 0.0
Mg311 Mg 0.92517 0.51682 0.10852 0.0
C312 C 0.87077 0.46426 0.04125 0.0
C313 C 0.79876 0.52881 0.04996 0.0
O314 O 0.81277 0.54882 0.08121 0.0
O315 O 0.84079 0.50522 0.12045 0.0
O316 O 0.8811 0.50199 0.15082 0.0
O317 O 0.89925 0.55643 0.0073 0.0
O318 O 0.91171 0.54606 0.06984 0.0
C319 C 0.85268 0.49812 0.15168 0.0
C320 C 0.92099 0.55846 0.03327 0.0
O321 O 0.8139 0.51632 0.03269 0.0
Mg322 Mg 0.31514 0.87176 0.58733 0.0
O323 O 0.36006 0.87104 0.562 0.0
O324 O 0.40066 0.90395 0.60384 0.0
Mg325 Mg 0.38508 0.93305 0.64496 0.0
C326 C 0.3896 0.88419 0.5732 0.0
C327 C 0.28447 0.81365 0.52238 0.0
O328 O 0.31059 0.83307 0.50121 0.0
O329 O 0.31417 0.84749 0.64987 0.0
O330 O 0.35254 0.88949 0.68523 0.0
O331 O 0.32217 0.90962 0.53992 0.0
O332 O 0.34435 0.91982 0.60266 0.0
C333 C 0.3293 0.86055 0.68375 0.0
C334 C 0.34095 0.93055 0.56728 0.0
O335 O 0.28016 0.82325 0.55762 0.0
C336 C 0.31656 0.46458 0.22785 0.0
C337 C 0.34463 0.49066 0.21051 0.0
C338 C 0.36561 0.50939 0.28109 0.0
C339 C 0.34249 0.47883 0.29678 0.0
N340 N 0.29339 0.42822 0.2869 0.0
N341 N 0.39252 0.5417 0.21953 0.0
C342 C 0.31654 0.45704 0.27102 0.0
C343 C 0.36769 0.51477 0.23709 0.0
N344 N 0.29056 0.44668 0.20275 0.0
N345 N 0.38573 0.5327 0.30845 0.0
H346 H 0.39326 0.54622 0.18738 0.0
H347 H 0.41228 0.55898 0.23619 0.0
H348 H 0.38386 0.52898 0.34083 0.0
H349 H 0.4022 0.55618 0.29968 0.0
H350 H 0.26845 0.42862 0.21391 0.0
H351 H 0.29015 0.45243 0.17133 0.0
H352 H 0.27613 0.4097 0.26853 0.0
H353 H 0.29224 0.42221 0.31849 0.0
C354 C 0.86503 0.36569 0.73252 0.0
C355 C 0.88789 0.36069 0.71062 0.0
C356 C 0.9092 0.35282 0.77653 0.0
C357 C 0.8866 0.35817 0.79872 0.0
N358 N 0.83865 0.36259 0.79892 0.0
N359 N 0.92558 0.34113 0.71014 0.0
C360 C 0.86299 0.36227 0.77702 0.0
C361 C 0.9081 0.3517 0.7322 0.0
N362 N 0.84616 0.37471 0.71089 0.0
N363 N 0.9321 0.34929 0.79785 0.0
H364 H 0.9252 0.33964 0.6775 0.0
H365 H 0.9381 0.33096 0.72404 0.0
H366 H 0.93233 0.34721 0.83038 0.0
H367 H 0.95202 0.35011 0.7835 0.0
H368 H 0.83127 0.38196 0.72513 0.0
H369 H 0.84665 0.37646 0.67824 0.0
H370 H 0.81904 0.36263 0.78488 0.0
H371 H 0.8368 0.36027 0.83143 0.0
C372 C 0.5353 0.85039 0.27977 0.0
C373 C 0.50664 0.8417 0.30259 0.0
C374 C 0.47649 0.83186 0.23709 0.0
C375 C 0.50591 0.84453 0.21486 0.0
N376 N 0.56056 0.85508 0.21222 0.0
N377 N 0.44903 0.81519 0.30461 0.0
C378 C 0.5343 0.84967 0.23536 0.0
C379 C 0.47674 0.82904 0.28161 0.0
N380 N 0.56392 0.86192 0.3006 0.0
N381 N 0.4489 0.82399 0.21554 0.0
H382 H 0.44938 0.81307 0.33718 0.0
H383 H 0.42604 0.80385 0.29163 0.0
H384 H 0.44852 0.82487 0.18282 0.0
H385 H 0.42678 0.81698 0.22963 0.0
H386 H 0.58634 0.87301 0.28601 0.0
H387 H 0.56527 0.86165 0.33314 0.0
H388 H 0.58127 0.85659 0.22504 0.0
H389 H 0.56049 0.85508 0.17954 0.0
C390 C 0.65214 0.54009 0.77003 0.0
C391 C 0.63493 0.51024 0.79143 0.0
C392 C 0.61523 0.48156 0.72496 0.0
C393 C 0.63179 0.51154 0.70391 0.0
N394 N 0.67191 0.56812 0.70426 0.0
N395 N 0.60534 0.45246 0.79099 0.0
C396 C 0.65224 0.54039 0.72581 0.0
C397 C 0.61814 0.4808 0.76935 0.0
N398 N 0.66689 0.56839 0.79206 0.0
N399 N 0.5964 0.45419 0.70249 0.0
H400 H 0.60745 0.4517 0.82351 0.0
H401 H 0.59466 0.4299 0.77692 0.0
H402 H 0.59481 0.45418 0.66985 0.0
H403 H 0.58151 0.43179 0.71591 0.0
H404 H 0.67564 0.59095 0.77836 0.0
H405 H 0.66874 0.56961 0.82464 0.0
H406 H 0.69036 0.58869 0.71827 0.0
H407 H 0.67167 0.57015 0.67174 0.0
C408 C 0.13746 0.68041 0.26629 0.0
C409 C 0.13851 0.65652 0.29155 0.0
C410 C 0.14261 0.62973 0.22824 0.0
C411 C 0.13385 0.64888 0.20403 0.0
N412 N 0.12323 0.69304 0.19894 0.0
N413 N 0.14697 0.61126 0.29759 0.0
C414 C 0.13229 0.67501 0.2225 0.0
C415 C 0.14318 0.63233 0.27269 0.0
N416 N 0.14061 0.70781 0.28395 0.0
N417 N 0.15007 0.60901 0.20842 0.0
H418 H 0.14966 0.6142 0.33 0.0
H419 H 0.14683 0.59077 0.28656 0.0
H420 H 0.14995 0.60719 0.17579 0.0
H421 H 0.15883 0.59575 0.22368 0.0
H422 H 0.14322 0.72731 0.26644 0.0
H423 H 0.14417 0.71291 0.3158 0.0
H424 H 0.11697 0.70916 0.21171 0.0
H425 H 0.1199 0.69059 0.16659 0.0
C426 C 0.45726 0.14176 0.74557 0.0
C427 C 0.4869 0.15948 0.76731 0.0
C428 C 0.51482 0.18458 0.70201 0.0
C429 C 0.48612 0.164 0.67988 0.0
N430 N 0.42826 0.12962 0.67969 0.0
N431 N 0.54126 0.20332 0.76985 0.0
C432 C 0.45663 0.14512 0.70151 0.0
C433 C 0.51484 0.18309 0.74665 0.0
N434 N 0.43025 0.12016 0.76699 0.0
N435 N 0.54211 0.20429 0.67995 0.0
H436 H 0.54124 0.20224 0.80255 0.0
H437 H 0.56217 0.22231 0.75738 0.0
H438 H 0.54188 0.20643 0.64738 0.0
H439 H 0.56474 0.21816 0.69338 0.0
H440 H 0.40901 0.10297 0.75284 0.0
H441 H 0.42936 0.11861 0.79965 0.0
H442 H 0.40564 0.11751 0.69363 0.0
H443 H 0.42681 0.13082 0.64725 0.0
C444 C 0.52478 0.68826 0.72068 0.0
C445 C 0.50841 0.65912 0.69739 0.0
C446 C 0.48116 0.62986 0.76135 0.0
C447 C 0.5021 0.65755 0.78483 0.0
N448 N 0.52624 0.71525 0.7856 0.0
N449 N 0.46205 0.60626 0.69234 0.0
C450 C 0.51803 0.68762 0.76411 0.0
C451 C 0.48326 0.63123 0.7168 0.0
N452 N 0.54834 0.71587 0.70272 0.0
N453 N 0.46024 0.60234 0.78205 0.0
H454 H 0.46315 0.60775 0.65971 0.0
H455 H 0.44214 0.58563 0.70386 0.0
H456 H 0.45714 0.60215 0.81449 0.0
H457 H 0.44626 0.58017 0.76758 0.0
H458 H 0.56358 0.73629 0.72012 0.0
H459 H 0.55394 0.71814 0.67097 0.0
H460 H 0.53623 0.73773 0.7712 0.0
H461 H 0.51865 0.71491 0.81633 0.0
C462 C 0.84124 0.47324 0.26343 0.0
C463 C 0.84214 0.50136 0.27901 0.0
C464 C 0.82571 0.51023 0.20999 0.0
C465 C 0.83569 0.48949 0.1927 0.0
N466 N 0.84431 0.44474 0.20214 0.0
N467 N 0.83331 0.5464 0.26698 0.0
C468 C 0.83994 0.46832 0.21941 0.0
C469 C 0.83283 0.51931 0.25266 0.0
N470 N 0.84226 0.45191 0.29088 0.0
N471 N 0.80978 0.52131 0.18581 0.0
H472 H 0.83823 0.55423 0.29791 0.0
H473 H 0.83075 0.56233 0.24728 0.0
H474 H 0.80207 0.51282 0.15552 0.0
H475 H 0.80026 0.53505 0.19772 0.0
H476 H 0.83991 0.42994 0.28206 0.0
H477 H 0.84262 0.45524 0.32323 0.0
H478 H 0.85104 0.43046 0.21908 0.0
H479 H 0.84155 0.44005 0.17 0.0
C480 C 0.32199 0.82245 0.7426 0.0
C481 C 0.31523 0.84535 0.72448 0.0
C482 C 0.29836 0.85552 0.79242 0.0
C483 C 0.30706 0.83404 0.81132 0.0
N484 N 0.31748 0.79015 0.80381 0.0
N485 N 0.28708 0.87514 0.72815 0.0
C486 C 0.31552 0.81505 0.78601 0.0
C487 C 0.29986 0.85882 0.74818 0.0
N488 N 0.33601 0.80911 0.71883 0.0
N489 N 0.29096 0.87454 0.8165 0.0
H490 H 0.28796 0.87795 0.69563 0.0
H491 H 0.2729 0.883 0.74305 0.0
H492 H 0.28817 0.87242 0.84885 0.0
H493 H 0.28922 0.89385 0.80456 0.0
H494 H 0.34487 0.79489 0.73106 0.0
H495 H 0.33991 0.81346 0.6867 0.0
H496 H 0.3211 0.77373 0.78674 0.0
H497 H 0.31248 0.78426 0.83549 0.0
C498 C 0.52026 0.35202 0.2772 0.0
C499 C 0.49026 0.3364 0.29829 0.0
C500 C 0.46124 0.32062 0.23177 0.0
C501 C 0.49107 0.33876 0.21063 0.0
N502 N 0.54876 0.36474 0.21042 0.0
N503 N 0.4333 0.29845 0.29729 0.0
C504 C 0.52064 0.35196 0.23256 0.0
C505 C 0.46114 0.31789 0.27597 0.0
N506 N 0.548 0.36785 0.30007 0.0
N507 N 0.43295 0.30824 0.20983 0.0
H508 H 0.43233 0.29671 0.32986 0.0
H509 H 0.41178 0.28205 0.28288 0.0
H510 H 0.43197 0.30861 0.17718 0.0
H511 H 0.41041 0.29891 0.22381 0.0
H512 H 0.5707 0.38231 0.28711 0.0
H513 H 0.54801 0.36677 0.33276 0.0
H514 H 0.57134 0.37328 0.22398 0.0
H515 H 0.54907 0.36461 0.17768 0.0
C516 C 0.11919 0.45514 0.71557 0.0
C517 C 0.12906 0.48653 0.70026 0.0
C518 C 0.13808 0.50755 0.772 0.0
C519 C 0.12685 0.47589 0.78719 0.0
N520 N 0.11405 0.42108 0.77448 0.0
N521 N 0.15428 0.54349 0.71159 0.0
C522 C 0.12018 0.4503 0.75924 0.0
C523 C 0.14077 0.51313 0.72787 0.0
N524 N 0.1065 0.42949 0.68862 0.0
N525 N 0.14521 0.53185 0.79985 0.0
H526 H 0.15643 0.54777 0.67933 0.0
H527 H 0.1654 0.56437 0.72953 0.0
H528 H 0.14477 0.52847 0.83223 0.0
H529 H 0.15065 0.55496 0.79124 0.0
H530 H 0.09438 0.40558 0.69836 0.0
H531 H 0.10621 0.43181 0.65615 0.0
H532 H 0.1128 0.40275 0.75568 0.0
H533 H 0.11271 0.41571 0.80632 0.0
C534 C 0.68579 0.15083 0.27139 0.0
C535 C 0.65982 0.14564 0.29779 0.0
C536 C 0.63432 0.15828 0.24015 0.0
C537 C 0.65716 0.15775 0.21257 0.0
N538 N 0.71146 0.16838 0.20331 0.0
N539 N 0.61576 0.15465 0.31215 0.0
C540 C 0.6855 0.15949 0.22885 0.0
C541 C 0.63637 0.15328 0.28376 0.0
N542 N 0.70927 0.14509 0.28615 0.0
N543 N 0.60977 0.16153 0.22371 0.0
H544 H 0.61744 0.15114 0.34417 0.0
H545 H 0.59877 0.16136 0.30474 0.0
H546 H 0.60908 0.16624 0.19184 0.0
H547 H 0.5904 0.15948 0.24095 0.0
H548 H 0.72656 0.14434 0.26716 0.0
H549 H 0.71067 0.13977 0.31752 0.0
H550 H 0.73358 0.1719 0.21379 0.0
H551 H 0.71194 0.17581 0.17248 0.0
C552 C 0.20264 0.43471 0.00194 0.0
C553 C 0.21408 0.45423 0.96549 0.0
C554 C 0.26408 0.49136 0.00172 0.0
C555 C 0.25529 0.4681 0.03395 0.0
N556 N 0.21048 0.43093 0.07634 0.0
N557 N 0.25066 0.50533 0.93407 0.0
C558 C 0.2226 0.44391 0.03797 0.0
C559 C 0.24319 0.48422 0.96666 0.0
N560 N 0.17388 0.40651 0.00146 0.0
N561 N 0.29182 0.52025 0.00576 0.0
H562 H 0.23462 0.50127 0.90953 0.0
H563 H 0.27215 0.52698 0.93128 0.0
H564 H 0.3052 0.52668 0.03349 0.0
H565 H 0.30046 0.53861 0.98364 0.0
H566 H 0.16642 0.38967 0.02561 0.0
H567 H 0.15827 0.39883 0.97588 0.0
H568 H 0.18619 0.41468 0.08163 0.0
H569 H 0.22394 0.44008 0.10372 0.0
C570 C 0.76729 0.19036 0.51847 0.0
C571 C 0.75308 0.19667 0.48335 0.0
C572 C 0.79074 0.25438 0.4895 0.0
C573 C 0.80466 0.24814 0.5251 0.0
N574 N 0.80237 0.21185 0.579 0.0
N575 N 0.74609 0.23412 0.44044 0.0
C576 C 0.79175 0.21656 0.54127 0.0
C577 C 0.76301 0.22857 0.47068 0.0
N578 N 0.75779 0.15929 0.52946 0.0
N579 N 0.80522 0.28444 0.47199 0.0
H580 H 0.72623 0.21563 0.42512 0.0
H581 H 0.75004 0.25695 0.43293 0.0
H582 H 0.82579 0.30404 0.48439 0.0
H583 H 0.79842 0.28954 0.44327 0.0
H584 H 0.76994 0.15304 0.55123 0.0
H585 H 0.73852 0.13943 0.51521 0.0
H586 H 0.79186 0.18985 0.5946 0.0
H587 H 0.82004 0.2307 0.59671 0.0
C588 C 0.50553 0.7672 0.00614 0.0
C589 C 0.5274 0.77865 0.04018 0.0
C590 C 0.55987 0.7584 0.00756 0.0
C591 C 0.54279 0.75464 0.96977 0.0
N592 N 0.49509 0.74688 0.93453 0.0
N593 N 0.56135 0.76629 0.08286 0.0
C594 C 0.51368 0.75557 0.96989 0.0
C595 C 0.55016 0.76811 0.0442 0.0
N596 N 0.47714 0.76729 0.00928 0.0
N597 N 0.58647 0.75488 0.00769 0.0
H598 H 0.55159 0.76976 0.11025 0.0
H599 H 0.57667 0.75705 0.088 0.0
H600 H 0.59338 0.74664 0.98164 0.0
H601 H 0.60225 0.76126 0.033 0.0
H602 H 0.45932 0.75856 0.98636 0.0
H603 H 0.47042 0.77386 0.03709 0.0
H604 H 0.47493 0.74945 0.93062 0.0
H605 H 0.50019 0.73688 0.9086 0.0
C606 C 0.74447 0.51092 0.5428 0.0
C607 C 0.74645 0.54085 0.55037 0.0
C608 C 0.77922 0.56323 0.48749 0.0
C609 C 0.78423 0.53645 0.48716 0.0
N610 N 0.7679 0.48228 0.50812 0.0
N611 N 0.76033 0.59389 0.52729 0.0
C612 C 0.76503 0.50911 0.51227 0.0
C613 C 0.76129 0.56621 0.52098 0.0
N614 N 0.72367 0.48487 0.56613 0.0
N615 N 0.7926 0.58612 0.45689 0.0
H616 H 0.74662 0.596 0.55115 0.0
H617 H 0.77345 0.61483 0.50988 0.0
H618 H 0.80613 0.58456 0.43238 0.0
H619 H 0.78822 0.60521 0.45367 0.0
H620 H 0.71957 0.46166 0.56132 0.0
H621 H 0.70848 0.48641 0.58836 0.0
H622 H 0.75712 0.46254 0.52813 0.0
H623 H 0.78181 0.48016 0.48449 0.0
C624 C 0.26418 0.77976 0.06152 0.0
C625 C 0.26521 0.7915 0.02101 0.0
C626 C 0.22083 0.74103 -0.00216 0.0
C627 C 0.21422 0.73209 0.04087 0.0
N628 N 0.23575 0.73532 0.11019 0.0
N629 N 0.26176 0.77694 0.94877 0.0
C630 C 0.23843 0.74876 0.07162 0.0
C631 C 0.24939 0.7698 0.98824 0.0
N632 N 0.28711 0.79904 0.08976 0.0
N633 N 0.19924 0.72416 0.96688 0.0
H634 H 0.2845 0.79683 0.94354 0.0
H635 H 0.25199 0.76115 0.92355 0.0
H636 H 0.17798 0.70261 0.97181 0.0
H637 H 0.202 0.73252 0.93614 0.0
H638 H 0.28775 0.79289 0.12087 0.0
H639 H 0.30624 0.82143 0.08073 0.0
H640 H 0.2525 0.7461 0.13417 0.0
H641 H 0.2172 0.71211 0.11715 0.0
C642 C 0.44182 0.2057 0.43948 0.0
C643 C 0.43487 0.20005 0.48292 0.0
C644 C 0.41048 0.2343 0.4827 0.0
C645 C 0.41681 0.23952 0.43919 0.0
N646 N 0.44561 0.23773 0.37839 0.0
N647 N 0.42286 0.21713 0.54811 0.0
C648 C 0.43504 0.22782 0.41835 0.0
C649 C 0.42261 0.21716 0.50525 0.0
N650 N 0.45287 0.18852 0.41793 0.0
N651 N 0.39147 0.2442 0.50206 0.0
H652 H 0.43242 0.20534 0.56542 0.0
H653 H 0.41685 0.23144 0.56623 0.0
H654 H 0.38218 0.2569 0.48651 0.0
H655 H 0.38293 0.23774 0.53258 0.0
H656 H 0.45474 0.18879 0.3854 0.0
H657 H 0.45845 0.1724 0.43239 0.0
H658 H 0.46157 0.23253 0.36282 0.0
H659 H 0.4406 0.25363 0.36213 0.0
C660 C 0.75247 0.5006 4e-05 0.0
C661 C 0.76963 0.52606 0.02877 0.0
C662 C 0.75318 0.55984 0.99127 0.0
C663 C 0.74297 0.53756 0.95778 0.0
N664 N 0.7226 0.48337 0.93422 0.0
N665 N 0.76815 0.56951 0.06474 0.0
C666 C 0.73861 0.50641 0.96398 0.0
C667 C 0.76399 0.55241 0.02887 0.0
N668 N 0.75018 0.47148 0.00744 0.0
N669 N 0.75469 0.58881 0.98599 0.0
H670 H 0.77252 0.56207 0.09352 0.0
H671 H 0.76276 0.58799 0.06709 0.0
H672 H 0.74595 0.59428 0.9591 0.0
H673 H 0.76562 0.60763 0.00742 0.0
H674 H 0.73903 0.45175 0.98751 0.0
H675 H 0.75854 0.46684 0.03538 0.0
H676 H 0.71897 0.46012 0.93546 0.0
H677 H 0.71175 0.48761 0.90843 0.0
C678 C 0.19885 0.76051 0.49064 0.0
C679 C 0.20407 0.76042 0.44699 0.0
C680 C 0.26073 0.77727 0.45949 0.0
C681 C 0.25699 0.78542 0.50098 0.0
N682 N 0.22136 0.76634 0.56048 0.0
N683 N 0.2367 0.76007 0.3902 0.0
C684 C 0.22554 0.77096 0.51823 0.0
C685 C 0.23396 0.76534 0.43168 0.0
N686 N 0.16908 0.75286 0.50524 0.0
N687 N 0.28951 0.78033 0.44759 0.0
H688 H 0.2167 0.74985 0.3703 0.0
H689 H 0.25826 0.76571 0.37549 0.0
H690 H 0.30801 0.78611 0.46918 0.0
H691 H 0.29407 0.77428 0.41809 0.0
H692 H 0.16462 0.75635 0.53619 0.0
H693 H 0.14895 0.74389 0.4857 0.0
H694 H 0.19884 0.75419 0.57478 0.0
H695 H 0.24049 0.77096 0.58041 0.0
C696 C 0.43487 0.19058 0.0018 0.0
C697 C 0.45448 0.2042 0.96603 0.0
C698 C 0.49203 0.25112 0.00682 0.0
C699 C 0.46816 0.24125 0.03842 0.0
N700 N 0.42878 0.19494 0.0767 0.0
N701 N 0.50528 0.24237 0.93605 0.0
C702 C 0.44332 0.20863 0.03961 0.0
C703 C 0.48479 0.23254 0.96953 0.0
N704 N 0.40723 0.16155 -0.00141 0.0
N705 N 0.5212 0.27813 0.013 0.0
H706 H 0.50035 0.22806 0.90933 0.0
H707 H 0.52676 0.26417 0.93449 0.0
H708 H 0.52698 0.2905 0.04149 0.0
H709 H 0.54028 0.28674 0.99192 0.0
H710 H 0.38978 0.15196 0.022 0.0
H711 H 0.40153 0.14755 0.97149 0.0
H712 H 0.41152 0.17073 0.07988 0.0
H713 H 0.4373 0.2069 0.10519 0.0
C714 C 0.2069 0.43137 0.52921 0.0
C715 C 0.19782 0.45267 0.51098 0.0
C716 C 0.23841 0.4669 0.45603 0.0
C717 C 0.24474 0.4429 0.47155 0.0
N718 N 0.23339 0.39994 0.52017 0.0
N719 N 0.20124 0.48729 0.45373 0.0
C720 C 0.22849 0.42441 0.50737 0.0
C721 C 0.21278 0.46983 0.47369 0.0
N722 N 0.19575 0.41875 0.56815 0.0
N723 N 0.25687 0.48686 0.42442 0.0
H724 H 0.1822 0.48977 0.4652 0.0
H725 H 0.20871 0.4972 0.42399 0.0
H726 H 0.27503 0.48456 0.40956 0.0
H727 H 0.25583 0.50713 0.41502 0.0
H728 H 0.20393 0.4056 0.58497 0.0
H729 H 0.1805 0.42401 0.58554 0.0
H730 H 0.2194 0.38314 0.54288 0.0
H731 H 0.25011 0.39498 0.50612 0.0
C732 C 0.80234 0.2327 0.98926 0.0
C733 C 0.79397 0.23877 0.94914 0.0
C734 C 0.73782 0.21627 0.97031 0.0
C735 C 0.74538 0.20675 0.00901 0.0
N736 N 0.78558 0.21694 0.06135 0.0
N737 N 0.75847 0.249 0.90742 0.0
C738 C 0.77808 0.21898 0.02057 0.0
C739 C 0.76324 0.23513 0.94204 0.0
N740 N 0.83266 0.23781 0.99638 0.0
N741 N 0.70654 0.20523 0.95877 0.0
H742 H 0.77719 0.26283 0.8866 0.0
H743 H 0.73733 0.2496 0.90184 0.0
H744 H 0.68694 0.1918 0.97827 0.0
H745 H 0.69981 0.20806 0.92871 0.0
H746 H 0.83922 0.23025 0.02339 0.0
H747 H 0.85101 0.24861 0.97422 0.0
H748 H 0.80912 0.22745 0.07255 0.0
H749 H 0.76801 0.20744 0.08475 0.0
C750 C 0.59054 0.82391 0.48711 0.0
C751 C 0.58133 0.81653 0.44457 0.0
C752 C 0.5578 0.75904 0.45873 0.0
C753 C 0.56727 0.76639 0.50138 0.0
N754 N 0.58419 0.80415 0.55849 0.0
N755 N 0.54896 0.77784 0.39203 0.0
C756 C 0.58081 0.79838 0.51632 0.0
C757 C 0.56239 0.78426 0.43118 0.0
N758 N 0.61005 0.85517 0.4991 0.0
N759 N 0.54671 0.72858 0.44374 0.0
H760 H 0.5521 0.79598 0.37118 0.0
H761 H 0.53236 0.75479 0.38179 0.0
H762 H 0.54301 0.70926 0.46254 0.0
H763 H 0.54329 0.72284 0.41197 0.0
H764 H 0.6206 0.86183 0.52865 0.0
H765 H 0.61744 0.87451 0.47852 0.0
H766 H 0.59126 0.82658 0.57165 0.0
H767 H 0.57681 0.78569 0.58054 0.0
C768 C 0.41214 0.42244 0.01335 0.0
C769 C 0.38476 0.41219 0.0395 0.0
C770 C 0.38866 0.36555 0.06258 0.0
C771 C 0.41703 0.37653 0.03813 0.0
N772 N 0.45205 0.41069 0.9836 0.0
N773 N 0.34173 0.37011 0.07953 0.0
C774 C 0.42742 0.40337 0.01101 0.0
C775 C 0.37141 0.38248 0.06118 0.0
N776 N 0.42432 0.4511 0.99254 0.0
N777 N 0.37867 0.33926 0.08804 0.0
H778 H 0.32818 0.38169 0.07854 0.0
H779 H 0.3291 0.34714 0.09242 0.0
H780 H 0.38871 0.32431 0.08708 0.0
H781 H 0.36129 0.33287 0.1113 0.0
H782 H 0.44598 0.46176 0.97616 0.0
H783 H 0.41328 0.46516 0.99323 0.0
H784 H 0.45921 0.42822 0.96042 0.0
H785 H 0.46396 0.39748 0.98211 0.0
C786 C 0.02407 0.38668 0.51983 0.0
C787 C 0.03683 0.41975 0.51015 0.0
C788 C 0.98284 0.41105 0.49694 0.0
C789 C 0.97013 0.37905 0.51134 0.0
N790 N 0.97682 0.33331 0.52355 0.0
N791 N 0.03059 0.46194 0.47915 0.0
C792 C 0.99029 0.36577 0.51794 0.0
C793 C 0.01684 0.4314 0.49484 0.0
N794 N 0.04407 0.37589 0.53369 0.0
N795 N 0.96222 0.42198 0.48713 0.0
H796 H 0.05554 0.47688 0.47744 0.0
H797 H 0.0177 0.47172 0.46534 0.0
H798 H 0.93734 0.40658 0.48632 0.0
H799 H 0.96938 0.44582 0.48017 0.0
H800 H 0.03602 0.35315 0.54643 0.0
H801 H 0.0691 0.39029 0.53405 0.0
H802 H 0.99003 0.32149 0.52562 0.0
H803 H 0.95196 0.31775 0.52239 0.0
C804 C 0.61698 0.98661 0.08056 0.0
C805 C 0.59172 0.96799 0.05188 0.0
C806 C 0.59795 0.01755 0.01999 0.0
C807 C 0.62177 0.03586 0.05038 0.0
N808 N 0.66114 0.03905 0.10012 0.0
N809 N 0.56464 0.96561 0.9869 0.0
C810 C 0.63341 0.02071 0.07788 0.0
C811 C 0.58439 0.98341 0.019 0.0
N812 N 0.62532 0.97162 0.11051 0.0
N813 N 0.58719 0.03258 0.9935 0.0
H814 H 0.55318 0.94061 0.98584 0.0
H815 H 0.56117 0.97566 0.95984 0.0
H816 H 0.59736 0.05752 0.99249 0.0
H817 H 0.56709 0.02042 0.97423 0.0
H818 H 0.63981 0.98344 0.13624 0.0
H819 H 0.61698 0.94694 0.1104 0.0
H820 H 0.67284 0.0296 0.11761 0.0
H821 H 0.67443 0.06408 0.09783 0.0
C822 C 0.6578 0.63828 0.57167 0.0
C823 C 0.65232 0.61594 0.53915 0.0
C824 C 0.61394 0.62864 0.50558 0.0
C825 C 0.61825 0.64971 0.53941 0.0
N826 N 0.65136 0.6825 0.59637 0.0
N827 N 0.63163 0.5948 0.47088 0.0
C828 C 0.64255 0.65708 0.56977 0.0
C829 C 0.63256 0.6129 0.50448 0.0
N830 N 0.67605 0.64012 0.60573 0.0
N831 N 0.59104 0.62252 0.47588 0.0
H832 H 0.64517 0.58319 0.4699 0.0
H833 H 0.61973 0.59333 0.44295 0.0
H834 H 0.57814 0.63469 0.47496 0.0
H835 H 0.58401 0.60479 0.45304 0.0
H836 H 0.67706 0.65239 0.63312 0.0
H837 H 0.68888 0.62783 0.60767 0.0
H838 H 0.67097 0.69101 0.61666 0.0
H839 H 0.6411 0.69725 0.5951 0.0
C840 C 0.97302 0.60956 0.04211 0.0
C841 C 0.95585 0.57832 0.02432 0.0
C842 C 0.00669 0.58075 0.00522 0.0
C843 C 0.02363 0.61129 0.02478 0.0
N844 N 0.02432 0.65858 0.0514 0.0
N845 N 0.95513 0.53693 0.98104 0.0
C846 C 0.00714 0.62694 0.03975 0.0
C847 C 0.97237 0.56488 0.00299 0.0
N848 N 0.95666 0.62203 0.06275 0.0
N849 N 0.02337 0.56648 0.99066 0.0
H850 H 0.93004 0.52492 0.97948 0.0
H851 H 0.96548 0.52692 0.962 0.0
H852 H 0.0485 0.57812 0.99081 0.0
H853 H 0.01255 0.54287 0.97992 0.0
H854 H 0.96776 0.64263 0.08126 0.0
H855 H 0.93157 0.61088 0.06304 0.0
H856 H 0.01385 0.67242 0.05908 0.0
H857 H 0.04941 0.67197 0.04972 0.0
C858 C 0.367 0.01897 0.58209 0.0
C859 C 0.39063 0.03339 0.55024 0.0
C860 C 0.37811 0.97984 0.5249 0.0
C861 C 0.35688 0.96574 0.55952 0.0
N862 N 0.33069 0.97125 0.6212 0.0
N863 N 0.41751 0.02863 0.48898 0.0
C864 C 0.35127 0.98517 0.58813 0.0
C865 C 0.39548 0.01409 0.52047 0.0
N866 N 0.35801 0.03749 0.60475 0.0
N867 N 0.38257 0.96047 0.49742 0.0
H868 H 0.43178 0.05347 0.48591 0.0
H869 H 0.42313 0.01664 0.46639 0.0
H870 H 0.3726 0.93577 0.50174 0.0
H871 H 0.39588 0.96824 0.46992 0.0
H872 H 0.33865 0.02824 0.62544 0.0
H873 H 0.36778 0.06214 0.59996 0.0
H874 H 0.32972 0.98408 0.64694 0.0
H875 H 0.31512 0.94654 0.62394 0.0
C876 C 0.63639 0.65068 0.90437 0.0
C877 C 0.61705 0.65014 0.93832 0.0
C878 C 0.63498 0.61889 0.98045 0.0
C879 C 0.65035 0.61568 0.9444 0.0
N880 N 0.66644 0.62817 0.87197 0.0
N881 N 0.60094 0.63814 0.01051 0.0
C882 C 0.65162 0.63185 0.90652 0.0
C883 C 0.61757 0.63587 0.97722 0.0
N884 N 0.64124 0.67033 0.8707 0.0
N885 N 0.63701 0.60547 0.01734 0.0
H886 H 0.59039 0.65256 0.00968 0.0
H887 H 0.59757 0.62616 0.03885 0.0
H888 H 0.64977 0.59312 0.01994 0.0
H889 H 0.62764 0.60764 0.04573 0.0
H890 H 0.65761 0.67437 0.84679 0.0
H891 H 0.63124 0.68527 0.86852 0.0
H892 H 0.66391 0.63494 0.84182 0.0
H893 H 0.68028 0.6169 0.873 0.0
C894 C 0.9793 0.63181 0.41111 0.0
C895 C 0.96002 0.60739 0.44021 0.0
C896 C 0.00849 0.61926 0.48064 0.0
C897 C 0.02771 0.64061 0.44847 0.0
N898 N 0.03189 0.66438 0.38022 0.0
N899 N 0.9556 0.57612 0.5016 0.0
C900 C 0.01325 0.6462 0.41301 0.0
C901 C 0.97437 0.60083 0.47508 0.0
N902 N 0.9651 0.64203 0.38236 0.0
N903 N 0.0229 0.61676 0.51632 0.0
H904 H 0.93065 0.56255 0.49851 0.0
H905 H 0.96476 0.56779 0.52504 0.0
H906 H 0.04785 0.62955 0.52055 0.0
H907 H 0.01023 0.60395 0.54273 0.0
H908 H 0.978 0.66204 0.36319 0.0
H909 H 0.94023 0.63261 0.38059 0.0
H910 H 0.02242 0.66559 0.3513 0.0
H911 H 0.05701 0.67641 0.38049 0.0
C912 C 0.39862 0.02146 0.95151 0.0
C913 C 0.39959 0.03635 0.91276 0.0
C914 C 0.36185 0.98402 0.88231 0.0
C915 C 0.36365 0.96864 0.91952 0.0
N916 N 0.38905 0.97284 0.98678 0.0
N917 N 0.38622 0.0316 0.83891 0.0
C918 C 0.38353 0.98738 0.95342 0.0
C919 C 0.38291 0.01752 0.87729 0.0
N920 N 0.41177 0.03975 0.98661 0.0
N921 N 0.33813 0.96748 0.85334 0.0
H922 H 0.39894 0.05638 0.83397 0.0
H923 H 0.37801 0.01838 0.81125 0.0
H924 H 0.31994 0.94371 0.85718 0.0
H925 H 0.3339 0.97845 0.82783 0.0
H926 H 0.40854 0.03005 0.01663 0.0
H927 H 0.42396 0.06484 0.98625 0.0
H928 H 0.40593 0.98552 0.01008 0.0
H929 H 0.37965 0.94807 0.98903 0.0
C930 C 0.36392 0.36292 0.46403 0.0
C931 C 0.37884 0.39632 0.47257 0.0
C932 C 0.4294 0.39791 0.49051 0.0
C933 C 0.41495 0.36491 0.47975 0.0
N934 N 0.36714 0.31408 0.46643 0.0
N935 N 0.42238 0.44419 0.50291 0.0
C936 C 0.38163 0.34676 0.47019 0.0
C937 C 0.41053 0.41336 0.48902 0.0
N938 N 0.33332 0.34706 0.44802 0.0
N939 N 0.46139 0.41451 0.50062 0.0
H940 H 0.40891 0.45586 0.50188 0.0
H941 H 0.44439 0.45738 0.51816 0.0
H942 H 0.4751 0.40319 0.50388 0.0
H943 H 0.47456 0.43933 0.50461 0.0
H944 H 0.32251 0.32387 0.43581 0.0
H945 H 0.31901 0.35772 0.44496 0.0
H946 H 0.34239 0.29892 0.46344 0.0
H947 H 0.37971 0.3017 0.46982 0.0
C948 C 0.00968 0.35214 0.93383 0.0
C949 C 0.03025 0.376 0.9628 0.0
C950 C 0.98351 0.36933 0.00288 0.0
C951 C 0.96302 0.34699 0.9723 0.0
N952 N 0.95553 0.31333 0.91199 0.0
N953 N 0.03845 0.40409 0.02801 0.0
C954 C 0.97583 0.33702 0.93905 0.0
C955 C 0.01765 0.38334 -0.0013 0.0
N956 N 0.02281 0.34519 0.90003 0.0
N957 N 0.97015 0.37761 0.03497 0.0
H958 H 0.06339 0.41454 0.02516 0.0
H959 H 0.03141 0.40982 0.05602 0.0
H960 H 0.94527 0.36684 0.03903 0.0
H961 H 0.98326 0.39523 0.05716 0.0
H962 H 0.00983 0.33212 0.87398 0.0
H963 H 0.04743 0.35346 0.89726 0.0
H964 H 0.96296 0.30233 0.8901 0.0
H965 H 0.93057 0.30302 0.91234 0.0
C966 C 0.62653 0.96716 0.43474 0.0
C967 C 0.60251 0.95234 0.46608 0.0
C968 C 0.61331 0.00498 0.49117 0.0
C969 C 0.63577 0.0197 0.45792 0.0
N970 N 0.67103 0.0163 0.40681 0.0
N971 N 0.58104 0.95666 0.53232 0.0
C972 C 0.64462 0.0012 0.43233 0.0
C973 C 0.59863 0.97113 0.4972 0.0
N974 N 0.6317 0.94847 0.40698 0.0
N975 N 0.60454 0.0229 0.5153 0.0
H976 H 0.57024 0.93194 0.53742 0.0
H977 H 0.57964 0.9693 0.558 0.0
H978 H 0.61433 0.04764 0.5116 0.0
H979 H 0.58569 0.01296 0.53681 0.0
H980 H 0.64536 0.95724 0.37978 0.0
H981 H 0.62148 0.92366 0.41073 0.0
H982 H 0.68056 0.00435 0.39006 0.0
H983 H 0.68547 0.04127 0.40528 0.0
C984 C 0.49346 0.60165 0.02279 0.0
C985 C 0.48136 0.61298 0.99099 0.0
C986 C 0.42707 0.57706 0.01785 0.0
C987 C 0.43892 0.55937 0.04072 0.0
N988 N 0.48574 0.55277 0.05322 0.0
N989 N 0.43578 0.61166 0.95761 0.0
C990 C 0.47288 0.57129 0.04082 0.0
C991 C 0.44781 0.60089 0.98841 0.0
N992 N 0.52509 0.61901 0.03375 0.0
N993 N 0.39685 0.57216 0.02504 0.0
H994 H 0.45083 0.6301 0.93715 0.0
H995 H 0.4112 0.60127 0.9515 0.0
H996 H 0.38221 0.55749 0.04917 0.0
H997 H 0.38814 0.58588 0.01076 0.0
H998 H 0.53485 0.61237 0.05847 0.0
H999 H 0.53988 0.64193 0.02137 0.0
H1000 H 0.51035 0.56081 0.05123 0.0
H1001 H 0.47216 0.52812 0.05854 0.0
C1002 C 0.8718 0.41671 0.47674 0.0
C1003 C 0.87663 0.42231 0.52064 0.0
C1004 C 0.87418 0.47192 0.51351 0.0
C1005 C 0.87153 0.46737 0.46937 0.0
N1006 N 0.85549 0.43051 0.41155 0.0
N1007 N 0.87103 0.44822 0.58194 0.0
C1008 C 0.86612 0.43796 0.45194 0.0
C1009 C 0.87391 0.44762 0.53938 0.0
N1010 N 0.8749 0.39273 0.45806 0.0
N1011 N 0.87898 0.5001 0.53059 0.0
H1012 H 0.87031 0.4303 0.60131 0.0
H1013 H 0.86608 0.46438 0.59746 0.0
H1014 H 0.87821 0.51806 0.51319 0.0
H1015 H 0.88533 0.50639 0.56182 0.0
H1016 H 0.8759 0.39054 0.42569 0.0
H1017 H 0.87857 0.37606 0.47445 0.0
H1018 H 0.84825 0.40817 0.39795 0.0
H1019 H 0.85057 0.44562 0.3933 0.0
C1020 C 0.4365 0.91661 0.98774 0.0
C1021 C 0.408 0.88714 0.97869 0.0
C1022 C 0.42355 0.85998 0.03176 0.0
C1023 C 0.45364 0.88859 0.03648 0.0
N1024 N 0.49126 0.9424 0.01257 0.0
N1025 N 0.37621 0.82944 0.98838 0.0
C1026 C 0.46077 0.91639 0.01274 0.0
C1027 C 0.40181 0.85841 -7e-05 0.0
N1028 N 0.44006 0.94525 0.97403 0.0
N1029 N 0.41556 0.83465 0.05819 0.0
H1030 H 0.36044 0.82696 0.96425 0.0
H1031 H 0.37225 0.80746 1e-05 0.0
H1032 H 0.43115 0.8351 0.08142 0.0
H1033 H 0.39267 0.8144 0.05945 0.0
H1034 H 0.45854 0.96751 0.98423 0.0
H1035 H 0.42303 0.94721 0.95596 0.0
H1036 H 0.4987 0.9615 0.99161 0.0
H1037 H 0.51007 0.94372 0.0305 0.0
C1038 C 0.58761 0.43428 0.44872 0.0
C1039 C 0.56269 0.41018 0.47372 0.0
C1040 C 0.59593 0.43442 0.53595 0.0
C1041 C 0.61475 0.46273 0.5126 0.0
N1042 N 0.63255 0.48908 0.44605 0.0
N1043 N 0.54444 0.3857 0.54227 0.0
C1044 C 0.61249 0.46219 0.46849 0.0
C1045 C 0.56764 0.40902 0.51756 0.0
N1046 N 0.58688 0.4305 0.40624 0.0
N1047 N 0.60449 0.43294 0.57637 0.0
H1048 H 0.52335 0.36642 0.53071 0.0
H1049 H 0.54535 0.38633 0.57489 0.0
H1050 H 0.6251 0.45195 0.58985 0.0
H1051 H 0.59331 0.41217 0.59462 0.0
H1052 H 0.60538 0.44613 0.38641 0.0
H1053 H 0.56903 0.40981 0.39149 0.0
H1054 H 0.62971 0.49169 0.41418 0.0
H1055 H 0.6516 0.50925 0.46012 0.0
C1056 C 0.13685 0.54714 0.96869 0.0
C1057 C 0.12902 0.51754 0.98725 0.0
C1058 C 0.12087 0.53698 0.05427 0.0
C1059 C 0.11896 0.56185 0.03248 0.0
N1060 N 0.12362 0.58933 0.96626 0.0
N1061 N 0.11717 0.48474 0.04898 0.0
C1062 C 0.12751 0.56736 0.98916 0.0
C1063 C 0.12287 0.51286 0.03077 0.0
N1064 N 0.15149 0.55475 0.9304 0.0
N1065 N 0.12109 0.53671 0.09709 0.0
H1066 H 0.12003 0.46746 0.03269 0.0
H1067 H 0.10863 0.4782 0.07949 0.0
H1068 H 0.12088 0.55483 0.11497 0.0
H1069 H 0.12488 0.52053 0.1146 0.0
H1070 H 0.1602 0.57725 0.91643 0.0
H1071 H 0.15789 0.53946 0.91515 0.0
H1072 H 0.12691 0.59174 0.9339 0.0
H1073 H 0.11371 0.60272 0.978 0.0
C1074 C 0.55057 0.12674 0.49895 0.0
C1075 C 0.52273 0.09861 0.51359 0.0
C1076 C 0.54345 0.06534 0.48386 0.0
C1077 C 0.56911 0.09305 0.46493 0.0
N1078 N 0.5933 0.14939 0.44737 0.0
N1079 N 0.48957 0.04041 0.51145 0.0
C1080 C 0.57157 0.12358 0.47035 0.0
C1081 C 0.51824 0.0677 0.50354 0.0
N1082 N 0.5581 0.15636 0.51407 0.0
N1083 N 0.54374 0.03695 0.48494 0.0
H1084 H 0.47003 0.04046 0.52551 0.0
H1085 H 0.48403 0.01781 0.5002 0.0
H1086 H 0.56195 0.03396 0.4717 0.0
H1087 H 0.52758 0.01722 0.50276 0.0
H1088 H 0.57978 0.17717 0.50742 0.0
H1089 H 0.5445 0.15977 0.53686 0.0
H1090 H 0.59381 0.17137 0.44704 0.0
H1091 H 0.60865 0.1479 0.42543 0.0
C1092 C 0.59066 0.44484 0.05869 0.0
C1093 C 0.56447 0.41969 0.03635 0.0
C1094 C 0.59738 0.43727 0.97278 0.0
C1095 C 0.61759 0.46707 0.9921 0.0
N1096 N 0.63735 0.49856 0.05476 0.0
N1097 N 0.54348 0.39202 0.9698 0.0
C1098 C 0.61601 0.47035 0.03582 0.0
C1099 C 0.56828 0.41508 0.99297 0.0
N1100 N 0.59109 0.44421 0.10148 0.0
N1101 N 0.60516 0.43158 0.9338 0.0
H1102 H 0.52084 0.37605 0.9817 0.0
H1103 H 0.54449 0.39045 0.93732 0.0
H1104 H 0.62626 0.44851 0.91874 0.0
H1105 H 0.59272 0.40934 0.91887 0.0
H1106 H 0.61054 0.46074 0.11937 0.0
H1107 H 0.57333 0.42507 0.11874 0.0
H1108 H 0.63516 0.50404 0.08575 0.0
H1109 H 0.65677 0.51687 0.03854 0.0
C1110 C 0.14139 0.62343 0.52947 0.0
C1111 C 0.14086 0.62494 0.48504 0.0
C1112 C 0.13338 0.57074 0.47957 0.0
C1113 C 0.13234 0.56845 0.52395 0.0
N1114 N 0.14562 0.59544 0.59066 0.0
N1115 N 0.14955 0.60608 0.41926 0.0
C1116 C 0.13987 0.59587 0.54876 0.0
C1117 C 0.1414 0.60056 0.46066 0.0
N1118 N 0.14133 0.6471 0.5532 0.0
N1119 N 0.12441 0.54409 0.45532 0.0
H1120 H 0.15648 0.62827 0.40519 0.0
H1121 H 0.15299 0.59024 0.40054 0.0
H1122 H 0.11787 0.52149 0.46754 0.0
H1123 H 0.12099 0.54384 0.42303 0.0
H1124 H 0.13777 0.64532 0.58551 0.0
H1125 H 0.14335 0.66802 0.54043 0.0
H1126 H 0.15408 0.6156 0.60989 0.0
H1127 H 0.14492 0.5756 0.60526 0.0
C1128 C 0.56703 0.15466 0.02997 0.0
C1129 C 0.56383 0.12365 0.03471 0.0
C1130 C 0.51794 0.10116 0.98662 0.0
C1131 C 0.5244 0.13266 0.97654 0.0
N1132 N 0.55446 0.1897 0.98826 0.0
N1133 N 0.53939 0.06823 0.01167 0.0
C1134 C 0.54859 0.15958 -0.00153 0.0
C1135 C 0.53988 0.09703 0.01187 0.0
N1136 N 0.5872 0.17905 0.05605 0.0
N1137 N 0.49073 0.07499 0.97163 0.0
H1138 H 0.55543 0.0639 0.02862 0.0
H1139 H 0.52506 0.04946 0.99135 0.0
H1140 H 0.47419 0.07699 0.95243 0.0
H1141 H 0.48294 0.05153 0.98156 0.0
H1142 H 0.5887 0.20146 0.0568 0.0
H1143 H 0.60074 0.17597 0.07937 0.0
H1144 H 0.57385 0.21075 -0.00014 0.0
H1145 H 0.5404 0.19352 0.96651 0.0
C1146 C 0.44366 0.56744 0.53077 0.0
C1147 C 0.4742 0.5874 0.51209 0.0
C1148 C 0.45279 0.56203 0.44397 0.0
C1149 C 0.42441 0.53849 0.46428 0.0
N1150 N 0.38689 0.53019 0.52036 0.0
N1151 N 0.50775 0.60586 0.45036 0.0
C1152 C 0.41782 0.54444 0.50578 0.0
C1153 C 0.47852 0.58586 0.46827 0.0
N1154 N 0.43958 0.57015 0.57268 0.0
N1155 N 0.45414 0.56245 0.40115 0.0
H1156 H 0.52653 0.62477 0.46648 0.0
H1157 H 0.51397 0.603 0.42006 0.0
H1158 H 0.43453 0.54662 0.38281 0.0
H1159 H 0.47285 0.58039 0.38374 0.0
H1160 H 0.41962 0.55343 0.58962 0.0
H1161 H 0.45707 0.58851 0.59108 0.0
H1162 H 0.38061 0.5353 0.5494 0.0
H1163 H 0.3668 0.51731 0.50141 0.0
C1164 C 0.84855 0.37755 0.02769 0.0
C1165 C 0.85413 0.37698 0.98415 0.0
C1166 C 0.8629 0.4316 0.9761 0.0
C1167 C 0.85924 0.43294 0.02002 0.0
N1168 N 0.83809 0.40454 0.08487 0.0
N1169 N 0.85503 0.39799 0.91545 0.0
C1170 C 0.8485 0.40489 0.04491 0.0
C1171 C 0.8574 0.40229 0.95788 0.0
N1172 N 0.84532 0.35307 0.05291 0.0
N1173 N 0.87348 0.45866 0.95214 0.0
H1174 H 0.85 0.37622 0.9018 0.0
H1175 H 0.85455 0.41439 0.89444 0.0
H1176 H 0.87689 0.48039 0.96394 0.0
H1177 H 0.88062 0.46008 0.92101 0.0
H1178 H 0.8451 0.35399 0.08552 0.0
H1179 H 0.84449 0.33236 0.0413 0.0
H1180 H 0.8274 0.38404 0.10364 0.0
H1181 H 0.8372 0.42413 0.09757 0.0
C1182 C 0.42809 0.84936 0.49894 0.0
C1183 C 0.45971 0.87613 0.49576 0.0
C1184 C 0.4439 0.90811 0.5385 0.0
C1185 C 0.41326 0.88056 0.54633 0.0
N1186 N 0.37868 0.82291 0.53957 0.0
N1187 N 0.49991 0.9273 0.52383 0.0
C1188 C 0.40595 0.85048 0.5281 0.0
C1189 C 0.4683 0.90418 0.51947 0.0
N1190 N 0.41889 0.82338 0.47338 0.0
N1191 N 0.4492 0.9385 0.54575 0.0
H1192 H 0.51862 0.92506 0.51069 0.0
H1193 H 0.50747 0.94681 0.54414 0.0
H1194 H 0.43101 0.94336 0.5541 0.0
H1195 H 0.47061 0.95913 0.53748 0.0
H1196 H 0.39513 0.80474 0.4709 0.0
H1197 H 0.43469 0.82175 0.45234 0.0
H1198 H 0.37355 0.80013 0.52971 0.0
H1199 H 0.36281 0.82239 0.5623 0.0
loop_
_geom_bond_atom_site_label_1
_geom_bond_atom_site_label_2
_geom_bond_distance
_geom_bond_site_symmetry_2
_ccdc_geom_bond_type
Mg0 O1 2.028 . S
Mg0 O7 1.986 . S
Mg0 O9 2.114 . S
Mg0 O10 2.251 . S
Mg0 O13 2.010 . S
O1 Mg0 2.028 . S
O1 C4 1.250 . S
O2 Mg3 2.028 . S
O2 C4 1.248 . S
Mg3 O2 2.028 . S
Mg3 O8 2.032 . S
Mg3 O10 2.079 . S
C4 O1 1.250 . S
C4 O2 1.248 . S
C5 O6 1.264 . S
C5 O13 1.249 . S
O6 C5 1.264 . S
O7 Mg0 1.986 . S
O7 C11 1.246 . S
O8 Mg3 2.032 . S
O8 C11 1.259 . S
O9 Mg0 2.114 . S
O9 C12 1.252 . S
O10 Mg0 2.251 . S
O10 Mg3 2.079 . S
O10 C12 1.273 . S
C11 O7 1.246 . S
C11 O8 1.259 . S
C12 O9 1.252 . S
C12 O10 1.273 . S
O13 Mg0 2.010 . S
O13 C5 1.249 . S
Mg14 O15 2.028 . S
Mg14 O21 1.986 . S
Mg14 O23 2.114 . S
Mg14 O24 2.251 . S
Mg14 O27 2.010 . S
O15 Mg14 2.028 . S
O15 C18 1.250 . S
O16 Mg17 2.028 . S
O16 C18 1.248 . S
Mg17 O16 2.028 . S
Mg17 O22 2.032 . S
Mg17 O24 2.079 . S
C18 O15 1.250 . S
C18 O16 1.248 . S
C19 O20 1.264 . S
C19 O27 1.249 . S
O20 C19 1.264 . S
O21 Mg14 1.986 . S
O21 C25 1.246 . S
O22 Mg17 2.032 . S
O22 C25 1.259 . S
O23 Mg14 2.114 . S
O23 C26 1.252 . S
O24 Mg14 2.251 . S
O24 Mg17 2.079 . S
O24 C26 1.273 . S
C25 O21 1.246 . S
C25 O22 1.259 . S
C26 O23 1.252 . S
C26 O24 1.273 . S
O27 Mg14 2.010 . S
O27 C19 1.249 . S
Mg28 O29 2.028 . S
Mg28 O35 1.986 . S
Mg28 O37 2.114 . S
Mg28 O38 2.251 . S
Mg28 O41 2.010 . S
O29 Mg28 2.028 . S
O29 C32 1.250 . S
O30 Mg31 2.028 . S
O30 C32 1.248 . S
Mg31 O30 2.028 . S
Mg31 O36 2.032 . S
Mg31 O38 2.079 . S
C32 O29 1.250 . S
C32 O30 1.248 . S
C33 O34 1.264 . S
C33 O41 1.249 . S
O34 C33 1.264 . S
O35 Mg28 1.986 . S
O35 C39 1.246 . S
O36 Mg31 2.032 . S
O36 C39 1.259 . S
O37 Mg28 2.114 . S
O37 C40 1.252 . S
O38 Mg28 2.251 . S
O38 Mg31 2.079 . S
O38 C40 1.273 . S
C39 O35 1.246 . S
C39 O36 1.259 . S
C40 O37 1.252 . S
C40 O38 1.273 . S
O41 Mg28 2.010 . S
O41 C33 1.249 . S
Mg42 O43 2.028 . S
Mg42 O49 1.986 . S
Mg42 O51 2.114 . S
Mg42 O52 2.251 . S
Mg42 O55 2.010 . S
O43 Mg42 2.028 . S
O43 C46 1.250 . S
O44 Mg45 2.028 . S
O44 C46 1.248 . S
Mg45 O44 2.028 . S
Mg45 O50 2.032 . S
Mg45 O52 2.079 . S
C46 O43 1.250 . S
C46 O44 1.248 . S
C47 O48 1.264 . S
C47 O55 1.249 . S
O48 C47 1.264 . S
O49 Mg42 1.986 . S
O49 C53 1.246 . S
O50 Mg45 2.032 . S
O50 C53 1.259 . S
O51 Mg42 2.114 . S
O51 C54 1.252 . S
O52 Mg42 2.251 . S
O52 Mg45 2.079 . S
O52 C54 1.273 . S
C53 O49 1.246 . S
C53 O50 1.259 . S
C54 O51 1.252 . S
C54 O52 1.273 . S
O55 Mg42 2.010 . S
O55 C47 1.249 . S
Mg56 O57 2.028 . S
Mg56 O63 1.986 . S
Mg56 O65 2.114 . S
Mg56 O66 2.251 . S
Mg56 O69 2.010 . S
O57 Mg56 2.028 . S
O57 C60 1.250 . S
O58 Mg59 2.028 . S
O58 C60 1.248 . S
Mg59 O58 2.028 . S
Mg59 O64 2.032 . S
Mg59 O66 2.079 . S
C60 O57 1.250 . S
C60 O58 1.248 . S
C61 O62 1.264 . S
C61 O69 1.249 . S
O62 C61 1.264 . S
O63 Mg56 1.986 . S
O63 C67 1.246 . S
O64 Mg59 2.032 . S
O64 C67 1.259 . S
O65 Mg56 2.114 . S
O65 C68 1.252 . S
O66 Mg56 2.251 . S
O66 Mg59 2.079 . S
O66 C68 1.273 . S
C67 O63 1.246 . S
C67 O64 1.259 . S
C68 O65 1.252 . S
C68 O66 1.273 . S
O69 Mg56 2.010 . S
O69 C61 1.249 . S
Mg70 O71 2.028 . S
Mg70 O77 1.986 . S
Mg70 O79 2.114 . S
Mg70 O80 2.251 . S
Mg70 O83 2.010 . S
O71 Mg70 2.028 . S
O71 C74 1.250 . S
O72 Mg73 2.028 . S
O72 C74 1.248 . S
Mg73 O72 2.028 . S
Mg73 O78 2.032 . S
Mg73 O80 2.079 . S
C74 O71 1.250 . S
C74 O72 1.248 . S
C75 O76 1.264 . S
C75 O83 1.249 . S
O76 C75 1.264 . S
O77 Mg70 1.986 . S
O77 C81 1.246 . S
O78 Mg73 2.032 . S
O78 C81 1.259 . S
O79 Mg70 2.114 . S
O79 C82 1.252 . S
O80 Mg70 2.251 . S
O80 Mg73 2.079 . S
O80 C82 1.273 . S
C81 O77 1.246 . S
C81 O78 1.259 . S
C82 O79 1.252 . S
C82 O80 1.273 . S
O83 Mg70 2.010 . S
O83 C75 1.249 . S
Mg84 O85 2.028 . S
Mg84 O91 1.986 . S
Mg84 O93 2.114 . S
Mg84 O94 2.251 . S
Mg84 O97 2.010 . S
O85 Mg84 2.028 . S
O85 C88 1.250 . S
O86 Mg87 2.028 . S
O86 C88 1.248 . S
Mg87 O86 2.028 . S
Mg87 O92 2.032 . S
Mg87 O94 2.079 . S
C88 O85 1.250 . S
C88 O86 1.248 . S
C89 O90 1.264 . S
C89 O97 1.249 . S
O90 C89 1.264 . S
O91 Mg84 1.986 . S
O91 C95 1.246 . S
O92 Mg87 2.032 . S
O92 C95 1.259 . S
O93 Mg84 2.114 . S
O93 C96 1.252 . S
O94 Mg84 2.251 . S
O94 Mg87 2.079 . S
O94 C96 1.273 . S
C95 O91 1.246 . S
C95 O92 1.259 . S
C96 O93 1.252 . S
C96 O94 1.273 . S
O97 Mg84 2.010 . S
O97 C89 1.249 . S
Mg98 O99 2.028 . S
Mg98 O105 1.986 . S
Mg98 O107 2.114 . S
Mg98 O108 2.251 . S
Mg98 O111 2.010 . S
O99 Mg98 2.028 . S
O99 C102 1.250 . S
O100 Mg101 2.028 . S
O100 C102 1.248 . S
Mg101 O100 2.028 . S
Mg101 O106 2.032 . S
Mg101 O108 2.079 . S
C102 O99 1.250 . S
C102 O100 1.248 . S
C103 O104 1.264 . S
C103 O111 1.249 . S
O104 C103 1.264 . S
O105 Mg98 1.986 . S
O105 C109 1.246 . S
O106 Mg101 2.032 . S
O106 C109 1.259 . S
O107 Mg98 2.114 . S
O107 C110 1.252 . S
O108 Mg98 2.251 . S
O108 Mg101 2.079 . S
O108 C110 1.273 . S
C109 O105 1.246 . S
C109 O106 1.259 . S
C110 O107 1.252 . S
C110 O108 1.273 . S
O111 Mg98 2.010 . S
O111 C103 1.249 . S
Mg112 O113 2.028 . S
Mg112 O119 1.986 . S
Mg112 O121 2.114 . S
Mg112 O122 2.251 . S
Mg112 O125 2.010 . S
O113 Mg112 2.028 . S
O113 C116 1.250 . S
O114 Mg115 2.028 . S
O114 C116 1.248 . S
Mg115 O114 2.028 . S
Mg115 O120 2.032 . S
Mg115 O122 2.079 . S
C116 O113 1.250 . S
C116 O114 1.248 . S
C117 O118 1.264 . S
C117 O125 1.249 . S
O118 C117 1.264 . S
O119 Mg112 1.986 . S
O119 C123 1.246 . S
O120 Mg115 2.032 . S
O120 C123 1.259 . S
O121 Mg112 2.114 . S
O121 C124 1.252 . S
O122 Mg112 2.251 . S
O122 Mg115 2.079 . S
O122 C124 1.273 . S
C123 O119 1.246 . S
C123 O120 1.259 . S
C124 O121 1.252 . S
C124 O122 1.273 . S
O125 Mg112 2.010 . S
O125 C117 1.249 . S
Mg126 O127 2.028 . S
Mg126 O133 1.986 . S
Mg126 O135 2.114 . S
Mg126 O136 2.251 . S
Mg126 O139 2.010 . S
O127 Mg126 2.028 . S
O127 C130 1.250 . S
O128 Mg129 2.028 . S
O128 C130 1.248 . S
Mg129 O128 2.028 . S
Mg129 O134 2.032 . S
Mg129 O136 2.079 . S
C130 O127 1.250 . S
C130 O128 1.248 . S
C131 O132 1.264 . S
C131 O139 1.249 . S
O132 C131 1.264 . S
O133 Mg126 1.986 . S
O133 C137 1.246 . S
O134 Mg129 2.032 . S
O134 C137 1.259 . S
O135 Mg126 2.114 . S
O135 C138 1.252 . S
O136 Mg126 2.251 . S
O136 Mg129 2.079 . S
O136 C138 1.273 . S
C137 O133 1.246 . S
C137 O134 1.259 . S
C138 O135 1.252 . S
C138 O136 1.273 . S
O139 Mg126 2.010 . S
O139 C131 1.249 . S
Mg140 O141 2.028 . S
Mg140 O147 1.986 . S
Mg140 O149 2.114 . S
Mg140 O150 2.251 . S
Mg140 O153 2.010 . S
O141 Mg140 2.028 . S
O141 C144 1.250 . S
O142 Mg143 2.028 . S
O142 C144 1.248 . S
Mg143 O142 2.028 . S
Mg143 O148 2.032 . S
Mg143 O150 2.079 . S
C144 O141 1.250 . S
C144 O142 1.248 . S
C145 O146 1.264 . S
C145 O153 1.249 . S
O146 C145 1.264 . S
O147 Mg140 1.986 . S
O147 C151 1.246 . S
O148 Mg143 2.032 . S
O148 C151 1.259 . S
O149 Mg140 2.114 . S
O149 C152 1.252 . S
O150 Mg140 2.251 . S
O150 Mg143 2.079 . S
O150 C152 1.273 . S
C151 O147 1.246 . S
C151 O148 1.259 . S
C152 O149 1.252 . S
C152 O150 1.273 . S
O153 Mg140 2.010 . S
O153 C145 1.249 . S
Mg154 O155 2.028 . S
Mg154 O161 1.986 . S
Mg154 O163 2.114 . S
Mg154 O164 2.251 . S
Mg154 O167 2.010 . S
O155 Mg154 2.028 . S
O155 C158 1.250 . S
O156 Mg157 2.028 . S
O156 C158 1.248 . S
Mg157 O156 2.028 . S
Mg157 O162 2.032 . S
Mg157 O164 2.079 . S
C158 O155 1.250 . S
C158 O156 1.248 . S
C159 O160 1.264 . S
C159 O167 1.249 . S
O160 C159 1.264 . S
O161 Mg154 1.986 . S
O161 C165 1.246 . S
O162 Mg157 2.032 . S
O162 C165 1.259 . S
O163 Mg154 2.114 . S
O163 C166 1.252 . S
O164 Mg154 2.251 . S
O164 Mg157 2.079 . S
O164 C166 1.273 . S
C165 O161 1.246 . S
C165 O162 1.259 . S
C166 O163 1.252 . S
C166 O164 1.273 . S
O167 Mg154 2.010 . S
O167 C159 1.249 . S
Mg168 O169 2.028 . S
Mg168 O175 1.986 . S
Mg168 O177 2.114 . S
Mg168 O178 2.251 . S
Mg168 O181 2.010 . S
O169 Mg168 2.028 . S
O169 C172 1.250 . S
O170 Mg171 2.028 . S
O170 C172 1.248 . S
Mg171 O170 2.028 . S
Mg171 O176 2.032 . S
Mg171 O178 2.079 . S
C172 O169 1.250 . S
C172 O170 1.248 . S
C173 O174 1.264 . S
C173 O181 1.249 . S
O174 C173 1.264 . S
O175 Mg168 1.986 . S
O175 C179 1.246 . S
O176 Mg171 2.032 . S
O176 C179 1.259 . S
O177 Mg168 2.114 . S
O177 C180 1.252 . S
O178 Mg168 2.251 . S
O178 Mg171 2.079 . S
O178 C180 1.273 . S
C179 O175 1.246 . S
C179 O176 1.259 . S
C180 O177 1.252 . S
C180 O178 1.273 . S
O181 Mg168 2.010 . S
O181 C173 1.249 . S
Mg182 O183 2.028 . S
Mg182 O189 1.986 . S
Mg182 O191 2.114 . S
Mg182 O192 2.251 . S
Mg182 O195 2.010 . S
O183 Mg182 2.028 . S
O183 C186 1.250 . S
O184 Mg185 2.028 . S
O184 C186 1.248 . S
Mg185 O184 2.028 . S
Mg185 O190 2.032 . S
Mg185 O192 2.079 . S
C186 O183 1.250 . S
C186 O184 1.248 . S
C187 O188 1.264 . S
C187 O195 1.249 . S
O188 C187 1.264 . S
O189 Mg182 1.986 . S
O189 C193 1.246 . S
O190 Mg185 2.032 . S
O190 C193 1.259 . S
O191 Mg182 2.114 . S
O191 C194 1.252 . S
O192 Mg182 2.251 . S
O192 Mg185 2.079 . S
O192 C194 1.273 . S
C193 O189 1.246 . S
C193 O190 1.259 . S
C194 O191 1.252 . S
C194 O192 1.273 . S
O195 Mg182 2.010 . S
O195 C187 1.249 . S
Mg196 O197 2.028 . S
Mg196 O203 1.986 . S
Mg196 O205 2.114 . S
Mg196 O206 2.251 . S
Mg196 O209 2.010 . S
O197 Mg196 2.028 . S
O197 C200 1.250 . S
O198 Mg199 2.028 . S
O198 C200 1.248 . S
Mg199 O198 2.028 . S
Mg199 O204 2.032 . S
Mg199 O206 2.079 . S
C200 O197 1.250 . S
C200 O198 1.248 . S
C201 O202 1.264 . S
C201 O209 1.249 . S
O202 C201 1.264 . S
O203 Mg196 1.986 . S
O203 C207 1.246 . S
O204 Mg199 2.032 . S
O204 C207 1.259 . S
O205 Mg196 2.114 . S
O205 C208 1.252 . S
O206 Mg196 2.251 . S
O206 Mg199 2.079 . S
O206 C208 1.273 . S
C207 O203 1.246 . S
C207 O204 1.259 . S
C208 O205 1.252 . S
C208 O206 1.273 . S
O209 Mg196 2.010 . S
O209 C201 1.249 . S
Mg210 O211 2.028 . S
Mg210 O217 1.986 . S
Mg210 O219 2.114 . S
Mg210 O220 2.251 . S
Mg210 O223 2.010 . S
O211 Mg210 2.028 . S
O211 C214 1.250 . S
O212 Mg213 2.028 . S
O212 C214 1.248 . S
Mg213 O212 2.028 . S
Mg213 O218 2.032 . S
Mg213 O220 2.079 . S
C214 O211 1.250 . S
C214 O212 1.248 . S
C215 O216 1.264 . S
C215 O223 1.249 . S
O216 C215 1.264 . S
O217 Mg210 1.986 . S
O217 C221 1.246 . S
O218 Mg213 2.032 . S
O218 C221 1.259 . S
O219 Mg210 2.114 . S
O219 C222 1.252 . S
O220 Mg210 2.251 . S
O220 Mg213 2.079 . S
O220 C222 1.273 . S
C221 O217 1.246 . S
C221 O218 1.259 . S
C222 O219 1.252 . S
C222 O220 1.273 . S
O223 Mg210 2.010 . S
O223 C215 1.249 . S
Mg224 O225 2.028 . S
Mg224 O231 1.986 . S
Mg224 O233 2.114 . S
Mg224 O234 2.251 . S
Mg224 O237 2.010 . S
O225 Mg224 2.028 . S
O225 C228 1.250 . S
O226 Mg227 2.028 . S
O226 C228 1.248 . S
Mg227 O226 2.028 . S
Mg227 O232 2.032 . S
Mg227 O234 2.079 . S
C228 O225 1.250 . S
C228 O226 1.248 . S
C229 O230 1.264 . S
C229 O237 1.249 . S
O230 C229 1.264 . S
O231 Mg224 1.986 . S
O231 C235 1.246 . S
O232 Mg227 2.032 . S
O232 C235 1.259 . S
O233 Mg224 2.114 . S
O233 C236 1.252 . S
O234 Mg224 2.251 . S
O234 Mg227 2.079 . S
O234 C236 1.273 . S
C235 O231 1.246 . S
C235 O232 1.259 . S
C236 O233 1.252 . S
C236 O234 1.273 . S
O237 Mg224 2.010 . S
O237 C229 1.249 . S
Mg238 O239 2.028 . S
Mg238 O245 1.986 . S
Mg238 O247 2.114 . S
Mg238 O248 2.251 . S
Mg238 O251 2.010 . S
O239 Mg238 2.028 . S
O239 C242 1.250 . S
O240 Mg241 2.028 . S
O240 C242 1.248 . S
Mg241 O240 2.028 . S
Mg241 O246 2.032 . S
Mg241 O248 2.079 . S
C242 O239 1.250 . S
C242 O240 1.248 . S
C243 O244 1.264 . S
C243 O251 1.249 . S
O244 C243 1.264 . S
O245 Mg238 1.986 . S
O245 C249 1.246 . S
O246 Mg241 2.032 . S
O246 C249 1.259 . S
O247 Mg238 2.114 . S
O247 C250 1.252 . S
O248 Mg238 2.251 . S
O248 Mg241 2.079 . S
O248 C250 1.273 . S
C249 O245 1.246 . S
C249 O246 1.259 . S
C250 O247 1.252 . S
C250 O248 1.273 . S
O251 Mg238 2.010 . S
O251 C243 1.249 . S
Mg252 O253 2.028 . S
Mg252 O259 1.986 . S
Mg252 O261 2.114 . S
Mg252 O262 2.251 . S
Mg252 O265 2.010 . S
O253 Mg252 2.028 . S
O253 C256 1.250 . S
O254 Mg255 2.028 . S
O254 C256 1.248 . S
Mg255 O254 2.028 . S
Mg255 O260 2.032 . S
Mg255 O262 2.079 . S
C256 O253 1.250 . S
C256 O254 1.248 . S
C257 O258 1.264 . S
C257 O265 1.249 . S
O258 C257 1.264 . S
O259 Mg252 1.986 . S
O259 C263 1.246 . S
O260 Mg255 2.032 . S
O260 C263 1.259 . S
O261 Mg252 2.114 . S
O261 C264 1.252 . S
O262 Mg252 2.251 . S
O262 Mg255 2.079 . S
O262 C264 1.273 . S
C263 O259 1.246 . S
C263 O260 1.259 . S
C264 O261 1.252 . S
C264 O262 1.273 . S
O265 Mg252 2.010 . S
O265 C257 1.249 . S
Mg266 O267 2.028 . S
Mg266 O273 1.986 . S
Mg266 O275 2.114 . S
Mg266 O276 2.251 . S
Mg266 O279 2.010 . S
O267 Mg266 2.028 . S
O267 C270 1.250 . S
O268 Mg269 2.028 . S
O268 C270 1.248 . S
Mg269 O268 2.028 . S
Mg269 O274 2.032 . S
Mg269 O276 2.079 . S
C270 O267 1.250 . S
C270 O268 1.248 . S
C271 O272 1.264 . S
C271 O279 1.249 . S
O272 C271 1.264 . S
O273 Mg266 1.986 . S
O273 C277 1.246 . S
O274 Mg269 2.032 . S
O274 C277 1.259 . S
O275 Mg266 2.114 . S
O275 C278 1.252 . S
O276 Mg266 2.251 . S
O276 Mg269 2.079 . S
O276 C278 1.273 . S
C277 O273 1.246 . S
C277 O274 1.259 . S
C278 O275 1.252 . S
C278 O276 1.273 . S
O279 Mg266 2.010 . S
O279 C271 1.249 . S
Mg280 O281 2.028 . S
Mg280 O287 1.986 . S
Mg280 O289 2.114 . S
Mg280 O290 2.251 . S
Mg280 O293 2.010 . S
O281 Mg280 2.028 . S
O281 C284 1.250 . S
O282 Mg283 2.028 . S
O282 C284 1.248 . S
Mg283 O282 2.028 . S
Mg283 O288 2.032 . S
Mg283 O290 2.079 . S
C284 O281 1.250 . S
C284 O282 1.248 . S
C285 O286 1.264 . S
C285 O293 1.249 . S
O286 C285 1.264 . S
O287 Mg280 1.986 . S
O287 C291 1.246 . S
O288 Mg283 2.032 . S
O288 C291 1.259 . S
O289 Mg280 2.114 . S
O289 C292 1.252 . S
O290 Mg280 2.251 . S
O290 Mg283 2.079 . S
O290 C292 1.273 . S
C291 O287 1.246 . S
C291 O288 1.259 . S
C292 O289 1.252 . S
C292 O290 1.273 . S
O293 Mg280 2.010 . S
O293 C285 1.249 . S
Mg294 O295 2.028 . S
Mg294 O301 1.986 . S
Mg294 O303 2.114 . S
Mg294 O304 2.251 . S
Mg294 O307 2.010 . S
O295 Mg294 2.028 . S
O295 C298 1.250 . S
O296 Mg297 2.028 . S
O296 C298 1.248 . S
Mg297 O296 2.028 . S
Mg297 O302 2.032 . S
Mg297 O304 2.079 . S
C298 O295 1.250 . S
C298 O296 1.248 . S
C299 O300 1.264 . S
C299 O307 1.249 . S
O300 C299 1.264 . S
O301 Mg294 1.986 . S
O301 C305 1.246 . S
O302 Mg297 2.032 . S
O302 C305 1.259 . S
O303 Mg294 2.114 . S
O303 C306 1.252 . S
O304 Mg294 2.251 . S
O304 Mg297 2.079 . S
O304 C306 1.273 . S
C305 O301 1.246 . S
C305 O302 1.259 . S
C306 O303 1.252 . S
C306 O304 1.273 . S
O307 Mg294 2.010 . S
O307 C299 1.249 . S
Mg308 O309 2.028 . S
Mg308 O315 1.986 . S
Mg308 O317 2.114 . S
Mg308 O318 2.251 . S
Mg308 O321 2.010 . S
O309 Mg308 2.028 . S
O309 C312 1.250 . S
O310 Mg311 2.028 . S
O310 C312 1.248 . S
Mg311 O310 2.028 . S
Mg311 O316 2.032 . S
Mg311 O318 2.079 . S
C312 O309 1.250 . S
C312 O310 1.248 . S
C313 O314 1.264 . S
C313 O321 1.249 . S
O314 C313 1.264 . S
O315 Mg308 1.986 . S
O315 C319 1.246 . S
O316 Mg311 2.032 . S
O316 C319 1.259 . S
O317 Mg308 2.114 . S
O317 C320 1.252 . S
O318 Mg308 2.251 . S
O318 Mg311 2.079 . S
O318 C320 1.273 . S
C319 O315 1.246 . S
C319 O316 1.259 . S
C320 O317 1.252 . S
C320 O318 1.273 . S
O321 Mg308 2.010 . S
O321 C313 1.249 . S
Mg322 O323 2.028 . S
Mg322 O329 1.986 . S
Mg322 O331 2.114 . S
Mg322 O332 2.251 . S
Mg322 O335 2.010 . S
O323 Mg322 2.028 . S
O323 C326 1.250 . S
O324 Mg325 2.028 . S
O324 C326 1.248 . S
Mg325 O324 2.028 . S
Mg325 O330 2.032 . S
Mg325 O332 2.079 . S
C326 O323 1.250 . S
C326 O324 1.248 . S
C327 O328 1.264 . S
C327 O335 1.249 . S
O328 C327 1.264 . S
O329 Mg322 1.986 . S
O329 C333 1.246 . S
O330 Mg325 2.032 . S
O330 C333 1.259 . S
O331 Mg322 2.114 . S
O331 C334 1.252 . S
O332 Mg322 2.251 . S
O332 Mg325 2.079 . S
O332 C334 1.273 . S
C333 O329 1.246 . S
C333 O330 1.259 . S
C334 O331 1.252 . S
C334 O332 1.273 . S
O335 Mg322 2.010 . S
O335 C327 1.249 . S
C336 C337 1.363 . S
C336 C342 1.379 . S
C336 N344 1.356 . S
C337 C336 1.363 . S
C337 C343 1.363 . S
C338 C339 1.363 . S
C338 C343 1.379 . S
C338 N345 1.356 . S
C339 C338 1.363 . S
C339 C342 1.363 . S
N340 C342 1.356 . S
N340 H352 0.984 . S
N340 H353 0.985 . S
N341 C343 1.356 . S
N341 H346 0.984 . S
N341 H347 0.985 . S
C342 C336 1.379 . S
C342 C339 1.363 . S
C342 N340 1.356 . S
C343 C337 1.363 . S
C343 C338 1.379 . S
C343 N341 1.356 . S
N344 C336 1.356 . S
N344 H350 0.984 . S
N344 H351 0.984 . S
N345 C338 1.356 . S
N345 H348 0.984 . S
N345 H349 0.985 . S
H346 N341 0.984 . S
H347 N341 0.985 . S
H348 N345 0.984 . S
H349 N345 0.985 . S
H350 N344 0.984 . S
H351 N344 0.984 . S
H352 N340 0.984 . S
H353 N340 0.985 . S
C354 C355 1.363 . S
C354 C360 1.379 . S
C354 N362 1.356 . S
C355 C354 1.363 . S
C355 C361 1.363 . S
C356 C357 1.363 . S
C356 C361 1.379 . S
C356 N363 1.356 . S
C357 C356 1.363 . S
C357 C360 1.363 . S
N358 C360 1.356 . S
N358 H370 0.984 . S
N358 H371 0.985 . S
N359 C361 1.356 . S
N359 H364 0.984 . S
N359 H365 0.985 . S
C360 C354 1.379 . S
C360 C357 1.363 . S
C360 N358 1.356 . S
C361 C355 1.363 . S
C361 C356 1.379 . S
C361 N359 1.356 . S
N362 C354 1.356 . S
N362 H368 0.984 . S
N362 H369 0.984 . S
N363 C356 1.356 . S
N363 H366 0.984 . S
N363 H367 0.985 . S
H364 N359 0.984 . S
H365 N359 0.985 . S
H366 N363 0.984 . S
H367 N363 0.985 . S
H368 N362 0.984 . S
H369 N362 0.984 . S
H370 N358 0.984 . S
H371 N358 0.985 . S
C372 C373 1.363 . S
C372 C378 1.379 . S
C372 N380 1.356 . S
C373 C372 1.363 . S
C373 C379 1.363 . S
C374 C375 1.363 . S
C374 C379 1.379 . S
C374 N381 1.356 . S
C375 C374 1.363 . S
C375 C378 1.363 . S
N376 C378 1.356 . S
N376 H388 0.984 . S
N376 H389 0.985 . S
N377 C379 1.356 . S
N377 H382 0.984 . S
N377 H383 0.985 . S
C378 C372 1.379 . S
C378 C375 1.363 . S
C378 N376 1.356 . S
C379 C373 1.363 . S
C379 C374 1.379 . S
C379 N377 1.356 . S
N380 C372 1.356 . S
N380 H386 0.984 . S
N380 H387 0.984 . S
N381 C374 1.356 . S
N381 H384 0.984 . S
N381 H385 0.985 . S
H382 N377 0.984 . S
H383 N377 0.985 . S
H384 N381 0.984 . S
H385 N381 0.985 . S
H386 N380 0.984 . S
H387 N380 0.984 . S
H388 N376 0.984 . S
H389 N376 0.985 . S
C390 C391 1.363 . S
C390 C396 1.379 . S
C390 N398 1.356 . S
C391 C390 1.363 . S
C391 C397 1.363 . S
C392 C393 1.363 . S
C392 C397 1.379 . S
C392 N399 1.356 . S
C393 C392 1.363 . S
C393 C396 1.363 . S
N394 C396 1.356 . S
N394 H406 0.984 . S
N394 H407 0.985 . S
N395 C397 1.356 . S
N395 H400 0.984 . S
N395 H401 0.985 . S
C396 C390 1.379 . S
C396 C393 1.363 . S
C396 N394 1.356 . S
C397 C391 1.363 . S
C397 C392 1.379 . S
C397 N395 1.356 . S
N398 C390 1.356 . S
N398 H404 0.984 . S
N398 H405 0.984 . S
N399 C392 1.356 . S
N399 H402 0.984 . S
N399 H403 0.985 . S
H400 N395 0.984 . S
H401 N395 0.985 . S
H402 N399 0.984 . S
H403 N399 0.985 . S
H404 N398 0.984 . S
H405 N398 0.984 . S
H406 N394 0.984 . S
H407 N394 0.985 . S
C408 C409 1.363 . S
C408 C414 1.379 . S
C408 N416 1.356 . S
C409 C408 1.363 . S
C409 C415 1.363 . S
C410 C411 1.363 . S
C410 C415 1.379 . S
C410 N417 1.356 . S
C411 C410 1.363 . S
C411 C414 1.363 . S
N412 C414 1.356 . S
N412 H424 0.984 . S
N412 H425 0.985 . S
N413 C415 1.356 . S
N413 H418 0.984 . S
N413 H419 0.985 . S
C414 C408 1.379 . S
C414 C411 1.363 . S
C414 N412 1.356 . S
C415 C409 1.363 . S
C415 C410 1.379 . S
C415 N413 1.356 . S
N416 C408 1.356 . S
N416 H422 0.984 . S
N416 H423 0.984 . S
N417 C410 1.356 . S
N417 H420 0.984 . S
N417 H421 0.985 . S
H418 N413 0.984 . S
H419 N413 0.985 . S
H420 N417 0.984 . S
H421 N417 0.985 . S
H422 N416 0.984 . S
H423 N416 0.984 . S
H424 N412 0.984 . S
H425 N412 0.985 . S
C426 C427 1.363 . S
C426 C432 1.379 . S
C426 N434 1.356 . S
C427 C426 1.363 . S
C427 C433 1.363 . S
C428 C429 1.363 . S
C428 C433 1.379 . S
C428 N435 1.356 . S
C429 C428 1.363 . S
C429 C432 1.363 . S
N430 C432 1.356 . S
N430 H442 0.984 . S
N430 H443 0.985 . S
N431 C433 1.356 . S
N431 H436 0.984 . S
N431 H437 0.985 . S
C432 C426 1.379 . S
C432 C429 1.363 . S
C432 N430 1.356 . S
C433 C427 1.363 . S
C433 C428 1.379 . S
C433 N431 1.356 . S
N434 C426 1.356 . S
N434 H440 0.984 . S
N434 H441 0.984 . S
N435 C428 1.356 . S
N435 H438 0.984 . S
N435 H439 0.985 . S
H436 N431 0.984 . S
H437 N431 0.985 . S
H438 N435 0.984 . S
H439 N435 0.985 . S
H440 N434 0.984 . S
H441 N434 0.984 . S
H442 N430 0.984 . S
H443 N430 0.985 . S
C444 C445 1.363 . S
C444 C450 1.379 . S
C444 N452 1.356 . S
C445 C444 1.363 . S
C445 C451 1.363 . S
C446 C447 1.363 . S
C446 C451 1.379 . S
C446 N453 1.356 . S
C447 C446 1.363 . S
C447 C450 1.363 . S
N448 C450 1.356 . S
N448 H460 0.984 . S
N448 H461 0.985 . S
N449 C451 1.356 . S
N449 H454 0.984 . S
N449 H455 0.985 . S
C450 C444 1.379 . S
C450 C447 1.363 . S
C450 N448 1.356 . S
C451 C445 1.363 . S
C451 C446 1.379 . S
C451 N449 1.356 . S
N452 C444 1.356 . S
N452 H458 0.984 . S
N452 H459 0.984 . S
N453 C446 1.356 . S
N453 H456 0.984 . S
N453 H457 0.985 . S
H454 N449 0.984 . S
H455 N449 0.985 . S
H456 N453 0.984 . S
H457 N453 0.985 . S
H458 N452 0.984 . S
H459 N452 0.984 . S
H460 N448 0.984 . S
H461 N448 0.985 . S
C462 C463 1.363 . S
C462 C468 1.379 . S
C462 N470 1.356 . S
C463 C462 1.363 . S
C463 C469 1.363 . S
C464 C465 1.363 . S
C464 C469 1.379 . S
C464 N471 1.356 . S
C465 C464 1.363 . S
C465 C468 1.363 . S
N466 C468 1.356 . S
N466 H478 0.984 . S
N466 H479 0.985 . S
N467 C469 1.356 . S
N467 H472 0.984 . S
N467 H473 0.985 . S
C468 C462 1.379 . S
C468 C465 1.363 . S
C468 N466 1.356 . S
C469 C463 1.363 . S
C469 C464 1.379 . S
C469 N467 1.356 . S
N470 C462 1.356 . S
N470 H476 0.984 . S
N470 H477 0.984 . S
N471 C464 1.356 . S
N471 H474 0.984 . S
N471 H475 0.985 . S
H472 N467 0.984 . S
H473 N467 0.985 . S
H474 N471 0.984 . S
H475 N471 0.985 . S
H476 N470 0.984 . S
H477 N470 0.984 . S
H478 N466 0.984 . S
H479 N466 0.985 . S
C480 C481 1.363 . S
C480 C486 1.379 . S
C480 N488 1.356 . S
C481 C480 1.363 . S
C481 C487 1.363 . S
C482 C483 1.363 . S
C482 C487 1.379 . S
C482 N489 1.356 . S
C483 C482 1.363 . S
C483 C486 1.363 . S
N484 C486 1.356 . S
N484 H496 0.984 . S
N484 H497 0.985 . S
N485 C487 1.356 . S
N485 H490 0.984 . S
N485 H491 0.985 . S
C486 C480 1.379 . S
C486 C483 1.363 . S
C486 N484 1.356 . S
C487 C481 1.363 . S
C487 C482 1.379 . S
C487 N485 1.356 . S
N488 C480 1.356 . S
N488 H494 0.984 . S
N488 H495 0.984 . S
N489 C482 1.356 . S
N489 H492 0.984 . S
N489 H493 0.985 . S
H490 N485 0.984 . S
H491 N485 0.985 . S
H492 N489 0.984 . S
H493 N489 0.985 . S
H494 N488 0.984 . S
H495 N488 0.984 . S
H496 N484 0.984 . S
H497 N484 0.985 . S
C498 C499 1.363 . S
C498 C504 1.379 . S
C498 N506 1.356 . S
C499 C498 1.363 . S
C499 C505 1.363 . S
C500 C501 1.363 . S
C500 C505 1.379 . S
C500 N507 1.356 . S
C501 C500 1.363 . S
C501 C504 1.363 . S
N502 C504 1.356 . S
N502 H514 0.984 . S
N502 H515 0.985 . S
N503 C505 1.356 . S
N503 H508 0.984 . S
N503 H509 0.985 . S
C504 C498 1.379 . S
C504 C501 1.363 . S
C504 N502 1.356 . S
C505 C499 1.363 . S
C505 C500 1.379 . S
C505 N503 1.356 . S
N506 C498 1.356 . S
N506 H512 0.984 . S
N506 H513 0.984 . S
N507 C500 1.356 . S
N507 H510 0.984 . S
N507 H511 0.985 . S
H508 N503 0.984 . S
H509 N503 0.985 . S
H510 N507 0.984 . S
H511 N507 0.985 . S
H512 N506 0.984 . S
H513 N506 0.984 . S
H514 N502 0.984 . S
H515 N502 0.985 . S
C516 C517 1.363 . S
C516 C522 1.379 . S
C516 N524 1.356 . S
C517 C516 1.363 . S
C517 C523 1.363 . S
C518 C519 1.363 . S
C518 C523 1.379 . S
C518 N525 1.356 . S
C519 C518 1.363 . S
C519 C522 1.363 . S
N520 C522 1.356 . S
N520 H532 0.984 . S
N520 H533 0.985 . S
N521 C523 1.356 . S
N521 H526 0.984 . S
N521 H527 0.985 . S
C522 C516 1.379 . S
C522 C519 1.363 . S
C522 N520 1.356 . S
C523 C517 1.363 . S
C523 C518 1.379 . S
C523 N521 1.356 . S
N524 C516 1.356 . S
N524 H530 0.984 . S
N524 H531 0.984 . S
N525 C518 1.356 . S
N525 H528 0.984 . S
N525 H529 0.985 . S
H526 N521 0.984 . S
H527 N521 0.985 . S
H528 N525 0.984 . S
H529 N525 0.985 . S
H530 N524 0.984 . S
H531 N524 0.984 . S
H532 N520 0.984 . S
H533 N520 0.985 . S
C534 C535 1.363 . S
C534 C540 1.379 . S
C534 N542 1.356 . S
C535 C534 1.363 . S
C535 C541 1.363 . S
C536 C537 1.363 . S
C536 C541 1.379 . S
C536 N543 1.356 . S
C537 C536 1.363 . S
C537 C540 1.363 . S
N538 C540 1.356 . S
N538 H550 0.984 . S
N538 H551 0.985 . S
N539 C541 1.356 . S
N539 H544 0.984 . S
N539 H545 0.985 . S
C540 C534 1.379 . S
C540 C537 1.363 . S
C540 N538 1.356 . S
C541 C535 1.363 . S
C541 C536 1.379 . S
C541 N539 1.356 . S
N542 C534 1.356 . S
N542 H548 0.984 . S
N542 H549 0.984 . S
N543 C536 1.356 . S
N543 H546 0.984 . S
N543 H547 0.985 . S
H544 N539 0.984 . S
H545 N539 0.985 . S
H546 N543 0.984 . S
H547 N543 0.985 . S
H548 N542 0.984 . S
H549 N542 0.984 . S
H550 N538 0.984 . S
H551 N538 0.985 . S
C552 C553 1.363 1_554 S
C552 C558 1.379 . S
C552 N560 1.356 . S
C553 C552 1.363 1_556 S
C553 C559 1.363 . S
C554 C555 1.363 1_556 S
C554 C559 1.379 . S
C554 N561 1.356 . S
C555 C554 1.363 1_554 S
C555 C558 1.363 . S
N556 C558 1.356 . S
N556 H568 0.984 . S
N556 H569 0.985 . S
N557 C559 1.356 . S
N557 H562 0.984 . S
N557 H563 0.985 . S
C558 C552 1.379 . S
C558 C555 1.363 . S
C558 N556 1.356 . S
C559 C553 1.363 . S
C559 C554 1.379 . S
C559 N557 1.356 . S
N560 C552 1.356 . S
N560 H566 0.984 . S
N560 H567 0.984 . S
N561 C554 1.356 . S
N561 H564 0.984 . S
N561 H565 0.985 . S
H562 N557 0.984 . S
H563 N557 0.985 . S
H564 N561 0.984 . S
H565 N561 0.985 . S
H566 N560 0.984 . S
H567 N560 0.984 . S
H568 N556 0.984 . S
H569 N556 0.985 . S
C570 C571 1.363 . S
C570 C576 1.379 . S
C570 N578 1.356 . S
C571 C570 1.363 . S
C571 C577 1.363 . S
C572 C573 1.363 . S
C572 C577 1.379 . S
C572 N579 1.356 . S
C573 C572 1.363 . S
C573 C576 1.363 . S
N574 C576 1.356 . S
N574 H586 0.984 . S
N574 H587 0.985 . S
N575 C577 1.356 . S
N575 H580 0.984 . S
N575 H581 0.985 . S
C576 C570 1.379 . S
C576 C573 1.363 . S
C576 N574 1.356 . S
C577 C571 1.363 . S
C577 C572 1.379 . S
C577 N575 1.356 . S
N578 C570 1.356 . S
N578 H584 0.984 . S
N578 H585 0.984 . S
N579 C572 1.356 . S
N579 H582 0.984 . S
N579 H583 0.985 . S
H580 N575 0.984 . S
H581 N575 0.985 . S
H582 N579 0.984 . S
H583 N579 0.985 . S
H584 N578 0.984 . S
H585 N578 0.984 . S
H586 N574 0.984 . S
H587 N574 0.985 . S
C588 C589 1.363 1_556 S
C588 C594 1.379 . S
C588 N596 1.356 . S
C589 C588 1.363 1_554 S
C589 C595 1.363 . S
C590 C591 1.363 1_554 S
C590 C595 1.379 . S
C590 N597 1.356 . S
C591 C590 1.363 1_556 S
C591 C594 1.363 . S
N592 C594 1.356 . S
N592 H604 0.984 . S
N592 H605 0.985 . S
N593 C595 1.356 . S
N593 H598 0.984 . S
N593 H599 0.985 . S
C594 C588 1.379 . S
C594 C591 1.363 . S
C594 N592 1.356 . S
C595 C589 1.363 . S
C595 C590 1.379 . S
C595 N593 1.356 . S
N596 C588 1.356 . S
N596 H602 0.984 . S
N596 H603 0.984 . S
N597 C590 1.356 . S
N597 H600 0.984 . S
N597 H601 0.985 . S
H598 N593 0.984 . S
H599 N593 0.985 . S
H600 N597 0.984 . S
H601 N597 0.985 . S
H602 N596 0.984 . S
H603 N596 0.984 . S
H604 N592 0.984 . S
H605 N592 0.985 . S
C606 C607 1.363 . S
C606 C612 1.379 . S
C606 N614 1.356 . S
C607 C606 1.363 . S
C607 C613 1.363 . S
C608 C609 1.363 . S
C608 C613 1.379 . S
C608 N615 1.356 . S
C609 C608 1.363 . S
C609 C612 1.363 . S
N610 C612 1.356 . S
N610 H622 0.984 . S
N610 H623 0.985 . S
N611 C613 1.356 . S
N611 H616 0.984 . S
N611 H617 0.985 . S
C612 C606 1.379 . S
C612 C609 1.363 . S
C612 N610 1.356 . S
C613 C607 1.363 . S
C613 C608 1.379 . S
C613 N611 1.356 . S
N614 C606 1.356 . S
N614 H620 0.984 . S
N614 H621 0.984 . S
N615 C608 1.356 . S
N615 H618 0.984 . S
N615 H619 0.985 . S
H616 N611 0.984 . S
H617 N611 0.985 . S
H618 N615 0.984 . S
H619 N615 0.985 . S
H620 N614 0.984 . S
H621 N614 0.984 . S
H622 N610 0.984 . S
H623 N610 0.985 . S
C624 C625 1.363 1_554 S
C624 C630 1.379 . S
C624 N632 1.356 . S
C625 C624 1.363 1_556 S
C625 C631 1.363 . S
C626 C627 1.363 1_556 S
C626 C631 1.379 . S
C626 N633 1.356 . S
C627 C626 1.363 1_554 S
C627 C630 1.363 . S
N628 C630 1.356 . S
N628 H640 0.984 . S
N628 H641 0.985 . S
N629 C631 1.356 . S
N629 H634 0.984 . S
N629 H635 0.985 . S
C630 C624 1.379 . S
C630 C627 1.363 . S
C630 N628 1.356 . S
C631 C625 1.363 . S
C631 C626 1.379 . S
C631 N629 1.356 . S
N632 C624 1.356 . S
N632 H638 0.984 . S
N632 H639 0.984 . S
N633 C626 1.356 . S
N633 H636 0.984 . S
N633 H637 0.985 . S
H634 N629 0.984 . S
H635 N629 0.985 . S
H636 N633 0.984 . S
H637 N633 0.985 . S
H638 N632 0.984 . S
H639 N632 0.984 . S
H640 N628 0.984 . S
H641 N628 0.985 . S
C642 C643 1.363 . S
C642 C648 1.379 . S
C642 N650 1.356 . S
C643 C642 1.363 . S
C643 C649 1.363 . S
C644 C645 1.363 . S
C644 C649 1.379 . S
C644 N651 1.356 . S
C645 C644 1.363 . S
C645 C648 1.363 . S
N646 C648 1.356 . S
N646 H658 0.984 . S
N646 H659 0.985 . S
N647 C649 1.356 . S
N647 H652 0.984 . S
N647 H653 0.985 . S
C648 C642 1.379 . S
C648 C645 1.363 . S
C648 N646 1.356 . S
C649 C643 1.363 . S
C649 C644 1.379 . S
C649 N647 1.356 . S
N650 C642 1.356 . S
N650 H656 0.984 . S
N650 H657 0.984 . S
N651 C644 1.356 . S
N651 H654 0.984 . S
N651 H655 0.985 . S
H652 N647 0.984 . S
H653 N647 0.985 . S
H654 N651 0.984 . S
H655 N651 0.985 . S
H656 N650 0.984 . S
H657 N650 0.984 . S
H658 N646 0.984 . S
H659 N646 0.985 . S
C660 C661 1.363 1_556 S
C660 C666 1.379 . S
C660 N668 1.356 . S
C661 C660 1.363 1_554 S
C661 C667 1.363 . S
C662 C663 1.363 1_554 S
C662 C667 1.379 . S
C662 N669 1.356 . S
C663 C662 1.363 1_556 S
C663 C666 1.363 . S
N664 C666 1.356 . S
N664 H676 0.984 . S
N664 H677 0.985 . S
N665 C667 1.356 . S
N665 H670 0.984 . S
N665 H671 0.985 . S
C666 C660 1.379 . S
C666 C663 1.363 . S
C666 N664 1.356 . S
C667 C661 1.363 . S
C667 C662 1.379 . S
C667 N665 1.356 . S
N668 C660 1.356 . S
N668 H674 0.984 . S
N668 H675 0.984 . S
N669 C662 1.356 . S
N669 H672 0.984 . S
N669 H673 0.985 . S
H670 N665 0.984 . S
H671 N665 0.985 . S
H672 N669 0.984 . S
H673 N669 0.985 . S
H674 N668 0.984 . S
H675 N668 0.984 . S
H676 N664 0.984 . S
H677 N664 0.985 . S
C678 C679 1.363 . S
C678 C684 1.379 . S
C678 N686 1.356 . S
C679 C678 1.363 . S
C679 C685 1.363 . S
C680 C681 1.363 . S
C680 C685 1.379 . S
C680 N687 1.356 . S
C681 C680 1.363 . S
C681 C684 1.363 . S
N682 C684 1.356 . S
N682 H694 0.984 . S
N682 H695 0.985 . S
N683 C685 1.356 . S
N683 H688 0.984 . S
N683 H689 0.985 . S
C684 C678 1.379 . S
C684 C681 1.363 . S
C684 N682 1.356 . S
C685 C679 1.363 . S
C685 C680 1.379 . S
C685 N683 1.356 . S
N686 C678 1.356 . S
N686 H692 0.984 . S
N686 H693 0.984 . S
N687 C680 1.356 . S
N687 H690 0.984 . S
N687 H691 0.985 . S
H688 N683 0.984 . S
H689 N683 0.985 . S
H690 N687 0.984 . S
H691 N687 0.985 . S
H692 N686 0.984 . S
H693 N686 0.984 . S
H694 N682 0.984 . S
H695 N682 0.985 . S
C696 C697 1.363 1_554 S
C696 C702 1.379 . S
C696 N704 1.356 . S
C697 C696 1.363 1_556 S
C697 C703 1.363 . S
C698 C699 1.363 1_556 S
C698 C703 1.379 . S
C698 N705 1.356 . S
C699 C698 1.363 1_554 S
C699 C702 1.363 . S
N700 C702 1.356 . S
N700 H712 0.984 . S
N700 H713 0.985 . S
N701 C703 1.356 . S
N701 H706 0.984 . S
N701 H707 0.985 . S
C702 C696 1.379 . S
C702 C699 1.363 . S
C702 N700 1.356 . S
C703 C697 1.363 . S
C703 C698 1.379 . S
C703 N701 1.356 . S
N704 C696 1.356 . S
N704 H710 0.984 . S
N704 H711 0.984 . S
N705 C698 1.356 . S
N705 H708 0.984 . S
N705 H709 0.985 . S
H706 N701 0.984 . S
H707 N701 0.985 . S
H708 N705 0.984 . S
H709 N705 0.985 . S
H710 N704 0.984 . S
H711 N704 0.984 . S
H712 N700 0.984 . S
H713 N700 0.985 . S
C714 C715 1.363 . S
C714 C720 1.379 . S
C714 N722 1.356 . S
C715 C714 1.363 . S
C715 C721 1.363 . S
C716 C717 1.363 . S
C716 C721 1.379 . S
C716 N723 1.356 . S
C717 C716 1.363 . S
C717 C720 1.363 . S
N718 C720 1.356 . S
N718 H730 0.984 . S
N718 H731 0.985 . S
N719 C721 1.356 . S
N719 H724 0.984 . S
N719 H725 0.985 . S
C720 C714 1.379 . S
C720 C717 1.363 . S
C720 N718 1.356 . S
C721 C715 1.363 . S
C721 C716 1.379 . S
C721 N719 1.356 . S
N722 C714 1.356 . S
N722 H728 0.984 . S
N722 H729 0.984 . S
N723 C716 1.356 . S
N723 H726 0.984 . S
N723 H727 0.985 . S
H724 N719 0.984 . S
H725 N719 0.985 . S
H726 N723 0.984 . S
H727 N723 0.985 . S
H728 N722 0.984 . S
H729 N722 0.984 . S
H730 N718 0.984 . S
H731 N718 0.985 . S
C732 C733 1.363 1_554 S
C732 C738 1.379 . S
C732 N740 1.356 . S
C733 C732 1.363 1_556 S
C733 C739 1.363 . S
C734 C735 1.363 1_556 S
C734 C739 1.379 . S
C734 N741 1.356 . S
C735 C734 1.363 1_554 S
C735 C738 1.363 . S
N736 C738 1.356 . S
N736 H748 0.984 . S
N736 H749 0.985 . S
N737 C739 1.356 . S
N737 H742 0.984 . S
N737 H743 0.985 . S
C738 C732 1.379 . S
C738 C735 1.363 . S
C738 N736 1.356 . S
C739 C733 1.363 . S
C739 C734 1.379 . S
C739 N737 1.356 . S
N740 C732 1.356 . S
N740 H746 0.984 . S
N740 H747 0.984 . S
N741 C734 1.356 . S
N741 H744 0.984 . S
N741 H745 0.985 . S
H742 N737 0.984 . S
H743 N737 0.985 . S
H744 N741 0.984 . S
H745 N741 0.985 . S
H746 N740 0.984 . S
H747 N740 0.984 . S
H748 N736 0.984 . S
H749 N736 0.985 . S
C750 C751 1.363 . S
C750 C756 1.379 . S
C750 N758 1.356 . S
C751 C750 1.363 . S
C751 C757 1.363 . S
C752 C753 1.363 . S
C752 C757 1.379 . S
C752 N759 1.356 . S
C753 C752 1.363 . S
C753 C756 1.363 . S
N754 C756 1.356 . S
N754 H766 0.984 . S
N754 H767 0.985 . S
N755 C757 1.356 . S
N755 H760 0.984 . S
N755 H761 0.985 . S
C756 C750 1.379 . S
C756 C753 1.363 . S
C756 N754 1.356 . S
C757 C751 1.363 . S
C757 C752 1.379 . S
C757 N755 1.356 . S
N758 C750 1.356 . S
N758 H764 0.984 . S
N758 H765 0.984 . S
N759 C752 1.356 . S
N759 H762 0.984 . S
N759 H763 0.985 . S
H760 N755 0.984 . S
H761 N755 0.985 . S
H762 N759 0.984 . S
H763 N759 0.985 . S
H764 N758 0.984 . S
H765 N758 0.984 . S
H766 N754 0.984 . S
H767 N754 0.985 . S
C768 C769 1.363 . S
C768 C774 1.379 . S
C768 N776 1.356 1_554 S
C769 C768 1.363 . S
C769 C775 1.363 . S
C770 C771 1.363 . S
C770 C775 1.379 . S
C770 N777 1.356 . S
C771 C770 1.363 . S
C771 C774 1.363 . S
N772 C774 1.356 1_556 S
N772 H784 0.984 . S
N772 H785 0.985 1_556 S
N773 C775 1.356 . S
N773 H778 0.984 . S
N773 H779 0.985 . S
C774 C768 1.379 . S
C774 C771 1.363 . S
C774 N772 1.356 1_554 S
C775 C769 1.363 . S
C775 C770 1.379 . S
C775 N773 1.356 . S
N776 C768 1.356 1_556 S
N776 H782 0.984 . S
N776 H783 0.984 1_556 S
N777 C770 1.356 . S
N777 H780 0.984 . S
N777 H781 0.985 . S
H778 N773 0.984 . S
H779 N773 0.985 . S
H780 N777 0.984 . S
H781 N777 0.985 . S
H782 N776 0.984 . S
H783 N776 0.984 1_554 S
H784 N772 0.984 . S
H785 N772 0.985 1_554 S
C786 C787 1.363 . S
C786 C792 1.379 1_455 S
C786 N794 1.356 . S
C787 C786 1.363 . S
C787 C793 1.363 . S
C788 C789 1.363 . S
C788 C793 1.379 1_655 S
C788 N795 1.356 . S
C789 C788 1.363 . S
C789 C792 1.363 . S
N790 C792 1.356 . S
N790 H802 0.984 . S
N790 H803 0.985 . S
N791 C793 1.356 . S
N791 H796 0.984 . S
N791 H797 0.985 . S
C792 C786 1.379 1_655 S
C792 C789 1.363 . S
C792 N790 1.356 . S
C793 C787 1.363 . S
C793 C788 1.379 1_455 S
C793 N791 1.356 . S
N794 C786 1.356 . S
N794 H800 0.984 . S
N794 H801 0.984 . S
N795 C788 1.356 . S
N795 H798 0.984 . S
N795 H799 0.985 . S
H796 N791 0.984 . S
H797 N791 0.985 . S
H798 N795 0.984 . S
H799 N795 0.985 . S
H800 N794 0.984 . S
H801 N794 0.984 . S
H802 N790 0.984 . S
H803 N790 0.985 . S
C804 C805 1.363 . S
C804 C810 1.379 1_565 S
C804 N812 1.356 . S
C805 C804 1.363 . S
C805 C811 1.363 . S
C806 C807 1.363 . S
C806 C811 1.379 1_545 S
C806 N813 1.356 1_554 S
C807 C806 1.363 . S
C807 C810 1.363 . S
N808 C810 1.356 . S
N808 H820 0.984 . S
N808 H821 0.985 . S
N809 C811 1.356 1_556 S
N809 H814 0.984 1_556 S
N809 H815 0.985 . S
C810 C804 1.379 1_545 S
C810 C807 1.363 . S
C810 N808 1.356 . S
C811 C805 1.363 . S
C811 C806 1.379 1_565 S
C811 N809 1.356 1_554 S
N812 C804 1.356 . S
N812 H818 0.984 . S
N812 H819 0.984 . S
N813 C806 1.356 1_556 S
N813 H816 0.984 1_556 S
N813 H817 0.985 . S
H814 N809 0.984 1_554 S
H815 N809 0.985 . S
H816 N813 0.984 1_554 S
H817 N813 0.985 . S
H818 N812 0.984 . S
H819 N812 0.984 . S
H820 N808 0.984 . S
H821 N808 0.985 . S
C822 C823 1.363 . S
C822 C828 1.379 . S
C822 N830 1.356 . S
C823 C822 1.363 . S
C823 C829 1.363 . S
C824 C825 1.363 . S
C824 C829 1.379 . S
C824 N831 1.356 . S
C825 C824 1.363 . S
C825 C828 1.363 . S
N826 C828 1.356 . S
N826 H838 0.984 . S
N826 H839 0.985 . S
N827 C829 1.356 . S
N827 H832 0.984 . S
N827 H833 0.985 . S
C828 C822 1.379 . S
C828 C825 1.363 . S
C828 N826 1.356 . S
C829 C823 1.363 . S
C829 C824 1.379 . S
C829 N827 1.356 . S
N830 C822 1.356 . S
N830 H836 0.984 . S
N830 H837 0.984 . S
N831 C824 1.356 . S
N831 H834 0.984 . S
N831 H835 0.985 . S
H832 N827 0.984 . S
H833 N827 0.985 . S
H834 N831 0.984 . S
H835 N831 0.985 . S
H836 N830 0.984 . S
H837 N830 0.984 . S
H838 N826 0.984 . S
H839 N826 0.985 . S
C840 C841 1.363 . S
C840 C846 1.379 1_655 S
C840 N848 1.356 . S
C841 C840 1.363 . S
C841 C847 1.363 . S
C842 C843 1.363 . S
C842 C847 1.379 1_455 S
C842 N849 1.356 1_554 S
C843 C842 1.363 . S
C843 C846 1.363 . S
N844 C846 1.356 . S
N844 H856 0.984 . S
N844 H857 0.985 . S
N845 C847 1.356 1_556 S
N845 H850 0.984 1_556 S
N845 H851 0.985 . S
C846 C840 1.379 1_455 S
C846 C843 1.363 . S
C846 N844 1.356 . S
C847 C841 1.363 . S
C847 C842 1.379 1_655 S
C847 N845 1.356 1_554 S
N848 C840 1.356 . S
N848 H854 0.984 . S
N848 H855 0.984 . S
N849 C842 1.356 1_556 S
N849 H852 0.984 1_556 S
N849 H853 0.985 . S
H850 N845 0.984 1_554 S
H851 N845 0.985 . S
H852 N849 0.984 1_554 S
H853 N849 0.985 . S
H854 N848 0.984 . S
H855 N848 0.984 . S
H856 N844 0.984 . S
H857 N844 0.985 . S
C858 C859 1.363 . S
C858 C864 1.379 1_545 S
C858 N866 1.356 . S
C859 C858 1.363 . S
C859 C865 1.363 . S
C860 C861 1.363 . S
C860 C865 1.379 1_565 S
C860 N867 1.356 . S
C861 C860 1.363 . S
C861 C864 1.363 . S
N862 C864 1.356 . S
N862 H874 0.984 . S
N862 H875 0.985 . S
N863 C865 1.356 . S
N863 H868 0.984 . S
N863 H869 0.985 . S
C864 C858 1.379 1_565 S
C864 C861 1.363 . S
C864 N862 1.356 . S
C865 C859 1.363 . S
C865 C860 1.379 1_545 S
C865 N863 1.356 . S
N866 C858 1.356 . S
N866 H872 0.984 . S
N866 H873 0.984 . S
N867 C860 1.356 . S
N867 H870 0.984 . S
N867 H871 0.985 . S
H868 N863 0.984 . S
H869 N863 0.985 . S
H870 N867 0.984 . S
H871 N867 0.985 . S
H872 N866 0.984 . S
H873 N866 0.984 . S
H874 N862 0.984 . S
H875 N862 0.985 . S
C876 C877 1.363 . S
C876 C882 1.379 . S
C876 N884 1.356 . S
C877 C876 1.363 . S
C877 C883 1.363 . S
C878 C879 1.363 . S
C878 C883 1.379 . S
C878 N885 1.356 1_556 S
C879 C878 1.363 . S
C879 C882 1.363 . S
N880 C882 1.356 . S
N880 H892 0.984 . S
N880 H893 0.985 . S
N881 C883 1.356 1_554 S
N881 H886 0.984 1_554 S
N881 H887 0.985 . S
C882 C876 1.379 . S
C882 C879 1.363 . S
C882 N880 1.356 . S
C883 C877 1.363 . S
C883 C878 1.379 . S
C883 N881 1.356 1_556 S
N884 C876 1.356 . S
N884 H890 0.984 . S
N884 H891 0.984 . S
N885 C878 1.356 1_554 S
N885 H888 0.984 1_554 S
N885 H889 0.985 . S
H886 N881 0.984 1_556 S
H887 N881 0.985 . S
H888 N885 0.984 1_556 S
H889 N885 0.985 . S
H890 N884 0.984 . S
H891 N884 0.984 . S
H892 N880 0.984 . S
H893 N880 0.985 . S
C894 C895 1.363 . S
C894 C900 1.379 1_655 S
C894 N902 1.356 . S
C895 C894 1.363 . S
C895 C901 1.363 . S
C896 C897 1.363 . S
C896 C901 1.379 1_455 S
C896 N903 1.356 . S
C897 C896 1.363 . S
C897 C900 1.363 . S
N898 C900 1.356 . S
N898 H910 0.984 . S
N898 H911 0.985 . S
N899 C901 1.356 . S
N899 H904 0.984 . S
N899 H905 0.985 . S
C900 C894 1.379 1_455 S
C900 C897 1.363 . S
C900 N898 1.356 . S
C901 C895 1.363 . S
C901 C896 1.379 1_655 S
C901 N899 1.356 . S
N902 C894 1.356 . S
N902 H908 0.984 . S
N902 H909 0.984 . S
N903 C896 1.356 . S
N903 H906 0.984 . S
N903 H907 0.985 . S
H904 N899 0.984 . S
H905 N899 0.985 . S
H906 N903 0.984 . S
H907 N903 0.985 . S
H908 N902 0.984 . S
H909 N902 0.984 . S
H910 N898 0.984 . S
H911 N898 0.985 . S
C912 C913 1.363 . S
C912 C918 1.379 1_545 S
C912 N920 1.356 1_556 S
C913 C912 1.363 . S
C913 C919 1.363 . S
C914 C915 1.363 . S
C914 C919 1.379 1_565 S
C914 N921 1.356 . S
C915 C914 1.363 . S
C915 C918 1.363 . S
N916 C918 1.356 1_554 S
N916 H928 0.984 . S
N916 H929 0.985 1_554 S
N917 C919 1.356 . S
N917 H922 0.984 . S
N917 H923 0.985 . S
C918 C912 1.379 1_565 S
C918 C915 1.363 . S
C918 N916 1.356 1_556 S
C919 C913 1.363 . S
C919 C914 1.379 1_545 S
C919 N917 1.356 . S
N920 C912 1.356 1_554 S
N920 H926 0.984 . S
N920 H927 0.984 1_554 S
N921 C914 1.356 . S
N921 H924 0.984 . S
N921 H925 0.985 . S
H922 N917 0.984 . S
H923 N917 0.985 . S
H924 N921 0.984 . S
H925 N921 0.985 . S
H926 N920 0.984 . S
H927 N920 0.984 1_556 S
H928 N916 0.984 . S
H929 N916 0.985 1_556 S
C930 C931 1.363 . S
C930 C936 1.379 . S
C930 N938 1.356 . S
C931 C930 1.363 . S
C931 C937 1.363 . S
C932 C933 1.363 . S
C932 C937 1.379 . S
C932 N939 1.356 . S
C933 C932 1.363 . S
C933 C936 1.363 . S
N934 C936 1.356 . S
N934 H946 0.984 . S
N934 H947 0.985 . S
N935 C937 1.356 . S
N935 H940 0.984 . S
N935 H941 0.985 . S
C936 C930 1.379 . S
C936 C933 1.363 . S
C936 N934 1.356 . S
C937 C931 1.363 . S
C937 C932 1.379 . S
C937 N935 1.356 . S
N938 C930 1.356 . S
N938 H944 0.984 . S
N938 H945 0.984 . S
N939 C932 1.356 . S
N939 H942 0.984 . S
N939 H943 0.985 . S
H940 N935 0.984 . S
H941 N935 0.985 . S
H942 N939 0.984 . S
H943 N939 0.985 . S
H944 N938 0.984 . S
H945 N938 0.984 . S
H946 N934 0.984 . S
H947 N934 0.985 . S
C948 C949 1.363 . S
C948 C954 1.379 1_455 S
C948 N956 1.356 . S
C949 C948 1.363 . S
C949 C955 1.363 . S
C950 C951 1.363 . S
C950 C955 1.379 1_655 S
C950 N957 1.356 1_556 S
C951 C950 1.363 . S
C951 C954 1.363 . S
N952 C954 1.356 . S
N952 H964 0.984 . S
N952 H965 0.985 . S
N953 C955 1.356 1_554 S
N953 H958 0.984 1_554 S
N953 H959 0.985 . S
C954 C948 1.379 1_655 S
C954 C951 1.363 . S
C954 N952 1.356 . S
C955 C949 1.363 . S
C955 C950 1.379 1_455 S
C955 N953 1.356 1_556 S
N956 C948 1.356 . S
N956 H962 0.984 . S
N956 H963 0.984 . S
N957 C950 1.356 1_554 S
N957 H960 0.984 1_554 S
N957 H961 0.985 . S
H958 N953 0.984 1_556 S
H959 N953 0.985 . S
H960 N957 0.984 1_556 S
H961 N957 0.985 . S
H962 N956 0.984 . S
H963 N956 0.984 . S
H964 N952 0.984 . S
H965 N952 0.985 . S
C966 C967 1.363 . S
C966 C972 1.379 1_565 S
C966 N974 1.356 . S
C967 C966 1.363 . S
C967 C973 1.363 . S
C968 C969 1.363 . S
C968 C973 1.379 1_545 S
C968 N975 1.356 . S
C969 C968 1.363 . S
C969 C972 1.363 . S
N970 C972 1.356 . S
N970 H982 0.984 . S
N970 H983 0.985 . S
N971 C973 1.356 . S
N971 H976 0.984 . S
N971 H977 0.985 . S
C972 C966 1.379 1_545 S
C972 C969 1.363 . S
C972 N970 1.356 . S
C973 C967 1.363 . S
C973 C968 1.379 1_565 S
C973 N971 1.356 . S
N974 C966 1.356 . S
N974 H980 0.984 . S
N974 H981 0.984 . S
N975 C968 1.356 . S
N975 H978 0.984 . S
N975 H979 0.985 . S
H976 N971 0.984 . S
H977 N971 0.985 . S
H978 N975 0.984 . S
H979 N975 0.985 . S
H980 N974 0.984 . S
H981 N974 0.984 . S
H982 N970 0.984 . S
H983 N970 0.985 . S
C984 C985 1.363 1_554 S
C984 C990 1.379 . S
C984 N992 1.356 . S
C985 C984 1.363 1_556 S
C985 C991 1.363 . S
C986 C987 1.363 1_556 S
C986 C991 1.379 . S
C986 N993 1.356 . S
C987 C986 1.363 1_554 S
C987 C990 1.363 . S
N988 C990 1.356 . S
N988 H1000 0.984 . S
N988 H1001 0.985 . S
N989 C991 1.356 . S
N989 H994 0.984 . S
N989 H995 0.985 . S
C990 C984 1.379 . S
C990 C987 1.363 . S
C990 N988 1.356 . S
C991 C985 1.363 . S
C991 C986 1.379 . S
C991 N989 1.356 . S
N992 C984 1.356 . S
N992 H998 0.984 . S
N992 H999 0.984 1_554 S
N993 C986 1.356 . S
N993 H996 0.984 1_556 S
N993 H997 0.985 . S
H994 N989 0.984 . S
H995 N989 0.985 . S
H996 N993 0.984 1_554 S
H997 N993 0.985 . S
H998 N992 0.984 . S
H999 N992 0.984 1_556 S
H1000 N988 0.984 . S
H1001 N988 0.985 . S
C1002 C1003 1.363 . S
C1002 C1008 1.379 . S
C1002 N1010 1.356 . S
C1003 C1002 1.363 . S
C1003 C1009 1.363 . S
C1004 C1005 1.363 . S
C1004 C1009 1.379 . S
C1004 N1011 1.356 . S
C1005 C1004 1.363 . S
C1005 C1008 1.363 . S
N1006 C1008 1.356 . S
N1006 H1018 0.984 . S
N1006 H1019 0.985 . S
N1007 C1009 1.356 . S
N1007 H1012 0.984 . S
N1007 H1013 0.985 . S
C1008 C1002 1.379 . S
C1008 C1005 1.363 . S
C1008 N1006 1.356 . S
C1009 C1003 1.363 . S
C1009 C1004 1.379 . S
C1009 N1007 1.356 . S
N1010 C1002 1.356 . S
N1010 H1016 0.984 . S
N1010 H1017 0.984 . S
N1011 C1004 1.356 . S
N1011 H1014 0.984 . S
N1011 H1015 0.985 . S
H1012 N1007 0.984 . S
H1013 N1007 0.985 . S
H1014 N1011 0.984 . S
H1015 N1011 0.985 . S
H1016 N1010 0.984 . S
H1017 N1010 0.984 . S
H1018 N1006 0.984 . S
H1019 N1006 0.985 . S
C1020 C1021 1.363 . S
C1020 C1026 1.379 . S
C1020 N1028 1.356 . S
C1021 C1020 1.363 . S
C1021 C1027 1.363 1_556 S
C1022 C1023 1.363 . S
C1022 C1027 1.379 . S
C1022 N1029 1.356 . S
C1023 C1022 1.363 . S
C1023 C1026 1.363 1_554 S
N1024 C1026 1.356 . S
N1024 H1036 0.984 . S
N1024 H1037 0.985 1_556 S
N1025 C1027 1.356 . S
N1025 H1030 0.984 1_554 S
N1025 H1031 0.985 . S
C1026 C1020 1.379 . S
C1026 C1023 1.363 1_556 S
C1026 N1024 1.356 . S
C1027 C1021 1.363 1_554 S
C1027 C1022 1.379 . S
C1027 N1025 1.356 . S
N1028 C1020 1.356 . S
N1028 H1034 0.984 . S
N1028 H1035 0.984 . S
N1029 C1022 1.356 . S
N1029 H1032 0.984 . S
N1029 H1033 0.985 . S
H1030 N1025 0.984 1_556 S
H1031 N1025 0.985 . S
H1032 N1029 0.984 . S
H1033 N1029 0.985 . S
H1034 N1028 0.984 . S
H1035 N1028 0.984 . S
H1036 N1024 0.984 . S
H1037 N1024 0.985 1_554 S
C1038 C1039 1.363 . S
C1038 C1044 1.379 . S
C1038 N1046 1.356 . S
C1039 C1038 1.363 . S
C1039 C1045 1.363 . S
C1040 C1041 1.363 . S
C1040 C1045 1.379 . S
C1040 N1047 1.356 . S
C1041 C1040 1.363 . S
C1041 C1044 1.363 . S
N1042 C1044 1.356 . S
N1042 H1054 0.984 . S
N1042 H1055 0.985 . S
N1043 C1045 1.356 . S
N1043 H1048 0.984 . S
N1043 H1049 0.985 . S
C1044 C1038 1.379 . S
C1044 C1041 1.363 . S
C1044 N1042 1.356 . S
C1045 C1039 1.363 . S
C1045 C1040 1.379 . S
C1045 N1043 1.356 . S
N1046 C1038 1.356 . S
N1046 H1052 0.984 . S
N1046 H1053 0.984 . S
N1047 C1040 1.356 . S
N1047 H1050 0.984 . S
N1047 H1051 0.985 . S
H1048 N1043 0.984 . S
H1049 N1043 0.985 . S
H1050 N1047 0.984 . S
H1051 N1047 0.985 . S
H1052 N1046 0.984 . S
H1053 N1046 0.984 . S
H1054 N1042 0.984 . S
H1055 N1042 0.985 . S
C1056 C1057 1.363 . S
C1056 C1062 1.379 . S
C1056 N1064 1.356 . S
C1057 C1056 1.363 . S
C1057 C1063 1.363 1_556 S
C1058 C1059 1.363 . S
C1058 C1063 1.379 . S
C1058 N1065 1.356 . S
C1059 C1058 1.363 . S
C1059 C1062 1.363 1_554 S
N1060 C1062 1.356 . S
N1060 H1072 0.984 . S
N1060 H1073 0.991 . S
N1061 C1063 1.356 . S
N1061 H1066 0.991 . S
N1061 H1067 0.985 . S
C1062 C1056 1.379 . S
C1062 C1059 1.363 1_556 S
C1062 N1060 1.356 . S
C1063 C1057 1.363 1_554 S
C1063 C1058 1.379 . S
C1063 N1061 1.356 . S
N1064 C1056 1.356 . S
N1064 H1070 0.984 . S
N1064 H1071 0.984 . S
N1065 C1058 1.356 . S
N1065 H1068 0.984 . S
N1065 H1069 0.985 . S
H1066 N1061 0.991 . S
H1067 N1061 0.985 . S
H1068 N1065 0.984 . S
H1069 N1065 0.985 . S
H1070 N1064 0.984 . S
H1071 N1064 0.984 . S
H1072 N1060 0.984 . S
H1073 N1060 0.991 . S
C1074 C1075 1.363 . S
C1074 C1080 1.379 . S
C1074 N1082 1.356 . S
C1075 C1074 1.363 . S
C1075 C1081 1.363 . S
C1076 C1077 1.363 . S
C1076 C1081 1.379 . S
C1076 N1083 1.356 . S
C1077 C1076 1.363 . S
C1077 C1080 1.363 . S
N1078 C1080 1.356 . S
N1078 H1090 0.984 . S
N1078 H1091 0.985 . S
N1079 C1081 1.356 . S
N1079 H1084 0.984 . S
N1079 H1085 0.985 . S
C1080 C1074 1.379 . S
C1080 C1077 1.363 . S
C1080 N1078 1.356 . S
C1081 C1075 1.363 . S
C1081 C1076 1.379 . S
C1081 N1079 1.356 . S
N1082 C1074 1.356 . S
N1082 H1088 0.984 . S
N1082 H1089 0.984 . S
N1083 C1076 1.356 . S
N1083 H1086 0.984 . S
N1083 H1087 0.985 . S
H1084 N1079 0.984 . S
H1085 N1079 0.985 . S
H1086 N1083 0.984 . S
H1087 N1083 0.985 . S
H1088 N1082 0.984 . S
H1089 N1082 0.984 . S
H1090 N1078 0.984 . S
H1091 N1078 0.985 . S
C1092 C1093 1.363 . S
C1092 C1098 1.379 . S
C1092 N1100 1.356 . S
C1093 C1092 1.363 . S
C1093 C1099 1.363 1_554 S
C1094 C1095 1.363 . S
C1094 C1099 1.379 . S
C1094 N1101 1.356 . S
C1095 C1094 1.363 . S
C1095 C1098 1.363 1_556 S
N1096 C1098 1.356 . S
N1096 H1108 0.984 . S
N1096 H1109 0.985 1_554 S
N1097 C1099 1.356 . S
N1097 H1102 0.984 1_556 S
N1097 H1103 0.985 . S
C1098 C1092 1.379 . S
C1098 C1095 1.363 1_554 S
C1098 N1096 1.356 . S
C1099 C1093 1.363 1_556 S
C1099 C1094 1.379 . S
C1099 N1097 1.356 . S
N1100 C1092 1.356 . S
N1100 H1106 0.984 . S
N1100 H1107 0.984 . S
N1101 C1094 1.356 . S
N1101 H1104 0.984 . S
N1101 H1105 0.985 . S
H1102 N1097 0.984 1_554 S
H1103 N1097 0.985 . S
H1104 N1101 0.984 . S
H1105 N1101 0.985 . S
H1106 N1100 0.984 . S
H1107 N1100 0.984 . S
H1108 N1096 0.984 . S
H1109 N1096 0.985 1_556 S
C1110 C1111 1.363 . S
C1110 C1116 1.379 . S
C1110 N1118 1.356 . S
C1111 C1110 1.363 . S
C1111 C1117 1.363 . S
C1112 C1113 1.363 . S
C1112 C1117 1.379 . S
C1112 N1119 1.356 . S
C1113 C1112 1.363 . S
C1113 C1116 1.363 . S
N1114 C1116 1.356 . S
N1114 H1126 0.984 . S
N1114 H1127 0.985 . S
N1115 C1117 1.356 . S
N1115 H1120 0.984 . S
N1115 H1121 0.985 . S
C1116 C1110 1.379 . S
C1116 C1113 1.363 . S
C1116 N1114 1.356 . S
C1117 C1111 1.363 . S
C1117 C1112 1.379 . S
C1117 N1115 1.356 . S
N1118 C1110 1.356 . S
N1118 H1124 0.984 . S
N1118 H1125 0.984 . S
N1119 C1112 1.356 . S
N1119 H1122 0.984 . S
N1119 H1123 0.985 . S
H1120 N1115 0.984 . S
H1121 N1115 0.985 . S
H1122 N1119 0.984 . S
H1123 N1119 0.985 . S
H1124 N1118 0.984 . S
H1125 N1118 0.984 . S
H1126 N1114 0.984 . S
H1127 N1114 0.985 . S
C1128 C1129 1.363 . S
C1128 C1134 1.379 . S
C1128 N1136 1.356 . S
C1129 C1128 1.363 . S
C1129 C1135 1.363 1_554 S
C1130 C1131 1.363 . S
C1130 C1135 1.379 . S
C1130 N1137 1.356 . S
C1131 C1130 1.363 . S
C1131 C1134 1.363 1_556 S
N1132 C1134 1.356 . S
N1132 H1144 0.984 . S
N1132 H1145 0.985 1_554 S
N1133 C1135 1.356 . S
N1133 H1138 0.984 1_556 S
N1133 H1139 0.985 . S
C1134 C1128 1.379 . S
C1134 C1131 1.363 1_554 S
C1134 N1132 1.356 . S
C1135 C1129 1.363 1_556 S
C1135 C1130 1.379 . S
C1135 N1133 1.356 . S
N1136 C1128 1.356 . S
N1136 H1142 0.984 . S
N1136 H1143 0.984 . S
N1137 C1130 1.356 . S
N1137 H1140 0.984 . S
N1137 H1141 0.985 . S
H1138 N1133 0.984 1_554 S
H1139 N1133 0.985 . S
H1140 N1137 0.984 . S
H1141 N1137 0.985 . S
H1142 N1136 0.984 . S
H1143 N1136 0.984 . S
H1144 N1132 0.984 . S
H1145 N1132 0.985 1_556 S
C1146 C1147 1.363 . S
C1146 C1152 1.379 . S
C1146 N1154 1.356 . S
C1147 C1146 1.363 . S
C1147 C1153 1.363 . S
C1148 C1149 1.363 . S
C1148 C1153 1.379 . S
C1148 N1155 1.356 . S
C1149 C1148 1.363 . S
C1149 C1152 1.363 . S
N1150 C1152 1.356 . S
N1150 H1162 0.984 . S
N1150 H1163 0.985 . S
N1151 C1153 1.356 . S
N1151 H1156 0.984 . S
N1151 H1157 0.985 . S
C1152 C1146 1.379 . S
C1152 C1149 1.363 . S
C1152 N1150 1.356 . S
C1153 C1147 1.363 . S
C1153 C1148 1.379 . S
C1153 N1151 1.356 . S
N1154 C1146 1.356 . S
N1154 H1160 0.984 . S
N1154 H1161 0.984 . S
N1155 C1148 1.356 . S
N1155 H1158 0.984 . S
N1155 H1159 0.985 . S
H1156 N1151 0.984 . S
H1157 N1151 0.985 . S
H1158 N1155 0.984 . S
H1159 N1155 0.985 . S
H1160 N1154 0.984 . S
H1161 N1154 0.984 . S
H1162 N1150 0.984 . S
H1163 N1150 0.985 . S
C1164 C1165 1.363 1_554 S
C1164 C1170 1.379 . S
C1164 N1172 1.356 . S
C1165 C1164 1.363 1_556 S
C1165 C1171 1.363 . S
C1166 C1167 1.363 1_556 S
C1166 C1171 1.379 . S
C1166 N1173 1.356 . S
C1167 C1166 1.363 1_554 S
C1167 C1170 1.363 . S
N1168 C1170 1.356 . S
N1168 H1180 0.984 . S
N1168 H1181 0.985 . S
N1169 C1171 1.356 . S
N1169 H1174 0.984 . S
N1169 H1175 0.985 . S
C1170 C1164 1.379 . S
C1170 C1167 1.363 . S
C1170 N1168 1.356 . S
C1171 C1165 1.363 . S
C1171 C1166 1.379 . S
C1171 N1169 1.356 . S
N1172 C1164 1.356 . S
N1172 H1178 0.984 . S
N1172 H1179 0.984 1_554 S
N1173 C1166 1.356 . S
N1173 H1176 0.984 1_556 S
N1173 H1177 0.985 . S
H1174 N1169 0.984 . S
H1175 N1169 0.985 . S
H1176 N1173 0.984 1_554 S
H1177 N1173 0.985 . S
H1178 N1172 0.984 . S
H1179 N1172 0.984 1_556 S
H1180 N1168 0.984 . S
H1181 N1168 0.985 . S
C1182 C1183 1.363 . S
C1182 C1188 1.379 . S
C1182 N1190 1.356 . S
C1183 C1182 1.363 . S
C1183 C1189 1.363 . S
C1184 C1185 1.363 . S
C1184 C1189 1.379 . S
C1184 N1191 1.356 . S
C1185 C1184 1.363 . S
C1185 C1188 1.363 . S
N1186 C1188 1.356 . S
N1186 H1198 0.984 . S
N1186 H1199 0.985 . S
N1187 C1189 1.356 . S
N1187 H1192 0.984 . S
N1187 H1193 0.985 . S
C1188 C1182 1.379 . S
C1188 C1185 1.363 . S
C1188 N1186 1.356 . S
C1189 C1183 1.363 . S
C1189 C1184 1.379 . S
C1189 N1187 1.356 . S
N1190 C1182 1.356 . S
N1190 H1196 0.984 . S
N1190 H1197 0.984 . S
N1191 C1184 1.356 . S
N1191 H1194 0.984 . S
N1191 H1195 0.985 . S
H1192 N1187 0.984 . S
H1193 N1187 0.985 . S
H1194 N1191 0.984 . S
H1195 N1191 0.985 . S
H1196 N1190 0.984 . S
H1197 N1190 0.984 . S
H1198 N1186 0.984 . S
H1199 N1186 0.985 . S
C337 C11 1.467 . S
C339 C221 1.467 . S
C355 C25 1.467 . S
C357 C235 1.467 . S
C373 C249 1.467 . S
C375 C39 1.467 . S
C391 C179 1.467 . S
C393 C53 1.467 . S
C409 C193 1.467 . S
C411 C67 1.467 . S
C427 C207 1.467 . S
C429 C81 1.467 . S
C445 C305 1.467 . S
C447 C95 1.467 . S
C463 C109 1.467 . S
C465 C319 1.467 . S
C481 C333 1.467 . S
C483 C123 1.467 . S
C499 C137 1.467 . S
C501 C263 1.467 . S
C517 C277 1.467 . S
C519 C151 1.467 . S
C535 C165 1.467 . S
C537 C291 1.467 . S
C553 C145 1.059 . S
C555 C5 1.059 . S
C571 C159 1.059 . S
C573 C19 1.059 . S
C589 C33 1.059 . S
C591 C89 1.059 . S
C607 C47 1.059 . S
C609 C103 1.059 . S
C625 C117 1.059 . S
C627 C61 1.059 . S
C643 C75 1.059 . S
C645 C131 1.059 . S
C661 C313 1.059 . S
C663 C173 1.059 . S
C679 C187 1.059 . S
C681 C327 1.059 . S
C697 C201 1.059 . S
C699 C257 1.059 . S
C715 C271 1.059 . S
C717 C215 1.059 . S
C733 C229 1.059 . S
C735 C285 1.059 . S
C751 C243 1.059 . S
C753 C299 1.059 . S
C769 C12 1.282 . S
C771 C264 1.282 . S
C787 C278 1.282 . S
C789 C26 1.282 . S
C805 C40 1.282 . S
C807 C292 1.282 . S
C823 C54 1.282 . S
C825 C306 1.282 . S
C841 C320 1.282 . S
C843 C68 1.282 . S
C859 C82 1.282 . S
C861 C334 1.282 . S
C877 C96 1.282 . S
C879 C180 1.282 . S
C895 C110 1.282 . S
C897 C194 1.282 . S
C913 C208 1.282 . S
C915 C124 1.282 . S
C931 C222 1.282 . S
C933 C138 1.282 . S
C949 C152 1.282 . S
C951 C236 1.282 . S
C967 C250 1.282 . S
C969 C166 1.282 . S
C985 C88 1.508 . S
C987 C4 1.508 . S
C1003 C18 1.508 . S
C1005 C102 1.508 . S
C1021 C116 1.508 . S
C1023 C32 1.508 . S
C1039 C130 1.508 . S
C1041 C46 1.508 . S
C1057 C144 1.508 . S
C1059 C60 1.508 . S
C1075 C74 1.508 . S
C1077 C158 1.508 . S
C1093 C256 1.508 . S
C1095 C172 1.508 . S
C1111 C186 1.508 . S
C1113 C270 1.508 . S
C1129 C284 1.508 . S
C1131 C200 1.508 . S
C1147 C298 1.508 . S
C1149 C214 1.508 . S
C1165 C228 1.508 . S
C1167 C312 1.508 . S
C1183 C242 1.508 . S
C1185 C326 1.508 . S
