# Generated by pormake.
# Topology wjd, (6)-cn, num edge types: 1
# Building blocks:
#     Node 0, Type 0, BuildingBlock: CUKXOW_clean_sbu_0, # of connection points: 6
#     Node 1, Type 0, BuildingBlock: CUKXOW_clean_sbu_0, # of connection points: 6
#     Node 2, Type 0, BuildingBlock: CUKXOW_clean_sbu_0, # of connection points: 6
#     Node 3, Type 0, BuildingBlock: CUKXOW_clean_sbu_0, # of connection points: 6
#     Node 4, Type 0, BuildingBlock: CUKXOW_clean_sbu_0, # of connection points: 6
#     Node 5, Type 0, BuildingBlock: CUKXOW_clean_sbu_0, # of connection points: 6
#     Node 6, Type 0, BuildingBlock: CUKXOW_clean_sbu_0, # of connection points: 6
#     Node 7, Type 0, BuildingBlock: CUKXOW_clean_sbu_0, # of connection points: 6
#     Node 8, Type 0, BuildingBlock: CUKXOW_clean_sbu_0, # of connection points: 6
#     Node 9, Type 0, BuildingBlock: CUKXOW_clean_sbu_0, # of connection points: 6
#     Node 10, Type 0, BuildingBlock: CUKXOW_clean_sbu_0, # of connection points: 6
#     Node 11, Type 0, BuildingBlock: CUKXOW_clean_sbu_0, # of connection points: 6
#     Edge 12, Type (0, 0), BuildingBlock: CIFDUS_clean_linker_0, # of connection points: 2
#     Edge 13, Type (0, 0), BuildingBlock: CIFDUS_clean_linker_0, # of connection points: 2
#     Edge 14, Type (0, 0), BuildingBlock: CIFDUS_clean_linker_0, # of connection points: 2
#     Edge 15, Type (0, 0), BuildingBlock: CIFDUS_clean_linker_0, # of connection points: 2
#     Edge 16, Type (0, 0), BuildingBlock: CIFDUS_clean_linker_0, # of connection points: 2
#     Edge 17, Type (0, 0), BuildingBlock: CIFDUS_clean_linker_0, # of connection points: 2
#     Edge 18, Type (0, 0), BuildingBlock: CIFDUS_clean_linker_0, # of connection points: 2
#     Edge 19, Type (0, 0), BuildingBlock: CIFDUS_clean_linker_0, # of connection points: 2
#     Edge 20, Type (0, 0), BuildingBlock: CIFDUS_clean_linker_0, # of connection points: 2
#     Edge 21, Type (0, 0), BuildingBlock: CIFDUS_clean_linker_0, # of connection points: 2
#     Edge 22, Type (0, 0), BuildingBlock: CIFDUS_clean_linker_0, # of connection points: 2
#     Edge 23, Type (0, 0), BuildingBlock: CIFDUS_clean_linker_0, # of connection points: 2
#     Edge 24, Type (0, 0), BuildingBlock: CIFDUS_clean_linker_0, # of connection points: 2
#     Edge 25, Type (0, 0), BuildingBlock: CIFDUS_clean_linker_0, # of connection points: 2
#     Edge 26, Type (0, 0), BuildingBlock: CIFDUS_clean_linker_0, # of connection points: 2
#     Edge 27, Type (0, 0), BuildingBlock: CIFDUS_clean_linker_0, # of connection points: 2
#     Edge 28, Type (0, 0), BuildingBlock: CIFDUS_clean_linker_0, # of connection points: 2
#     Edge 29, Type (0, 0), BuildingBlock: CIFDUS_clean_linker_0, # of connection points: 2
#     Edge 30, Type (0, 0), BuildingBlock: CIFDUS_clean_linker_0, # of connection points: 2
#     Edge 31, Type (0, 0), BuildingBlock: CIFDUS_clean_linker_0, # of connection points: 2
#     Edge 32, Type (0, 0), BuildingBlock: CIFDUS_clean_linker_0, # of connection points: 2
#     Edge 33, Type (0, 0), BuildingBlock: CIFDUS_clean_linker_0, # of connection points: 2
#     Edge 34, Type (0, 0), BuildingBlock: CIFDUS_clean_linker_0, # of connection points: 2
#     Edge 35, Type (0, 0), BuildingBlock: CIFDUS_clean_linker_0, # of connection points: 2
#     Edge 36, Type (0, 0), BuildingBlock: CIFDUS_clean_linker_0, # of connection points: 2
#     Edge 37, Type (0, 0), BuildingBlock: CIFDUS_clean_linker_0, # of connection points: 2
#     Edge 38, Type (0, 0), BuildingBlock: CIFDUS_clean_linker_0, # of connection points: 2
#     Edge 39, Type (0, 0), BuildingBlock: CIFDUS_clean_linker_0, # of connection points: 2
#     Edge 40, Type (0, 0), BuildingBlock: CIFDUS_clean_linker_0, # of connection points: 2
#     Edge 41, Type (0, 0), BuildingBlock: CIFDUS_clean_linker_0, # of connection points: 2
#     Edge 42, Type (0, 0), BuildingBlock: CIFDUS_clean_linker_0, # of connection points: 2
#     Edge 43, Type (0, 0), BuildingBlock: CIFDUS_clean_linker_0, # of connection points: 2
#     Edge 44, Type (0, 0), BuildingBlock: CIFDUS_clean_linker_0, # of connection points: 2
#     Edge 45, Type (0, 0), BuildingBlock: CIFDUS_clean_linker_0, # of connection points: 2
#     Edge 46, Type (0, 0), BuildingBlock: CIFDUS_clean_linker_0, # of connection points: 2
#     Edge 47, Type (0, 0), BuildingBlock: CIFDUS_clean_linker_0, # of connection points: 2
# Relax obj value: 0.060
# Max RMSD: 0.160
# Mean RMSD: 0.160
data_MOF--net-wjd--node1-CUKXOW_clean_sbu_0--edge1-CIFDUS_clean_linker_0
_symmetry_space_group_name_H-M    P1
_symmetry_Int_Tables_number       1
_symmetry_cell_setting            triclinic
loop_
_symmetry_equiv_pos_as_xyz
'x, y, z'
_cell_length_a     28.222414
_cell_length_b     28.095755
_cell_length_c     49.433974
_cell_angle_alpha  89.541636
_cell_angle_beta   90.897059
_cell_angle_gamma 119.97249
loop_
_atom_site_label
_atom_site_type_symbol
_atom_site_fract_x
_atom_site_fract_y
_atom_site_fract_z
_atom_type_partial_charge
Tb0 Tb 0.3974 0.13735 0.13306 0.0
C1 C 0.33665 0.11578 0.07491 0.0
Tb2 Tb 0.31647 0.17752 0.12227 0.0
O3 O 0.33858 0.06649 0.156 0.0
O4 O 0.31282 0.10079 0.12534 0.0
O5 O 0.37769 0.1172 0.08946 0.0
C6 C 0.23416 0.1986 0.12057 0.0
O7 O 0.30416 0.13273 0.08483 0.0
C8 C 0.42093 0.24983 0.11561 0.0
C9 C 0.36093 0.18122 0.18237 0.0
O10 O 0.28023 0.22631 0.1082 0.0
O11 O 0.23421 0.15872 0.13399 0.0
O12 O 0.38171 0.24967 0.10159 0.0
O13 O 0.39977 0.21308 0.1331 0.0
O14 O 0.32258 0.18165 0.16653 0.0
O15 O 0.39968 0.17239 0.17273 0.0
C16 C 0.49035 0.13445 0.13307 0.0
O17 O 0.44522 0.09864 0.1445 0.0
O18 O 0.48309 0.17187 0.12131 0.0
C19 C 0.29689 0.06686 0.14457 0.0
Tb20 Tb 0.88178 0.72656 0.3962 0.0
C21 C 0.82636 0.6617 0.3419 0.0
Tb22 Tb 0.76358 0.63085 0.3982 0.0
O23 O 0.9106 0.66944 0.38916 0.0
O24 O 0.84096 0.64491 0.41245 0.0
O25 O 0.86743 0.70749 0.35276 0.0
C26 C 0.67604 0.52912 0.40004 0.0
O27 O 0.78381 0.62554 0.35622 0.0
C28 C 0.77464 0.72881 0.38971 0.0
C29 C 0.81084 0.70259 0.44889 0.0
O30 O 0.72437 0.5415 0.39193 0.0
O31 O 0.6768 0.57416 0.40659 0.0
O32 O 0.73154 0.68824 0.40053 0.0
O33 O 0.80491 0.71108 0.38174 0.0
O34 O 0.78189 0.65098 0.44062 0.0
O35 O 0.84843 0.74145 0.43323 0.0
C36 C 0.98185 0.81516 0.40188 0.0
O37 O 0.961 0.77151 0.41689 0.0
O38 O 0.94555 0.80977 0.3837 0.0
C39 C 0.87076 0.62884 0.40157 0.0
Tb40 Tb 0.8949 0.25799 0.13224 0.0
C41 C 0.92488 0.22028 0.07823 0.0
Tb42 Tb 0.86431 0.13764 0.12667 0.0
O43 O 0.98244 0.28637 0.12832 0.0
O44 O 0.92872 0.20913 0.14426 0.0
O45 O 0.91671 0.2583 0.08972 0.0
C46 C 0.85074 0.03804 0.1183 0.0
O47 O 0.9108 0.17247 0.08994 0.0
C48 C 0.78207 0.15587 0.12597 0.0
C49 C 0.85693 0.17811 0.18428 0.0
O50 O 0.82453 0.05866 0.10569 0.0
O51 O 0.88535 0.07389 0.13539 0.0
O52 O 0.77986 0.11164 0.13526 0.0
O53 O 0.82808 0.18613 0.1153 0.0
O54 O 0.86339 0.14158 0.17036 0.0
O55 O 0.86135 0.22342 0.17273 0.0
C56 C 0.89155 0.35148 0.13633 0.0
O57 O 0.92399 0.33948 0.14991 0.0
O58 O 0.86051 0.31047 0.12059 0.0
C59 C 0.97688 0.23977 0.13653 0.0
Tb60 Tb 0.29466 0.17168 0.39332 0.0
C61 C 0.37123 0.18629 0.3435 0.0
Tb62 Tb 0.38928 0.14346 0.39956 0.0
O63 O 0.34038 0.25638 0.40946 0.0
O64 O 0.37622 0.20929 0.40627 0.0
O65 O 0.32235 0.17606 0.3518 0.0
C66 C 0.48633 0.15375 0.40949 0.0
O67 O 0.40721 0.18286 0.35988 0.0
C68 C 0.29082 0.06086 0.38806 0.0
C69 C 0.30439 0.11302 0.44661 0.0
O70 O 0.4563 0.13031 0.38812 0.0
O71 O 0.46183 0.17121 0.42518 0.0
O72 O 0.32894 0.05454 0.39988 0.0
O73 O 0.31149 0.11015 0.38093 0.0
O74 O 0.355 0.12641 0.43989 0.0
O75 O 0.27188 0.12376 0.43101 0.0
C76 C 0.20637 0.17523 0.37764 0.0
O77 O 0.20683 0.14123 0.39556 0.0
O78 O 0.25537 0.20703 0.3689 0.0
C79 C 0.38619 0.25657 0.41249 0.0
Tb80 Tb 0.78199 0.63624 0.12716 0.0
C81 C 0.82147 0.71606 0.07643 0.0
Tb82 Tb 0.90005 0.73023 0.12635 0.0
O83 O 0.74988 0.69339 0.12698 0.0
O84 O 0.82653 0.71562 0.14339 0.0
O85 O 0.78209 0.66975 0.08707 0.0
C86 C 0.99249 0.82601 0.12801 0.0
O87 O 0.87064 0.74532 0.08788 0.0
C88 C 0.8883 0.63272 0.118 0.0
C89 C 0.85334 0.66917 0.1812 0.0
O90 O 0.98427 0.78134 0.13982 0.0
O91 O 0.94886 0.81687 0.11464 0.0
O92 O 0.93296 0.6745 0.12687 0.0
O93 O 0.85606 0.64917 0.11037 0.0
O94 O 0.88553 0.71725 0.16949 0.0
O95 O 0.81274 0.62779 0.16745 0.0
C96 C 0.69599 0.53683 0.12056 0.0
O97 O 0.70357 0.56877 0.14107 0.0
O98 O 0.73677 0.56052 0.10427 0.0
C99 C 0.79528 0.73353 0.13684 0.0
Tb100 Tb 0.84423 0.13782 0.40405 0.0
C101 C 0.84425 0.19015 0.34567 0.0
Tb102 Tb 0.89168 0.26272 0.39764 0.0
O103 O 0.77367 0.13228 0.42493 0.0
O104 O 0.81356 0.19146 0.39589 0.0
O105 O 0.84135 0.14737 0.35932 0.0
C106 C 0.90027 0.36137 0.40056 0.0
O107 O 0.85531 0.2366 0.35781 0.0
C108 C 0.95682 0.22498 0.38598 0.0
C109 C 0.90945 0.21722 0.45391 0.0
O110 O 0.93476 0.35065 0.38879 0.0
O111 O 0.86124 0.31659 0.41103 0.0
O112 O 0.9631 0.27077 0.37594 0.0
O113 O 0.92107 0.20832 0.40375 0.0
O114 O 0.9067 0.25773 0.44114 0.0
O115 O 0.89251 0.16862 0.442 0.0
C116 C 0.81855 0.03197 0.40335 0.0
O117 O 0.79639 0.05289 0.41841 0.0
O118 O 0.85533 0.07074 0.38844 0.0
C119 C 0.77662 0.17499 0.41313 0.0
Tb120 Tb 0.18901 0.30813 0.62106 0.0
C121 C 0.2006 0.35144 0.68162 0.0
Tb122 Tb 0.15899 0.39975 0.6358 0.0
O123 O 0.27743 0.3649 0.61457 0.0
O124 O 0.2268 0.39317 0.62544 0.0
O125 O 0.1907 0.30941 0.66555 0.0
C126 C 0.16005 0.49519 0.63766 0.0
O127 O 0.20128 0.39657 0.6725 0.0
C128 C 0.08528 0.29729 0.64568 0.0
C129 C 0.12562 0.34202 0.57713 0.0
O130 O 0.1274 0.45113 0.65106 0.0
O131 O 0.19223 0.48557 0.6231 0.0
O132 O 0.08706 0.33857 0.65841 0.0
O133 O 0.11928 0.31555 0.62702 0.0
O134 O 0.13124 0.38284 0.5931 0.0
O135 O 0.14248 0.30694 0.58458 0.0
C136 C 0.19231 0.21618 0.61355 0.0
O137 O 0.20918 0.25667 0.59647 0.0
O138 O 0.17217 0.22692 0.63464 0.0
C139 C 0.27572 0.40885 0.62045 0.0
Tb140 Tb 0.26235 0.87837 0.8975 0.0
C141 C 0.22482 0.90273 0.95219 0.0
Tb142 Tb 0.14578 0.86061 0.90091 0.0
O143 O 0.29968 0.96755 0.90109 0.0
O144 O 0.22113 0.92107 0.88485 0.0
O145 O 0.25387 0.88283 0.94101 0.0
C146 C 0.04815 0.85586 0.9011 0.0
O147 O 0.18178 0.90103 0.93971 0.0
C148 C 0.15503 0.77208 0.90699 0.0
C149 C 0.19148 0.85538 0.84379 0.0
O150 O 0.09257 0.89382 0.91284 0.0
O151 O 0.05907 0.82123 0.88981 0.0
O152 O 0.11166 0.77158 0.89799 0.0
O153 O 0.18812 0.81972 0.91509 0.0
O154 O 0.15925 0.86852 0.85733 0.0
O155 O 0.23223 0.85228 0.85595 0.0
C156 C 0.34895 0.86342 0.8951 0.0
O157 O 0.299 0.82695 0.88866 0.0
O158 O 0.34998 0.90816 0.90239 0.0
C159 C 0.25574 0.96811 0.89344 0.0
Tb160 Tb 0.74987 0.8976 0.62507 0.0
C161 C 0.70298 0.85003 0.6824 0.0
Tb162 Tb 0.66145 0.77638 0.6304 0.0
O163 O 0.69168 0.92436 0.63457 0.0
O164 O 0.6646 0.8491 0.61573 0.0
O165 O 0.74666 0.88515 0.66865 0.0
C166 C 0.56856 0.68024 0.62616 0.0
O167 O 0.65988 0.80829 0.67044 0.0
C168 C 0.76048 0.80045 0.64594 0.0
C169 C 0.72438 0.81931 0.57441 0.0
O170 O 0.61714 0.68868 0.62104 0.0
O171 O 0.57218 0.72602 0.63393 0.0
O172 O 0.71639 0.75876 0.65547 0.0
O173 O 0.74681 0.82163 0.62726 0.0
O174 O 0.68226 0.77908 0.58753 0.0
O175 O 0.75714 0.86839 0.58537 0.0
C176 C 0.84084 0.99412 0.62178 0.0
O177 O 0.80136 0.97488 0.60388 0.0
O178 O 0.82935 0.9589 0.64122 0.0
C179 C 0.64912 0.87909 0.62685 0.0
Tb180 Tb 0.14704 0.38997 0.89393 0.0
C181 C 0.12293 0.32802 0.95021 0.0
Tb182 Tb 0.17325 0.29807 0.90045 0.0
O183 O 0.07125 0.33499 0.8712 0.0
O184 O 0.10246 0.30384 0.89941 0.0
O185 O 0.13508 0.37454 0.9375 0.0
C186 C 0.17815 0.2052 0.8978 0.0
O187 O 0.12818 0.28849 0.93815 0.0
C188 C 0.25274 0.39596 0.91483 0.0
C189 C 0.19031 0.35904 0.84316 0.0
O190 O 0.1394 0.21214 0.88761 0.0
O191 O 0.21392 0.25047 0.90946 0.0
O192 O 0.24361 0.35024 0.92598 0.0
O193 O 0.21994 0.38502 0.89508 0.0
O194 O 0.18223 0.31376 0.85614 0.0
O195 O 0.18689 0.39874 0.85568 0.0
C196 C 0.14278 0.483 0.89542 0.0
O197 O 0.10912 0.43861 0.88246 0.0
O198 O 0.17931 0.47522 0.90779 0.0
C199 C 0.06749 0.2902 0.88087 0.0
Tb200 Tb 0.16266 0.87043 0.62936 0.0
C201 C 0.2155 0.85903 0.68321 0.0
Tb202 Tb 0.28105 0.89555 0.62884 0.0
O203 O 0.13059 0.78247 0.63239 0.0
O204 O 0.20516 0.83168 0.61371 0.0
O205 O 0.18219 0.87489 0.67244 0.0
C206 C 0.37593 0.89609 0.63235 0.0
O207 O 0.25311 0.85655 0.66847 0.0
C208 C 0.26515 0.97926 0.63537 0.0
C209 C 0.23285 0.91662 0.57553 0.0
O210 O 0.36552 0.93156 0.64336 0.0
O211 O 0.33281 0.86012 0.61912 0.0
O212 O 0.30678 0.98293 0.62264 0.0
O213 O 0.23774 0.93188 0.64492 0.0
O214 O 0.27064 0.90661 0.5861 0.0
O215 O 0.18856 0.9077 0.58899 0.0
C216 C 0.06793 0.86987 0.63171 0.0
O217 O 0.07681 0.83149 0.64042 0.0
O218 O 0.1124 0.90883 0.62109 0.0
C219 C 0.17375 0.78419 0.62282 0.0
Tb220 Tb 0.637 0.76385 0.89848 0.0
C221 C 0.70276 0.81389 0.95336 0.0
Tb222 Tb 0.73654 0.8873 0.89961 0.0
O223 O 0.68998 0.73636 0.87935 0.0
O224 O 0.72281 0.8068 0.90259 0.0
O225 O 0.65452 0.77896 0.94196 0.0
C226 C 0.83304 0.97894 0.89544 0.0
O227 O 0.7425 0.85618 0.93987 0.0
C228 C 0.64048 0.88234 0.90424 0.0
C229 C 0.6764 0.82978 0.84376 0.0
O230 O 0.79657 0.96953 0.91361 0.0
O231 O 0.81588 0.93592 0.88003 0.0
O232 O 0.68725 0.92748 0.90519 0.0
O233 O 0.65108 0.84436 0.90109 0.0
O234 O 0.72087 0.86968 0.85604 0.0
O235 O 0.63623 0.78807 0.85686 0.0
C236 C 0.53563 0.67782 0.90199 0.0
O237 O 0.5797 0.67886 0.91111 0.0
O238 O 0.54898 0.72487 0.89108 0.0
C239 C 0.73528 0.77976 0.88723 0.0
H240 H 0.07271 0.29163 0.11009 0.0
H241 H 0.9759 0.15305 0.16177 0.0
H242 H 0.04638 0.12669 0.1608 0.0
H243 H 0.13665 0.14438 0.14591 0.0
H244 H 0.23329 0.28318 0.09423 0.0
H245 H 0.16192 0.30823 0.09449 0.0
C246 C 0.06728 0.2558 0.12118 0.0
C247 C 1.01949 0.22428 0.13599 0.0
C248 C 0.10792 0.24101 0.12052 0.0
C249 C 1.01239 0.17764 0.15009 0.0
C250 C 0.0527 0.16269 0.14961 0.0
C251 C 0.14188 0.17999 0.13468 0.0
C252 C 0.19002 0.21205 0.12017 0.0
C253 C 0.10073 0.19418 0.13497 0.0
C254 C 0.19647 0.25799 0.1056 0.0
C255 C 0.15577 0.27237 0.10576 0.0
H256 H 0.23656 0.96967 0.41918 0.0
H257 H 0.21217 0.06223 0.35607 0.0
H258 H 0.11389 0.99579 0.35504 0.0
H259 H 0.03463 0.9093 0.37148 0.0
H260 H 0.05985 0.8197 0.436 0.0
H261 H 0.15733 0.88682 0.43724 0.0
C262 C 0.20969 0.97501 0.40511 0.0
C263 C 0.23156 0.02022 0.38745 0.0
C264 C 0.15313 0.93717 0.40498 0.0
C265 C 0.19622 0.02741 0.36972 0.0
C266 C 0.14002 0.98947 0.36915 0.0
C267 C 0.06149 0.90483 0.3859 0.0
C268 C 0.03997 0.85939 0.40352 0.0
C269 C 0.11792 0.94394 0.38661 0.0
C270 C 0.07528 0.85422 0.42218 0.0
C271 C 0.13118 0.89251 0.42286 0.0
H272 H 0.89909 0.98973 0.14562 0.0
H273 H 0.77153 0.95741 0.08712 0.0
H274 H 0.74231 0.85946 0.08775 0.0
H275 H 0.75064 0.78243 0.1066 0.0
H276 H 0.87942 0.81561 0.16448 0.0
H277 H 0.91045 0.91374 0.1626 0.0
C278 C 0.86523 0.96124 0.13285 0.0
C279 C 0.83728 0.9804 0.11647 0.0
C280 C 0.84846 0.90512 0.13349 0.0
C281 C 0.79359 0.94335 0.09993 0.0
C282 C 0.77669 0.88738 0.10038 0.0
C283 C 0.78517 0.81126 0.11891 0.0
C284 C 0.81225 0.79213 0.13597 0.0
C285 C 0.80324 0.86769 0.11744 0.0
C286 C 0.85771 0.82965 0.1514 0.0
C287 C 0.87556 0.88569 0.15028 0.0
H288 H 0.10551 0.11962 0.3986 0.0
H289 H 0.204 0.24878 0.3425 0.0
H290 H 0.13195 0.27251 0.33759 0.0
H291 H 0.04553 0.2634 0.35365 0.0
H292 H 0.95044 0.13685 0.41169 0.0
H293 H 1.01587 0.10477 0.41117 0.0
C294 C 0.11067 0.15229 0.38497 0.0
C295 C 0.15983 0.18292 0.37124 0.0
C296 C 0.0698 0.16645 0.38275 0.0
C297 C 0.16632 0.22497 0.35347 0.0
C298 C 0.12532 0.23869 0.35072 0.0
C299 C 0.03897 0.22838 0.36583 0.0
C300 C 0.99358 0.20271 0.38274 0.0
C301 C 0.07761 0.21087 0.36596 0.0
C302 C 0.98512 0.15725 0.39843 0.0
C303 C 0.02265 0.13895 0.39827 0.0
H304 H 0.2084 0.05274 0.1159 0.0
H305 H 0.2591 0.98255 0.18026 0.0
H306 H 0.1672 0.90267 0.18176 0.0
H307 H 0.07552 0.84985 0.16225 0.0
H308 H 0.02354 0.9187 0.09793 0.0
H309 H 0.11327 1.00289 0.099 0.0
C310 C 0.199 0.02026 0.13048 0.0
C311 C 0.24021 0.02286 0.14773 0.0
C312 C 0.14633 0.97438 0.13105 0.0
C313 C 0.22785 0.98094 0.16666 0.0
C314 C 0.17549 0.93533 0.16748 0.0
C315 C 0.0838 0.88346 0.14858 0.0
C316 C 0.04387 0.87827 0.12976 0.0
C317 C 0.13495 0.9311 0.14934 0.0
C318 C 0.05428 0.92207 0.11241 0.0
C319 C 0.10539 0.96996 0.11302 0.0
H320 H 0.72658 0.77664 0.4172 0.0
H321 H 0.85493 0.81169 0.36078 0.0
H322 H 0.88031 0.90864 0.3599 0.0
H323 H 0.86582 0.98388 0.37514 0.0
H324 H 0.73845 0.94889 0.43222 0.0
H325 H 0.71296 0.85199 0.43292 0.0
C326 C 0.75986 0.80554 0.40461 0.0
C327 C 0.78869 0.78709 0.38898 0.0
C328 C 0.77446 0.86137 0.40436 0.0
C329 C 0.83219 0.825 0.37303 0.0
C330 C 0.84667 0.88043 0.37248 0.0
C331 C 0.83244 0.95494 0.38766 0.0
C332 C 0.80389 0.97345 0.4035 0.0
C333 C 0.81811 0.89915 0.38806 0.0
C334 C 0.76097 0.93562 0.41978 0.0
C335 C 0.74632 0.88016 0.42019 0.0
H336 H 0.28712 0.0576 0.59725 0.0
H337 H 0.19814 0.98817 0.67074 0.0
H338 H 0.16415 0.05292 0.66955 0.0
H339 H 0.163 0.13195 0.64869 0.0
H340 H 0.24918 0.19969 0.57433 0.0
H341 H 0.28006 0.13236 0.5744 0.0
C342 C 0.26062 0.05711 0.61304 0.0
C343 C 0.24595 0.01921 0.63435 0.0
C344 C 0.24033 0.09373 0.61192 0.0
C345 C 0.2104 0.01764 0.65433 0.0
C346 C 0.19083 0.05445 0.65362 0.0
C347 C 0.18801 0.13149 0.63236 0.0
C348 C 0.20415 0.17081 0.61166 0.0
C349 C 0.20588 0.09297 0.63264 0.0
C350 C 0.23632 0.16975 0.59052 0.0
C351 C 0.2543 0.13154 0.59064 0.0
H352 H 0.95773 0.77951 0.87449 0.0
H353 H 1.01609 0.92223 0.92556 0.0
H354 H 0.92458 0.91228 0.92476 0.0
H355 H 0.82756 0.8609 0.91084 0.0
H356 H 0.76931 0.7185 0.85954 0.0
H357 H 0.8615 0.7304 0.85905 0.0
C358 C 0.95046 0.80854 0.88542 0.0
C359 C 0.99352 0.85139 0.90025 0.0
C360 C 0.89788 0.80251 0.8848 0.0
C361 C 0.98358 0.88882 0.91414 0.0
C362 C 0.9313 0.8831 0.91366 0.0
C363 C 0.83509 0.83279 0.89928 0.0
C364 C 0.79159 0.78885 0.88515 0.0
C365 C 0.88808 0.83986 0.89921 0.0
C366 C 0.80204 0.7526 0.8705 0.0
C367 C 0.85471 0.75937 0.87029 0.0
H368 H 0.89326 0.05602 0.66531 0.0
H369 H 0.89323 0.05619 0.57808 0.0
H370 H 0.97135 0.15007 0.57808 0.0
H371 H 0.0376 0.23199 0.60294 0.0
H372 H 0.03193 0.23645 0.68988 0.0
H373 H 0.95732 0.14032 0.69021 0.0
C374 C 0.91078 0.07668 0.64636 0.0
C375 C 0.88844 0.04962 0.62171 0.0
C376 C 0.95404 0.13111 0.64658 0.0
C377 C 0.91027 0.07661 0.59722 0.0
C378 C 0.95472 0.13005 0.59724 0.0
C379 C 1.02015 0.21174 0.62195 0.0
C380 C 0.04007 0.24047 0.64639 0.0
C381 C 0.97663 0.15767 0.62179 0.0
C382 C 1.01677 0.21464 0.6709 0.0
C383 C 0.97444 0.1599 0.67104 0.0
H384 H 0.26054 0.19081 0.91641 0.0
H385 H 0.10519 0.10718 0.8743 0.0
H386 H 0.11437 0.02531 0.86953 0.0
H387 H 0.16852 0.97848 0.87635 0.0
H388 H 0.32416 0.06412 0.91828 0.0
H389 H 0.31301 0.144 0.92409 0.0
C390 C 0.22863 0.15459 0.90625 0.0
C391 C 0.1824 0.15501 0.89563 0.0
C392 C 0.23442 0.10807 0.90344 0.0
C393 C 0.14128 0.10782 0.88256 0.0
C394 C 0.14656 0.06106 0.87981 0.0
C395 C 0.19983 1.01467 0.88676 0.0
C396 C 0.24729 1.01559 0.89669 0.0
C397 C 0.19323 0.06085 0.88998 0.0
C398 C 0.28751 0.0626 0.91023 0.0
C399 C 0.28114 0.1083 0.91362 0.0
H400 H 0.9809 0.7981 0.66057 0.0
H401 H 0.03744 0.93839 0.60766 0.0
H402 H 0.94732 0.93129 0.60906 0.0
H403 H 0.85132 0.88119 0.62291 0.0
H404 H 0.79507 0.74182 0.67642 0.0
H405 H 0.88682 0.75269 0.67744 0.0
C406 C 0.97349 0.82725 0.64945 0.0
C407 C 1.01522 0.86828 0.63374 0.0
C408 C 0.92191 0.823 0.65049 0.0
C409 C 1.00562 0.90629 0.61972 0.0
C410 C 0.95422 0.90219 0.62052 0.0
C411 C 0.85938 0.85376 0.63516 0.0
C412 C 0.81666 0.81063 0.64952 0.0
C413 C 0.91191 0.8602 0.63552 0.0
C414 C 0.82744 0.77525 0.66522 0.0
C415 C 0.87973 0.78134 0.66569 0.0
H416 H 0.0507 0.19307 0.86182 0.0
H417 H 0.97198 0.26885 0.90294 0.0
H418 H 0.89284 0.17833 0.9122 0.0
H419 H 0.84824 0.07765 0.9104 0.0
H420 H 0.92509 1.00108 0.86812 0.0
H421 H 1.00368 0.09173 0.85801 0.0
C422 C 1.01586 0.18946 0.87256 0.0
C423 C 1.01656 0.23705 0.88157 0.0
C424 C 0.97092 0.13728 0.878 0.0
C425 C 0.97148 0.23249 0.89539 0.0
C426 C 0.92669 0.18083 0.90096 0.0
C427 C 0.8824 0.0809 0.89911 0.0
C428 C 0.88149 0.03304 0.89029 0.0
C429 C 0.92638 0.13296 0.89275 0.0
C430 C 0.9253 0.03757 0.87523 0.0
C431 C 0.97 0.08929 0.86937 0.0
H432 H 0.30978 0.19873 0.30425 0.0
H433 H 0.45802 0.19171 0.3165 0.0
H434 H 0.46981 0.19297 0.26761 0.0
H435 H 0.43403 0.18856 0.22139 0.0
H436 H 0.28491 0.19429 0.20969 0.0
H437 H 0.2778 0.20112 0.25834 0.0
C438 C 0.34502 0.19799 0.29632 0.0
C439 C 0.38259 0.19452 0.31412 0.0
C440 C 0.35124 0.19804 0.26821 0.0
C441 C 0.42827 0.19419 0.30335 0.0
C442 C 0.43496 0.19467 0.27534 0.0
C443 C 0.4002 0.19176 0.22943 0.0
C444 C 0.35984 0.19039 0.2118 0.0
C445 C 0.39604 0.19536 0.25758 0.0
C446 C 0.31652 0.19498 0.22267 0.0
C447 C 0.3123 0.19883 0.25056 0.0
H448 H 0.90787 0.71695 0.3054 0.0
H449 H 0.74152 0.58346 0.31166 0.0
H450 H 0.7364 0.56994 0.26288 0.0
H451 H 0.77684 0.60028 0.21766 0.0
H452 H 0.94319 0.73378 0.21179 0.0
H453 H 0.95056 0.74223 0.26081 0.0
C454 C 0.87058 0.68473 0.29614 0.0
C455 C 0.8251 0.65183 0.31231 0.0
C456 C 0.86775 0.67696 0.26794 0.0
C457 C 0.77729 0.6098 0.29985 0.0
C458 C 0.77419 0.60191 0.27184 0.0
C459 C 0.81497 0.63046 0.22715 0.0
C460 C 0.85913 0.66659 0.21098 0.0
C461 C 0.81889 0.63576 0.25558 0.0
C462 C 0.90825 0.7057 0.22368 0.0
C463 C 0.91257 0.71075 0.25178 0.0
H464 H 0.83516 0.23716 0.22105 0.0
H465 H 0.86102 0.09864 0.21475 0.0
H466 H 0.85507 0.08691 0.2636 0.0
H467 H 0.84873 0.11958 0.30891 0.0
H468 H 0.82215 0.25766 0.31494 0.0
H469 H 0.82164 0.26518 0.26595 0.0
C470 C 0.83913 0.20418 0.23031 0.0
C471 C 0.84901 0.16932 0.21403 0.0
C472 C 0.83564 0.1974 0.25865 0.0
C473 C 0.85358 0.12648 0.22657 0.0
C474 C 0.85025 0.11961 0.25466 0.0
C475 C 0.84191 0.15068 0.29949 0.0
C476 C 0.83606 0.1882 0.31577 0.0
C477 C 0.84207 0.15529 0.27101 0.0
C478 C 0.82744 0.22843 0.30308 0.0
C479 C 0.82717 0.23294 0.27493 0.0
H480 H 0.23073 0.4301 0.72048 0.0
H481 H 0.17996 0.25875 0.71008 0.0
H482 H 0.17596 0.24617 0.75914 0.0
H483 H 0.17957 0.28236 0.8053 0.0
H484 H 0.22999 0.45405 0.81455 0.0
H485 H 0.24145 0.46753 0.76603 0.0
C486 C 0.21934 0.39005 0.72886 0.0
C487 C 0.20537 0.34548 0.71141 0.0
C488 C 0.21659 0.38289 0.75712 0.0
C489 C 0.19107 0.29401 0.72287 0.0
C490 C 0.18848 0.28664 0.75102 0.0
C491 C 0.1938 0.32284 0.79673 0.0
C492 C 0.20323 0.36685 0.81376 0.0
C493 C 0.20009 0.33055 0.76841 0.0
C494 C 0.22167 0.41905 0.80213 0.0
C495 C 0.22835 0.42699 0.77425 0.0
H496 H 0.25512 0.83958 0.80788 0.0
H497 H 0.11421 0.86117 0.81247 0.0
H498 H 0.10756 0.86091 0.76336 0.0
H499 H 0.14429 0.8598 0.71917 0.0
H500 H 0.28559 0.83922 0.71392 0.0
H501 H 0.28902 0.83331 0.76318 0.0
C502 C 0.22273 0.84385 0.79816 0.0
C503 C 0.18562 0.85095 0.81395 0.0
C504 C 0.21919 0.844 0.76975 0.0
C505 C 0.1437 0.85609 0.80093 0.0
C506 C 0.13978 0.85595 0.77278 0.0
C507 C 0.17571 0.85369 0.72872 0.0
C508 C 0.2149 0.85048 0.71283 0.0
C509 C 0.17775 0.85079 0.75701 0.0
C510 C 0.25498 0.84206 0.72563 0.0
C511 C 0.25708 0.8388 0.75383 0.0
H512 H 0.62332 0.78716 0.71858 0.0
H513 H 0.78649 0.92707 0.71368 0.0
H514 H 0.79201 0.93476 0.76279 0.0
H515 H 0.75229 0.8996 0.80749 0.0
H516 H 0.58911 0.7595 0.81222 0.0
H517 H 0.58214 0.75455 0.76313 0.0
C518 C 0.66 0.81954 0.7282 0.0
C519 C 0.70441 0.8562 0.71229 0.0
C520 C 0.66315 0.82376 0.75661 0.0
C521 C 0.75154 0.89802 0.72527 0.0
C522 C 0.75487 0.90252 0.75346 0.0
C523 C 0.71503 0.86823 0.79783 0.0
C524 C 0.67155 0.82988 0.81375 0.0
C525 C 0.71116 0.86528 0.76938 0.0
C526 C 0.62357 0.78953 0.80068 0.0
C527 C 0.6194 0.78654 0.77249 0.0
H528 H 0.21604 0.98988 0.96812 0.0
H529 H 0.28503 0.88918 0.99219 0.0
H530 H 0.33013 0.94904 0.03116 0.0
H531 H 0.3496 0.03021 0.05863 0.0
H532 H 0.28114 0.13101 0.03367 0.0
H533 H 0.23744 0.07184 0.99456 0.0
C534 C 0.24009 0.98042 0.98219 0.0
C535 C 0.24621 0.93447 0.9776 0.0
C536 C 0.26708 0.01584 1.00409 0.0
C537 C 0.27904 0.92387 0.99551 0.0
C538 C 0.3052 0.95835 0.01767 0.0
C539 C 0.32603 0.03979 0.04432 0.0
C540 C 0.31896 0.0852 0.049 0.0
C541 C 0.29988 1.00475 0.02208 0.0
C542 C 0.2874 0.09643 0.03051 0.0
C543 C 0.262 0.06236 1.00824 0.0
H544 H 0.83077 0.8039 0.46535 0.0
H545 H 0.75236 0.63365 0.48971 0.0
H546 H 0.71527 0.65407 0.52928 0.0
H547 H 0.70422 0.71959 0.55698 0.0
H548 H 0.78457 0.89054 0.53413 0.0
H549 H 0.82083 0.87037 0.49381 0.0
C550 C 0.80633 0.77147 0.47955 0.0
C551 C 0.79476 0.71734 0.47458 0.0
C552 C 0.78453 0.78339 0.50231 0.0
C553 C 0.76214 0.67569 0.493 0.0
C554 C 0.74058 0.68724 0.51561 0.0
C555 C 0.72896 0.75235 0.54298 0.0
C556 C 0.74101 0.80637 0.5484 0.0
C557 C 0.75101 0.74076 0.52033 0.0
C558 C 0.77429 0.8485 0.53033 0.0
C559 C 0.79535 0.83705 0.50737 0.0
H560 H 0.05147 0.22848 0.97215 0.0
H561 H 0.12629 0.40276 0.98625 0.0
H562 H 0.06992 0.38554 0.02617 0.0
H563 H 0.99788 0.32075 0.05696 0.0
H564 H 0.92284 0.14656 0.04225 0.0
H565 H 0.97989 0.16402 1.00275 0.0
C566 C 0.0561 0.26268 0.98419 0.0
C567 C 0.09353 0.31683 0.97628 0.0
C568 C 0.02265 0.25254 1.00687 0.0
C569 C 0.09805 0.36063 0.9919 0.0
C570 C 0.06555 0.35084 0.01469 0.0
C571 C 0.99347 0.28669 0.04487 0.0
C572 C 0.95567 0.23243 0.05254 0.0
C573 C 0.02717 0.29696 0.02223 0.0
C574 C 0.95138 0.18877 0.03686 0.0
C575 C 0.98424 0.19867 0.01428 0.0
H576 H 0.33258 0.04131 0.46663 0.0
H577 H 0.22419 0.10484 0.48084 0.0
H578 H 0.18899 0.04639 0.52125 0.0
H579 H 0.19256 0.97975 0.55361 0.0
H580 H 0.30063 0.91631 0.53729 0.0
H581 H 0.33177 0.97168 0.49643 0.0
C582 C 0.3015 0.04281 0.47864 0.0
C583 C 0.28194 0.07836 0.4711 0.0
C584 C 0.28096 1.00856 0.50133 0.0
C585 C 0.24039 0.07833 0.48641 0.0
C586 C 0.22021 0.0448 0.50945 0.0
C587 C 0.22208 0.97723 0.5408 0.0
C588 C 0.24424 0.94381 0.54862 0.0
C589 C 0.24046 1.00989 0.51722 0.0
C590 C 0.283 0.94168 0.53192 0.0
C591 C 0.30105 0.97354 0.50854 0.0
H592 H 0.72081 0.6938 0.05822 0.0
H593 H 0.89274 0.79288 0.04095 0.0
H594 H 0.87158 0.83592 1.00306 0.0
H595 H 0.80409 0.84364 0.97399 0.0
H596 H 0.63214 0.74438 0.99131 0.0
H597 H 0.65364 0.70421 0.03029 0.0
C598 C 0.75367 0.72434 0.04599 0.0
C599 C 0.80829 0.73929 0.05221 0.0
C600 C 0.74127 0.74966 0.02448 0.0
C601 C 0.85032 0.78007 0.03651 0.0
C602 C 0.83826 0.80497 0.0149 0.0
C603 C 0.7713 0.8141 0.9866 0.0
C604 C 0.71648 0.79738 0.97971 0.0
C605 C 0.78388 0.79014 1.00869 0.0
C606 C 0.67466 0.75824 0.99612 0.0
C607 C 0.6869 0.7349 0.01833 0.0
H608 H 0.06551 0.24217 0.55277 0.0
H609 H 0.1021 0.41054 0.54747 0.0
H610 H 0.03597 0.38618 0.51016 0.0
H611 H 0.96781 0.31713 0.47902 0.0
H612 H 0.92976 0.14827 0.48523 0.0
H613 H 0.99533 0.17266 0.52263 0.0
C614 C 0.0596 0.27379 0.54327 0.0
C615 C 0.08948 0.32841 0.55275 0.0
C616 C 1.02042 0.25918 0.52228 0.0
C617 C 0.08015 0.36836 0.54049 0.0
C618 C 0.04205 0.35436 0.51924 0.0
C619 C 0.97323 0.28538 0.4887 0.0
C620 C 0.94351 0.23076 0.47914 0.0
C621 C 1.01168 0.29983 0.51006 0.0
C622 C 0.95167 0.19054 0.49205 0.0
C623 C 0.98958 0.20455 0.51337 0.0
H624 H 0.68784 0.09372 0.15123 0.0
H625 H 0.76789 0.23376 0.09827 0.0
H626 H 0.68454 0.24085 0.0963 0.0
H627 H 0.58729 0.2044 0.10882 0.0
H628 H 0.50876 0.06166 0.16042 0.0
H629 H 0.59308 0.05797 0.1635 0.0
C630 C 0.68722 0.12596 0.13926 0.0
C631 C 0.73396 0.16344 0.12507 0.0
C632 C 0.63921 0.12886 0.13783 0.0
C633 C 0.7326 0.20497 0.10969 0.0
C634 C 0.68483 0.20867 0.10841 0.0
C635 C 0.58886 0.17259 0.1207 0.0
C636 C 0.54194 0.13322 0.13433 0.0
C637 C 0.63767 0.17049 0.12226 0.0
C638 C 0.54429 0.09223 0.14969 0.0
C639 C 0.59249 0.09015 0.1515 0.0
H640 H 0.57933 0.4993 0.42363 0.0
H641 H 0.6663 0.43269 0.38205 0.0
H642 H 0.58613 0.34015 0.3848 0.0
H643 H 0.48824 0.27895 0.39649 0.0
H644 H 0.40288 0.34804 0.43762 0.0
H645 H 0.48537 0.43812 0.43815 0.0
C646 C 0.58078 0.46449 0.41524 0.0
C647 C 0.62834 0.47288 0.40235 0.0
C648 C 0.53475 0.41158 0.41703 0.0
C649 C 0.62989 0.42731 0.39187 0.0
C650 C 0.58409 0.37437 0.3935 0.0
C651 C 0.48831 0.31353 0.40612 0.0
C652 C 0.43961 0.30688 0.4171 0.0
C653 C 0.53592 0.36599 0.40577 0.0
C654 C 0.43992 0.35216 0.42911 0.0
C655 C 0.48698 0.40382 0.42927 0.0
H656 H 0.82977 0.38423 0.10688 0.0
H657 H 0.95764 0.43907 0.16771 0.0
H658 H 0.96621 0.52987 0.16777 0.0
H659 H 0.9404 0.59486 0.14947 0.0
H660 H 0.81383 0.54279 0.08831 0.0
H661 H 0.80111 0.44967 0.08958 0.0
C662 C 0.85919 0.41604 0.12025 0.0
C663 C 0.89322 0.40501 0.13721 0.0
C664 C 0.86409 0.46858 0.1201 0.0
C665 C 0.9311 0.44651 0.15445 0.0
C666 C 0.93609 0.49851 0.15446 0.0
C667 C 0.90987 0.56308 0.13644 0.0
C668 C 0.8778 0.57553 0.11894 0.0
C669 C 0.90332 0.51017 0.13718 0.0
C670 C 0.83826 0.53393 0.10231 0.0
C671 C 0.83139 0.48085 0.10289 0.0
H672 H 0.56609 0.1784 0.3738 0.0
H673 H 0.52638 0.14404 0.45808 0.0
H674 H 0.61475 0.14982 0.46733 0.0
H675 H 0.70134 0.15982 0.45053 0.0
H676 H 0.74385 0.20342 0.36697 0.0
H677 H 0.65692 0.19988 0.35832 0.0
C678 C 0.5771 0.17234 0.39415 0.0
C679 C 0.54008 0.15981 0.41517 0.0
C680 C 0.62846 0.17772 0.39941 0.0
C681 C 0.55462 0.15329 0.44163 0.0
C682 C 0.60495 0.15661 0.44689 0.0
C683 C 0.69166 0.16931 0.4306 0.0
C684 C 0.72839 0.18134 0.4094 0.0
C685 C 0.64196 0.16819 0.42585 0.0
C686 C 0.7161 0.19414 0.38364 0.0
C687 C 0.66626 0.19176 0.3786 0.0
H688 H 0.48783 0.32264 0.07838 0.0
H689 H 0.47109 0.28844 0.16399 0.0
H690 H 0.55433 0.37515 0.17332 0.0
H691 H 0.63053 0.46245 0.15726 0.0
H692 H 0.65318 0.4932 0.0716 0.0
H693 H 0.56929 0.4064 0.06203 0.0
C694 C 0.5029 0.33427 0.09897 0.0
C695 C 0.47359 0.29979 0.12043 0.0
C696 C 0.5516 0.38362 0.10418 0.0
C697 C 0.49332 0.3145 0.14711 0.0
C698 C 0.54072 0.36414 0.15251 0.0
C699 C 0.61691 0.44985 0.13656 0.0
C700 C 0.647 0.48384 0.11517 0.0
C701 C 0.56988 0.39927 0.13123 0.0
C702 C 0.63008 0.46725 0.08835 0.0
C703 C 0.58225 0.41781 0.08287 0.0
H704 H 0.94012 0.59969 0.38171 0.0
H705 H 0.79425 0.53766 0.42932 0.0
H706 H 0.79053 0.4486 0.43354 0.0
H707 H 0.82927 0.38855 0.42306 0.0
H708 H 0.97693 0.45425 0.37644 0.0
H709 H 0.97992 0.54228 0.37275 0.0
C710 C 0.90745 0.56676 0.39308 0.0
C711 C 0.86716 0.5749 0.40495 0.0
C712 C 0.90622 0.51657 0.3957 0.0
C713 C 0.82534 0.53202 0.41973 0.0
C714 C 0.82341 0.4813 0.42222 0.0
C715 C 0.86219 0.42236 0.41226 0.0
C716 C 0.90284 0.41507 0.4 0.0
C717 C 0.86367 0.4731 0.41022 0.0
C718 C 0.94527 0.45896 0.38605 0.0
C719 C 0.94693 0.50923 0.38387 0.0
H720 H 0.11654 0.69201 0.65111 0.0
H721 H 0.24953 0.7694 0.59504 0.0
H722 H 0.25866 0.68676 0.5953 0.0
H723 H 0.22565 0.59068 0.61058 0.0
H724 H 0.09178 0.51571 0.6665 0.0
H725 H 0.08595 0.59933 0.66715 0.0
C726 C 0.14763 0.69091 0.63892 0.0
C727 C 0.1823 0.73652 0.62305 0.0
C728 C 0.15219 0.64359 0.63911 0.0
C729 C 0.22267 0.73479 0.60756 0.0
C730 C 0.22762 0.68749 0.60763 0.0
C731 C 0.19542 0.59293 0.62294 0.0
C732 C 0.15897 0.54709 0.63839 0.0
C733 C 0.19222 0.6414 0.62318 0.0
C734 C 0.12011 0.55039 0.6544 0.0
C735 C 0.11673 0.59816 0.65477 0.0
H736 H 0.4467 0.92899 0.91871 0.0
H737 H 0.35841 0.77951 0.87263 0.0
H738 H 0.43999 0.76927 0.87245 0.0
H739 H 0.53901 0.80706 0.88332 0.0
H740 H 0.62384 0.95499 0.93091 0.0
H741 H 0.54137 0.9619 0.93247 0.0
C742 C 0.44525 0.89408 0.90866 0.0
C743 C 0.39698 0.85545 0.89543 0.0
C744 C 0.49181 0.88824 0.90896 0.0
C745 C 0.39539 0.81002 0.8828 0.0
C746 C 0.44199 0.80418 0.88272 0.0
C747 C 0.53873 0.83948 0.89481 0.0
C748 C 0.58725 0.87985 0.9074 0.0
C749 C 0.49073 0.84335 0.89558 0.0
C750 C 0.58696 0.92325 0.92116 0.0
C751 C 0.53985 0.92737 0.92202 0.0
H752 H 0.46508 0.65387 0.64033 0.0
H753 H 0.55823 0.58747 0.60453 0.0
H754 H 0.47524 0.49871 0.59866 0.0
H755 H 0.37696 0.43948 0.60427 0.0
H756 H 0.28293 0.50213 0.64228 0.0
H757 H 0.36508 0.59305 0.64642 0.0
C758 C 0.46698 0.61987 0.63123 0.0
C759 C 0.51762 0.62705 0.62288 0.0
C760 C 0.41895 0.56853 0.62814 0.0
C761 C 0.51975 0.58283 0.61117 0.0
C762 C 0.47232 0.5321 0.60777 0.0
C763 C 0.37436 0.47314 0.61333 0.0
C764 C 0.3238 0.46458 0.62241 0.0
C765 C 0.42184 0.52446 0.61625 0.0
C766 C 0.32106 0.50825 0.63437 0.0
C767 C 0.36819 0.56002 0.63703 0.0
H768 H 0.08878 0.67408 0.88433 0.0
H769 H 0.23758 0.76155 0.93143 0.0
H770 H 0.24776 0.67963 0.93202 0.0
H771 H 0.21299 0.58204 0.91918 0.0
H772 H 0.06371 0.49699 0.87196 0.0
H773 H 0.05487 0.57886 0.87151 0.0
C774 C 0.12345 0.67524 0.89478 0.0
C775 C 0.16247 0.72366 0.90774 0.0
C776 C 0.12877 0.62827 0.89506 0.0
C777 C 0.20722 0.7247 0.92114 0.0
C778 C 0.2129 0.67786 0.92154 0.0
C779 C 0.17861 0.58164 0.90885 0.0
C780 C 0.13898 0.53354 0.89566 0.0
C781 C 0.1738 0.62926 0.90858 0.0
C782 C 0.09471 0.53347 0.88226 0.0
C783 C 0.08958 0.58027 0.88198 0.0
H784 H 0.40438 0.82522 0.61013 0.0
H785 H 0.46597 0.97043 0.65977 0.0
H786 H 0.55488 0.97611 0.66325 0.0
H787 H 0.61596 0.94195 0.65129 0.0
H788 H 0.55726 0.79802 0.60116 0.0
H789 H 0.46618 0.78913 0.59899 0.0
C790 C 0.43734 0.85793 0.62173 0.0
C791 C 0.42882 0.89753 0.63458 0.0
C792 C 0.4887 0.86108 0.6236 0.0
C793 C 0.47163 0.93961 0.64963 0.0
C794 C 0.52248 0.9429 0.65165 0.0
C795 C 0.58318 0.90849 0.63995 0.0
C796 C 0.59315 0.87072 0.62639 0.0
C797 C 0.53156 0.90417 0.63858 0.0
C798 C 0.55035 0.82742 0.61189 0.0
C799 C 0.49843 0.82254 0.61055 0.0
H800 H 0.49773 0.58428 0.93182 0.0
H801 H 0.44698 0.66632 0.87406 0.0
H802 H 0.35402 0.58755 0.87357 0.0
H803 H 0.28773 0.49323 0.8882 0.0
H804 H 0.33793 0.4133 0.94759 0.0
H805 H 0.42982 0.49313 0.94903 0.0
C806 C 0.46621 0.58482 0.9192 0.0
C807 C 0.47924 0.63063 0.90279 0.0
C808 C 0.41257 0.5397 0.91934 0.0
C809 C 0.43794 0.63127 0.88678 0.0
C810 C 0.38476 0.58626 0.88648 0.0
C811 C 0.31869 0.49363 0.90164 0.0
C812 C 0.30614 0.44722 0.91756 0.0
C813 C 0.37164 0.53997 0.9025 0.0
C814 C 0.34656 0.4484 0.93501 0.0
C815 C 0.39926 0.494 0.9358 0.0
loop_
_geom_bond_atom_site_label_1
_geom_bond_atom_site_label_2
_geom_bond_distance
_geom_bond_site_symmetry_2
_ccdc_geom_bond_type
Tb0 O3 2.453 . S
Tb0 O4 2.596 . S
Tb0 O5 2.374 . S
Tb0 O13 2.343 . S
Tb0 O15 2.353 . S
Tb0 O17 2.427 . S
Tb0 O18 2.513 . S
C1 O5 1.251 . S
C1 O7 1.263 . S
Tb2 O4 2.343 . S
Tb2 O7 2.353 . S
Tb2 O10 2.427 . S
Tb2 O11 2.513 . S
Tb2 O12 2.453 . S
Tb2 O13 2.596 . S
Tb2 O14 2.374 . S
O3 Tb0 2.453 . S
O3 C19 1.245 . S
O4 Tb0 2.596 . S
O4 Tb2 2.343 . S
O4 C19 1.259 . S
O5 Tb0 2.374 . S
O5 C1 1.251 . S
C6 O10 1.275 . S
C6 O11 1.246 . S
O7 C1 1.263 . S
O7 Tb2 2.353 . S
C8 O12 1.245 . S
C8 O13 1.259 . S
C9 O14 1.250 . S
C9 O15 1.263 . S
O10 Tb2 2.427 . S
O10 C6 1.275 . S
O11 Tb2 2.513 . S
O11 C6 1.246 . S
O12 Tb2 2.453 . S
O12 C8 1.245 . S
O13 Tb0 2.343 . S
O13 Tb2 2.596 . S
O13 C8 1.259 . S
O14 Tb2 2.374 . S
O14 C9 1.250 . S
O15 Tb0 2.353 . S
O15 C9 1.263 . S
C16 O17 1.275 . S
C16 O18 1.246 . S
O17 Tb0 2.427 . S
O17 C16 1.275 . S
O18 Tb0 2.513 . S
O18 C16 1.246 . S
C19 O3 1.245 . S
C19 O4 1.259 . S
Tb20 O23 2.453 . S
Tb20 O24 2.596 . S
Tb20 O25 2.374 . S
Tb20 O33 2.343 . S
Tb20 O35 2.353 . S
Tb20 O37 2.427 . S
Tb20 O38 2.513 . S
C21 O25 1.251 . S
C21 O27 1.263 . S
Tb22 O24 2.343 . S
Tb22 O27 2.353 . S
Tb22 O30 2.427 . S
Tb22 O31 2.513 . S
Tb22 O32 2.453 . S
Tb22 O33 2.596 . S
Tb22 O34 2.374 . S
O23 Tb20 2.453 . S
O23 C39 1.245 . S
O24 Tb20 2.596 . S
O24 Tb22 2.343 . S
O24 C39 1.259 . S
O25 Tb20 2.374 . S
O25 C21 1.251 . S
C26 O30 1.275 . S
C26 O31 1.246 . S
O27 C21 1.263 . S
O27 Tb22 2.353 . S
C28 O32 1.245 . S
C28 O33 1.259 . S
C29 O34 1.250 . S
C29 O35 1.263 . S
O30 Tb22 2.427 . S
O30 C26 1.275 . S
O31 Tb22 2.513 . S
O31 C26 1.246 . S
O32 Tb22 2.453 . S
O32 C28 1.245 . S
O33 Tb20 2.343 . S
O33 Tb22 2.596 . S
O33 C28 1.259 . S
O34 Tb22 2.374 . S
O34 C29 1.250 . S
O35 Tb20 2.353 . S
O35 C29 1.263 . S
C36 O37 1.275 . S
C36 O38 1.246 . S
O37 Tb20 2.427 . S
O37 C36 1.275 . S
O38 Tb20 2.513 . S
O38 C36 1.246 . S
C39 O23 1.245 . S
C39 O24 1.259 . S
Tb40 O43 2.453 . S
Tb40 O44 2.596 . S
Tb40 O45 2.374 . S
Tb40 O53 2.343 . S
Tb40 O55 2.353 . S
Tb40 O57 2.427 . S
Tb40 O58 2.513 . S
C41 O45 1.251 . S
C41 O47 1.263 . S
Tb42 O44 2.343 . S
Tb42 O47 2.353 . S
Tb42 O50 2.427 . S
Tb42 O51 2.513 . S
Tb42 O52 2.453 . S
Tb42 O53 2.596 . S
Tb42 O54 2.374 . S
O43 Tb40 2.453 . S
O43 C59 1.245 . S
O44 Tb40 2.596 . S
O44 Tb42 2.343 . S
O44 C59 1.259 . S
O45 Tb40 2.374 . S
O45 C41 1.251 . S
C46 O50 1.275 . S
C46 O51 1.246 . S
O47 C41 1.263 . S
O47 Tb42 2.353 . S
C48 O52 1.245 . S
C48 O53 1.259 . S
C49 O54 1.250 . S
C49 O55 1.263 . S
O50 Tb42 2.427 . S
O50 C46 1.275 . S
O51 Tb42 2.513 . S
O51 C46 1.246 . S
O52 Tb42 2.453 . S
O52 C48 1.245 . S
O53 Tb40 2.343 . S
O53 Tb42 2.596 . S
O53 C48 1.259 . S
O54 Tb42 2.374 . S
O54 C49 1.250 . S
O55 Tb40 2.353 . S
O55 C49 1.263 . S
C56 O57 1.275 . S
C56 O58 1.246 . S
O57 Tb40 2.427 . S
O57 C56 1.275 . S
O58 Tb40 2.513 . S
O58 C56 1.246 . S
C59 O43 1.245 . S
C59 O44 1.259 . S
Tb60 O63 2.453 . S
Tb60 O64 2.596 . S
Tb60 O65 2.374 . S
Tb60 O73 2.343 . S
Tb60 O75 2.353 . S
Tb60 O77 2.427 . S
Tb60 O78 2.513 . S
C61 O65 1.251 . S
C61 O67 1.263 . S
Tb62 O64 2.343 . S
Tb62 O67 2.353 . S
Tb62 O70 2.427 . S
Tb62 O71 2.513 . S
Tb62 O72 2.453 . S
Tb62 O73 2.596 . S
Tb62 O74 2.374 . S
O63 Tb60 2.453 . S
O63 C79 1.245 . S
O64 Tb60 2.596 . S
O64 Tb62 2.343 . S
O64 C79 1.259 . S
O65 Tb60 2.374 . S
O65 C61 1.251 . S
C66 O70 1.275 . S
C66 O71 1.246 . S
O67 C61 1.263 . S
O67 Tb62 2.353 . S
C68 O72 1.245 . S
C68 O73 1.259 . S
C69 O74 1.250 . S
C69 O75 1.263 . S
O70 Tb62 2.427 . S
O70 C66 1.275 . S
O71 Tb62 2.513 . S
O71 C66 1.246 . S
O72 Tb62 2.453 . S
O72 C68 1.245 . S
O73 Tb60 2.343 . S
O73 Tb62 2.596 . S
O73 C68 1.259 . S
O74 Tb62 2.374 . S
O74 C69 1.250 . S
O75 Tb60 2.353 . S
O75 C69 1.263 . S
C76 O77 1.275 . S
C76 O78 1.246 . S
O77 Tb60 2.427 . S
O77 C76 1.275 . S
O78 Tb60 2.513 . S
O78 C76 1.246 . S
C79 O63 1.245 . S
C79 O64 1.259 . S
Tb80 O83 2.453 . S
Tb80 O84 2.596 . S
Tb80 O85 2.374 . S
Tb80 O93 2.343 . S
Tb80 O95 2.353 . S
Tb80 O97 2.427 . S
Tb80 O98 2.513 . S
C81 O85 1.251 . S
C81 O87 1.263 . S
Tb82 O84 2.343 . S
Tb82 O87 2.353 . S
Tb82 O90 2.427 . S
Tb82 O91 2.513 . S
Tb82 O92 2.453 . S
Tb82 O93 2.596 . S
Tb82 O94 2.374 . S
O83 Tb80 2.453 . S
O83 C99 1.245 . S
O84 Tb80 2.596 . S
O84 Tb82 2.343 . S
O84 C99 1.259 . S
O85 Tb80 2.374 . S
O85 C81 1.251 . S
C86 O90 1.275 . S
C86 O91 1.246 . S
O87 C81 1.263 . S
O87 Tb82 2.353 . S
C88 O92 1.245 . S
C88 O93 1.259 . S
C89 O94 1.250 . S
C89 O95 1.263 . S
O90 Tb82 2.427 . S
O90 C86 1.275 . S
O91 Tb82 2.513 . S
O91 C86 1.246 . S
O92 Tb82 2.453 . S
O92 C88 1.245 . S
O93 Tb80 2.343 . S
O93 Tb82 2.596 . S
O93 C88 1.259 . S
O94 Tb82 2.374 . S
O94 C89 1.250 . S
O95 Tb80 2.353 . S
O95 C89 1.263 . S
C96 O97 1.275 . S
C96 O98 1.246 . S
O97 Tb80 2.427 . S
O97 C96 1.275 . S
O98 Tb80 2.513 . S
O98 C96 1.246 . S
C99 O83 1.245 . S
C99 O84 1.259 . S
Tb100 O103 2.453 . S
Tb100 O104 2.596 . S
Tb100 O105 2.374 . S
Tb100 O113 2.343 . S
Tb100 O115 2.353 . S
Tb100 O117 2.427 . S
Tb100 O118 2.513 . S
C101 O105 1.251 . S
C101 O107 1.263 . S
Tb102 O104 2.343 . S
Tb102 O107 2.353 . S
Tb102 O110 2.427 . S
Tb102 O111 2.513 . S
Tb102 O112 2.453 . S
Tb102 O113 2.596 . S
Tb102 O114 2.374 . S
O103 Tb100 2.453 . S
O103 C119 1.245 . S
O104 Tb100 2.596 . S
O104 Tb102 2.343 . S
O104 C119 1.259 . S
O105 Tb100 2.374 . S
O105 C101 1.251 . S
C106 O110 1.275 . S
C106 O111 1.246 . S
O107 C101 1.263 . S
O107 Tb102 2.353 . S
C108 O112 1.245 . S
C108 O113 1.259 . S
C109 O114 1.250 . S
C109 O115 1.263 . S
O110 Tb102 2.427 . S
O110 C106 1.275 . S
O111 Tb102 2.513 . S
O111 C106 1.246 . S
O112 Tb102 2.453 . S
O112 C108 1.245 . S
O113 Tb100 2.343 . S
O113 Tb102 2.596 . S
O113 C108 1.259 . S
O114 Tb102 2.374 . S
O114 C109 1.250 . S
O115 Tb100 2.353 . S
O115 C109 1.263 . S
C116 O117 1.275 . S
C116 O118 1.246 . S
O117 Tb100 2.427 . S
O117 C116 1.275 . S
O118 Tb100 2.513 . S
O118 C116 1.246 . S
C119 O103 1.245 . S
C119 O104 1.259 . S
Tb120 O123 2.453 . S
Tb120 O124 2.596 . S
Tb120 O125 2.374 . S
Tb120 O133 2.343 . S
Tb120 O135 2.353 . S
Tb120 O137 2.427 . S
Tb120 O138 2.513 . S
C121 O125 1.251 . S
C121 O127 1.263 . S
Tb122 O124 2.343 . S
Tb122 O127 2.353 . S
Tb122 O130 2.427 . S
Tb122 O131 2.513 . S
Tb122 O132 2.453 . S
Tb122 O133 2.596 . S
Tb122 O134 2.374 . S
O123 Tb120 2.453 . S
O123 C139 1.245 . S
O124 Tb120 2.596 . S
O124 Tb122 2.343 . S
O124 C139 1.259 . S
O125 Tb120 2.374 . S
O125 C121 1.251 . S
C126 O130 1.275 . S
C126 O131 1.246 . S
O127 C121 1.263 . S
O127 Tb122 2.353 . S
C128 O132 1.245 . S
C128 O133 1.259 . S
C129 O134 1.250 . S
C129 O135 1.263 . S
O130 Tb122 2.427 . S
O130 C126 1.275 . S
O131 Tb122 2.513 . S
O131 C126 1.246 . S
O132 Tb122 2.453 . S
O132 C128 1.245 . S
O133 Tb120 2.343 . S
O133 Tb122 2.596 . S
O133 C128 1.259 . S
O134 Tb122 2.374 . S
O134 C129 1.250 . S
O135 Tb120 2.353 . S
O135 C129 1.263 . S
C136 O137 1.275 . S
C136 O138 1.246 . S
O137 Tb120 2.427 . S
O137 C136 1.275 . S
O138 Tb120 2.513 . S
O138 C136 1.246 . S
C139 O123 1.245 . S
C139 O124 1.259 . S
Tb140 O143 2.453 . S
Tb140 O144 2.596 . S
Tb140 O145 2.374 . S
Tb140 O153 2.343 . S
Tb140 O155 2.353 . S
Tb140 O157 2.427 . S
Tb140 O158 2.513 . S
C141 O145 1.251 . S
C141 O147 1.263 . S
Tb142 O144 2.343 . S
Tb142 O147 2.353 . S
Tb142 O150 2.427 . S
Tb142 O151 2.513 . S
Tb142 O152 2.453 . S
Tb142 O153 2.596 . S
Tb142 O154 2.374 . S
O143 Tb140 2.453 . S
O143 C159 1.245 . S
O144 Tb140 2.596 . S
O144 Tb142 2.343 . S
O144 C159 1.259 . S
O145 Tb140 2.374 . S
O145 C141 1.251 . S
C146 O150 1.275 . S
C146 O151 1.246 . S
O147 C141 1.263 . S
O147 Tb142 2.353 . S
C148 O152 1.245 . S
C148 O153 1.259 . S
C149 O154 1.250 . S
C149 O155 1.263 . S
O150 Tb142 2.427 . S
O150 C146 1.275 . S
O151 Tb142 2.513 . S
O151 C146 1.246 . S
O152 Tb142 2.453 . S
O152 C148 1.245 . S
O153 Tb140 2.343 . S
O153 Tb142 2.596 . S
O153 C148 1.259 . S
O154 Tb142 2.374 . S
O154 C149 1.250 . S
O155 Tb140 2.353 . S
O155 C149 1.263 . S
C156 O157 1.275 . S
C156 O158 1.246 . S
O157 Tb140 2.427 . S
O157 C156 1.275 . S
O158 Tb140 2.513 . S
O158 C156 1.246 . S
C159 O143 1.245 . S
C159 O144 1.259 . S
Tb160 O163 2.453 . S
Tb160 O164 2.596 . S
Tb160 O165 2.374 . S
Tb160 O173 2.343 . S
Tb160 O175 2.353 . S
Tb160 O177 2.427 . S
Tb160 O178 2.513 . S
C161 O165 1.251 . S
C161 O167 1.263 . S
Tb162 O164 2.343 . S
Tb162 O167 2.353 . S
Tb162 O170 2.427 . S
Tb162 O171 2.513 . S
Tb162 O172 2.453 . S
Tb162 O173 2.596 . S
Tb162 O174 2.374 . S
O163 Tb160 2.453 . S
O163 C179 1.245 . S
O164 Tb160 2.596 . S
O164 Tb162 2.343 . S
O164 C179 1.259 . S
O165 Tb160 2.374 . S
O165 C161 1.251 . S
C166 O170 1.275 . S
C166 O171 1.246 . S
O167 C161 1.263 . S
O167 Tb162 2.353 . S
C168 O172 1.245 . S
C168 O173 1.259 . S
C169 O174 1.250 . S
C169 O175 1.263 . S
O170 Tb162 2.427 . S
O170 C166 1.275 . S
O171 Tb162 2.513 . S
O171 C166 1.246 . S
O172 Tb162 2.453 . S
O172 C168 1.245 . S
O173 Tb160 2.343 . S
O173 Tb162 2.596 . S
O173 C168 1.259 . S
O174 Tb162 2.374 . S
O174 C169 1.250 . S
O175 Tb160 2.353 . S
O175 C169 1.263 . S
C176 O177 1.275 . S
C176 O178 1.246 . S
O177 Tb160 2.427 . S
O177 C176 1.275 . S
O178 Tb160 2.513 . S
O178 C176 1.246 . S
C179 O163 1.245 . S
C179 O164 1.259 . S
Tb180 O183 2.453 . S
Tb180 O184 2.596 . S
Tb180 O185 2.374 . S
Tb180 O193 2.343 . S
Tb180 O195 2.353 . S
Tb180 O197 2.427 . S
Tb180 O198 2.513 . S
C181 O185 1.251 . S
C181 O187 1.263 . S
Tb182 O184 2.343 . S
Tb182 O187 2.353 . S
Tb182 O190 2.427 . S
Tb182 O191 2.513 . S
Tb182 O192 2.453 . S
Tb182 O193 2.596 . S
Tb182 O194 2.374 . S
O183 Tb180 2.453 . S
O183 C199 1.245 . S
O184 Tb180 2.596 . S
O184 Tb182 2.343 . S
O184 C199 1.259 . S
O185 Tb180 2.374 . S
O185 C181 1.251 . S
C186 O190 1.275 . S
C186 O191 1.246 . S
O187 C181 1.263 . S
O187 Tb182 2.353 . S
C188 O192 1.245 . S
C188 O193 1.259 . S
C189 O194 1.250 . S
C189 O195 1.263 . S
O190 Tb182 2.427 . S
O190 C186 1.275 . S
O191 Tb182 2.513 . S
O191 C186 1.246 . S
O192 Tb182 2.453 . S
O192 C188 1.245 . S
O193 Tb180 2.343 . S
O193 Tb182 2.596 . S
O193 C188 1.259 . S
O194 Tb182 2.374 . S
O194 C189 1.250 . S
O195 Tb180 2.353 . S
O195 C189 1.263 . S
C196 O197 1.275 . S
C196 O198 1.246 . S
O197 Tb180 2.427 . S
O197 C196 1.275 . S
O198 Tb180 2.513 . S
O198 C196 1.246 . S
C199 O183 1.245 . S
C199 O184 1.259 . S
Tb200 O203 2.453 . S
Tb200 O204 2.596 . S
Tb200 O205 2.374 . S
Tb200 O213 2.343 . S
Tb200 O215 2.353 . S
Tb200 O217 2.427 . S
Tb200 O218 2.513 . S
C201 O205 1.251 . S
C201 O207 1.263 . S
Tb202 O204 2.343 . S
Tb202 O207 2.353 . S
Tb202 O210 2.427 . S
Tb202 O211 2.513 . S
Tb202 O212 2.453 . S
Tb202 O213 2.596 . S
Tb202 O214 2.374 . S
O203 Tb200 2.453 . S
O203 C219 1.245 . S
O204 Tb200 2.596 . S
O204 Tb202 2.343 . S
O204 C219 1.259 . S
O205 Tb200 2.374 . S
O205 C201 1.251 . S
C206 O210 1.275 . S
C206 O211 1.246 . S
O207 C201 1.263 . S
O207 Tb202 2.353 . S
C208 O212 1.245 . S
C208 O213 1.259 . S
C209 O214 1.250 . S
C209 O215 1.263 . S
O210 Tb202 2.427 . S
O210 C206 1.275 . S
O211 Tb202 2.513 . S
O211 C206 1.246 . S
O212 Tb202 2.453 . S
O212 C208 1.245 . S
O213 Tb200 2.343 . S
O213 Tb202 2.596 . S
O213 C208 1.259 . S
O214 Tb202 2.374 . S
O214 C209 1.250 . S
O215 Tb200 2.353 . S
O215 C209 1.263 . S
C216 O217 1.275 . S
C216 O218 1.246 . S
O217 Tb200 2.427 . S
O217 C216 1.275 . S
O218 Tb200 2.513 . S
O218 C216 1.246 . S
C219 O203 1.245 . S
C219 O204 1.259 . S
Tb220 O223 2.453 . S
Tb220 O224 2.596 . S
Tb220 O225 2.374 . S
Tb220 O233 2.343 . S
Tb220 O235 2.353 . S
Tb220 O237 2.427 . S
Tb220 O238 2.513 . S
C221 O225 1.251 . S
C221 O227 1.263 . S
Tb222 O224 2.343 . S
Tb222 O227 2.353 . S
Tb222 O230 2.427 . S
Tb222 O231 2.513 . S
Tb222 O232 2.453 . S
Tb222 O233 2.596 . S
Tb222 O234 2.374 . S
O223 Tb220 2.453 . S
O223 C239 1.245 . S
O224 Tb220 2.596 . S
O224 Tb222 2.343 . S
O224 C239 1.259 . S
O225 Tb220 2.374 . S
O225 C221 1.251 . S
C226 O230 1.275 . S
C226 O231 1.246 . S
O227 C221 1.263 . S
O227 Tb222 2.353 . S
C228 O232 1.245 . S
C228 O233 1.259 . S
C229 O234 1.250 . S
C229 O235 1.263 . S
O230 Tb222 2.427 . S
O230 C226 1.275 . S
O231 Tb222 2.513 . S
O231 C226 1.246 . S
O232 Tb222 2.453 . S
O232 C228 1.245 . S
O233 Tb220 2.343 . S
O233 Tb222 2.596 . S
O233 C228 1.259 . S
O234 Tb222 2.374 . S
O234 C229 1.250 . S
O235 Tb220 2.353 . S
O235 C229 1.263 . S
C236 O237 1.275 . S
C236 O238 1.246 . S
O237 Tb220 2.427 . S
O237 C236 1.275 . S
O238 Tb220 2.513 . S
O238 C236 1.246 . S
C239 O223 1.245 . S
C239 O224 1.259 . S
H240 C246 0.930 . S
H241 C249 0.930 . S
H242 C250 0.927 . S
H243 C251 0.930 . S
H244 C254 0.930 . S
H245 C255 0.930 . S
C246 H240 0.930 . S
C246 C247 1.355 1_455 S
C246 C248 1.415 . S
C247 C246 1.355 1_655 S
C247 C249 1.419 . S
C248 C246 1.415 . S
C248 C253 1.425 . S
C248 C255 1.409 . S
C249 H241 0.930 . S
C249 C247 1.419 . S
C249 C250 1.381 . S
C250 H242 0.927 . S
C250 C249 1.381 . S
C250 C253 1.394 1_655 S
C251 H243 0.930 . S
C251 C252 1.355 . S
C251 C253 1.415 . S
C252 C251 1.355 . S
C252 C254 1.419 . S
C253 C248 1.425 . S
C253 C250 1.394 1_455 S
C253 C251 1.415 . S
C254 H244 0.930 . S
C254 C252 1.419 . S
C254 C255 1.362 . S
C255 H245 0.930 . S
C255 C248 1.409 . S
C255 C254 1.362 . S
H256 C262 0.930 . S
H257 C265 0.930 . S
H258 C266 0.930 . S
H259 C267 0.930 . S
H260 C270 0.930 . S
H261 C271 0.930 . S
C262 H256 0.930 . S
C262 C263 1.355 1_565 S
C262 C264 1.415 . S
C263 C262 1.355 1_545 S
C263 C265 1.419 . S
C264 C262 1.415 . S
C264 C269 1.425 . S
C264 C271 1.409 . S
C265 H257 0.930 . S
C265 C263 1.419 . S
C265 C266 1.362 . S
C266 H258 0.930 . S
C266 C265 1.362 . S
C266 C269 1.409 1_545 S
C267 H259 0.930 . S
C267 C268 1.355 . S
C267 C269 1.415 . S
C268 C267 1.355 . S
C268 C270 1.419 . S
C269 C264 1.425 . S
C269 C266 1.409 1_565 S
C269 C267 1.415 . S
C270 H260 0.930 . S
C270 C268 1.419 . S
C270 C271 1.362 . S
C271 H261 0.930 . S
C271 C264 1.409 . S
C271 C270 1.362 . S
H272 C278 0.930 . S
H273 C281 0.930 . S
H274 C282 0.930 . S
H275 C283 0.930 . S
H276 C286 0.930 . S
H277 C287 0.930 . S
C278 H272 0.930 . S
C278 C279 1.355 . S
C278 C280 1.415 . S
C279 C278 1.355 . S
C279 C281 1.419 . S
C280 C278 1.415 . S
C280 C285 1.425 . S
C280 C287 1.409 . S
C281 H273 0.930 . S
C281 C279 1.419 . S
C281 C282 1.362 . S
C282 H274 0.930 . S
C282 C281 1.362 . S
C282 C285 1.409 . S
C283 H275 0.930 . S
C283 C284 1.355 . S
C283 C285 1.415 . S
C284 C283 1.355 . S
C284 C286 1.419 . S
C285 C280 1.425 . S
C285 C282 1.409 . S
C285 C283 1.415 . S
C286 H276 0.930 . S
C286 C284 1.419 . S
C286 C287 1.362 . S
C287 H277 0.930 . S
C287 C280 1.409 . S
C287 C286 1.362 . S
H288 C294 0.930 . S
H289 C297 0.930 . S
H290 C298 0.930 . S
H291 C299 0.930 1_655 S
H292 C302 0.930 1_655 S
H293 C303 0.930 . S
C294 H288 0.930 . S
C294 C295 1.355 . S
C294 C296 1.415 . S
C295 C294 1.355 . S
C295 C297 1.419 . S
C296 C294 1.415 . S
C296 C301 1.425 . S
C296 C303 1.409 . S
C297 H289 0.930 . S
C297 C295 1.419 . S
C297 C298 1.362 . S
C298 H290 0.930 . S
C298 C297 1.362 . S
C298 C301 1.409 . S
C299 H291 0.930 1_455 S
C299 C300 1.355 1_455 S
C299 C301 1.415 . S
C300 C299 1.355 1_655 S
C300 C302 1.419 1_655 S
C301 C296 1.425 . S
C301 C298 1.409 . S
C301 C299 1.415 . S
C302 H292 0.930 1_455 S
C302 C300 1.419 1_455 S
C302 C303 1.362 . S
C303 H293 0.930 . S
C303 C296 1.409 . S
C303 C302 1.362 . S
H304 C310 0.930 . S
H305 C313 0.930 . S
H306 C314 0.930 . S
H307 C315 0.930 . S
H308 C318 0.930 1_655 S
H309 C319 0.930 . S
C310 H304 0.930 . S
C310 C311 1.355 . S
C310 C312 1.415 1_545 S
C311 C310 1.355 . S
C311 C313 1.419 1_545 S
C312 C310 1.415 1_565 S
C312 C317 1.425 . S
C312 C319 1.409 . S
C313 H305 0.930 . S
C313 C311 1.419 1_565 S
C313 C314 1.362 . S
C314 H306 0.930 . S
C314 C313 1.362 . S
C314 C317 1.409 . S
C315 H307 0.930 . S
C315 C316 1.355 . S
C315 C317 1.415 . S
C316 C315 1.355 . S
C316 C318 1.419 . S
C317 C312 1.425 . S
C317 C314 1.409 . S
C317 C315 1.415 . S
C318 H308 0.930 1_455 S
C318 C316 1.419 . S
C318 C319 1.362 . S
C319 H309 0.930 . S
C319 C312 1.409 . S
C319 C318 1.362 . S
H320 C326 0.930 . S
H321 C329 0.930 . S
H322 C330 0.930 . S
H323 C331 0.930 . S
H324 C334 0.930 . S
H325 C335 0.930 . S
C326 H320 0.930 . S
C326 C327 1.355 . S
C326 C328 1.415 . S
C327 C326 1.355 . S
C327 C329 1.419 . S
C328 C326 1.415 . S
C328 C333 1.425 . S
C328 C335 1.409 . S
C329 H321 0.930 . S
C329 C327 1.419 . S
C329 C330 1.362 . S
C330 H322 0.930 . S
C330 C329 1.362 . S
C330 C333 1.409 . S
C331 H323 0.930 . S
C331 C332 1.355 . S
C331 C333 1.415 . S
C332 C331 1.355 . S
C332 C334 1.419 . S
C333 C328 1.425 . S
C333 C330 1.409 . S
C333 C331 1.415 . S
C334 H324 0.930 . S
C334 C332 1.419 . S
C334 C335 1.362 . S
C335 H325 0.930 . S
C335 C328 1.409 . S
C335 C334 1.362 . S
H336 C342 0.930 1_565 S
H337 C345 0.930 . S
H338 C346 0.930 . S
H339 C347 0.930 . S
H340 C350 0.930 . S
H341 C351 0.930 . S
C342 H336 0.930 1_545 S
C342 C343 1.355 1_545 S
C342 C344 1.415 . S
C343 C342 1.355 1_565 S
C343 C345 1.419 . S
C344 C342 1.415 . S
C344 C349 1.425 . S
C344 C351 1.409 . S
C345 H337 0.930 . S
C345 C343 1.419 . S
C345 C346 1.362 1_565 S
C346 H338 0.930 . S
C346 C345 1.362 1_545 S
C346 C349 1.409 . S
C347 H339 0.930 . S
C347 C348 1.355 . S
C347 C349 1.415 . S
C348 C347 1.355 . S
C348 C350 1.419 . S
C349 C344 1.425 . S
C349 C346 1.409 . S
C349 C347 1.415 . S
C350 H340 0.930 . S
C350 C348 1.419 . S
C350 C351 1.362 . S
C351 H341 0.930 . S
C351 C344 1.409 . S
C351 C350 1.362 . S
H352 C358 0.930 . S
H353 C361 0.930 1_455 S
H354 C362 0.930 . S
H355 C363 0.930 . S
H356 C366 0.930 . S
H357 C367 0.930 . S
C358 H352 0.930 . S
C358 C359 1.355 . S
C358 C360 1.415 . S
C359 C358 1.355 . S
C359 C361 1.419 . S
C360 C358 1.415 . S
C360 C365 1.425 . S
C360 C367 1.409 . S
C361 H353 0.930 1_655 S
C361 C359 1.419 . S
C361 C362 1.362 . S
C362 H354 0.930 . S
C362 C361 1.362 . S
C362 C365 1.409 . S
C363 H355 0.930 . S
C363 C364 1.355 . S
C363 C365 1.415 . S
C364 C363 1.355 . S
C364 C366 1.419 . S
C365 C360 1.425 . S
C365 C362 1.409 . S
C365 C363 1.415 . S
C366 H356 0.930 . S
C366 C364 1.419 . S
C366 C367 1.362 . S
C367 H357 0.930 . S
C367 C360 1.409 . S
C367 C366 1.362 . S
H368 C374 0.930 . S
H369 C377 0.930 1_565 S
H370 C378 0.930 . S
H371 C379 0.930 . S
H372 C382 0.930 1_455 S
H373 C383 0.930 . S
C374 H368 0.930 . S
C374 C375 1.355 . S
C374 C376 1.415 . S
C375 C374 1.355 . S
C375 C377 1.419 . S
C376 C374 1.415 . S
C376 C381 1.425 . S
C376 C383 1.409 . S
C377 H369 0.930 1_545 S
C377 C375 1.419 . S
C377 C378 1.362 . S
C378 H370 0.930 . S
C378 C377 1.362 . S
C378 C381 1.409 . S
C379 H371 0.930 . S
C379 C380 1.355 . S
C379 C381 1.414 1_455 S
C380 C379 1.355 . S
C380 C382 1.419 1_455 S
C381 C376 1.425 . S
C381 C378 1.409 . S
C381 C379 1.414 1_655 S
C382 H372 0.930 1_655 S
C382 C380 1.419 1_655 S
C382 C383 1.362 . S
C383 H373 0.930 . S
C383 C376 1.409 . S
C383 C382 1.362 . S
H384 C390 0.930 . S
H385 C393 0.930 . S
H386 C394 0.930 . S
H387 C395 0.930 . S
H388 C398 0.930 . S
H389 C399 0.930 . S
C390 H384 0.930 . S
C390 C391 1.355 . S
C390 C392 1.415 . S
C391 C390 1.355 . S
C391 C393 1.419 . S
C392 C390 1.415 . S
C392 C397 1.425 . S
C392 C399 1.409 . S
C393 H385 0.930 . S
C393 C391 1.419 . S
C393 C394 1.362 . S
C394 H386 0.930 . S
C394 C393 1.362 . S
C394 C397 1.409 . S
C395 H387 0.930 . S
C395 C396 1.355 . S
C395 C397 1.415 1_565 S
C396 C395 1.355 . S
C396 C398 1.419 1_565 S
C397 C392 1.425 . S
C397 C394 1.409 . S
C397 C395 1.415 1_545 S
C398 H388 0.930 . S
C398 C396 1.419 1_545 S
C398 C399 1.362 . S
C399 H389 0.930 . S
C399 C392 1.409 . S
C399 C398 1.362 . S
H400 C406 0.930 . S
H401 C409 0.930 1_455 S
H402 C410 0.930 . S
H403 C411 0.930 . S
H404 C414 0.930 . S
H405 C415 0.930 . S
C406 H400 0.930 . S
C406 C407 1.355 . S
C406 C408 1.415 . S
C407 C406 1.355 . S
C407 C409 1.419 . S
C408 C406 1.415 . S
C408 C413 1.425 . S
C408 C415 1.409 . S
C409 H401 0.930 1_655 S
C409 C407 1.419 . S
C409 C410 1.362 . S
C410 H402 0.930 . S
C410 C409 1.362 . S
C410 C413 1.409 . S
C411 H403 0.930 . S
C411 C412 1.355 . S
C411 C413 1.415 . S
C412 C411 1.355 . S
C412 C414 1.419 . S
C413 C408 1.425 . S
C413 C410 1.409 . S
C413 C411 1.415 . S
C414 H404 0.930 . S
C414 C412 1.419 . S
C414 C415 1.362 . S
C415 H405 0.930 . S
C415 C408 1.409 . S
C415 C414 1.362 . S
H416 C422 0.930 . S
H417 C425 0.930 . S
H418 C426 0.930 1_455 S
H419 C427 0.930 . S
H420 C430 0.930 . S
H421 C431 0.930 . S
C422 H416 0.930 . S
C422 C423 1.355 1_655 S
C422 C424 1.415 . S
C423 C422 1.355 1_455 S
C423 C425 1.419 . S
C424 C422 1.415 . S
C424 C429 1.425 . S
C424 C431 1.409 . S
C425 H417 0.930 . S
C425 C423 1.419 . S
C425 C426 1.362 1_455 S
C426 H418 0.930 1_655 S
C426 C425 1.362 1_655 S
C426 C429 1.409 . S
C427 H419 0.930 . S
C427 C428 1.355 . S
C427 C429 1.415 . S
C428 C427 1.355 . S
C428 C430 1.419 . S
C429 C424 1.425 . S
C429 C426 1.409 . S
C429 C427 1.415 . S
C430 H420 0.930 . S
C430 C428 1.419 . S
C430 C431 1.362 . S
C431 H421 0.930 . S
C431 C424 1.409 . S
C431 C430 1.362 . S
H432 C438 0.930 . S
H433 C441 0.930 . S
H434 C442 0.930 . S
H435 C443 0.930 . S
H436 C446 0.930 . S
H437 C447 0.930 . S
C438 H432 0.930 . S
C438 C439 1.355 . S
C438 C440 1.415 . S
C439 C438 1.355 . S
C439 C441 1.419 . S
C440 C438 1.415 . S
C440 C445 1.425 . S
C440 C447 1.409 . S
C441 H433 0.930 . S
C441 C439 1.419 . S
C441 C442 1.362 . S
C442 H434 0.930 . S
C442 C441 1.362 . S
C442 C445 1.409 . S
C443 H435 0.930 . S
C443 C444 1.355 . S
C443 C445 1.415 . S
C444 C443 1.355 . S
C444 C446 1.419 . S
C445 C440 1.425 . S
C445 C442 1.409 . S
C445 C443 1.415 . S
C446 H436 0.930 . S
C446 C444 1.419 . S
C446 C447 1.362 . S
C447 H437 0.930 . S
C447 C440 1.409 . S
C447 C446 1.362 . S
H448 C454 0.930 . S
H449 C457 0.930 . S
H450 C458 0.930 . S
H451 C459 0.930 . S
H452 C462 0.930 . S
H453 C463 0.930 . S
C454 H448 0.930 . S
C454 C455 1.355 . S
C454 C456 1.415 . S
C455 C454 1.355 . S
C455 C457 1.419 . S
C456 C454 1.415 . S
C456 C461 1.425 . S
C456 C463 1.409 . S
C457 H449 0.930 . S
C457 C455 1.419 . S
C457 C458 1.362 . S
C458 H450 0.930 . S
C458 C457 1.362 . S
C458 C461 1.409 . S
C459 H451 0.930 . S
C459 C460 1.355 . S
C459 C461 1.415 . S
C460 C459 1.355 . S
C460 C462 1.419 . S
C461 C456 1.425 . S
C461 C458 1.409 . S
C461 C459 1.415 . S
C462 H452 0.930 . S
C462 C460 1.419 . S
C462 C463 1.362 . S
C463 H453 0.930 . S
C463 C456 1.409 . S
C463 C462 1.362 . S
H464 C470 0.930 . S
H465 C473 0.930 . S
H466 C474 0.930 . S
H467 C475 0.930 . S
H468 C478 0.930 . S
H469 C479 0.930 . S
C470 H464 0.930 . S
C470 C471 1.355 . S
C470 C472 1.415 . S
C471 C470 1.355 . S
C471 C473 1.419 . S
C472 C470 1.415 . S
C472 C477 1.425 . S
C472 C479 1.409 . S
C473 H465 0.930 . S
C473 C471 1.419 . S
C473 C474 1.362 . S
C474 H466 0.930 . S
C474 C473 1.362 . S
C474 C477 1.409 . S
C475 H467 0.930 . S
C475 C476 1.355 . S
C475 C477 1.415 . S
C476 C475 1.355 . S
C476 C478 1.419 . S
C477 C472 1.425 . S
C477 C474 1.409 . S
C477 C475 1.415 . S
C478 H468 0.930 . S
C478 C476 1.419 . S
C478 C479 1.362 . S
C479 H469 0.930 . S
C479 C472 1.409 . S
C479 C478 1.362 . S
H480 C486 0.930 . S
H481 C489 0.930 . S
H482 C490 0.930 . S
H483 C491 0.930 . S
H484 C494 0.930 . S
H485 C495 0.930 . S
C486 H480 0.930 . S
C486 C487 1.355 . S
C486 C488 1.415 . S
C487 C486 1.355 . S
C487 C489 1.419 . S
C488 C486 1.415 . S
C488 C493 1.425 . S
C488 C495 1.409 . S
C489 H481 0.930 . S
C489 C487 1.419 . S
C489 C490 1.362 . S
C490 H482 0.930 . S
C490 C489 1.362 . S
C490 C493 1.409 . S
C491 H483 0.930 . S
C491 C492 1.355 . S
C491 C493 1.415 . S
C492 C491 1.355 . S
C492 C494 1.419 . S
C493 C488 1.425 . S
C493 C490 1.409 . S
C493 C491 1.415 . S
C494 H484 0.930 . S
C494 C492 1.419 . S
C494 C495 1.362 . S
C495 H485 0.930 . S
C495 C488 1.409 . S
C495 C494 1.362 . S
H496 C502 0.930 . S
H497 C505 0.930 . S
H498 C506 0.930 . S
H499 C507 0.930 . S
H500 C510 0.930 . S
H501 C511 0.930 . S
C502 H496 0.930 . S
C502 C503 1.355 . S
C502 C504 1.415 . S
C503 C502 1.355 . S
C503 C505 1.419 . S
C504 C502 1.415 . S
C504 C509 1.425 . S
C504 C511 1.409 . S
C505 H497 0.930 . S
C505 C503 1.419 . S
C505 C506 1.362 . S
C506 H498 0.930 . S
C506 C505 1.362 . S
C506 C509 1.409 . S
C507 H499 0.930 . S
C507 C508 1.355 . S
C507 C509 1.415 . S
C508 C507 1.355 . S
C508 C510 1.419 . S
C509 C504 1.425 . S
C509 C506 1.409 . S
C509 C507 1.415 . S
C510 H500 0.930 . S
C510 C508 1.419 . S
C510 C511 1.362 . S
C511 H501 0.930 . S
C511 C504 1.409 . S
C511 C510 1.362 . S
H512 C518 0.930 . S
H513 C521 0.930 . S
H514 C522 0.930 . S
H515 C523 0.930 . S
H516 C526 0.930 . S
H517 C527 0.930 . S
C518 H512 0.930 . S
C518 C519 1.355 . S
C518 C520 1.415 . S
C519 C518 1.355 . S
C519 C521 1.419 . S
C520 C518 1.415 . S
C520 C525 1.425 . S
C520 C527 1.409 . S
C521 H513 0.930 . S
C521 C519 1.419 . S
C521 C522 1.362 . S
C522 H514 0.930 . S
C522 C521 1.362 . S
C522 C525 1.409 . S
C523 H515 0.930 . S
C523 C524 1.355 . S
C523 C525 1.415 . S
C524 C523 1.355 . S
C524 C526 1.419 . S
C525 C520 1.425 . S
C525 C522 1.409 . S
C525 C523 1.415 . S
C526 H516 0.930 . S
C526 C524 1.419 . S
C526 C527 1.362 . S
C527 H517 0.930 . S
C527 C520 1.409 . S
C527 C526 1.362 . S
H528 C534 0.930 . S
H529 C537 0.930 . S
H530 C538 0.930 . S
H531 C539 0.930 . S
H532 C542 0.930 . S
H533 C543 0.930 . S
C534 H528 0.930 . S
C534 C535 1.355 . S
C534 C536 1.415 1_565 S
C535 C534 1.355 . S
C535 C537 1.419 . S
C536 C534 1.415 1_545 S
C536 C541 1.425 1_546 S
C536 C543 1.409 . S
C537 H529 0.930 . S
C537 C535 1.419 . S
C537 C538 1.362 1_556 S
C538 H530 0.930 . S
C538 C537 1.362 1_554 S
C538 C541 1.409 . S
C539 H531 0.930 . S
C539 C540 1.355 . S
C539 C541 1.415 1_545 S
C540 C539 1.355 . S
C540 C542 1.419 . S
C541 C536 1.425 1_564 S
C541 C538 1.409 . S
C541 C539 1.415 1_565 S
C542 H532 0.930 . S
C542 C540 1.419 . S
C542 C543 1.362 1_554 S
C543 H533 0.930 . S
C543 C536 1.409 . S
C543 C542 1.362 1_556 S
H544 C550 0.930 . S
H545 C553 0.930 . S
H546 C554 0.930 . S
H547 C555 0.930 . S
H548 C558 0.930 . S
H549 C559 0.930 . S
C550 H544 0.930 . S
C550 C551 1.355 . S
C550 C552 1.415 . S
C551 C550 1.355 . S
C551 C553 1.419 . S
C552 C550 1.415 . S
C552 C557 1.425 . S
C552 C559 1.409 . S
C553 H545 0.930 . S
C553 C551 1.419 . S
C553 C554 1.362 . S
C554 H546 0.930 . S
C554 C553 1.362 . S
C554 C557 1.409 . S
C555 H547 0.930 . S
C555 C556 1.355 . S
C555 C557 1.415 . S
C556 C555 1.355 . S
C556 C558 1.419 . S
C557 C552 1.425 . S
C557 C554 1.409 . S
C557 C555 1.415 . S
C558 H548 0.930 . S
C558 C556 1.419 . S
C558 C559 1.362 . S
C559 H549 0.930 . S
C559 C552 1.409 . S
C559 C558 1.362 . S
H560 C566 0.930 . S
H561 C569 0.930 . S
H562 C570 0.930 . S
H563 C571 0.930 . S
H564 C574 0.930 . S
H565 C575 0.930 . S
C566 H560 0.930 . S
C566 C567 1.355 . S
C566 C568 1.415 1_455 S
C567 C566 1.355 . S
C567 C569 1.419 . S
C568 C566 1.415 1_655 S
C568 C573 1.425 1_656 S
C568 C575 1.409 . S
C569 H561 0.930 . S
C569 C567 1.419 . S
C569 C570 1.362 1_556 S
C570 H562 0.930 . S
C570 C569 1.362 1_554 S
C570 C573 1.409 . S
C571 H563 0.930 . S
C571 C572 1.355 . S
C571 C573 1.415 1_655 S
C572 C571 1.355 . S
C572 C574 1.419 . S
C573 C568 1.425 1_454 S
C573 C570 1.409 . S
C573 C571 1.415 1_455 S
C574 H564 0.930 . S
C574 C572 1.419 . S
C574 C575 1.362 1_554 S
C575 H565 0.930 . S
C575 C568 1.409 . S
C575 C574 1.362 1_556 S
H576 C582 0.930 . S
H577 C585 0.930 . S
H578 C586 0.930 . S
H579 C587 0.930 . S
H580 C590 0.930 . S
H581 C591 0.930 . S
C582 H576 0.930 . S
C582 C583 1.355 . S
C582 C584 1.415 1_545 S
C583 C582 1.355 . S
C583 C585 1.419 . S
C584 C582 1.415 1_565 S
C584 C589 1.425 1_565 S
C584 C591 1.409 . S
C585 H577 0.930 . S
C585 C583 1.419 . S
C585 C586 1.362 . S
C586 H578 0.930 . S
C586 C585 1.362 . S
C586 C589 1.409 . S
C587 H579 0.930 . S
C587 C588 1.355 . S
C587 C589 1.415 1_565 S
C588 C587 1.355 . S
C588 C590 1.419 . S
C589 C584 1.425 1_545 S
C589 C586 1.409 . S
C589 C587 1.415 1_545 S
C590 H580 0.930 . S
C590 C588 1.419 . S
C590 C591 1.362 . S
C591 H581 0.930 . S
C591 C584 1.409 . S
C591 C590 1.362 . S
H592 C598 0.930 . S
H593 C601 0.930 . S
H594 C602 0.930 . S
H595 C603 0.930 . S
H596 C606 0.930 . S
H597 C607 0.930 . S
C598 H592 0.930 . S
C598 C599 1.355 . S
C598 C600 1.394 1_554 S
C599 C598 1.355 . S
C599 C601 1.419 . S
C600 C598 1.394 1_556 S
C600 C605 1.423 1_556 S
C600 C607 1.432 . S
C601 H593 0.930 . S
C601 C599 1.419 . S
C601 C602 1.362 . S
C602 H594 0.930 . S
C602 C601 1.362 . S
C602 C605 1.432 . S
C603 H595 0.930 . S
C603 C604 1.355 . S
C603 C605 1.394 1_556 S
C604 C603 1.355 . S
C604 C606 1.419 . S
C605 C600 1.423 1_554 S
C605 C602 1.432 . S
C605 C603 1.394 1_554 S
C606 H596 0.930 . S
C606 C604 1.419 . S
C606 C607 1.362 . S
C607 H597 0.930 . S
C607 C600 1.432 . S
C607 C606 1.362 . S
H608 C614 0.930 . S
H609 C617 0.930 . S
H610 C618 0.930 . S
H611 C619 0.930 . S
H612 C622 0.930 . S
H613 C623 0.930 . S
C614 H608 0.930 . S
C614 C615 1.355 . S
C614 C616 1.415 1_455 S
C615 C614 1.355 . S
C615 C617 1.419 . S
C616 C614 1.415 1_655 S
C616 C621 1.425 1_655 S
C616 C623 1.409 . S
C617 H609 0.930 . S
C617 C615 1.419 . S
C617 C618 1.362 . S
C618 H610 0.930 . S
C618 C617 1.362 . S
C618 C621 1.409 . S
C619 H611 0.930 . S
C619 C620 1.355 . S
C619 C621 1.415 1_655 S
C620 C619 1.355 . S
C620 C622 1.419 . S
C621 C616 1.425 1_455 S
C621 C618 1.409 . S
C621 C619 1.415 1_455 S
C622 H612 0.930 . S
C622 C620 1.419 . S
C622 C623 1.362 . S
C623 H613 0.930 . S
C623 C616 1.409 . S
C623 C622 1.362 . S
H624 C630 0.930 . S
H625 C633 0.930 . S
H626 C634 0.930 . S
H627 C635 0.930 . S
H628 C638 0.930 . S
H629 C639 0.930 . S
C630 H624 0.930 . S
C630 C631 1.355 . S
C630 C632 1.415 . S
C631 C630 1.355 . S
C631 C633 1.419 . S
C632 C630 1.415 . S
C632 C637 1.425 . S
C632 C639 1.409 . S
C633 H625 0.930 . S
C633 C631 1.419 . S
C633 C634 1.362 . S
C634 H626 0.930 . S
C634 C633 1.362 . S
C634 C637 1.409 . S
C635 H627 0.930 . S
C635 C636 1.355 . S
C635 C637 1.415 . S
C636 C635 1.355 . S
C636 C638 1.419 . S
C637 C632 1.425 . S
C637 C634 1.409 . S
C637 C635 1.415 . S
C638 H628 0.930 . S
C638 C636 1.419 . S
C638 C639 1.362 . S
C639 H629 0.930 . S
C639 C632 1.409 . S
C639 C638 1.362 . S
H640 C646 0.930 . S
H641 C649 0.930 . S
H642 C650 0.930 . S
H643 C651 0.930 . S
H644 C654 0.930 . S
H645 C655 0.930 . S
C646 H640 0.930 . S
C646 C647 1.355 . S
C646 C648 1.415 . S
C647 C646 1.355 . S
C647 C649 1.419 . S
C648 C646 1.415 . S
C648 C653 1.425 . S
C648 C655 1.409 . S
C649 H641 0.930 . S
C649 C647 1.419 . S
C649 C650 1.362 . S
C650 H642 0.930 . S
C650 C649 1.362 . S
C650 C653 1.409 . S
C651 H643 0.930 . S
C651 C652 1.355 . S
C651 C653 1.415 . S
C652 C651 1.355 . S
C652 C654 1.419 . S
C653 C648 1.425 . S
C653 C650 1.409 . S
C653 C651 1.415 . S
C654 H644 0.930 . S
C654 C652 1.419 . S
C654 C655 1.362 . S
C655 H645 0.930 . S
C655 C648 1.409 . S
C655 C654 1.362 . S
H656 C662 0.930 . S
H657 C665 0.930 . S
H658 C666 0.930 . S
H659 C667 0.930 . S
H660 C670 0.930 . S
H661 C671 0.930 . S
C662 H656 0.930 . S
C662 C663 1.355 . S
C662 C664 1.415 . S
C663 C662 1.355 . S
C663 C665 1.419 . S
C664 C662 1.415 . S
C664 C669 1.425 . S
C664 C671 1.409 . S
C665 H657 0.930 . S
C665 C663 1.419 . S
C665 C666 1.362 . S
C666 H658 0.930 . S
C666 C665 1.362 . S
C666 C669 1.409 . S
C667 H659 0.930 . S
C667 C668 1.355 . S
C667 C669 1.415 . S
C668 C667 1.355 . S
C668 C670 1.419 . S
C669 C664 1.425 . S
C669 C666 1.409 . S
C669 C667 1.415 . S
C670 H660 0.930 . S
C670 C668 1.419 . S
C670 C671 1.362 . S
C671 H661 0.930 . S
C671 C664 1.409 . S
C671 C670 1.362 . S
H672 C678 0.930 . S
H673 C681 0.930 . S
H674 C682 0.930 . S
H675 C683 0.930 . S
H676 C686 0.930 . S
H677 C687 0.930 . S
C678 H672 0.930 . S
C678 C679 1.355 . S
C678 C680 1.415 . S
C679 C678 1.355 . S
C679 C681 1.419 . S
C680 C678 1.415 . S
C680 C685 1.425 . S
C680 C687 1.409 . S
C681 H673 0.930 . S
C681 C679 1.419 . S
C681 C682 1.362 . S
C682 H674 0.930 . S
C682 C681 1.362 . S
C682 C685 1.409 . S
C683 H675 0.930 . S
C683 C684 1.355 . S
C683 C685 1.415 . S
C684 C683 1.355 . S
C684 C686 1.419 . S
C685 C680 1.425 . S
C685 C682 1.409 . S
C685 C683 1.415 . S
C686 H676 0.930 . S
C686 C684 1.419 . S
C686 C687 1.362 . S
C687 H677 0.930 . S
C687 C680 1.409 . S
C687 C686 1.362 . S
H688 C694 0.930 . S
H689 C697 0.930 . S
H690 C698 0.930 . S
H691 C699 0.930 . S
H692 C702 0.930 . S
H693 C703 0.930 . S
C694 H688 0.930 . S
C694 C695 1.355 . S
C694 C696 1.415 . S
C695 C694 1.355 . S
C695 C697 1.419 . S
C696 C694 1.415 . S
C696 C701 1.425 . S
C696 C703 1.409 . S
C697 H689 0.930 . S
C697 C695 1.419 . S
C697 C698 1.362 . S
C698 H690 0.930 . S
C698 C697 1.362 . S
C698 C701 1.409 . S
C699 H691 0.930 . S
C699 C700 1.355 . S
C699 C701 1.415 . S
C700 C699 1.355 . S
C700 C702 1.419 . S
C701 C696 1.425 . S
C701 C698 1.409 . S
C701 C699 1.415 . S
C702 H692 0.930 . S
C702 C700 1.419 . S
C702 C703 1.362 . S
C703 H693 0.930 . S
C703 C696 1.409 . S
C703 C702 1.362 . S
H704 C710 0.930 . S
H705 C713 0.930 . S
H706 C714 0.930 . S
H707 C715 0.930 . S
H708 C718 0.930 . S
H709 C719 0.930 . S
C710 H704 0.930 . S
C710 C711 1.355 . S
C710 C712 1.415 . S
C711 C710 1.355 . S
C711 C713 1.419 . S
C712 C710 1.415 . S
C712 C717 1.425 . S
C712 C719 1.409 . S
C713 H705 0.930 . S
C713 C711 1.419 . S
C713 C714 1.362 . S
C714 H706 0.930 . S
C714 C713 1.362 . S
C714 C717 1.409 . S
C715 H707 0.930 . S
C715 C716 1.355 . S
C715 C717 1.415 . S
C716 C715 1.355 . S
C716 C718 1.419 . S
C717 C712 1.425 . S
C717 C714 1.409 . S
C717 C715 1.415 . S
C718 H708 0.930 . S
C718 C716 1.419 . S
C718 C719 1.362 . S
C719 H709 0.930 . S
C719 C712 1.409 . S
C719 C718 1.362 . S
H720 C726 0.930 . S
H721 C729 0.930 . S
H722 C730 0.930 . S
H723 C731 0.930 . S
H724 C734 0.930 . S
H725 C735 0.930 . S
C726 H720 0.930 . S
C726 C727 1.355 . S
C726 C728 1.415 . S
C727 C726 1.355 . S
C727 C729 1.419 . S
C728 C726 1.415 . S
C728 C733 1.425 . S
C728 C735 1.409 . S
C729 H721 0.930 . S
C729 C727 1.419 . S
C729 C730 1.362 . S
C730 H722 0.930 . S
C730 C729 1.362 . S
C730 C733 1.409 . S
C731 H723 0.930 . S
C731 C732 1.355 . S
C731 C733 1.415 . S
C732 C731 1.355 . S
C732 C734 1.419 . S
C733 C728 1.425 . S
C733 C730 1.409 . S
C733 C731 1.415 . S
C734 H724 0.930 . S
C734 C732 1.419 . S
C734 C735 1.362 . S
C735 H725 0.930 . S
C735 C728 1.409 . S
C735 C734 1.362 . S
H736 C742 0.930 . S
H737 C745 0.930 . S
H738 C746 0.930 . S
H739 C747 0.930 . S
H740 C750 0.930 . S
H741 C751 0.930 . S
C742 H736 0.930 . S
C742 C743 1.355 . S
C742 C744 1.415 . S
C743 C742 1.355 . S
C743 C745 1.419 . S
C744 C742 1.415 . S
C744 C749 1.425 . S
C744 C751 1.409 . S
C745 H737 0.930 . S
C745 C743 1.419 . S
C745 C746 1.362 . S
C746 H738 0.930 . S
C746 C745 1.362 . S
C746 C749 1.409 . S
C747 H739 0.930 . S
C747 C748 1.355 . S
C747 C749 1.415 . S
C748 C747 1.355 . S
C748 C750 1.419 . S
C749 C744 1.425 . S
C749 C746 1.409 . S
C749 C747 1.415 . S
C750 H740 0.930 . S
C750 C748 1.419 . S
C750 C751 1.362 . S
C751 H741 0.930 . S
C751 C744 1.409 . S
C751 C750 1.362 . S
H752 C758 0.930 . S
H753 C761 0.930 . S
H754 C762 0.930 . S
H755 C763 0.930 . S
H756 C766 0.930 . S
H757 C767 0.930 . S
C758 H752 0.930 . S
C758 C759 1.355 . S
C758 C760 1.415 . S
C759 C758 1.355 . S
C759 C761 1.419 . S
C760 C758 1.415 . S
C760 C765 1.425 . S
C760 C767 1.409 . S
C761 H753 0.930 . S
C761 C759 1.419 . S
C761 C762 1.362 . S
C762 H754 0.930 . S
C762 C761 1.362 . S
C762 C765 1.409 . S
C763 H755 0.930 . S
C763 C764 1.355 . S
C763 C765 1.415 . S
C764 C763 1.355 . S
C764 C766 1.419 . S
C765 C760 1.425 . S
C765 C762 1.409 . S
C765 C763 1.415 . S
C766 H756 0.930 . S
C766 C764 1.419 . S
C766 C767 1.362 . S
C767 H757 0.930 . S
C767 C760 1.409 . S
C767 C766 1.362 . S
H768 C774 0.930 . S
H769 C777 0.930 . S
H770 C778 0.930 . S
H771 C779 0.930 . S
H772 C782 0.930 . S
H773 C783 0.930 . S
C774 H768 0.930 . S
C774 C775 1.355 . S
C774 C776 1.415 . S
C775 C774 1.355 . S
C775 C777 1.419 . S
C776 C774 1.415 . S
C776 C781 1.425 . S
C776 C783 1.409 . S
C777 H769 0.930 . S
C777 C775 1.419 . S
C777 C778 1.362 . S
C778 H770 0.930 . S
C778 C777 1.362 . S
C778 C781 1.409 . S
C779 H771 0.930 . S
C779 C780 1.355 . S
C779 C781 1.415 . S
C780 C779 1.355 . S
C780 C782 1.419 . S
C781 C776 1.425 . S
C781 C778 1.409 . S
C781 C779 1.415 . S
C782 H772 0.930 . S
C782 C780 1.419 . S
C782 C783 1.362 . S
C783 H773 0.930 . S
C783 C776 1.409 . S
C783 C782 1.362 . S
H784 C790 0.930 . S
H785 C793 0.930 . S
H786 C794 0.930 . S
H787 C795 0.930 . S
H788 C798 0.930 . S
H789 C799 0.930 . S
C790 H784 0.930 . S
C790 C791 1.355 . S
C790 C792 1.415 . S
C791 C790 1.355 . S
C791 C793 1.419 . S
C792 C790 1.415 . S
C792 C797 1.425 . S
C792 C799 1.409 . S
C793 H785 0.930 . S
C793 C791 1.419 . S
C793 C794 1.362 . S
C794 H786 0.930 . S
C794 C793 1.362 . S
C794 C797 1.409 . S
C795 H787 0.930 . S
C795 C796 1.355 . S
C795 C797 1.415 . S
C796 C795 1.355 . S
C796 C798 1.419 . S
C797 C792 1.425 . S
C797 C794 1.409 . S
C797 C795 1.415 . S
C798 H788 0.930 . S
C798 C796 1.419 . S
C798 C799 1.362 . S
C799 H789 0.930 . S
C799 C792 1.409 . S
C799 C798 1.362 . S
H800 C806 0.930 . S
H801 C809 0.930 . S
H802 C810 0.930 . S
H803 C811 0.930 . S
H804 C814 0.930 . S
H805 C815 0.930 . S
C806 H800 0.930 . S
C806 C807 1.355 . S
C806 C808 1.415 . S
C807 C806 1.355 . S
C807 C809 1.419 . S
C808 C806 1.415 . S
C808 C813 1.425 . S
C808 C815 1.409 . S
C809 H801 0.930 . S
C809 C807 1.419 . S
C809 C810 1.362 . S
C810 H802 0.930 . S
C810 C809 1.362 . S
C810 C813 1.409 . S
C811 H803 0.930 . S
C811 C812 1.355 . S
C811 C813 1.415 . S
C812 C811 1.355 . S
C812 C814 1.419 . S
C813 C808 1.425 . S
C813 C810 1.409 . S
C813 C811 1.415 . S
C814 H804 0.930 . S
C814 C812 1.419 . S
C814 C815 1.362 . S
C815 H805 0.930 . S
C815 C808 1.409 . S
C815 C814 1.362 . S
C247 C59 1.413 . S
C252 C6 1.335 . S
C263 C68 1.410 . S
C268 C36 1.325 1_455 S
C279 C46 1.325 1_565 S
C284 C99 1.412 . S
C295 C76 1.386 . S
C300 C108 1.379 . S
C311 C19 1.353 . S
C316 C86 1.402 1_455 S
C327 C28 1.406 . S
C332 C116 1.327 1_565 S
C343 C208 1.358 . S
C348 C136 1.383 . S
C359 C146 1.390 1_655 S
C364 C239 1.354 . S
C375 C176 1.365 1_545 S
C380 C128 1.369 . S
C391 C186 1.397 . S
C396 C159 1.352 . S
C407 C216 1.402 1_655 S
C412 C168 1.353 . S
C423 C199 1.410 . S
C428 C226 1.342 1_545 S
C439 C61 1.761 . S
C444 C9 1.702 . S
C455 C21 1.738 . S
C460 C89 1.726 . S
C471 C49 1.730 . S
C476 C101 1.734 . S
C487 C121 1.708 . S
C492 C189 1.755 . S
C503 C149 1.704 . S
C508 C201 1.760 . S
C519 C161 1.753 . S
C524 C229 1.711 . S
C535 C141 1.935 . S
C540 C1 1.948 . S
C551 C29 1.907 . S
C556 C169 1.920 . S
C567 C181 1.920 . S
C572 C41 1.942 . S
C583 C69 1.947 . S
C588 C209 1.930 . S
C599 C81 1.938 . S
C604 C221 1.915 . S
C615 C129 1.947 . S
C620 C109 1.941 . S
C631 C48 1.506 . S
C636 C16 1.542 . S
C647 C26 1.573 . S
C652 C79 1.440 . S
C663 C56 1.542 . S
C668 C88 1.517 . S
C679 C66 1.571 . S
C684 C119 1.448 . S
C695 C8 1.455 . S
C700 C96 1.569 . S
C711 C39 1.524 . S
C716 C106 1.536 . S
C727 C219 1.519 . S
C732 C126 1.537 . S
C743 C156 1.570 . S
C748 C228 1.444 . S
C759 C166 1.538 . S
C764 C139 1.518 . S
C775 C148 1.515 . S
C780 C196 1.539 . S
C791 C206 1.556 . S
C796 C179 1.475 . S
C807 C236 1.572 . S
C812 C188 1.441 . S
