# Generated by pormake.
# Topology zni, (4)-cn, num edge types: 1
# Building blocks:
#     Node 0, Type 0, BuildingBlock: CEKHIL_clean_sbu_0, # of connection points: 4
#     Node 1, Type 0, BuildingBlock: CEKHIL_clean_sbu_0, # of connection points: 4
#     Node 2, Type 0, BuildingBlock: CEKHIL_clean_sbu_0, # of connection points: 4
#     Node 3, Type 0, BuildingBlock: CEKHIL_clean_sbu_0, # of connection points: 4
#     Node 4, Type 0, BuildingBlock: CEKHIL_clean_sbu_0, # of connection points: 4
#     Node 5, Type 0, BuildingBlock: CEKHIL_clean_sbu_0, # of connection points: 4
#     Node 6, Type 0, BuildingBlock: CEKHIL_clean_sbu_0, # of connection points: 4
#     Node 7, Type 0, BuildingBlock: CEKHIL_clean_sbu_0, # of connection points: 4
#     Node 8, Type 0, BuildingBlock: CEKHIL_clean_sbu_0, # of connection points: 4
#     Node 9, Type 0, BuildingBlock: CEKHIL_clean_sbu_0, # of connection points: 4
#     Node 10, Type 0, BuildingBlock: CEKHIL_clean_sbu_0, # of connection points: 4
#     Node 11, Type 0, BuildingBlock: CEKHIL_clean_sbu_0, # of connection points: 4
#     Node 12, Type 0, BuildingBlock: CEKHIL_clean_sbu_0, # of connection points: 4
#     Node 13, Type 0, BuildingBlock: CEKHIL_clean_sbu_0, # of connection points: 4
#     Node 14, Type 0, BuildingBlock: CEKHIL_clean_sbu_0, # of connection points: 4
#     Node 15, Type 0, BuildingBlock: CEKHIL_clean_sbu_0, # of connection points: 4
#     Node 16, Type 0, BuildingBlock: CEKHIL_clean_sbu_0, # of connection points: 4
#     Node 17, Type 0, BuildingBlock: CEKHIL_clean_sbu_0, # of connection points: 4
#     Node 18, Type 0, BuildingBlock: CEKHIL_clean_sbu_0, # of connection points: 4
#     Node 19, Type 0, BuildingBlock: CEKHIL_clean_sbu_0, # of connection points: 4
#     Node 20, Type 0, BuildingBlock: CEKHIL_clean_sbu_0, # of connection points: 4
#     Node 21, Type 0, BuildingBlock: CEKHIL_clean_sbu_0, # of connection points: 4
#     Node 22, Type 0, BuildingBlock: CEKHIL_clean_sbu_0, # of connection points: 4
#     Node 23, Type 0, BuildingBlock: CEKHIL_clean_sbu_0, # of connection points: 4
#     Node 24, Type 0, BuildingBlock: CEKHIL_clean_sbu_0, # of connection points: 4
#     Node 25, Type 0, BuildingBlock: CEKHIL_clean_sbu_0, # of connection points: 4
#     Node 26, Type 0, BuildingBlock: CEKHIL_clean_sbu_0, # of connection points: 4
#     Node 27, Type 0, BuildingBlock: CEKHIL_clean_sbu_0, # of connection points: 4
#     Node 28, Type 0, BuildingBlock: CEKHIL_clean_sbu_0, # of connection points: 4
#     Node 29, Type 0, BuildingBlock: CEKHIL_clean_sbu_0, # of connection points: 4
#     Node 30, Type 0, BuildingBlock: CEKHIL_clean_sbu_0, # of connection points: 4
#     Node 31, Type 0, BuildingBlock: CEKHIL_clean_sbu_0, # of connection points: 4
#     Edge 32, Type (0, 0), BuildingBlock: ZUJKAS_clean_linker_0, # of connection points: 2
#     Edge 33, Type (0, 0), BuildingBlock: ZUJKAS_clean_linker_0, # of connection points: 2
#     Edge 34, Type (0, 0), BuildingBlock: ZUJKAS_clean_linker_0, # of connection points: 2
#     Edge 35, Type (0, 0), BuildingBlock: ZUJKAS_clean_linker_0, # of connection points: 2
#     Edge 36, Type (0, 0), BuildingBlock: ZUJKAS_clean_linker_0, # of connection points: 2
#     Edge 37, Type (0, 0), BuildingBlock: ZUJKAS_clean_linker_0, # of connection points: 2
#     Edge 38, Type (0, 0), BuildingBlock: ZUJKAS_clean_linker_0, # of connection points: 2
#     Edge 39, Type (0, 0), BuildingBlock: ZUJKAS_clean_linker_0, # of connection points: 2
#     Edge 40, Type (0, 0), BuildingBlock: ZUJKAS_clean_linker_0, # of connection points: 2
#     Edge 41, Type (0, 0), BuildingBlock: ZUJKAS_clean_linker_0, # of connection points: 2
#     Edge 42, Type (0, 0), BuildingBlock: ZUJKAS_clean_linker_0, # of connection points: 2
#     Edge 43, Type (0, 0), BuildingBlock: ZUJKAS_clean_linker_0, # of connection points: 2
#     Edge 44, Type (0, 0), BuildingBlock: ZUJKAS_clean_linker_0, # of connection points: 2
#     Edge 45, Type (0, 0), BuildingBlock: ZUJKAS_clean_linker_0, # of connection points: 2
#     Edge 46, Type (0, 0), BuildingBlock: ZUJKAS_clean_linker_0, # of connection points: 2
#     Edge 47, Type (0, 0), BuildingBlock: ZUJKAS_clean_linker_0, # of connection points: 2
#     Edge 48, Type (0, 0), BuildingBlock: ZUJKAS_clean_linker_0, # of connection points: 2
#     Edge 49, Type (0, 0), BuildingBlock: ZUJKAS_clean_linker_0, # of connection points: 2
#     Edge 50, Type (0, 0), BuildingBlock: ZUJKAS_clean_linker_0, # of connection points: 2
#     Edge 51, Type (0, 0), BuildingBlock: ZUJKAS_clean_linker_0, # of connection points: 2
#     Edge 52, Type (0, 0), BuildingBlock: ZUJKAS_clean_linker_0, # of connection points: 2
#     Edge 53, Type (0, 0), BuildingBlock: ZUJKAS_clean_linker_0, # of connection points: 2
#     Edge 54, Type (0, 0), BuildingBlock: ZUJKAS_clean_linker_0, # of connection points: 2
#     Edge 55, Type (0, 0), BuildingBlock: ZUJKAS_clean_linker_0, # of connection points: 2
#     Edge 56, Type (0, 0), BuildingBlock: ZUJKAS_clean_linker_0, # of connection points: 2
#     Edge 57, Type (0, 0), BuildingBlock: ZUJKAS_clean_linker_0, # of connection points: 2
#     Edge 58, Type (0, 0), BuildingBlock: ZUJKAS_clean_linker_0, # of connection points: 2
#     Edge 59, Type (0, 0), BuildingBlock: ZUJKAS_clean_linker_0, # of connection points: 2
#     Edge 60, Type (0, 0), BuildingBlock: ZUJKAS_clean_linker_0, # of connection points: 2
#     Edge 61, Type (0, 0), BuildingBlock: ZUJKAS_clean_linker_0, # of connection points: 2
#     Edge 62, Type (0, 0), BuildingBlock: ZUJKAS_clean_linker_0, # of connection points: 2
#     Edge 63, Type (0, 0), BuildingBlock: ZUJKAS_clean_linker_0, # of connection points: 2
#     Edge 64, Type (0, 0), BuildingBlock: ZUJKAS_clean_linker_0, # of connection points: 2
#     Edge 65, Type (0, 0), BuildingBlock: ZUJKAS_clean_linker_0, # of connection points: 2
#     Edge 66, Type (0, 0), BuildingBlock: ZUJKAS_clean_linker_0, # of connection points: 2
#     Edge 67, Type (0, 0), BuildingBlock: ZUJKAS_clean_linker_0, # of connection points: 2
#     Edge 68, Type (0, 0), BuildingBlock: ZUJKAS_clean_linker_0, # of connection points: 2
#     Edge 69, Type (0, 0), BuildingBlock: ZUJKAS_clean_linker_0, # of connection points: 2
#     Edge 70, Type (0, 0), BuildingBlock: ZUJKAS_clean_linker_0, # of connection points: 2
#     Edge 71, Type (0, 0), BuildingBlock: ZUJKAS_clean_linker_0, # of connection points: 2
#     Edge 72, Type (0, 0), BuildingBlock: ZUJKAS_clean_linker_0, # of connection points: 2
#     Edge 73, Type (0, 0), BuildingBlock: ZUJKAS_clean_linker_0, # of connection points: 2
#     Edge 74, Type (0, 0), BuildingBlock: ZUJKAS_clean_linker_0, # of connection points: 2
#     Edge 75, Type (0, 0), BuildingBlock: ZUJKAS_clean_linker_0, # of connection points: 2
#     Edge 76, Type (0, 0), BuildingBlock: ZUJKAS_clean_linker_0, # of connection points: 2
#     Edge 77, Type (0, 0), BuildingBlock: ZUJKAS_clean_linker_0, # of connection points: 2
#     Edge 78, Type (0, 0), BuildingBlock: ZUJKAS_clean_linker_0, # of connection points: 2
#     Edge 79, Type (0, 0), BuildingBlock: ZUJKAS_clean_linker_0, # of connection points: 2
#     Edge 80, Type (0, 0), BuildingBlock: ZUJKAS_clean_linker_0, # of connection points: 2
#     Edge 81, Type (0, 0), BuildingBlock: ZUJKAS_clean_linker_0, # of connection points: 2
#     Edge 82, Type (0, 0), BuildingBlock: ZUJKAS_clean_linker_0, # of connection points: 2
#     Edge 83, Type (0, 0), BuildingBlock: ZUJKAS_clean_linker_0, # of connection points: 2
#     Edge 84, Type (0, 0), BuildingBlock: ZUJKAS_clean_linker_0, # of connection points: 2
#     Edge 85, Type (0, 0), BuildingBlock: ZUJKAS_clean_linker_0, # of connection points: 2
#     Edge 86, Type (0, 0), BuildingBlock: ZUJKAS_clean_linker_0, # of connection points: 2
#     Edge 87, Type (0, 0), BuildingBlock: ZUJKAS_clean_linker_0, # of connection points: 2
#     Edge 88, Type (0, 0), BuildingBlock: ZUJKAS_clean_linker_0, # of connection points: 2
#     Edge 89, Type (0, 0), BuildingBlock: ZUJKAS_clean_linker_0, # of connection points: 2
#     Edge 90, Type (0, 0), BuildingBlock: ZUJKAS_clean_linker_0, # of connection points: 2
#     Edge 91, Type (0, 0), BuildingBlock: ZUJKAS_clean_linker_0, # of connection points: 2
#     Edge 92, Type (0, 0), BuildingBlock: ZUJKAS_clean_linker_0, # of connection points: 2
#     Edge 93, Type (0, 0), BuildingBlock: ZUJKAS_clean_linker_0, # of connection points: 2
#     Edge 94, Type (0, 0), BuildingBlock: ZUJKAS_clean_linker_0, # of connection points: 2
#     Edge 95, Type (0, 0), BuildingBlock: ZUJKAS_clean_linker_0, # of connection points: 2
# Relax obj value: 0.229
# Max RMSD: 0.114
# Mean RMSD: 0.114
data_MOF--net-zni--node1-CEKHIL_clean_sbu_0--edge1-ZUJKAS_clean_linker_0
_symmetry_space_group_name_H-M    P1
_symmetry_Int_Tables_number       1
_symmetry_cell_setting            triclinic
loop_
_symmetry_equiv_pos_as_xyz
'x, y, z'
_cell_length_a     74.619559
_cell_length_b     74.618083
_cell_length_c     38.311209
_cell_angle_alpha  89.98463
_cell_angle_beta   89.973043
_cell_angle_gamma 89.999168
loop_
_atom_site_label
_atom_site_type_symbol
_atom_site_fract_x
_atom_site_fract_y
_atom_site_fract_z
_atom_type_partial_charge
Co0 Co 0.10131 0.09546 0.40775 0.0
O1 O 0.09632 0.07089 0.39708 0.0
O2 O 0.10506 0.09131 0.35849 0.0
C3 C 0.11806 0.08959 0.45501 0.0
O4 O 0.10824 0.12187 0.40942 0.0
Co5 Co 0.08866 0.11242 0.47731 0.0
O6 O 0.10452 0.13259 0.46373 0.0
C7 C 0.06244 0.10519 0.42119 0.0
C8 C 0.10058 0.07481 0.36516 0.0
C9 C 0.11006 0.13432 0.43243 0.0
O10 O 0.07531 0.10159 0.39989 0.0
O11 O 0.06497 0.1084 0.45366 0.0
O12 O 0.12524 0.08909 0.42414 0.0
O13 O 0.101 0.09239 0.45608 0.0
Co14 Co 0.15799 0.8487 0.662 0.0
O15 O 0.18214 0.84364 0.6484 0.0
O16 O 0.16084 0.85329 0.6126 0.0
C17 C 0.16557 0.86454 0.70942 0.0
O18 O 0.13176 0.85592 0.66704 0.0
Co19 Co 0.14293 0.83523 0.73253 0.0
O20 O 0.12268 0.85162 0.72231 0.0
C21 C 0.14776 0.80981 0.67401 0.0
C22 C 0.17747 0.84859 0.61728 0.0
C23 C 0.12007 0.85761 0.69158 0.0
O24 O 0.15129 0.82291 0.65318 0.0
O25 O 0.1454 0.81189 0.70688 0.0
O26 O 0.16507 0.87229 0.6791 0.0
O27 O 0.16258 0.84752 0.70987 0.0
Co28 Co 0.4032 0.90776 0.91126 0.0
O29 O 0.40723 0.93255 0.90111 0.0
O30 O 0.40006 0.91195 0.86184 0.0
C31 C 0.38557 0.91258 0.9578 0.0
O32 O 0.39732 0.88108 0.91254 0.0
Co33 Co 0.41607 0.89133 0.98122 0.0
O34 O 0.40086 0.87072 0.9672 0.0
C35 C 0.44236 0.8991 0.9256 0.0
C36 C 0.40364 0.92864 0.86889 0.0
C37 C 0.39568 0.86868 0.93575 0.0
O38 O 0.42948 0.90257 0.90432 0.0
O39 O 0.43984 0.89576 0.95804 0.0
O40 O 0.37884 0.91309 0.92656 0.0
O41 O 0.40274 0.91062 0.95964 0.0
Co42 Co 0.3453 0.14962 0.15834 0.0
O43 O 0.32054 0.15477 0.14991 0.0
O44 O 0.34027 0.14754 0.109 0.0
C45 C 0.34033 0.13142 0.20372 0.0
O46 O 0.37173 0.14259 0.15764 0.0
Co47 Co 0.36327 0.16064 0.22791 0.0
O48 O 0.38312 0.14507 0.21172 0.0
C49 C 0.35587 0.18817 0.17452 0.0
C50 C 0.32382 0.1515 0.11729 0.0
C51 C 0.38442 0.14017 0.17996 0.0
O52 O 0.35141 0.1758 0.15277 0.0
O53 O 0.35973 0.18497 0.20648 0.0
O54 O 0.33908 0.12524 0.17217 0.0
O55 O 0.34309 0.14842 0.20688 0.0
Co56 Co 0.0997 0.90659 0.08518 0.0
O57 O 0.09476 0.93096 0.09738 0.0
O58 O 0.10329 0.90984 0.13472 0.0
C59 C 0.11676 0.91291 0.03854 0.0
O60 O 0.10649 0.8802 0.08167 0.0
Co61 Co 0.08689 0.89116 0.01426 0.0
O62 O 0.10273 0.87072 0.02647 0.0
C63 C 0.06076 0.8971 0.07105 0.0
C64 C 0.09892 0.92647 0.12906 0.0
C65 C 0.10825 0.86828 0.05759 0.0
O66 O 0.07367 0.90035 0.09243 0.0
O67 O 0.06319 0.89458 0.03831 0.0
O68 O 0.12372 0.91309 0.0696 0.0
O69 O 0.09965 0.91044 0.03706 0.0
Co70 Co 0.34329 0.85261 0.33363 0.0
O71 O 0.31912 0.84721 0.34654 0.0
O72 O 0.34019 0.85652 0.38319 0.0
C73 C 0.33581 0.86902 0.28692 0.0
O74 O 0.36951 0.86005 0.32942 0.0
Co75 Co 0.35883 0.84022 0.26282 0.0
O76 O 0.37863 0.85702 0.27387 0.0
C77 C 0.35388 0.81396 0.31993 0.0
C78 C 0.32363 0.85174 0.37798 0.0
C79 C 0.38114 0.86245 0.30501 0.0
O80 O 0.3501 0.82675 0.34127 0.0
O81 O 0.3565 0.8165 0.28724 0.0
O82 O 0.33614 0.87638 0.3176 0.0
O83 O 0.33893 0.85202 0.28563 0.0
Co84 Co 0.39894 0.09342 0.57893 0.0
O85 O 0.40377 0.06864 0.5879 0.0
O86 O 0.39583 0.08848 0.62811 0.0
C87 C 0.38167 0.08845 0.53194 0.0
O88 O 0.39218 0.1199 0.57903 0.0
Co89 Co 0.41112 0.11135 0.5099 0.0
O90 O 0.39518 0.13117 0.52496 0.0
C91 C 0.43775 0.10352 0.56494 0.0
C92 C 0.4 0.07202 0.62029 0.0
C93 C 0.39004 0.13257 0.55656 0.0
O94 O 0.42506 0.09931 0.58619 0.0
O95 O 0.43501 0.10736 0.53279 0.0
O96 O 0.37479 0.08744 0.56304 0.0
O97 O 0.39873 0.09117 0.53048 0.0
Co98 Co 0.15554 0.14998 0.83497 0.0
O99 O 0.18047 0.15373 0.84374 0.0
O100 O 0.16034 0.14721 0.88437 0.0
C101 C 0.16008 0.13209 0.78893 0.0
O102 O 0.12877 0.14439 0.83509 0.0
Co103 Co 0.13845 0.16214 0.76537 0.0
O104 O 0.11793 0.14715 0.78065 0.0
C105 C 0.1473 0.18901 0.8193 0.0
C106 C 0.17699 0.1504 0.87624 0.0
C107 C 0.11616 0.14246 0.81245 0.0
O108 O 0.15076 0.17639 0.84119 0.0
O109 O 0.1436 0.18609 0.78715 0.0
O110 O 0.16044 0.12541 0.82021 0.0
O111 O 0.15811 0.14921 0.78653 0.0
Co112 Co 0.90283 0.90571 0.59027 0.0
O113 O 0.90796 0.93022 0.6012 0.0
O114 O 0.89813 0.90998 0.63916 0.0
C115 C 0.88707 0.91171 0.54173 0.0
O116 O 0.89556 0.87939 0.58807 0.0
Co117 Co 0.91692 0.88864 0.52177 0.0
O118 O 0.90118 0.86826 0.53467 0.0
C119 C 0.94191 0.8961 0.57972 0.0
C120 C 0.90291 0.92642 0.63274 0.0
C121 C 0.89461 0.86675 0.56525 0.0
O122 O 0.92857 0.89921 0.60016 0.0
O123 O 0.94009 0.89323 0.54694 0.0
O124 O 0.87938 0.91252 0.5721 0.0
O125 O 0.9041 0.90864 0.54196 0.0
Co126 Co 0.84482 0.151 0.33463 0.0
O127 O 0.8201 0.15586 0.34446 0.0
O128 O 0.84006 0.14687 0.38357 0.0
C129 C 0.83942 0.13484 0.28632 0.0
O130 O 0.87124 0.14382 0.33378 0.0
Co131 Co 0.86293 0.16409 0.26637 0.0
O132 O 0.88169 0.1465 0.27904 0.0
C133 C 0.85737 0.18948 0.32464 0.0
C134 C 0.82358 0.15122 0.37638 0.0
C135 C 0.88339 0.14113 0.31043 0.0
O136 O 0.85108 0.17687 0.34402 0.0
O137 O 0.86216 0.18726 0.29285 0.0
O138 O 0.83842 0.12735 0.31688 0.0
O139 O 0.84241 0.15188 0.28613 0.0
Co140 Co 0.60162 0.09378 0.07767 0.0
O141 O 0.59713 0.06891 0.08646 0.0
O142 O 0.60472 0.08883 0.12679 0.0
C143 C 0.61895 0.08905 0.03062 0.0
O144 O 0.60816 0.12032 0.07793 0.0
Co145 Co 0.58919 0.11164 0.00865 0.0
O146 O 0.60421 0.13201 0.0244 0.0
C147 C 0.56266 0.10286 0.06327 0.0
C148 C 0.60096 0.07229 0.11881 0.0
C149 C 0.60967 0.13325 0.05582 0.0
O150 O 0.5754 0.09939 0.08491 0.0
O151 O 0.56542 0.10644 0.03101 0.0
O152 O 0.62582 0.08793 0.0617 0.0
O153 O 0.60188 0.09168 0.02925 0.0
Co154 Co 0.65857 0.84857 0.8377 0.0
O155 O 0.6832 0.84458 0.84927 0.0
O156 O 0.66221 0.85289 0.88692 0.0
C157 C 0.66448 0.86474 0.78967 0.0
O158 O 0.632 0.8548 0.83497 0.0
Co159 Co 0.64242 0.83472 0.76826 0.0
O160 O 0.62194 0.85051 0.78036 0.0
C161 C 0.64974 0.80933 0.82584 0.0
C162 C 0.67894 0.84906 0.88091 0.0
C163 C 0.61979 0.85629 0.81139 0.0
O164 O 0.65304 0.82249 0.84665 0.0
O165 O 0.64668 0.81144 0.7932 0.0
O166 O 0.66444 0.87247 0.82006 0.0
O167 O 0.66202 0.84763 0.78963 0.0
Co168 Co 0.89797 0.09581 0.90872 0.0
O169 O 0.90342 0.07141 0.89749 0.0
O170 O 0.89536 0.09217 0.85903 0.0
C171 C 0.88017 0.08926 0.95398 0.0
O172 O 0.89075 0.12211 0.91093 0.0
Co173 Co 0.90879 0.11209 0.9799 0.0
O174 O 0.89286 0.13215 0.96603 0.0
C175 C 0.93635 0.10642 0.92548 0.0
C176 C 0.89975 0.07561 0.86544 0.0
C177 C 0.88813 0.13422 0.93433 0.0
O178 O 0.92406 0.10234 0.90327 0.0
O179 O 0.93307 0.10942 0.95778 0.0
O180 O 0.87372 0.08911 0.92254 0.0
O181 O 0.89716 0.09212 0.95698 0.0
Co182 Co 0.65544 0.14849 0.65933 0.0
O183 O 0.68033 0.15305 0.65112 0.0
O184 O 0.66071 0.14557 0.61019 0.0
C185 C 0.66007 0.13098 0.70619 0.0
O186 O 0.62887 0.14192 0.65864 0.0
Co187 Co 0.63731 0.16057 0.72833 0.0
O188 O 0.61784 0.14428 0.71307 0.0
C189 C 0.64557 0.18734 0.67374 0.0
C190 C 0.67719 0.14929 0.61866 0.0
C191 C 0.61635 0.13941 0.68132 0.0
O192 O 0.64978 0.1747 0.65236 0.0
O193 O 0.64157 0.1845 0.70579 0.0
O194 O 0.66127 0.12424 0.67502 0.0
O195 O 0.65737 0.14804 0.70778 0.0
Co196 Co 0.59905 0.90646 0.40626 0.0
O197 O 0.59488 0.93128 0.39668 0.0
O198 O 0.60355 0.91125 0.35741 0.0
C199 C 0.61491 0.91159 0.45496 0.0
O200 O 0.60554 0.8799 0.407 0.0
Co201 Co 0.58495 0.88874 0.47396 0.0
O202 O 0.60099 0.86866 0.46067 0.0
C203 C 0.55981 0.89734 0.41671 0.0
C204 C 0.59952 0.92779 0.36478 0.0
C205 C 0.607 0.86722 0.42966 0.0
O206 O 0.57307 0.90097 0.39639 0.0
O207 O 0.56176 0.8936 0.44913 0.0
O208 O 0.62279 0.91218 0.42473 0.0
O209 O 0.59783 0.90893 0.45457 0.0
Co210 Co 0.84388 0.84967 0.16966 0.0
O211 O 0.81883 0.84617 0.16146 0.0
O212 O 0.83868 0.85355 0.12081 0.0
C213 C 0.84014 0.86659 0.21758 0.0
O214 O 0.87064 0.85528 0.16901 0.0
Co215 Co 0.86162 0.83557 0.2375 0.0
O216 O 0.88207 0.85071 0.22255 0.0
C217 C 0.852 0.81019 0.18145 0.0
C218 C 0.82209 0.85024 0.12917 0.0
C219 C 0.88352 0.85642 0.19131 0.0
O220 O 0.8485 0.82341 0.16095 0.0
O221 O 0.85605 0.81225 0.2137 0.0
O222 O 0.83907 0.87384 0.18682 0.0
O223 O 0.84209 0.8494 0.21817 0.0
Co224 Co 0.5979 0.59355 0.91294 0.0
O225 O 0.59319 0.56889 0.90273 0.0
O226 O 0.60178 0.58912 0.86377 0.0
C227 C 0.61442 0.58807 0.96068 0.0
O228 O 0.60477 0.62001 0.91452 0.0
Co229 Co 0.58443 0.61055 0.98196 0.0
O230 O 0.60124 0.63011 0.96937 0.0
C231 C 0.55886 0.60362 0.92467 0.0
C232 C 0.59756 0.57257 0.87077 0.0
C233 C 0.6069 0.63208 0.93822 0.0
O234 O 0.57195 0.59959 0.90423 0.0
O235 O 0.56096 0.60708 0.95716 0.0
O236 O 0.62174 0.58733 0.92994 0.0
O237 O 0.59733 0.59073 0.96128 0.0
Co238 Co 0.65674 0.34988 0.16171 0.0
O239 O 0.68155 0.3467 0.15068 0.0
O240 O 0.66043 0.35356 0.11224 0.0
C241 C 0.66165 0.36713 0.20876 0.0
O242 O 0.62994 0.35507 0.16406 0.0
Co243 Co 0.64137 0.33598 0.23192 0.0
O244 O 0.61997 0.35022 0.21863 0.0
C245 C 0.64988 0.31039 0.17557 0.0
C246 C 0.67729 0.35052 0.11873 0.0
C247 C 0.61761 0.35587 0.18756 0.0
O248 O 0.65225 0.32348 0.15415 0.0
O249 O 0.64704 0.31265 0.20825 0.0
O250 O 0.66158 0.37424 0.1778 0.0
O251 O 0.66007 0.34992 0.20991 0.0
Co252 Co 0.90082 0.40774 0.41386 0.0
O253 O 0.90474 0.43257 0.40417 0.0
O254 O 0.89739 0.41221 0.36454 0.0
C255 C 0.88359 0.41254 0.46103 0.0
O256 O 0.89485 0.38106 0.41496 0.0
Co257 Co 0.91451 0.39129 0.48327 0.0
O258 O 0.9005 0.37004 0.46853 0.0
C259 C 0.9402 0.39956 0.42708 0.0
C260 C 0.90087 0.42887 0.37199 0.0
C261 C 0.89441 0.3683 0.43764 0.0
O262 O 0.92709 0.4026 0.40606 0.0
O263 O 0.93799 0.3964 0.45965 0.0
O264 O 0.8766 0.41315 0.43001 0.0
O265 O 0.90075 0.41043 0.46224 0.0
Co266 Co 0.84479 0.64966 0.66541 0.0
O267 O 0.82008 0.65436 0.65562 0.0
O268 O 0.84024 0.64621 0.61618 0.0
C269 C 0.83939 0.63269 0.71272 0.0
O270 O 0.87127 0.64291 0.66639 0.0
Co271 Co 0.86192 0.66247 0.73482 0.0
O272 O 0.882 0.64658 0.72076 0.0
C273 C 0.85398 0.68862 0.67904 0.0
C274 C 0.82369 0.65028 0.62348 0.0
C275 C 0.88372 0.64108 0.68944 0.0
O276 O 0.85073 0.67573 0.65763 0.0
O277 O 0.85711 0.68612 0.71156 0.0
O278 O 0.83859 0.62563 0.68177 0.0
O279 O 0.84213 0.64976 0.71375 0.0
Co280 Co 0.6011 0.40571 0.58549 0.0
O281 O 0.5973 0.43061 0.59455 0.0
O282 O 0.60356 0.41032 0.63503 0.0
C283 C 0.61935 0.41032 0.54004 0.0
O284 O 0.60679 0.37895 0.58522 0.0
Co285 Co 0.58919 0.38897 0.51543 0.0
O286 O 0.6048 0.36882 0.53013 0.0
C287 C 0.56209 0.39694 0.56943 0.0
C288 C 0.60051 0.42701 0.62703 0.0
C289 C 0.60927 0.36672 0.56196 0.0
O290 O 0.57466 0.40087 0.59114 0.0
O291 O 0.56507 0.3931 0.53736 0.0
O292 O 0.62575 0.41072 0.57152 0.0
O293 O 0.60223 0.40843 0.53708 0.0
Co294 Co 0.84287 0.35181 0.83055 0.0
O295 O 0.81808 0.34674 0.83882 0.0
O296 O 0.83744 0.35519 0.87949 0.0
C297 C 0.83788 0.36859 0.78282 0.0
O298 O 0.86927 0.35899 0.83113 0.0
Co299 Co 0.86141 0.33937 0.76218 0.0
O300 O 0.88065 0.35602 0.77709 0.0
C301 C 0.85342 0.31306 0.81779 0.0
C302 C 0.82108 0.35091 0.87114 0.0
C303 C 0.88189 0.36134 0.8086 0.0
O304 O 0.84911 0.32585 0.83877 0.0
O305 O 0.85729 0.31565 0.7856 0.0
O306 O 0.8365 0.37571 0.81365 0.0
O307 O 0.841 0.35159 0.7821 0.0
Co308 Co 0.89952 0.59488 0.08454 0.0
O309 O 0.90499 0.57026 0.09378 0.0
O310 O 0.89569 0.58979 0.13345 0.0
C311 C 0.88333 0.58928 0.03634 0.0
O312 O 0.89181 0.62112 0.08415 0.0
Co313 Co 0.91241 0.61326 0.01645 0.0
O314 O 0.89508 0.63219 0.02995 0.0
C315 C 0.93822 0.60618 0.07333 0.0
C316 C 0.9004 0.57346 0.12583 0.0
C317 C 0.88938 0.63351 0.0612 0.0
O318 O 0.92526 0.60166 0.09369 0.0
O319 O 0.93598 0.60992 0.04098 0.0
O320 O 0.87595 0.58796 0.06695 0.0
O321 O 0.9003 0.59268 0.0361 0.0
Co322 Co 0.65801 0.65016 0.33582 0.0
O323 O 0.68293 0.65322 0.34558 0.0
O324 O 0.66215 0.64763 0.3855 0.0
C325 C 0.66256 0.63171 0.29061 0.0
O326 O 0.63114 0.6453 0.33488 0.0
Co327 Co 0.6421 0.66216 0.2651 0.0
O328 O 0.62105 0.64776 0.27985 0.0
C329 C 0.65066 0.68928 0.31877 0.0
C330 C 0.67899 0.65015 0.37796 0.0
C331 C 0.61877 0.64341 0.31171 0.0
O332 O 0.65385 0.67675 0.34105 0.0
O333 O 0.64719 0.68619 0.28658 0.0
O334 O 0.66234 0.62533 0.32213 0.0
O335 O 0.66114 0.64886 0.28751 0.0
Co336 Co 0.40011 0.40724 0.09247 0.0
O337 O 0.4043 0.43191 0.10321 0.0
O338 O 0.39687 0.41118 0.14204 0.0
C339 C 0.38291 0.41303 0.04592 0.0
O340 O 0.39393 0.38063 0.09056 0.0
Co341 Co 0.41257 0.39102 0.02219 0.0
O342 O 0.3968 0.37071 0.03548 0.0
C343 C 0.43907 0.3981 0.07783 0.0
C344 C 0.40052 0.4279 0.13528 0.0
C345 C 0.39182 0.36849 0.06701 0.0
O346 O 0.42633 0.40171 0.0994 0.0
O347 O 0.43639 0.39493 0.04539 0.0
O348 O 0.37583 0.41295 0.07688 0.0
O349 O 0.40001 0.41065 0.04426 0.0
Co350 Co 0.34339 0.65201 0.83268 0.0
O351 O 0.31916 0.6582 0.84405 0.0
O352 O 0.33929 0.64805 0.88185 0.0
C353 C 0.33639 0.63589 0.78504 0.0
O354 O 0.36938 0.64367 0.83024 0.0
Co355 Co 0.36067 0.66416 0.76295 0.0
O356 O 0.37987 0.64697 0.77562 0.0
C357 C 0.35547 0.69033 0.82015 0.0
C358 C 0.32296 0.65328 0.87566 0.0
C359 C 0.38152 0.64124 0.8068 0.0
O360 O 0.35103 0.67759 0.84115 0.0
O361 O 0.35841 0.68782 0.78756 0.0
O362 O 0.33553 0.62861 0.81578 0.0
O363 O 0.34016 0.65278 0.78439 0.0
Co364 Co 0.10013 0.59274 0.58266 0.0
O365 O 0.09653 0.5678 0.5918 0.0
O366 O 0.10357 0.58803 0.6319 0.0
C367 C 0.11748 0.58845 0.53554 0.0
O368 O 0.10577 0.61949 0.58221 0.0
Co369 Co 0.08669 0.60965 0.51361 0.0
O370 O 0.10243 0.62986 0.52751 0.0
C371 C 0.0608 0.60132 0.56964 0.0
C372 C 0.10029 0.57136 0.62408 0.0
C373 C 0.10764 0.63183 0.55896 0.0
O374 O 0.07383 0.59754 0.59041 0.0
O375 O 0.0631 0.60512 0.53734 0.0
O376 O 0.12446 0.58785 0.56657 0.0
O377 O 0.10029 0.59028 0.53421 0.0
Co378 Co 0.15692 0.35232 0.33677 0.0
O379 O 0.18159 0.34823 0.34761 0.0
O380 O 0.16064 0.35484 0.38656 0.0
C381 C 0.16263 0.37037 0.29145 0.0
O382 O 0.13027 0.35829 0.33473 0.0
Co383 Co 0.14124 0.3406 0.26569 0.0
O384 O 0.12062 0.35583 0.27941 0.0
C385 C 0.14824 0.31342 0.32009 0.0
C386 C 0.17742 0.3515 0.37982 0.0
C387 C 0.11821 0.3605 0.31106 0.0
O388 O 0.15169 0.32593 0.34224 0.0
O389 O 0.14514 0.31649 0.28775 0.0
O390 O 0.16241 0.37688 0.32286 0.0
O391 O 0.16056 0.35327 0.28858 0.0
Co392 Co 0.40112 0.59669 0.41611 0.0
O393 O 0.40692 0.57198 0.40888 0.0
O394 O 0.39818 0.59069 0.3673 0.0
C395 C 0.3841 0.59175 0.46358 0.0
O396 O 0.39328 0.6229 0.41446 0.0
Co397 Co 0.41274 0.61604 0.48415 0.0
O398 O 0.39563 0.63467 0.4683 0.0
C399 C 0.4395 0.60864 0.42906 0.0
C400 C 0.40285 0.57453 0.37637 0.0
C401 C 0.39048 0.6356 0.43663 0.0
O402 O 0.42695 0.60358 0.4082 0.0
O403 O 0.43668 0.61276 0.46106 0.0
O404 O 0.37728 0.58987 0.43261 0.0
O405 O 0.40103 0.59524 0.46467 0.0
Co406 Co 0.15549 0.65049 0.15641 0.0
O407 O 0.17976 0.6555 0.14362 0.0
O408 O 0.15859 0.64652 0.10686 0.0
C409 C 0.16252 0.63403 0.20325 0.0
O410 O 0.12916 0.64353 0.16057 0.0
Co411 Co 0.14018 0.66352 0.22703 0.0
O412 O 0.11981 0.64744 0.21578 0.0
C413 C 0.14591 0.68942 0.16972 0.0
C414 C 0.1752 0.65111 0.11213 0.0
C415 C 0.11732 0.64175 0.1848 0.0
O416 O 0.14912 0.67643 0.14851 0.0
O417 O 0.14345 0.68711 0.20251 0.0
O418 O 0.16221 0.62663 0.1726 0.0
O419 O 0.15977 0.65108 0.20443 0.0
Co420 Co 0.0993 0.40601 0.91295 0.0
O421 O 0.09497 0.43086 0.90358 0.0
O422 O 0.10285 0.41074 0.86385 0.0
C423 C 0.11628 0.41082 0.96039 0.0
O424 O 0.10579 0.37947 0.91317 0.0
Co425 Co 0.08643 0.38823 0.98159 0.0
O426 O 0.10233 0.36825 0.96716 0.0
C427 C 0.06028 0.39625 0.92579 0.0
C428 C 0.09904 0.42732 0.87139 0.0
C429 C 0.10774 0.36681 0.93573 0.0
O430 O 0.07317 0.40045 0.90495 0.0
O431 O 0.06275 0.39232 0.95797 0.0
O432 O 0.12337 0.41171 0.92946 0.0
O433 O 0.09917 0.40832 0.96144 0.0
Co434 Co 0.34459 0.34948 0.66415 0.0
O435 O 0.31972 0.34478 0.65634 0.0
O436 O 0.33903 0.35274 0.6152 0.0
C437 C 0.34002 0.36655 0.71153 0.0
O438 O 0.37111 0.35622 0.66304 0.0
Co439 Co 0.3631 0.33705 0.73234 0.0
O440 O 0.38255 0.35338 0.717 0.0
C441 C 0.35473 0.31062 0.67722 0.0
C442 C 0.32265 0.3487 0.62388 0.0
C443 C 0.3838 0.35855 0.68538 0.0
O444 O 0.35034 0.32337 0.65627 0.0
O445 O 0.35886 0.31326 0.70927 0.0
O446 O 0.33887 0.37358 0.68059 0.0
O447 O 0.34274 0.34948 0.71268 0.0
H448 H 0.12326 0.07176 0.30958 0.0
H449 H 0.12575 0.04618 0.26964 0.0
H450 H 0.08063 0.02099 0.32047 0.0
H451 H 0.0789 0.04591 0.36155 0.0
H452 H 0.10589 0.99774 0.31213 0.0
H453 H 0.0969 0.03365 0.18646 0.0
H454 H 0.11571 0.04149 0.21122 0.0
H455 H 0.09335 0.04443 0.22796 0.0
C456 C 0.11377 0.06083 0.31177 0.0
C457 C 0.10085 0.06074 0.33839 0.0
C458 C 0.11515 0.04627 0.28892 0.0
C459 C 0.10322 0.03174 0.29172 0.0
C460 C 0.09003 0.03199 0.31785 0.0
H461 H 0.07653 0.95463 0.13605 0.0
H462 H 0.07876 0.97926 0.17771 0.0
C463 C 0.08897 0.04625 0.34117 0.0
C464 C 0.10464 0.01592 0.26847 0.0
H465 H 0.1038 0.00283 0.18325 0.0
C466 C 0.10537 0.99884 0.28391 0.0
C467 C 0.10401 0.01737 0.23169 0.0
C468 C 0.10228 0.0352 0.21333 0.0
C469 C 0.10476 0.98317 0.26374 0.0
C470 C 0.10418 0.98463 0.22695 0.0
C471 C 0.10419 0.00172 0.21147 0.0
C472 C 0.1023 0.9688 0.20385 0.0
C473 C 0.10389 0.96532 0.28224 0.0
C474 C 0.11454 0.95448 0.20511 0.0
C475 C 0.11287 0.94006 0.182 0.0
C476 C 0.09932 0.94011 0.15662 0.0
C477 C 0.08707 0.95433 0.15549 0.0
C478 C 0.08842 0.96843 0.17913 0.0
H479 H 0.0993 0.9668 0.30969 0.0
H480 H 0.0947 0.95594 0.26867 0.0
H481 H 0.11747 0.95928 0.2828 0.0
H482 H 0.12565 0.95467 0.22326 0.0
H483 H 0.12266 0.92935 0.18284 0.0
H484 H 0.20701 0.82801 0.61025 0.0
H485 H 0.23161 0.83204 0.56907 0.0
H486 H 0.20378 0.87668 0.52218 0.0
H487 H 0.17858 0.87204 0.56248 0.0
H488 H 0.21928 0.85795 0.47385 0.0
H489 H 0.2694 0.86931 0.57689 0.0
H490 H 0.25883 0.84805 0.58375 0.0
H491 H 0.24572 0.86833 0.58613 0.0
C492 C 0.20608 0.83857 0.5909 0.0
C493 C 0.19102 0.84979 0.58956 0.0
C494 C 0.22023 0.84101 0.5677 0.0
C495 C 0.21987 0.85511 0.54346 0.0
C496 C 0.20446 0.86589 0.54105 0.0
H497 H 0.32131 0.8752 0.43252 0.0
H498 H 0.29581 0.87877 0.47252 0.0
C499 C 0.19006 0.86318 0.56387 0.0
C500 C 0.2355 0.85818 0.52036 0.0
H501 H 0.2812 0.85971 0.52088 0.0
C502 C 0.2328 0.85862 0.48415 0.0
C503 C 0.25313 0.85976 0.53372 0.0
C504 C 0.2569 0.86157 0.57227 0.0
C505 C 0.24731 0.85935 0.46096 0.0
C506 C 0.265 0.85879 0.47435 0.0
C507 C 0.26767 0.85962 0.51055 0.0
C508 C 0.2808 0.85641 0.45134 0.0
C509 C 0.24345 0.86071 0.42237 0.0
C510 C 0.28116 0.84226 0.42723 0.0
C511 C 0.29547 0.84044 0.40415 0.0
C512 C 0.30998 0.85235 0.40556 0.0
C513 C 0.31026 0.86581 0.43113 0.0
C514 C 0.29568 0.86791 0.45377 0.0
H515 H 0.23059 0.86779 0.41758 0.0
H516 H 0.25428 0.86792 0.40829 0.0
H517 H 0.24217 0.84703 0.41127 0.0
H518 H 0.27024 0.83273 0.42587 0.0
H519 H 0.29508 0.82983 0.38487 0.0
H520 H 0.41124 0.03777 0.61089 0.0
H521 H 0.41077 0.01327 0.65301 0.0
H522 H 0.38849 0.04863 0.73075 0.0
H523 H 0.38888 0.07341 0.68851 0.0
H524 H 0.42841 0.01312 0.72 0.0
H525 H 0.35454 0.00362 0.7285 0.0
H526 H 0.36511 0.01528 0.69265 0.0
H527 H 0.3627 0.02613 0.73417 0.0
C528 C 0.40622 0.04039 0.63693 0.0
C529 C 0.40008 0.05752 0.64643 0.0
C530 C 0.40595 0.02636 0.66091 0.0
C531 C 0.39941 0.02914 0.69473 0.0
C532 C 0.39335 0.04622 0.70452 0.0
H533 H 0.41338 0.96345 0.87682 0.0
H534 H 0.41208 0.98737 0.83351 0.0
C535 C 0.3937 0.06036 0.6805 0.0
C536 C 0.39958 0.01417 0.7199 0.0
H537 H 0.3725 0.98593 0.76611 0.0
C538 C 0.4162 0.00717 0.73011 0.0
C539 C 0.38359 0.00636 0.73256 0.0
C540 C 0.36543 0.01309 0.72131 0.0
C541 C 0.41729 0.99264 0.75318 0.0
C542 C 0.40133 0.98505 0.7664 0.0
C543 C 0.38467 0.99186 0.75583 0.0
C544 C 0.4018 0.97046 0.79232 0.0
C545 C 0.43547 0.98543 0.76318 0.0
C546 C 0.39627 0.95309 0.78339 0.0
C547 C 0.39707 0.93929 0.80809 0.0
C548 C 0.40324 0.94281 0.84207 0.0
C549 C 0.40862 0.96029 0.85083 0.0
C550 C 0.4079 0.97399 0.82616 0.0
H551 H 0.44617 0.99031 0.74539 0.0
H552 H 0.43876 0.98986 0.79007 0.0
H553 H 0.43544 0.97055 0.7629 0.0
H554 H 0.39149 0.9502 0.7573 0.0
H555 H 0.39274 0.92597 0.80071 0.0
H556 H 0.2126 0.15094 0.86263 0.0
H557 H 0.23726 0.14979 0.90405 0.0
H558 H 0.19959 0.14763 0.98942 0.0
H559 H 0.17461 0.14827 0.94771 0.0
H560 H 0.24536 0.17362 0.95407 0.0
H561 H 0.23328 0.10673 0.01307 0.0
H562 H 0.22219 0.11404 0.9737 0.0
H563 H 0.21441 0.12159 0.01562 0.0
C564 C 0.2095 0.15015 0.89021 0.0
C565 C 0.19166 0.14972 0.90197 0.0
C566 C 0.22364 0.14947 0.91384 0.0
C567 C 0.22028 0.14842 0.94975 0.0
C568 C 0.20247 0.14804 0.96173 0.0
H569 H 0.28833 0.15621 0.13009 0.0
H570 H 0.26367 0.15514 0.08837 0.0
C571 C 0.18823 0.14855 0.93795 0.0
C572 C 0.23555 0.14853 0.97436 0.0
H573 H 0.25577 0.12478 0.03953 0.0
C574 C 0.24768 0.16289 0.97263 0.0
C575 C 0.23858 0.13446 -0.0016 0.0
C576 C 0.22654 0.11824 0.00018 0.0
C577 C 0.26264 0.16371 0.99465 0.0
C578 C 0.26552 0.14977 0.0189 0.0
C579 C 0.25345 0.1354 0.02074 0.0
C580 C 0.28064 0.1503 0.04363 0.0
C581 C 0.2751 0.17959 0.99236 0.0
C582 C 0.29833 0.1479 0.03207 0.0
C583 C 0.31253 0.14846 0.05589 0.0
C584 C 0.30916 0.15149 0.09149 0.0
C585 C 0.29139 0.15394 0.1028 0.0
C586 C 0.27726 0.15326 0.07909 0.0
H587 H 0.26952 0.19049 0.97587 0.0
H588 H 0.27789 0.185 0.0188 0.0
H589 H 0.28805 0.17525 0.98087 0.0
H590 H 0.30111 0.14548 0.00473 0.0
H591 H 0.32607 0.14645 0.04649 0.0
H592 H 0.87887 0.92934 0.68612 0.0
H593 H 0.87458 0.95532 0.72452 0.0
H594 H 0.92054 0.98099 0.67768 0.0
H595 H 0.92413 0.95564 0.63809 0.0
H596 H 0.89283 0.97055 0.77255 0.0
H597 H 0.88532 0.02019 0.66727 0.0
H598 H 0.88563 0.99644 0.65874 0.0
H599 H 0.9063 0.00887 0.66219 0.0
C600 C 0.88806 0.94053 0.68428 0.0
C601 C 0.90172 0.94065 0.65908 0.0
C602 C 0.88556 0.95538 0.70603 0.0
C603 C 0.89686 0.97039 0.70315 0.0
C604 C 0.91116 0.96995 0.67935 0.0
H605 H 0.92092 0.04629 0.8621 0.0
H606 H 0.91844 0.02116 0.82167 0.0
C607 C 0.91337 0.95536 0.65709 0.0
C608 C 0.89413 0.98637 0.72552 0.0
H609 H 0.89431 0.03209 0.72353 0.0
C610 C 0.89288 0.984 0.76176 0.0
C611 C 0.8935 0.00394 0.71152 0.0
C612 C 0.89253 0.00747 0.67277 0.0
C613 C 0.89216 0.99871 0.78444 0.0
C614 C 0.89363 0.01626 0.77058 0.0
C615 C 0.89371 0.01865 0.73426 0.0
C616 C 0.89586 0.03218 0.7933 0.0
C617 C 0.88974 0.99521 0.82297 0.0
C618 C 0.88491 0.04736 0.78914 0.0
C619 C 0.8868 0.06208 0.81145 0.0
C620 C 0.8995 0.06166 0.83845 0.0
C621 C 0.91089 0.04681 0.84168 0.0
C622 C 0.9093 0.03235 0.81891 0.0
H623 H 0.88213 0.98262 0.82749 0.0
H624 H 0.90308 0.99358 0.83536 0.0
H625 H 0.88255 0.00638 0.83605 0.0
H626 H 0.8746 0.04764 0.76925 0.0
H627 H 0.87781 0.07339 0.80863 0.0
H628 H 0.78802 0.1568 0.36566 0.0
H629 H 0.76377 0.15479 0.40824 0.0
H630 H 0.80185 0.14141 0.48874 0.0
H631 H 0.82638 0.14334 0.4461 0.0
H632 H 0.75531 0.12334 0.45412 0.0
H633 H 0.77237 0.1865 0.52418 0.0
H634 H 0.78014 0.18197 0.4804 0.0
H635 H 0.79015 0.17064 0.51678 0.0
C636 C 0.7913 0.15347 0.39243 0.0
C637 C 0.80913 0.15033 0.40262 0.0
C638 C 0.77741 0.15226 0.41664 0.0
C639 C 0.78109 0.14804 0.4515 0.0
C640 C 0.79883 0.14481 0.46189 0.0
H641 H 0.71271 0.14867 0.6333 0.0
H642 H 0.73765 0.14689 0.59248 0.0
C643 C 0.81278 0.14592 0.43757 0.0
C644 C 0.76625 0.14732 0.4769 0.0
H645 H 0.74745 0.17031 0.54442 0.0
C646 C 0.75356 0.13353 0.47402 0.0
C647 C 0.76414 0.16066 0.50267 0.0
C648 C 0.77732 0.17588 0.50629 0.0
C649 C 0.73877 0.13265 0.4966 0.0
C650 C 0.73642 0.14625 0.52195 0.0
C651 C 0.74924 0.15995 0.52488 0.0
C652 C 0.72098 0.14645 0.54627 0.0
C653 C 0.72606 0.117 0.49351 0.0
C654 C 0.70326 0.14685 0.53386 0.0
C655 C 0.68888 0.14766 0.55728 0.0
C656 C 0.69206 0.14846 0.59337 0.0
C657 C 0.70981 0.1482 0.60561 0.0
C658 C 0.7241 0.14714 0.58232 0.0
H659 H 0.7325 0.10539 0.48037 0.0
H660 H 0.72119 0.11264 0.51955 0.0
H661 H 0.71432 0.12106 0.47761 0.0
H662 H 0.70055 0.14679 0.5061 0.0
H663 H 0.67533 0.14792 0.54717 0.0
H664 H 0.59687 0.96347 0.37702 0.0
H665 H 0.59829 0.98781 0.33482 0.0
H666 H 0.60569 0.94963 0.25153 0.0
H667 H 0.60471 0.92498 0.29405 0.0
H668 H 0.62851 0.97919 0.24707 0.0
H669 H 0.55822 0.00086 0.26788 0.0
H670 H 0.57098 0.99996 0.30751 0.0
H671 H 0.56664 0.97967 0.28356 0.0
C672 C 0.59874 0.96019 0.34972 0.0
C673 C 0.60047 0.9423 0.33874 0.0
C674 C 0.59948 0.97414 0.32564 0.0
C675 C 0.60169 0.97048 0.29004 0.0
C676 C 0.60382 0.95267 0.27894 0.0
H677 H 0.59932 0.03655 0.10598 0.0
H678 H 0.60079 0.01208 0.14818 0.0
C679 C 0.60322 0.93864 0.30317 0.0
C680 C 0.60179 0.98538 0.26464 0.0
H681 H 0.57689 0.02075 0.23559 0.0
C682 C 0.6172 0.98821 0.24436 0.0
C683 C 0.58698 0.99711 0.26124 0.0
C684 C 0.5697 0.99417 0.28095 0.0
C685 C 0.61829 0.00271 0.22113 0.0
C686 C 0.60359 0.01454 0.21824 0.0
C687 C 0.58819 0.0117 0.23836 0.0
C688 C 0.60354 0.02944 0.19302 0.0
C689 C 0.63515 0.00546 0.20008 0.0
C690 C 0.6044 0.04726 0.20454 0.0
C691 C 0.60362 0.06133 0.18046 0.0
C692 C 0.60168 0.05769 0.14468 0.0
C693 C 0.60073 0.03979 0.1334 0.0
C694 C 0.60169 0.02578 0.15738 0.0
H695 H 0.64637 0.99698 0.2096 0.0
H696 H 0.63249 0.00198 0.1724 0.0
H697 H 0.63933 0.01974 0.20096 0.0
H698 H 0.60569 0.05024 0.2321 0.0
H699 H 0.60439 0.075 0.18985 0.0
H700 H 0.71484 0.84509 0.87241 0.0
H701 H 0.73816 0.84731 0.91677 0.0
H702 H 0.69813 0.85812 0.99518 0.0
H703 H 0.6745 0.85597 0.95071 0.0
H704 H 0.74455 0.87834 0.96512 0.0
H705 H 0.72857 0.8133 0.02961 0.0
H706 H 0.72155 0.81832 0.98556 0.0
H707 H 0.7104 0.82867 0.02179 0.0
C708 C 0.71093 0.84791 0.89909 0.0
C709 C 0.69282 0.85025 0.90817 0.0
C710 C 0.72429 0.84925 0.92431 0.0
C711 C 0.71979 0.85281 0.95908 0.0
C712 C 0.70177 0.85526 0.96838 0.0
H713 H 0.78649 0.85046 0.14341 0.0
H714 H 0.76171 0.85272 0.10229 0.0
C715 C 0.68834 0.85403 0.94303 0.0
C716 C 0.73411 0.85357 0.98551 0.0
H717 H 0.75281 0.82973 0.052 0.0
C718 C 0.74636 0.86781 0.98432 0.0
C719 C 0.73631 0.83977 0.01031 0.0
C720 C 0.72361 0.82405 0.01201 0.0
C721 C 0.76086 0.86863 0.00757 0.0
C722 C 0.76334 0.85457 0.03188 0.0
C723 C 0.7509 0.84046 0.03324 0.0
C724 C 0.77861 0.85419 0.05647 0.0
C725 C 0.77317 0.88466 0.00621 0.0
C726 C 0.79638 0.85423 0.04431 0.0
C727 C 0.81066 0.85309 0.06787 0.0
C728 C 0.80731 0.85159 0.10382 0.0
C729 C 0.78951 0.85149 0.11581 0.0
C730 C 0.77532 0.85282 0.09238 0.0
H731 H 0.76656 0.89637 0.99373 0.0
H732 H 0.77766 0.88859 0.03276 0.0
H733 H 0.78518 0.88125 0.99048 0.0
H734 H 0.79921 0.85482 0.01661 0.0
H735 H 0.82425 0.85312 0.05794 0.0
H736 H 0.60354 0.46245 0.61348 0.0
H737 H 0.60495 0.48707 0.655 0.0
H738 H 0.60035 0.44957 0.74032 0.0
H739 H 0.59958 0.42461 0.69856 0.0
H740 H 0.58002 0.49742 0.69983 0.0
H741 H 0.64191 0.47985 0.77236 0.0
H742 H 0.63573 0.46901 0.73203 0.0
H743 H 0.62546 0.46232 0.77249 0.0
C744 C 0.60292 0.45939 0.6411 0.0
C745 C 0.6014 0.44161 0.65285 0.0
C746 C 0.60376 0.47349 0.66479 0.0
C747 C 0.60297 0.47016 0.70075 0.0
C748 C 0.60141 0.45241 0.71268 0.0
H749 H 0.59073 0.53721 0.88076 0.0
H750 H 0.59267 0.51303 0.83818 0.0
C751 C 0.60082 0.43819 0.68887 0.0
C752 C 0.60284 0.48548 0.7253 0.0
H753 H 0.62413 0.50349 0.7959 0.0
C754 C 0.58976 0.49881 0.72067 0.0
C755 C 0.61561 0.48729 0.75236 0.0
C756 C 0.63058 0.47395 0.75746 0.0
C757 C 0.58887 0.51374 0.74277 0.0
C758 C 0.60142 0.51536 0.77012 0.0
C759 C 0.61456 0.50213 0.77476 0.0
C760 C 0.60049 0.53023 0.7954 0.0
C761 C 0.57428 0.52746 0.73728 0.0
C762 C 0.6043 0.54791 0.78529 0.0
C763 C 0.6032 0.56185 0.80963 0.0
C764 C 0.59827 0.55823 0.84433 0.0
C765 C 0.59449 0.54047 0.8542 0.0
C766 C 0.59566 0.52661 0.82998 0.0
H767 H 0.56393 0.52273 0.71859 0.0
H768 H 0.56768 0.53078 0.76244 0.0
H769 H 0.58028 0.53995 0.72677 0.0
H770 H 0.6082 0.55089 0.75868 0.0
H771 H 0.60628 0.57539 0.80136 0.0
H772 H 0.82291 0.35466 0.9423 0.0
H773 H 0.79767 0.3555 0.98345 0.0
H774 H 0.76061 0.35018 0.89769 0.0
H775 H 0.78556 0.3488 0.85682 0.0
H776 H 0.76923 0.37894 0.98792 0.0
H777 H 0.74464 0.31012 0.96131 0.0
H778 H 0.76627 0.3179 0.94665 0.0
H779 H 0.74632 0.32367 0.92277 0.0
C780 C 0.80937 0.35354 0.93235 0.0
C781 C 0.8062 0.35143 0.89645 0.0
C782 C 0.79499 0.35407 0.9558 0.0
C783 C 0.7773 0.35253 0.94362 0.0
C784 C 0.77416 0.35087 0.90772 0.0
H785 H 0.67303 0.35436 0.04794 0.0
H786 H 0.69689 0.35633 0.00381 0.0
C787 C 0.78846 0.35016 0.8844 0.0
C788 C 0.76205 0.35286 0.96826 0.0
H789 H 0.72569 0.32879 0.99537 0.0
C790 C 0.75975 0.36796 0.98965 0.0
C791 C 0.74966 0.33852 0.97033 0.0
C792 C 0.75191 0.32157 0.94929 0.0
C793 C 0.74531 0.36912 0.01298 0.0
C794 C 0.73297 0.3548 0.01495 0.0
C795 C 0.73513 0.33981 0.99338 0.0
C796 C 0.71853 0.35446 0.04122 0.0
C797 C 0.74327 0.38565 0.03531 0.0
C798 C 0.72291 0.35256 0.07653 0.0
C799 C 0.70943 0.35125 0.10154 0.0
C800 C 0.69129 0.35185 0.09169 0.0
C801 C 0.68689 0.35386 0.05624 0.0
C802 C 0.70046 0.35502 0.0311 0.0
H803 H 0.75136 0.39703 0.02519 0.0
H804 H 0.72901 0.38982 0.03677 0.0
H805 H 0.74788 0.38261 0.06221 0.0
H806 H 0.73679 0.35183 0.0847 0.0
H807 H 0.71327 0.34976 0.12865 0.0
H808 H 0.90009 0.42586 0.30058 0.0
H809 H 0.89954 0.4505 0.25799 0.0
H810 H 0.89818 0.48883 0.34224 0.0
H811 H 0.8993 0.46453 0.38455 0.0
H812 H 0.87506 0.47752 0.24705 0.0
H813 H 0.94049 0.50632 0.2863 0.0
H814 H 0.93318 0.48444 0.30039 0.0
H815 H 0.92521 0.50427 0.32221 0.0
C816 C 0.89975 0.43956 0.30988 0.0
C817 C 0.90002 0.44331 0.3458 0.0
C818 C 0.89941 0.45359 0.28562 0.0
C819 C 0.89926 0.47148 0.29704 0.0
C820 C 0.89886 0.47515 0.33288 0.0
H821 H 0.89364 0.57575 0.19606 0.0
H822 H 0.89241 0.55089 0.23806 0.0
C823 C 0.89943 0.46122 0.35702 0.0
C824 C 0.89942 0.48644 0.27171 0.0
H825 H 0.92225 0.5244 0.24935 0.0
C826 C 0.88544 0.48771 0.24736 0.0
C827 C 0.91299 0.49971 0.27225 0.0
C828 C 0.92891 0.49855 0.29646 0.0
C829 C 0.8845 0.50211 0.22389 0.0
C830 C 0.89791 0.51546 0.22487 0.0
C831 C 0.91189 0.5142 0.24909 0.0
C832 C 0.8982 0.5304 0.19972 0.0
C833 C 0.8691 0.50312 0.19847 0.0
C834 C 0.90212 0.52701 0.16462 0.0
C835 C 0.903 0.54109 0.1408 0.0
C836 C 0.89993 0.55883 0.15169 0.0
C837 C 0.89605 0.56222 0.18697 0.0
C838 C 0.89531 0.54808 0.2109 0.0
H839 H 0.85806 0.49382 0.20564 0.0
H840 H 0.8637 0.51697 0.19715 0.0
H841 H 0.87394 0.49945 0.17203 0.0
H842 H 0.90465 0.51346 0.15571 0.0
H843 H 0.906 0.53803 0.11379 0.0
H844 H 0.71445 0.64644 0.36532 0.0
H845 H 0.73873 0.64438 0.40745 0.0
H846 H 0.70072 0.64919 0.49186 0.0
H847 H 0.67607 0.65066 0.44946 0.0
H848 H 0.74888 0.66924 0.45302 0.0
H849 H 0.73048 0.60702 0.52387 0.0
H850 H 0.72004 0.61344 0.48327 0.0
H851 H 0.71307 0.62361 0.52362 0.0
C852 C 0.7112 0.64698 0.39286 0.0
C853 C 0.69337 0.64879 0.40416 0.0
C854 C 0.72511 0.64575 0.4169 0.0
C855 C 0.72154 0.64643 0.45277 0.0
C856 C 0.70373 0.64822 0.46428 0.0
H857 H 0.78829 0.65672 0.63399 0.0
H858 H 0.76406 0.65507 0.59145 0.0
C859 C 0.6897 0.64922 0.4401 0.0
C860 C 0.73669 0.64631 0.47767 0.0
H861 H 0.75427 0.62436 0.54794 0.0
C862 C 0.75011 0.65935 0.47362 0.0
C863 C 0.73829 0.63334 0.50443 0.0
C864 C 0.7248 0.61845 0.50893 0.0
C865 C 0.76494 0.65997 0.49597 0.0
C866 C 0.7664 0.64719 0.52296 0.0
C867 C 0.75305 0.63411 0.52706 0.0
C868 C 0.78125 0.64777 0.54832 0.0
C869 C 0.77875 0.67454 0.49108 0.0
C870 C 0.79894 0.64413 0.538 0.0
C871 C 0.81289 0.64507 0.5623 0.0
C872 C 0.80929 0.64967 0.59717 0.0
C873 C 0.79153 0.65322 0.60728 0.0
C874 C 0.77764 0.65222 0.58309 0.0
H875 H 0.77406 0.68517 0.47296 0.0
H876 H 0.78219 0.68079 0.51652 0.0
H877 H 0.79118 0.66861 0.48013 0.0
H878 H 0.8019 0.6405 0.51124 0.0
H879 H 0.82644 0.64215 0.55384 0.0
H880 H 0.39792 0.42412 0.20647 0.0
H881 H 0.39704 0.44834 0.25007 0.0
H882 H 0.40044 0.48761 0.16779 0.0
H883 H 0.40151 0.46376 0.12439 0.0
H884 H 0.42571 0.4786 0.25301 0.0
H885 H 0.35539 0.50108 0.23249 0.0
H886 H 0.36276 0.47853 0.22291 0.0
H887 H 0.3685 0.49656 0.19401 0.0
C888 C 0.39844 0.43792 0.19777 0.0
C889 C 0.39985 0.44206 0.16209 0.0
C890 C 0.39791 0.45169 0.22261 0.0
C891 C 0.39849 0.46967 0.21192 0.0
C892 C 0.39979 0.47379 0.17639 0.0
H893 H 0.39699 0.57521 0.30564 0.0
H894 H 0.39622 0.54942 0.26585 0.0
C895 C 0.4005 0.46012 0.1517 0.0
C896 C 0.3986 0.48434 0.23765 0.0
H897 H 0.37399 0.51983 0.26681 0.0
C898 C 0.41437 0.48753 0.25643 0.0
C899 C 0.38384 0.49603 0.24139 0.0
C900 C 0.36658 0.49291 0.22185 0.0
C901 C 0.41595 0.50246 0.27844 0.0
C902 C 0.40116 0.51419 0.2823 0.0
C903 C 0.38531 0.51085 0.2637 0.0
C904 C 0.40179 0.5298 0.30605 0.0
C905 C 0.43363 0.50583 0.29641 0.0
C906 C 0.40498 0.52725 0.34173 0.0
C907 C 0.40561 0.54187 0.36429 0.0
C908 C 0.40278 0.55935 0.3517 0.0
C909 C 0.39933 0.56191 0.31601 0.0
C910 C 0.39883 0.54721 0.29333 0.0
H911 H 0.44485 0.4989 0.28293 0.0
H912 H 0.43669 0.52038 0.29761 0.0
H913 H 0.43295 0.5006 0.3235 0.0
H914 H 0.40683 0.5139 0.35224 0.0
H915 H 0.40807 0.53941 0.39173 0.0
H916 H 0.17738 0.62806 0.05684 0.0
H917 H 0.20278 0.62484 0.01646 0.0
H918 H 0.22847 0.67047 0.06433 0.0
H919 H 0.20374 0.67304 0.10566 0.0
H920 H 0.21758 0.6444 0.96853 0.0
H921 H 0.26781 0.63494 0.07216 0.0
H922 H 0.24409 0.63488 0.08112 0.0
H923 H 0.25633 0.65571 0.07899 0.0
C924 C 0.18843 0.63744 0.05842 0.0
C925 C 0.1888 0.65066 0.08444 0.0
C926 C 0.20295 0.63555 0.03554 0.0
C927 C 0.21783 0.64703 0.03821 0.0
C928 C 0.21753 0.66098 0.06276 0.0
H929 H 0.29345 0.67426 0.88006 0.0
H930 H 0.2682 0.67092 0.92004 0.0
C931 C 0.2033 0.66258 0.08605 0.0
C932 C 0.23365 0.64474 0.01525 0.0
H933 H 0.27936 0.64494 0.01636 0.0
C934 C 0.23109 0.64425 0.979 0.0
C935 C 0.25129 0.64386 0.02883 0.0
C936 C 0.25501 0.64215 0.06742 0.0
C937 C 0.2457 0.64404 0.95597 0.0
C938 C 0.26332 0.64521 0.96959 0.0
C939 C 0.26588 0.64455 0.00584 0.0
C940 C 0.27917 0.6478 0.94681 0.0
C941 C 0.24202 0.64248 0.91736 0.0
C942 C 0.29434 0.63676 0.9502 0.0
C943 C 0.30912 0.63913 0.9282 0.0
C944 C 0.30879 0.65239 0.90223 0.0
C945 C 0.29391 0.6638 0.89967 0.0
C946 C 0.27938 0.66173 0.92217 0.0
H947 H 0.22938 0.63503 0.91245 0.0
H948 H 0.2404 0.65609 0.90609 0.0
H949 H 0.2531 0.63554 0.90351 0.0
H950 H 0.29459 0.62607 0.96932 0.0
H951 H 0.32042 0.6301 0.93049 0.0
H952 H 0.10478 0.42428 0.80096 0.0
H953 H 0.10666 0.44878 0.75826 0.0
H954 H 0.09739 0.48727 0.84021 0.0
H955 H 0.09542 0.46306 0.88284 0.0
H956 H 0.07825 0.4761 0.74706 0.0
H957 H 0.14373 0.50488 0.78777 0.0
H958 H 0.13724 0.4821 0.79767 0.0
H959 H 0.12801 0.50037 0.82229 0.0
C960 C 0.10317 0.43797 0.80982 0.0
C961 C 0.09993 0.44177 0.84519 0.0
C962 C 0.10429 0.45191 0.78548 0.0
C963 C 0.10242 0.46977 0.79632 0.0
C964 C 0.09915 0.47357 0.83154 0.0
H965 H 0.10162 0.57409 0.6955 0.0
H966 H 0.10224 0.54928 0.73771 0.0
C967 C 0.09791 0.4597 0.85577 0.0
C968 C 0.10299 0.48451 0.77073 0.0
H969 H 0.12661 0.52178 0.74732 0.0
C970 C 0.08887 0.48603 0.74685 0.0
C971 C 0.11678 0.49749 0.77102 0.0
C972 C 0.1324 0.49615 0.79586 0.0
C973 C 0.08796 0.50046 0.72351 0.0
C974 C 0.10183 0.51342 0.72355 0.0
C975 C 0.116 0.51185 0.74743 0.0
C976 C 0.10202 0.52844 0.69838 0.0
C977 C 0.07191 0.50193 0.6997 0.0
C978 C 0.1021 0.5249 0.66249 0.0
C979 C 0.10152 0.53892 0.63855 0.0
C980 C 0.10119 0.55681 0.65003 0.0
C981 C 0.10176 0.56042 0.68599 0.0
C982 C 0.10214 0.5463 0.71004 0.0
H983 H 0.06027 0.49428 0.71 0.0
H984 H 0.06782 0.51611 0.69606 0.0
H985 H 0.07537 0.49626 0.67378 0.0
H986 H 0.10254 0.51124 0.65294 0.0
H987 H 0.1014 0.53571 0.61098 0.0
H988 H 0.17342 0.3534 0.45104 0.0
H989 H 0.19752 0.35423 0.49488 0.0
H990 H 0.23703 0.3519 0.41288 0.0
H991 H 0.21331 0.3509 0.36925 0.0
H992 H 0.22795 0.32601 0.49769 0.0
H993 H 0.24996 0.39658 0.47843 0.0
H994 H 0.22753 0.38906 0.46828 0.0
H995 H 0.24577 0.3836 0.43968 0.0
C996 C 0.18725 0.3531 0.44246 0.0
C997 C 0.19149 0.35203 0.40678 0.0
C998 C 0.20094 0.3536 0.46743 0.0
C999 C 0.21895 0.35332 0.45688 0.0
C1000 C 0.22318 0.35233 0.42137 0.0
H1001 H 0.324 0.35465 0.55319 0.0
H1002 H 0.29857 0.35556 0.51254 0.0
C1003 C 0.20959 0.35165 0.39654 0.0
C1004 C 0.23355 0.35322 0.48274 0.0
H1005 H 0.26871 0.378 0.51281 0.0
C1006 C 0.23678 0.3374 0.50138 0.0
C1007 C 0.24511 0.36806 0.48683 0.0
C1008 C 0.24194 0.38537 0.46746 0.0
C1009 C 0.2516 0.33588 0.52365 0.0
C1010 C 0.26318 0.35075 0.5279 0.0
C1011 C 0.25984 0.36663 0.50939 0.0
C1012 C 0.27857 0.35019 0.55215 0.0
C1013 C 0.25502 0.31818 0.54157 0.0
C1014 C 0.27567 0.34711 0.58776 0.0
C1015 C 0.29008 0.34643 0.6108 0.0
C1016 C 0.30768 0.34907 0.59876 0.0
C1017 C 0.31059 0.35246 0.56313 0.0
C1018 C 0.2961 0.35303 0.53997 0.0
H1019 H 0.24821 0.30694 0.52794 0.0
H1020 H 0.26958 0.31522 0.54294 0.0
H1021 H 0.2497 0.31878 0.56859 0.0
H1022 H 0.26221 0.34533 0.59781 0.0
H1023 H 0.28735 0.344 0.63817 0.0
H1024 H 0.11759 0.14594 0.36614 0.0
H1025 H 0.12725 0.17589 0.34828 0.0
H1026 H 0.1292 0.19241 0.45602 0.0
H1027 H 0.1196 0.16253 0.47426 0.0
H1028 H 0.10699 0.2076 0.36583 0.0
H1029 H 0.17724 0.21095 0.41376 0.0
H1030 H 0.16571 0.18998 0.40652 0.0
H1031 H 0.16084 0.2031 0.44462 0.0
C1032 C 0.12034 0.15583 0.38613 0.0
C1033 C 0.11771 0.15182 0.42166 0.0
C1034 C 0.12585 0.17294 0.37584 0.0
C1035 C 0.12906 0.18629 0.40085 0.0
C1036 C 0.12704 0.18221 0.43635 0.0
H1037 H 0.14991 0.30099 0.38759 0.0
H1038 H 0.14579 0.27008 0.4077 0.0
C1039 C 0.12143 0.16514 0.44669 0.0
C1040 C 0.13295 0.20488 0.38966 0.0
H1041 H 0.16459 0.23793 0.3922 0.0
C1042 C 0.11961 0.21421 0.3714 0.0
C1043 C 0.14935 0.21349 0.39743 0.0
C1044 C 0.1642 0.20388 0.41644 0.0
C1045 C 0.12216 0.23202 0.36086 0.0
C1046 C 0.13867 0.24058 0.36806 0.0
C1047 C 0.15198 0.2313 0.38663 0.0
C1048 C 0.14236 0.25906 0.35591 0.0
C1049 C 0.10699 0.24164 0.34271 0.0
C1050 C 0.14227 0.26298 0.32013 0.0
C1051 C 0.14453 0.28057 0.30855 0.0
C1052 C 0.14709 0.29462 0.33254 0.0
C1053 C 0.14788 0.29053 0.36839 0.0
C1054 C 0.14556 0.27288 0.37995 0.0
H1055 H 0.09389 0.23504 0.34769 0.0
H1056 H 0.10612 0.25582 0.35134 0.0
H1057 H 0.10939 0.2415 0.31413 0.0
H1058 H 0.14021 0.25244 0.30112 0.0
H1059 H 0.14404 0.28314 0.28075 0.0
H1060 H 0.95174 0.89535 0.64882 0.0
H1061 H 0.98213 0.89288 0.67261 0.0
H1062 H 0.00381 0.89284 0.56829 0.0
H1063 H 0.97367 0.89532 0.54426 0.0
H1064 H 0.0063 0.86426 0.65717 0.0
H1065 H 0.03481 0.93024 0.62025 0.0
H1066 H 0.01097 0.92608 0.6222 0.0
H1067 H 0.02378 0.91873 0.58512 0.0
C1068 C 0.96298 0.895 0.63093 0.0
C1069 C 0.96024 0.89547 0.59459 0.0
C1070 C 0.98032 0.89361 0.64459 0.0
C1071 C 0.99519 0.89294 0.6222 0.0
C1072 C 0.99252 0.89369 0.58603 0.0
H1073 H 0.10722 0.86804 0.62761 0.0
H1074 H 0.07688 0.87814 0.61358 0.0
C1075 C 0.97525 0.89495 0.57234 0.0
C1076 C 0.01344 0.89005 0.63625 0.0
H1077 H 0.05573 0.90752 0.63692 0.0
C1078 C 0.01707 0.87381 0.65325 0.0
C1079 C 0.02743 0.90252 0.63084 0.0
C1080 C 0.02407 0.92045 0.61389 0.0
C1081 C 0.03452 0.86936 0.66376 0.0
C1082 C 0.04862 0.88168 0.65774 0.0
C1083 C 0.0449 0.89812 0.64146 0.0
C1084 C 0.0674 0.87732 0.66692 0.0
C1085 C 0.03784 0.8512 0.67987 0.0
C1086 C 0.07226 0.87407 0.7017 0.0
C1087 C 0.08955 0.86822 0.70984 0.0
C1088 C 0.10237 0.86562 0.68332 0.0
C1089 C 0.09769 0.86979 0.64868 0.0
C1090 C 0.08036 0.87559 0.64058 0.0
H1091 H 0.02646 0.84187 0.67539 0.0
H1092 H 0.05021 0.84504 0.66912 0.0
H1093 H 0.0396 0.85274 0.70846 0.0
H1094 H 0.06255 0.87569 0.7225 0.0
H1095 H 0.09272 0.86537 0.73684 0.0
H1096 H 0.3859 0.84072 0.97805 0.0
H1097 H 0.37695 0.81053 0.96035 0.0
H1098 H 0.3805 0.82604 0.85221 0.0
H1099 H 0.38946 0.85631 0.86948 0.0
H1100 H 0.34724 0.79849 0.91246 0.0
H1101 H 0.41627 0.78254 0.86718 0.0
H1102 H 0.41152 0.80075 0.89682 0.0
H1103 H 0.4068 0.80313 0.85112 0.0
C1104 C 0.38466 0.83779 0.95047 0.0
C1105 C 0.38859 0.85092 0.92517 0.0
C1106 C 0.37948 0.82054 0.94046 0.0
C1107 C 0.37828 0.81606 0.90504 0.0
C1108 C 0.38153 0.82925 0.87971 0.0
H1109 H 0.36419 0.72062 0.78383 0.0
H1110 H 0.36863 0.75078 0.80638 0.0
C1111 C 0.38659 0.84655 0.88966 0.0
C1112 C 0.37454 0.79737 0.89447 0.0
H1113 H 0.39383 0.76102 0.85574 0.0
C1114 C 0.3574 0.79022 0.90019 0.0
C1115 C 0.3879 0.78667 0.87872 0.0
C1116 C 0.40672 0.79354 0.87326 0.0
C1117 C 0.3531 0.77272 0.88945 0.0
C1118 C 0.36642 0.7621 0.87322 0.0
C1119 C 0.38364 0.76921 0.86812 0.0
C1120 C 0.36272 0.74382 0.85997 0.0
C1121 C 0.33424 0.76593 0.89455 0.0
C1122 C 0.35793 0.72985 0.88269 0.0
C1123 C 0.35534 0.71247 0.86983 0.0
C1124 C 0.35762 0.70876 0.83408 0.0
C1125 C 0.36232 0.72289 0.81149 0.0
C1126 C 0.36487 0.74019 0.82433 0.0
H1127 H 0.3247 0.777 0.90018 0.0
H1128 H 0.32954 0.7586 0.87105 0.0
H1129 H 0.33398 0.7565 0.91694 0.0
H1130 H 0.35652 0.7323 0.9104 0.0
H1131 H 0.35178 0.70192 0.88801 0.0
H1132 H 0.39527 0.13322 0.11285 0.0
H1133 H 0.42487 0.12312 0.09357 0.0
H1134 H 0.4423 0.11975 0.20064 0.0
H1135 H 0.41281 0.12966 0.22025 0.0
H1136 H 0.45657 0.14223 0.10885 0.0
H1137 H 0.4604 0.07235 0.15821 0.0
H1138 H 0.43942 0.08416 0.15318 0.0
H1139 H 0.4536 0.08868 0.19003 0.0
C1140 C 0.40529 0.13004 0.13236 0.0
C1141 C 0.40167 0.13237 0.16811 0.0
C1142 C 0.4222 0.12428 0.12127 0.0
C1143 C 0.4357 0.12052 0.1457 0.0
C1144 C 0.43197 0.12227 0.18139 0.0
H1145 H 0.55065 0.10178 0.13116 0.0
H1146 H 0.51969 0.1052 0.15161 0.0
C1147 C 0.41512 0.12809 0.19252 0.0
C1148 C 0.45416 0.1165 0.13382 0.0
H1149 H 0.48755 0.08521 0.13723 0.0
C1150 C 0.4633 0.12971 0.11479 0.0
C1151 C 0.46295 0.10025 0.14208 0.0
C1152 C 0.45357 0.08546 0.16175 0.0
C1153 C 0.48108 0.12721 0.10409 0.0
C1154 C 0.48984 0.11089 0.11199 0.0
C1155 C 0.48076 0.09769 0.13119 0.0
C1156 C 0.50833 0.10731 0.09983 0.0
C1157 C 0.49048 0.14224 0.08505 0.0
C1158 C 0.51207 0.10686 0.064 0.0
C1159 C 0.52967 0.10503 0.05224 0.0
C1160 C 0.54392 0.10344 0.07612 0.0
C1161 C 0.54002 0.10307 0.11207 0.0
C1162 C 0.52235 0.105 0.12382 0.0
H1163 H 0.48367 0.15531 0.08918 0.0
H1164 H 0.50463 0.14346 0.09368 0.0
H1165 H 0.49043 0.13937 0.05663 0.0
H1166 H 0.50138 0.10825 0.04507 0.0
H1167 H 0.53209 0.10511 0.02438 0.0
H1168 H 0.14794 0.70034 0.1013 0.0
H1169 H 0.14516 0.73093 0.07873 0.0
H1170 H 0.13826 0.75083 0.1835 0.0
H1171 H 0.14112 0.7205 0.20638 0.0
H1172 H 0.11527 0.75384 0.08807 0.0
H1173 H 0.17713 0.7839 0.14281 0.0
H1174 H 0.17391 0.75998 0.13922 0.0
H1175 H 0.16371 0.77224 0.17441 0.0
C1176 C 0.14597 0.71124 0.11961 0.0
C1177 C 0.14476 0.70792 0.15571 0.0
C1178 C 0.1444 0.72869 0.10662 0.0
C1179 C 0.14179 0.74314 0.1295 0.0
C1180 C 0.14065 0.7399 0.16547 0.0
H1181 H 0.11519 0.85486 0.12282 0.0
H1182 H 0.1247 0.82446 0.13783 0.0
C1183 C 0.14216 0.7225 0.17848 0.0
C1184 C 0.13912 0.76151 0.11585 0.0
H1185 H 0.15503 0.80431 0.12141 0.0
C1186 C 0.12408 0.76486 0.09492 0.0
C1187 C 0.15061 0.77582 0.12503 0.0
C1188 C 0.16734 0.77283 0.14634 0.0
C1189 C 0.11979 0.78229 0.08404 0.0
C1190 C 0.13111 0.79669 0.09375 0.0
C1191 C 0.14638 0.79326 0.11404 0.0
C1192 C 0.12684 0.81547 0.0843 0.0
C1193 C 0.10278 0.78523 0.06349 0.0
C1194 C 0.12545 0.82065 0.04921 0.0
C1195 C 0.1199 0.83797 0.04051 0.0
C1196 C 0.11583 0.85052 0.06679 0.0
C1197 C 0.11814 0.84554 0.10192 0.0
C1198 C 0.12358 0.82817 0.11057 0.0
H1199 H 0.09352 0.77361 0.06554 0.0
H1200 H 0.09565 0.79742 0.0726 0.0
H1201 H 0.10619 0.78707 0.03552 0.0
H1202 H 0.12833 0.81119 0.02852 0.0
H1203 H 0.11852 0.84141 0.01318 0.0
H1204 H 0.54934 0.90219 0.3485 0.0
H1205 H 0.51879 0.90093 0.32507 0.0
H1206 H 0.4982 0.89069 0.42832 0.0
H1207 H 0.52842 0.89204 0.45201 0.0
H1208 H 0.49548 0.8714 0.3295 0.0
H1209 H 0.46563 0.93102 0.39302 0.0
H1210 H 0.48955 0.9277 0.38957 0.0
H1211 H 0.47695 0.91643 0.42305 0.0
C1212 C 0.53829 0.89983 0.36629 0.0
C1213 C 0.54138 0.89721 0.40218 0.0
C1214 C 0.52086 0.89914 0.35283 0.0
C1215 C 0.50623 0.89603 0.37506 0.0
C1216 C 0.50926 0.89352 0.41083 0.0
H1217 H 0.39537 0.86827 0.36995 0.0
H1218 H 0.4257 0.87834 0.38396 0.0
C1219 C 0.52661 0.89415 0.42428 0.0
C1220 C 0.48788 0.89406 0.36087 0.0
H1221 H 0.44501 0.90938 0.37005 0.0
C1222 C 0.48447 0.87987 0.33785 0.0
C1223 C 0.47357 0.90511 0.37198 0.0
C1224 C 0.4766 0.92103 0.39551 0.0
C1225 C 0.46697 0.87583 0.32698 0.0
C1226 C 0.45256 0.88657 0.33889 0.0
C1227 C 0.45606 0.90114 0.36103 0.0
C1228 C 0.43369 0.88223 0.33018 0.0
C1229 C 0.464 0.85958 0.30424 0.0
C1230 C 0.42792 0.88167 0.29536 0.0
C1231 C 0.41065 0.87577 0.28722 0.0
C1232 C 0.39871 0.87054 0.31382 0.0
C1233 C 0.40421 0.87212 0.3488 0.0
C1234 C 0.42155 0.87788 0.35688 0.0
H1235 H 0.47579 0.85047 0.3043 0.0
H1236 H 0.45208 0.8519 0.31301 0.0
H1237 H 0.46167 0.86398 0.27695 0.0
H1238 H 0.43692 0.88542 0.2744 0.0
H1239 H 0.40677 0.87498 0.26003 0.0
H1240 H 0.37964 0.16101 0.51612 0.0
H1241 H 0.37063 0.19085 0.5358 0.0
H1242 H 0.37456 0.17359 0.64288 0.0
H1243 H 0.3836 0.14367 0.62362 0.0
H1244 H 0.34136 0.20265 0.58524 0.0
H1245 H 0.41105 0.21662 0.62909 0.0
H1246 H 0.40572 0.19891 0.5987 0.0
H1247 H 0.40126 0.19604 0.6444 0.0
C1248 C 0.37842 0.16346 0.54387 0.0
C1249 C 0.38257 0.14997 0.5683 0.0
C1250 C 0.3732 0.18051 0.55502 0.0
C1251 C 0.37215 0.18441 0.59072 0.0
C1252 C 0.37546 0.17082 0.61518 0.0
H1253 H 0.36214 0.28007 0.71388 0.0
H1254 H 0.36489 0.24963 0.69162 0.0
C1255 C 0.38058 0.15372 0.60409 0.0
C1256 C 0.36881 0.20299 0.60243 0.0
H1257 H 0.38925 0.23857 0.64157 0.0
C1258 C 0.35179 0.21057 0.59751 0.0
C1259 C 0.38253 0.21324 0.61814 0.0
C1260 C 0.40123 0.20591 0.62274 0.0
C1261 C 0.34799 0.22808 0.60887 0.0
C1262 C 0.36169 0.23826 0.62492 0.0
C1263 C 0.37876 0.2307 0.62937 0.0
C1264 C 0.35865 0.25665 0.63821 0.0
C1265 C 0.32927 0.23537 0.60446 0.0
C1266 C 0.35418 0.27073 0.61552 0.0
C1267 C 0.35256 0.28825 0.62817 0.0
C1268 C 0.35554 0.292 0.66372 0.0
C1269 C 0.35979 0.27776 0.68635 0.0
C1270 C 0.36136 0.26031 0.6737 0.0
H1271 H 0.3194 0.22454 0.59927 0.0
H1272 H 0.325 0.24286 0.62807 0.0
H1273 H 0.32905 0.24476 0.582 0.0
H1274 H 0.35237 0.26824 0.58789 0.0
H1275 H 0.34932 0.29888 0.60998 0.0
H1276 H 0.10379 0.13862 0.87944 0.0
H1277 H 0.0736 0.12996 0.89797 0.0
H1278 H 0.05822 0.12238 0.79055 0.0
H1279 H 0.0883 0.13103 0.77167 0.0
H1280 H 0.04147 0.1491 0.87381 0.0
H1281 H 0.04023 0.07626 0.84287 0.0
H1282 H 0.06085 0.0885 0.84947 0.0
H1283 H 0.04869 0.0909 0.80935 0.0
C1284 C 0.09409 0.13486 0.85974 0.0
C1285 C 0.09847 0.1356 0.82404 0.0
C1286 C 0.07684 0.12994 0.8704 0.0
C1287 C 0.06377 0.12542 0.84563 0.0
C1288 C 0.06821 0.12561 0.81008 0.0
H1289 H 0.94948 0.10197 0.85891 0.0
H1290 H 0.98038 0.10636 0.83897 0.0
C1291 C 0.08539 0.13067 0.79936 0.0
C1292 C 0.0451 0.12187 0.85675 0.0
H1293 H 0.01282 0.08948 0.86043 0.0
C1294 C 0.03521 0.13605 0.87107 0.0
C1295 C 0.03698 0.10489 0.85268 0.0
C1296 C 0.04721 0.08918 0.83798 0.0
C1297 C 0.0173 0.13375 0.88125 0.0
C1298 C 0.00923 0.11669 0.87775 0.0
C1299 C 0.01907 0.10252 0.86313 0.0
C1300 C 0.99069 0.11329 0.88996 0.0
C1301 C 0.00707 0.14971 0.89503 0.0
C1302 C 0.98638 0.11536 0.92533 0.0
C1303 C 0.9688 0.11293 0.93684 0.0
C1304 C 0.95514 0.10824 0.91319 0.0
C1305 C 0.95963 0.10567 0.87785 0.0
C1306 C 0.97727 0.10813 0.86635 0.0
H1307 H 0.01345 0.16256 0.88725 0.0
H1308 H 0.99302 0.14964 0.88552 0.0
H1309 H 0.00681 0.14915 0.92397 0.0
H1310 H 0.99662 0.11899 0.94409 0.0
H1311 H 0.96594 0.11488 0.96426 0.0
H1312 H 0.85212 0.71959 0.71668 0.0
H1313 H 0.8553 0.75023 0.69547 0.0
H1314 H 0.86133 0.73059 0.59023 0.0
H1315 H 0.85765 0.6998 0.61115 0.0
H1316 H 0.8845 0.76377 0.66439 0.0
H1317 H 0.82624 0.77112 0.57566 0.0
H1318 H 0.82814 0.75289 0.60641 0.0
H1319 H 0.84016 0.75218 0.56572 0.0
C1320 C 0.85392 0.72176 0.68894 0.0
C1321 C 0.8547 0.70723 0.66562 0.0
C1322 C 0.8557 0.73931 0.67686 0.0
C1323 C 0.85836 0.74274 0.64123 0.0
C1324 C 0.85886 0.7283 0.61773 0.0
H1325 H 0.89129 0.83645 0.52536 0.0
H1326 H 0.88118 0.80685 0.54404 0.0
C1327 C 0.85688 0.7107 0.62977 0.0
C1328 C 0.86205 0.76132 0.62939 0.0
H1329 H 0.84832 0.79422 0.5734 0.0
C1330 C 0.87648 0.77047 0.64471 0.0
C1331 C 0.85165 0.77 0.60355 0.0
C1332 C 0.83558 0.76112 0.58708 0.0
C1333 C 0.88097 0.78796 0.63461 0.0
C1334 C 0.87059 0.79664 0.60878 0.0
C1335 C 0.85619 0.78752 0.59332 0.0
C1336 C 0.87496 0.81501 0.59682 0.0
C1337 C 0.89708 0.79681 0.65105 0.0
C1338 C 0.87431 0.82953 0.62007 0.0
C1339 C 0.88016 0.8465 0.60955 0.0
C1340 C 0.88669 0.84927 0.57551 0.0
C1341 C 0.88649 0.83482 0.55184 0.0
C1342 C 0.88066 0.81788 0.56241 0.0
H1343 H 0.90593 0.78694 0.66426 0.0
H1344 H 0.90507 0.80414 0.63117 0.0
H1345 H 0.89249 0.80662 0.67089 0.0
H1346 H 0.86965 0.82764 0.64658 0.0
H1347 H 0.87995 0.85732 0.6284 0.0
H1348 H 0.91013 0.12931 0.26743 0.0
H1349 H 0.93992 0.11889 0.28396 0.0
H1350 H 0.92601 0.12424 0.39273 0.0
H1351 H 0.896 0.13444 0.37648 0.0
H1352 H 0.96397 0.13906 0.32001 0.0
H1353 H 0.95084 0.07573 0.39115 0.0
H1354 H 0.93428 0.08625 0.36355 0.0
H1355 H 0.93795 0.09428 0.40724 0.0
C1356 C 0.91327 0.12803 0.29492 0.0
C1357 C 0.90067 0.13284 0.32065 0.0
C1358 C 0.93032 0.12204 0.30429 0.0
C1359 C 0.93515 0.12065 0.33955 0.0
C1360 C 0.92246 0.12486 0.36536 0.0
H1361 H 0.03172 0.11153 0.45814 0.0
H1362 H 0.00122 0.11392 0.43595 0.0
C1363 C 0.90532 0.13079 0.35601 0.0
C1364 C 0.95394 0.11649 0.34914 0.0
H1365 H 0.98001 0.08859 0.39827 0.0
C1366 C 0.96751 0.12788 0.33676 0.0
C1367 C 0.95852 0.10192 0.37102 0.0
C1368 C 0.94465 0.08873 0.38376 0.0
C1369 C 0.98545 0.12549 0.34663 0.0
C1370 C 0.98996 0.11117 0.36912 0.0
C1371 C 0.97647 0.09955 0.381 0.0
C1372 C 0.00845 0.10872 0.38225 0.0
C1373 C 0.99932 0.13872 0.33401 0.0
C1374 C 0.02261 0.10472 0.3594 0.0
C1375 C 0.04016 0.10338 0.37199 0.0
C1376 C 0.04383 0.10598 0.40767 0.0
C1377 C 0.02948 0.10956 0.43051 0.0
C1378 C 0.01199 0.11087 0.4179 0.0
H1379 H 0.99311 0.15094 0.32268 0.0
H1380 H 0.00832 0.14279 0.35568 0.0
H1381 H 0.00765 0.13233 0.3135 0.0
H1382 H 0.0201 0.10276 0.33183 0.0
H1383 H 0.05085 0.10048 0.35367 0.0
H1384 H 0.65268 0.27934 0.21281 0.0
H1385 H 0.64966 0.24872 0.19141 0.0
H1386 H 0.64276 0.26858 0.08653 0.0
H1387 H 0.6462 0.29934 0.10762 0.0
H1388 H 0.62004 0.23531 0.16069 0.0
H1389 H 0.67801 0.22807 0.07113 0.0
H1390 H 0.67629 0.24614 0.10229 0.0
H1391 H 0.66419 0.24715 0.06174 0.0
C1392 C 0.65075 0.27723 0.18509 0.0
C1393 C 0.64961 0.29182 0.16194 0.0
C1394 C 0.64906 0.25969 0.17291 0.0
C1395 C 0.64616 0.25633 0.13735 0.0
C1396 C 0.6454 0.27082 0.11397 0.0
H1397 H 0.61331 0.16417 0.01794 0.0
H1398 H 0.62332 0.19343 0.03855 0.0
C1399 C 0.64726 0.28841 0.12611 0.0
C1400 C 0.6424 0.2378 0.12545 0.0
H1401 H 0.65571 0.20518 0.06851 0.0
C1402 C 0.62795 0.22866 0.14076 0.0
C1403 C 0.65267 0.22919 0.09932 0.0
C1404 C 0.66876 0.23806 0.08287 0.0
C1405 C 0.62325 0.21129 0.13023 0.0
C1406 C 0.63346 0.2027 0.10401 0.0
C1407 C 0.64796 0.21179 0.08872 0.0
C1408 C 0.62878 0.18456 0.09122 0.0
C1409 C 0.60705 0.20251 0.14654 0.0
C1410 C 0.62896 0.16975 0.11381 0.0
C1411 C 0.62314 0.15296 0.10219 0.0
C1412 C 0.61716 0.15066 0.06765 0.0
C1413 C 0.61771 0.16542 0.04476 0.0
C1414 C 0.62348 0.18218 0.05644 0.0
H1415 H 0.59831 0.2124 0.15998 0.0
H1416 H 0.59897 0.19539 0.12655 0.0
H1417 H 0.61154 0.19255 0.16617 0.0
H1418 H 0.63334 0.17124 0.1406 0.0
H1419 H 0.62307 0.14187 0.12046 0.0
H1420 H 0.60776 0.86567 0.87657 0.0
H1421 H 0.57778 0.87602 0.89268 0.0
H1422 H 0.56202 0.87524 0.78443 0.0
H1423 H 0.59181 0.86461 0.76805 0.0
H1424 H 0.55742 0.90598 0.8728 0.0
H1425 H 0.52516 0.84244 0.83068 0.0
H1426 H 0.5491 0.84463 0.83557 0.0
H1427 H 0.53812 0.85338 0.79743 0.0
C1428 C 0.59797 0.86779 0.85612 0.0
C1429 C 0.60216 0.86405 0.82104 0.0
C1430 C 0.58084 0.87373 0.8654 0.0
C1431 C 0.56759 0.87605 0.83982 0.0
C1432 C 0.57194 0.87313 0.80466 0.0
H1433 H 0.45328 0.89956 0.85719 0.0
H1434 H 0.48381 0.89596 0.83485 0.0
C1435 C 0.58902 0.86711 0.79536 0.0
C1436 C 0.54906 0.88094 0.85009 0.0
H1437 H 0.50594 0.8656 0.84966 0.0
C1438 C 0.54615 0.89718 0.86771 0.0
C1439 C 0.53439 0.86941 0.84342 0.0
C1440 C 0.5368 0.85142 0.82602 0.0
C1441 C 0.52892 0.90221 0.87878 0.0
C1442 C 0.51432 0.89059 0.87239 0.0
C1443 C 0.51718 0.87451 0.85432 0.0
C1444 C 0.4961 0.89433 0.88586 0.0
C1445 C 0.52642 0.91993 0.89708 0.0
C1446 C 0.49295 0.89459 0.92193 0.0
C1447 C 0.47554 0.89653 0.93482 0.0
C1448 C 0.46092 0.89822 0.91184 0.0
C1449 C 0.46421 0.89833 0.87565 0.0
C1450 C 0.48163 0.89627 0.8628 0.0
H1451 H 0.5378 0.92919 0.89201 0.0
H1452 H 0.51379 0.92651 0.88866 0.0
H1453 H 0.52562 0.91761 0.92565 0.0
H1454 H 0.5039 0.8928 0.94015 0.0
H1455 H 0.47355 0.89641 0.96281 0.0
H1456 H 0.8499 0.30155 0.88571 0.0
H1457 H 0.85345 0.27089 0.90773 0.0
H1458 H 0.86239 0.25195 0.80286 0.0
H1459 H 0.85912 0.28234 0.78064 0.0
H1460 H 0.83502 0.23835 0.89073 0.0
H1461 H 0.90718 0.23538 0.85629 0.0
H1462 H 0.89481 0.25615 0.85786 0.0
H1463 H 0.893 0.24168 0.82049 0.0
C1464 C 0.85257 0.29085 0.8673 0.0
C1465 C 0.85446 0.29448 0.83141 0.0
C1466 C 0.85456 0.27336 0.87996 0.0
C1467 C 0.85849 0.25926 0.85696 0.0
C1468 C 0.85972 0.26273 0.8211 0.0
H1469 H 0.88215 0.14647 0.86794 0.0
H1470 H 0.87302 0.17661 0.85039 0.0
C1471 C 0.8578 0.28014 0.80845 0.0
C1472 C 0.86177 0.24092 0.87024 0.0
H1473 H 0.89335 0.20786 0.87215 0.0
C1474 C 0.84779 0.23169 0.88695 0.0
C1475 C 0.87849 0.23235 0.86538 0.0
C1476 C 0.8943 0.24194 0.84934 0.0
C1477 C 0.84996 0.21385 0.89795 0.0
C1478 C 0.86655 0.20518 0.89226 0.0
C1479 C 0.88058 0.21452 0.87609 0.0
C1480 C 0.86986 0.18645 0.90312 0.0
C1481 C 0.83443 0.20423 0.91479 0.0
C1482 C 0.8709 0.18199 0.9386 0.0
C1483 C 0.8762 0.1648 0.94879 0.0
C1484 C 0.8806 0.15177 0.92361 0.0
C1485 C 0.87887 0.15614 0.88805 0.0
C1486 C 0.87366 0.17336 0.87792 0.0
H1487 H 0.8216 0.21155 0.91115 0.0
H1488 H 0.83301 0.19051 0.90389 0.0
H1489 H 0.83697 0.20294 0.94322 0.0
H1490 H 0.86825 0.192 0.95843 0.0
H1491 H 0.87732 0.1619 0.97639 0.0
H1492 H 0.60318 0.13663 0.61471 0.0
H1493 H 0.57303 0.12726 0.59725 0.0
H1494 H 0.56024 0.1152 0.70449 0.0
H1495 H 0.59011 0.12493 0.72229 0.0
H1496 H 0.55371 0.09574 0.60457 0.0
H1497 H 0.52148 0.15097 0.67889 0.0
H1498 H 0.54532 0.15011 0.67129 0.0
H1499 H 0.53533 0.13652 0.70485 0.0
C1500 C 0.59401 0.13184 0.63455 0.0
C1501 C 0.59896 0.13179 0.66996 0.0
C1502 C 0.57678 0.1265 0.62453 0.0
C1503 C 0.56426 0.12095 0.64969 0.0
C1504 C 0.56952 0.11992 0.68477 0.0
H1505 H 0.44979 0.09717 0.63164 0.0
H1506 H 0.48059 0.09949 0.65321 0.0
C1507 C 0.58664 0.12541 0.69486 0.0
C1508 C 0.54555 0.11687 0.63938 0.0
H1509 H 0.5022 0.13025 0.65145 0.0
C1510 C 0.54244 0.10326 0.61484 0.0
C1511 C 0.53085 0.12669 0.6529 0.0
C1512 C 0.53336 0.14199 0.6782 0.0
C1513 C 0.52503 0.0992 0.60342 0.0
C1514 C 0.5104 0.1092 0.61655 0.0
C1515 C 0.51345 0.12256 0.64157 0.0
C1516 C 0.49193 0.10678 0.6032 0.0
C1517 C 0.52242 0.0842 0.57752 0.0
C1518 C 0.4881 0.11026 0.56804 0.0
C1519 C 0.47057 0.109 0.55562 0.0
C1520 C 0.45642 0.10433 0.5782 0.0
C1521 C 0.46033 0.10078 0.61348 0.0
C1522 C 0.47792 0.10208 0.62589 0.0
H1523 H 0.53387 0.07468 0.57783 0.0
H1524 H 0.50989 0.07667 0.58299 0.0
H1525 H 0.52144 0.08993 0.55086 0.0
H1526 H 0.49865 0.11432 0.55027 0.0
H1527 H 0.46812 0.1119 0.52836 0.0
H1528 H 0.64907 0.70168 0.38621 0.0
H1529 H 0.6446 0.7327 0.40534 0.0
H1530 H 0.64657 0.7505 0.29833 0.0
H1531 H 0.65067 0.71965 0.2789 0.0
H1532 H 0.66422 0.76454 0.39605 0.0
H1533 H 0.59779 0.76843 0.33134 0.0
H1534 H 0.6095 0.74752 0.33763 0.0
H1535 H 0.61571 0.76226 0.30248 0.0
C1536 C 0.64871 0.71221 0.36675 0.0
C1537 C 0.64996 0.70813 0.33096 0.0
C1538 C 0.64616 0.72992 0.37775 0.0
C1539 C 0.64486 0.74383 0.35318 0.0
C1540 C 0.64708 0.73991 0.31765 0.0
H1541 H 0.61771 0.85689 0.36413 0.0
H1542 H 0.62878 0.82746 0.34604 0.0
C1543 C 0.64948 0.72225 0.30662 0.0
C1544 C 0.64047 0.76232 0.36445 0.0
H1545 H 0.60926 0.79542 0.35486 0.0
C1546 C 0.65219 0.7713 0.38714 0.0
C1547 C 0.62472 0.77107 0.35288 0.0
C1548 C 0.6111 0.76179 0.33001 0.0
C1549 C 0.64873 0.78895 0.39807 0.0
C1550 C 0.63305 0.79771 0.38625 0.0
C1551 C 0.62135 0.78872 0.3636 0.0
C1552 C 0.62808 0.816 0.39788 0.0
C1553 C 0.66198 0.79818 0.42172 0.0
C1554 C 0.62408 0.81932 0.43306 0.0
C1555 C 0.61769 0.83609 0.4435 0.0
C1556 C 0.61509 0.84988 0.41891 0.0
C1557 C 0.61954 0.84662 0.38379 0.0
C1558 C 0.62588 0.8298 0.37337 0.0
H1559 H 0.67531 0.79154 0.42111 0.0
H1560 H 0.66365 0.81247 0.41427 0.0
H1561 H 0.65694 0.79771 0.44896 0.0
H1562 H 0.62537 0.80876 0.4523 0.0
H1563 H 0.61444 0.83809 0.47077 0.0
H1564 H 0.9132 0.86239 0.23158 0.0
H1565 H 0.94272 0.87244 0.21258 0.0
H1566 H 0.92353 0.87685 0.10678 0.0
H1567 H 0.89378 0.86699 0.12556 0.0
H1568 H 0.96407 0.85485 0.165 0.0
H1569 H 0.95012 0.92427 0.12064 0.0
H1570 H 0.93475 0.91177 0.14775 0.0
H1571 H 0.93576 0.90763 0.10157 0.0
C1572 C 0.91513 0.86567 0.20428 0.0
C1573 C 0.90107 0.8638 0.18006 0.0
C1574 C 0.93205 0.87144 0.19352 0.0
C1575 C 0.93528 0.87556 0.15837 0.0
C1576 C 0.92123 0.87407 0.13418 0.0
H1577 H 0.02954 0.89431 0.03398 0.0
H1578 H 0.99927 0.89008 0.05673 0.0
C1579 C 0.90425 0.86832 0.14492 0.0
C1580 C 0.95368 0.8801 0.14678 0.0
H1581 H 0.9787 0.91216 0.10581 0.0
C1582 C 0.96731 0.86745 0.15234 0.0
C1583 C 0.95783 0.89653 0.13022 0.0
C1584 C 0.9439 0.91092 0.12494 0.0
C1585 C 0.98491 0.8706 0.14109 0.0
C1586 C 0.98902 0.88694 0.12424 0.0
C1587 C 0.97546 0.89967 0.11883 0.0
C1588 C 0.00725 0.89071 0.11095 0.0
C1589 C 0.99889 0.85624 0.14643 0.0
C1590 C 0.02169 0.8928 0.13402 0.0
C1591 C 0.03906 0.89525 0.12114 0.0
C1592 C 0.04227 0.8956 0.08494 0.0
C1593 C 0.02762 0.89398 0.06199 0.0
C1594 C 0.01028 0.89162 0.07491 0.0
H1595 H 0.99282 0.84317 0.1537 0.0
H1596 H 0.00701 0.8544 0.1224 0.0
H1597 H 0.00808 0.86037 0.16773 0.0
H1598 H 0.01955 0.89233 0.16196 0.0
H1599 H 0.04999 0.89654 0.13958 0.0
H1600 H 0.65244 0.79854 0.89434 0.0
H1601 H 0.64951 0.76801 0.91724 0.0
H1602 H 0.64197 0.74796 0.81274 0.0
H1603 H 0.64503 0.77816 0.78959 0.0
H1604 H 0.61941 0.74605 0.90927 0.0
H1605 H 0.67942 0.71356 0.85234 0.0
H1606 H 0.67703 0.73761 0.85525 0.0
H1607 H 0.6662 0.72539 0.82071 0.0
C1608 C 0.65037 0.78761 0.87617 0.0
C1609 C 0.64895 0.79086 0.84009 0.0
C1610 C 0.64871 0.77018 0.88933 0.0
C1611 C 0.64582 0.7557 0.86663 0.0
C1612 C 0.64462 0.75887 0.83066 0.0
H1613 H 0.61364 0.64539 0.87272 0.0
H1614 H 0.62463 0.67532 0.85765 0.0
C1615 C 0.64622 0.77623 0.8175 0.0
C1616 C 0.6426 0.73744 0.88043 0.0
H1617 H 0.65634 0.69393 0.87321 0.0
C1618 C 0.62762 0.73467 0.90188 0.0
C1619 C 0.65331 0.72264 0.8705 0.0
C1620 C 0.66999 0.72494 0.8487 0.0
C1621 C 0.62259 0.71739 0.91249 0.0
C1622 C 0.63306 0.70253 0.90193 0.0
C1623 C 0.64831 0.70534 0.88118 0.0
C1624 C 0.62797 0.68392 0.91119 0.0
C1625 C 0.60566 0.71516 0.93366 0.0
C1626 C 0.62675 0.67866 0.94625 0.0
C1627 C 0.62035 0.66164 0.95495 0.0
C1628 C 0.61524 0.64946 0.92873 0.0
C1629 C 0.61738 0.65445 0.89356 0.0
C1630 C 0.62366 0.67155 0.88489 0.0
H1631 H 0.59697 0.72723 0.93229 0.0
H1632 H 0.59784 0.70341 0.92454 0.0
H1633 H 0.60925 0.71295 0.96143 0.0
H1634 H 0.63042 0.68784 0.96693 0.0
H1635 H 0.61916 0.65815 0.9823 0.0
H1636 H 0.46998 0.39577 0.03972 0.0
H1637 H 0.50043 0.39128 0.06136 0.0
H1638 H 0.48103 0.39273 0.16727 0.0
H1639 H 0.4504 0.39732 0.14601 0.0
H1640 H 0.52087 0.41392 0.11702 0.0
H1641 H 0.50782 0.34215 0.14852 0.0
H1642 H 0.49475 0.35423 0.11656 0.0
H1643 H 0.49156 0.35858 0.16215 0.0
C1644 C 0.47214 0.39527 0.06765 0.0
C1645 C 0.45769 0.39677 0.09112 0.0
C1646 C 0.48957 0.39277 0.07992 0.0
C1647 C 0.49288 0.39159 0.11581 0.0
C1648 C 0.47865 0.39356 0.13943 0.0
H1649 H 0.58772 0.35801 0.22883 0.0
H1650 H 0.55783 0.36817 0.2124 0.0
C1651 C 0.46119 0.3962 0.12721 0.0
C1652 C 0.51112 0.38741 0.12832 0.0
H1653 H 0.5367 0.35322 0.16008 0.0
C1654 C 0.52438 0.40069 0.12659 0.0
C1655 C 0.51554 0.37013 0.14064 0.0
C1656 C 0.50176 0.35534 0.14203 0.0
C1657 C 0.54206 0.39713 0.13715 0.0
C1658 C 0.54655 0.37975 0.14901 0.0
C1659 C 0.5332 0.36653 0.15098 0.0
C1660 C 0.56505 0.37483 0.15929 0.0
C1661 C 0.5557 0.41204 0.13599 0.0
C1662 C 0.57906 0.37521 0.13482 0.0
C1663 C 0.59623 0.36937 0.14409 0.0
C1664 C 0.59968 0.36295 0.17798 0.0
C1665 C 0.58561 0.36284 0.20251 0.0
C1666 C 0.56848 0.36865 0.19319 0.0
H1667 H 0.54921 0.42543 0.13502 0.0
H1668 H 0.56468 0.4115 0.15907 0.0
H1669 H 0.56406 0.41053 0.11222 0.0
H1670 H 0.57661 0.37962 0.10832 0.0
H1671 H 0.6067 0.36962 0.12451 0.0
H1672 H 0.83267 0.20865 0.36154 0.0
H1673 H 0.83517 0.24003 0.38038 0.0
H1674 H 0.88957 0.24159 0.34205 0.0
H1675 H 0.88658 0.21082 0.32104 0.0
H1676 H 0.85413 0.25766 0.42385 0.0
H1677 H 0.87117 0.28429 0.29379 0.0
H1678 H 0.86408 0.26142 0.30003 0.0
H1679 H 0.88724 0.26767 0.3062 0.0
C1680 C 0.84511 0.2158 0.3572 0.0
C1681 C 0.85935 0.20755 0.33947 0.0
C1682 C 0.84655 0.23369 0.36789 0.0
C1683 C 0.86236 0.24343 0.36157 0.0
C1684 C 0.87695 0.2347 0.3458 0.0
H1685 H 0.9005 0.33614 0.4692 0.0
H1686 H 0.89029 0.30667 0.45084 0.0
C1687 C 0.87533 0.21706 0.33418 0.0
C1688 C 0.8638 0.26262 0.37169 0.0
H1689 H 0.8787 0.30322 0.3426 0.0
C1690 C 0.85927 0.26766 0.4059 0.0
C1691 C 0.86995 0.27591 0.34809 0.0
C1692 C 0.87316 0.27206 0.3099 0.0
C1693 C 0.86159 0.28535 0.4176 0.0
C1694 C 0.86938 0.29818 0.39495 0.0
C1695 C 0.87305 0.29336 0.36027 0.0
C1696 C 0.87474 0.31636 0.407 0.0
C1697 C 0.8555 0.29004 0.45403 0.0
C1698 C 0.86998 0.3317 0.38781 0.0
C1699 C 0.87624 0.34864 0.39776 0.0
C1700 C 0.88725 0.35056 0.42728 0.0
C1701 C 0.89184 0.3352 0.4466 0.0
C1702 C 0.88585 0.31829 0.43631 0.0
H1703 H 0.84407 0.28147 0.46225 0.0
H1704 H 0.86665 0.28761 0.4726 0.0
H1705 H 0.85135 0.3043 0.456 0.0
H1706 H 0.86153 0.33056 0.36493 0.0
H1707 H 0.87245 0.36021 0.38235 0.0
H1708 H 0.91104 0.62993 0.73183 0.0
H1709 H 0.94077 0.61957 0.71447 0.0
H1710 H 0.92601 0.62453 0.60609 0.0
H1711 H 0.89605 0.63457 0.62316 0.0
H1712 H 0.94569 0.59364 0.62013 0.0
H1713 H 0.9787 0.65367 0.67697 0.0
H1714 H 0.96537 0.64107 0.70731 0.0
H1715 H 0.95475 0.65221 0.6712 0.0
C1716 C 0.91404 0.62874 0.70427 0.0
C1717 C 0.9012 0.63331 0.67887 0.0
C1718 C 0.93109 0.62288 0.69442 0.0
C1719 C 0.93573 0.62169 0.65902 0.0
C1720 C 0.92273 0.62549 0.63358 0.0
H1721 H 0.02956 0.60631 0.53356 0.0
H1722 H 0.99935 0.60925 0.55709 0.0
C1723 C 0.90561 0.63123 0.6434 0.0
C1724 C 0.95427 0.61704 0.64845 0.0
H1725 H 0.99765 0.63145 0.65339 0.0
C1726 C 0.95706 0.60187 0.62744 0.0
C1727 C 0.9691 0.6278 0.6581 0.0
C1728 C 0.96689 0.64468 0.67937 0.0
C1729 C 0.97428 0.59721 0.61576 0.0
C1730 C 0.98902 0.60813 0.62497 0.0
C1731 C 0.9863 0.62306 0.64653 0.0
C1732 C 0.00722 0.605 0.61079 0.0
C1733 C 0.97658 0.58061 0.59374 0.0
C1734 C 0.02173 0.60184 0.63326 0.0
C1735 C 0.03911 0.60021 0.6199 0.0
C1736 C 0.0423 0.60192 0.58383 0.0
C1737 C 0.02765 0.60489 0.56144 0.0
C1738 C 0.01031 0.60645 0.57481 0.0
H1739 H 0.9652 0.57116 0.59717 0.0
H1740 H 0.97712 0.58451 0.56581 0.0
H1741 H 0.98924 0.57355 0.60029 0.0
H1742 H 0.01961 0.60083 0.66116 0.0
H1743 H 0.05006 0.59796 0.63794 0.0
H1744 H 0.65146 0.19961 0.607 0.0
H1745 H 0.64911 0.23052 0.58593 0.0
H1746 H 0.63549 0.24826 0.6897 0.0
H1747 H 0.63794 0.21763 0.71109 0.0
H1748 H 0.61842 0.25213 0.58925 0.0
H1749 H 0.67473 0.28361 0.66087 0.0
H1750 H 0.6727 0.25964 0.65558 0.0
H1751 H 0.65982 0.27109 0.68841 0.0
C1752 C 0.64813 0.2101 0.62544 0.0
C1753 C 0.6449 0.20608 0.66079 0.0
C1754 C 0.64681 0.22776 0.61333 0.0
C1755 C 0.64242 0.24171 0.63638 0.0
C1756 C 0.63931 0.23776 0.67163 0.0
H1757 H 0.61217 0.35293 0.62811 0.0
H1758 H 0.62158 0.32264 0.64456 0.0
C1759 C 0.64058 0.22017 0.68375 0.0
C1760 C 0.63984 0.26022 0.62336 0.0
H1761 H 0.65325 0.30353 0.63557 0.0
C1762 C 0.62618 0.26336 0.59898 0.0
C1763 C 0.64993 0.27483 0.63632 0.0
C1764 C 0.66523 0.27215 0.6615 0.0
C1765 C 0.62186 0.2808 0.58816 0.0
C1766 C 0.63176 0.29546 0.60154 0.0
C1767 C 0.64567 0.29229 0.62541 0.0
C1768 C 0.62749 0.31421 0.59175 0.0
C1769 C 0.60627 0.28339 0.56357 0.0
C1770 C 0.62823 0.31969 0.55676 0.0
C1771 C 0.62273 0.3369 0.54724 0.0
C1772 C 0.6166 0.34908 0.57263 0.0
C1773 C 0.61675 0.34387 0.6079 0.0
C1774 C 0.62212 0.32656 0.61736 0.0
H1775 H 0.59736 0.27146 0.56295 0.0
H1776 H 0.59816 0.29525 0.57112 0.0
H1777 H 0.61144 0.28559 0.53675 0.0
H1778 H 0.63279 0.31054 0.53669 0.0
H1779 H 0.62306 0.34057 0.5199 0.0
H1780 H 0.02974 0.38698 0.96091 0.0
H1781 H 0.99936 0.3847 0.93803 0.0
H1782 H 0.01798 0.40184 0.83685 0.0
H1783 H 0.04863 0.404 0.85935 0.0
H1784 H 0.97746 0.41107 0.90597 0.0
H1785 H 0.99233 0.35404 0.81696 0.0
H1786 H 0.00743 0.36075 0.85135 0.0
H1787 H 0.00618 0.37356 0.81174 0.0
C1788 C 0.02746 0.3903 0.93381 0.0
C1789 C 0.04172 0.39554 0.91195 0.0
C1790 C 0.01005 0.38903 0.92078 0.0
C1791 C 0.00648 0.3929 0.88568 0.0
C1792 C 0.02053 0.39852 0.86389 0.0
H1793 H 0.90848 0.37506 0.76747 0.0
H1794 H 0.93812 0.3853 0.78555 0.0
C1795 C 0.03801 0.39979 0.8769 0.0
C1796 C 0.98805 0.39066 0.87201 0.0
H1797 H 0.96282 0.36505 0.81705 0.0
C1798 C 0.97423 0.40108 0.88638 0.0
C1799 C 0.98393 0.37765 0.84643 0.0
C1800 C 0.99818 0.36573 0.83082 0.0
C1801 C 0.95633 0.39878 0.87594 0.0
C1802 C 0.95214 0.38543 0.85102 0.0
C1803 C 0.96604 0.37529 0.83614 0.0
C1804 C 0.93343 0.38122 0.84072 0.0
C1805 C 0.94215 0.41078 0.8915 0.0
C1806 C 0.92081 0.37573 0.86577 0.0
C1807 C 0.90375 0.37 0.85553 0.0
C1808 C 0.89911 0.36935 0.81998 0.0
C1809 C 0.91164 0.37528 0.79506 0.0
C1810 C 0.9286 0.38116 0.80534 0.0
H1811 H 0.94797 0.4236 0.90091 0.0
H1812 H 0.93145 0.41382 0.87227 0.0
H1813 H 0.93597 0.40393 0.91422 0.0
H1814 H 0.92436 0.37524 0.89315 0.0
H1815 H 0.89448 0.36539 0.87537 0.0
H1816 H 0.84627 0.79959 0.11368 0.0
H1817 H 0.84769 0.76913 0.09009 0.0
H1818 H 0.85917 0.74862 0.19289 0.0
H1819 H 0.85763 0.77882 0.21679 0.0
H1820 H 0.87769 0.7469 0.09307 0.0
H1821 H 0.81987 0.71472 0.15868 0.0
H1822 H 0.8224 0.73876 0.1558 0.0
H1823 H 0.83451 0.72626 0.18829 0.0
C1824 C 0.84889 0.78861 0.13134 0.0
C1825 C 0.85186 0.79172 0.16713 0.0
C1826 C 0.84967 0.77119 0.11784 0.0
C1827 C 0.85325 0.7566 0.13986 0.0
C1828 C 0.85598 0.75963 0.17558 0.0
H1829 H 0.88409 0.64624 0.12753 0.0
H1830 H 0.8734 0.67602 0.14435 0.0
C1831 C 0.85524 0.77698 0.18908 0.0
C1832 C 0.85568 0.73837 0.12532 0.0
H1833 H 0.84174 0.69498 0.13371 0.0
C1834 C 0.86967 0.73557 0.1015 0.0
C1835 C 0.84523 0.72363 0.13656 0.0
C1836 C 0.82955 0.72598 0.16099 0.0
C1837 C 0.87405 0.71831 0.08976 0.0
C1838 C 0.86386 0.70349 0.1016 0.0
C1839 C 0.84955 0.70635 0.12473 0.0
C1840 C 0.86845 0.68487 0.09143 0.0
C1841 C 0.89005 0.71605 0.06603 0.0
C1842 C 0.8686 0.67976 0.05621 0.0
C1843 C 0.87487 0.66284 0.04648 0.0
C1844 C 0.88085 0.65059 0.07188 0.0
C1845 C 0.87965 0.65536 0.10731 0.0
C1846 C 0.87354 0.67238 0.11698 0.0
H1847 H 0.89892 0.72802 0.0664 0.0
H1848 H 0.89808 0.70415 0.07362 0.0
H1849 H 0.88534 0.71411 0.03883 0.0
H1850 H 0.86428 0.68903 0.03614 0.0
H1851 H 0.87534 0.6595 0.01899 0.0
H1852 H 0.60609 0.63902 0.37831 0.0
H1853 H 0.5757 0.63074 0.39608 0.0
H1854 H 0.56039 0.6251 0.28817 0.0
H1855 H 0.5907 0.63335 0.27001 0.0
H1856 H 0.54407 0.65081 0.37309 0.0
H1857 H 0.54143 0.57856 0.3374 0.0
H1858 H 0.5623 0.59028 0.34454 0.0
H1859 H 0.55001 0.5937 0.30486 0.0
C1860 C 0.59635 0.63579 0.35831 0.0
C1861 C 0.60084 0.63694 0.32271 0.0
C1862 C 0.57899 0.63108 0.36854 0.0
C1863 C 0.56589 0.62719 0.34343 0.0
C1864 C 0.5704 0.62783 0.30794 0.0
H1865 H 0.45132 0.60444 0.3615 0.0
H1866 H 0.48185 0.6088 0.33941 0.0
C1867 C 0.58772 0.63266 0.29765 0.0
C1868 C 0.54717 0.62381 0.35432 0.0
H1869 H 0.51449 0.5918 0.35731 0.0
C1870 C 0.5376 0.6379 0.36975 0.0
C1871 C 0.53875 0.60703 0.34941 0.0
C1872 C 0.54862 0.59143 0.33336 0.0
C1873 C 0.51977 0.63568 0.38048 0.0
C1874 C 0.51146 0.61876 0.37644 0.0
C1875 C 0.52094 0.60472 0.36046 0.0
C1876 C 0.49316 0.61531 0.38981 0.0
C1877 C 0.50991 0.65155 0.39559 0.0
C1878 C 0.48954 0.61712 0.42554 0.0
C1879 C 0.47218 0.61472 0.43823 0.0
C1880 C 0.45805 0.6103 0.41547 0.0
C1881 C 0.46185 0.60792 0.37976 0.0
C1882 C 0.47927 0.61038 0.36706 0.0
H1883 H 0.51621 0.66443 0.38771 0.0
H1884 H 0.49567 0.65165 0.38721 0.0
H1885 H 0.51028 0.65075 0.4245 0.0
H1886 H 0.50016 0.62052 0.44365 0.0
H1887 H 0.46986 0.61647 0.46592 0.0
H1888 H 0.37924 0.34201 0.02412 0.0
H1889 H 0.36932 0.31198 0.04058 0.0
H1890 H 0.37837 0.32455 0.14904 0.0
H1891 H 0.38785 0.35477 0.13291 0.0
H1892 H 0.38911 0.28682 0.07171 0.0
H1893 H 0.32999 0.30102 0.1545 0.0
H1894 H 0.34007 0.31782 0.12684 0.0
H1895 H 0.34958 0.31281 0.16892 0.0
C1896 C 0.37889 0.33849 0.05154 0.0
C1897 C 0.38437 0.35082 0.0772 0.0
C1898 C 0.3732 0.3213 0.0609 0.0
C1899 C 0.37288 0.31605 0.09607 0.0
C1900 C 0.37805 0.32842 0.1218 0.0
H1901 H 0.36551 0.21798 0.2117 0.0
H1902 H 0.36847 0.24869 0.19064 0.0
C1903 C 0.38359 0.34568 0.1125 0.0
C1904 C 0.36854 0.29724 0.10556 0.0
H1905 H 0.34243 0.27147 0.15895 0.0
C1906 C 0.37874 0.28345 0.09044 0.0
C1907 C 0.35501 0.29284 0.13001 0.0
C1908 C 0.34292 0.3069 0.14573 0.0
C1909 C 0.37622 0.26546 0.10001 0.0
C1910 C 0.36302 0.26114 0.12512 0.0
C1911 C 0.35258 0.27486 0.13977 0.0
C1912 C 0.36046 0.24255 0.13773 0.0
C1913 C 0.38815 0.25131 0.08411 0.0
C1914 C 0.3547 0.22895 0.11504 0.0
C1915 C 0.35303 0.21131 0.127 0.0
C1916 C 0.35701 0.20696 0.1619 0.0
C1917 C 0.36239 0.22076 0.18469 0.0
C1918 C 0.36405 0.23836 0.17269 0.0
H1919 H 0.39999 0.25723 0.07082 0.0
H1920 H 0.39291 0.24178 0.10436 0.0
H1921 H 0.38041 0.2436 0.06447 0.0
H1922 H 0.35158 0.23197 0.0881 0.0
H1923 H 0.34872 0.20106 0.10874 0.0
H1924 H 0.40814 0.62904 0.76375 0.0
H1925 H 0.43776 0.61809 0.78047 0.0
H1926 H 0.42384 0.62398 0.88914 0.0
H1927 H 0.39405 0.63454 0.87273 0.0
H1928 H 0.46238 0.63717 0.81525 0.0
H1929 H 0.44749 0.57546 0.88989 0.0
H1930 H 0.43104 0.58625 0.86246 0.0
H1931 H 0.43521 0.59441 0.90593 0.0
C1932 C 0.41125 0.62773 0.79124 0.0
C1933 C 0.39871 0.63273 0.8169 0.0
C1934 C 0.4282 0.62145 0.80073 0.0
C1935 C 0.43297 0.62002 0.83604 0.0
C1936 C 0.42033 0.62455 0.86174 0.0
H1937 H 0.52778 0.61184 0.95908 0.0
H1938 H 0.4977 0.61443 0.93482 0.0
C1939 C 0.40331 0.6307 0.85228 0.0
C1940 C 0.45165 0.61548 0.84594 0.0
H1941 H 0.47672 0.58827 0.89838 0.0
C1942 C 0.46555 0.6263 0.833 0.0
C1943 C 0.45577 0.60129 0.8691 0.0
C1944 C 0.4416 0.58858 0.88236 0.0
C1945 C 0.48335 0.62381 0.84374 0.0
C1946 C 0.48736 0.61001 0.86777 0.0
C1947 C 0.47356 0.59888 0.88001 0.0
C1948 C 0.50562 0.60765 0.88215 0.0
C1949 C 0.49761 0.63643 0.83041 0.0
C1950 C 0.52001 0.60274 0.86058 0.0
C1951 C 0.53731 0.60128 0.87436 0.0
C1952 C 0.54049 0.60464 0.90998 0.0
C1953 C 0.5259 0.60921 0.93155 0.0
C1954 C 0.50866 0.61065 0.91775 0.0
H1955 H 0.49177 0.64839 0.81738 0.0
H1956 H 0.50636 0.641 0.8521 0.0
H1957 H 0.50614 0.62931 0.81115 0.0
H1958 H 0.51786 0.60011 0.83311 0.0
H1959 H 0.54818 0.59762 0.857 0.0
H1960 H 0.11916 0.65878 0.5161 0.0
H1961 H 0.12969 0.68854 0.53279 0.0
H1962 H 0.12337 0.67479 0.64146 0.0
H1963 H 0.11319 0.64482 0.62505 0.0
H1964 H 0.11075 0.71348 0.56758 0.0
H1965 H 0.17239 0.69771 0.64189 0.0
H1966 H 0.16136 0.68144 0.61443 0.0
H1967 H 0.15318 0.68579 0.65782 0.0
C1968 C 0.12019 0.66199 0.5436 0.0
C1969 C 0.11527 0.6494 0.56925 0.0
C1970 C 0.12625 0.67901 0.55307 0.0
C1971 C 0.12753 0.68384 0.58836 0.0
C1972 C 0.12291 0.67124 0.61408 0.0
H1973 H 0.13936 0.77909 0.70924 0.0
H1974 H 0.13566 0.74901 0.68571 0.0
C1975 C 0.11698 0.65413 0.60463 0.0
C1976 C 0.13234 0.70247 0.59812 0.0
H1977 H 0.16046 0.72729 0.64915 0.0
C1978 C 0.12177 0.71653 0.58505 0.0
C1979 C 0.14674 0.70643 0.62087 0.0
C1980 C 0.15918 0.69206 0.63429 0.0
C1981 C 0.12475 0.73435 0.59518 0.0
C1982 C 0.13882 0.73823 0.6187 0.0
C1983 C 0.14966 0.72425 0.63115 0.0
C1984 C 0.14174 0.75653 0.63249 0.0
C1985 C 0.11238 0.74879 0.58174 0.0
C1986 C 0.1466 0.77073 0.61036 0.0
C1987 C 0.14868 0.78806 0.62375 0.0
C1988 C 0.14601 0.79146 0.65951 0.0
C1989 C 0.14147 0.77706 0.6816 0.0
C1990 C 0.13939 0.75981 0.6682 0.0
H1991 H 0.10013 0.74312 0.56951 0.0
H1992 H 0.10829 0.75793 0.60319 0.0
H1993 H 0.11951 0.75687 0.56177 0.0
H1994 H 0.14875 0.76841 0.5828 0.0
H1995 H 0.15232 0.7988 0.60601 0.0
H1996 H 0.10561 0.36777 0.37691 0.0
H1997 H 0.07544 0.3775 0.39326 0.0
H1998 H 0.06052 0.37987 0.28466 0.0
H1999 H 0.09049 0.36992 0.26798 0.0
H2000 H 0.05518 0.4082 0.37537 0.0
H2001 H 0.0234 0.34564 0.32667 0.0
H2002 H 0.04729 0.34772 0.33271 0.0
H2003 H 0.03671 0.3574 0.29502 0.0
C2004 C 0.09596 0.37044 0.35645 0.0
C2005 C 0.10044 0.36781 0.32113 0.0
C2006 C 0.07873 0.37603 0.36586 0.0
C2007 C 0.06567 0.37907 0.34019 0.0
C2008 C 0.0703 0.37721 0.30491 0.0
H2009 H 0.95087 0.40079 0.35846 0.0
H2010 H 0.9814 0.39789 0.33563 0.0
C2011 C 0.08748 0.37157 0.29545 0.0
C2012 C 0.04706 0.38366 0.3504 0.0
H2013 H 0.00402 0.36817 0.34766 0.0
C2014 C 0.04398 0.39948 0.36928 0.0
C2015 C 0.03248 0.37226 0.34232 0.0
C2016 C 0.03507 0.35472 0.32334 0.0
C2017 C 0.02666 0.40421 0.38033 0.0
C2018 C 0.01214 0.39267 0.3727 0.0
C2019 C 0.01518 0.37703 0.35329 0.0
C2020 C 0.99388 0.39592 0.38644 0.0
C2021 C 0.02401 0.42154 0.39993 0.0
C2022 C 0.99081 0.39575 0.42254 0.0
C2023 C 0.97343 0.39731 0.43568 0.0
C2024 C 0.95871 0.39902 0.41295 0.0
C2025 C 0.96187 0.39952 0.37674 0.0
C2026 C 0.9793 0.39787 0.36361 0.0
H2027 H 0.03518 0.43107 0.39512 0.0
H2028 H 0.0112 0.42805 0.39244 0.0
H2029 H 0.02355 0.41868 0.42835 0.0
H2030 H 0.00184 0.3939 0.44058 0.0
H2031 H 0.97155 0.39688 0.46369 0.0
H2032 H 0.37574 0.66197 0.47682 0.0
H2033 H 0.36557 0.69152 0.4581 0.0
H2034 H 0.37718 0.67777 0.35111 0.0
H2035 H 0.38701 0.64796 0.36954 0.0
H2036 H 0.38658 0.71612 0.42735 0.0
H2037 H 0.32883 0.70151 0.34115 0.0
H2038 H 0.33816 0.68499 0.3704 0.0
H2039 H 0.34866 0.68944 0.32898 0.0
C2040 C 0.37586 0.6651 0.44921 0.0
C2041 C 0.38227 0.65261 0.42468 0.0
C2042 C 0.37002 0.68201 0.43857 0.0
C2043 C 0.37047 0.68684 0.40319 0.0
C2044 C 0.37633 0.67422 0.37847 0.0
H2045 H 0.36402 0.78391 0.28417 0.0
H2046 H 0.36702 0.75345 0.30636 0.0
C2047 C 0.38203 0.6572 0.38907 0.0
C2048 C 0.36644 0.70556 0.39272 0.0
H2049 H 0.34117 0.73106 0.33745 0.0
C2050 C 0.37649 0.71941 0.408 0.0
C2051 C 0.35331 0.70982 0.36742 0.0
C2052 C 0.3415 0.69567 0.35128 0.0
C2053 C 0.37418 0.73734 0.3979 0.0
C2054 C 0.36131 0.74155 0.37212 0.0
C2055 C 0.35104 0.72776 0.35721 0.0
C2056 C 0.35893 0.76008 0.35901 0.0
C2057 C 0.386 0.75152 0.41399 0.0
C2058 C 0.3532 0.7739 0.38123 0.0
C2059 C 0.35154 0.79143 0.36865 0.0
C2060 C 0.35546 0.79541 0.33356 0.0
C2061 C 0.36091 0.78141 0.31132 0.0
C2062 C 0.3626 0.76394 0.32394 0.0
H2063 H 0.39776 0.74562 0.42756 0.0
H2064 H 0.39088 0.76104 0.39382 0.0
H2065 H 0.37813 0.75923 0.43344 0.0
H2066 H 0.35002 0.77112 0.40826 0.0
H2067 H 0.34716 0.80184 0.38645 0.0
H2068 H 0.94898 0.60141 0.14135 0.0
H2069 H 0.97941 0.60396 0.1648 0.0
H2070 H 0.99948 0.61606 0.06193 0.0
H2071 H 0.96929 0.61346 0.03816 0.0
H2072 H 0.01989 0.58971 0.10091 0.0
H2073 H 0.0067 0.65235 0.17565 0.0
H2074 H 0.9917 0.63388 0.18314 0.0
H2075 H 0.99204 0.64468 0.14129 0.0
C2076 C 0.95986 0.60459 0.12366 0.0
C2077 C 0.95662 0.60734 0.08785 0.0
C2078 C 0.97722 0.60609 0.13717 0.0
C2079 C 0.99162 0.61036 0.11511 0.0
C2080 C 0.98851 0.61278 0.07936 0.0
H2081 H 0.10394 0.63411 0.11988 0.0
H2082 H 0.07367 0.62429 0.10523 0.0
C2083 C 0.97121 0.61134 0.06585 0.0
C2084 C 0.00997 0.61261 0.12908 0.0
H2085 H 0.03588 0.64062 0.17808 0.0
C2086 C 0.02341 0.60076 0.11799 0.0
C2087 C 0.01443 0.62698 0.15146 0.0
C2088 C 0.00054 0.64032 0.16351 0.0
C2089 C 0.04131 0.60301 0.12841 0.0
C2090 C 0.0459 0.61777 0.1498 0.0
C2091 C 0.03234 0.62932 0.16166 0.0
C2092 C 0.06475 0.62208 0.15885 0.0
C2093 C 0.05507 0.58952 0.11651 0.0
C2094 C 0.0698 0.6243 0.19385 0.0
C2095 C 0.08705 0.63014 0.20233 0.0
C2096 C 0.09962 0.63394 0.17593 0.0
C2097 C 0.09467 0.63121 0.1409 0.0
C2098 C 0.07737 0.62547 0.13246 0.0
H2099 H 0.04879 0.57637 0.11054 0.0
H2100 H 0.06155 0.59445 0.09227 0.0
H2101 H 0.06561 0.58749 0.13657 0.0
H2102 H 0.06026 0.62182 0.21464 0.0
H2103 H 0.0904 0.63201 0.22959 0.0
H2104 H 0.1467 0.20104 0.88704 0.0
H2105 H 0.14296 0.23199 0.90707 0.0
H2106 H 0.1434 0.25037 0.80036 0.0
H2107 H 0.14676 0.21958 0.78004 0.0
H2108 H 0.16302 0.26351 0.89706 0.0
H2109 H 0.09555 0.26894 0.83702 0.0
H2110 H 0.10698 0.24779 0.84208 0.0
H2111 H 0.11282 0.26261 0.80682 0.0
C2112 C 0.14612 0.21168 0.86782 0.0
C2113 C 0.14675 0.20779 0.8319 0.0
C2114 C 0.144 0.22935 0.87933 0.0
C2115 C 0.14252 0.2434 0.85515 0.0
C2116 C 0.14406 0.23966 0.81941 0.0
H2117 H 0.11748 0.3567 0.86954 0.0
H2118 H 0.12797 0.32724 0.85045 0.0
C2119 C 0.14604 0.22204 0.80787 0.0
C2120 C 0.13868 0.26189 0.86707 0.0
H2121 H 0.10795 0.2956 0.86017 0.0
C2122 C 0.15097 0.27053 0.88911 0.0
C2123 C 0.1229 0.27098 0.85672 0.0
C2124 C 0.10871 0.26207 0.83464 0.0
C2125 C 0.14805 0.28819 0.90056 0.0
C2126 C 0.13234 0.29729 0.88994 0.0
C2127 C 0.12006 0.28863 0.86797 0.0
C2128 C 0.12793 0.31559 0.90216 0.0
C2129 C 0.16188 0.29705 0.92348 0.0
C2130 C 0.12453 0.31882 0.9376 0.0
C2131 C 0.11848 0.33561 0.94864 0.0
C2132 C 0.11561 0.3495 0.92437 0.0
C2133 C 0.11952 0.34634 0.88897 0.0
C2134 C 0.12552 0.32951 0.87797 0.0
H2135 H 0.17504 0.29015 0.92192 0.0
H2136 H 0.1637 0.31133 0.91611 0.0
H2137 H 0.15728 0.29658 0.95101 0.0
H2138 H 0.12598 0.30816 0.95661 0.0
H2139 H 0.11564 0.33754 0.97609 0.0
H2140 H 0.41118 0.37092 0.72616 0.0
H2141 H 0.44062 0.3814 0.70739 0.0
H2142 H 0.4253 0.37411 0.59979 0.0
H2143 H 0.39561 0.36395 0.61831 0.0
H2144 H 0.46474 0.36165 0.67198 0.0
H2145 H 0.44893 0.42287 0.5961 0.0
H2146 H 0.43288 0.41236 0.62484 0.0
H2147 H 0.43665 0.40356 0.58173 0.0
C2148 C 0.41395 0.37176 0.69846 0.0
C2149 C 0.40103 0.36651 0.67374 0.0
C2150 C 0.4308 0.37779 0.68778 0.0
C2151 C 0.43513 0.37872 0.65219 0.0
C2152 C 0.42214 0.3739 0.62738 0.0
H2153 H 0.5318 0.38929 0.53192 0.0
H2154 H 0.50121 0.38618 0.55355 0.0
C2155 C 0.40519 0.36798 0.63803 0.0
C2156 C 0.45371 0.38319 0.64133 0.0
H2157 H 0.47849 0.41096 0.58934 0.0
C2158 C 0.46776 0.37257 0.65422 0.0
C2159 C 0.45763 0.39741 0.61808 0.0
C2160 C 0.44325 0.40982 0.60463 0.0
C2161 C 0.48555 0.37543 0.64378 0.0
C2162 C 0.48944 0.38945 0.62013 0.0
C2163 C 0.47545 0.40023 0.6075 0.0
C2164 C 0.50786 0.39257 0.60705 0.0
C2165 C 0.49998 0.36304 0.65726 0.0
C2166 C 0.5217 0.39755 0.62988 0.0
C2167 C 0.53927 0.39931 0.61762 0.0
C2168 C 0.54332 0.39617 0.58226 0.0
C2169 C 0.52926 0.39172 0.55931 0.0
C2170 C 0.51172 0.38998 0.57161 0.0
H2171 H 0.49428 0.35071 0.66917 0.0
H2172 H 0.50924 0.35908 0.63592 0.0
H2173 H 0.50791 0.3701 0.67752 0.0
H2174 H 0.51893 0.39989 0.65724 0.0
H2175 H 0.54972 0.40289 0.63602 0.0
H2176 H 0.15398 0.09532 0.46374 0.0
H2177 H 0.17038 0.0958 0.5194 0.0
H2178 H 0.12217 0.08033 0.57376 0.0
H2179 H 0.10575 0.08013 0.51874 0.0
H2180 H 0.1569 0.11971 0.57341 0.0
H2181 H 0.1627 0.04974 0.62039 0.0
H2182 H 0.16067 0.05547 0.57467 0.0
H2183 H 0.14117 0.05516 0.60223 0.0
C2184 C 0.14704 0.09167 0.48754 0.0
C2185 C 0.12861 0.08786 0.48718 0.0
C2186 C 0.15641 0.09185 0.51915 0.0
C2187 C 0.14751 0.08779 0.55045 0.0
C2188 C 0.12934 0.0831 0.54975 0.0
H2189 H 0.13834 0.10603 0.76358 0.0
H2190 H 0.13992 0.0928 0.70494 0.0
C2191 C 0.11993 0.08322 0.5184 0.0
C2192 C 0.15595 0.09148 0.58443 0.0
H2193 H 0.16301 0.07282 0.6645 0.0
C2194 C 0.15878 0.10946 0.59319 0.0
C2195 C 0.15811 0.07803 0.60999 0.0
C2196 C 0.15566 0.05848 0.60133 0.0
C2197 C 0.16227 0.11457 0.62765 0.0
C2198 C 0.16365 0.10117 0.65375 0.0
C2199 C 0.16197 0.08304 0.64447 0.0
C2200 C 0.16482 0.10598 0.69109 0.0
C2201 C 0.16296 0.13435 0.6361 0.0
C2202 C 0.1787 0.11703 0.70318 0.0
C2203 C 0.17751 0.1249 0.73608 0.0
C2204 C 0.16282 0.12124 0.75772 0.0
C2205 C 0.1498 0.10888 0.74712 0.0
C2206 C 0.15074 0.10134 0.71378 0.0
H2207 H 0.15764 0.14272 0.61447 0.0
H2208 H 0.15512 0.13737 0.66003 0.0
H2209 H 0.17707 0.13839 0.64065 0.0
H2210 H 0.18988 0.12039 0.6864 0.0
H2211 H 0.18771 0.13437 0.74413 0.0
H2212 H 0.15142 0.89668 0.72836 0.0
H2213 H 0.15224 0.90998 0.78673 0.0
H2214 H 0.18823 0.86816 0.82091 0.0
H2215 H 0.18631 0.85422 0.76333 0.0
H2216 H 0.16138 0.86871 0.86047 0.0
H2217 H 0.18311 0.939 0.84847 0.0
H2218 H 0.16504 0.93488 0.81882 0.0
H2219 H 0.18599 0.92311 0.81336 0.0
C2220 C 0.15983 0.89066 0.74822 0.0
C2221 C 0.16866 0.87442 0.74184 0.0
C2222 C 0.16048 0.89836 0.78145 0.0
C2223 C 0.17048 0.89021 0.80823 0.0
C2224 C 0.18042 0.8747 0.80074 0.0
H2225 H 0.15306 0.9087 0.03302 0.0
H2226 H 0.1704 0.90573 0.9788 0.0
C2227 C 0.17929 0.86672 0.76796 0.0
C2228 C 0.16792 0.89577 0.84503 0.0
H2229 H 0.1632 0.9323 0.89797 0.0
C2230 C 0.16237 0.88256 0.86885 0.0
C2231 C 0.16914 0.91383 0.85615 0.0
C2232 C 0.17635 0.92844 0.83285 0.0
C2233 C 0.15692 0.88704 0.90261 0.0
C2234 C 0.15683 0.9052 0.91271 0.0
C2235 C 0.16326 0.91837 0.88984 0.0
C2236 C 0.14771 0.91059 0.94503 0.0
C2237 C 0.15019 0.87248 0.92667 0.0
C2238 C 0.1294 0.91459 0.94358 0.0
C2239 C 0.11947 0.91599 0.97423 0.0
C2240 C 0.12777 0.91355 0.00675 0.0
C2241 C 0.14636 0.91063 0.00823 0.0
C2242 C 0.15629 0.90903 0.97742 0.0
H2243 H 0.1516 0.8589 0.91509 0.0
H2244 H 0.15773 0.87285 0.95164 0.0
H2245 H 0.13584 0.87481 0.93284 0.0
H2246 H 0.1226 0.91564 0.91867 0.0
H2247 H 0.10518 0.9184 0.97239 0.0
H2248 H 0.39686 0.91691 0.02448 0.0
H2249 H 0.37885 0.91528 0.07759 0.0
H2250 H 0.33112 0.90768 0.01598 0.0
H2251 H 0.3491 0.90949 0.9623 0.0
H2252 H 0.34166 0.9352 0.09743 0.0
H2253 H 0.34287 0.86085 0.08133 0.0
H2254 H 0.35996 0.87459 0.06146 0.0
H2255 H 0.33751 0.87519 0.04492 0.0
C2256 C 0.3825 0.91515 0.02216 0.0
C2257 C 0.37437 0.91314 0.98937 0.0
C2258 C 0.37224 0.91439 0.05247 0.0
C2259 C 0.35374 0.91146 0.05047 0.0
C2260 C 0.34541 0.91011 0.0178 0.0
H2261 H 0.31202 0.86122 0.23638 0.0
H2262 H 0.30984 0.87511 0.17872 0.0
C2263 C 0.35568 0.91105 0.98731 0.0
C2264 C 0.34393 0.90744 0.08281 0.0
H2265 H 0.33497 0.87211 0.13594 0.0
C2266 C 0.3397 0.92144 0.10576 0.0
C2267 C 0.34131 0.8895 0.09319 0.0
C2268 C 0.34561 0.87407 0.06911 0.0
C2269 C 0.33374 0.91787 0.13983 0.0
C2270 C 0.33266 0.89986 0.15129 0.0
C2271 C 0.33578 0.88594 0.12734 0.0
C2272 C 0.33051 0.89488 0.18852 0.0
C2273 C 0.32903 0.93343 0.16321 0.0
C2274 C 0.34228 0.90185 0.2138 0.0
C2275 C 0.3431 0.89425 0.24711 0.0
C2276 C 0.3326 0.87925 0.25502 0.0
C2277 C 0.32026 0.87279 0.23053 0.0
C2278 C 0.31901 0.88074 0.19771 0.0
H2279 H 0.32321 0.94462 0.14779 0.0
H2280 H 0.31933 0.9295 0.18382 0.0
H2281 H 0.3414 0.93854 0.17581 0.0
H2282 H 0.35172 0.91233 0.20717 0.0
H2283 H 0.35285 0.89923 0.26569 0.0
H2284 H 0.34505 0.08925 0.52552 0.0
H2285 H 0.32773 0.08827 0.4709 0.0
H2286 H 0.37687 0.08309 0.4124 0.0
H2287 H 0.39407 0.08409 0.46621 0.0
H2288 H 0.33204 0.11347 0.41775 0.0
H2289 H 0.34469 0.0458 0.36588 0.0
H2290 H 0.34719 0.05124 0.41163 0.0
H2291 H 0.36511 0.05569 0.38127 0.0
C2292 C 0.35206 0.08763 0.50096 0.0
C2293 C 0.37088 0.08683 0.49997 0.0
C2294 C 0.34218 0.08699 0.46993 0.0
C2295 C 0.35101 0.08517 0.43777 0.0
C2296 C 0.36976 0.08396 0.43701 0.0
H2297 H 0.3666 0.11555 0.24089 0.0
H2298 H 0.3634 0.10045 0.29735 0.0
C2299 C 0.37959 0.08478 0.46777 0.0
C2300 C 0.34135 0.08706 0.40438 0.0
H2301 H 0.34199 0.06981 0.32204 0.0
C2302 C 0.33351 0.1037 0.39698 0.0
C2303 C 0.34318 0.0742 0.37754 0.0
C2304 C 0.35034 0.05566 0.38463 0.0
C2305 C 0.32954 0.10866 0.36256 0.0
C2306 C 0.33331 0.09649 0.33521 0.0
C2307 C 0.33929 0.07915 0.3431 0.0
C2308 C 0.33446 0.10272 0.29875 0.0
C2309 C 0.32305 0.12747 0.35538 0.0
C2310 C 0.3192 0.10847 0.28056 0.0
C2311 C 0.32107 0.11714 0.24843 0.0
C2312 C 0.33818 0.12 0.23431 0.0
C2313 C 0.35332 0.11341 0.25154 0.0
C2314 C 0.35147 0.10475 0.28356 0.0
H2315 H 0.3222 0.1357 0.37949 0.0
H2316 H 0.33219 0.13427 0.3367 0.0
H2317 H 0.30955 0.12695 0.34333 0.0
H2318 H 0.30598 0.1069 0.29186 0.0
H2319 H 0.30927 0.12224 0.2353 0.0
H2320 H 0.84528 0.85444 0.28338 0.0
H2321 H 0.84382 0.87135 0.33738 0.0
H2322 H 0.83068 0.91932 0.27985 0.0
H2323 H 0.83259 0.90236 0.22498 0.0
H2324 H 0.85613 0.92581 0.32597 0.0
H2325 H 0.80299 0.88951 0.39485 0.0
H2326 H 0.81838 0.87323 0.37815 0.0
H2327 H 0.80617 0.88742 0.34825 0.0
C2328 C 0.84192 0.86855 0.28212 0.0
C2329 C 0.83903 0.87708 0.25001 0.0
C2330 C 0.84084 0.87817 0.3131 0.0
C2331 C 0.83654 0.89648 0.31276 0.0
C2332 C 0.83368 0.90513 0.2807 0.0
H2333 H 0.85181 0.92098 0.53331 0.0
H2334 H 0.83551 0.92427 0.47802 0.0
C2335 C 0.83488 0.89547 0.24946 0.0
C2336 C 0.83715 0.90656 0.34595 0.0
H2337 H 0.82856 0.89951 0.4321 0.0
C2338 C 0.84963 0.92052 0.3491 0.0
C2339 C 0.82814 0.9003 0.37606 0.0
C2340 C 0.81301 0.88694 0.37397 0.0
C2341 C 0.8552 0.92646 0.38203 0.0
C2342 C 0.84853 0.91777 0.41218 0.0
C2343 C 0.83415 0.90578 0.40898 0.0
C2344 C 0.85846 0.91813 0.44558 0.0
C2345 C 0.86902 0.94117 0.3841 0.0
C2346 C 0.87666 0.91335 0.44567 0.0
C2347 C 0.88593 0.9115 0.47695 0.0
C2348 C 0.87712 0.91408 0.50889 0.0
C2349 C 0.8589 0.9189 0.50898 0.0
C2350 C 0.84962 0.92088 0.47749 0.0
H2351 H 0.86673 0.95126 0.36325 0.0
H2352 H 0.86877 0.94802 0.40983 0.0
H2353 H 0.88255 0.93539 0.37984 0.0
H2354 H 0.88362 0.91044 0.42151 0.0
H2355 H 0.89992 0.90768 0.47605 0.0
H2356 H 0.88053 0.06142 -0.00127 0.0
H2357 H 0.86541 0.05971 0.05544 0.0
H2358 H 0.84112 0.11134 0.03616 0.0
H2359 H 0.85535 0.11238 0.97867 0.0
H2360 H 0.87348 0.08078 0.10451 0.0
H2361 H 0.80084 0.08852 0.08606 0.0
H2362 H 0.81555 0.0828 0.0503 0.0
H2363 H 0.81205 0.10592 0.06245 0.0
C2364 C 0.8714 0.07203 0.00631 0.0
C2365 C 0.86889 0.08697 0.98476 0.0
C2366 C 0.86278 0.07107 0.03857 0.0
C2367 C 0.85191 0.08527 0.05002 0.0
C2368 C 0.84889 0.09991 0.02759 0.0
H2369 H 0.83769 0.14825 0.2207 0.0
H2370 H 0.83751 0.13162 0.16595 0.0
C2371 C 0.85716 0.10063 0.99493 0.0
C2372 C 0.84655 0.08644 0.08721 0.0
H2373 H 0.81311 0.10156 0.14035 0.0
C2374 C 0.8601 0.0847 0.11247 0.0
C2375 C 0.82909 0.09148 0.09776 0.0
C2376 C 0.81356 0.09207 0.07262 0.0
C2377 C 0.85709 0.08945 0.14731 0.0
C2378 C 0.84012 0.09611 0.15706 0.0
C2379 C 0.82616 0.09654 0.13257 0.0
C2380 C 0.83773 0.10551 0.19051 0.0
C2381 C 0.87248 0.08871 0.17286 0.0
C2382 C 0.83767 0.09624 0.22235 0.0
C2383 C 0.83781 0.10574 0.25383 0.0
C2384 C 0.83813 0.12458 0.25364 0.0
C2385 C 0.83759 0.13374 0.22164 0.0
C2386 C 0.83734 0.12428 0.19036 0.0
H2387 H 0.88512 0.08405 0.16052 0.0
H2388 H 0.87479 0.10217 0.18436 0.0
H2389 H 0.8691 0.07942 0.19451 0.0
H2390 H 0.838 0.08173 0.22279 0.0
H2391 H 0.83814 0.09837 0.27818 0.0
H2392 H 0.67181 0.09623 0.71219 0.0
H2393 H 0.67566 0.07904 0.7665 0.0
H2394 H 0.65614 0.12427 0.82556 0.0
H2395 H 0.6528 0.14147 0.77219 0.0
H2396 H 0.68668 0.10847 0.85456 0.0
H2397 H 0.63426 0.05769 0.82273 0.0
H2398 H 0.65309 0.06057 0.79392 0.0
H2399 H 0.63644 0.07784 0.79709 0.0
C2400 C 0.66835 0.10242 0.73686 0.0
C2401 C 0.66193 0.12014 0.73805 0.0
C2402 C 0.67057 0.09261 0.76776 0.0
C2403 C 0.66619 0.1004 0.8 0.0
C2404 C 0.6598 0.11807 0.80098 0.0
H2405 H 0.60833 0.09671 0.96491 0.0
H2406 H 0.62527 0.09338 0.91125 0.0
C2407 C 0.65777 0.12786 0.77041 0.0
C2408 C 0.66708 0.09039 0.83323 0.0
H2409 H 0.64049 0.06283 0.88152 0.0
C2410 C 0.67705 0.09801 0.86053 0.0
C2411 C 0.65477 0.07651 0.8406 0.0
C2412 C 0.64396 0.06761 0.8122 0.0
C2413 C 0.673 0.09417 0.89547 0.0
C2414 C 0.65897 0.08204 0.90288 0.0
C2415 C 0.65106 0.07233 0.87553 0.0
C2416 C 0.64912 0.08294 0.93629 0.0
C2417 C 0.68223 0.10469 0.9239 0.0
C2418 C 0.65697 0.07834 0.96835 0.0
C2419 C 0.64732 0.08058 -0.00057 0.0
C2420 C 0.62967 0.0872 -0.00141 0.0
C2421 C 0.62188 0.09158 0.96642 0.0
C2422 C 0.63152 0.08955 0.93567 0.0
H2423 H 0.69224 0.11429 0.91336 0.0
H2424 H 0.6722 0.11229 0.93938 0.0
H2425 H 0.68922 0.09535 0.94184 0.0
H2426 H 0.67048 0.07308 0.96933 0.0
H2427 H 0.65355 0.07694 0.02396 0.0
H2428 H 0.65001 0.90355 0.46859 0.0
H2429 H 0.664 0.90184 0.52665 0.0
H2430 H 0.61555 0.92235 0.57327 0.0
H2431 H 0.60142 0.92361 0.51588 0.0
H2432 H 0.66695 0.92752 0.59144 0.0
H2433 H 0.62248 0.86788 0.6033 0.0
H2434 H 0.62774 0.87799 0.56175 0.0
H2435 H 0.61168 0.88834 0.59028 0.0
C2436 C 0.64256 0.90807 0.49121 0.0
C2437 C 0.62457 0.91335 0.48811 0.0
C2438 C 0.65057 0.90722 0.52419 0.0
C2439 C 0.6407 0.9119 0.55401 0.0
C2440 C 0.6233 0.91867 0.55044 0.0
H2441 H 0.6563 0.89994 0.77673 0.0
H2442 H 0.65405 0.91408 0.71887 0.0
C2443 C 0.61522 0.91922 0.51776 0.0
C2444 C 0.64704 0.90666 0.58889 0.0
H2445 H 0.63857 0.87642 0.65333 0.0
C2446 C 0.66086 0.91634 0.60508 0.0
C2447 C 0.63905 0.89199 0.60624 0.0
C2448 C 0.62451 0.88083 0.5895 0.0
C2449 C 0.66677 0.91171 0.63877 0.0
C2450 C 0.65855 0.89719 0.65615 0.0
C2451 C 0.6448 0.88758 0.63978 0.0
C2452 C 0.66412 0.89095 0.69096 0.0
C2453 C 0.68183 0.92207 0.65542 0.0
C2454 C 0.67085 0.87351 0.69419 0.0
C2455 C 0.67176 0.86538 0.72677 0.0
C2456 C 0.66612 0.87462 0.7567 0.0
C2457 C 0.66072 0.89259 0.75392 0.0
C2458 C 0.65957 0.9007 0.72102 0.0
H2459 H 0.68833 0.93144 0.63676 0.0
H2460 H 0.67651 0.92994 0.67772 0.0
H2461 H 0.6921 0.91272 0.66584 0.0
H2462 H 0.67431 0.86578 0.6712 0.0
H2463 H 0.67619 0.85157 0.72834 0.0
H2464 H 0.60153 0.5849 0.02652 0.0
H2465 H 0.61852 0.58536 0.08089 0.0
H2466 H 0.6679 0.58903 0.02281 0.0
H2467 H 0.65092 0.58849 0.96786 0.0
H2468 H 0.65125 0.56303 0.1056 0.0
H2469 H 0.66135 0.63641 0.08476 0.0
H2470 H 0.64389 0.62438 0.06211 0.0
H2471 H 0.66688 0.62092 0.05035 0.0
C2472 C 0.61601 0.58559 0.02524 0.0
C2473 C 0.62492 0.58688 0.99306 0.0
C2474 C 0.62569 0.58567 0.05628 0.0
C2475 C 0.64439 0.58718 0.05565 0.0
C2476 C 0.65344 0.58778 0.0236 0.0
H2477 H 0.68873 0.63417 0.24263 0.0
H2478 H 0.6901 0.61886 0.18623 0.0
C2479 C 0.64374 0.58755 0.99238 0.0
C2480 C 0.65383 0.59044 0.08873 0.0
H2481 H 0.66683 0.6251 0.14034 0.0
C2482 C 0.65513 0.57649 0.11315 0.0
C2483 C 0.65894 0.60798 0.09815 0.0
C2484 C 0.65772 0.62337 0.07266 0.0
C2485 C 0.66058 0.57987 0.14758 0.0
C2486 C 0.66421 0.59773 0.15784 0.0
C2487 C 0.66404 0.6114 0.13261 0.0
C2488 C 0.66608 0.60315 0.19487 0.0
C2489 C 0.66201 0.56434 0.17262 0.0
C2490 C 0.65255 0.59888 0.2191 0.0
C2491 C 0.6521 0.60726 0.25171 0.0
C2492 C 0.66483 0.62037 0.2599 0.0
C2493 C 0.67879 0.62406 0.23654 0.0
C2494 C 0.67958 0.61531 0.20446 0.0
H2495 H 0.66628 0.55198 0.15876 0.0
H2496 H 0.67167 0.56713 0.19397 0.0
H2497 H 0.64865 0.56166 0.18421 0.0
H2498 H 0.64166 0.59003 0.21203 0.0
H2499 H 0.64111 0.60447 0.2694 0.0
H2500 H 0.62254 0.44011 0.5008 0.0
H2501 H 0.63724 0.44253 0.44362 0.0
H2502 H 0.65482 0.38758 0.45236 0.0
H2503 H 0.64078 0.38548 0.51015 0.0
H2504 H 0.67973 0.40955 0.41832 0.0
H2505 H 0.61083 0.41819 0.36434 0.0
H2506 H 0.61832 0.43491 0.39469 0.0
H2507 H 0.61466 0.41232 0.40934 0.0
C2508 C 0.63 0.42877 0.49071 0.0
C2509 C 0.63061 0.41261 0.50929 0.0
C2510 C 0.63828 0.43012 0.45815 0.0
C2511 C 0.64677 0.41513 0.44353 0.0
C2512 C 0.64832 0.39931 0.46323 0.0
H2513 H 0.66857 0.35478 0.27373 0.0
H2514 H 0.66889 0.3717 0.328 0.0
C2515 C 0.6403 0.39807 0.49606 0.0
C2516 C 0.65204 0.41492 0.40637 0.0
H2517 H 0.63382 0.41251 0.32488 0.0
C2518 C 0.6698 0.41058 0.39776 0.0
C2519 C 0.63904 0.41643 0.37958 0.0
C2520 C 0.61962 0.4206 0.38727 0.0
C2521 C 0.67462 0.40649 0.36331 0.0
C2522 C 0.6613 0.40659 0.33712 0.0
C2523 C 0.64396 0.41248 0.34515 0.0
C2524 C 0.66394 0.39737 0.30348 0.0
C2525 C 0.69371 0.40119 0.3555 0.0
C2526 C 0.66085 0.40619 0.27169 0.0
C2527 C 0.66061 0.39649 0.24045 0.0
C2528 C 0.6631 0.37782 0.24087 0.0
C2529 C 0.66655 0.36914 0.27266 0.0
C2530 C 0.66698 0.37883 0.30365 0.0
H2531 H 0.70317 0.40769 0.37396 0.0
H2532 H 0.69512 0.38647 0.35854 0.0
H2533 H 0.69753 0.40484 0.32839 0.0
H2534 H 0.65816 0.42046 0.27121 0.0
H2535 H 0.6579 0.40346 0.21622 0.0
H2536 H 0.82783 0.40379 0.77535 0.0
H2537 H 0.82431 0.4204 0.72031 0.0
H2538 H 0.84028 0.37325 0.66296 0.0
H2539 H 0.84334 0.35668 0.71704 0.0
H2540 H 0.84894 0.42845 0.67344 0.0
H2541 H 0.79824 0.38844 0.60583 0.0
H2542 H 0.80156 0.38681 0.65246 0.0
H2543 H 0.81453 0.37316 0.62281 0.0
C2544 C 0.83039 0.397 0.75087 0.0
C2545 C 0.83581 0.37895 0.75039 0.0
C2546 C 0.82826 0.40644 0.71954 0.0
C2547 C 0.83144 0.39789 0.68748 0.0
C2548 C 0.837 0.37993 0.68724 0.0
H2549 H 0.89527 0.40971 0.5277 0.0
H2550 H 0.87788 0.41261 0.58093 0.0
C2551 C 0.83902 0.37053 0.71828 0.0
C2552 C 0.83124 0.40786 0.65412 0.0
H2553 H 0.82362 0.39916 0.56823 0.0
C2554 C 0.84286 0.42251 0.65048 0.0
C2555 C 0.82273 0.40075 0.62419 0.0
C2556 C 0.80839 0.38656 0.62671 0.0
C2557 C 0.84833 0.42828 0.61735 0.0
C2558 C 0.84244 0.41874 0.58759 0.0
C2559 C 0.82866 0.40608 0.5911 0.0
C2560 C 0.85288 0.41884 0.55477 0.0
C2561 C 0.86136 0.44367 0.61473 0.0
C2562 C 0.8445 0.42065 0.52215 0.0
C2563 C 0.85445 0.41861 0.49141 0.0
C2564 C 0.87285 0.41464 0.493 0.0
C2565 C 0.88115 0.41288 0.52564 0.0
C2566 C 0.87125 0.41482 0.55615 0.0
H2567 H 0.85831 0.45398 0.63479 0.0
H2568 H 0.87513 0.4387 0.61985 0.0
H2569 H 0.86101 0.45003 0.58853 0.0
H2570 H 0.83028 0.42342 0.5205 0.0
H2571 H 0.84773 0.42005 0.46651 0.0
H2572 H 0.84828 0.57898 0.02837 0.0
H2573 H 0.83196 0.5751 0.97317 0.0
H2574 H 0.87937 0.59079 0.91625 0.0
H2575 H 0.89567 0.59421 0.9706 0.0
H2576 H 0.82405 0.59948 0.9261 0.0
H2577 H 0.86433 0.5486 0.85941 0.0
H2578 H 0.86592 0.55217 0.90598 0.0
H2579 H 0.87949 0.56508 0.87607 0.0
C2580 C 0.85521 0.58139 0.00396 0.0
C2581 C 0.87324 0.58686 0.00369 0.0
C2582 C 0.84592 0.57906 0.97253 0.0
C2583 C 0.85461 0.58209 0.94055 0.0
C2584 C 0.87257 0.58764 0.94049 0.0
H2585 H 0.84235 0.64477 0.77904 0.0
H2586 H 0.83966 0.62773 0.83268 0.0
C2587 C 0.88183 0.58986 0.97166 0.0
C2588 C 0.84473 0.58176 0.9071 0.0
H2589 H 0.85328 0.57357 0.82131 0.0
C2590 C 0.83 0.59327 0.90326 0.0
C2591 C 0.85186 0.5731 0.87733 0.0
C2592 C 0.86613 0.55887 0.8801 0.0
C2593 C 0.82411 0.59845 0.87005 0.0
C2594 C 0.8336 0.59238 0.84034 0.0
C2595 C 0.84639 0.57874 0.84412 0.0
C2596 C 0.83333 0.60257 0.80724 0.0
C2597 C 0.80866 0.61139 0.86723 0.0
C2598 C 0.83136 0.59398 0.77486 0.0
C2599 C 0.83325 0.60372 0.74383 0.0
C2600 C 0.83726 0.62213 0.74491 0.0
C2601 C 0.83916 0.63063 0.77734 0.0
C2602 C 0.83735 0.62094 0.80811 0.0
H2603 H 0.79844 0.60848 0.88755 0.0
H2604 H 0.81359 0.62523 0.87181 0.0
H2605 H 0.8022 0.61078 0.84115 0.0
H2606 H 0.82859 0.57974 0.77362 0.0
H2607 H 0.83172 0.59686 0.71911 0.0
H2608 H 0.33013 0.35466 0.77525 0.0
H2609 H 0.33104 0.3711 0.83031 0.0
H2610 H 0.34856 0.41856 0.77587 0.0
H2611 H 0.34721 0.40221 0.72014 0.0
H2612 H 0.37202 0.39956 0.83267 0.0
H2613 H 0.30271 0.41729 0.87337 0.0
H2614 H 0.30594 0.39594 0.85229 0.0
H2615 H 0.30952 0.4162 0.82806 0.0
C2616 C 0.33381 0.3687 0.7749 0.0
C2617 C 0.33876 0.37718 0.74366 0.0
C2618 C 0.33412 0.3781 0.80626 0.0
C2619 C 0.33961 0.39604 0.80689 0.0
C2620 C 0.34397 0.40478 0.7756 0.0
H2621 H 0.38945 0.43707 0.99527 0.0
H2622 H 0.3761 0.43778 0.93695 0.0
C2623 C 0.34331 0.39544 0.74397 0.0
C2624 C 0.34392 0.40421 0.84077 0.0
H2625 H 0.32516 0.41761 0.91766 0.0
C2626 C 0.36188 0.40395 0.8511 0.0
C2627 C 0.3305 0.40947 0.86462 0.0
C2628 C 0.31105 0.40989 0.85415 0.0
C2629 C 0.3668 0.40786 0.88546 0.0
C2630 C 0.35337 0.41293 0.90972 0.0
C2631 C 0.33541 0.41387 0.89895 0.0
C2632 C 0.35782 0.41584 0.94686 0.0
C2633 C 0.38617 0.40528 0.89591 0.0
C2634 C 0.35085 0.40429 0.97249 0.0
C2635 C 0.35807 0.40428 0.00616 0.0
C2636 C 0.37246 0.41563 0.0141 0.0
C2637 C 0.37843 0.4281 0.98934 0.0
C2638 C 0.37088 0.42847 0.95613 0.0
H2639 H 0.39366 0.39709 0.87658 0.0
H2640 H 0.39284 0.41854 0.89762 0.0
H2641 H 0.38719 0.39862 0.92176 0.0
H2642 H 0.3407 0.39449 0.96582 0.0
H2643 H 0.35338 0.39454 0.02505 0.0
H2644 H 0.33857 0.64842 0.71884 0.0
H2645 H 0.3362 0.63153 0.66497 0.0
H2646 H 0.3258 0.58318 0.72345 0.0
H2647 H 0.32862 0.60014 0.77812 0.0
H2648 H 0.35107 0.57765 0.67728 0.0
H2649 H 0.29648 0.6112 0.60779 0.0
H2650 H 0.31103 0.62833 0.62404 0.0
H2651 H 0.29955 0.61374 0.65433 0.0
C2652 C 0.33554 0.63425 0.72035 0.0
C2653 C 0.33385 0.62558 0.75266 0.0
C2654 C 0.3339 0.62463 0.68944 0.0
C2655 C 0.33028 0.60617 0.69008 0.0
C2656 C 0.32829 0.59747 0.72236 0.0
H2657 H 0.34906 0.58109 0.47011 0.0
H2658 H 0.33192 0.57778 0.52458 0.0
C2659 C 0.33 0.60714 0.7535 0.0
C2660 C 0.33127 0.59599 0.65701 0.0
H2661 H 0.32286 0.60267 0.57066 0.0
C2662 C 0.3444 0.58262 0.65406 0.0
C2663 C 0.32212 0.60181 0.62673 0.0
C2664 C 0.30635 0.61441 0.62858 0.0
C2665 C 0.35048 0.57702 0.62124 0.0
C2666 C 0.3436 0.58544 0.59099 0.0
C2667 C 0.3286 0.59667 0.59389 0.0
C2668 C 0.3539 0.58573 0.55802 0.0
C2669 C 0.36511 0.56312 0.61941 0.0
C2670 C 0.37174 0.59169 0.55877 0.0
C2671 C 0.38145 0.59358 0.52803 0.0
C2672 C 0.37346 0.58983 0.49572 0.0
C2673 C 0.35553 0.58406 0.49474 0.0
C2674 C 0.34578 0.58206 0.52575 0.0
H2675 H 0.36334 0.55294 0.6403 0.0
H2676 H 0.36533 0.55623 0.59372 0.0
H2677 H 0.37828 0.56967 0.62374 0.0
H2678 H 0.37808 0.59532 0.58319 0.0
H2679 H 0.39519 0.59819 0.52963 0.0
H2680 H 0.10599 0.58054 0.4704 0.0
H2681 H 0.1231 0.58206 0.41622 0.0
H2682 H 0.17043 0.59692 0.47394 0.0
H2683 H 0.15335 0.59511 0.52874 0.0
H2684 H 0.1573 0.62156 0.41985 0.0
H2685 H 0.1649 0.55205 0.37121 0.0
H2686 H 0.14309 0.55709 0.38854 0.0
H2687 H 0.16223 0.55739 0.41698 0.0
C2688 C 0.12012 0.58381 0.47164 0.0
C2689 C 0.12836 0.58783 0.50361 0.0
C2690 C 0.12992 0.58446 0.44075 0.0
C2691 C 0.14806 0.5893 0.44128 0.0
C2692 C 0.1565 0.59286 0.47324 0.0
H2693 H 0.18911 0.63839 0.25004 0.0
H2694 H 0.19124 0.62462 0.30801 0.0
C2695 C 0.14674 0.59192 0.50436 0.0
C2696 C 0.157 0.59342 0.40797 0.0
H2697 H 0.16579 0.57548 0.32797 0.0
C2698 C 0.15969 0.61151 0.3999 0.0
C2699 C 0.15985 0.58021 0.38223 0.0
C2700 C 0.15752 0.56056 0.39018 0.0
C2701 C 0.16364 0.61695 0.36579 0.0
C2702 C 0.16568 0.60377 0.33941 0.0
C2703 C 0.16423 0.58555 0.34817 0.0
C2704 C 0.16708 0.60881 0.30217 0.0
C2705 C 0.16404 0.63681 0.35797 0.0
C2706 C 0.15367 0.60332 0.27871 0.0
C2707 C 0.15287 0.61066 0.24521 0.0
C2708 C 0.16529 0.62375 0.23519 0.0
C2709 C 0.17934 0.62839 0.25768 0.0
C2710 C 0.18048 0.62064 0.29073 0.0
H2711 H 0.15816 0.64488 0.3795 0.0
H2712 H 0.17813 0.64119 0.35449 0.0
H2713 H 0.15654 0.63988 0.33366 0.0
H2714 H 0.14324 0.59416 0.28696 0.0
H2715 H 0.14191 0.60702 0.22807 0.0
H2716 H 0.18971 0.3677 0.2454 0.0
H2717 H 0.1919 0.38243 0.18848 0.0
H2718 H 0.14282 0.4111 0.21005 0.0
H2719 H 0.14142 0.39724 0.26789 0.0
H2720 H 0.16953 0.37559 0.14126 0.0
H2721 H 0.1679 0.44881 0.1568 0.0
H2722 H 0.17293 0.43409 0.19291 0.0
H2723 H 0.15 0.43929 0.18177 0.0
C2724 C 0.17981 0.37768 0.23829 0.0
C2725 C 0.16544 0.3815 0.2606 0.0
C2726 C 0.18105 0.38609 0.20589 0.0
C2727 C 0.16763 0.39804 0.19496 0.0
C2728 C 0.15367 0.40243 0.21817 0.0
H2729 H 0.10373 0.41405 0.02641 0.0
H2730 H 0.12096 0.41405 0.08045 0.0
C2731 C 0.15273 0.39438 0.25105 0.0
C2732 C 0.1663 0.40308 0.15762 0.0
H2733 H 0.15324 0.43704 0.10367 0.0
C2734 C 0.16662 0.38917 0.1329 0.0
C2735 C 0.16254 0.42078 0.14652 0.0
C2736 C 0.16354 0.43657 0.17097 0.0
C2737 C 0.16172 0.39217 0.09816 0.0
C2738 C 0.15634 0.40951 0.08794 0.0
C2739 C 0.1573 0.42372 0.11182 0.0
C2740 C 0.14673 0.41222 0.05483 0.0
C2741 C 0.16092 0.3765 0.07325 0.0
C2742 C 0.15564 0.41144 0.02263 0.0
C2743 C 0.14579 0.41141 0.99156 0.0
C2744 C 0.12697 0.41202 0.99255 0.0
C2745 C 0.11821 0.41341 0.02487 0.0
C2746 C 0.12802 0.41358 0.05573 0.0
H2747 H 0.16489 0.36369 0.08585 0.0
H2748 H 0.14713 0.37503 0.06276 0.0
H2749 H 0.17003 0.37898 0.05085 0.0
H2750 H 0.1701 0.41031 0.02162 0.0
H2751 H 0.15285 0.4104 0.96693 0.0
loop_
_geom_bond_atom_site_label_1
_geom_bond_atom_site_label_2
_geom_bond_distance
_geom_bond_site_symmetry_2
_ccdc_geom_bond_type
Co0 O1 2.216 . S
Co0 O2 2.091 . S
Co0 O4 2.004 . S
Co0 O10 2.021 . S
Co0 O12 2.137 . S
Co0 O13 2.244 . S
O1 Co0 2.216 . S
O1 C8 1.247 . S
O2 Co0 2.091 . S
O2 C8 1.261 . S
C3 O12 1.247 . S
C3 O13 1.272 . S
O4 Co0 2.004 . S
O4 C9 1.259 . S
Co5 O6 2.061 . S
Co5 O11 2.052 . S
Co5 O13 2.135 . S
O6 Co5 2.061 . S
O6 C9 1.235 . S
C7 O10 1.238 . S
C7 O11 1.241 . S
C8 O1 1.247 . S
C8 O2 1.261 . S
C9 O4 1.259 . S
C9 O6 1.235 . S
O10 Co0 2.021 . S
O10 C7 1.238 . S
O11 Co5 2.052 . S
O11 C7 1.241 . S
O12 Co0 2.137 . S
O12 C3 1.247 . S
O13 Co0 2.244 . S
O13 C3 1.272 . S
O13 Co5 2.135 . S
Co14 O15 2.216 . S
Co14 O16 2.091 . S
Co14 O18 2.004 . S
Co14 O24 2.021 . S
Co14 O26 2.137 . S
Co14 O27 2.244 . S
O15 Co14 2.216 . S
O15 C22 1.247 . S
O16 Co14 2.091 . S
O16 C22 1.261 . S
C17 O26 1.247 . S
C17 O27 1.272 . S
O18 Co14 2.004 . S
O18 C23 1.259 . S
Co19 O20 2.061 . S
Co19 O25 2.052 . S
Co19 O27 2.135 . S
O20 Co19 2.061 . S
O20 C23 1.235 . S
C21 O24 1.238 . S
C21 O25 1.241 . S
C22 O15 1.247 . S
C22 O16 1.261 . S
C23 O18 1.259 . S
C23 O20 1.235 . S
O24 Co14 2.021 . S
O24 C21 1.238 . S
O25 Co19 2.052 . S
O25 C21 1.241 . S
O26 Co14 2.137 . S
O26 C17 1.247 . S
O27 Co14 2.244 . S
O27 C17 1.272 . S
O27 Co19 2.135 . S
Co28 O29 2.216 . S
Co28 O30 2.091 . S
Co28 O32 2.004 . S
Co28 O38 2.021 . S
Co28 O40 2.137 . S
Co28 O41 2.244 . S
O29 Co28 2.216 . S
O29 C36 1.247 . S
O30 Co28 2.091 . S
O30 C36 1.261 . S
C31 O40 1.247 . S
C31 O41 1.272 . S
O32 Co28 2.004 . S
O32 C37 1.259 . S
Co33 O34 2.061 . S
Co33 O39 2.052 . S
Co33 O41 2.135 . S
O34 Co33 2.061 . S
O34 C37 1.235 . S
C35 O38 1.238 . S
C35 O39 1.241 . S
C36 O29 1.247 . S
C36 O30 1.261 . S
C37 O32 1.259 . S
C37 O34 1.235 . S
O38 Co28 2.021 . S
O38 C35 1.238 . S
O39 Co33 2.052 . S
O39 C35 1.241 . S
O40 Co28 2.137 . S
O40 C31 1.247 . S
O41 Co28 2.244 . S
O41 C31 1.272 . S
O41 Co33 2.135 . S
Co42 O43 2.216 . S
Co42 O44 2.091 . S
Co42 O46 2.004 . S
Co42 O52 2.021 . S
Co42 O54 2.137 . S
Co42 O55 2.244 . S
O43 Co42 2.216 . S
O43 C50 1.247 . S
O44 Co42 2.091 . S
O44 C50 1.261 . S
C45 O54 1.247 . S
C45 O55 1.272 . S
O46 Co42 2.004 . S
O46 C51 1.259 . S
Co47 O48 2.061 . S
Co47 O53 2.052 . S
Co47 O55 2.135 . S
O48 Co47 2.061 . S
O48 C51 1.235 . S
C49 O52 1.238 . S
C49 O53 1.241 . S
C50 O43 1.247 . S
C50 O44 1.261 . S
C51 O46 1.259 . S
C51 O48 1.235 . S
O52 Co42 2.021 . S
O52 C49 1.238 . S
O53 Co47 2.052 . S
O53 C49 1.241 . S
O54 Co42 2.137 . S
O54 C45 1.247 . S
O55 Co42 2.244 . S
O55 C45 1.272 . S
O55 Co47 2.135 . S
Co56 O57 2.216 . S
Co56 O58 2.091 . S
Co56 O60 2.004 . S
Co56 O66 2.021 . S
Co56 O68 2.137 . S
Co56 O69 2.244 . S
O57 Co56 2.216 . S
O57 C64 1.247 . S
O58 Co56 2.091 . S
O58 C64 1.261 . S
C59 O68 1.247 . S
C59 O69 1.272 . S
O60 Co56 2.004 . S
O60 C65 1.259 . S
Co61 O62 2.061 . S
Co61 O67 2.052 . S
Co61 O69 2.135 . S
O62 Co61 2.061 . S
O62 C65 1.235 . S
C63 O66 1.238 . S
C63 O67 1.241 . S
C64 O57 1.247 . S
C64 O58 1.261 . S
C65 O60 1.259 . S
C65 O62 1.235 . S
O66 Co56 2.021 . S
O66 C63 1.238 . S
O67 Co61 2.052 . S
O67 C63 1.241 . S
O68 Co56 2.137 . S
O68 C59 1.247 . S
O69 Co56 2.244 . S
O69 C59 1.272 . S
O69 Co61 2.135 . S
Co70 O71 2.216 . S
Co70 O72 2.091 . S
Co70 O74 2.004 . S
Co70 O80 2.021 . S
Co70 O82 2.137 . S
Co70 O83 2.244 . S
O71 Co70 2.216 . S
O71 C78 1.247 . S
O72 Co70 2.091 . S
O72 C78 1.261 . S
C73 O82 1.247 . S
C73 O83 1.272 . S
O74 Co70 2.004 . S
O74 C79 1.259 . S
Co75 O76 2.061 . S
Co75 O81 2.052 . S
Co75 O83 2.135 . S
O76 Co75 2.061 . S
O76 C79 1.235 . S
C77 O80 1.238 . S
C77 O81 1.241 . S
C78 O71 1.247 . S
C78 O72 1.261 . S
C79 O74 1.259 . S
C79 O76 1.235 . S
O80 Co70 2.021 . S
O80 C77 1.238 . S
O81 Co75 2.052 . S
O81 C77 1.241 . S
O82 Co70 2.137 . S
O82 C73 1.247 . S
O83 Co70 2.244 . S
O83 C73 1.272 . S
O83 Co75 2.135 . S
Co84 O85 2.216 . S
Co84 O86 2.091 . S
Co84 O88 2.004 . S
Co84 O94 2.021 . S
Co84 O96 2.137 . S
Co84 O97 2.244 . S
O85 Co84 2.216 . S
O85 C92 1.247 . S
O86 Co84 2.091 . S
O86 C92 1.261 . S
C87 O96 1.247 . S
C87 O97 1.272 . S
O88 Co84 2.004 . S
O88 C93 1.259 . S
Co89 O90 2.061 . S
Co89 O95 2.052 . S
Co89 O97 2.135 . S
O90 Co89 2.061 . S
O90 C93 1.235 . S
C91 O94 1.238 . S
C91 O95 1.241 . S
C92 O85 1.247 . S
C92 O86 1.261 . S
C93 O88 1.259 . S
C93 O90 1.235 . S
O94 Co84 2.021 . S
O94 C91 1.238 . S
O95 Co89 2.052 . S
O95 C91 1.241 . S
O96 Co84 2.137 . S
O96 C87 1.247 . S
O97 Co84 2.244 . S
O97 C87 1.272 . S
O97 Co89 2.135 . S
Co98 O99 2.216 . S
Co98 O100 2.091 . S
Co98 O102 2.004 . S
Co98 O108 2.021 . S
Co98 O110 2.137 . S
Co98 O111 2.244 . S
O99 Co98 2.216 . S
O99 C106 1.247 . S
O100 Co98 2.091 . S
O100 C106 1.261 . S
C101 O110 1.247 . S
C101 O111 1.272 . S
O102 Co98 2.004 . S
O102 C107 1.259 . S
Co103 O104 2.061 . S
Co103 O109 2.052 . S
Co103 O111 2.135 . S
O104 Co103 2.061 . S
O104 C107 1.235 . S
C105 O108 1.238 . S
C105 O109 1.241 . S
C106 O99 1.247 . S
C106 O100 1.261 . S
C107 O102 1.259 . S
C107 O104 1.235 . S
O108 Co98 2.021 . S
O108 C105 1.238 . S
O109 Co103 2.052 . S
O109 C105 1.241 . S
O110 Co98 2.137 . S
O110 C101 1.247 . S
O111 Co98 2.244 . S
O111 C101 1.272 . S
O111 Co103 2.135 . S
Co112 O113 2.216 . S
Co112 O114 2.091 . S
Co112 O116 2.004 . S
Co112 O122 2.021 . S
Co112 O124 2.137 . S
Co112 O125 2.244 . S
O113 Co112 2.216 . S
O113 C120 1.247 . S
O114 Co112 2.091 . S
O114 C120 1.261 . S
C115 O124 1.247 . S
C115 O125 1.272 . S
O116 Co112 2.004 . S
O116 C121 1.259 . S
Co117 O118 2.061 . S
Co117 O123 2.052 . S
Co117 O125 2.135 . S
O118 Co117 2.061 . S
O118 C121 1.235 . S
C119 O122 1.238 . S
C119 O123 1.241 . S
C120 O113 1.247 . S
C120 O114 1.261 . S
C121 O116 1.259 . S
C121 O118 1.235 . S
O122 Co112 2.021 . S
O122 C119 1.238 . S
O123 Co117 2.052 . S
O123 C119 1.241 . S
O124 Co112 2.137 . S
O124 C115 1.247 . S
O125 Co112 2.244 . S
O125 C115 1.272 . S
O125 Co117 2.135 . S
Co126 O127 2.216 . S
Co126 O128 2.091 . S
Co126 O130 2.004 . S
Co126 O136 2.021 . S
Co126 O138 2.137 . S
Co126 O139 2.244 . S
O127 Co126 2.216 . S
O127 C134 1.247 . S
O128 Co126 2.091 . S
O128 C134 1.261 . S
C129 O138 1.247 . S
C129 O139 1.272 . S
O130 Co126 2.004 . S
O130 C135 1.259 . S
Co131 O132 2.061 . S
Co131 O137 2.052 . S
Co131 O139 2.135 . S
O132 Co131 2.061 . S
O132 C135 1.235 . S
C133 O136 1.238 . S
C133 O137 1.241 . S
C134 O127 1.247 . S
C134 O128 1.261 . S
C135 O130 1.259 . S
C135 O132 1.235 . S
O136 Co126 2.021 . S
O136 C133 1.238 . S
O137 Co131 2.052 . S
O137 C133 1.241 . S
O138 Co126 2.137 . S
O138 C129 1.247 . S
O139 Co126 2.244 . S
O139 C129 1.272 . S
O139 Co131 2.135 . S
Co140 O141 2.216 . S
Co140 O142 2.091 . S
Co140 O144 2.004 . S
Co140 O150 2.021 . S
Co140 O152 2.137 . S
Co140 O153 2.244 . S
O141 Co140 2.216 . S
O141 C148 1.247 . S
O142 Co140 2.091 . S
O142 C148 1.261 . S
C143 O152 1.247 . S
C143 O153 1.272 . S
O144 Co140 2.004 . S
O144 C149 1.259 . S
Co145 O146 2.061 . S
Co145 O151 2.052 . S
Co145 O153 2.135 . S
O146 Co145 2.061 . S
O146 C149 1.235 . S
C147 O150 1.238 . S
C147 O151 1.241 . S
C148 O141 1.247 . S
C148 O142 1.261 . S
C149 O144 1.259 . S
C149 O146 1.235 . S
O150 Co140 2.021 . S
O150 C147 1.238 . S
O151 Co145 2.052 . S
O151 C147 1.241 . S
O152 Co140 2.137 . S
O152 C143 1.247 . S
O153 Co140 2.244 . S
O153 C143 1.272 . S
O153 Co145 2.135 . S
Co154 O155 2.216 . S
Co154 O156 2.091 . S
Co154 O158 2.004 . S
Co154 O164 2.021 . S
Co154 O166 2.137 . S
Co154 O167 2.244 . S
O155 Co154 2.216 . S
O155 C162 1.247 . S
O156 Co154 2.091 . S
O156 C162 1.261 . S
C157 O166 1.247 . S
C157 O167 1.272 . S
O158 Co154 2.004 . S
O158 C163 1.259 . S
Co159 O160 2.061 . S
Co159 O165 2.052 . S
Co159 O167 2.135 . S
O160 Co159 2.061 . S
O160 C163 1.235 . S
C161 O164 1.238 . S
C161 O165 1.241 . S
C162 O155 1.247 . S
C162 O156 1.261 . S
C163 O158 1.259 . S
C163 O160 1.235 . S
O164 Co154 2.021 . S
O164 C161 1.238 . S
O165 Co159 2.052 . S
O165 C161 1.241 . S
O166 Co154 2.137 . S
O166 C157 1.247 . S
O167 Co154 2.244 . S
O167 C157 1.272 . S
O167 Co159 2.135 . S
Co168 O169 2.216 . S
Co168 O170 2.091 . S
Co168 O172 2.004 . S
Co168 O178 2.021 . S
Co168 O180 2.137 . S
Co168 O181 2.244 . S
O169 Co168 2.216 . S
O169 C176 1.247 . S
O170 Co168 2.091 . S
O170 C176 1.261 . S
C171 O180 1.247 . S
C171 O181 1.272 . S
O172 Co168 2.004 . S
O172 C177 1.259 . S
Co173 O174 2.061 . S
Co173 O179 2.052 . S
Co173 O181 2.135 . S
O174 Co173 2.061 . S
O174 C177 1.235 . S
C175 O178 1.238 . S
C175 O179 1.241 . S
C176 O169 1.247 . S
C176 O170 1.261 . S
C177 O172 1.259 . S
C177 O174 1.235 . S
O178 Co168 2.021 . S
O178 C175 1.238 . S
O179 Co173 2.052 . S
O179 C175 1.241 . S
O180 Co168 2.137 . S
O180 C171 1.247 . S
O181 Co168 2.244 . S
O181 C171 1.272 . S
O181 Co173 2.135 . S
Co182 O183 2.216 . S
Co182 O184 2.091 . S
Co182 O186 2.004 . S
Co182 O192 2.021 . S
Co182 O194 2.137 . S
Co182 O195 2.244 . S
O183 Co182 2.216 . S
O183 C190 1.247 . S
O184 Co182 2.091 . S
O184 C190 1.261 . S
C185 O194 1.247 . S
C185 O195 1.272 . S
O186 Co182 2.004 . S
O186 C191 1.259 . S
Co187 O188 2.061 . S
Co187 O193 2.052 . S
Co187 O195 2.135 . S
O188 Co187 2.061 . S
O188 C191 1.235 . S
C189 O192 1.238 . S
C189 O193 1.241 . S
C190 O183 1.247 . S
C190 O184 1.261 . S
C191 O186 1.259 . S
C191 O188 1.235 . S
O192 Co182 2.021 . S
O192 C189 1.238 . S
O193 Co187 2.052 . S
O193 C189 1.241 . S
O194 Co182 2.137 . S
O194 C185 1.247 . S
O195 Co182 2.244 . S
O195 C185 1.272 . S
O195 Co187 2.135 . S
Co196 O197 2.216 . S
Co196 O198 2.091 . S
Co196 O200 2.004 . S
Co196 O206 2.021 . S
Co196 O208 2.137 . S
Co196 O209 2.244 . S
O197 Co196 2.216 . S
O197 C204 1.247 . S
O198 Co196 2.091 . S
O198 C204 1.261 . S
C199 O208 1.247 . S
C199 O209 1.272 . S
O200 Co196 2.004 . S
O200 C205 1.259 . S
Co201 O202 2.061 . S
Co201 O207 2.052 . S
Co201 O209 2.135 . S
O202 Co201 2.061 . S
O202 C205 1.235 . S
C203 O206 1.238 . S
C203 O207 1.241 . S
C204 O197 1.247 . S
C204 O198 1.261 . S
C205 O200 1.259 . S
C205 O202 1.235 . S
O206 Co196 2.021 . S
O206 C203 1.238 . S
O207 Co201 2.052 . S
O207 C203 1.241 . S
O208 Co196 2.137 . S
O208 C199 1.247 . S
O209 Co196 2.244 . S
O209 C199 1.272 . S
O209 Co201 2.135 . S
Co210 O211 2.216 . S
Co210 O212 2.091 . S
Co210 O214 2.004 . S
Co210 O220 2.021 . S
Co210 O222 2.137 . S
Co210 O223 2.244 . S
O211 Co210 2.216 . S
O211 C218 1.247 . S
O212 Co210 2.091 . S
O212 C218 1.261 . S
C213 O222 1.247 . S
C213 O223 1.272 . S
O214 Co210 2.004 . S
O214 C219 1.259 . S
Co215 O216 2.061 . S
Co215 O221 2.052 . S
Co215 O223 2.135 . S
O216 Co215 2.061 . S
O216 C219 1.235 . S
C217 O220 1.238 . S
C217 O221 1.241 . S
C218 O211 1.247 . S
C218 O212 1.261 . S
C219 O214 1.259 . S
C219 O216 1.235 . S
O220 Co210 2.021 . S
O220 C217 1.238 . S
O221 Co215 2.052 . S
O221 C217 1.241 . S
O222 Co210 2.137 . S
O222 C213 1.247 . S
O223 Co210 2.244 . S
O223 C213 1.272 . S
O223 Co215 2.135 . S
Co224 O225 2.216 . S
Co224 O226 2.091 . S
Co224 O228 2.004 . S
Co224 O234 2.021 . S
Co224 O236 2.137 . S
Co224 O237 2.244 . S
O225 Co224 2.216 . S
O225 C232 1.247 . S
O226 Co224 2.091 . S
O226 C232 1.261 . S
C227 O236 1.247 . S
C227 O237 1.272 . S
O228 Co224 2.004 . S
O228 C233 1.259 . S
Co229 O230 2.061 . S
Co229 O235 2.052 . S
Co229 O237 2.135 . S
O230 Co229 2.061 . S
O230 C233 1.235 . S
C231 O234 1.238 . S
C231 O235 1.241 . S
C232 O225 1.247 . S
C232 O226 1.261 . S
C233 O228 1.259 . S
C233 O230 1.235 . S
O234 Co224 2.021 . S
O234 C231 1.238 . S
O235 Co229 2.052 . S
O235 C231 1.241 . S
O236 Co224 2.137 . S
O236 C227 1.247 . S
O237 Co224 2.244 . S
O237 C227 1.272 . S
O237 Co229 2.135 . S
Co238 O239 2.216 . S
Co238 O240 2.091 . S
Co238 O242 2.004 . S
Co238 O248 2.021 . S
Co238 O250 2.137 . S
Co238 O251 2.244 . S
O239 Co238 2.216 . S
O239 C246 1.247 . S
O240 Co238 2.091 . S
O240 C246 1.261 . S
C241 O250 1.247 . S
C241 O251 1.272 . S
O242 Co238 2.004 . S
O242 C247 1.259 . S
Co243 O244 2.061 . S
Co243 O249 2.052 . S
Co243 O251 2.135 . S
O244 Co243 2.061 . S
O244 C247 1.235 . S
C245 O248 1.238 . S
C245 O249 1.241 . S
C246 O239 1.247 . S
C246 O240 1.261 . S
C247 O242 1.259 . S
C247 O244 1.235 . S
O248 Co238 2.021 . S
O248 C245 1.238 . S
O249 Co243 2.052 . S
O249 C245 1.241 . S
O250 Co238 2.137 . S
O250 C241 1.247 . S
O251 Co238 2.244 . S
O251 C241 1.272 . S
O251 Co243 2.135 . S
Co252 O253 2.216 . S
Co252 O254 2.091 . S
Co252 O256 2.004 . S
Co252 O262 2.021 . S
Co252 O264 2.137 . S
Co252 O265 2.244 . S
O253 Co252 2.216 . S
O253 C260 1.247 . S
O254 Co252 2.091 . S
O254 C260 1.261 . S
C255 O264 1.247 . S
C255 O265 1.272 . S
O256 Co252 2.004 . S
O256 C261 1.259 . S
Co257 O258 2.061 . S
Co257 O263 2.052 . S
Co257 O265 2.135 . S
O258 Co257 2.061 . S
O258 C261 1.235 . S
C259 O262 1.238 . S
C259 O263 1.241 . S
C260 O253 1.247 . S
C260 O254 1.261 . S
C261 O256 1.259 . S
C261 O258 1.235 . S
O262 Co252 2.021 . S
O262 C259 1.238 . S
O263 Co257 2.052 . S
O263 C259 1.241 . S
O264 Co252 2.137 . S
O264 C255 1.247 . S
O265 Co252 2.244 . S
O265 C255 1.272 . S
O265 Co257 2.135 . S
Co266 O267 2.216 . S
Co266 O268 2.091 . S
Co266 O270 2.004 . S
Co266 O276 2.021 . S
Co266 O278 2.137 . S
Co266 O279 2.244 . S
O267 Co266 2.216 . S
O267 C274 1.247 . S
O268 Co266 2.091 . S
O268 C274 1.261 . S
C269 O278 1.247 . S
C269 O279 1.272 . S
O270 Co266 2.004 . S
O270 C275 1.259 . S
Co271 O272 2.061 . S
Co271 O277 2.052 . S
Co271 O279 2.135 . S
O272 Co271 2.061 . S
O272 C275 1.235 . S
C273 O276 1.238 . S
C273 O277 1.241 . S
C274 O267 1.247 . S
C274 O268 1.261 . S
C275 O270 1.259 . S
C275 O272 1.235 . S
O276 Co266 2.021 . S
O276 C273 1.238 . S
O277 Co271 2.052 . S
O277 C273 1.241 . S
O278 Co266 2.137 . S
O278 C269 1.247 . S
O279 Co266 2.244 . S
O279 C269 1.272 . S
O279 Co271 2.135 . S
Co280 O281 2.216 . S
Co280 O282 2.091 . S
Co280 O284 2.004 . S
Co280 O290 2.021 . S
Co280 O292 2.137 . S
Co280 O293 2.244 . S
O281 Co280 2.216 . S
O281 C288 1.247 . S
O282 Co280 2.091 . S
O282 C288 1.261 . S
C283 O292 1.247 . S
C283 O293 1.272 . S
O284 Co280 2.004 . S
O284 C289 1.259 . S
Co285 O286 2.061 . S
Co285 O291 2.052 . S
Co285 O293 2.135 . S
O286 Co285 2.061 . S
O286 C289 1.235 . S
C287 O290 1.238 . S
C287 O291 1.241 . S
C288 O281 1.247 . S
C288 O282 1.261 . S
C289 O284 1.259 . S
C289 O286 1.235 . S
O290 Co280 2.021 . S
O290 C287 1.238 . S
O291 Co285 2.052 . S
O291 C287 1.241 . S
O292 Co280 2.137 . S
O292 C283 1.247 . S
O293 Co280 2.244 . S
O293 C283 1.272 . S
O293 Co285 2.135 . S
Co294 O295 2.216 . S
Co294 O296 2.091 . S
Co294 O298 2.004 . S
Co294 O304 2.021 . S
Co294 O306 2.137 . S
Co294 O307 2.244 . S
O295 Co294 2.216 . S
O295 C302 1.247 . S
O296 Co294 2.091 . S
O296 C302 1.261 . S
C297 O306 1.247 . S
C297 O307 1.272 . S
O298 Co294 2.004 . S
O298 C303 1.259 . S
Co299 O300 2.061 . S
Co299 O305 2.052 . S
Co299 O307 2.135 . S
O300 Co299 2.061 . S
O300 C303 1.235 . S
C301 O304 1.238 . S
C301 O305 1.241 . S
C302 O295 1.247 . S
C302 O296 1.261 . S
C303 O298 1.259 . S
C303 O300 1.235 . S
O304 Co294 2.021 . S
O304 C301 1.238 . S
O305 Co299 2.052 . S
O305 C301 1.241 . S
O306 Co294 2.137 . S
O306 C297 1.247 . S
O307 Co294 2.244 . S
O307 C297 1.272 . S
O307 Co299 2.135 . S
Co308 O309 2.216 . S
Co308 O310 2.091 . S
Co308 O312 2.004 . S
Co308 O318 2.021 . S
Co308 O320 2.137 . S
Co308 O321 2.244 . S
O309 Co308 2.216 . S
O309 C316 1.247 . S
O310 Co308 2.091 . S
O310 C316 1.261 . S
C311 O320 1.247 . S
C311 O321 1.272 . S
O312 Co308 2.004 . S
O312 C317 1.259 . S
Co313 O314 2.061 . S
Co313 O319 2.052 . S
Co313 O321 2.135 . S
O314 Co313 2.061 . S
O314 C317 1.235 . S
C315 O318 1.238 . S
C315 O319 1.241 . S
C316 O309 1.247 . S
C316 O310 1.261 . S
C317 O312 1.259 . S
C317 O314 1.235 . S
O318 Co308 2.021 . S
O318 C315 1.238 . S
O319 Co313 2.052 . S
O319 C315 1.241 . S
O320 Co308 2.137 . S
O320 C311 1.247 . S
O321 Co308 2.244 . S
O321 C311 1.272 . S
O321 Co313 2.135 . S
Co322 O323 2.216 . S
Co322 O324 2.091 . S
Co322 O326 2.004 . S
Co322 O332 2.021 . S
Co322 O334 2.137 . S
Co322 O335 2.244 . S
O323 Co322 2.216 . S
O323 C330 1.247 . S
O324 Co322 2.091 . S
O324 C330 1.261 . S
C325 O334 1.247 . S
C325 O335 1.272 . S
O326 Co322 2.004 . S
O326 C331 1.259 . S
Co327 O328 2.061 . S
Co327 O333 2.052 . S
Co327 O335 2.135 . S
O328 Co327 2.061 . S
O328 C331 1.235 . S
C329 O332 1.238 . S
C329 O333 1.241 . S
C330 O323 1.247 . S
C330 O324 1.261 . S
C331 O326 1.259 . S
C331 O328 1.235 . S
O332 Co322 2.021 . S
O332 C329 1.238 . S
O333 Co327 2.052 . S
O333 C329 1.241 . S
O334 Co322 2.137 . S
O334 C325 1.247 . S
O335 Co322 2.244 . S
O335 C325 1.272 . S
O335 Co327 2.135 . S
Co336 O337 2.216 . S
Co336 O338 2.091 . S
Co336 O340 2.004 . S
Co336 O346 2.021 . S
Co336 O348 2.137 . S
Co336 O349 2.244 . S
O337 Co336 2.216 . S
O337 C344 1.247 . S
O338 Co336 2.091 . S
O338 C344 1.261 . S
C339 O348 1.247 . S
C339 O349 1.272 . S
O340 Co336 2.004 . S
O340 C345 1.259 . S
Co341 O342 2.061 . S
Co341 O347 2.052 . S
Co341 O349 2.135 . S
O342 Co341 2.061 . S
O342 C345 1.235 . S
C343 O346 1.238 . S
C343 O347 1.241 . S
C344 O337 1.247 . S
C344 O338 1.261 . S
C345 O340 1.259 . S
C345 O342 1.235 . S
O346 Co336 2.021 . S
O346 C343 1.238 . S
O347 Co341 2.052 . S
O347 C343 1.241 . S
O348 Co336 2.137 . S
O348 C339 1.247 . S
O349 Co336 2.244 . S
O349 C339 1.272 . S
O349 Co341 2.135 . S
Co350 O351 2.216 . S
Co350 O352 2.091 . S
Co350 O354 2.004 . S
Co350 O360 2.021 . S
Co350 O362 2.137 . S
Co350 O363 2.244 . S
O351 Co350 2.216 . S
O351 C358 1.247 . S
O352 Co350 2.091 . S
O352 C358 1.261 . S
C353 O362 1.247 . S
C353 O363 1.272 . S
O354 Co350 2.004 . S
O354 C359 1.259 . S
Co355 O356 2.061 . S
Co355 O361 2.052 . S
Co355 O363 2.135 . S
O356 Co355 2.061 . S
O356 C359 1.235 . S
C357 O360 1.238 . S
C357 O361 1.241 . S
C358 O351 1.247 . S
C358 O352 1.261 . S
C359 O354 1.259 . S
C359 O356 1.235 . S
O360 Co350 2.021 . S
O360 C357 1.238 . S
O361 Co355 2.052 . S
O361 C357 1.241 . S
O362 Co350 2.137 . S
O362 C353 1.247 . S
O363 Co350 2.244 . S
O363 C353 1.272 . S
O363 Co355 2.135 . S
Co364 O365 2.216 . S
Co364 O366 2.091 . S
Co364 O368 2.004 . S
Co364 O374 2.021 . S
Co364 O376 2.137 . S
Co364 O377 2.244 . S
O365 Co364 2.216 . S
O365 C372 1.247 . S
O366 Co364 2.091 . S
O366 C372 1.261 . S
C367 O376 1.247 . S
C367 O377 1.272 . S
O368 Co364 2.004 . S
O368 C373 1.259 . S
Co369 O370 2.061 . S
Co369 O375 2.052 . S
Co369 O377 2.135 . S
O370 Co369 2.061 . S
O370 C373 1.235 . S
C371 O374 1.238 . S
C371 O375 1.241 . S
C372 O365 1.247 . S
C372 O366 1.261 . S
C373 O368 1.259 . S
C373 O370 1.235 . S
O374 Co364 2.021 . S
O374 C371 1.238 . S
O375 Co369 2.052 . S
O375 C371 1.241 . S
O376 Co364 2.137 . S
O376 C367 1.247 . S
O377 Co364 2.244 . S
O377 C367 1.272 . S
O377 Co369 2.135 . S
Co378 O379 2.216 . S
Co378 O380 2.091 . S
Co378 O382 2.004 . S
Co378 O388 2.021 . S
Co378 O390 2.137 . S
Co378 O391 2.244 . S
O379 Co378 2.216 . S
O379 C386 1.247 . S
O380 Co378 2.091 . S
O380 C386 1.261 . S
C381 O390 1.247 . S
C381 O391 1.272 . S
O382 Co378 2.004 . S
O382 C387 1.259 . S
Co383 O384 2.061 . S
Co383 O389 2.052 . S
Co383 O391 2.135 . S
O384 Co383 2.061 . S
O384 C387 1.235 . S
C385 O388 1.238 . S
C385 O389 1.241 . S
C386 O379 1.247 . S
C386 O380 1.261 . S
C387 O382 1.259 . S
C387 O384 1.235 . S
O388 Co378 2.021 . S
O388 C385 1.238 . S
O389 Co383 2.052 . S
O389 C385 1.241 . S
O390 Co378 2.137 . S
O390 C381 1.247 . S
O391 Co378 2.244 . S
O391 C381 1.272 . S
O391 Co383 2.135 . S
Co392 O393 2.216 . S
Co392 O394 2.091 . S
Co392 O396 2.004 . S
Co392 O402 2.021 . S
Co392 O404 2.137 . S
Co392 O405 2.244 . S
O393 Co392 2.216 . S
O393 C400 1.247 . S
O394 Co392 2.091 . S
O394 C400 1.261 . S
C395 O404 1.247 . S
C395 O405 1.272 . S
O396 Co392 2.004 . S
O396 C401 1.259 . S
Co397 O398 2.061 . S
Co397 O403 2.052 . S
Co397 O405 2.135 . S
O398 Co397 2.061 . S
O398 C401 1.235 . S
C399 O402 1.238 . S
C399 O403 1.241 . S
C400 O393 1.247 . S
C400 O394 1.261 . S
C401 O396 1.259 . S
C401 O398 1.235 . S
O402 Co392 2.021 . S
O402 C399 1.238 . S
O403 Co397 2.052 . S
O403 C399 1.241 . S
O404 Co392 2.137 . S
O404 C395 1.247 . S
O405 Co392 2.244 . S
O405 C395 1.272 . S
O405 Co397 2.135 . S
Co406 O407 2.216 . S
Co406 O408 2.091 . S
Co406 O410 2.004 . S
Co406 O416 2.021 . S
Co406 O418 2.137 . S
Co406 O419 2.244 . S
O407 Co406 2.216 . S
O407 C414 1.247 . S
O408 Co406 2.091 . S
O408 C414 1.261 . S
C409 O418 1.247 . S
C409 O419 1.272 . S
O410 Co406 2.004 . S
O410 C415 1.259 . S
Co411 O412 2.061 . S
Co411 O417 2.052 . S
Co411 O419 2.135 . S
O412 Co411 2.061 . S
O412 C415 1.235 . S
C413 O416 1.238 . S
C413 O417 1.241 . S
C414 O407 1.247 . S
C414 O408 1.261 . S
C415 O410 1.259 . S
C415 O412 1.235 . S
O416 Co406 2.021 . S
O416 C413 1.238 . S
O417 Co411 2.052 . S
O417 C413 1.241 . S
O418 Co406 2.137 . S
O418 C409 1.247 . S
O419 Co406 2.244 . S
O419 C409 1.272 . S
O419 Co411 2.135 . S
Co420 O421 2.216 . S
Co420 O422 2.091 . S
Co420 O424 2.004 . S
Co420 O430 2.021 . S
Co420 O432 2.137 . S
Co420 O433 2.244 . S
O421 Co420 2.216 . S
O421 C428 1.247 . S
O422 Co420 2.091 . S
O422 C428 1.261 . S
C423 O432 1.247 . S
C423 O433 1.272 . S
O424 Co420 2.004 . S
O424 C429 1.259 . S
Co425 O426 2.061 . S
Co425 O431 2.052 . S
Co425 O433 2.135 . S
O426 Co425 2.061 . S
O426 C429 1.235 . S
C427 O430 1.238 . S
C427 O431 1.241 . S
C428 O421 1.247 . S
C428 O422 1.261 . S
C429 O424 1.259 . S
C429 O426 1.235 . S
O430 Co420 2.021 . S
O430 C427 1.238 . S
O431 Co425 2.052 . S
O431 C427 1.241 . S
O432 Co420 2.137 . S
O432 C423 1.247 . S
O433 Co420 2.244 . S
O433 C423 1.272 . S
O433 Co425 2.135 . S
Co434 O435 2.216 . S
Co434 O436 2.091 . S
Co434 O438 2.004 . S
Co434 O444 2.021 . S
Co434 O446 2.137 . S
Co434 O447 2.244 . S
O435 Co434 2.216 . S
O435 C442 1.247 . S
O436 Co434 2.091 . S
O436 C442 1.261 . S
C437 O446 1.247 . S
C437 O447 1.272 . S
O438 Co434 2.004 . S
O438 C443 1.259 . S
Co439 O440 2.061 . S
Co439 O445 2.052 . S
Co439 O447 2.135 . S
O440 Co439 2.061 . S
O440 C443 1.235 . S
C441 O444 1.238 . S
C441 O445 1.241 . S
C442 O435 1.247 . S
C442 O436 1.261 . S
C443 O438 1.259 . S
C443 O440 1.235 . S
O444 Co434 2.021 . S
O444 C441 1.238 . S
O445 Co439 2.052 . S
O445 C441 1.241 . S
O446 Co434 2.137 . S
O446 C437 1.247 . S
O447 Co434 2.244 . S
O447 C437 1.272 . S
O447 Co439 2.135 . S
H448 C456 0.929 . S
H449 C458 0.930 . S
H450 C460 0.930 . S
H451 C463 0.929 . S
H452 C466 0.930 . S
H453 C468 0.960 . S
H454 C468 0.960 . S
H455 C468 0.960 . S
C456 H448 0.929 . S
C456 C457 1.377 . S
C456 C458 1.384 . S
C457 C456 1.377 . S
C457 C463 1.390 . S
C458 H449 0.930 . S
C458 C456 1.384 . S
C458 C459 1.372 . S
C459 C458 1.372 . S
C459 C460 1.400 . S
C459 C464 1.490 . S
C460 H450 0.930 . S
C460 C459 1.400 . S
C460 C463 1.386 . S
H461 C477 0.930 . S
H462 C478 0.931 . S
C463 H451 0.929 . S
C463 C457 1.390 . S
C463 C460 1.386 . S
C464 C459 1.490 . S
C464 C466 1.395 1_545 S
C464 C467 1.403 . S
H465 C471 0.928 1_545 S
C466 H452 0.930 . S
C466 C464 1.395 1_565 S
C466 C469 1.403 . S
C467 C464 1.403 . S
C467 C468 1.524 . S
C467 C471 1.404 1_545 S
C468 H453 0.960 . S
C468 H454 0.960 . S
C468 H455 0.960 . S
C468 C467 1.524 . S
C469 C466 1.403 . S
C469 C470 1.392 . S
C469 C473 1.495 . S
C470 C469 1.392 . S
C470 C471 1.381 . S
C470 C472 1.478 . S
C471 H465 0.928 1_565 S
C471 C467 1.404 1_565 S
C471 C470 1.381 . S
C472 C470 1.478 . S
C472 C474 1.381 . S
C472 C478 1.383 . S
C473 C469 1.495 . S
C473 H479 0.959 . S
C473 H480 0.961 . S
C473 H481 0.960 . S
C474 C472 1.381 . S
C474 C475 1.394 . S
C474 H482 0.930 . S
C475 C474 1.394 . S
C475 C476 1.383 . S
C475 H483 0.929 . S
C476 C475 1.383 . S
C476 C477 1.377 . S
C477 H461 0.930 . S
C477 C476 1.377 . S
C477 C478 1.379 . S
C478 H462 0.931 . S
C478 C472 1.383 . S
C478 C477 1.379 . S
H479 C473 0.959 . S
H480 C473 0.961 . S
H481 C473 0.960 . S
H482 C474 0.930 . S
H483 C475 0.929 . S
H484 C492 0.929 . S
H485 C494 0.930 . S
H486 C496 0.930 . S
H487 C499 0.929 . S
H488 C502 0.930 . S
H489 C504 0.960 . S
H490 C504 0.960 . S
H491 C504 0.960 . S
C492 H484 0.929 . S
C492 C493 1.377 . S
C492 C494 1.384 . S
C493 C492 1.377 . S
C493 C499 1.390 . S
C494 H485 0.930 . S
C494 C492 1.384 . S
C494 C495 1.372 . S
C495 C494 1.372 . S
C495 C496 1.400 . S
C495 C500 1.490 . S
C496 H486 0.930 . S
C496 C495 1.400 . S
C496 C499 1.386 . S
H497 C513 0.930 . S
H498 C514 0.931 . S
C499 H487 0.929 . S
C499 C493 1.390 . S
C499 C496 1.386 . S
C500 C495 1.490 . S
C500 C502 1.395 . S
C500 C503 1.403 . S
H501 C507 0.930 . S
C502 H488 0.930 . S
C502 C500 1.395 . S
C502 C505 1.403 . S
C503 C500 1.403 . S
C503 C504 1.524 . S
C503 C507 1.400 . S
C504 H489 0.960 . S
C504 H490 0.960 . S
C504 H491 0.960 . S
C504 C503 1.524 . S
C505 C502 1.403 . S
C505 C506 1.392 . S
C505 C509 1.495 . S
C506 C505 1.392 . S
C506 C507 1.385 . S
C506 C508 1.478 . S
C507 H501 0.930 . S
C507 C503 1.400 . S
C507 C506 1.385 . S
C508 C506 1.478 . S
C508 C510 1.381 . S
C508 C514 1.383 . S
C509 C505 1.495 . S
C509 H515 0.959 . S
C509 H516 0.961 . S
C509 H517 0.960 . S
C510 C508 1.381 . S
C510 C511 1.394 . S
C510 H518 0.930 . S
C511 C510 1.394 . S
C511 C512 1.383 . S
C511 H519 0.929 . S
C512 C511 1.383 . S
C512 C513 1.377 . S
C513 H497 0.930 . S
C513 C512 1.377 . S
C513 C514 1.379 . S
C514 H498 0.931 . S
C514 C508 1.383 . S
C514 C513 1.379 . S
H515 C509 0.959 . S
H516 C509 0.961 . S
H517 C509 0.960 . S
H518 C510 0.930 . S
H519 C511 0.929 . S
H520 C528 0.929 . S
H521 C530 0.930 . S
H522 C532 0.930 . S
H523 C535 0.929 . S
H524 C538 0.930 . S
H525 C540 0.960 1_565 S
H526 C540 0.960 . S
H527 C540 0.960 . S
C528 H520 0.929 . S
C528 C529 1.377 . S
C528 C530 1.384 . S
C529 C528 1.377 . S
C529 C535 1.390 . S
C530 H521 0.930 . S
C530 C528 1.384 . S
C530 C531 1.372 . S
C531 C530 1.372 . S
C531 C532 1.400 . S
C531 C536 1.490 . S
C532 H522 0.930 . S
C532 C531 1.400 . S
C532 C535 1.386 . S
H533 C549 0.930 . S
H534 C550 0.931 . S
C535 H523 0.929 . S
C535 C529 1.390 . S
C535 C532 1.386 . S
C536 C531 1.490 . S
C536 C538 1.395 . S
C536 C539 1.403 . S
H537 C543 0.930 . S
C538 H524 0.930 . S
C538 C536 1.395 . S
C538 C541 1.403 1_545 S
C539 C536 1.403 . S
C539 C540 1.524 . S
C539 C543 1.400 1_545 S
C540 H525 0.960 1_545 S
C540 H526 0.960 . S
C540 H527 0.960 . S
C540 C539 1.524 . S
C541 C538 1.403 1_565 S
C541 C542 1.392 . S
C541 C545 1.495 . S
C542 C541 1.392 . S
C542 C543 1.385 . S
C542 C544 1.478 . S
C543 H537 0.930 . S
C543 C539 1.400 1_565 S
C543 C542 1.385 . S
C544 C542 1.478 . S
C544 C546 1.381 . S
C544 C550 1.383 . S
C545 C541 1.495 . S
C545 H551 0.955 1_565 S
C545 H552 0.961 . S
C545 H553 0.960 . S
C546 C544 1.381 . S
C546 C547 1.394 . S
C546 H554 0.930 . S
C547 C546 1.394 . S
C547 C548 1.383 . S
C547 H555 0.929 . S
C548 C547 1.383 . S
C548 C549 1.377 . S
C549 H533 0.930 . S
C549 C548 1.377 . S
C549 C550 1.379 . S
C550 H534 0.931 . S
C550 C544 1.383 . S
C550 C549 1.379 . S
H551 C545 0.955 1_545 S
H552 C545 0.961 . S
H553 C545 0.960 . S
H554 C546 0.930 . S
H555 C547 0.929 . S
H556 C564 0.929 . S
H557 C566 0.930 . S
H558 C568 0.930 . S
H559 C571 0.929 . S
H560 C574 0.930 . S
H561 C576 0.960 1_554 S
H562 C576 0.960 . S
H563 C576 0.968 . S
C564 H556 0.929 . S
C564 C565 1.377 . S
C564 C566 1.384 . S
C565 C564 1.377 . S
C565 C571 1.390 . S
C566 H557 0.930 . S
C566 C564 1.384 . S
C566 C567 1.372 . S
C567 C566 1.372 . S
C567 C568 1.400 . S
C567 C572 1.490 . S
C568 H558 0.930 . S
C568 C567 1.400 . S
C568 C571 1.386 . S
H569 C585 0.930 . S
H570 C586 0.931 . S
C571 H559 0.929 . S
C571 C565 1.390 . S
C571 C568 1.386 . S
C572 C567 1.490 . S
C572 C574 1.395 . S
C572 C575 1.403 . S
H573 C579 0.930 . S
C574 H560 0.930 . S
C574 C572 1.395 . S
C574 C577 1.405 1_556 S
C575 C572 1.403 . S
C575 C576 1.524 . S
C575 C579 1.400 1_556 S
C576 H561 0.960 1_556 S
C576 H562 0.960 . S
C576 H563 0.968 . S
C576 C575 1.524 . S
C577 C574 1.405 1_554 S
C577 C578 1.391 . S
C577 C581 1.495 . S
C578 C577 1.391 . S
C578 C579 1.385 . S
C578 C580 1.478 . S
C579 H573 0.930 . S
C579 C575 1.400 1_554 S
C579 C578 1.385 . S
C580 C578 1.478 . S
C580 C582 1.381 . S
C580 C586 1.383 . S
C581 C577 1.495 . S
C581 H587 0.959 1_554 S
C581 H588 0.961 . S
C581 H589 0.960 1_554 S
C582 C580 1.381 . S
C582 C583 1.394 . S
C582 H590 0.930 . S
C583 C582 1.394 . S
C583 C584 1.383 . S
C583 H591 0.929 . S
C584 C583 1.383 . S
C584 C585 1.377 . S
C585 H569 0.930 . S
C585 C584 1.377 . S
C585 C586 1.379 . S
C586 H570 0.931 . S
C586 C580 1.383 . S
C586 C585 1.379 . S
H587 C581 0.959 1_556 S
H588 C581 0.961 . S
H589 C581 0.960 1_556 S
H590 C582 0.930 . S
H591 C583 0.929 . S
H592 C600 0.929 . S
H593 C602 0.930 . S
H594 C604 0.930 . S
H595 C607 0.929 . S
H596 C610 0.930 . S
H597 C612 0.960 . S
H598 C612 0.960 . S
H599 C612 0.977 . S
C600 H592 0.929 . S
C600 C601 1.377 . S
C600 C602 1.384 . S
C601 C600 1.377 . S
C601 C607 1.390 . S
C602 H593 0.930 . S
C602 C600 1.384 . S
C602 C603 1.372 . S
C603 C602 1.372 . S
C603 C604 1.400 . S
C603 C608 1.490 . S
C604 H594 0.930 . S
C604 C603 1.400 . S
C604 C607 1.386 . S
H605 C621 0.930 . S
H606 C622 0.931 . S
C607 H595 0.929 . S
C607 C601 1.390 . S
C607 C604 1.386 . S
C608 C603 1.490 . S
C608 C610 1.395 . S
C608 C611 1.403 1_565 S
H609 C615 0.930 . S
C610 H596 0.930 . S
C610 C608 1.395 . S
C610 C613 1.403 . S
C611 C608 1.403 1_545 S
C611 C612 1.524 . S
C611 C615 1.400 . S
C612 H597 0.960 . S
C612 H598 0.960 . S
C612 H599 0.977 . S
C612 C611 1.524 . S
C613 C610 1.403 . S
C613 C614 1.392 1_565 S
C613 C617 1.495 . S
C614 C613 1.392 1_545 S
C614 C615 1.385 . S
C614 C616 1.478 . S
C615 H609 0.930 . S
C615 C611 1.400 . S
C615 C614 1.385 . S
C616 C614 1.478 . S
C616 C618 1.381 . S
C616 C622 1.383 . S
C617 C613 1.495 . S
C617 H623 0.959 . S
C617 H624 0.961 . S
C617 H625 0.960 . S
C618 C616 1.381 . S
C618 C619 1.394 . S
C618 H626 0.930 . S
C619 C618 1.394 . S
C619 C620 1.383 . S
C619 H627 0.929 . S
C620 C619 1.383 . S
C620 C621 1.377 . S
C621 H605 0.930 . S
C621 C620 1.377 . S
C621 C622 1.379 . S
C622 H606 0.931 . S
C622 C616 1.383 . S
C622 C621 1.379 . S
H623 C617 0.959 . S
H624 C617 0.961 . S
H625 C617 0.960 . S
H626 C618 0.930 . S
H627 C619 0.929 . S
H628 C636 0.929 . S
H629 C638 0.930 . S
H630 C640 0.930 . S
H631 C643 0.929 . S
H632 C646 0.930 . S
H633 C648 0.960 . S
H634 C648 0.960 . S
H635 C648 0.960 . S
C636 H628 0.929 . S
C636 C637 1.377 . S
C636 C638 1.384 . S
C637 C636 1.377 . S
C637 C643 1.390 . S
C638 H629 0.930 . S
C638 C636 1.384 . S
C638 C639 1.372 . S
C639 C638 1.372 . S
C639 C640 1.400 . S
C639 C644 1.490 . S
C640 H630 0.930 . S
C640 C639 1.400 . S
C640 C643 1.386 . S
H641 C657 0.930 . S
H642 C658 0.931 . S
C643 H631 0.929 . S
C643 C637 1.390 . S
C643 C640 1.386 . S
C644 C639 1.490 . S
C644 C646 1.395 . S
C644 C647 1.403 . S
H645 C651 0.930 . S
C646 H632 0.930 . S
C646 C644 1.395 . S
C646 C649 1.403 . S
C647 C644 1.403 . S
C647 C648 1.524 . S
C647 C651 1.400 . S
C648 H633 0.960 . S
C648 H634 0.960 . S
C648 H635 0.960 . S
C648 C647 1.524 . S
C649 C646 1.403 . S
C649 C650 1.392 . S
C649 C653 1.495 . S
C650 C649 1.392 . S
C650 C651 1.385 . S
C650 C652 1.478 . S
C651 H645 0.930 . S
C651 C647 1.400 . S
C651 C650 1.385 . S
C652 C650 1.478 . S
C652 C654 1.381 . S
C652 C658 1.383 . S
C653 C649 1.495 . S
C653 H659 0.959 . S
C653 H660 0.961 . S
C653 H661 0.960 . S
C654 C652 1.381 . S
C654 C655 1.394 . S
C654 H662 0.930 . S
C655 C654 1.394 . S
C655 C656 1.383 . S
C655 H663 0.929 . S
C656 C655 1.383 . S
C656 C657 1.377 . S
C657 H641 0.930 . S
C657 C656 1.377 . S
C657 C658 1.379 . S
C658 H642 0.931 . S
C658 C652 1.383 . S
C658 C657 1.379 . S
H659 C653 0.959 . S
H660 C653 0.961 . S
H661 C653 0.960 . S
H662 C654 0.930 . S
H663 C655 0.929 . S
H664 C672 0.929 . S
H665 C674 0.930 . S
H666 C676 0.930 . S
H667 C679 0.929 . S
H668 C682 0.930 . S
H669 C684 0.960 1_545 S
H670 C684 0.960 . S
H671 C684 0.960 . S
C672 H664 0.929 . S
C672 C673 1.377 . S
C672 C674 1.384 . S
C673 C672 1.377 . S
C673 C679 1.390 . S
C674 H665 0.930 . S
C674 C672 1.384 . S
C674 C675 1.372 . S
C675 C674 1.372 . S
C675 C676 1.400 . S
C675 C680 1.490 . S
C676 H666 0.930 . S
C676 C675 1.400 . S
C676 C679 1.386 . S
H677 C693 0.930 . S
H678 C694 0.931 . S
C679 H667 0.929 . S
C679 C673 1.390 . S
C679 C676 1.386 . S
C680 C675 1.490 . S
C680 C682 1.395 . S
C680 C683 1.403 . S
H681 C687 0.930 . S
C682 H668 0.930 . S
C682 C680 1.395 . S
C682 C685 1.403 1_565 S
C683 C680 1.403 . S
C683 C684 1.524 . S
C683 C687 1.400 1_565 S
C684 H669 0.960 1_565 S
C684 H670 0.960 . S
C684 H671 0.960 . S
C684 C683 1.524 . S
C685 C682 1.403 1_545 S
C685 C686 1.392 . S
C685 C689 1.495 . S
C686 C685 1.392 . S
C686 C687 1.385 . S
C686 C688 1.478 . S
C687 H681 0.930 . S
C687 C683 1.400 1_545 S
C687 C686 1.385 . S
C688 C686 1.478 . S
C688 C690 1.381 . S
C688 C694 1.383 . S
C689 C685 1.495 . S
C689 H695 0.959 1_545 S
C689 H696 0.961 . S
C689 H697 0.960 . S
C690 C688 1.381 . S
C690 C691 1.394 . S
C690 H698 0.930 . S
C691 C690 1.394 . S
C691 C692 1.383 . S
C691 H699 0.929 . S
C692 C691 1.383 . S
C692 C693 1.377 . S
C693 H677 0.930 . S
C693 C692 1.377 . S
C693 C694 1.379 . S
C694 H678 0.931 . S
C694 C688 1.383 . S
C694 C693 1.379 . S
H695 C689 0.959 1_565 S
H696 C689 0.961 . S
H697 C689 0.960 . S
H698 C690 0.930 . S
H699 C691 0.929 . S
H700 C708 0.929 . S
H701 C710 0.930 . S
H702 C712 0.930 . S
H703 C715 0.929 . S
H704 C718 0.930 . S
H705 C720 0.960 . S
H706 C720 0.960 1_556 S
H707 C720 0.960 . S
C708 H700 0.929 . S
C708 C709 1.377 . S
C708 C710 1.384 . S
C709 C708 1.377 . S
C709 C715 1.390 . S
C710 H701 0.930 . S
C710 C708 1.384 . S
C710 C711 1.372 . S
C711 C710 1.372 . S
C711 C712 1.400 . S
C711 C716 1.490 . S
C712 H702 0.930 . S
C712 C711 1.400 . S
C712 C715 1.386 . S
H713 C729 0.930 . S
H714 C730 0.931 . S
C715 H703 0.929 . S
C715 C709 1.390 . S
C715 C712 1.386 . S
C716 C711 1.490 . S
C716 C718 1.395 . S
C716 C719 1.396 1_556 S
H717 C723 0.930 . S
C718 H704 0.930 . S
C718 C716 1.395 . S
C718 C721 1.403 . S
C719 C716 1.396 1_554 S
C719 C720 1.525 . S
C719 C723 1.405 . S
C720 H705 0.960 . S
C720 H706 0.960 1_554 S
C720 H707 0.960 . S
C720 C719 1.525 . S
C721 C718 1.403 . S
C721 C722 1.392 1_556 S
C721 C725 1.495 . S
C722 C721 1.392 1_554 S
C722 C723 1.385 . S
C722 C724 1.478 . S
C723 H717 0.930 . S
C723 C719 1.405 . S
C723 C722 1.385 . S
C724 C722 1.478 . S
C724 C726 1.381 . S
C724 C730 1.383 . S
C725 C721 1.495 . S
C725 H731 0.959 . S
C725 H732 0.961 1_556 S
C725 H733 0.960 . S
C726 C724 1.381 . S
C726 C727 1.394 . S
C726 H734 0.930 . S
C727 C726 1.394 . S
C727 C728 1.383 . S
C727 H735 0.929 . S
C728 C727 1.383 . S
C728 C729 1.377 . S
C729 H713 0.930 . S
C729 C728 1.377 . S
C729 C730 1.379 . S
C730 H714 0.931 . S
C730 C724 1.383 . S
C730 C729 1.379 . S
H731 C725 0.959 . S
H732 C725 0.961 1_554 S
H733 C725 0.960 . S
H734 C726 0.930 . S
H735 C727 0.929 . S
H736 C744 0.929 . S
H737 C746 0.930 . S
H738 C748 0.930 . S
H739 C751 0.929 . S
H740 C754 0.930 . S
H741 C756 0.960 . S
H742 C756 0.960 . S
H743 C756 0.960 . S
C744 H736 0.929 . S
C744 C745 1.377 . S
C744 C746 1.384 . S
C745 C744 1.377 . S
C745 C751 1.390 . S
C746 H737 0.930 . S
C746 C744 1.384 . S
C746 C747 1.372 . S
C747 C746 1.372 . S
C747 C748 1.400 . S
C747 C752 1.490 . S
C748 H738 0.930 . S
C748 C747 1.400 . S
C748 C751 1.386 . S
H749 C765 0.930 . S
H750 C766 0.931 . S
C751 H739 0.929 . S
C751 C745 1.390 . S
C751 C748 1.386 . S
C752 C747 1.490 . S
C752 C754 1.395 . S
C752 C755 1.403 . S
H753 C759 0.930 . S
C754 H740 0.930 . S
C754 C752 1.395 . S
C754 C757 1.403 . S
C755 C752 1.403 . S
C755 C756 1.524 . S
C755 C759 1.400 . S
C756 H741 0.960 . S
C756 H742 0.960 . S
C756 H743 0.960 . S
C756 C755 1.524 . S
C757 C754 1.403 . S
C757 C758 1.392 . S
C757 C761 1.495 . S
C758 C757 1.392 . S
C758 C759 1.385 . S
C758 C760 1.478 . S
C759 H753 0.930 . S
C759 C755 1.400 . S
C759 C758 1.385 . S
C760 C758 1.478 . S
C760 C762 1.381 . S
C760 C766 1.383 . S
C761 C757 1.495 . S
C761 H767 0.959 . S
C761 H768 0.961 . S
C761 H769 0.960 . S
C762 C760 1.381 . S
C762 C763 1.394 . S
C762 H770 0.930 . S
C763 C762 1.394 . S
C763 C764 1.383 . S
C763 H771 0.929 . S
C764 C763 1.383 . S
C764 C765 1.377 . S
C765 H749 0.930 . S
C765 C764 1.377 . S
C765 C766 1.379 . S
C766 H750 0.931 . S
C766 C760 1.383 . S
C766 C765 1.379 . S
H767 C761 0.959 . S
H768 C761 0.961 . S
H769 C761 0.960 . S
H770 C762 0.930 . S
H771 C763 0.929 . S
H772 C780 0.929 . S
H773 C782 0.930 . S
H774 C784 0.930 . S
H775 C787 0.929 . S
H776 C790 0.930 . S
H777 C792 0.960 . S
H778 C792 0.960 . S
H779 C792 0.960 . S
C780 H772 0.929 . S
C780 C781 1.377 . S
C780 C782 1.384 . S
C781 C780 1.377 . S
C781 C787 1.390 . S
C782 H773 0.930 . S
C782 C780 1.384 . S
C782 C783 1.372 . S
C783 C782 1.372 . S
C783 C784 1.400 . S
C783 C788 1.490 . S
C784 H774 0.930 . S
C784 C783 1.400 . S
C784 C787 1.386 . S
H785 C801 0.930 . S
H786 C802 0.931 . S
C787 H775 0.929 . S
C787 C781 1.390 . S
C787 C784 1.386 . S
C788 C783 1.490 . S
C788 C790 1.395 1_556 S
C788 C791 1.403 . S
H789 C795 0.930 . S
C790 H776 0.930 . S
C790 C788 1.395 1_554 S
C790 C793 1.403 . S
C791 C788 1.403 . S
C791 C792 1.524 . S
C791 C795 1.400 . S
C792 H777 0.960 . S
C792 H778 0.960 . S
C792 H779 0.960 . S
C792 C791 1.524 . S
C793 C790 1.403 . S
C793 C794 1.392 . S
C793 C797 1.495 . S
C794 C793 1.392 . S
C794 C795 1.385 1_554 S
C794 C796 1.478 . S
C795 H789 0.930 . S
C795 C791 1.400 . S
C795 C794 1.385 1_556 S
C796 C794 1.478 . S
C796 C798 1.381 . S
C796 C802 1.383 . S
C797 C793 1.495 . S
C797 H803 0.959 . S
C797 H804 0.961 . S
C797 H805 0.960 . S
C798 C796 1.381 . S
C798 C799 1.394 . S
C798 H806 0.930 . S
C799 C798 1.394 . S
C799 C800 1.383 . S
C799 H807 0.929 . S
C800 C799 1.383 . S
C800 C801 1.377 . S
C801 H785 0.930 . S
C801 C800 1.377 . S
C801 C802 1.379 . S
C802 H786 0.931 . S
C802 C796 1.383 . S
C802 C801 1.379 . S
H803 C797 0.959 . S
H804 C797 0.961 . S
H805 C797 0.960 . S
H806 C798 0.930 . S
H807 C799 0.929 . S
H808 C816 0.929 . S
H809 C818 0.930 . S
H810 C820 0.930 . S
H811 C823 0.929 . S
H812 C826 0.930 . S
H813 C828 0.960 . S
H814 C828 0.960 . S
H815 C828 0.960 . S
C816 H808 0.929 . S
C816 C817 1.377 . S
C816 C818 1.384 . S
C817 C816 1.377 . S
C817 C823 1.390 . S
C818 H809 0.930 . S
C818 C816 1.384 . S
C818 C819 1.372 . S
C819 C818 1.372 . S
C819 C820 1.400 . S
C819 C824 1.490 . S
C820 H810 0.930 . S
C820 C819 1.400 . S
C820 C823 1.386 . S
H821 C837 0.930 . S
H822 C838 0.931 . S
C823 H811 0.929 . S
C823 C817 1.390 . S
C823 C820 1.386 . S
C824 C819 1.490 . S
C824 C826 1.395 . S
C824 C827 1.403 . S
H825 C831 0.930 . S
C826 H812 0.930 . S
C826 C824 1.395 . S
C826 C829 1.403 . S
C827 C824 1.403 . S
C827 C828 1.524 . S
C827 C831 1.400 . S
C828 H813 0.960 . S
C828 H814 0.960 . S
C828 H815 0.960 . S
C828 C827 1.524 . S
C829 C826 1.403 . S
C829 C830 1.392 . S
C829 C833 1.495 . S
C830 C829 1.392 . S
C830 C831 1.385 . S
C830 C832 1.478 . S
C831 H825 0.930 . S
C831 C827 1.400 . S
C831 C830 1.385 . S
C832 C830 1.478 . S
C832 C834 1.381 . S
C832 C838 1.383 . S
C833 C829 1.495 . S
C833 H839 0.959 . S
C833 H840 0.961 . S
C833 H841 0.960 . S
C834 C832 1.381 . S
C834 C835 1.394 . S
C834 H842 0.930 . S
C835 C834 1.394 . S
C835 C836 1.383 . S
C835 H843 0.929 . S
C836 C835 1.383 . S
C836 C837 1.377 . S
C837 H821 0.930 . S
C837 C836 1.377 . S
C837 C838 1.379 . S
C838 H822 0.931 . S
C838 C832 1.383 . S
C838 C837 1.379 . S
H839 C833 0.959 . S
H840 C833 0.961 . S
H841 C833 0.960 . S
H842 C834 0.930 . S
H843 C835 0.929 . S
H844 C852 0.929 . S
H845 C854 0.930 . S
H846 C856 0.930 . S
H847 C859 0.929 . S
H848 C862 0.930 . S
H849 C864 0.960 . S
H850 C864 0.960 . S
H851 C864 0.960 . S
C852 H844 0.929 . S
C852 C853 1.377 . S
C852 C854 1.384 . S
C853 C852 1.377 . S
C853 C859 1.390 . S
C854 H845 0.930 . S
C854 C852 1.384 . S
C854 C855 1.372 . S
C855 C854 1.372 . S
C855 C856 1.400 . S
C855 C860 1.490 . S
C856 H846 0.930 . S
C856 C855 1.400 . S
C856 C859 1.386 . S
H857 C873 0.930 . S
H858 C874 0.931 . S
C859 H847 0.929 . S
C859 C853 1.390 . S
C859 C856 1.386 . S
C860 C855 1.490 . S
C860 C862 1.395 . S
C860 C863 1.403 . S
H861 C867 0.930 . S
C862 H848 0.930 . S
C862 C860 1.395 . S
C862 C865 1.403 . S
C863 C860 1.403 . S
C863 C864 1.524 . S
C863 C867 1.400 . S
C864 H849 0.960 . S
C864 H850 0.960 . S
C864 H851 0.960 . S
C864 C863 1.524 . S
C865 C862 1.403 . S
C865 C866 1.392 . S
C865 C869 1.495 . S
C866 C865 1.392 . S
C866 C867 1.385 . S
C866 C868 1.478 . S
C867 H861 0.930 . S
C867 C863 1.400 . S
C867 C866 1.385 . S
C868 C866 1.478 . S
C868 C870 1.381 . S
C868 C874 1.383 . S
C869 C865 1.495 . S
C869 H875 0.959 . S
C869 H876 0.961 . S
C869 H877 0.960 . S
C870 C868 1.381 . S
C870 C871 1.394 . S
C870 H878 0.930 . S
C871 C870 1.394 . S
C871 C872 1.383 . S
C871 H879 0.929 . S
C872 C871 1.383 . S
C872 C873 1.377 . S
C873 H857 0.930 . S
C873 C872 1.377 . S
C873 C874 1.379 . S
C874 H858 0.931 . S
C874 C868 1.383 . S
C874 C873 1.379 . S
H875 C869 0.959 . S
H876 C869 0.961 . S
H877 C869 0.960 . S
H878 C870 0.930 . S
H879 C871 0.929 . S
H880 C888 0.929 . S
H881 C890 0.930 . S
H882 C892 0.930 . S
H883 C895 0.929 . S
H884 C898 0.930 . S
H885 C900 0.960 . S
H886 C900 0.960 . S
H887 C900 0.960 . S
C888 H880 0.929 . S
C888 C889 1.377 . S
C888 C890 1.384 . S
C889 C888 1.377 . S
C889 C895 1.390 . S
C890 H881 0.930 . S
C890 C888 1.384 . S
C890 C891 1.372 . S
C891 C890 1.372 . S
C891 C892 1.400 . S
C891 C896 1.490 . S
C892 H882 0.930 . S
C892 C891 1.400 . S
C892 C895 1.386 . S
H893 C909 0.930 . S
H894 C910 0.931 . S
C895 H883 0.929 . S
C895 C889 1.390 . S
C895 C892 1.386 . S
C896 C891 1.490 . S
C896 C898 1.395 . S
C896 C899 1.403 . S
H897 C903 0.930 . S
C898 H884 0.930 . S
C898 C896 1.395 . S
C898 C901 1.403 . S
C899 C896 1.403 . S
C899 C900 1.524 . S
C899 C903 1.400 . S
C900 H885 0.960 . S
C900 H886 0.960 . S
C900 H887 0.960 . S
C900 C899 1.524 . S
C901 C898 1.403 . S
C901 C902 1.392 . S
C901 C905 1.495 . S
C902 C901 1.392 . S
C902 C903 1.385 . S
C902 C904 1.478 . S
C903 H897 0.930 . S
C903 C899 1.400 . S
C903 C902 1.385 . S
C904 C902 1.478 . S
C904 C906 1.381 . S
C904 C910 1.383 . S
C905 C901 1.495 . S
C905 H911 0.959 . S
C905 H912 0.961 . S
C905 H913 0.960 . S
C906 C904 1.381 . S
C906 C907 1.394 . S
C906 H914 0.930 . S
C907 C906 1.394 . S
C907 C908 1.383 . S
C907 H915 0.929 . S
C908 C907 1.383 . S
C908 C909 1.377 . S
C909 H893 0.930 . S
C909 C908 1.377 . S
C909 C910 1.379 . S
C910 H894 0.931 . S
C910 C904 1.383 . S
C910 C909 1.379 . S
H911 C905 0.959 . S
H912 C905 0.961 . S
H913 C905 0.960 . S
H914 C906 0.930 . S
H915 C907 0.929 . S
H916 C924 0.929 . S
H917 C926 0.930 . S
H918 C928 0.930 . S
H919 C931 0.929 . S
H920 C934 0.930 . S
H921 C936 0.960 . S
H922 C936 0.960 . S
H923 C936 0.960 . S
C924 H916 0.929 . S
C924 C925 1.377 . S
C924 C926 1.384 . S
C925 C924 1.377 . S
C925 C931 1.390 . S
C926 H917 0.930 . S
C926 C924 1.384 . S
C926 C927 1.372 . S
C927 C926 1.372 . S
C927 C928 1.400 . S
C927 C932 1.490 . S
C928 H918 0.930 . S
C928 C927 1.400 . S
C928 C931 1.386 . S
H929 C945 0.930 . S
H930 C946 0.931 . S
C931 H919 0.929 . S
C931 C925 1.390 . S
C931 C928 1.386 . S
C932 C927 1.490 . S
C932 C934 1.395 1_554 S
C932 C935 1.403 . S
H933 C939 0.930 . S
C934 H920 0.930 . S
C934 C932 1.395 1_556 S
C934 C937 1.403 . S
C935 C932 1.403 . S
C935 C936 1.524 . S
C935 C939 1.400 . S
C936 H921 0.960 . S
C936 H922 0.960 . S
C936 H923 0.960 . S
C936 C935 1.524 . S
C937 C934 1.403 . S
C937 C938 1.392 . S
C937 C941 1.495 . S
C938 C937 1.392 . S
C938 C939 1.385 1_556 S
C938 C940 1.478 . S
C939 H933 0.930 . S
C939 C935 1.400 . S
C939 C938 1.385 1_554 S
C940 C938 1.478 . S
C940 C942 1.381 . S
C940 C946 1.383 . S
C941 C937 1.495 . S
C941 H947 0.959 . S
C941 H948 0.961 . S
C941 H949 0.960 . S
C942 C940 1.381 . S
C942 C943 1.394 . S
C942 H950 0.930 . S
C943 C942 1.394 . S
C943 C944 1.383 . S
C943 H951 0.929 . S
C944 C943 1.383 . S
C944 C945 1.377 . S
C945 H929 0.930 . S
C945 C944 1.377 . S
C945 C946 1.379 . S
C946 H930 0.931 . S
C946 C940 1.383 . S
C946 C945 1.379 . S
H947 C941 0.959 . S
H948 C941 0.961 . S
H949 C941 0.960 . S
H950 C942 0.930 . S
H951 C943 0.929 . S
H952 C960 0.929 . S
H953 C962 0.930 . S
H954 C964 0.930 . S
H955 C967 0.929 . S
H956 C970 0.930 . S
H957 C972 0.960 . S
H958 C972 0.960 . S
H959 C972 0.960 . S
C960 H952 0.929 . S
C960 C961 1.377 . S
C960 C962 1.384 . S
C961 C960 1.377 . S
C961 C967 1.390 . S
C962 H953 0.930 . S
C962 C960 1.384 . S
C962 C963 1.372 . S
C963 C962 1.372 . S
C963 C964 1.400 . S
C963 C968 1.490 . S
C964 H954 0.930 . S
C964 C963 1.400 . S
C964 C967 1.386 . S
H965 C981 0.930 . S
H966 C982 0.931 . S
C967 H955 0.929 . S
C967 C961 1.390 . S
C967 C964 1.386 . S
C968 C963 1.490 . S
C968 C970 1.395 . S
C968 C971 1.403 . S
H969 C975 0.930 . S
C970 H956 0.930 . S
C970 C968 1.395 . S
C970 C973 1.403 . S
C971 C968 1.403 . S
C971 C972 1.524 . S
C971 C975 1.400 . S
C972 H957 0.960 . S
C972 H958 0.960 . S
C972 H959 0.960 . S
C972 C971 1.524 . S
C973 C970 1.403 . S
C973 C974 1.392 . S
C973 C977 1.495 . S
C974 C973 1.392 . S
C974 C975 1.385 . S
C974 C976 1.478 . S
C975 H969 0.930 . S
C975 C971 1.400 . S
C975 C974 1.385 . S
C976 C974 1.478 . S
C976 C978 1.381 . S
C976 C982 1.383 . S
C977 C973 1.495 . S
C977 H983 0.959 . S
C977 H984 0.961 . S
C977 H985 0.960 . S
C978 C976 1.381 . S
C978 C979 1.394 . S
C978 H986 0.930 . S
C979 C978 1.394 . S
C979 C980 1.383 . S
C979 H987 0.929 . S
C980 C979 1.383 . S
C980 C981 1.377 . S
C981 H965 0.930 . S
C981 C980 1.377 . S
C981 C982 1.379 . S
C982 H966 0.931 . S
C982 C976 1.383 . S
C982 C981 1.379 . S
H983 C977 0.959 . S
H984 C977 0.961 . S
H985 C977 0.960 . S
H986 C978 0.930 . S
H987 C979 0.929 . S
H988 C996 0.929 . S
H989 C998 0.930 . S
H990 C1000 0.930 . S
H991 C1003 0.929 . S
H992 C1006 0.930 . S
H993 C1008 0.960 . S
H994 C1008 0.960 . S
H995 C1008 0.960 . S
C996 H988 0.929 . S
C996 C997 1.377 . S
C996 C998 1.384 . S
C997 C996 1.377 . S
C997 C1003 1.390 . S
C998 H989 0.930 . S
C998 C996 1.384 . S
C998 C999 1.372 . S
C999 C998 1.372 . S
C999 C1000 1.400 . S
C999 C1004 1.490 . S
C1000 H990 0.930 . S
C1000 C999 1.400 . S
C1000 C1003 1.386 . S
H1001 C1017 0.930 . S
H1002 C1018 0.931 . S
C1003 H991 0.929 . S
C1003 C997 1.390 . S
C1003 C1000 1.386 . S
C1004 C999 1.490 . S
C1004 C1006 1.395 . S
C1004 C1007 1.403 . S
H1005 C1011 0.930 . S
C1006 H992 0.930 . S
C1006 C1004 1.395 . S
C1006 C1009 1.403 . S
C1007 C1004 1.403 . S
C1007 C1008 1.524 . S
C1007 C1011 1.400 . S
C1008 H993 0.960 . S
C1008 H994 0.960 . S
C1008 H995 0.960 . S
C1008 C1007 1.524 . S
C1009 C1006 1.403 . S
C1009 C1010 1.392 . S
C1009 C1013 1.495 . S
C1010 C1009 1.392 . S
C1010 C1011 1.385 . S
C1010 C1012 1.478 . S
C1011 H1005 0.930 . S
C1011 C1007 1.400 . S
C1011 C1010 1.385 . S
C1012 C1010 1.478 . S
C1012 C1014 1.381 . S
C1012 C1018 1.383 . S
C1013 C1009 1.495 . S
C1013 H1019 0.959 . S
C1013 H1020 0.961 . S
C1013 H1021 0.960 . S
C1014 C1012 1.381 . S
C1014 C1015 1.394 . S
C1014 H1022 0.930 . S
C1015 C1014 1.394 . S
C1015 C1016 1.383 . S
C1015 H1023 0.929 . S
C1016 C1015 1.383 . S
C1016 C1017 1.377 . S
C1017 H1001 0.930 . S
C1017 C1016 1.377 . S
C1017 C1018 1.379 . S
C1018 H1002 0.931 . S
C1018 C1012 1.383 . S
C1018 C1017 1.379 . S
H1019 C1013 0.959 . S
H1020 C1013 0.961 . S
H1021 C1013 0.960 . S
H1022 C1014 0.930 . S
H1023 C1015 0.929 . S
H1024 C1032 0.929 . S
H1025 C1034 0.930 . S
H1026 C1036 0.930 . S
H1027 C1039 0.929 . S
H1028 C1042 0.930 . S
H1029 C1044 0.960 . S
H1030 C1044 0.960 . S
H1031 C1044 0.960 . S
C1032 H1024 0.929 . S
C1032 C1033 1.377 . S
C1032 C1034 1.384 . S
C1033 C1032 1.377 . S
C1033 C1039 1.390 . S
C1034 H1025 0.930 . S
C1034 C1032 1.384 . S
C1034 C1035 1.372 . S
C1035 C1034 1.372 . S
C1035 C1036 1.400 . S
C1035 C1040 1.490 . S
C1036 H1026 0.930 . S
C1036 C1035 1.400 . S
C1036 C1039 1.386 . S
H1037 C1053 0.930 . S
H1038 C1054 0.931 . S
C1039 H1027 0.929 . S
C1039 C1033 1.390 . S
C1039 C1036 1.386 . S
C1040 C1035 1.490 . S
C1040 C1042 1.395 . S
C1040 C1043 1.403 . S
H1041 C1047 0.930 . S
C1042 H1028 0.930 . S
C1042 C1040 1.395 . S
C1042 C1045 1.403 . S
C1043 C1040 1.403 . S
C1043 C1044 1.524 . S
C1043 C1047 1.400 . S
C1044 H1029 0.960 . S
C1044 H1030 0.960 . S
C1044 H1031 0.960 . S
C1044 C1043 1.524 . S
C1045 C1042 1.403 . S
C1045 C1046 1.392 . S
C1045 C1049 1.495 . S
C1046 C1045 1.392 . S
C1046 C1047 1.385 . S
C1046 C1048 1.478 . S
C1047 H1041 0.930 . S
C1047 C1043 1.400 . S
C1047 C1046 1.385 . S
C1048 C1046 1.478 . S
C1048 C1050 1.381 . S
C1048 C1054 1.383 . S
C1049 C1045 1.495 . S
C1049 H1055 0.959 . S
C1049 H1056 0.961 . S
C1049 H1057 0.960 . S
C1050 C1048 1.381 . S
C1050 C1051 1.394 . S
C1050 H1058 0.930 . S
C1051 C1050 1.394 . S
C1051 C1052 1.383 . S
C1051 H1059 0.929 . S
C1052 C1051 1.383 . S
C1052 C1053 1.377 . S
C1053 H1037 0.930 . S
C1053 C1052 1.377 . S
C1053 C1054 1.379 . S
C1054 H1038 0.931 . S
C1054 C1048 1.383 . S
C1054 C1053 1.379 . S
H1055 C1049 0.959 . S
H1056 C1049 0.961 . S
H1057 C1049 0.960 . S
H1058 C1050 0.930 . S
H1059 C1051 0.929 . S
H1060 C1068 0.929 . S
H1061 C1070 0.930 . S
H1062 C1072 0.930 . S
H1063 C1075 0.929 . S
H1064 C1078 0.930 1_655 S
H1065 C1080 0.963 1_455 S
H1066 C1080 0.958 . S
H1067 C1080 0.958 . S
C1068 H1060 0.929 . S
C1068 C1069 1.377 . S
C1068 C1070 1.384 . S
C1069 C1068 1.377 . S
C1069 C1075 1.390 . S
C1070 H1061 0.930 . S
C1070 C1068 1.384 . S
C1070 C1071 1.372 . S
C1071 C1070 1.372 . S
C1071 C1072 1.400 . S
C1071 C1076 1.490 . S
C1072 H1062 0.930 . S
C1072 C1071 1.400 . S
C1072 C1075 1.386 . S
H1073 C1089 0.930 . S
H1074 C1090 0.931 . S
C1075 H1063 0.929 . S
C1075 C1069 1.390 . S
C1075 C1072 1.386 . S
C1076 C1071 1.490 . S
C1076 C1078 1.395 1_655 S
C1076 C1079 1.403 1_655 S
H1077 C1083 0.930 . S
C1078 H1064 0.930 1_455 S
C1078 C1076 1.395 1_455 S
C1078 C1081 1.403 . S
C1079 C1076 1.403 1_455 S
C1079 C1080 1.525 1_455 S
C1079 C1083 1.400 . S
C1080 H1065 0.963 1_655 S
C1080 H1066 0.958 . S
C1080 H1067 0.958 . S
C1080 C1079 1.525 1_655 S
C1081 C1078 1.403 . S
C1081 C1082 1.392 . S
C1081 C1085 1.495 . S
C1082 C1081 1.392 . S
C1082 C1083 1.385 . S
C1082 C1084 1.478 . S
C1083 H1077 0.930 . S
C1083 C1079 1.400 . S
C1083 C1082 1.385 . S
C1084 C1082 1.478 . S
C1084 C1086 1.381 . S
C1084 C1090 1.383 . S
C1085 C1081 1.495 . S
C1085 H1091 0.959 . S
C1085 H1092 0.961 . S
C1085 H1093 0.960 . S
C1086 C1084 1.381 . S
C1086 C1087 1.394 . S
C1086 H1094 0.930 . S
C1087 C1086 1.394 . S
C1087 C1088 1.383 . S
C1087 H1095 0.929 . S
C1088 C1087 1.383 . S
C1088 C1089 1.377 . S
C1089 H1073 0.930 . S
C1089 C1088 1.377 . S
C1089 C1090 1.379 . S
C1090 H1074 0.931 . S
C1090 C1084 1.383 . S
C1090 C1089 1.379 . S
H1091 C1085 0.959 . S
H1092 C1085 0.961 . S
H1093 C1085 0.960 . S
H1094 C1086 0.930 . S
H1095 C1087 0.929 . S
H1096 C1104 0.929 . S
H1097 C1106 0.930 . S
H1098 C1108 0.930 . S
H1099 C1111 0.929 . S
H1100 C1114 0.930 . S
H1101 C1116 0.960 . S
H1102 C1116 0.960 . S
H1103 C1116 0.960 . S
C1104 H1096 0.929 . S
C1104 C1105 1.377 . S
C1104 C1106 1.384 . S
C1105 C1104 1.377 . S
C1105 C1111 1.390 . S
C1106 H1097 0.930 . S
C1106 C1104 1.384 . S
C1106 C1107 1.372 . S
C1107 C1106 1.372 . S
C1107 C1108 1.400 . S
C1107 C1112 1.490 . S
C1108 H1098 0.930 . S
C1108 C1107 1.400 . S
C1108 C1111 1.386 . S
H1109 C1125 0.930 . S
H1110 C1126 0.931 . S
C1111 H1099 0.929 . S
C1111 C1105 1.390 . S
C1111 C1108 1.386 . S
C1112 C1107 1.490 . S
C1112 C1114 1.395 . S
C1112 C1115 1.403 . S
H1113 C1119 0.930 . S
C1114 H1100 0.930 . S
C1114 C1112 1.395 . S
C1114 C1117 1.403 . S
C1115 C1112 1.403 . S
C1115 C1116 1.524 . S
C1115 C1119 1.400 . S
C1116 H1101 0.960 . S
C1116 H1102 0.960 . S
C1116 H1103 0.960 . S
C1116 C1115 1.524 . S
C1117 C1114 1.403 . S
C1117 C1118 1.392 . S
C1117 C1121 1.495 . S
C1118 C1117 1.392 . S
C1118 C1119 1.385 . S
C1118 C1120 1.478 . S
C1119 H1113 0.930 . S
C1119 C1115 1.400 . S
C1119 C1118 1.385 . S
C1120 C1118 1.478 . S
C1120 C1122 1.381 . S
C1120 C1126 1.383 . S
C1121 C1117 1.495 . S
C1121 H1127 0.959 . S
C1121 H1128 0.961 . S
C1121 H1129 0.960 . S
C1122 C1120 1.381 . S
C1122 C1123 1.394 . S
C1122 H1130 0.930 . S
C1123 C1122 1.394 . S
C1123 C1124 1.383 . S
C1123 H1131 0.929 . S
C1124 C1123 1.383 . S
C1124 C1125 1.377 . S
C1125 H1109 0.930 . S
C1125 C1124 1.377 . S
C1125 C1126 1.379 . S
C1126 H1110 0.931 . S
C1126 C1120 1.383 . S
C1126 C1125 1.379 . S
H1127 C1121 0.959 . S
H1128 C1121 0.961 . S
H1129 C1121 0.960 . S
H1130 C1122 0.930 . S
H1131 C1123 0.929 . S
H1132 C1140 0.929 . S
H1133 C1142 0.930 . S
H1134 C1144 0.930 . S
H1135 C1147 0.929 . S
H1136 C1150 0.930 . S
H1137 C1152 0.960 . S
H1138 C1152 0.960 . S
H1139 C1152 0.960 . S
C1140 H1132 0.929 . S
C1140 C1141 1.377 . S
C1140 C1142 1.384 . S
C1141 C1140 1.377 . S
C1141 C1147 1.390 . S
C1142 H1133 0.930 . S
C1142 C1140 1.384 . S
C1142 C1143 1.372 . S
C1143 C1142 1.372 . S
C1143 C1144 1.400 . S
C1143 C1148 1.490 . S
C1144 H1134 0.930 . S
C1144 C1143 1.400 . S
C1144 C1147 1.386 . S
H1145 C1161 0.930 . S
H1146 C1162 0.931 . S
C1147 H1135 0.929 . S
C1147 C1141 1.390 . S
C1147 C1144 1.386 . S
C1148 C1143 1.490 . S
C1148 C1150 1.395 . S
C1148 C1151 1.403 . S
H1149 C1155 0.930 . S
C1150 H1136 0.930 . S
C1150 C1148 1.395 . S
C1150 C1153 1.403 . S
C1151 C1148 1.403 . S
C1151 C1152 1.524 . S
C1151 C1155 1.400 . S
C1152 H1137 0.960 . S
C1152 H1138 0.960 . S
C1152 H1139 0.960 . S
C1152 C1151 1.524 . S
C1153 C1150 1.403 . S
C1153 C1154 1.392 . S
C1153 C1157 1.495 . S
C1154 C1153 1.392 . S
C1154 C1155 1.385 . S
C1154 C1156 1.478 . S
C1155 H1149 0.930 . S
C1155 C1151 1.400 . S
C1155 C1154 1.385 . S
C1156 C1154 1.478 . S
C1156 C1158 1.381 . S
C1156 C1162 1.383 . S
C1157 C1153 1.495 . S
C1157 H1163 0.959 . S
C1157 H1164 0.961 . S
C1157 H1165 0.960 . S
C1158 C1156 1.381 . S
C1158 C1159 1.394 . S
C1158 H1166 0.930 . S
C1159 C1158 1.394 . S
C1159 C1160 1.383 . S
C1159 H1167 0.929 . S
C1160 C1159 1.383 . S
C1160 C1161 1.377 . S
C1161 H1145 0.930 . S
C1161 C1160 1.377 . S
C1161 C1162 1.379 . S
C1162 H1146 0.931 . S
C1162 C1156 1.383 . S
C1162 C1161 1.379 . S
H1163 C1157 0.959 . S
H1164 C1157 0.961 . S
H1165 C1157 0.960 . S
H1166 C1158 0.930 . S
H1167 C1159 0.929 . S
H1168 C1176 0.929 . S
H1169 C1178 0.930 . S
H1170 C1180 0.930 . S
H1171 C1183 0.929 . S
H1172 C1186 0.930 . S
H1173 C1188 0.960 . S
H1174 C1188 0.960 . S
H1175 C1188 0.960 . S
C1176 H1168 0.929 . S
C1176 C1177 1.377 . S
C1176 C1178 1.384 . S
C1177 C1176 1.377 . S
C1177 C1183 1.390 . S
C1178 H1169 0.930 . S
C1178 C1176 1.384 . S
C1178 C1179 1.372 . S
C1179 C1178 1.372 . S
C1179 C1180 1.400 . S
C1179 C1184 1.490 . S
C1180 H1170 0.930 . S
C1180 C1179 1.400 . S
C1180 C1183 1.386 . S
H1181 C1197 0.930 . S
H1182 C1198 0.931 . S
C1183 H1171 0.929 . S
C1183 C1177 1.390 . S
C1183 C1180 1.386 . S
C1184 C1179 1.490 . S
C1184 C1186 1.395 . S
C1184 C1187 1.403 . S
H1185 C1191 0.930 . S
C1186 H1172 0.930 . S
C1186 C1184 1.395 . S
C1186 C1189 1.403 . S
C1187 C1184 1.403 . S
C1187 C1188 1.524 . S
C1187 C1191 1.400 . S
C1188 H1173 0.960 . S
C1188 H1174 0.960 . S
C1188 H1175 0.960 . S
C1188 C1187 1.524 . S
C1189 C1186 1.403 . S
C1189 C1190 1.392 . S
C1189 C1193 1.495 . S
C1190 C1189 1.392 . S
C1190 C1191 1.385 . S
C1190 C1192 1.478 . S
C1191 H1185 0.930 . S
C1191 C1187 1.400 . S
C1191 C1190 1.385 . S
C1192 C1190 1.478 . S
C1192 C1194 1.381 . S
C1192 C1198 1.383 . S
C1193 C1189 1.495 . S
C1193 H1199 0.959 . S
C1193 H1200 0.961 . S
C1193 H1201 0.960 . S
C1194 C1192 1.381 . S
C1194 C1195 1.394 . S
C1194 H1202 0.930 . S
C1195 C1194 1.394 . S
C1195 C1196 1.383 . S
C1195 H1203 0.929 . S
C1196 C1195 1.383 . S
C1196 C1197 1.377 . S
C1197 H1181 0.930 . S
C1197 C1196 1.377 . S
C1197 C1198 1.379 . S
C1198 H1182 0.931 . S
C1198 C1192 1.383 . S
C1198 C1197 1.379 . S
H1199 C1193 0.959 . S
H1200 C1193 0.961 . S
H1201 C1193 0.960 . S
H1202 C1194 0.930 . S
H1203 C1195 0.929 . S
H1204 C1212 0.929 . S
H1205 C1214 0.930 . S
H1206 C1216 0.930 . S
H1207 C1219 0.929 . S
H1208 C1222 0.930 . S
H1209 C1224 0.960 . S
H1210 C1224 0.960 . S
H1211 C1224 0.960 . S
C1212 H1204 0.929 . S
C1212 C1213 1.377 . S
C1212 C1214 1.384 . S
C1213 C1212 1.377 . S
C1213 C1219 1.390 . S
C1214 H1205 0.930 . S
C1214 C1212 1.384 . S
C1214 C1215 1.372 . S
C1215 C1214 1.372 . S
C1215 C1216 1.400 . S
C1215 C1220 1.490 . S
C1216 H1206 0.930 . S
C1216 C1215 1.400 . S
C1216 C1219 1.386 . S
H1217 C1233 0.930 . S
H1218 C1234 0.931 . S
C1219 H1207 0.929 . S
C1219 C1213 1.390 . S
C1219 C1216 1.386 . S
C1220 C1215 1.490 . S
C1220 C1222 1.395 . S
C1220 C1223 1.403 . S
H1221 C1227 0.930 . S
C1222 H1208 0.930 . S
C1222 C1220 1.395 . S
C1222 C1225 1.403 . S
C1223 C1220 1.403 . S
C1223 C1224 1.524 . S
C1223 C1227 1.400 . S
C1224 H1209 0.960 . S
C1224 H1210 0.960 . S
C1224 H1211 0.960 . S
C1224 C1223 1.524 . S
C1225 C1222 1.403 . S
C1225 C1226 1.392 . S
C1225 C1229 1.495 . S
C1226 C1225 1.392 . S
C1226 C1227 1.385 . S
C1226 C1228 1.478 . S
C1227 H1221 0.930 . S
C1227 C1223 1.400 . S
C1227 C1226 1.385 . S
C1228 C1226 1.478 . S
C1228 C1230 1.381 . S
C1228 C1234 1.383 . S
C1229 C1225 1.495 . S
C1229 H1235 0.959 . S
C1229 H1236 0.961 . S
C1229 H1237 0.960 . S
C1230 C1228 1.381 . S
C1230 C1231 1.394 . S
C1230 H1238 0.930 . S
C1231 C1230 1.394 . S
C1231 C1232 1.383 . S
C1231 H1239 0.929 . S
C1232 C1231 1.383 . S
C1232 C1233 1.377 . S
C1233 H1217 0.930 . S
C1233 C1232 1.377 . S
C1233 C1234 1.379 . S
C1234 H1218 0.931 . S
C1234 C1228 1.383 . S
C1234 C1233 1.379 . S
H1235 C1229 0.959 . S
H1236 C1229 0.961 . S
H1237 C1229 0.960 . S
H1238 C1230 0.930 . S
H1239 C1231 0.929 . S
H1240 C1248 0.929 . S
H1241 C1250 0.930 . S
H1242 C1252 0.930 . S
H1243 C1255 0.929 . S
H1244 C1258 0.930 . S
H1245 C1260 0.960 . S
H1246 C1260 0.960 . S
H1247 C1260 0.960 . S
C1248 H1240 0.929 . S
C1248 C1249 1.377 . S
C1248 C1250 1.384 . S
C1249 C1248 1.377 . S
C1249 C1255 1.390 . S
C1250 H1241 0.930 . S
C1250 C1248 1.384 . S
C1250 C1251 1.372 . S
C1251 C1250 1.372 . S
C1251 C1252 1.400 . S
C1251 C1256 1.490 . S
C1252 H1242 0.930 . S
C1252 C1251 1.400 . S
C1252 C1255 1.386 . S
H1253 C1269 0.930 . S
H1254 C1270 0.931 . S
C1255 H1243 0.929 . S
C1255 C1249 1.390 . S
C1255 C1252 1.386 . S
C1256 C1251 1.490 . S
C1256 C1258 1.395 . S
C1256 C1259 1.403 . S
H1257 C1263 0.930 . S
C1258 H1244 0.930 . S
C1258 C1256 1.395 . S
C1258 C1261 1.403 . S
C1259 C1256 1.403 . S
C1259 C1260 1.524 . S
C1259 C1263 1.400 . S
C1260 H1245 0.960 . S
C1260 H1246 0.960 . S
C1260 H1247 0.960 . S
C1260 C1259 1.524 . S
C1261 C1258 1.403 . S
C1261 C1262 1.392 . S
C1261 C1265 1.495 . S
C1262 C1261 1.392 . S
C1262 C1263 1.385 . S
C1262 C1264 1.478 . S
C1263 H1257 0.930 . S
C1263 C1259 1.400 . S
C1263 C1262 1.385 . S
C1264 C1262 1.478 . S
C1264 C1266 1.381 . S
C1264 C1270 1.383 . S
C1265 C1261 1.495 . S
C1265 H1271 0.959 . S
C1265 H1272 0.961 . S
C1265 H1273 0.960 . S
C1266 C1264 1.381 . S
C1266 C1267 1.394 . S
C1266 H1274 0.930 . S
C1267 C1266 1.394 . S
C1267 C1268 1.383 . S
C1267 H1275 0.929 . S
C1268 C1267 1.383 . S
C1268 C1269 1.377 . S
C1269 H1253 0.930 . S
C1269 C1268 1.377 . S
C1269 C1270 1.379 . S
C1270 H1254 0.931 . S
C1270 C1264 1.383 . S
C1270 C1269 1.379 . S
H1271 C1265 0.959 . S
H1272 C1265 0.961 . S
H1273 C1265 0.960 . S
H1274 C1266 0.930 . S
H1275 C1267 0.929 . S
H1276 C1284 0.929 . S
H1277 C1286 0.930 . S
H1278 C1288 0.930 . S
H1279 C1291 0.929 . S
H1280 C1294 0.930 . S
H1281 C1296 0.960 . S
H1282 C1296 0.960 . S
H1283 C1296 0.960 . S
C1284 H1276 0.929 . S
C1284 C1285 1.377 . S
C1284 C1286 1.384 . S
C1285 C1284 1.377 . S
C1285 C1291 1.390 . S
C1286 H1277 0.930 . S
C1286 C1284 1.384 . S
C1286 C1287 1.372 . S
C1287 C1286 1.372 . S
C1287 C1288 1.400 . S
C1287 C1292 1.490 . S
C1288 H1278 0.930 . S
C1288 C1287 1.400 . S
C1288 C1291 1.386 . S
H1289 C1305 0.930 . S
H1290 C1306 0.931 . S
C1291 H1279 0.929 . S
C1291 C1285 1.390 . S
C1291 C1288 1.386 . S
C1292 C1287 1.490 . S
C1292 C1294 1.395 . S
C1292 C1295 1.403 . S
H1293 C1299 0.930 1_655 S
C1294 H1280 0.930 . S
C1294 C1292 1.395 . S
C1294 C1297 1.403 . S
C1295 C1292 1.403 . S
C1295 C1296 1.524 . S
C1295 C1299 1.400 . S
C1296 H1281 0.960 . S
C1296 H1282 0.960 . S
C1296 H1283 0.960 . S
C1296 C1295 1.524 . S
C1297 C1294 1.403 . S
C1297 C1298 1.392 1_455 S
C1297 C1301 1.495 1_455 S
C1298 C1297 1.392 1_655 S
C1298 C1299 1.385 1_655 S
C1298 C1300 1.478 . S
C1299 H1293 0.930 1_455 S
C1299 C1295 1.400 . S
C1299 C1298 1.385 1_455 S
C1300 C1298 1.478 . S
C1300 C1302 1.381 . S
C1300 C1306 1.383 . S
C1301 C1297 1.495 1_655 S
C1301 H1307 0.959 1_655 S
C1301 H1308 0.961 . S
C1301 H1309 0.960 . S
C1302 C1300 1.381 . S
C1302 C1303 1.394 . S
C1302 H1310 0.930 . S
C1303 C1302 1.394 . S
C1303 C1304 1.383 . S
C1303 H1311 0.929 . S
C1304 C1303 1.383 . S
C1304 C1305 1.377 . S
C1305 H1289 0.930 . S
C1305 C1304 1.377 . S
C1305 C1306 1.379 . S
C1306 H1290 0.931 . S
C1306 C1300 1.383 . S
C1306 C1305 1.379 . S
H1307 C1301 0.959 1_455 S
H1308 C1301 0.961 . S
H1309 C1301 0.960 . S
H1310 C1302 0.930 . S
H1311 C1303 0.929 . S
H1312 C1320 0.929 . S
H1313 C1322 0.930 . S
H1314 C1324 0.930 . S
H1315 C1327 0.929 . S
H1316 C1330 0.930 . S
H1317 C1332 0.960 . S
H1318 C1332 0.960 . S
H1319 C1332 0.960 . S
C1320 H1312 0.929 . S
C1320 C1321 1.377 . S
C1320 C1322 1.384 . S
C1321 C1320 1.377 . S
C1321 C1327 1.390 . S
C1322 H1313 0.930 . S
C1322 C1320 1.384 . S
C1322 C1323 1.372 . S
C1323 C1322 1.372 . S
C1323 C1324 1.400 . S
C1323 C1328 1.490 . S
C1324 H1314 0.930 . S
C1324 C1323 1.400 . S
C1324 C1327 1.386 . S
H1325 C1341 0.930 . S
H1326 C1342 0.931 . S
C1327 H1315 0.929 . S
C1327 C1321 1.390 . S
C1327 C1324 1.386 . S
C1328 C1323 1.490 . S
C1328 C1330 1.395 . S
C1328 C1331 1.403 . S
H1329 C1335 0.930 . S
C1330 H1316 0.930 . S
C1330 C1328 1.395 . S
C1330 C1333 1.403 . S
C1331 C1328 1.403 . S
C1331 C1332 1.524 . S
C1331 C1335 1.400 . S
C1332 H1317 0.960 . S
C1332 H1318 0.960 . S
C1332 H1319 0.960 . S
C1332 C1331 1.524 . S
C1333 C1330 1.403 . S
C1333 C1334 1.392 . S
C1333 C1337 1.495 . S
C1334 C1333 1.392 . S
C1334 C1335 1.385 . S
C1334 C1336 1.478 . S
C1335 H1329 0.930 . S
C1335 C1331 1.400 . S
C1335 C1334 1.385 . S
C1336 C1334 1.478 . S
C1336 C1338 1.381 . S
C1336 C1342 1.383 . S
C1337 C1333 1.495 . S
C1337 H1343 0.959 . S
C1337 H1344 0.961 . S
C1337 H1345 0.960 . S
C1338 C1336 1.381 . S
C1338 C1339 1.394 . S
C1338 H1346 0.930 . S
C1339 C1338 1.394 . S
C1339 C1340 1.383 . S
C1339 H1347 0.929 . S
C1340 C1339 1.383 . S
C1340 C1341 1.377 . S
C1341 H1325 0.930 . S
C1341 C1340 1.377 . S
C1341 C1342 1.379 . S
C1342 H1326 0.931 . S
C1342 C1336 1.383 . S
C1342 C1341 1.379 . S
H1343 C1337 0.959 . S
H1344 C1337 0.961 . S
H1345 C1337 0.960 . S
H1346 C1338 0.930 . S
H1347 C1339 0.929 . S
H1348 C1356 0.929 . S
H1349 C1358 0.930 . S
H1350 C1360 0.930 . S
H1351 C1363 0.929 . S
H1352 C1366 0.930 . S
H1353 C1368 0.960 . S
H1354 C1368 0.960 . S
H1355 C1368 0.960 . S
C1356 H1348 0.929 . S
C1356 C1357 1.377 . S
C1356 C1358 1.384 . S
C1357 C1356 1.377 . S
C1357 C1363 1.390 . S
C1358 H1349 0.930 . S
C1358 C1356 1.384 . S
C1358 C1359 1.372 . S
C1359 C1358 1.372 . S
C1359 C1360 1.400 . S
C1359 C1364 1.490 . S
C1360 H1350 0.930 . S
C1360 C1359 1.400 . S
C1360 C1363 1.386 . S
H1361 C1377 0.930 . S
H1362 C1378 0.931 . S
C1363 H1351 0.929 . S
C1363 C1357 1.390 . S
C1363 C1360 1.386 . S
C1364 C1359 1.490 . S
C1364 C1366 1.395 . S
C1364 C1367 1.403 . S
H1365 C1371 0.930 1_455 S
C1366 H1352 0.930 . S
C1366 C1364 1.395 . S
C1366 C1369 1.403 . S
C1367 C1364 1.403 . S
C1367 C1368 1.524 . S
C1367 C1371 1.400 . S
C1368 H1353 0.960 . S
C1368 H1354 0.960 . S
C1368 H1355 0.960 . S
C1368 C1367 1.524 . S
C1369 C1366 1.403 . S
C1369 C1370 1.392 1_655 S
C1369 C1373 1.495 1_655 S
C1370 C1369 1.392 1_455 S
C1370 C1371 1.385 1_455 S
C1370 C1372 1.478 . S
C1371 H1365 0.930 1_655 S
C1371 C1367 1.400 . S
C1371 C1370 1.385 1_655 S
C1372 C1370 1.478 . S
C1372 C1374 1.381 . S
C1372 C1378 1.383 . S
C1373 C1369 1.495 1_455 S
C1373 H1379 0.959 1_455 S
C1373 H1380 0.961 . S
C1373 H1381 0.960 . S
C1374 C1372 1.381 . S
C1374 C1375 1.394 . S
C1374 H1382 0.930 . S
C1375 C1374 1.394 . S
C1375 C1376 1.383 . S
C1375 H1383 0.929 . S
C1376 C1375 1.383 . S
C1376 C1377 1.377 . S
C1377 H1361 0.930 . S
C1377 C1376 1.377 . S
C1377 C1378 1.379 . S
C1378 H1362 0.931 . S
C1378 C1372 1.383 . S
C1378 C1377 1.379 . S
H1379 C1373 0.959 1_655 S
H1380 C1373 0.961 . S
H1381 C1373 0.960 . S
H1382 C1374 0.930 . S
H1383 C1375 0.929 . S
H1384 C1392 0.929 . S
H1385 C1394 0.930 . S
H1386 C1396 0.930 . S
H1387 C1399 0.929 . S
H1388 C1402 0.930 . S
H1389 C1404 0.960 . S
H1390 C1404 0.960 . S
H1391 C1404 0.960 . S
C1392 H1384 0.929 . S
C1392 C1393 1.377 . S
C1392 C1394 1.384 . S
C1393 C1392 1.377 . S
C1393 C1399 1.390 . S
C1394 H1385 0.930 . S
C1394 C1392 1.384 . S
C1394 C1395 1.372 . S
C1395 C1394 1.372 . S
C1395 C1396 1.400 . S
C1395 C1400 1.490 . S
C1396 H1386 0.930 . S
C1396 C1395 1.400 . S
C1396 C1399 1.386 . S
H1397 C1413 0.930 . S
H1398 C1414 0.931 . S
C1399 H1387 0.929 . S
C1399 C1393 1.390 . S
C1399 C1396 1.386 . S
C1400 C1395 1.490 . S
C1400 C1402 1.395 . S
C1400 C1403 1.403 . S
H1401 C1407 0.930 . S
C1402 H1388 0.930 . S
C1402 C1400 1.395 . S
C1402 C1405 1.403 . S
C1403 C1400 1.403 . S
C1403 C1404 1.524 . S
C1403 C1407 1.400 . S
C1404 H1389 0.960 . S
C1404 H1390 0.960 . S
C1404 H1391 0.960 . S
C1404 C1403 1.524 . S
C1405 C1402 1.403 . S
C1405 C1406 1.392 . S
C1405 C1409 1.495 . S
C1406 C1405 1.392 . S
C1406 C1407 1.385 . S
C1406 C1408 1.478 . S
C1407 H1401 0.930 . S
C1407 C1403 1.400 . S
C1407 C1406 1.385 . S
C1408 C1406 1.478 . S
C1408 C1410 1.381 . S
C1408 C1414 1.383 . S
C1409 C1405 1.495 . S
C1409 H1415 0.959 . S
C1409 H1416 0.961 . S
C1409 H1417 0.960 . S
C1410 C1408 1.381 . S
C1410 C1411 1.394 . S
C1410 H1418 0.930 . S
C1411 C1410 1.394 . S
C1411 C1412 1.383 . S
C1411 H1419 0.929 . S
C1412 C1411 1.383 . S
C1412 C1413 1.377 . S
C1413 H1397 0.930 . S
C1413 C1412 1.377 . S
C1413 C1414 1.379 . S
C1414 H1398 0.931 . S
C1414 C1408 1.383 . S
C1414 C1413 1.379 . S
H1415 C1409 0.959 . S
H1416 C1409 0.961 . S
H1417 C1409 0.960 . S
H1418 C1410 0.930 . S
H1419 C1411 0.929 . S
H1420 C1428 0.929 . S
H1421 C1430 0.930 . S
H1422 C1432 0.930 . S
H1423 C1435 0.929 . S
H1424 C1438 0.930 . S
H1425 C1440 0.960 . S
H1426 C1440 0.960 . S
H1427 C1440 0.960 . S
C1428 H1420 0.929 . S
C1428 C1429 1.377 . S
C1428 C1430 1.384 . S
C1429 C1428 1.377 . S
C1429 C1435 1.390 . S
C1430 H1421 0.930 . S
C1430 C1428 1.384 . S
C1430 C1431 1.372 . S
C1431 C1430 1.372 . S
C1431 C1432 1.400 . S
C1431 C1436 1.490 . S
C1432 H1422 0.930 . S
C1432 C1431 1.400 . S
C1432 C1435 1.386 . S
H1433 C1449 0.930 . S
H1434 C1450 0.931 . S
C1435 H1423 0.929 . S
C1435 C1429 1.390 . S
C1435 C1432 1.386 . S
C1436 C1431 1.490 . S
C1436 C1438 1.395 . S
C1436 C1439 1.403 . S
H1437 C1443 0.930 . S
C1438 H1424 0.930 . S
C1438 C1436 1.395 . S
C1438 C1441 1.403 . S
C1439 C1436 1.403 . S
C1439 C1440 1.524 . S
C1439 C1443 1.400 . S
C1440 H1425 0.960 . S
C1440 H1426 0.960 . S
C1440 H1427 0.960 . S
C1440 C1439 1.524 . S
C1441 C1438 1.403 . S
C1441 C1442 1.392 . S
C1441 C1445 1.495 . S
C1442 C1441 1.392 . S
C1442 C1443 1.385 . S
C1442 C1444 1.478 . S
C1443 H1437 0.930 . S
C1443 C1439 1.400 . S
C1443 C1442 1.385 . S
C1444 C1442 1.478 . S
C1444 C1446 1.381 . S
C1444 C1450 1.383 . S
C1445 C1441 1.495 . S
C1445 H1451 0.959 . S
C1445 H1452 0.961 . S
C1445 H1453 0.960 . S
C1446 C1444 1.381 . S
C1446 C1447 1.394 . S
C1446 H1454 0.930 . S
C1447 C1446 1.394 . S
C1447 C1448 1.383 . S
C1447 H1455 0.929 . S
C1448 C1447 1.383 . S
C1448 C1449 1.377 . S
C1449 H1433 0.930 . S
C1449 C1448 1.377 . S
C1449 C1450 1.379 . S
C1450 H1434 0.931 . S
C1450 C1444 1.383 . S
C1450 C1449 1.379 . S
H1451 C1445 0.959 . S
H1452 C1445 0.961 . S
H1453 C1445 0.960 . S
H1454 C1446 0.930 . S
H1455 C1447 0.929 . S
H1456 C1464 0.929 . S
H1457 C1466 0.930 . S
H1458 C1468 0.930 . S
H1459 C1471 0.929 . S
H1460 C1474 0.930 . S
H1461 C1476 0.960 . S
H1462 C1476 0.960 . S
H1463 C1476 0.960 . S
C1464 H1456 0.929 . S
C1464 C1465 1.377 . S
C1464 C1466 1.384 . S
C1465 C1464 1.377 . S
C1465 C1471 1.390 . S
C1466 H1457 0.930 . S
C1466 C1464 1.384 . S
C1466 C1467 1.372 . S
C1467 C1466 1.372 . S
C1467 C1468 1.400 . S
C1467 C1472 1.490 . S
C1468 H1458 0.930 . S
C1468 C1467 1.400 . S
C1468 C1471 1.386 . S
H1469 C1485 0.930 . S
H1470 C1486 0.931 . S
C1471 H1459 0.929 . S
C1471 C1465 1.390 . S
C1471 C1468 1.386 . S
C1472 C1467 1.490 . S
C1472 C1474 1.395 . S
C1472 C1475 1.403 . S
H1473 C1479 0.930 . S
C1474 H1460 0.930 . S
C1474 C1472 1.395 . S
C1474 C1477 1.403 . S
C1475 C1472 1.403 . S
C1475 C1476 1.524 . S
C1475 C1479 1.400 . S
C1476 H1461 0.960 . S
C1476 H1462 0.960 . S
C1476 H1463 0.960 . S
C1476 C1475 1.524 . S
C1477 C1474 1.403 . S
C1477 C1478 1.392 . S
C1477 C1481 1.495 . S
C1478 C1477 1.392 . S
C1478 C1479 1.385 . S
C1478 C1480 1.478 . S
C1479 H1473 0.930 . S
C1479 C1475 1.400 . S
C1479 C1478 1.385 . S
C1480 C1478 1.478 . S
C1480 C1482 1.381 . S
C1480 C1486 1.383 . S
C1481 C1477 1.495 . S
C1481 H1487 0.959 . S
C1481 H1488 0.961 . S
C1481 H1489 0.960 . S
C1482 C1480 1.381 . S
C1482 C1483 1.394 . S
C1482 H1490 0.930 . S
C1483 C1482 1.394 . S
C1483 C1484 1.383 . S
C1483 H1491 0.929 . S
C1484 C1483 1.383 . S
C1484 C1485 1.377 . S
C1485 H1469 0.930 . S
C1485 C1484 1.377 . S
C1485 C1486 1.379 . S
C1486 H1470 0.931 . S
C1486 C1480 1.383 . S
C1486 C1485 1.379 . S
H1487 C1481 0.959 . S
H1488 C1481 0.961 . S
H1489 C1481 0.960 . S
H1490 C1482 0.930 . S
H1491 C1483 0.929 . S
H1492 C1500 0.929 . S
H1493 C1502 0.930 . S
H1494 C1504 0.930 . S
H1495 C1507 0.929 . S
H1496 C1510 0.930 . S
H1497 C1512 0.960 . S
H1498 C1512 0.960 . S
H1499 C1512 0.960 . S
C1500 H1492 0.929 . S
C1500 C1501 1.377 . S
C1500 C1502 1.384 . S
C1501 C1500 1.377 . S
C1501 C1507 1.390 . S
C1502 H1493 0.930 . S
C1502 C1500 1.384 . S
C1502 C1503 1.372 . S
C1503 C1502 1.372 . S
C1503 C1504 1.400 . S
C1503 C1508 1.490 . S
C1504 H1494 0.930 . S
C1504 C1503 1.400 . S
C1504 C1507 1.386 . S
H1505 C1521 0.930 . S
H1506 C1522 0.931 . S
C1507 H1495 0.929 . S
C1507 C1501 1.390 . S
C1507 C1504 1.386 . S
C1508 C1503 1.490 . S
C1508 C1510 1.395 . S
C1508 C1511 1.403 . S
H1509 C1515 0.930 . S
C1510 H1496 0.930 . S
C1510 C1508 1.395 . S
C1510 C1513 1.403 . S
C1511 C1508 1.403 . S
C1511 C1512 1.524 . S
C1511 C1515 1.400 . S
C1512 H1497 0.960 . S
C1512 H1498 0.960 . S
C1512 H1499 0.960 . S
C1512 C1511 1.524 . S
C1513 C1510 1.403 . S
C1513 C1514 1.392 . S
C1513 C1517 1.495 . S
C1514 C1513 1.392 . S
C1514 C1515 1.385 . S
C1514 C1516 1.478 . S
C1515 H1509 0.930 . S
C1515 C1511 1.400 . S
C1515 C1514 1.385 . S
C1516 C1514 1.478 . S
C1516 C1518 1.381 . S
C1516 C1522 1.383 . S
C1517 C1513 1.495 . S
C1517 H1523 0.959 . S
C1517 H1524 0.961 . S
C1517 H1525 0.960 . S
C1518 C1516 1.381 . S
C1518 C1519 1.394 . S
C1518 H1526 0.930 . S
C1519 C1518 1.394 . S
C1519 C1520 1.383 . S
C1519 H1527 0.929 . S
C1520 C1519 1.383 . S
C1520 C1521 1.377 . S
C1521 H1505 0.930 . S
C1521 C1520 1.377 . S
C1521 C1522 1.379 . S
C1522 H1506 0.931 . S
C1522 C1516 1.383 . S
C1522 C1521 1.379 . S
H1523 C1517 0.959 . S
H1524 C1517 0.961 . S
H1525 C1517 0.960 . S
H1526 C1518 0.930 . S
H1527 C1519 0.929 . S
H1528 C1536 0.929 . S
H1529 C1538 0.930 . S
H1530 C1540 0.930 . S
H1531 C1543 0.929 . S
H1532 C1546 0.930 . S
H1533 C1548 0.960 . S
H1534 C1548 0.960 . S
H1535 C1548 0.960 . S
C1536 H1528 0.929 . S
C1536 C1537 1.377 . S
C1536 C1538 1.384 . S
C1537 C1536 1.377 . S
C1537 C1543 1.390 . S
C1538 H1529 0.930 . S
C1538 C1536 1.384 . S
C1538 C1539 1.372 . S
C1539 C1538 1.372 . S
C1539 C1540 1.400 . S
C1539 C1544 1.490 . S
C1540 H1530 0.930 . S
C1540 C1539 1.400 . S
C1540 C1543 1.386 . S
H1541 C1557 0.930 . S
H1542 C1558 0.931 . S
C1543 H1531 0.929 . S
C1543 C1537 1.390 . S
C1543 C1540 1.386 . S
C1544 C1539 1.490 . S
C1544 C1546 1.395 . S
C1544 C1547 1.403 . S
H1545 C1551 0.930 . S
C1546 H1532 0.930 . S
C1546 C1544 1.395 . S
C1546 C1549 1.403 . S
C1547 C1544 1.403 . S
C1547 C1548 1.524 . S
C1547 C1551 1.400 . S
C1548 H1533 0.960 . S
C1548 H1534 0.960 . S
C1548 H1535 0.960 . S
C1548 C1547 1.524 . S
C1549 C1546 1.403 . S
C1549 C1550 1.392 . S
C1549 C1553 1.495 . S
C1550 C1549 1.392 . S
C1550 C1551 1.385 . S
C1550 C1552 1.478 . S
C1551 H1545 0.930 . S
C1551 C1547 1.400 . S
C1551 C1550 1.385 . S
C1552 C1550 1.478 . S
C1552 C1554 1.381 . S
C1552 C1558 1.383 . S
C1553 C1549 1.495 . S
C1553 H1559 0.959 . S
C1553 H1560 0.961 . S
C1553 H1561 0.960 . S
C1554 C1552 1.381 . S
C1554 C1555 1.394 . S
C1554 H1562 0.930 . S
C1555 C1554 1.394 . S
C1555 C1556 1.383 . S
C1555 H1563 0.929 . S
C1556 C1555 1.383 . S
C1556 C1557 1.377 . S
C1557 H1541 0.930 . S
C1557 C1556 1.377 . S
C1557 C1558 1.379 . S
C1558 H1542 0.931 . S
C1558 C1552 1.383 . S
C1558 C1557 1.379 . S
H1559 C1553 0.959 . S
H1560 C1553 0.961 . S
H1561 C1553 0.960 . S
H1562 C1554 0.930 . S
H1563 C1555 0.929 . S
H1564 C1572 0.929 . S
H1565 C1574 0.930 . S
H1566 C1576 0.930 . S
H1567 C1579 0.929 . S
H1568 C1582 0.930 . S
H1569 C1584 0.960 . S
H1570 C1584 0.960 . S
H1571 C1584 0.960 . S
C1572 H1564 0.929 . S
C1572 C1573 1.377 . S
C1572 C1574 1.384 . S
C1573 C1572 1.377 . S
C1573 C1579 1.390 . S
C1574 H1565 0.930 . S
C1574 C1572 1.384 . S
C1574 C1575 1.372 . S
C1575 C1574 1.372 . S
C1575 C1576 1.400 . S
C1575 C1580 1.490 . S
C1576 H1566 0.930 . S
C1576 C1575 1.400 . S
C1576 C1579 1.386 . S
H1577 C1593 0.930 . S
H1578 C1594 0.931 . S
C1579 H1567 0.929 . S
C1579 C1573 1.390 . S
C1579 C1576 1.386 . S
C1580 C1575 1.490 . S
C1580 C1582 1.395 . S
C1580 C1583 1.403 . S
H1581 C1587 0.930 1_455 S
C1582 H1568 0.930 . S
C1582 C1580 1.395 . S
C1582 C1585 1.403 . S
C1583 C1580 1.403 . S
C1583 C1584 1.524 . S
C1583 C1587 1.400 . S
C1584 H1569 0.960 . S
C1584 H1570 0.960 . S
C1584 H1571 0.960 . S
C1584 C1583 1.524 . S
C1585 C1582 1.403 . S
C1585 C1586 1.392 1_655 S
C1585 C1589 1.495 1_655 S
C1586 C1585 1.392 1_455 S
C1586 C1587 1.385 1_455 S
C1586 C1588 1.478 . S
C1587 H1581 0.930 1_655 S
C1587 C1583 1.400 . S
C1587 C1586 1.385 1_655 S
C1588 C1586 1.478 . S
C1588 C1590 1.381 . S
C1588 C1594 1.383 . S
C1589 C1585 1.495 1_455 S
C1589 H1595 0.959 1_455 S
C1589 H1596 0.961 . S
C1589 H1597 0.960 . S
C1590 C1588 1.381 . S
C1590 C1591 1.394 . S
C1590 H1598 0.930 . S
C1591 C1590 1.394 . S
C1591 C1592 1.383 . S
C1591 H1599 0.929 . S
C1592 C1591 1.383 . S
C1592 C1593 1.377 . S
C1593 H1577 0.930 . S
C1593 C1592 1.377 . S
C1593 C1594 1.379 . S
C1594 H1578 0.931 . S
C1594 C1588 1.383 . S
C1594 C1593 1.379 . S
H1595 C1589 0.959 1_655 S
H1596 C1589 0.961 . S
H1597 C1589 0.960 . S
H1598 C1590 0.930 . S
H1599 C1591 0.929 . S
H1600 C1608 0.929 . S
H1601 C1610 0.930 . S
H1602 C1612 0.930 . S
H1603 C1615 0.929 . S
H1604 C1618 0.930 . S
H1605 C1620 0.960 . S
H1606 C1620 0.960 . S
H1607 C1620 0.960 . S
C1608 H1600 0.929 . S
C1608 C1609 1.377 . S
C1608 C1610 1.384 . S
C1609 C1608 1.377 . S
C1609 C1615 1.390 . S
C1610 H1601 0.930 . S
C1610 C1608 1.384 . S
C1610 C1611 1.372 . S
C1611 C1610 1.372 . S
C1611 C1612 1.400 . S
C1611 C1616 1.490 . S
C1612 H1602 0.930 . S
C1612 C1611 1.400 . S
C1612 C1615 1.386 . S
H1613 C1629 0.930 . S
H1614 C1630 0.931 . S
C1615 H1603 0.929 . S
C1615 C1609 1.390 . S
C1615 C1612 1.386 . S
C1616 C1611 1.490 . S
C1616 C1618 1.395 . S
C1616 C1619 1.403 . S
H1617 C1623 0.930 . S
C1618 H1604 0.930 . S
C1618 C1616 1.395 . S
C1618 C1621 1.403 . S
C1619 C1616 1.403 . S
C1619 C1620 1.524 . S
C1619 C1623 1.400 . S
C1620 H1605 0.960 . S
C1620 H1606 0.960 . S
C1620 H1607 0.960 . S
C1620 C1619 1.524 . S
C1621 C1618 1.403 . S
C1621 C1622 1.392 . S
C1621 C1625 1.495 . S
C1622 C1621 1.392 . S
C1622 C1623 1.385 . S
C1622 C1624 1.478 . S
C1623 H1617 0.930 . S
C1623 C1619 1.400 . S
C1623 C1622 1.385 . S
C1624 C1622 1.478 . S
C1624 C1626 1.381 . S
C1624 C1630 1.383 . S
C1625 C1621 1.495 . S
C1625 H1631 0.959 . S
C1625 H1632 0.961 . S
C1625 H1633 0.960 . S
C1626 C1624 1.381 . S
C1626 C1627 1.394 . S
C1626 H1634 0.930 . S
C1627 C1626 1.394 . S
C1627 C1628 1.383 . S
C1627 H1635 0.929 . S
C1628 C1627 1.383 . S
C1628 C1629 1.377 . S
C1629 H1613 0.930 . S
C1629 C1628 1.377 . S
C1629 C1630 1.379 . S
C1630 H1614 0.931 . S
C1630 C1624 1.383 . S
C1630 C1629 1.379 . S
H1631 C1625 0.959 . S
H1632 C1625 0.961 . S
H1633 C1625 0.960 . S
H1634 C1626 0.930 . S
H1635 C1627 0.929 . S
H1636 C1644 0.929 . S
H1637 C1646 0.930 . S
H1638 C1648 0.930 . S
H1639 C1651 0.929 . S
H1640 C1654 0.930 . S
H1641 C1656 0.960 . S
H1642 C1656 0.960 . S
H1643 C1656 0.960 . S
C1644 H1636 0.929 . S
C1644 C1645 1.377 . S
C1644 C1646 1.384 . S
C1645 C1644 1.377 . S
C1645 C1651 1.390 . S
C1646 H1637 0.930 . S
C1646 C1644 1.384 . S
C1646 C1647 1.372 . S
C1647 C1646 1.372 . S
C1647 C1648 1.400 . S
C1647 C1652 1.490 . S
C1648 H1638 0.930 . S
C1648 C1647 1.400 . S
C1648 C1651 1.386 . S
H1649 C1665 0.930 . S
H1650 C1666 0.931 . S
C1651 H1639 0.929 . S
C1651 C1645 1.390 . S
C1651 C1648 1.386 . S
C1652 C1647 1.490 . S
C1652 C1654 1.395 . S
C1652 C1655 1.403 . S
H1653 C1659 0.930 . S
C1654 H1640 0.930 . S
C1654 C1652 1.395 . S
C1654 C1657 1.403 . S
C1655 C1652 1.403 . S
C1655 C1656 1.524 . S
C1655 C1659 1.400 . S
C1656 H1641 0.960 . S
C1656 H1642 0.960 . S
C1656 H1643 0.960 . S
C1656 C1655 1.524 . S
C1657 C1654 1.403 . S
C1657 C1658 1.392 . S
C1657 C1661 1.495 . S
C1658 C1657 1.392 . S
C1658 C1659 1.385 . S
C1658 C1660 1.478 . S
C1659 H1653 0.930 . S
C1659 C1655 1.400 . S
C1659 C1658 1.385 . S
C1660 C1658 1.478 . S
C1660 C1662 1.381 . S
C1660 C1666 1.383 . S
C1661 C1657 1.495 . S
C1661 H1667 0.959 . S
C1661 H1668 0.961 . S
C1661 H1669 0.960 . S
C1662 C1660 1.381 . S
C1662 C1663 1.394 . S
C1662 H1670 0.930 . S
C1663 C1662 1.394 . S
C1663 C1664 1.383 . S
C1663 H1671 0.929 . S
C1664 C1663 1.383 . S
C1664 C1665 1.377 . S
C1665 H1649 0.930 . S
C1665 C1664 1.377 . S
C1665 C1666 1.379 . S
C1666 H1650 0.931 . S
C1666 C1660 1.383 . S
C1666 C1665 1.379 . S
H1667 C1661 0.959 . S
H1668 C1661 0.961 . S
H1669 C1661 0.960 . S
H1670 C1662 0.930 . S
H1671 C1663 0.929 . S
H1672 C1680 0.929 . S
H1673 C1682 0.930 . S
H1674 C1684 0.930 . S
H1675 C1687 0.929 . S
H1676 C1690 0.930 . S
H1677 C1692 0.960 . S
H1678 C1692 0.960 . S
H1679 C1692 0.960 . S
C1680 H1672 0.929 . S
C1680 C1681 1.377 . S
C1680 C1682 1.384 . S
C1681 C1680 1.377 . S
C1681 C1687 1.390 . S
C1682 H1673 0.930 . S
C1682 C1680 1.384 . S
C1682 C1683 1.372 . S
C1683 C1682 1.372 . S
C1683 C1684 1.400 . S
C1683 C1688 1.490 . S
C1684 H1674 0.930 . S
C1684 C1683 1.400 . S
C1684 C1687 1.386 . S
H1685 C1701 0.930 . S
H1686 C1702 0.931 . S
C1687 H1675 0.929 . S
C1687 C1681 1.390 . S
C1687 C1684 1.386 . S
C1688 C1683 1.490 . S
C1688 C1690 1.395 . S
C1688 C1691 1.403 . S
H1689 C1695 0.930 . S
C1690 H1676 0.930 . S
C1690 C1688 1.395 . S
C1690 C1693 1.403 . S
C1691 C1688 1.403 . S
C1691 C1692 1.524 . S
C1691 C1695 1.400 . S
C1692 H1677 0.960 . S
C1692 H1678 0.960 . S
C1692 H1679 0.960 . S
C1692 C1691 1.524 . S
C1693 C1690 1.403 . S
C1693 C1694 1.392 . S
C1693 C1697 1.495 . S
C1694 C1693 1.392 . S
C1694 C1695 1.385 . S
C1694 C1696 1.478 . S
C1695 H1689 0.930 . S
C1695 C1691 1.400 . S
C1695 C1694 1.385 . S
C1696 C1694 1.478 . S
C1696 C1698 1.381 . S
C1696 C1702 1.383 . S
C1697 C1693 1.495 . S
C1697 H1703 0.959 . S
C1697 H1704 0.961 . S
C1697 H1705 0.960 . S
C1698 C1696 1.381 . S
C1698 C1699 1.394 . S
C1698 H1706 0.930 . S
C1699 C1698 1.394 . S
C1699 C1700 1.383 . S
C1699 H1707 0.929 . S
C1700 C1699 1.383 . S
C1700 C1701 1.377 . S
C1701 H1685 0.930 . S
C1701 C1700 1.377 . S
C1701 C1702 1.379 . S
C1702 H1686 0.931 . S
C1702 C1696 1.383 . S
C1702 C1701 1.379 . S
H1703 C1697 0.959 . S
H1704 C1697 0.961 . S
H1705 C1697 0.960 . S
H1706 C1698 0.930 . S
H1707 C1699 0.929 . S
H1708 C1716 0.929 . S
H1709 C1718 0.930 . S
H1710 C1720 0.930 . S
H1711 C1723 0.929 . S
H1712 C1726 0.930 . S
H1713 C1728 0.960 . S
H1714 C1728 0.960 . S
H1715 C1728 0.960 . S
C1716 H1708 0.929 . S
C1716 C1717 1.377 . S
C1716 C1718 1.384 . S
C1717 C1716 1.377 . S
C1717 C1723 1.390 . S
C1718 H1709 0.930 . S
C1718 C1716 1.384 . S
C1718 C1719 1.372 . S
C1719 C1718 1.372 . S
C1719 C1720 1.400 . S
C1719 C1724 1.490 . S
C1720 H1710 0.930 . S
C1720 C1719 1.400 . S
C1720 C1723 1.386 . S
H1721 C1737 0.930 . S
H1722 C1738 0.931 . S
C1723 H1711 0.929 . S
C1723 C1717 1.390 . S
C1723 C1720 1.386 . S
C1724 C1719 1.490 . S
C1724 C1726 1.395 . S
C1724 C1727 1.403 . S
H1725 C1731 0.930 1_455 S
C1726 H1712 0.930 . S
C1726 C1724 1.395 . S
C1726 C1729 1.403 . S
C1727 C1724 1.403 . S
C1727 C1728 1.524 . S
C1727 C1731 1.400 . S
C1728 H1713 0.960 . S
C1728 H1714 0.960 . S
C1728 H1715 0.960 . S
C1728 C1727 1.524 . S
C1729 C1726 1.403 . S
C1729 C1730 1.392 1_655 S
C1729 C1733 1.495 1_655 S
C1730 C1729 1.392 1_455 S
C1730 C1731 1.385 1_455 S
C1730 C1732 1.478 . S
C1731 H1725 0.930 1_655 S
C1731 C1727 1.400 . S
C1731 C1730 1.385 1_655 S
C1732 C1730 1.478 . S
C1732 C1734 1.381 . S
C1732 C1738 1.383 . S
C1733 C1729 1.495 1_455 S
C1733 H1739 0.959 1_455 S
C1733 H1740 0.961 . S
C1733 H1741 0.960 . S
C1734 C1732 1.381 . S
C1734 C1735 1.394 . S
C1734 H1742 0.930 . S
C1735 C1734 1.394 . S
C1735 C1736 1.383 . S
C1735 H1743 0.929 . S
C1736 C1735 1.383 . S
C1736 C1737 1.377 . S
C1737 H1721 0.930 . S
C1737 C1736 1.377 . S
C1737 C1738 1.379 . S
C1738 H1722 0.931 . S
C1738 C1732 1.383 . S
C1738 C1737 1.379 . S
H1739 C1733 0.959 1_655 S
H1740 C1733 0.961 . S
H1741 C1733 0.960 . S
H1742 C1734 0.930 . S
H1743 C1735 0.929 . S
H1744 C1752 0.929 . S
H1745 C1754 0.930 . S
H1746 C1756 0.930 . S
H1747 C1759 0.929 . S
H1748 C1762 0.930 . S
H1749 C1764 0.960 . S
H1750 C1764 0.960 . S
H1751 C1764 0.960 . S
C1752 H1744 0.929 . S
C1752 C1753 1.377 . S
C1752 C1754 1.384 . S
C1753 C1752 1.377 . S
C1753 C1759 1.390 . S
C1754 H1745 0.930 . S
C1754 C1752 1.384 . S
C1754 C1755 1.372 . S
C1755 C1754 1.372 . S
C1755 C1756 1.400 . S
C1755 C1760 1.490 . S
C1756 H1746 0.930 . S
C1756 C1755 1.400 . S
C1756 C1759 1.386 . S
H1757 C1773 0.930 . S
H1758 C1774 0.931 . S
C1759 H1747 0.929 . S
C1759 C1753 1.390 . S
C1759 C1756 1.386 . S
C1760 C1755 1.490 . S
C1760 C1762 1.395 . S
C1760 C1763 1.403 . S
H1761 C1767 0.930 . S
C1762 H1748 0.930 . S
C1762 C1760 1.395 . S
C1762 C1765 1.403 . S
C1763 C1760 1.403 . S
C1763 C1764 1.524 . S
C1763 C1767 1.400 . S
C1764 H1749 0.960 . S
C1764 H1750 0.960 . S
C1764 H1751 0.960 . S
C1764 C1763 1.524 . S
C1765 C1762 1.403 . S
C1765 C1766 1.392 . S
C1765 C1769 1.495 . S
C1766 C1765 1.392 . S
C1766 C1767 1.385 . S
C1766 C1768 1.478 . S
C1767 H1761 0.930 . S
C1767 C1763 1.400 . S
C1767 C1766 1.385 . S
C1768 C1766 1.478 . S
C1768 C1770 1.381 . S
C1768 C1774 1.383 . S
C1769 C1765 1.495 . S
C1769 H1775 0.959 . S
C1769 H1776 0.961 . S
C1769 H1777 0.960 . S
C1770 C1768 1.381 . S
C1770 C1771 1.394 . S
C1770 H1778 0.930 . S
C1771 C1770 1.394 . S
C1771 C1772 1.383 . S
C1771 H1779 0.929 . S
C1772 C1771 1.383 . S
C1772 C1773 1.377 . S
C1773 H1757 0.930 . S
C1773 C1772 1.377 . S
C1773 C1774 1.379 . S
C1774 H1758 0.931 . S
C1774 C1768 1.383 . S
C1774 C1773 1.379 . S
H1775 C1769 0.959 . S
H1776 C1769 0.961 . S
H1777 C1769 0.960 . S
H1778 C1770 0.930 . S
H1779 C1771 0.929 . S
H1780 C1788 0.929 . S
H1781 C1790 0.930 . S
H1782 C1792 0.930 . S
H1783 C1795 0.929 . S
H1784 C1798 0.930 1_455 S
H1785 C1800 0.960 1_655 S
H1786 C1800 0.960 . S
H1787 C1800 0.960 . S
C1788 H1780 0.929 . S
C1788 C1789 1.377 . S
C1788 C1790 1.384 . S
C1789 C1788 1.377 . S
C1789 C1795 1.390 . S
C1790 H1781 0.930 . S
C1790 C1788 1.384 . S
C1790 C1791 1.372 . S
C1791 C1790 1.372 . S
C1791 C1792 1.400 . S
C1791 C1796 1.490 . S
C1792 H1782 0.930 . S
C1792 C1791 1.400 . S
C1792 C1795 1.386 . S
H1793 C1809 0.930 . S
H1794 C1810 0.931 . S
C1795 H1783 0.929 . S
C1795 C1789 1.390 . S
C1795 C1792 1.386 . S
C1796 C1791 1.490 . S
C1796 C1798 1.395 1_455 S
C1796 C1799 1.403 1_455 S
H1797 C1803 0.930 . S
C1798 H1784 0.930 1_655 S
C1798 C1796 1.395 1_655 S
C1798 C1801 1.403 . S
C1799 C1796 1.403 1_655 S
C1799 C1800 1.524 1_655 S
C1799 C1803 1.400 . S
C1800 H1785 0.960 1_455 S
C1800 H1786 0.960 . S
C1800 H1787 0.960 . S
C1800 C1799 1.524 1_455 S
C1801 C1798 1.403 . S
C1801 C1802 1.392 . S
C1801 C1805 1.495 . S
C1802 C1801 1.392 . S
C1802 C1803 1.385 . S
C1802 C1804 1.478 . S
C1803 H1797 0.930 . S
C1803 C1799 1.400 . S
C1803 C1802 1.385 . S
C1804 C1802 1.478 . S
C1804 C1806 1.381 . S
C1804 C1810 1.383 . S
C1805 C1801 1.495 . S
C1805 H1811 0.959 . S
C1805 H1812 0.961 . S
C1805 H1813 0.960 . S
C1806 C1804 1.381 . S
C1806 C1807 1.394 . S
C1806 H1814 0.930 . S
C1807 C1806 1.394 . S
C1807 C1808 1.383 . S
C1807 H1815 0.929 . S
C1808 C1807 1.383 . S
C1808 C1809 1.377 . S
C1809 H1793 0.930 . S
C1809 C1808 1.377 . S
C1809 C1810 1.379 . S
C1810 H1794 0.931 . S
C1810 C1804 1.383 . S
C1810 C1809 1.379 . S
H1811 C1805 0.959 . S
H1812 C1805 0.961 . S
H1813 C1805 0.960 . S
H1814 C1806 0.930 . S
H1815 C1807 0.929 . S
H1816 C1824 0.929 . S
H1817 C1826 0.930 . S
H1818 C1828 0.930 . S
H1819 C1831 0.929 . S
H1820 C1834 0.930 . S
H1821 C1836 0.960 . S
H1822 C1836 0.960 . S
H1823 C1836 0.960 . S
C1824 H1816 0.929 . S
C1824 C1825 1.377 . S
C1824 C1826 1.384 . S
C1825 C1824 1.377 . S
C1825 C1831 1.390 . S
C1826 H1817 0.930 . S
C1826 C1824 1.384 . S
C1826 C1827 1.372 . S
C1827 C1826 1.372 . S
C1827 C1828 1.400 . S
C1827 C1832 1.490 . S
C1828 H1818 0.930 . S
C1828 C1827 1.400 . S
C1828 C1831 1.386 . S
H1829 C1845 0.930 . S
H1830 C1846 0.931 . S
C1831 H1819 0.929 . S
C1831 C1825 1.390 . S
C1831 C1828 1.386 . S
C1832 C1827 1.490 . S
C1832 C1834 1.395 . S
C1832 C1835 1.403 . S
H1833 C1839 0.930 . S
C1834 H1820 0.930 . S
C1834 C1832 1.395 . S
C1834 C1837 1.403 . S
C1835 C1832 1.403 . S
C1835 C1836 1.524 . S
C1835 C1839 1.400 . S
C1836 H1821 0.960 . S
C1836 H1822 0.960 . S
C1836 H1823 0.960 . S
C1836 C1835 1.524 . S
C1837 C1834 1.403 . S
C1837 C1838 1.392 . S
C1837 C1841 1.495 . S
C1838 C1837 1.392 . S
C1838 C1839 1.385 . S
C1838 C1840 1.478 . S
C1839 H1833 0.930 . S
C1839 C1835 1.400 . S
C1839 C1838 1.385 . S
C1840 C1838 1.478 . S
C1840 C1842 1.381 . S
C1840 C1846 1.383 . S
C1841 C1837 1.495 . S
C1841 H1847 0.959 . S
C1841 H1848 0.961 . S
C1841 H1849 0.960 . S
C1842 C1840 1.381 . S
C1842 C1843 1.394 . S
C1842 H1850 0.930 . S
C1843 C1842 1.394 . S
C1843 C1844 1.383 . S
C1843 H1851 0.929 . S
C1844 C1843 1.383 . S
C1844 C1845 1.377 . S
C1845 H1829 0.930 . S
C1845 C1844 1.377 . S
C1845 C1846 1.379 . S
C1846 H1830 0.931 . S
C1846 C1840 1.383 . S
C1846 C1845 1.379 . S
H1847 C1841 0.959 . S
H1848 C1841 0.961 . S
H1849 C1841 0.960 . S
H1850 C1842 0.930 . S
H1851 C1843 0.929 . S
H1852 C1860 0.929 . S
H1853 C1862 0.930 . S
H1854 C1864 0.930 . S
H1855 C1867 0.929 . S
H1856 C1870 0.930 . S
H1857 C1872 0.960 . S
H1858 C1872 0.960 . S
H1859 C1872 0.960 . S
C1860 H1852 0.929 . S
C1860 C1861 1.377 . S
C1860 C1862 1.384 . S
C1861 C1860 1.377 . S
C1861 C1867 1.390 . S
C1862 H1853 0.930 . S
C1862 C1860 1.384 . S
C1862 C1863 1.372 . S
C1863 C1862 1.372 . S
C1863 C1864 1.400 . S
C1863 C1868 1.490 . S
C1864 H1854 0.930 . S
C1864 C1863 1.400 . S
C1864 C1867 1.386 . S
H1865 C1881 0.930 . S
H1866 C1882 0.931 . S
C1867 H1855 0.929 . S
C1867 C1861 1.390 . S
C1867 C1864 1.386 . S
C1868 C1863 1.490 . S
C1868 C1870 1.395 . S
C1868 C1871 1.403 . S
H1869 C1875 0.930 . S
C1870 H1856 0.930 . S
C1870 C1868 1.395 . S
C1870 C1873 1.403 . S
C1871 C1868 1.403 . S
C1871 C1872 1.524 . S
C1871 C1875 1.400 . S
C1872 H1857 0.960 . S
C1872 H1858 0.960 . S
C1872 H1859 0.960 . S
C1872 C1871 1.524 . S
C1873 C1870 1.403 . S
C1873 C1874 1.392 . S
C1873 C1877 1.495 . S
C1874 C1873 1.392 . S
C1874 C1875 1.385 . S
C1874 C1876 1.478 . S
C1875 H1869 0.930 . S
C1875 C1871 1.400 . S
C1875 C1874 1.385 . S
C1876 C1874 1.478 . S
C1876 C1878 1.381 . S
C1876 C1882 1.383 . S
C1877 C1873 1.495 . S
C1877 H1883 0.959 . S
C1877 H1884 0.961 . S
C1877 H1885 0.960 . S
C1878 C1876 1.381 . S
C1878 C1879 1.394 . S
C1878 H1886 0.930 . S
C1879 C1878 1.394 . S
C1879 C1880 1.383 . S
C1879 H1887 0.929 . S
C1880 C1879 1.383 . S
C1880 C1881 1.377 . S
C1881 H1865 0.930 . S
C1881 C1880 1.377 . S
C1881 C1882 1.379 . S
C1882 H1866 0.931 . S
C1882 C1876 1.383 . S
C1882 C1881 1.379 . S
H1883 C1877 0.959 . S
H1884 C1877 0.961 . S
H1885 C1877 0.960 . S
H1886 C1878 0.930 . S
H1887 C1879 0.929 . S
H1888 C1896 0.929 . S
H1889 C1898 0.930 . S
H1890 C1900 0.930 . S
H1891 C1903 0.929 . S
H1892 C1906 0.930 . S
H1893 C1908 0.960 . S
H1894 C1908 0.960 . S
H1895 C1908 0.960 . S
C1896 H1888 0.929 . S
C1896 C1897 1.377 . S
C1896 C1898 1.384 . S
C1897 C1896 1.377 . S
C1897 C1903 1.390 . S
C1898 H1889 0.930 . S
C1898 C1896 1.384 . S
C1898 C1899 1.372 . S
C1899 C1898 1.372 . S
C1899 C1900 1.400 . S
C1899 C1904 1.490 . S
C1900 H1890 0.930 . S
C1900 C1899 1.400 . S
C1900 C1903 1.386 . S
H1901 C1917 0.930 . S
H1902 C1918 0.931 . S
C1903 H1891 0.929 . S
C1903 C1897 1.390 . S
C1903 C1900 1.386 . S
C1904 C1899 1.490 . S
C1904 C1906 1.395 . S
C1904 C1907 1.403 . S
H1905 C1911 0.930 . S
C1906 H1892 0.930 . S
C1906 C1904 1.395 . S
C1906 C1909 1.403 . S
C1907 C1904 1.403 . S
C1907 C1908 1.524 . S
C1907 C1911 1.400 . S
C1908 H1893 0.960 . S
C1908 H1894 0.960 . S
C1908 H1895 0.960 . S
C1908 C1907 1.524 . S
C1909 C1906 1.403 . S
C1909 C1910 1.392 . S
C1909 C1913 1.495 . S
C1910 C1909 1.392 . S
C1910 C1911 1.385 . S
C1910 C1912 1.478 . S
C1911 H1905 0.930 . S
C1911 C1907 1.400 . S
C1911 C1910 1.385 . S
C1912 C1910 1.478 . S
C1912 C1914 1.381 . S
C1912 C1918 1.383 . S
C1913 C1909 1.495 . S
C1913 H1919 0.959 . S
C1913 H1920 0.961 . S
C1913 H1921 0.960 . S
C1914 C1912 1.381 . S
C1914 C1915 1.394 . S
C1914 H1922 0.930 . S
C1915 C1914 1.394 . S
C1915 C1916 1.383 . S
C1915 H1923 0.929 . S
C1916 C1915 1.383 . S
C1916 C1917 1.377 . S
C1917 H1901 0.930 . S
C1917 C1916 1.377 . S
C1917 C1918 1.379 . S
C1918 H1902 0.931 . S
C1918 C1912 1.383 . S
C1918 C1917 1.379 . S
H1919 C1913 0.959 . S
H1920 C1913 0.961 . S
H1921 C1913 0.960 . S
H1922 C1914 0.930 . S
H1923 C1915 0.929 . S
H1924 C1932 0.929 . S
H1925 C1934 0.930 . S
H1926 C1936 0.930 . S
H1927 C1939 0.929 . S
H1928 C1942 0.930 . S
H1929 C1944 0.960 . S
H1930 C1944 0.960 . S
H1931 C1944 0.960 . S
C1932 H1924 0.929 . S
C1932 C1933 1.377 . S
C1932 C1934 1.384 . S
C1933 C1932 1.377 . S
C1933 C1939 1.390 . S
C1934 H1925 0.930 . S
C1934 C1932 1.384 . S
C1934 C1935 1.372 . S
C1935 C1934 1.372 . S
C1935 C1936 1.400 . S
C1935 C1940 1.490 . S
C1936 H1926 0.930 . S
C1936 C1935 1.400 . S
C1936 C1939 1.386 . S
H1937 C1953 0.930 . S
H1938 C1954 0.931 . S
C1939 H1927 0.929 . S
C1939 C1933 1.390 . S
C1939 C1936 1.386 . S
C1940 C1935 1.490 . S
C1940 C1942 1.395 . S
C1940 C1943 1.403 . S
H1941 C1947 0.930 . S
C1942 H1928 0.930 . S
C1942 C1940 1.395 . S
C1942 C1945 1.403 . S
C1943 C1940 1.403 . S
C1943 C1944 1.524 . S
C1943 C1947 1.400 . S
C1944 H1929 0.960 . S
C1944 H1930 0.960 . S
C1944 H1931 0.960 . S
C1944 C1943 1.524 . S
C1945 C1942 1.403 . S
C1945 C1946 1.392 . S
C1945 C1949 1.495 . S
C1946 C1945 1.392 . S
C1946 C1947 1.385 . S
C1946 C1948 1.478 . S
C1947 H1941 0.930 . S
C1947 C1943 1.400 . S
C1947 C1946 1.385 . S
C1948 C1946 1.478 . S
C1948 C1950 1.381 . S
C1948 C1954 1.383 . S
C1949 C1945 1.495 . S
C1949 H1955 0.959 . S
C1949 H1956 0.961 . S
C1949 H1957 0.960 . S
C1950 C1948 1.381 . S
C1950 C1951 1.394 . S
C1950 H1958 0.930 . S
C1951 C1950 1.394 . S
C1951 C1952 1.383 . S
C1951 H1959 0.929 . S
C1952 C1951 1.383 . S
C1952 C1953 1.377 . S
C1953 H1937 0.930 . S
C1953 C1952 1.377 . S
C1953 C1954 1.379 . S
C1954 H1938 0.931 . S
C1954 C1948 1.383 . S
C1954 C1953 1.379 . S
H1955 C1949 0.959 . S
H1956 C1949 0.961 . S
H1957 C1949 0.960 . S
H1958 C1950 0.930 . S
H1959 C1951 0.929 . S
H1960 C1968 0.929 . S
H1961 C1970 0.930 . S
H1962 C1972 0.930 . S
H1963 C1975 0.929 . S
H1964 C1978 0.930 . S
H1965 C1980 0.960 . S
H1966 C1980 0.960 . S
H1967 C1980 0.960 . S
C1968 H1960 0.929 . S
C1968 C1969 1.377 . S
C1968 C1970 1.384 . S
C1969 C1968 1.377 . S
C1969 C1975 1.390 . S
C1970 H1961 0.930 . S
C1970 C1968 1.384 . S
C1970 C1971 1.372 . S
C1971 C1970 1.372 . S
C1971 C1972 1.400 . S
C1971 C1976 1.490 . S
C1972 H1962 0.930 . S
C1972 C1971 1.400 . S
C1972 C1975 1.386 . S
H1973 C1989 0.930 . S
H1974 C1990 0.931 . S
C1975 H1963 0.929 . S
C1975 C1969 1.390 . S
C1975 C1972 1.386 . S
C1976 C1971 1.490 . S
C1976 C1978 1.395 . S
C1976 C1979 1.403 . S
H1977 C1983 0.930 . S
C1978 H1964 0.930 . S
C1978 C1976 1.395 . S
C1978 C1981 1.403 . S
C1979 C1976 1.403 . S
C1979 C1980 1.524 . S
C1979 C1983 1.400 . S
C1980 H1965 0.960 . S
C1980 H1966 0.960 . S
C1980 H1967 0.960 . S
C1980 C1979 1.524 . S
C1981 C1978 1.403 . S
C1981 C1982 1.392 . S
C1981 C1985 1.495 . S
C1982 C1981 1.392 . S
C1982 C1983 1.385 . S
C1982 C1984 1.478 . S
C1983 H1977 0.930 . S
C1983 C1979 1.400 . S
C1983 C1982 1.385 . S
C1984 C1982 1.478 . S
C1984 C1986 1.381 . S
C1984 C1990 1.383 . S
C1985 C1981 1.495 . S
C1985 H1991 0.959 . S
C1985 H1992 0.961 . S
C1985 H1993 0.960 . S
C1986 C1984 1.381 . S
C1986 C1987 1.394 . S
C1986 H1994 0.930 . S
C1987 C1986 1.394 . S
C1987 C1988 1.383 . S
C1987 H1995 0.929 . S
C1988 C1987 1.383 . S
C1988 C1989 1.377 . S
C1989 H1973 0.930 . S
C1989 C1988 1.377 . S
C1989 C1990 1.379 . S
C1990 H1974 0.931 . S
C1990 C1984 1.383 . S
C1990 C1989 1.379 . S
H1991 C1985 0.959 . S
H1992 C1985 0.961 . S
H1993 C1985 0.960 . S
H1994 C1986 0.930 . S
H1995 C1987 0.929 . S
H1996 C2004 0.929 . S
H1997 C2006 0.930 . S
H1998 C2008 0.930 . S
H1999 C2011 0.929 . S
H2000 C2014 0.930 . S
H2001 C2016 0.960 . S
H2002 C2016 0.960 . S
H2003 C2016 0.960 . S
C2004 H1996 0.929 . S
C2004 C2005 1.377 . S
C2004 C2006 1.384 . S
C2005 C2004 1.377 . S
C2005 C2011 1.390 . S
C2006 H1997 0.930 . S
C2006 C2004 1.384 . S
C2006 C2007 1.372 . S
C2007 C2006 1.372 . S
C2007 C2008 1.400 . S
C2007 C2012 1.490 . S
C2008 H1998 0.930 . S
C2008 C2007 1.400 . S
C2008 C2011 1.386 . S
H2009 C2025 0.930 . S
H2010 C2026 0.931 . S
C2011 H1999 0.929 . S
C2011 C2005 1.390 . S
C2011 C2008 1.386 . S
C2012 C2007 1.490 . S
C2012 C2014 1.395 . S
C2012 C2015 1.403 . S
H2013 C2019 0.930 1_655 S
C2014 H2000 0.930 . S
C2014 C2012 1.395 . S
C2014 C2017 1.403 . S
C2015 C2012 1.403 . S
C2015 C2016 1.524 . S
C2015 C2019 1.400 . S
C2016 H2001 0.960 . S
C2016 H2002 0.960 . S
C2016 H2003 0.960 . S
C2016 C2015 1.524 . S
C2017 C2014 1.403 . S
C2017 C2018 1.392 1_455 S
C2017 C2021 1.496 1_455 S
C2018 C2017 1.392 1_655 S
C2018 C2019 1.385 1_655 S
C2018 C2020 1.478 . S
C2019 H2013 0.930 1_455 S
C2019 C2015 1.400 . S
C2019 C2018 1.385 1_455 S
C2020 C2018 1.478 . S
C2020 C2022 1.381 . S
C2020 C2026 1.383 . S
C2021 C2017 1.496 1_655 S
C2021 H2027 0.961 1_655 S
C2021 H2028 0.960 . S
C2021 H2029 0.958 . S
C2022 C2020 1.381 . S
C2022 C2023 1.394 . S
C2022 H2030 0.930 . S
C2023 C2022 1.394 . S
C2023 C2024 1.383 . S
C2023 H2031 0.929 . S
C2024 C2023 1.383 . S
C2024 C2025 1.377 . S
C2025 H2009 0.930 . S
C2025 C2024 1.377 . S
C2025 C2026 1.379 . S
C2026 H2010 0.931 . S
C2026 C2020 1.383 . S
C2026 C2025 1.379 . S
H2027 C2021 0.961 1_455 S
H2028 C2021 0.960 . S
H2029 C2021 0.958 . S
H2030 C2022 0.930 . S
H2031 C2023 0.929 . S
H2032 C2040 0.929 . S
H2033 C2042 0.930 . S
H2034 C2044 0.930 . S
H2035 C2047 0.929 . S
H2036 C2050 0.930 . S
H2037 C2052 0.960 . S
H2038 C2052 0.960 . S
H2039 C2052 0.960 . S
C2040 H2032 0.929 . S
C2040 C2041 1.377 . S
C2040 C2042 1.384 . S
C2041 C2040 1.377 . S
C2041 C2047 1.390 . S
C2042 H2033 0.930 . S
C2042 C2040 1.384 . S
C2042 C2043 1.372 . S
C2043 C2042 1.372 . S
C2043 C2044 1.400 . S
C2043 C2048 1.490 . S
C2044 H2034 0.930 . S
C2044 C2043 1.400 . S
C2044 C2047 1.386 . S
H2045 C2061 0.930 . S
H2046 C2062 0.931 . S
C2047 H2035 0.929 . S
C2047 C2041 1.390 . S
C2047 C2044 1.386 . S
C2048 C2043 1.490 . S
C2048 C2050 1.395 . S
C2048 C2051 1.403 . S
H2049 C2055 0.930 . S
C2050 H2036 0.930 . S
C2050 C2048 1.395 . S
C2050 C2053 1.403 . S
C2051 C2048 1.403 . S
C2051 C2052 1.524 . S
C2051 C2055 1.400 . S
C2052 H2037 0.960 . S
C2052 H2038 0.960 . S
C2052 H2039 0.960 . S
C2052 C2051 1.524 . S
C2053 C2050 1.403 . S
C2053 C2054 1.392 . S
C2053 C2057 1.495 . S
C2054 C2053 1.392 . S
C2054 C2055 1.385 . S
C2054 C2056 1.478 . S
C2055 H2049 0.930 . S
C2055 C2051 1.400 . S
C2055 C2054 1.385 . S
C2056 C2054 1.478 . S
C2056 C2058 1.381 . S
C2056 C2062 1.383 . S
C2057 C2053 1.495 . S
C2057 H2063 0.959 . S
C2057 H2064 0.961 . S
C2057 H2065 0.960 . S
C2058 C2056 1.381 . S
C2058 C2059 1.394 . S
C2058 H2066 0.930 . S
C2059 C2058 1.394 . S
C2059 C2060 1.383 . S
C2059 H2067 0.929 . S
C2060 C2059 1.383 . S
C2060 C2061 1.377 . S
C2061 H2045 0.930 . S
C2061 C2060 1.377 . S
C2061 C2062 1.379 . S
C2062 H2046 0.931 . S
C2062 C2056 1.383 . S
C2062 C2061 1.379 . S
H2063 C2057 0.959 . S
H2064 C2057 0.961 . S
H2065 C2057 0.960 . S
H2066 C2058 0.930 . S
H2067 C2059 0.929 . S
H2068 C2076 0.929 . S
H2069 C2078 0.930 . S
H2070 C2080 0.930 . S
H2071 C2083 0.929 . S
H2072 C2086 0.930 1_655 S
H2073 C2088 0.960 1_455 S
H2074 C2088 0.960 . S
H2075 C2088 0.960 . S
C2076 H2068 0.929 . S
C2076 C2077 1.377 . S
C2076 C2078 1.384 . S
C2077 C2076 1.377 . S
C2077 C2083 1.390 . S
C2078 H2069 0.930 . S
C2078 C2076 1.384 . S
C2078 C2079 1.372 . S
C2079 C2078 1.372 . S
C2079 C2080 1.400 . S
C2079 C2084 1.490 . S
C2080 H2070 0.930 . S
C2080 C2079 1.400 . S
C2080 C2083 1.386 . S
H2081 C2097 0.930 . S
H2082 C2098 0.931 . S
C2083 H2071 0.929 . S
C2083 C2077 1.390 . S
C2083 C2080 1.386 . S
C2084 C2079 1.490 . S
C2084 C2086 1.395 1_655 S
C2084 C2087 1.403 1_655 S
H2085 C2091 0.930 . S
C2086 H2072 0.930 1_455 S
C2086 C2084 1.395 1_455 S
C2086 C2089 1.403 . S
C2087 C2084 1.403 1_455 S
C2087 C2088 1.524 1_455 S
C2087 C2091 1.400 . S
C2088 H2073 0.960 1_655 S
C2088 H2074 0.960 . S
C2088 H2075 0.960 . S
C2088 C2087 1.524 1_655 S
C2089 C2086 1.403 . S
C2089 C2090 1.392 . S
C2089 C2093 1.495 . S
C2090 C2089 1.392 . S
C2090 C2091 1.385 . S
C2090 C2092 1.478 . S
C2091 H2085 0.930 . S
C2091 C2087 1.400 . S
C2091 C2090 1.385 . S
C2092 C2090 1.478 . S
C2092 C2094 1.381 . S
C2092 C2098 1.383 . S
C2093 C2089 1.495 . S
C2093 H2099 0.959 . S
C2093 H2100 0.961 . S
C2093 H2101 0.960 . S
C2094 C2092 1.381 . S
C2094 C2095 1.394 . S
C2094 H2102 0.930 . S
C2095 C2094 1.394 . S
C2095 C2096 1.383 . S
C2095 H2103 0.929 . S
C2096 C2095 1.383 . S
C2096 C2097 1.377 . S
C2097 H2081 0.930 . S
C2097 C2096 1.377 . S
C2097 C2098 1.379 . S
C2098 H2082 0.931 . S
C2098 C2092 1.383 . S
C2098 C2097 1.379 . S
H2099 C2093 0.959 . S
H2100 C2093 0.961 . S
H2101 C2093 0.960 . S
H2102 C2094 0.930 . S
H2103 C2095 0.929 . S
H2104 C2112 0.929 . S
H2105 C2114 0.930 . S
H2106 C2116 0.930 . S
H2107 C2119 0.929 . S
H2108 C2122 0.930 . S
H2109 C2124 0.960 . S
H2110 C2124 0.960 . S
H2111 C2124 0.960 . S
C2112 H2104 0.929 . S
C2112 C2113 1.377 . S
C2112 C2114 1.384 . S
C2113 C2112 1.377 . S
C2113 C2119 1.390 . S
C2114 H2105 0.930 . S
C2114 C2112 1.384 . S
C2114 C2115 1.372 . S
C2115 C2114 1.372 . S
C2115 C2116 1.400 . S
C2115 C2120 1.490 . S
C2116 H2106 0.930 . S
C2116 C2115 1.400 . S
C2116 C2119 1.386 . S
H2117 C2133 0.930 . S
H2118 C2134 0.931 . S
C2119 H2107 0.929 . S
C2119 C2113 1.390 . S
C2119 C2116 1.386 . S
C2120 C2115 1.490 . S
C2120 C2122 1.395 . S
C2120 C2123 1.403 . S
H2121 C2127 0.930 . S
C2122 H2108 0.930 . S
C2122 C2120 1.395 . S
C2122 C2125 1.403 . S
C2123 C2120 1.403 . S
C2123 C2124 1.524 . S
C2123 C2127 1.400 . S
C2124 H2109 0.960 . S
C2124 H2110 0.960 . S
C2124 H2111 0.960 . S
C2124 C2123 1.524 . S
C2125 C2122 1.403 . S
C2125 C2126 1.392 . S
C2125 C2129 1.495 . S
C2126 C2125 1.392 . S
C2126 C2127 1.385 . S
C2126 C2128 1.478 . S
C2127 H2121 0.930 . S
C2127 C2123 1.400 . S
C2127 C2126 1.385 . S
C2128 C2126 1.478 . S
C2128 C2130 1.381 . S
C2128 C2134 1.383 . S
C2129 C2125 1.495 . S
C2129 H2135 0.959 . S
C2129 H2136 0.961 . S
C2129 H2137 0.960 . S
C2130 C2128 1.381 . S
C2130 C2131 1.394 . S
C2130 H2138 0.930 . S
C2131 C2130 1.394 . S
C2131 C2132 1.383 . S
C2131 H2139 0.929 . S
C2132 C2131 1.383 . S
C2132 C2133 1.377 . S
C2133 H2117 0.930 . S
C2133 C2132 1.377 . S
C2133 C2134 1.379 . S
C2134 H2118 0.931 . S
C2134 C2128 1.383 . S
C2134 C2133 1.379 . S
H2135 C2129 0.959 . S
H2136 C2129 0.961 . S
H2137 C2129 0.960 . S
H2138 C2130 0.930 . S
H2139 C2131 0.929 . S
H2140 C2148 0.929 . S
H2141 C2150 0.930 . S
H2142 C2152 0.930 . S
H2143 C2155 0.929 . S
H2144 C2158 0.930 . S
H2145 C2160 0.960 . S
H2146 C2160 0.960 . S
H2147 C2160 0.960 . S
C2148 H2140 0.929 . S
C2148 C2149 1.377 . S
C2148 C2150 1.384 . S
C2149 C2148 1.377 . S
C2149 C2155 1.390 . S
C2150 H2141 0.930 . S
C2150 C2148 1.384 . S
C2150 C2151 1.372 . S
C2151 C2150 1.372 . S
C2151 C2152 1.400 . S
C2151 C2156 1.490 . S
C2152 H2142 0.930 . S
C2152 C2151 1.400 . S
C2152 C2155 1.386 . S
H2153 C2169 0.930 . S
H2154 C2170 0.931 . S
C2155 H2143 0.929 . S
C2155 C2149 1.390 . S
C2155 C2152 1.386 . S
C2156 C2151 1.490 . S
C2156 C2158 1.395 . S
C2156 C2159 1.403 . S
H2157 C2163 0.930 . S
C2158 H2144 0.930 . S
C2158 C2156 1.395 . S
C2158 C2161 1.403 . S
C2159 C2156 1.403 . S
C2159 C2160 1.524 . S
C2159 C2163 1.400 . S
C2160 H2145 0.960 . S
C2160 H2146 0.960 . S
C2160 H2147 0.960 . S
C2160 C2159 1.524 . S
C2161 C2158 1.403 . S
C2161 C2162 1.392 . S
C2161 C2165 1.495 . S
C2162 C2161 1.392 . S
C2162 C2163 1.385 . S
C2162 C2164 1.478 . S
C2163 H2157 0.930 . S
C2163 C2159 1.400 . S
C2163 C2162 1.385 . S
C2164 C2162 1.478 . S
C2164 C2166 1.381 . S
C2164 C2170 1.383 . S
C2165 C2161 1.495 . S
C2165 H2171 0.959 . S
C2165 H2172 0.961 . S
C2165 H2173 0.960 . S
C2166 C2164 1.381 . S
C2166 C2167 1.394 . S
C2166 H2174 0.930 . S
C2167 C2166 1.394 . S
C2167 C2168 1.383 . S
C2167 H2175 0.929 . S
C2168 C2167 1.383 . S
C2168 C2169 1.377 . S
C2169 H2153 0.930 . S
C2169 C2168 1.377 . S
C2169 C2170 1.379 . S
C2170 H2154 0.931 . S
C2170 C2164 1.383 . S
C2170 C2169 1.379 . S
H2171 C2165 0.959 . S
H2172 C2165 0.961 . S
H2173 C2165 0.960 . S
H2174 C2166 0.930 . S
H2175 C2167 0.929 . S
H2176 C2184 0.929 . S
H2177 C2186 0.930 . S
H2178 C2188 0.930 . S
H2179 C2191 0.929 . S
H2180 C2194 0.930 . S
H2181 C2196 0.960 . S
H2182 C2196 0.960 . S
H2183 C2196 0.960 . S
C2184 H2176 0.929 . S
C2184 C2185 1.377 . S
C2184 C2186 1.384 . S
C2185 C2184 1.377 . S
C2185 C2191 1.390 . S
C2186 H2177 0.930 . S
C2186 C2184 1.384 . S
C2186 C2187 1.372 . S
C2187 C2186 1.372 . S
C2187 C2188 1.400 . S
C2187 C2192 1.490 . S
C2188 H2178 0.930 . S
C2188 C2187 1.400 . S
C2188 C2191 1.386 . S
H2189 C2205 0.930 . S
H2190 C2206 0.931 . S
C2191 H2179 0.929 . S
C2191 C2185 1.390 . S
C2191 C2188 1.386 . S
C2192 C2187 1.490 . S
C2192 C2194 1.395 . S
C2192 C2195 1.403 . S
H2193 C2199 0.930 . S
C2194 H2180 0.930 . S
C2194 C2192 1.395 . S
C2194 C2197 1.403 . S
C2195 C2192 1.403 . S
C2195 C2196 1.524 . S
C2195 C2199 1.400 . S
C2196 H2181 0.960 . S
C2196 H2182 0.960 . S
C2196 H2183 0.960 . S
C2196 C2195 1.524 . S
C2197 C2194 1.403 . S
C2197 C2198 1.392 . S
C2197 C2201 1.495 . S
C2198 C2197 1.392 . S
C2198 C2199 1.385 . S
C2198 C2200 1.478 . S
C2199 H2193 0.930 . S
C2199 C2195 1.400 . S
C2199 C2198 1.385 . S
C2200 C2198 1.478 . S
C2200 C2202 1.381 . S
C2200 C2206 1.383 . S
C2201 C2197 1.495 . S
C2201 H2207 0.959 . S
C2201 H2208 0.961 . S
C2201 H2209 0.960 . S
C2202 C2200 1.381 . S
C2202 C2203 1.394 . S
C2202 H2210 0.930 . S
C2203 C2202 1.394 . S
C2203 C2204 1.383 . S
C2203 H2211 0.929 . S
C2204 C2203 1.383 . S
C2204 C2205 1.377 . S
C2205 H2189 0.930 . S
C2205 C2204 1.377 . S
C2205 C2206 1.379 . S
C2206 H2190 0.931 . S
C2206 C2200 1.383 . S
C2206 C2205 1.379 . S
H2207 C2201 0.959 . S
H2208 C2201 0.961 . S
H2209 C2201 0.960 . S
H2210 C2202 0.930 . S
H2211 C2203 0.929 . S
H2212 C2220 0.929 . S
H2213 C2222 0.930 . S
H2214 C2224 0.930 . S
H2215 C2227 0.929 . S
H2216 C2230 0.930 . S
H2217 C2232 0.960 . S
H2218 C2232 0.960 . S
H2219 C2232 0.960 . S
C2220 H2212 0.929 . S
C2220 C2221 1.377 . S
C2220 C2222 1.384 . S
C2221 C2220 1.377 . S
C2221 C2227 1.390 . S
C2222 H2213 0.930 . S
C2222 C2220 1.384 . S
C2222 C2223 1.372 . S
C2223 C2222 1.372 . S
C2223 C2224 1.400 . S
C2223 C2228 1.490 . S
C2224 H2214 0.930 . S
C2224 C2223 1.400 . S
C2224 C2227 1.386 . S
H2225 C2241 0.930 . S
H2226 C2242 0.931 . S
C2227 H2215 0.929 . S
C2227 C2221 1.390 . S
C2227 C2224 1.386 . S
C2228 C2223 1.490 . S
C2228 C2230 1.395 . S
C2228 C2231 1.403 . S
H2229 C2235 0.930 . S
C2230 H2216 0.930 . S
C2230 C2228 1.395 . S
C2230 C2233 1.403 . S
C2231 C2228 1.403 . S
C2231 C2232 1.524 . S
C2231 C2235 1.400 . S
C2232 H2217 0.960 . S
C2232 H2218 0.960 . S
C2232 H2219 0.960 . S
C2232 C2231 1.524 . S
C2233 C2230 1.403 . S
C2233 C2234 1.392 . S
C2233 C2237 1.495 . S
C2234 C2233 1.392 . S
C2234 C2235 1.385 . S
C2234 C2236 1.478 . S
C2235 H2229 0.930 . S
C2235 C2231 1.400 . S
C2235 C2234 1.385 . S
C2236 C2234 1.478 . S
C2236 C2238 1.381 . S
C2236 C2242 1.383 . S
C2237 C2233 1.495 . S
C2237 H2243 0.959 . S
C2237 H2244 0.961 . S
C2237 H2245 0.960 . S
C2238 C2236 1.381 . S
C2238 C2239 1.394 1_556 S
C2238 H2246 0.930 . S
C2239 C2238 1.394 1_554 S
C2239 C2240 1.383 . S
C2239 H2247 0.929 . S
C2240 C2239 1.383 . S
C2240 C2241 1.377 . S
C2241 H2225 0.930 . S
C2241 C2240 1.377 . S
C2241 C2242 1.379 1_554 S
C2242 H2226 0.931 . S
C2242 C2236 1.383 . S
C2242 C2241 1.379 1_556 S
H2243 C2237 0.959 . S
H2244 C2237 0.961 . S
H2245 C2237 0.960 . S
H2246 C2238 0.930 . S
H2247 C2239 0.929 . S
H2248 C2256 0.929 1_556 S
H2249 C2258 0.930 . S
H2250 C2260 0.930 . S
H2251 C2263 0.929 . S
H2252 C2266 0.930 . S
H2253 C2268 0.960 . S
H2254 C2268 0.960 . S
H2255 C2268 0.960 . S
C2256 H2248 0.929 1_554 S
C2256 C2257 1.378 1_554 S
C2256 C2258 1.384 . S
C2257 C2256 1.378 1_556 S
C2257 C2263 1.390 . S
C2258 H2249 0.930 . S
C2258 C2256 1.384 . S
C2258 C2259 1.372 . S
C2259 C2258 1.372 . S
C2259 C2260 1.400 . S
C2259 C2264 1.490 . S
C2260 H2250 0.930 . S
C2260 C2259 1.400 . S
C2260 C2263 1.386 1_554 S
H2261 C2277 0.930 . S
H2262 C2278 0.931 . S
C2263 H2251 0.929 . S
C2263 C2257 1.390 . S
C2263 C2260 1.386 1_556 S
C2264 C2259 1.490 . S
C2264 C2266 1.395 . S
C2264 C2267 1.403 . S
H2265 C2271 0.930 . S
C2266 H2252 0.930 . S
C2266 C2264 1.395 . S
C2266 C2269 1.403 . S
C2267 C2264 1.403 . S
C2267 C2268 1.524 . S
C2267 C2271 1.400 . S
C2268 H2253 0.960 . S
C2268 H2254 0.960 . S
C2268 H2255 0.960 . S
C2268 C2267 1.524 . S
C2269 C2266 1.403 . S
C2269 C2270 1.392 . S
C2269 C2273 1.495 . S
C2270 C2269 1.392 . S
C2270 C2271 1.385 . S
C2270 C2272 1.478 . S
C2271 H2265 0.930 . S
C2271 C2267 1.400 . S
C2271 C2270 1.385 . S
C2272 C2270 1.478 . S
C2272 C2274 1.381 . S
C2272 C2278 1.383 . S
C2273 C2269 1.495 . S
C2273 H2279 0.959 . S
C2273 H2280 0.961 . S
C2273 H2281 0.960 . S
C2274 C2272 1.381 . S
C2274 C2275 1.394 . S
C2274 H2282 0.930 . S
C2275 C2274 1.394 . S
C2275 C2276 1.383 . S
C2275 H2283 0.929 . S
C2276 C2275 1.383 . S
C2276 C2277 1.377 . S
C2277 H2261 0.930 . S
C2277 C2276 1.377 . S
C2277 C2278 1.379 . S
C2278 H2262 0.931 . S
C2278 C2272 1.383 . S
C2278 C2277 1.379 . S
H2279 C2273 0.959 . S
H2280 C2273 0.961 . S
H2281 C2273 0.960 . S
H2282 C2274 0.930 . S
H2283 C2275 0.929 . S
H2284 C2292 0.929 . S
H2285 C2294 0.930 . S
H2286 C2296 0.930 . S
H2287 C2299 0.929 . S
H2288 C2302 0.930 . S
H2289 C2304 0.960 . S
H2290 C2304 0.960 . S
H2291 C2304 0.960 . S
C2292 H2284 0.929 . S
C2292 C2293 1.377 . S
C2292 C2294 1.384 . S
C2293 C2292 1.377 . S
C2293 C2299 1.390 . S
C2294 H2285 0.930 . S
C2294 C2292 1.384 . S
C2294 C2295 1.372 . S
C2295 C2294 1.372 . S
C2295 C2296 1.400 . S
C2295 C2300 1.490 . S
C2296 H2286 0.930 . S
C2296 C2295 1.400 . S
C2296 C2299 1.386 . S
H2297 C2313 0.930 . S
H2298 C2314 0.931 . S
C2299 H2287 0.929 . S
C2299 C2293 1.390 . S
C2299 C2296 1.386 . S
C2300 C2295 1.490 . S
C2300 C2302 1.395 . S
C2300 C2303 1.403 . S
H2301 C2307 0.930 . S
C2302 H2288 0.930 . S
C2302 C2300 1.395 . S
C2302 C2305 1.403 . S
C2303 C2300 1.403 . S
C2303 C2304 1.524 . S
C2303 C2307 1.400 . S
C2304 H2289 0.960 . S
C2304 H2290 0.960 . S
C2304 H2291 0.960 . S
C2304 C2303 1.524 . S
C2305 C2302 1.403 . S
C2305 C2306 1.392 . S
C2305 C2309 1.495 . S
C2306 C2305 1.392 . S
C2306 C2307 1.385 . S
C2306 C2308 1.478 . S
C2307 H2301 0.930 . S
C2307 C2303 1.400 . S
C2307 C2306 1.385 . S
C2308 C2306 1.478 . S
C2308 C2310 1.381 . S
C2308 C2314 1.383 . S
C2309 C2305 1.495 . S
C2309 H2315 0.959 . S
C2309 H2316 0.961 . S
C2309 H2317 0.960 . S
C2310 C2308 1.381 . S
C2310 C2311 1.394 . S
C2310 H2318 0.930 . S
C2311 C2310 1.394 . S
C2311 C2312 1.383 . S
C2311 H2319 0.929 . S
C2312 C2311 1.383 . S
C2312 C2313 1.377 . S
C2313 H2297 0.930 . S
C2313 C2312 1.377 . S
C2313 C2314 1.379 . S
C2314 H2298 0.931 . S
C2314 C2308 1.383 . S
C2314 C2313 1.379 . S
H2315 C2309 0.959 . S
H2316 C2309 0.961 . S
H2317 C2309 0.960 . S
H2318 C2310 0.930 . S
H2319 C2311 0.929 . S
H2320 C2328 0.929 . S
H2321 C2330 0.930 . S
H2322 C2332 0.930 . S
H2323 C2335 0.929 . S
H2324 C2338 0.930 . S
H2325 C2340 0.960 . S
H2326 C2340 0.960 . S
H2327 C2340 0.960 . S
C2328 H2320 0.929 . S
C2328 C2329 1.377 . S
C2328 C2330 1.384 . S
C2329 C2328 1.377 . S
C2329 C2335 1.390 . S
C2330 H2321 0.930 . S
C2330 C2328 1.384 . S
C2330 C2331 1.372 . S
C2331 C2330 1.372 . S
C2331 C2332 1.400 . S
C2331 C2336 1.490 . S
C2332 H2322 0.930 . S
C2332 C2331 1.400 . S
C2332 C2335 1.386 . S
H2333 C2349 0.930 . S
H2334 C2350 0.931 . S
C2335 H2323 0.929 . S
C2335 C2329 1.390 . S
C2335 C2332 1.386 . S
C2336 C2331 1.490 . S
C2336 C2338 1.395 . S
C2336 C2339 1.403 . S
H2337 C2343 0.930 . S
C2338 H2324 0.930 . S
C2338 C2336 1.395 . S
C2338 C2341 1.403 . S
C2339 C2336 1.403 . S
C2339 C2340 1.524 . S
C2339 C2343 1.400 . S
C2340 H2325 0.960 . S
C2340 H2326 0.960 . S
C2340 H2327 0.960 . S
C2340 C2339 1.524 . S
C2341 C2338 1.403 . S
C2341 C2342 1.392 . S
C2341 C2345 1.495 . S
C2342 C2341 1.392 . S
C2342 C2343 1.385 . S
C2342 C2344 1.478 . S
C2343 H2337 0.930 . S
C2343 C2339 1.400 . S
C2343 C2342 1.385 . S
C2344 C2342 1.478 . S
C2344 C2346 1.381 . S
C2344 C2350 1.383 . S
C2345 C2341 1.495 . S
C2345 H2351 0.959 . S
C2345 H2352 0.961 . S
C2345 H2353 0.960 . S
C2346 C2344 1.381 . S
C2346 C2347 1.394 . S
C2346 H2354 0.930 . S
C2347 C2346 1.394 . S
C2347 C2348 1.383 . S
C2347 H2355 0.929 . S
C2348 C2347 1.383 . S
C2348 C2349 1.377 . S
C2349 H2333 0.930 . S
C2349 C2348 1.377 . S
C2349 C2350 1.379 . S
C2350 H2334 0.931 . S
C2350 C2344 1.383 . S
C2350 C2349 1.379 . S
H2351 C2345 0.959 . S
H2352 C2345 0.961 . S
H2353 C2345 0.960 . S
H2354 C2346 0.930 . S
H2355 C2347 0.929 . S
H2356 C2364 0.929 . S
H2357 C2366 0.930 . S
H2358 C2368 0.930 . S
H2359 C2371 0.929 . S
H2360 C2374 0.930 . S
H2361 C2376 0.960 . S
H2362 C2376 0.960 . S
H2363 C2376 0.960 . S
C2364 H2356 0.929 . S
C2364 C2365 1.377 . S
C2364 C2366 1.384 1_556 S
C2365 C2364 1.377 . S
C2365 C2371 1.390 . S
C2366 H2357 0.930 . S
C2366 C2364 1.384 1_554 S
C2366 C2367 1.372 . S
C2367 C2366 1.372 . S
C2367 C2368 1.400 . S
C2367 C2372 1.490 . S
C2368 H2358 0.930 . S
C2368 C2367 1.400 . S
C2368 C2371 1.386 1_554 S
H2369 C2385 0.930 . S
H2370 C2386 0.931 . S
C2371 H2359 0.929 . S
C2371 C2365 1.390 . S
C2371 C2368 1.386 1_556 S
C2372 C2367 1.490 . S
C2372 C2374 1.395 . S
C2372 C2375 1.403 . S
H2373 C2379 0.930 . S
C2374 H2360 0.930 . S
C2374 C2372 1.395 . S
C2374 C2377 1.403 . S
C2375 C2372 1.403 . S
C2375 C2376 1.524 . S
C2375 C2379 1.400 . S
C2376 H2361 0.960 . S
C2376 H2362 0.960 . S
C2376 H2363 0.960 . S
C2376 C2375 1.524 . S
C2377 C2374 1.403 . S
C2377 C2378 1.392 . S
C2377 C2381 1.495 . S
C2378 C2377 1.392 . S
C2378 C2379 1.385 . S
C2378 C2380 1.478 . S
C2379 H2373 0.930 . S
C2379 C2375 1.400 . S
C2379 C2378 1.385 . S
C2380 C2378 1.478 . S
C2380 C2382 1.381 . S
C2380 C2386 1.383 . S
C2381 C2377 1.495 . S
C2381 H2387 0.959 . S
C2381 H2388 0.961 . S
C2381 H2389 0.960 . S
C2382 C2380 1.381 . S
C2382 C2383 1.394 . S
C2382 H2390 0.930 . S
C2383 C2382 1.394 . S
C2383 C2384 1.383 . S
C2383 H2391 0.929 . S
C2384 C2383 1.383 . S
C2384 C2385 1.377 . S
C2385 H2369 0.930 . S
C2385 C2384 1.377 . S
C2385 C2386 1.379 . S
C2386 H2370 0.931 . S
C2386 C2380 1.383 . S
C2386 C2385 1.379 . S
H2387 C2381 0.959 . S
H2388 C2381 0.961 . S
H2389 C2381 0.960 . S
H2390 C2382 0.930 . S
H2391 C2383 0.929 . S
H2392 C2400 0.929 . S
H2393 C2402 0.930 . S
H2394 C2404 0.930 . S
H2395 C2407 0.929 . S
H2396 C2410 0.930 . S
H2397 C2412 0.960 . S
H2398 C2412 0.960 . S
H2399 C2412 0.960 . S
C2400 H2392 0.929 . S
C2400 C2401 1.377 . S
C2400 C2402 1.384 . S
C2401 C2400 1.377 . S
C2401 C2407 1.390 . S
C2402 H2393 0.930 . S
C2402 C2400 1.384 . S
C2402 C2403 1.372 . S
C2403 C2402 1.372 . S
C2403 C2404 1.400 . S
C2403 C2408 1.490 . S
C2404 H2394 0.930 . S
C2404 C2403 1.400 . S
C2404 C2407 1.386 . S
H2405 C2421 0.930 . S
H2406 C2422 0.931 . S
C2407 H2395 0.929 . S
C2407 C2401 1.390 . S
C2407 C2404 1.386 . S
C2408 C2403 1.490 . S
C2408 C2410 1.395 . S
C2408 C2411 1.403 . S
H2409 C2415 0.930 . S
C2410 H2396 0.930 . S
C2410 C2408 1.395 . S
C2410 C2413 1.403 . S
C2411 C2408 1.403 . S
C2411 C2412 1.524 . S
C2411 C2415 1.400 . S
C2412 H2397 0.960 . S
C2412 H2398 0.960 . S
C2412 H2399 0.960 . S
C2412 C2411 1.524 . S
C2413 C2410 1.403 . S
C2413 C2414 1.392 . S
C2413 C2417 1.495 . S
C2414 C2413 1.392 . S
C2414 C2415 1.385 . S
C2414 C2416 1.478 . S
C2415 H2409 0.930 . S
C2415 C2411 1.400 . S
C2415 C2414 1.385 . S
C2416 C2414 1.478 . S
C2416 C2418 1.381 . S
C2416 C2422 1.383 . S
C2417 C2413 1.495 . S
C2417 H2423 0.959 . S
C2417 H2424 0.961 . S
C2417 H2425 0.960 . S
C2418 C2416 1.381 . S
C2418 C2419 1.394 1_556 S
C2418 H2426 0.930 . S
C2419 C2418 1.394 1_554 S
C2419 C2420 1.383 . S
C2419 H2427 0.929 . S
C2420 C2419 1.383 . S
C2420 C2421 1.377 . S
C2421 H2405 0.930 . S
C2421 C2420 1.377 . S
C2421 C2422 1.379 1_554 S
C2422 H2406 0.931 . S
C2422 C2416 1.383 . S
C2422 C2421 1.379 1_556 S
H2423 C2417 0.959 . S
H2424 C2417 0.961 . S
H2425 C2417 0.960 . S
H2426 C2418 0.930 . S
H2427 C2419 0.929 . S
H2428 C2436 0.929 . S
H2429 C2438 0.930 . S
H2430 C2440 0.930 . S
H2431 C2443 0.929 . S
H2432 C2446 0.930 . S
H2433 C2448 0.960 . S
H2434 C2448 0.960 . S
H2435 C2448 0.960 . S
C2436 H2428 0.929 . S
C2436 C2437 1.377 . S
C2436 C2438 1.384 . S
C2437 C2436 1.377 . S
C2437 C2443 1.390 . S
C2438 H2429 0.930 . S
C2438 C2436 1.384 . S
C2438 C2439 1.372 . S
C2439 C2438 1.372 . S
C2439 C2440 1.400 . S
C2439 C2444 1.490 . S
C2440 H2430 0.930 . S
C2440 C2439 1.400 . S
C2440 C2443 1.386 . S
H2441 C2457 0.930 . S
H2442 C2458 0.931 . S
C2443 H2431 0.929 . S
C2443 C2437 1.390 . S
C2443 C2440 1.386 . S
C2444 C2439 1.490 . S
C2444 C2446 1.395 . S
C2444 C2447 1.403 . S
H2445 C2451 0.930 . S
C2446 H2432 0.930 . S
C2446 C2444 1.395 . S
C2446 C2449 1.403 . S
C2447 C2444 1.403 . S
C2447 C2448 1.524 . S
C2447 C2451 1.400 . S
C2448 H2433 0.960 . S
C2448 H2434 0.960 . S
C2448 H2435 0.960 . S
C2448 C2447 1.524 . S
C2449 C2446 1.403 . S
C2449 C2450 1.392 . S
C2449 C2453 1.495 . S
C2450 C2449 1.392 . S
C2450 C2451 1.385 . S
C2450 C2452 1.478 . S
C2451 H2445 0.930 . S
C2451 C2447 1.400 . S
C2451 C2450 1.385 . S
C2452 C2450 1.478 . S
C2452 C2454 1.381 . S
C2452 C2458 1.383 . S
C2453 C2449 1.495 . S
C2453 H2459 0.959 . S
C2453 H2460 0.961 . S
C2453 H2461 0.960 . S
C2454 C2452 1.381 . S
C2454 C2455 1.394 . S
C2454 H2462 0.930 . S
C2455 C2454 1.394 . S
C2455 C2456 1.383 . S
C2455 H2463 0.929 . S
C2456 C2455 1.383 . S
C2456 C2457 1.377 . S
C2457 H2441 0.930 . S
C2457 C2456 1.377 . S
C2457 C2458 1.379 . S
C2458 H2442 0.931 . S
C2458 C2452 1.383 . S
C2458 C2457 1.379 . S
H2459 C2453 0.959 . S
H2460 C2453 0.961 . S
H2461 C2453 0.960 . S
H2462 C2454 0.930 . S
H2463 C2455 0.929 . S
H2464 C2472 0.930 1_556 S
H2465 C2474 0.930 . S
H2466 C2476 0.930 . S
H2467 C2479 0.929 . S
H2468 C2482 0.930 . S
H2469 C2484 0.960 . S
H2470 C2484 0.960 . S
H2471 C2484 0.960 . S
C2472 H2464 0.930 1_554 S
C2472 C2473 1.379 1_554 S
C2472 C2474 1.381 . S
C2473 C2472 1.379 1_556 S
C2473 C2479 1.390 . S
C2474 H2465 0.930 . S
C2474 C2472 1.381 . S
C2474 C2475 1.372 . S
C2475 C2474 1.372 . S
C2475 C2476 1.400 . S
C2475 C2480 1.490 . S
C2476 H2466 0.930 . S
C2476 C2475 1.400 . S
C2476 C2479 1.386 1_554 S
H2477 C2493 0.930 . S
H2478 C2494 0.931 . S
C2479 H2467 0.929 . S
C2479 C2473 1.390 . S
C2479 C2476 1.386 1_556 S
C2480 C2475 1.490 . S
C2480 C2482 1.395 . S
C2480 C2483 1.403 . S
H2481 C2487 0.930 . S
C2482 H2468 0.930 . S
C2482 C2480 1.395 . S
C2482 C2485 1.403 . S
C2483 C2480 1.403 . S
C2483 C2484 1.524 . S
C2483 C2487 1.400 . S
C2484 H2469 0.960 . S
C2484 H2470 0.960 . S
C2484 H2471 0.960 . S
C2484 C2483 1.524 . S
C2485 C2482 1.403 . S
C2485 C2486 1.392 . S
C2485 C2489 1.495 . S
C2486 C2485 1.392 . S
C2486 C2487 1.385 . S
C2486 C2488 1.478 . S
C2487 H2481 0.930 . S
C2487 C2483 1.400 . S
C2487 C2486 1.385 . S
C2488 C2486 1.478 . S
C2488 C2490 1.381 . S
C2488 C2494 1.383 . S
C2489 C2485 1.495 . S
C2489 H2495 0.959 . S
C2489 H2496 0.961 . S
C2489 H2497 0.960 . S
C2490 C2488 1.381 . S
C2490 C2491 1.394 . S
C2490 H2498 0.930 . S
C2491 C2490 1.394 . S
C2491 C2492 1.383 . S
C2491 H2499 0.929 . S
C2492 C2491 1.383 . S
C2492 C2493 1.377 . S
C2493 H2477 0.930 . S
C2493 C2492 1.377 . S
C2493 C2494 1.379 . S
C2494 H2478 0.931 . S
C2494 C2488 1.383 . S
C2494 C2493 1.379 . S
H2495 C2489 0.959 . S
H2496 C2489 0.961 . S
H2497 C2489 0.960 . S
H2498 C2490 0.930 . S
H2499 C2491 0.929 . S
H2500 C2508 0.929 . S
H2501 C2510 0.930 . S
H2502 C2512 0.930 . S
H2503 C2515 0.929 . S
H2504 C2518 0.930 . S
H2505 C2520 0.960 . S
H2506 C2520 0.960 . S
H2507 C2520 0.960 . S
C2508 H2500 0.929 . S
C2508 C2509 1.377 . S
C2508 C2510 1.384 . S
C2509 C2508 1.377 . S
C2509 C2515 1.390 . S
C2510 H2501 0.930 . S
C2510 C2508 1.384 . S
C2510 C2511 1.372 . S
C2511 C2510 1.372 . S
C2511 C2512 1.400 . S
C2511 C2516 1.490 . S
C2512 H2502 0.930 . S
C2512 C2511 1.400 . S
C2512 C2515 1.386 . S
H2513 C2529 0.930 . S
H2514 C2530 0.931 . S
C2515 H2503 0.929 . S
C2515 C2509 1.390 . S
C2515 C2512 1.386 . S
C2516 C2511 1.490 . S
C2516 C2518 1.395 . S
C2516 C2519 1.403 . S
H2517 C2523 0.930 . S
C2518 H2504 0.930 . S
C2518 C2516 1.395 . S
C2518 C2521 1.403 . S
C2519 C2516 1.403 . S
C2519 C2520 1.524 . S
C2519 C2523 1.400 . S
C2520 H2505 0.960 . S
C2520 H2506 0.960 . S
C2520 H2507 0.960 . S
C2520 C2519 1.524 . S
C2521 C2518 1.403 . S
C2521 C2522 1.392 . S
C2521 C2525 1.495 . S
C2522 C2521 1.392 . S
C2522 C2523 1.385 . S
C2522 C2524 1.478 . S
C2523 H2517 0.930 . S
C2523 C2519 1.400 . S
C2523 C2522 1.385 . S
C2524 C2522 1.478 . S
C2524 C2526 1.381 . S
C2524 C2530 1.383 . S
C2525 C2521 1.495 . S
C2525 H2531 0.959 . S
C2525 H2532 0.961 . S
C2525 H2533 0.960 . S
C2526 C2524 1.381 . S
C2526 C2527 1.394 . S
C2526 H2534 0.930 . S
C2527 C2526 1.394 . S
C2527 C2528 1.383 . S
C2527 H2535 0.929 . S
C2528 C2527 1.383 . S
C2528 C2529 1.377 . S
C2529 H2513 0.930 . S
C2529 C2528 1.377 . S
C2529 C2530 1.379 . S
C2530 H2514 0.931 . S
C2530 C2524 1.383 . S
C2530 C2529 1.379 . S
H2531 C2525 0.959 . S
H2532 C2525 0.961 . S
H2533 C2525 0.960 . S
H2534 C2526 0.930 . S
H2535 C2527 0.929 . S
H2536 C2544 0.929 . S
H2537 C2546 0.930 . S
H2538 C2548 0.930 . S
H2539 C2551 0.929 . S
H2540 C2554 0.930 . S
H2541 C2556 0.960 . S
H2542 C2556 0.960 . S
H2543 C2556 0.960 . S
C2544 H2536 0.929 . S
C2544 C2545 1.377 . S
C2544 C2546 1.384 . S
C2545 C2544 1.377 . S
C2545 C2551 1.390 . S
C2546 H2537 0.930 . S
C2546 C2544 1.384 . S
C2546 C2547 1.372 . S
C2547 C2546 1.372 . S
C2547 C2548 1.400 . S
C2547 C2552 1.490 . S
C2548 H2538 0.930 . S
C2548 C2547 1.400 . S
C2548 C2551 1.386 . S
H2549 C2565 0.930 . S
H2550 C2566 0.931 . S
C2551 H2539 0.929 . S
C2551 C2545 1.390 . S
C2551 C2548 1.386 . S
C2552 C2547 1.490 . S
C2552 C2554 1.395 . S
C2552 C2555 1.403 . S
H2553 C2559 0.930 . S
C2554 H2540 0.930 . S
C2554 C2552 1.395 . S
C2554 C2557 1.403 . S
C2555 C2552 1.403 . S
C2555 C2556 1.524 . S
C2555 C2559 1.400 . S
C2556 H2541 0.960 . S
C2556 H2542 0.960 . S
C2556 H2543 0.960 . S
C2556 C2555 1.524 . S
C2557 C2554 1.403 . S
C2557 C2558 1.392 . S
C2557 C2561 1.495 . S
C2558 C2557 1.392 . S
C2558 C2559 1.385 . S
C2558 C2560 1.478 . S
C2559 H2553 0.930 . S
C2559 C2555 1.400 . S
C2559 C2558 1.385 . S
C2560 C2558 1.478 . S
C2560 C2562 1.381 . S
C2560 C2566 1.383 . S
C2561 C2557 1.495 . S
C2561 H2567 0.959 . S
C2561 H2568 0.961 . S
C2561 H2569 0.960 . S
C2562 C2560 1.381 . S
C2562 C2563 1.394 . S
C2562 H2570 0.930 . S
C2563 C2562 1.394 . S
C2563 C2564 1.383 . S
C2563 H2571 0.929 . S
C2564 C2563 1.383 . S
C2564 C2565 1.377 . S
C2565 H2549 0.930 . S
C2565 C2564 1.377 . S
C2565 C2566 1.379 . S
C2566 H2550 0.931 . S
C2566 C2560 1.383 . S
C2566 C2565 1.379 . S
H2567 C2561 0.959 . S
H2568 C2561 0.961 . S
H2569 C2561 0.960 . S
H2570 C2562 0.930 . S
H2571 C2563 0.929 . S
H2572 C2580 0.929 . S
H2573 C2582 0.930 . S
H2574 C2584 0.930 . S
H2575 C2587 0.929 . S
H2576 C2590 0.930 . S
H2577 C2592 0.960 . S
H2578 C2592 0.960 . S
H2579 C2592 0.960 . S
C2580 H2572 0.929 . S
C2580 C2581 1.377 . S
C2580 C2582 1.384 1_554 S
C2581 C2580 1.377 . S
C2581 C2587 1.390 . S
C2582 H2573 0.930 . S
C2582 C2580 1.384 1_556 S
C2582 C2583 1.372 . S
C2583 C2582 1.372 . S
C2583 C2584 1.400 . S
C2583 C2588 1.490 . S
C2584 H2574 0.930 . S
C2584 C2583 1.400 . S
C2584 C2587 1.386 1_556 S
H2585 C2601 0.930 . S
H2586 C2602 0.931 . S
C2587 H2575 0.929 . S
C2587 C2581 1.390 . S
C2587 C2584 1.386 1_554 S
C2588 C2583 1.490 . S
C2588 C2590 1.395 . S
C2588 C2591 1.403 . S
H2589 C2595 0.930 . S
C2590 H2576 0.930 . S
C2590 C2588 1.395 . S
C2590 C2593 1.403 . S
C2591 C2588 1.403 . S
C2591 C2592 1.524 . S
C2591 C2595 1.400 . S
C2592 H2577 0.960 . S
C2592 H2578 0.960 . S
C2592 H2579 0.960 . S
C2592 C2591 1.524 . S
C2593 C2590 1.403 . S
C2593 C2594 1.392 . S
C2593 C2597 1.495 . S
C2594 C2593 1.392 . S
C2594 C2595 1.385 . S
C2594 C2596 1.478 . S
C2595 H2589 0.930 . S
C2595 C2591 1.400 . S
C2595 C2594 1.385 . S
C2596 C2594 1.478 . S
C2596 C2598 1.381 . S
C2596 C2602 1.383 . S
C2597 C2593 1.495 . S
C2597 H2603 0.959 . S
C2597 H2604 0.961 . S
C2597 H2605 0.960 . S
C2598 C2596 1.381 . S
C2598 C2599 1.394 . S
C2598 H2606 0.930 . S
C2599 C2598 1.394 . S
C2599 C2600 1.383 . S
C2599 H2607 0.929 . S
C2600 C2599 1.383 . S
C2600 C2601 1.377 . S
C2601 H2585 0.930 . S
C2601 C2600 1.377 . S
C2601 C2602 1.379 . S
C2602 H2586 0.931 . S
C2602 C2596 1.383 . S
C2602 C2601 1.379 . S
H2603 C2597 0.959 . S
H2604 C2597 0.961 . S
H2605 C2597 0.960 . S
H2606 C2598 0.930 . S
H2607 C2599 0.929 . S
H2608 C2616 0.929 . S
H2609 C2618 0.930 . S
H2610 C2620 0.930 . S
H2611 C2623 0.929 . S
H2612 C2626 0.930 . S
H2613 C2628 0.960 . S
H2614 C2628 0.960 . S
H2615 C2628 0.960 . S
C2616 H2608 0.929 . S
C2616 C2617 1.377 . S
C2616 C2618 1.384 . S
C2617 C2616 1.377 . S
C2617 C2623 1.390 . S
C2618 H2609 0.930 . S
C2618 C2616 1.384 . S
C2618 C2619 1.372 . S
C2619 C2618 1.372 . S
C2619 C2620 1.400 . S
C2619 C2624 1.490 . S
C2620 H2610 0.930 . S
C2620 C2619 1.400 . S
C2620 C2623 1.386 . S
H2621 C2637 0.923 1_554 S
H2622 C2638 0.931 . S
C2623 H2611 0.929 . S
C2623 C2617 1.390 . S
C2623 C2620 1.386 . S
C2624 C2619 1.490 . S
C2624 C2626 1.395 . S
C2624 C2627 1.403 . S
H2625 C2631 0.930 . S
C2626 H2612 0.930 . S
C2626 C2624 1.395 . S
C2626 C2629 1.403 . S
C2627 C2624 1.403 . S
C2627 C2628 1.524 . S
C2627 C2631 1.400 . S
C2628 H2613 0.960 . S
C2628 H2614 0.960 . S
C2628 H2615 0.960 . S
C2628 C2627 1.524 . S
C2629 C2626 1.403 . S
C2629 C2630 1.392 . S
C2629 C2633 1.495 . S
C2630 C2629 1.392 . S
C2630 C2631 1.385 . S
C2630 C2632 1.478 . S
C2631 H2625 0.930 . S
C2631 C2627 1.400 . S
C2631 C2630 1.385 . S
C2632 C2630 1.478 . S
C2632 C2634 1.381 . S
C2632 C2638 1.383 . S
C2633 C2629 1.495 . S
C2633 H2639 0.959 . S
C2633 H2640 0.961 . S
C2633 H2641 0.960 . S
C2634 C2632 1.381 . S
C2634 C2635 1.394 1_556 S
C2634 H2642 0.930 . S
C2635 C2634 1.394 1_554 S
C2635 C2636 1.383 . S
C2635 H2643 0.929 . S
C2636 C2635 1.383 . S
C2636 C2637 1.365 1_554 S
C2637 H2621 0.923 1_556 S
C2637 C2636 1.365 1_556 S
C2637 C2638 1.397 . S
C2638 H2622 0.931 . S
C2638 C2632 1.383 . S
C2638 C2637 1.397 . S
H2639 C2633 0.959 . S
H2640 C2633 0.961 . S
H2641 C2633 0.960 . S
H2642 C2634 0.930 . S
H2643 C2635 0.929 . S
H2644 C2652 0.929 . S
H2645 C2654 0.930 . S
H2646 C2656 0.930 . S
H2647 C2659 0.929 . S
H2648 C2662 0.930 . S
H2649 C2664 0.960 . S
H2650 C2664 0.960 . S
H2651 C2664 0.960 . S
C2652 H2644 0.929 . S
C2652 C2653 1.377 . S
C2652 C2654 1.384 . S
C2653 C2652 1.377 . S
C2653 C2659 1.390 . S
C2654 H2645 0.930 . S
C2654 C2652 1.384 . S
C2654 C2655 1.372 . S
C2655 C2654 1.372 . S
C2655 C2656 1.400 . S
C2655 C2660 1.490 . S
C2656 H2646 0.930 . S
C2656 C2655 1.400 . S
C2656 C2659 1.386 . S
H2657 C2673 0.930 . S
H2658 C2674 0.931 . S
C2659 H2647 0.929 . S
C2659 C2653 1.390 . S
C2659 C2656 1.386 . S
C2660 C2655 1.490 . S
C2660 C2662 1.395 . S
C2660 C2663 1.403 . S
H2661 C2667 0.930 . S
C2662 H2648 0.930 . S
C2662 C2660 1.395 . S
C2662 C2665 1.403 . S
C2663 C2660 1.403 . S
C2663 C2664 1.524 . S
C2663 C2667 1.400 . S
C2664 H2649 0.960 . S
C2664 H2650 0.960 . S
C2664 H2651 0.960 . S
C2664 C2663 1.524 . S
C2665 C2662 1.403 . S
C2665 C2666 1.392 . S
C2665 C2669 1.495 . S
C2666 C2665 1.392 . S
C2666 C2667 1.385 . S
C2666 C2668 1.478 . S
C2667 H2661 0.930 . S
C2667 C2663 1.400 . S
C2667 C2666 1.385 . S
C2668 C2666 1.478 . S
C2668 C2670 1.381 . S
C2668 C2674 1.383 . S
C2669 C2665 1.495 . S
C2669 H2675 0.959 . S
C2669 H2676 0.961 . S
C2669 H2677 0.960 . S
C2670 C2668 1.381 . S
C2670 C2671 1.394 . S
C2670 H2678 0.930 . S
C2671 C2670 1.394 . S
C2671 C2672 1.383 . S
C2671 H2679 0.929 . S
C2672 C2671 1.383 . S
C2672 C2673 1.377 . S
C2673 H2657 0.930 . S
C2673 C2672 1.377 . S
C2673 C2674 1.379 . S
C2674 H2658 0.931 . S
C2674 C2668 1.383 . S
C2674 C2673 1.379 . S
H2675 C2669 0.959 . S
H2676 C2669 0.961 . S
H2677 C2669 0.960 . S
H2678 C2670 0.930 . S
H2679 C2671 0.929 . S
H2680 C2688 0.929 . S
H2681 C2690 0.930 . S
H2682 C2692 0.930 . S
H2683 C2695 0.929 . S
H2684 C2698 0.930 . S
H2685 C2700 0.960 . S
H2686 C2700 0.960 . S
H2687 C2700 0.960 . S
C2688 H2680 0.929 . S
C2688 C2689 1.377 . S
C2688 C2690 1.384 . S
C2689 C2688 1.377 . S
C2689 C2695 1.390 . S
C2690 H2681 0.930 . S
C2690 C2688 1.384 . S
C2690 C2691 1.372 . S
C2691 C2690 1.372 . S
C2691 C2692 1.400 . S
C2691 C2696 1.490 . S
C2692 H2682 0.930 . S
C2692 C2691 1.400 . S
C2692 C2695 1.386 . S
H2693 C2709 0.930 . S
H2694 C2710 0.931 . S
C2695 H2683 0.929 . S
C2695 C2689 1.390 . S
C2695 C2692 1.386 . S
C2696 C2691 1.490 . S
C2696 C2698 1.395 . S
C2696 C2699 1.403 . S
H2697 C2703 0.930 . S
C2698 H2684 0.930 . S
C2698 C2696 1.395 . S
C2698 C2701 1.403 . S
C2699 C2696 1.403 . S
C2699 C2700 1.524 . S
C2699 C2703 1.400 . S
C2700 H2685 0.960 . S
C2700 H2686 0.960 . S
C2700 H2687 0.960 . S
C2700 C2699 1.524 . S
C2701 C2698 1.403 . S
C2701 C2702 1.392 . S
C2701 C2705 1.495 . S
C2702 C2701 1.392 . S
C2702 C2703 1.385 . S
C2702 C2704 1.478 . S
C2703 H2697 0.930 . S
C2703 C2699 1.400 . S
C2703 C2702 1.385 . S
C2704 C2702 1.478 . S
C2704 C2706 1.381 . S
C2704 C2710 1.383 . S
C2705 C2701 1.495 . S
C2705 H2711 0.959 . S
C2705 H2712 0.961 . S
C2705 H2713 0.960 . S
C2706 C2704 1.381 . S
C2706 C2707 1.394 . S
C2706 H2714 0.930 . S
C2707 C2706 1.394 . S
C2707 C2708 1.383 . S
C2707 H2715 0.929 . S
C2708 C2707 1.383 . S
C2708 C2709 1.377 . S
C2709 H2693 0.930 . S
C2709 C2708 1.377 . S
C2709 C2710 1.379 . S
C2710 H2694 0.931 . S
C2710 C2704 1.383 . S
C2710 C2709 1.379 . S
H2711 C2705 0.959 . S
H2712 C2705 0.961 . S
H2713 C2705 0.960 . S
H2714 C2706 0.930 . S
H2715 C2707 0.929 . S
H2716 C2724 0.929 . S
H2717 C2726 0.930 . S
H2718 C2728 0.930 . S
H2719 C2731 0.929 . S
H2720 C2734 0.930 . S
H2721 C2736 0.960 . S
H2722 C2736 0.960 . S
H2723 C2736 0.960 . S
C2724 H2716 0.929 . S
C2724 C2725 1.377 . S
C2724 C2726 1.384 . S
C2725 C2724 1.377 . S
C2725 C2731 1.390 . S
C2726 H2717 0.930 . S
C2726 C2724 1.384 . S
C2726 C2727 1.372 . S
C2727 C2726 1.372 . S
C2727 C2728 1.400 . S
C2727 C2732 1.490 . S
C2728 H2718 0.930 . S
C2728 C2727 1.400 . S
C2728 C2731 1.386 . S
H2729 C2745 0.928 1_556 S
H2730 C2746 0.931 . S
C2731 H2719 0.929 . S
C2731 C2725 1.390 . S
C2731 C2728 1.386 . S
C2732 C2727 1.490 . S
C2732 C2734 1.395 . S
C2732 C2735 1.403 . S
H2733 C2739 0.930 . S
C2734 H2720 0.930 . S
C2734 C2732 1.395 . S
C2734 C2737 1.403 . S
C2735 C2732 1.403 . S
C2735 C2736 1.524 . S
C2735 C2739 1.400 . S
C2736 H2721 0.960 . S
C2736 H2722 0.960 . S
C2736 H2723 0.960 . S
C2736 C2735 1.524 . S
C2737 C2734 1.403 . S
C2737 C2738 1.392 . S
C2737 C2741 1.495 . S
C2738 C2737 1.392 . S
C2738 C2739 1.385 . S
C2738 C2740 1.478 . S
C2739 H2733 0.930 . S
C2739 C2735 1.400 . S
C2739 C2738 1.385 . S
C2740 C2738 1.478 . S
C2740 C2742 1.381 . S
C2740 C2746 1.383 . S
C2741 C2737 1.495 . S
C2741 H2747 0.959 . S
C2741 H2748 0.961 . S
C2741 H2749 0.960 . S
C2742 C2740 1.381 . S
C2742 C2743 1.394 1_554 S
C2742 H2750 0.930 . S
C2743 C2742 1.394 1_556 S
C2743 C2744 1.383 . S
C2743 H2751 0.929 . S
C2744 C2743 1.383 . S
C2744 C2745 1.373 1_556 S
C2745 H2729 0.928 1_554 S
C2745 C2744 1.373 1_554 S
C2745 C2746 1.385 . S
C2746 H2730 0.931 . S
C2746 C2740 1.383 . S
C2746 C2745 1.385 . S
H2747 C2741 0.959 . S
H2748 C2741 0.961 . S
H2749 C2741 0.960 . S
H2750 C2742 0.930 . S
H2751 C2743 0.929 . S
C457 C8 1.413 . S
C476 C64 1.401 . S
C493 C22 1.415 . S
C512 C78 1.418 . S
C529 C92 1.416 . S
C548 C36 1.407 . S
C565 C106 1.416 . S
C584 C50 1.400 . S
C601 C120 1.416 . S
C620 C176 1.424 . S
C637 C134 1.411 . S
C656 C190 1.400 . S
C673 C204 1.416 . S
C692 C148 1.422 . S
C709 C162 1.413 . S
C728 C218 1.412 . S
C745 C288 1.414 . S
C764 C232 1.398 . S
C781 C302 1.412 . S
C800 C246 1.424 . S
C817 C260 1.413 . S
C836 C316 1.424 . S
C853 C330 1.415 . S
C872 C274 1.397 . S
C889 C344 1.413 . S
C908 C400 1.405 . S
C925 C414 1.416 . S
C944 C358 1.423 . S
C961 C428 1.416 . S
C980 C372 1.419 . S
C997 C386 1.412 . S
C1016 C442 1.403 . S
C1033 C9 1.505 . S
C1052 C385 1.471 . S
C1069 C119 1.495 . S
C1088 C23 1.479 . S
C1105 C37 1.495 . S
C1124 C357 1.498 . S
C1141 C51 1.505 . S
C1160 C147 1.465 . S
C1177 C413 1.494 . S
C1196 C65 1.473 . S
C1213 C203 1.492 . S
C1232 C79 1.474 . S
C1249 C93 1.495 . S
C1268 C441 1.499 . S
C1285 C107 1.504 . S
C1304 C175 1.478 . S
C1321 C273 1.494 . S
C1340 C121 1.510 . S
C1357 C135 1.500 . S
C1376 C7 1.482 . S
C1393 C245 1.493 . S
C1412 C149 1.504 . S
C1429 C163 1.501 . S
C1448 C35 1.501 . S
C1465 C301 1.492 . S
C1484 C177 1.511 . S
C1501 C191 1.495 . S
C1520 C91 1.466 . S
C1537 C329 1.488 . S
C1556 C205 1.492 . S
C1573 C219 1.497 . S
C1592 C63 1.465 . S
C1609 C161 1.493 . S
C1628 C233 1.473 . S
C1645 C343 1.485 . S
C1664 C247 1.502 . S
C1681 C133 1.487 . S
C1700 C261 1.490 . S
C1717 C275 1.497 . S
C1736 C371 1.482 . S
C1753 C189 1.492 . S
C1772 C289 1.476 . S
C1789 C427 1.488 . S
C1808 C303 1.518 . S
C1825 C217 1.490 . S
C1844 C317 1.478 . S
C1861 C331 1.505 . S
C1880 C399 1.472 . S
C1897 C345 1.505 . S
C1916 C49 1.511 . S
C1933 C359 1.503 . S
C1952 C231 1.497 . S
C1969 C373 1.503 . S
C1988 C21 1.501 . S
C2005 C387 1.500 . S
C2024 C259 1.491 . S
C2041 C401 1.504 . S
C2060 C77 1.505 . S
C2077 C315 1.494 . S
C2096 C415 1.517 . S
C2113 C105 1.488 . S
C2132 C429 1.492 . S
C2149 C443 1.501 . S
C2168 C287 1.489 . S
C2185 C3 0.821 . S
C2204 C101 0.790 . S
C2221 C17 0.818 . S
C2240 C59 0.790 . S
C2257 C31 0.811 . S
C2276 C73 0.841 . S
C2293 C87 0.822 . S
C2312 C45 0.799 . S
C2329 C213 0.811 . S
C2348 C115 0.819 . S
C2365 C171 0.822 . S
C2384 C129 0.813 . S
C2401 C185 0.821 . S
C2420 C143 0.827 . S
C2437 C199 0.814 . S
C2456 C157 0.842 . S
C2473 C227 0.811 . S
C2492 C325 0.840 . S
C2509 C283 0.817 . S
C2528 C241 0.835 . S
C2545 C297 0.818 . S
C2564 C255 0.828 . S
C2581 C311 0.820 . S
C2600 C269 0.817 . S
C2617 C437 0.817 . S
C2636 C339 0.788 . S
C2653 C353 0.814 . S
C2672 C395 0.796 . S
C2689 C367 0.815 . S
C2708 C409 0.793 . S
C2725 C381 0.822 . S
C2744 C423 0.799 . S
