# Generated by pormake.
# Topology wiy, (3)-cn, num edge types: 1
# Building blocks:
#     Node 0, Type 0, BuildingBlock: OLANEW_clean_sbu_2, # of connection points: 3
#     Node 1, Type 0, BuildingBlock: OLANEW_clean_sbu_2, # of connection points: 3
#     Node 2, Type 0, BuildingBlock: OLANEW_clean_sbu_2, # of connection points: 3
#     Node 3, Type 0, BuildingBlock: OLANEW_clean_sbu_2, # of connection points: 3
#     Node 4, Type 0, BuildingBlock: OLANEW_clean_sbu_2, # of connection points: 3
#     Node 5, Type 0, BuildingBlock: OLANEW_clean_sbu_2, # of connection points: 3
#     Node 6, Type 0, BuildingBlock: OLANEW_clean_sbu_2, # of connection points: 3
#     Node 7, Type 0, BuildingBlock: OLANEW_clean_sbu_2, # of connection points: 3
#     Node 8, Type 0, BuildingBlock: OLANEW_clean_sbu_2, # of connection points: 3
#     Node 9, Type 0, BuildingBlock: OLANEW_clean_sbu_2, # of connection points: 3
#     Node 10, Type 0, BuildingBlock: OLANEW_clean_sbu_2, # of connection points: 3
#     Node 11, Type 0, BuildingBlock: OLANEW_clean_sbu_2, # of connection points: 3
#     Edge 12, Type (0, 0), BuildingBlock: UVAHIK_clean_linker_0, # of connection points: 2
#     Edge 13, Type (0, 0), BuildingBlock: UVAHIK_clean_linker_0, # of connection points: 2
#     Edge 14, Type (0, 0), BuildingBlock: UVAHIK_clean_linker_0, # of connection points: 2
#     Edge 15, Type (0, 0), BuildingBlock: UVAHIK_clean_linker_0, # of connection points: 2
#     Edge 16, Type (0, 0), BuildingBlock: UVAHIK_clean_linker_0, # of connection points: 2
#     Edge 17, Type (0, 0), BuildingBlock: UVAHIK_clean_linker_0, # of connection points: 2
#     Edge 18, Type (0, 0), BuildingBlock: UVAHIK_clean_linker_0, # of connection points: 2
#     Edge 19, Type (0, 0), BuildingBlock: UVAHIK_clean_linker_0, # of connection points: 2
#     Edge 20, Type (0, 0), BuildingBlock: UVAHIK_clean_linker_0, # of connection points: 2
#     Edge 21, Type (0, 0), BuildingBlock: UVAHIK_clean_linker_0, # of connection points: 2
#     Edge 22, Type (0, 0), BuildingBlock: UVAHIK_clean_linker_0, # of connection points: 2
#     Edge 23, Type (0, 0), BuildingBlock: UVAHIK_clean_linker_0, # of connection points: 2
#     Edge 24, Type (0, 0), BuildingBlock: UVAHIK_clean_linker_0, # of connection points: 2
#     Edge 25, Type (0, 0), BuildingBlock: UVAHIK_clean_linker_0, # of connection points: 2
#     Edge 26, Type (0, 0), BuildingBlock: UVAHIK_clean_linker_0, # of connection points: 2
#     Edge 27, Type (0, 0), BuildingBlock: UVAHIK_clean_linker_0, # of connection points: 2
#     Edge 28, Type (0, 0), BuildingBlock: UVAHIK_clean_linker_0, # of connection points: 2
#     Edge 29, Type (0, 0), BuildingBlock: UVAHIK_clean_linker_0, # of connection points: 2
# Relax obj value: 0.009
# Max RMSD: 0.041
# Mean RMSD: 0.031
data_MOF--net-wiy--node1-OLANEW_clean_sbu_2--edge1-UVAHIK_clean_linker_0
_symmetry_space_group_name_H-M    P1
_symmetry_Int_Tables_number       1
_symmetry_cell_setting            triclinic
loop_
_symmetry_equiv_pos_as_xyz
'x, y, z'
_cell_length_a     95.724123
_cell_length_b     95.371477
_cell_length_c     7.6956256
_cell_angle_alpha  87.179902
_cell_angle_beta   92.931867
_cell_angle_gamma 119.98109
loop_
_atom_site_label
_atom_site_type_symbol
_atom_site_fract_x
_atom_site_fract_y
_atom_site_fract_z
_atom_type_partial_charge
O0 O 0.13274 0.49454 0.20529 0.0
Cd1 Cd 0.12783 0.46789 0.12482 0.0
O2 O 0.12414 0.48619 0.47081 0.0
Cd3 Cd 0.11183 0.46089 0.39561 0.0
O4 O 0.09069 0.44111 0.26753 0.0
C5 C 0.08645 0.44468 0.12038 0.0
O6 O 0.09534 0.45935 0.05395 0.0
C7 C 0.13076 0.49765 0.35811 0.0
C8 C 0.15647 0.46679 0.13094 0.0
O9 O 0.14842 0.4639 0.26917 0.0
O10 O 0.15094 0.47016 0.98954 0.0
O11 O 0.66322 0.16244 0.69441 0.0
Cd12 Cd 0.68848 0.16238 0.66201 0.0
O13 O 0.65308 0.137 0.77397 0.0
Cd14 Cd 0.63616 0.11248 0.87055 0.0
O15 O 0.62174 0.08676 0.94159 0.0
C16 C 0.61847 0.07633 0.82674 0.0
O17 O 0.62362 0.08136 0.66834 0.0
C18 C 0.65114 0.14919 0.74369 0.0
C19 C 0.71596 0.19065 0.77011 0.0
O20 O 0.71088 0.18901 0.61092 0.0
O21 O 0.70792 0.179 0.87855 0.0
O22 O 0.49406 0.66432 0.51597 0.0
Cd23 Cd 0.5138 0.69308 0.47988 0.0
O24 O 0.51273 0.65855 0.60755 0.0
Cd25 Cd 0.52227 0.64259 0.69321 0.0
O26 O 0.53372 0.62835 0.77684 0.0
C27 C 0.53124 0.61617 0.69184 0.0
O28 O 0.52153 0.61211 0.55357 0.0
C29 C 0.49794 0.65396 0.57334 0.0
C30 C 0.51483 0.70948 0.77486 0.0
O31 O 0.50454 0.707 0.65004 0.0
O32 O 0.52483 0.70442 0.75917 0.0
O33 O 0.83875 0.51737 0.62513 0.0
Cd34 Cd 0.83492 0.54092 0.60931 0.0
O35 O 0.86047 0.53294 0.78069 0.0
Cd36 Cd 0.88307 0.53852 0.92085 0.0
O37 O 0.90731 0.54639 0.02991 0.0
C38 C 0.91552 0.54035 0.97784 0.0
O39 O 0.90907 0.52908 0.8606 0.0
C40 C 0.85103 0.51924 0.71517 0.0
C41 C 0.81297 0.53768 0.85468 0.0
O42 O 0.80871 0.53527 0.69354 0.0
O43 O 0.82756 0.54179 0.89933 0.0
O44 O 0.37605 0.87502 0.84056 0.0
Cd45 Cd 0.35334 0.87922 0.75886 0.0
O46 O 0.37709 0.88243 0.10942 0.0
Cd47 Cd 0.3639 0.89507 0.0332 0.0
O48 O 0.36455 0.91672 0.91568 0.0
C49 C 0.37301 0.92247 0.78107 0.0
O50 O 0.37964 0.91461 0.71992 0.0
C51 C 0.38164 0.87639 0.99628 0.0
C52 C 0.32528 0.85354 0.89761 0.0
O53 O 0.32931 0.85309 0.74253 0.0
O54 O 0.33432 0.86624 0.98508 0.0
O55 O 0.49171 0.36213 0.93666 0.0
Cd56 Cd 0.46467 0.33985 0.86448 0.0
O57 O 0.48627 0.36183 0.21167 0.0
Cd58 Cd 0.46036 0.34772 0.15424 0.0
O59 O 0.43892 0.34799 0.04606 0.0
C60 C 0.44121 0.35691 0.91018 0.0
O61 O 0.45562 0.36438 0.8437 0.0
C62 C 0.49638 0.36717 0.09051 0.0
C63 C 0.46333 0.30995 0.9068 0.0
O64 O 0.4662 0.31741 0.7584 0.0
O65 O 0.46103 0.31659 0.03479 0.0
O66 O 0.50319 0.82481 0.5184 0.0
Cd67 Cd 0.52289 0.81568 0.56094 0.0
O68 O 0.52124 0.84662 0.38078 0.0
Cd69 Cd 0.52964 0.87047 0.25473 0.0
O70 O 0.53925 0.89575 0.16968 0.0
C71 C 0.54084 0.90593 0.28065 0.0
O72 O 0.53646 0.90084 0.44113 0.0
C73 C 0.50697 0.83799 0.43482 0.0
C74 C 0.5217 0.7985 0.2722 0.0
O75 O 0.51276 0.79133 0.40263 0.0
O76 O 0.53143 0.81379 0.27956 0.0
O77 O 0.66587 0.49887 0.5042 0.0
Cd78 Cd 0.69389 0.52057 0.5356 0.0
O79 O 0.66002 0.51592 0.36317 0.0
Cd80 Cd 0.64357 0.5233 0.23688 0.0
O81 O 0.62894 0.53391 0.13838 0.0
C82 C 0.61634 0.53096 0.21685 0.0
O83 O 0.61211 0.52119 0.35472 0.0
C84 C 0.6556 0.50167 0.42246 0.0
C85 C 0.7113 0.52205 0.24861 0.0
O86 O 0.71086 0.51362 0.38542 0.0
O87 O 0.70365 0.52989 0.2484 0.0
O88 O 0.16338 0.6636 0.82355 0.0
Cd89 Cd 0.16471 0.68953 0.8649 0.0
O90 O 0.14049 0.65648 0.68166 0.0
Cd91 Cd 0.11778 0.63937 0.55077 0.0
O92 O 0.09302 0.62466 0.44995 0.0
C93 C 0.0824 0.61378 0.5471 0.0
O94 O 0.0867 0.61128 0.70536 0.0
C95 C 0.15122 0.6531 0.73789 0.0
C96 C 0.19099 0.71567 0.70574 0.0
O97 O 0.19171 0.71218 0.86775 0.0
O98 O 0.1779 0.70676 0.61903 0.0
O99 O 0.49232 0.13589 0.14542 0.0
Cd100 Cd 0.46518 0.13073 0.20134 0.0
O101 O 0.48568 0.12699 0.8786 0.0
Cd102 Cd 0.46 0.11448 0.9337 0.0
O103 O 0.44069 0.09195 0.04548 0.0
C104 C 0.44406 0.08764 0.19326 0.0
O105 O 0.45801 0.09734 0.26999 0.0
C106 C 0.4964 0.13381 0.99825 0.0
C107 C 0.46341 0.15903 0.15239 0.0
O108 O 0.46667 0.15484 0.30304 0.0
O109 O 0.46088 0.14978 0.02516 0.0
O110 O 0.35765 0.49167 0.08641 0.0
Cd111 Cd 0.33569 0.46505 0.17667 0.0
O112 O 0.36706 0.4815 0.9047 0.0
Cd113 Cd 0.35227 0.4565 0.99801 0.0
O114 O 0.35118 0.43478 0.11918 0.0
C115 C 0.3572 0.43606 0.27262 0.0
O116 O 0.36251 0.44976 0.35253 0.0
C117 C 0.36755 0.49373 0.97028 0.0
C118 C 0.30628 0.46466 0.17066 0.0
O119 O 0.3151 0.46783 0.31029 0.0
O120 O 0.31133 0.46162 0.03424 0.0
O121 O 0.88486 0.38549 0.27488 0.0
Cd122 Cd 0.89014 0.36355 0.36323 0.0
O123 O 0.89225 0.38651 0.00629 0.0
Cd124 Cd 0.90475 0.37316 0.08305 0.0
O125 O 0.92491 0.37152 0.20938 0.0
C126 C 0.93039 0.37901 0.35097 0.0
O127 O 0.92333 0.38645 0.4123 0.0
C128 C 0.88607 0.39096 0.11882 0.0
C129 C 0.86307 0.33397 0.28031 0.0
O130 O 0.86514 0.33968 0.43269 0.0
O131 O 0.87394 0.3421 0.1686 0.0
C132 C 0.17902 0.46679 0.97912 0.0
C133 C 0.17172 0.46633 0.13471 0.0
C134 C 0.19343 0.46637 0.98273 0.0
C135 C 0.21949 0.45602 0.27291 0.0
H136 H 0.25173 0.48157 0.93179 0.0
C137 C 0.28435 0.46599 0.32118 0.0
C138 C 0.29076 0.46462 0.16674 0.0
C139 C 0.26973 0.466 0.31726 0.0
C140 C 0.24278 0.47426 0.02696 0.0
H141 H 0.17389 0.46523 0.4163 0.0
H142 H 0.19921 0.46496 0.423 0.0
H143 H 0.22653 0.48211 0.92576 0.0
H144 H 0.28686 0.46222 0.88695 0.0
H145 H 0.26139 0.46232 0.88023 0.0
H146 H 0.23595 0.44841 0.3756 0.0
C147 C 0.19365 0.46524 0.29775 0.0
C148 C 0.2283 0.47452 0.02334 0.0
C149 C 0.17916 0.46549 0.29403 0.0
C150 C 0.28225 0.46329 0.00828 0.0
C151 C 0.26771 0.46344 0.00422 0.0
C152 C 0.23404 0.45587 0.27734 0.0
C153 C 0.20098 0.46565 0.14213 0.0
C154 C 0.21643 0.46538 0.1461 0.0
C155 C 0.26128 0.46478 0.15866 0.0
C156 C 0.24583 0.46496 0.15423 0.0
H157 H 0.17354 0.46733 0.85414 0.0
H158 H 0.19854 0.46642 0.8602 0.0
H159 H 0.21055 0.44859 0.36762 0.0
H160 H 0.2906 0.46704 0.44541 0.0
H161 H 0.26516 0.46721 0.43823 0.0
C162 C 0.83778 0.30845 0.36142 0.0
C163 C 0.84837 0.31867 0.23296 0.0
C164 C 0.82365 0.29425 0.31546 0.0
C165 C 0.80384 0.26594 0.94966 0.0
H166 H 0.7649 0.2532 0.19929 0.0
C167 C 0.74093 0.21694 0.70265 0.0
C168 C 0.73086 0.2054 0.82631 0.0
C169 C 0.75528 0.23059 0.75521 0.0
C170 C 0.77571 0.25654 0.12935 0.0
H171 H 0.85242 0.32203 0.95556 0.0
H172 H 0.82762 0.29761 0.87486 0.0
H173 H 0.78999 0.2772 0.28559 0.0
H174 H 0.72784 0.19928 0.10233 0.0
H175 H 0.75285 0.2232 0.194 0.0
H176 H 0.78941 0.24542 0.79124 0.0
C177 C 0.83037 0.30027 0.01165 0.0
C178 C 0.79013 0.27026 0.17914 0.0
C179 C 0.84457 0.31435 0.0578 0.0
C180 C 0.73534 0.20794 0.00382 0.0
C181 C 0.74962 0.22167 0.05646 0.0
C182 C 0.7894 0.25231 0.89897 0.0
C183 C 0.81968 0.29003 0.13975 0.0
C184 C 0.80439 0.27518 0.08962 0.0
C185 C 0.75981 0.23308 0.93261 0.0
C186 C 0.77517 0.24749 0.98791 0.0
H187 H 0.84042 0.31139 0.49771 0.0
H188 H 0.81589 0.28654 0.41803 0.0
H189 H 0.81462 0.26913 0.87976 0.0
H190 H 0.73783 0.21535 0.56489 0.0
H191 H 0.76279 0.23927 0.65689 0.0
C192 C 0.50892 0.77298 0.10459 0.0
C193 C 0.52058 0.78943 0.11648 0.0
C194 C 0.50766 0.76442 0.95703 0.0
C195 C 0.53151 0.76605 0.5799 0.0
H196 H 0.49053 0.72969 0.43409 0.0
C197 C 0.52811 0.72339 0.05343 0.0
C198 C 0.51501 0.71776 0.93327 0.0
C199 C 0.52837 0.73149 0.20127 0.0
C200 C 0.50208 0.73991 0.47117 0.0
H201 H 0.53985 0.8099 0.98069 0.0
H202 H 0.53774 0.79494 0.72397 0.0
H203 H 0.49148 0.74614 0.66881 0.0
H204 H 0.4916 0.7156 0.87761 0.0
H205 H 0.49181 0.72926 0.13654 0.0
H206 H 0.54192 0.7604 0.37468 0.0
C207 C 0.52971 0.78852 0.82963 0.0
C208 C 0.50268 0.74925 0.60869 0.0
C209 C 0.53087 0.79716 0.97668 0.0
C210 C 0.50196 0.71994 0.96677 0.0
C211 C 0.50207 0.72774 0.11619 0.0
C212 C 0.53086 0.75691 0.44002 0.0
C213 C 0.51821 0.77193 0.81868 0.0
C214 C 0.51743 0.76239 0.66632 0.0
C215 C 0.51546 0.73404 0.23317 0.0
C216 C 0.51615 0.74363 0.38427 0.0
H217 H 0.50068 0.76667 0.20911 0.0
H218 H 0.49845 0.75184 0.95283 0.0
H219 H 0.54316 0.77586 0.62127 0.0
H220 H 0.53829 0.72173 0.03226 0.0
H221 H 0.53868 0.73569 0.29081 0.0
C222 C 0.78924 0.53946 0.94759 0.0
C223 C 0.80134 0.53544 0.98638 0.0
C224 C 0.77852 0.53767 0.07529 0.0
C225 C 0.76042 0.51455 0.47839 0.0
H226 H 0.75318 0.5499 0.57338 0.0
C227 C 0.72976 0.51515 0.10148 0.0
C228 C 0.72029 0.52263 0.0949 0.0
C229 C 0.73834 0.5158 0.95681 0.0
C230 C 0.75479 0.53976 0.54688 0.0
H231 H 0.81145 0.52596 0.18548 0.0
H232 H 0.79205 0.52179 0.40436 0.0
H233 H 0.77033 0.5527 0.33567 0.0
H234 H 0.71208 0.53634 0.92967 0.0
H235 H 0.72692 0.53739 0.67723 0.0
H236 H 0.74478 0.50148 0.68738 0.0
C237 C 0.79116 0.52681 0.27784 0.0
C238 C 0.76468 0.54142 0.41076 0.0
C239 C 0.80228 0.52923 0.15285 0.0
C240 C 0.71942 0.5306 0.93972 0.0
C241 C 0.72801 0.53127 0.79499 0.0
C242 C 0.75037 0.5128 0.61309 0.0
C243 C 0.77924 0.53111 0.24105 0.0
C244 C 0.76781 0.52893 0.37696 0.0
C245 C 0.73774 0.52404 0.80207 0.0
C246 C 0.74761 0.52548 0.65113 0.0
H247 H 0.7883 0.54431 0.81996 0.0
H248 H 0.76957 0.54124 0.04378 0.0
H249 H 0.7624 0.50461 0.45336 0.0
H250 H 0.73071 0.50892 0.21915 0.0
H251 H 0.74583 0.51025 0.96866 0.0
C252 C 0.20573 0.73095 0.43928 0.0
C253 C 0.20478 0.72967 0.6214 0.0
C254 C 0.21871 0.74421 0.35926 0.0
C255 C 0.26023 0.77836 0.45271 0.0
H256 H 0.25307 0.79542 0.01016 0.0
C257 C 0.30818 0.8393 0.15404 0.0
C258 C 0.31094 0.83963 0.97583 0.0
C259 C 0.29509 0.82589 0.23051 0.0
C260 C 0.25528 0.79071 0.13307 0.0
H261 H 0.21656 0.74139 0.86267 0.0
H262 H 0.23885 0.76483 0.72368 0.0
H263 H 0.23057 0.77216 0.14925 0.0
H264 H 0.30195 0.82625 0.73736 0.0
H265 H 0.279 0.80284 0.87105 0.0
H266 H 0.28489 0.79719 0.4376 0.0
C267 C 0.22988 0.75537 0.64197 0.0
C268 C 0.24239 0.77732 0.21284 0.0
C269 C 0.21704 0.74197 0.72199 0.0
C270 C 0.30016 0.82637 0.87503 0.0
C271 C 0.28698 0.81299 0.95137 0.0
C272 C 0.27306 0.79185 0.37385 0.0
C273 C 0.23094 0.75667 0.45936 0.0
C274 C 0.24468 0.77094 0.37386 0.0
C275 C 0.2844 0.81255 0.13032 0.0
C276 C 0.27073 0.79817 0.21322 0.0
H277 H 0.19652 0.72159 0.35832 0.0
H278 H 0.21922 0.74457 0.21879 0.0
H279 H 0.2626 0.77364 0.5746 0.0
H280 H 0.31625 0.84932 0.23539 0.0
H281 H 0.29331 0.82599 0.36823 0.0
C282 C 0.46223 0.28736 0.09745 0.0
C283 C 0.46281 0.29418 0.93005 0.0
C284 C 0.46196 0.27259 0.1198 0.0
C285 C 0.47096 0.24466 0.89208 0.0
H286 H 0.44555 0.21418 0.25602 0.0
C287 C 0.46116 0.1797 0.95715 0.0
C288 C 0.46275 0.17418 0.12579 0.0
C289 C 0.46086 0.19417 0.93182 0.0
C290 C 0.45281 0.22263 0.15471 0.0
H291 H 0.46332 0.29073 0.65448 0.0
H292 H 0.46243 0.26478 0.69287 0.0
H293 H 0.44544 0.23961 0.21332 0.0
H294 H 0.46513 0.17947 0.40025 0.0
H295 H 0.46455 0.20469 0.35591 0.0
H296 H 0.47816 0.22753 0.83259 0.0
C297 C 0.46257 0.271 0.80753 0.0
C298 C 0.45278 0.23724 0.13037 0.0
C299 C 0.46298 0.28585 0.78532 0.0
C300 C 0.46389 0.18338 0.26863 0.0
C301 C 0.46346 0.19779 0.24335 0.0
C302 C 0.47088 0.23 0.91566 0.0
C303 C 0.46212 0.2642 0.97514 0.0
C304 C 0.46192 0.24849 0.9992 0.0
C305 C 0.46202 0.20338 0.07462 0.0
C306 C 0.46186 0.21884 0.04771 0.0
H307 H 0.46219 0.29353 0.21178 0.0
H308 H 0.4619 0.2679 0.25097 0.0
H309 H 0.47836 0.25312 0.79176 0.0
H310 H 0.46025 0.1729 0.8443 0.0
H311 H 0.45957 0.19807 0.80035 0.0
C312 C 0.1363 0.52549 0.26891 0.0
C313 C 0.13514 0.51432 0.40139 0.0
C314 C 0.13906 0.5408 0.30978 0.0
C315 C 0.13688 0.56345 0.68014 0.0
H316 H 0.15905 0.60017 0.3616 0.0
C317 C 0.15451 0.62945 0.83346 0.0
C318 C 0.14962 0.63724 0.70522 0.0
C319 C 0.15321 0.61453 0.80123 0.0
C320 C 0.1528 0.58999 0.45137 0.0
H321 H 0.13662 0.51066 0.68037 0.0
H322 H 0.14227 0.53763 0.75194 0.0
H323 H 0.15693 0.57438 0.2989 0.0
H324 H 0.14012 0.63593 0.44119 0.0
H325 H 0.1381 0.60996 0.38374 0.0
H326 H 0.13325 0.57941 0.83475 0.0
C327 C 0.14043 0.53442 0.61637 0.0
C328 C 0.15147 0.57515 0.4152 0.0
C329 C 0.13733 0.51898 0.57547 0.0
C330 C 0.14366 0.63001 0.54341 0.0
C331 C 0.14267 0.61526 0.50994 0.0
C332 C 0.13849 0.57839 0.71782 0.0
C333 C 0.14106 0.54547 0.48425 0.0
C334 C 0.1433 0.56158 0.52785 0.0
C335 C 0.1474 0.60737 0.63867 0.0
C336 C 0.14629 0.59173 0.60269 0.0
H337 H 0.13451 0.5222 0.13347 0.0
H338 H 0.13912 0.54875 0.20407 0.0
H339 H 0.13023 0.55329 0.76876 0.0
H340 H 0.15919 0.63484 0.95911 0.0
H341 H 0.15701 0.60872 0.90223 0.0
C342 C 0.51855 0.13846 0.8022 0.0
C343 C 0.5133 0.13814 0.97047 0.0
C344 C 0.53409 0.14114 0.77782 0.0
C345 C 0.56521 0.13506 0.99894 0.0
H346 H 0.59352 0.16459 0.64526 0.0
C347 C 0.62091 0.13352 0.76662 0.0
C348 C 0.63547 0.14836 0.76802 0.0
C349 C 0.60627 0.13292 0.79281 0.0
C350 C 0.58573 0.15634 0.74476 0.0
H351 H 0.52038 0.14077 0.24471 0.0
H352 H 0.54741 0.1452 0.20185 0.0
H353 H 0.56755 0.16295 0.68948 0.0
H354 H 0.64593 0.17434 0.78988 0.0
H355 H 0.62026 0.17328 0.83087 0.0
H356 H 0.58322 0.12821 0.05188 0.0
C357 C 0.53949 0.1434 0.08912 0.0
C358 C 0.57088 0.15535 0.76942 0.0
C359 C 0.52406 0.14096 0.11336 0.0
C360 C 0.63496 0.16267 0.78951 0.0
C361 C 0.62028 0.1621 0.81276 0.0
C362 C 0.57992 0.13585 0.97227 0.0
C363 C 0.54459 0.14332 0.92138 0.0
C364 C 0.5605 0.14472 0.89702 0.0
C365 C 0.60583 0.1472 0.81649 0.0
C366 C 0.59031 0.1465 0.84505 0.0
H367 H 0.51057 0.13636 0.68944 0.0
H368 H 0.53769 0.14094 0.64716 0.0
H369 H 0.55737 0.12666 0.09709 0.0
H370 H 0.62066 0.12238 0.74102 0.0
H371 H 0.59523 0.12131 0.79135 0.0
C372 C 0.47105 0.63036 0.49582 0.0
C373 C 0.48519 0.63694 0.60138 0.0
C374 C 0.45841 0.61468 0.52888 0.0
C375 C 0.44129 0.58395 0.88317 0.0
H376 H 0.41696 0.55507 0.5078 0.0
C377 C 0.3821 0.5239 0.00167 0.0
C378 C 0.38014 0.51028 0.91686 0.0
C379 C 0.39465 0.5394 0.95829 0.0
C380 C 0.42369 0.56295 0.61417 0.0
H381 H 0.49692 0.63243 0.82796 0.0
H382 H 0.47508 0.60488 0.88283 0.0
H383 H 0.43998 0.58164 0.44115 0.0
H384 H 0.38966 0.50233 0.71722 0.0
H385 H 0.41153 0.52929 0.64248 0.0
H386 H 0.42519 0.56517 0.05644 0.0
C387 C 0.47377 0.61183 0.77407 0.0
C388 C 0.43679 0.57824 0.57587 0.0
C389 C 0.48644 0.62751 0.74058 0.0
C390 C 0.3908 0.51255 0.78519 0.0
C391 C 0.4033 0.52803 0.74157 0.0
C392 C 0.42818 0.56868 0.92143 0.0
C393 C 0.45955 0.60528 0.66946 0.0
C394 C 0.44576 0.58892 0.70995 0.0
C395 C 0.40548 0.54162 0.82878 0.0
C396 C 0.41923 0.55799 0.78744 0.0
H397 H 0.46971 0.63742 0.38842 0.0
H398 H 0.44755 0.61009 0.44714 0.0
H399 H 0.44781 0.59196 0.98938 0.0
H400 H 0.3741 0.5226 0.10351 0.0
H401 H 0.39586 0.54965 0.02629 0.0
C402 C 0.87871 0.4115 0.19898 0.0
C403 C 0.88087 0.40289 0.07002 0.0
C404 C 0.87458 0.42335 0.15331 0.0
C405 C 0.87426 0.44943 0.77801 0.0
H406 H 0.84823 0.45746 0.08426 0.0
C407 C 0.85105 0.49468 0.61439 0.0
C408 C 0.85411 0.50562 0.74621 0.0
C409 C 0.85378 0.48165 0.64632 0.0
C410 C 0.85554 0.45536 0.99782 0.0
H411 H 0.87992 0.39961 0.792 0.0
H412 H 0.87204 0.41979 0.71216 0.0
H413 H 0.85329 0.43516 0.15228 0.0
H414 H 0.86173 0.51122 0.01608 0.0
H415 H 0.86639 0.48844 0.07224 0.0
H416 H 0.87613 0.46953 0.62195 0.0
C417 C 0.87405 0.41781 0.84866 0.0
C418 C 0.85855 0.44264 0.03711 0.0
C419 C 0.87846 0.40614 0.89438 0.0
C420 C 0.85966 0.50319 0.911 0.0
C421 C 0.86213 0.49005 0.94375 0.0
C422 C 0.87103 0.46201 0.73737 0.0
C423 C 0.8722 0.4267 0.97746 0.0
C424 C 0.86817 0.43964 0.92933 0.0
C425 C 0.85923 0.47916 0.81181 0.0
C426 C 0.86185 0.46524 0.84834 0.0
H427 H 0.88062 0.40939 0.3355 0.0
H428 H 0.87361 0.43012 0.25638 0.0
H429 H 0.88191 0.4477 0.69301 0.0
H430 H 0.84669 0.49628 0.48649 0.0
H431 H 0.85137 0.47337 0.54276 0.0
C432 C 0.40287 0.87009 0.91527 0.0
C433 C 0.39386 0.87158 0.0442 0.0
C434 C 0.41501 0.8664 0.96084 0.0
C435 C 0.44065 0.86584 0.34037 0.0
H436 H 0.44995 0.84083 0.03134 0.0
C437 C 0.48331 0.84009 0.52227 0.0
C438 C 0.49474 0.84291 0.39798 0.0
C439 C 0.47117 0.84395 0.48339 0.0
C440 C 0.44753 0.84791 0.1183 0.0
H441 H 0.39017 0.8699 0.32175 0.0
H442 H 0.4108 0.86273 0.40114 0.0
H443 H 0.4279 0.84603 0.95672 0.0
H444 H 0.50221 0.85147 0.13441 0.0
H445 H 0.48091 0.8581 0.06584 0.0
H446 H 0.46008 0.86719 0.50427 0.0
C447 C 0.40894 0.86497 0.26497 0.0
C448 C 0.43494 0.85098 0.07534 0.0
C449 C 0.397 0.86895 0.21947 0.0
C450 C 0.49379 0.84956 0.23398 0.0
C451 C 0.4815 0.85315 0.19405 0.0
C452 C 0.45308 0.86253 0.38461 0.0
C453 C 0.41825 0.8638 0.13643 0.0
C454 C 0.43139 0.86011 0.18501 0.0
C455 C 0.47004 0.85033 0.31811 0.0
C456 C 0.45671 0.85364 0.27327 0.0
H457 H 0.40084 0.87219 0.77908 0.0
H458 H 0.42207 0.86594 0.85804 0.0
H459 H 0.43854 0.87317 0.42682 0.0
H460 H 0.48375 0.83487 0.64932 0.0
H461 H 0.46241 0.84155 0.58088 0.0
C462 C 0.51958 0.38303 0.29779 0.0
C463 C 0.51325 0.37995 0.12632 0.0
C464 C 0.53517 0.39579 0.33224 0.0
C465 C 0.57351 0.42523 0.11513 0.0
H466 H 0.58141 0.44892 0.53831 0.0
C467 C 0.6306 0.48716 0.2358 0.0
C468 C 0.63888 0.48839 0.39535 0.0
C469 C 0.61522 0.47392 0.20535 0.0
C470 C 0.57938 0.44236 0.42009 0.0
H471 H 0.51833 0.3878 0.85628 0.0
H472 H 0.54517 0.41038 0.91616 0.0
H473 H 0.55484 0.42567 0.47938 0.0
H474 H 0.63762 0.47694 0.64874 0.0
H475 H 0.61048 0.45394 0.59708 0.0
H476 H 0.59799 0.44239 0.05408 0.0
C477 C 0.53839 0.40271 0.02439 0.0
C478 C 0.56418 0.42894 0.38651 0.0
C479 C 0.52291 0.38977 0.9898 0.0
C480 C 0.63143 0.47629 0.52492 0.0
C481 C 0.61592 0.46319 0.49564 0.0
C482 C 0.58861 0.43881 0.14747 0.0
C483 C 0.54472 0.40598 0.19628 0.0
C484 C 0.56102 0.42015 0.23355 0.0
C485 C 0.60776 0.46178 0.33475 0.0
C486 C 0.59169 0.44748 0.30027 0.0
H487 H 0.51246 0.3756 0.40573 0.0
H488 H 0.5397 0.39764 0.46585 0.0
H489 H 0.57173 0.41864 0.99782 0.0
H490 H 0.63623 0.49613 0.13227 0.0
H491 H 0.60916 0.47313 0.08036 0.0
C492 C 0.06667 0.43745 0.86944 0.0
C493 C 0.07097 0.43325 0.03287 0.0
C494 C 0.05142 0.42764 0.79369 0.0
C495 C 0.01008 0.39798 0.91781 0.0
H496 H 0.00259 0.39586 0.41731 0.0
C497 C 0.95084 0.38868 0.5965 0.0
C498 C 0.94521 0.38054 0.43878 0.0
C499 C 0.96551 0.39149 0.67314 0.0
C500 C 0.00439 0.39603 0.55744 0.0
H501 H 0.06286 0.41501 0.24136 0.0
H502 H 0.03623 0.39775 0.10795 0.0
H503 H 0.02995 0.40683 0.53724 0.0
H504 H 0.9503 0.3684 0.24119 0.0
H505 H 0.97592 0.37317 0.37627 0.0
H506 H 0.98452 0.38717 0.93807 0.0
C507 C 0.0446 0.40878 0.03955 0.0
C508 C 0.02014 0.40254 0.62627 0.0
C509 C 0.0599 0.41863 0.11554 0.0
C510 C 0.95433 0.37475 0.36251 0.0
C511 C 0.96905 0.37758 0.43943 0.0
C512 C 0.99432 0.39138 0.84903 0.0
C513 C 0.04006 0.41334 0.87918 0.0
C514 C 0.02323 0.40408 0.80711 0.0
C515 C 0.97495 0.38621 0.59437 0.0
C516 C 0.99133 0.39081 0.66787 0.0
H517 H 0.07492 0.4486 0.80183 0.0
H518 H 0.04833 0.43169 0.6714 0.0
H519 H 0.01196 0.39902 0.05763 0.0
H520 H 0.94411 0.39328 0.65906 0.0
H521 H 0.96973 0.3984 0.79084 0.0
C522 C 0.55015 0.93459 0.35675 0.0
C523 C 0.54789 0.92332 0.23164 0.0
C524 C 0.55715 0.95106 0.31215 0.0
C525 C 0.56618 0.97965 0.93536 0.0
H526 H 0.59757 0.01083 0.2572 0.0
C527 C 0.6063 0.04731 0.74549 0.0
C528 C 0.60948 0.05878 0.87178 0.0
C529 C 0.59826 0.03076 0.78887 0.0
C530 C 0.58868 0.00231 0.16676 0.0
H531 H 0.5511 0.92054 0.96086 0.0
H532 H 0.56346 0.94929 0.88345 0.0
H533 H 0.58453 0.98205 0.33327 0.0
H534 H 0.60645 0.06183 0.14229 0.0
H535 H 0.59225 0.03298 0.2174 0.0
H536 H 0.57037 0.99992 0.76859 0.0
C537 C 0.55965 0.94537 0.01574 0.0
C538 C 0.5812 0.98579 0.2104 0.0
C539 C 0.55265 0.92889 0.06039 0.0
C540 C 0.60425 0.05333 0.04197 0.0
C541 C 0.5962 0.03678 0.08533 0.0
C542 C 0.57365 0.99618 0.89174 0.0
C543 C 0.56207 0.95667 0.14134 0.0
C544 C 0.56988 0.97425 0.09518 0.0
C545 C 0.59318 0.0253 0.95956 0.0
C546 C 0.58502 0.00771 0.00681 0.0
H547 H 0.54657 0.93072 0.48975 0.0
H548 H 0.55862 0.95939 0.41149 0.0
H549 H 0.55735 0.9711 0.84468 0.0
H550 H 0.61018 0.05109 0.61316 0.0
H551 H 0.59632 0.02228 0.68925 0.0
C552 C 0.53678 0.59347 0.65172 0.0
C553 C 0.53942 0.60687 0.74615 0.0
C554 C 0.54466 0.58482 0.70163 0.0
C555 C 0.56619 0.57725 0.07632 0.0
H556 H 0.58243 0.56206 0.72164 0.0
C557 C 0.59307 0.53572 0.24575 0.0
C558 C 0.60691 0.53888 0.15781 0.0
C559 C 0.58444 0.54355 0.19352 0.0
C560 C 0.57808 0.56632 0.82246 0.0
H561 H 0.55243 0.62169 0.9674 0.0
H562 H 0.56629 0.60677 0.05298 0.0
H563 H 0.5685 0.57693 0.63583 0.0
H564 H 0.62244 0.55266 0.94491 0.0
H565 H 0.60751 0.56645 0.85531 0.0
H566 H 0.57618 0.56706 0.26308 0.0
C567 C 0.55796 0.60277 0.94177 0.0
C568 C 0.5699 0.57467 0.77315 0.0
C569 C 0.55007 0.6114 0.89199 0.0
C570 C 0.61181 0.54992 0.01532 0.0
C571 C 0.60319 0.55776 0.96325 0.0
C572 C 0.5744 0.56893 0.12563 0.0
C573 C 0.55537 0.58938 0.84713 0.0
C574 C 0.56389 0.58028 0.89948 0.0
C575 C 0.58943 0.55474 0.05221 0.0
C576 C 0.58048 0.56338 0.99936 0.0
H577 H 0.52863 0.58963 0.53894 0.0
H578 H 0.54221 0.57445 0.6271 0.0
H579 H 0.56156 0.58122 0.17711 0.0
H580 H 0.58892 0.52725 0.35567 0.0
H581 H 0.57377 0.54074 0.26341 0.0
C582 C 0.06048 0.60795 0.32107 0.0
C583 C 0.06529 0.60461 0.48625 0.0
C584 C 0.04422 0.59984 0.26709 0.0
C585 C 0.00319 0.5771 0.44246 0.0
H586 H 0.99056 0.56556 0.96056 0.0
C587 C 0.9394 0.5588 0.16505 0.0
C588 C 0.93235 0.54644 0.04312 0.0
C589 C 0.95544 0.56495 0.22212 0.0
C590 C 0.99385 0.56853 0.09607 0.0
H591 H 0.05681 0.58986 0.72271 0.0
H592 H 0.02853 0.57555 0.62756 0.0
H593 H 0.01885 0.57748 0.05274 0.0
H594 H 0.93661 0.53065 0.88761 0.0
H595 H 0.96456 0.54125 0.98872 0.0
H596 H 0.97816 0.56789 0.48639 0.0
C597 C 0.03727 0.58464 0.54075 0.0
C598 C 0.01011 0.57557 0.14852 0.0
C599 C 0.05352 0.59277 0.59491 0.0
C600 C 0.94168 0.54021 0.98122 0.0
C601 C 0.95774 0.54636 0.03837 0.0
C602 C 0.98693 0.57002 0.39012 0.0
C603 C 0.03239 0.58817 0.37677 0.0
C604 C 0.01501 0.58006 0.32211 0.0
C605 C 0.96484 0.55886 0.15884 0.0
C606 C 0.98207 0.56578 0.216 0.0
H607 H 0.06923 0.61702 0.2342 0.0
H608 H 0.0409 0.60303 0.14091 0.0
H609 H 0.00651 0.58054 0.57678 0.0
H610 H 0.93258 0.56391 0.21516 0.0
H611 H 0.96058 0.57472 0.31316 0.0
C612 C 0.3708 0.9477 0.77602 0.0
C613 C 0.37694 0.93859 0.70596 0.0
C614 C 0.37599 0.9636 0.71593 0.0
C615 C 0.4114 0.99795 0.52957 0.0
H616 H 0.38395 0.01651 0.41701 0.0
C617 C 0.43824 0.06628 0.4248 0.0
C618 C 0.43359 0.07117 0.26764 0.0
C619 C 0.42969 0.05021 0.48485 0.0
C620 C 0.39172 0.01145 0.44816 0.0
H621 H 0.39272 0.93878 0.51188 0.0
H622 H 0.4018 0.96646 0.40887 0.0
H623 H 0.37176 0.98765 0.50032 0.0
H624 H 0.41569 0.06319 0.05567 0.0
H625 H 0.40068 0.03503 0.16179 0.0
H626 H 0.43134 0.02158 0.4785 0.0
C627 C 0.39309 0.96136 0.51103 0.0
C628 C 0.38477 0.995 0.49646 0.0
C629 C 0.38784 0.94547 0.56983 0.0
C630 C 0.41962 0.0598 0.17694 0.0
C631 C 0.41099 0.0437 0.23786 0.0
C632 C 0.41832 0.01435 0.48386 0.0
C633 C 0.3875 0.9707 0.58592 0.0
C634 C 0.39457 0.98809 0.53623 0.0
C635 C 0.41623 0.03867 0.38983 0.0
C636 C 0.40858 0.02128 0.44229 0.0
H637 H 0.36235 0.94272 0.88067 0.0
H638 H 0.37152 0.97057 0.77619 0.0
H639 H 0.41925 0.99299 0.56137 0.0
H640 H 0.44884 0.07473 0.49892 0.0
H641 H 0.43385 0.04672 0.60388 0.0
C642 C 0.3685 0.42564 0.51256 0.0
C643 C 0.36023 0.42328 0.35088 0.0
C644 C 0.3733 0.4147 0.57689 0.0
C645 C 0.38336 0.38513 0.41734 0.0
H646 H 0.38897 0.37825 0.91076 0.0
C647 C 0.43131 0.36992 0.68493 0.0
C648 C 0.42845 0.36012 0.83617 0.0
C649 C 0.42003 0.37429 0.62232 0.0
C650 C 0.38726 0.37977 0.77236 0.0
H651 H 0.34964 0.40702 0.13487 0.0
H652 H 0.35775 0.38774 0.24873 0.0
H653 H 0.37355 0.39136 0.81509 0.0
H654 H 0.41119 0.34669 0.03676 0.0
H655 H 0.39136 0.3542 0.92609 0.0
H656 H 0.39702 0.37353 0.37454 0.0
C657 C 0.36085 0.39826 0.32411 0.0
C658 C 0.37858 0.3875 0.71749 0.0
C659 C 0.3561 0.40926 0.25932 0.0
C660 C 0.41377 0.3543 0.92011 0.0
C661 C 0.40246 0.35868 0.8573 0.0
C662 C 0.39193 0.37732 0.47214 0.0
C663 C 0.36988 0.40106 0.48161 0.0
C664 C 0.37693 0.39071 0.53946 0.0
C665 C 0.40557 0.36894 0.70901 0.0
C666 C 0.39442 0.37499 0.65044 0.0
H667 H 0.37185 0.43629 0.58679 0.0
H668 H 0.38039 0.4174 0.6975 0.0
H669 H 0.38246 0.38747 0.27925 0.0
H670 H 0.44247 0.37461 0.61683 0.0
H671 H 0.42298 0.38239 0.50944 0.0
loop_
_geom_bond_atom_site_label_1
_geom_bond_atom_site_label_2
_geom_bond_distance
_geom_bond_site_symmetry_2
_ccdc_geom_bond_type
O0 Cd1 2.300 . S
O0 C7 1.275 . S
Cd1 O0 2.300 . S
Cd1 O9 2.381 . S
Cd1 O10 2.378 . S
O2 Cd3 2.385 . S
O2 C7 1.255 . S
Cd3 O2 2.385 . S
Cd3 O4 2.317 . S
O4 Cd3 2.317 . S
O4 C5 1.232 . S
C5 O4 1.232 . S
C5 O6 1.218 . S
O6 C5 1.218 . S
C7 O0 1.275 . S
C7 O2 1.255 . S
C8 O9 1.258 . S
C8 O10 1.256 . S
O9 Cd1 2.381 . S
O9 C8 1.258 . S
O10 Cd1 2.378 . S
O10 C8 1.256 . S
O11 Cd12 2.300 1_556 S
O11 C18 1.275 1_556 S
Cd12 O11 2.300 1_554 S
Cd12 O20 2.381 1_554 S
Cd12 O21 2.378 . S
O13 Cd14 2.385 . S
O13 C18 1.255 . S
Cd14 O13 2.385 . S
Cd14 O15 2.317 . S
O15 Cd14 2.317 . S
O15 C16 1.232 . S
C16 O15 1.232 . S
C16 O17 1.218 . S
O17 C16 1.218 . S
C18 O11 1.275 1_554 S
C18 O13 1.255 . S
C19 O20 1.258 1_554 S
C19 O21 1.256 . S
O20 Cd12 2.381 1_556 S
O20 C19 1.258 1_556 S
O21 Cd12 2.378 . S
O21 C19 1.256 . S
O22 Cd23 2.300 1_556 S
O22 C29 1.275 . S
Cd23 O22 2.300 1_554 S
Cd23 O31 2.381 . S
Cd23 O32 2.378 . S
O24 Cd25 2.385 . S
O24 C29 1.255 1_554 S
Cd25 O24 2.385 . S
Cd25 O26 2.317 . S
O26 Cd25 2.317 . S
O26 C27 1.232 . S
C27 O26 1.232 . S
C27 O28 1.218 . S
O28 C27 1.218 . S
C29 O22 1.275 . S
C29 O24 1.255 1_556 S
C30 O31 1.258 . S
C30 O32 1.256 . S
O31 Cd23 2.381 . S
O31 C30 1.258 . S
O32 Cd23 2.378 . S
O32 C30 1.256 . S
O33 Cd34 2.300 . S
O33 C40 1.275 . S
Cd34 O33 2.300 . S
Cd34 O42 2.381 . S
Cd34 O43 2.378 . S
O35 Cd36 2.385 . S
O35 C40 1.255 . S
Cd36 O35 2.385 . S
Cd36 O37 2.317 . S
O37 Cd36 2.317 . S
O37 C38 1.232 . S
C38 O37 1.232 . S
C38 O39 1.218 . S
O39 C38 1.218 . S
C40 O33 1.275 . S
C40 O35 1.255 . S
C41 O42 1.258 . S
C41 O43 1.256 . S
O42 Cd34 2.381 . S
O42 C41 1.258 . S
O43 Cd34 2.378 . S
O43 C41 1.256 . S
O44 Cd45 2.300 . S
O44 C51 1.275 . S
Cd45 O44 2.300 . S
Cd45 O53 2.381 . S
Cd45 O54 2.378 . S
O46 Cd47 2.385 . S
O46 C51 1.255 . S
Cd47 O46 2.385 . S
Cd47 O48 2.314 1_554 S
O48 Cd47 2.314 1_556 S
O48 C49 1.233 . S
C49 O48 1.233 . S
C49 O50 1.218 . S
O50 C49 1.218 . S
C51 O44 1.275 . S
C51 O46 1.255 . S
C52 O53 1.258 . S
C52 O54 1.256 . S
O53 Cd45 2.381 . S
O53 C52 1.258 . S
O54 Cd45 2.378 . S
O54 C52 1.256 . S
O55 Cd56 2.300 . S
O55 C62 1.275 . S
Cd56 O55 2.300 . S
Cd56 O64 2.381 . S
Cd56 O65 2.378 . S
O57 Cd58 2.385 . S
O57 C62 1.255 . S
Cd58 O57 2.385 . S
Cd58 O59 2.317 . S
O59 Cd58 2.317 . S
O59 C60 1.232 1_554 S
C60 O59 1.232 1_556 S
C60 O61 1.218 1_556 S
O61 C60 1.218 1_554 S
C62 O55 1.275 . S
C62 O57 1.255 . S
C63 O64 1.258 . S
C63 O65 1.256 . S
O64 Cd56 2.381 . S
O64 C63 1.258 . S
O65 Cd56 2.378 . S
O65 C63 1.256 . S
O66 Cd67 2.300 1_554 S
O66 C73 1.275 . S
Cd67 O66 2.300 1_556 S
Cd67 O75 2.381 . S
Cd67 O76 2.378 . S
O68 Cd69 2.385 . S
O68 C73 1.255 1_556 S
Cd69 O68 2.385 . S
Cd69 O70 2.317 . S
O70 Cd69 2.317 . S
O70 C71 1.232 . S
C71 O70 1.232 . S
C71 O72 1.218 . S
O72 C71 1.218 . S
C73 O66 1.275 . S
C73 O68 1.255 1_554 S
C74 O75 1.258 . S
C74 O76 1.256 . S
O75 Cd67 2.381 . S
O75 C74 1.258 . S
O76 Cd67 2.378 . S
O76 C74 1.256 . S
O77 Cd78 2.300 1_554 S
O77 C84 1.275 . S
Cd78 O77 2.300 1_556 S
Cd78 O86 2.381 . S
Cd78 O87 2.378 . S
O79 Cd80 2.385 . S
O79 C84 1.255 1_556 S
Cd80 O79 2.385 . S
Cd80 O81 2.317 . S
O81 Cd80 2.317 . S
O81 C82 1.232 . S
C82 O81 1.232 . S
C82 O83 1.218 . S
O83 C82 1.218 . S
C84 O77 1.275 . S
C84 O79 1.255 1_554 S
C85 O86 1.258 . S
C85 O87 1.256 . S
O86 Cd78 2.381 . S
O86 C85 1.258 . S
O87 Cd78 2.378 . S
O87 C85 1.256 . S
O88 Cd89 2.300 . S
O88 C95 1.275 . S
Cd89 O88 2.300 . S
Cd89 O97 2.381 . S
Cd89 O98 2.378 . S
O90 Cd91 2.385 . S
O90 C95 1.255 . S
Cd91 O90 2.385 . S
Cd91 O92 2.317 . S
O92 Cd91 2.317 . S
O92 C93 1.232 . S
C93 O92 1.232 . S
C93 O94 1.218 . S
O94 C93 1.218 . S
C95 O88 1.275 . S
C95 O90 1.255 . S
C96 O97 1.258 . S
C96 O98 1.256 . S
O97 Cd89 2.381 . S
O97 C96 1.258 . S
O98 Cd89 2.378 . S
O98 C96 1.256 . S
O99 Cd100 2.300 1_554 S
O99 C106 1.275 1_554 S
Cd100 O99 2.300 1_556 S
Cd100 O108 2.381 1_556 S
Cd100 O109 2.378 . S
O101 Cd102 2.385 . S
O101 C106 1.255 . S
Cd102 O101 2.385 . S
Cd102 O103 2.317 1_556 S
O103 Cd102 2.317 1_554 S
O103 C104 1.232 . S
C104 O103 1.232 . S
C104 O105 1.218 . S
O105 C104 1.218 . S
C106 O99 1.275 1_556 S
C106 O101 1.255 . S
C107 O108 1.258 1_556 S
C107 O109 1.256 . S
O108 Cd100 2.381 1_554 S
O108 C107 1.258 1_554 S
O109 Cd100 2.378 . S
O109 C107 1.256 . S
O110 Cd111 2.300 1_554 S
O110 C117 1.275 1_554 S
Cd111 O110 2.300 1_556 S
Cd111 O119 2.381 1_556 S
Cd111 O120 2.378 . S
O112 Cd113 2.385 . S
O112 C117 1.255 . S
Cd113 O112 2.385 . S
Cd113 O114 2.317 1_556 S
O114 Cd113 2.317 1_554 S
O114 C115 1.232 . S
C115 O114 1.232 . S
C115 O116 1.218 . S
O116 C115 1.218 . S
C117 O110 1.275 1_556 S
C117 O112 1.255 . S
C118 O119 1.258 . S
C118 O120 1.256 1_554 S
O119 Cd111 2.381 1_554 S
O119 C118 1.258 . S
O120 Cd111 2.378 . S
O120 C118 1.256 1_556 S
O121 Cd122 2.300 . S
O121 C128 1.275 . S
Cd122 O121 2.300 . S
Cd122 O130 2.381 . S
Cd122 O131 2.378 . S
O123 Cd124 2.385 1_554 S
O123 C128 1.255 . S
Cd124 O123 2.385 1_556 S
Cd124 O125 2.317 1_556 S
O125 Cd124 2.317 1_554 S
O125 C126 1.232 . S
C126 O125 1.232 . S
C126 O127 1.218 . S
O127 C126 1.218 . S
C128 O121 1.275 . S
C128 O123 1.255 . S
C129 O130 1.258 . S
C129 O131 1.256 . S
O130 Cd122 2.381 . S
O130 C129 1.258 . S
O131 Cd122 2.378 . S
O131 C129 1.256 . S
C132 C133 1.349 . S
C132 C134 1.327 . S
C132 H157 0.950 . S
C133 C132 1.349 . S
C133 C149 1.349 . S
C134 C132 1.327 . S
C134 C153 1.429 . S
C134 H158 0.950 . S
C135 C152 1.574 . S
C135 C154 1.368 . S
C135 H159 0.949 . S
H136 C140 0.949 1_556 S
C137 C138 1.349 . S
C137 C139 1.327 . S
C137 H160 0.950 . S
C138 C137 1.349 . S
C138 C150 1.349 1_554 S
C139 C137 1.327 . S
C139 C155 1.429 . S
C139 H161 0.950 . S
C140 H136 0.949 1_554 S
C140 C148 1.574 . S
C140 C156 1.368 . S
H141 C149 0.950 . S
H142 C147 0.950 . S
H143 C148 0.949 . S
H144 C150 0.950 . S
H145 C151 0.950 1_556 S
H146 C152 0.949 . S
C147 H142 0.950 . S
C147 C149 1.327 . S
C147 C153 1.429 . S
C148 C140 1.574 . S
C148 H143 0.949 . S
C148 C154 1.368 . S
C149 C133 1.349 . S
C149 H141 0.950 . S
C149 C147 1.327 . S
C150 C138 1.349 1_556 S
C150 H144 0.950 . S
C150 C151 1.327 1_556 S
C151 H145 0.950 1_554 S
C151 C150 1.327 1_554 S
C151 C155 1.429 . S
C152 C135 1.574 . S
C152 H146 0.949 . S
C152 C156 1.368 . S
C153 C134 1.429 . S
C153 C147 1.429 . S
C153 C154 1.523 . S
C154 C135 1.368 . S
C154 C148 1.368 . S
C154 C153 1.523 . S
C155 C139 1.429 . S
C155 C151 1.429 . S
C155 C156 1.523 . S
C156 C140 1.368 . S
C156 C152 1.368 . S
C156 C155 1.523 . S
H157 C132 0.950 . S
H158 C134 0.950 . S
H159 C135 0.949 . S
H160 C137 0.950 . S
H161 C139 0.950 . S
C162 C163 1.349 . S
C162 C164 1.327 . S
C162 H187 0.950 . S
C163 C162 1.349 . S
C163 C179 1.349 1_554 S
C164 C162 1.327 . S
C164 C183 1.429 . S
C164 H188 0.950 . S
C165 C182 1.574 . S
C165 C184 1.368 1_556 S
C165 H189 0.949 . S
H166 C170 0.949 . S
C167 C168 1.349 1_556 S
C167 C169 1.327 . S
C167 H190 0.950 . S
C168 C167 1.349 1_554 S
C168 C180 1.349 . S
C169 C167 1.327 . S
C169 C185 1.429 1_556 S
C169 H191 0.950 . S
C170 H166 0.949 . S
C170 C178 1.574 . S
C170 C186 1.368 . S
H171 C179 0.950 . S
H172 C177 0.950 . S
H173 C178 0.949 . S
H174 C180 0.950 . S
H175 C181 0.950 . S
H176 C182 0.949 . S
C177 H172 0.950 . S
C177 C179 1.327 . S
C177 C183 1.429 1_556 S
C178 C170 1.574 . S
C178 H173 0.949 . S
C178 C184 1.368 . S
C179 C163 1.349 1_556 S
C179 H171 0.950 . S
C179 C177 1.327 . S
C180 C168 1.349 . S
C180 H174 0.950 . S
C180 C181 1.327 . S
C181 H175 0.950 . S
C181 C180 1.327 . S
C181 C185 1.429 . S
C182 C165 1.574 . S
C182 H176 0.949 . S
C182 C186 1.368 1_556 S
C183 C164 1.429 . S
C183 C177 1.429 1_554 S
C183 C184 1.523 . S
C184 C165 1.368 1_554 S
C184 C178 1.368 . S
C184 C183 1.523 . S
C185 C169 1.429 1_554 S
C185 C181 1.429 . S
C185 C186 1.523 . S
C186 C170 1.368 . S
C186 C182 1.368 1_554 S
C186 C185 1.523 . S
H187 C162 0.950 . S
H188 C164 0.950 . S
H189 C165 0.949 . S
H190 C167 0.950 . S
H191 C169 0.950 . S
C192 C193 1.349 . S
C192 C194 1.327 . S
C192 H217 0.950 . S
C193 C192 1.349 . S
C193 C209 1.349 . S
C194 C192 1.327 . S
C194 C213 1.429 . S
C194 H218 0.950 . S
C195 C212 1.574 . S
C195 C214 1.368 . S
C195 H219 0.949 . S
H196 C200 0.949 . S
C197 C198 1.349 . S
C197 C199 1.327 . S
C197 H220 0.950 . S
C198 C197 1.349 . S
C198 C210 1.349 . S
C199 C197 1.327 . S
C199 C215 1.429 . S
C199 H221 0.950 . S
C200 H196 0.949 . S
C200 C208 1.574 . S
C200 C216 1.368 . S
H201 C209 0.950 . S
H202 C207 0.950 . S
H203 C208 0.949 . S
H204 C210 0.950 . S
H205 C211 0.950 . S
H206 C212 0.949 . S
C207 H202 0.950 . S
C207 C209 1.327 . S
C207 C213 1.429 . S
C208 C200 1.574 . S
C208 H203 0.949 . S
C208 C214 1.368 . S
C209 C193 1.349 . S
C209 H201 0.950 . S
C209 C207 1.327 . S
C210 C198 1.349 . S
C210 H204 0.950 . S
C210 C211 1.327 . S
C211 H205 0.950 . S
C211 C210 1.327 . S
C211 C215 1.429 . S
C212 C195 1.574 . S
C212 H206 0.949 . S
C212 C216 1.368 . S
C213 C194 1.429 . S
C213 C207 1.429 . S
C213 C214 1.523 . S
C214 C195 1.368 . S
C214 C208 1.368 . S
C214 C213 1.523 . S
C215 C199 1.429 . S
C215 C211 1.429 . S
C215 C216 1.523 . S
C216 C200 1.368 . S
C216 C212 1.368 . S
C216 C215 1.523 . S
H217 C192 0.950 . S
H218 C194 0.950 . S
H219 C195 0.949 . S
H220 C197 0.950 . S
H221 C199 0.950 . S
C222 C223 1.349 . S
C222 C224 1.327 . S
C222 H247 0.950 . S
C223 C222 1.349 . S
C223 C239 1.349 . S
C224 C222 1.327 . S
C224 C243 1.429 . S
C224 H248 0.950 . S
C225 C242 1.574 . S
C225 C244 1.368 . S
C225 H249 0.949 . S
H226 C230 0.949 . S
C227 C228 1.349 . S
C227 C229 1.327 . S
C227 H250 0.950 . S
C228 C227 1.349 . S
C228 C240 1.349 . S
C229 C227 1.327 . S
C229 C245 1.429 . S
C229 H251 0.950 . S
C230 H226 0.949 . S
C230 C238 1.574 . S
C230 C246 1.368 . S
H231 C239 0.950 . S
H232 C237 0.950 . S
H233 C238 0.949 . S
H234 C240 0.950 . S
H235 C241 0.950 . S
H236 C242 0.949 . S
C237 H232 0.950 . S
C237 C239 1.327 . S
C237 C243 1.429 . S
C238 C230 1.574 . S
C238 H233 0.949 . S
C238 C244 1.368 . S
C239 C223 1.349 . S
C239 H231 0.950 . S
C239 C237 1.327 . S
C240 C228 1.349 . S
C240 H234 0.950 . S
C240 C241 1.327 . S
C241 H235 0.950 . S
C241 C240 1.327 . S
C241 C245 1.429 . S
C242 C225 1.574 . S
C242 H236 0.949 . S
C242 C246 1.368 . S
C243 C224 1.429 . S
C243 C237 1.429 . S
C243 C244 1.523 . S
C244 C225 1.368 . S
C244 C238 1.368 . S
C244 C243 1.523 . S
C245 C229 1.429 . S
C245 C241 1.429 . S
C245 C246 1.523 . S
C246 C230 1.368 . S
C246 C242 1.368 . S
C246 C245 1.523 . S
H247 C222 0.950 . S
H248 C224 0.950 . S
H249 C225 0.949 . S
H250 C227 0.950 . S
H251 C229 0.950 . S
C252 C253 1.349 . S
C252 C254 1.327 . S
C252 H277 0.950 . S
C253 C252 1.349 . S
C253 C269 1.349 . S
C254 C252 1.327 . S
C254 C273 1.429 . S
C254 H278 0.950 . S
C255 C272 1.574 . S
C255 C274 1.368 . S
C255 H279 0.949 . S
H256 C260 0.949 . S
C257 C258 1.349 . S
C257 C259 1.327 . S
C257 H280 0.950 . S
C258 C257 1.349 . S
C258 C270 1.349 . S
C259 C257 1.327 . S
C259 C275 1.429 . S
C259 H281 0.950 . S
C260 H256 0.949 . S
C260 C268 1.574 . S
C260 C276 1.368 . S
H261 C269 0.950 . S
H262 C267 0.950 . S
H263 C268 0.949 . S
H264 C270 0.950 1_556 S
H265 C271 0.950 1_556 S
H266 C272 0.949 . S
C267 H262 0.950 . S
C267 C269 1.327 . S
C267 C273 1.429 . S
C268 C260 1.574 . S
C268 H263 0.949 . S
C268 C274 1.368 . S
C269 C253 1.349 . S
C269 H261 0.950 . S
C269 C267 1.327 . S
C270 C258 1.349 . S
C270 H264 0.950 1_554 S
C270 C271 1.327 . S
C271 H265 0.950 1_554 S
C271 C270 1.327 . S
C271 C275 1.429 . S
C272 C255 1.574 . S
C272 H266 0.949 . S
C272 C276 1.368 . S
C273 C254 1.429 . S
C273 C267 1.429 . S
C273 C274 1.523 . S
C274 C255 1.368 . S
C274 C268 1.368 . S
C274 C273 1.523 . S
C275 C259 1.429 . S
C275 C271 1.429 . S
C275 C276 1.523 . S
C276 C260 1.368 . S
C276 C272 1.368 . S
C276 C275 1.523 . S
H277 C252 0.950 . S
H278 C254 0.950 . S
H279 C255 0.949 . S
H280 C257 0.950 . S
H281 C259 0.950 . S
C282 C283 1.349 . S
C282 C284 1.327 . S
C282 H307 0.950 . S
C283 C282 1.349 . S
C283 C299 1.349 1_554 S
C284 C282 1.327 . S
C284 C303 1.429 . S
C284 H308 0.950 . S
C285 C302 1.574 . S
C285 C304 1.368 1_556 S
C285 H309 0.949 . S
H286 C290 0.949 . S
C287 C288 1.349 . S
C287 C289 1.327 . S
C287 H310 0.950 . S
C288 C287 1.349 . S
C288 C300 1.349 1_556 S
C289 C287 1.327 . S
C289 C305 1.429 1_556 S
C289 H311 0.950 . S
C290 H286 0.949 . S
C290 C298 1.574 . S
C290 C306 1.368 . S
H291 C299 0.950 . S
H292 C297 0.950 . S
H293 C298 0.949 . S
H294 C300 0.950 . S
H295 C301 0.950 . S
H296 C302 0.949 . S
C297 H292 0.950 . S
C297 C299 1.327 . S
C297 C303 1.429 1_556 S
C298 C290 1.574 . S
C298 H293 0.949 . S
C298 C304 1.368 . S
C299 C283 1.349 1_556 S
C299 H291 0.950 . S
C299 C297 1.327 . S
C300 C288 1.349 1_554 S
C300 H294 0.950 . S
C300 C301 1.327 . S
C301 H295 0.950 . S
C301 C300 1.327 . S
C301 C305 1.429 . S
C302 C285 1.574 . S
C302 H296 0.949 . S
C302 C306 1.368 1_556 S
C303 C284 1.429 . S
C303 C297 1.429 1_554 S
C303 C304 1.523 . S
C304 C285 1.368 1_554 S
C304 C298 1.368 . S
C304 C303 1.523 . S
C305 C289 1.429 1_554 S
C305 C301 1.429 . S
C305 C306 1.523 . S
C306 C290 1.368 . S
C306 C302 1.368 1_554 S
C306 C305 1.523 . S
H307 C282 0.950 . S
H308 C284 0.950 . S
H309 C285 0.949 . S
H310 C287 0.950 . S
H311 C289 0.950 . S
C312 C313 1.349 . S
C312 C314 1.327 . S
C312 H337 0.950 . S
C313 C312 1.349 . S
C313 C329 1.349 . S
C314 C312 1.327 . S
C314 C333 1.429 . S
C314 H338 0.950 . S
C315 C332 1.574 . S
C315 C334 1.368 . S
C315 H339 0.949 . S
H316 C320 0.949 . S
C317 C318 1.349 . S
C317 C319 1.327 . S
C317 H340 0.950 . S
C318 C317 1.349 . S
C318 C330 1.349 . S
C319 C317 1.327 . S
C319 C335 1.429 . S
C319 H341 0.950 . S
C320 H316 0.949 . S
C320 C328 1.574 . S
C320 C336 1.368 . S
H321 C329 0.950 . S
H322 C327 0.950 . S
H323 C328 0.949 . S
H324 C330 0.950 . S
H325 C331 0.950 . S
H326 C332 0.949 . S
C327 H322 0.950 . S
C327 C329 1.327 . S
C327 C333 1.429 . S
C328 C320 1.574 . S
C328 H323 0.949 . S
C328 C334 1.368 . S
C329 C313 1.349 . S
C329 H321 0.950 . S
C329 C327 1.327 . S
C330 C318 1.349 . S
C330 H324 0.950 . S
C330 C331 1.327 . S
C331 H325 0.950 . S
C331 C330 1.327 . S
C331 C335 1.429 . S
C332 C315 1.574 . S
C332 H326 0.949 . S
C332 C336 1.368 . S
C333 C314 1.429 . S
C333 C327 1.429 . S
C333 C334 1.523 . S
C334 C315 1.368 . S
C334 C328 1.368 . S
C334 C333 1.523 . S
C335 C319 1.429 . S
C335 C331 1.429 . S
C335 C336 1.523 . S
C336 C320 1.368 . S
C336 C332 1.368 . S
C336 C335 1.523 . S
H337 C312 0.950 . S
H338 C314 0.950 . S
H339 C315 0.949 . S
H340 C317 0.950 . S
H341 C319 0.950 . S
C342 C343 1.351 . S
C342 C344 1.327 . S
C342 H367 0.950 . S
C343 C342 1.351 . S
C343 C359 1.347 1_556 S
C344 C342 1.327 . S
C344 C363 1.429 . S
C344 H368 0.950 . S
C345 C362 1.574 . S
C345 C364 1.368 1_554 S
C345 H369 0.949 . S
H346 C350 0.949 . S
C347 C348 1.349 1_554 S
C347 C349 1.327 . S
C347 H370 0.950 . S
C348 C347 1.349 1_556 S
C348 C360 1.349 . S
C349 C347 1.327 . S
C349 C365 1.429 1_554 S
C349 H371 0.950 . S
C350 H346 0.949 . S
C350 C358 1.574 . S
C350 C366 1.368 . S
H351 C359 0.950 . S
H352 C357 0.950 . S
H353 C358 0.949 . S
H354 C360 0.950 . S
H355 C361 0.950 . S
H356 C362 0.949 . S
C357 H352 0.950 . S
C357 C359 1.327 . S
C357 C363 1.429 1_554 S
C358 C350 1.574 . S
C358 H353 0.949 . S
C358 C364 1.368 . S
C359 C343 1.347 1_554 S
C359 H351 0.950 . S
C359 C357 1.327 . S
C360 C348 1.349 . S
C360 H354 0.950 . S
C360 C361 1.327 . S
C361 H355 0.950 . S
C361 C360 1.327 . S
C361 C365 1.429 . S
C362 C345 1.574 . S
C362 H356 0.949 . S
C362 C366 1.368 1_554 S
C363 C344 1.429 . S
C363 C357 1.429 1_556 S
C363 C364 1.523 . S
C364 C345 1.368 1_556 S
C364 C358 1.368 . S
C364 C363 1.523 . S
C365 C349 1.429 1_556 S
C365 C361 1.429 . S
C365 C366 1.523 . S
C366 C350 1.368 . S
C366 C362 1.368 1_556 S
C366 C365 1.523 . S
H367 C342 0.950 . S
H368 C344 0.950 . S
H369 C345 0.949 . S
H370 C347 0.950 . S
H371 C349 0.950 . S
C372 C373 1.349 . S
C372 C374 1.327 . S
C372 H397 0.950 . S
C373 C372 1.349 . S
C373 C389 1.349 1_556 S
C374 C372 1.327 . S
C374 C393 1.429 . S
C374 H398 0.950 . S
C375 C392 1.574 . S
C375 C394 1.368 1_554 S
C375 H399 0.949 . S
H376 C380 0.949 . S
C377 C378 1.349 . S
C377 C379 1.327 . S
C377 H400 0.950 . S
C378 C377 1.349 . S
C378 C390 1.349 1_554 S
C379 C377 1.327 . S
C379 C395 1.429 1_554 S
C379 H401 0.950 . S
C380 H376 0.949 . S
C380 C388 1.574 . S
C380 C396 1.368 . S
H381 C389 0.950 . S
H382 C387 0.950 . S
H383 C388 0.949 . S
H384 C390 0.950 . S
H385 C391 0.950 . S
H386 C392 0.949 . S
C387 H382 0.950 . S
C387 C389 1.327 . S
C387 C393 1.429 1_554 S
C388 C380 1.574 . S
C388 H383 0.949 . S
C388 C394 1.368 . S
C389 C373 1.349 1_554 S
C389 H381 0.950 . S
C389 C387 1.327 . S
C390 C378 1.349 1_556 S
C390 H384 0.950 . S
C390 C391 1.327 . S
C391 H385 0.950 . S
C391 C390 1.327 . S
C391 C395 1.429 . S
C392 C375 1.574 . S
C392 H386 0.949 . S
C392 C396 1.368 1_554 S
C393 C374 1.429 . S
C393 C387 1.429 1_556 S
C393 C394 1.523 . S
C394 C375 1.368 1_556 S
C394 C388 1.368 . S
C394 C393 1.523 . S
C395 C379 1.429 1_556 S
C395 C391 1.429 . S
C395 C396 1.523 . S
C396 C380 1.368 . S
C396 C392 1.368 1_556 S
C396 C395 1.523 . S
H397 C372 0.950 . S
H398 C374 0.950 . S
H399 C375 0.949 . S
H400 C377 0.950 . S
H401 C379 0.950 . S
C402 C403 1.349 . S
C402 C404 1.327 . S
C402 H427 0.950 . S
C403 C402 1.349 . S
C403 C419 1.349 . S
C404 C402 1.327 . S
C404 C423 1.429 . S
C404 H428 0.950 . S
C405 C422 1.574 . S
C405 C424 1.368 1_556 S
C405 H429 0.949 . S
H406 C410 0.949 . S
C407 C408 1.349 1_556 S
C407 C409 1.327 . S
C407 H430 0.950 . S
C408 C407 1.349 1_554 S
C408 C420 1.349 . S
C409 C407 1.327 . S
C409 C425 1.429 1_556 S
C409 H431 0.950 . S
C410 H406 0.949 . S
C410 C418 1.574 . S
C410 C426 1.368 . S
H411 C419 0.950 1_556 S
H412 C417 0.950 . S
H413 C418 0.949 . S
H414 C420 0.950 . S
H415 C421 0.950 . S
H416 C422 0.949 . S
C417 H412 0.950 . S
C417 C419 1.327 1_556 S
C417 C423 1.429 1_556 S
C418 C410 1.574 . S
C418 H413 0.949 . S
C418 C424 1.368 . S
C419 C403 1.349 . S
C419 H411 0.950 1_554 S
C419 C417 1.327 1_554 S
C420 C408 1.349 . S
C420 H414 0.950 . S
C420 C421 1.327 . S
C421 H415 0.950 . S
C421 C420 1.327 . S
C421 C425 1.429 . S
C422 C405 1.574 . S
C422 H416 0.949 . S
C422 C426 1.368 1_556 S
C423 C404 1.429 . S
C423 C417 1.429 1_554 S
C423 C424 1.523 . S
C424 C405 1.368 1_554 S
C424 C418 1.368 . S
C424 C423 1.523 . S
C425 C409 1.429 1_554 S
C425 C421 1.429 . S
C425 C426 1.523 . S
C426 C410 1.368 . S
C426 C422 1.368 1_554 S
C426 C425 1.523 . S
H427 C402 0.950 . S
H428 C404 0.950 . S
H429 C405 0.949 . S
H430 C407 0.950 . S
H431 C409 0.950 . S
C432 C433 1.349 1_556 S
C432 C434 1.327 . S
C432 H457 0.950 . S
C433 C432 1.349 1_554 S
C433 C449 1.349 . S
C434 C432 1.327 . S
C434 C453 1.429 1_556 S
C434 H458 0.950 . S
C435 C452 1.574 . S
C435 C454 1.368 . S
C435 H459 0.949 . S
H436 C440 0.949 . S
C437 C438 1.349 . S
C437 C439 1.327 . S
C437 H460 0.950 . S
C438 C437 1.349 . S
C438 C450 1.349 1_554 S
C439 C437 1.327 . S
C439 C455 1.429 . S
C439 H461 0.950 . S
C440 H436 0.949 . S
C440 C448 1.574 . S
C440 C456 1.368 1_556 S
H441 C449 0.950 . S
H442 C447 0.950 . S
H443 C448 0.949 . S
H444 C450 0.950 . S
H445 C451 0.950 . S
H446 C452 0.949 . S
C447 H442 0.950 . S
C447 C449 1.327 . S
C447 C453 1.429 . S
C448 C440 1.574 . S
C448 H443 0.949 . S
C448 C454 1.368 1_556 S
C449 C433 1.349 . S
C449 H441 0.950 . S
C449 C447 1.327 . S
C450 C438 1.349 1_556 S
C450 H444 0.950 . S
C450 C451 1.327 . S
C451 H445 0.950 . S
C451 C450 1.327 . S
C451 C455 1.429 1_556 S
C452 C435 1.574 . S
C452 H446 0.949 . S
C452 C456 1.368 . S
C453 C434 1.429 1_554 S
C453 C447 1.429 . S
C453 C454 1.523 . S
C454 C435 1.368 . S
C454 C448 1.368 1_554 S
C454 C453 1.523 . S
C455 C439 1.429 . S
C455 C451 1.429 1_554 S
C455 C456 1.523 . S
C456 C440 1.368 1_554 S
C456 C452 1.368 . S
C456 C455 1.523 . S
H457 C432 0.950 . S
H458 C434 0.950 . S
H459 C435 0.949 . S
H460 C437 0.950 . S
H461 C439 0.950 . S
C462 C463 1.349 . S
C462 C464 1.327 . S
C462 H487 0.950 . S
C463 C462 1.349 . S
C463 C479 1.349 1_554 S
C464 C462 1.327 . S
C464 C483 1.429 . S
C464 H488 0.950 . S
C465 C482 1.574 . S
C465 C484 1.368 1_556 S
C465 H489 0.949 . S
H466 C470 0.949 . S
C467 C468 1.349 1_556 S
C467 C469 1.327 . S
C467 H490 0.950 . S
C468 C467 1.349 1_554 S
C468 C480 1.349 . S
C469 C467 1.327 . S
C469 C485 1.429 1_556 S
C469 H491 0.950 . S
C470 H466 0.949 . S
C470 C478 1.574 . S
C470 C486 1.368 . S
H471 C479 0.950 . S
H472 C477 0.950 . S
H473 C478 0.949 . S
H474 C480 0.950 . S
H475 C481 0.950 . S
H476 C482 0.949 . S
C477 H472 0.950 . S
C477 C479 1.327 . S
C477 C483 1.429 1_556 S
C478 C470 1.574 . S
C478 H473 0.949 . S
C478 C484 1.368 . S
C479 C463 1.349 1_556 S
C479 H471 0.950 . S
C479 C477 1.327 . S
C480 C468 1.349 . S
C480 H474 0.950 . S
C480 C481 1.327 . S
C481 H475 0.950 . S
C481 C480 1.327 . S
C481 C485 1.429 . S
C482 C465 1.574 . S
C482 H476 0.949 . S
C482 C486 1.368 1_556 S
C483 C464 1.429 . S
C483 C477 1.429 1_554 S
C483 C484 1.523 . S
C484 C465 1.368 1_554 S
C484 C478 1.368 . S
C484 C483 1.523 . S
C485 C469 1.429 1_554 S
C485 C481 1.429 . S
C485 C486 1.523 . S
C486 C470 1.368 . S
C486 C482 1.368 1_554 S
C486 C485 1.523 . S
H487 C462 0.950 . S
H488 C464 0.950 . S
H489 C465 0.949 . S
H490 C467 0.950 . S
H491 C469 0.950 . S
C492 C493 1.349 1_556 S
C492 C494 1.327 . S
C492 H517 0.950 . S
C493 C492 1.349 1_554 S
C493 C509 1.349 . S
C494 C492 1.327 . S
C494 C513 1.429 . S
C494 H518 0.950 . S
C495 C512 1.607 . S
C495 C514 1.341 1_655 S
C495 H519 0.945 1_656 S
H496 C500 0.949 . S
C497 C498 1.349 . S
C497 C499 1.327 . S
C497 H520 0.950 . S
C498 C497 1.349 . S
C498 C510 1.349 . S
C499 C497 1.327 . S
C499 C515 1.429 . S
C499 H521 0.950 . S
C500 H496 0.949 . S
C500 C508 1.574 1_655 S
C500 C516 1.368 . S
H501 C509 0.950 . S
H502 C507 0.950 . S
H503 C508 0.949 . S
H504 C510 0.950 . S
H505 C511 0.950 . S
H506 C512 0.949 . S
C507 H502 0.950 . S
C507 C509 1.327 . S
C507 C513 1.429 1_554 S
C508 C500 1.574 1_455 S
C508 H503 0.949 . S
C508 C514 1.368 . S
C509 C493 1.349 . S
C509 H501 0.950 . S
C509 C507 1.327 . S
C510 C498 1.349 . S
C510 H504 0.950 . S
C510 C511 1.327 . S
C511 H505 0.950 . S
C511 C510 1.327 . S
C511 C515 1.429 . S
C512 C495 1.607 . S
C512 H506 0.949 . S
C512 C516 1.368 . S
C513 C494 1.429 . S
C513 C507 1.429 1_556 S
C513 C514 1.523 . S
C514 C495 1.341 1_455 S
C514 C508 1.368 . S
C514 C513 1.523 . S
C515 C499 1.429 . S
C515 C511 1.429 . S
C515 C516 1.523 . S
C516 C500 1.368 . S
C516 C512 1.368 . S
C516 C515 1.523 . S
H517 C492 0.950 . S
H518 C494 0.950 . S
H519 C495 0.945 1_454 S
H520 C497 0.950 . S
H521 C499 0.950 . S
C522 C523 1.349 . S
C522 C524 1.327 . S
C522 H547 0.950 . S
C523 C522 1.349 . S
C523 C539 1.349 1_554 S
C524 C522 1.327 . S
C524 C543 1.429 . S
C524 H548 0.950 . S
C525 C542 1.574 1_565 S
C525 C544 1.368 1_556 S
C525 H549 0.949 . S
H526 C530 0.949 . S
C527 C528 1.349 . S
C527 C529 1.327 . S
C527 H550 0.950 . S
C528 C527 1.349 . S
C528 C540 1.349 1_556 S
C529 C527 1.327 . S
C529 C545 1.429 1_556 S
C529 H551 0.950 . S
C530 H526 0.949 . S
C530 C538 1.574 1_545 S
C530 C546 1.368 . S
H531 C539 0.950 . S
H532 C537 0.950 . S
H533 C538 0.949 . S
H534 C540 0.950 . S
H535 C541 0.950 . S
H536 C542 0.949 . S
C537 H532 0.950 . S
C537 C539 1.327 . S
C537 C543 1.429 1_556 S
C538 C530 1.574 1_565 S
C538 H533 0.949 . S
C538 C544 1.368 . S
C539 C523 1.349 1_556 S
C539 H531 0.950 . S
C539 C537 1.327 . S
C540 C528 1.349 1_554 S
C540 H534 0.950 . S
C540 C541 1.327 . S
C541 H535 0.950 . S
C541 C540 1.327 . S
C541 C545 1.429 . S
C542 C525 1.574 1_545 S
C542 H536 0.949 . S
C542 C546 1.368 1_556 S
C543 C524 1.429 . S
C543 C537 1.429 1_554 S
C543 C544 1.523 . S
C544 C525 1.368 1_554 S
C544 C538 1.368 . S
C544 C543 1.523 . S
C545 C529 1.429 1_554 S
C545 C541 1.429 . S
C545 C546 1.523 . S
C546 C530 1.368 . S
C546 C542 1.368 1_554 S
C546 C545 1.523 . S
H547 C522 0.950 . S
H548 C524 0.950 . S
H549 C525 0.949 . S
H550 C527 0.950 . S
H551 C529 0.950 . S
C552 C553 1.349 . S
C552 C554 1.327 . S
C552 H577 0.950 . S
C553 C552 1.349 . S
C553 C569 1.349 1_556 S
C554 C552 1.327 . S
C554 C573 1.429 . S
C554 H578 0.950 . S
C555 C572 1.574 . S
C555 C574 1.368 1_554 S
C555 H579 0.949 . S
H556 C560 0.949 . S
C557 C558 1.349 . S
C557 C559 1.327 . S
C557 H580 0.950 . S
C558 C557 1.349 . S
C558 C570 1.349 1_554 S
C559 C557 1.327 . S
C559 C575 1.429 . S
C559 H581 0.950 . S
C560 H556 0.949 . S
C560 C568 1.574 . S
C560 C576 1.368 1_556 S
H561 C569 0.950 . S
H562 C567 0.950 . S
H563 C568 0.949 . S
H564 C570 0.950 . S
H565 C571 0.950 . S
H566 C572 0.949 . S
C567 H562 0.950 . S
C567 C569 1.327 . S
C567 C573 1.429 1_554 S
C568 C560 1.574 . S
C568 H563 0.949 . S
C568 C574 1.368 . S
C569 C553 1.349 1_554 S
C569 H561 0.950 . S
C569 C567 1.327 . S
C570 C558 1.349 1_556 S
C570 H564 0.950 . S
C570 C571 1.327 . S
C571 H565 0.950 . S
C571 C570 1.327 . S
C571 C575 1.429 1_556 S
C572 C555 1.574 . S
C572 H566 0.949 . S
C572 C576 1.368 . S
C573 C554 1.429 . S
C573 C567 1.429 1_556 S
C573 C574 1.523 . S
C574 C555 1.368 1_556 S
C574 C568 1.368 . S
C574 C573 1.523 . S
C575 C559 1.429 . S
C575 C571 1.429 1_554 S
C575 C576 1.523 . S
C576 C560 1.368 1_554 S
C576 C572 1.368 . S
C576 C575 1.523 . S
H577 C552 0.950 . S
H578 C554 0.950 . S
H579 C555 0.949 . S
H580 C557 0.950 . S
H581 C559 0.950 . S
C582 C583 1.349 . S
C582 C584 1.327 . S
C582 H607 0.950 . S
C583 C582 1.349 . S
C583 C599 1.349 . S
C584 C582 1.327 . S
C584 C603 1.429 . S
C584 H608 0.950 . S
C585 C602 1.574 1_455 S
C585 C604 1.368 . S
C585 H609 0.949 . S
H586 C590 0.949 1_556 S
C587 C588 1.349 . S
C587 C589 1.327 . S
C587 H610 0.950 . S
C588 C587 1.349 . S
C588 C600 1.351 . S
C589 C587 1.327 . S
C589 C605 1.429 . S
C589 H611 0.950 . S
C590 H586 0.949 1_554 S
C590 C598 1.574 1_655 S
C590 C606 1.368 . S
H591 C599 0.950 . S
H592 C597 0.950 . S
H593 C598 0.949 . S
H594 C600 0.947 1_556 S
H595 C601 0.950 1_556 S
H596 C602 0.949 . S
C597 H592 0.950 . S
C597 C599 1.327 . S
C597 C603 1.429 . S
C598 C590 1.574 1_455 S
C598 H593 0.949 . S
C598 C604 1.368 . S
C599 C583 1.349 . S
C599 H591 0.950 . S
C599 C597 1.327 . S
C600 C588 1.351 . S
C600 H594 0.947 1_554 S
C600 C601 1.328 . S
C601 H595 0.950 1_554 S
C601 C600 1.328 . S
C601 C605 1.429 . S
C602 C585 1.574 1_655 S
C602 H596 0.949 . S
C602 C606 1.368 . S
C603 C584 1.429 . S
C603 C597 1.429 . S
C603 C604 1.523 . S
C604 C585 1.368 . S
C604 C598 1.368 . S
C604 C603 1.523 . S
C605 C589 1.429 . S
C605 C601 1.429 . S
C605 C606 1.523 . S
C606 C590 1.368 . S
C606 C602 1.368 . S
C606 C605 1.523 . S
H607 C582 0.950 . S
H608 C584 0.950 . S
H609 C585 0.949 . S
H610 C587 0.950 . S
H611 C589 0.950 . S
C612 C613 1.349 . S
C612 C614 1.327 . S
C612 H637 0.950 . S
C613 C612 1.349 . S
C613 C629 1.349 . S
C614 C612 1.327 . S
C614 C633 1.429 . S
C614 H638 0.950 . S
C615 C632 1.574 1_565 S
C615 C634 1.368 . S
C615 H639 0.949 . S
H616 C620 0.949 . S
C617 C618 1.349 . S
C617 C619 1.327 . S
C617 H640 0.950 . S
C618 C617 1.349 . S
C618 C630 1.349 . S
C619 C617 1.327 . S
C619 C635 1.429 . S
C619 H641 0.950 . S
C620 H616 0.949 . S
C620 C628 1.574 1_545 S
C620 C636 1.368 . S
H621 C629 0.950 . S
H622 C627 0.950 . S
H623 C628 0.949 . S
H624 C630 0.950 . S
H625 C631 0.950 . S
H626 C632 0.949 . S
C627 H622 0.950 . S
C627 C629 1.327 . S
C627 C633 1.429 . S
C628 C620 1.574 1_565 S
C628 H623 0.949 . S
C628 C634 1.368 . S
C629 C613 1.349 . S
C629 H621 0.950 . S
C629 C627 1.327 . S
C630 C618 1.349 . S
C630 H624 0.950 . S
C630 C631 1.327 . S
C631 H625 0.950 . S
C631 C630 1.327 . S
C631 C635 1.429 . S
C632 C615 1.574 1_545 S
C632 H626 0.949 . S
C632 C636 1.368 . S
C633 C614 1.429 . S
C633 C627 1.429 . S
C633 C634 1.523 . S
C634 C615 1.368 . S
C634 C628 1.368 . S
C634 C633 1.523 . S
C635 C619 1.429 . S
C635 C631 1.429 . S
C635 C636 1.523 . S
C636 C620 1.368 . S
C636 C632 1.368 . S
C636 C635 1.523 . S
H637 C612 0.950 . S
H638 C614 0.950 . S
H639 C615 0.949 . S
H640 C617 0.950 . S
H641 C619 0.950 . S
C642 C643 1.349 . S
C642 C644 1.327 . S
C642 H667 0.950 . S
C643 C642 1.349 . S
C643 C659 1.349 . S
C644 C642 1.327 . S
C644 C663 1.429 . S
C644 H668 0.950 . S
C645 C662 1.574 . S
C645 C664 1.368 . S
C645 H669 0.949 . S
H646 C650 0.949 . S
C647 C648 1.349 . S
C647 C649 1.327 . S
C647 H670 0.950 . S
C648 C647 1.349 . S
C648 C660 1.349 . S
C649 C647 1.327 . S
C649 C665 1.429 . S
C649 H671 0.950 . S
C650 H646 0.949 . S
C650 C658 1.574 . S
C650 C666 1.368 . S
H651 C659 0.950 . S
H652 C657 0.950 . S
H653 C658 0.949 . S
H654 C660 0.950 1_554 S
H655 C661 0.950 . S
H656 C662 0.949 . S
C657 H652 0.950 . S
C657 C659 1.327 . S
C657 C663 1.429 . S
C658 C650 1.574 . S
C658 H653 0.949 . S
C658 C664 1.368 . S
C659 C643 1.349 . S
C659 H651 0.950 . S
C659 C657 1.327 . S
C660 C648 1.349 . S
C660 H654 0.950 1_556 S
C660 C661 1.327 . S
C661 H655 0.950 . S
C661 C660 1.327 . S
C661 C665 1.429 . S
C662 C645 1.574 . S
C662 H656 0.949 . S
C662 C666 1.368 . S
C663 C644 1.429 . S
C663 C657 1.429 . S
C663 C664 1.523 . S
C664 C645 1.368 . S
C664 C658 1.368 . S
C664 C663 1.523 . S
C665 C649 1.429 . S
C665 C661 1.429 . S
C665 C666 1.523 . S
C666 C650 1.368 . S
C666 C662 1.368 . S
C666 C665 1.523 . S
H667 C642 0.950 . S
H668 C644 0.950 . S
H669 C645 0.949 . S
H670 C647 0.950 . S
H671 C649 0.950 . S
C133 C8 1.577 . S
C138 C118 1.577 . S
C163 C129 1.441 . S
C168 C19 1.432 . S
C193 C74 1.549 . S
C198 C30 1.549 . S
C223 C41 1.557 . S
C228 C85 1.565 . S
C253 C96 1.440 . S
C258 C52 1.459 . S
C283 C63 1.499 . S
C288 C107 1.498 . S
C313 C7 1.590 . S
C318 C95 1.554 . S
C343 C106 1.525 . S
C348 C18 1.511 1_556 S
C373 C29 1.550 . S
C378 C117 1.593 1_554 S
C403 C128 1.554 . S
C408 C40 1.510 . S
C433 C51 1.522 . S
C438 C73 1.490 . S
C463 C62 1.538 . S
C468 C84 1.505 . S
C493 C5 1.454 . S
C498 C126 1.440 . S
C523 C71 1.106 1_554 S
C528 C16 1.153 1_556 S
C553 C27 1.182 1_556 S
C558 C82 1.193 1_554 S
C583 C93 1.172 . S
C588 C38 1.150 . S
C613 C49 1.307 . S
C618 C104 1.326 . S
C643 C115 1.396 . S
C648 C60 1.387 . S
