# Generated by pormake.
# Topology sxb, (6)-cn, num edge types: 1
# Building blocks:
#     Node 0, Type 0, BuildingBlock: KUMJIN_clean_sbu_1, # of connection points: 6
#     Node 1, Type 0, BuildingBlock: KUMJIN_clean_sbu_1, # of connection points: 6
#     Node 2, Type 0, BuildingBlock: KUMJIN_clean_sbu_1, # of connection points: 6
#     Node 3, Type 0, BuildingBlock: KUMJIN_clean_sbu_1, # of connection points: 6
#     Edge 4, Type (0, 0), BuildingBlock: KIFKEQ_clean_linker_1, # of connection points: 2
#     Edge 5, Type (0, 0), BuildingBlock: KIFKEQ_clean_linker_1, # of connection points: 2
#     Edge 6, Type (0, 0), BuildingBlock: KIFKEQ_clean_linker_1, # of connection points: 2
#     Edge 7, Type (0, 0), BuildingBlock: KIFKEQ_clean_linker_1, # of connection points: 2
#     Edge 8, Type (0, 0), BuildingBlock: KIFKEQ_clean_linker_1, # of connection points: 2
#     Edge 9, Type (0, 0), BuildingBlock: KIFKEQ_clean_linker_1, # of connection points: 2
#     Edge 10, Type (0, 0), BuildingBlock: KIFKEQ_clean_linker_1, # of connection points: 2
#     Edge 11, Type (0, 0), BuildingBlock: KIFKEQ_clean_linker_1, # of connection points: 2
#     Edge 12, Type (0, 0), BuildingBlock: KIFKEQ_clean_linker_1, # of connection points: 2
#     Edge 13, Type (0, 0), BuildingBlock: KIFKEQ_clean_linker_1, # of connection points: 2
#     Edge 14, Type (0, 0), BuildingBlock: KIFKEQ_clean_linker_1, # of connection points: 2
#     Edge 15, Type (0, 0), BuildingBlock: KIFKEQ_clean_linker_1, # of connection points: 2
# Relax obj value: 0.014
# Max RMSD: 0.057
# Mean RMSD: 0.057
data_MOF--net-sxb--node1-KUMJIN_clean_sbu_1--edge1-KIFKEQ_clean_linker_1
_symmetry_space_group_name_H-M    P1
_symmetry_Int_Tables_number       1
_symmetry_cell_setting            triclinic
loop_
_symmetry_equiv_pos_as_xyz
'x, y, z'
_cell_length_a     15.371708
_cell_length_b     47.858124
_cell_length_c     30.173782
_cell_angle_alpha  114.72209
_cell_angle_beta   89.912465
_cell_angle_gamma 89.972487
loop_
_atom_site_label
_atom_site_type_symbol
_atom_site_fract_x
_atom_site_fract_y
_atom_site_fract_z
_atom_type_partial_charge
Eu0 Eu 1.02671 0.96354 0.96665 0.0
C1 C 0.19809 0.08924 0.0844 0.0
N2 N 0.12067 0.07914 0.09414 0.0
C3 C 0.15599 0.09884 0.17904 0.0
C4 C 0.25849 0.1041 0.12204 0.0
C5 C 0.09819 0.08409 0.14059 0.0
C6 C 0.23657 0.10879 0.16974 0.0
C7 C 0.29923 0.09319 0.02519 0.0
C8 C 0.21839 0.08373 0.03624 0.0
C9 C 0.35931 0.10804 0.06273 0.0
C10 C 0.33902 0.11348 0.11094 0.0
Eu11 Eu 1.02846 0.05552 0.02667 0.0
N12 N 0.16033 0.06832 0.00011 0.0
C13 C 0.31747 0.08737 0.97662 0.0
C14 C 0.17575 0.06415 0.95328 0.0
C15 C 0.25506 0.07309 0.94064 0.0
H16 H 0.0351 0.07726 0.14829 0.0
H17 H 0.26753 0.06933 0.90325 0.0
H18 H 0.0566 0.93778 0.84514 0.0
H19 H 0.76536 0.94138 0.06975 0.0
H20 H 0.12652 0.05474 0.92583 0.0
H21 H 0.37893 0.09425 0.96666 0.0
H22 H 0.9048 0.96306 0.05858 0.0
H23 H 0.13817 0.10267 0.21586 0.0
H24 H 0.42187 0.11536 0.05482 0.0
H25 H 0.38632 0.12486 0.1394 0.0
H26 H 0.97636 0.90703 0.76959 0.0
H27 H 0.28129 0.12014 0.19964 0.0
H28 H 0.67719 0.90951 -0.00227 0.0
N29 N 0.95785 0.93418 0.89194 0.0
C30 C 0.88069 0.9213 0.89532 0.0
C31 C 0.94849 0.91105 0.80471 0.0
C32 C 0.83364 0.903 0.85304 0.0
C33 C 0.99319 0.92884 0.8476 0.0
C34 C 0.86819 0.89819 0.80742 0.0
N35 N 0.89303 0.94532 0.9816 0.0
C36 C 0.86582 0.94996 0.02716 0.0
C37 C 0.7686 0.91336 0.94586 0.0
C38 C 0.84827 0.92648 0.94129 0.0
C39 C 0.73815 0.91916 0.99269 0.0
C40 C 0.78741 0.93732 0.03347 0.0
H41 H 0.83387 0.88433 0.77409 0.0
H42 H 0.71678 0.87601 0.82544 0.0
H43 H 0.66003 0.88503 0.90659 0.0
O44 O 0.08095 0.93749 0.00477 0.0
O45 O 0.89537 0.9868 0.9689 0.0
O46 O 0.89477 0.03657 0.02997 0.0
O47 O 0.07964 0.91748 0.92589 0.0
O48 O 0.05159 0.99053 0.04764 0.0
O49 O 0.97094 0.03523 0.07562 0.0
O50 O 0.98566 0.08893 -0.001 0.0
O51 O 0.14994 0.02847 0.02996 0.0
O52 O 0.1524 0.98529 0.95795 0.0
O53 O 0.98761 0.10153 0.07666 0.0
O54 O 0.99065 0.02984 0.94683 0.0
O55 O 0.07464 0.98604 0.91881 0.0
C56 C 0.8545 0.01202 -0.00159 0.0
C57 C 0.18826 0.90038 0.9638 0.0
C58 C 0.27655 0.85987 0.97052 0.0
C59 C 0.35126 0.87364 0.96133 0.0
C60 C 0.2634 0.91384 0.95502 0.0
C61 C 0.34455 0.90044 0.95374 0.0
C62 C 0.19489 0.87351 0.97159 0.0
C63 C 1.00476 0.01179 0.08155 0.0
C64 C 0.10231 0.9139 0.96474 0.0
C65 C 0.75391 0.89008 0.85754 0.0
C66 C 0.72161 0.89518 0.90377 0.0
C67 C 0.19309 1.00706 0.99413 0.0
C68 C 0.88828 0.12801 0.04828 0.0
C69 C 0.81204 0.17099 0.04153 0.0
C70 C 0.74084 0.16557 0.0664 0.0
C71 C 0.81584 0.12271 0.07194 0.0
C72 C 0.88584 0.15184 0.03257 0.0
C73 C 0.74256 0.14144 0.08089 0.0
C74 C 1.02995 1.007 0.91126 0.0
C75 C 0.9688 0.11023 0.04229 0.0
H76 H 0.41493 0.86351 0.95947 0.0
H77 H 0.25916 0.93455 0.94897 0.0
H78 H 0.40246 0.9108 0.94668 0.0
H79 H 0.13651 0.86351 0.97908 0.0
H80 H 0.68399 0.18026 0.07555 0.0
H81 H 0.81665 0.10451 0.08436 0.0
H82 H 0.94171 0.15538 0.01359 0.0
H83 H 0.6873 0.13756 0.09988 0.0
Eu84 Eu 1.02554 0.05397 0.52456 0.0
C85 C 0.19044 0.92619 0.40298 0.0
N86 N 0.11136 0.93624 0.39541 0.0
C87 C 0.13669 0.91432 0.30919 0.0
C88 C 0.24664 0.9102 0.36347 0.0
C89 C 0.08317 0.93017 0.34943 0.0
C90 C 0.21888 0.9044 0.31622 0.0
C91 C 0.29873 0.92301 0.45943 0.0
C92 C 0.21632 0.93254 0.45062 0.0
C93 C 0.35473 0.90711 0.42006 0.0
C94 C 0.32877 0.90071 0.37229 0.0
Eu95 Eu 1.02724 0.96226 0.46593 0.0
N96 N 0.16223 0.94901 0.48841 0.0
C97 C 0.3227 0.92995 0.50766 0.0
C98 C 0.18341 0.95452 0.53515 0.0
C99 C 0.26443 0.94551 0.54561 0.0
H100 H 1.01886 0.93703 0.34355 0.0
H101 H 0.28159 0.95033 0.58288 0.0
H102 H 0.05885 0.08118 0.64596 0.0
H103 H 0.75916 0.07384 0.42239 0.0
H104 H 0.13774 0.9654 0.56434 0.0
H105 H 0.38558 0.92308 0.51594 0.0
H106 H 0.90019 0.05283 0.43297 0.0
H107 H 0.11434 0.90962 0.27275 0.0
H108 H 0.41845 0.89971 0.4262 0.0
H109 H 0.3729 0.88847 0.34236 0.0
H110 H 0.98017 0.11267 0.72191 0.0
H111 H 0.26023 0.89216 0.28492 0.0
H112 H 0.67215 0.10621 0.49485 0.0
N113 N 0.95818 0.08392 0.59961 0.0
C114 C 0.88023 0.09644 0.59652 0.0
C115 C 0.95112 0.1081 0.6869 0.0
C116 C 0.83397 0.11511 0.63901 0.0
C117 C 0.99495 0.08991 0.6438 0.0
C118 C 0.87011 0.12065 0.68452 0.0
N119 N 0.8905 0.07151 0.51013 0.0
C120 C 0.86181 0.06622 0.46461 0.0
C121 C 0.76578 0.10334 0.54638 0.0
C122 C 0.84627 0.09058 0.55063 0.0
C123 C 0.73382 0.09687 0.49964 0.0
C124 C 0.78245 0.07845 0.45861 0.0
H125 H 0.83646 0.13483 0.71801 0.0
H126 H 0.7169 0.14201 0.6671 0.0
H127 H 0.65736 0.13173 0.58613 0.0
O128 O 0.07794 0.07939 0.4849 0.0
O129 O 0.89527 0.03055 0.52393 0.0
O130 O 0.89493 0.98163 0.46094 0.0
O131 O 0.07623 0.10037 0.56385 0.0
O132 O 0.05222 0.02655 0.44378 0.0
O133 O 0.97066 0.98222 0.41638 0.0
O134 O 0.98671 0.93121 0.4985 0.0
O135 O 0.15035 0.98859 0.4627 0.0
O136 O 0.15207 0.03283 0.53346 0.0
O137 O 0.98111 0.91601 0.42029 0.0
O138 O 0.99054 0.98878 0.54581 0.0
O139 O 0.07503 0.03233 0.57328 0.0
C140 C 0.85432 1.00582 0.49326 0.0
C141 C 0.1826 0.11767 0.52512 0.0
C142 C 0.26556 0.15994 0.52131 0.0
C143 C 0.34152 0.14778 0.53231 0.0
C144 C 0.25899 0.10555 0.53546 0.0
C145 C 0.33822 0.12059 0.53892 0.0
C146 C 0.18616 0.14459 0.51738 0.0
C147 C 1.00557 1.00531 0.40995 0.0
C148 C 0.09803 0.10348 0.52446 0.0
C149 C 0.75344 0.12767 0.63483 0.0
C150 C 0.71955 0.12185 0.58869 0.0
C151 C 0.1929 0.01071 0.49771 0.0
C152 C 0.88058 0.89425 0.45592 0.0
C153 C 0.79675 0.85449 0.46766 0.0
C154 C 0.72151 0.86498 0.4527 0.0
C155 C 0.80478 0.90441 0.44153 0.0
C156 C 0.87648 0.8694 0.46914 0.0
C157 C 0.72564 0.88983 0.43997 0.0
C158 C 1.03157 0.01119 0.58098 0.0
C159 C 0.96437 0.90919 0.45693 0.0
H160 H 0.40348 0.15922 0.53539 0.0
H161 H 0.25709 0.08477 0.54144 0.0
H162 H 0.3971 0.11129 0.54714 0.0
H163 H 0.12691 0.15405 0.50964 0.0
H164 H 0.65945 0.85373 0.45018 0.0
H165 H 0.80725 0.92339 0.43108 0.0
H166 H 0.93518 0.86194 0.48095 0.0
H167 H 0.66737 0.89767 0.4285 0.0
Eu168 Eu 0.52383 0.46369 0.96636 0.0
C169 C 0.69928 0.58817 0.08192 0.0
N170 N 0.62393 0.57761 0.09314 0.0
C171 C 0.66723 0.59577 0.17673 0.0
C172 C 0.76256 0.60256 0.11808 0.0
C173 C 0.60639 0.58157 0.13973 0.0
C174 C 0.74573 0.60624 0.16586 0.0
C175 C 0.793 0.59376 0.02111 0.0
C176 C 0.71454 0.5836 0.03364 0.0
C177 C 0.85596 0.60813 0.05717 0.0
C178 C 0.84081 0.61251 0.10544 0.0
Eu179 Eu 0.52529 0.55564 0.0284 0.0
N180 N 0.65347 0.56888 -0.00107 0.0
C181 C 0.80569 0.58939 0.97269 0.0
C182 C 0.66309 0.56648 0.95258 0.0
C183 C 0.73996 0.57604 0.93845 0.0
H184 H 0.54478 0.57444 0.14873 0.0
H185 H 0.74775 0.57367 0.90138 0.0
H186 H 0.5554 0.43902 0.84513 0.0
H187 H 0.26237 0.43946 0.06706 0.0
H188 H 0.61074 0.55836 0.92685 0.0
H189 H 0.86507 0.59691 0.96164 0.0
H190 H 0.4006 0.46237 0.05714 0.0
H191 H 0.65329 0.59884 0.21366 0.0
H192 H 0.91669 0.616 0.0481 0.0
H193 H 0.89024 0.62358 0.13274 0.0
H194 H 0.47721 0.40808 0.76892 0.0
H195 H 0.79278 0.6172 0.19464 0.0
H196 H 0.17645 0.40719 0.99429 0.0
N197 N 0.45638 0.43456 0.89109 0.0
C198 C 0.37975 0.42115 0.89376 0.0
C199 C 0.44883 0.41176 0.80379 0.0
C200 C 0.33398 0.40267 0.85107 0.0
C201 C 0.49234 0.42967 0.84706 0.0
C202 C 0.36915 0.39831 0.80578 0.0
N203 N 0.39034 0.44482 0.98011 0.0
C204 C 0.36257 0.44905 0.0254 0.0
C205 C 0.26782 0.41209 0.94327 0.0
C206 C 0.34675 0.42588 0.93941 0.0
C207 C 0.23685 0.41739 0.9898 0.0
C208 C 0.28484 0.43575 0.03101 0.0
H209 H 0.33582 0.38432 0.77216 0.0
H210 H 0.21887 0.37484 0.82243 0.0
H211 H 0.16116 0.38303 0.90304 0.0
O212 O 0.57656 0.43712 0.0039 0.0
O213 O 0.39212 0.48688 0.96963 0.0
O214 O 0.39154 0.53657 0.0311 0.0
O215 O 0.57883 0.41799 0.92504 0.0
O216 O 0.54885 0.48988 0.04748 0.0
O217 O 0.46924 0.53483 0.07721 0.0
O218 O 0.47872 0.59068 0.00475 0.0
O219 O 0.64652 0.52834 0.03107 0.0
O220 O 0.64933 0.48581 0.95828 0.0
O221 O 0.4888 0.60127 0.08159 0.0
O222 O 0.48679 0.53065 0.94835 0.0
O223 O 0.57126 0.48696 0.91953 0.0
C224 C 0.35132 0.51204 -0.00054 0.0
C225 C 0.68531 0.40055 0.96377 0.0
C226 C 0.77236 0.36025 0.97174 0.0
C227 C 0.84805 0.37468 0.96532 0.0
C228 C 0.76129 0.41465 0.95751 0.0
C229 C 0.84234 0.40166 0.95818 0.0
C230 C 0.6909 0.37338 0.97073 0.0
C231 C 0.50266 0.51095 0.08209 0.0
C232 C 0.5996 0.41392 0.96374 0.0
C233 C 0.25497 0.38908 0.85485 0.0
C234 C 0.22212 0.39371 0.90077 0.0
C235 C 0.68989 0.50743 0.99472 0.0
C236 C 0.39193 0.63201 0.05982 0.0
C237 C 0.32187 0.67644 0.05428 0.0
C238 C 0.2599 0.67649 0.08878 0.0
C239 C 0.32799 0.63215 0.09313 0.0
C240 C 0.38818 0.65397 0.0401 0.0
C241 C 0.26261 0.65437 0.10756 0.0
C242 C 0.52622 0.50801 0.91242 0.0
C243 C 0.4678 0.61141 0.0492 0.0
H244 H 0.91163 0.36492 0.96534 0.0
H245 H 0.75782 0.43561 0.95212 0.0
H246 H 0.90096 0.41255 0.95318 0.0
H247 H 0.63188 0.36278 0.97617 0.0
H248 H 0.20981 0.69398 0.10206 0.0
H249 H 0.32975 0.61558 0.10895 0.0
H250 H 0.43747 0.65364 0.01415 0.0
H251 H 0.21455 0.65478 0.13409 0.0
Eu252 Eu 0.54176 0.55731 0.52205 0.0
C253 C 0.70697 0.43564 0.41007 0.0
N254 N 0.62652 0.44506 0.40298 0.0
C255 C 0.6572 0.42804 0.31761 0.0
C256 C 0.76726 0.42359 0.3713 0.0
C257 C 0.59914 0.43925 0.35685 0.0
C258 C 0.74222 0.42079 0.32505 0.0
C259 C 0.80828 0.42474 0.46281 0.0
C260 C 0.72764 0.43612 0.45539 0.0
C261 C 0.86959 0.41407 0.42485 0.0
C262 C 0.84924 0.41358 0.37929 0.0
Eu263 Eu 0.53636 0.46443 0.47323 0.0
N264 N 0.66849 0.44746 0.49223 0.0
C265 C 0.82449 0.42407 0.50807 0.0
C266 C 0.68196 0.44564 0.53569 0.0
C267 C 0.76059 0.43419 0.54443 0.0
H268 H 0.5321 0.44247 0.34955 0.0
H269 H 0.77208 0.43335 0.57923 0.0
H270 H 0.46993 0.57408 0.63605 0.0
H271 H 0.41641 0.59213 0.38359 0.0
H272 H 0.63247 0.45369 0.56378 0.0
H273 H 0.88565 0.41542 0.51509 0.0
H274 H 0.5203 0.56795 0.41914 0.0
H275 H 0.6357 0.42435 0.28144 0.0
H276 H 0.93238 0.40561 0.43006 0.0
H277 H 0.89653 0.40456 0.35001 0.0
H278 H 0.34876 0.60224 0.68941 0.0
H279 H 0.78669 0.41167 0.29439 0.0
H280 H 0.28953 0.62071 0.43195 0.0
N281 N 0.42729 0.58264 0.57583 0.0
C282 C 0.37069 0.59823 0.55972 0.0
C283 C 0.35359 0.60098 0.65283 0.0
C284 C 0.30083 0.61489 0.58928 0.0
C285 C 0.42159 0.58461 0.62216 0.0
C286 C 0.29252 0.61598 0.63621 0.0
N287 N 0.44844 0.58002 0.48473 0.0
C288 C 0.46291 0.57899 0.43948 0.0
C289 C 0.32173 0.61169 0.49461 0.0
C290 C 0.38117 0.59664 0.5128 0.0
C291 C 0.33398 0.60956 0.44729 0.0
C292 C 0.40522 0.5933 0.41975 0.0
H293 H 0.23981 0.62861 0.66007 0.0
H294 H 0.18734 0.6427 0.5933 0.0
H295 H 0.20546 0.63986 0.51053 0.0
O296 O 0.59236 0.59904 0.51805 0.0
O297 O 0.40472 0.53695 0.51607 0.0
O298 O 0.40026 0.48327 0.47555 0.0
O299 O 0.62517 0.5887 0.58027 0.0
O300 O 0.57291 0.52655 0.4434 0.0
O301 O 0.48489 0.48419 0.42147 0.0
O302 O 0.49158 0.43361 0.50516 0.0
O303 O 0.65709 0.49305 0.50991 0.0
O304 O 0.6573 0.5293 0.48 0.0
O305 O 0.49535 0.41745 0.42698 0.0
O306 O 0.48806 0.49385 0.54927 0.0
O307 O 0.5726 0.5376 0.57717 0.0
C308 C 0.36249 0.51052 0.49617 0.0
C309 C 0.68455 0.63619 0.58075 0.0
C310 C 0.74265 0.68292 0.57749 0.0
C311 C 0.7839 0.69011 0.62252 0.0
C312 C 0.72667 0.64395 0.62558 0.0
C313 C 0.77583 0.67077 0.64627 0.0
C314 C 0.6922 0.65592 0.55688 0.0
C315 C 0.5197 0.5064 0.4125 0.0
C316 C 0.63284 0.60764 0.55947 0.0
C317 C 0.24155 0.62984 0.57114 0.0
C318 C 0.2519 0.62822 0.52397 0.0
C319 C 0.70003 0.51119 0.49487 0.0
C320 C 0.39278 0.39484 0.46028 0.0
C321 C 0.31276 0.35376 0.46947 0.0
C322 C 0.23483 0.36577 0.46054 0.0
C323 C 0.31481 0.4062 0.45015 0.0
C324 C 0.39178 0.36838 0.46936 0.0
C325 C 0.23604 0.39178 0.4506 0.0
C326 C 0.53147 0.51557 0.58406 0.0
C327 C 0.47519 0.41089 0.46343 0.0
H328 H 0.82166 0.711 0.6398 0.0
H329 H 0.72158 0.6293 0.64479 0.0
H330 H 0.80774 0.67663 0.68096 0.0
H331 H 0.66015 0.65011 0.52218 0.0
H332 H 0.1733 0.35477 0.46067 0.0
H333 H 0.315 0.42622 0.44212 0.0
H334 H 0.45204 0.35944 0.47702 0.0
H335 H 0.17584 0.40079 0.44326 0.0
H336 H 0.45728 0.70599 0.03114 0.0
H337 H 0.17652 0.70127 0.03248 0.0
H338 H 0.44789 0.74779 0.00529 0.0
H339 H 0.16724 0.74445 0.01075 0.0
H340 H 0.17076 0.809 0.93673 0.0
H341 H 0.18486 0.76258 0.95055 0.0
H342 H 0.41294 0.80063 0.03896 0.0
H343 H 0.39956 0.84666 0.0243 0.0
C344 C 0.39353 0.71367 0.02574 0.0
C345 C 0.31761 0.7004 0.03472 0.0
C346 C 0.38813 0.73804 0.01161 0.0
C347 C 0.30675 0.74995 0.00654 0.0
C348 C 0.23112 0.73591 0.01384 0.0
C349 C 0.2365 0.71135 0.02722 0.0
C350 C 0.22374 0.80748 0.95924 0.0
C351 C 0.28422 0.83155 0.97926 0.0
C352 C 0.23191 0.78081 0.96722 0.0
C353 C 0.3003 0.77765 0.99582 0.0
C354 C 0.36059 0.80181 0.01584 0.0
C355 C 0.35272 0.82835 0.0076 0.0
H356 H 0.67542 0.30767 0.92974 0.0
H357 H 0.88345 0.34862 0.03242 0.0
H358 H 0.68882 0.2606 0.94169 0.0
H359 H 0.89484 0.30224 0.04622 0.0
H360 H 0.94694 0.20792 0.03694 0.0
H361 H 0.9394 0.25141 0.01549 0.0
H362 H 0.66162 0.23837 0.99453 0.0
H363 H 0.67067 0.19315 0.01079 0.0
C364 C 0.72348 0.30668 0.95527 0.0
C365 C 0.77875 0.33178 0.97992 0.0
C366 C 0.7311 0.2797 0.96234 0.0
C367 C 0.7932 0.27732 0.99493 0.0
C368 C 0.84771 0.3027 0.01993 0.0
C369 C 0.84089 0.32947 0.01229 0.0
C370 C 0.88451 0.21379 0.02661 0.0
C371 C 0.8092 0.19696 0.02628 0.0
C372 C 0.87988 0.23924 0.01513 0.0
C373 C 0.79963 0.24893 0.00385 0.0
C374 C 0.72488 0.23166 0.00248 0.0
C375 C 0.72982 0.20589 0.01287 0.0
H376 H 0.33114 0.21484 0.58455 0.0
H377 H 0.20832 0.17012 0.44372 0.0
H378 H 0.34412 0.26229 0.57281 0.0
H379 H 0.22238 0.21754 0.43159 0.0
H380 H 0.36866 0.29651 0.40944 0.0
H381 H 0.35454 0.24927 0.42223 0.0
H382 H 0.23875 0.3017 0.56346 0.0
H383 H 0.25153 0.3487 0.55006 0.0
C384 C 0.30709 0.21525 0.55109 0.0
C385 C 0.26939 0.1889 0.51487 0.0
C386 C 0.31413 0.24235 0.54448 0.0
C387 C 0.2849 0.24342 0.50116 0.0
C388 C 0.24627 0.21715 0.46509 0.0
C389 C 0.23774 0.19018 0.47212 0.0
C390 C 0.3407 0.29777 0.44321 0.0
C391 C 0.31089 0.32593 0.4788 0.0
C392 C 0.33207 0.27087 0.45039 0.0
C393 C 0.29502 0.2719 0.49368 0.0
C394 C 0.26761 0.30033 0.52983 0.0
C395 C 0.27478 0.3271 0.52224 0.0
H396 H 0.91333 0.80707 0.44738 0.0
H397 H 0.66809 0.84211 0.51949 0.0
H398 H 0.90071 0.76298 0.46779 0.0
H399 H 0.65531 0.7981 0.53952 0.0
H400 H 0.61633 0.70339 0.53384 0.0
H401 H 0.63088 0.74297 0.50294 0.0
H402 H 0.90506 0.75066 0.53737 0.0
H403 H 0.89108 0.71044 0.56629 0.0
C404 C 0.85703 0.80551 0.46784 0.0
C405 C 0.79135 0.82806 0.48142 0.0
C406 C 0.84963 0.78016 0.47939 0.0
C407 C 0.77641 0.77677 0.50478 0.0
C408 C 0.71144 0.79953 0.51884 0.0
C409 C 0.71892 0.82485 0.50743 0.0
C410 C 0.67994 0.71312 0.53385 0.0
C411 C 0.75233 0.70411 0.55315 0.0
C412 C 0.68815 0.73604 0.5167 0.0
C413 C 0.76895 0.75032 0.51833 0.0
C414 C 0.84197 0.74014 0.53537 0.0
C415 C 0.83377 0.71729 0.55245 0.0
H416 H 0.30029 0.03412 0.07271 0.0
H417 H 0.304 0.98174 0.91659 0.0
H418 H 0.45808 0.03561 0.07386 0.0
H419 H 0.46178 0.98431 0.91682 0.0
H420 H 0.7463 0.96987 0.93153 0.0
H421 H 0.5896 0.96742 0.93262 0.0
H422 H 0.58385 0.05491 0.05912 0.0
H423 H 0.74173 0.05497 0.06147 0.0
C424 C 0.33505 0.02317 0.03847 0.0
C425 C 0.28958 1.0078 0.99458 0.0
C426 C 0.42606 0.02418 0.03897 0.0
C427 C 0.47443 1.01009 0.99543 0.0
C428 C 0.42818 0.99489 0.95143 0.0
C429 C 0.33717 0.99354 0.95111 0.0
C430 C 0.71196 0.98806 0.96059 0.0
C431 C 0.75752 0.01207 0.99727 0.0
C432 C 0.62105 0.98714 0.96051 0.0
C433 C 0.5722 0.01098 0.99595 0.0
C434 C 0.61803 0.03561 0.0318 0.0
C435 C 0.70923 0.03594 0.03277 0.0
H436 H 0.30012 0.98339 0.41914 0.0
H437 H 0.30328 0.03619 0.57513 0.0
H438 H 0.4576 0.98248 0.41761 0.0
H439 H 0.46077 0.03353 0.57486 0.0
H440 H 0.74602 0.04658 0.56232 0.0
H441 H 0.58951 0.04931 0.56141 0.0
H442 H 0.58478 0.96473 0.42936 0.0
H443 H 0.74202 0.96536 0.42638 0.0
C444 C 0.33483 0.99457 0.45329 0.0
C445 C 0.28929 1.01004 0.49719 0.0
C446 C 0.42583 0.9938 0.45264 0.0
C447 C 0.47419 1.00793 0.49612 0.0
C448 C 0.42762 0.02303 0.54019 0.0
C449 C 0.33663 0.02439 0.54058 0.0
C450 C 0.71175 0.02911 0.53224 0.0
C451 C 0.75745 1.00598 0.49412 0.0
C452 C 0.62085 0.03014 0.53233 0.0
C453 C 0.5721 1.00713 0.49548 0.0
C454 C 0.61833 0.98344 0.45799 0.0
C455 C 0.70943 0.98328 0.45682 0.0
H456 H 0.8011 0.48234 0.91726 0.0
H457 H 0.79694 0.53382 0.07359 0.0
H458 H 0.959 0.48463 0.91779 0.0
H459 H 0.9548 0.53524 0.07492 0.0
H460 H 0.23857 0.5553 0.06207 0.0
H461 H 0.0805 0.55501 0.05995 0.0
H462 H 0.0863 0.46723 0.93408 0.0
H463 H 0.24302 0.46963 0.93301 0.0
C464 C 0.83415 0.49395 0.95187 0.0
C465 C 0.78641 0.50809 0.99532 0.0
C466 C 0.92519 0.49513 0.95235 0.0
C467 C 0.97128 0.5101 0.99647 0.0
C468 C 0.92279 0.52403 0.03998 0.0
C469 C 0.83177 0.52311 0.03934 0.0
C470 C 0.20603 0.53606 0.03369 0.0
C471 C 0.25432 0.51206 -0.00159 0.0
C472 C 0.11479 0.53566 0.0328 0.0
C473 C 0.06901 0.51093 0.99711 0.0
C474 C 0.11783 0.487 0.96185 0.0
C475 C 0.20873 0.48791 0.96195 0.0
H476 H 0.25116 0.469 0.50613 0.0
H477 H 0.25351 0.55364 0.48821 0.0
H478 H 0.09256 0.46876 0.50437 0.0
H479 H 0.09513 0.55495 0.49015 0.0
H480 H 0.81082 0.53148 0.44347 0.0
H481 H 0.96965 0.53141 0.44382 0.0
H482 H 0.96749 0.49315 0.55061 0.0
H483 H 0.80901 0.49364 0.55041 0.0
C484 C 0.21783 0.48756 0.50168 0.0
C485 C 0.26547 0.51127 0.49704 0.0
C486 C 0.12656 0.48776 0.50156 0.0
C487 C 0.08005 0.51188 0.4972 0.0
C488 C 0.128 0.53575 0.49298 0.0
C489 C 0.21929 0.53536 0.49277 0.0
C490 C 0.84434 0.52314 0.46712 0.0
C491 C 0.79698 0.51196 0.49618 0.0
C492 C 0.93567 0.52318 0.46748 0.0
C493 C 0.98232 0.51209 0.49703 0.0
C494 C 0.93452 0.50128 0.52657 0.0
C495 C 0.84329 0.50145 0.52638 0.0
H496 H 0.12509 0.02977 0.3703 0.0
H497 H 0.87904 0.98182 0.34037 0.0
H498 H 0.12049 0.03159 0.2908 0.0
H499 H 0.87396 0.98423 0.26052 0.0
H500 H 0.87776 0.03492 0.15125 0.0
H501 H 0.87315 0.03245 0.23109 0.0
H502 H 0.12086 0.98565 0.20042 0.0
H503 H 0.125 0.98752 0.12096 0.0
C504 C 0.06981 0.01973 0.34677 0.0
C505 C 1.00242 1.00558 0.36133 0.0
C506 C 0.06737 0.02075 0.30134 0.0
C507 C 0.99677 1.00816 0.26993 0.0
C508 C 0.92873 0.99426 0.28448 0.0
C509 C 0.93199 0.99267 0.32975 0.0
C510 C 0.93105 0.02416 0.16178 0.0
C511 C 1.00168 0.01142 0.1301 0.0
C512 C 0.92806 0.02255 0.20705 0.0
C513 C 0.9966 1.00879 0.22148 0.0
C514 C 0.06737 0.99637 0.18997 0.0
C515 C 0.06953 0.99741 0.14455 0.0
H516 H 0.90425 0.02953 0.87194 0.0
H517 H 0.15434 0.98411 0.84042 0.0
H518 H 0.90496 0.03105 0.7919 0.0
H519 H 0.15548 0.98613 0.76053 0.0
H520 H 0.90572 0.98885 0.62049 0.0
H521 H 0.9055 0.98771 0.70074 0.0
H522 H 0.15555 0.03273 0.73212 0.0
H523 H 0.15532 0.03439 0.65193 0.0
C524 C 0.95925 0.01986 0.84784 0.0
C525 C 1.02907 1.0066 0.86215 0.0
C526 C 0.95953 0.02069 0.80215 0.0
C527 C 1.03042 1.00883 0.7704 0.0
C528 C 0.10041 0.9956 0.78466 0.0
C529 C 0.09937 0.99422 0.83003 0.0
C530 C 0.96046 0.99861 0.64461 0.0
C531 C 1.03046 0.01175 0.63018 0.0
C532 C 0.96015 0.99802 0.69045 0.0
C533 C 1.03062 1.01002 0.72228 0.0
C534 C 0.10078 0.02317 0.70794 0.0
C535 C 0.1003 0.02432 0.66238 0.0
H536 H 0.64814 0.51907 0.36228 0.0
H537 H 0.3793 0.49095 0.35129 0.0
H538 H 0.63942 0.51991 0.28219 0.0
H539 H 0.37022 0.4921 0.27057 0.0
H540 H 0.38589 0.53822 0.15704 0.0
H541 H 0.38542 0.53548 0.23665 0.0
H542 H 0.61545 0.47853 0.1949 0.0
H543 H 0.61585 0.48095 0.11603 0.0
C544 C 0.58713 0.51304 0.34258 0.0
C545 C 0.51423 0.50501 0.36283 0.0
C546 C 0.58224 0.51345 0.29676 0.0
C547 C 0.50406 0.5062 0.27039 0.0
C548 C 0.431 0.49803 0.29046 0.0
C549 C 0.43635 0.4971 0.33622 0.0
C550 C 0.43616 0.52514 0.16502 0.0
C551 C 0.50094 0.50988 0.13037 0.0
C552 C 0.43547 0.52338 0.21027 0.0
C553 C 0.50043 0.50679 0.22175 0.0
C554 C 0.56488 0.49157 0.18704 0.0
C555 C 0.56483 0.49293 0.14181 0.0
H556 H 0.40663 0.4922 0.62255 0.0
H557 H 0.655 0.53857 0.65554 0.0
H558 H 0.40611 0.49032 0.70216 0.0
H559 H 0.65499 0.53609 0.73525 0.0
H560 H 0.65233 0.48621 0.84237 0.0
H561 H 0.65523 0.48916 0.76317 0.0
H562 H 0.40329 0.53305 0.79348 0.0
H563 H 0.40089 0.53065 0.87292 0.0
C564 C 0.46117 0.50196 0.64684 0.0
C565 C 0.53085 0.51557 0.63296 0.0
C566 C 0.46063 0.50095 0.69238 0.0
C567 C 0.53055 0.51298 0.72459 0.0
C568 C 0.60057 0.52651 0.7108 0.0
C569 C 0.60027 0.52812 0.6655 0.0
C570 C 0.5974 0.4963 0.83191 0.0
C571 C 0.52619 0.50812 0.86358 0.0
C572 C 0.59949 0.49823 0.78692 0.0
C573 C 0.52963 0.51143 0.77252 0.0
C574 C 0.45784 0.52274 0.80383 0.0
C575 C 0.45654 0.52139 0.84917 0.0
loop_
_geom_bond_atom_site_label_1
_geom_bond_atom_site_label_2
_geom_bond_distance
_geom_bond_site_symmetry_2
_ccdc_geom_bond_type
Eu0 N29 2.600 . S
Eu0 N35 2.562 . S
Eu0 O44 2.462 1_655 S
Eu0 O45 2.373 . S
Eu0 O47 2.432 1_655 S
Eu0 O48 2.291 1_556 S
Eu0 O52 2.335 1_655 S
Eu0 O55 2.372 1_655 S
Eu0 C64 2.787 1_655 S
C1 N2 1.365 . S
C1 C4 1.405 . S
C1 C8 1.448 . S
N2 C1 1.365 . S
N2 C5 1.319 . S
N2 Eu11 2.600 . S
C3 C5 1.397 . S
C3 C6 1.367 . S
C3 H23 0.931 . S
C4 C1 1.405 . S
C4 C6 1.403 . S
C4 C10 1.439 . S
C5 N2 1.319 . S
C5 C3 1.397 . S
C5 H16 0.930 . S
C6 C3 1.367 . S
C6 C4 1.403 . S
C6 H27 0.929 . S
C7 C8 1.430 . S
C7 C9 1.387 . S
C7 C13 1.404 . S
C8 C1 1.448 . S
C8 C7 1.430 . S
C8 N12 1.351 . S
C9 C7 1.387 . S
C9 C10 1.374 . S
C9 H24 0.931 . S
C10 C4 1.439 . S
C10 C9 1.374 . S
C10 H25 0.931 . S
Eu11 N2 2.600 . S
Eu11 N12 2.562 . S
Eu11 O46 2.335 1_455 S
Eu11 O49 2.372 1_455 S
Eu11 O50 2.462 1_455 S
Eu11 O51 2.373 . S
Eu11 O53 2.432 1_455 S
Eu11 O54 2.291 1_554 S
Eu11 C75 2.787 1_455 S
N12 C8 1.351 . S
N12 Eu11 2.562 . S
N12 C14 1.325 1_554 S
C13 C7 1.404 . S
C13 C15 1.366 1_554 S
C13 H21 0.930 1_554 S
C14 N12 1.325 1_556 S
C14 C15 1.416 . S
C14 H20 0.929 . S
C15 C13 1.366 1_556 S
C15 C14 1.416 . S
C15 H17 0.930 . S
H16 C5 0.930 . S
H17 C15 0.930 . S
H18 C33 0.930 . S
H19 C40 0.930 . S
H20 C14 0.929 . S
H21 C13 0.930 1_556 S
H22 C36 0.929 . S
H23 C3 0.931 . S
H24 C9 0.931 . S
H25 C10 0.931 . S
H26 C31 0.931 . S
H27 C6 0.929 . S
H28 C39 0.930 1_554 S
N29 Eu0 2.600 . S
N29 C30 1.365 . S
N29 C33 1.319 . S
C30 N29 1.365 . S
C30 C32 1.405 . S
C30 C38 1.448 . S
C31 H26 0.931 . S
C31 C33 1.397 . S
C31 C34 1.367 . S
C32 C30 1.405 . S
C32 C34 1.403 . S
C32 C65 1.439 . S
C33 H18 0.930 . S
C33 N29 1.319 . S
C33 C31 1.397 . S
C34 C31 1.367 . S
C34 C32 1.403 . S
C34 H41 0.929 . S
N35 Eu0 2.562 . S
N35 C36 1.325 1_556 S
N35 C38 1.351 . S
C36 H22 0.929 . S
C36 N35 1.325 1_554 S
C36 C40 1.416 . S
C37 C38 1.430 . S
C37 C39 1.404 . S
C37 C66 1.387 . S
C38 C30 1.448 . S
C38 N35 1.351 . S
C38 C37 1.430 . S
C39 H28 0.930 1_556 S
C39 C37 1.404 . S
C39 C40 1.366 1_556 S
C40 H19 0.930 . S
C40 C36 1.416 . S
C40 C39 1.366 1_554 S
H41 C34 0.929 . S
H42 C65 0.931 . S
H43 C66 0.931 . S
O44 Eu0 2.462 1_455 S
O44 C64 1.252 . S
O45 Eu0 2.373 . S
O45 C56 1.249 1_565 S
O46 Eu11 2.335 1_655 S
O46 C56 1.264 1_554 S
O47 Eu0 2.432 1_455 S
O47 C64 1.268 . S
O48 Eu0 2.291 1_554 S
O48 C63 1.255 1_565 S
O49 Eu11 2.372 1_655 S
O49 C63 1.257 . S
O50 Eu11 2.462 1_655 S
O50 C75 1.252 . S
O51 Eu11 2.373 . S
O51 C67 1.249 1_545 S
O52 Eu0 2.335 1_455 S
O52 C67 1.264 1_556 S
O53 Eu11 2.432 1_655 S
O53 C75 1.268 . S
O54 Eu11 2.291 1_556 S
O54 C74 1.255 1_545 S
O55 Eu0 2.372 1_455 S
O55 C74 1.257 . S
C56 O45 1.249 1_545 S
C56 O46 1.264 1_556 S
C57 C60 1.382 . S
C57 C62 1.390 . S
C57 C64 1.506 . S
C58 C59 1.398 . S
C58 C62 1.392 . S
C59 C58 1.398 . S
C59 C61 1.372 . S
C59 H76 0.931 . S
C60 C57 1.382 . S
C60 C61 1.390 . S
C60 H77 0.931 . S
C61 C59 1.372 . S
C61 C60 1.390 . S
C61 H78 0.929 . S
C62 C57 1.390 . S
C62 C58 1.392 . S
C62 H79 0.930 1_556 S
C63 O48 1.255 1_545 S
C63 O49 1.257 . S
C64 Eu0 2.787 1_455 S
C64 O44 1.252 . S
C64 O47 1.268 . S
C64 C57 1.506 . S
C65 C32 1.439 . S
C65 H42 0.931 . S
C65 C66 1.374 . S
C66 C37 1.387 . S
C66 H43 0.931 . S
C66 C65 1.374 . S
C67 O51 1.249 1_565 S
C67 O52 1.264 1_554 S
C68 C71 1.382 . S
C68 C72 1.390 . S
C68 C75 1.506 . S
C69 C70 1.398 . S
C69 C72 1.392 . S
C70 C69 1.398 . S
C70 C73 1.372 . S
C70 H80 0.931 . S
C71 C68 1.382 . S
C71 C73 1.390 . S
C71 H81 0.931 . S
C72 C68 1.390 . S
C72 C69 1.392 . S
C72 H82 0.930 1_554 S
C73 C70 1.372 . S
C73 C71 1.390 . S
C73 H83 0.929 . S
C74 O54 1.255 1_565 S
C74 O55 1.257 . S
C75 Eu11 2.787 1_655 S
C75 O50 1.252 . S
C75 O53 1.268 . S
C75 C68 1.506 . S
H76 C59 0.931 . S
H77 C60 0.931 . S
H78 C61 0.929 . S
H79 C62 0.930 1_554 S
H80 C70 0.931 . S
H81 C71 0.931 . S
H82 C72 0.930 1_556 S
H83 C73 0.929 . S
Eu84 N113 2.600 . S
Eu84 N119 2.562 . S
Eu84 O128 2.462 1_655 S
Eu84 O129 2.373 . S
Eu84 O131 2.432 1_655 S
Eu84 O132 2.291 . S
Eu84 O136 2.335 1_655 S
Eu84 O139 2.372 1_655 S
Eu84 C148 2.787 1_655 S
C85 N86 1.365 . S
C85 C88 1.405 . S
C85 C92 1.448 . S
N86 C85 1.365 . S
N86 C89 1.319 . S
N86 Eu95 2.600 . S
C87 C89 1.397 . S
C87 C90 1.367 . S
C87 H107 0.931 . S
C88 C85 1.405 . S
C88 C90 1.403 . S
C88 C94 1.439 . S
C89 N86 1.319 . S
C89 C87 1.397 . S
C89 H100 0.930 . S
C90 C87 1.367 . S
C90 C88 1.403 . S
C90 H111 0.929 . S
C91 C92 1.430 . S
C91 C93 1.387 . S
C91 C97 1.404 . S
C92 C85 1.448 . S
C92 C91 1.430 . S
C92 N96 1.351 . S
C93 C91 1.387 . S
C93 C94 1.374 . S
C93 H108 0.931 . S
C94 C88 1.439 . S
C94 C93 1.374 . S
C94 H109 0.931 . S
Eu95 N86 2.600 . S
Eu95 N96 2.562 . S
Eu95 O130 2.335 1_455 S
Eu95 O133 2.372 1_455 S
Eu95 O134 2.462 1_455 S
Eu95 O135 2.373 . S
Eu95 O137 2.432 1_455 S
Eu95 O138 2.291 . S
Eu95 C159 2.787 1_455 S
N96 C92 1.351 . S
N96 Eu95 2.562 . S
N96 C98 1.325 . S
C97 C91 1.404 . S
C97 C99 1.366 . S
C97 H105 0.930 . S
C98 N96 1.325 . S
C98 C99 1.416 . S
C98 H104 0.929 . S
C99 C97 1.366 . S
C99 C98 1.416 . S
C99 H101 0.930 . S
H100 C89 0.930 . S
H101 C99 0.930 . S
H102 C117 0.930 . S
H103 C124 0.930 . S
H104 C98 0.929 . S
H105 C97 0.930 . S
H106 C120 0.929 . S
H107 C87 0.931 . S
H108 C93 0.931 . S
H109 C94 0.931 . S
H110 C115 0.931 . S
H111 C90 0.929 . S
H112 C123 0.930 . S
N113 Eu84 2.600 . S
N113 C114 1.365 . S
N113 C117 1.319 . S
C114 N113 1.365 . S
C114 C116 1.405 . S
C114 C122 1.448 . S
C115 H110 0.931 . S
C115 C117 1.397 . S
C115 C118 1.367 . S
C116 C114 1.405 . S
C116 C118 1.403 . S
C116 C149 1.439 . S
C117 H102 0.930 . S
C117 N113 1.319 . S
C117 C115 1.397 . S
C118 C115 1.367 . S
C118 C116 1.403 . S
C118 H125 0.929 . S
N119 Eu84 2.562 . S
N119 C120 1.325 . S
N119 C122 1.351 . S
C120 H106 0.929 . S
C120 N119 1.325 . S
C120 C124 1.416 . S
C121 C122 1.430 . S
C121 C123 1.404 . S
C121 C150 1.387 . S
C122 C114 1.448 . S
C122 N119 1.351 . S
C122 C121 1.430 . S
C123 H112 0.930 . S
C123 C121 1.404 . S
C123 C124 1.366 . S
C124 H103 0.930 . S
C124 C120 1.416 . S
C124 C123 1.366 . S
H125 C118 0.929 . S
H126 C149 0.931 . S
H127 C150 0.931 . S
O128 Eu84 2.462 1_455 S
O128 C148 1.252 . S
O129 Eu84 2.373 . S
O129 C140 1.249 1_545 S
O130 Eu95 2.335 1_655 S
O130 C140 1.264 . S
O131 Eu84 2.432 1_455 S
O131 C148 1.268 . S
O132 Eu84 2.291 . S
O132 C147 1.255 1_545 S
O133 Eu95 2.372 1_655 S
O133 C147 1.257 . S
O134 Eu95 2.462 1_655 S
O134 C159 1.252 . S
O135 Eu95 2.373 . S
O135 C151 1.249 1_565 S
O136 Eu84 2.335 1_455 S
O136 C151 1.264 . S
O137 Eu95 2.432 1_655 S
O137 C159 1.268 . S
O138 Eu95 2.291 . S
O138 C158 1.255 1_565 S
O139 Eu84 2.372 1_455 S
O139 C158 1.257 . S
C140 O129 1.249 1_565 S
C140 O130 1.264 . S
C141 C144 1.382 . S
C141 C146 1.390 . S
C141 C148 1.506 . S
C142 C143 1.398 . S
C142 C146 1.392 . S
C143 C142 1.398 . S
C143 C145 1.372 . S
C143 H160 0.931 . S
C144 C141 1.382 . S
C144 C145 1.390 . S
C144 H161 0.931 . S
C145 C143 1.372 . S
C145 C144 1.390 . S
C145 H162 0.929 . S
C146 C141 1.390 . S
C146 C142 1.392 . S
C146 H163 0.930 . S
C147 O132 1.255 1_565 S
C147 O133 1.257 . S
C148 Eu84 2.787 1_455 S
C148 O128 1.252 . S
C148 O131 1.268 . S
C148 C141 1.506 . S
C149 C116 1.439 . S
C149 H126 0.931 . S
C149 C150 1.374 . S
C150 C121 1.387 . S
C150 H127 0.931 . S
C150 C149 1.374 . S
C151 O135 1.249 1_545 S
C151 O136 1.264 . S
C152 C155 1.382 . S
C152 C156 1.390 . S
C152 C159 1.506 . S
C153 C154 1.398 . S
C153 C156 1.392 . S
C154 C153 1.398 . S
C154 C157 1.372 . S
C154 H164 0.931 . S
C155 C152 1.382 . S
C155 C157 1.390 . S
C155 H165 0.931 . S
C156 C152 1.390 . S
C156 C153 1.392 . S
C156 H166 0.930 . S
C157 C154 1.372 . S
C157 C155 1.390 . S
C157 H167 0.929 . S
C158 O138 1.255 1_545 S
C158 O139 1.257 . S
C159 Eu95 2.787 1_655 S
C159 O134 1.252 . S
C159 O137 1.268 . S
C159 C152 1.506 . S
H160 C143 0.931 . S
H161 C144 0.931 . S
H162 C145 0.929 . S
H163 C146 0.930 . S
H164 C154 0.931 . S
H165 C155 0.931 . S
H166 C156 0.930 . S
H167 C157 0.929 . S
Eu168 N197 2.600 . S
Eu168 N203 2.562 . S
Eu168 O212 2.462 . S
Eu168 O213 2.373 . S
Eu168 O215 2.432 . S
Eu168 O216 2.291 1_556 S
Eu168 O220 2.335 . S
Eu168 O223 2.372 . S
Eu168 C232 2.787 . S
C169 N170 1.365 . S
C169 C172 1.405 . S
C169 C176 1.448 . S
N170 C169 1.365 . S
N170 C173 1.319 . S
N170 Eu179 2.600 . S
C171 C173 1.397 . S
C171 C174 1.367 . S
C171 H191 0.931 . S
C172 C169 1.405 . S
C172 C174 1.403 . S
C172 C178 1.439 . S
C173 N170 1.319 . S
C173 C171 1.397 . S
C173 H184 0.930 . S
C174 C171 1.367 . S
C174 C172 1.403 . S
C174 H195 0.929 . S
C175 C176 1.430 . S
C175 C177 1.387 . S
C175 C181 1.404 . S
C176 C169 1.448 . S
C176 C175 1.430 . S
C176 N180 1.351 . S
C177 C175 1.387 . S
C177 C178 1.374 . S
C177 H192 0.931 . S
C178 C172 1.439 . S
C178 C177 1.374 . S
C178 H193 0.931 . S
Eu179 N170 2.600 . S
Eu179 N180 2.562 . S
Eu179 O214 2.335 . S
Eu179 O217 2.372 . S
Eu179 O218 2.462 . S
Eu179 O219 2.373 . S
Eu179 O221 2.432 . S
Eu179 O222 2.291 1_554 S
Eu179 C243 2.787 . S
N180 C176 1.351 . S
N180 Eu179 2.562 . S
N180 C182 1.325 1_554 S
C181 C175 1.404 . S
C181 C183 1.366 1_554 S
C181 H189 0.930 1_554 S
C182 N180 1.325 1_556 S
C182 C183 1.416 . S
C182 H188 0.929 . S
C183 C181 1.366 1_556 S
C183 C182 1.416 . S
C183 H185 0.930 . S
H184 C173 0.930 . S
H185 C183 0.930 . S
H186 C201 0.930 . S
H187 C208 0.930 . S
H188 C182 0.929 . S
H189 C181 0.930 1_556 S
H190 C204 0.929 . S
H191 C171 0.931 . S
H192 C177 0.931 . S
H193 C178 0.931 . S
H194 C199 0.931 . S
H195 C174 0.929 . S
H196 C207 0.930 1_554 S
N197 Eu168 2.600 . S
N197 C198 1.365 . S
N197 C201 1.319 . S
C198 N197 1.365 . S
C198 C200 1.405 . S
C198 C206 1.448 . S
C199 H194 0.931 . S
C199 C201 1.397 . S
C199 C202 1.367 . S
C200 C198 1.405 . S
C200 C202 1.403 . S
C200 C233 1.439 . S
C201 H186 0.930 . S
C201 N197 1.319 . S
C201 C199 1.397 . S
C202 C199 1.367 . S
C202 C200 1.403 . S
C202 H209 0.929 . S
N203 Eu168 2.562 . S
N203 C204 1.325 1_556 S
N203 C206 1.351 . S
C204 H190 0.929 . S
C204 N203 1.325 1_554 S
C204 C208 1.416 . S
C205 C206 1.430 . S
C205 C207 1.404 . S
C205 C234 1.387 . S
C206 C198 1.448 . S
C206 N203 1.351 . S
C206 C205 1.430 . S
C207 H196 0.930 1_556 S
C207 C205 1.404 . S
C207 C208 1.366 1_556 S
C208 H187 0.930 . S
C208 C204 1.416 . S
C208 C207 1.366 1_554 S
H209 C202 0.929 . S
H210 C233 0.931 . S
H211 C234 0.931 . S
O212 Eu168 2.462 . S
O212 C232 1.252 . S
O213 Eu168 2.373 . S
O213 C224 1.249 . S
O214 Eu179 2.335 . S
O214 C224 1.264 1_554 S
O215 Eu168 2.432 . S
O215 C232 1.268 . S
O216 Eu168 2.291 1_554 S
O216 C231 1.255 . S
O217 Eu179 2.372 . S
O217 C231 1.257 . S
O218 Eu179 2.462 . S
O218 C243 1.252 . S
O219 Eu179 2.373 . S
O219 C235 1.249 . S
O220 Eu168 2.335 . S
O220 C235 1.264 1_556 S
O221 Eu179 2.432 . S
O221 C243 1.268 . S
O222 Eu179 2.291 1_556 S
O222 C242 1.255 . S
O223 Eu168 2.372 . S
O223 C242 1.257 . S
C224 O213 1.249 . S
C224 O214 1.264 1_556 S
C225 C228 1.382 . S
C225 C230 1.390 . S
C225 C232 1.506 . S
C226 C227 1.398 . S
C226 C230 1.392 . S
C227 C226 1.398 . S
C227 C229 1.372 . S
C227 H244 0.931 . S
C228 C225 1.382 . S
C228 C229 1.390 . S
C228 H245 0.931 . S
C229 C227 1.372 . S
C229 C228 1.390 . S
C229 H246 0.929 . S
C230 C225 1.390 . S
C230 C226 1.392 . S
C230 H247 0.930 1_556 S
C231 O216 1.255 . S
C231 O217 1.257 . S
C232 Eu168 2.787 . S
C232 O212 1.252 . S
C232 O215 1.268 . S
C232 C225 1.506 . S
C233 C200 1.439 . S
C233 H210 0.931 . S
C233 C234 1.374 . S
C234 C205 1.387 . S
C234 H211 0.931 . S
C234 C233 1.374 . S
C235 O219 1.249 . S
C235 O220 1.264 1_554 S
C236 C239 1.382 . S
C236 C240 1.390 . S
C236 C243 1.506 . S
C237 C238 1.398 . S
C237 C240 1.392 . S
C238 C237 1.398 . S
C238 C241 1.372 . S
C238 H248 0.931 . S
C239 C236 1.382 . S
C239 C241 1.390 . S
C239 H249 0.931 . S
C240 C236 1.390 . S
C240 C237 1.392 . S
C240 H250 0.930 1_554 S
C241 C238 1.372 . S
C241 C239 1.390 . S
C241 H251 0.929 . S
C242 O222 1.255 . S
C242 O223 1.257 . S
C243 Eu179 2.787 . S
C243 O218 1.252 . S
C243 O221 1.268 . S
C243 C236 1.506 . S
H244 C227 0.931 . S
H245 C228 0.931 . S
H246 C229 0.929 . S
H247 C230 0.930 1_554 S
H248 C238 0.931 . S
H249 C239 0.931 . S
H250 C240 0.930 1_556 S
H251 C241 0.929 . S
Eu252 N281 2.600 . S
Eu252 N287 2.562 . S
Eu252 O296 2.462 . S
Eu252 O297 2.373 . S
Eu252 O299 2.432 . S
Eu252 O300 2.291 . S
Eu252 O304 2.335 . S
Eu252 O307 2.372 . S
Eu252 C316 2.787 . S
C253 N254 1.365 . S
C253 C256 1.405 . S
C253 C260 1.448 . S
N254 C253 1.365 . S
N254 C257 1.319 . S
N254 Eu263 2.600 . S
C255 C257 1.397 . S
C255 C258 1.367 . S
C255 H275 0.931 . S
C256 C253 1.405 . S
C256 C258 1.403 . S
C256 C262 1.439 . S
C257 N254 1.319 . S
C257 C255 1.397 . S
C257 H268 0.930 . S
C258 C255 1.367 . S
C258 C256 1.403 . S
C258 H279 0.929 . S
C259 C260 1.430 . S
C259 C261 1.387 . S
C259 C265 1.404 . S
C260 C253 1.448 . S
C260 C259 1.430 . S
C260 N264 1.351 . S
C261 C259 1.387 . S
C261 C262 1.374 . S
C261 H276 0.931 . S
C262 C256 1.439 . S
C262 C261 1.374 . S
C262 H277 0.931 . S
Eu263 N254 2.600 . S
Eu263 N264 2.562 . S
Eu263 O298 2.335 . S
Eu263 O301 2.372 . S
Eu263 O302 2.462 . S
Eu263 O303 2.373 . S
Eu263 O305 2.432 . S
Eu263 O306 2.291 . S
Eu263 C327 2.787 . S
N264 C260 1.351 . S
N264 Eu263 2.562 . S
N264 C266 1.325 . S
C265 C259 1.404 . S
C265 C267 1.366 . S
C265 H273 0.930 . S
C266 N264 1.325 . S
C266 C267 1.416 . S
C266 H272 0.929 . S
C267 C265 1.366 . S
C267 C266 1.416 . S
C267 H269 0.930 . S
H268 C257 0.930 . S
H269 C267 0.930 . S
H270 C285 0.930 . S
H271 C292 0.930 . S
H272 C266 0.929 . S
H273 C265 0.930 . S
H274 C288 0.929 . S
H275 C255 0.931 . S
H276 C261 0.931 . S
H277 C262 0.931 . S
H278 C283 0.931 . S
H279 C258 0.929 . S
H280 C291 0.930 . S
N281 Eu252 2.600 . S
N281 C282 1.365 . S
N281 C285 1.319 . S
C282 N281 1.365 . S
C282 C284 1.405 . S
C282 C290 1.448 . S
C283 H278 0.931 . S
C283 C285 1.397 . S
C283 C286 1.367 . S
C284 C282 1.405 . S
C284 C286 1.403 . S
C284 C317 1.439 . S
C285 H270 0.930 . S
C285 N281 1.319 . S
C285 C283 1.397 . S
C286 C283 1.367 . S
C286 C284 1.403 . S
C286 H293 0.929 . S
N287 Eu252 2.562 . S
N287 C288 1.325 . S
N287 C290 1.351 . S
C288 H274 0.929 . S
C288 N287 1.325 . S
C288 C292 1.416 . S
C289 C290 1.430 . S
C289 C291 1.404 . S
C289 C318 1.387 . S
C290 C282 1.448 . S
C290 N287 1.351 . S
C290 C289 1.430 . S
C291 H280 0.930 . S
C291 C289 1.404 . S
C291 C292 1.366 . S
C292 H271 0.930 . S
C292 C288 1.416 . S
C292 C291 1.366 . S
H293 C286 0.929 . S
H294 C317 0.931 . S
H295 C318 0.931 . S
O296 Eu252 2.462 . S
O296 C316 1.252 . S
O297 Eu252 2.373 . S
O297 C308 1.249 . S
O298 Eu263 2.335 . S
O298 C308 1.264 . S
O299 Eu252 2.432 . S
O299 C316 1.268 . S
O300 Eu252 2.291 . S
O300 C315 1.255 . S
O301 Eu263 2.372 . S
O301 C315 1.257 . S
O302 Eu263 2.462 . S
O302 C327 1.252 . S
O303 Eu263 2.373 . S
O303 C319 1.249 . S
O304 Eu252 2.335 . S
O304 C319 1.264 . S
O305 Eu263 2.432 . S
O305 C327 1.268 . S
O306 Eu263 2.291 . S
O306 C326 1.255 . S
O307 Eu252 2.372 . S
O307 C326 1.257 . S
C308 O297 1.249 . S
C308 O298 1.264 . S
C309 C312 1.382 . S
C309 C314 1.390 . S
C309 C316 1.506 . S
C310 C311 1.398 . S
C310 C314 1.392 . S
C311 C310 1.398 . S
C311 C313 1.372 . S
C311 H328 0.931 . S
C312 C309 1.382 . S
C312 C313 1.390 . S
C312 H329 0.931 . S
C313 C311 1.372 . S
C313 C312 1.390 . S
C313 H330 0.929 . S
C314 C309 1.390 . S
C314 C310 1.392 . S
C314 H331 0.930 . S
C315 O300 1.255 . S
C315 O301 1.257 . S
C316 Eu252 2.787 . S
C316 O296 1.252 . S
C316 O299 1.268 . S
C316 C309 1.506 . S
C317 C284 1.439 . S
C317 H294 0.931 . S
C317 C318 1.374 . S
C318 C289 1.387 . S
C318 H295 0.931 . S
C318 C317 1.374 . S
C319 O303 1.249 . S
C319 O304 1.264 . S
C320 C323 1.382 . S
C320 C324 1.390 . S
C320 C327 1.506 . S
C321 C322 1.398 . S
C321 C324 1.392 . S
C322 C321 1.398 . S
C322 C325 1.372 . S
C322 H332 0.931 . S
C323 C320 1.382 . S
C323 C325 1.390 . S
C323 H333 0.931 . S
C324 C320 1.390 . S
C324 C321 1.392 . S
C324 H334 0.930 . S
C325 C322 1.372 . S
C325 C323 1.390 . S
C325 H335 0.929 . S
C326 O306 1.255 . S
C326 O307 1.257 . S
C327 Eu263 2.787 . S
C327 O302 1.252 . S
C327 O305 1.268 . S
C327 C320 1.506 . S
H328 C311 0.931 . S
H329 C312 0.931 . S
H330 C313 0.929 . S
H331 C314 0.930 . S
H332 C322 0.931 . S
H333 C323 0.931 . S
H334 C324 0.930 . S
H335 C325 0.929 . S
H336 C344 0.950 . S
H337 C349 0.950 . S
H338 C346 0.957 1_554 S
H339 C348 0.950 . S
H340 C350 0.950 . S
H341 C352 0.946 . S
H342 C354 0.950 . S
H343 C355 0.950 . S
C344 H336 0.950 . S
C344 C345 1.386 . S
C344 C346 1.383 . S
C345 C344 1.386 . S
C345 C349 1.393 . S
C346 H338 0.957 1_556 S
C346 C344 1.383 . S
C346 C347 1.400 . S
C347 C346 1.400 . S
C347 C348 1.393 . S
C347 C353 1.500 1_556 S
C348 H339 0.950 . S
C348 C347 1.393 . S
C348 C349 1.391 . S
C349 H337 0.950 . S
C349 C345 1.393 . S
C349 C348 1.391 . S
C350 H340 0.950 . S
C350 C351 1.386 . S
C350 C352 1.391 . S
C351 C350 1.386 . S
C351 C355 1.393 . S
C352 H341 0.946 . S
C352 C350 1.391 . S
C352 C353 1.400 . S
C353 C347 1.500 1_554 S
C353 C352 1.400 . S
C353 C354 1.398 . S
C354 H342 0.950 . S
C354 C353 1.398 . S
C354 C355 1.391 . S
C355 H343 0.950 . S
C355 C351 1.393 . S
C355 C354 1.391 . S
H356 C364 0.950 . S
H357 C369 0.950 . S
H358 C366 0.950 . S
H359 C368 0.950 . S
H360 C370 0.950 . S
H361 C372 0.950 . S
H362 C374 0.950 . S
H363 C375 0.950 . S
C364 H356 0.950 . S
C364 C365 1.393 . S
C364 C366 1.391 . S
C365 C364 1.393 . S
C365 C369 1.392 1_554 S
C366 H358 0.950 . S
C366 C364 1.391 . S
C366 C367 1.400 1_554 S
C367 C366 1.400 1_556 S
C367 C368 1.398 . S
C367 C373 1.479 1_556 S
C368 H359 0.950 . S
C368 C367 1.398 . S
C368 C369 1.391 . S
C369 H357 0.950 . S
C369 C365 1.392 1_556 S
C369 C368 1.391 . S
C370 H360 0.950 . S
C370 C371 1.383 1_556 S
C370 C372 1.391 . S
C371 C370 1.383 1_554 S
C371 C375 1.393 . S
C372 H361 0.950 . S
C372 C370 1.391 . S
C372 C373 1.399 1_556 S
C373 C367 1.479 1_554 S
C373 C372 1.399 1_554 S
C373 C374 1.413 . S
C374 H362 0.950 . S
C374 C373 1.413 . S
C374 C375 1.391 . S
C375 H363 0.950 . S
C375 C371 1.393 . S
C375 C374 1.391 . S
H376 C384 0.950 . S
H377 C389 0.950 . S
H378 C386 0.950 . S
H379 C388 0.950 . S
H380 C390 0.950 . S
H381 C392 0.950 . S
H382 C394 0.950 . S
H383 C395 0.950 . S
C384 H376 0.950 . S
C384 C385 1.386 . S
C384 C386 1.391 . S
C385 C384 1.386 . S
C385 C389 1.393 . S
C386 H378 0.950 . S
C386 C384 1.391 . S
C386 C387 1.400 . S
C387 C386 1.400 . S
C387 C388 1.398 . S
C387 C393 1.491 . S
C388 H379 0.950 . S
C388 C387 1.398 . S
C388 C389 1.391 . S
C389 H377 0.950 . S
C389 C385 1.393 . S
C389 C388 1.391 . S
C390 H380 0.950 . S
C390 C391 1.386 . S
C390 C392 1.391 . S
C391 C390 1.386 . S
C391 C395 1.393 . S
C392 H381 0.950 . S
C392 C390 1.391 . S
C392 C393 1.400 . S
C393 C387 1.491 . S
C393 C392 1.400 . S
C393 C394 1.398 . S
C394 H382 0.950 . S
C394 C393 1.398 . S
C394 C395 1.391 . S
C395 H383 0.950 . S
C395 C391 1.393 . S
C395 C394 1.391 . S
H396 C404 0.950 . S
H397 C409 0.950 . S
H398 C406 0.950 . S
H399 C408 0.950 . S
H400 C410 0.950 . S
H401 C412 0.950 . S
H402 C414 0.950 . S
H403 C415 0.950 . S
C404 H396 0.950 . S
C404 C405 1.386 . S
C404 C406 1.391 . S
C405 C404 1.386 . S
C405 C409 1.393 . S
C406 H398 0.950 . S
C406 C404 1.391 . S
C406 C407 1.400 . S
C407 C406 1.400 . S
C407 C408 1.398 . S
C407 C413 1.491 . S
C408 H399 0.950 . S
C408 C407 1.398 . S
C408 C409 1.391 . S
C409 H397 0.950 . S
C409 C405 1.393 . S
C409 C408 1.391 . S
C410 H400 0.950 . S
C410 C411 1.386 . S
C410 C412 1.391 . S
C411 C410 1.386 . S
C411 C415 1.393 . S
C412 H401 0.950 . S
C412 C410 1.391 . S
C412 C413 1.400 . S
C413 C407 1.491 . S
C413 C412 1.400 . S
C413 C414 1.398 . S
C414 H402 0.950 . S
C414 C413 1.398 . S
C414 C415 1.391 . S
C415 H403 0.950 . S
C415 C411 1.393 . S
C415 C414 1.391 . S
H416 C424 0.950 . S
H417 C429 0.950 . S
H418 C426 0.950 . S
H419 C428 0.950 . S
H420 C430 0.950 . S
H421 C432 0.950 . S
H422 C434 0.950 . S
H423 C435 0.950 . S
C424 H416 0.950 . S
C424 C425 1.374 1_544 S
C424 C426 1.391 . S
C425 C424 1.374 1_566 S
C425 C429 1.405 . S
C426 H418 0.950 . S
C426 C424 1.391 . S
C426 C427 1.405 1_545 S
C427 C426 1.405 1_565 S
C427 C428 1.397 1_554 S
C427 C433 1.489 1_565 S
C428 H419 0.950 . S
C428 C427 1.397 1_556 S
C428 C429 1.391 . S
C429 H417 0.950 . S
C429 C425 1.405 . S
C429 C428 1.391 . S
C430 H420 0.950 . S
C430 C431 1.386 1_566 S
C430 C432 1.391 . S
C431 C430 1.386 1_544 S
C431 C435 1.393 . S
C432 H421 0.950 . S
C432 C430 1.391 . S
C432 C433 1.384 1_566 S
C433 C427 1.489 1_545 S
C433 C432 1.384 1_544 S
C433 C434 1.414 . S
C434 H422 0.950 . S
C434 C433 1.414 . S
C434 C435 1.391 . S
C435 H423 0.950 . S
C435 C431 1.393 . S
C435 C434 1.391 . S
H436 C444 0.950 . S
H437 C449 0.950 . S
H438 C446 0.950 . S
H439 C448 0.950 . S
H440 C450 0.950 . S
H441 C452 0.950 . S
H442 C454 0.950 . S
H443 C455 0.950 . S
C444 H436 0.950 . S
C444 C445 1.386 . S
C444 C446 1.391 . S
C445 C444 1.386 . S
C445 C449 1.393 . S
C446 H438 0.950 . S
C446 C444 1.391 . S
C446 C447 1.400 . S
C447 C446 1.400 . S
C447 C448 1.398 . S
C447 C453 1.488 1_545 S
C448 H439 0.950 . S
C448 C447 1.398 . S
C448 C449 1.391 . S
C449 H437 0.950 . S
C449 C445 1.393 . S
C449 C448 1.391 . S
C450 H440 0.950 . S
C450 C451 1.386 . S
C450 C452 1.391 . S
C451 C450 1.386 . S
C451 C455 1.393 . S
C452 H441 0.950 . S
C452 C450 1.391 . S
C452 C453 1.415 . S
C453 C447 1.488 1_565 S
C453 C452 1.415 . S
C453 C454 1.387 . S
C454 H442 0.950 . S
C454 C453 1.387 . S
C454 C455 1.391 . S
C455 H443 0.950 . S
C455 C451 1.393 . S
C455 C454 1.391 . S
H456 C464 0.950 . S
H457 C469 0.950 . S
H458 C466 0.950 . S
H459 C468 0.950 . S
H460 C470 0.950 . S
H461 C472 0.950 . S
H462 C474 0.950 . S
H463 C475 0.950 . S
C464 H456 0.950 . S
C464 C465 1.386 . S
C464 C466 1.391 . S
C465 C464 1.386 . S
C465 C469 1.393 1_556 S
C466 H458 0.950 . S
C466 C464 1.391 . S
C466 C467 1.401 . S
C467 C466 1.401 . S
C467 C468 1.398 1_556 S
C467 C473 1.490 1_656 S
C468 H459 0.950 . S
C468 C467 1.398 1_554 S
C468 C469 1.391 . S
C469 H457 0.950 . S
C469 C465 1.393 1_554 S
C469 C468 1.391 . S
C470 H460 0.950 . S
C470 C471 1.386 . S
C470 C472 1.391 . S
C471 C470 1.386 . S
C471 C475 1.393 1_554 S
C472 H461 0.950 . S
C472 C470 1.391 . S
C472 C473 1.400 . S
C473 C467 1.490 1_454 S
C473 C472 1.400 . S
C473 C474 1.398 1_554 S
C474 H462 0.950 . S
C474 C473 1.398 1_556 S
C474 C475 1.391 . S
C475 H463 0.950 . S
C475 C471 1.393 1_556 S
C475 C474 1.391 . S
H476 C484 0.950 . S
H477 C489 0.950 . S
H478 C486 0.950 . S
H479 C488 0.950 . S
H480 C490 0.950 . S
H481 C492 0.950 . S
H482 C494 0.950 . S
H483 C495 0.950 . S
C484 H476 0.950 . S
C484 C485 1.386 . S
C484 C486 1.391 . S
C485 C484 1.386 . S
C485 C489 1.393 . S
C486 H478 0.950 . S
C486 C484 1.391 . S
C486 C487 1.400 . S
C487 C486 1.400 . S
C487 C488 1.398 . S
C487 C493 1.491 1_455 S
C488 H479 0.950 . S
C488 C487 1.398 . S
C488 C489 1.391 . S
C489 H477 0.950 . S
C489 C485 1.393 . S
C489 C488 1.391 . S
C490 H480 0.950 . S
C490 C491 1.386 . S
C490 C492 1.391 . S
C491 C490 1.386 . S
C491 C495 1.393 . S
C492 H481 0.950 . S
C492 C490 1.391 . S
C492 C493 1.400 . S
C493 C487 1.491 1_655 S
C493 C492 1.400 . S
C493 C494 1.398 . S
C494 H482 0.950 . S
C494 C493 1.398 . S
C494 C495 1.391 . S
C495 H483 0.950 . S
C495 C491 1.393 . S
C495 C494 1.391 . S
H496 C504 0.950 . S
H497 C509 0.950 . S
H498 C506 0.950 . S
H499 C508 0.950 . S
H500 C510 0.950 . S
H501 C512 0.950 . S
H502 C514 0.950 . S
H503 C515 0.950 . S
C504 H496 0.950 . S
C504 C505 1.386 1_445 S
C504 C506 1.391 . S
C505 C504 1.386 1_665 S
C505 C509 1.392 . S
C506 H498 0.950 . S
C506 C504 1.391 . S
C506 C507 1.397 1_455 S
C507 C506 1.397 1_655 S
C507 C508 1.402 1_545 S
C507 C513 1.490 . S
C508 H499 0.950 . S
C508 C507 1.402 1_565 S
C508 C509 1.391 . S
C509 H497 0.950 . S
C509 C505 1.392 . S
C509 C508 1.391 . S
C510 H500 0.950 . S
C510 C511 1.386 1_565 S
C510 C512 1.391 . S
C511 C510 1.386 1_545 S
C511 C515 1.393 1_655 S
C512 H501 0.950 . S
C512 C510 1.391 . S
C512 C513 1.400 1_565 S
C513 C507 1.490 . S
C513 C512 1.400 1_545 S
C513 C514 1.398 1_655 S
C514 H502 0.950 . S
C514 C513 1.398 1_455 S
C514 C515 1.391 . S
C515 H503 0.950 . S
C515 C511 1.393 1_455 S
C515 C514 1.391 . S
H516 C524 0.949 1_655 S
H517 C529 0.950 . S
H518 C526 0.950 . S
H519 C528 0.950 . S
H520 C530 0.950 . S
H521 C532 0.950 . S
H522 C534 0.950 . S
H523 C535 0.950 . S
C524 H516 0.949 1_455 S
C524 C525 1.426 . S
C524 C526 1.391 1_455 S
C525 C524 1.426 . S
C525 C529 1.371 1_545 S
C526 H518 0.950 . S
C526 C524 1.391 1_655 S
C526 C527 1.414 1_655 S
C527 C526 1.414 1_455 S
C527 C528 1.373 1_545 S
C527 C533 1.493 1_455 S
C528 H519 0.950 . S
C528 C527 1.373 1_565 S
C528 C529 1.391 . S
C529 H517 0.950 . S
C529 C525 1.371 1_565 S
C529 C528 1.391 . S
C530 H520 0.950 . S
C530 C531 1.381 1_465 S
C530 C532 1.391 . S
C531 C530 1.381 1_645 S
C531 C535 1.395 . S
C532 H521 0.950 . S
C532 C530 1.391 . S
C532 C533 1.390 1_465 S
C533 C527 1.493 1_655 S
C533 C532 1.390 1_645 S
C533 C534 1.418 . S
C534 H522 0.950 . S
C534 C533 1.418 . S
C534 C535 1.391 . S
C535 H523 0.950 . S
C535 C531 1.395 . S
C535 C534 1.391 . S
H536 C544 0.950 . S
H537 C549 0.950 . S
H538 C546 0.950 . S
H539 C548 0.950 . S
H540 C550 0.950 . S
H541 C552 0.950 . S
H542 C554 0.950 . S
H543 C555 0.950 . S
C544 H536 0.950 . S
C544 C545 1.386 . S
C544 C546 1.391 . S
C545 C544 1.386 . S
C545 C549 1.393 . S
C546 H538 0.950 . S
C546 C544 1.391 . S
C546 C547 1.400 . S
C547 C546 1.400 . S
C547 C548 1.398 . S
C547 C553 1.491 . S
C548 H539 0.950 . S
C548 C547 1.398 . S
C548 C549 1.391 . S
C549 H537 0.950 . S
C549 C545 1.393 . S
C549 C548 1.391 . S
C550 H540 0.950 . S
C550 C551 1.386 . S
C550 C552 1.391 . S
C551 C550 1.386 . S
C551 C555 1.393 . S
C552 H541 0.950 . S
C552 C550 1.391 . S
C552 C553 1.400 . S
C553 C547 1.491 . S
C553 C552 1.400 . S
C553 C554 1.398 . S
C554 H542 0.950 . S
C554 C553 1.398 . S
C554 C555 1.391 . S
C555 H543 0.950 . S
C555 C551 1.393 . S
C555 C554 1.391 . S
H556 C564 0.950 . S
H557 C569 0.950 . S
H558 C566 0.950 . S
H559 C568 0.950 . S
H560 C570 0.950 . S
H561 C572 0.950 . S
H562 C574 0.950 . S
H563 C575 0.950 . S
C564 H556 0.950 . S
C564 C565 1.386 . S
C564 C566 1.391 . S
C565 C564 1.386 . S
C565 C569 1.393 . S
C566 H558 0.950 . S
C566 C564 1.391 . S
C566 C567 1.400 . S
C567 C566 1.400 . S
C567 C568 1.398 . S
C567 C573 1.491 . S
C568 H559 0.950 . S
C568 C567 1.398 . S
C568 C569 1.391 . S
C569 H557 0.950 . S
C569 C565 1.393 . S
C569 C568 1.391 . S
C570 H560 0.950 . S
C570 C571 1.386 . S
C570 C572 1.391 . S
C571 C570 1.386 . S
C571 C575 1.393 . S
C572 H561 0.950 . S
C572 C570 1.391 . S
C572 C573 1.400 . S
C573 C567 1.491 . S
C573 C572 1.400 . S
C573 C574 1.398 . S
C574 H562 0.950 . S
C574 C573 1.398 . S
C574 C575 1.391 . S
C575 H563 0.950 . S
C575 C571 1.393 . S
C575 C574 1.391 . S
C345 C237 1.425 1_556 S
C351 C58 1.425 1_554 S
C365 C226 1.372 1_554 S
C371 C69 1.388 . S
C385 C142 1.409 . S
C391 C321 1.409 . S
C405 C153 1.415 . S
C411 C310 1.416 . S
C425 C67 1.960 1_556 S
C431 C56 1.961 1_554 S
C445 C151 1.962 . S
C451 C140 1.962 . S
C465 C235 1.962 1_556 S
C471 C224 1.962 1_554 S
C485 C308 1.957 . S
C491 C319 1.957 . S
C505 C147 1.475 . S
C511 C63 1.473 . S
C525 C74 1.452 1_545 S
C531 C158 1.487 1_655 S
C545 C315 1.480 . S
C551 C231 1.472 . S
C565 C326 1.486 . S
C571 C242 1.485 . S
