# Generated by pormake.
# Topology uos, (4)-cn, num edge types: 1
# Building blocks:
#     Node 0, Type 0, BuildingBlock: QUQFOY_clean_sbu_1, # of connection points: 4
#     Node 1, Type 0, BuildingBlock: QUQFOY_clean_sbu_1, # of connection points: 4
#     Node 2, Type 0, BuildingBlock: QUQFOY_clean_sbu_1, # of connection points: 4
#     Node 3, Type 0, BuildingBlock: QUQFOY_clean_sbu_1, # of connection points: 4
#     Node 4, Type 0, BuildingBlock: QUQFOY_clean_sbu_1, # of connection points: 4
#     Node 5, Type 0, BuildingBlock: QUQFOY_clean_sbu_1, # of connection points: 4
#     Node 6, Type 0, BuildingBlock: QUQFOY_clean_sbu_1, # of connection points: 4
#     Node 7, Type 0, BuildingBlock: QUQFOY_clean_sbu_1, # of connection points: 4
#     Node 8, Type 0, BuildingBlock: QUQFOY_clean_sbu_1, # of connection points: 4
#     Node 9, Type 0, BuildingBlock: QUQFOY_clean_sbu_1, # of connection points: 4
#     Node 10, Type 0, BuildingBlock: QUQFOY_clean_sbu_1, # of connection points: 4
#     Node 11, Type 0, BuildingBlock: QUQFOY_clean_sbu_1, # of connection points: 4
#     Node 12, Type 0, BuildingBlock: QUQFOY_clean_sbu_1, # of connection points: 4
#     Node 13, Type 0, BuildingBlock: QUQFOY_clean_sbu_1, # of connection points: 4
#     Node 14, Type 0, BuildingBlock: QUQFOY_clean_sbu_1, # of connection points: 4
#     Node 15, Type 0, BuildingBlock: QUQFOY_clean_sbu_1, # of connection points: 4
#     Node 16, Type 0, BuildingBlock: QUQFOY_clean_sbu_1, # of connection points: 4
#     Node 17, Type 0, BuildingBlock: QUQFOY_clean_sbu_1, # of connection points: 4
#     Node 18, Type 0, BuildingBlock: QUQFOY_clean_sbu_1, # of connection points: 4
#     Node 19, Type 0, BuildingBlock: QUQFOY_clean_sbu_1, # of connection points: 4
#     Node 20, Type 0, BuildingBlock: QUQFOY_clean_sbu_1, # of connection points: 4
#     Node 21, Type 0, BuildingBlock: QUQFOY_clean_sbu_1, # of connection points: 4
#     Node 22, Type 0, BuildingBlock: QUQFOY_clean_sbu_1, # of connection points: 4
#     Node 23, Type 0, BuildingBlock: QUQFOY_clean_sbu_1, # of connection points: 4
#     Node 24, Type 0, BuildingBlock: QUQFOY_clean_sbu_1, # of connection points: 4
#     Node 25, Type 0, BuildingBlock: QUQFOY_clean_sbu_1, # of connection points: 4
#     Node 26, Type 0, BuildingBlock: QUQFOY_clean_sbu_1, # of connection points: 4
#     Node 27, Type 0, BuildingBlock: QUQFOY_clean_sbu_1, # of connection points: 4
#     Node 28, Type 0, BuildingBlock: QUQFOY_clean_sbu_1, # of connection points: 4
#     Node 29, Type 0, BuildingBlock: QUQFOY_clean_sbu_1, # of connection points: 4
#     Node 30, Type 0, BuildingBlock: QUQFOY_clean_sbu_1, # of connection points: 4
#     Node 31, Type 0, BuildingBlock: QUQFOY_clean_sbu_1, # of connection points: 4
#     Edge 32, Type (0, 0), BuildingBlock: UVAHIK_clean_linker_0, # of connection points: 2
#     Edge 33, Type (0, 0), BuildingBlock: UVAHIK_clean_linker_0, # of connection points: 2
#     Edge 34, Type (0, 0), BuildingBlock: UVAHIK_clean_linker_0, # of connection points: 2
#     Edge 35, Type (0, 0), BuildingBlock: UVAHIK_clean_linker_0, # of connection points: 2
#     Edge 36, Type (0, 0), BuildingBlock: UVAHIK_clean_linker_0, # of connection points: 2
#     Edge 37, Type (0, 0), BuildingBlock: UVAHIK_clean_linker_0, # of connection points: 2
#     Edge 38, Type (0, 0), BuildingBlock: UVAHIK_clean_linker_0, # of connection points: 2
#     Edge 39, Type (0, 0), BuildingBlock: UVAHIK_clean_linker_0, # of connection points: 2
#     Edge 40, Type (0, 0), BuildingBlock: UVAHIK_clean_linker_0, # of connection points: 2
#     Edge 41, Type (0, 0), BuildingBlock: UVAHIK_clean_linker_0, # of connection points: 2
#     Edge 42, Type (0, 0), BuildingBlock: UVAHIK_clean_linker_0, # of connection points: 2
#     Edge 43, Type (0, 0), BuildingBlock: UVAHIK_clean_linker_0, # of connection points: 2
#     Edge 44, Type (0, 0), BuildingBlock: UVAHIK_clean_linker_0, # of connection points: 2
#     Edge 45, Type (0, 0), BuildingBlock: UVAHIK_clean_linker_0, # of connection points: 2
#     Edge 46, Type (0, 0), BuildingBlock: UVAHIK_clean_linker_0, # of connection points: 2
#     Edge 47, Type (0, 0), BuildingBlock: UVAHIK_clean_linker_0, # of connection points: 2
#     Edge 48, Type (0, 0), BuildingBlock: UVAHIK_clean_linker_0, # of connection points: 2
#     Edge 49, Type (0, 0), BuildingBlock: UVAHIK_clean_linker_0, # of connection points: 2
#     Edge 50, Type (0, 0), BuildingBlock: UVAHIK_clean_linker_0, # of connection points: 2
#     Edge 51, Type (0, 0), BuildingBlock: UVAHIK_clean_linker_0, # of connection points: 2
#     Edge 52, Type (0, 0), BuildingBlock: UVAHIK_clean_linker_0, # of connection points: 2
#     Edge 53, Type (0, 0), BuildingBlock: UVAHIK_clean_linker_0, # of connection points: 2
#     Edge 54, Type (0, 0), BuildingBlock: UVAHIK_clean_linker_0, # of connection points: 2
#     Edge 55, Type (0, 0), BuildingBlock: UVAHIK_clean_linker_0, # of connection points: 2
#     Edge 56, Type (0, 0), BuildingBlock: UVAHIK_clean_linker_0, # of connection points: 2
#     Edge 57, Type (0, 0), BuildingBlock: UVAHIK_clean_linker_0, # of connection points: 2
#     Edge 58, Type (0, 0), BuildingBlock: UVAHIK_clean_linker_0, # of connection points: 2
#     Edge 59, Type (0, 0), BuildingBlock: UVAHIK_clean_linker_0, # of connection points: 2
#     Edge 60, Type (0, 0), BuildingBlock: UVAHIK_clean_linker_0, # of connection points: 2
#     Edge 61, Type (0, 0), BuildingBlock: UVAHIK_clean_linker_0, # of connection points: 2
#     Edge 62, Type (0, 0), BuildingBlock: UVAHIK_clean_linker_0, # of connection points: 2
#     Edge 63, Type (0, 0), BuildingBlock: UVAHIK_clean_linker_0, # of connection points: 2
#     Edge 64, Type (0, 0), BuildingBlock: UVAHIK_clean_linker_0, # of connection points: 2
#     Edge 65, Type (0, 0), BuildingBlock: UVAHIK_clean_linker_0, # of connection points: 2
#     Edge 66, Type (0, 0), BuildingBlock: UVAHIK_clean_linker_0, # of connection points: 2
#     Edge 67, Type (0, 0), BuildingBlock: UVAHIK_clean_linker_0, # of connection points: 2
#     Edge 68, Type (0, 0), BuildingBlock: UVAHIK_clean_linker_0, # of connection points: 2
#     Edge 69, Type (0, 0), BuildingBlock: UVAHIK_clean_linker_0, # of connection points: 2
#     Edge 70, Type (0, 0), BuildingBlock: UVAHIK_clean_linker_0, # of connection points: 2
#     Edge 71, Type (0, 0), BuildingBlock: UVAHIK_clean_linker_0, # of connection points: 2
#     Edge 72, Type (0, 0), BuildingBlock: UVAHIK_clean_linker_0, # of connection points: 2
#     Edge 73, Type (0, 0), BuildingBlock: UVAHIK_clean_linker_0, # of connection points: 2
#     Edge 74, Type (0, 0), BuildingBlock: UVAHIK_clean_linker_0, # of connection points: 2
#     Edge 75, Type (0, 0), BuildingBlock: UVAHIK_clean_linker_0, # of connection points: 2
#     Edge 76, Type (0, 0), BuildingBlock: UVAHIK_clean_linker_0, # of connection points: 2
#     Edge 77, Type (0, 0), BuildingBlock: UVAHIK_clean_linker_0, # of connection points: 2
#     Edge 78, Type (0, 0), BuildingBlock: UVAHIK_clean_linker_0, # of connection points: 2
#     Edge 79, Type (0, 0), BuildingBlock: UVAHIK_clean_linker_0, # of connection points: 2
#     Edge 80, Type (0, 0), BuildingBlock: UVAHIK_clean_linker_0, # of connection points: 2
#     Edge 81, Type (0, 0), BuildingBlock: UVAHIK_clean_linker_0, # of connection points: 2
#     Edge 82, Type (0, 0), BuildingBlock: UVAHIK_clean_linker_0, # of connection points: 2
#     Edge 83, Type (0, 0), BuildingBlock: UVAHIK_clean_linker_0, # of connection points: 2
#     Edge 84, Type (0, 0), BuildingBlock: UVAHIK_clean_linker_0, # of connection points: 2
#     Edge 85, Type (0, 0), BuildingBlock: UVAHIK_clean_linker_0, # of connection points: 2
#     Edge 86, Type (0, 0), BuildingBlock: UVAHIK_clean_linker_0, # of connection points: 2
#     Edge 87, Type (0, 0), BuildingBlock: UVAHIK_clean_linker_0, # of connection points: 2
#     Edge 88, Type (0, 0), BuildingBlock: UVAHIK_clean_linker_0, # of connection points: 2
#     Edge 89, Type (0, 0), BuildingBlock: UVAHIK_clean_linker_0, # of connection points: 2
#     Edge 90, Type (0, 0), BuildingBlock: UVAHIK_clean_linker_0, # of connection points: 2
#     Edge 91, Type (0, 0), BuildingBlock: UVAHIK_clean_linker_0, # of connection points: 2
#     Edge 92, Type (0, 0), BuildingBlock: UVAHIK_clean_linker_0, # of connection points: 2
#     Edge 93, Type (0, 0), BuildingBlock: UVAHIK_clean_linker_0, # of connection points: 2
#     Edge 94, Type (0, 0), BuildingBlock: UVAHIK_clean_linker_0, # of connection points: 2
#     Edge 95, Type (0, 0), BuildingBlock: UVAHIK_clean_linker_0, # of connection points: 2
# Relax obj value: 0.056
# Max RMSD: 0.125
# Mean RMSD: 0.125
data_MOF--net-uos--node1-QUQFOY_clean_sbu_1--edge1-UVAHIK_clean_linker_0
_symmetry_space_group_name_H-M    P1
_symmetry_Int_Tables_number       1
_symmetry_cell_setting            triclinic
loop_
_symmetry_equiv_pos_as_xyz
'x, y, z'
_cell_length_a     115.34718
_cell_length_b     115.29869
_cell_length_c     30.766949
_cell_angle_alpha  89.991645
_cell_angle_beta   89.994609
_cell_angle_gamma 90.000984
loop_
_atom_site_label
_atom_site_type_symbol
_atom_site_fract_x
_atom_site_fract_y
_atom_site_fract_z
_atom_type_partial_charge
O0 O 0.16235 0.14247 0.1716 0.0
Cd1 Cd 0.17268 0.14672 0.11986 0.0
Cd2 Cd 0.16975 0.16877 0.15376 0.0
O3 O 0.15763 0.1602 0.19154 0.0
O4 O 0.17119 0.13308 0.0809 0.0
O5 O 0.16514 0.15065 0.06276 0.0
C6 C 0.16598 0.13974 0.0535 0.0
C7 C 0.16554 0.1882 0.13752 0.0
C8 C 0.15658 0.14929 0.19564 0.0
C9 C 0.19385 0.1576 0.15511 0.0
O10 O 0.18715 0.16583 0.16638 0.0
O11 O 0.18998 0.14907 0.1334 0.0
O12 O 0.16806 0.18481 0.17619 0.0
O13 O 0.16519 0.18045 0.10728 0.0
O14 O 0.10596 0.91018 0.4223 0.0
Cd15 Cd 0.10197 0.92149 0.37276 0.0
Cd16 Cd 0.07955 0.91812 0.40464 0.0
O17 O 0.08804 0.90562 0.44032 0.0
O18 O 0.11581 0.92082 0.33441 0.0
O19 O 0.09844 0.91476 0.31393 0.0
C20 C 0.10936 0.91594 0.3055 0.0
C21 C 0.06018 0.91374 0.38818 0.0
C22 C 0.09889 0.90421 0.44467 0.0
C23 C 0.09045 0.94221 0.41073 0.0
O24 O 0.0823 0.93529 0.42072 0.0
O25 O 0.09909 0.93865 0.3888 0.0
O26 O 0.06359 0.91586 0.42713 0.0
O27 O 0.06784 0.91403 0.35762 0.0
O28 O 0.33941 0.85625 0.66843 0.0
Cd29 Cd 0.32882 0.8522 0.61697 0.0
Cd30 Cd 0.33041 0.82998 0.65115 0.0
O31 O 0.34173 0.83839 0.69256 0.0
O32 O 0.33019 0.86554 0.57625 0.0
O33 O 0.33649 0.8479 0.56047 0.0
C34 C 0.33543 0.85868 0.54961 0.0
C35 C 0.33553 0.81093 0.63258 0.0
C36 C 0.34392 0.84916 0.69512 0.0
C37 C 0.30681 0.84163 0.64979 0.0
O38 O 0.31293 0.83289 0.66024 0.0
O39 O 0.31138 0.85026 0.63056 0.0
O40 O 0.33222 0.81369 0.67113 0.0
O41 O 0.33595 0.81905 0.60374 0.0
O42 O 0.39435 0.08824 0.92561 0.0
Cd43 Cd 0.39956 0.078 0.87436 0.0
Cd44 Cd 0.42107 0.08188 0.90814 0.0
O45 O 0.41192 0.09342 0.946 0.0
O46 O 0.38649 0.07836 0.83222 0.0
O47 O 0.40364 0.08624 0.81884 0.0
C48 C 0.39307 0.08434 0.80677 0.0
C49 C 0.43955 0.08782 0.88595 0.0
C50 C 0.40098 0.09421 0.94982 0.0
C51 C 0.41172 0.05734 0.91043 0.0
O52 O 0.41944 0.06449 0.92276 0.0
O53 O 0.4032 0.06079 0.88758 0.0
O54 O 0.43726 0.08536 0.92582 0.0
O55 O 0.43126 0.08694 0.85793 0.0
O56 O 0.15951 0.85625 0.82254 0.0
Cd57 Cd 0.17093 0.85402 0.87299 0.0
Cd58 Cd 0.17001 0.83086 0.84335 0.0
O59 O 0.1579 0.83802 0.80179 0.0
O60 O 0.16878 0.86826 0.90851 0.0
O61 O 0.16454 0.85067 0.93255 0.0
C62 C 0.16461 0.86175 0.93881 0.0
C63 C 0.167 0.81133 0.86169 0.0
C64 C 0.1551 0.84862 0.79788 0.0
C65 C 0.19309 0.84399 0.84076 0.0
O66 O 0.18725 0.83486 0.83341 0.0
O67 O 0.18832 0.85285 0.85762 0.0
O68 O 0.16996 0.81451 0.82322 0.0
O69 O 0.16548 0.81933 0.89045 0.0
O70 O 0.39485 0.91054 0.07508 0.0
Cd71 Cd 0.40013 0.92092 0.12581 0.0
Cd72 Cd 0.42159 0.91698 0.09105 0.0
O73 O 0.41236 0.90526 0.05427 0.0
O74 O 0.38704 0.92075 0.16792 0.0
O75 O 0.40416 0.91286 0.1818 0.0
C76 C 0.39359 0.91484 0.19371 0.0
C77 C 0.44021 0.91128 0.11262 0.0
C78 C 0.40141 0.90448 0.05089 0.0
C79 C 0.41214 0.94147 0.08807 0.0
O80 O 0.41981 0.9343 0.07555 0.0
O81 O 0.40374 0.9381 0.11171 0.0
O82 O 0.43775 0.91354 0.07273 0.0
O83 O 0.43201 0.91219 0.14099 0.0
O84 O 0.33958 0.14331 0.33205 0.0
Cd85 Cd 0.32897 0.14738 0.38336 0.0
Cd86 Cd 0.3307 0.16975 0.34836 0.0
O87 O 0.34214 0.16115 0.30793 0.0
O88 O 0.33032 0.1341 0.42429 0.0
O89 O 0.3366 0.15177 0.43983 0.0
C90 C 0.33552 0.141 0.45087 0.0
C91 C 0.33503 0.1893 0.36215 0.0
C92 C 0.34424 0.15035 0.30553 0.0
C93 C 0.30704 0.15798 0.3506 0.0
O94 O 0.31322 0.16665 0.33991 0.0
O95 O 0.31154 0.14933 0.36984 0.0
O96 O 0.33189 0.18569 0.32443 0.0
O97 O 0.33593 0.18172 0.39282 0.0
O98 O 0.10627 0.08772 0.57534 0.0
Cd99 Cd 0.10129 0.07806 0.62824 0.0
Cd100 Cd 0.07978 0.08233 0.59441 0.0
O101 O 0.08896 0.0946 0.55972 0.0
O102 O 0.11491 0.07891 0.66759 0.0
O103 O 0.09775 0.08629 0.68433 0.0
C104 C 0.10854 0.08476 0.69418 0.0
C105 C 0.06052 0.08728 0.61028 0.0
C106 C 0.09984 0.0945 0.55359 0.0
C107 C 0.08947 0.05769 0.59167 0.0
O108 O 0.08209 0.06504 0.57805 0.0
O109 O 0.09764 0.06087 0.61669 0.0
O110 O 0.06398 0.08523 0.57132 0.0
O111 O 0.06807 0.08661 0.64114 0.0
O112 O 0.83735 0.85504 0.82721 0.0
Cd113 Cd 0.82746 0.85011 0.87945 0.0
Cd114 Cd 0.83009 0.82837 0.8438 0.0
O115 O 0.84067 0.83749 0.8017 0.0
O116 O 0.82832 0.86341 0.92046 0.0
O117 O 0.83577 0.84615 0.93505 0.0
C118 C 0.83415 0.85683 0.94634 0.0
C119 C 0.83639 0.80978 0.86334 0.0
C120 C 0.84213 0.8484 0.79962 0.0
C121 C 0.80589 0.83852 0.84754 0.0
O122 O 0.81242 0.83021 0.83579 0.0
O123 O 0.81009 0.84726 0.86725 0.0
O124 O 0.83291 0.81216 0.82463 0.0
O125 O 0.83635 0.81804 0.89169 0.0
O126 O 0.89132 0.08576 0.58018 0.0
Cd127 Cd 0.89774 0.07659 0.63218 0.0
Cd128 Cd 0.91825 0.08184 0.59575 0.0
O129 O 0.90808 0.09362 0.56264 0.0
O130 O 0.88541 0.07683 0.67726 0.0
O131 O 0.90235 0.08567 0.68513 0.0
C132 C 0.89212 0.08339 0.70011 0.0
C133 C 0.93726 0.08763 0.61157 0.0
C134 C 0.89717 0.09292 0.55776 0.0
C135 C 0.9101 0.0568 0.59365 0.0
O136 O 0.91686 0.06453 0.57853 0.0
O137 O 0.90217 0.05958 0.62035 0.0
O138 O 0.93381 0.08577 0.57246 0.0
O139 O 0.92981 0.08642 0.64253 0.0
O140 O 0.66066 0.14304 0.33141 0.0
Cd141 Cd 0.67113 0.14725 0.38296 0.0
Cd142 Cd 0.66879 0.16972 0.3492 0.0
O143 O 0.65752 0.16092 0.30873 0.0
O144 O 0.66999 0.13388 0.42362 0.0
O145 O 0.66328 0.15139 0.43924 0.0
C146 C 0.66453 0.14062 0.45006 0.0
C147 C 0.66398 0.18918 0.36259 0.0
C148 C 0.65575 0.15007 0.30554 0.0
C149 C 0.69275 0.15852 0.35053 0.0
O150 O 0.68633 0.16706 0.34038 0.0
O151 O 0.68851 0.14969 0.36944 0.0
O152 O 0.66716 0.18559 0.32491 0.0
O153 O 0.66335 0.18165 0.39352 0.0
O154 O 0.60618 0.91371 0.07698 0.0
Cd155 Cd 0.59995 0.92286 0.12938 0.0
Cd156 Cd 0.57933 0.91768 0.09325 0.0
O157 O 0.58937 0.90611 0.05852 0.0
O158 O 0.61275 0.92284 0.17266 0.0
O159 O 0.59606 0.91376 0.1832 0.0
C160 C 0.60641 0.91617 0.19654 0.0
C161 C 0.56085 0.91144 0.11431 0.0
C162 C 0.60029 0.90672 0.05393 0.0
C163 C 0.58729 0.94272 0.0918 0.0
O164 O 0.58047 0.93504 0.07673 0.0
O165 O 0.59533 0.93987 0.11792 0.0
O166 O 0.56341 0.91346 0.07431 0.0
O167 O 0.56889 0.91283 0.14302 0.0
O168 O 0.83571 0.14194 0.17058 0.0
Cd169 Cd 0.82646 0.14742 0.11754 0.0
Cd170 Cd 0.83005 0.16886 0.15435 0.0
O171 O 0.84144 0.15927 0.1919 0.0
O172 O 0.82739 0.13438 0.07544 0.0
O173 O 0.83537 0.15156 0.0635 0.0
C174 C 0.83365 0.14098 0.05105 0.0
C175 C 0.83536 0.18817 0.14077 0.0
C176 C 0.84171 0.1483 0.19562 0.0
C177 C 0.80549 0.15902 0.1516 0.0
O178 O 0.81247 0.16671 0.16552 0.0
O179 O 0.80916 0.15068 0.1284 0.0
O180 O 0.83257 0.18458 0.17893 0.0
O181 O 0.83535 0.18069 0.10955 0.0
O182 O 0.60502 0.08883 0.9244 0.0
Cd183 Cd 0.59966 0.07855 0.87351 0.0
Cd184 Cd 0.57822 0.08263 0.90756 0.0
O185 O 0.58752 0.09408 0.94534 0.0
O186 O 0.61261 0.07875 0.83079 0.0
O187 O 0.59545 0.08668 0.81793 0.0
C188 C 0.60597 0.08468 0.80541 0.0
C189 C 0.55976 0.08866 0.88546 0.0
C190 C 0.59846 0.09482 0.94884 0.0
C191 C 0.58734 0.05802 0.91006 0.0
O192 O 0.57967 0.06523 0.92223 0.0
O193 O 0.5959 0.06138 0.88727 0.0
O194 O 0.56207 0.08626 0.92536 0.0
O195 O 0.56803 0.08773 0.85739 0.0
O196 O 0.66289 0.85848 0.66889 0.0
Cd197 Cd 0.67233 0.85319 0.61605 0.0
Cd198 Cd 0.66834 0.8315 0.65026 0.0
O199 O 0.65694 0.84103 0.68798 0.0
O200 O 0.67146 0.86606 0.57317 0.0
O201 O 0.66363 0.84877 0.56195 0.0
C202 C 0.66536 0.85929 0.54885 0.0
C203 C 0.66295 0.81222 0.63638 0.0
C204 C 0.65674 0.85198 0.69289 0.0
C205 C 0.69303 0.8411 0.64988 0.0
O206 O 0.68592 0.83335 0.66227 0.0
O207 O 0.68955 0.84972 0.62774 0.0
O208 O 0.66564 0.81579 0.67463 0.0
O209 O 0.66307 0.81971 0.6052 0.0
O210 O 0.89097 0.91225 0.41644 0.0
Cd211 Cd 0.89699 0.92229 0.36595 0.0
Cd212 Cd 0.91795 0.91757 0.40238 0.0
O213 O 0.90811 0.90584 0.43693 0.0
O214 O 0.88444 0.92216 0.32171 0.0
O215 O 0.90154 0.91384 0.31143 0.0
C216 C 0.89116 0.91595 0.29761 0.0
C217 C 0.93701 0.91206 0.38616 0.0
C218 C 0.89714 0.90567 0.44016 0.0
C219 C 0.90917 0.94238 0.4049 0.0
O220 O 0.91636 0.93487 0.41856 0.0
O221 O 0.90096 0.93938 0.37974 0.0
O222 O 0.93363 0.91405 0.42527 0.0
O223 O 0.92944 0.91295 0.35544 0.0
O224 O 0.66396 0.64262 0.66985 0.0
Cd225 Cd 0.67271 0.64807 0.61561 0.0
Cd226 Cd 0.66894 0.6696 0.65143 0.0
O227 O 0.65803 0.65992 0.69071 0.0
O228 O 0.67164 0.63494 0.57398 0.0
O229 O 0.66334 0.65198 0.56245 0.0
C230 C 0.66512 0.64141 0.55008 0.0
C231 C 0.66322 0.68878 0.63766 0.0
C232 C 0.65801 0.64896 0.69512 0.0
C233 C 0.69367 0.66028 0.6465 0.0
O234 O 0.68665 0.6679 0.66062 0.0
O235 O 0.69 0.65171 0.62446 0.0
O236 O 0.6663 0.68534 0.67567 0.0
O237 O 0.66313 0.68122 0.60672 0.0
O238 O 0.6071 0.4147 0.9205 0.0
Cd239 Cd 0.60085 0.42343 0.86716 0.0
Cd240 Cd 0.58012 0.41815 0.90328 0.0
O241 O 0.59038 0.40671 0.9378 0.0
O242 O 0.6136 0.42317 0.82377 0.0
O243 O 0.59693 0.41396 0.81432 0.0
C244 C 0.60726 0.41633 0.8006 0.0
C245 C 0.56116 0.41205 0.88823 0.0
C246 C 0.60126 0.4076 0.94321 0.0
C247 C 0.58802 0.44331 0.90293 0.0
O248 O 0.5813 0.43561 0.9185 0.0
O249 O 0.5961 0.44044 0.87701 0.0
O250 O 0.56462 0.41424 0.92709 0.0
O251 O 0.56859 0.41311 0.85709 0.0
O252 O 0.83782 0.35811 0.16831 0.0
Cd253 Cd 0.82794 0.3525 0.11712 0.0
Cd254 Cd 0.83186 0.33108 0.15397 0.0
O255 O 0.8436 0.34079 0.1896 0.0
O256 O 0.82851 0.36518 0.07342 0.0
O257 O 0.83626 0.34785 0.06242 0.0
C258 C 0.83444 0.35832 0.04893 0.0
C259 C 0.83702 0.31174 0.14028 0.0
C260 C 0.84403 0.35177 0.19272 0.0
C261 C 0.80727 0.34085 0.15379 0.0
O262 O 0.81434 0.33314 0.16682 0.0
O263 O 0.81077 0.34926 0.13053 0.0
O264 O 0.83461 0.31541 0.17868 0.0
O265 O 0.83676 0.31916 0.10889 0.0
O266 O 0.89115 0.58643 0.41881 0.0
Cd267 Cd 0.89623 0.57708 0.36544 0.0
Cd268 Cd 0.91802 0.58123 0.39762 0.0
O269 O 0.90864 0.59276 0.43539 0.0
O270 O 0.88319 0.57802 0.32339 0.0
O271 O 0.9004 0.58597 0.3115 0.0
C272 C 0.88983 0.58425 0.29901 0.0
C273 C 0.93723 0.58662 0.38281 0.0
C274 C 0.89775 0.59281 0.4416 0.0
C275 C 0.90859 0.55647 0.39813 0.0
O276 O 0.91631 0.56365 0.41018 0.0
O277 O 0.89986 0.55987 0.37644 0.0
O278 O 0.93377 0.58401 0.42128 0.0
O279 O 0.92967 0.58642 0.35191 0.0
O280 O 0.66362 0.35888 0.32958 0.0
Cd281 Cd 0.67302 0.3532 0.38194 0.0
Cd282 Cd 0.66919 0.33185 0.34549 0.0
O283 O 0.65788 0.34157 0.30797 0.0
O284 O 0.67218 0.36587 0.4256 0.0
O285 O 0.66426 0.34857 0.43571 0.0
C286 C 0.66604 0.35902 0.44946 0.0
C287 C 0.66365 0.31266 0.35981 0.0
C288 C 0.65759 0.35255 0.3045 0.0
C289 C 0.69385 0.34135 0.34772 0.0
O290 O 0.6868 0.33367 0.33426 0.0
O291 O 0.69026 0.34983 0.37038 0.0
O292 O 0.6664 0.31613 0.32146 0.0
O293 O 0.66379 0.32021 0.39077 0.0
O294 O 0.89374 0.41351 0.57543 0.0
Cd295 Cd 0.8989 0.42274 0.62899 0.0
Cd296 Cd 0.92048 0.41902 0.5959 0.0
O297 O 0.91126 0.4078 0.55639 0.0
O298 O 0.8857 0.42192 0.67039 0.0
O299 O 0.90277 0.41383 0.68327 0.0
C300 C 0.89218 0.41566 0.69522 0.0
C301 C 0.93902 0.41286 0.61665 0.0
C302 C 0.90033 0.40753 0.55118 0.0
C303 C 0.91111 0.44365 0.59669 0.0
O304 O 0.91895 0.43666 0.5841 0.0
O305 O 0.90247 0.43998 0.61832 0.0
O306 O 0.93664 0.41571 0.57724 0.0
O307 O 0.93079 0.41344 0.64503 0.0
O308 O 0.83724 0.64367 0.82632 0.0
Cd309 Cd 0.82746 0.64946 0.87752 0.0
Cd310 Cd 0.83162 0.67062 0.84139 0.0
O311 O 0.84299 0.66091 0.80414 0.0
O312 O 0.82771 0.63668 0.92087 0.0
O313 O 0.83583 0.65381 0.9325 0.0
C314 C 0.83377 0.64336 0.94566 0.0
C315 C 0.8378 0.68919 0.86161 0.0
C316 C 0.84334 0.64993 0.80126 0.0
C317 C 0.80693 0.66151 0.84098 0.0
O318 O 0.81406 0.6692 0.82822 0.0
O319 O 0.81036 0.65302 0.86393 0.0
O320 O 0.83523 0.68666 0.82205 0.0
O321 O 0.83697 0.68108 0.89038 0.0
O322 O 0.60822 0.58616 0.08003 0.0
Cd323 Cd 0.60137 0.577 0.13132 0.0
Cd324 Cd 0.58116 0.58281 0.09449 0.0
O325 O 0.59169 0.59444 0.06216 0.0
O326 O 0.61339 0.57697 0.17756 0.0
O327 O 0.59656 0.58611 0.18391 0.0
C328 C 0.60664 0.58364 0.19983 0.0
C329 C 0.56232 0.589 0.11074 0.0
C330 C 0.6026 0.59351 0.05768 0.0
C331 C 0.58865 0.5576 0.0917 0.0
O332 O 0.58213 0.56552 0.07658 0.0
O333 O 0.59658 0.56012 0.11873 0.0
O334 O 0.56572 0.58724 0.07149 0.0
O335 O 0.56975 0.58746 0.14159 0.0
O336 O 0.33558 0.35892 0.32939 0.0
Cd337 Cd 0.32638 0.35362 0.3828 0.0
Cd338 Cd 0.32996 0.3321 0.34708 0.0
O339 O 0.34135 0.34153 0.30893 0.0
O340 O 0.3275 0.36667 0.42477 0.0
O341 O 0.33536 0.34943 0.4366 0.0
C342 C 0.33374 0.36002 0.44903 0.0
C343 C 0.33507 0.31277 0.36134 0.0
C344 C 0.34159 0.35249 0.30462 0.0
C345 C 0.3054 0.34197 0.34965 0.0
O346 O 0.31238 0.33424 0.33604 0.0
O347 O 0.30907 0.35039 0.3724 0.0
O348 O 0.3323 0.3163 0.32309 0.0
O349 O 0.33524 0.32035 0.39222 0.0
O350 O 0.39314 0.58882 0.07888 0.0
Cd351 Cd 0.3986 0.57854 0.12962 0.0
Cd352 Cd 0.42014 0.58276 0.09484 0.0
O353 O 0.41061 0.59447 0.05907 0.0
O354 O 0.38572 0.57874 0.17255 0.0
O355 O 0.40288 0.58673 0.185 0.0
C356 C 0.39238 0.58473 0.19769 0.0
C357 C 0.43923 0.58834 0.11059 0.0
C358 C 0.39967 0.59507 0.05527 0.0
C359 C 0.4108 0.55813 0.0923 0.0
O360 O 0.41837 0.5654 0.07977 0.0
O361 O 0.40235 0.5614 0.11581 0.0
O362 O 0.43586 0.58605 0.07171 0.0
O363 O 0.43168 0.58758 0.14142 0.0
O364 O 0.16071 0.64314 0.82752 0.0
Cd365 Cd 0.17144 0.64669 0.87904 0.0
Cd366 Cd 0.16973 0.66923 0.84684 0.0
O367 O 0.15804 0.66119 0.80587 0.0
O368 O 0.16992 0.63317 0.91871 0.0
O369 O 0.16389 0.65082 0.93587 0.0
C370 C 0.1648 0.63997 0.94589 0.0
C371 C 0.16599 0.68871 0.86382 0.0
C372 C 0.15594 0.65041 0.8022 0.0
C373 C 0.19333 0.65726 0.84674 0.0
O374 O 0.18712 0.66599 0.83705 0.0
O375 O 0.18888 0.64851 0.86551 0.0
O376 O 0.16891 0.68544 0.82543 0.0
O377 O 0.16483 0.68081 0.89321 0.0
O378 O 0.10461 0.41099 0.57413 0.0
Cd379 Cd 0.09936 0.42123 0.62513 0.0
Cd380 Cd 0.07814 0.417 0.58935 0.0
O381 O 0.08734 0.4048 0.5544 0.0
O382 O 0.11296 0.42088 0.66473 0.0
O383 O 0.09587 0.41357 0.68247 0.0
C384 C 0.10664 0.41526 0.69212 0.0
C385 C 0.05949 0.41162 0.61159 0.0
C386 C 0.0983 0.40447 0.55081 0.0
C387 C 0.08766 0.44157 0.5861 0.0
O388 O 0.08021 0.43427 0.57262 0.0
O389 O 0.0958 0.43834 0.61122 0.0
O390 O 0.06194 0.41362 0.57147 0.0
O391 O 0.06772 0.41264 0.6398 0.0
O392 O 0.33896 0.6444 0.67153 0.0
Cd393 Cd 0.3285 0.6486 0.61993 0.0
Cd394 Cd 0.33033 0.67073 0.65412 0.0
O395 O 0.34145 0.66221 0.69596 0.0
O396 O 0.32972 0.63522 0.5794 0.0
O397 O 0.33626 0.65277 0.56347 0.0
C398 C 0.33506 0.642 0.55273 0.0
C399 C 0.3357 0.68967 0.63493 0.0
C400 C 0.3435 0.6514 0.69845 0.0
C401 C 0.30659 0.65942 0.65247 0.0
O402 O 0.3128 0.66809 0.66297 0.0
O403 O 0.31108 0.65074 0.63333 0.0
O404 O 0.33235 0.68705 0.67358 0.0
O405 O 0.33604 0.68147 0.60639 0.0
O406 O 0.10635 0.58874 0.42253 0.0
Cd407 Cd 0.10133 0.57813 0.37209 0.0
Cd408 Cd 0.07961 0.58187 0.40591 0.0
O409 O 0.08869 0.59389 0.44191 0.0
O410 O 0.1142 0.5786 0.32919 0.0
O411 O 0.09679 0.58599 0.31636 0.0
C412 C 0.10734 0.58425 0.3037 0.0
C413 C 0.06039 0.58674 0.3891 0.0
C414 C 0.0996 0.59483 0.44587 0.0
C415 C 0.08958 0.55748 0.40933 0.0
O416 O 0.08179 0.56459 0.4213 0.0
O417 O 0.09804 0.56092 0.38623 0.0
O418 O 0.0637 0.58457 0.42815 0.0
O419 O 0.06811 0.58635 0.35875 0.0
O420 O 0.16143 0.35725 0.17203 0.0
Cd421 Cd 0.17137 0.35372 0.11847 0.0
Cd422 Cd 0.1688 0.33105 0.14852 0.0
O423 O 0.15685 0.3392 0.18835 0.0
O424 O 0.16939 0.36761 0.08097 0.0
O425 O 0.16354 0.35005 0.06172 0.0
C426 C 0.16418 0.36102 0.0533 0.0
C427 C 0.1648 0.31149 0.13342 0.0
C428 C 0.15583 0.35003 0.19498 0.0
C429 C 0.19283 0.34255 0.14947 0.0
O430 O 0.18627 0.3341 0.15956 0.0
O431 O 0.18876 0.35137 0.13001 0.0
O432 O 0.16759 0.31503 0.17159 0.0
O433 O 0.16407 0.31914 0.10296 0.0
O434 O 0.39199 0.41436 0.91975 0.0
Cd435 Cd 0.39857 0.42354 0.86802 0.0
Cd436 Cd 0.41899 0.41818 0.90527 0.0
O437 O 0.40867 0.40646 0.93806 0.0
O438 O 0.38627 0.42347 0.82285 0.0
O439 O 0.40312 0.41449 0.81492 0.0
C440 C 0.39292 0.41688 0.79991 0.0
C441 C 0.43797 0.41225 0.88976 0.0
C442 C 0.39775 0.4072 0.94245 0.0
C443 C 0.41097 0.44326 0.90705 0.0
O444 O 0.41764 0.4355 0.92242 0.0
O445 O 0.40309 0.44052 0.88009 0.0
O446 O 0.43449 0.41414 0.92882 0.0
O447 O 0.43056 0.41353 0.85868 0.0
C448 C 0.28902 0.16801 0.32545 0.0
C449 C 0.29474 0.15769 0.33705 0.0
C450 C 0.27786 0.1677 0.30796 0.0
C451 C 0.25889 0.14928 0.24378 0.0
H452 H 0.23451 0.17006 0.28193 0.0
C453 C 0.21227 0.14721 0.17398 0.0
C454 C 0.20598 0.15761 0.17082 0.0
C455 C 0.22317 0.14703 0.19392 0.0
C456 C 0.24127 0.16433 0.27031 0.0
H457 H 0.2931 0.13897 0.34032 0.0
H458 H 0.27359 0.13844 0.30907 0.0
H459 H 0.25308 0.17002 0.31966 0.0
H460 H 0.20646 0.17608 0.18391 0.0
H461 H 0.22561 0.17587 0.2169 0.0
H462 H 0.24728 0.14383 0.19358 0.0
C463 C 0.27779 0.14675 0.31371 0.0
C464 C 0.25187 0.16425 0.29223 0.0
C465 C 0.28891 0.14707 0.3319 0.0
C466 C 0.21104 0.1679 0.18623 0.0
C467 C 0.22199 0.16775 0.20557 0.0
C468 C 0.24833 0.14946 0.22145 0.0
C469 C 0.27222 0.15706 0.30109 0.0
C470 C 0.26079 0.15675 0.27914 0.0
C471 C 0.2281 0.15727 0.21063 0.0
C472 C 0.23938 0.15702 0.23431 0.0
H473 H 0.29328 0.17633 0.32907 0.0
H474 H 0.27379 0.17577 0.29832 0.0
H475 H 0.26569 0.14352 0.23266 0.0
H476 H 0.20858 0.13911 0.16271 0.0
H477 H 0.22754 0.13877 0.19755 0.0
C478 C 0.09858 0.96244 0.4152 0.0
C479 C 0.09003 0.95433 0.42686 0.0
C480 C 0.09837 0.97369 0.43238 0.0
C481 C 0.07896 0.99471 0.48828 0.0
H482 H 0.10787 0.00937 0.52151 0.0
C483 C 0.08105 0.0425 0.54283 0.0
C484 C 0.08895 0.04557 0.57568 0.0
C485 C 0.08107 0.03134 0.52517 0.0
C486 C 0.0997 0.00536 0.51286 0.0
H487 H 0.07452 0.95173 0.46566 0.0
H488 H 0.07429 0.97113 0.49605 0.0
H489 H 0.10815 0.99009 0.48919 0.0
H490 H 0.10288 0.03917 0.61652 0.0
H491 H 0.10272 0.01959 0.58647 0.0
H492 H 0.07047 0.00978 0.51324 0.0
C493 C 0.08104 0.96894 0.47301 0.0
C494 C 0.09988 0.99436 0.49367 0.0
C495 C 0.08121 0.95776 0.45569 0.0
C496 C 0.0967 0.03711 0.59116 0.0
C497 C 0.09667 0.02591 0.57365 0.0
C498 C 0.07877 0.00566 0.50769 0.0
C499 C 0.08963 0.97705 0.46175 0.0
C500 C 0.0895 0.98889 0.48116 0.0
C501 C 0.08893 0.02292 0.5401 0.0
C502 C 0.08914 0.01114 0.52021 0.0
H503 H 0.10548 0.9601 0.39299 0.0
H504 H 0.10503 0.97976 0.42248 0.0
H505 H 0.0708 0.99084 0.47861 0.0
H506 H 0.07499 0.0488 0.5299 0.0
H507 H 0.0751 0.02943 0.49898 0.0
C508 C 0.21128 0.83403 0.81716 0.0
C509 C 0.20536 0.84439 0.82668 0.0
C510 C 0.22245 0.8343 0.7998 0.0
C511 C 0.24162 0.85229 0.73396 0.0
H512 H 0.26554 0.83133 0.77478 0.0
C513 C 0.28867 0.85278 0.66672 0.0
C514 C 0.29455 0.84213 0.66407 0.0
C515 C 0.27768 0.85343 0.68586 0.0
C516 C 0.25892 0.83713 0.76249 0.0
H517 H 0.20665 0.86315 0.82625 0.0
H518 H 0.22623 0.8636 0.7954 0.0
H519 H 0.24693 0.83198 0.81199 0.0
H520 H 0.29322 0.82369 0.67709 0.0
H521 H 0.27395 0.82473 0.70899 0.0
H522 H 0.2535 0.85725 0.68378 0.0
C523 C 0.22216 0.85529 0.80146 0.0
C524 C 0.24828 0.83754 0.78406 0.0
C525 C 0.211 0.85503 0.81942 0.0
C526 C 0.28897 0.83206 0.67902 0.0
C527 C 0.27796 0.83268 0.69771 0.0
C528 C 0.25225 0.85181 0.71208 0.0
C529 C 0.22794 0.84492 0.79109 0.0
C530 C 0.23949 0.84506 0.76986 0.0
C531 C 0.27229 0.84341 0.70242 0.0
C532 C 0.261 0.84413 0.72585 0.0
H533 H 0.20719 0.82569 0.82241 0.0
H534 H 0.22665 0.82616 0.79185 0.0
H535 H 0.23495 0.85808 0.72198 0.0
H536 H 0.29276 0.86072 0.65572 0.0
H537 H 0.27363 0.86185 0.68915 0.0
C538 C 0.40409 0.0369 0.91196 0.0
C539 C 0.41233 0.04513 0.92547 0.0
C540 C 0.40427 0.02561 0.92876 0.0
C541 C 0.40219 0.00486 0.98937 0.0
H542 H 0.43147 0.98976 0.01443 0.0
C543 C 0.40455 0.96193 0.08647 0.0
C544 C 0.41265 0.95363 0.07239 0.0
C545 C 0.40465 0.97317 0.06922 0.0
C546 C 0.4232 0.99379 0.00734 0.0
H547 H 0.4273 0.04787 0.96697 0.0
H548 H 0.42748 0.02839 0.99668 0.0
H549 H 0.4314 0.00873 0.98002 0.0
H550 H 0.42726 0.9507 0.02928 0.0
H551 H 0.42728 0.97011 0.9988 0.0
H552 H 0.394 0.98973 0.01543 0.0
C553 C 0.421 0.03053 0.97253 0.0
C554 C 0.42316 0.00476 0.98804 0.0
C555 C 0.42085 0.04176 0.95558 0.0
C556 C 0.42094 0.95688 0.04116 0.0
C557 C 0.42099 0.96806 0.02375 0.0
C558 C 0.40223 0.99384 0.00844 0.0
C559 C 0.41267 0.02232 0.95961 0.0
C560 C 0.41266 0.01046 0.97893 0.0
C561 C 0.41281 0.97635 0.03733 0.0
C562 C 0.41274 0.98817 0.01772 0.0
H563 H 0.39742 0.03919 0.88873 0.0
H564 H 0.39784 0.01947 0.91752 0.0
H565 H 0.39394 0.00904 0.98336 0.0
H566 H 0.39806 0.95973 0.11055 0.0
H567 H 0.39834 0.97938 0.08098 0.0
C568 C 0.78818 0.82811 0.82143 0.0
C569 C 0.79359 0.8385 0.83395 0.0
C570 C 0.77708 0.82823 0.80318 0.0
C571 C 0.7513 0.84722 0.78364 0.0
H572 H 0.74559 0.82531 0.69037 0.0
C573 C 0.71194 0.85066 0.66792 0.0
C574 C 0.7052 0.84053 0.665 0.0
C575 C 0.72287 0.85038 0.68755 0.0
C576 C 0.74707 0.83145 0.71646 0.0
H577 H 0.79149 0.85715 0.8382 0.0
H578 H 0.77235 0.85744 0.80509 0.0
H579 H 0.76406 0.82489 0.72879 0.0
H580 H 0.70485 0.82207 0.67857 0.0
H581 H 0.72409 0.82154 0.71174 0.0
H582 H 0.73437 0.85398 0.77002 0.0
C583 C 0.77649 0.84913 0.81027 0.0
C584 C 0.75761 0.83116 0.73881 0.0
C585 C 0.78751 0.84898 0.82922 0.0
C586 C 0.70983 0.83002 0.68038 0.0
C587 C 0.72084 0.82971 0.69929 0.0
C588 C 0.74083 0.84762 0.76078 0.0
C589 C 0.77121 0.83878 0.79623 0.0
C590 C 0.75987 0.83901 0.77289 0.0
C591 C 0.72736 0.83992 0.70388 0.0
C592 C 0.73861 0.83971 0.72709 0.0
H593 H 0.7926 0.81988 0.825 0.0
H594 H 0.77319 0.82005 0.79397 0.0
H595 H 0.7526 0.85328 0.81009 0.0
H596 H 0.70858 0.8589 0.6566 0.0
H597 H 0.72778 0.85835 0.69038 0.0
C598 C 0.91867 0.95752 0.45109 0.0
C599 C 0.91004 0.95449 0.42085 0.0
C600 C 0.91905 0.96865 0.46895 0.0
C601 C 0.90057 0.99422 0.48961 0.0
H602 H 0.92997 0.00916 0.51401 0.0
C603 C 0.91905 0.0419 0.54477 0.0
C604 C 0.91098 0.04473 0.57737 0.0
C605 C 0.91925 0.03082 0.52645 0.0
C606 C 0.92168 0.00516 0.50717 0.0
H607 H 0.89523 0.96093 0.38478 0.0
H608 H 0.89602 0.98045 0.4154 0.0
H609 H 0.92971 0.99044 0.47741 0.0
H610 H 0.89703 0.03794 0.61722 0.0
H611 H 0.89753 0.01852 0.58582 0.0
H612 H 0.89253 0.00907 0.51838 0.0
C613 C 0.90237 0.97412 0.42589 0.0
C614 C 0.92153 0.99436 0.48657 0.0
C615 C 0.90197 0.96296 0.40807 0.0
C616 C 0.90333 0.03608 0.59208 0.0
C617 C 0.90355 0.02497 0.57381 0.0
C618 C 0.90072 0.00504 0.51012 0.0
C619 C 0.91084 0.97706 0.45692 0.0
C620 C 0.91098 0.98873 0.47761 0.0
C621 C 0.91141 0.02225 0.54035 0.0
C622 C 0.91127 0.01064 0.51922 0.0
H623 H 0.92502 0.95122 0.46184 0.0
H624 H 0.9256 0.97054 0.49314 0.0
H625 H 0.89229 0.99008 0.48372 0.0
H626 H 0.92506 0.04835 0.53251 0.0
H627 H 0.92534 0.02909 0.50044 0.0
C628 C 0.71091 0.1481 0.32878 0.0
C629 C 0.705 0.15856 0.33627 0.0
C630 C 0.72186 0.14813 0.30924 0.0
C631 C 0.74072 0.16707 0.24123 0.0
H632 H 0.764 0.14381 0.26696 0.0
C633 C 0.78848 0.16946 0.18362 0.0
C634 C 0.79328 0.15925 0.16627 0.0
C635 C 0.77743 0.16937 0.20222 0.0
C636 C 0.75752 0.15029 0.25922 0.0
H637 H 0.70621 0.17728 0.33165 0.0
H638 H 0.72549 0.17738 0.2996 0.0
H639 H 0.74577 0.14381 0.30718 0.0
H640 H 0.79011 0.14099 0.15395 0.0
H641 H 0.77084 0.14083 0.18714 0.0
H642 H 0.75271 0.17373 0.19418 0.0
C643 C 0.72153 0.16911 0.30706 0.0
C644 C 0.74706 0.15029 0.28218 0.0
C645 C 0.71051 0.16907 0.3259 0.0
C646 C 0.78664 0.14902 0.16684 0.0
C647 C 0.77566 0.14889 0.18613 0.0
C648 C 0.75125 0.16716 0.21878 0.0
C649 C 0.72723 0.15863 0.29735 0.0
C650 C 0.7385 0.15869 0.2735 0.0
C651 C 0.77102 0.15903 0.20449 0.0
C652 C 0.75974 0.15876 0.22749 0.0
H653 H 0.70684 0.13986 0.33608 0.0
H654 H 0.72589 0.13987 0.30194 0.0
H655 H 0.73427 0.1735 0.23277 0.0
H656 H 0.79338 0.17748 0.18365 0.0
H657 H 0.77407 0.1773 0.21628 0.0
C658 C 0.5778 0.04244 0.9541 0.0
C659 C 0.58662 0.04582 0.92518 0.0
C660 C 0.57755 0.03124 0.9713 0.0
C661 C 0.59647 0.00597 0.99248 0.0
H662 H 0.56721 0.99034 0.01305 0.0
C663 C 0.57841 0.95771 0.04313 0.0
C664 C 0.58636 0.95485 0.07608 0.0
C665 C 0.57817 0.96886 0.02539 0.0
C666 C 0.57547 0.99453 0.00726 0.0
H667 H 0.60193 0.03991 0.89076 0.0
H668 H 0.60136 0.02025 0.92011 0.0
H669 H 0.56735 0.00922 0.97766 0.0
H670 H 0.60007 0.96162 0.11714 0.0
H671 H 0.59947 0.98117 0.08685 0.0
H672 H 0.60461 0.99113 0.02097 0.0
C673 C 0.59475 0.02637 0.93016 0.0
C674 C 0.57555 0.00543 0.98737 0.0
C675 C 0.59503 0.03762 0.91304 0.0
C676 C 0.59386 0.96351 0.09171 0.0
C677 C 0.59359 0.9747 0.07406 0.0
C678 C 0.5964 0.99504 0.01221 0.0
C679 C 0.58608 0.02308 0.95989 0.0
C680 C 0.58604 0.01131 0.97983 0.0
C681 C 0.58584 0.97747 0.04028 0.0
C682 C 0.5859 0.98919 0.01993 0.0
H683 H 0.57119 0.04854 0.96436 0.0
H684 H 0.57083 0.02909 0.99453 0.0
H685 H 0.60471 0.01029 0.9877 0.0
H686 H 0.57254 0.95125 0.03013 0.0
H687 H 0.57219 0.97062 0.99909 0.0
C688 C 0.71266 0.65068 0.66246 0.0
C689 C 0.70598 0.66085 0.65977 0.0
C690 C 0.72373 0.65094 0.68093 0.0
C691 C 0.74847 0.66932 0.70627 0.0
H692 H 0.75335 0.6487 0.80416 0.0
C693 C 0.79002 0.6723 0.80973 0.0
C694 C 0.79479 0.66191 0.82546 0.0
C695 C 0.77898 0.67242 0.79094 0.0
C696 C 0.75225 0.65439 0.77648 0.0
H697 H 0.70589 0.67937 0.67222 0.0
H698 H 0.72542 0.67986 0.7032 0.0
H699 H 0.73503 0.64814 0.7648 0.0
H700 H 0.79169 0.64352 0.83431 0.0
H701 H 0.77271 0.6436 0.80014 0.0
H702 H 0.76576 0.67533 0.71657 0.0
C703 C 0.72199 0.67168 0.69156 0.0
C704 C 0.74172 0.65408 0.75407 0.0
C705 C 0.71083 0.67139 0.67391 0.0
C706 C 0.7882 0.65169 0.8229 0.0
C707 C 0.77726 0.65176 0.80337 0.0
C708 C 0.75909 0.66948 0.72812 0.0
C709 C 0.72842 0.66142 0.69618 0.0
C710 C 0.73973 0.66156 0.71887 0.0
C711 C 0.77254 0.6621 0.78662 0.0
C712 C 0.76113 0.66205 0.76368 0.0
H713 H 0.70914 0.64242 0.65208 0.0
H714 H 0.72858 0.64293 0.6839 0.0
H715 H 0.74714 0.67513 0.67904 0.0
H716 H 0.79487 0.68033 0.81152 0.0
H717 H 0.77556 0.68061 0.77952 0.0
C718 C 0.59479 0.46402 0.90403 0.0
C719 C 0.58692 0.45548 0.91795 0.0
C720 C 0.59441 0.47521 0.92157 0.0
C721 C 0.59674 0.49512 0.98563 0.0
H722 H 0.56763 0.51034 0.01248 0.0
C723 C 0.59499 0.53675 0.08944 0.0
C724 C 0.58747 0.54557 0.07518 0.0
C725 C 0.59449 0.52568 0.07097 0.0
C726 C 0.57584 0.50624 0.00497 0.0
H727 H 0.57224 0.45215 0.96033 0.0
H728 H 0.57167 0.47156 0.99107 0.0
H729 H 0.5675 0.49163 0.9756 0.0
H730 H 0.57334 0.54953 0.031 0.0
H731 H 0.57257 0.53031 0.99864 0.0
H732 H 0.60508 0.50984 0.01414 0.0
C733 C 0.57807 0.46967 0.96632 0.0
C734 C 0.57576 0.49546 0.98418 0.0
C735 C 0.57844 0.4585 0.94878 0.0
C736 C 0.57925 0.54295 0.04288 0.0
C737 C 0.57877 0.5319 0.02439 0.0
C738 C 0.59681 0.5059 0.00638 0.0
C739 C 0.58616 0.47812 0.95343 0.0
C740 C 0.58621 0.48976 0.9743 0.0
C741 C 0.58648 0.52316 0.0378 0.0
C742 C 0.58637 0.51159 0.01637 0.0
H743 H 0.60142 0.46201 0.88025 0.0
H744 H 0.60065 0.48157 0.91038 0.0
H745 H 0.60494 0.49091 0.97904 0.0
H746 H 0.6014 0.53845 0.11435 0.0
H747 H 0.60043 0.51909 0.08257 0.0
C748 C 0.71271 0.35111 0.33088 0.0
C749 C 0.70608 0.3409 0.33338 0.0
C750 C 0.72374 0.35095 0.3121 0.0
C751 C 0.74852 0.33269 0.28631 0.0
H752 H 0.75364 0.35374 0.18987 0.0
C753 C 0.79027 0.33006 0.18406 0.0
C754 C 0.79512 0.34049 0.16903 0.0
C755 C 0.77919 0.32991 0.20248 0.0
C756 C 0.75247 0.34792 0.21715 0.0
H757 H 0.70603 0.32243 0.32003 0.0
H758 H 0.7255 0.32211 0.28847 0.0
H759 H 0.73521 0.35411 0.22863 0.0
H760 H 0.79212 0.35892 0.16103 0.0
H761 H 0.77304 0.35878 0.19462 0.0
H762 H 0.76584 0.32674 0.27626 0.0
C763 C 0.72205 0.33024 0.30053 0.0
C764 C 0.74188 0.34813 0.23921 0.0
C765 C 0.71092 0.33044 0.31849 0.0
C766 C 0.78856 0.35072 0.17192 0.0
C767 C 0.77757 0.35061 0.19111 0.0
C768 C 0.7592 0.33263 0.26482 0.0
C769 C 0.72845 0.34054 0.29631 0.0
C770 C 0.7398 0.34049 0.27387 0.0
C771 C 0.77278 0.34022 0.20716 0.0
C772 C 0.76132 0.34021 0.22978 0.0
H773 H 0.70919 0.35932 0.34183 0.0
H774 H 0.72856 0.35899 0.30946 0.0
H775 H 0.74713 0.32676 0.31315 0.0
H776 H 0.79508 0.32201 0.18196 0.0
H777 H 0.77571 0.32168 0.21332 0.0
C778 C 0.90124 0.46242 0.57964 0.0
C779 C 0.91148 0.45588 0.58211 0.0
C780 C 0.90126 0.47341 0.56049 0.0
C781 C 0.91884 0.49169 0.48532 0.0
H782 H 0.89723 0.51558 0.52136 0.0
C783 C 0.91996 0.53967 0.42719 0.0
C784 C 0.90932 0.5443 0.41317 0.0
C785 C 0.92045 0.52864 0.44603 0.0
C786 C 0.90326 0.50894 0.51082 0.0
H787 H 0.92992 0.45598 0.56859 0.0
H788 H 0.93011 0.47537 0.5372 0.0
H789 H 0.89805 0.49736 0.56135 0.0
H790 H 0.8909 0.54091 0.40709 0.0
H791 H 0.89175 0.52172 0.44092 0.0
H792 H 0.92428 0.50358 0.43569 0.0
C793 C 0.92193 0.47187 0.54841 0.0
C794 C 0.90371 0.49847 0.5336 0.0
C795 C 0.92186 0.46078 0.56685 0.0
C796 C 0.89923 0.53756 0.41735 0.0
C797 C 0.89969 0.52663 0.43698 0.0
C798 C 0.91852 0.50226 0.46307 0.0
C799 C 0.91158 0.47824 0.54402 0.0
C800 C 0.91145 0.48964 0.52099 0.0
C801 C 0.91028 0.52214 0.45197 0.0
C802 C 0.91066 0.51093 0.4754 0.0
H803 H 0.89307 0.45885 0.5907 0.0
H804 H 0.89307 0.47792 0.55722 0.0
H805 H 0.92475 0.48506 0.47393 0.0
H806 H 0.92788 0.54466 0.42436 0.0
H807 H 0.92872 0.52538 0.45743 0.0
C808 C 0.28661 0.35191 0.33309 0.0
C809 C 0.29319 0.34167 0.33499 0.0
C810 C 0.27567 0.35194 0.31347 0.0
C811 C 0.25796 0.33471 0.23553 0.0
H812 H 0.23339 0.35535 0.27309 0.0
C813 C 0.21037 0.33195 0.17614 0.0
C814 C 0.20504 0.34245 0.16424 0.0
C815 C 0.22141 0.33192 0.19486 0.0
C816 C 0.24023 0.34962 0.26206 0.0
H817 H 0.29319 0.32329 0.32016 0.0
H818 H 0.27393 0.3232 0.28786 0.0
H819 H 0.25158 0.3548 0.3134 0.0
H820 H 0.20721 0.36112 0.16174 0.0
H821 H 0.22646 0.36105 0.1952 0.0
H822 H 0.24636 0.3293 0.18501 0.0
C823 C 0.27736 0.33134 0.29987 0.0
C824 C 0.25067 0.34931 0.28507 0.0
C825 C 0.28836 0.33135 0.31883 0.0
C826 C 0.21111 0.35289 0.17036 0.0
C827 C 0.22207 0.35287 0.1898 0.0
C828 C 0.24745 0.3349 0.21298 0.0
C829 C 0.27098 0.34169 0.29588 0.0
C830 C 0.25971 0.34186 0.27209 0.0
C831 C 0.22725 0.34239 0.20272 0.0
C832 C 0.2385 0.34238 0.22594 0.0
H833 H 0.29013 0.36003 0.34492 0.0
H834 H 0.27112 0.36012 0.31064 0.0
H835 H 0.26477 0.32906 0.22381 0.0
H836 H 0.20591 0.32376 0.1718 0.0
H837 H 0.22519 0.32373 0.20466 0.0
C838 C 0.42033 0.54266 0.04768 0.0
C839 C 0.41153 0.54596 0.07683 0.0
C840 C 0.4206 0.53149 0.03021 0.0
C841 C 0.40173 0.50624 0.00852 0.0
H842 H 0.431 0.49068 0.98752 0.0
C843 C 0.41978 0.4581 0.9565 0.0
C844 C 0.41188 0.45534 0.92327 0.0
C845 C 0.42001 0.46921 0.97461 0.0
C846 C 0.42274 0.49485 0.99342 0.0
H847 H 0.39629 0.53994 0.11138 0.0
H848 H 0.39689 0.52033 0.08152 0.0
H849 H 0.43085 0.50948 0.02344 0.0
H850 H 0.39825 0.46224 0.88213 0.0
H851 H 0.39883 0.48171 0.91311 0.0
H852 H 0.39361 0.49146 0.97954 0.0
C853 C 0.40346 0.52649 0.07153 0.0
C854 C 0.42266 0.50571 0.01362 0.0
C855 C 0.40316 0.53771 0.08893 0.0
C856 C 0.40442 0.46406 0.90777 0.0
C857 C 0.40469 0.47519 0.9258 0.0
C858 C 0.40181 0.49536 0.98845 0.0
C859 C 0.41211 0.52329 0.04157 0.0
C860 C 0.41216 0.51156 0.02133 0.0
C861 C 0.41239 0.47787 0.95983 0.0
C862 C 0.41232 0.48953 0.98056 0.0
H863 H 0.4269 0.5488 0.03745 0.0
H864 H 0.42729 0.5294 0.00683 0.0
H865 H 0.39349 0.51055 0.01343 0.0
H866 H 0.42562 0.4516 0.9694 0.0
H867 H 0.42596 0.4709 0.00108 0.0
C868 C 0.28877 0.66924 0.6806 0.0
C869 C 0.29434 0.65906 0.66672 0.0
C870 C 0.27777 0.66876 0.69948 0.0
C871 C 0.25219 0.64958 0.71699 0.0
H872 H 0.24688 0.6703 0.81431 0.0
C873 C 0.21155 0.64655 0.82727 0.0
C874 C 0.20561 0.65709 0.83278 0.0
C875 C 0.22266 0.64639 0.8089 0.0
C876 C 0.24823 0.66449 0.78712 0.0
H877 H 0.29256 0.64041 0.66046 0.0
H878 H 0.27348 0.63952 0.69433 0.0
H879 H 0.26538 0.67084 0.77623 0.0
H880 H 0.20685 0.67576 0.82513 0.0
H881 H 0.22626 0.67548 0.79394 0.0
H882 H 0.23503 0.64314 0.72866 0.0
C883 C 0.27751 0.64792 0.68999 0.0
C884 C 0.2588 0.66484 0.76502 0.0
C885 C 0.28847 0.64842 0.67059 0.0
C886 C 0.21118 0.66749 0.82125 0.0
C887 C 0.22232 0.66734 0.80351 0.0
C888 C 0.24165 0.64915 0.73945 0.0
C889 C 0.27212 0.65806 0.70551 0.0
C890 C 0.26088 0.65749 0.72932 0.0
C891 C 0.22808 0.65678 0.7964 0.0
C892 C 0.23953 0.65668 0.77446 0.0
H893 H 0.29302 0.67758 0.6777 0.0
H894 H 0.27377 0.67678 0.7099 0.0
H895 H 0.25342 0.64388 0.68941 0.0
H896 H 0.20746 0.63839 0.83565 0.0
H897 H 0.22696 0.63814 0.80409 0.0
C898 C 0.09514 0.46205 0.58531 0.0
C899 C 0.08725 0.45369 0.57005 0.0
C900 C 0.09519 0.47326 0.56788 0.0
C901 C 0.07733 0.4938 0.50327 0.0
H902 H 0.10683 0.50905 0.4836 0.0
C903 C 0.0973 0.53707 0.41161 0.0
C904 C 0.08898 0.54528 0.42454 0.0
C905 C 0.09698 0.52575 0.4281 0.0
C906 C 0.09852 0.50487 0.48842 0.0
H907 H 0.07316 0.45063 0.52471 0.0
H908 H 0.07339 0.47004 0.49396 0.0
H909 H 0.10643 0.48968 0.51524 0.0
H910 H 0.07375 0.54798 0.4648 0.0
H911 H 0.07334 0.52844 0.49393 0.0
H912 H 0.06943 0.50882 0.47532 0.0
C913 C 0.07941 0.46803 0.5199 0.0
C914 C 0.09828 0.49382 0.5072 0.0
C915 C 0.07931 0.45686 0.53746 0.0
C916 C 0.08027 0.54188 0.45388 0.0
C917 C 0.07999 0.53062 0.47048 0.0
C918 C 0.07757 0.50481 0.4843 0.0
C919 C 0.0874 0.47636 0.53465 0.0
C920 C 0.08768 0.48816 0.51499 0.0
C921 C 0.08836 0.52241 0.458 0.0
C922 C 0.08816 0.51051 0.4768 0.0
H923 H 0.10135 0.45991 0.61046 0.0
H924 H 0.10134 0.4795 0.58056 0.0
H925 H 0.069 0.48977 0.50916 0.0
H926 H 0.10411 0.53939 0.38899 0.0
H927 H 0.10347 0.51961 0.4173 0.0
C928 C 0.15887 0.12269 0.0113 0.0
C929 C 0.16037 0.13476 0.01448 0.0
C930 C 0.15271 0.11788 0.97669 0.0
C931 C 0.14411 0.12246 0.86463 0.0
H932 H 0.12003 0.0999 0.88996 0.0
C933 C 0.12591 0.09095 0.73661 0.0
C934 C 0.11378 0.09025 0.73297 0.0
C935 C 0.13101 0.09693 0.77107 0.0
C936 C 0.12667 0.10624 0.88246 0.0
H937 H 0.15683 0.15124 0.98322 0.0
H938 H 0.14629 0.14273 0.92172 0.0
H939 H 0.13022 0.10956 0.94972 0.0
H940 H 0.09749 0.09502 0.76327 0.0
H941 H 0.1065 0.10524 0.82452 0.0
H942 H 0.14079 0.1189 0.79738 0.0
C943 C 0.14981 0.13706 0.94648 0.0
C944 C 0.13254 0.1117 0.91656 0.0
C945 C 0.15583 0.14191 0.9816 0.0
C946 C 0.10686 0.0954 0.76524 0.0
C947 C 0.112 0.10124 0.80022 0.0
C948 C 0.13837 0.11685 0.83054 0.0
C949 C 0.14805 0.12501 0.94412 0.0
C950 C 0.14138 0.11978 0.90794 0.0
C951 C 0.12412 0.10219 0.80305 0.0
C952 C 0.12968 0.10862 0.83916 0.0
H953 H 0.16221 0.11693 0.03614 0.0
H954 H 0.1516 0.10856 0.97533 0.0
H955 H 0.15091 0.12862 0.85715 0.0
H956 H 0.1315 0.08712 0.71224 0.0
H957 H 0.14038 0.09741 0.77281 0.0
C958 C 0.15748 0.87906 0.97967 0.0
C959 C 0.15937 0.86702 0.97807 0.0
C960 C 0.15174 0.88407 0.01492 0.0
C961 C 0.14481 0.88007 0.1296 0.0
H962 H 0.1202 0.90222 0.10685 0.0
C963 C 0.12671 0.91045 0.26154 0.0
C964 C 0.11458 0.91106 0.26553 0.0
C965 C 0.1318 0.90489 0.22606 0.0
C966 C 0.12701 0.89601 0.11366 0.0
H967 H 0.15696 0.85082 0.01274 0.0
H968 H 0.14711 0.85967 0.07505 0.0
H969 H 0.12993 0.89257 0.04608 0.0
H970 H 0.09828 0.9066 0.23468 0.0
H971 H 0.10724 0.89705 0.17192 0.0
H972 H 0.14201 0.88363 0.19714 0.0
C973 C 0.15002 0.86518 0.04871 0.0
C974 C 0.13262 0.89055 0.07895 0.0
C975 C 0.15565 0.86012 0.01307 0.0
C976 C 0.10765 0.90628 0.23249 0.0
C977 C 0.11276 0.90083 0.19661 0.0
C978 C 0.1393 0.88564 0.16428 0.0
C979 C 0.14788 0.87718 0.04965 0.0
C980 C 0.14163 0.88258 0.08658 0.0
C981 C 0.12489 0.89992 0.19346 0.0
C982 C 0.1304 0.89371 0.15664 0.0
H983 H 0.16021 0.88463 0.95323 0.0
H984 H 0.15035 0.89336 0.01508 0.0
H985 H 0.15175 0.874 0.13639 0.0
H986 H 0.13232 0.91402 0.28641 0.0
H987 H 0.14117 0.90446 0.22414 0.0
C988 C 0.37815 0.91385 0.2505 0.0
C989 C 0.38871 0.90973 0.23385 0.0
C990 C 0.3727 0.90817 0.285 0.0
C991 C 0.37714 0.88595 0.37164 0.0
H992 H 0.34357 0.88429 0.36663 0.0
C993 C 0.34974 0.85738 0.48839 0.0
C994 C 0.34069 0.86333 0.50938 0.0
C995 C 0.3556 0.86249 0.4534 0.0
C996 C 0.35294 0.88471 0.36849 0.0
H997 H 0.40202 0.89661 0.24108 0.0
H998 H 0.39237 0.88648 0.30058 0.0
H999 H 0.35412 0.89452 0.30983 0.0
H1000 H 0.3304 0.87907 0.50917 0.0
H1001 H 0.34043 0.88783 0.44756 0.0
H1002 H 0.37585 0.87588 0.43011 0.0
C1003 C 0.38838 0.89424 0.28763 0.0
C1004 C 0.35901 0.89065 0.33613 0.0
C1005 C 0.39392 0.90004 0.25343 0.0
C1006 C 0.33734 0.87427 0.49367 0.0
C1007 C 0.34305 0.87928 0.45833 0.0
C1008 C 0.37105 0.87986 0.40376 0.0
C1009 C 0.37757 0.8981 0.30331 0.0
C1010 C 0.37119 0.89149 0.33751 0.0
C1011 C 0.35237 0.87354 0.4383 0.0
C1012 C 0.35889 0.8793 0.40274 0.0
H1013 H 0.37396 0.92137 0.23634 0.0
H1014 H 0.36457 0.91162 0.29694 0.0
H1015 H 0.38648 0.8865 0.37416 0.0
H1016 H 0.35256 0.84897 0.49993 0.0
H1017 H 0.3627 0.85784 0.4383 0.0
C1018 C 0.39354 0.0993 0.74758 0.0
C1019 C 0.38823 0.0896 0.76684 0.0
C1020 C 0.38805 0.10522 0.71357 0.0
C1021 C 0.35874 0.10919 0.66514 0.0
H1022 H 0.37572 0.12377 0.5711 0.0
C1023 C 0.33728 0.12552 0.50726 0.0
C1024 C 0.34073 0.13641 0.49129 0.0
C1025 C 0.34294 0.12055 0.5428 0.0
C1026 C 0.37089 0.11985 0.59748 0.0
H1027 H 0.37338 0.07812 0.76398 0.0
H1028 H 0.36408 0.08809 0.70372 0.0
H1029 H 0.38625 0.11306 0.6271 0.0
H1030 H 0.35267 0.15072 0.50048 0.0
H1031 H 0.3627 0.1419 0.56247 0.0
H1032 H 0.34337 0.11569 0.63462 0.0
C1033 C 0.37224 0.09144 0.71577 0.0
C1034 C 0.37691 0.11371 0.62961 0.0
C1035 C 0.37764 0.08563 0.75007 0.0
C1036 C 0.34979 0.14234 0.51223 0.0
C1037 C 0.35558 0.13727 0.54743 0.0
C1038 C 0.35273 0.11519 0.63277 0.0
C1039 C 0.37721 0.1015 0.69777 0.0
C1040 C 0.37091 0.10822 0.66371 0.0
C1041 C 0.35227 0.12627 0.56277 0.0
C1042 C 0.35873 0.12052 0.59848 0.0
H1043 H 0.40167 0.10261 0.76003 0.0
H1044 H 0.39212 0.11297 0.70083 0.0
H1045 H 0.35382 0.10536 0.69143 0.0
H1046 H 0.33033 0.12073 0.49181 0.0
H1047 H 0.34025 0.11203 0.55376 0.0
C1048 C 0.83582 0.8726 0.00164 0.0
C1049 C 0.83945 0.86173 0.9861 0.0
C1050 C 0.84153 0.87787 0.03642 0.0
C1051 C 0.8697 0.87925 0.09017 0.0
H1052 H 0.85255 0.89434 0.18257 0.0
C1053 C 0.89196 0.90073 0.23941 0.0
C1054 C 0.88662 0.91057 0.25741 0.0
C1055 C 0.88663 0.89463 0.20549 0.0
C1056 C 0.85749 0.89034 0.15668 0.0
H1057 H 0.85179 0.84776 0.99536 0.0
H1058 H 0.86188 0.85708 0.05616 0.0
H1059 H 0.84216 0.88351 0.12697 0.0
H1060 H 0.87189 0.92217 0.25222 0.0
H1061 H 0.86284 0.91186 0.19221 0.0
H1062 H 0.88503 0.8863 0.11922 0.0
C1063 C 0.85459 0.86148 0.04128 0.0
C1064 C 0.85152 0.88406 0.125 0.0
C1065 C 0.84876 0.85612 0.00676 0.0
C1066 C 0.87617 0.91455 0.23932 0.0
C1067 C 0.87092 0.90855 0.20517 0.0
C1068 C 0.87569 0.88563 0.1217 0.0
C1069 C 0.85109 0.87247 0.05616 0.0
C1070 C 0.85754 0.87852 0.09123 0.0
C1071 C 0.8759 0.89832 0.18861 0.0
C1072 C 0.86965 0.89135 0.15517 0.0
H1073 H 0.82869 0.87715 0.98639 0.0
H1074 H 0.83869 0.88638 0.04696 0.0
H1075 H 0.87456 0.87517 0.06421 0.0
H1076 H 0.89998 0.89742 0.25286 0.0
H1077 H 0.8907 0.88677 0.19378 0.0
C1078 C 0.83604 0.12525 0.99604 0.0
C1079 C 0.83938 0.13617 0.01199 0.0
C1080 C 0.84228 0.11993 0.9627 0.0
C1081 C 0.86416 0.1251 0.87623 0.0
H1082 H 0.8685 0.09185 0.88677 0.0
C1083 C 0.89318 0.09863 0.75821 0.0
C1084 C 0.88778 0.08876 0.74062 0.0
C1085 C 0.88817 0.10451 0.79337 0.0
C1086 C 0.86734 0.10113 0.88333 0.0
H1087 H 0.85168 0.15024 0.00449 0.0
H1088 H 0.86274 0.14085 0.94659 0.0
H1089 H 0.85773 0.10227 0.94251 0.0
H1090 H 0.87317 0.07705 0.74713 0.0
H1091 H 0.86458 0.08715 0.80873 0.0
H1092 H 0.87387 0.12388 0.81696 0.0
C1093 C 0.85519 0.13646 0.95951 0.0
C1094 C 0.8611 0.10711 0.91513 0.0
C1095 C 0.84886 0.14185 0.99273 0.0
C1096 C 0.87754 0.08462 0.75994 0.0
C1097 C 0.87264 0.09039 0.79534 0.0
C1098 C 0.87049 0.11912 0.84453 0.0
C1099 C 0.85212 0.12532 0.94472 0.0
C1100 C 0.85925 0.11914 0.91165 0.0
C1101 C 0.87778 0.10051 0.81197 0.0
C1102 C 0.87199 0.10704 0.84743 0.0
H1103 H 0.82871 0.12069 0.00992 0.0
H1104 H 0.83946 0.1115 0.95135 0.0
H1105 H 0.86284 0.13434 0.8723 0.0
H1106 H 0.90104 0.10206 0.74387 0.0
H1107 H 0.89237 0.11223 0.80579 0.0
C1108 C 0.62114 0.08557 0.74754 0.0
C1109 C 0.61066 0.08972 0.76482 0.0
C1110 C 0.62631 0.09107 0.71204 0.0
C1111 C 0.62872 0.11932 0.65988 0.0
H1112 H 0.6415 0.10194 0.56328 0.0
C1113 C 0.64989 0.1416 0.51028 0.0
C1114 C 0.65911 0.13582 0.48977 0.0
C1115 C 0.64379 0.13627 0.5442 0.0
C1116 C 0.63816 0.10694 0.59032 0.0
H1117 H 0.59724 0.10276 0.7579 0.0
H1118 H 0.6064 0.11249 0.69598 0.0
H1119 H 0.6308 0.09182 0.61999 0.0
H1120 H 0.66959 0.12021 0.49026 0.0
H1121 H 0.65933 0.11114 0.55034 0.0
H1122 H 0.63635 0.13439 0.63108 0.0
C1123 C 0.61057 0.10495 0.70998 0.0
C1124 C 0.63194 0.10112 0.62263 0.0
C1125 C 0.60529 0.09933 0.74515 0.0
C1126 C 0.66245 0.12485 0.50515 0.0
C1127 C 0.65647 0.1196 0.53936 0.0
C1128 C 0.63506 0.12513 0.6278 0.0
C1129 C 0.6212 0.10094 0.6934 0.0
C1130 C 0.62721 0.10724 0.65786 0.0
C1131 C 0.64687 0.12509 0.55865 0.0
C1132 C 0.63995 0.11901 0.59271 0.0
H1133 H 0.62549 0.07819 0.762 0.0
H1134 H 0.63454 0.08783 0.70011 0.0
H1135 H 0.62527 0.12423 0.68698 0.0
H1136 H 0.64707 0.15003 0.49891 0.0
H1137 H 0.6364 0.14075 0.55794 0.0
C1138 C 0.65052 0.858 0.48934 0.0
C1139 C 0.65991 0.86381 0.50873 0.0
C1140 C 0.64457 0.86302 0.45438 0.0
C1141 C 0.64727 0.88489 0.36766 0.0
H1142 H 0.61376 0.88698 0.37495 0.0
C1143 C 0.62189 0.91479 0.25311 0.0
C1144 C 0.61135 0.91074 0.23602 0.0
C1145 C 0.62739 0.90887 0.2869 0.0
C1146 C 0.6231 0.88635 0.37204 0.0
H1147 H 0.67068 0.87921 0.50568 0.0
H1148 H 0.66045 0.88783 0.44441 0.0
H1149 H 0.6245 0.87632 0.43052 0.0
H1150 H 0.59812 0.89748 0.24191 0.0
H1151 H 0.60783 0.88698 0.30047 0.0
H1152 H 0.64596 0.89478 0.30916 0.0
C1153 C 0.65765 0.87944 0.45626 0.0
C1154 C 0.62924 0.88023 0.4039 0.0
C1155 C 0.66348 0.87451 0.49147 0.0
C1156 C 0.60621 0.90086 0.25456 0.0
C1157 C 0.61178 0.89485 0.28818 0.0
C1158 C 0.64114 0.89091 0.33566 0.0
C1159 C 0.64801 0.87385 0.43777 0.0
C1160 C 0.6414 0.87957 0.40232 0.0
C1161 C 0.62256 0.89866 0.30418 0.0
C1162 C 0.62898 0.89187 0.33773 0.0
H1163 H 0.64753 0.84977 0.50204 0.0
H1164 H 0.63723 0.85848 0.4405 0.0
H1165 H 0.65662 0.88439 0.36525 0.0
H1166 H 0.62603 0.92244 0.23978 0.0
H1167 H 0.63551 0.91226 0.29915 0.0
C1168 C 0.66242 0.62547 0.49609 0.0
C1169 C 0.6592 0.63646 0.51163 0.0
C1170 C 0.65607 0.62009 0.46317 0.0
C1171 C 0.63425 0.62525 0.37663 0.0
H1172 H 0.62965 0.59206 0.38793 0.0
C1173 C 0.60543 0.59888 0.25788 0.0
C1174 C 0.61082 0.58895 0.2407 0.0
C1175 C 0.61033 0.60473 0.29331 0.0
C1176 C 0.63088 0.60132 0.38429 0.0
H1177 H 0.64697 0.65059 0.50391 0.0
H1178 H 0.63574 0.64111 0.44671 0.0
H1179 H 0.64042 0.6025 0.44362 0.0
H1180 H 0.62526 0.57708 0.24831 0.0
H1181 H 0.63367 0.58715 0.31033 0.0
H1182 H 0.62464 0.624 0.31717 0.0
C1183 C 0.64327 0.6367 0.45965 0.0
C1184 C 0.63712 0.60731 0.41606 0.0
C1185 C 0.64971 0.64214 0.49247 0.0
C1186 C 0.6209 0.58471 0.26077 0.0
C1187 C 0.6257 0.59046 0.29643 0.0
C1188 C 0.62793 0.61926 0.34495 0.0
C1189 C 0.64625 0.62551 0.44519 0.0
C1190 C 0.63907 0.61932 0.41228 0.0
C1191 C 0.6206 0.60065 0.31258 0.0
C1192 C 0.62634 0.6072 0.34812 0.0
H1193 H 0.66975 0.6209 0.50991 0.0
H1194 H 0.65882 0.61161 0.45208 0.0
H1195 H 0.63565 0.63447 0.37247 0.0
H1196 H 0.59767 0.60239 0.24299 0.0
H1197 H 0.60615 0.61251 0.30535 0.0
C1198 C 0.62273 0.41461 0.74419 0.0
C1199 C 0.61216 0.4107 0.76147 0.0
C1200 C 0.62819 0.40852 0.71075 0.0
C1201 C 0.62377 0.38588 0.62643 0.0
H1202 H 0.65726 0.38355 0.63405 0.0
C1203 C 0.65113 0.35759 0.50868 0.0
C1204 C 0.66059 0.36339 0.48978 0.0
C1205 C 0.64517 0.36253 0.54379 0.0
C1206 C 0.64792 0.38415 0.63142 0.0
H1207 H 0.59883 0.39752 0.75624 0.0
H1208 H 0.60847 0.38675 0.69819 0.0
H1209 H 0.64661 0.39405 0.68987 0.0
H1210 H 0.67149 0.37868 0.49387 0.0
H1211 H 0.66125 0.38716 0.55534 0.0
H1212 H 0.62517 0.37587 0.56791 0.0
C1213 C 0.61247 0.39462 0.71013 0.0
C1214 C 0.6418 0.39023 0.66326 0.0
C1215 C 0.60695 0.40079 0.74344 0.0
C1216 C 0.66424 0.37399 0.5077 0.0
C1217 C 0.65839 0.37884 0.54303 0.0
C1218 C 0.62991 0.37971 0.59469 0.0
C1219 C 0.62329 0.39828 0.694 0.0
C1220 C 0.62967 0.39135 0.66083 0.0
C1221 C 0.64868 0.37326 0.56102 0.0
C1222 C 0.64206 0.37893 0.59654 0.0
H1223 H 0.62693 0.42227 0.7571 0.0
H1224 H 0.63635 0.41179 0.69835 0.0
H1225 H 0.61445 0.38663 0.62331 0.0
H1226 H 0.64808 0.34943 0.49546 0.0
H1227 H 0.63777 0.35799 0.55727 0.0
C1228 C 0.87643 0.41373 0.75045 0.0
C1229 C 0.88723 0.41008 0.73436 0.0
C1230 C 0.87102 0.40769 0.78415 0.0
C1231 C 0.8759 0.38571 0.87082 0.0
H1232 H 0.84248 0.38252 0.86293 0.0
C1233 C 0.84917 0.35702 0.98909 0.0
C1234 C 0.83967 0.3627 0.00822 0.0
C1235 C 0.85498 0.36201 0.95375 0.0
C1236 C 0.85181 0.38336 0.8656 0.0
H1237 H 0.90098 0.39742 0.74181 0.0
H1238 H 0.89141 0.38671 0.80014 0.0
H1239 H 0.85294 0.39301 0.80651 0.0
H1240 H 0.82853 0.37782 0.00426 0.0
H1241 H 0.8385 0.38638 0.94222 0.0
H1242 H 0.87469 0.3759 0.92988 0.0
C1243 C 0.8872 0.39435 0.7872 0.0
C1244 C 0.85782 0.38944 0.83344 0.0
C1245 C 0.89268 0.40048 0.7537 0.0
C1246 C 0.83582 0.37322 0.99024 0.0
C1247 C 0.8415 0.37811 0.95462 0.0
C1248 C 0.86989 0.37951 0.90282 0.0
C1249 C 0.87619 0.39776 0.8023 0.0
C1250 C 0.86992 0.39086 0.83593 0.0
C1251 C 0.85127 0.37267 0.93648 0.0
C1252 C 0.85776 0.37841 0.90081 0.0
H1253 H 0.87205 0.42115 0.73649 0.0
H1254 H 0.86271 0.41078 0.79569 0.0
H1255 H 0.88519 0.38671 0.87408 0.0
H1256 H 0.85238 0.34893 0.00238 0.0
H1257 H 0.86243 0.35759 0.94014 0.0
C1258 C 0.89071 0.59951 0.24092 0.0
C1259 C 0.88507 0.58995 0.25978 0.0
C1260 C 0.8854 0.60579 0.20742 0.0
C1261 C 0.85622 0.61125 0.16046 0.0
H1262 H 0.8735 0.62479 0.06503 0.0
C1263 C 0.83478 0.62828 0.00382 0.0
C1264 C 0.83885 0.63878 0.98631 0.0
C1265 C 0.84032 0.6232 0.03937 0.0
C1266 C 0.86859 0.62118 0.09182 0.0
H1267 H 0.86975 0.57909 0.25674 0.0
H1268 H 0.86071 0.58973 0.19751 0.0
H1269 H 0.88372 0.61367 0.1207 0.0
H1270 H 0.85179 0.6523 0.99295 0.0
H1271 H 0.86158 0.64331 0.05508 0.0
H1272 H 0.84106 0.6185 0.13084 0.0
C1273 C 0.86904 0.59267 0.20945 0.0
C1274 C 0.87443 0.6148 0.12374 0.0
C1275 C 0.87428 0.58649 0.24316 0.0
C1276 C 0.84842 0.64424 0.00586 0.0
C1277 C 0.85408 0.63905 0.04115 0.0
C1278 C 0.85038 0.61752 0.12838 0.0
C1279 C 0.87439 0.60258 0.19182 0.0
C1280 C 0.8683 0.60965 0.15826 0.0
C1281 C 0.85015 0.62841 0.05793 0.0
C1282 C 0.85648 0.62247 0.09353 0.0
H1283 H 0.89901 0.60244 0.25322 0.0
H1284 H 0.88976 0.61341 0.19487 0.0
H1285 H 0.85123 0.60769 0.18712 0.0
H1286 H 0.82743 0.62386 0.98947 0.0
H1287 H 0.83715 0.61496 0.05139 0.0
C1288 C 0.34901 0.35903 0.5071 0.0
C1289 C 0.33957 0.3648 0.48795 0.0
C1290 C 0.35543 0.36435 0.54022 0.0
C1291 C 0.36168 0.39363 0.58464 0.0
H1292 H 0.37429 0.37669 0.68268 0.0
C1293 C 0.37836 0.41586 0.73998 0.0
C1294 C 0.38854 0.41159 0.75929 0.0
C1295 C 0.37341 0.41017 0.7045 0.0
C1296 C 0.37096 0.3815 0.65514 0.0
H1297 H 0.32908 0.3804 0.49008 0.0
H1298 H 0.33998 0.38948 0.54849 0.0
H1299 H 0.36314 0.36637 0.62735 0.0
H1300 H 0.40167 0.39817 0.75591 0.0
H1301 H 0.39292 0.38814 0.69386 0.0
H1302 H 0.36925 0.40879 0.61304 0.0
C1303 C 0.3427 0.38102 0.53713 0.0
C1304 C 0.36455 0.37559 0.62345 0.0
C1305 C 0.33637 0.37576 0.50388 0.0
C1306 C 0.39385 0.40169 0.74159 0.0
C1307 C 0.3888 0.39589 0.70634 0.0
C1308 C 0.36799 0.39953 0.61644 0.0
C1309 C 0.35249 0.37552 0.55503 0.0
C1310 C 0.3597 0.38162 0.58808 0.0
C1311 C 0.37845 0.40001 0.68778 0.0
C1312 C 0.37258 0.39356 0.65228 0.0
H1313 H 0.35172 0.3506 0.49535 0.0
H1314 H 0.36293 0.35987 0.55308 0.0
H1315 H 0.35835 0.39851 0.55729 0.0
H1316 H 0.37406 0.42347 0.75287 0.0
H1317 H 0.36538 0.4135 0.69113 0.0
C1318 C 0.34938 0.64309 0.49144 0.0
C1319 C 0.34029 0.63724 0.51261 0.0
C1320 C 0.35518 0.63788 0.45654 0.0
C1321 C 0.3523 0.61549 0.37236 0.0
H1322 H 0.38584 0.61358 0.37742 0.0
C1323 C 0.37717 0.58586 0.25531 0.0
C1324 C 0.38767 0.58994 0.23792 0.0
C1325 C 0.37184 0.59166 0.28978 0.0
C1326 C 0.3765 0.61416 0.3751 0.0
H1327 H 0.32988 0.62158 0.51284 0.0
H1328 H 0.33983 0.61264 0.45145 0.0
H1329 H 0.37533 0.62439 0.43317 0.0
H1330 H 0.40099 0.60309 0.24389 0.0
H1331 H 0.39155 0.61341 0.3034 0.0
H1332 H 0.35336 0.60549 0.31411 0.0
C1333 C 0.34252 0.62119 0.46197 0.0
C1334 C 0.37048 0.62035 0.40708 0.0
C1335 C 0.33685 0.6263 0.49719 0.0
C1336 C 0.39294 0.59969 0.25681 0.0
C1337 C 0.38752 0.6056 0.291 0.0
C1338 C 0.3583 0.60942 0.34015 0.0
C1339 C 0.35187 0.62683 0.44175 0.0
C1340 C 0.35832 0.62097 0.40627 0.0
C1341 C 0.37677 0.60179 0.30733 0.0
C1342 C 0.37047 0.60853 0.34135 0.0
H1343 H 0.35226 0.6515 0.50276 0.0
H1344 H 0.36231 0.64245 0.44129 0.0
H1345 H 0.34293 0.61594 0.37064 0.0
H1346 H 0.37294 0.5783 0.2417 0.0
H1347 H 0.36375 0.58825 0.30227 0.0
C1348 C 0.16263 0.62412 0.00051 0.0
C1349 C 0.15942 0.63517 0.98563 0.0
C1350 C 0.15668 0.61889 0.03485 0.0
C1351 C 0.13568 0.62459 0.12446 0.0
H1352 H 0.13103 0.59134 0.11627 0.0
C1353 C 0.1063 0.59881 0.24329 0.0
C1354 C 0.11181 0.58925 0.26276 0.0
C1355 C 0.11139 0.60442 0.20773 0.0
C1356 C 0.13228 0.60062 0.11899 0.0
H1357 H 0.14764 0.64956 0.99572 0.0
H1358 H 0.13701 0.64032 0.05497 0.0
H1359 H 0.14155 0.60143 0.05903 0.0
H1360 H 0.12669 0.5778 0.25923 0.0
H1361 H 0.1354 0.58742 0.19659 0.0
H1362 H 0.12617 0.6237 0.18427 0.0
C1363 C 0.14428 0.63575 0.04075 0.0
C1364 C 0.13839 0.60642 0.08639 0.0
C1365 C 0.15036 0.64106 0.00671 0.0
C1366 C 0.12224 0.58514 0.24491 0.0
C1367 C 0.12721 0.59062 0.209 0.0
C1368 C 0.12942 0.6188 0.15683 0.0
C1369 C 0.14723 0.6245 0.05473 0.0
C1370 C 0.14034 0.61846 0.08896 0.0
C1371 C 0.12196 0.60045 0.19057 0.0
C1372 C 0.12779 0.60673 0.15466 0.0
H1373 H 0.16964 0.6194 0.98516 0.0
H1374 H 0.15945 0.61038 0.04547 0.0
H1375 H 0.1371 0.63383 0.12788 0.0
H1376 H 0.09829 0.60221 0.25651 0.0
H1377 H 0.10712 0.61194 0.19389 0.0
C1378 C 0.10506 0.40504 0.76412 0.0
C1379 C 0.11193 0.41015 0.73157 0.0
C1380 C 0.11026 0.39945 0.79955 0.0
C1381 C 0.13684 0.38429 0.83054 0.0
H1382 H 0.12829 0.39139 0.9495 0.0
C1383 C 0.15412 0.35906 0.98118 0.0
C1384 C 0.15846 0.36611 0.01469 0.0
C1385 C 0.14814 0.36399 0.94611 0.0
C1386 C 0.13073 0.38931 0.9164 0.0
H1387 H 0.12961 0.41351 0.71094 0.0
H1388 H 0.13861 0.40365 0.77229 0.0
H1389 H 0.11816 0.40099 0.88946 0.0
H1390 H 0.15997 0.38386 0.03761 0.0
H1391 H 0.14942 0.39237 0.97686 0.0
H1392 H 0.14942 0.37263 0.85746 0.0
C1393 C 0.12923 0.40397 0.77042 0.0
C1394 C 0.1249 0.39474 0.88215 0.0
C1395 C 0.12406 0.40969 0.73548 0.0
C1396 C 0.15677 0.37817 0.01227 0.0
C1397 C 0.15065 0.38306 0.97768 0.0
C1398 C 0.14254 0.37872 0.86478 0.0
C1399 C 0.1224 0.39871 0.80259 0.0
C1400 C 0.12802 0.39241 0.83892 0.0
C1401 C 0.14622 0.37602 0.94439 0.0
C1402 C 0.13966 0.38131 0.90803 0.0
H1403 H 0.09569 0.40524 0.76196 0.0
H1404 H 0.1048 0.39545 0.82398 0.0
H1405 H 0.13934 0.38228 0.79746 0.0
H1406 H 0.15527 0.34974 0.98218 0.0
H1407 H 0.14479 0.35837 0.92082 0.0
C1408 C 0.16313 0.2913 0.161 0.0
C1409 C 0.16309 0.29894 0.12546 0.0
C1410 C 0.1628 0.27937 0.15455 0.0
C1411 C 0.15534 0.25575 0.08136 0.0
H1412 H 0.17835 0.23942 0.15008 0.0
C1413 C 0.16276 0.20506 0.08619 0.0
C1414 C 0.1637 0.20069 0.12876 0.0
C1415 C 0.16224 0.21708 0.07891 0.0
C1416 C 0.17188 0.24385 0.13064 0.0
H1417 H 0.16205 0.30006 0.0552 0.0
H1418 H 0.16143 0.27893 0.04391 0.0
H1419 H 0.17822 0.26051 0.14933 0.0
H1420 H 0.16415 0.20545 0.19703 0.0
H1421 H 0.16325 0.22617 0.18433 0.0
H1422 H 0.14886 0.23889 0.0637 0.0
C1423 C 0.16176 0.28231 0.07673 0.0
C1424 C 0.17181 0.25591 0.13022 0.0
C1425 C 0.16213 0.29437 0.0832 0.0
C1426 C 0.16359 0.2085 0.16379 0.0
C1427 C 0.16311 0.22039 0.15656 0.0
C1428 C 0.15542 0.24357 0.08178 0.0
C1429 C 0.16242 0.27473 0.11242 0.0
C1430 C 0.16331 0.26199 0.10682 0.0
C1431 C 0.16273 0.22483 0.11411 0.0
C1432 C 0.16347 0.23755 0.10767 0.0
H1433 H 0.1637 0.2945 0.19402 0.0
H1434 H 0.16305 0.27372 0.18271 0.0
H1435 H 0.14873 0.26026 0.06297 0.0
H1436 H 0.1628 0.19924 0.05856 0.0
H1437 H 0.16191 0.2203 0.04588 0.0
C1438 C 0.95669 0.9069 0.41266 0.0
C1439 C 0.94937 0.90958 0.37759 0.0
C1440 C 0.96863 0.90628 0.40691 0.0
C1441 C 0.99272 0.90347 0.3305 0.0
H1442 H 0.00864 0.92179 0.41782 0.0
C1443 C 0.04302 0.91224 0.33772 0.0
C1444 C 0.04778 0.91147 0.37972 0.0
C1445 C 0.03098 0.91136 0.33163 0.0
C1446 C 0.00435 0.91658 0.39333 0.0
H1447 H 0.94878 0.91294 0.30828 0.0
H1448 H 0.96991 0.91187 0.29822 0.0
H1449 H 0.98761 0.92115 0.41733 0.0
H1450 H 0.04379 0.90836 0.44767 0.0
H1451 H 0.02304 0.90671 0.43701 0.0
H1452 H 0.00967 0.89879 0.30709 0.0
C1453 C 0.96628 0.91027 0.33013 0.0
C1454 C 0.9923 0.91622 0.39304 0.0
C1455 C 0.95422 0.91089 0.33591 0.0
C1456 C 0.0404 0.90919 0.41498 0.0
C1457 C 0.02848 0.90828 0.40892 0.0
C1458 C 0.00489 0.90381 0.33086 0.0
C1459 C 0.97359 0.90835 0.36598 0.0
C1460 C 0.98636 0.90943 0.36245 0.0
C1461 C 0.0236 0.90971 0.36747 0.0
C1462 C 0.0108 0.91013 0.36312 0.0
H1463 H 0.95322 0.90567 0.44507 0.0
H1464 H 0.97405 0.90453 0.43493 0.0
H1465 H 0.98832 0.89822 0.30644 0.0
H1466 H 0.04852 0.91396 0.30992 0.0
H1467 H 0.02743 0.91246 0.2993 0.0
C1468 C 0.33898 0.79462 0.57961 0.0
C1469 C 0.33862 0.79877 0.62257 0.0
C1470 C 0.34117 0.78285 0.57135 0.0
C1471 C 0.35324 0.75637 0.62218 0.0
H1472 H 0.33047 0.73953 0.55425 0.0
C1473 C 0.34112 0.70959 0.65839 0.0
C1474 C 0.33886 0.70178 0.62442 0.0
C1475 C 0.34342 0.72122 0.64969 0.0
C1476 C 0.33706 0.74412 0.57249 0.0
H1477 H 0.34065 0.79397 0.69032 0.0
H1478 H 0.34453 0.77365 0.67599 0.0
H1479 H 0.33039 0.76076 0.55385 0.0
H1480 H 0.33742 0.69999 0.5545 0.0
H1481 H 0.34128 0.72057 0.53921 0.0
H1482 H 0.35958 0.73979 0.64247 0.0
C1483 C 0.34316 0.7794 0.64863 0.0
C1484 C 0.33702 0.75627 0.57226 0.0
C1485 C 0.34083 0.79104 0.65686 0.0
C1486 C 0.33916 0.70582 0.58131 0.0
C1487 C 0.34132 0.71758 0.57258 0.0
C1488 C 0.35329 0.74427 0.6224 0.0
C1489 C 0.34324 0.77512 0.60589 0.0
C1490 C 0.34481 0.76249 0.59855 0.0
C1491 C 0.34342 0.72539 0.6068 0.0
C1492 C 0.3449 0.73801 0.59899 0.0
H1493 H 0.33729 0.80039 0.55255 0.0
H1494 H 0.34118 0.77978 0.53809 0.0
H1495 H 0.35949 0.76094 0.6421 0.0
H1496 H 0.34098 0.70675 0.69195 0.0
H1497 H 0.34481 0.72704 0.67683 0.0
C1498 C 0.45539 0.09029 0.83043 0.0
C1499 C 0.45143 0.09129 0.87348 0.0
C1500 C 0.46703 0.09261 0.82032 0.0
C1501 C 0.49347 0.10688 0.86318 0.0
H1502 H 0.51032 0.08193 0.80709 0.0
C1503 C 0.54013 0.09586 0.90524 0.0
C1504 C 0.54787 0.09207 0.87299 0.0
C1505 C 0.52859 0.09816 0.89517 0.0
C1506 C 0.50573 0.08912 0.82185 0.0
H1507 H 0.45635 0.09598 0.9392 0.0
H1508 H 0.47644 0.10009 0.92163 0.0
H1509 H 0.48913 0.08173 0.80722 0.0
H1510 H 0.54966 0.08802 0.80454 0.0
H1511 H 0.52924 0.09189 0.78691 0.0
H1512 H 0.51003 0.11397 0.87974 0.0
C1513 C 0.47066 0.09754 0.8956 0.0
C1514 C 0.49359 0.08901 0.82193 0.0
C1515 C 0.45915 0.09508 0.90575 0.0
C1516 C 0.54388 0.09095 0.83002 0.0
C1517 C 0.53221 0.09311 0.81998 0.0
C1518 C 0.50556 0.107 0.86309 0.0
C1519 C 0.47479 0.09617 0.85296 0.0
C1520 C 0.48736 0.09763 0.84422 0.0
C1521 C 0.52443 0.09664 0.85264 0.0
C1522 C 0.51182 0.09786 0.84406 0.0
H1523 H 0.44962 0.08736 0.80493 0.0
H1524 H 0.46999 0.09149 0.78717 0.0
H1525 H 0.48888 0.11376 0.87992 0.0
H1526 H 0.54294 0.09684 0.93864 0.0
H1527 H 0.52279 0.10068 0.92122 0.0
C1528 C 0.16258 0.79489 0.91342 0.0
C1529 C 0.16592 0.79883 0.87196 0.0
C1530 C 0.16225 0.78296 0.92257 0.0
C1531 C 0.17556 0.75586 0.88612 0.0
H1532 H 0.14816 0.73969 0.92709 0.0
C1533 C 0.16697 0.70933 0.84043 0.0
C1534 C 0.16471 0.70122 0.87347 0.0
C1535 C 0.1669 0.72115 0.84924 0.0
C1536 C 0.15594 0.74414 0.9165 0.0
H1537 H 0.17123 0.79333 0.80743 0.0
H1538 H 0.17073 0.77278 0.82345 0.0
H1539 H 0.14855 0.76105 0.92675 0.0
H1540 H 0.1601 0.69924 0.94141 0.0
H1541 H 0.1598 0.72021 0.95669 0.0
H1542 H 0.18277 0.73911 0.87386 0.0
C1543 C 0.16847 0.77884 0.849 0.0
C1544 C 0.15617 0.75631 0.91631 0.0
C1545 C 0.16869 0.79064 0.83979 0.0
C1546 C 0.16191 0.70528 0.91533 0.0
C1547 C 0.16173 0.71724 0.92409 0.0
C1548 C 0.17533 0.7438 0.88625 0.0
C1549 C 0.16542 0.77486 0.89055 0.0
C1550 C 0.16582 0.76224 0.89944 0.0
C1551 C 0.1645 0.72523 0.89122 0.0
C1552 C 0.16536 0.73783 0.89979 0.0
H1553 H 0.16036 0.801 0.93882 0.0
H1554 H 0.15983 0.78008 0.95483 0.0
H1555 H 0.18319 0.76023 0.8737 0.0
H1556 H 0.16909 0.70655 0.80774 0.0
H1557 H 0.16888 0.72716 0.82315 0.0
C1558 C 0.45989 0.90429 0.09226 0.0
C1559 C 0.45218 0.90801 0.12472 0.0
C1560 C 0.47146 0.90203 0.10207 0.0
C1561 C 0.49442 0.91093 0.17522 0.0
H1562 H 0.51111 0.88608 0.1177 0.0
C1563 C 0.54473 0.90929 0.16885 0.0
C1564 C 0.54891 0.90802 0.12619 0.0
C1565 C 0.53303 0.90712 0.1783 0.0
C1566 C 0.50657 0.89303 0.13421 0.0
H1567 H 0.45048 0.91202 0.19325 0.0
H1568 H 0.47094 0.90822 0.2104 0.0
H1569 H 0.48996 0.88612 0.11729 0.0
H1570 H 0.54428 0.90299 0.06052 0.0
H1571 H 0.52406 0.89917 0.07691 0.0
H1572 H 0.51108 0.91814 0.19025 0.0
C1573 C 0.46792 0.90702 0.17737 0.0
C1574 C 0.49447 0.89305 0.134 0.0
C1575 C 0.45623 0.90914 0.16761 0.0
C1576 C 0.54132 0.90409 0.09369 0.0
C1577 C 0.52974 0.9018 0.10318 0.0
C1578 C 0.50656 0.91092 0.17541 0.0
C1579 C 0.47567 0.90353 0.14454 0.0
C1580 C 0.48828 0.90224 0.15296 0.0
C1581 C 0.52539 0.90347 0.14538 0.0
C1582 C 0.51275 0.90221 0.15336 0.0
H1583 H 0.45703 0.90331 0.05892 0.0
H1584 H 0.47722 0.89953 0.0759 0.0
H1585 H 0.48989 0.91816 0.18993 0.0
H1586 H 0.55038 0.91233 0.19454 0.0
H1587 H 0.52992 0.90845 0.21114 0.0
C1588 C 0.33693 0.20938 0.33362 0.0
C1589 C 0.33697 0.20184 0.36945 0.0
C1590 C 0.33752 0.22133 0.33957 0.0
C1591 C 0.34539 0.24495 0.41313 0.0
H1592 H 0.32311 0.26175 0.34274 0.0
C1593 C 0.33804 0.29565 0.41123 0.0
C1594 C 0.33728 0.30029 0.36902 0.0
C1595 C 0.33868 0.2836 0.41743 0.0
C1596 C 0.32939 0.25719 0.36258 0.0
H1597 H 0.33824 0.2009 0.43969 0.0
H1598 H 0.33925 0.22203 0.45013 0.0
H1599 H 0.32291 0.24068 0.34285 0.0
H1600 H 0.33735 0.296 0.30031 0.0
H1601 H 0.33845 0.2752 0.31114 0.0
H1602 H 0.35194 0.26167 0.43218 0.0
C1603 C 0.33875 0.21858 0.41745 0.0
C1604 C 0.32929 0.24513 0.36262 0.0
C1605 C 0.33816 0.20651 0.41147 0.0
C1606 C 0.33777 0.29273 0.33328 0.0
C1607 C 0.33836 0.28079 0.33945 0.0
C1608 C 0.34548 0.25713 0.41316 0.0
C1609 C 0.33812 0.22609 0.38151 0.0
C1610 C 0.33751 0.23886 0.38674 0.0
C1611 C 0.33849 0.27607 0.38149 0.0
C1612 C 0.33769 0.26332 0.38675 0.0
H1613 H 0.33619 0.20609 0.30077 0.0
H1614 H 0.33729 0.22689 0.31118 0.0
H1615 H 0.3518 0.24031 0.43213 0.0
H1616 H 0.33771 0.30128 0.43939 0.0
H1617 H 0.33881 0.28016 0.45018 0.0
C1618 C 0.95664 0.09376 0.58486 0.0
C1619 C 0.94958 0.09039 0.61981 0.0
C1620 C 0.96859 0.09474 0.59006 0.0
C1621 C 0.99287 0.09693 0.66684 0.0
H1622 H 0.00918 0.08104 0.57404 0.0
C1623 C 0.04314 0.08841 0.65979 0.0
C1624 C 0.04815 0.08982 0.61844 0.0
C1625 C 0.03109 0.08939 0.66519 0.0
C1626 C 0.00478 0.08561 0.60002 0.0
H1627 H 0.94941 0.08614 0.68845 0.0
H1628 H 0.97052 0.08777 0.69749 0.0
H1629 H 0.98816 0.08129 0.57438 0.0
H1630 H 0.04462 0.09424 0.55118 0.0
H1631 H 0.02384 0.0961 0.56068 0.0
H1632 H 0.00971 0.10127 0.69217 0.0
C1633 C 0.96671 0.08967 0.66611 0.0
C1634 C 0.99273 0.08575 0.60022 0.0
C1635 C 0.95466 0.08872 0.66092 0.0
C1636 C 0.04102 0.0929 0.58331 0.0
C1637 C 0.02909 0.09393 0.58871 0.0
C1638 C 0.00505 0.0968 0.6666 0.0
C1639 C 0.9738 0.0923 0.63026 0.0
C1640 C 0.98663 0.09162 0.63299 0.0
C1641 C 0.02393 0.09181 0.62929 0.0
C1642 C 0.0111 0.09136 0.63254 0.0
H1643 H 0.95299 0.09529 0.55293 0.0
H1644 H 0.97381 0.09706 0.56209 0.0
H1645 H 0.98837 0.10147 0.69259 0.0
H1646 H 0.04845 0.08606 0.68746 0.0
H1647 H 0.02735 0.08773 0.69686 0.0
C1648 C 0.84076 0.70523 0.91606 0.0
C1649 C 0.84125 0.70117 0.873 0.0
C1650 C 0.84298 0.71693 0.92534 0.0
C1651 C 0.8559 0.74365 0.87832 0.0
H1652 H 0.83185 0.75996 0.94176 0.0
C1653 C 0.84303 0.79018 0.8406 0.0
C1654 C 0.84006 0.79785 0.87424 0.0
C1655 C 0.84566 0.77863 0.84954 0.0
C1656 C 0.83879 0.75552 0.92484 0.0
H1657 H 0.84494 0.70603 0.80631 0.0
H1658 H 0.84883 0.72625 0.82239 0.0
H1659 H 0.8321 0.73876 0.94145 0.0
H1660 H 0.83777 0.79951 0.94388 0.0
H1661 H 0.84219 0.77908 0.95957 0.0
H1662 H 0.86223 0.76039 0.8598 0.0
C1663 C 0.84678 0.72048 0.84909 0.0
C1664 C 0.83894 0.74338 0.92467 0.0
C1665 C 0.84445 0.70889 0.83981 0.0
C1666 C 0.84006 0.79379 0.91733 0.0
C1667 C 0.84253 0.78211 0.92628 0.0
C1668 C 0.85574 0.75576 0.87843 0.0
C1669 C 0.84591 0.7247 0.89181 0.0
C1670 C 0.84721 0.73733 0.89991 0.0
C1671 C 0.84528 0.77441 0.89234 0.0
C1672 C 0.84691 0.76181 0.90021 0.0
H1673 H 0.83829 0.69947 0.94229 0.0
H1674 H 0.84227 0.71994 0.95858 0.0
H1675 H 0.86253 0.73923 0.85967 0.0
H1676 H 0.84314 0.79305 0.80707 0.0
H1677 H 0.84756 0.77288 0.82261 0.0
C1678 C 0.66124 0.20657 0.41131 0.0
C1679 C 0.66165 0.20166 0.36947 0.0
C1680 C 0.66042 0.21864 0.41647 0.0
C1681 C 0.66796 0.245 0.35627 0.0
H1682 H 0.64746 0.26161 0.43446 0.0
C1683 C 0.65967 0.29285 0.33161 0.0
C1684 C 0.66114 0.30024 0.36746 0.0
C1685 C 0.65887 0.28091 0.33733 0.0
C1686 C 0.65331 0.25705 0.41288 0.0
H1687 H 0.6607 0.20547 0.30047 0.0
H1688 H 0.65915 0.22629 0.30946 0.0
H1689 H 0.64765 0.24025 0.43478 0.0
H1690 H 0.66221 0.30095 0.43778 0.0
H1691 H 0.66082 0.27983 0.44779 0.0
H1692 H 0.67354 0.2616 0.33378 0.0
C1693 C 0.65976 0.22092 0.33828 0.0
C1694 C 0.65343 0.24487 0.41307 0.0
C1695 C 0.6606 0.20896 0.33315 0.0
C1696 C 0.66111 0.29545 0.40953 0.0
C1697 C 0.6603 0.2834 0.41528 0.0
C1698 C 0.66783 0.25707 0.35602 0.0
C1699 C 0.66001 0.22594 0.37985 0.0
C1700 C 0.66054 0.23875 0.38384 0.0
C1701 C 0.65955 0.27601 0.37902 0.0
C1702 C 0.6603 0.26323 0.38342 0.0
H1703 H 0.66201 0.20114 0.4399 0.0
H1704 H 0.66061 0.22229 0.44891 0.0
H1705 H 0.67378 0.24054 0.33423 0.0
H1706 H 0.65948 0.29626 0.2988 0.0
H1707 H 0.65803 0.27544 0.30885 0.0
C1708 C 0.84092 0.29199 0.16924 0.0
C1709 C 0.83932 0.29926 0.13312 0.0
C1710 C 0.84158 0.28002 0.16411 0.0
C1711 C 0.84642 0.25589 0.08873 0.0
H1712 H 0.82672 0.23964 0.17083 0.0
C1713 C 0.83794 0.20553 0.09183 0.0
C1714 C 0.83788 0.2006 0.13368 0.0
C1715 C 0.8389 0.21759 0.08661 0.0
C1716 C 0.83233 0.24403 0.14784 0.0
H1717 H 0.83783 0.29971 0.06289 0.0
H1718 H 0.83895 0.27855 0.0539 0.0
H1719 H 0.82709 0.26069 0.17069 0.0
H1720 H 0.8396 0.20435 0.2025 0.0
H1721 H 0.84138 0.22516 0.19338 0.0
H1722 H 0.85172 0.23902 0.06634 0.0
C1723 C 0.83969 0.28223 0.08617 0.0
C1724 C 0.83253 0.25609 0.14775 0.0
C1725 C 0.83904 0.29431 0.09133 0.0
C1726 C 0.83943 0.20787 0.16985 0.0
C1727 C 0.84041 0.21981 0.16465 0.0
C1728 C 0.84623 0.24371 0.08884 0.0
C1729 C 0.84061 0.27497 0.12274 0.0
C1730 C 0.83979 0.26216 0.11904 0.0
C1731 C 0.8398 0.22486 0.12317 0.0
C1732 C 0.83939 0.23768 0.11925 0.0
H1733 H 0.84134 0.29551 0.20184 0.0
H1734 H 0.84256 0.27465 0.1928 0.0
H1735 H 0.85206 0.26037 0.06613 0.0
H1736 H 0.83678 0.20013 0.06335 0.0
H1737 H 0.83843 0.22125 0.05424 0.0
C1738 C 0.66055 0.70605 0.58836 0.0
C1739 C 0.66057 0.70118 0.63029 0.0
C1740 C 0.65964 0.71811 0.58293 0.0
C1741 C 0.66658 0.74447 0.64369 0.0
H1742 H 0.647 0.7611 0.56232 0.0
C1743 C 0.65879 0.79252 0.66528 0.0
C1744 C 0.66044 0.79979 0.62916 0.0
C1745 C 0.65793 0.78057 0.6601 0.0
C1746 C 0.65259 0.75653 0.5848 0.0
H1747 H 0.65879 0.705 0.69902 0.0
H1748 H 0.6571 0.72582 0.68954 0.0
H1749 H 0.64699 0.73974 0.56265 0.0
H1750 H 0.6618 0.80025 0.55889 0.0
H1751 H 0.66034 0.77911 0.54981 0.0
H1752 H 0.67214 0.76105 0.66629 0.0
C1753 C 0.65806 0.72043 0.66092 0.0
C1754 C 0.65259 0.74435 0.585 0.0
C1755 C 0.65898 0.70848 0.66632 0.0
C1756 C 0.66056 0.79485 0.58733 0.0
C1757 C 0.65971 0.78278 0.58212 0.0
C1758 C 0.66658 0.75653 0.6435 0.0
C1759 C 0.65876 0.72542 0.61937 0.0
C1760 C 0.65937 0.73823 0.61531 0.0
C1761 C 0.65875 0.77552 0.61869 0.0
C1762 C 0.65938 0.76271 0.61494 0.0
H1763 H 0.66174 0.70062 0.55999 0.0
H1764 H 0.66018 0.72174 0.55052 0.0
H1765 H 0.67214 0.74 0.66659 0.0
H1766 H 0.65848 0.79604 0.69791 0.0
H1767 H 0.65692 0.77521 0.68879 0.0
C1768 C 0.54196 0.40559 0.91557 0.0
C1769 C 0.54887 0.40909 0.8804 0.0
C1770 C 0.53002 0.40441 0.91078 0.0
C1771 C 0.50559 0.40221 0.83399 0.0
H1772 H 0.48914 0.41716 0.9286 0.0
C1773 C 0.45541 0.41099 0.8407 0.0
C1774 C 0.45027 0.40934 0.88168 0.0
C1775 C 0.46745 0.40984 0.83563 0.0
C1776 C 0.49358 0.41284 0.90212 0.0
H1777 H 0.54881 0.4134 0.81182 0.0
H1778 H 0.52771 0.41147 0.80352 0.0
H1779 H 0.51016 0.41708 0.92832 0.0
H1780 H 0.45352 0.40427 0.94848 0.0
H1781 H 0.47431 0.4021 0.93951 0.0
H1782 H 0.4888 0.39802 0.80794 0.0
C1783 C 0.53162 0.40959 0.83474 0.0
C1784 C 0.50564 0.41279 0.90197 0.0
C1785 C 0.54367 0.4107 0.83951 0.0
C1786 C 0.45724 0.4058 0.91665 0.0
C1787 C 0.46916 0.40459 0.91156 0.0
C1788 C 0.49342 0.40226 0.83415 0.0
C1789 C 0.52465 0.40681 0.8708 0.0
C1790 C 0.5118 0.40728 0.86846 0.0
C1791 C 0.47447 0.40699 0.87147 0.0
C1792 C 0.48731 0.40738 0.86878 0.0
H1793 H 0.54572 0.40409 0.94734 0.0
H1794 H 0.52491 0.40197 0.93889 0.0
H1795 H 0.51013 0.39794 0.80766 0.0
H1796 H 0.45023 0.41372 0.81316 0.0
H1797 H 0.47131 0.41173 0.80433 0.0
C1798 C 0.95697 0.59085 0.41087 0.0
C1799 C 0.94964 0.58908 0.37505 0.0
C1800 C 0.96891 0.59157 0.40534 0.0
C1801 C 0.99292 0.59647 0.33016 0.0
H1802 H 0.00916 0.57671 0.41209 0.0
C1803 C 0.04345 0.58861 0.33772 0.0
C1804 C 0.048 0.58898 0.38014 0.0
C1805 C 0.03143 0.5893 0.33093 0.0
C1806 C 0.00477 0.5823 0.38906 0.0
H1807 H 0.94904 0.5874 0.30489 0.0
H1808 H 0.97018 0.58864 0.2952 0.0
H1809 H 0.98811 0.57679 0.41101 0.0
H1810 H 0.04361 0.59119 0.44826 0.0
H1811 H 0.02287 0.59243 0.43639 0.0
H1812 H 0.00979 0.60208 0.30886 0.0
C1813 C 0.96655 0.58945 0.32754 0.0
C1814 C 0.99272 0.58235 0.38844 0.0
C1815 C 0.95449 0.58873 0.3331 0.0
C1816 C 0.0404 0.59069 0.41522 0.0
C1817 C 0.02849 0.59137 0.40847 0.0
C1818 C 0.0051 0.59643 0.33078 0.0
C1819 C 0.97387 0.5905 0.36387 0.0
C1820 C 0.98665 0.58967 0.35997 0.0
C1821 C 0.02385 0.59033 0.36649 0.0
C1822 C 0.0111 0.58958 0.36122 0.0
H1823 H 0.95351 0.59133 0.44357 0.0
H1824 H 0.97433 0.59265 0.43383 0.0
H1825 H 0.98843 0.60216 0.30775 0.0
H1826 H 0.04911 0.58733 0.31006 0.0
H1827 H 0.02805 0.58851 0.29822 0.0
C1828 C 0.95507 0.41011 0.67114 0.0
C1829 C 0.95094 0.40932 0.62825 0.0
C1830 C 0.96675 0.4078 0.68043 0.0
C1831 C 0.99307 0.39386 0.63522 0.0
H1832 H 0.01006 0.41865 0.69175 0.0
C1833 C 0.03969 0.40487 0.59193 0.0
C1834 C 0.04752 0.4085 0.62411 0.0
C1835 C 0.02813 0.40267 0.60221 0.0
C1836 C 0.00544 0.41151 0.67683 0.0
H1837 H 0.95562 0.40498 0.56194 0.0
H1838 H 0.9758 0.40086 0.5781 0.0
H1839 H 0.98886 0.41877 0.69276 0.0
H1840 H 0.04945 0.41241 0.69264 0.0
H1841 H 0.02902 0.40871 0.71062 0.0
H1842 H 0.0096 0.38689 0.61745 0.0
C1843 C 0.9701 0.40325 0.60462 0.0
C1844 C 0.9933 0.41158 0.67741 0.0
C1845 C 0.95854 0.40572 0.59529 0.0
C1846 C 0.0436 0.40961 0.66719 0.0
C1847 C 0.03193 0.40754 0.67744 0.0
C1848 C 0.00517 0.39378 0.63467 0.0
C1849 C 0.9744 0.40444 0.64711 0.0
C1850 C 0.98701 0.40301 0.65502 0.0
C1851 C 0.02406 0.40413 0.64489 0.0
C1852 C 0.01148 0.40287 0.65386 0.0
H1853 H 0.94939 0.4129 0.69715 0.0
H1854 H 0.96984 0.40878 0.71348 0.0
H1855 H 0.98845 0.38702 0.61838 0.0
H1856 H 0.04244 0.4039 0.55846 0.0
H1857 H 0.02228 0.40024 0.57623 0.0
C1858 C 0.45664 0.5896 0.15976 0.0
C1859 C 0.45152 0.59121 0.11873 0.0
C1860 C 0.46868 0.59076 0.16487 0.0
C1861 C 0.49486 0.58797 0.09819 0.0
H1862 H 0.51131 0.60268 0.1933 0.0
C1863 C 0.5431 0.5958 0.0847 0.0
C1864 C 0.55006 0.59196 0.11925 0.0
C1865 C 0.53117 0.59693 0.08988 0.0
C1866 C 0.5068 0.59847 0.16678 0.0
H1867 H 0.45477 0.59625 0.05191 0.0
H1868 H 0.47555 0.59849 0.06096 0.0
H1869 H 0.48997 0.60246 0.19303 0.0
H1870 H 0.55009 0.58703 0.18723 0.0
H1871 H 0.52901 0.58889 0.19621 0.0
H1872 H 0.51147 0.58397 0.07173 0.0
C1873 C 0.47041 0.59598 0.0889 0.0
C1874 C 0.49462 0.59833 0.16663 0.0
C1875 C 0.45849 0.59474 0.08376 0.0
C1876 C 0.54492 0.58998 0.16003 0.0
C1877 C 0.53288 0.59106 0.16518 0.0
C1878 C 0.50691 0.58812 0.0983 0.0
C1879 C 0.4757 0.59361 0.12903 0.0
C1880 C 0.48855 0.59328 0.13177 0.0
C1881 C 0.52586 0.59416 0.12963 0.0
C1882 C 0.51303 0.59357 0.13204 0.0
H1883 H 0.45145 0.58689 0.18728 0.0
H1884 H 0.47253 0.5889 0.1962 0.0
H1885 H 0.49046 0.58369 0.07154 0.0
H1886 H 0.54682 0.59758 0.05306 0.0
H1887 H 0.52602 0.59961 0.06219 0.0
C1888 C 0.15019 0.1327 0.24173 0.0
C1889 C 0.14905 0.14441 0.22992 0.0
C1890 C 0.1436 0.12809 0.27549 0.0
C1891 C 0.12664 0.13663 0.37251 0.0
H1892 H 0.11782 0.10417 0.36894 0.0
C1893 C 0.09887 0.11119 0.50139 0.0
C1894 C 0.10494 0.10167 0.51873 0.0
C1895 C 0.10341 0.11738 0.46618 0.0
C1896 C 0.12021 0.11326 0.37018 0.0
H1897 H 0.13988 0.16042 0.24358 0.0
H1898 H 0.12803 0.15224 0.30184 0.0
H1899 H 0.12655 0.11311 0.30506 0.0
H1900 H 0.12056 0.09128 0.51325 0.0
H1901 H 0.12828 0.1019 0.45104 0.0
H1902 H 0.12001 0.13666 0.43779 0.0
C1903 C 0.13425 0.1467 0.28564 0.0
C1904 C 0.12528 0.11837 0.33381 0.0
C1905 C 0.14099 0.15137 0.2521 0.0
C1906 C 0.1157 0.09859 0.50074 0.0
C1907 C 0.1201 0.10461 0.46508 0.0
C1908 C 0.12135 0.13154 0.40871 0.0
C1909 C 0.13554 0.13501 0.29794 0.0
C1910 C 0.12887 0.13003 0.33488 0.0
C1911 C 0.11394 0.11396 0.44732 0.0
C1912 C 0.11838 0.11975 0.40804 0.0
H1913 H 0.15641 0.12713 0.22562 0.0
H1914 H 0.14507 0.11914 0.28462 0.0
H1915 H 0.12938 0.14559 0.37472 0.0
H1916 H 0.09057 0.11377 0.51473 0.0
H1917 H 0.09855 0.12458 0.4528 0.0
C1918 C 0.11529 0.89392 0.48155 0.0
C1919 C 0.10332 0.89593 0.47744 0.0
C1920 C 0.11953 0.88677 0.51454 0.0
C1921 C 0.11213 0.87688 0.62368 0.0
H1922 H 0.1384 0.85633 0.60751 0.0
C1923 C 0.14278 0.86365 0.76197 0.0
C1924 C 0.14705 0.85224 0.76304 0.0
C1925 C 0.13591 0.86741 0.72742 0.0
C1926 C 0.13095 0.8619 0.61246 0.0
H1927 H 0.08639 0.89167 0.50386 0.0
H1928 H 0.09383 0.87921 0.56151 0.0
H1929 H 0.12933 0.86542 0.54437 0.0
H1930 H 0.14716 0.83571 0.72928 0.0
H1931 H 0.13519 0.84235 0.66863 0.0
H1932 H 0.1139 0.87356 0.69181 0.0
C1933 C 0.09992 0.88324 0.53936 0.0
C1934 C 0.12584 0.86719 0.57638 0.0
C1935 C 0.09567 0.89035 0.50623 0.0
C1936 C 0.14402 0.84457 0.72938 0.0
C1937 C 0.13722 0.84837 0.69457 0.0
C1938 C 0.11728 0.87165 0.65974 0.0
C1939 C 0.1119 0.88151 0.54422 0.0
C1940 C 0.11652 0.87491 0.58172 0.0
C1941 C 0.13322 0.85987 0.69302 0.0
C1942 C 0.12688 0.86429 0.65457 0.0
H1943 H 0.12142 0.89806 0.45987 0.0
H1944 H 0.12882 0.8857 0.51776 0.0
H1945 H 0.10501 0.88286 0.62885 0.0
H1946 H 0.14491 0.86977 0.78744 0.0
H1947 H 0.13307 0.87637 0.72688 0.0
C1948 C 0.38423 0.8954 0.01439 0.0
C1949 C 0.39631 0.89689 0.01716 0.0
C1950 C 0.37939 0.88887 0.98074 0.0
C1951 C 0.38532 0.87988 0.86912 0.0
H1952 H 0.35939 0.859 0.88691 0.0
C1953 C 0.35489 0.86523 0.73121 0.0
C1954 C 0.35137 0.85356 0.73061 0.0
C1955 C 0.36133 0.86957 0.766 0.0
C1956 C 0.36671 0.86471 0.8815 0.0
H1957 H 0.41278 0.89239 0.98744 0.0
H1958 H 0.40429 0.88103 0.92869 0.0
H1959 H 0.36882 0.86797 0.9496 0.0
H1960 H 0.35206 0.83724 0.7657 0.0
H1961 H 0.36328 0.84488 0.82658 0.0
H1962 H 0.38312 0.87675 0.80103 0.0
C1963 C 0.39859 0.88499 0.95241 0.0
C1964 C 0.37203 0.86992 0.91731 0.0
C1965 C 0.40344 0.89146 0.9862 0.0
C1966 C 0.35463 0.84627 0.76517 0.0
C1967 C 0.36099 0.85065 0.80015 0.0
C1968 C 0.37995 0.87475 0.83332 0.0
C1969 C 0.38652 0.88376 0.94904 0.0
C1970 C 0.38132 0.87764 0.91144 0.0
C1971 C 0.36432 0.86236 0.80106 0.0
C1972 C 0.37052 0.8672 0.83913 0.0
H1973 H 0.37849 0.89945 0.03776 0.0
H1974 H 0.37004 0.88815 0.97874 0.0
H1975 H 0.3924 0.88588 0.86359 0.0
H1976 H 0.35254 0.87107 0.70509 0.0
H1977 H 0.36369 0.87867 0.76604 0.0
C1978 C 0.38393 0.10335 0.98692 0.0
C1979 C 0.39599 0.10175 0.98391 0.0
C1980 C 0.3792 0.10992 0.02069 0.0
C1981 C 0.38533 0.11894 0.13214 0.0
H1982 H 0.3597 0.14018 0.11425 0.0
C1983 C 0.35512 0.13415 0.2699 0.0
C1984 C 0.35172 0.14585 0.2703 0.0
C1985 C 0.36154 0.1297 0.23524 0.0
C1986 C 0.36693 0.13437 0.11969 0.0
H1987 H 0.41254 0.10606 0.01341 0.0
H1988 H 0.40424 0.11748 0.07237 0.0
H1989 H 0.36895 0.13099 0.05163 0.0
H1990 H 0.35262 0.16214 0.23501 0.0
H1991 H 0.3638 0.15431 0.17434 0.0
H1992 H 0.38322 0.1222 0.2002 0.0
C1993 C 0.39847 0.11358 0.04874 0.0
C1994 C 0.37215 0.12904 0.08392 0.0
C1995 C 0.40321 0.10708 0.01483 0.0
C1996 C 0.35509 0.15308 0.2357 0.0
C1997 C 0.36144 0.1486 0.20084 0.0
C1998 C 0.38006 0.1242 0.16791 0.0
C1999 C 0.38641 0.11496 0.05227 0.0
C2000 C 0.38132 0.12119 0.08983 0.0
C2001 C 0.36463 0.13684 0.2001 0.0
C2002 C 0.37074 0.13188 0.16206 0.0
H2003 H 0.37812 0.09939 0.9636 0.0
H2004 H 0.36986 0.11075 0.02283 0.0
H2005 H 0.39232 0.11285 0.1377 0.0
H2006 H 0.35268 0.12836 0.29607 0.0
H2007 H 0.36379 0.12058 0.23534 0.0
C2008 C 0.89835 0.89207 0.50347 0.0
C2009 C 0.89157 0.89823 0.47332 0.0
C2010 C 0.89312 0.8858 0.53697 0.0
C2011 C 0.87974 0.86898 0.59412 0.0
H2012 H 0.85377 0.88378 0.65185 0.0
C2013 C 0.85267 0.84653 0.72867 0.0
C2014 C 0.84889 0.85348 0.76347 0.0
C2015 C 0.85823 0.85153 0.6929 0.0
C2016 C 0.86108 0.87957 0.63634 0.0
H2017 H 0.87395 0.90222 0.45363 0.0
H2018 H 0.86482 0.89111 0.51165 0.0
H2019 H 0.86263 0.89309 0.58923 0.0
H2020 H 0.84842 0.87104 0.78875 0.0
H2021 H 0.85829 0.87969 0.72686 0.0
H2022 H 0.87836 0.85562 0.6422 0.0
C2023 C 0.8742 0.89134 0.50993 0.0
C2024 C 0.86605 0.88482 0.6 0.0
C2025 C 0.87943 0.89765 0.47652 0.0
C2026 C 0.85112 0.86546 0.76235 0.0
C2027 C 0.85672 0.87043 0.72671 0.0
C2028 C 0.87477 0.86372 0.6306 0.0
C2029 C 0.88099 0.8855 0.54097 0.0
C2030 C 0.87546 0.87961 0.57854 0.0
C2031 C 0.86016 0.86356 0.69126 0.0
C2032 C 0.86543 0.869 0.65226 0.0
H2033 H 0.90773 0.89234 0.50198 0.0
H2034 H 0.8986 0.8815 0.56058 0.0
H2035 H 0.88691 0.86469 0.57808 0.0
H2036 H 0.85107 0.83727 0.72848 0.0
H2037 H 0.8607 0.846 0.66598 0.0
C2038 C 0.85712 0.14917 0.25306 0.0
C2039 C 0.84853 0.14289 0.23086 0.0
C2040 C 0.86312 0.14414 0.28776 0.0
C2041 C 0.86892 0.11555 0.34032 0.0
H2042 H 0.87654 0.13451 0.44047 0.0
C2043 C 0.88066 0.09627 0.50678 0.0
C2044 C 0.89143 0.09982 0.52353 0.0
C2045 C 0.87576 0.10204 0.47142 0.0
C2046 C 0.8745 0.12916 0.41255 0.0
H2047 H 0.83946 0.12643 0.22768 0.0
H2048 H 0.84954 0.11784 0.28884 0.0
H2049 H 0.86756 0.14347 0.37685 0.0
H2050 H 0.90524 0.11249 0.51769 0.0
H2051 H 0.89643 0.1228 0.4564 0.0
H2052 H 0.87545 0.10118 0.37701 0.0
C2053 C 0.85197 0.1265 0.27884 0.0
C2054 C 0.86944 0.13427 0.37598 0.0
C2055 C 0.84612 0.13146 0.24382 0.0
C2056 C 0.89696 0.10955 0.50535 0.0
C2057 C 0.89192 0.11546 0.47046 0.0
C2058 C 0.87378 0.11043 0.37712 0.0
C2059 C 0.86054 0.13277 0.30138 0.0
C2060 C 0.86649 0.12751 0.33949 0.0
C2061 C 0.88141 0.11159 0.4527 0.0
C2062 C 0.87653 0.11717 0.4136 0.0
H2063 H 0.8592 0.15798 0.24365 0.0
H2064 H 0.86979 0.14916 0.30382 0.0
H2065 H 0.86706 0.11009 0.31253 0.0
H2066 H 0.87621 0.08879 0.52 0.0
H2067 H 0.86758 0.09898 0.45839 0.0
C2068 C 0.64474 0.15285 0.2361 0.0
C2069 C 0.64834 0.14556 0.27016 0.0
C2070 C 0.63843 0.1484 0.20115 0.0
C2071 C 0.6201 0.12389 0.16755 0.0
H2072 H 0.63072 0.13134 0.05118 0.0
C2073 C 0.59644 0.10747 0.01454 0.0
C2074 C 0.60356 0.10227 0.98297 0.0
C2075 C 0.60129 0.11383 0.04861 0.0
C2076 C 0.62766 0.1292 0.0835 0.0
H2077 H 0.64781 0.12793 0.29484 0.0
H2078 H 0.63673 0.12019 0.23397 0.0
H2079 H 0.64011 0.14032 0.11395 0.0
H2080 H 0.62136 0.10002 0.96163 0.0
H2081 H 0.62981 0.11116 0.02111 0.0
H2082 H 0.60782 0.11258 0.1372 0.0
C2083 C 0.6388 0.12935 0.23437 0.0
C2084 C 0.63296 0.13441 0.11935 0.0
C2085 C 0.6452 0.13378 0.26911 0.0
C2086 C 0.61563 0.10389 0.98547 0.0
C2087 C 0.62047 0.11032 0.01938 0.0
C2088 C 0.61475 0.11875 0.1317 0.0
C2089 C 0.63548 0.13658 0.19979 0.0
C2090 C 0.62933 0.13169 0.16174 0.0
C2091 C 0.61336 0.1152 0.05163 0.0
C2092 C 0.61857 0.12125 0.08935 0.0
H2093 H 0.64702 0.16197 0.23591 0.0
H2094 H 0.63588 0.15418 0.17509 0.0
H2095 H 0.61708 0.1217 0.19986 0.0
H2096 H 0.58711 0.10643 0.01354 0.0
H2097 H 0.59561 0.11761 0.07278 0.0
C2098 C 0.65273 0.86822 0.74437 0.0
C2099 C 0.64994 0.85711 0.72874 0.0
C2100 C 0.64705 0.87274 0.78061 0.0
C2101 C 0.6206 0.87204 0.84314 0.0
H2102 H 0.6398 0.88245 0.93899 0.0
C2103 C 0.60044 0.89025 0.0008 0.0
C2104 C 0.6061 0.89973 0.0201 0.0
C2105 C 0.60575 0.88405 0.9672 0.0
C2106 C 0.6343 0.87974 0.91236 0.0
H2107 H 0.63873 0.8422 0.73785 0.0
H2108 H 0.62852 0.85033 0.80075 0.0
H2109 H 0.64884 0.87395 0.87491 0.0
H2110 H 0.62177 0.91013 0.01945 0.0
H2111 H 0.63081 0.89967 0.96005 0.0
H2112 H 0.60608 0.87827 0.87938 0.0
C2113 C 0.63523 0.85541 0.78508 0.0
C2114 C 0.63949 0.87481 0.87582 0.0
C2115 C 0.64108 0.85077 0.74925 0.0
C2116 C 0.61722 0.9028 0.0055 0.0
C2117 C 0.62244 0.89673 0.97153 0.0
C2118 C 0.6154 0.87716 0.8794 0.0
C2119 C 0.63832 0.86634 0.80145 0.0
C2120 C 0.6327 0.87102 0.84079 0.0
C2121 C 0.61676 0.88731 0.95175 0.0
C2122 C 0.62219 0.88119 0.91432 0.0
H2123 H 0.65955 0.8733 0.72939 0.0
H2124 H 0.6495 0.88124 0.79251 0.0
H2125 H 0.61521 0.86921 0.81632 0.0
H2126 H 0.59189 0.88763 0.01159 0.0
H2127 H 0.60119 0.87672 0.95336 0.0
C2128 C 0.61939 0.59677 0.00788 0.0
C2129 C 0.60859 0.60041 0.02404 0.0
C2130 C 0.62452 0.60256 0.97298 0.0
C2131 C 0.62605 0.62977 0.9141 0.0
H2132 H 0.63389 0.61066 0.81464 0.0
C2133 C 0.64291 0.64975 0.75371 0.0
C2134 C 0.65152 0.64357 0.73126 0.0
C2135 C 0.63714 0.64471 0.78896 0.0
C2136 C 0.63194 0.61613 0.84229 0.0
H2137 H 0.59496 0.61327 0.0177 0.0
H2138 H 0.60415 0.62357 0.95722 0.0
H2139 H 0.62548 0.60174 0.87903 0.0
H2140 H 0.66092 0.62729 0.72833 0.0
H2141 H 0.65125 0.61869 0.79043 0.0
H2142 H 0.63287 0.64412 0.87826 0.0
C2143 C 0.60852 0.61616 0.97137 0.0
C2144 C 0.62707 0.611 0.87906 0.0
C2145 C 0.60327 0.61024 0.00581 0.0
C2146 C 0.65423 0.63224 0.74464 0.0
C2147 C 0.64862 0.62728 0.78021 0.0
C2148 C 0.63112 0.6349 0.87756 0.0
C2149 C 0.61906 0.6122 0.95414 0.0
C2150 C 0.62413 0.61776 0.9153 0.0
C2151 C 0.63999 0.63343 0.80288 0.0
C2152 C 0.63419 0.62812 0.84123 0.0
H2153 H 0.6237 0.58921 0.02117 0.0
H2154 H 0.63271 0.59942 0.96037 0.0
H2155 H 0.62387 0.63514 0.94182 0.0
H2156 H 0.6406 0.65848 0.74399 0.0
H2157 H 0.63042 0.64964 0.80511 0.0
C2158 C 0.64205 0.35174 0.24761 0.0
C2159 C 0.6507 0.358 0.26955 0.0
C2160 C 0.63595 0.3568 0.2132 0.0
C2161 C 0.63001 0.38542 0.16101 0.0
H2162 H 0.62207 0.36645 0.06121 0.0
C2163 C 0.6177 0.40462 0.99482 0.0
C2164 C 0.60699 0.40091 0.97805 0.0
C2165 C 0.62266 0.39895 0.03032 0.0
C2166 C 0.62419 0.3718 0.08903 0.0
H2167 H 0.65977 0.37446 0.27259 0.0
H2168 H 0.64953 0.3831 0.21188 0.0
H2169 H 0.63127 0.3575 0.12436 0.0
H2170 H 0.5933 0.3881 0.98416 0.0
H2171 H 0.60221 0.37799 0.0457 0.0
H2172 H 0.62333 0.39978 0.12466 0.0
C2173 C 0.64712 0.37442 0.22188 0.0
C2174 C 0.62938 0.36669 0.12535 0.0
C2175 C 0.65307 0.36944 0.25664 0.0
C2176 C 0.60155 0.39117 0.99651 0.0
C2177 C 0.60664 0.38537 0.03155 0.0
C2178 C 0.62501 0.39054 0.12445 0.0
C2179 C 0.6385 0.36817 0.19959 0.0
C2180 C 0.63244 0.37345 0.16172 0.0
C2181 C 0.61712 0.38936 0.04919 0.0
C2182 C 0.62214 0.38379 0.0881 0.0
H2183 H 0.63998 0.34292 0.25701 0.0
H2184 H 0.62923 0.35179 0.19736 0.0
H2185 H 0.63195 0.39086 0.18872 0.0
H2186 H 0.62208 0.41211 0.9814 0.0
H2187 H 0.63081 0.40211 0.04324 0.0
C2188 C 0.90154 0.39172 0.4954 0.0
C2189 C 0.8953 0.40079 0.51502 0.0
C2190 C 0.89692 0.38579 0.45969 0.0
C2191 C 0.8784 0.38998 0.36711 0.0
H2192 H 0.87239 0.3569 0.36836 0.0
C2193 C 0.84921 0.36872 0.23926 0.0
C2194 C 0.85134 0.35723 0.22641 0.0
C2195 C 0.85559 0.37374 0.27282 0.0
C2196 C 0.87423 0.3661 0.36699 0.0
H2197 H 0.87934 0.41074 0.51281 0.0
H2198 H 0.87146 0.40059 0.44975 0.0
H2199 H 0.8818 0.36604 0.43075 0.0
H2200 H 0.86208 0.3421 0.23778 0.0
H2201 H 0.87357 0.35102 0.29533 0.0
H2202 H 0.87115 0.39017 0.30332 0.0
C2203 C 0.87985 0.39802 0.46236 0.0
C2204 C 0.87955 0.37131 0.40285 0.0
C2205 C 0.88433 0.40376 0.49852 0.0
C2206 C 0.86019 0.35095 0.24718 0.0
C2207 C 0.86672 0.35605 0.28037 0.0
C2208 C 0.8733 0.38477 0.33097 0.0
C2209 C 0.88613 0.38905 0.44255 0.0
C2210 C 0.88144 0.38332 0.40346 0.0
C2211 C 0.86442 0.36748 0.29394 0.0
C2212 C 0.87089 0.3728 0.33078 0.0
H2213 H 0.91 0.38923 0.50752 0.0
H2214 H 0.9019 0.37889 0.44477 0.0
H2215 H 0.87994 0.39926 0.36677 0.0
H2216 H 0.84237 0.37376 0.22421 0.0
H2217 H 0.85336 0.38246 0.28288 0.0
C2218 C 0.84825 0.63283 0.75508 0.0
C2219 C 0.85045 0.64436 0.76717 0.0
C2220 C 0.85442 0.62769 0.72122 0.0
C2221 C 0.8724 0.635 0.62498 0.0
H2222 H 0.87825 0.60188 0.62659 0.0
C2223 C 0.89901 0.60904 0.4956 0.0
C2224 C 0.8928 0.59974 0.47742 0.0
C2225 C 0.89454 0.61511 0.53121 0.0
C2226 C 0.87667 0.61114 0.62584 0.0
H2227 H 0.86109 0.65947 0.7541 0.0
H2228 H 0.87222 0.65035 0.69594 0.0
H2229 H 0.86985 0.61119 0.6903 0.0
H2230 H 0.87702 0.58955 0.48203 0.0
H2231 H 0.8694 0.59998 0.54489 0.0
H2232 H 0.87954 0.63484 0.56053 0.0
C2233 C 0.86547 0.64537 0.71178 0.0
C2234 C 0.87179 0.61648 0.66214 0.0
C2235 C 0.85915 0.65058 0.74531 0.0
C2236 C 0.88199 0.59671 0.49519 0.0
C2237 C 0.87765 0.60261 0.53125 0.0
C2238 C 0.8775 0.62967 0.58892 0.0
C2239 C 0.8631 0.63389 0.699 0.0
C2240 C 0.86934 0.62844 0.66187 0.0
C2241 C 0.88393 0.6118 0.54969 0.0
C2242 C 0.87944 0.61766 0.58882 0.0
H2243 H 0.84152 0.62784 0.77099 0.0
H2244 H 0.85214 0.61894 0.71179 0.0
H2245 H 0.87052 0.64419 0.62327 0.0
H2246 H 0.90735 0.61158 0.48248 0.0
H2247 H 0.8995 0.62219 0.54505 0.0
C2248 C 0.3459 0.36915 0.25549 0.0
C2249 C 0.34837 0.35779 0.26907 0.0
C2250 C 0.35176 0.37402 0.2203 0.0
C2251 C 0.36947 0.36608 0.12395 0.0
H2252 H 0.37535 0.3992 0.12195 0.0
C2253 C 0.39734 0.39062 0.99509 0.0
C2254 C 0.39187 0.40032 0.97643 0.0
C2255 C 0.39219 0.38475 0.02982 0.0
C2256 C 0.37371 0.38994 0.1221 0.0
H2257 H 0.35914 0.34272 0.25716 0.0
H2258 H 0.36974 0.35139 0.19669 0.0
H2259 H 0.36682 0.39041 0.18641 0.0
H2260 H 0.37662 0.41132 0.9789 0.0
H2261 H 0.36777 0.40119 0.04022 0.0
H2262 H 0.37676 0.36571 0.05975 0.0
C2263 C 0.36302 0.35642 0.2124 0.0
C2264 C 0.36877 0.3849 0.15889 0.0
C2265 C 0.35701 0.35148 0.24726 0.0
C2266 C 0.38103 0.40386 0.9925 0.0
C2267 C 0.376 0.39812 0.02769 0.0
C2268 C 0.37462 0.37112 0.08738 0.0
C2269 C 0.36039 0.36773 0.19822 0.0
C2270 C 0.3664 0.37293 0.16007 0.0
C2271 C 0.3816 0.38862 0.04693 0.0
C2272 C 0.3766 0.38312 0.08598 0.0
H2273 H 0.3392 0.37421 0.2713 0.0
H2274 H 0.34929 0.38264 0.20985 0.0
H2275 H 0.36764 0.35687 0.12335 0.0
H2276 H 0.40569 0.38768 0.98328 0.0
H2277 H 0.39666 0.37744 0.04428 0.0
C2278 C 0.40174 0.60836 0.99141 0.0
C2279 C 0.39456 0.60268 0.02161 0.0
C2280 C 0.39693 0.61485 0.95762 0.0
C2281 C 0.37035 0.62964 0.92148 0.0
H2282 H 0.38215 0.62346 0.80568 0.0
C2283 C 0.35383 0.65399 0.76944 0.0
C2284 C 0.35077 0.64686 0.7342 0.0
C2285 C 0.35998 0.64946 0.80468 0.0
C2286 C 0.37878 0.62528 0.83783 0.0
H2287 H 0.3767 0.5997 0.04084 0.0
H2288 H 0.36832 0.61107 0.9818 0.0
H2289 H 0.39116 0.61412 0.86837 0.0
H2290 H 0.35207 0.62946 0.70774 0.0
H2291 H 0.36286 0.62159 0.76911 0.0
H2292 H 0.3578 0.64062 0.89077 0.0
C2293 C 0.37767 0.61051 0.98442 0.0
C2294 C 0.384 0.62002 0.87372 0.0
C2295 C 0.38248 0.60394 0.01808 0.0
C2296 C 0.35427 0.63518 0.73439 0.0
C2297 C 0.3605 0.63068 0.76943 0.0
C2298 C 0.36519 0.63498 0.88559 0.0
C2299 C 0.38485 0.61587 0.95348 0.0
C2300 C 0.37974 0.62204 0.91585 0.0
C2301 C 0.36329 0.63774 0.80515 0.0
C2302 C 0.36927 0.63273 0.84338 0.0
H2303 H 0.41109 0.6076 0.99324 0.0
H2304 H 0.40267 0.61901 0.93451 0.0
H2305 H 0.36695 0.63141 0.95363 0.0
H2306 H 0.35126 0.66303 0.7703 0.0
H2307 H 0.36211 0.65511 0.83165 0.0
C2308 C 0.145 0.65366 0.73287 0.0
C2309 C 0.14833 0.64622 0.76688 0.0
C2310 C 0.13856 0.64943 0.6978 0.0
C2311 C 0.11968 0.62539 0.66333 0.0
H2312 H 0.13116 0.63223 0.54761 0.0
C2313 C 0.09707 0.60811 0.50955 0.0
C2314 C 0.10444 0.60265 0.4794 0.0
C2315 C 0.10166 0.61477 0.54329 0.0
C2316 C 0.12785 0.63028 0.57973 0.0
H2317 H 0.14716 0.62862 0.79149 0.0
H2318 H 0.13588 0.62128 0.73047 0.0
H2319 H 0.1403 0.64129 0.61075 0.0
H2320 H 0.12238 0.60027 0.46015 0.0
H2321 H 0.13038 0.61193 0.5191 0.0
H2322 H 0.10744 0.61414 0.63249 0.0
C2323 C 0.13824 0.63038 0.73095 0.0
C2324 C 0.133 0.63554 0.61579 0.0
C2325 C 0.14476 0.63457 0.76577 0.0
C2326 C 0.11647 0.60433 0.48288 0.0
C2327 C 0.12105 0.61107 0.51649 0.0
C2328 C 0.11447 0.6202 0.62728 0.0
C2329 C 0.13522 0.63772 0.69633 0.0
C2330 C 0.12908 0.63299 0.65798 0.0
C2331 C 0.1137 0.61619 0.54742 0.0
C2332 C 0.11863 0.62246 0.58518 0.0
H2333 H 0.1476 0.66269 0.73275 0.0
H2334 H 0.13626 0.6553 0.67169 0.0
H2335 H 0.11643 0.62334 0.69548 0.0
H2336 H 0.08776 0.60703 0.50774 0.0
H2337 H 0.09579 0.61873 0.56642 0.0
C2338 C 0.14003 0.3473 0.25018 0.0
C2339 C 0.14873 0.35427 0.23156 0.0
C2340 C 0.1338 0.35123 0.28633 0.0
C2341 C 0.13677 0.36871 0.3816 0.0
H2342 H 0.10386 0.37547 0.37714 0.0
C2343 C 0.11538 0.39862 0.50618 0.0
C2344 C 0.10376 0.39685 0.51807 0.0
C2345 C 0.12046 0.39192 0.47365 0.0
C2346 C 0.11299 0.37339 0.3794 0.0
H2347 H 0.15768 0.37079 0.23605 0.0
H2348 H 0.14701 0.37745 0.29978 0.0
H2349 H 0.11331 0.36627 0.31491 0.0
H2350 H 0.08844 0.38643 0.50607 0.0
H2351 H 0.09744 0.37443 0.45008 0.0
H2352 H 0.13659 0.37563 0.44591 0.0
C2353 C 0.14496 0.36904 0.28605 0.0
C2354 C 0.11838 0.36818 0.34367 0.0
C2355 C 0.151 0.36525 0.24951 0.0
C2356 C 0.0974 0.38804 0.4974 0.0
C2357 C 0.10254 0.38121 0.46515 0.0
C2358 C 0.13137 0.37371 0.41756 0.0
C2359 C 0.13637 0.36205 0.30483 0.0
C2360 C 0.13035 0.3661 0.3442 0.0
C2361 C 0.11411 0.38314 0.45257 0.0
C2362 C 0.11949 0.37645 0.41647 0.0
H2363 H 0.13809 0.33882 0.23693 0.0
H2364 H 0.12718 0.34574 0.30046 0.0
H2365 H 0.14601 0.36705 0.3827 0.0
H2366 H 0.1205 0.4054 0.5212 0.0
H2367 H 0.12929 0.39387 0.46426 0.0
loop_
_geom_bond_atom_site_label_1
_geom_bond_atom_site_label_2
_geom_bond_distance
_geom_bond_site_symmetry_2
_ccdc_geom_bond_type
O0 Cd1 2.223 . S
O0 C8 1.315 . S
Cd1 O0 2.223 . S
Cd1 O4 2.297 . S
Cd1 O5 2.439 . S
Cd1 O11 2.240 . S
Cd2 O3 2.240 . S
Cd2 O10 2.223 . S
Cd2 O12 2.297 . S
Cd2 O13 2.439 . S
O3 Cd2 2.240 . S
O3 C8 1.279 . S
O4 Cd1 2.297 . S
O4 C6 1.247 . S
O5 Cd1 2.439 . S
O5 C6 1.208 . S
C6 O4 1.247 . S
C6 O5 1.208 . S
C7 O12 1.247 . S
C7 O13 1.208 . S
C8 O0 1.315 . S
C8 O3 1.279 . S
C9 O10 1.315 . S
C9 O11 1.279 . S
O10 Cd2 2.223 . S
O10 C9 1.315 . S
O11 Cd1 2.240 . S
O11 C9 1.279 . S
O12 Cd2 2.297 . S
O12 C7 1.247 . S
O13 Cd2 2.439 . S
O13 C7 1.208 . S
O14 Cd15 2.223 . S
O14 C22 1.315 . S
Cd15 O14 2.223 . S
Cd15 O18 2.297 . S
Cd15 O19 2.439 . S
Cd15 O25 2.240 . S
Cd16 O17 2.240 . S
Cd16 O24 2.223 . S
Cd16 O26 2.297 . S
Cd16 O27 2.439 . S
O17 Cd16 2.240 . S
O17 C22 1.279 . S
O18 Cd15 2.297 . S
O18 C20 1.247 . S
O19 Cd15 2.439 . S
O19 C20 1.208 . S
C20 O18 1.247 . S
C20 O19 1.208 . S
C21 O26 1.247 . S
C21 O27 1.208 . S
C22 O14 1.315 . S
C22 O17 1.279 . S
C23 O24 1.315 . S
C23 O25 1.279 . S
O24 Cd16 2.223 . S
O24 C23 1.315 . S
O25 Cd15 2.240 . S
O25 C23 1.279 . S
O26 Cd16 2.297 . S
O26 C21 1.247 . S
O27 Cd16 2.439 . S
O27 C21 1.208 . S
O28 Cd29 2.223 . S
O28 C36 1.315 . S
Cd29 O28 2.223 . S
Cd29 O32 2.297 . S
Cd29 O33 2.439 . S
Cd29 O39 2.240 . S
Cd30 O31 2.240 . S
Cd30 O38 2.223 . S
Cd30 O40 2.297 . S
Cd30 O41 2.439 . S
O31 Cd30 2.240 . S
O31 C36 1.279 . S
O32 Cd29 2.297 . S
O32 C34 1.247 . S
O33 Cd29 2.439 . S
O33 C34 1.208 . S
C34 O32 1.247 . S
C34 O33 1.208 . S
C35 O40 1.247 . S
C35 O41 1.208 . S
C36 O28 1.315 . S
C36 O31 1.279 . S
C37 O38 1.315 . S
C37 O39 1.279 . S
O38 Cd30 2.223 . S
O38 C37 1.315 . S
O39 Cd29 2.240 . S
O39 C37 1.279 . S
O40 Cd30 2.297 . S
O40 C35 1.247 . S
O41 Cd30 2.439 . S
O41 C35 1.208 . S
O42 Cd43 2.223 . S
O42 C50 1.315 . S
Cd43 O42 2.223 . S
Cd43 O46 2.297 . S
Cd43 O47 2.439 . S
Cd43 O53 2.240 . S
Cd44 O45 2.240 . S
Cd44 O52 2.223 . S
Cd44 O54 2.297 . S
Cd44 O55 2.439 . S
O45 Cd44 2.240 . S
O45 C50 1.279 . S
O46 Cd43 2.297 . S
O46 C48 1.247 . S
O47 Cd43 2.439 . S
O47 C48 1.208 . S
C48 O46 1.247 . S
C48 O47 1.208 . S
C49 O54 1.247 . S
C49 O55 1.208 . S
C50 O42 1.315 . S
C50 O45 1.279 . S
C51 O52 1.315 . S
C51 O53 1.279 . S
O52 Cd44 2.223 . S
O52 C51 1.315 . S
O53 Cd43 2.240 . S
O53 C51 1.279 . S
O54 Cd44 2.297 . S
O54 C49 1.247 . S
O55 Cd44 2.439 . S
O55 C49 1.208 . S
O56 Cd57 2.223 . S
O56 C64 1.315 . S
Cd57 O56 2.223 . S
Cd57 O60 2.297 . S
Cd57 O61 2.439 . S
Cd57 O67 2.240 . S
Cd58 O59 2.240 . S
Cd58 O66 2.223 . S
Cd58 O68 2.297 . S
Cd58 O69 2.439 . S
O59 Cd58 2.240 . S
O59 C64 1.279 . S
O60 Cd57 2.297 . S
O60 C62 1.247 . S
O61 Cd57 2.439 . S
O61 C62 1.208 . S
C62 O60 1.247 . S
C62 O61 1.208 . S
C63 O68 1.247 . S
C63 O69 1.208 . S
C64 O56 1.315 . S
C64 O59 1.279 . S
C65 O66 1.315 . S
C65 O67 1.279 . S
O66 Cd58 2.223 . S
O66 C65 1.315 . S
O67 Cd57 2.240 . S
O67 C65 1.279 . S
O68 Cd58 2.297 . S
O68 C63 1.247 . S
O69 Cd58 2.439 . S
O69 C63 1.208 . S
O70 Cd71 2.223 . S
O70 C78 1.315 . S
Cd71 O70 2.223 . S
Cd71 O74 2.297 . S
Cd71 O75 2.439 . S
Cd71 O81 2.240 . S
Cd72 O73 2.240 . S
Cd72 O80 2.223 . S
Cd72 O82 2.297 . S
Cd72 O83 2.439 . S
O73 Cd72 2.240 . S
O73 C78 1.279 . S
O74 Cd71 2.297 . S
O74 C76 1.247 . S
O75 Cd71 2.439 . S
O75 C76 1.208 . S
C76 O74 1.247 . S
C76 O75 1.208 . S
C77 O82 1.247 . S
C77 O83 1.208 . S
C78 O70 1.315 . S
C78 O73 1.279 . S
C79 O80 1.315 . S
C79 O81 1.279 . S
O80 Cd72 2.223 . S
O80 C79 1.315 . S
O81 Cd71 2.240 . S
O81 C79 1.279 . S
O82 Cd72 2.297 . S
O82 C77 1.247 . S
O83 Cd72 2.439 . S
O83 C77 1.208 . S
O84 Cd85 2.223 . S
O84 C92 1.315 . S
Cd85 O84 2.223 . S
Cd85 O88 2.297 . S
Cd85 O89 2.439 . S
Cd85 O95 2.240 . S
Cd86 O87 2.240 . S
Cd86 O94 2.223 . S
Cd86 O96 2.297 . S
Cd86 O97 2.439 . S
O87 Cd86 2.240 . S
O87 C92 1.279 . S
O88 Cd85 2.297 . S
O88 C90 1.247 . S
O89 Cd85 2.439 . S
O89 C90 1.208 . S
C90 O88 1.247 . S
C90 O89 1.208 . S
C91 O96 1.247 . S
C91 O97 1.208 . S
C92 O84 1.315 . S
C92 O87 1.279 . S
C93 O94 1.315 . S
C93 O95 1.279 . S
O94 Cd86 2.223 . S
O94 C93 1.315 . S
O95 Cd85 2.240 . S
O95 C93 1.279 . S
O96 Cd86 2.297 . S
O96 C91 1.247 . S
O97 Cd86 2.439 . S
O97 C91 1.208 . S
O98 Cd99 2.223 . S
O98 C106 1.315 . S
Cd99 O98 2.223 . S
Cd99 O102 2.297 . S
Cd99 O103 2.439 . S
Cd99 O109 2.240 . S
Cd100 O101 2.240 . S
Cd100 O108 2.223 . S
Cd100 O110 2.297 . S
Cd100 O111 2.439 . S
O101 Cd100 2.240 . S
O101 C106 1.279 . S
O102 Cd99 2.297 . S
O102 C104 1.247 . S
O103 Cd99 2.439 . S
O103 C104 1.208 . S
C104 O102 1.247 . S
C104 O103 1.208 . S
C105 O110 1.247 . S
C105 O111 1.208 . S
C106 O98 1.315 . S
C106 O101 1.279 . S
C107 O108 1.315 . S
C107 O109 1.279 . S
O108 Cd100 2.223 . S
O108 C107 1.315 . S
O109 Cd99 2.240 . S
O109 C107 1.279 . S
O110 Cd100 2.297 . S
O110 C105 1.247 . S
O111 Cd100 2.439 . S
O111 C105 1.208 . S
O112 Cd113 2.223 . S
O112 C120 1.315 . S
Cd113 O112 2.223 . S
Cd113 O116 2.297 . S
Cd113 O117 2.439 . S
Cd113 O123 2.240 . S
Cd114 O115 2.240 . S
Cd114 O122 2.223 . S
Cd114 O124 2.297 . S
Cd114 O125 2.439 . S
O115 Cd114 2.240 . S
O115 C120 1.279 . S
O116 Cd113 2.297 . S
O116 C118 1.247 . S
O117 Cd113 2.439 . S
O117 C118 1.208 . S
C118 O116 1.247 . S
C118 O117 1.208 . S
C119 O124 1.247 . S
C119 O125 1.208 . S
C120 O112 1.315 . S
C120 O115 1.279 . S
C121 O122 1.315 . S
C121 O123 1.279 . S
O122 Cd114 2.223 . S
O122 C121 1.315 . S
O123 Cd113 2.240 . S
O123 C121 1.279 . S
O124 Cd114 2.297 . S
O124 C119 1.247 . S
O125 Cd114 2.439 . S
O125 C119 1.208 . S
O126 Cd127 2.223 . S
O126 C134 1.315 . S
Cd127 O126 2.223 . S
Cd127 O130 2.297 . S
Cd127 O131 2.439 . S
Cd127 O137 2.240 . S
Cd128 O129 2.240 . S
Cd128 O136 2.223 . S
Cd128 O138 2.297 . S
Cd128 O139 2.439 . S
O129 Cd128 2.240 . S
O129 C134 1.279 . S
O130 Cd127 2.297 . S
O130 C132 1.247 . S
O131 Cd127 2.439 . S
O131 C132 1.208 . S
C132 O130 1.247 . S
C132 O131 1.208 . S
C133 O138 1.247 . S
C133 O139 1.208 . S
C134 O126 1.315 . S
C134 O129 1.279 . S
C135 O136 1.315 . S
C135 O137 1.279 . S
O136 Cd128 2.223 . S
O136 C135 1.315 . S
O137 Cd127 2.240 . S
O137 C135 1.279 . S
O138 Cd128 2.297 . S
O138 C133 1.247 . S
O139 Cd128 2.439 . S
O139 C133 1.208 . S
O140 Cd141 2.223 . S
O140 C148 1.315 . S
Cd141 O140 2.223 . S
Cd141 O144 2.297 . S
Cd141 O145 2.439 . S
Cd141 O151 2.240 . S
Cd142 O143 2.240 . S
Cd142 O150 2.223 . S
Cd142 O152 2.297 . S
Cd142 O153 2.439 . S
O143 Cd142 2.240 . S
O143 C148 1.279 . S
O144 Cd141 2.297 . S
O144 C146 1.247 . S
O145 Cd141 2.439 . S
O145 C146 1.208 . S
C146 O144 1.247 . S
C146 O145 1.208 . S
C147 O152 1.247 . S
C147 O153 1.208 . S
C148 O140 1.315 . S
C148 O143 1.279 . S
C149 O150 1.315 . S
C149 O151 1.279 . S
O150 Cd142 2.223 . S
O150 C149 1.315 . S
O151 Cd141 2.240 . S
O151 C149 1.279 . S
O152 Cd142 2.297 . S
O152 C147 1.247 . S
O153 Cd142 2.439 . S
O153 C147 1.208 . S
O154 Cd155 2.223 . S
O154 C162 1.315 . S
Cd155 O154 2.223 . S
Cd155 O158 2.297 . S
Cd155 O159 2.439 . S
Cd155 O165 2.240 . S
Cd156 O157 2.240 . S
Cd156 O164 2.223 . S
Cd156 O166 2.297 . S
Cd156 O167 2.439 . S
O157 Cd156 2.240 . S
O157 C162 1.279 . S
O158 Cd155 2.297 . S
O158 C160 1.247 . S
O159 Cd155 2.439 . S
O159 C160 1.208 . S
C160 O158 1.247 . S
C160 O159 1.208 . S
C161 O166 1.247 . S
C161 O167 1.208 . S
C162 O154 1.315 . S
C162 O157 1.279 . S
C163 O164 1.315 . S
C163 O165 1.279 . S
O164 Cd156 2.223 . S
O164 C163 1.315 . S
O165 Cd155 2.240 . S
O165 C163 1.279 . S
O166 Cd156 2.297 . S
O166 C161 1.247 . S
O167 Cd156 2.439 . S
O167 C161 1.208 . S
O168 Cd169 2.223 . S
O168 C176 1.315 . S
Cd169 O168 2.223 . S
Cd169 O172 2.297 . S
Cd169 O173 2.439 . S
Cd169 O179 2.240 . S
Cd170 O171 2.240 . S
Cd170 O178 2.223 . S
Cd170 O180 2.297 . S
Cd170 O181 2.439 . S
O171 Cd170 2.240 . S
O171 C176 1.279 . S
O172 Cd169 2.297 . S
O172 C174 1.247 . S
O173 Cd169 2.439 . S
O173 C174 1.208 . S
C174 O172 1.247 . S
C174 O173 1.208 . S
C175 O180 1.247 . S
C175 O181 1.208 . S
C176 O168 1.315 . S
C176 O171 1.279 . S
C177 O178 1.315 . S
C177 O179 1.279 . S
O178 Cd170 2.223 . S
O178 C177 1.315 . S
O179 Cd169 2.240 . S
O179 C177 1.279 . S
O180 Cd170 2.297 . S
O180 C175 1.247 . S
O181 Cd170 2.439 . S
O181 C175 1.208 . S
O182 Cd183 2.223 . S
O182 C190 1.315 . S
Cd183 O182 2.223 . S
Cd183 O186 2.297 . S
Cd183 O187 2.439 . S
Cd183 O193 2.240 . S
Cd184 O185 2.240 . S
Cd184 O192 2.223 . S
Cd184 O194 2.297 . S
Cd184 O195 2.439 . S
O185 Cd184 2.240 . S
O185 C190 1.279 . S
O186 Cd183 2.297 . S
O186 C188 1.247 . S
O187 Cd183 2.439 . S
O187 C188 1.208 . S
C188 O186 1.247 . S
C188 O187 1.208 . S
C189 O194 1.247 . S
C189 O195 1.208 . S
C190 O182 1.315 . S
C190 O185 1.279 . S
C191 O192 1.315 . S
C191 O193 1.279 . S
O192 Cd184 2.223 . S
O192 C191 1.315 . S
O193 Cd183 2.240 . S
O193 C191 1.279 . S
O194 Cd184 2.297 . S
O194 C189 1.247 . S
O195 Cd184 2.439 . S
O195 C189 1.208 . S
O196 Cd197 2.223 . S
O196 C204 1.315 . S
Cd197 O196 2.223 . S
Cd197 O200 2.297 . S
Cd197 O201 2.439 . S
Cd197 O207 2.240 . S
Cd198 O199 2.240 . S
Cd198 O206 2.223 . S
Cd198 O208 2.297 . S
Cd198 O209 2.439 . S
O199 Cd198 2.240 . S
O199 C204 1.279 . S
O200 Cd197 2.297 . S
O200 C202 1.247 . S
O201 Cd197 2.439 . S
O201 C202 1.208 . S
C202 O200 1.247 . S
C202 O201 1.208 . S
C203 O208 1.247 . S
C203 O209 1.208 . S
C204 O196 1.315 . S
C204 O199 1.279 . S
C205 O206 1.315 . S
C205 O207 1.279 . S
O206 Cd198 2.223 . S
O206 C205 1.315 . S
O207 Cd197 2.240 . S
O207 C205 1.279 . S
O208 Cd198 2.297 . S
O208 C203 1.247 . S
O209 Cd198 2.439 . S
O209 C203 1.208 . S
O210 Cd211 2.223 . S
O210 C218 1.315 . S
Cd211 O210 2.223 . S
Cd211 O214 2.297 . S
Cd211 O215 2.439 . S
Cd211 O221 2.240 . S
Cd212 O213 2.240 . S
Cd212 O220 2.223 . S
Cd212 O222 2.297 . S
Cd212 O223 2.439 . S
O213 Cd212 2.240 . S
O213 C218 1.279 . S
O214 Cd211 2.297 . S
O214 C216 1.247 . S
O215 Cd211 2.439 . S
O215 C216 1.208 . S
C216 O214 1.247 . S
C216 O215 1.208 . S
C217 O222 1.247 . S
C217 O223 1.208 . S
C218 O210 1.315 . S
C218 O213 1.279 . S
C219 O220 1.315 . S
C219 O221 1.279 . S
O220 Cd212 2.223 . S
O220 C219 1.315 . S
O221 Cd211 2.240 . S
O221 C219 1.279 . S
O222 Cd212 2.297 . S
O222 C217 1.247 . S
O223 Cd212 2.439 . S
O223 C217 1.208 . S
O224 Cd225 2.223 . S
O224 C232 1.315 . S
Cd225 O224 2.223 . S
Cd225 O228 2.297 . S
Cd225 O229 2.439 . S
Cd225 O235 2.240 . S
Cd226 O227 2.240 . S
Cd226 O234 2.223 . S
Cd226 O236 2.297 . S
Cd226 O237 2.439 . S
O227 Cd226 2.240 . S
O227 C232 1.279 . S
O228 Cd225 2.297 . S
O228 C230 1.247 . S
O229 Cd225 2.439 . S
O229 C230 1.208 . S
C230 O228 1.247 . S
C230 O229 1.208 . S
C231 O236 1.247 . S
C231 O237 1.208 . S
C232 O224 1.315 . S
C232 O227 1.279 . S
C233 O234 1.315 . S
C233 O235 1.279 . S
O234 Cd226 2.223 . S
O234 C233 1.315 . S
O235 Cd225 2.240 . S
O235 C233 1.279 . S
O236 Cd226 2.297 . S
O236 C231 1.247 . S
O237 Cd226 2.439 . S
O237 C231 1.208 . S
O238 Cd239 2.223 . S
O238 C246 1.315 . S
Cd239 O238 2.223 . S
Cd239 O242 2.297 . S
Cd239 O243 2.439 . S
Cd239 O249 2.240 . S
Cd240 O241 2.240 . S
Cd240 O248 2.223 . S
Cd240 O250 2.297 . S
Cd240 O251 2.439 . S
O241 Cd240 2.240 . S
O241 C246 1.279 . S
O242 Cd239 2.297 . S
O242 C244 1.247 . S
O243 Cd239 2.439 . S
O243 C244 1.208 . S
C244 O242 1.247 . S
C244 O243 1.208 . S
C245 O250 1.247 . S
C245 O251 1.208 . S
C246 O238 1.315 . S
C246 O241 1.279 . S
C247 O248 1.315 . S
C247 O249 1.279 . S
O248 Cd240 2.223 . S
O248 C247 1.315 . S
O249 Cd239 2.240 . S
O249 C247 1.279 . S
O250 Cd240 2.297 . S
O250 C245 1.247 . S
O251 Cd240 2.439 . S
O251 C245 1.208 . S
O252 Cd253 2.223 . S
O252 C260 1.315 . S
Cd253 O252 2.223 . S
Cd253 O256 2.297 . S
Cd253 O257 2.439 . S
Cd253 O263 2.240 . S
Cd254 O255 2.240 . S
Cd254 O262 2.223 . S
Cd254 O264 2.297 . S
Cd254 O265 2.439 . S
O255 Cd254 2.240 . S
O255 C260 1.279 . S
O256 Cd253 2.297 . S
O256 C258 1.247 . S
O257 Cd253 2.439 . S
O257 C258 1.208 . S
C258 O256 1.247 . S
C258 O257 1.208 . S
C259 O264 1.247 . S
C259 O265 1.208 . S
C260 O252 1.315 . S
C260 O255 1.279 . S
C261 O262 1.315 . S
C261 O263 1.279 . S
O262 Cd254 2.223 . S
O262 C261 1.315 . S
O263 Cd253 2.240 . S
O263 C261 1.279 . S
O264 Cd254 2.297 . S
O264 C259 1.247 . S
O265 Cd254 2.439 . S
O265 C259 1.208 . S
O266 Cd267 2.223 . S
O266 C274 1.315 . S
Cd267 O266 2.223 . S
Cd267 O270 2.297 . S
Cd267 O271 2.439 . S
Cd267 O277 2.240 . S
Cd268 O269 2.240 . S
Cd268 O276 2.223 . S
Cd268 O278 2.297 . S
Cd268 O279 2.439 . S
O269 Cd268 2.240 . S
O269 C274 1.279 . S
O270 Cd267 2.297 . S
O270 C272 1.247 . S
O271 Cd267 2.439 . S
O271 C272 1.208 . S
C272 O270 1.247 . S
C272 O271 1.208 . S
C273 O278 1.247 . S
C273 O279 1.208 . S
C274 O266 1.315 . S
C274 O269 1.279 . S
C275 O276 1.315 . S
C275 O277 1.279 . S
O276 Cd268 2.223 . S
O276 C275 1.315 . S
O277 Cd267 2.240 . S
O277 C275 1.279 . S
O278 Cd268 2.297 . S
O278 C273 1.247 . S
O279 Cd268 2.439 . S
O279 C273 1.208 . S
O280 Cd281 2.223 . S
O280 C288 1.315 . S
Cd281 O280 2.223 . S
Cd281 O284 2.297 . S
Cd281 O285 2.439 . S
Cd281 O291 2.240 . S
Cd282 O283 2.240 . S
Cd282 O290 2.223 . S
Cd282 O292 2.297 . S
Cd282 O293 2.439 . S
O283 Cd282 2.240 . S
O283 C288 1.279 . S
O284 Cd281 2.297 . S
O284 C286 1.247 . S
O285 Cd281 2.439 . S
O285 C286 1.208 . S
C286 O284 1.247 . S
C286 O285 1.208 . S
C287 O292 1.247 . S
C287 O293 1.208 . S
C288 O280 1.315 . S
C288 O283 1.279 . S
C289 O290 1.315 . S
C289 O291 1.279 . S
O290 Cd282 2.223 . S
O290 C289 1.315 . S
O291 Cd281 2.240 . S
O291 C289 1.279 . S
O292 Cd282 2.297 . S
O292 C287 1.247 . S
O293 Cd282 2.439 . S
O293 C287 1.208 . S
O294 Cd295 2.223 . S
O294 C302 1.315 . S
Cd295 O294 2.223 . S
Cd295 O298 2.297 . S
Cd295 O299 2.439 . S
Cd295 O305 2.240 . S
Cd296 O297 2.240 . S
Cd296 O304 2.223 . S
Cd296 O306 2.297 . S
Cd296 O307 2.439 . S
O297 Cd296 2.240 . S
O297 C302 1.279 . S
O298 Cd295 2.297 . S
O298 C300 1.247 . S
O299 Cd295 2.439 . S
O299 C300 1.208 . S
C300 O298 1.247 . S
C300 O299 1.208 . S
C301 O306 1.247 . S
C301 O307 1.208 . S
C302 O294 1.315 . S
C302 O297 1.279 . S
C303 O304 1.315 . S
C303 O305 1.279 . S
O304 Cd296 2.223 . S
O304 C303 1.315 . S
O305 Cd295 2.240 . S
O305 C303 1.279 . S
O306 Cd296 2.297 . S
O306 C301 1.247 . S
O307 Cd296 2.439 . S
O307 C301 1.208 . S
O308 Cd309 2.223 . S
O308 C316 1.315 . S
Cd309 O308 2.223 . S
Cd309 O312 2.297 . S
Cd309 O313 2.439 . S
Cd309 O319 2.240 . S
Cd310 O311 2.240 . S
Cd310 O318 2.223 . S
Cd310 O320 2.297 . S
Cd310 O321 2.439 . S
O311 Cd310 2.240 . S
O311 C316 1.279 . S
O312 Cd309 2.297 . S
O312 C314 1.247 . S
O313 Cd309 2.439 . S
O313 C314 1.208 . S
C314 O312 1.247 . S
C314 O313 1.208 . S
C315 O320 1.247 . S
C315 O321 1.208 . S
C316 O308 1.315 . S
C316 O311 1.279 . S
C317 O318 1.315 . S
C317 O319 1.279 . S
O318 Cd310 2.223 . S
O318 C317 1.315 . S
O319 Cd309 2.240 . S
O319 C317 1.279 . S
O320 Cd310 2.297 . S
O320 C315 1.247 . S
O321 Cd310 2.439 . S
O321 C315 1.208 . S
O322 Cd323 2.223 . S
O322 C330 1.315 . S
Cd323 O322 2.223 . S
Cd323 O326 2.297 . S
Cd323 O327 2.439 . S
Cd323 O333 2.240 . S
Cd324 O325 2.240 . S
Cd324 O332 2.223 . S
Cd324 O334 2.297 . S
Cd324 O335 2.439 . S
O325 Cd324 2.240 . S
O325 C330 1.279 . S
O326 Cd323 2.297 . S
O326 C328 1.247 . S
O327 Cd323 2.439 . S
O327 C328 1.208 . S
C328 O326 1.247 . S
C328 O327 1.208 . S
C329 O334 1.247 . S
C329 O335 1.208 . S
C330 O322 1.315 . S
C330 O325 1.279 . S
C331 O332 1.315 . S
C331 O333 1.279 . S
O332 Cd324 2.223 . S
O332 C331 1.315 . S
O333 Cd323 2.240 . S
O333 C331 1.279 . S
O334 Cd324 2.297 . S
O334 C329 1.247 . S
O335 Cd324 2.439 . S
O335 C329 1.208 . S
O336 Cd337 2.223 . S
O336 C344 1.315 . S
Cd337 O336 2.223 . S
Cd337 O340 2.297 . S
Cd337 O341 2.439 . S
Cd337 O347 2.240 . S
Cd338 O339 2.240 . S
Cd338 O346 2.223 . S
Cd338 O348 2.297 . S
Cd338 O349 2.439 . S
O339 Cd338 2.240 . S
O339 C344 1.279 . S
O340 Cd337 2.297 . S
O340 C342 1.247 . S
O341 Cd337 2.439 . S
O341 C342 1.208 . S
C342 O340 1.247 . S
C342 O341 1.208 . S
C343 O348 1.247 . S
C343 O349 1.208 . S
C344 O336 1.315 . S
C344 O339 1.279 . S
C345 O346 1.315 . S
C345 O347 1.279 . S
O346 Cd338 2.223 . S
O346 C345 1.315 . S
O347 Cd337 2.240 . S
O347 C345 1.279 . S
O348 Cd338 2.297 . S
O348 C343 1.247 . S
O349 Cd338 2.439 . S
O349 C343 1.208 . S
O350 Cd351 2.223 . S
O350 C358 1.315 . S
Cd351 O350 2.223 . S
Cd351 O354 2.297 . S
Cd351 O355 2.439 . S
Cd351 O361 2.240 . S
Cd352 O353 2.240 . S
Cd352 O360 2.223 . S
Cd352 O362 2.297 . S
Cd352 O363 2.439 . S
O353 Cd352 2.240 . S
O353 C358 1.279 . S
O354 Cd351 2.297 . S
O354 C356 1.247 . S
O355 Cd351 2.439 . S
O355 C356 1.208 . S
C356 O354 1.247 . S
C356 O355 1.208 . S
C357 O362 1.247 . S
C357 O363 1.208 . S
C358 O350 1.315 . S
C358 O353 1.279 . S
C359 O360 1.315 . S
C359 O361 1.279 . S
O360 Cd352 2.223 . S
O360 C359 1.315 . S
O361 Cd351 2.240 . S
O361 C359 1.279 . S
O362 Cd352 2.297 . S
O362 C357 1.247 . S
O363 Cd352 2.439 . S
O363 C357 1.208 . S
O364 Cd365 2.223 . S
O364 C372 1.315 . S
Cd365 O364 2.223 . S
Cd365 O368 2.297 . S
Cd365 O369 2.439 . S
Cd365 O375 2.240 . S
Cd366 O367 2.240 . S
Cd366 O374 2.223 . S
Cd366 O376 2.297 . S
Cd366 O377 2.439 . S
O367 Cd366 2.240 . S
O367 C372 1.279 . S
O368 Cd365 2.297 . S
O368 C370 1.247 . S
O369 Cd365 2.439 . S
O369 C370 1.208 . S
C370 O368 1.247 . S
C370 O369 1.208 . S
C371 O376 1.247 . S
C371 O377 1.208 . S
C372 O364 1.315 . S
C372 O367 1.279 . S
C373 O374 1.315 . S
C373 O375 1.279 . S
O374 Cd366 2.223 . S
O374 C373 1.315 . S
O375 Cd365 2.240 . S
O375 C373 1.279 . S
O376 Cd366 2.297 . S
O376 C371 1.247 . S
O377 Cd366 2.439 . S
O377 C371 1.208 . S
O378 Cd379 2.223 . S
O378 C386 1.315 . S
Cd379 O378 2.223 . S
Cd379 O382 2.297 . S
Cd379 O383 2.439 . S
Cd379 O389 2.240 . S
Cd380 O381 2.240 . S
Cd380 O388 2.223 . S
Cd380 O390 2.297 . S
Cd380 O391 2.439 . S
O381 Cd380 2.240 . S
O381 C386 1.279 . S
O382 Cd379 2.297 . S
O382 C384 1.247 . S
O383 Cd379 2.439 . S
O383 C384 1.208 . S
C384 O382 1.247 . S
C384 O383 1.208 . S
C385 O390 1.247 . S
C385 O391 1.208 . S
C386 O378 1.315 . S
C386 O381 1.279 . S
C387 O388 1.315 . S
C387 O389 1.279 . S
O388 Cd380 2.223 . S
O388 C387 1.315 . S
O389 Cd379 2.240 . S
O389 C387 1.279 . S
O390 Cd380 2.297 . S
O390 C385 1.247 . S
O391 Cd380 2.439 . S
O391 C385 1.208 . S
O392 Cd393 2.223 . S
O392 C400 1.315 . S
Cd393 O392 2.223 . S
Cd393 O396 2.297 . S
Cd393 O397 2.439 . S
Cd393 O403 2.240 . S
Cd394 O395 2.240 . S
Cd394 O402 2.223 . S
Cd394 O404 2.297 . S
Cd394 O405 2.439 . S
O395 Cd394 2.240 . S
O395 C400 1.279 . S
O396 Cd393 2.297 . S
O396 C398 1.247 . S
O397 Cd393 2.439 . S
O397 C398 1.208 . S
C398 O396 1.247 . S
C398 O397 1.208 . S
C399 O404 1.247 . S
C399 O405 1.208 . S
C400 O392 1.315 . S
C400 O395 1.279 . S
C401 O402 1.315 . S
C401 O403 1.279 . S
O402 Cd394 2.223 . S
O402 C401 1.315 . S
O403 Cd393 2.240 . S
O403 C401 1.279 . S
O404 Cd394 2.297 . S
O404 C399 1.247 . S
O405 Cd394 2.439 . S
O405 C399 1.208 . S
O406 Cd407 2.223 . S
O406 C414 1.315 . S
Cd407 O406 2.223 . S
Cd407 O410 2.297 . S
Cd407 O411 2.439 . S
Cd407 O417 2.240 . S
Cd408 O409 2.240 . S
Cd408 O416 2.223 . S
Cd408 O418 2.297 . S
Cd408 O419 2.439 . S
O409 Cd408 2.240 . S
O409 C414 1.279 . S
O410 Cd407 2.297 . S
O410 C412 1.247 . S
O411 Cd407 2.439 . S
O411 C412 1.208 . S
C412 O410 1.247 . S
C412 O411 1.208 . S
C413 O418 1.247 . S
C413 O419 1.208 . S
C414 O406 1.315 . S
C414 O409 1.279 . S
C415 O416 1.315 . S
C415 O417 1.279 . S
O416 Cd408 2.223 . S
O416 C415 1.315 . S
O417 Cd407 2.240 . S
O417 C415 1.279 . S
O418 Cd408 2.297 . S
O418 C413 1.247 . S
O419 Cd408 2.439 . S
O419 C413 1.208 . S
O420 Cd421 2.223 . S
O420 C428 1.315 . S
Cd421 O420 2.223 . S
Cd421 O424 2.297 . S
Cd421 O425 2.439 . S
Cd421 O431 2.240 . S
Cd422 O423 2.240 . S
Cd422 O430 2.223 . S
Cd422 O432 2.297 . S
Cd422 O433 2.439 . S
O423 Cd422 2.240 . S
O423 C428 1.279 . S
O424 Cd421 2.297 . S
O424 C426 1.247 . S
O425 Cd421 2.439 . S
O425 C426 1.208 . S
C426 O424 1.247 . S
C426 O425 1.208 . S
C427 O432 1.247 . S
C427 O433 1.208 . S
C428 O420 1.315 . S
C428 O423 1.279 . S
C429 O430 1.315 . S
C429 O431 1.279 . S
O430 Cd422 2.223 . S
O430 C429 1.315 . S
O431 Cd421 2.240 . S
O431 C429 1.279 . S
O432 Cd422 2.297 . S
O432 C427 1.247 . S
O433 Cd422 2.439 . S
O433 C427 1.208 . S
O434 Cd435 2.223 . S
O434 C442 1.315 . S
Cd435 O434 2.223 . S
Cd435 O438 2.297 . S
Cd435 O439 2.439 . S
Cd435 O445 2.240 . S
Cd436 O437 2.240 . S
Cd436 O444 2.223 . S
Cd436 O446 2.297 . S
Cd436 O447 2.439 . S
O437 Cd436 2.240 . S
O437 C442 1.279 . S
O438 Cd435 2.297 . S
O438 C440 1.247 . S
O439 Cd435 2.439 . S
O439 C440 1.208 . S
C440 O438 1.247 . S
C440 O439 1.208 . S
C441 O446 1.247 . S
C441 O447 1.208 . S
C442 O434 1.315 . S
C442 O437 1.279 . S
C443 O444 1.315 . S
C443 O445 1.279 . S
O444 Cd436 2.223 . S
O444 C443 1.315 . S
O445 Cd435 2.240 . S
O445 C443 1.279 . S
O446 Cd436 2.297 . S
O446 C441 1.247 . S
O447 Cd436 2.439 . S
O447 C441 1.208 . S
C448 C449 1.349 . S
C448 C450 1.327 . S
C448 H473 0.950 . S
C449 C448 1.349 . S
C449 C465 1.349 . S
C450 C448 1.327 . S
C450 C469 1.429 . S
C450 H474 0.950 . S
C451 C468 1.574 . S
C451 C470 1.368 . S
C451 H475 0.949 . S
H452 C456 0.949 . S
C453 C454 1.349 . S
C453 C455 1.327 . S
C453 H476 0.950 . S
C454 C453 1.349 . S
C454 C466 1.349 . S
C455 C453 1.327 . S
C455 C471 1.429 . S
C455 H477 0.950 . S
C456 H452 0.949 . S
C456 C464 1.574 . S
C456 C472 1.368 . S
H457 C465 0.950 . S
H458 C463 0.950 . S
H459 C464 0.949 . S
H460 C466 0.950 . S
H461 C467 0.950 . S
H462 C468 0.949 . S
C463 H458 0.950 . S
C463 C465 1.327 . S
C463 C469 1.429 . S
C464 C456 1.574 . S
C464 H459 0.949 . S
C464 C470 1.368 . S
C465 C449 1.349 . S
C465 H457 0.950 . S
C465 C463 1.327 . S
C466 C454 1.349 . S
C466 H460 0.950 . S
C466 C467 1.327 . S
C467 H461 0.950 . S
C467 C466 1.327 . S
C467 C471 1.429 . S
C468 C451 1.574 . S
C468 H462 0.949 . S
C468 C472 1.368 . S
C469 C450 1.429 . S
C469 C463 1.429 . S
C469 C470 1.523 . S
C470 C451 1.368 . S
C470 C464 1.368 . S
C470 C469 1.523 . S
C471 C455 1.429 . S
C471 C467 1.429 . S
C471 C472 1.523 . S
C472 C456 1.368 . S
C472 C468 1.368 . S
C472 C471 1.523 . S
H473 C448 0.950 . S
H474 C450 0.950 . S
H475 C451 0.949 . S
H476 C453 0.950 . S
H477 C455 0.950 . S
C478 C479 1.349 . S
C478 C480 1.327 . S
C478 H503 0.950 . S
C479 C478 1.349 . S
C479 C495 1.349 . S
C480 C478 1.327 . S
C480 C499 1.429 . S
C480 H504 0.950 . S
C481 C498 1.574 1_565 S
C481 C500 1.368 . S
C481 H505 0.949 . S
H482 C486 0.949 . S
C483 C484 1.349 . S
C483 C485 1.327 . S
C483 H506 0.950 . S
C484 C483 1.349 . S
C484 C496 1.349 . S
C485 C483 1.327 . S
C485 C501 1.429 . S
C485 H507 0.950 . S
C486 H482 0.949 . S
C486 C494 1.574 1_545 S
C486 C502 1.368 . S
H487 C495 0.950 . S
H488 C493 0.950 . S
H489 C494 0.949 . S
H490 C496 0.950 . S
H491 C497 0.950 . S
H492 C498 0.949 . S
C493 H488 0.950 . S
C493 C495 1.327 . S
C493 C499 1.429 . S
C494 C486 1.574 1_565 S
C494 H489 0.949 . S
C494 C500 1.368 . S
C495 C479 1.349 . S
C495 H487 0.950 . S
C495 C493 1.327 . S
C496 C484 1.349 . S
C496 H490 0.950 . S
C496 C497 1.327 . S
C497 H491 0.950 . S
C497 C496 1.327 . S
C497 C501 1.429 . S
C498 C481 1.574 1_545 S
C498 H492 0.949 . S
C498 C502 1.368 . S
C499 C480 1.429 . S
C499 C493 1.429 . S
C499 C500 1.523 . S
C500 C481 1.368 . S
C500 C494 1.368 . S
C500 C499 1.523 . S
C501 C485 1.429 . S
C501 C497 1.429 . S
C501 C502 1.523 . S
C502 C486 1.368 . S
C502 C498 1.368 . S
C502 C501 1.523 . S
H503 C478 0.950 . S
H504 C480 0.950 . S
H505 C481 0.949 . S
H506 C483 0.950 . S
H507 C485 0.950 . S
C508 C509 1.349 . S
C508 C510 1.327 . S
C508 H533 0.950 . S
C509 C508 1.349 . S
C509 C525 1.349 . S
C510 C508 1.327 . S
C510 C529 1.429 . S
C510 H534 0.950 . S
C511 C528 1.574 . S
C511 C530 1.368 . S
C511 H535 0.949 . S
H512 C516 0.949 . S
C513 C514 1.349 . S
C513 C515 1.327 . S
C513 H536 0.950 . S
C514 C513 1.349 . S
C514 C526 1.349 . S
C515 C513 1.327 . S
C515 C531 1.429 . S
C515 H537 0.950 . S
C516 H512 0.949 . S
C516 C524 1.574 . S
C516 C532 1.368 . S
H517 C525 0.950 . S
H518 C523 0.950 . S
H519 C524 0.949 . S
H520 C526 0.950 . S
H521 C527 0.950 . S
H522 C528 0.949 . S
C523 H518 0.950 . S
C523 C525 1.327 . S
C523 C529 1.429 . S
C524 C516 1.574 . S
C524 H519 0.949 . S
C524 C530 1.368 . S
C525 C509 1.349 . S
C525 H517 0.950 . S
C525 C523 1.327 . S
C526 C514 1.349 . S
C526 H520 0.950 . S
C526 C527 1.327 . S
C527 H521 0.950 . S
C527 C526 1.327 . S
C527 C531 1.429 . S
C528 C511 1.574 . S
C528 H522 0.949 . S
C528 C532 1.368 . S
C529 C510 1.429 . S
C529 C523 1.429 . S
C529 C530 1.523 . S
C530 C511 1.368 . S
C530 C524 1.368 . S
C530 C529 1.523 . S
C531 C515 1.429 . S
C531 C527 1.429 . S
C531 C532 1.523 . S
C532 C516 1.368 . S
C532 C528 1.368 . S
C532 C531 1.523 . S
H533 C508 0.950 . S
H534 C510 0.950 . S
H535 C511 0.949 . S
H536 C513 0.950 . S
H537 C515 0.950 . S
C538 C539 1.349 . S
C538 C540 1.327 . S
C538 H563 0.950 . S
C539 C538 1.349 . S
C539 C555 1.349 . S
C540 C538 1.327 . S
C540 C559 1.429 . S
C540 H564 0.950 . S
C541 C558 1.574 1_545 S
C541 C560 1.368 1_554 S
C541 H565 0.949 . S
H542 C546 0.949 . S
C543 C544 1.349 . S
C543 C545 1.327 . S
C543 H566 0.950 . S
C544 C543 1.349 . S
C544 C556 1.349 . S
C545 C543 1.327 . S
C545 C561 1.429 . S
C545 H567 0.950 . S
C546 H542 0.949 . S
C546 C554 1.574 1_565 S
C546 C562 1.368 1_556 S
H547 C555 0.950 . S
H548 C553 0.950 1_554 S
H549 C554 0.949 . S
H550 C556 0.950 . S
H551 C557 0.950 1_556 S
H552 C558 0.949 . S
C553 H548 0.950 1_556 S
C553 C555 1.327 . S
C553 C559 1.429 . S
C554 C546 1.574 1_545 S
C554 H549 0.949 . S
C554 C560 1.368 . S
C555 C539 1.349 . S
C555 H547 0.950 . S
C555 C553 1.327 . S
C556 C544 1.349 . S
C556 H550 0.950 . S
C556 C557 1.327 . S
C557 H551 0.950 1_554 S
C557 C556 1.327 . S
C557 C561 1.429 . S
C558 C541 1.574 1_565 S
C558 H552 0.949 . S
C558 C562 1.368 . S
C559 C540 1.429 . S
C559 C553 1.429 . S
C559 C560 1.523 . S
C560 C541 1.368 1_556 S
C560 C554 1.368 . S
C560 C559 1.523 . S
C561 C545 1.429 . S
C561 C557 1.429 . S
C561 C562 1.523 . S
C562 C546 1.368 1_554 S
C562 C558 1.368 . S
C562 C561 1.523 . S
H563 C538 0.950 . S
H564 C540 0.950 . S
H565 C541 0.949 . S
H566 C543 0.950 . S
H567 C545 0.950 . S
C568 C569 1.349 . S
C568 C570 1.327 . S
C568 H593 0.950 . S
C569 C568 1.349 . S
C569 C585 1.349 . S
C570 C568 1.327 . S
C570 C589 1.429 . S
C570 H594 0.950 . S
C571 C588 1.574 . S
C571 C590 1.368 . S
C571 H595 0.949 . S
H572 C576 0.949 . S
C573 C574 1.349 . S
C573 C575 1.327 . S
C573 H596 0.950 . S
C574 C573 1.349 . S
C574 C586 1.349 . S
C575 C573 1.327 . S
C575 C591 1.429 . S
C575 H597 0.950 . S
C576 H572 0.949 . S
C576 C584 1.574 . S
C576 C592 1.368 . S
H577 C585 0.950 . S
H578 C583 0.950 . S
H579 C584 0.949 . S
H580 C586 0.950 . S
H581 C587 0.950 . S
H582 C588 0.949 . S
C583 H578 0.950 . S
C583 C585 1.327 . S
C583 C589 1.429 . S
C584 C576 1.574 . S
C584 H579 0.949 . S
C584 C590 1.368 . S
C585 C569 1.349 . S
C585 H577 0.950 . S
C585 C583 1.327 . S
C586 C574 1.349 . S
C586 H580 0.950 . S
C586 C587 1.327 . S
C587 H581 0.950 . S
C587 C586 1.327 . S
C587 C591 1.429 . S
C588 C571 1.574 . S
C588 H582 0.949 . S
C588 C592 1.368 . S
C589 C570 1.429 . S
C589 C583 1.429 . S
C589 C590 1.523 . S
C590 C571 1.368 . S
C590 C584 1.368 . S
C590 C589 1.523 . S
C591 C575 1.429 . S
C591 C587 1.429 . S
C591 C592 1.523 . S
C592 C576 1.368 . S
C592 C588 1.368 . S
C592 C591 1.523 . S
H593 C568 0.950 . S
H594 C570 0.950 . S
H595 C571 0.949 . S
H596 C573 0.950 . S
H597 C575 0.950 . S
C598 C599 1.349 . S
C598 C600 1.327 . S
C598 H623 0.950 . S
C599 C598 1.349 . S
C599 C615 1.349 . S
C600 C598 1.327 . S
C600 C619 1.429 . S
C600 H624 0.950 . S
C601 C618 1.574 1_565 S
C601 C620 1.368 . S
C601 H625 0.949 . S
H602 C606 0.949 . S
C603 C604 1.349 . S
C603 C605 1.327 . S
C603 H626 0.950 . S
C604 C603 1.349 . S
C604 C616 1.349 . S
C605 C603 1.327 . S
C605 C621 1.429 . S
C605 H627 0.950 . S
C606 H602 0.949 . S
C606 C614 1.574 1_545 S
C606 C622 1.368 . S
H607 C615 0.950 . S
H608 C613 0.950 . S
H609 C614 0.949 . S
H610 C616 0.950 . S
H611 C617 0.950 . S
H612 C618 0.949 . S
C613 H608 0.950 . S
C613 C615 1.327 . S
C613 C619 1.429 . S
C614 C606 1.574 1_565 S
C614 H609 0.949 . S
C614 C620 1.368 . S
C615 C599 1.349 . S
C615 H607 0.950 . S
C615 C613 1.327 . S
C616 C604 1.349 . S
C616 H610 0.950 . S
C616 C617 1.327 . S
C617 H611 0.950 . S
C617 C616 1.327 . S
C617 C621 1.429 . S
C618 C601 1.574 1_545 S
C618 H612 0.949 . S
C618 C622 1.368 . S
C619 C600 1.429 . S
C619 C613 1.429 . S
C619 C620 1.523 . S
C620 C601 1.368 . S
C620 C614 1.368 . S
C620 C619 1.523 . S
C621 C605 1.429 . S
C621 C617 1.429 . S
C621 C622 1.523 . S
C622 C606 1.368 . S
C622 C618 1.368 . S
C622 C621 1.523 . S
H623 C598 0.950 . S
H624 C600 0.950 . S
H625 C601 0.949 . S
H626 C603 0.950 . S
H627 C605 0.950 . S
C628 C629 1.349 . S
C628 C630 1.327 . S
C628 H653 0.950 . S
C629 C628 1.349 . S
C629 C645 1.349 . S
C630 C628 1.327 . S
C630 C649 1.429 . S
C630 H654 0.950 . S
C631 C648 1.574 . S
C631 C650 1.368 . S
C631 H655 0.949 . S
H632 C636 0.949 . S
C633 C634 1.349 . S
C633 C635 1.327 . S
C633 H656 0.950 . S
C634 C633 1.349 . S
C634 C646 1.349 . S
C635 C633 1.327 . S
C635 C651 1.429 . S
C635 H657 0.950 . S
C636 H632 0.949 . S
C636 C644 1.574 . S
C636 C652 1.368 . S
H637 C645 0.950 . S
H638 C643 0.950 . S
H639 C644 0.949 . S
H640 C646 0.950 . S
H641 C647 0.950 . S
H642 C648 0.949 . S
C643 H638 0.950 . S
C643 C645 1.327 . S
C643 C649 1.429 . S
C644 C636 1.574 . S
C644 H639 0.949 . S
C644 C650 1.368 . S
C645 C629 1.349 . S
C645 H637 0.950 . S
C645 C643 1.327 . S
C646 C634 1.349 . S
C646 H640 0.950 . S
C646 C647 1.327 . S
C647 H641 0.950 . S
C647 C646 1.327 . S
C647 C651 1.429 . S
C648 C631 1.574 . S
C648 H642 0.949 . S
C648 C652 1.368 . S
C649 C630 1.429 . S
C649 C643 1.429 . S
C649 C650 1.523 . S
C650 C631 1.368 . S
C650 C644 1.368 . S
C650 C649 1.523 . S
C651 C635 1.429 . S
C651 C647 1.429 . S
C651 C652 1.523 . S
C652 C636 1.368 . S
C652 C648 1.368 . S
C652 C651 1.523 . S
H653 C628 0.950 . S
H654 C630 0.950 . S
H655 C631 0.949 . S
H656 C633 0.950 . S
H657 C635 0.950 . S
C658 C659 1.349 . S
C658 C660 1.327 . S
C658 H683 0.950 . S
C659 C658 1.349 . S
C659 C675 1.349 . S
C660 C658 1.327 . S
C660 C679 1.429 . S
C660 H684 0.950 1_556 S
C661 C678 1.574 1_545 S
C661 C680 1.368 . S
C661 H685 0.949 . S
H662 C666 0.949 . S
C663 C664 1.349 . S
C663 C665 1.327 . S
C663 H686 0.950 . S
C664 C663 1.349 . S
C664 C676 1.349 . S
C665 C663 1.327 . S
C665 C681 1.429 . S
C665 H687 0.950 1_554 S
C666 H662 0.949 . S
C666 C674 1.574 1_565 S
C666 C682 1.368 . S
H667 C675 0.950 . S
H668 C673 0.950 . S
H669 C674 0.949 . S
H670 C676 0.950 . S
H671 C677 0.950 . S
H672 C678 0.949 . S
C673 H668 0.950 . S
C673 C675 1.327 . S
C673 C679 1.429 . S
C674 C666 1.574 1_545 S
C674 H669 0.949 . S
C674 C680 1.368 1_554 S
C675 C659 1.349 . S
C675 H667 0.950 . S
C675 C673 1.327 . S
C676 C664 1.349 . S
C676 H670 0.950 . S
C676 C677 1.327 . S
C677 H671 0.950 . S
C677 C676 1.327 . S
C677 C681 1.429 . S
C678 C661 1.574 1_565 S
C678 H672 0.949 . S
C678 C682 1.368 1_556 S
C679 C660 1.429 . S
C679 C673 1.429 . S
C679 C680 1.523 . S
C680 C661 1.368 . S
C680 C674 1.368 1_556 S
C680 C679 1.523 . S
C681 C665 1.429 . S
C681 C677 1.429 . S
C681 C682 1.523 . S
C682 C666 1.368 . S
C682 C678 1.368 1_554 S
C682 C681 1.523 . S
H683 C658 0.950 . S
H684 C660 0.950 1_554 S
H685 C661 0.949 . S
H686 C663 0.950 . S
H687 C665 0.950 1_556 S
C688 C689 1.349 . S
C688 C690 1.327 . S
C688 H713 0.950 . S
C689 C688 1.349 . S
C689 C705 1.349 . S
C690 C688 1.327 . S
C690 C709 1.429 . S
C690 H714 0.950 . S
C691 C708 1.574 . S
C691 C710 1.368 . S
C691 H715 0.949 . S
H692 C696 0.949 . S
C693 C694 1.349 . S
C693 C695 1.327 . S
C693 H716 0.950 . S
C694 C693 1.349 . S
C694 C706 1.349 . S
C695 C693 1.327 . S
C695 C711 1.429 . S
C695 H717 0.950 . S
C696 H692 0.949 . S
C696 C704 1.574 . S
C696 C712 1.368 . S
H697 C705 0.950 . S
H698 C703 0.950 . S
H699 C704 0.949 . S
H700 C706 0.950 . S
H701 C707 0.950 . S
H702 C708 0.949 . S
C703 H698 0.950 . S
C703 C705 1.327 . S
C703 C709 1.429 . S
C704 C696 1.574 . S
C704 H699 0.949 . S
C704 C710 1.368 . S
C705 C689 1.349 . S
C705 H697 0.950 . S
C705 C703 1.327 . S
C706 C694 1.349 . S
C706 H700 0.950 . S
C706 C707 1.327 . S
C707 H701 0.950 . S
C707 C706 1.327 . S
C707 C711 1.429 . S
C708 C691 1.574 . S
C708 H702 0.949 . S
C708 C712 1.368 . S
C709 C690 1.429 . S
C709 C703 1.429 . S
C709 C710 1.523 . S
C710 C691 1.368 . S
C710 C704 1.368 . S
C710 C709 1.523 . S
C711 C695 1.429 . S
C711 C707 1.429 . S
C711 C712 1.523 . S
C712 C696 1.368 . S
C712 C708 1.368 . S
C712 C711 1.523 . S
H713 C688 0.950 . S
H714 C690 0.950 . S
H715 C691 0.949 . S
H716 C693 0.950 . S
H717 C695 0.950 . S
C718 C719 1.349 . S
C718 C720 1.327 . S
C718 H743 0.950 . S
C719 C718 1.349 . S
C719 C735 1.349 . S
C720 C718 1.327 . S
C720 C739 1.429 . S
C720 H744 0.950 . S
C721 C738 1.574 . S
C721 C740 1.368 1_554 S
C721 H745 0.949 . S
H722 C726 0.949 . S
C723 C724 1.349 . S
C723 C725 1.327 . S
C723 H746 0.950 . S
C724 C723 1.349 . S
C724 C736 1.349 . S
C725 C723 1.327 . S
C725 C741 1.429 . S
C725 H747 0.950 . S
C726 H722 0.949 . S
C726 C734 1.574 . S
C726 C742 1.368 1_556 S
H727 C735 0.950 . S
H728 C733 0.950 . S
H729 C734 0.949 . S
H730 C736 0.950 . S
H731 C737 0.950 . S
H732 C738 0.949 . S
C733 H728 0.950 . S
C733 C735 1.327 . S
C733 C739 1.429 . S
C734 C726 1.574 . S
C734 H729 0.949 . S
C734 C740 1.368 . S
C735 C719 1.349 . S
C735 H727 0.950 . S
C735 C733 1.327 . S
C736 C724 1.349 . S
C736 H730 0.950 . S
C736 C737 1.327 . S
C737 H731 0.950 . S
C737 C736 1.327 . S
C737 C741 1.429 . S
C738 C721 1.574 . S
C738 H732 0.949 . S
C738 C742 1.368 . S
C739 C720 1.429 . S
C739 C733 1.429 . S
C739 C740 1.523 . S
C740 C721 1.368 1_556 S
C740 C734 1.368 . S
C740 C739 1.523 . S
C741 C725 1.429 . S
C741 C737 1.429 . S
C741 C742 1.523 . S
C742 C726 1.368 1_554 S
C742 C738 1.368 . S
C742 C741 1.523 . S
H743 C718 0.950 . S
H744 C720 0.950 . S
H745 C721 0.949 . S
H746 C723 0.950 . S
H747 C725 0.950 . S
C748 C749 1.349 . S
C748 C750 1.327 . S
C748 H773 0.950 . S
C749 C748 1.349 . S
C749 C765 1.349 . S
C750 C748 1.327 . S
C750 C769 1.429 . S
C750 H774 0.950 . S
C751 C768 1.574 . S
C751 C770 1.368 . S
C751 H775 0.949 . S
H752 C756 0.949 . S
C753 C754 1.349 . S
C753 C755 1.327 . S
C753 H776 0.950 . S
C754 C753 1.349 . S
C754 C766 1.349 . S
C755 C753 1.327 . S
C755 C771 1.429 . S
C755 H777 0.950 . S
C756 H752 0.949 . S
C756 C764 1.574 . S
C756 C772 1.368 . S
H757 C765 0.950 . S
H758 C763 0.950 . S
H759 C764 0.949 . S
H760 C766 0.950 . S
H761 C767 0.950 . S
H762 C768 0.949 . S
C763 H758 0.950 . S
C763 C765 1.327 . S
C763 C769 1.429 . S
C764 C756 1.574 . S
C764 H759 0.949 . S
C764 C770 1.368 . S
C765 C749 1.349 . S
C765 H757 0.950 . S
C765 C763 1.327 . S
C766 C754 1.349 . S
C766 H760 0.950 . S
C766 C767 1.327 . S
C767 H761 0.950 . S
C767 C766 1.327 . S
C767 C771 1.429 . S
C768 C751 1.574 . S
C768 H762 0.949 . S
C768 C772 1.368 . S
C769 C750 1.429 . S
C769 C763 1.429 . S
C769 C770 1.523 . S
C770 C751 1.368 . S
C770 C764 1.368 . S
C770 C769 1.523 . S
C771 C755 1.429 . S
C771 C767 1.429 . S
C771 C772 1.523 . S
C772 C756 1.368 . S
C772 C768 1.368 . S
C772 C771 1.523 . S
H773 C748 0.950 . S
H774 C750 0.950 . S
H775 C751 0.949 . S
H776 C753 0.950 . S
H777 C755 0.950 . S
C778 C779 1.349 . S
C778 C780 1.327 . S
C778 H803 0.950 . S
C779 C778 1.349 . S
C779 C795 1.349 . S
C780 C778 1.327 . S
C780 C799 1.429 . S
C780 H804 0.950 . S
C781 C798 1.574 . S
C781 C800 1.368 . S
C781 H805 0.949 . S
H782 C786 0.949 . S
C783 C784 1.349 . S
C783 C785 1.327 . S
C783 H806 0.950 . S
C784 C783 1.349 . S
C784 C796 1.349 . S
C785 C783 1.327 . S
C785 C801 1.429 . S
C785 H807 0.950 . S
C786 H782 0.949 . S
C786 C794 1.574 . S
C786 C802 1.368 . S
H787 C795 0.950 . S
H788 C793 0.950 . S
H789 C794 0.949 . S
H790 C796 0.950 . S
H791 C797 0.950 . S
H792 C798 0.949 . S
C793 H788 0.950 . S
C793 C795 1.327 . S
C793 C799 1.429 . S
C794 C786 1.574 . S
C794 H789 0.949 . S
C794 C800 1.368 . S
C795 C779 1.349 . S
C795 H787 0.950 . S
C795 C793 1.327 . S
C796 C784 1.349 . S
C796 H790 0.950 . S
C796 C797 1.327 . S
C797 H791 0.950 . S
C797 C796 1.327 . S
C797 C801 1.429 . S
C798 C781 1.574 . S
C798 H792 0.949 . S
C798 C802 1.368 . S
C799 C780 1.429 . S
C799 C793 1.429 . S
C799 C800 1.523 . S
C800 C781 1.368 . S
C800 C794 1.368 . S
C800 C799 1.523 . S
C801 C785 1.429 . S
C801 C797 1.429 . S
C801 C802 1.523 . S
C802 C786 1.368 . S
C802 C798 1.368 . S
C802 C801 1.523 . S
H803 C778 0.950 . S
H804 C780 0.950 . S
H805 C781 0.949 . S
H806 C783 0.950 . S
H807 C785 0.950 . S
C808 C809 1.349 . S
C808 C810 1.327 . S
C808 H833 0.950 . S
C809 C808 1.349 . S
C809 C825 1.349 . S
C810 C808 1.327 . S
C810 C829 1.429 . S
C810 H834 0.950 . S
C811 C828 1.574 . S
C811 C830 1.368 . S
C811 H835 0.949 . S
H812 C816 0.949 . S
C813 C814 1.349 . S
C813 C815 1.327 . S
C813 H836 0.950 . S
C814 C813 1.349 . S
C814 C826 1.349 . S
C815 C813 1.327 . S
C815 C831 1.429 . S
C815 H837 0.950 . S
C816 H812 0.949 . S
C816 C824 1.574 . S
C816 C832 1.368 . S
H817 C825 0.950 . S
H818 C823 0.950 . S
H819 C824 0.949 . S
H820 C826 0.950 . S
H821 C827 0.950 . S
H822 C828 0.949 . S
C823 H818 0.950 . S
C823 C825 1.327 . S
C823 C829 1.429 . S
C824 C816 1.574 . S
C824 H819 0.949 . S
C824 C830 1.368 . S
C825 C809 1.349 . S
C825 H817 0.950 . S
C825 C823 1.327 . S
C826 C814 1.349 . S
C826 H820 0.950 . S
C826 C827 1.327 . S
C827 H821 0.950 . S
C827 C826 1.327 . S
C827 C831 1.429 . S
C828 C811 1.574 . S
C828 H822 0.949 . S
C828 C832 1.368 . S
C829 C810 1.429 . S
C829 C823 1.429 . S
C829 C830 1.523 . S
C830 C811 1.368 . S
C830 C824 1.368 . S
C830 C829 1.523 . S
C831 C815 1.429 . S
C831 C827 1.429 . S
C831 C832 1.523 . S
C832 C816 1.368 . S
C832 C828 1.368 . S
C832 C831 1.523 . S
H833 C808 0.950 . S
H834 C810 0.950 . S
H835 C811 0.949 . S
H836 C813 0.950 . S
H837 C815 0.950 . S
C838 C839 1.349 . S
C838 C840 1.327 . S
C838 H863 0.950 . S
C839 C838 1.349 . S
C839 C855 1.349 . S
C840 C838 1.327 . S
C840 C859 1.429 . S
C840 H864 0.950 1_554 S
C841 C858 1.574 . S
C841 C860 1.368 . S
C841 H865 0.949 . S
H842 C846 0.949 . S
C843 C844 1.349 . S
C843 C845 1.327 . S
C843 H866 0.950 . S
C844 C843 1.349 . S
C844 C856 1.349 . S
C845 C843 1.327 . S
C845 C861 1.429 . S
C845 H867 0.950 1_556 S
C846 H842 0.949 . S
C846 C854 1.574 . S
C846 C862 1.368 . S
H847 C855 0.950 . S
H848 C853 0.950 . S
H849 C854 0.949 . S
H850 C856 0.950 . S
H851 C857 0.950 . S
H852 C858 0.949 . S
C853 H848 0.950 . S
C853 C855 1.327 . S
C853 C859 1.429 . S
C854 C846 1.574 . S
C854 H849 0.949 . S
C854 C860 1.368 1_556 S
C855 C839 1.349 . S
C855 H847 0.950 . S
C855 C853 1.327 . S
C856 C844 1.349 . S
C856 H850 0.950 . S
C856 C857 1.327 . S
C857 H851 0.950 . S
C857 C856 1.327 . S
C857 C861 1.429 . S
C858 C841 1.574 . S
C858 H852 0.949 . S
C858 C862 1.368 1_554 S
C859 C840 1.429 . S
C859 C853 1.429 . S
C859 C860 1.523 . S
C860 C841 1.368 . S
C860 C854 1.368 1_554 S
C860 C859 1.523 . S
C861 C845 1.429 . S
C861 C857 1.429 . S
C861 C862 1.523 . S
C862 C846 1.368 . S
C862 C858 1.368 1_556 S
C862 C861 1.523 . S
H863 C838 0.950 . S
H864 C840 0.950 1_556 S
H865 C841 0.949 . S
H866 C843 0.950 . S
H867 C845 0.950 1_554 S
C868 C869 1.349 . S
C868 C870 1.327 . S
C868 H893 0.950 . S
C869 C868 1.349 . S
C869 C885 1.349 . S
C870 C868 1.327 . S
C870 C889 1.429 . S
C870 H894 0.950 . S
C871 C888 1.574 . S
C871 C890 1.368 . S
C871 H895 0.949 . S
H872 C876 0.949 . S
C873 C874 1.349 . S
C873 C875 1.327 . S
C873 H896 0.950 . S
C874 C873 1.349 . S
C874 C886 1.349 . S
C875 C873 1.327 . S
C875 C891 1.429 . S
C875 H897 0.950 . S
C876 H872 0.949 . S
C876 C884 1.574 . S
C876 C892 1.368 . S
H877 C885 0.950 . S
H878 C883 0.950 . S
H879 C884 0.949 . S
H880 C886 0.950 . S
H881 C887 0.950 . S
H882 C888 0.949 . S
C883 H878 0.950 . S
C883 C885 1.327 . S
C883 C889 1.429 . S
C884 C876 1.574 . S
C884 H879 0.949 . S
C884 C890 1.368 . S
C885 C869 1.349 . S
C885 H877 0.950 . S
C885 C883 1.327 . S
C886 C874 1.349 . S
C886 H880 0.950 . S
C886 C887 1.327 . S
C887 H881 0.950 . S
C887 C886 1.327 . S
C887 C891 1.429 . S
C888 C871 1.574 . S
C888 H882 0.949 . S
C888 C892 1.368 . S
C889 C870 1.429 . S
C889 C883 1.429 . S
C889 C890 1.523 . S
C890 C871 1.368 . S
C890 C884 1.368 . S
C890 C889 1.523 . S
C891 C875 1.429 . S
C891 C887 1.429 . S
C891 C892 1.523 . S
C892 C876 1.368 . S
C892 C888 1.368 . S
C892 C891 1.523 . S
H893 C868 0.950 . S
H894 C870 0.950 . S
H895 C871 0.949 . S
H896 C873 0.950 . S
H897 C875 0.950 . S
C898 C899 1.349 . S
C898 C900 1.327 . S
C898 H923 0.950 . S
C899 C898 1.349 . S
C899 C915 1.349 . S
C900 C898 1.327 . S
C900 C919 1.429 . S
C900 H924 0.950 . S
C901 C918 1.574 . S
C901 C920 1.368 . S
C901 H925 0.949 . S
H902 C906 0.949 . S
C903 C904 1.349 . S
C903 C905 1.327 . S
C903 H926 0.950 . S
C904 C903 1.349 . S
C904 C916 1.349 . S
C905 C903 1.327 . S
C905 C921 1.429 . S
C905 H927 0.950 . S
C906 H902 0.949 . S
C906 C914 1.574 . S
C906 C922 1.368 . S
H907 C915 0.950 . S
H908 C913 0.950 . S
H909 C914 0.949 . S
H910 C916 0.950 . S
H911 C917 0.950 . S
H912 C918 0.949 . S
C913 H908 0.950 . S
C913 C915 1.327 . S
C913 C919 1.429 . S
C914 C906 1.574 . S
C914 H909 0.949 . S
C914 C920 1.368 . S
C915 C899 1.349 . S
C915 H907 0.950 . S
C915 C913 1.327 . S
C916 C904 1.349 . S
C916 H910 0.950 . S
C916 C917 1.327 . S
C917 H911 0.950 . S
C917 C916 1.327 . S
C917 C921 1.429 . S
C918 C901 1.574 . S
C918 H912 0.949 . S
C918 C922 1.368 . S
C919 C900 1.429 . S
C919 C913 1.429 . S
C919 C920 1.523 . S
C920 C901 1.368 . S
C920 C914 1.368 . S
C920 C919 1.523 . S
C921 C905 1.429 . S
C921 C917 1.429 . S
C921 C922 1.523 . S
C922 C906 1.368 . S
C922 C918 1.368 . S
C922 C921 1.523 . S
H923 C898 0.950 . S
H924 C900 0.950 . S
H925 C901 0.949 . S
H926 C903 0.950 . S
H927 C905 0.950 . S
C928 C929 1.349 . S
C928 C930 1.327 1_554 S
C928 H953 0.950 . S
C929 C928 1.349 . S
C929 C945 1.349 1_554 S
C930 C928 1.327 1_556 S
C930 C949 1.429 . S
C930 H954 0.950 . S
C931 C948 1.574 . S
C931 C950 1.368 . S
C931 H955 0.949 . S
H932 C936 0.949 . S
C933 C934 1.349 . S
C933 C935 1.327 . S
C933 H956 0.950 . S
C934 C933 1.349 . S
C934 C946 1.349 . S
C935 C933 1.327 . S
C935 C951 1.429 . S
C935 H957 0.950 . S
C936 H932 0.949 . S
C936 C944 1.574 . S
C936 C952 1.368 . S
H937 C945 0.950 . S
H938 C943 0.950 . S
H939 C944 0.949 . S
H940 C946 0.950 . S
H941 C947 0.950 . S
H942 C948 0.949 . S
C943 H938 0.950 . S
C943 C945 1.327 . S
C943 C949 1.429 . S
C944 C936 1.574 . S
C944 H939 0.949 . S
C944 C950 1.368 . S
C945 C929 1.349 1_556 S
C945 H937 0.950 . S
C945 C943 1.327 . S
C946 C934 1.349 . S
C946 H940 0.950 . S
C946 C947 1.327 . S
C947 H941 0.950 . S
C947 C946 1.327 . S
C947 C951 1.429 . S
C948 C931 1.574 . S
C948 H942 0.949 . S
C948 C952 1.368 . S
C949 C930 1.429 . S
C949 C943 1.429 . S
C949 C950 1.523 . S
C950 C931 1.368 . S
C950 C944 1.368 . S
C950 C949 1.523 . S
C951 C935 1.429 . S
C951 C947 1.429 . S
C951 C952 1.523 . S
C952 C936 1.368 . S
C952 C948 1.368 . S
C952 C951 1.523 . S
H953 C928 0.950 . S
H954 C930 0.950 . S
H955 C931 0.949 . S
H956 C933 0.950 . S
H957 C935 0.950 . S
C958 C959 1.349 . S
C958 C960 1.327 1_556 S
C958 H983 0.950 . S
C959 C958 1.349 . S
C959 C975 1.349 1_556 S
C960 C958 1.327 1_554 S
C960 C979 1.429 . S
C960 H984 0.950 . S
C961 C978 1.574 . S
C961 C980 1.368 . S
C961 H985 0.949 . S
H962 C966 0.949 . S
C963 C964 1.349 . S
C963 C965 1.327 . S
C963 H986 0.950 . S
C964 C963 1.349 . S
C964 C976 1.349 . S
C965 C963 1.327 . S
C965 C981 1.429 . S
C965 H987 0.950 . S
C966 H962 0.949 . S
C966 C974 1.574 . S
C966 C982 1.368 . S
H967 C975 0.950 . S
H968 C973 0.950 . S
H969 C974 0.949 . S
H970 C976 0.950 . S
H971 C977 0.950 . S
H972 C978 0.949 . S
C973 H968 0.950 . S
C973 C975 1.327 . S
C973 C979 1.429 . S
C974 C966 1.574 . S
C974 H969 0.949 . S
C974 C980 1.368 . S
C975 C959 1.349 1_554 S
C975 H967 0.950 . S
C975 C973 1.327 . S
C976 C964 1.349 . S
C976 H970 0.950 . S
C976 C977 1.327 . S
C977 H971 0.950 . S
C977 C976 1.327 . S
C977 C981 1.429 . S
C978 C961 1.574 . S
C978 H972 0.949 . S
C978 C982 1.368 . S
C979 C960 1.429 . S
C979 C973 1.429 . S
C979 C980 1.523 . S
C980 C961 1.368 . S
C980 C974 1.368 . S
C980 C979 1.523 . S
C981 C965 1.429 . S
C981 C977 1.429 . S
C981 C982 1.523 . S
C982 C966 1.368 . S
C982 C978 1.368 . S
C982 C981 1.523 . S
H983 C958 0.950 . S
H984 C960 0.950 . S
H985 C961 0.949 . S
H986 C963 0.950 . S
H987 C965 0.950 . S
C988 C989 1.349 . S
C988 C990 1.327 . S
C988 H1013 0.950 . S
C989 C988 1.349 . S
C989 C1005 1.349 . S
C990 C988 1.327 . S
C990 C1009 1.429 . S
C990 H1014 0.950 . S
C991 C1008 1.574 . S
C991 C1010 1.368 . S
C991 H1015 0.949 . S
H992 C996 0.949 . S
C993 C994 1.349 . S
C993 C995 1.327 . S
C993 H1016 0.950 . S
C994 C993 1.349 . S
C994 C1006 1.349 . S
C995 C993 1.327 . S
C995 C1011 1.429 . S
C995 H1017 0.950 . S
C996 H992 0.949 . S
C996 C1004 1.574 . S
C996 C1012 1.368 . S
H997 C1005 0.950 . S
H998 C1003 0.950 . S
H999 C1004 0.949 . S
H1000 C1006 0.950 . S
H1001 C1007 0.950 . S
H1002 C1008 0.949 . S
C1003 H998 0.950 . S
C1003 C1005 1.327 . S
C1003 C1009 1.429 . S
C1004 C996 1.574 . S
C1004 H999 0.949 . S
C1004 C1010 1.368 . S
C1005 C989 1.349 . S
C1005 H997 0.950 . S
C1005 C1003 1.327 . S
C1006 C994 1.349 . S
C1006 H1000 0.950 . S
C1006 C1007 1.327 . S
C1007 H1001 0.950 . S
C1007 C1006 1.327 . S
C1007 C1011 1.429 . S
C1008 C991 1.574 . S
C1008 H1002 0.949 . S
C1008 C1012 1.368 . S
C1009 C990 1.429 . S
C1009 C1003 1.429 . S
C1009 C1010 1.523 . S
C1010 C991 1.368 . S
C1010 C1004 1.368 . S
C1010 C1009 1.523 . S
C1011 C995 1.429 . S
C1011 C1007 1.429 . S
C1011 C1012 1.523 . S
C1012 C996 1.368 . S
C1012 C1008 1.368 . S
C1012 C1011 1.523 . S
H1013 C988 0.950 . S
H1014 C990 0.950 . S
H1015 C991 0.949 . S
H1016 C993 0.950 . S
H1017 C995 0.950 . S
C1018 C1019 1.349 . S
C1018 C1020 1.327 . S
C1018 H1043 0.950 . S
C1019 C1018 1.349 . S
C1019 C1035 1.349 . S
C1020 C1018 1.327 . S
C1020 C1039 1.429 . S
C1020 H1044 0.950 . S
C1021 C1038 1.574 . S
C1021 C1040 1.368 . S
C1021 H1045 0.949 . S
H1022 C1026 0.949 . S
C1023 C1024 1.349 . S
C1023 C1025 1.327 . S
C1023 H1046 0.950 . S
C1024 C1023 1.349 . S
C1024 C1036 1.349 . S
C1025 C1023 1.327 . S
C1025 C1041 1.429 . S
C1025 H1047 0.950 . S
C1026 H1022 0.949 . S
C1026 C1034 1.574 . S
C1026 C1042 1.368 . S
H1027 C1035 0.950 . S
H1028 C1033 0.950 . S
H1029 C1034 0.949 . S
H1030 C1036 0.950 . S
H1031 C1037 0.950 . S
H1032 C1038 0.949 . S
C1033 H1028 0.950 . S
C1033 C1035 1.327 . S
C1033 C1039 1.429 . S
C1034 C1026 1.574 . S
C1034 H1029 0.949 . S
C1034 C1040 1.368 . S
C1035 C1019 1.349 . S
C1035 H1027 0.950 . S
C1035 C1033 1.327 . S
C1036 C1024 1.349 . S
C1036 H1030 0.950 . S
C1036 C1037 1.327 . S
C1037 H1031 0.950 . S
C1037 C1036 1.327 . S
C1037 C1041 1.429 . S
C1038 C1021 1.574 . S
C1038 H1032 0.949 . S
C1038 C1042 1.368 . S
C1039 C1020 1.429 . S
C1039 C1033 1.429 . S
C1039 C1040 1.523 . S
C1040 C1021 1.368 . S
C1040 C1034 1.368 . S
C1040 C1039 1.523 . S
C1041 C1025 1.429 . S
C1041 C1037 1.429 . S
C1041 C1042 1.523 . S
C1042 C1026 1.368 . S
C1042 C1038 1.368 . S
C1042 C1041 1.523 . S
H1043 C1018 0.950 . S
H1044 C1020 0.950 . S
H1045 C1021 0.949 . S
H1046 C1023 0.950 . S
H1047 C1025 0.950 . S
C1048 C1049 1.349 . S
C1048 C1050 1.327 1_556 S
C1048 H1073 0.950 . S
C1049 C1048 1.349 . S
C1049 C1065 1.349 1_556 S
C1050 C1048 1.327 1_554 S
C1050 C1069 1.429 . S
C1050 H1074 0.950 . S
C1051 C1068 1.574 . S
C1051 C1070 1.368 . S
C1051 H1075 0.949 . S
H1052 C1056 0.949 . S
C1053 C1054 1.349 . S
C1053 C1055 1.327 . S
C1053 H1076 0.950 . S
C1054 C1053 1.349 . S
C1054 C1066 1.349 . S
C1055 C1053 1.327 . S
C1055 C1071 1.429 . S
C1055 H1077 0.950 . S
C1056 H1052 0.949 . S
C1056 C1064 1.574 . S
C1056 C1072 1.368 . S
H1057 C1065 0.950 . S
H1058 C1063 0.950 . S
H1059 C1064 0.949 . S
H1060 C1066 0.950 . S
H1061 C1067 0.950 . S
H1062 C1068 0.949 . S
C1063 H1058 0.950 . S
C1063 C1065 1.327 . S
C1063 C1069 1.429 . S
C1064 C1056 1.574 . S
C1064 H1059 0.949 . S
C1064 C1070 1.368 . S
C1065 C1049 1.349 1_554 S
C1065 H1057 0.950 . S
C1065 C1063 1.327 . S
C1066 C1054 1.349 . S
C1066 H1060 0.950 . S
C1066 C1067 1.327 . S
C1067 H1061 0.950 . S
C1067 C1066 1.327 . S
C1067 C1071 1.429 . S
C1068 C1051 1.574 . S
C1068 H1062 0.949 . S
C1068 C1072 1.368 . S
C1069 C1050 1.429 . S
C1069 C1063 1.429 . S
C1069 C1070 1.523 . S
C1070 C1051 1.368 . S
C1070 C1064 1.368 . S
C1070 C1069 1.523 . S
C1071 C1055 1.429 . S
C1071 C1067 1.429 . S
C1071 C1072 1.523 . S
C1072 C1056 1.368 . S
C1072 C1068 1.368 . S
C1072 C1071 1.523 . S
H1073 C1048 0.950 . S
H1074 C1050 0.950 . S
H1075 C1051 0.949 . S
H1076 C1053 0.950 . S
H1077 C1055 0.950 . S
C1078 C1079 1.349 1_556 S
C1078 C1080 1.327 . S
C1078 H1103 0.950 1_556 S
C1079 C1078 1.349 1_554 S
C1079 C1095 1.351 . S
C1080 C1078 1.327 . S
C1080 C1099 1.429 . S
C1080 H1104 0.950 . S
C1081 C1098 1.574 . S
C1081 C1100 1.368 . S
C1081 H1105 0.949 . S
H1082 C1086 0.949 . S
C1083 C1084 1.349 . S
C1083 C1085 1.327 . S
C1083 H1106 0.950 . S
C1084 C1083 1.349 . S
C1084 C1096 1.349 . S
C1085 C1083 1.327 . S
C1085 C1101 1.429 . S
C1085 H1107 0.950 . S
C1086 H1082 0.949 . S
C1086 C1094 1.574 . S
C1086 C1102 1.368 . S
H1087 C1095 0.954 . S
H1088 C1093 0.950 . S
H1089 C1094 0.949 . S
H1090 C1096 0.950 . S
H1091 C1097 0.950 . S
H1092 C1098 0.949 . S
C1093 H1088 0.950 . S
C1093 C1095 1.321 1_556 S
C1093 C1099 1.429 . S
C1094 C1086 1.574 . S
C1094 H1089 0.949 . S
C1094 C1100 1.368 . S
C1095 C1079 1.351 . S
C1095 H1087 0.954 . S
C1095 C1093 1.321 1_554 S
C1096 C1084 1.349 . S
C1096 H1090 0.950 . S
C1096 C1097 1.327 . S
C1097 H1091 0.950 . S
C1097 C1096 1.327 . S
C1097 C1101 1.429 . S
C1098 C1081 1.574 . S
C1098 H1092 0.949 . S
C1098 C1102 1.368 . S
C1099 C1080 1.429 . S
C1099 C1093 1.429 . S
C1099 C1100 1.523 . S
C1100 C1081 1.368 . S
C1100 C1094 1.368 . S
C1100 C1099 1.523 . S
C1101 C1085 1.429 . S
C1101 C1097 1.429 . S
C1101 C1102 1.523 . S
C1102 C1086 1.368 . S
C1102 C1098 1.368 . S
C1102 C1101 1.523 . S
H1103 C1078 0.950 1_554 S
H1104 C1080 0.950 . S
H1105 C1081 0.949 . S
H1106 C1083 0.950 . S
H1107 C1085 0.950 . S
C1108 C1109 1.349 . S
C1108 C1110 1.327 . S
C1108 H1133 0.950 . S
C1109 C1108 1.349 . S
C1109 C1125 1.349 . S
C1110 C1108 1.327 . S
C1110 C1129 1.429 . S
C1110 H1134 0.950 . S
C1111 C1128 1.574 . S
C1111 C1130 1.368 . S
C1111 H1135 0.949 . S
H1112 C1116 0.949 . S
C1113 C1114 1.349 . S
C1113 C1115 1.327 . S
C1113 H1136 0.950 . S
C1114 C1113 1.349 . S
C1114 C1126 1.349 . S
C1115 C1113 1.327 . S
C1115 C1131 1.429 . S
C1115 H1137 0.950 . S
C1116 H1112 0.949 . S
C1116 C1124 1.574 . S
C1116 C1132 1.368 . S
H1117 C1125 0.950 . S
H1118 C1123 0.950 . S
H1119 C1124 0.949 . S
H1120 C1126 0.950 . S
H1121 C1127 0.950 . S
H1122 C1128 0.949 . S
C1123 H1118 0.950 . S
C1123 C1125 1.327 . S
C1123 C1129 1.429 . S
C1124 C1116 1.574 . S
C1124 H1119 0.949 . S
C1124 C1130 1.368 . S
C1125 C1109 1.349 . S
C1125 H1117 0.950 . S
C1125 C1123 1.327 . S
C1126 C1114 1.349 . S
C1126 H1120 0.950 . S
C1126 C1127 1.327 . S
C1127 H1121 0.950 . S
C1127 C1126 1.327 . S
C1127 C1131 1.429 . S
C1128 C1111 1.574 . S
C1128 H1122 0.949 . S
C1128 C1132 1.368 . S
C1129 C1110 1.429 . S
C1129 C1123 1.429 . S
C1129 C1130 1.523 . S
C1130 C1111 1.368 . S
C1130 C1124 1.368 . S
C1130 C1129 1.523 . S
C1131 C1115 1.429 . S
C1131 C1127 1.429 . S
C1131 C1132 1.523 . S
C1132 C1116 1.368 . S
C1132 C1128 1.368 . S
C1132 C1131 1.523 . S
H1133 C1108 0.950 . S
H1134 C1110 0.950 . S
H1135 C1111 0.949 . S
H1136 C1113 0.950 . S
H1137 C1115 0.950 . S
C1138 C1139 1.349 . S
C1138 C1140 1.327 . S
C1138 H1163 0.950 . S
C1139 C1138 1.349 . S
C1139 C1155 1.349 . S
C1140 C1138 1.327 . S
C1140 C1159 1.429 . S
C1140 H1164 0.950 . S
C1141 C1158 1.574 . S
C1141 C1160 1.368 . S
C1141 H1165 0.949 . S
H1142 C1146 0.949 . S
C1143 C1144 1.349 . S
C1143 C1145 1.327 . S
C1143 H1166 0.950 . S
C1144 C1143 1.349 . S
C1144 C1156 1.349 . S
C1145 C1143 1.327 . S
C1145 C1161 1.429 . S
C1145 H1167 0.950 . S
C1146 H1142 0.949 . S
C1146 C1154 1.574 . S
C1146 C1162 1.368 . S
H1147 C1155 0.950 . S
H1148 C1153 0.950 . S
H1149 C1154 0.949 . S
H1150 C1156 0.950 . S
H1151 C1157 0.950 . S
H1152 C1158 0.949 . S
C1153 H1148 0.950 . S
C1153 C1155 1.327 . S
C1153 C1159 1.429 . S
C1154 C1146 1.574 . S
C1154 H1149 0.949 . S
C1154 C1160 1.368 . S
C1155 C1139 1.349 . S
C1155 H1147 0.950 . S
C1155 C1153 1.327 . S
C1156 C1144 1.349 . S
C1156 H1150 0.950 . S
C1156 C1157 1.327 . S
C1157 H1151 0.950 . S
C1157 C1156 1.327 . S
C1157 C1161 1.429 . S
C1158 C1141 1.574 . S
C1158 H1152 0.949 . S
C1158 C1162 1.368 . S
C1159 C1140 1.429 . S
C1159 C1153 1.429 . S
C1159 C1160 1.523 . S
C1160 C1141 1.368 . S
C1160 C1154 1.368 . S
C1160 C1159 1.523 . S
C1161 C1145 1.429 . S
C1161 C1157 1.429 . S
C1161 C1162 1.523 . S
C1162 C1146 1.368 . S
C1162 C1158 1.368 . S
C1162 C1161 1.523 . S
H1163 C1138 0.950 . S
H1164 C1140 0.950 . S
H1165 C1141 0.949 . S
H1166 C1143 0.950 . S
H1167 C1145 0.950 . S
C1168 C1169 1.349 . S
C1168 C1170 1.327 . S
C1168 H1193 0.950 . S
C1169 C1168 1.349 . S
C1169 C1185 1.349 . S
C1170 C1168 1.327 . S
C1170 C1189 1.429 . S
C1170 H1194 0.950 . S
C1171 C1188 1.574 . S
C1171 C1190 1.368 . S
C1171 H1195 0.949 . S
H1172 C1176 0.949 . S
C1173 C1174 1.349 . S
C1173 C1175 1.327 . S
C1173 H1196 0.950 . S
C1174 C1173 1.349 . S
C1174 C1186 1.349 . S
C1175 C1173 1.327 . S
C1175 C1191 1.429 . S
C1175 H1197 0.950 . S
C1176 H1172 0.949 . S
C1176 C1184 1.574 . S
C1176 C1192 1.368 . S
H1177 C1185 0.950 . S
H1178 C1183 0.950 . S
H1179 C1184 0.949 . S
H1180 C1186 0.950 . S
H1181 C1187 0.950 . S
H1182 C1188 0.949 . S
C1183 H1178 0.950 . S
C1183 C1185 1.327 . S
C1183 C1189 1.429 . S
C1184 C1176 1.574 . S
C1184 H1179 0.949 . S
C1184 C1190 1.368 . S
C1185 C1169 1.349 . S
C1185 H1177 0.950 . S
C1185 C1183 1.327 . S
C1186 C1174 1.349 . S
C1186 H1180 0.950 . S
C1186 C1187 1.327 . S
C1187 H1181 0.950 . S
C1187 C1186 1.327 . S
C1187 C1191 1.429 . S
C1188 C1171 1.574 . S
C1188 H1182 0.949 . S
C1188 C1192 1.368 . S
C1189 C1170 1.429 . S
C1189 C1183 1.429 . S
C1189 C1190 1.523 . S
C1190 C1171 1.368 . S
C1190 C1184 1.368 . S
C1190 C1189 1.523 . S
C1191 C1175 1.429 . S
C1191 C1187 1.429 . S
C1191 C1192 1.523 . S
C1192 C1176 1.368 . S
C1192 C1188 1.368 . S
C1192 C1191 1.523 . S
H1193 C1168 0.950 . S
H1194 C1170 0.950 . S
H1195 C1171 0.949 . S
H1196 C1173 0.950 . S
H1197 C1175 0.950 . S
C1198 C1199 1.349 . S
C1198 C1200 1.327 . S
C1198 H1223 0.950 . S
C1199 C1198 1.349 . S
C1199 C1215 1.349 . S
C1200 C1198 1.327 . S
C1200 C1219 1.429 . S
C1200 H1224 0.950 . S
C1201 C1218 1.574 . S
C1201 C1220 1.368 . S
C1201 H1225 0.949 . S
H1202 C1206 0.949 . S
C1203 C1204 1.349 . S
C1203 C1205 1.327 . S
C1203 H1226 0.950 . S
C1204 C1203 1.349 . S
C1204 C1216 1.349 . S
C1205 C1203 1.327 . S
C1205 C1221 1.429 . S
C1205 H1227 0.950 . S
C1206 H1202 0.949 . S
C1206 C1214 1.574 . S
C1206 C1222 1.368 . S
H1207 C1215 0.950 . S
H1208 C1213 0.950 . S
H1209 C1214 0.949 . S
H1210 C1216 0.950 . S
H1211 C1217 0.950 . S
H1212 C1218 0.949 . S
C1213 H1208 0.950 . S
C1213 C1215 1.327 . S
C1213 C1219 1.429 . S
C1214 C1206 1.574 . S
C1214 H1209 0.949 . S
C1214 C1220 1.368 . S
C1215 C1199 1.349 . S
C1215 H1207 0.950 . S
C1215 C1213 1.327 . S
C1216 C1204 1.349 . S
C1216 H1210 0.950 . S
C1216 C1217 1.327 . S
C1217 H1211 0.950 . S
C1217 C1216 1.327 . S
C1217 C1221 1.429 . S
C1218 C1201 1.574 . S
C1218 H1212 0.949 . S
C1218 C1222 1.368 . S
C1219 C1200 1.429 . S
C1219 C1213 1.429 . S
C1219 C1220 1.523 . S
C1220 C1201 1.368 . S
C1220 C1214 1.368 . S
C1220 C1219 1.523 . S
C1221 C1205 1.429 . S
C1221 C1217 1.429 . S
C1221 C1222 1.523 . S
C1222 C1206 1.368 . S
C1222 C1218 1.368 . S
C1222 C1221 1.523 . S
H1223 C1198 0.950 . S
H1224 C1200 0.950 . S
H1225 C1201 0.949 . S
H1226 C1203 0.950 . S
H1227 C1205 0.950 . S
C1228 C1229 1.349 . S
C1228 C1230 1.327 . S
C1228 H1253 0.950 . S
C1229 C1228 1.349 . S
C1229 C1245 1.349 . S
C1230 C1228 1.327 . S
C1230 C1249 1.429 . S
C1230 H1254 0.950 . S
C1231 C1248 1.574 . S
C1231 C1250 1.368 . S
C1231 H1255 0.949 . S
H1232 C1236 0.949 . S
C1233 C1234 1.349 1_556 S
C1233 C1235 1.327 . S
C1233 H1256 0.950 . S
C1234 C1233 1.349 1_554 S
C1234 C1246 1.349 . S
C1235 C1233 1.327 . S
C1235 C1251 1.429 . S
C1235 H1257 0.950 . S
C1236 H1232 0.949 . S
C1236 C1244 1.574 . S
C1236 C1252 1.368 . S
H1237 C1245 0.950 . S
H1238 C1243 0.950 . S
H1239 C1244 0.949 . S
H1240 C1246 0.950 . S
H1241 C1247 0.950 . S
H1242 C1248 0.949 . S
C1243 H1238 0.950 . S
C1243 C1245 1.327 . S
C1243 C1249 1.429 . S
C1244 C1236 1.574 . S
C1244 H1239 0.949 . S
C1244 C1250 1.368 . S
C1245 C1229 1.349 . S
C1245 H1237 0.950 . S
C1245 C1243 1.327 . S
C1246 C1234 1.349 . S
C1246 H1240 0.950 . S
C1246 C1247 1.327 1_554 S
C1247 H1241 0.950 . S
C1247 C1246 1.327 1_556 S
C1247 C1251 1.429 . S
C1248 C1231 1.574 . S
C1248 H1242 0.949 . S
C1248 C1252 1.368 . S
C1249 C1230 1.429 . S
C1249 C1243 1.429 . S
C1249 C1250 1.523 . S
C1250 C1231 1.368 . S
C1250 C1244 1.368 . S
C1250 C1249 1.523 . S
C1251 C1235 1.429 . S
C1251 C1247 1.429 . S
C1251 C1252 1.523 . S
C1252 C1236 1.368 . S
C1252 C1248 1.368 . S
C1252 C1251 1.523 . S
H1253 C1228 0.950 . S
H1254 C1230 0.950 . S
H1255 C1231 0.949 . S
H1256 C1233 0.950 . S
H1257 C1235 0.950 . S
C1258 C1259 1.349 . S
C1258 C1260 1.327 . S
C1258 H1283 0.950 . S
C1259 C1258 1.349 . S
C1259 C1275 1.349 . S
C1260 C1258 1.327 . S
C1260 C1279 1.429 . S
C1260 H1284 0.950 . S
C1261 C1278 1.574 . S
C1261 C1280 1.368 . S
C1261 H1285 0.949 . S
H1262 C1266 0.949 . S
C1263 C1264 1.349 . S
C1263 C1265 1.327 1_556 S
C1263 H1286 0.950 . S
C1264 C1263 1.349 . S
C1264 C1276 1.349 1_556 S
C1265 C1263 1.327 1_554 S
C1265 C1281 1.429 . S
C1265 H1287 0.950 . S
C1266 H1262 0.949 . S
C1266 C1274 1.574 . S
C1266 C1282 1.368 . S
H1267 C1275 0.950 . S
H1268 C1273 0.950 . S
H1269 C1274 0.949 . S
H1270 C1276 0.950 1_556 S
H1271 C1277 0.950 . S
H1272 C1278 0.949 . S
C1273 H1268 0.950 . S
C1273 C1275 1.327 . S
C1273 C1279 1.429 . S
C1274 C1266 1.574 . S
C1274 H1269 0.949 . S
C1274 C1280 1.368 . S
C1275 C1259 1.349 . S
C1275 H1267 0.950 . S
C1275 C1273 1.327 . S
C1276 C1264 1.349 1_554 S
C1276 H1270 0.950 1_554 S
C1276 C1277 1.327 . S
C1277 H1271 0.950 . S
C1277 C1276 1.327 . S
C1277 C1281 1.429 . S
C1278 C1261 1.574 . S
C1278 H1272 0.949 . S
C1278 C1282 1.368 . S
C1279 C1260 1.429 . S
C1279 C1273 1.429 . S
C1279 C1280 1.523 . S
C1280 C1261 1.368 . S
C1280 C1274 1.368 . S
C1280 C1279 1.523 . S
C1281 C1265 1.429 . S
C1281 C1277 1.429 . S
C1281 C1282 1.523 . S
C1282 C1266 1.368 . S
C1282 C1278 1.368 . S
C1282 C1281 1.523 . S
H1283 C1258 0.950 . S
H1284 C1260 0.950 . S
H1285 C1261 0.949 . S
H1286 C1263 0.950 . S
H1287 C1265 0.950 . S
C1288 C1289 1.349 . S
C1288 C1290 1.327 . S
C1288 H1313 0.950 . S
C1289 C1288 1.349 . S
C1289 C1305 1.349 . S
C1290 C1288 1.327 . S
C1290 C1309 1.429 . S
C1290 H1314 0.950 . S
C1291 C1308 1.574 . S
C1291 C1310 1.368 . S
C1291 H1315 0.949 . S
H1292 C1296 0.949 . S
C1293 C1294 1.349 . S
C1293 C1295 1.327 . S
C1293 H1316 0.950 . S
C1294 C1293 1.349 . S
C1294 C1306 1.349 . S
C1295 C1293 1.327 . S
C1295 C1311 1.429 . S
C1295 H1317 0.950 . S
C1296 H1292 0.949 . S
C1296 C1304 1.574 . S
C1296 C1312 1.368 . S
H1297 C1305 0.950 . S
H1298 C1303 0.950 . S
H1299 C1304 0.949 . S
H1300 C1306 0.950 . S
H1301 C1307 0.950 . S
H1302 C1308 0.949 . S
C1303 H1298 0.950 . S
C1303 C1305 1.327 . S
C1303 C1309 1.429 . S
C1304 C1296 1.574 . S
C1304 H1299 0.949 . S
C1304 C1310 1.368 . S
C1305 C1289 1.349 . S
C1305 H1297 0.950 . S
C1305 C1303 1.327 . S
C1306 C1294 1.349 . S
C1306 H1300 0.950 . S
C1306 C1307 1.327 . S
C1307 H1301 0.950 . S
C1307 C1306 1.327 . S
C1307 C1311 1.429 . S
C1308 C1291 1.574 . S
C1308 H1302 0.949 . S
C1308 C1312 1.368 . S
C1309 C1290 1.429 . S
C1309 C1303 1.429 . S
C1309 C1310 1.523 . S
C1310 C1291 1.368 . S
C1310 C1304 1.368 . S
C1310 C1309 1.523 . S
C1311 C1295 1.429 . S
C1311 C1307 1.429 . S
C1311 C1312 1.523 . S
C1312 C1296 1.368 . S
C1312 C1308 1.368 . S
C1312 C1311 1.523 . S
H1313 C1288 0.950 . S
H1314 C1290 0.950 . S
H1315 C1291 0.949 . S
H1316 C1293 0.950 . S
H1317 C1295 0.950 . S
C1318 C1319 1.349 . S
C1318 C1320 1.327 . S
C1318 H1343 0.950 . S
C1319 C1318 1.349 . S
C1319 C1335 1.349 . S
C1320 C1318 1.327 . S
C1320 C1339 1.429 . S
C1320 H1344 0.950 . S
C1321 C1338 1.574 . S
C1321 C1340 1.368 . S
C1321 H1345 0.949 . S
H1322 C1326 0.949 . S
C1323 C1324 1.349 . S
C1323 C1325 1.327 . S
C1323 H1346 0.950 . S
C1324 C1323 1.349 . S
C1324 C1336 1.349 . S
C1325 C1323 1.327 . S
C1325 C1341 1.429 . S
C1325 H1347 0.950 . S
C1326 H1322 0.949 . S
C1326 C1334 1.574 . S
C1326 C1342 1.368 . S
H1327 C1335 0.950 . S
H1328 C1333 0.950 . S
H1329 C1334 0.949 . S
H1330 C1336 0.950 . S
H1331 C1337 0.950 . S
H1332 C1338 0.949 . S
C1333 H1328 0.950 . S
C1333 C1335 1.327 . S
C1333 C1339 1.429 . S
C1334 C1326 1.574 . S
C1334 H1329 0.949 . S
C1334 C1340 1.368 . S
C1335 C1319 1.349 . S
C1335 H1327 0.950 . S
C1335 C1333 1.327 . S
C1336 C1324 1.349 . S
C1336 H1330 0.950 . S
C1336 C1337 1.327 . S
C1337 H1331 0.950 . S
C1337 C1336 1.327 . S
C1337 C1341 1.429 . S
C1338 C1321 1.574 . S
C1338 H1332 0.949 . S
C1338 C1342 1.368 . S
C1339 C1320 1.429 . S
C1339 C1333 1.429 . S
C1339 C1340 1.523 . S
C1340 C1321 1.368 . S
C1340 C1334 1.368 . S
C1340 C1339 1.523 . S
C1341 C1325 1.429 . S
C1341 C1337 1.429 . S
C1341 C1342 1.523 . S
C1342 C1326 1.368 . S
C1342 C1338 1.368 . S
C1342 C1341 1.523 . S
H1343 C1318 0.950 . S
H1344 C1320 0.950 . S
H1345 C1321 0.949 . S
H1346 C1323 0.950 . S
H1347 C1325 0.950 . S
C1348 C1349 1.349 1_554 S
C1348 C1350 1.327 . S
C1348 H1373 0.950 1_554 S
C1349 C1348 1.349 1_556 S
C1349 C1365 1.346 1_556 S
C1350 C1348 1.327 . S
C1350 C1369 1.429 . S
C1350 H1374 0.950 . S
C1351 C1368 1.574 . S
C1351 C1370 1.368 . S
C1351 H1375 0.949 . S
H1352 C1356 0.949 . S
C1353 C1354 1.349 . S
C1353 C1355 1.327 . S
C1353 H1376 0.950 . S
C1354 C1353 1.349 . S
C1354 C1366 1.349 . S
C1355 C1353 1.327 . S
C1355 C1371 1.429 . S
C1355 H1377 0.950 . S
C1356 H1352 0.949 . S
C1356 C1364 1.574 . S
C1356 C1372 1.368 . S
H1357 C1365 0.946 1_556 S
H1358 C1363 0.950 . S
H1359 C1364 0.949 . S
H1360 C1366 0.950 . S
H1361 C1367 0.950 . S
H1362 C1368 0.949 . S
C1363 H1358 0.950 . S
C1363 C1365 1.334 . S
C1363 C1369 1.429 . S
C1364 C1356 1.574 . S
C1364 H1359 0.949 . S
C1364 C1370 1.368 . S
C1365 C1349 1.346 1_554 S
C1365 H1357 0.946 1_554 S
C1365 C1363 1.334 . S
C1366 C1354 1.349 . S
C1366 H1360 0.950 . S
C1366 C1367 1.327 . S
C1367 H1361 0.950 . S
C1367 C1366 1.327 . S
C1367 C1371 1.429 . S
C1368 C1351 1.574 . S
C1368 H1362 0.949 . S
C1368 C1372 1.368 . S
C1369 C1350 1.429 . S
C1369 C1363 1.429 . S
C1369 C1370 1.523 . S
C1370 C1351 1.368 . S
C1370 C1364 1.368 . S
C1370 C1369 1.523 . S
C1371 C1355 1.429 . S
C1371 C1367 1.429 . S
C1371 C1372 1.523 . S
C1372 C1356 1.368 . S
C1372 C1368 1.368 . S
C1372 C1371 1.523 . S
H1373 C1348 0.950 1_556 S
H1374 C1350 0.950 . S
H1375 C1351 0.949 . S
H1376 C1353 0.950 . S
H1377 C1355 0.950 . S
C1378 C1379 1.349 . S
C1378 C1380 1.327 . S
C1378 H1403 0.950 . S
C1379 C1378 1.349 . S
C1379 C1395 1.349 . S
C1380 C1378 1.327 . S
C1380 C1399 1.429 . S
C1380 H1404 0.950 . S
C1381 C1398 1.574 . S
C1381 C1400 1.368 . S
C1381 H1405 0.949 . S
H1382 C1386 0.949 . S
C1383 C1384 1.349 1_556 S
C1383 C1385 1.327 . S
C1383 H1406 0.950 . S
C1384 C1383 1.349 1_554 S
C1384 C1396 1.349 . S
C1385 C1383 1.327 . S
C1385 C1401 1.429 . S
C1385 H1407 0.950 . S
C1386 H1382 0.949 . S
C1386 C1394 1.574 . S
C1386 C1402 1.368 . S
H1387 C1395 0.950 . S
H1388 C1393 0.950 . S
H1389 C1394 0.949 . S
H1390 C1396 0.950 . S
H1391 C1397 0.950 . S
H1392 C1398 0.949 . S
C1393 H1388 0.950 . S
C1393 C1395 1.327 . S
C1393 C1399 1.429 . S
C1394 C1386 1.574 . S
C1394 H1389 0.949 . S
C1394 C1400 1.368 . S
C1395 C1379 1.349 . S
C1395 H1387 0.950 . S
C1395 C1393 1.327 . S
C1396 C1384 1.349 . S
C1396 H1390 0.950 . S
C1396 C1397 1.327 1_554 S
C1397 H1391 0.950 . S
C1397 C1396 1.327 1_556 S
C1397 C1401 1.429 . S
C1398 C1381 1.574 . S
C1398 H1392 0.949 . S
C1398 C1402 1.368 . S
C1399 C1380 1.429 . S
C1399 C1393 1.429 . S
C1399 C1400 1.523 . S
C1400 C1381 1.368 . S
C1400 C1394 1.368 . S
C1400 C1399 1.523 . S
C1401 C1385 1.429 . S
C1401 C1397 1.429 . S
C1401 C1402 1.523 . S
C1402 C1386 1.368 . S
C1402 C1398 1.368 . S
C1402 C1401 1.523 . S
H1403 C1378 0.950 . S
H1404 C1380 0.950 . S
H1405 C1381 0.949 . S
H1406 C1383 0.950 . S
H1407 C1385 0.950 . S
C1408 C1409 1.349 . S
C1408 C1410 1.327 . S
C1408 H1433 0.950 . S
C1409 C1408 1.349 . S
C1409 C1425 1.349 . S
C1410 C1408 1.327 . S
C1410 C1429 1.429 . S
C1410 H1434 0.950 . S
C1411 C1428 1.574 . S
C1411 C1430 1.368 . S
C1411 H1435 0.949 . S
H1412 C1416 0.949 . S
C1413 C1414 1.349 . S
C1413 C1415 1.327 . S
C1413 H1436 0.950 . S
C1414 C1413 1.349 . S
C1414 C1426 1.349 . S
C1415 C1413 1.327 . S
C1415 C1431 1.429 . S
C1415 H1437 0.950 . S
C1416 H1412 0.949 . S
C1416 C1424 1.574 . S
C1416 C1432 1.368 . S
H1417 C1425 0.950 . S
H1418 C1423 0.950 . S
H1419 C1424 0.949 . S
H1420 C1426 0.950 . S
H1421 C1427 0.950 . S
H1422 C1428 0.949 . S
C1423 H1418 0.950 . S
C1423 C1425 1.327 . S
C1423 C1429 1.429 . S
C1424 C1416 1.574 . S
C1424 H1419 0.949 . S
C1424 C1430 1.368 . S
C1425 C1409 1.349 . S
C1425 H1417 0.950 . S
C1425 C1423 1.327 . S
C1426 C1414 1.349 . S
C1426 H1420 0.950 . S
C1426 C1427 1.327 . S
C1427 H1421 0.950 . S
C1427 C1426 1.327 . S
C1427 C1431 1.429 . S
C1428 C1411 1.574 . S
C1428 H1422 0.949 . S
C1428 C1432 1.368 . S
C1429 C1410 1.429 . S
C1429 C1423 1.429 . S
C1429 C1430 1.523 . S
C1430 C1411 1.368 . S
C1430 C1424 1.368 . S
C1430 C1429 1.523 . S
C1431 C1415 1.429 . S
C1431 C1427 1.429 . S
C1431 C1432 1.523 . S
C1432 C1416 1.368 . S
C1432 C1428 1.368 . S
C1432 C1431 1.523 . S
H1433 C1408 0.950 . S
H1434 C1410 0.950 . S
H1435 C1411 0.949 . S
H1436 C1413 0.950 . S
H1437 C1415 0.950 . S
C1438 C1439 1.349 . S
C1438 C1440 1.327 . S
C1438 H1463 0.950 . S
C1439 C1438 1.349 . S
C1439 C1455 1.349 . S
C1440 C1438 1.327 . S
C1440 C1459 1.429 . S
C1440 H1464 0.950 . S
C1441 C1458 1.574 1_655 S
C1441 C1460 1.368 . S
C1441 H1465 0.949 . S
H1442 C1446 0.949 . S
C1443 C1444 1.349 . S
C1443 C1445 1.327 . S
C1443 H1466 0.950 . S
C1444 C1443 1.349 . S
C1444 C1456 1.349 . S
C1445 C1443 1.327 . S
C1445 C1461 1.429 . S
C1445 H1467 0.950 . S
C1446 H1442 0.949 . S
C1446 C1454 1.574 1_455 S
C1446 C1462 1.368 . S
H1447 C1455 0.950 . S
H1448 C1453 0.950 . S
H1449 C1454 0.949 . S
H1450 C1456 0.950 . S
H1451 C1457 0.950 . S
H1452 C1458 0.949 . S
C1453 H1448 0.950 . S
C1453 C1455 1.327 . S
C1453 C1459 1.429 . S
C1454 C1446 1.574 1_655 S
C1454 H1449 0.949 . S
C1454 C1460 1.368 . S
C1455 C1439 1.349 . S
C1455 H1447 0.950 . S
C1455 C1453 1.327 . S
C1456 C1444 1.349 . S
C1456 H1450 0.950 . S
C1456 C1457 1.327 . S
C1457 H1451 0.950 . S
C1457 C1456 1.327 . S
C1457 C1461 1.429 . S
C1458 C1441 1.574 1_455 S
C1458 H1452 0.949 . S
C1458 C1462 1.368 . S
C1459 C1440 1.429 . S
C1459 C1453 1.429 . S
C1459 C1460 1.523 . S
C1460 C1441 1.368 . S
C1460 C1454 1.368 . S
C1460 C1459 1.523 . S
C1461 C1445 1.429 . S
C1461 C1457 1.429 . S
C1461 C1462 1.523 . S
C1462 C1446 1.368 . S
C1462 C1458 1.368 . S
C1462 C1461 1.523 . S
H1463 C1438 0.950 . S
H1464 C1440 0.950 . S
H1465 C1441 0.949 . S
H1466 C1443 0.950 . S
H1467 C1445 0.950 . S
C1468 C1469 1.349 . S
C1468 C1470 1.327 . S
C1468 H1493 0.950 . S
C1469 C1468 1.349 . S
C1469 C1485 1.349 . S
C1470 C1468 1.327 . S
C1470 C1489 1.429 . S
C1470 H1494 0.950 . S
C1471 C1488 1.574 . S
C1471 C1490 1.368 . S
C1471 H1495 0.949 . S
H1472 C1476 0.949 . S
C1473 C1474 1.349 . S
C1473 C1475 1.327 . S
C1473 H1496 0.950 . S
C1474 C1473 1.349 . S
C1474 C1486 1.349 . S
C1475 C1473 1.327 . S
C1475 C1491 1.429 . S
C1475 H1497 0.950 . S
C1476 H1472 0.949 . S
C1476 C1484 1.574 . S
C1476 C1492 1.368 . S
H1477 C1485 0.950 . S
H1478 C1483 0.950 . S
H1479 C1484 0.949 . S
H1480 C1486 0.950 . S
H1481 C1487 0.950 . S
H1482 C1488 0.949 . S
C1483 H1478 0.950 . S
C1483 C1485 1.327 . S
C1483 C1489 1.429 . S
C1484 C1476 1.574 . S
C1484 H1479 0.949 . S
C1484 C1490 1.368 . S
C1485 C1469 1.349 . S
C1485 H1477 0.950 . S
C1485 C1483 1.327 . S
C1486 C1474 1.349 . S
C1486 H1480 0.950 . S
C1486 C1487 1.327 . S
C1487 H1481 0.950 . S
C1487 C1486 1.327 . S
C1487 C1491 1.429 . S
C1488 C1471 1.574 . S
C1488 H1482 0.949 . S
C1488 C1492 1.368 . S
C1489 C1470 1.429 . S
C1489 C1483 1.429 . S
C1489 C1490 1.523 . S
C1490 C1471 1.368 . S
C1490 C1484 1.368 . S
C1490 C1489 1.523 . S
C1491 C1475 1.429 . S
C1491 C1487 1.429 . S
C1491 C1492 1.523 . S
C1492 C1476 1.368 . S
C1492 C1488 1.368 . S
C1492 C1491 1.523 . S
H1493 C1468 0.950 . S
H1494 C1470 0.950 . S
H1495 C1471 0.949 . S
H1496 C1473 0.950 . S
H1497 C1475 0.950 . S
C1498 C1499 1.349 . S
C1498 C1500 1.327 . S
C1498 H1523 0.950 . S
C1499 C1498 1.349 . S
C1499 C1515 1.349 . S
C1500 C1498 1.327 . S
C1500 C1519 1.429 . S
C1500 H1524 0.950 . S
C1501 C1518 1.574 . S
C1501 C1520 1.368 . S
C1501 H1525 0.949 . S
H1502 C1506 0.949 . S
C1503 C1504 1.349 . S
C1503 C1505 1.327 . S
C1503 H1526 0.950 . S
C1504 C1503 1.349 . S
C1504 C1516 1.349 . S
C1505 C1503 1.327 . S
C1505 C1521 1.429 . S
C1505 H1527 0.950 . S
C1506 H1502 0.949 . S
C1506 C1514 1.574 . S
C1506 C1522 1.368 . S
H1507 C1515 0.950 . S
H1508 C1513 0.950 . S
H1509 C1514 0.949 . S
H1510 C1516 0.950 . S
H1511 C1517 0.950 . S
H1512 C1518 0.949 . S
C1513 H1508 0.950 . S
C1513 C1515 1.327 . S
C1513 C1519 1.429 . S
C1514 C1506 1.574 . S
C1514 H1509 0.949 . S
C1514 C1520 1.368 . S
C1515 C1499 1.349 . S
C1515 H1507 0.950 . S
C1515 C1513 1.327 . S
C1516 C1504 1.349 . S
C1516 H1510 0.950 . S
C1516 C1517 1.327 . S
C1517 H1511 0.950 . S
C1517 C1516 1.327 . S
C1517 C1521 1.429 . S
C1518 C1501 1.574 . S
C1518 H1512 0.949 . S
C1518 C1522 1.368 . S
C1519 C1500 1.429 . S
C1519 C1513 1.429 . S
C1519 C1520 1.523 . S
C1520 C1501 1.368 . S
C1520 C1514 1.368 . S
C1520 C1519 1.523 . S
C1521 C1505 1.429 . S
C1521 C1517 1.429 . S
C1521 C1522 1.523 . S
C1522 C1506 1.368 . S
C1522 C1518 1.368 . S
C1522 C1521 1.523 . S
H1523 C1498 0.950 . S
H1524 C1500 0.950 . S
H1525 C1501 0.949 . S
H1526 C1503 0.950 . S
H1527 C1505 0.950 . S
C1528 C1529 1.349 . S
C1528 C1530 1.327 . S
C1528 H1553 0.950 . S
C1529 C1528 1.349 . S
C1529 C1545 1.349 . S
C1530 C1528 1.327 . S
C1530 C1549 1.429 . S
C1530 H1554 0.950 . S
C1531 C1548 1.574 . S
C1531 C1550 1.368 . S
C1531 H1555 0.949 . S
H1532 C1536 0.949 . S
C1533 C1534 1.349 . S
C1533 C1535 1.327 . S
C1533 H1556 0.950 . S
C1534 C1533 1.349 . S
C1534 C1546 1.349 . S
C1535 C1533 1.327 . S
C1535 C1551 1.429 . S
C1535 H1557 0.950 . S
C1536 H1532 0.949 . S
C1536 C1544 1.574 . S
C1536 C1552 1.368 . S
H1537 C1545 0.950 . S
H1538 C1543 0.950 . S
H1539 C1544 0.949 . S
H1540 C1546 0.950 . S
H1541 C1547 0.950 . S
H1542 C1548 0.949 . S
C1543 H1538 0.950 . S
C1543 C1545 1.327 . S
C1543 C1549 1.429 . S
C1544 C1536 1.574 . S
C1544 H1539 0.949 . S
C1544 C1550 1.368 . S
C1545 C1529 1.349 . S
C1545 H1537 0.950 . S
C1545 C1543 1.327 . S
C1546 C1534 1.349 . S
C1546 H1540 0.950 . S
C1546 C1547 1.327 . S
C1547 H1541 0.950 . S
C1547 C1546 1.327 . S
C1547 C1551 1.429 . S
C1548 C1531 1.574 . S
C1548 H1542 0.949 . S
C1548 C1552 1.368 . S
C1549 C1530 1.429 . S
C1549 C1543 1.429 . S
C1549 C1550 1.523 . S
C1550 C1531 1.368 . S
C1550 C1544 1.368 . S
C1550 C1549 1.523 . S
C1551 C1535 1.429 . S
C1551 C1547 1.429 . S
C1551 C1552 1.523 . S
C1552 C1536 1.368 . S
C1552 C1548 1.368 . S
C1552 C1551 1.523 . S
H1553 C1528 0.950 . S
H1554 C1530 0.950 . S
H1555 C1531 0.949 . S
H1556 C1533 0.950 . S
H1557 C1535 0.950 . S
C1558 C1559 1.349 . S
C1558 C1560 1.327 . S
C1558 H1583 0.950 . S
C1559 C1558 1.349 . S
C1559 C1575 1.349 . S
C1560 C1558 1.327 . S
C1560 C1579 1.429 . S
C1560 H1584 0.950 . S
C1561 C1578 1.574 . S
C1561 C1580 1.368 . S
C1561 H1585 0.949 . S
H1562 C1566 0.949 . S
C1563 C1564 1.349 . S
C1563 C1565 1.327 . S
C1563 H1586 0.950 . S
C1564 C1563 1.349 . S
C1564 C1576 1.349 . S
C1565 C1563 1.327 . S
C1565 C1581 1.429 . S
C1565 H1587 0.950 . S
C1566 H1562 0.949 . S
C1566 C1574 1.574 . S
C1566 C1582 1.368 . S
H1567 C1575 0.950 . S
H1568 C1573 0.950 . S
H1569 C1574 0.949 . S
H1570 C1576 0.950 . S
H1571 C1577 0.950 . S
H1572 C1578 0.949 . S
C1573 H1568 0.950 . S
C1573 C1575 1.327 . S
C1573 C1579 1.429 . S
C1574 C1566 1.574 . S
C1574 H1569 0.949 . S
C1574 C1580 1.368 . S
C1575 C1559 1.349 . S
C1575 H1567 0.950 . S
C1575 C1573 1.327 . S
C1576 C1564 1.349 . S
C1576 H1570 0.950 . S
C1576 C1577 1.327 . S
C1577 H1571 0.950 . S
C1577 C1576 1.327 . S
C1577 C1581 1.429 . S
C1578 C1561 1.574 . S
C1578 H1572 0.949 . S
C1578 C1582 1.368 . S
C1579 C1560 1.429 . S
C1579 C1573 1.429 . S
C1579 C1580 1.523 . S
C1580 C1561 1.368 . S
C1580 C1574 1.368 . S
C1580 C1579 1.523 . S
C1581 C1565 1.429 . S
C1581 C1577 1.429 . S
C1581 C1582 1.523 . S
C1582 C1566 1.368 . S
C1582 C1578 1.368 . S
C1582 C1581 1.523 . S
H1583 C1558 0.950 . S
H1584 C1560 0.950 . S
H1585 C1561 0.949 . S
H1586 C1563 0.950 . S
H1587 C1565 0.950 . S
C1588 C1589 1.349 . S
C1588 C1590 1.327 . S
C1588 H1613 0.950 . S
C1589 C1588 1.349 . S
C1589 C1605 1.349 . S
C1590 C1588 1.327 . S
C1590 C1609 1.429 . S
C1590 H1614 0.950 . S
C1591 C1608 1.574 . S
C1591 C1610 1.368 . S
C1591 H1615 0.949 . S
H1592 C1596 0.949 . S
C1593 C1594 1.349 . S
C1593 C1595 1.327 . S
C1593 H1616 0.950 . S
C1594 C1593 1.349 . S
C1594 C1606 1.349 . S
C1595 C1593 1.327 . S
C1595 C1611 1.429 . S
C1595 H1617 0.950 . S
C1596 H1592 0.949 . S
C1596 C1604 1.574 . S
C1596 C1612 1.368 . S
H1597 C1605 0.950 . S
H1598 C1603 0.950 . S
H1599 C1604 0.949 . S
H1600 C1606 0.950 . S
H1601 C1607 0.950 . S
H1602 C1608 0.949 . S
C1603 H1598 0.950 . S
C1603 C1605 1.327 . S
C1603 C1609 1.429 . S
C1604 C1596 1.574 . S
C1604 H1599 0.949 . S
C1604 C1610 1.368 . S
C1605 C1589 1.349 . S
C1605 H1597 0.950 . S
C1605 C1603 1.327 . S
C1606 C1594 1.349 . S
C1606 H1600 0.950 . S
C1606 C1607 1.327 . S
C1607 H1601 0.950 . S
C1607 C1606 1.327 . S
C1607 C1611 1.429 . S
C1608 C1591 1.574 . S
C1608 H1602 0.949 . S
C1608 C1612 1.368 . S
C1609 C1590 1.429 . S
C1609 C1603 1.429 . S
C1609 C1610 1.523 . S
C1610 C1591 1.368 . S
C1610 C1604 1.368 . S
C1610 C1609 1.523 . S
C1611 C1595 1.429 . S
C1611 C1607 1.429 . S
C1611 C1612 1.523 . S
C1612 C1596 1.368 . S
C1612 C1608 1.368 . S
C1612 C1611 1.523 . S
H1613 C1588 0.950 . S
H1614 C1590 0.950 . S
H1615 C1591 0.949 . S
H1616 C1593 0.950 . S
H1617 C1595 0.950 . S
C1618 C1619 1.349 . S
C1618 C1620 1.327 . S
C1618 H1643 0.950 . S
C1619 C1618 1.349 . S
C1619 C1635 1.349 . S
C1620 C1618 1.327 . S
C1620 C1639 1.429 . S
C1620 H1644 0.950 . S
C1621 C1638 1.574 1_655 S
C1621 C1640 1.368 . S
C1621 H1645 0.949 . S
H1622 C1626 0.949 . S
C1623 C1624 1.349 . S
C1623 C1625 1.327 . S
C1623 H1646 0.950 . S
C1624 C1623 1.349 . S
C1624 C1636 1.349 . S
C1625 C1623 1.327 . S
C1625 C1641 1.429 . S
C1625 H1647 0.950 . S
C1626 H1622 0.949 . S
C1626 C1634 1.574 1_455 S
C1626 C1642 1.368 . S
H1627 C1635 0.950 . S
H1628 C1633 0.950 . S
H1629 C1634 0.949 . S
H1630 C1636 0.950 . S
H1631 C1637 0.950 . S
H1632 C1638 0.949 . S
C1633 H1628 0.950 . S
C1633 C1635 1.327 . S
C1633 C1639 1.429 . S
C1634 C1626 1.574 1_655 S
C1634 H1629 0.949 . S
C1634 C1640 1.368 . S
C1635 C1619 1.349 . S
C1635 H1627 0.950 . S
C1635 C1633 1.327 . S
C1636 C1624 1.349 . S
C1636 H1630 0.950 . S
C1636 C1637 1.327 . S
C1637 H1631 0.950 . S
C1637 C1636 1.327 . S
C1637 C1641 1.429 . S
C1638 C1621 1.574 1_455 S
C1638 H1632 0.949 . S
C1638 C1642 1.368 . S
C1639 C1620 1.429 . S
C1639 C1633 1.429 . S
C1639 C1640 1.523 . S
C1640 C1621 1.368 . S
C1640 C1634 1.368 . S
C1640 C1639 1.523 . S
C1641 C1625 1.429 . S
C1641 C1637 1.429 . S
C1641 C1642 1.523 . S
C1642 C1626 1.368 . S
C1642 C1638 1.368 . S
C1642 C1641 1.523 . S
H1643 C1618 0.950 . S
H1644 C1620 0.950 . S
H1645 C1621 0.949 . S
H1646 C1623 0.950 . S
H1647 C1625 0.950 . S
C1648 C1649 1.349 . S
C1648 C1650 1.327 . S
C1648 H1673 0.950 . S
C1649 C1648 1.349 . S
C1649 C1665 1.349 . S
C1650 C1648 1.327 . S
C1650 C1669 1.429 . S
C1650 H1674 0.950 . S
C1651 C1668 1.574 . S
C1651 C1670 1.368 . S
C1651 H1675 0.949 . S
H1652 C1656 0.949 . S
C1653 C1654 1.349 . S
C1653 C1655 1.327 . S
C1653 H1676 0.950 . S
C1654 C1653 1.349 . S
C1654 C1666 1.349 . S
C1655 C1653 1.327 . S
C1655 C1671 1.429 . S
C1655 H1677 0.950 . S
C1656 H1652 0.949 . S
C1656 C1664 1.574 . S
C1656 C1672 1.368 . S
H1657 C1665 0.950 . S
H1658 C1663 0.950 . S
H1659 C1664 0.949 . S
H1660 C1666 0.950 . S
H1661 C1667 0.950 . S
H1662 C1668 0.949 . S
C1663 H1658 0.950 . S
C1663 C1665 1.327 . S
C1663 C1669 1.429 . S
C1664 C1656 1.574 . S
C1664 H1659 0.949 . S
C1664 C1670 1.368 . S
C1665 C1649 1.349 . S
C1665 H1657 0.950 . S
C1665 C1663 1.327 . S
C1666 C1654 1.349 . S
C1666 H1660 0.950 . S
C1666 C1667 1.327 . S
C1667 H1661 0.950 . S
C1667 C1666 1.327 . S
C1667 C1671 1.429 . S
C1668 C1651 1.574 . S
C1668 H1662 0.949 . S
C1668 C1672 1.368 . S
C1669 C1650 1.429 . S
C1669 C1663 1.429 . S
C1669 C1670 1.523 . S
C1670 C1651 1.368 . S
C1670 C1664 1.368 . S
C1670 C1669 1.523 . S
C1671 C1655 1.429 . S
C1671 C1667 1.429 . S
C1671 C1672 1.523 . S
C1672 C1656 1.368 . S
C1672 C1668 1.368 . S
C1672 C1671 1.523 . S
H1673 C1648 0.950 . S
H1674 C1650 0.950 . S
H1675 C1651 0.949 . S
H1676 C1653 0.950 . S
H1677 C1655 0.950 . S
C1678 C1679 1.349 . S
C1678 C1680 1.327 . S
C1678 H1703 0.950 . S
C1679 C1678 1.349 . S
C1679 C1695 1.349 . S
C1680 C1678 1.327 . S
C1680 C1699 1.429 . S
C1680 H1704 0.950 . S
C1681 C1698 1.574 . S
C1681 C1700 1.368 . S
C1681 H1705 0.949 . S
H1682 C1686 0.949 . S
C1683 C1684 1.349 . S
C1683 C1685 1.327 . S
C1683 H1706 0.950 . S
C1684 C1683 1.349 . S
C1684 C1696 1.349 . S
C1685 C1683 1.327 . S
C1685 C1701 1.429 . S
C1685 H1707 0.950 . S
C1686 H1682 0.949 . S
C1686 C1694 1.574 . S
C1686 C1702 1.368 . S
H1687 C1695 0.950 . S
H1688 C1693 0.950 . S
H1689 C1694 0.949 . S
H1690 C1696 0.950 . S
H1691 C1697 0.950 . S
H1692 C1698 0.949 . S
C1693 H1688 0.950 . S
C1693 C1695 1.327 . S
C1693 C1699 1.429 . S
C1694 C1686 1.574 . S
C1694 H1689 0.949 . S
C1694 C1700 1.368 . S
C1695 C1679 1.349 . S
C1695 H1687 0.950 . S
C1695 C1693 1.327 . S
C1696 C1684 1.349 . S
C1696 H1690 0.950 . S
C1696 C1697 1.327 . S
C1697 H1691 0.950 . S
C1697 C1696 1.327 . S
C1697 C1701 1.429 . S
C1698 C1681 1.574 . S
C1698 H1692 0.949 . S
C1698 C1702 1.368 . S
C1699 C1680 1.429 . S
C1699 C1693 1.429 . S
C1699 C1700 1.523 . S
C1700 C1681 1.368 . S
C1700 C1694 1.368 . S
C1700 C1699 1.523 . S
C1701 C1685 1.429 . S
C1701 C1697 1.429 . S
C1701 C1702 1.523 . S
C1702 C1686 1.368 . S
C1702 C1698 1.368 . S
C1702 C1701 1.523 . S
H1703 C1678 0.950 . S
H1704 C1680 0.950 . S
H1705 C1681 0.949 . S
H1706 C1683 0.950 . S
H1707 C1685 0.950 . S
C1708 C1709 1.349 . S
C1708 C1710 1.327 . S
C1708 H1733 0.950 . S
C1709 C1708 1.349 . S
C1709 C1725 1.349 . S
C1710 C1708 1.327 . S
C1710 C1729 1.429 . S
C1710 H1734 0.950 . S
C1711 C1728 1.574 . S
C1711 C1730 1.368 . S
C1711 H1735 0.949 . S
H1712 C1716 0.949 . S
C1713 C1714 1.349 . S
C1713 C1715 1.327 . S
C1713 H1736 0.950 . S
C1714 C1713 1.349 . S
C1714 C1726 1.349 . S
C1715 C1713 1.327 . S
C1715 C1731 1.429 . S
C1715 H1737 0.950 . S
C1716 H1712 0.949 . S
C1716 C1724 1.574 . S
C1716 C1732 1.368 . S
H1717 C1725 0.950 . S
H1718 C1723 0.950 . S
H1719 C1724 0.949 . S
H1720 C1726 0.950 . S
H1721 C1727 0.950 . S
H1722 C1728 0.949 . S
C1723 H1718 0.950 . S
C1723 C1725 1.327 . S
C1723 C1729 1.429 . S
C1724 C1716 1.574 . S
C1724 H1719 0.949 . S
C1724 C1730 1.368 . S
C1725 C1709 1.349 . S
C1725 H1717 0.950 . S
C1725 C1723 1.327 . S
C1726 C1714 1.349 . S
C1726 H1720 0.950 . S
C1726 C1727 1.327 . S
C1727 H1721 0.950 . S
C1727 C1726 1.327 . S
C1727 C1731 1.429 . S
C1728 C1711 1.574 . S
C1728 H1722 0.949 . S
C1728 C1732 1.368 . S
C1729 C1710 1.429 . S
C1729 C1723 1.429 . S
C1729 C1730 1.523 . S
C1730 C1711 1.368 . S
C1730 C1724 1.368 . S
C1730 C1729 1.523 . S
C1731 C1715 1.429 . S
C1731 C1727 1.429 . S
C1731 C1732 1.523 . S
C1732 C1716 1.368 . S
C1732 C1728 1.368 . S
C1732 C1731 1.523 . S
H1733 C1708 0.950 . S
H1734 C1710 0.950 . S
H1735 C1711 0.949 . S
H1736 C1713 0.950 . S
H1737 C1715 0.950 . S
C1738 C1739 1.349 . S
C1738 C1740 1.327 . S
C1738 H1763 0.950 . S
C1739 C1738 1.349 . S
C1739 C1755 1.349 . S
C1740 C1738 1.327 . S
C1740 C1759 1.429 . S
C1740 H1764 0.950 . S
C1741 C1758 1.574 . S
C1741 C1760 1.368 . S
C1741 H1765 0.949 . S
H1742 C1746 0.949 . S
C1743 C1744 1.349 . S
C1743 C1745 1.327 . S
C1743 H1766 0.950 . S
C1744 C1743 1.349 . S
C1744 C1756 1.349 . S
C1745 C1743 1.327 . S
C1745 C1761 1.429 . S
C1745 H1767 0.950 . S
C1746 H1742 0.949 . S
C1746 C1754 1.574 . S
C1746 C1762 1.368 . S
H1747 C1755 0.950 . S
H1748 C1753 0.950 . S
H1749 C1754 0.949 . S
H1750 C1756 0.950 . S
H1751 C1757 0.950 . S
H1752 C1758 0.949 . S
C1753 H1748 0.950 . S
C1753 C1755 1.327 . S
C1753 C1759 1.429 . S
C1754 C1746 1.574 . S
C1754 H1749 0.949 . S
C1754 C1760 1.368 . S
C1755 C1739 1.349 . S
C1755 H1747 0.950 . S
C1755 C1753 1.327 . S
C1756 C1744 1.349 . S
C1756 H1750 0.950 . S
C1756 C1757 1.327 . S
C1757 H1751 0.950 . S
C1757 C1756 1.327 . S
C1757 C1761 1.429 . S
C1758 C1741 1.574 . S
C1758 H1752 0.949 . S
C1758 C1762 1.368 . S
C1759 C1740 1.429 . S
C1759 C1753 1.429 . S
C1759 C1760 1.523 . S
C1760 C1741 1.368 . S
C1760 C1754 1.368 . S
C1760 C1759 1.523 . S
C1761 C1745 1.429 . S
C1761 C1757 1.429 . S
C1761 C1762 1.523 . S
C1762 C1746 1.368 . S
C1762 C1758 1.368 . S
C1762 C1761 1.523 . S
H1763 C1738 0.950 . S
H1764 C1740 0.950 . S
H1765 C1741 0.949 . S
H1766 C1743 0.950 . S
H1767 C1745 0.950 . S
C1768 C1769 1.349 . S
C1768 C1770 1.327 . S
C1768 H1793 0.950 . S
C1769 C1768 1.349 . S
C1769 C1785 1.349 . S
C1770 C1768 1.327 . S
C1770 C1789 1.429 . S
C1770 H1794 0.950 . S
C1771 C1788 1.574 . S
C1771 C1790 1.368 . S
C1771 H1795 0.949 . S
H1772 C1776 0.949 . S
C1773 C1774 1.349 . S
C1773 C1775 1.327 . S
C1773 H1796 0.950 . S
C1774 C1773 1.349 . S
C1774 C1786 1.349 . S
C1775 C1773 1.327 . S
C1775 C1791 1.429 . S
C1775 H1797 0.950 . S
C1776 H1772 0.949 . S
C1776 C1784 1.574 . S
C1776 C1792 1.368 . S
H1777 C1785 0.950 . S
H1778 C1783 0.950 . S
H1779 C1784 0.949 . S
H1780 C1786 0.950 . S
H1781 C1787 0.950 . S
H1782 C1788 0.949 . S
C1783 H1778 0.950 . S
C1783 C1785 1.327 . S
C1783 C1789 1.429 . S
C1784 C1776 1.574 . S
C1784 H1779 0.949 . S
C1784 C1790 1.368 . S
C1785 C1769 1.349 . S
C1785 H1777 0.950 . S
C1785 C1783 1.327 . S
C1786 C1774 1.349 . S
C1786 H1780 0.950 . S
C1786 C1787 1.327 . S
C1787 H1781 0.950 . S
C1787 C1786 1.327 . S
C1787 C1791 1.429 . S
C1788 C1771 1.574 . S
C1788 H1782 0.949 . S
C1788 C1792 1.368 . S
C1789 C1770 1.429 . S
C1789 C1783 1.429 . S
C1789 C1790 1.523 . S
C1790 C1771 1.368 . S
C1790 C1784 1.368 . S
C1790 C1789 1.523 . S
C1791 C1775 1.429 . S
C1791 C1787 1.429 . S
C1791 C1792 1.523 . S
C1792 C1776 1.368 . S
C1792 C1788 1.368 . S
C1792 C1791 1.523 . S
H1793 C1768 0.950 . S
H1794 C1770 0.950 . S
H1795 C1771 0.949 . S
H1796 C1773 0.950 . S
H1797 C1775 0.950 . S
C1798 C1799 1.349 . S
C1798 C1800 1.327 . S
C1798 H1823 0.950 . S
C1799 C1798 1.349 . S
C1799 C1815 1.349 . S
C1800 C1798 1.327 . S
C1800 C1819 1.429 . S
C1800 H1824 0.950 . S
C1801 C1818 1.574 1_655 S
C1801 C1820 1.368 . S
C1801 H1825 0.949 . S
H1802 C1806 0.949 . S
C1803 C1804 1.349 . S
C1803 C1805 1.327 . S
C1803 H1826 0.950 . S
C1804 C1803 1.349 . S
C1804 C1816 1.349 . S
C1805 C1803 1.327 . S
C1805 C1821 1.429 . S
C1805 H1827 0.950 . S
C1806 H1802 0.949 . S
C1806 C1814 1.574 1_455 S
C1806 C1822 1.368 . S
H1807 C1815 0.950 . S
H1808 C1813 0.950 . S
H1809 C1814 0.949 . S
H1810 C1816 0.950 . S
H1811 C1817 0.950 . S
H1812 C1818 0.949 . S
C1813 H1808 0.950 . S
C1813 C1815 1.327 . S
C1813 C1819 1.429 . S
C1814 C1806 1.574 1_655 S
C1814 H1809 0.949 . S
C1814 C1820 1.368 . S
C1815 C1799 1.349 . S
C1815 H1807 0.950 . S
C1815 C1813 1.327 . S
C1816 C1804 1.349 . S
C1816 H1810 0.950 . S
C1816 C1817 1.327 . S
C1817 H1811 0.950 . S
C1817 C1816 1.327 . S
C1817 C1821 1.429 . S
C1818 C1801 1.574 1_455 S
C1818 H1812 0.949 . S
C1818 C1822 1.368 . S
C1819 C1800 1.429 . S
C1819 C1813 1.429 . S
C1819 C1820 1.523 . S
C1820 C1801 1.368 . S
C1820 C1814 1.368 . S
C1820 C1819 1.523 . S
C1821 C1805 1.429 . S
C1821 C1817 1.429 . S
C1821 C1822 1.523 . S
C1822 C1806 1.368 . S
C1822 C1818 1.368 . S
C1822 C1821 1.523 . S
H1823 C1798 0.950 . S
H1824 C1800 0.950 . S
H1825 C1801 0.949 . S
H1826 C1803 0.950 . S
H1827 C1805 0.950 . S
C1828 C1829 1.349 . S
C1828 C1830 1.327 . S
C1828 H1853 0.950 . S
C1829 C1828 1.349 . S
C1829 C1845 1.349 . S
C1830 C1828 1.327 . S
C1830 C1849 1.429 . S
C1830 H1854 0.950 . S
C1831 C1848 1.574 1_655 S
C1831 C1850 1.368 . S
C1831 H1855 0.949 . S
H1832 C1836 0.949 . S
C1833 C1834 1.349 . S
C1833 C1835 1.327 . S
C1833 H1856 0.950 . S
C1834 C1833 1.349 . S
C1834 C1846 1.349 . S
C1835 C1833 1.327 . S
C1835 C1851 1.429 . S
C1835 H1857 0.950 . S
C1836 H1832 0.949 . S
C1836 C1844 1.574 1_455 S
C1836 C1852 1.368 . S
H1837 C1845 0.950 . S
H1838 C1843 0.950 . S
H1839 C1844 0.949 . S
H1840 C1846 0.950 . S
H1841 C1847 0.950 . S
H1842 C1848 0.949 . S
C1843 H1838 0.950 . S
C1843 C1845 1.327 . S
C1843 C1849 1.429 . S
C1844 C1836 1.574 1_655 S
C1844 H1839 0.949 . S
C1844 C1850 1.368 . S
C1845 C1829 1.349 . S
C1845 H1837 0.950 . S
C1845 C1843 1.327 . S
C1846 C1834 1.349 . S
C1846 H1840 0.950 . S
C1846 C1847 1.327 . S
C1847 H1841 0.950 . S
C1847 C1846 1.327 . S
C1847 C1851 1.429 . S
C1848 C1831 1.574 1_455 S
C1848 H1842 0.949 . S
C1848 C1852 1.368 . S
C1849 C1830 1.429 . S
C1849 C1843 1.429 . S
C1849 C1850 1.523 . S
C1850 C1831 1.368 . S
C1850 C1844 1.368 . S
C1850 C1849 1.523 . S
C1851 C1835 1.429 . S
C1851 C1847 1.429 . S
C1851 C1852 1.523 . S
C1852 C1836 1.368 . S
C1852 C1848 1.368 . S
C1852 C1851 1.523 . S
H1853 C1828 0.950 . S
H1854 C1830 0.950 . S
H1855 C1831 0.949 . S
H1856 C1833 0.950 . S
H1857 C1835 0.950 . S
C1858 C1859 1.349 . S
C1858 C1860 1.327 . S
C1858 H1883 0.950 . S
C1859 C1858 1.349 . S
C1859 C1875 1.349 . S
C1860 C1858 1.327 . S
C1860 C1879 1.429 . S
C1860 H1884 0.950 . S
C1861 C1878 1.574 . S
C1861 C1880 1.368 . S
C1861 H1885 0.949 . S
H1862 C1866 0.949 . S
C1863 C1864 1.349 . S
C1863 C1865 1.327 . S
C1863 H1886 0.950 . S
C1864 C1863 1.349 . S
C1864 C1876 1.349 . S
C1865 C1863 1.327 . S
C1865 C1881 1.429 . S
C1865 H1887 0.950 . S
C1866 H1862 0.949 . S
C1866 C1874 1.574 . S
C1866 C1882 1.368 . S
H1867 C1875 0.950 . S
H1868 C1873 0.950 . S
H1869 C1874 0.949 . S
H1870 C1876 0.950 . S
H1871 C1877 0.950 . S
H1872 C1878 0.949 . S
C1873 H1868 0.950 . S
C1873 C1875 1.327 . S
C1873 C1879 1.429 . S
C1874 C1866 1.574 . S
C1874 H1869 0.949 . S
C1874 C1880 1.368 . S
C1875 C1859 1.349 . S
C1875 H1867 0.950 . S
C1875 C1873 1.327 . S
C1876 C1864 1.349 . S
C1876 H1870 0.950 . S
C1876 C1877 1.327 . S
C1877 H1871 0.950 . S
C1877 C1876 1.327 . S
C1877 C1881 1.429 . S
C1878 C1861 1.574 . S
C1878 H1872 0.949 . S
C1878 C1882 1.368 . S
C1879 C1860 1.429 . S
C1879 C1873 1.429 . S
C1879 C1880 1.523 . S
C1880 C1861 1.368 . S
C1880 C1874 1.368 . S
C1880 C1879 1.523 . S
C1881 C1865 1.429 . S
C1881 C1877 1.429 . S
C1881 C1882 1.523 . S
C1882 C1866 1.368 . S
C1882 C1878 1.368 . S
C1882 C1881 1.523 . S
H1883 C1858 0.950 . S
H1884 C1860 0.950 . S
H1885 C1861 0.949 . S
H1886 C1863 0.950 . S
H1887 C1865 0.950 . S
C1888 C1889 1.349 . S
C1888 C1890 1.327 . S
C1888 H1913 0.950 . S
C1889 C1888 1.349 . S
C1889 C1905 1.349 . S
C1890 C1888 1.327 . S
C1890 C1909 1.429 . S
C1890 H1914 0.950 . S
C1891 C1908 1.574 . S
C1891 C1910 1.368 . S
C1891 H1915 0.949 . S
H1892 C1896 0.949 . S
C1893 C1894 1.349 . S
C1893 C1895 1.327 . S
C1893 H1916 0.950 . S
C1894 C1893 1.349 . S
C1894 C1906 1.349 . S
C1895 C1893 1.327 . S
C1895 C1911 1.429 . S
C1895 H1917 0.950 . S
C1896 H1892 0.949 . S
C1896 C1904 1.574 . S
C1896 C1912 1.368 . S
H1897 C1905 0.950 . S
H1898 C1903 0.950 . S
H1899 C1904 0.949 . S
H1900 C1906 0.950 . S
H1901 C1907 0.950 . S
H1902 C1908 0.949 . S
C1903 H1898 0.950 . S
C1903 C1905 1.327 . S
C1903 C1909 1.429 . S
C1904 C1896 1.574 . S
C1904 H1899 0.949 . S
C1904 C1910 1.368 . S
C1905 C1889 1.349 . S
C1905 H1897 0.950 . S
C1905 C1903 1.327 . S
C1906 C1894 1.349 . S
C1906 H1900 0.950 . S
C1906 C1907 1.327 . S
C1907 H1901 0.950 . S
C1907 C1906 1.327 . S
C1907 C1911 1.429 . S
C1908 C1891 1.574 . S
C1908 H1902 0.949 . S
C1908 C1912 1.368 . S
C1909 C1890 1.429 . S
C1909 C1903 1.429 . S
C1909 C1910 1.523 . S
C1910 C1891 1.368 . S
C1910 C1904 1.368 . S
C1910 C1909 1.523 . S
C1911 C1895 1.429 . S
C1911 C1907 1.429 . S
C1911 C1912 1.523 . S
C1912 C1896 1.368 . S
C1912 C1908 1.368 . S
C1912 C1911 1.523 . S
H1913 C1888 0.950 . S
H1914 C1890 0.950 . S
H1915 C1891 0.949 . S
H1916 C1893 0.950 . S
H1917 C1895 0.950 . S
C1918 C1919 1.349 . S
C1918 C1920 1.327 . S
C1918 H1943 0.950 . S
C1919 C1918 1.349 . S
C1919 C1935 1.349 . S
C1920 C1918 1.327 . S
C1920 C1939 1.429 . S
C1920 H1944 0.950 . S
C1921 C1938 1.574 . S
C1921 C1940 1.368 . S
C1921 H1945 0.949 . S
H1922 C1926 0.949 . S
C1923 C1924 1.349 . S
C1923 C1925 1.327 . S
C1923 H1946 0.950 . S
C1924 C1923 1.349 . S
C1924 C1936 1.349 . S
C1925 C1923 1.327 . S
C1925 C1941 1.429 . S
C1925 H1947 0.950 . S
C1926 H1922 0.949 . S
C1926 C1934 1.574 . S
C1926 C1942 1.368 . S
H1927 C1935 0.950 . S
H1928 C1933 0.950 . S
H1929 C1934 0.949 . S
H1930 C1936 0.950 . S
H1931 C1937 0.950 . S
H1932 C1938 0.949 . S
C1933 H1928 0.950 . S
C1933 C1935 1.327 . S
C1933 C1939 1.429 . S
C1934 C1926 1.574 . S
C1934 H1929 0.949 . S
C1934 C1940 1.368 . S
C1935 C1919 1.349 . S
C1935 H1927 0.950 . S
C1935 C1933 1.327 . S
C1936 C1924 1.349 . S
C1936 H1930 0.950 . S
C1936 C1937 1.327 . S
C1937 H1931 0.950 . S
C1937 C1936 1.327 . S
C1937 C1941 1.429 . S
C1938 C1921 1.574 . S
C1938 H1932 0.949 . S
C1938 C1942 1.368 . S
C1939 C1920 1.429 . S
C1939 C1933 1.429 . S
C1939 C1940 1.523 . S
C1940 C1921 1.368 . S
C1940 C1934 1.368 . S
C1940 C1939 1.523 . S
C1941 C1925 1.429 . S
C1941 C1937 1.429 . S
C1941 C1942 1.523 . S
C1942 C1926 1.368 . S
C1942 C1938 1.368 . S
C1942 C1941 1.523 . S
H1943 C1918 0.950 . S
H1944 C1920 0.950 . S
H1945 C1921 0.949 . S
H1946 C1923 0.950 . S
H1947 C1925 0.950 . S
C1948 C1949 1.349 . S
C1948 C1950 1.327 1_554 S
C1948 H1973 0.950 . S
C1949 C1948 1.349 . S
C1949 C1965 1.349 1_554 S
C1950 C1948 1.327 1_556 S
C1950 C1969 1.429 . S
C1950 H1974 0.950 . S
C1951 C1968 1.574 . S
C1951 C1970 1.368 . S
C1951 H1975 0.949 . S
H1952 C1956 0.949 . S
C1953 C1954 1.349 . S
C1953 C1955 1.327 . S
C1953 H1976 0.950 . S
C1954 C1953 1.349 . S
C1954 C1966 1.349 . S
C1955 C1953 1.327 . S
C1955 C1971 1.429 . S
C1955 H1977 0.950 . S
C1956 H1952 0.949 . S
C1956 C1964 1.574 . S
C1956 C1972 1.368 . S
H1957 C1965 0.950 . S
H1958 C1963 0.950 . S
H1959 C1964 0.949 . S
H1960 C1966 0.950 . S
H1961 C1967 0.950 . S
H1962 C1968 0.949 . S
C1963 H1958 0.950 . S
C1963 C1965 1.327 . S
C1963 C1969 1.429 . S
C1964 C1956 1.574 . S
C1964 H1959 0.949 . S
C1964 C1970 1.368 . S
C1965 C1949 1.349 1_556 S
C1965 H1957 0.950 . S
C1965 C1963 1.327 . S
C1966 C1954 1.349 . S
C1966 H1960 0.950 . S
C1966 C1967 1.327 . S
C1967 H1961 0.950 . S
C1967 C1966 1.327 . S
C1967 C1971 1.429 . S
C1968 C1951 1.574 . S
C1968 H1962 0.949 . S
C1968 C1972 1.368 . S
C1969 C1950 1.429 . S
C1969 C1963 1.429 . S
C1969 C1970 1.523 . S
C1970 C1951 1.368 . S
C1970 C1964 1.368 . S
C1970 C1969 1.523 . S
C1971 C1955 1.429 . S
C1971 C1967 1.429 . S
C1971 C1972 1.523 . S
C1972 C1956 1.368 . S
C1972 C1968 1.368 . S
C1972 C1971 1.523 . S
H1973 C1948 0.950 . S
H1974 C1950 0.950 . S
H1975 C1951 0.949 . S
H1976 C1953 0.950 . S
H1977 C1955 0.950 . S
C1978 C1979 1.349 . S
C1978 C1980 1.327 1_556 S
C1978 H2003 0.950 . S
C1979 C1978 1.349 . S
C1979 C1995 1.349 1_556 S
C1980 C1978 1.327 1_554 S
C1980 C1999 1.429 . S
C1980 H2004 0.950 . S
C1981 C1998 1.574 . S
C1981 C2000 1.368 . S
C1981 H2005 0.949 . S
H1982 C1986 0.949 . S
C1983 C1984 1.349 . S
C1983 C1985 1.327 . S
C1983 H2006 0.950 . S
C1984 C1983 1.349 . S
C1984 C1996 1.349 . S
C1985 C1983 1.327 . S
C1985 C2001 1.429 . S
C1985 H2007 0.950 . S
C1986 H1982 0.949 . S
C1986 C1994 1.574 . S
C1986 C2002 1.368 . S
H1987 C1995 0.950 . S
H1988 C1993 0.950 . S
H1989 C1994 0.949 . S
H1990 C1996 0.950 . S
H1991 C1997 0.950 . S
H1992 C1998 0.949 . S
C1993 H1988 0.950 . S
C1993 C1995 1.327 . S
C1993 C1999 1.429 . S
C1994 C1986 1.574 . S
C1994 H1989 0.949 . S
C1994 C2000 1.368 . S
C1995 C1979 1.349 1_554 S
C1995 H1987 0.950 . S
C1995 C1993 1.327 . S
C1996 C1984 1.349 . S
C1996 H1990 0.950 . S
C1996 C1997 1.327 . S
C1997 H1991 0.950 . S
C1997 C1996 1.327 . S
C1997 C2001 1.429 . S
C1998 C1981 1.574 . S
C1998 H1992 0.949 . S
C1998 C2002 1.368 . S
C1999 C1980 1.429 . S
C1999 C1993 1.429 . S
C1999 C2000 1.523 . S
C2000 C1981 1.368 . S
C2000 C1994 1.368 . S
C2000 C1999 1.523 . S
C2001 C1985 1.429 . S
C2001 C1997 1.429 . S
C2001 C2002 1.523 . S
C2002 C1986 1.368 . S
C2002 C1998 1.368 . S
C2002 C2001 1.523 . S
H2003 C1978 0.950 . S
H2004 C1980 0.950 . S
H2005 C1981 0.949 . S
H2006 C1983 0.950 . S
H2007 C1985 0.950 . S
C2008 C2009 1.349 . S
C2008 C2010 1.327 . S
C2008 H2033 0.950 . S
C2009 C2008 1.349 . S
C2009 C2025 1.349 . S
C2010 C2008 1.327 . S
C2010 C2029 1.429 . S
C2010 H2034 0.950 . S
C2011 C2028 1.574 . S
C2011 C2030 1.368 . S
C2011 H2035 0.949 . S
H2012 C2016 0.949 . S
C2013 C2014 1.349 . S
C2013 C2015 1.327 . S
C2013 H2036 0.950 . S
C2014 C2013 1.349 . S
C2014 C2026 1.349 . S
C2015 C2013 1.327 . S
C2015 C2031 1.429 . S
C2015 H2037 0.950 . S
C2016 H2012 0.949 . S
C2016 C2024 1.574 . S
C2016 C2032 1.368 . S
H2017 C2025 0.950 . S
H2018 C2023 0.950 . S
H2019 C2024 0.949 . S
H2020 C2026 0.950 . S
H2021 C2027 0.950 . S
H2022 C2028 0.949 . S
C2023 H2018 0.950 . S
C2023 C2025 1.327 . S
C2023 C2029 1.429 . S
C2024 C2016 1.574 . S
C2024 H2019 0.949 . S
C2024 C2030 1.368 . S
C2025 C2009 1.349 . S
C2025 H2017 0.950 . S
C2025 C2023 1.327 . S
C2026 C2014 1.349 . S
C2026 H2020 0.950 . S
C2026 C2027 1.327 . S
C2027 H2021 0.950 . S
C2027 C2026 1.327 . S
C2027 C2031 1.429 . S
C2028 C2011 1.574 . S
C2028 H2022 0.949 . S
C2028 C2032 1.368 . S
C2029 C2010 1.429 . S
C2029 C2023 1.429 . S
C2029 C2030 1.523 . S
C2030 C2011 1.368 . S
C2030 C2024 1.368 . S
C2030 C2029 1.523 . S
C2031 C2015 1.429 . S
C2031 C2027 1.429 . S
C2031 C2032 1.523 . S
C2032 C2016 1.368 . S
C2032 C2028 1.368 . S
C2032 C2031 1.523 . S
H2033 C2008 0.950 . S
H2034 C2010 0.950 . S
H2035 C2011 0.949 . S
H2036 C2013 0.950 . S
H2037 C2015 0.950 . S
C2038 C2039 1.349 . S
C2038 C2040 1.327 . S
C2038 H2063 0.950 . S
C2039 C2038 1.349 . S
C2039 C2055 1.349 . S
C2040 C2038 1.327 . S
C2040 C2059 1.429 . S
C2040 H2064 0.950 . S
C2041 C2058 1.574 . S
C2041 C2060 1.368 . S
C2041 H2065 0.949 . S
H2042 C2046 0.949 . S
C2043 C2044 1.349 . S
C2043 C2045 1.327 . S
C2043 H2066 0.950 . S
C2044 C2043 1.349 . S
C2044 C2056 1.349 . S
C2045 C2043 1.327 . S
C2045 C2061 1.429 . S
C2045 H2067 0.950 . S
C2046 H2042 0.949 . S
C2046 C2054 1.574 . S
C2046 C2062 1.368 . S
H2047 C2055 0.950 . S
H2048 C2053 0.950 . S
H2049 C2054 0.949 . S
H2050 C2056 0.950 . S
H2051 C2057 0.950 . S
H2052 C2058 0.949 . S
C2053 H2048 0.950 . S
C2053 C2055 1.327 . S
C2053 C2059 1.429 . S
C2054 C2046 1.574 . S
C2054 H2049 0.949 . S
C2054 C2060 1.368 . S
C2055 C2039 1.349 . S
C2055 H2047 0.950 . S
C2055 C2053 1.327 . S
C2056 C2044 1.349 . S
C2056 H2050 0.950 . S
C2056 C2057 1.327 . S
C2057 H2051 0.950 . S
C2057 C2056 1.327 . S
C2057 C2061 1.429 . S
C2058 C2041 1.574 . S
C2058 H2052 0.949 . S
C2058 C2062 1.368 . S
C2059 C2040 1.429 . S
C2059 C2053 1.429 . S
C2059 C2060 1.523 . S
C2060 C2041 1.368 . S
C2060 C2054 1.368 . S
C2060 C2059 1.523 . S
C2061 C2045 1.429 . S
C2061 C2057 1.429 . S
C2061 C2062 1.523 . S
C2062 C2046 1.368 . S
C2062 C2058 1.368 . S
C2062 C2061 1.523 . S
H2063 C2038 0.950 . S
H2064 C2040 0.950 . S
H2065 C2041 0.949 . S
H2066 C2043 0.950 . S
H2067 C2045 0.950 . S
C2068 C2069 1.349 . S
C2068 C2070 1.327 . S
C2068 H2093 0.950 . S
C2069 C2068 1.349 . S
C2069 C2085 1.349 . S
C2070 C2068 1.327 . S
C2070 C2089 1.429 . S
C2070 H2094 0.950 . S
C2071 C2088 1.574 . S
C2071 C2090 1.368 . S
C2071 H2095 0.949 . S
H2072 C2076 0.949 . S
C2073 C2074 1.349 1_554 S
C2073 C2075 1.327 . S
C2073 H2096 0.950 . S
C2074 C2073 1.349 1_556 S
C2074 C2086 1.349 . S
C2075 C2073 1.327 . S
C2075 C2091 1.429 . S
C2075 H2097 0.950 . S
C2076 H2072 0.949 . S
C2076 C2084 1.574 . S
C2076 C2092 1.368 . S
H2077 C2085 0.950 . S
H2078 C2083 0.950 . S
H2079 C2084 0.949 . S
H2080 C2086 0.950 . S
H2081 C2087 0.950 . S
H2082 C2088 0.949 . S
C2083 H2078 0.950 . S
C2083 C2085 1.327 . S
C2083 C2089 1.429 . S
C2084 C2076 1.574 . S
C2084 H2079 0.949 . S
C2084 C2090 1.368 . S
C2085 C2069 1.349 . S
C2085 H2077 0.950 . S
C2085 C2083 1.327 . S
C2086 C2074 1.349 . S
C2086 H2080 0.950 . S
C2086 C2087 1.327 1_556 S
C2087 H2081 0.950 . S
C2087 C2086 1.327 1_554 S
C2087 C2091 1.429 . S
C2088 C2071 1.574 . S
C2088 H2082 0.949 . S
C2088 C2092 1.368 . S
C2089 C2070 1.429 . S
C2089 C2083 1.429 . S
C2089 C2090 1.523 . S
C2090 C2071 1.368 . S
C2090 C2084 1.368 . S
C2090 C2089 1.523 . S
C2091 C2075 1.429 . S
C2091 C2087 1.429 . S
C2091 C2092 1.523 . S
C2092 C2076 1.368 . S
C2092 C2088 1.368 . S
C2092 C2091 1.523 . S
H2093 C2068 0.950 . S
H2094 C2070 0.950 . S
H2095 C2071 0.949 . S
H2096 C2073 0.950 . S
H2097 C2075 0.950 . S
C2098 C2099 1.349 . S
C2098 C2100 1.327 . S
C2098 H2123 0.950 . S
C2099 C2098 1.349 . S
C2099 C2115 1.349 . S
C2100 C2098 1.327 . S
C2100 C2119 1.429 . S
C2100 H2124 0.950 . S
C2101 C2118 1.574 . S
C2101 C2120 1.368 . S
C2101 H2125 0.949 . S
H2102 C2106 0.949 . S
C2103 C2104 1.349 1_556 S
C2103 C2105 1.327 . S
C2103 H2126 0.950 . S
C2104 C2103 1.349 1_554 S
C2104 C2116 1.349 . S
C2105 C2103 1.327 . S
C2105 C2121 1.429 . S
C2105 H2127 0.950 . S
C2106 H2102 0.949 . S
C2106 C2114 1.574 . S
C2106 C2122 1.368 . S
H2107 C2115 0.950 . S
H2108 C2113 0.950 . S
H2109 C2114 0.949 . S
H2110 C2116 0.950 . S
H2111 C2117 0.950 . S
H2112 C2118 0.949 . S
C2113 H2108 0.950 . S
C2113 C2115 1.327 . S
C2113 C2119 1.429 . S
C2114 C2106 1.574 . S
C2114 H2109 0.949 . S
C2114 C2120 1.368 . S
C2115 C2099 1.349 . S
C2115 H2107 0.950 . S
C2115 C2113 1.327 . S
C2116 C2104 1.349 . S
C2116 H2110 0.950 . S
C2116 C2117 1.327 1_554 S
C2117 H2111 0.950 . S
C2117 C2116 1.327 1_556 S
C2117 C2121 1.429 . S
C2118 C2101 1.574 . S
C2118 H2112 0.949 . S
C2118 C2122 1.368 . S
C2119 C2100 1.429 . S
C2119 C2113 1.429 . S
C2119 C2120 1.523 . S
C2120 C2101 1.368 . S
C2120 C2114 1.368 . S
C2120 C2119 1.523 . S
C2121 C2105 1.429 . S
C2121 C2117 1.429 . S
C2121 C2122 1.523 . S
C2122 C2106 1.368 . S
C2122 C2118 1.368 . S
C2122 C2121 1.523 . S
H2123 C2098 0.950 . S
H2124 C2100 0.950 . S
H2125 C2101 0.949 . S
H2126 C2103 0.950 . S
H2127 C2105 0.950 . S
C2128 C2129 1.349 1_556 S
C2128 C2130 1.327 . S
C2128 H2153 0.950 . S
C2129 C2128 1.349 1_554 S
C2129 C2145 1.349 . S
C2130 C2128 1.327 . S
C2130 C2149 1.429 . S
C2130 H2154 0.950 . S
C2131 C2148 1.574 . S
C2131 C2150 1.368 . S
C2131 H2155 0.949 . S
H2132 C2136 0.949 . S
C2133 C2134 1.349 . S
C2133 C2135 1.327 . S
C2133 H2156 0.950 . S
C2134 C2133 1.349 . S
C2134 C2146 1.349 . S
C2135 C2133 1.327 . S
C2135 C2151 1.429 . S
C2135 H2157 0.950 . S
C2136 H2132 0.949 . S
C2136 C2144 1.574 . S
C2136 C2152 1.368 . S
H2137 C2145 0.950 . S
H2138 C2143 0.950 . S
H2139 C2144 0.949 . S
H2140 C2146 0.950 . S
H2141 C2147 0.950 . S
H2142 C2148 0.949 . S
C2143 H2138 0.950 . S
C2143 C2145 1.327 1_556 S
C2143 C2149 1.429 . S
C2144 C2136 1.574 . S
C2144 H2139 0.949 . S
C2144 C2150 1.368 . S
C2145 C2129 1.349 . S
C2145 H2137 0.950 . S
C2145 C2143 1.327 1_554 S
C2146 C2134 1.349 . S
C2146 H2140 0.950 . S
C2146 C2147 1.327 . S
C2147 H2141 0.950 . S
C2147 C2146 1.327 . S
C2147 C2151 1.429 . S
C2148 C2131 1.574 . S
C2148 H2142 0.949 . S
C2148 C2152 1.368 . S
C2149 C2130 1.429 . S
C2149 C2143 1.429 . S
C2149 C2150 1.523 . S
C2150 C2131 1.368 . S
C2150 C2144 1.368 . S
C2150 C2149 1.523 . S
C2151 C2135 1.429 . S
C2151 C2147 1.429 . S
C2151 C2152 1.523 . S
C2152 C2136 1.368 . S
C2152 C2148 1.368 . S
C2152 C2151 1.523 . S
H2153 C2128 0.950 . S
H2154 C2130 0.950 . S
H2155 C2131 0.949 . S
H2156 C2133 0.950 . S
H2157 C2135 0.950 . S
C2158 C2159 1.349 . S
C2158 C2160 1.327 . S
C2158 H2183 0.950 . S
C2159 C2158 1.349 . S
C2159 C2175 1.349 . S
C2160 C2158 1.327 . S
C2160 C2179 1.429 . S
C2160 H2184 0.950 . S
C2161 C2178 1.574 . S
C2161 C2180 1.368 . S
C2161 H2185 0.949 . S
H2162 C2166 0.949 . S
C2163 C2164 1.349 1_554 S
C2163 C2165 1.327 . S
C2163 H2186 0.950 . S
C2164 C2163 1.349 1_556 S
C2164 C2176 1.349 . S
C2165 C2163 1.327 . S
C2165 C2181 1.429 . S
C2165 H2187 0.950 . S
C2166 H2162 0.949 . S
C2166 C2174 1.574 . S
C2166 C2182 1.368 . S
H2167 C2175 0.950 . S
H2168 C2173 0.950 . S
H2169 C2174 0.949 . S
H2170 C2176 0.950 . S
H2171 C2177 0.950 . S
H2172 C2178 0.949 . S
C2173 H2168 0.950 . S
C2173 C2175 1.327 . S
C2173 C2179 1.429 . S
C2174 C2166 1.574 . S
C2174 H2169 0.949 . S
C2174 C2180 1.368 . S
C2175 C2159 1.349 . S
C2175 H2167 0.950 . S
C2175 C2173 1.327 . S
C2176 C2164 1.349 . S
C2176 H2170 0.950 . S
C2176 C2177 1.327 1_556 S
C2177 H2171 0.950 . S
C2177 C2176 1.327 1_554 S
C2177 C2181 1.429 . S
C2178 C2161 1.574 . S
C2178 H2172 0.949 . S
C2178 C2182 1.368 . S
C2179 C2160 1.429 . S
C2179 C2173 1.429 . S
C2179 C2180 1.523 . S
C2180 C2161 1.368 . S
C2180 C2174 1.368 . S
C2180 C2179 1.523 . S
C2181 C2165 1.429 . S
C2181 C2177 1.429 . S
C2181 C2182 1.523 . S
C2182 C2166 1.368 . S
C2182 C2178 1.368 . S
C2182 C2181 1.523 . S
H2183 C2158 0.950 . S
H2184 C2160 0.950 . S
H2185 C2161 0.949 . S
H2186 C2163 0.950 . S
H2187 C2165 0.950 . S
C2188 C2189 1.349 . S
C2188 C2190 1.327 . S
C2188 H2213 0.950 . S
C2189 C2188 1.349 . S
C2189 C2205 1.349 . S
C2190 C2188 1.327 . S
C2190 C2209 1.429 . S
C2190 H2214 0.950 . S
C2191 C2208 1.574 . S
C2191 C2210 1.368 . S
C2191 H2215 0.949 . S
H2192 C2196 0.949 . S
C2193 C2194 1.349 . S
C2193 C2195 1.327 . S
C2193 H2216 0.950 . S
C2194 C2193 1.349 . S
C2194 C2206 1.349 . S
C2195 C2193 1.327 . S
C2195 C2211 1.429 . S
C2195 H2217 0.950 . S
C2196 H2192 0.949 . S
C2196 C2204 1.574 . S
C2196 C2212 1.368 . S
H2197 C2205 0.950 . S
H2198 C2203 0.950 . S
H2199 C2204 0.949 . S
H2200 C2206 0.950 . S
H2201 C2207 0.950 . S
H2202 C2208 0.949 . S
C2203 H2198 0.950 . S
C2203 C2205 1.327 . S
C2203 C2209 1.429 . S
C2204 C2196 1.574 . S
C2204 H2199 0.949 . S
C2204 C2210 1.368 . S
C2205 C2189 1.349 . S
C2205 H2197 0.950 . S
C2205 C2203 1.327 . S
C2206 C2194 1.349 . S
C2206 H2200 0.950 . S
C2206 C2207 1.327 . S
C2207 H2201 0.950 . S
C2207 C2206 1.327 . S
C2207 C2211 1.429 . S
C2208 C2191 1.574 . S
C2208 H2202 0.949 . S
C2208 C2212 1.368 . S
C2209 C2190 1.429 . S
C2209 C2203 1.429 . S
C2209 C2210 1.523 . S
C2210 C2191 1.368 . S
C2210 C2204 1.368 . S
C2210 C2209 1.523 . S
C2211 C2195 1.429 . S
C2211 C2207 1.429 . S
C2211 C2212 1.523 . S
C2212 C2196 1.368 . S
C2212 C2208 1.368 . S
C2212 C2211 1.523 . S
H2213 C2188 0.950 . S
H2214 C2190 0.950 . S
H2215 C2191 0.949 . S
H2216 C2193 0.950 . S
H2217 C2195 0.950 . S
C2218 C2219 1.349 . S
C2218 C2220 1.327 . S
C2218 H2243 0.950 . S
C2219 C2218 1.349 . S
C2219 C2235 1.349 . S
C2220 C2218 1.327 . S
C2220 C2239 1.429 . S
C2220 H2244 0.950 . S
C2221 C2238 1.574 . S
C2221 C2240 1.368 . S
C2221 H2245 0.949 . S
H2222 C2226 0.949 . S
C2223 C2224 1.349 . S
C2223 C2225 1.327 . S
C2223 H2246 0.950 . S
C2224 C2223 1.349 . S
C2224 C2236 1.349 . S
C2225 C2223 1.327 . S
C2225 C2241 1.429 . S
C2225 H2247 0.950 . S
C2226 H2222 0.949 . S
C2226 C2234 1.574 . S
C2226 C2242 1.368 . S
H2227 C2235 0.950 . S
H2228 C2233 0.950 . S
H2229 C2234 0.949 . S
H2230 C2236 0.950 . S
H2231 C2237 0.950 . S
H2232 C2238 0.949 . S
C2233 H2228 0.950 . S
C2233 C2235 1.327 . S
C2233 C2239 1.429 . S
C2234 C2226 1.574 . S
C2234 H2229 0.949 . S
C2234 C2240 1.368 . S
C2235 C2219 1.349 . S
C2235 H2227 0.950 . S
C2235 C2233 1.327 . S
C2236 C2224 1.349 . S
C2236 H2230 0.950 . S
C2236 C2237 1.327 . S
C2237 H2231 0.950 . S
C2237 C2236 1.327 . S
C2237 C2241 1.429 . S
C2238 C2221 1.574 . S
C2238 H2232 0.949 . S
C2238 C2242 1.368 . S
C2239 C2220 1.429 . S
C2239 C2233 1.429 . S
C2239 C2240 1.523 . S
C2240 C2221 1.368 . S
C2240 C2234 1.368 . S
C2240 C2239 1.523 . S
C2241 C2225 1.429 . S
C2241 C2237 1.429 . S
C2241 C2242 1.523 . S
C2242 C2226 1.368 . S
C2242 C2238 1.368 . S
C2242 C2241 1.523 . S
H2243 C2218 0.950 . S
H2244 C2220 0.950 . S
H2245 C2221 0.949 . S
H2246 C2223 0.950 . S
H2247 C2225 0.950 . S
C2248 C2249 1.349 . S
C2248 C2250 1.327 . S
C2248 H2273 0.950 . S
C2249 C2248 1.349 . S
C2249 C2265 1.349 . S
C2250 C2248 1.327 . S
C2250 C2269 1.429 . S
C2250 H2274 0.950 . S
C2251 C2268 1.574 . S
C2251 C2270 1.368 . S
C2251 H2275 0.949 . S
H2252 C2256 0.949 . S
C2253 C2254 1.349 . S
C2253 C2255 1.327 1_556 S
C2253 H2276 0.950 . S
C2254 C2253 1.349 . S
C2254 C2266 1.349 1_556 S
C2255 C2253 1.327 1_554 S
C2255 C2271 1.429 . S
C2255 H2277 0.950 . S
C2256 H2252 0.949 . S
C2256 C2264 1.574 . S
C2256 C2272 1.368 . S
H2257 C2265 0.950 . S
H2258 C2263 0.950 . S
H2259 C2264 0.949 . S
H2260 C2266 0.950 . S
H2261 C2267 0.950 . S
H2262 C2268 0.949 . S
C2263 H2258 0.950 . S
C2263 C2265 1.327 . S
C2263 C2269 1.429 . S
C2264 C2256 1.574 . S
C2264 H2259 0.949 . S
C2264 C2270 1.368 . S
C2265 C2249 1.349 . S
C2265 H2257 0.950 . S
C2265 C2263 1.327 . S
C2266 C2254 1.349 1_554 S
C2266 H2260 0.950 . S
C2266 C2267 1.327 . S
C2267 H2261 0.950 . S
C2267 C2266 1.327 . S
C2267 C2271 1.429 . S
C2268 C2251 1.574 . S
C2268 H2262 0.949 . S
C2268 C2272 1.368 . S
C2269 C2250 1.429 . S
C2269 C2263 1.429 . S
C2269 C2270 1.523 . S
C2270 C2251 1.368 . S
C2270 C2264 1.368 . S
C2270 C2269 1.523 . S
C2271 C2255 1.429 . S
C2271 C2267 1.429 . S
C2271 C2272 1.523 . S
C2272 C2256 1.368 . S
C2272 C2268 1.368 . S
C2272 C2271 1.523 . S
H2273 C2248 0.950 . S
H2274 C2250 0.950 . S
H2275 C2251 0.949 . S
H2276 C2253 0.950 . S
H2277 C2255 0.950 . S
C2278 C2279 1.349 1_556 S
C2278 C2280 1.327 . S
C2278 H2303 0.950 . S
C2279 C2278 1.349 1_554 S
C2279 C2295 1.349 . S
C2280 C2278 1.327 . S
C2280 C2299 1.429 . S
C2280 H2304 0.950 . S
C2281 C2298 1.574 . S
C2281 C2300 1.368 . S
C2281 H2305 0.949 . S
H2282 C2286 0.949 . S
C2283 C2284 1.349 . S
C2283 C2285 1.327 . S
C2283 H2306 0.950 . S
C2284 C2283 1.349 . S
C2284 C2296 1.349 . S
C2285 C2283 1.327 . S
C2285 C2301 1.429 . S
C2285 H2307 0.950 . S
C2286 H2282 0.949 . S
C2286 C2294 1.574 . S
C2286 C2302 1.368 . S
H2287 C2295 0.950 . S
H2288 C2293 0.950 . S
H2289 C2294 0.949 . S
H2290 C2296 0.950 . S
H2291 C2297 0.950 . S
H2292 C2298 0.949 . S
C2293 H2288 0.950 . S
C2293 C2295 1.327 1_556 S
C2293 C2299 1.429 . S
C2294 C2286 1.574 . S
C2294 H2289 0.949 . S
C2294 C2300 1.368 . S
C2295 C2279 1.349 . S
C2295 H2287 0.950 . S
C2295 C2293 1.327 1_554 S
C2296 C2284 1.349 . S
C2296 H2290 0.950 . S
C2296 C2297 1.327 . S
C2297 H2291 0.950 . S
C2297 C2296 1.327 . S
C2297 C2301 1.429 . S
C2298 C2281 1.574 . S
C2298 H2292 0.949 . S
C2298 C2302 1.368 . S
C2299 C2280 1.429 . S
C2299 C2293 1.429 . S
C2299 C2300 1.523 . S
C2300 C2281 1.368 . S
C2300 C2294 1.368 . S
C2300 C2299 1.523 . S
C2301 C2285 1.429 . S
C2301 C2297 1.429 . S
C2301 C2302 1.523 . S
C2302 C2286 1.368 . S
C2302 C2298 1.368 . S
C2302 C2301 1.523 . S
H2303 C2278 0.950 . S
H2304 C2280 0.950 . S
H2305 C2281 0.949 . S
H2306 C2283 0.950 . S
H2307 C2285 0.950 . S
C2308 C2309 1.349 . S
C2308 C2310 1.327 . S
C2308 H2333 0.950 . S
C2309 C2308 1.349 . S
C2309 C2325 1.349 . S
C2310 C2308 1.327 . S
C2310 C2329 1.429 . S
C2310 H2334 0.950 . S
C2311 C2328 1.574 . S
C2311 C2330 1.368 . S
C2311 H2335 0.949 . S
H2312 C2316 0.949 . S
C2313 C2314 1.349 . S
C2313 C2315 1.327 . S
C2313 H2336 0.950 . S
C2314 C2313 1.349 . S
C2314 C2326 1.349 . S
C2315 C2313 1.327 . S
C2315 C2331 1.429 . S
C2315 H2337 0.950 . S
C2316 H2312 0.949 . S
C2316 C2324 1.574 . S
C2316 C2332 1.368 . S
H2317 C2325 0.950 . S
H2318 C2323 0.950 . S
H2319 C2324 0.949 . S
H2320 C2326 0.950 . S
H2321 C2327 0.950 . S
H2322 C2328 0.949 . S
C2323 H2318 0.950 . S
C2323 C2325 1.327 . S
C2323 C2329 1.429 . S
C2324 C2316 1.574 . S
C2324 H2319 0.949 . S
C2324 C2330 1.368 . S
C2325 C2309 1.349 . S
C2325 H2317 0.950 . S
C2325 C2323 1.327 . S
C2326 C2314 1.349 . S
C2326 H2320 0.950 . S
C2326 C2327 1.327 . S
C2327 H2321 0.950 . S
C2327 C2326 1.327 . S
C2327 C2331 1.429 . S
C2328 C2311 1.574 . S
C2328 H2322 0.949 . S
C2328 C2332 1.368 . S
C2329 C2310 1.429 . S
C2329 C2323 1.429 . S
C2329 C2330 1.523 . S
C2330 C2311 1.368 . S
C2330 C2324 1.368 . S
C2330 C2329 1.523 . S
C2331 C2315 1.429 . S
C2331 C2327 1.429 . S
C2331 C2332 1.523 . S
C2332 C2316 1.368 . S
C2332 C2328 1.368 . S
C2332 C2331 1.523 . S
H2333 C2308 0.950 . S
H2334 C2310 0.950 . S
H2335 C2311 0.949 . S
H2336 C2313 0.950 . S
H2337 C2315 0.950 . S
C2338 C2339 1.349 . S
C2338 C2340 1.327 . S
C2338 H2363 0.950 . S
C2339 C2338 1.349 . S
C2339 C2355 1.349 . S
C2340 C2338 1.327 . S
C2340 C2359 1.429 . S
C2340 H2364 0.950 . S
C2341 C2358 1.574 . S
C2341 C2360 1.368 . S
C2341 H2365 0.949 . S
H2342 C2346 0.949 . S
C2343 C2344 1.349 . S
C2343 C2345 1.327 . S
C2343 H2366 0.950 . S
C2344 C2343 1.349 . S
C2344 C2356 1.349 . S
C2345 C2343 1.327 . S
C2345 C2361 1.429 . S
C2345 H2367 0.950 . S
C2346 H2342 0.949 . S
C2346 C2354 1.574 . S
C2346 C2362 1.368 . S
H2347 C2355 0.950 . S
H2348 C2353 0.950 . S
H2349 C2354 0.949 . S
H2350 C2356 0.950 . S
H2351 C2357 0.950 . S
H2352 C2358 0.949 . S
C2353 H2348 0.950 . S
C2353 C2355 1.327 . S
C2353 C2359 1.429 . S
C2354 C2346 1.574 . S
C2354 H2349 0.949 . S
C2354 C2360 1.368 . S
C2355 C2339 1.349 . S
C2355 H2347 0.950 . S
C2355 C2353 1.327 . S
C2356 C2344 1.349 . S
C2356 H2350 0.950 . S
C2356 C2357 1.327 . S
C2357 H2351 0.950 . S
C2357 C2356 1.327 . S
C2357 C2361 1.429 . S
C2358 C2341 1.574 . S
C2358 H2352 0.949 . S
C2358 C2362 1.368 . S
C2359 C2340 1.429 . S
C2359 C2353 1.429 . S
C2359 C2360 1.523 . S
C2360 C2341 1.368 . S
C2360 C2354 1.368 . S
C2360 C2359 1.523 . S
C2361 C2345 1.429 . S
C2361 C2357 1.429 . S
C2361 C2362 1.523 . S
C2362 C2346 1.368 . S
C2362 C2358 1.368 . S
C2362 C2361 1.523 . S
H2363 C2338 0.950 . S
H2364 C2340 0.950 . S
H2365 C2341 0.949 . S
H2366 C2343 0.950 . S
H2367 C2345 0.950 . S
C449 C93 1.280 . S
C454 C9 1.280 . S
C479 C23 1.279 . S
C484 C107 1.279 . S
C509 C65 1.279 . S
C514 C37 1.279 . S
C539 C51 1.280 . S
C544 C79 1.280 . S
C569 C121 1.280 . S
C574 C205 1.280 . S
C599 C219 1.279 . S
C604 C135 1.279 . S
C629 C149 1.279 . S
C634 C177 1.279 . S
C659 C191 1.280 . S
C664 C163 1.280 . S
C689 C233 1.280 . S
C694 C317 1.280 . S
C719 C247 1.280 . S
C724 C331 1.280 . S
C749 C289 1.280 . S
C754 C261 1.280 . S
C779 C303 1.280 . S
C784 C275 1.280 . S
C809 C345 1.280 . S
C814 C429 1.280 . S
C839 C359 1.280 . S
C844 C443 1.280 . S
C869 C401 1.280 . S
C874 C373 1.280 . S
C899 C387 1.280 . S
C904 C415 1.280 . S
C929 C6 1.243 . S
C934 C104 1.243 . S
C959 C62 1.243 . S
C964 C20 1.243 . S
C989 C76 1.243 . S
C994 C34 1.243 . S
C1019 C48 1.243 . S
C1024 C90 1.243 . S
C1049 C118 1.243 . S
C1054 C216 1.243 . S
C1079 C174 1.243 . S
C1084 C132 1.243 . S
C1109 C188 1.243 . S
C1114 C146 1.243 . S
C1139 C202 1.243 . S
C1144 C160 1.243 . S
C1169 C230 1.243 . S
C1174 C328 1.243 . S
C1199 C244 1.243 . S
C1204 C286 1.243 . S
C1229 C300 1.243 . S
C1234 C258 1.243 . S
C1259 C272 1.243 . S
C1264 C314 1.243 . S
C1289 C342 1.243 . S
C1294 C440 1.243 . S
C1319 C398 1.243 . S
C1324 C356 1.243 . S
C1349 C370 1.243 . S
C1354 C412 1.243 . S
C1379 C384 1.243 . S
C1384 C426 1.243 . S
C1409 C427 1.636 . S
C1414 C7 1.636 . S
C1439 C217 1.636 . S
C1444 C21 1.636 . S
C1469 C35 1.636 . S
C1474 C399 1.636 . S
C1499 C49 1.636 . S
C1504 C189 1.636 . S
C1529 C63 1.636 . S
C1534 C371 1.636 . S
C1559 C77 1.636 . S
C1564 C161 1.636 . S
C1589 C91 1.636 . S
C1594 C343 1.636 . S
C1619 C133 1.636 . S
C1624 C105 1.636 . S
C1649 C315 1.636 . S
C1654 C119 1.636 . S
C1679 C147 1.636 . S
C1684 C287 1.636 . S
C1709 C259 1.636 . S
C1714 C175 1.636 . S
C1739 C231 1.636 . S
C1744 C203 1.636 . S
C1769 C245 1.636 . S
C1774 C441 1.636 . S
C1799 C273 1.636 . S
C1804 C413 1.636 . S
C1829 C301 1.636 . S
C1834 C385 1.636 . S
C1859 C357 1.636 . S
C1864 C329 1.636 . S
C1889 C8 2.141 . S
C1894 C106 2.141 . S
C1919 C22 2.141 . S
C1924 C64 2.141 . S
C1949 C78 2.141 . S
C1954 C36 2.141 . S
C1979 C50 2.140 . S
C1984 C92 2.140 . S
C2009 C218 2.141 . S
C2014 C120 2.141 . S
C2039 C176 2.141 . S
C2044 C134 2.141 . S
C2069 C148 2.141 . S
C2074 C190 2.141 . S
C2099 C204 2.140 . S
C2104 C162 2.140 . S
C2129 C330 2.141 . S
C2134 C232 2.141 . S
C2159 C288 2.141 . S
C2164 C246 2.141 . S
C2189 C302 2.140 . S
C2194 C260 2.140 . S
C2219 C316 2.140 . S
C2224 C274 2.140 . S
C2249 C344 2.141 . S
C2254 C442 2.141 . S
C2279 C358 2.141 . S
C2284 C400 2.141 . S
C2309 C372 2.140 . S
C2314 C414 2.140 . S
C2339 C428 2.140 . S
C2344 C386 2.140 . S
