# Generated by pormake.
# Topology vby, (6)-cn, num edge types: 1
# Building blocks:
#     Node 0, Type 0, BuildingBlock: BETFAJ_clean_sbu_0, # of connection points: 6
#     Node 1, Type 0, BuildingBlock: BETFAJ_clean_sbu_0, # of connection points: 6
#     Node 2, Type 0, BuildingBlock: BETFAJ_clean_sbu_0, # of connection points: 6
#     Node 3, Type 0, BuildingBlock: BETFAJ_clean_sbu_0, # of connection points: 6
#     Node 4, Type 0, BuildingBlock: BETFAJ_clean_sbu_0, # of connection points: 6
#     Node 5, Type 0, BuildingBlock: BETFAJ_clean_sbu_0, # of connection points: 6
#     Node 6, Type 0, BuildingBlock: BETFAJ_clean_sbu_0, # of connection points: 6
#     Node 7, Type 0, BuildingBlock: BETFAJ_clean_sbu_0, # of connection points: 6
#     Edge 8, Type (0, 0), BuildingBlock: OJICUG_clean_linker_0, # of connection points: 2
#     Edge 9, Type (0, 0), BuildingBlock: OJICUG_clean_linker_0, # of connection points: 2
#     Edge 10, Type (0, 0), BuildingBlock: OJICUG_clean_linker_0, # of connection points: 2
#     Edge 11, Type (0, 0), BuildingBlock: OJICUG_clean_linker_0, # of connection points: 2
#     Edge 12, Type (0, 0), BuildingBlock: OJICUG_clean_linker_0, # of connection points: 2
#     Edge 13, Type (0, 0), BuildingBlock: OJICUG_clean_linker_0, # of connection points: 2
#     Edge 14, Type (0, 0), BuildingBlock: OJICUG_clean_linker_0, # of connection points: 2
#     Edge 15, Type (0, 0), BuildingBlock: OJICUG_clean_linker_0, # of connection points: 2
#     Edge 16, Type (0, 0), BuildingBlock: OJICUG_clean_linker_0, # of connection points: 2
#     Edge 17, Type (0, 0), BuildingBlock: OJICUG_clean_linker_0, # of connection points: 2
#     Edge 18, Type (0, 0), BuildingBlock: OJICUG_clean_linker_0, # of connection points: 2
#     Edge 19, Type (0, 0), BuildingBlock: OJICUG_clean_linker_0, # of connection points: 2
#     Edge 20, Type (0, 0), BuildingBlock: OJICUG_clean_linker_0, # of connection points: 2
#     Edge 21, Type (0, 0), BuildingBlock: OJICUG_clean_linker_0, # of connection points: 2
#     Edge 22, Type (0, 0), BuildingBlock: OJICUG_clean_linker_0, # of connection points: 2
#     Edge 23, Type (0, 0), BuildingBlock: OJICUG_clean_linker_0, # of connection points: 2
#     Edge 24, Type (0, 0), BuildingBlock: OJICUG_clean_linker_0, # of connection points: 2
#     Edge 25, Type (0, 0), BuildingBlock: OJICUG_clean_linker_0, # of connection points: 2
#     Edge 26, Type (0, 0), BuildingBlock: OJICUG_clean_linker_0, # of connection points: 2
#     Edge 27, Type (0, 0), BuildingBlock: OJICUG_clean_linker_0, # of connection points: 2
#     Edge 28, Type (0, 0), BuildingBlock: OJICUG_clean_linker_0, # of connection points: 2
#     Edge 29, Type (0, 0), BuildingBlock: OJICUG_clean_linker_0, # of connection points: 2
#     Edge 30, Type (0, 0), BuildingBlock: OJICUG_clean_linker_0, # of connection points: 2
#     Edge 31, Type (0, 0), BuildingBlock: OJICUG_clean_linker_0, # of connection points: 2
# Relax obj value: 0.205
# Max RMSD: 0.224
# Mean RMSD: 0.224
data_MOF--net-vby--node1-BETFAJ_clean_sbu_0--edge1-OJICUG_clean_linker_0
_symmetry_space_group_name_H-M    P1
_symmetry_Int_Tables_number       1
_symmetry_cell_setting            triclinic
loop_
_symmetry_equiv_pos_as_xyz
'x, y, z'
_cell_length_a     11.469771
_cell_length_b     89.015981
_cell_length_c     21.528528
_cell_angle_alpha  90.018804
_cell_angle_beta   85.372009
_cell_angle_gamma 90.050341
loop_
_atom_site_label
_atom_site_type_symbol
_atom_site_fract_x
_atom_site_fract_y
_atom_site_fract_z
_atom_type_partial_charge
Sm0 Sm 0.10158 0.40319 0.0117 0.0
Sm1 Sm 0.10565 0.36939 0.01576 0.0
C2 C 0.0655 0.43247 0.00577 0.0
C3 C 0.04924 0.44895 0.00824 0.0
C4 C 1.02899 0.45703 0.95428 0.0
C5 C 1.02135 0.47274 0.95574 0.0
C6 C 1.03611 0.48079 0.01103 0.0
C7 C 0.05238 0.47253 0.06557 0.0
C8 C 0.05805 0.45681 0.06423 0.0
C9 C 0.1175 0.39103 0.12973 0.0
C10 C 0.85458 0.38542 0.00944 0.0
C11 C 0.1199 0.34101 0.05307 0.0
C12 C 0.17469 0.32609 0.03926 0.0
C13 C 0.2234 0.31828 0.08753 0.0
C14 C 0.25989 0.30333 0.07961 0.0
C15 C 0.24865 0.29573 0.02305 0.0
C16 C 0.2065 0.30387 0.97328 0.0
C17 C 0.16955 0.31887 0.98133 0.0
C18 C 0.11039 0.37627 0.89029 0.0
C19 C 0.35441 0.38789 0.00316 0.0
O20 O 0.12458 0.42527 0.96042 0.0
O21 O 1.02593 0.42411 0.05265 0.0
O22 O 0.05088 0.38647 0.08977 0.0
O23 O 0.18234 0.40184 0.10604 0.0
O24 O 0.91339 0.39752 0.99106 0.0
O25 O 0.90691 0.37346 0.03037 0.0
O26 O 0.1856 0.35178 0.07274 0.0
O27 O 1.04097 0.34584 0.01717 0.0
O28 O 0.10634 0.38625 0.93268 0.0
O29 O 0.12424 0.36311 0.9137 0.0
O30 O 0.29877 0.37572 0.02384 0.0
O31 O 0.29816 0.39993 0.98634 0.0
H32 H 1.01997 0.45118 0.91078 0.0
H33 H 1.00486 0.47856 0.91321 0.0
H34 H 0.06507 0.47817 0.10905 0.0
H35 H 0.07336 0.45082 0.10663 0.0
H36 H 0.22937 0.32359 0.13246 0.0
H37 H 0.29487 0.29763 0.11844 0.0
H38 H 0.19695 0.29846 0.92892 0.0
H39 H 0.13333 0.32461 0.94293 0.0
Sm40 Sm 0.99082 0.65774 0.00726 0.0
Sm41 Sm 0.99249 0.62381 0.01463 0.0
C42 C 0.97618 0.68606 0.96926 0.0
C43 C 0.92244 0.70101 0.98444 0.0
C44 C 0.8626 0.70842 0.93904 0.0
C45 C 0.82561 0.72334 0.94761 0.0
C46 C 0.84778 0.73135 0.00187 0.0
C47 C 0.90147 0.72359 0.04912 0.0
C48 C 0.9386 0.70862 0.04047 0.0
C49 C 0.98531 0.65127 0.13359 0.0
C50 C 0.74163 0.63929 0.01924 0.0
C51 C 1.0408 0.59489 0.02632 0.0
C52 C 1.04478 0.57833 0.02038 0.0
C53 C 0.06713 0.56984 0.07286 0.0
C54 C 0.07387 0.55418 0.06969 0.0
C55 C 0.05658 0.5465 0.01396 0.0
C56 C 1.03842 0.55511 0.9605 0.0
C57 C 1.03307 0.57088 0.96362 0.0
C58 C 0.97919 0.63539 0.89519 0.0
C59 C 0.23817 0.64159 0.01669 0.0
O60 O 0.90822 0.67532 0.9514 0.0
O61 O 0.05826 0.68117 0.00308 0.0
O62 O 0.98817 0.64128 0.09138 0.0
O63 O 0.97493 0.6644 0.10937 0.0
O64 O 0.7997 0.65111 0.99652 0.0
O65 O 0.7962 0.62746 0.03975 0.0
O66 O 0.96407 0.60177 0.06474 0.0
O67 O 0.08643 0.60328 0.98088 0.0
O68 O 1.045 0.64013 0.9352 0.0
O69 O 0.91583 0.62443 0.91894 0.0
O70 O 0.17583 0.63031 0.04079 0.0
O71 O 0.18773 0.65295 0.99002 0.0
H72 H 0.84788 0.70282 0.89567 0.0
H73 H 0.78152 0.7287 0.91093 0.0
H74 H 0.91979 0.72928 0.09171 0.0
H75 H 0.98345 0.7032 0.07675 0.0
H76 H 0.07987 0.57537 0.11666 0.0
H77 H 0.09244 0.5481 0.11131 0.0
H78 H 1.02497 0.5497 0.91662 0.0
H79 H 1.01819 0.57721 0.92202 0.0
Sm80 Sm 0.10426 0.6577 0.51775 0.0
Sm81 Sm 0.10206 0.62373 0.51013 0.0
C82 C 0.11949 0.68604 0.55563 0.0
C83 C 0.17312 0.70099 0.54004 0.0
C84 C 0.23679 0.70827 0.58429 0.0
C85 C 0.27377 0.7232 0.57561 0.0
C86 C 0.2475 0.73138 0.52247 0.0
C87 C 0.1899 0.72375 0.47623 0.0
C88 C 0.15303 0.70876 0.48493 0.0
C89 C 0.1097 0.65124 0.3914 0.0
C90 C 0.35313 0.63922 0.5058 0.0
C91 C 0.05289 0.59483 0.49776 0.0
C92 C 0.05018 0.57826 0.50377 0.0
C93 C 1.02824 0.56973 0.4513 0.0
C94 C 1.02211 0.55406 0.45447 0.0
C95 C 1.03924 0.54643 0.51025 0.0
C96 C 0.0572 0.55507 0.56371 0.0
C97 C 0.06225 0.57085 0.56055 0.0
C98 C 0.11548 0.63528 0.62966 0.0
C99 C 0.85671 0.64155 0.50826 0.0
O100 O 0.18771 0.67532 0.57324 0.0
O101 O 1.03672 0.68112 0.52231 0.0
O102 O 0.10672 0.64125 0.4336 0.0
O103 O 0.12018 0.66437 0.41566 0.0
O104 O 0.29518 0.65105 0.52848 0.0
O105 O 0.29847 0.62739 0.48527 0.0
O106 O 0.13004 0.60175 0.45967 0.0
O107 O 1.00726 0.60318 0.54333 0.0
O108 O 0.04992 0.64005 0.58964 0.0
O109 O 0.17829 0.62428 0.60594 0.0
O110 O 0.91889 0.63027 0.4841 0.0
O111 O 0.90731 0.65291 0.53495 0.0
H112 H 0.2546 0.70256 0.62694 0.0
H113 H 0.32105 0.72843 0.61143 0.0
H114 H 0.16824 0.72955 0.43449 0.0
H115 H 0.10519 0.70345 0.44949 0.0
H116 H 1.01521 0.57523 0.4075 0.0
H117 H 1.00389 0.54794 0.41288 0.0
H118 H 0.07044 0.54966 0.60762 0.0
H119 H 0.07688 0.5772 0.60214 0.0
Sm120 Sm 0.99214 0.40345 0.51433 0.0
Sm121 Sm 0.98963 0.36936 0.50703 0.0
C122 C 1.04147 0.43234 0.5269 0.0
C123 C 1.04415 0.44891 0.52095 0.0
C124 C 0.06608 0.45743 0.57346 0.0
C125 C 0.07227 0.4731 0.57033 0.0
C126 C 0.05522 0.48074 0.51457 0.0
C127 C 1.03726 0.47211 0.46108 0.0
C128 C 1.03214 0.45633 0.46419 0.0
C129 C 0.97934 0.39187 0.39499 0.0
C130 C 0.23729 0.38555 0.51654 0.0
C131 C 0.97521 0.341 0.46932 0.0
C132 C 0.92148 0.32605 0.48443 0.0
C133 C 0.86302 0.31853 0.4387 0.0
C134 C 0.82613 0.3036 0.44729 0.0
C135 C 0.84698 0.29568 0.50192 0.0
C136 C 0.89933 0.30353 0.54944 0.0
C137 C 0.9364 0.31851 0.54076 0.0
C138 C 0.98302 0.37602 0.63322 0.0
C139 C 0.74095 0.3879 0.51857 0.0
O140 O 0.96432 0.42541 0.56497 0.0
O141 O 0.08701 0.424 0.48126 0.0
O142 O 1.04416 0.38701 0.43521 0.0
O143 O 0.91702 0.40296 0.41834 0.0
O144 O 0.17524 0.39687 0.54047 0.0
O145 O 0.18664 0.37417 0.49004 0.0
O146 O 0.90743 0.35172 0.45115 0.0
O147 O 0.05689 0.34593 0.50335 0.0
O148 O 0.9864 0.38592 0.5907 0.0
O149 O 0.97266 0.36284 0.6093 0.0
O150 O 0.79879 0.37605 0.49608 0.0
O151 O 0.79562 0.39977 0.53893 0.0
H152 H 0.07906 0.45192 0.61725 0.0
H153 H 0.09049 0.47921 0.61194 0.0
H154 H 1.02407 0.47753 0.41718 0.0
H155 H 1.01753 0.44999 0.42258 0.0
H156 H 0.84932 0.32407 0.39507 0.0
H157 H 0.78311 0.29817 0.41035 0.0
H158 H 0.91663 0.2979 0.59232 0.0
H159 H 0.98022 0.32401 0.57729 0.0
Sm160 Sm 0.60289 0.90364 0.01025 0.0
Sm161 Sm 0.6051 0.86954 0.01731 0.0
C162 C 0.55513 0.93257 -0.00123 0.0
C163 C 0.55083 0.94913 0.00441 0.0
C164 C 0.53027 0.95757 0.95153 0.0
C165 C 0.52354 0.97324 0.95444 0.0
C166 C 0.53845 0.98092 0.0104 0.0
C167 C 0.55478 0.97237 0.06421 0.0
C168 C 0.56062 0.9566 0.06129 0.0
C169 C 0.61572 0.89196 0.12927 0.0
C170 C 0.3573 0.88574 0.00807 0.0
C171 C 0.61944 0.84118 0.05488 0.0
C172 C 0.67313 0.82622 0.03983 0.0
C173 C 0.7326 0.8188 0.08536 0.0
C174 C 0.76941 0.80387 0.07691 0.0
C175 C 0.74743 0.79586 0.02264 0.0
C176 C 0.69406 0.80361 0.97528 0.0
C177 C 0.65711 0.8186 0.98381 0.0
C178 C 0.61189 0.87631 0.89122 0.0
C179 C 0.85391 0.88811 0.00571 0.0
O180 O 0.63043 0.92564 0.95967 0.0
O181 O 0.51057 0.92422 0.04461 0.0
O182 O 0.55065 0.88716 0.08905 0.0
O183 O 0.67861 0.90302 0.10607 0.0
O184 O 0.4193 0.89709 0.98417 0.0
O185 O 0.40791 0.87437 0.03461 0.0
O186 O 0.68722 0.8519 0.0731 0.0
O187 O 0.53781 0.84609 0.02082 0.0
O188 O 0.60863 0.88614 0.93394 0.0
O189 O 0.62197 0.8631 0.91486 0.0
O190 O 0.7961 0.87629 0.02868 0.0
O191 O 0.79922 0.89992 0.98503 0.0
H192 H 0.51908 0.95201 0.90761 0.0
H193 H 0.50686 0.97932 0.91255 0.0
H194 H 0.56636 0.97784 0.10822 0.0
H195 H 0.57425 0.95031 0.10315 0.0
H196 H 0.74715 0.82441 0.12875 0.0
H197 H 0.81323 0.79851 0.11369 0.0
H198 H 0.67585 0.79792 0.93268 0.0
H199 H 0.6125 0.82402 0.94743 0.0
Sm200 Sm 0.48924 0.15771 0.00791 0.0
Sm201 Sm 0.49105 0.12383 0.01488 0.0
C202 C 0.47541 0.18603 0.96995 0.0
C203 C 0.42129 0.20097 0.98427 0.0
C204 C 0.37149 0.20881 0.93645 0.0
C205 C 0.33481 0.22373 0.9448 0.0
C206 C 0.34693 0.23129 0.00137 0.0
C207 C 0.39007 0.22312 0.05078 0.0
C208 C 0.42727 0.20814 0.04228 0.0
C209 C 0.48367 0.15116 0.13411 0.0
C210 C 0.24014 0.1393 0.01994 0.0
C211 C 0.53682 0.09484 0.02532 0.0
C212 C 0.54312 0.07829 0.01997 0.0
C213 C 0.56353 0.0699 0.07304 0.0
C214 C 0.57047 0.05423 0.07034 0.0
C215 C 0.55592 0.0465 0.01444 0.0
C216 C 0.53993 0.055 0.96047 0.0
C217 C 0.5339 0.07076 0.96316 0.0
C218 C 0.47788 0.13552 0.89569 0.0
C219 C 0.73701 0.14156 0.01714 0.0
O220 O 0.40825 0.17529 0.95137 0.0
O221 O 0.55591 0.18118 0.00485 0.0
O222 O 0.48666 0.1412 0.09185 0.0
O223 O 0.47272 0.16431 0.11007 0.0
O224 O 0.29797 0.15109 0.99678 0.0
O225 O 0.29495 0.12752 0.04068 0.0
O226 O 0.46264 0.10176 0.06502 0.0
O227 O 0.58157 0.10323 0.97967 0.0
O228 O 0.54388 0.14018 0.93572 0.0
O229 O 0.4138 0.12462 0.91935 0.0
O230 O 0.67495 0.13022 0.04096 0.0
O231 O 0.68642 0.15293 0.99058 0.0
H232 H 0.3647 0.20354 0.89151 0.0
H233 H 0.29902 0.22947 0.90627 0.0
H234 H 0.40019 0.22849 0.09515 0.0
H235 H 0.46419 0.20236 0.08037 0.0
H236 H 0.57413 0.0755 0.11692 0.0
H237 H 0.58685 0.04818 0.11237 0.0
H238 H 0.52854 0.0495 0.91651 0.0
H239 H 0.5202 0.07701 0.92121 0.0
Sm240 Sm 0.60262 0.15757 0.51738 0.0
Sm241 Sm 0.60239 0.12384 0.51174 0.0
C242 C 0.61605 0.18592 0.55529 0.0
C243 C 0.67018 0.20087 0.54044 0.0
C244 C 0.72857 0.20833 0.58633 0.0
C245 C 0.76583 0.22325 0.57789 0.0
C246 C 0.74542 0.2312 0.52327 0.0
C247 C 0.69313 0.2234 0.47562 0.0
C248 C 0.65573 0.20843 0.48413 0.0
C249 C 0.60913 0.15099 0.39146 0.0
C250 C 0.85234 0.13948 0.50554 0.0
C251 C 0.56751 0.09457 0.50515 0.0
C252 C 0.55023 0.07813 0.50713 0.0
C253 C 0.54196 0.06997 0.45198 0.0
C254 C 0.53437 0.05427 0.45347 0.0
C255 C 0.53647 0.04639 0.51013 0.0
C256 C 0.54033 0.05469 0.56561 0.0
C257 C 0.54672 0.0704 0.56411 0.0
C258 C 0.61559 0.13578 0.63052 0.0
C259 C 0.35533 0.14107 0.50911 0.0
O260 O 0.68339 0.17521 0.57386 0.0
O261 O 0.5352 0.18099 0.52073 0.0
O262 O 0.60603 0.14093 0.43343 0.0
O263 O 0.61963 0.16414 0.41559 0.0
O264 O 0.79411 0.15135 0.52726 0.0
O265 O 0.79786 0.12751 0.48641 0.0
O266 O 0.6332 0.10168 0.46203 0.0
O267 O 0.52053 0.10301 0.55003 0.0
O268 O 0.54886 0.14024 0.59054 0.0
O269 O 0.68124 0.12506 0.60676 0.0
O270 O 0.41693 0.12947 0.48763 0.0
O271 O 0.40602 0.15279 0.53313 0.0
H272 H 0.74194 0.20277 0.62994 0.0
H273 H 0.80878 0.22865 0.61493 0.0
H274 H 0.67613 0.22905 0.43275 0.0
H275 H 0.612 0.20297 0.44749 0.0
H276 H 0.54272 0.07572 0.40762 0.0
H277 H 0.52829 0.04829 0.41003 0.0
H278 H 0.5429 0.04906 0.61005 0.0
H279 H 0.55295 0.07646 0.60737 0.0
Sm280 Sm 0.49226 0.90346 0.51065 0.0
Sm281 Sm 0.49002 0.86977 0.50968 0.0
C282 C 0.52523 0.93281 0.51581 0.0
C283 C 0.5431 0.94926 0.51519 0.0
C284 C 0.5521 0.95724 0.5708 0.0
C285 C 0.56023 0.97295 0.5702 0.0
C286 C 0.55821 0.98101 0.51398 0.0
C287 C 0.55352 0.9729 0.45811 0.0
C288 C 0.54651 0.95721 0.45871 0.0
C289 C 0.47496 0.89085 0.3939 0.0
C290 C 0.74149 0.88612 0.51297 0.0
C291 C 0.47582 0.84136 0.47265 0.0
C292 C 0.42087 0.82645 0.48732 0.0
C293 C 0.35911 0.81922 0.44212 0.0
C294 C 0.32209 0.80427 0.45005 0.0
C295 C 0.34651 0.79602 0.50335 0.0
C296 C 0.40238 0.80359 0.55037 0.0
C297 C 0.43912 0.8186 0.54246 0.0
C298 C 0.48517 0.87694 0.63421 0.0
C299 C 0.2401 0.888 0.52274 0.0
O300 O 0.47399 0.92536 0.56292 0.0
O301 O 0.55924 0.92464 0.46735 0.0
O302 O 0.54249 0.88651 0.43381 0.0
O303 O 0.40936 0.90162 0.41725 0.0
O304 O 0.68383 0.8987 0.52412 0.0
O305 O 0.68873 0.87346 0.50015 0.0
O306 O 0.41016 0.8521 0.4528 0.0
O307 O 0.55526 0.84628 0.50808 0.0
O308 O 0.48932 0.88698 0.59187 0.0
O309 O 0.4704 0.86374 0.61125 0.0
O310 O 0.29545 0.87546 0.50699 0.0
O311 O 0.29596 0.9005 0.53392 0.0
H312 H 0.55153 0.95135 0.61484 0.0
H313 H 0.56678 0.97878 0.61392 0.0
H314 H 0.55082 0.97867 0.41398 0.0
H315 H 0.53973 0.95133 0.41507 0.0
H316 H 0.34297 0.82499 0.39934 0.0
H317 H 0.27622 0.79909 0.41357 0.0
H318 H 0.42287 0.79775 0.59221 0.0
H319 H 0.48566 0.82384 0.57856 0.0
C320 C 0.55377 0.38424 0.9498 0.0
C321 C 0.48266 0.38812 0.00349 0.0
H322 H 0.7291 0.38019 0.91002 0.0
C323 C 0.53432 0.39081 0.05939 0.0
H324 H 0.5152 0.38191 0.90651 0.0
C325 C 0.65569 0.38965 0.06158 0.0
C326 C 0.72668 0.38568 0.008 0.0
H327 H 0.48061 0.39369 0.10143 0.0
H328 H 0.69422 0.39193 0.10495 0.0
C329 C 0.67528 0.38311 0.95197 0.0
C330 C 0.41886 0.63212 0.06214 0.0
C331 C 0.36679 0.64105 0.01801 0.0
H332 H 0.57872 0.62455 0.09739 0.0
C333 C 0.43887 0.64901 0.97377 0.0
H334 H 0.36528 0.62588 0.09698 0.0
C335 C 0.56046 0.6482 0.97396 0.0
C336 C 0.61276 0.63941 0.01841 0.0
H337 H 0.40141 0.65572 0.93843 0.0
H338 H 0.6137 0.6544 0.93887 0.0
C339 C 0.54085 0.63129 0.0623 0.0
C340 C 0.65616 0.64928 0.55015 0.0
C341 C 0.72806 0.64101 0.50695 0.0
H342 H 0.48156 0.65493 0.58427 0.0
C343 C 0.67576 0.63176 0.46388 0.0
H344 H 0.69375 0.65625 0.58467 0.0
C345 C 0.55376 0.63094 0.46375 0.0
C346 C 0.48204 0.63937 0.5066 0.0
H347 H 0.72913 0.62527 0.42986 0.0
H348 H 0.51576 0.62393 0.42949 0.0
C349 C 0.53458 0.64847 0.54998 0.0
C350 C 0.54034 0.39601 0.56139 0.0
C351 C 0.61203 0.38776 0.51787 0.0
H352 H 0.36496 0.40152 0.59591 0.0
C353 C 0.55942 0.37882 0.47397 0.0
H354 H 0.57842 0.40288 0.59607 0.0
C355 C 0.43781 0.37799 0.47393 0.0
C356 C 0.36596 0.38609 0.51778 0.0
H357 H 0.61245 0.37251 0.43919 0.0
H358 H 0.40014 0.37117 0.43899 0.0
C359 C 0.41832 0.39517 0.56138 0.0
C360 C 1.03462 0.88085 0.05548 0.0
C361 C 0.98273 0.88806 0.00653 0.0
H362 H 0.19376 0.87454 0.09446 0.0
C363 C 0.05494 0.89453 0.95799 0.0
H364 H 0.98088 0.87596 0.094 0.0
C365 C 0.17697 0.89363 0.95815 0.0
C366 C 0.22865 0.88626 0.00685 0.0
H367 H 1.01716 0.89997 0.91934 0.0
H368 H 0.23096 0.89854 0.91978 0.0
C369 C 0.1563 0.87995 0.05565 0.0
C370 C 0.05963 0.14639 0.96972 0.0
C371 C 0.11139 0.13932 0.01904 0.0
H372 H 0.90056 0.15257 0.93036 0.0
C373 C 1.03913 0.13296 0.06782 0.0
H374 H 0.11344 0.15119 0.93102 0.0
C375 C 0.91713 0.13383 0.06753 0.0
C376 C 0.86558 0.14107 0.01846 0.0
H377 H 0.07687 0.12763 0.10673 0.0
H378 H 0.86305 0.12902 0.10608 0.0
C379 C 0.93797 0.14726 0.96943 0.0
C380 C 0.17236 0.12881 0.47741 0.0
C381 C 0.22691 0.14065 0.50744 0.0
H382 H 1.01101 0.1191 0.45309 0.0
C383 C 0.15738 0.15192 0.53687 0.0
H384 H 0.22362 0.11991 0.45431 0.0
C385 C 1.03606 0.15144 0.53612 0.0
C386 C 0.98121 0.13968 0.50587 0.0
H387 H 0.19644 0.16111 0.56093 0.0
H388 H 0.98531 0.16031 0.5597 0.0
C389 C 0.05057 0.12831 0.4767 0.0
C390 C 0.92688 0.87488 0.54399 0.0
C391 C 0.86901 0.8865 0.51516 0.0
H392 H 0.09104 0.86654 0.57044 0.0
C393 C 0.93316 0.89892 0.49081 0.0
H394 H 0.87852 0.86537 0.56415 0.0
C395 C 0.05398 0.89966 0.49487 0.0
C396 C 0.11197 0.88799 0.52342 0.0
H397 H 0.89001 0.90794 0.46787 0.0
H398 H 0.10241 0.90911 0.4742 0.0
C399 C 0.04769 0.87562 0.54803 0.0
C400 C 0.09281 0.52145 0.95945 0.0
C401 C 0.05252 0.52964 0.01285 0.0
H402 H 0.12089 0.49989 0.91708 0.0
C403 C 1.00553 0.52157 0.06536 0.0
H404 H 0.13129 0.52715 0.91835 0.0
C405 C 0.9989 0.50587 0.06457 0.0
C406 C 1.03938 0.49765 0.01127 0.0
H407 H 0.97114 0.52738 0.10706 0.0
H408 H 0.96016 0.50022 0.10573 0.0
C409 C 0.08637 0.50571 0.95869 0.0
C410 C 1.00332 0.50574 0.56528 0.0
C411 C 0.05211 0.49759 0.51334 0.0
H412 H 0.95859 0.52724 0.60496 0.0
C413 C 0.09603 0.5057 0.46046 0.0
H414 H 0.96638 0.49996 0.60654 0.0
C415 C 0.09126 0.52143 0.45957 0.0
C416 C 1.04245 0.52958 0.5115 0.0
H417 H 0.13599 0.49993 0.41989 0.0
H418 H 0.1282 0.52721 0.41832 0.0
C419 C 0.99856 0.52147 0.5644 0.0
C420 C 0.49443 1.00587 0.06361 0.0
C421 C 0.54172 0.99774 0.01152 0.0
H422 H 0.46036 0.02742 0.10508 0.0
C423 C 0.5945 1.00582 0.96042 0.0
H424 H 0.45147 1.00012 0.10346 0.0
C425 C 0.59996 0.02154 0.96136 0.0
C426 C 0.55269 0.02968 0.01345 0.0
H427 H 0.63397 1.0 0.91987 0.0
H428 H 0.64294 0.02729 0.92151 0.0
C429 C 0.49987 0.0216 0.06455 0.0
C430 C 0.60725 0.02172 0.46387 0.0
C431 C 0.54072 0.02962 0.51099 0.0
H432 H 0.66759 1.00039 0.42851 0.0
C433 C 0.48172 0.02137 0.55967 0.0
H434 H 0.65593 0.02767 0.42633 0.0
C435 C 0.48886 1.00568 0.56104 0.0
C436 C 0.55508 0.99778 0.51378 0.0
H437 H 0.42847 0.02702 0.59637 0.0
H438 H 0.44018 0.99971 0.59855 0.0
C439 C 0.61438 1.00604 0.46525 0.0
C440 C 0.24354 0.26938 0.06735 0.0
C441 C 0.27502 0.27923 0.01748 0.0
H442 H 0.23929 0.24671 0.10143 0.0
C443 C 0.32967 0.27311 0.96235 0.0
H444 H 0.19925 0.27359 0.11017 0.0
C445 C 0.35227 0.25764 0.95731 0.0
C446 C 0.32075 0.24778 0.00715 0.0
H447 H 0.35666 0.2803 0.92323 0.0
H448 H 0.39651 0.25343 0.91448 0.0
C449 C 0.2662 0.25391 0.06232 0.0
C450 C 0.81493 0.77286 0.95985 0.0
C451 C 0.7745 0.77935 0.01721 0.0
H452 H 0.871 0.75294 0.91027 0.0
C453 C 0.75748 0.76982 0.06952 0.0
H454 H 0.83078 0.77976 0.91864 0.0
C455 C 0.7803 0.75435 0.06471 0.0
C456 C 0.8207 0.74785 0.00735 0.0
H457 H 0.72421 0.77427 0.1143 0.0
H458 H 0.76449 0.74744 0.10592 0.0
C459 C 0.83773 0.75738 0.95504 0.0
C460 C 0.30743 0.75468 0.45941 0.0
C461 C 0.27425 0.74792 0.51728 0.0
H462 H 0.35755 0.7748 0.40969 0.0
C463 C 0.26375 0.75722 0.57048 0.0
H464 H 0.31813 0.74796 0.4174 0.0
C465 C 0.28585 0.77272 0.56605 0.0
C466 C 0.31929 0.77949 0.50823 0.0
H467 H 0.23599 0.7526 0.61578 0.0
H468 H 0.27492 0.77942 0.60809 0.0
C469 C 0.3297 0.77018 0.45499 0.0
C470 C 0.77766 0.27276 0.56479 0.0
C471 C 0.8198 0.27918 0.50757 0.0
H472 H 0.71986 0.25291 0.61439 0.0
C473 C 0.83831 0.26958 0.45556 0.0
H474 H 0.76071 0.27973 0.60576 0.0
C475 C 0.81518 0.25411 0.46051 0.0
C476 C 0.77294 0.2477 0.51772 0.0
H477 H 0.87293 0.27397 0.41091 0.0
H478 H 0.83213 0.24715 0.41954 0.0
C479 C 0.75451 0.25729 0.56975 0.0
C480 C 0.06396 0.40431 0.22961 0.0
C481 C 0.08271 0.39067 0.19763 0.0
H482 H 1.01415 0.41526 0.31611 0.0
C483 C 0.06576 0.37713 0.23092 0.0
H484 H 0.07537 0.41491 0.20516 0.0
C485 C 1.03327 0.37734 0.29555 0.0
C486 C 1.01304 0.39108 0.32702 0.0
H487 H 0.07937 0.36646 0.20723 0.0
H488 H 1.02247 0.36682 0.32068 0.0
C489 C 1.02807 0.40451 0.29313 0.0
C490 C 1.03111 0.63599 0.23121 0.0
C491 C 1.01385 0.6497 0.20001 0.0
H492 H 0.07438 0.6254 0.31735 0.0
C493 C 1.03085 0.66311 0.23232 0.0
H494 H 1.01954 0.62541 0.20762 0.0
C495 C 0.065 0.6631 0.29262 0.0
C496 C 0.08129 0.64968 0.32495 0.0
H497 H 1.01944 0.67394 0.21069 0.0
H498 H 0.07695 0.67393 0.31425 0.0
C499 C 0.06338 0.63598 0.29375 0.0
C500 C 1.03123 0.64958 0.79467 0.0
C501 C 1.01314 0.63595 0.82721 0.0
H502 H 0.07503 0.66014 0.70544 0.0
C503 C 1.02999 0.6224 0.79436 0.0
H504 H 1.01902 0.66019 0.81901 0.0
C505 C 0.06536 0.62237 0.73077 0.0
C506 C 0.08172 0.63589 0.69766 0.0
H507 H 1.01767 0.61173 0.81818 0.0
H508 H 0.078 0.61168 0.70714 0.0
C509 C 0.06319 0.64955 0.72996 0.0
C510 C 1.03153 0.39142 0.73007 0.0
C511 C 1.01063 0.3777 0.6997 0.0
H512 H 0.07886 0.40208 0.81539 0.0
C513 C 1.02366 0.36432 0.73284 0.0
H514 H 1.02289 0.40197 0.70583 0.0
C515 C 0.05839 0.36436 0.79298 0.0
C516 C 0.07926 0.3778 0.82433 0.0
H517 H 1.009 0.35348 0.71194 0.0
H518 H 0.06746 0.35355 0.81517 0.0
C519 C 0.06437 0.39148 0.79251 0.0
C520 C 0.56661 0.90452 0.23115 0.0
C521 C 0.58183 0.89112 0.19711 0.0
H522 H 0.51834 0.91484 0.3192 0.0
C523 C 0.56098 0.87735 0.2282 0.0
H524 H 0.58092 0.91529 0.2084 0.0
C525 C 0.52762 0.87707 0.29269 0.0
C526 C 0.51042 0.89058 0.32615 0.0
H527 H 0.57187 0.86686 0.20287 0.0
H528 H 0.51354 0.86638 0.31614 0.0
C529 C 0.52989 0.90426 0.29455 0.0
C530 C 0.53317 0.16295 0.23214 0.0
C531 C 0.51335 0.14956 0.20026 0.0
H532 H 0.5817 0.1737 0.31366 0.0
C533 C 0.52871 0.13583 0.23161 0.0
H534 H 0.52353 0.17379 0.2103 0.0
C535 C 0.56134 0.13577 0.29407 0.0
C536 C 0.58153 0.14945 0.32494 0.0
H537 H 0.51506 0.12526 0.20828 0.0
H538 H 0.57049 0.12518 0.3179 0.0
C539 C 0.56772 0.16289 0.29232 0.0
C540 C 0.52919 0.1226 0.79472 0.0
C541 C 0.51189 0.13612 0.82778 0.0
H542 H 0.57806 0.112 0.70728 0.0
C543 C 0.52989 0.14979 0.79556 0.0
H544 H 0.51696 0.11191 0.81837 0.0
C545 C 0.56223 0.14985 0.73094 0.0
C546 C 0.58131 0.13624 0.69842 0.0
H547 H 0.51735 0.16037 0.82009 0.0
H548 H 0.574 0.16046 0.70664 0.0
C549 C 0.56499 0.12266 0.73116 0.0
C550 C 0.53453 0.86492 0.73163 0.0
C551 C 0.51585 0.87842 0.70025 0.0
H552 H 0.58198 0.85389 0.81261 0.0
C553 C 0.53248 0.89205 0.73213 0.0
H554 H 0.52396 0.85413 0.7095 0.0
C555 C 0.56513 0.89189 0.79461 0.0
C556 C 0.58405 0.8781 0.82488 0.0
H557 H 0.51965 0.90269 0.70927 0.0
H558 H 0.57531 0.9024 0.81891 0.0
C559 C 0.56903 0.86477 0.79175 0.0
loop_
_geom_bond_atom_site_label_1
_geom_bond_atom_site_label_2
_geom_bond_distance
_geom_bond_site_symmetry_2
_ccdc_geom_bond_type
Sm0 C2 2.846 1_455 S
Sm0 O20 2.543 1_454 S
Sm0 O21 2.450 . S
Sm0 O22 2.681 . S
Sm0 O23 2.464 . S
Sm0 O24 2.396 1_455 S
Sm0 O28 2.386 1_554 S
Sm0 O31 2.408 . S
Sm1 C11 2.846 . S
Sm1 O22 2.386 . S
Sm1 O25 2.408 1_455 S
Sm1 O26 2.543 . S
Sm1 O27 2.450 1_554 S
Sm1 O28 2.681 1_554 S
Sm1 O29 2.464 1_554 S
Sm1 O30 2.396 1_554 S
C2 Sm0 2.846 1_655 S
C2 C3 1.506 . S
C2 O20 1.261 1_554 S
C2 O21 1.242 1_655 S
C3 C2 1.506 . S
C3 C4 1.358 1_554 S
C3 C8 1.382 . S
C4 C3 1.358 1_556 S
C4 C5 1.385 . S
C4 H32 0.930 . S
C5 C4 1.385 . S
C5 C6 1.387 1_556 S
C5 H33 0.929 . S
C6 C5 1.387 1_554 S
C6 C7 1.343 . S
C7 C6 1.343 . S
C7 C8 1.398 . S
C7 H34 0.930 . S
C8 C3 1.382 . S
C8 C7 1.398 . S
C8 H35 0.929 . S
C9 O22 1.271 . S
C9 O23 1.251 . S
C10 O24 1.252 . S
C10 O25 1.272 . S
C11 Sm1 2.846 . S
C11 C12 1.506 . S
C11 O26 1.261 . S
C11 O27 1.242 1_554 S
C12 C11 1.506 . S
C12 C13 1.358 . S
C12 C17 1.382 1_554 S
C13 C12 1.358 . S
C13 C14 1.385 . S
C13 H36 0.930 . S
C14 C13 1.385 . S
C14 C15 1.395 . S
C14 H37 0.929 . S
C15 C14 1.395 . S
C15 C16 1.335 1_554 S
C16 C15 1.335 1_556 S
C16 C17 1.398 . S
C16 H38 0.930 . S
C17 C12 1.382 1_556 S
C17 C16 1.398 . S
C17 H39 0.929 . S
C18 O28 1.271 . S
C18 O29 1.251 . S
C19 O30 1.252 1_554 S
C19 O31 1.272 . S
O20 Sm0 2.543 1_656 S
O20 C2 1.261 1_556 S
O21 Sm0 2.450 . S
O21 C2 1.242 1_455 S
O22 Sm0 2.681 . S
O22 Sm1 2.386 . S
O22 C9 1.271 . S
O23 Sm0 2.464 . S
O23 C9 1.251 . S
O24 Sm0 2.396 1_655 S
O24 C10 1.252 . S
O25 Sm1 2.408 1_655 S
O25 C10 1.272 . S
O26 Sm1 2.543 . S
O26 C11 1.261 . S
O27 Sm1 2.450 1_556 S
O27 C11 1.242 1_556 S
O28 Sm0 2.386 1_556 S
O28 Sm1 2.681 1_556 S
O28 C18 1.271 . S
O29 Sm1 2.464 1_556 S
O29 C18 1.251 . S
O30 Sm1 2.396 1_556 S
O30 C19 1.252 1_556 S
O31 Sm0 2.408 . S
O31 C19 1.272 . S
H32 C4 0.930 . S
H33 C5 0.929 . S
H34 C7 0.930 . S
H35 C8 0.929 . S
H36 C13 0.930 . S
H37 C14 0.929 . S
H38 C16 0.930 . S
H39 C17 0.929 . S
Sm40 C42 2.846 . S
Sm40 O60 2.543 1_554 S
Sm40 O61 2.450 . S
Sm40 O62 2.681 . S
Sm40 O63 2.464 . S
Sm40 O64 2.396 . S
Sm40 O68 2.386 1_554 S
Sm40 O71 2.408 1_655 S
Sm41 C51 2.846 1_655 S
Sm41 O62 2.386 . S
Sm41 O65 2.408 . S
Sm41 O66 2.543 1_655 S
Sm41 O67 2.450 1_554 S
Sm41 O68 2.681 1_554 S
Sm41 O69 2.464 1_554 S
Sm41 O70 2.396 1_654 S
C42 Sm40 2.846 . S
C42 C43 1.506 . S
C42 O60 1.261 1_554 S
C42 O61 1.242 . S
C43 C42 1.506 . S
C43 C44 1.358 1_554 S
C43 C48 1.382 . S
C44 C43 1.358 1_556 S
C44 C45 1.385 . S
C44 H72 0.930 . S
C45 C44 1.385 . S
C45 C46 1.395 1_556 S
C45 H73 0.929 . S
C46 C45 1.395 1_554 S
C46 C47 1.335 . S
C47 C46 1.335 . S
C47 C48 1.398 . S
C47 H74 0.930 . S
C48 C43 1.382 . S
C48 C47 1.398 . S
C48 H75 0.929 . S
C49 O62 1.271 . S
C49 O63 1.251 . S
C50 O64 1.252 . S
C50 O65 1.272 . S
C51 Sm41 2.846 1_455 S
C51 C52 1.506 . S
C51 O66 1.261 . S
C51 O67 1.242 1_454 S
C52 C51 1.506 . S
C52 C53 1.358 . S
C52 C57 1.382 1_554 S
C53 C52 1.358 . S
C53 C54 1.385 . S
C53 H76 0.930 . S
C54 C53 1.385 . S
C54 C55 1.395 . S
C54 H77 0.929 . S
C55 C54 1.395 . S
C55 C56 1.335 1_554 S
C56 C55 1.335 1_556 S
C56 C57 1.398 . S
C56 H78 0.930 . S
C57 C52 1.382 1_556 S
C57 C56 1.398 . S
C57 H79 0.929 . S
C58 O68 1.271 . S
C58 O69 1.251 . S
C59 O70 1.252 1_554 S
C59 O71 1.272 . S
O60 Sm40 2.543 1_556 S
O60 C42 1.261 1_556 S
O61 Sm40 2.450 . S
O61 C42 1.242 . S
O62 Sm40 2.681 . S
O62 Sm41 2.386 . S
O62 C49 1.271 . S
O63 Sm40 2.464 . S
O63 C49 1.251 . S
O64 Sm40 2.396 . S
O64 C50 1.252 . S
O65 Sm41 2.408 . S
O65 C50 1.272 . S
O66 Sm41 2.543 1_455 S
O66 C51 1.261 . S
O67 Sm41 2.450 1_556 S
O67 C51 1.242 1_656 S
O68 Sm40 2.386 1_556 S
O68 Sm41 2.681 1_556 S
O68 C58 1.271 . S
O69 Sm41 2.464 1_556 S
O69 C58 1.251 . S
O70 Sm41 2.396 1_456 S
O70 C59 1.252 1_556 S
O71 Sm40 2.408 1_455 S
O71 C59 1.272 . S
H72 C44 0.930 . S
H73 C45 0.929 . S
H74 C47 0.930 . S
H75 C48 0.929 . S
H76 C53 0.930 . S
H77 C54 0.929 . S
H78 C56 0.930 . S
H79 C57 0.929 . S
Sm80 C82 2.846 . S
Sm80 O100 2.543 . S
Sm80 O101 2.450 . S
Sm80 O102 2.681 . S
Sm80 O103 2.464 . S
Sm80 O104 2.396 . S
Sm80 O108 2.386 . S
Sm80 O111 2.408 1_455 S
Sm81 C91 2.846 1_455 S
Sm81 O102 2.386 . S
Sm81 O105 2.408 . S
Sm81 O106 2.543 1_455 S
Sm81 O107 2.450 . S
Sm81 O108 2.681 . S
Sm81 O109 2.464 . S
Sm81 O110 2.396 1_455 S
C82 Sm80 2.846 . S
C82 C83 1.506 . S
C82 O100 1.261 . S
C82 O101 1.242 . S
C83 C82 1.506 . S
C83 C84 1.358 . S
C83 C88 1.382 . S
C84 C83 1.358 . S
C84 C85 1.385 . S
C84 H112 0.930 . S
C85 C84 1.385 . S
C85 C86 1.395 . S
C85 H113 0.929 . S
C86 C85 1.395 . S
C86 C87 1.335 . S
C87 C86 1.335 . S
C87 C88 1.398 . S
C87 H114 0.930 . S
C88 C83 1.382 . S
C88 C87 1.398 . S
C88 H115 0.929 . S
C89 O102 1.271 . S
C89 O103 1.251 . S
C90 O104 1.252 . S
C90 O105 1.272 . S
C91 Sm81 2.846 1_655 S
C91 C92 1.506 . S
C91 O106 1.261 . S
C91 O107 1.242 1_655 S
C92 C91 1.506 . S
C92 C93 1.358 . S
C92 C97 1.382 . S
C93 C92 1.358 . S
C93 C94 1.385 . S
C93 H116 0.930 . S
C94 C93 1.385 . S
C94 C95 1.395 . S
C94 H117 0.929 . S
C95 C94 1.395 . S
C95 C96 1.335 . S
C96 C95 1.335 . S
C96 C97 1.398 . S
C96 H118 0.930 . S
C97 C92 1.382 . S
C97 C96 1.398 . S
C97 H119 0.929 . S
C98 O108 1.271 . S
C98 O109 1.251 . S
C99 O110 1.252 . S
C99 O111 1.272 . S
O100 Sm80 2.543 . S
O100 C82 1.261 . S
O101 Sm80 2.450 . S
O101 C82 1.242 . S
O102 Sm80 2.681 . S
O102 Sm81 2.386 . S
O102 C89 1.271 . S
O103 Sm80 2.464 . S
O103 C89 1.251 . S
O104 Sm80 2.396 . S
O104 C90 1.252 . S
O105 Sm81 2.408 . S
O105 C90 1.272 . S
O106 Sm81 2.543 1_655 S
O106 C91 1.261 . S
O107 Sm81 2.450 . S
O107 C91 1.242 1_455 S
O108 Sm80 2.386 . S
O108 Sm81 2.681 . S
O108 C98 1.271 . S
O109 Sm81 2.464 . S
O109 C98 1.251 . S
O110 Sm81 2.396 1_655 S
O110 C99 1.252 . S
O111 Sm80 2.408 1_655 S
O111 C99 1.272 . S
H112 C84 0.930 . S
H113 C85 0.929 . S
H114 C87 0.930 . S
H115 C88 0.929 . S
H116 C93 0.930 . S
H117 C94 0.929 . S
H118 C96 0.930 . S
H119 C97 0.929 . S
Sm120 C122 2.846 1_655 S
Sm120 O140 2.543 1_655 S
Sm120 O141 2.450 . S
Sm120 O142 2.681 . S
Sm120 O143 2.464 . S
Sm120 O144 2.396 1_655 S
Sm120 O148 2.386 . S
Sm120 O151 2.408 . S
Sm121 C131 2.846 . S
Sm121 O142 2.386 . S
Sm121 O145 2.408 1_655 S
Sm121 O146 2.543 . S
Sm121 O147 2.450 . S
Sm121 O148 2.681 . S
Sm121 O149 2.464 . S
Sm121 O150 2.396 . S
C122 Sm120 2.846 1_455 S
C122 C123 1.506 . S
C122 O140 1.261 . S
C122 O141 1.242 1_455 S
C123 C122 1.506 . S
C123 C124 1.358 . S
C123 C128 1.382 . S
C124 C123 1.358 . S
C124 C125 1.385 . S
C124 H152 0.930 . S
C125 C124 1.385 . S
C125 C126 1.395 . S
C125 H153 0.929 . S
C126 C125 1.395 . S
C126 C127 1.335 . S
C127 C126 1.335 . S
C127 C128 1.398 . S
C127 H154 0.930 . S
C128 C123 1.382 . S
C128 C127 1.398 . S
C128 H155 0.929 . S
C129 O142 1.271 . S
C129 O143 1.251 . S
C130 O144 1.252 . S
C130 O145 1.272 . S
C131 Sm121 2.846 . S
C131 C132 1.506 . S
C131 O146 1.261 . S
C131 O147 1.242 . S
C132 C131 1.506 . S
C132 C133 1.358 . S
C132 C137 1.382 . S
C133 C132 1.358 . S
C133 C134 1.385 . S
C133 H156 0.930 . S
C134 C133 1.385 . S
C134 C135 1.395 . S
C134 H157 0.929 . S
C135 C134 1.395 . S
C135 C136 1.335 . S
C136 C135 1.335 . S
C136 C137 1.398 . S
C136 H158 0.930 . S
C137 C132 1.382 . S
C137 C136 1.398 . S
C137 H159 0.929 . S
C138 O148 1.271 . S
C138 O149 1.251 . S
C139 O150 1.252 . S
C139 O151 1.272 . S
O140 Sm120 2.543 1_455 S
O140 C122 1.261 . S
O141 Sm120 2.450 . S
O141 C122 1.242 1_655 S
O142 Sm120 2.681 . S
O142 Sm121 2.386 . S
O142 C129 1.271 . S
O143 Sm120 2.464 . S
O143 C129 1.251 . S
O144 Sm120 2.396 1_455 S
O144 C130 1.252 . S
O145 Sm121 2.408 1_455 S
O145 C130 1.272 . S
O146 Sm121 2.543 . S
O146 C131 1.261 . S
O147 Sm121 2.450 . S
O147 C131 1.242 . S
O148 Sm120 2.386 . S
O148 Sm121 2.681 . S
O148 C138 1.271 . S
O149 Sm121 2.464 . S
O149 C138 1.251 . S
O150 Sm121 2.396 . S
O150 C139 1.252 . S
O151 Sm120 2.408 . S
O151 C139 1.272 . S
H152 C124 0.930 . S
H153 C125 0.929 . S
H154 C127 0.930 . S
H155 C128 0.929 . S
H156 C133 0.930 . S
H157 C134 0.929 . S
H158 C136 0.930 . S
H159 C137 0.929 . S
Sm160 C162 2.846 . S
Sm160 O180 2.543 1_554 S
Sm160 O181 2.450 . S
Sm160 O182 2.681 . S
Sm160 O183 2.464 . S
Sm160 O184 2.396 . S
Sm160 O188 2.386 1_554 S
Sm160 O191 2.408 . S
Sm161 C171 2.846 . S
Sm161 O182 2.386 . S
Sm161 O185 2.408 . S
Sm161 O186 2.543 . S
Sm161 O187 2.450 1_554 S
Sm161 O188 2.681 1_554 S
Sm161 O189 2.464 1_554 S
Sm161 O190 2.396 1_554 S
C162 Sm160 2.846 . S
C162 C163 1.506 . S
C162 O180 1.261 1_554 S
C162 O181 1.242 . S
C163 C162 1.506 . S
C163 C164 1.358 1_554 S
C163 C168 1.382 . S
C164 C163 1.358 1_556 S
C164 C165 1.385 . S
C164 H192 0.930 . S
C165 C164 1.385 . S
C165 C166 1.387 1_556 S
C165 H193 0.929 . S
C166 C165 1.387 1_554 S
C166 C167 1.344 . S
C167 C166 1.344 . S
C167 C168 1.398 . S
C167 H194 0.930 . S
C168 C163 1.382 . S
C168 C167 1.398 . S
C168 H195 0.929 . S
C169 O182 1.271 . S
C169 O183 1.251 . S
C170 O184 1.252 . S
C170 O185 1.272 . S
C171 Sm161 2.846 . S
C171 C172 1.506 . S
C171 O186 1.261 . S
C171 O187 1.242 1_554 S
C172 C171 1.506 . S
C172 C173 1.358 . S
C172 C177 1.382 1_554 S
C173 C172 1.358 . S
C173 C174 1.385 . S
C173 H196 0.930 . S
C174 C173 1.385 . S
C174 C175 1.395 . S
C174 H197 0.929 . S
C175 C174 1.395 . S
C175 C176 1.335 1_554 S
C176 C175 1.335 1_556 S
C176 C177 1.398 . S
C176 H198 0.930 . S
C177 C172 1.382 1_556 S
C177 C176 1.398 . S
C177 H199 0.929 . S
C178 O188 1.271 . S
C178 O189 1.251 . S
C179 O190 1.252 1_554 S
C179 O191 1.272 . S
O180 Sm160 2.543 1_556 S
O180 C162 1.261 1_556 S
O181 Sm160 2.450 . S
O181 C162 1.242 . S
O182 Sm160 2.681 . S
O182 Sm161 2.386 . S
O182 C169 1.271 . S
O183 Sm160 2.464 . S
O183 C169 1.251 . S
O184 Sm160 2.396 . S
O184 C170 1.252 . S
O185 Sm161 2.408 . S
O185 C170 1.272 . S
O186 Sm161 2.543 . S
O186 C171 1.261 . S
O187 Sm161 2.450 1_556 S
O187 C171 1.242 1_556 S
O188 Sm160 2.386 1_556 S
O188 Sm161 2.681 1_556 S
O188 C178 1.271 . S
O189 Sm161 2.464 1_556 S
O189 C178 1.251 . S
O190 Sm161 2.396 1_556 S
O190 C179 1.252 1_556 S
O191 Sm160 2.408 . S
O191 C179 1.272 . S
H192 C164 0.930 . S
H193 C165 0.929 . S
H194 C167 0.930 . S
H195 C168 0.929 . S
H196 C173 0.930 . S
H197 C174 0.929 . S
H198 C176 0.930 . S
H199 C177 0.929 . S
Sm200 C202 2.846 . S
Sm200 O220 2.543 1_554 S
Sm200 O221 2.450 . S
Sm200 O222 2.681 . S
Sm200 O223 2.464 . S
Sm200 O224 2.396 . S
Sm200 O228 2.386 1_554 S
Sm200 O231 2.408 . S
Sm201 C211 2.846 . S
Sm201 O222 2.386 . S
Sm201 O225 2.408 . S
Sm201 O226 2.543 . S
Sm201 O227 2.450 1_554 S
Sm201 O228 2.681 1_554 S
Sm201 O229 2.464 1_554 S
Sm201 O230 2.396 1_554 S
C202 Sm200 2.846 . S
C202 C203 1.506 . S
C202 O220 1.261 1_554 S
C202 O221 1.242 . S
C203 C202 1.506 . S
C203 C204 1.358 1_554 S
C203 C208 1.382 . S
C204 C203 1.358 1_556 S
C204 C205 1.385 . S
C204 H232 0.930 . S
C205 C204 1.385 . S
C205 C206 1.395 1_556 S
C205 H233 0.929 . S
C206 C205 1.395 1_554 S
C206 C207 1.335 . S
C207 C206 1.335 . S
C207 C208 1.398 . S
C207 H234 0.930 . S
C208 C203 1.382 . S
C208 C207 1.398 . S
C208 H235 0.929 . S
C209 O222 1.271 . S
C209 O223 1.251 . S
C210 O224 1.252 . S
C210 O225 1.272 . S
C211 Sm201 2.846 . S
C211 C212 1.506 . S
C211 O226 1.261 . S
C211 O227 1.242 1_554 S
C212 C211 1.506 . S
C212 C213 1.358 . S
C212 C217 1.382 1_554 S
C213 C212 1.358 . S
C213 C214 1.385 . S
C213 H236 0.930 . S
C214 C213 1.385 . S
C214 C215 1.395 . S
C214 H237 0.929 . S
C215 C214 1.395 . S
C215 C216 1.335 1_554 S
C216 C215 1.335 1_556 S
C216 C217 1.398 . S
C216 H238 0.930 . S
C217 C212 1.382 1_556 S
C217 C216 1.398 . S
C217 H239 0.929 . S
C218 O228 1.271 . S
C218 O229 1.251 . S
C219 O230 1.252 1_554 S
C219 O231 1.272 . S
O220 Sm200 2.543 1_556 S
O220 C202 1.261 1_556 S
O221 Sm200 2.450 . S
O221 C202 1.242 . S
O222 Sm200 2.681 . S
O222 Sm201 2.386 . S
O222 C209 1.271 . S
O223 Sm200 2.464 . S
O223 C209 1.251 . S
O224 Sm200 2.396 . S
O224 C210 1.252 . S
O225 Sm201 2.408 . S
O225 C210 1.272 . S
O226 Sm201 2.543 . S
O226 C211 1.261 . S
O227 Sm201 2.450 1_556 S
O227 C211 1.242 1_556 S
O228 Sm200 2.386 1_556 S
O228 Sm201 2.681 1_556 S
O228 C218 1.271 . S
O229 Sm201 2.464 1_556 S
O229 C218 1.251 . S
O230 Sm201 2.396 1_556 S
O230 C219 1.252 1_556 S
O231 Sm200 2.408 . S
O231 C219 1.272 . S
H232 C204 0.930 . S
H233 C205 0.929 . S
H234 C207 0.930 . S
H235 C208 0.929 . S
H236 C213 0.930 . S
H237 C214 0.929 . S
H238 C216 0.930 . S
H239 C217 0.929 . S
Sm240 C242 2.846 . S
Sm240 O260 2.543 . S
Sm240 O261 2.450 . S
Sm240 O262 2.681 . S
Sm240 O263 2.464 . S
Sm240 O264 2.396 . S
Sm240 O268 2.386 . S
Sm240 O271 2.408 . S
Sm241 C251 2.846 . S
Sm241 O262 2.386 . S
Sm241 O265 2.408 . S
Sm241 O266 2.543 . S
Sm241 O267 2.450 . S
Sm241 O268 2.681 . S
Sm241 O269 2.464 . S
Sm241 O270 2.396 . S
C242 Sm240 2.846 . S
C242 C243 1.506 . S
C242 O260 1.261 . S
C242 O261 1.242 . S
C243 C242 1.506 . S
C243 C244 1.358 . S
C243 C248 1.382 . S
C244 C243 1.358 . S
C244 C245 1.385 . S
C244 H272 0.930 . S
C245 C244 1.385 . S
C245 C246 1.395 . S
C245 H273 0.929 . S
C246 C245 1.395 . S
C246 C247 1.335 . S
C247 C246 1.335 . S
C247 C248 1.398 . S
C247 H274 0.930 . S
C248 C243 1.382 . S
C248 C247 1.398 . S
C248 H275 0.929 . S
C249 O262 1.271 . S
C249 O263 1.251 . S
C250 O264 1.252 . S
C250 O265 1.272 . S
C251 Sm241 2.846 . S
C251 C252 1.506 . S
C251 O266 1.261 . S
C251 O267 1.242 . S
C252 C251 1.506 . S
C252 C253 1.358 . S
C252 C257 1.382 . S
C253 C252 1.358 . S
C253 C254 1.385 . S
C253 H276 0.930 . S
C254 C253 1.385 . S
C254 C255 1.395 . S
C254 H277 0.929 . S
C255 C254 1.395 . S
C255 C256 1.335 . S
C256 C255 1.335 . S
C256 C257 1.398 . S
C256 H278 0.930 . S
C257 C252 1.382 . S
C257 C256 1.398 . S
C257 H279 0.929 . S
C258 O268 1.271 . S
C258 O269 1.251 . S
C259 O270 1.252 . S
C259 O271 1.272 . S
O260 Sm240 2.543 . S
O260 C242 1.261 . S
O261 Sm240 2.450 . S
O261 C242 1.242 . S
O262 Sm240 2.681 . S
O262 Sm241 2.386 . S
O262 C249 1.271 . S
O263 Sm240 2.464 . S
O263 C249 1.251 . S
O264 Sm240 2.396 . S
O264 C250 1.252 . S
O265 Sm241 2.408 . S
O265 C250 1.272 . S
O266 Sm241 2.543 . S
O266 C251 1.261 . S
O267 Sm241 2.450 . S
O267 C251 1.242 . S
O268 Sm240 2.386 . S
O268 Sm241 2.681 . S
O268 C258 1.271 . S
O269 Sm241 2.464 . S
O269 C258 1.251 . S
O270 Sm241 2.396 . S
O270 C259 1.252 . S
O271 Sm240 2.408 . S
O271 C259 1.272 . S
H272 C244 0.930 . S
H273 C245 0.929 . S
H274 C247 0.930 . S
H275 C248 0.929 . S
H276 C253 0.930 . S
H277 C254 0.929 . S
H278 C256 0.930 . S
H279 C257 0.929 . S
Sm280 C282 2.846 . S
Sm280 O300 2.543 . S
Sm280 O301 2.450 . S
Sm280 O302 2.681 . S
Sm280 O303 2.464 . S
Sm280 O304 2.396 . S
Sm280 O308 2.386 . S
Sm280 O311 2.408 . S
Sm281 C291 2.846 . S
Sm281 O302 2.386 . S
Sm281 O305 2.408 . S
Sm281 O306 2.543 . S
Sm281 O307 2.450 . S
Sm281 O308 2.681 . S
Sm281 O309 2.464 . S
Sm281 O310 2.396 . S
C282 Sm280 2.846 . S
C282 C283 1.506 . S
C282 O300 1.261 . S
C282 O301 1.242 . S
C283 C282 1.506 . S
C283 C284 1.358 . S
C283 C288 1.382 . S
C284 C283 1.358 . S
C284 C285 1.385 . S
C284 H312 0.930 . S
C285 C284 1.385 . S
C285 C286 1.395 . S
C285 H313 0.929 . S
C286 C285 1.395 . S
C286 C287 1.335 . S
C287 C286 1.335 . S
C287 C288 1.398 . S
C287 H314 0.930 . S
C288 C283 1.382 . S
C288 C287 1.398 . S
C288 H315 0.929 . S
C289 O302 1.271 . S
C289 O303 1.251 . S
C290 O304 1.252 . S
C290 O305 1.272 . S
C291 Sm281 2.846 . S
C291 C292 1.506 . S
C291 O306 1.261 . S
C291 O307 1.242 . S
C292 C291 1.506 . S
C292 C293 1.358 . S
C292 C297 1.382 . S
C293 C292 1.358 . S
C293 C294 1.385 . S
C293 H316 0.930 . S
C294 C293 1.385 . S
C294 C295 1.395 . S
C294 H317 0.929 . S
C295 C294 1.395 . S
C295 C296 1.335 . S
C296 C295 1.335 . S
C296 C297 1.398 . S
C296 H318 0.930 . S
C297 C292 1.382 . S
C297 C296 1.398 . S
C297 H319 0.929 . S
C298 O308 1.271 . S
C298 O309 1.251 . S
C299 O310 1.252 . S
C299 O311 1.272 . S
O300 Sm280 2.543 . S
O300 C282 1.261 . S
O301 Sm280 2.450 . S
O301 C282 1.242 . S
O302 Sm280 2.681 . S
O302 Sm281 2.386 . S
O302 C289 1.271 . S
O303 Sm280 2.464 . S
O303 C289 1.251 . S
O304 Sm280 2.396 . S
O304 C290 1.252 . S
O305 Sm281 2.408 . S
O305 C290 1.272 . S
O306 Sm281 2.543 . S
O306 C291 1.261 . S
O307 Sm281 2.450 . S
O307 C291 1.242 . S
O308 Sm280 2.386 . S
O308 Sm281 2.681 . S
O308 C298 1.271 . S
O309 Sm281 2.464 . S
O309 C298 1.251 . S
O310 Sm281 2.396 . S
O310 C299 1.252 . S
O311 Sm280 2.408 . S
O311 C299 1.272 . S
H312 C284 0.930 . S
H313 C285 0.929 . S
H314 C287 0.930 . S
H315 C288 0.929 . S
H316 C293 0.930 . S
H317 C294 0.929 . S
H318 C296 0.930 . S
H319 C297 0.929 . S
C320 C321 1.387 1_556 S
C320 H324 0.950 . S
C320 C329 1.390 . S
C321 C320 1.387 1_554 S
C321 C323 1.387 . S
H322 C329 0.950 . S
C323 C321 1.387 . S
C323 C325 1.390 . S
C323 H327 0.950 . S
H324 C320 0.950 . S
C325 C323 1.390 . S
C325 C326 1.387 . S
C325 H328 0.950 . S
C326 C325 1.387 . S
C326 C329 1.387 1_554 S
H327 C323 0.950 . S
H328 C325 0.950 . S
C329 C320 1.390 . S
C329 H322 0.950 . S
C329 C326 1.387 1_556 S
C330 C331 1.387 . S
C330 H334 0.950 . S
C330 C339 1.390 . S
C331 C330 1.387 . S
C331 C333 1.387 1_554 S
H332 C339 0.950 . S
C333 C331 1.387 1_556 S
C333 C335 1.390 . S
C333 H337 0.950 . S
H334 C330 0.950 . S
C335 C333 1.390 . S
C335 C336 1.387 1_556 S
C335 H338 0.950 . S
C336 C335 1.387 1_554 S
C336 C339 1.387 . S
H337 C333 0.950 . S
H338 C335 0.950 . S
C339 C330 1.390 . S
C339 H332 0.950 . S
C339 C336 1.387 . S
C340 C341 1.387 . S
C340 H344 0.950 . S
C340 C349 1.390 . S
C341 C340 1.387 . S
C341 C343 1.387 . S
H342 C349 0.950 . S
C343 C341 1.387 . S
C343 C345 1.390 . S
C343 H347 0.950 . S
H344 C340 0.950 . S
C345 C343 1.390 . S
C345 C346 1.387 . S
C345 H348 0.950 . S
C346 C345 1.387 . S
C346 C349 1.387 . S
H347 C343 0.950 . S
H348 C345 0.950 . S
C349 C340 1.390 . S
C349 H342 0.950 . S
C349 C346 1.387 . S
C350 C351 1.387 . S
C350 H354 0.950 . S
C350 C359 1.390 . S
C351 C350 1.387 . S
C351 C353 1.387 . S
H352 C359 0.950 . S
C353 C351 1.387 . S
C353 C355 1.390 . S
C353 H357 0.950 . S
H354 C350 0.950 . S
C355 C353 1.390 . S
C355 C356 1.387 . S
C355 H358 0.950 . S
C356 C355 1.387 . S
C356 C359 1.387 . S
H357 C353 0.950 . S
H358 C355 0.950 . S
C359 C350 1.390 . S
C359 H352 0.950 . S
C359 C356 1.387 . S
C360 C361 1.391 . S
C360 H364 0.953 . S
C360 C369 1.384 1_655 S
C361 C360 1.391 . S
C361 C363 1.387 1_654 S
H362 C369 0.950 . S
C363 C361 1.387 1_456 S
C363 C365 1.390 . S
C363 H367 0.950 1_455 S
H364 C360 0.953 . S
C365 C363 1.390 . S
C365 C366 1.387 1_556 S
C365 H368 0.950 . S
C366 C365 1.387 1_554 S
C366 C369 1.387 . S
H367 C363 0.950 1_655 S
H368 C365 0.950 . S
C369 C360 1.384 1_455 S
C369 H362 0.950 . S
C369 C366 1.387 . S
C370 C371 1.389 1_556 S
C370 H374 0.951 . S
C370 C379 1.387 1_455 S
C371 C370 1.389 1_554 S
C371 C373 1.387 1_455 S
H372 C379 0.950 . S
C373 C371 1.387 1_655 S
C373 C375 1.390 . S
C373 H377 0.950 1_655 S
H374 C370 0.951 . S
C375 C373 1.390 . S
C375 C376 1.387 . S
C375 H378 0.950 . S
C376 C375 1.387 . S
C376 C379 1.387 1_554 S
H377 C373 0.950 1_455 S
H378 C375 0.950 . S
C379 C370 1.387 1_655 S
C379 H372 0.950 . S
C379 C376 1.387 1_556 S
C380 C381 1.387 . S
C380 H384 0.950 . S
C380 C389 1.390 1_455 S
C381 C380 1.387 . S
C381 C383 1.387 . S
H382 C389 0.950 . S
C383 C381 1.387 . S
C383 C385 1.390 . S
C383 H387 0.950 . S
H384 C380 0.950 . S
C385 C383 1.390 . S
C385 C386 1.387 1_455 S
C385 H388 0.950 1_455 S
C386 C385 1.387 1_655 S
C386 C389 1.387 . S
H387 C383 0.950 . S
H388 C385 0.950 1_655 S
C389 C380 1.390 1_655 S
C389 H382 0.950 . S
C389 C386 1.387 . S
C390 C391 1.387 . S
C390 H394 0.950 . S
C390 C399 1.390 . S
C391 C390 1.387 . S
C391 C393 1.387 . S
H392 C399 0.950 . S
C393 C391 1.387 . S
C393 C395 1.390 1_655 S
C393 H397 0.950 . S
H394 C390 0.950 . S
C395 C393 1.390 1_455 S
C395 C396 1.387 . S
C395 H398 0.950 . S
C396 C395 1.387 . S
C396 C399 1.387 1_455 S
H397 C393 0.950 . S
H398 C395 0.950 . S
C399 C390 1.390 . S
C399 H392 0.950 . S
C399 C396 1.387 1_655 S
C400 C401 1.387 1_556 S
C400 H404 0.950 . S
C400 C409 1.390 1_455 S
C401 C400 1.387 1_554 S
C401 C403 1.387 . S
H402 C409 0.950 . S
C403 C401 1.387 . S
C403 C405 1.390 1_455 S
C403 H407 0.950 . S
H404 C400 0.950 . S
C405 C403 1.390 1_655 S
C405 C406 1.387 . S
C405 H408 0.950 . S
C406 C405 1.387 . S
C406 C409 1.387 1_554 S
H407 C403 0.950 . S
H408 C405 0.950 . S
C409 C400 1.390 1_655 S
C409 H402 0.950 . S
C409 C406 1.387 1_556 S
C410 C411 1.387 . S
C410 H414 0.950 . S
C410 C419 1.390 1_455 S
C411 C410 1.387 . S
C411 C413 1.387 . S
H412 C419 0.950 . S
C413 C411 1.387 . S
C413 C415 1.390 1_455 S
C413 H417 0.950 . S
H414 C410 0.950 . S
C415 C413 1.390 1_655 S
C415 C416 1.387 . S
C415 H418 0.950 . S
C416 C415 1.387 . S
C416 C419 1.387 . S
H417 C413 0.950 . S
H418 C415 0.950 . S
C419 C410 1.390 1_655 S
C419 H412 0.950 . S
C419 C416 1.387 . S
C420 C421 1.387 . S
C420 H424 0.950 . S
C420 C429 1.390 1_565 S
C421 C420 1.387 . S
C421 C423 1.387 1_554 S
H422 C429 0.950 . S
C423 C421 1.387 1_556 S
C423 C425 1.390 1_565 S
C423 H427 0.950 . S
H424 C420 0.950 . S
C425 C423 1.390 1_545 S
C425 C426 1.387 1_556 S
C425 H428 0.950 . S
C426 C425 1.387 1_554 S
C426 C429 1.387 . S
H427 C423 0.950 . S
H428 C425 0.950 . S
C429 C420 1.390 1_545 S
C429 H422 0.950 . S
C429 C426 1.387 . S
C430 C431 1.387 . S
C430 H434 0.950 . S
C430 C439 1.390 1_545 S
C431 C430 1.387 . S
C431 C433 1.387 . S
H432 C439 0.950 . S
C433 C431 1.387 . S
C433 C435 1.390 1_545 S
C433 H437 0.950 . S
H434 C430 0.950 . S
C435 C433 1.390 1_565 S
C435 C436 1.387 . S
C435 H438 0.950 . S
C436 C435 1.387 . S
C436 C439 1.387 . S
H437 C433 0.950 . S
H438 C435 0.950 . S
C439 C430 1.390 1_565 S
C439 H432 0.950 . S
C439 C436 1.387 . S
C440 C441 1.387 . S
C440 H444 0.950 . S
C440 C449 1.390 . S
C441 C440 1.387 . S
C441 C443 1.387 1_554 S
H442 C449 0.950 . S
C443 C441 1.387 1_556 S
C443 C445 1.390 . S
C443 H447 0.950 . S
H444 C440 0.950 . S
C445 C443 1.390 . S
C445 C446 1.387 1_556 S
C445 H448 0.950 . S
C446 C445 1.387 1_554 S
C446 C449 1.387 . S
H447 C443 0.950 . S
H448 C445 0.950 . S
C449 C440 1.390 . S
C449 H442 0.950 . S
C449 C446 1.387 . S
C450 C451 1.387 1_556 S
C450 H454 0.950 . S
C450 C459 1.390 . S
C451 C450 1.387 1_554 S
C451 C453 1.387 . S
H452 C459 0.950 . S
C453 C451 1.387 . S
C453 C455 1.390 . S
C453 H457 0.950 . S
H454 C450 0.950 . S
C455 C453 1.390 . S
C455 C456 1.387 . S
C455 H458 0.950 . S
C456 C455 1.387 . S
C456 C459 1.387 1_554 S
H457 C453 0.950 . S
H458 C455 0.950 . S
C459 C450 1.390 . S
C459 H452 0.950 . S
C459 C456 1.387 1_556 S
C460 C461 1.387 . S
C460 H464 0.950 . S
C460 C469 1.390 . S
C461 C460 1.387 . S
C461 C463 1.387 . S
H462 C469 0.950 . S
C463 C461 1.387 . S
C463 C465 1.390 . S
C463 H467 0.950 . S
H464 C460 0.950 . S
C465 C463 1.390 . S
C465 C466 1.387 . S
C465 H468 0.950 . S
C466 C465 1.387 . S
C466 C469 1.387 . S
H467 C463 0.950 . S
H468 C465 0.950 . S
C469 C460 1.390 . S
C469 H462 0.950 . S
C469 C466 1.387 . S
C470 C471 1.387 . S
C470 H474 0.950 . S
C470 C479 1.390 . S
C471 C470 1.387 . S
C471 C473 1.387 . S
H472 C479 0.950 . S
C473 C471 1.387 . S
C473 C475 1.390 . S
C473 H477 0.950 . S
H474 C470 0.950 . S
C475 C473 1.390 . S
C475 C476 1.387 . S
C475 H478 0.950 . S
C476 C475 1.387 . S
C476 C479 1.387 . S
H477 C473 0.950 . S
H478 C475 0.950 . S
C479 C470 1.390 . S
C479 H472 0.950 . S
C479 C476 1.387 . S
C480 C481 1.387 . S
C480 H484 0.950 . S
C480 C489 1.390 1_455 S
C481 C480 1.387 . S
C481 C483 1.387 . S
H482 C489 0.950 . S
C483 C481 1.387 . S
C483 C485 1.390 1_455 S
C483 H487 0.950 . S
H484 C480 0.950 . S
C485 C483 1.390 1_655 S
C485 C486 1.387 . S
C485 H488 0.950 . S
C486 C485 1.387 . S
C486 C489 1.387 . S
H487 C483 0.950 . S
H488 C485 0.950 . S
C489 C480 1.390 1_655 S
C489 H482 0.950 . S
C489 C486 1.387 . S
C490 C491 1.387 . S
C490 H494 0.950 . S
C490 C499 1.390 1_655 S
C491 C490 1.387 . S
C491 C493 1.387 . S
H492 C499 0.950 . S
C493 C491 1.387 . S
C493 C495 1.390 1_655 S
C493 H497 0.950 . S
H494 C490 0.950 . S
C495 C493 1.390 1_455 S
C495 C496 1.387 . S
C495 H498 0.950 . S
C496 C495 1.387 . S
C496 C499 1.387 . S
H497 C493 0.950 . S
H498 C495 0.950 . S
C499 C490 1.390 1_455 S
C499 H492 0.950 . S
C499 C496 1.387 . S
C500 C501 1.387 . S
C500 H504 0.950 . S
C500 C509 1.390 1_655 S
C501 C500 1.387 . S
C501 C503 1.387 . S
H502 C509 0.950 . S
C503 C501 1.387 . S
C503 C505 1.390 1_655 S
C503 H507 0.950 . S
H504 C500 0.950 . S
C505 C503 1.390 1_455 S
C505 C506 1.387 . S
C505 H508 0.950 . S
C506 C505 1.387 . S
C506 C509 1.387 . S
H507 C503 0.950 . S
H508 C505 0.950 . S
C509 C500 1.390 1_455 S
C509 H502 0.950 . S
C509 C506 1.387 . S
C510 C511 1.387 . S
C510 H514 0.950 . S
C510 C519 1.390 1_655 S
C511 C510 1.387 . S
C511 C513 1.387 . S
H512 C519 0.950 . S
C513 C511 1.387 . S
C513 C515 1.390 1_655 S
C513 H517 0.950 . S
H514 C510 0.950 . S
C515 C513 1.390 1_455 S
C515 C516 1.387 . S
C515 H518 0.950 . S
C516 C515 1.387 . S
C516 C519 1.387 . S
H517 C513 0.950 . S
H518 C515 0.950 . S
C519 C510 1.390 1_455 S
C519 H512 0.950 . S
C519 C516 1.387 . S
C520 C521 1.387 . S
C520 H524 0.950 . S
C520 C529 1.390 . S
C521 C520 1.387 . S
C521 C523 1.387 . S
H522 C529 0.950 . S
C523 C521 1.387 . S
C523 C525 1.390 . S
C523 H527 0.950 . S
H524 C520 0.950 . S
C525 C523 1.390 . S
C525 C526 1.387 . S
C525 H528 0.950 . S
C526 C525 1.387 . S
C526 C529 1.387 . S
H527 C523 0.950 . S
H528 C525 0.950 . S
C529 C520 1.390 . S
C529 H522 0.950 . S
C529 C526 1.387 . S
C530 C531 1.387 . S
C530 H534 0.950 . S
C530 C539 1.390 . S
C531 C530 1.387 . S
C531 C533 1.387 . S
H532 C539 0.950 . S
C533 C531 1.387 . S
C533 C535 1.390 . S
C533 H537 0.950 . S
H534 C530 0.950 . S
C535 C533 1.390 . S
C535 C536 1.387 . S
C535 H538 0.950 . S
C536 C535 1.387 . S
C536 C539 1.387 . S
H537 C533 0.950 . S
H538 C535 0.950 . S
C539 C530 1.390 . S
C539 H532 0.950 . S
C539 C536 1.387 . S
C540 C541 1.387 . S
C540 H544 0.950 . S
C540 C549 1.390 . S
C541 C540 1.387 . S
C541 C543 1.387 . S
H542 C549 0.950 . S
C543 C541 1.387 . S
C543 C545 1.390 . S
C543 H547 0.950 . S
H544 C540 0.950 . S
C545 C543 1.390 . S
C545 C546 1.387 . S
C545 H548 0.950 . S
C546 C545 1.387 . S
C546 C549 1.387 . S
H547 C543 0.950 . S
H548 C545 0.950 . S
C549 C540 1.390 . S
C549 H542 0.950 . S
C549 C546 1.387 . S
C550 C551 1.387 . S
C550 H554 0.950 . S
C550 C559 1.390 . S
C551 C550 1.387 . S
C551 C553 1.387 . S
H552 C559 0.950 . S
C553 C551 1.387 . S
C553 C555 1.390 . S
C553 H557 0.950 . S
H554 C550 0.950 . S
C555 C553 1.390 . S
C555 C556 1.387 . S
C555 H558 0.950 . S
C556 C555 1.387 . S
C556 C559 1.387 . S
H557 C553 0.950 . S
H558 C555 0.950 . S
C559 C550 1.390 . S
C559 H552 0.950 . S
C559 C556 1.387 . S
C321 C19 2.277 . S
C326 C10 2.277 . S
C331 C59 2.275 . S
C336 C50 2.275 . S
C341 C99 2.277 . S
C346 C90 2.277 . S
C351 C139 2.277 . S
C356 C130 2.277 . S
C361 C179 2.275 . S
C366 C170 2.275 . S
C371 C210 2.277 . S
C376 C219 2.277 . S
C381 C259 2.275 . S
C386 C250 2.275 . S
C391 C290 2.277 . S
C396 C299 2.277 . S
C401 C55 2.925 . S
C406 C6 2.926 . S
C411 C126 2.923 . S
C416 C95 2.923 . S
C421 C166 2.927 . S
C426 C215 2.926 . S
C431 C255 2.928 . S
C436 C286 2.928 . S
C441 C15 2.044 . S
C446 C206 2.044 . S
C451 C175 2.041 . S
C456 C46 2.041 . S
C461 C86 2.044 . S
C466 C295 2.045 . S
C471 C135 2.041 . S
C476 C246 2.041 . S
C481 C9 1.497 . S
C486 C129 1.497 . S
C491 C49 1.578 . S
C496 C89 1.578 . S
C501 C58 1.497 . S
C506 C98 1.497 . S
C511 C138 1.576 . S
C516 C18 1.576 . S
C521 C169 1.496 . S
C526 C289 1.496 . S
C531 C209 1.576 . S
C536 C249 1.576 . S
C541 C218 1.495 . S
C546 C258 1.495 . S
C551 C298 1.578 . S
C556 C178 1.578 . S
