# Generated by pormake.
# Topology umh, (4)-cn, num edge types: 1
# Building blocks:
#     Node 0, Type 0, BuildingBlock: ESEHIV_clean_sbu_0, # of connection points: 4
#     Node 1, Type 0, BuildingBlock: ESEHIV_clean_sbu_0, # of connection points: 4
#     Node 2, Type 0, BuildingBlock: ESEHIV_clean_sbu_0, # of connection points: 4
#     Node 3, Type 0, BuildingBlock: ESEHIV_clean_sbu_0, # of connection points: 4
#     Node 4, Type 0, BuildingBlock: ESEHIV_clean_sbu_0, # of connection points: 4
#     Node 5, Type 0, BuildingBlock: ESEHIV_clean_sbu_0, # of connection points: 4
#     Node 6, Type 0, BuildingBlock: ESEHIV_clean_sbu_0, # of connection points: 4
#     Node 7, Type 0, BuildingBlock: ESEHIV_clean_sbu_0, # of connection points: 4
#     Node 8, Type 0, BuildingBlock: ESEHIV_clean_sbu_0, # of connection points: 4
#     Node 9, Type 0, BuildingBlock: ESEHIV_clean_sbu_0, # of connection points: 4
#     Node 10, Type 0, BuildingBlock: ESEHIV_clean_sbu_0, # of connection points: 4
#     Node 11, Type 0, BuildingBlock: ESEHIV_clean_sbu_0, # of connection points: 4
#     Node 12, Type 0, BuildingBlock: ESEHIV_clean_sbu_0, # of connection points: 4
#     Node 13, Type 0, BuildingBlock: ESEHIV_clean_sbu_0, # of connection points: 4
#     Node 14, Type 0, BuildingBlock: ESEHIV_clean_sbu_0, # of connection points: 4
#     Node 15, Type 0, BuildingBlock: ESEHIV_clean_sbu_0, # of connection points: 4
#     Edge 16, Type (0, 0), BuildingBlock: XUDNAN_clean_linker_2, # of connection points: 2
#     Edge 17, Type (0, 0), BuildingBlock: XUDNAN_clean_linker_2, # of connection points: 2
#     Edge 18, Type (0, 0), BuildingBlock: XUDNAN_clean_linker_2, # of connection points: 2
#     Edge 19, Type (0, 0), BuildingBlock: XUDNAN_clean_linker_2, # of connection points: 2
#     Edge 20, Type (0, 0), BuildingBlock: XUDNAN_clean_linker_2, # of connection points: 2
#     Edge 21, Type (0, 0), BuildingBlock: XUDNAN_clean_linker_2, # of connection points: 2
#     Edge 22, Type (0, 0), BuildingBlock: XUDNAN_clean_linker_2, # of connection points: 2
#     Edge 23, Type (0, 0), BuildingBlock: XUDNAN_clean_linker_2, # of connection points: 2
#     Edge 24, Type (0, 0), BuildingBlock: XUDNAN_clean_linker_2, # of connection points: 2
#     Edge 25, Type (0, 0), BuildingBlock: XUDNAN_clean_linker_2, # of connection points: 2
#     Edge 26, Type (0, 0), BuildingBlock: XUDNAN_clean_linker_2, # of connection points: 2
#     Edge 27, Type (0, 0), BuildingBlock: XUDNAN_clean_linker_2, # of connection points: 2
#     Edge 28, Type (0, 0), BuildingBlock: XUDNAN_clean_linker_2, # of connection points: 2
#     Edge 29, Type (0, 0), BuildingBlock: XUDNAN_clean_linker_2, # of connection points: 2
#     Edge 30, Type (0, 0), BuildingBlock: XUDNAN_clean_linker_2, # of connection points: 2
#     Edge 31, Type (0, 0), BuildingBlock: XUDNAN_clean_linker_2, # of connection points: 2
#     Edge 32, Type (0, 0), BuildingBlock: XUDNAN_clean_linker_2, # of connection points: 2
#     Edge 33, Type (0, 0), BuildingBlock: XUDNAN_clean_linker_2, # of connection points: 2
#     Edge 34, Type (0, 0), BuildingBlock: XUDNAN_clean_linker_2, # of connection points: 2
#     Edge 35, Type (0, 0), BuildingBlock: XUDNAN_clean_linker_2, # of connection points: 2
#     Edge 36, Type (0, 0), BuildingBlock: XUDNAN_clean_linker_2, # of connection points: 2
#     Edge 37, Type (0, 0), BuildingBlock: XUDNAN_clean_linker_2, # of connection points: 2
#     Edge 38, Type (0, 0), BuildingBlock: XUDNAN_clean_linker_2, # of connection points: 2
#     Edge 39, Type (0, 0), BuildingBlock: XUDNAN_clean_linker_2, # of connection points: 2
#     Edge 40, Type (0, 0), BuildingBlock: XUDNAN_clean_linker_2, # of connection points: 2
#     Edge 41, Type (0, 0), BuildingBlock: XUDNAN_clean_linker_2, # of connection points: 2
#     Edge 42, Type (0, 0), BuildingBlock: XUDNAN_clean_linker_2, # of connection points: 2
#     Edge 43, Type (0, 0), BuildingBlock: XUDNAN_clean_linker_2, # of connection points: 2
#     Edge 44, Type (0, 0), BuildingBlock: XUDNAN_clean_linker_2, # of connection points: 2
#     Edge 45, Type (0, 0), BuildingBlock: XUDNAN_clean_linker_2, # of connection points: 2
#     Edge 46, Type (0, 0), BuildingBlock: XUDNAN_clean_linker_2, # of connection points: 2
#     Edge 47, Type (0, 0), BuildingBlock: XUDNAN_clean_linker_2, # of connection points: 2
# Relax obj value: 0.058
# Max RMSD: 0.084
# Mean RMSD: 0.084
data_MOF--net-umh--node1-ESEHIV_clean_sbu_0--edge1-XUDNAN_clean_linker_2
_symmetry_space_group_name_H-M    P1
_symmetry_Int_Tables_number       1
_symmetry_cell_setting            triclinic
loop_
_symmetry_equiv_pos_as_xyz
'x, y, z'
_cell_length_a     48.141481
_cell_length_b     47.95293
_cell_length_c     51.910282
_cell_angle_alpha  89.617952
_cell_angle_beta   90.125308
_cell_angle_gamma 90.107914
loop_
_atom_site_label
_atom_site_type_symbol
_atom_site_fract_x
_atom_site_fract_y
_atom_site_fract_z
_atom_type_partial_charge
Cu0 Cu 0.35095 0.1154 0.15595 0.0
N1 N 0.34761 0.15325 0.16391 0.0
N2 N 0.32558 0.19391 0.16852 0.0
C3 C 0.32457 0.16807 0.15858 0.0
C4 C 0.35017 0.19551 0.18093 0.0
C5 C 0.36384 0.17033 0.17796 0.0
O6 O 0.31407 0.10135 0.16518 0.0
C7 C 0.35186 0.12678 0.1012 0.0
O8 O 0.33049 0.1431 0.10531 0.0
H9 H 0.3068 0.15964 0.14845 0.0
H10 H 0.3838 0.16469 0.18602 0.0
N11 N 0.37885 0.09808 0.17582 0.0
N12 N 0.41357 0.06971 0.18807 0.0
C13 C 0.3961 0.07724 0.16876 0.0
C14 C 0.38549 0.10373 0.20041 0.0
C15 C 0.40683 0.08639 0.20798 0.0
C16 C 0.30992 0.08426 0.18369 0.0
O17 O 0.33085 0.06948 0.19252 0.0
H18 H 0.39603 0.06806 0.14977 0.0
H19 H 0.37528 0.11919 0.21212 0.0
O20 O 0.36165 0.11222 0.11975 0.0
H21 H 0.35765 0.2135 0.19137 0.0
H22 H 0.41635 0.08586 0.22688 0.0
Cu23 Cu 0.40314 0.37133 0.65916 0.0
N24 N 0.3648 0.37491 0.65912 0.0
N25 N 0.32089 0.36071 0.65578 0.0
C26 C 0.34683 0.35389 0.66325 0.0
C27 C 0.32254 0.38713 0.6468 0.0
C28 C 0.34974 0.39591 0.649 0.0
O29 O 0.41194 0.33821 0.67947 0.0
C30 C 0.40025 0.36235 0.60492 0.0
O31 O 0.37926 0.3458 0.61031 0.0
H32 H 0.35314 0.33314 0.66915 0.0
H33 H 0.35835 0.41531 0.64184 0.0
N34 N 0.41908 0.40221 0.67475 0.0
N35 N 0.44876 0.43717 0.6817 0.0
C36 C 0.44205 0.41545 0.6665 0.0
C37 C 0.4108 0.41591 0.69589 0.0
C38 C 0.42909 0.43759 0.70023 0.0
C39 C 0.43533 0.33341 0.69007 0.0
O40 O 0.45666 0.34945 0.68451 0.0
H41 H 0.45336 0.40937 0.64945 0.0
H42 H 0.39282 0.41044 0.70733 0.0
O43 O 0.41484 0.3722 0.62326 0.0
H44 H 0.30567 0.3986 0.63791 0.0
H45 H 0.42819 0.45221 0.71599 0.0
Cu46 Cu 0.1569 0.41407 0.17824 0.0
N47 N 0.15991 0.37633 0.18728 0.0
N48 N 0.18094 0.33474 0.1875 0.0
C49 C 0.17527 0.35807 0.1738 0.0
C50 C 0.16851 0.3383 0.21049 0.0
C51 C 0.15553 0.36396 0.21031 0.0
O52 O 0.18828 0.43118 0.19653 0.0
C53 C 0.1391 0.41565 0.12565 0.0
O54 O 0.11439 0.41961 0.13558 0.0
H55 H 0.1843 0.36291 0.15522 0.0
H56 H 0.14554 0.37369 0.22655 0.0
N57 N 0.1228 0.42988 0.18864 0.0
N58 N 0.08654 0.45923 0.19202 0.0
C59 C 0.11265 0.45548 0.18284 0.0
C60 C 0.10256 0.41713 0.2021 0.0
C61 C 0.08037 0.43505 0.2043 0.0
C62 C 0.18713 0.43174 0.22111 0.0
O63 O 0.16356 0.42516 0.23234 0.0
H64 H 0.12387 0.47055 0.17125 0.0
H65 H 0.10357 0.39601 0.20941 0.0
O66 O 0.16028 0.41455 0.14049 0.0
H67 H 0.16986 0.324 0.22667 0.0
H68 H 0.06114 0.43039 0.21417 0.0
Cu69 Cu 0.10621 0.18382 0.65738 0.0
N70 N 0.14411 0.18808 0.66358 0.0
N71 N 0.18518 0.20995 0.66193 0.0
C72 C 0.16052 0.20555 0.65014 0.0
C73 C 0.18428 0.194 0.6835 0.0
C74 C 0.15885 0.1808 0.68458 0.0
O75 O 0.08767 0.20996 0.68043 0.0
C76 C 0.11126 0.16909 0.60682 0.0
O77 O 0.12422 0.1489 0.61913 0.0
H78 H 0.15318 0.21687 0.63338 0.0
H79 H 0.15092 0.16866 0.70058 0.0
N80 N 0.09418 0.14792 0.66618 0.0
N81 N 0.06692 0.11014 0.66741 0.0
C82 C 0.06927 0.13709 0.65997 0.0
C83 C 0.10816 0.12712 0.67793 0.0
C84 C 0.09134 0.10383 0.67883 0.0
C85 C 0.09696 0.23457 0.68388 0.0
O86 O 0.11578 0.24442 0.66795 0.0
H87 H 0.05332 0.14877 0.64992 0.0
H88 H 0.12936 0.12837 0.68463 0.0
O89 O 0.10058 0.18866 0.6201 0.0
H90 H 0.20004 0.19313 0.69835 0.0
H91 H 0.09705 0.08356 0.68644 0.0
Cu92 Cu 0.38814 0.39885 0.37372 0.0
N93 N 0.38823 0.36009 0.36869 0.0
N94 N 0.37157 0.31641 0.36733 0.0
C95 C 0.36605 0.34378 0.36346 0.0
C96 C 0.39828 0.31546 0.37517 0.0
C97 C 0.40846 0.34237 0.37603 0.0
O98 O 0.36082 0.41546 0.35013 0.0
C99 C 0.38067 0.42373 0.42445 0.0
O100 O 0.38229 0.44847 0.41359 0.0
H101 H 0.34571 0.35189 0.35871 0.0
H102 H 0.42864 0.34871 0.38309 0.0
N103 N 0.4235 0.41425 0.36628 0.0
N104 N 0.46016 0.44342 0.36436 0.0
C105 C 0.43444 0.43882 0.37408 0.0
C106 C 0.44301 0.40304 0.35099 0.0
C107 C 0.46553 0.42087 0.34978 0.0
C108 C 0.33449 0.41341 0.352 0.0
O109 O 0.32375 0.40134 0.37248 0.0
H110 H 0.42359 0.45343 0.3861 0.0
H111 H 0.44094 0.38327 0.34125 0.0
O112 O 0.38067 0.40204 0.41051 0.0
H113 H 0.40939 0.29674 0.38071 0.0
H114 H 0.4845 0.41731 0.33915 0.0
Cu115 Cu 0.12064 0.37241 0.88754 0.0
N116 N 0.15903 0.37148 0.88435 0.0
N117 N 0.20076 0.35154 0.88524 0.0
C118 C 0.17371 0.34834 0.87933 0.0
C119 C 0.20328 0.37772 0.89429 0.0
C120 C 0.17742 0.39007 0.89361 0.0
O121 O 0.1056 0.34425 0.86406 0.0
C122 C 0.11516 0.38716 0.93979 0.0
O123 O 0.11697 0.41245 0.93012 0.0
H124 H 0.16428 0.32863 0.87416 0.0
H125 H 0.17198 0.41015 0.90148 0.0
N126 N 0.10692 0.40714 0.87726 0.0
N127 N 0.07856 0.44365 0.87287 0.0
C128 C 0.08174 0.4177 0.88268 0.0
C129 C 0.12007 0.42691 0.86338 0.0
C130 C 0.1026 0.44947 0.8606 0.0
C131 C 0.11237 0.34764 0.84046 0.0
O132 O 0.12796 0.3692 0.83435 0.0
H133 H 0.0662 0.40661 0.89379 0.0
H134 H 0.141 0.42515 0.85606 0.0
O135 O 0.11442 0.36633 0.92455 0.0
H136 H 0.22201 0.38651 0.90251 0.0
H137 H 0.10751 0.46892 0.85093 0.0
Cu138 Cu 0.18209 0.10734 0.38553 0.0
N139 N 0.21798 0.12065 0.39257 0.0
N140 N 0.25299 0.15148 0.38913 0.0
C141 C 0.22647 0.14527 0.38278 0.0
C142 C 0.26149 0.12974 0.40388 0.0
C143 C 0.23984 0.1107 0.40593 0.0
O144 O 0.17996 0.11052 0.34784 0.0
C145 C 0.1606 0.1229 0.43116 0.0
O146 O 0.17928 0.10394 0.43705 0.0
H147 H 0.21304 0.15845 0.37127 0.0
H148 H 0.24015 0.09107 0.41629 0.0
N149 N 0.17418 0.06972 0.39375 0.0
N150 N 0.14743 0.03166 0.39891 0.0
C151 C 0.14827 0.05909 0.39272 0.0
C152 C 0.19052 0.04825 0.4009 0.0
C153 C 0.17408 0.02472 0.404 0.0
C154 C 0.19713 0.09384 0.33723 0.0
O155 O 0.21152 0.07707 0.35223 0.0
H156 H 0.13038 0.07134 0.38708 0.0
H157 H 0.21277 0.04949 0.4035 0.0
O158 O 0.15733 0.12944 0.40743 0.0
H159 H 0.28196 0.12745 0.41226 0.0
H160 H 0.18119 1.00424 0.40985 0.0
Cu161 Cu 0.40201 0.16828 0.87559 0.0
N162 N 0.36395 0.17065 0.86984 0.0
N163 N 0.32218 0.19048 0.87323 0.0
C164 C 0.34736 0.18677 0.88415 0.0
C165 C 0.32282 0.17536 0.85134 0.0
C166 C 0.3487 0.16312 0.8493 0.0
O167 O 0.42067 0.19603 0.85358 0.0
C168 C 0.42475 0.1611 0.9265 0.0
O169 O 0.44577 0.14903 0.91503 0.0
H170 H 0.35485 0.19803 0.90078 0.0
H171 H 0.35648 0.15137 0.83314 0.0
N172 N 0.41498 0.13299 0.86686 0.0
N173 N 0.44576 0.09854 0.86231 0.0
C174 C 0.44179 0.1264 0.86305 0.0
C175 C 0.40126 0.10856 0.86791 0.0
C176 C 0.4202 0.08724 0.86501 0.0
C177 C 0.408 0.21759 0.84511 0.0
O178 O 0.38337 0.2236 0.85426 0.0
H179 H 0.45822 0.14181 0.86253 0.0
H180 H 0.37939 0.10638 0.8722 0.0
O181 O 0.40613 0.17294 0.91285 0.0
H182 H 0.30645 0.17448 0.83705 0.0
H183 H 0.41574 0.06517 0.86676 0.0
Cu184 Cu 0.67474 0.93325 0.88999 0.0
N185 N 0.68311 0.89634 0.8823 0.0
N186 N 0.71026 0.85872 0.87987 0.0
C187 C 0.70384 0.88181 0.89335 0.0
C188 C 0.69223 0.85839 0.85991 0.0
C189 C 0.67562 0.88174 0.86137 0.0
O190 O 0.69782 0.95599 0.86709 0.0
C191 C 0.66236 0.92401 0.94083 0.0
O192 O 0.64448 0.90794 0.92881 0.0
H193 H 0.71531 0.88926 0.90988 0.0
H194 H 0.66079 0.88875 0.84706 0.0
N195 N 0.63789 0.9413 0.88159 0.0
N196 N 0.5994 0.96655 0.87522 0.0
C197 C 0.62698 0.96705 0.88026 0.0
C198 C 0.61666 0.92372 0.87709 0.0
C199 C 0.5929 0.93921 0.87316 0.0
C200 C 0.72329 0.95042 0.86301 0.0
O201 O 0.73601 0.93276 0.87844 0.0
H202 H 0.63922 0.98569 0.88313 0.0
H203 H 0.6182 0.90122 0.87732 0.0
O204 O 0.67946 0.93822 0.92729 0.0
H205 H 0.69257 0.8437 0.84417 0.0
H206 H 0.57234 0.93081 0.86984 0.0
Cu207 Cu 0.64936 0.66107 0.37373 0.0
N208 N 0.6856 0.65508 0.36189 0.0
N209 N 0.73141 0.66151 0.35669 0.0
C210 C 0.70865 0.66802 0.37061 0.0
C211 C 0.72227 0.64336 0.33874 0.0
C212 C 0.69408 0.63944 0.34201 0.0
O213 O 0.63756 0.69686 0.35875 0.0
C214 C 0.63303 0.66137 0.4278 0.0
O215 O 0.60719 0.66473 0.4202 0.0
H216 H 0.70848 0.68276 0.38627 0.0
H217 H 0.68065 0.62663 0.33028 0.0
N218 N 0.62541 0.63271 0.36174 0.0
N219 N 0.59451 0.5976 0.35884 0.0
C220 C 0.60957 0.61408 0.37486 0.0
C221 C 0.62002 0.62791 0.33674 0.0
C222 C 0.60119 0.60637 0.33487 0.0
C223 C 0.65072 0.71963 0.36232 0.0
O224 O 0.67079 0.72022 0.37947 0.0
H225 H 0.60912 0.61261 0.39566 0.0
H226 H 0.62893 0.63963 0.3209 0.0
O227 O 0.65235 0.66042 0.41114 0.0
H228 H 0.73489 0.63383 0.32401 0.0
H229 H 0.5925 0.59835 0.31715 0.0
Cu230 Cu 0.87048 0.63792 0.87932 0.0
N231 N 0.87289 0.67648 0.87615 0.0
N232 N 0.85889 0.72082 0.87655 0.0
C233 C 0.85099 0.69381 0.87604 0.0
C234 C 0.88695 0.72037 0.87697 0.0
C235 C 0.89552 0.69295 0.87682 0.0
O236 O 0.84129 0.62527 0.85608 0.0
C237 C 0.88053 0.6356 0.93248 0.0
O238 O 0.90579 0.64223 0.92507 0.0
H239 H 0.82969 0.68661 0.87692 0.0
H240 H 0.91669 0.68557 0.87811 0.0
N241 N 0.90396 0.62122 0.87015 0.0
N242 N 0.93893 0.5907 0.86802 0.0
C243 C 0.91423 0.59687 0.87897 0.0
C244 C 0.92259 0.63076 0.85295 0.0
C245 C 0.94419 0.61208 0.85165 0.0
C246 C 0.84266 0.633 0.83257 0.0
O247 O 0.86375 0.64852 0.8252 0.0
H248 H 0.90354 0.58387 0.89288 0.0
H249 H 0.92058 0.64996 0.84207 0.0
O250 O 0.86202 0.63096 0.91541 0.0
H251 H 0.90034 0.73848 0.87785 0.0
H252 H 0.96249 0.61437 0.83976 0.0
Cu253 Cu 0.92811 0.84921 0.38643 0.0
N254 N 0.91947 0.81271 0.39713 0.0
N255 N 0.89539 0.7727 0.39653 0.0
C256 C 0.90368 0.79527 0.38302 0.0
C257 C 0.90619 0.77597 0.42032 0.0
C258 C 0.92115 0.80068 0.42062 0.0
O259 O 0.91911 0.84912 0.34956 0.0
C260 C 0.91619 0.87778 0.43107 0.0
O261 O 0.93989 0.8658 0.43699 0.0
H262 H 0.89645 0.80007 0.36376 0.0
H263 H 0.93109 0.80994 0.4372 0.0
N264 N 0.96587 0.85893 0.39027 0.0
N265 N 1.00358 0.88628 0.39414 0.0
C266 C 0.97603 0.88514 0.38894 0.0
C267 C 0.98775 0.84277 0.39644 0.0
C268 C 1.01102 0.85954 0.39874 0.0
C269 C 0.93373 0.83199 0.33661 0.0
O270 O 0.95472 0.81968 0.34821 0.0
H271 H 0.96319 0.90304 0.38453 0.0
H272 H 0.98671 0.82048 0.39962 0.0
O273 O 0.90617 0.87402 0.40853 0.0
H274 H 0.90272 0.76204 0.4365 0.0
H275 H 0.03159 0.85262 0.40424 0.0
Cu276 Cu 0.65491 0.63372 0.66834 0.0
N277 N 0.65279 0.67203 0.67361 0.0
N278 N 0.66599 0.71662 0.67548 0.0
C279 C 0.67419 0.69002 0.67217 0.0
C280 C 0.63824 0.71532 0.67903 0.0
C281 C 0.63016 0.68776 0.67781 0.0
O282 O 0.68358 0.61898 0.69111 0.0
C283 C 0.64218 0.63622 0.61627 0.0
O284 O 0.61901 0.64603 0.62597 0.0
H285 H 0.69518 0.68386 0.66771 0.0
H286 H 0.60917 0.67987 0.67928 0.0
N287 N 0.62169 0.61693 0.67835 0.0
N288 N 0.58694 0.58619 0.68166 0.0
C289 C 0.60952 0.59428 0.66807 0.0
C290 C 0.60649 0.6233 0.69919 0.0
C291 C 0.58496 0.60451 0.70121 0.0
C292 C 0.70953 0.62366 0.68935 0.0
O293 O 0.71924 0.63698 0.6691 0.0
H294 H 0.61743 0.58376 0.65125 0.0
H295 H 0.61132 0.63989 0.71249 0.0
O296 O 0.66131 0.62825 0.63166 0.0
H297 H 0.6247 0.73299 0.68205 0.0
H298 H 0.56978 0.60371 0.71655 0.0
Cu299 Cu 0.88311 0.66111 0.1689 0.0
N300 N 0.84505 0.65529 0.175 0.0
N301 N 0.80005 0.66576 0.17964 0.0
C302 C 0.82652 0.67367 0.18444 0.0
C303 C 0.80195 0.64133 0.16708 0.0
C304 C 0.82969 0.63486 0.16438 0.0
O305 O 0.89538 0.69363 0.18876 0.0
C306 C 0.86735 0.67481 0.11797 0.0
O307 O 0.84668 0.68701 0.12984 0.0
H308 H 0.83222 0.69359 0.19258 0.0
H309 H 0.83813 0.61763 0.15359 0.0
N310 N 0.90296 0.6295 0.18022 0.0
N311 N 0.9356 0.59645 0.18542 0.0
C312 C 0.92857 0.62065 0.17339 0.0
C313 C 0.8936 0.61038 0.19717 0.0
C314 C 0.91354 0.59007 0.2004 0.0
C315 C 0.88681 0.71849 0.185 0.0
O316 O 0.87055 0.72372 0.16522 0.0
H317 H 0.94157 0.63155 0.15962 0.0
H318 H 0.87359 0.61117 0.20656 0.0
O319 O 0.88713 0.66448 0.13135 0.0
H320 H 0.78457 0.62971 0.15933 0.0
H321 H 0.91199 0.57221 0.21316 0.0
Cu322 Cu 0.8473 0.93201 0.65382 0.0
N323 N 0.83969 0.89424 0.65817 0.0
N324 N 0.81239 0.85669 0.66149 0.0
C325 C 0.81371 0.88476 0.66159 0.0
C326 C 0.83886 0.8481 0.65816 0.0
C327 C 0.8557 0.87141 0.65597 0.0
O328 O 0.82236 0.95097 0.67784 0.0
C329 C 0.86273 0.92972 0.60314 0.0
O330 O 0.88314 0.91668 0.61491 0.0
H331 H 0.79604 0.89847 0.66359 0.0
H332 H 0.87776 0.87167 0.6521 0.0
N333 N 0.88368 0.94145 0.66293 0.0
N334 N 0.92251 0.96697 0.66469 0.0
C335 C 0.89596 0.96566 0.65638 0.0
C336 C 0.90302 0.92682 0.67597 0.0
C337 C 0.92703 0.94258 0.67716 0.0
C338 C 0.82688 0.94415 0.70132 0.0
O339 O 0.84745 0.92695 0.70628 0.0
H340 H 0.88543 0.982 0.64574 0.0
H341 H 0.89995 0.90614 0.68391 0.0
O342 O 0.84297 0.93951 0.61675 0.0
H343 H 0.84542 0.82664 0.65629 0.0
H344 H 0.94641 0.9363 0.68604 0.0
Cu345 Cu 0.60879 0.86365 0.16967 0.0
N346 N 0.6142 0.82585 0.16202 0.0
N347 N 0.63761 0.78559 0.16498 0.0
C348 C 0.63539 0.81206 0.17317 0.0
C349 C 0.61705 0.78251 0.14747 0.0
C350 C 0.60248 0.80746 0.14574 0.0
O351 O 0.62103 0.86419 0.20575 0.0
C352 C 0.61888 0.88269 0.12122 0.0
O353 O 0.59592 0.86803 0.11904 0.0
H354 H 0.64963 0.82172 0.18659 0.0
H355 H 0.58503 0.81192 0.13324 0.0
N356 N 0.57195 0.877 0.16844 0.0
N357 N 0.53727 0.90811 0.17151 0.0
C358 C 0.56474 0.90323 0.17478 0.0
C359 C 0.5482 0.86467 0.1608 0.0
C360 C 0.52679 0.88382 0.16264 0.0
C361 C 0.60569 0.8484 0.21974 0.0
O362 O 0.58244 0.83902 0.20966 0.0
H363 H 0.57966 0.91858 0.18123 0.0
H364 H 0.54657 0.84337 0.15426 0.0
O365 O 0.62994 0.88459 0.14354 0.0
H366 H 0.61287 0.7637 0.13671 0.0
H367 H 0.50518 0.87999 0.15808 0.0
H368 H 0.38002 0.17735 0.95604 0.0
H369 H 0.45853 0.13306 0.96028 0.0
H370 H 0.44823 0.1193 1.00509 0.0
H371 H 0.38083 0.20248 1.02282 0.0
H372 H 0.34385 0.19825 0.02655 0.0
H373 H 0.3582 0.20595 0.99527 0.0
H374 H 0.33391 0.16213 0.97691 0.0
H375 H 0.31982 0.15403 1.00819 0.0
H376 H 0.34043 0.12855 0.99152 0.0
H377 H 0.42802 0.10742 0.04843 0.0
H378 H 0.40136 0.10213 0.08872 0.0
H379 H 0.33626 0.15472 0.05689 0.0
C380 C 0.39531 0.16519 0.96652 0.0
C381 C 0.42015 0.15635 0.95452 0.0
C382 C 0.43941 0.14021 0.96895 0.0
C383 C 0.4337 0.13217 0.99444 0.0
C384 C 0.4087 0.14054 1.00541 0.0
C385 C 0.38999 0.15704 0.99207 0.0
C386 C 0.36447 0.16286 1.00828 0.0
C387 C 0.36169 0.19425 1.01354 0.0
C388 C 0.3381 0.15119 0.99545 0.0
C389 C 0.37164 0.14679 0.03267 0.0
C390 C 0.3972 0.13399 0.03056 0.0
C391 C 0.40806 0.11754 0.05039 0.0
C392 C 0.39266 0.11453 0.07318 0.0
C393 C 0.36667 0.128 0.07609 0.0
C394 C 0.35603 0.14414 0.05536 0.0
H395 H 0.36509 0.37914 0.45472 0.0
H396 H 0.40443 0.46054 0.45797 0.0
H397 H 0.41563 0.4526 0.50391 0.0
H398 H 0.33438 0.38242 0.51908 0.0
H399 H 0.33927 0.34572 0.52522 0.0
H400 H 0.33418 0.35812 0.49273 0.0
H401 H 0.38013 0.33436 0.4792 0.0
H402 H 0.38561 0.32229 0.51175 0.0
H403 H 0.41188 0.34295 0.49587 0.0
H404 H 0.4256 0.43431 0.54863 0.0
H405 H 0.427 0.41048 0.59088 0.0
H406 H 0.3786 0.34211 0.55954 0.0
C407 C 0.37577 0.39543 0.4652 0.0
C408 C 0.3839 0.42048 0.45274 0.0
C409 C 0.39777 0.4413 0.46713 0.0
C410 C 0.40445 0.43687 0.49319 0.0
C411 C 0.39673 0.41169 0.50472 0.0
C412 C 0.38213 0.39157 0.49136 0.0
C413 C 0.37554 0.36669 0.50853 0.0
C414 C 0.34397 0.36303 0.51157 0.0
C415 C 0.38911 0.34 0.49821 0.0
C416 C 0.38899 0.37582 0.53355 0.0
C417 C 0.40143 0.40167 0.53081 0.0
C418 C 0.41571 0.41418 0.55106 0.0
C419 C 0.41658 0.40034 0.57496 0.0
C420 C 0.40291 0.37439 0.57859 0.0
C421 C 0.38926 0.3619 0.55742 0.0
H422 H 0.09303 0.41911 0.97775 0.0
H423 H 0.14704 0.34838 0.96503 0.0
H424 H 0.16047 0.34871 1.01121 0.0
H425 H 0.13484 0.45516 1.02164 0.0
H426 H 0.10683 0.46645 0.04204 0.0
H427 H 0.10048 0.45986 1.00843 0.0
H428 H 0.06166 0.42453 1.02017 0.0
H429 H 0.06745 0.43149 0.05381 0.0
H430 H 0.0692 0.39623 0.04211 0.0
H431 H 0.1718 0.36069 0.05813 0.0
H432 H 0.17331 0.37719 0.1033 0.0
H433 H 0.10881 0.43737 0.08576 0.0
C434 C 0.10719 0.40329 0.98486 0.0
C435 C 0.11888 0.38358 0.96794 0.0
C436 C 0.13751 0.36334 0.9778 0.0
C437 C 0.14547 0.3636 1.00393 0.0
C438 C 0.13416 0.38388 1.01998 0.0
C439 C 0.11479 0.40283 1.01093 0.0
C440 C 0.10526 0.42215 0.03214 0.0
C441 C 0.11228 0.45271 0.02566 0.0
C442 C 0.07404 0.41836 0.03737 0.0
C443 C 0.12264 0.41151 0.05448 0.0
C444 C 0.13954 0.38972 0.04705 0.0
C445 C 0.15836 0.37746 0.0642 0.0
C446 C 0.1593 0.38715 0.08973 0.0
C447 C 0.14119 0.40854 0.09797 0.0
C448 C 0.12283 0.42093 0.07999 0.0
H449 H 0.11804 0.12366 0.57699 0.0
H450 H 0.10359 0.21268 0.57187 0.0
H451 H 0.10886 0.21037 0.52422 0.0
H452 H 0.17077 0.12064 0.53278 0.0
H453 H 0.16085 0.08725 0.51989 0.0
H454 H 0.152 0.0959 0.55245 0.0
H455 H 0.10003 0.08624 0.54263 0.0
H456 H 0.10876 0.07752 0.50992 0.0
H457 H 0.08335 0.10417 0.5162 0.0
H458 H 0.12146 0.19775 0.47648 0.0
H459 H 0.1403 0.17687 0.43631 0.0
H460 H 0.14578 0.09681 0.47503 0.0
C461 C 0.11545 0.14269 0.5659 0.0
C462 C 0.1104 0.16836 0.57818 0.0
C463 C 0.10721 0.19272 0.56286 0.0
C464 C 0.11022 0.19156 0.53578 0.0
C465 C 0.116 0.16583 0.52436 0.0
C466 C 0.11825 0.14184 0.53916 0.0
C467 C 0.12647 0.11701 0.52316 0.0
C468 C 0.15416 0.1045 0.53263 0.0
C469 C 0.10326 0.09494 0.52297 0.0
C470 C 0.12954 0.13073 0.49706 0.0
C471 C 0.12307 0.1588 0.49775 0.0
C472 C 0.12615 0.17571 0.47581 0.0
C473 C 0.13672 0.1637 0.45301 0.0
C474 C 0.1444 0.13522 0.45256 0.0
C475 C 0.13999 0.11863 0.47473 0.0
H476 H 0.59364 0.88748 0.07479 0.0
H477 H 0.67142 0.90592 0.1134 0.0
H478 H 0.69109 0.92252 0.07167 0.0
H479 H 0.62203 0.85973 1.01918 0.0
H480 H 0.59558 0.87363 0.99811 0.0
H481 H 0.58759 0.86628 0.03127 0.0
H482 H 0.57126 0.91731 0.03739 0.0
H483 H 0.57915 0.92483 1.00416 0.0
H484 H 0.59441 0.94562 0.02931 0.0
H485 H 0.70251 0.93433 1.02315 0.0
H486 H 0.70425 0.93845 0.97531 0.0
H487 H 0.61863 0.91076 0.97112 0.0
C488 C 0.61477 0.89528 0.07475 0.0
C489 C 0.63098 0.89536 0.09747 0.0
C490 C 0.65852 0.9058 0.09629 0.0
C491 C 0.66983 0.91523 0.07264 0.0
C492 C 0.65325 0.91426 0.05044 0.0
C493 C 0.62621 0.90461 0.05157 0.0
C494 C 0.61272 0.904 0.02529 0.0
C495 C 0.60399 0.87414 1.01805 0.0
C496 C 0.58792 0.92414 1.02397 0.0
C497 C 0.63648 0.91422 1.00883 0.0
C498 C 0.65971 0.92045 1.02343 0.0
C499 C 0.68429 0.92962 1.01171 0.0
C500 C 0.68511 0.932 0.98454 0.0
C501 C 0.66162 0.92485 0.96945 0.0
C502 C 0.63703 0.91629 0.98201 0.0
H503 H 0.60325 0.64719 0.579 0.0
H504 H 0.69036 0.62667 0.58934 0.0
H505 H 0.69743 0.63086 0.54226 0.0
H506 H 0.59364 0.60982 0.51892 0.0
H507 H 0.57033 0.63562 0.50573 0.0
H508 H 0.57216 0.63018 0.54006 0.0
H509 H 0.58302 0.68264 0.54632 0.0
H510 H 0.58145 0.68821 0.51201 0.0
H511 H 0.61215 0.69808 0.5297 0.0
H512 H 0.6953 0.63948 0.4942 0.0
H513 H 0.68384 0.64897 0.44869 0.0
H514 H 0.59775 0.66311 0.46965 0.0
C515 C 0.62381 0.64337 0.5714 0.0
C516 C 0.64629 0.63661 0.58792 0.0
C517 C 0.67281 0.63175 0.57711 0.0
C518 C 0.67703 0.63418 0.55039 0.0
C519 C 0.65449 0.64129 0.53473 0.0
C520 C 0.62833 0.64554 0.54483 0.0
C521 C 0.60758 0.65303 0.52387 0.0
C522 C 0.58457 0.63084 0.52204 0.0
C523 C 0.59534 0.68223 0.52824 0.0
C524 C 0.62618 0.65263 0.50037 0.0
C525 C 0.65317 0.64586 0.50707 0.0
C526 C 0.6742 0.64462 0.48875 0.0
C527 C 0.66746 0.65015 0.4629 0.0
C528 C 0.63984 0.65677 0.45546 0.0
C529 C 0.61902 0.65808 0.4746 0.0
H530 H 0.91564 0.63733 0.97432 0.0
H531 H 0.82841 0.63965 0.953 0.0
H532 H 0.81605 0.64935 0.99817 0.0
H533 H 0.90497 0.60374 0.03775 0.0
H534 H 0.93248 0.62338 0.05276 0.0
H535 H 0.93439 0.61516 1.01899 0.0
H536 H 0.94019 0.66766 1.00821 0.0
H537 H 0.93795 0.67609 0.04189 0.0
H538 H 0.91442 0.69209 1.01916 0.0
H539 H 0.81343 0.66332 0.04422 0.0
H540 H 0.81977 0.67506 0.08987 0.0
H541 H 0.90856 0.66123 0.08286 0.0
C542 C 0.8939 0.63946 0.97923 0.0
C543 C 0.87297 0.63775 0.96007 0.0
C544 C 0.84478 0.64069 0.9673 0.0
C545 C 0.83757 0.64634 0.99291 0.0
C546 C 0.85874 0.64858 1.01115 0.0
C547 C 0.88629 0.64471 1.00481 0.0
C548 C 0.90493 0.64836 0.02823 0.0
C549 C 0.92008 0.62103 0.03482 0.0
C550 C 0.92559 0.67249 1.02411 0.0
C551 C 0.88357 0.65547 0.0486 0.0
C552 C 0.8571 0.65565 0.03818 0.0
C553 C 0.83399 0.66289 0.05268 0.0
C554 C 0.83789 0.66974 0.0786 0.0
C555 C 0.86468 0.66905 0.09003 0.0
C556 C 0.88783 0.66177 0.07474 0.0
H557 H 0.93954 0.90126 0.47302 0.0
H558 H 0.85977 0.88842 0.43614 0.0
H559 H 0.83624 0.90731 0.4749 0.0
H560 H 0.92112 0.87764 0.53246 0.0
H561 H 0.942 0.90211 0.55028 0.0
H562 H 0.95194 0.89254 0.51823 0.0
H563 H 0.95185 0.94458 0.50434 0.0
H564 H 0.94196 0.95438 0.5365 0.0
H565 H 0.92118 0.96535 0.50936 0.0
H566 H 0.82179 0.92184 0.52133 0.0
H567 H 0.81861 0.92922 0.56865 0.0
H568 H 0.90841 0.93163 0.57327 0.0
C569 C 0.91712 0.90305 0.47274 0.0
C570 C 0.90149 0.89344 0.45153 0.0
C571 C 0.87219 0.89599 0.45206 0.0
C572 C 0.85868 0.90663 0.47405 0.0
C573 C 0.87483 0.91499 0.49511 0.0
C574 C 0.90351 0.91356 0.49431 0.0
C575 C 0.91645 0.9212 0.51986 0.0
C576 C 0.93388 0.89693 0.53084 0.0
C577 C 0.93389 0.94797 0.51736 0.0
C578 C 0.89066 0.9261 0.53569 0.0
C579 C 0.86673 0.92298 0.5212 0.0
C580 C 0.84047 0.92477 0.53263 0.0
C581 C 0.8388 0.9291 0.5595 0.0
C582 C 0.86326 0.93111 0.57458 0.0
C583 C 0.88933 0.93034 0.56223 0.0
H584 H 0.21926 0.30901 0.21806 0.0
H585 H 0.1862 0.31201 0.14038 0.0
H586 H 0.2202 0.27629 0.12699 0.0
H587 H 0.29072 0.30233 0.19958 0.0
H588 H 0.29976 0.27915 0.22574 0.0
H589 H 0.27205 0.30395 0.2296 0.0
H590 H 0.23823 0.26397 0.24191 0.0
H591 H 0.2659 0.23908 0.23829 0.0
H592 H 0.23402 0.23485 0.22045 0.0
H593 H 0.25701 0.23979 0.1223 0.0
H594 H 0.29555 0.20597 0.12612 0.0
H595 H 0.30685 0.22836 0.20618 0.0
C596 C 0.21897 0.3018 0.19834 0.0
C597 C 0.19992 0.31298 0.18024 0.0
C598 C 0.2006 0.30362 0.15446 0.0
C599 C 0.21979 0.28336 0.14674 0.0
C600 C 0.23844 0.27293 0.16497 0.0
C601 C 0.23833 0.2819 0.19021 0.0
C602 C 0.26128 0.26798 0.20572 0.0
C603 C 0.28219 0.28965 0.21574 0.0
C604 C 0.24912 0.25043 0.2279 0.0
C605 C 0.2742 0.24966 0.18528 0.0
C606 C 0.26053 0.25272 0.16198 0.0
C607 C 0.26797 0.23735 0.1404 0.0
C608 C 0.2898 0.21819 0.14273 0.0
C609 C 0.30422 0.21478 0.16634 0.0
C610 C 0.29645 0.23094 0.18781 0.0
H611 H 0.3046 0.321 0.68969 0.0
H612 H 0.28691 0.35648 0.61447 0.0
H613 H 0.25125 0.32015 0.60713 0.0
H614 H 0.29678 0.2495 0.6731 0.0
H615 H 0.27992 0.23951 0.70273 0.0
H616 H 0.30383 0.26844 0.70229 0.0
H617 H 0.26596 0.30079 0.72107 0.0
H618 H 0.24209 0.27185 0.72197 0.0
H619 H 0.23279 0.30344 0.70506 0.0
H620 H 0.22 0.27826 0.60698 0.0
H621 H 0.19031 0.23771 0.61607 0.0
H622 H 0.22616 0.23144 0.69288 0.0
C623 C 0.29298 0.32114 0.67181 0.0
C624 C 0.2983 0.34145 0.65265 0.0
C625 C 0.28278 0.34125 0.62947 0.0
C626 C 0.26273 0.32058 0.62506 0.0
C627 C 0.2583 0.30054 0.64419 0.0
C628 C 0.27258 0.30096 0.6673 0.0
C629 C 0.26325 0.27751 0.68496 0.0
C630 C 0.28739 0.25756 0.69112 0.0
C631 C 0.25024 0.2891 0.70972 0.0
C632 C 0.24164 0.26369 0.66804 0.0
C633 C 0.23937 0.27711 0.64452 0.0
C634 C 0.22123 0.26785 0.62551 0.0
C635 C 0.20431 0.24478 0.63097 0.0
C636 C 0.20518 0.23142 0.65546 0.0
C637 C 0.22465 0.24087 0.67397 0.0
H638 H 0.36972 0.27021 0.3983 0.0
H639 H 0.32906 0.31075 0.33358 0.0
H640 H 0.29518 0.27198 0.33139 0.0
H641 H 0.36089 0.19878 0.37688 0.0
H642 H 0.35406 0.18529 0.40874 0.0
H643 H 0.37577 0.21564 0.40464 0.0
H644 H 0.34392 0.24347 0.43527 0.0
H645 H 0.32214 0.21321 0.4395 0.0
H646 H 0.30724 0.24563 0.42848 0.0
H647 H 0.26613 0.22876 0.33595 0.0
H648 H 0.24192 0.18564 0.3482 0.0
H649 H 0.29973 0.17364 0.4117 0.0
C650 C 0.3539 0.27073 0.38347 0.0
C651 C 0.35216 0.29344 0.36592 0.0
C652 C 0.33072 0.29364 0.34721 0.0
C653 C 0.31149 0.27165 0.34577 0.0
C654 C 0.31376 0.24964 0.36335 0.0
C655 C 0.33428 0.24908 0.38198 0.0
C656 C 0.33132 0.2235 0.39922 0.0
C657 C 0.35704 0.20469 0.39724 0.0
C658 C 0.32582 0.23197 0.42728 0.0
C659 C 0.30597 0.20972 0.38733 0.0
C660 C 0.29635 0.22511 0.36656 0.0
C661 C 0.27333 0.21668 0.35233 0.0
C662 C 0.25954 0.19211 0.35965 0.0
C663 C 0.26845 0.17613 0.38127 0.0
C664 C 0.29227 0.18511 0.39507 0.0
H665 H 0.28424 0.21713 0.8424 0.0
H666 H 0.31491 0.21183 0.92105 0.0
H667 H 0.28746 0.25318 0.93232 0.0
H668 H 0.28429 0.28948 0.83619 0.0
H669 H 0.25222 0.29197 0.81834 0.0
H670 H 0.27298 0.26088 0.81636 0.0
H671 H 0.2311 0.23073 0.83096 0.0
H672 H 0.21 0.26167 0.83249 0.0
H673 H 0.21319 0.23924 0.86034 0.0
H674 H 0.26115 0.29796 0.93392 0.0
H675 H 0.2309 0.33915 0.92755 0.0
H676 H 0.21403 0.31339 0.84926 0.0
C677 C 0.2847 0.22412 0.86216 0.0
C678 C 0.30226 0.21139 0.88069 0.0
C679 C 0.30224 0.22155 0.9063 0.0
C680 C 0.28662 0.245 0.91295 0.0
C681 C 0.27058 0.25776 0.89395 0.0
C682 C 0.26887 0.24729 0.86926 0.0
C683 C 0.24994 0.26503 0.85253 0.0
C684 C 0.26582 0.27758 0.8295 0.0
C685 C 0.22455 0.24816 0.84356 0.0
C686 C 0.24177 0.28735 0.87157 0.0
C687 C 0.25418 0.28291 0.89527 0.0
C688 C 0.25098 0.30147 0.91558 0.0
C689 C 0.23407 0.32489 0.91175 0.0
C690 C 0.22036 0.32925 0.88795 0.0
C691 C 0.22432 0.3103 0.86762 0.0
H692 H 0.71737 0.80529 0.86374 0.0
H693 H 0.75919 0.87369 0.90227 0.0
H694 H 0.80166 0.84559 0.90563 0.0
H695 H 0.74974 0.74952 0.90022 0.0
H696 H 0.75257 0.72673 0.87288 0.0
H697 H 0.72493 0.75194 0.87424 0.0
H698 H 0.74041 0.77229 0.83016 0.0
H699 H 0.76817 0.74722 0.82873 0.0
H700 H 0.77576 0.78395 0.82607 0.0
H701 H 0.84015 0.81078 0.90382 0.0
H702 H 0.87146 0.77063 0.89844 0.0
H703 H 0.80537 0.72522 0.86 0.0
C704 C 0.73543 0.81433 0.87292 0.0
C705 C 0.7347 0.84166 0.88295 0.0
C706 C 0.75884 0.85265 0.89493 0.0
C707 C 0.78325 0.83692 0.89673 0.0
C708 C 0.78329 0.81021 0.88646 0.0
C709 C 0.76002 0.79891 0.87488 0.0
C710 C 0.76575 0.76974 0.86523 0.0
C711 C 0.74714 0.74822 0.87897 0.0
C712 C 0.76233 0.76823 0.8358 0.0
C713 C 0.79588 0.76651 0.87314 0.0
C714 C 0.8056 0.79012 0.88531 0.0
C715 C 0.83281 0.79215 0.89429 0.0
C716 C 0.85052 0.7693 0.89096 0.0
C717 C 0.84095 0.74471 0.87878 0.0
C718 C 0.81327 0.74353 0.86965 0.0
H719 H 0.75492 0.68539 0.39925 0.0
H720 H 0.77037 0.66608 0.31894 0.0
H721 H 0.81594 0.68921 0.32176 0.0
H722 H 0.78409 0.75312 0.39761 0.0
H723 H 0.79895 0.75116 0.42948 0.0
H724 H 0.76846 0.73104 0.42182 0.0
H725 H 0.79372 0.68589 0.43622 0.0
H726 H 0.82436 0.70588 0.44387 0.0
H727 H 0.82659 0.67705 0.42186 0.0
H728 H 0.85807 0.71795 0.33198 0.0
H729 H 0.89406 0.74955 0.34937 0.0
H730 H 0.85209 0.75 0.42311 0.0
C731 C 0.76788 0.68586 0.38226 0.0
C732 C 0.75887 0.67367 0.35887 0.0
C733 C 0.77676 0.67473 0.33721 0.0
C734 C 0.80273 0.68799 0.33857 0.0
C735 C 0.81076 0.70001 0.36179 0.0
C736 C 0.79395 0.69896 0.3833 0.0
C737 C 0.80707 0.71454 0.40562 0.0
C738 C 0.78854 0.73891 0.41412 0.0
C739 C 0.81331 0.69465 0.42823 0.0
C740 C 0.83364 0.72495 0.39314 0.0
C741 C 0.83537 0.71624 0.36785 0.0
C742 C 0.85712 0.72457 0.35185 0.0
C743 C 0.87742 0.74253 0.36185 0.0
C744 C 0.87602 0.75189 0.38763 0.0
C745 C 0.85403 0.7426 0.40355 0.0
H746 H 0.80776 0.80223 0.67671 0.0
H747 H 0.7602 0.87293 0.6482 0.0
H748 H 0.71745 0.84516 0.65071 0.0
H749 H 0.7698 0.75027 0.64138 0.0
H750 H 0.77143 0.72449 0.66677 0.0
H751 H 0.7985 0.75026 0.66375 0.0
H752 H 0.79023 0.76531 0.71099 0.0
H753 H 0.7631 0.73959 0.71405 0.0
H754 H 0.75591 0.77567 0.72087 0.0
H755 H 0.67979 0.80998 0.6555 0.0
H756 H 0.64986 0.76857 0.66078 0.0
H757 H 0.72135 0.72029 0.68571 0.0
C758 C 0.7884 0.81184 0.67092 0.0
C759 C 0.78747 0.83997 0.66261 0.0
C760 C 0.76157 0.85172 0.65527 0.0
C761 C 0.73708 0.83604 0.65645 0.0
C762 C 0.73871 0.80854 0.66491 0.0
C763 C 0.76365 0.79643 0.67192 0.0
C764 C 0.75957 0.76618 0.67973 0.0
C765 C 0.77578 0.74666 0.66183 0.0
C766 C 0.76768 0.76142 0.7081 0.0
C767 C 0.72849 0.76328 0.67581 0.0
C768 C 0.71688 0.78802 0.6674 0.0
C769 C 0.68859 0.79048 0.66219 0.0
C770 C 0.67171 0.76688 0.6654 0.0
C771 C 0.68319 0.74115 0.67365 0.0
C772 C 0.71196 0.73954 0.67911 0.0
H773 H 0.75805 0.67389 0.14538 0.0
H774 H 0.78699 0.69575 0.22169 0.0
H775 H 0.74557 0.72564 0.2276 0.0
H776 H 0.73453 0.74167 0.12881 0.0
H777 H 0.705 0.73 0.11037 0.0
H778 H 0.73525 0.70818 0.11324 0.0
H779 H 0.70472 0.66797 0.13109 0.0
H780 H 0.67434 0.68972 0.12835 0.0
H781 H 0.68317 0.6739 0.15887 0.0
H782 H 0.70196 0.75392 0.22471 0.0
H783 H 0.6616 0.7824 0.21205 0.0
H784 H 0.66189 0.74459 0.13636 0.0
C785 C 0.75528 0.68456 0.16351 0.0
C786 C 0.7754 0.68223 0.18333 0.0
C787 C 0.77167 0.69719 0.20644 0.0
C788 C 0.74818 0.71406 0.20996 0.0
C789 C 0.72877 0.716 0.19002 0.0
C790 C 0.73218 0.70189 0.16713 0.0
C791 C 0.70946 0.70944 0.14798 0.0
C792 C 0.7218 0.72314 0.12367 0.0
C793 C 0.69188 0.68372 0.14118 0.0
C794 C 0.69284 0.73019 0.16359 0.0
C795 C 0.70417 0.7333 0.18791 0.0
C796 C 0.69299 0.75171 0.2057 0.0
C797 C 0.67012 0.76792 0.19825 0.0
C798 C 0.65873 0.766 0.17309 0.0
C799 C 0.66993 0.74636 0.15576 0.0
H800 H 0.22658 0.05508 0.31132 0.0
H801 H 0.18471 0.13425 0.30028 0.0
H802 H 0.20386 0.13713 0.25589 0.0
H803 H 0.28783 0.07446 0.28337 0.0
H804 H 0.29518 0.04101 0.26932 0.0
H805 H 0.2741 0.04302 0.29775 0.0
H806 H 0.2345 1.01637 0.27454 0.0
H807 H 0.25555 1.01419 0.24595 0.0
H808 H 0.22136 0.02935 0.24421 0.0
H809 H 0.23315 0.13355 0.21448 0.0
H810 H 0.26984 0.12523 0.18215 0.0
H811 H 0.29285 0.04896 0.22208 0.0
C812 C 0.22076 0.07278 0.29944 0.0
C813 C 0.20397 0.0944 0.30929 0.0
C814 C 0.19721 0.11726 0.29307 0.0
C815 C 0.20807 0.11904 0.26785 0.0
C816 C 0.22541 0.09769 0.25913 0.0
C817 C 0.23149 0.07491 0.27454 0.0
C818 C 0.25281 0.05609 0.26221 0.0
C819 C 0.27902 0.05352 0.27916 0.0
C820 C 0.2403 0.0273 0.25638 0.0
C821 C 0.25867 0.07219 0.23769 0.0
C822 C 0.24236 0.09587 0.23589 0.0
C823 C 0.24563 0.11483 0.21559 0.0
C824 C 0.2665 0.10985 0.19721 0.0
C825 C 0.28419 0.08629 0.19942 0.0
C826 C 0.27953 0.06696 0.2196 0.0
H827 H 0.39292 0.31357 0.72 0.0
H828 H 0.48208 0.30795 0.7095 0.0
H829 H 0.48527 0.27686 0.74774 0.0
H830 H 0.39529 0.31822 0.78802 0.0
H831 H 0.36389 0.29843 0.7931 0.0
H832 H 0.36844 0.31809 0.76375 0.0
H833 H 0.36006 0.27347 0.73692 0.0
H834 H 0.35522 0.2537 0.76619 0.0
H835 H 0.3809 0.24293 0.7431 0.0
H836 H 0.47818 0.24615 0.78792 0.0
H837 H 0.46174 0.22062 0.82678 0.0
H838 H 0.37799 0.24992 0.81189 0.0
C839 C 0.41308 0.30539 0.72541 0.0
C840 C 0.43723 0.31286 0.71152 0.0
C841 C 0.46328 0.30231 0.71972 0.0
C842 C 0.46528 0.28466 0.74143 0.0
C843 C 0.44108 0.27807 0.75494 0.0
C844 C 0.4155 0.28827 0.74725 0.0
C845 C 0.3928 0.27954 0.76577 0.0
C846 C 0.37933 0.30509 0.7784 0.0
C847 C 0.37097 0.26132 0.75218 0.0
C848 C 0.40953 0.26277 0.78512 0.0
C849 C 0.43729 0.26184 0.77849 0.0
C850 C 0.4565 0.24691 0.79333 0.0
C851 C 0.44702 0.2325 0.81537 0.0
C852 C 0.41868 0.23355 0.82259 0.0
C853 C 0.39988 0.24904 0.8072 0.0
H854 H 0.19223 0.42225 0.27293 0.0
H855 H 0.23987 0.44774 0.20591 0.0
H856 H 0.28249 0.44904 0.23281 0.0
H857 H 0.23016 0.46274 0.321 0.0
H858 H 0.22775 0.43549 0.34498 0.0
H859 H 0.20094 0.43917 0.32093 0.0
H860 H 0.20812 0.38776 0.30746 0.0
H861 H 0.23498 0.38393 0.33138 0.0
H862 H 0.24225 0.37622 0.29814 0.0
H863 H 0.32051 0.44497 0.2672 0.0
H864 H 0.3503 0.43473 0.30491 0.0
H865 H 0.2774 0.41059 0.34881 0.0
C866 C 0.21148 0.42865 0.26389 0.0
C867 C 0.21255 0.43521 0.23726 0.0
C868 C 0.2384 0.44286 0.22626 0.0
C869 C 0.26273 0.44364 0.24143 0.0
C870 C 0.26092 0.43661 0.26755 0.0
C871 C 0.23588 0.42925 0.27864 0.0
C872 C 0.23959 0.42089 0.30667 0.0
C873 C 0.22366 0.44077 0.32444 0.0
C874 C 0.23071 0.3904 0.31116 0.0
C875 C 0.2707 0.42442 0.3097 0.0
C876 C 0.28265 0.43374 0.28702 0.0
C877 C 0.31127 0.43783 0.28505 0.0
C878 C 0.32805 0.43196 0.30665 0.0
C879 C 0.3163 0.4219 0.32998 0.0
C880 C 0.28714 0.4184 0.33141 0.0
H881 H 0.11777 0.28509 0.69893 0.0
H882 H 0.06396 0.21778 0.72457 0.0
H883 H 0.06001 0.24011 0.76727 0.0
H884 H 0.15555 0.29117 0.75617 0.0
H885 H 0.15895 0.32857 0.75447 0.0
H886 H 0.15519 0.30875 0.72536 0.0
H887 H 0.11232 0.33831 0.71229 0.0
H888 H 0.11612 0.35845 0.74126 0.0
H889 H 0.0836 0.34135 0.73432 0.0
H890 H 0.06545 0.26861 0.80895 0.0
H891 H 0.07806 0.30128 0.84404 0.0
H892 H 0.12816 0.349 0.79006 0.0
C893 C 0.10464 0.27526 0.71328 0.0
C894 C 0.09104 0.2497 0.70822 0.0
C895 C 0.07442 0.23746 0.72782 0.0
C896 C 0.07213 0.24996 0.75221 0.0
C897 C 0.08649 0.27478 0.75673 0.0
C898 C 0.1022 0.28737 0.73764 0.0
C899 C 0.11669 0.31324 0.74749 0.0
C900 C 0.14847 0.31024 0.74577 0.0
C901 C 0.10657 0.33938 0.73298 0.0
C902 C 0.10699 0.31315 0.7752 0.0
C903 C 0.08954 0.2909 0.78031 0.0
C904 C 0.07888 0.28624 0.80501 0.0
C905 C 0.08619 0.30485 0.82487 0.0
C906 C 0.10399 0.32782 0.81989 0.0
C907 C 0.11433 0.33183 0.79463 0.0
H908 H 0.77539 0.937 0.84622 0.0
H909 H 0.7009 0.98147 0.82314 0.0
H910 H 0.72062 0.98848 0.77958 0.0
H911 H 0.82526 0.97825 0.80756 0.0
H912 H 0.84567 0.94784 0.80027 0.0
H913 H 0.82695 0.94965 0.83023 0.0
H914 H 0.80222 0.90305 0.81956 0.0
H915 H 0.82064 0.9012 0.78953 0.0
H916 H 0.78323 0.89997 0.78975 0.0
H917 H 0.74721 0.98597 0.73654 0.0
H918 H 0.77821 0.97515 0.69972 0.0
H919 H 0.83439 0.93255 0.7522 0.0
C920 C 0.76344 0.94887 0.83229 0.0
C921 C 0.73663 0.95883 0.83828 0.0
C922 C 0.72159 0.97383 0.81917 0.0
C923 C 0.73262 0.97786 0.7943 0.0
C924 C 0.75879 0.96695 0.78882 0.0
C925 C 0.77407 0.953 0.80746 0.0
C926 C 0.80078 0.94157 0.79652 0.0
C927 C 0.82616 0.95515 0.80941 0.0
C928 C 0.80175 0.90956 0.79898 0.0
C929 C 0.798 0.95074 0.76869 0.0
C930 C 0.7738 0.96551 0.76447 0.0
C931 C 0.7664 0.97473 0.73977 0.0
C932 C 0.7841 0.96851 0.71894 0.0
C933 C 0.80883 0.9531 0.72297 0.0
C934 C 0.81579 0.94453 0.74831 0.0
H935 H 0.61117 0.72611 0.32423 0.0
H936 H 0.68045 0.76853 0.36063 0.0
H937 H 0.67601 0.80728 0.32932 0.0
H938 H 0.6285 0.74424 0.2599 0.0
H939 H 0.59302 0.74875 0.2496 0.0
H940 H 0.601 0.72508 0.27562 0.0
H941 H 0.56663 0.75137 0.30524 0.0
H942 H 0.55855 0.77507 0.27923 0.0
H943 H 0.57062 0.78843 0.30964 0.0
H944 H 0.66604 0.84018 0.29098 0.0
H945 H 0.64915 0.86475 0.25161 0.0
H946 H 0.58552 0.80138 0.24249 0.0
C947 C 0.62518 0.7437 0.32589 0.0
C948 C 0.64612 0.74417 0.34503 0.0
C949 C 0.66412 0.76762 0.34628 0.0
C950 C 0.66183 0.78977 0.3285 0.0
C951 C 0.64126 0.78842 0.3096 0.0
C952 C 0.62307 0.76607 0.30842 0.0
C953 C 0.60308 0.76929 0.28606 0.0
C954 C 0.60663 0.74543 0.26666 0.0
C955 C 0.57294 0.77116 0.29562 0.0
C956 C 0.61286 0.79683 0.27481 0.0
C957 C 0.63505 0.80757 0.2884 0.0
C958 C 0.64838 0.83212 0.28045 0.0
C959 C 0.63869 0.84597 0.25808 0.0
C960 C 0.61571 0.83538 0.24415 0.0
C961 C 0.60274 0.81053 0.2529 0.0
H962 H 0.83866 0.65002 0.78226 0.0
H963 H 0.79662 0.5998 0.84017 0.0
H964 H 0.75947 0.58908 0.80869 0.0
H965 H 0.77814 0.68011 0.75505 0.0
H966 H 0.79107 0.67996 0.7225 0.0
H967 H 0.81497 0.68216 0.74911 0.0
H968 H 0.84094 0.63855 0.73247 0.0
H969 H 0.81703 0.63615 0.70583 0.0
H970 H 0.8219 0.6067 0.72711 0.0
H971 H 0.7257 0.58593 0.77131 0.0
H972 H 0.69764 0.59137 0.73171 0.0
H973 H 0.76223 0.64344 0.69834 0.0
C974 C 0.82181 0.63653 0.78833 0.0
C975 C 0.82064 0.62565 0.81372 0.0
C976 C 0.79803 0.60832 0.82085 0.0
C977 C 0.77686 0.60208 0.80307 0.0
C978 C 0.77864 0.61328 0.77823 0.0
C979 C 0.80055 0.63016 0.7709 0.0
C980 C 0.79708 0.64055 0.74344 0.0
C981 C 0.7952 0.67259 0.74248 0.0
C982 C 0.82064 0.62984 0.7262 0.0
C983 C 0.76959 0.62713 0.73649 0.0
C984 C 0.75934 0.61138 0.75677 0.0
C985 C 0.73366 0.59801 0.75526 0.0
C986 C 0.71788 0.60123 0.73265 0.0
C987 C 0.72779 0.61767 0.71179 0.0
C988 C 0.75422 0.63038 0.71372 0.0
H989 H 0.94646 0.78172 0.31586 0.0
H990 H 0.89932 0.85702 0.30045 0.0
H991 H 0.88362 0.83703 0.2588 0.0
H992 H 0.96849 0.76727 0.25125 0.0
H993 H 0.96419 0.7301 0.25486 0.0
H994 H 0.97252 0.75107 0.28248 0.0
H995 H 0.92916 0.73187 0.30627 0.0
H996 H 0.92066 0.71079 0.27876 0.0
H997 H 0.89548 0.73491 0.2913 0.0
H998 H 0.8733 0.80792 0.21859 0.0
H999 H 0.86668 0.772 0.18525 0.0
H1000 H 0.91938 0.71529 0.22869 0.0
C1001 C 0.93315 0.7943 0.30362 0.0
C1002 C 0.92449 0.82121 0.31121 0.0
C1003 C 0.9064 0.83651 0.29491 0.0
C1004 C 0.89744 0.8253 0.27124 0.0
C1005 C 0.90646 0.79864 0.2644 0.0
C1006 C 0.92372 0.7833 0.28031 0.0
C1007 C 0.92933 0.7546 0.26946 0.0
C1008 C 0.96048 0.75054 0.2642 0.0
C1009 C 0.91798 0.7317 0.28751 0.0
C1010 C 0.91285 0.75615 0.24463 0.0
C1011 C 0.89988 0.78173 0.24196 0.0
C1012 C 0.88337 0.78786 0.22057 0.0
C1013 C 0.87981 0.76728 0.20166 0.0
C1014 C 0.89253 0.74073 0.20422 0.0
C1015 C 0.90942 0.73533 0.22601 0.0
H1016 H 0.41551 0.02167 0.15963 0.0
H1017 H 0.46112 0.07005 0.21608 0.0
H1018 H 0.4974 0.03398 0.21763 0.0
H1019 H 0.43057 0.95439 0.18704 0.0
H1020 H 0.43437 0.93709 0.15654 0.0
H1021 H 0.41201 0.96702 0.15912 0.0
H1022 H 0.43909 0.99175 0.12245 0.0
H1023 H 0.46146 0.96183 0.11967 0.0
H1024 H 0.47621 0.99585 0.12519 0.0
H1025 H 0.52848 0.99264 0.21392 0.0
H1026 H 0.55265 0.94864 0.20501 0.0
H1027 H 0.488 0.9262 0.15043 0.0
C1028 C 0.43327 0.02479 0.1721 0.0
C1029 C 0.43526 0.04878 0.18786 0.0
C1030 C 0.45877 0.05179 0.20413 0.0
C1031 C 0.47964 0.03144 0.20504 0.0
C1032 C 0.47688 1.00798 0.18958 0.0
C1033 C 0.45436 1.00449 0.17336 0.0
C1034 C 0.45646 0.97694 0.1591 0.0
C1035 C 0.43189 0.95773 0.16586 0.0
C1036 C 0.45842 0.9819 0.12987 0.0
C1037 C 0.48359 0.96557 0.16993 0.0
C1038 C 0.49498 0.98392 0.18742 0.0
C1039 C 0.51985 0.97817 0.20013 0.0
C1040 C 0.53355 0.95308 0.19479 0.0
C1041 C 0.52252 0.93379 0.17684 0.0
C1042 C 0.49703 0.94026 0.16436 0.0
H1043 H 0.53359 0.57837 0.69746 0.0
H1044 H 0.60142 0.53849 0.65693 0.0
H1045 H 0.5728 0.49624 0.65169 0.0
H1046 H 0.51184 0.51828 0.73274 0.0
H1047 H 0.47535 0.52631 0.73061 0.0
H1048 H 0.50063 0.55403 0.73003 0.0
H1049 H 0.48046 0.57202 0.68668 0.0
H1050 H 0.45502 0.54442 0.68719 0.0
H1051 H 0.47769 0.54852 0.65983 0.0
H1052 H 0.53754 0.45765 0.65242 0.0
H1053 H 0.49781 0.42578 0.65824 0.0
H1054 H 0.45299 0.49075 0.69844 0.0
C1055 C 0.5425 0.56078 0.68752 0.0
C1056 C 0.56982 0.56188 0.67759 0.0
C1057 C 0.58047 0.53842 0.6644 0.0
C1058 C 0.56442 0.51422 0.66146 0.0
C1059 C 0.53773 0.51378 0.67177 0.0
C1060 C 0.5268 0.53647 0.68444 0.0
C1061 C 0.49771 0.53047 0.69408 0.0
C1062 C 0.49632 0.53238 0.72362 0.0
C1063 C 0.47647 0.55002 0.68117 0.0
C1064 C 0.49411 0.50072 0.68509 0.0
C1065 C 0.5174 0.49153 0.67219 0.0
C1066 C 0.5191 0.46468 0.66232 0.0
C1067 C 0.49633 0.44677 0.66561 0.0
C1068 C 0.47213 0.45574 0.67869 0.0
C1069 C 0.47119 0.48312 0.68857 0.0
H1070 H 0.03002 0.46108 0.19797 0.0
H1071 H 0.10136 0.51246 0.17831 0.0
H1072 H 0.07039 0.55308 0.17287 0.0
H1073 H 0.98145 0.49299 0.15424 0.0
H1074 H 0.95276 0.49033 0.17638 0.0
H1075 H 0.98053 0.46524 0.17783 0.0
H1076 H 0.98851 0.4767 0.226 0.0
H1077 H 0.96075 0.50179 0.22471 0.0
H1078 H 0.99484 0.5123 0.23534 0.0
H1079 H 0.03073 0.58884 0.17032 0.0
H1080 H 0.987 0.61584 0.17205 0.0
H1081 H 0.94244 0.54069 0.19401 0.0
C1082 C 0.0394 0.48079 0.19271 0.0
C1083 C 0.06844 0.48323 0.18863 0.0
C1084 C 0.07931 0.50967 0.18133 0.0
C1085 C 0.06182 0.533 0.17827 0.0
C1086 C 0.03339 0.52975 0.18258 0.0
C1087 C 0.02232 0.50424 0.18967 0.0
C1088 C 0.99119 0.50617 0.19362 0.0
C1089 C 0.97557 0.48758 0.17437 0.0
C1090 C 0.98337 0.49881 0.22158 0.0
C1091 C 0.9864 0.53681 0.18788 0.0
C1092 C 1.01091 0.55011 0.18137 0.0
C1093 C 1.01146 0.57854 0.17536 0.0
C1094 C 0.98644 0.59372 0.17626 0.0
C1095 C 0.96111 0.58057 0.18327 0.0
C1096 C 0.96134 0.55162 0.18893 0.0
H1097 H 0.96747 0.9804 0.69423 0.0
H1098 H 0.92171 1.0049 0.62558 0.0
H1099 H 0.95369 0.04441 0.61909 0.0
H1100 H 0.98232 0.0492 0.71658 0.0
H1101 H 0.01678 0.04084 0.72784 0.0
H1102 H 0.99034 1.01423 0.72714 0.0
H1103 H 0.02203 0.98326 0.69899 0.0
H1104 H 0.0486 1.00975 0.69966 0.0
H1105 H 0.03577 0.99709 0.66925 0.0
H1106 H 0.99019 0.08156 0.62016 0.0
H1107 H 0.02953 0.11331 0.62825 0.0
H1108 H 0.05202 0.06467 0.69594 0.0
C1109 C 0.96431 0.99388 0.6777 0.0
C1110 C 0.94186 0.98957 0.66055 0.0
C1111 C 0.93836 1.00798 0.63929 0.0
C1112 C 0.95656 0.03042 0.63532 0.0
C1113 C 0.97827 0.03419 0.6527 0.0
C1114 C 0.98232 1.0164 0.67341 0.0
C1115 C 1.00728 0.02523 0.68925 0.0
C1116 C 0.99865 0.03283 0.71683 0.0
C1117 C 0.02975 1.00248 0.68927 0.0
C1118 C 0.01655 0.05077 0.6742 0.0
C1119 C 0.99949 0.05557 0.65322 0.0
C1120 C 1.0037 0.07805 0.63655 0.0
C1121 C 0.026 0.0961 0.64142 0.0
C1122 C 0.04386 0.09159 0.66279 0.0
C1123 C 0.03896 0.06854 0.67932 0.0
H1124 H 0.57955 0.55289 0.32963 0.0
H1125 H 0.56368 0.59307 0.40274 0.0
H1126 H 0.52774 0.55759 0.41255 0.0
H1127 H 0.50911 0.53578 0.31491 0.0
H1128 H 0.51742 0.50271 0.30056 0.0
H1129 H 0.54241 0.53069 0.29983 0.0
H1130 H 0.5788 0.49874 0.32194 0.0
H1131 H 0.55393 0.47063 0.32269 0.0
H1132 H 0.57035 0.48189 0.35208 0.0
H1133 H 0.49168 0.51826 0.41331 0.0
H1134 H 0.46086 0.47776 0.40601 0.0
H1135 H 0.5005 0.46367 0.33228 0.0
C1136 C 0.56853 0.55436 0.34771 0.0
C1137 C 0.57452 0.576 0.36537 0.0
C1138 C 0.55978 0.57667 0.38897 0.0
C1139 C 0.53916 0.55665 0.39464 0.0
C1140 C 0.53357 0.53588 0.37661 0.0
C1141 C 0.54803 0.53452 0.3537 0.0
C1142 C 0.53814 0.5102 0.33749 0.0
C1143 C 0.52605 0.52047 0.31167 0.0
C1144 C 0.56171 0.48912 0.33332 0.0
C1145 C 0.51566 0.49814 0.35472 0.0
C1146 C 0.51326 0.51325 0.37719 0.0
C1147 C 0.49351 0.50629 0.3958 0.0
C1148 C 0.47592 0.48329 0.3914 0.0
C1149 C 0.47813 0.46732 0.36858 0.0
C1150 C 0.49839 0.47506 0.35009 0.0
H1151 H 0.06147 0.48442 0.83994 0.0
H1152 H 0.04267 0.44463 0.91316 0.0
H1153 H 1.00354 0.47713 0.91933 0.0
H1154 H 0.04783 0.55395 0.85941 0.0
H1155 H 0.03253 0.5644 0.82913 0.0
H1156 H 0.05821 0.53717 0.82999 0.0
H1157 H 0.02391 0.50366 0.80717 0.0
H1158 H 0.99813 0.53082 0.80617 0.0
H1159 H 0.99004 0.49765 0.8209 0.0
H1160 H 0.96792 0.51566 0.91843 0.0
H1161 H 0.93794 0.55634 0.91013 0.0
H1162 H 0.97953 0.57005 0.83693 0.0
C1163 C 0.04914 0.48255 0.85727 0.0
C1164 C 0.05512 0.46195 0.87605 0.0
C1165 C 0.03827 0.45998 0.89835 0.0
C1166 C 0.01609 0.47845 0.90209 0.0
C1167 C 1.01092 0.49864 0.88327 0.0
C1168 C 0.02686 0.50068 0.86123 0.0
C1169 C 0.01719 0.52442 0.8441 0.0
C1170 C 0.04032 0.54628 0.84046 0.0
C1171 C 1.00669 0.51347 0.81805 0.0
C1172 C 0.9936 0.53572 0.86014 0.0
C1173 C 0.99024 0.52055 0.88262 0.0
C1174 C 0.97018 0.52753 0.90075 0.0
C1175 C 0.95312 0.55065 0.89578 0.0
C1176 C 0.95616 0.56657 0.87281 0.0
C1177 C 0.97668 0.5587 0.85479 0.0
H1178 H 0.06022 0.88975 0.38923 0.0
H1179 H 0.98654 0.93935 0.40355 0.0
H1180 H 0.01553 0.98151 0.40652 0.0
H1181 H 0.10542 0.9269 0.43322 0.0
H1182 H 0.13551 0.92446 0.41275 0.0
H1183 H 0.10901 0.8979 0.41156 0.0
H1184 H 0.10349 0.90609 0.36245 0.0
H1185 H 0.12998 0.93264 0.36349 0.0
H1186 H 0.09615 0.9407 0.35052 0.0
H1187 H 0.0523 0.01854 0.40805 0.0
H1188 H 0.09428 0.04793 0.40767 0.0
H1189 H 0.14478 0.97496 0.39258 0.0
C1190 C 0.05015 0.9094 0.39316 0.0
C1191 C 0.02088 0.91101 0.39596 0.0
C1192 C 1.00871 0.93738 0.40084 0.0
C1193 C 0.02508 0.96153 0.40277 0.0
C1194 C 0.05374 0.95919 0.39985 0.0
C1195 C 0.06623 0.93382 0.39516 0.0
C1196 C 0.09752 0.93721 0.39265 0.0
C1197 C 0.11276 0.92063 0.41381 0.0
C1198 C 0.10736 0.92866 0.36567 0.0
C1199 C 0.10062 0.96844 0.39663 0.0
C1200 C 0.07506 0.98064 0.40077 0.0
C1201 C 0.07242 1.00921 0.40474 0.0
C1202 C 0.09646 0.0258 0.40433 0.0
C1203 C 0.123 1.01395 0.39992 0.0
C1204 C 0.12495 0.98474 0.3962 0.0
H1205 H 0.54673 0.9677 0.85507 0.0
H1206 H 0.60904 0.0194 0.89241 0.0
H1207 H 0.57729 0.05925 0.89044 0.0
H1208 H 0.51835 0.02117 0.81292 0.0
H1209 H 0.48303 1.00925 0.81658 0.0
H1210 H 0.51131 0.98483 0.81929 0.0
H1211 H 0.49387 0.96966 0.86446 0.0
H1212 H 0.46553 0.99397 0.86187 0.0
H1213 H 0.48894 0.99565 0.88896 0.0
H1214 H 0.5385 0.09321 0.88618 0.0
H1215 H 0.49455 0.11861 0.88121 0.0
H1216 H 0.45655 0.04522 0.84735 0.0
C1217 C 0.55383 0.9873 0.86288 0.0
C1218 C 0.58074 0.99014 0.87371 0.0
C1219 C 0.58894 1.01647 0.88353 0.0
C1220 C 0.57093 0.03936 0.88263 0.0
C1221 C 0.54467 0.03574 0.87193 0.0
C1222 C 0.53605 1.01039 0.86231 0.0
C1223 C 0.50627 1.0119 0.85279 0.0
C1224 C 0.50466 1.00647 0.82366 0.0
C1225 C 0.48755 0.99159 0.86793 0.0
C1226 C 0.49945 0.04198 0.8589 0.0
C1227 C 0.52202 0.05537 0.86972 0.0
C1228 C 0.52074 0.08304 0.8775 0.0
C1229 C 0.49564 0.09739 0.87439 0.0
C1230 C 0.472 0.08407 0.86363 0.0
C1231 C 0.47416 0.056 0.85566 0.0
loop_
_geom_bond_atom_site_label_1
_geom_bond_atom_site_label_2
_geom_bond_distance
_geom_bond_site_symmetry_2
_ccdc_geom_bond_type
Cu0 N1 1.999 . S
Cu0 O6 1.974 . S
Cu0 N11 1.985 . S
Cu0 O20 1.959 . S
N1 Cu0 1.999 . S
N1 C3 1.263 . S
N1 C5 1.389 . S
N2 C3 1.358 . S
N2 C4 1.400 . S
C3 N1 1.263 . S
C3 N2 1.358 . S
C3 H9 0.930 . S
C4 N2 1.400 . S
C4 C5 1.351 . S
C4 H21 0.930 . S
C5 N1 1.389 . S
C5 C4 1.351 . S
C5 H10 0.930 . S
O6 Cu0 1.974 . S
O6 C16 1.282 . S
C7 O8 1.261 . S
C7 O20 1.251 . S
O8 C7 1.261 . S
H9 C3 0.930 . S
H10 C5 0.930 . S
N11 Cu0 1.985 . S
N11 C13 1.335 . S
N11 C14 1.390 . S
N12 C13 1.345 . S
N12 C15 1.336 . S
C13 N11 1.335 . S
C13 N12 1.345 . S
C13 H18 0.930 . S
C14 N11 1.390 . S
C14 C15 1.346 . S
C14 H19 0.930 . S
C15 N12 1.336 . S
C15 C14 1.346 . S
C15 H22 0.929 . S
C16 O6 1.282 . S
C16 O17 1.216 . S
O17 C16 1.216 . S
H18 C13 0.930 . S
H19 C14 0.930 . S
O20 Cu0 1.959 . S
O20 C7 1.251 . S
H21 C4 0.930 . S
H22 C15 0.929 . S
Cu23 N24 1.999 . S
Cu23 O29 1.974 . S
Cu23 N34 1.985 . S
Cu23 O43 1.959 . S
N24 Cu23 1.999 . S
N24 C26 1.263 . S
N24 C28 1.389 . S
N25 C26 1.358 . S
N25 C27 1.400 . S
C26 N24 1.263 . S
C26 N25 1.358 . S
C26 H32 0.930 . S
C27 N25 1.400 . S
C27 C28 1.351 . S
C27 H44 0.930 . S
C28 N24 1.389 . S
C28 C27 1.351 . S
C28 H33 0.930 . S
O29 Cu23 1.974 . S
O29 C39 1.282 . S
C30 O31 1.261 . S
C30 O43 1.251 . S
O31 C30 1.261 . S
H32 C26 0.930 . S
H33 C28 0.930 . S
N34 Cu23 1.985 . S
N34 C36 1.335 . S
N34 C37 1.390 . S
N35 C36 1.345 . S
N35 C38 1.336 . S
C36 N34 1.335 . S
C36 N35 1.345 . S
C36 H41 0.930 . S
C37 N34 1.390 . S
C37 C38 1.346 . S
C37 H42 0.930 . S
C38 N35 1.336 . S
C38 C37 1.346 . S
C38 H45 0.929 . S
C39 O29 1.282 . S
C39 O40 1.216 . S
O40 C39 1.216 . S
H41 C36 0.930 . S
H42 C37 0.930 . S
O43 Cu23 1.959 . S
O43 C30 1.251 . S
H44 C27 0.930 . S
H45 C38 0.929 . S
Cu46 N47 1.999 . S
Cu46 O52 1.974 . S
Cu46 N57 1.985 . S
Cu46 O66 1.959 . S
N47 Cu46 1.999 . S
N47 C49 1.263 . S
N47 C51 1.389 . S
N48 C49 1.358 . S
N48 C50 1.400 . S
C49 N47 1.263 . S
C49 N48 1.358 . S
C49 H55 0.930 . S
C50 N48 1.400 . S
C50 C51 1.351 . S
C50 H67 0.930 . S
C51 N47 1.389 . S
C51 C50 1.351 . S
C51 H56 0.930 . S
O52 Cu46 1.974 . S
O52 C62 1.282 . S
C53 O54 1.261 . S
C53 O66 1.251 . S
O54 C53 1.261 . S
H55 C49 0.930 . S
H56 C51 0.930 . S
N57 Cu46 1.985 . S
N57 C59 1.335 . S
N57 C60 1.390 . S
N58 C59 1.345 . S
N58 C61 1.336 . S
C59 N57 1.335 . S
C59 N58 1.345 . S
C59 H64 0.930 . S
C60 N57 1.390 . S
C60 C61 1.346 . S
C60 H65 0.930 . S
C61 N58 1.336 . S
C61 C60 1.346 . S
C61 H68 0.929 . S
C62 O52 1.282 . S
C62 O63 1.216 . S
O63 C62 1.216 . S
H64 C59 0.930 . S
H65 C60 0.930 . S
O66 Cu46 1.959 . S
O66 C53 1.251 . S
H67 C50 0.930 . S
H68 C61 0.929 . S
Cu69 N70 1.999 . S
Cu69 O75 1.974 . S
Cu69 N80 1.985 . S
Cu69 O89 1.959 . S
N70 Cu69 1.999 . S
N70 C72 1.263 . S
N70 C74 1.389 . S
N71 C72 1.358 . S
N71 C73 1.400 . S
C72 N70 1.263 . S
C72 N71 1.358 . S
C72 H78 0.930 . S
C73 N71 1.400 . S
C73 C74 1.351 . S
C73 H90 0.930 . S
C74 N70 1.389 . S
C74 C73 1.351 . S
C74 H79 0.930 . S
O75 Cu69 1.974 . S
O75 C85 1.282 . S
C76 O77 1.261 . S
C76 O89 1.251 . S
O77 C76 1.261 . S
H78 C72 0.930 . S
H79 C74 0.930 . S
N80 Cu69 1.985 . S
N80 C82 1.335 . S
N80 C83 1.390 . S
N81 C82 1.345 . S
N81 C84 1.336 . S
C82 N80 1.335 . S
C82 N81 1.345 . S
C82 H87 0.930 . S
C83 N80 1.390 . S
C83 C84 1.346 . S
C83 H88 0.930 . S
C84 N81 1.336 . S
C84 C83 1.346 . S
C84 H91 0.929 . S
C85 O75 1.282 . S
C85 O86 1.216 . S
O86 C85 1.216 . S
H87 C82 0.930 . S
H88 C83 0.930 . S
O89 Cu69 1.959 . S
O89 C76 1.251 . S
H90 C73 0.930 . S
H91 C84 0.929 . S
Cu92 N93 1.999 . S
Cu92 O98 1.974 . S
Cu92 N103 1.985 . S
Cu92 O112 1.959 . S
N93 Cu92 1.999 . S
N93 C95 1.263 . S
N93 C97 1.389 . S
N94 C95 1.358 . S
N94 C96 1.400 . S
C95 N93 1.263 . S
C95 N94 1.358 . S
C95 H101 0.930 . S
C96 N94 1.400 . S
C96 C97 1.351 . S
C96 H113 0.930 . S
C97 N93 1.389 . S
C97 C96 1.351 . S
C97 H102 0.930 . S
O98 Cu92 1.974 . S
O98 C108 1.282 . S
C99 O100 1.261 . S
C99 O112 1.251 . S
O100 C99 1.261 . S
H101 C95 0.930 . S
H102 C97 0.930 . S
N103 Cu92 1.985 . S
N103 C105 1.335 . S
N103 C106 1.390 . S
N104 C105 1.345 . S
N104 C107 1.336 . S
C105 N103 1.335 . S
C105 N104 1.345 . S
C105 H110 0.930 . S
C106 N103 1.390 . S
C106 C107 1.346 . S
C106 H111 0.930 . S
C107 N104 1.336 . S
C107 C106 1.346 . S
C107 H114 0.929 . S
C108 O98 1.282 . S
C108 O109 1.216 . S
O109 C108 1.216 . S
H110 C105 0.930 . S
H111 C106 0.930 . S
O112 Cu92 1.959 . S
O112 C99 1.251 . S
H113 C96 0.930 . S
H114 C107 0.929 . S
Cu115 N116 1.999 . S
Cu115 O121 1.974 . S
Cu115 N126 1.985 . S
Cu115 O135 1.959 . S
N116 Cu115 1.999 . S
N116 C118 1.263 . S
N116 C120 1.389 . S
N117 C118 1.358 . S
N117 C119 1.400 . S
C118 N116 1.263 . S
C118 N117 1.358 . S
C118 H124 0.930 . S
C119 N117 1.400 . S
C119 C120 1.351 . S
C119 H136 0.930 . S
C120 N116 1.389 . S
C120 C119 1.351 . S
C120 H125 0.930 . S
O121 Cu115 1.974 . S
O121 C131 1.282 . S
C122 O123 1.261 . S
C122 O135 1.251 . S
O123 C122 1.261 . S
H124 C118 0.930 . S
H125 C120 0.930 . S
N126 Cu115 1.985 . S
N126 C128 1.335 . S
N126 C129 1.390 . S
N127 C128 1.345 . S
N127 C130 1.336 . S
C128 N126 1.335 . S
C128 N127 1.345 . S
C128 H133 0.930 . S
C129 N126 1.390 . S
C129 C130 1.346 . S
C129 H134 0.930 . S
C130 N127 1.336 . S
C130 C129 1.346 . S
C130 H137 0.929 . S
C131 O121 1.282 . S
C131 O132 1.216 . S
O132 C131 1.216 . S
H133 C128 0.930 . S
H134 C129 0.930 . S
O135 Cu115 1.959 . S
O135 C122 1.251 . S
H136 C119 0.930 . S
H137 C130 0.929 . S
Cu138 N139 1.999 . S
Cu138 O144 1.974 . S
Cu138 N149 1.985 . S
Cu138 O158 1.959 . S
N139 Cu138 1.999 . S
N139 C141 1.263 . S
N139 C143 1.389 . S
N140 C141 1.358 . S
N140 C142 1.400 . S
C141 N139 1.263 . S
C141 N140 1.358 . S
C141 H147 0.930 . S
C142 N140 1.400 . S
C142 C143 1.351 . S
C142 H159 0.930 . S
C143 N139 1.389 . S
C143 C142 1.351 . S
C143 H148 0.930 . S
O144 Cu138 1.974 . S
O144 C154 1.282 . S
C145 O146 1.261 . S
C145 O158 1.251 . S
O146 C145 1.261 . S
H147 C141 0.930 . S
H148 C143 0.930 . S
N149 Cu138 1.985 . S
N149 C151 1.335 . S
N149 C152 1.390 . S
N150 C151 1.345 . S
N150 C153 1.336 . S
C151 N149 1.335 . S
C151 N150 1.345 . S
C151 H156 0.930 . S
C152 N149 1.390 . S
C152 C153 1.346 . S
C152 H157 0.930 . S
C153 N150 1.336 . S
C153 C152 1.346 . S
C153 H160 0.929 . S
C154 O144 1.282 . S
C154 O155 1.216 . S
O155 C154 1.216 . S
H156 C151 0.930 . S
H157 C152 0.930 . S
O158 Cu138 1.959 . S
O158 C145 1.251 . S
H159 C142 0.930 . S
H160 C153 0.929 . S
Cu161 N162 1.999 . S
Cu161 O167 1.974 . S
Cu161 N172 1.985 . S
Cu161 O181 1.959 . S
N162 Cu161 1.999 . S
N162 C164 1.263 . S
N162 C166 1.389 . S
N163 C164 1.358 . S
N163 C165 1.400 . S
C164 N162 1.263 . S
C164 N163 1.358 . S
C164 H170 0.930 . S
C165 N163 1.400 . S
C165 C166 1.351 . S
C165 H182 0.930 . S
C166 N162 1.389 . S
C166 C165 1.351 . S
C166 H171 0.930 . S
O167 Cu161 1.974 . S
O167 C177 1.282 . S
C168 O169 1.261 . S
C168 O181 1.251 . S
O169 C168 1.261 . S
H170 C164 0.930 . S
H171 C166 0.930 . S
N172 Cu161 1.985 . S
N172 C174 1.335 . S
N172 C175 1.390 . S
N173 C174 1.345 . S
N173 C176 1.336 . S
C174 N172 1.335 . S
C174 N173 1.345 . S
C174 H179 0.930 . S
C175 N172 1.390 . S
C175 C176 1.346 . S
C175 H180 0.930 . S
C176 N173 1.336 . S
C176 C175 1.346 . S
C176 H183 0.929 . S
C177 O167 1.282 . S
C177 O178 1.216 . S
O178 C177 1.216 . S
H179 C174 0.930 . S
H180 C175 0.930 . S
O181 Cu161 1.959 . S
O181 C168 1.251 . S
H182 C165 0.930 . S
H183 C176 0.929 . S
Cu184 N185 1.999 . S
Cu184 O190 1.974 . S
Cu184 N195 1.985 . S
Cu184 O204 1.959 . S
N185 Cu184 1.999 . S
N185 C187 1.263 . S
N185 C189 1.389 . S
N186 C187 1.358 . S
N186 C188 1.400 . S
C187 N185 1.263 . S
C187 N186 1.358 . S
C187 H193 0.930 . S
C188 N186 1.400 . S
C188 C189 1.351 . S
C188 H205 0.930 . S
C189 N185 1.389 . S
C189 C188 1.351 . S
C189 H194 0.930 . S
O190 Cu184 1.974 . S
O190 C200 1.282 . S
C191 O192 1.261 . S
C191 O204 1.251 . S
O192 C191 1.261 . S
H193 C187 0.930 . S
H194 C189 0.930 . S
N195 Cu184 1.985 . S
N195 C197 1.335 . S
N195 C198 1.390 . S
N196 C197 1.345 . S
N196 C199 1.336 . S
C197 N195 1.335 . S
C197 N196 1.345 . S
C197 H202 0.930 . S
C198 N195 1.390 . S
C198 C199 1.346 . S
C198 H203 0.930 . S
C199 N196 1.336 . S
C199 C198 1.346 . S
C199 H206 0.929 . S
C200 O190 1.282 . S
C200 O201 1.216 . S
O201 C200 1.216 . S
H202 C197 0.930 . S
H203 C198 0.930 . S
O204 Cu184 1.959 . S
O204 C191 1.251 . S
H205 C188 0.930 . S
H206 C199 0.929 . S
Cu207 N208 1.999 . S
Cu207 O213 1.974 . S
Cu207 N218 1.985 . S
Cu207 O227 1.959 . S
N208 Cu207 1.999 . S
N208 C210 1.263 . S
N208 C212 1.389 . S
N209 C210 1.358 . S
N209 C211 1.400 . S
C210 N208 1.263 . S
C210 N209 1.358 . S
C210 H216 0.930 . S
C211 N209 1.400 . S
C211 C212 1.351 . S
C211 H228 0.930 . S
C212 N208 1.389 . S
C212 C211 1.351 . S
C212 H217 0.930 . S
O213 Cu207 1.974 . S
O213 C223 1.282 . S
C214 O215 1.261 . S
C214 O227 1.251 . S
O215 C214 1.261 . S
H216 C210 0.930 . S
H217 C212 0.930 . S
N218 Cu207 1.985 . S
N218 C220 1.335 . S
N218 C221 1.390 . S
N219 C220 1.345 . S
N219 C222 1.336 . S
C220 N218 1.335 . S
C220 N219 1.345 . S
C220 H225 0.930 . S
C221 N218 1.390 . S
C221 C222 1.346 . S
C221 H226 0.930 . S
C222 N219 1.336 . S
C222 C221 1.346 . S
C222 H229 0.929 . S
C223 O213 1.282 . S
C223 O224 1.216 . S
O224 C223 1.216 . S
H225 C220 0.930 . S
H226 C221 0.930 . S
O227 Cu207 1.959 . S
O227 C214 1.251 . S
H228 C211 0.930 . S
H229 C222 0.929 . S
Cu230 N231 1.999 . S
Cu230 O236 1.974 . S
Cu230 N241 1.985 . S
Cu230 O250 1.959 . S
N231 Cu230 1.999 . S
N231 C233 1.263 . S
N231 C235 1.389 . S
N232 C233 1.358 . S
N232 C234 1.400 . S
C233 N231 1.263 . S
C233 N232 1.358 . S
C233 H239 0.930 . S
C234 N232 1.400 . S
C234 C235 1.351 . S
C234 H251 0.930 . S
C235 N231 1.389 . S
C235 C234 1.351 . S
C235 H240 0.930 . S
O236 Cu230 1.974 . S
O236 C246 1.282 . S
C237 O238 1.261 . S
C237 O250 1.251 . S
O238 C237 1.261 . S
H239 C233 0.930 . S
H240 C235 0.930 . S
N241 Cu230 1.985 . S
N241 C243 1.335 . S
N241 C244 1.390 . S
N242 C243 1.345 . S
N242 C245 1.336 . S
C243 N241 1.335 . S
C243 N242 1.345 . S
C243 H248 0.930 . S
C244 N241 1.390 . S
C244 C245 1.346 . S
C244 H249 0.930 . S
C245 N242 1.336 . S
C245 C244 1.346 . S
C245 H252 0.929 . S
C246 O236 1.282 . S
C246 O247 1.216 . S
O247 C246 1.216 . S
H248 C243 0.930 . S
H249 C244 0.930 . S
O250 Cu230 1.959 . S
O250 C237 1.251 . S
H251 C234 0.930 . S
H252 C245 0.929 . S
Cu253 N254 1.999 . S
Cu253 O259 1.974 . S
Cu253 N264 1.985 . S
Cu253 O273 1.959 . S
N254 Cu253 1.999 . S
N254 C256 1.263 . S
N254 C258 1.389 . S
N255 C256 1.358 . S
N255 C257 1.400 . S
C256 N254 1.263 . S
C256 N255 1.358 . S
C256 H262 0.930 . S
C257 N255 1.400 . S
C257 C258 1.351 . S
C257 H274 0.930 . S
C258 N254 1.389 . S
C258 C257 1.351 . S
C258 H263 0.930 . S
O259 Cu253 1.974 . S
O259 C269 1.282 . S
C260 O261 1.261 . S
C260 O273 1.251 . S
O261 C260 1.261 . S
H262 C256 0.930 . S
H263 C258 0.930 . S
N264 Cu253 1.985 . S
N264 C266 1.335 . S
N264 C267 1.390 . S
N265 C266 1.345 . S
N265 C268 1.336 . S
C266 N264 1.335 . S
C266 N265 1.345 . S
C266 H271 0.930 . S
C267 N264 1.390 . S
C267 C268 1.346 . S
C267 H272 0.930 . S
C268 N265 1.336 . S
C268 C267 1.346 . S
C268 H275 0.929 . S
C269 O259 1.282 . S
C269 O270 1.216 . S
O270 C269 1.216 . S
H271 C266 0.930 . S
H272 C267 0.930 . S
O273 Cu253 1.959 . S
O273 C260 1.251 . S
H274 C257 0.930 . S
H275 C268 0.929 . S
Cu276 N277 1.999 . S
Cu276 O282 1.974 . S
Cu276 N287 1.985 . S
Cu276 O296 1.959 . S
N277 Cu276 1.999 . S
N277 C279 1.263 . S
N277 C281 1.389 . S
N278 C279 1.358 . S
N278 C280 1.400 . S
C279 N277 1.263 . S
C279 N278 1.358 . S
C279 H285 0.930 . S
C280 N278 1.400 . S
C280 C281 1.351 . S
C280 H297 0.930 . S
C281 N277 1.389 . S
C281 C280 1.351 . S
C281 H286 0.930 . S
O282 Cu276 1.974 . S
O282 C292 1.282 . S
C283 O284 1.261 . S
C283 O296 1.251 . S
O284 C283 1.261 . S
H285 C279 0.930 . S
H286 C281 0.930 . S
N287 Cu276 1.985 . S
N287 C289 1.335 . S
N287 C290 1.390 . S
N288 C289 1.345 . S
N288 C291 1.336 . S
C289 N287 1.335 . S
C289 N288 1.345 . S
C289 H294 0.930 . S
C290 N287 1.390 . S
C290 C291 1.346 . S
C290 H295 0.930 . S
C291 N288 1.336 . S
C291 C290 1.346 . S
C291 H298 0.929 . S
C292 O282 1.282 . S
C292 O293 1.216 . S
O293 C292 1.216 . S
H294 C289 0.930 . S
H295 C290 0.930 . S
O296 Cu276 1.959 . S
O296 C283 1.251 . S
H297 C280 0.930 . S
H298 C291 0.929 . S
Cu299 N300 1.999 . S
Cu299 O305 1.974 . S
Cu299 N310 1.985 . S
Cu299 O319 1.959 . S
N300 Cu299 1.999 . S
N300 C302 1.263 . S
N300 C304 1.389 . S
N301 C302 1.358 . S
N301 C303 1.400 . S
C302 N300 1.263 . S
C302 N301 1.358 . S
C302 H308 0.930 . S
C303 N301 1.400 . S
C303 C304 1.351 . S
C303 H320 0.930 . S
C304 N300 1.389 . S
C304 C303 1.351 . S
C304 H309 0.930 . S
O305 Cu299 1.974 . S
O305 C315 1.282 . S
C306 O307 1.261 . S
C306 O319 1.251 . S
O307 C306 1.261 . S
H308 C302 0.930 . S
H309 C304 0.930 . S
N310 Cu299 1.985 . S
N310 C312 1.335 . S
N310 C313 1.390 . S
N311 C312 1.345 . S
N311 C314 1.336 . S
C312 N310 1.335 . S
C312 N311 1.345 . S
C312 H317 0.930 . S
C313 N310 1.390 . S
C313 C314 1.346 . S
C313 H318 0.930 . S
C314 N311 1.336 . S
C314 C313 1.346 . S
C314 H321 0.929 . S
C315 O305 1.282 . S
C315 O316 1.216 . S
O316 C315 1.216 . S
H317 C312 0.930 . S
H318 C313 0.930 . S
O319 Cu299 1.959 . S
O319 C306 1.251 . S
H320 C303 0.930 . S
H321 C314 0.929 . S
Cu322 N323 1.999 . S
Cu322 O328 1.974 . S
Cu322 N333 1.985 . S
Cu322 O342 1.959 . S
N323 Cu322 1.999 . S
N323 C325 1.263 . S
N323 C327 1.389 . S
N324 C325 1.358 . S
N324 C326 1.400 . S
C325 N323 1.263 . S
C325 N324 1.358 . S
C325 H331 0.930 . S
C326 N324 1.400 . S
C326 C327 1.351 . S
C326 H343 0.930 . S
C327 N323 1.389 . S
C327 C326 1.351 . S
C327 H332 0.930 . S
O328 Cu322 1.974 . S
O328 C338 1.282 . S
C329 O330 1.261 . S
C329 O342 1.251 . S
O330 C329 1.261 . S
H331 C325 0.930 . S
H332 C327 0.930 . S
N333 Cu322 1.985 . S
N333 C335 1.335 . S
N333 C336 1.390 . S
N334 C335 1.345 . S
N334 C337 1.336 . S
C335 N333 1.335 . S
C335 N334 1.345 . S
C335 H340 0.930 . S
C336 N333 1.390 . S
C336 C337 1.346 . S
C336 H341 0.930 . S
C337 N334 1.336 . S
C337 C336 1.346 . S
C337 H344 0.929 . S
C338 O328 1.282 . S
C338 O339 1.216 . S
O339 C338 1.216 . S
H340 C335 0.930 . S
H341 C336 0.930 . S
O342 Cu322 1.959 . S
O342 C329 1.251 . S
H343 C326 0.930 . S
H344 C337 0.929 . S
Cu345 N346 1.999 . S
Cu345 O351 1.974 . S
Cu345 N356 1.985 . S
Cu345 O365 1.959 . S
N346 Cu345 1.999 . S
N346 C348 1.263 . S
N346 C350 1.389 . S
N347 C348 1.358 . S
N347 C349 1.400 . S
C348 N346 1.263 . S
C348 N347 1.358 . S
C348 H354 0.930 . S
C349 N347 1.400 . S
C349 C350 1.351 . S
C349 H366 0.930 . S
C350 N346 1.389 . S
C350 C349 1.351 . S
C350 H355 0.930 . S
O351 Cu345 1.974 . S
O351 C361 1.282 . S
C352 O353 1.261 . S
C352 O365 1.251 . S
O353 C352 1.261 . S
H354 C348 0.930 . S
H355 C350 0.930 . S
N356 Cu345 1.985 . S
N356 C358 1.335 . S
N356 C359 1.390 . S
N357 C358 1.345 . S
N357 C360 1.336 . S
C358 N356 1.335 . S
C358 N357 1.345 . S
C358 H363 0.930 . S
C359 N356 1.390 . S
C359 C360 1.346 . S
C359 H364 0.930 . S
C360 N357 1.336 . S
C360 C359 1.346 . S
C360 H367 0.929 . S
C361 O351 1.282 . S
C361 O362 1.216 . S
O362 C361 1.216 . S
H363 C358 0.930 . S
H364 C359 0.930 . S
O365 Cu345 1.959 . S
O365 C352 1.251 . S
H366 C349 0.930 . S
H367 C360 0.929 . S
H368 C380 0.930 . S
H369 C382 0.930 . S
H370 C383 0.930 . S
H371 C387 0.959 . S
H372 C387 0.959 . S
H373 C387 0.961 . S
H374 C388 0.960 . S
H375 C388 0.961 . S
H376 C388 0.959 . S
H377 C391 0.929 . S
H378 C392 0.931 . S
H379 C394 0.930 . S
C380 H368 0.930 . S
C380 C381 1.399 . S
C380 C385 1.399 . S
C381 C380 1.399 . S
C381 C382 1.376 . S
C382 H369 0.930 . S
C382 C381 1.376 . S
C382 C383 1.388 . S
C383 H370 0.930 . S
C383 C382 1.388 . S
C383 C384 1.390 . S
C384 C383 1.390 . S
C384 C385 1.394 . S
C384 C390 1.465 1_556 S
C385 C380 1.399 . S
C385 C384 1.394 . S
C385 C386 1.516 . S
C386 C385 1.516 . S
C386 C387 1.502 . S
C386 C388 1.561 . S
C386 C389 1.526 1_556 S
C387 H371 0.959 . S
C387 H372 0.959 . S
C387 H373 0.961 . S
C387 C386 1.502 . S
C388 H374 0.960 . S
C388 H375 0.961 . S
C388 H376 0.959 . S
C388 C386 1.561 . S
C389 C386 1.526 1_554 S
C389 C390 1.396 . S
C389 C394 1.390 . S
C390 C384 1.465 1_554 S
C390 C389 1.396 . S
C390 C391 1.399 . S
C391 H377 0.929 . S
C391 C390 1.399 . S
C391 C392 1.385 . S
C392 H378 0.931 . S
C392 C391 1.385 . S
C392 C393 1.389 . S
C393 C392 1.389 . S
C393 C394 1.387 . S
C394 H379 0.930 . S
C394 C389 1.390 . S
C394 C393 1.387 . S
H395 C407 0.930 . S
H396 C409 0.930 . S
H397 C410 0.930 . S
H398 C414 0.959 . S
H399 C414 0.959 . S
H400 C414 0.961 . S
H401 C415 0.960 . S
H402 C415 0.961 . S
H403 C415 0.959 . S
H404 C418 0.929 . S
H405 C419 0.931 . S
H406 C421 0.930 . S
C407 H395 0.930 . S
C407 C408 1.399 . S
C407 C412 1.399 . S
C408 C407 1.399 . S
C408 C409 1.376 . S
C409 H396 0.930 . S
C409 C408 1.376 . S
C409 C410 1.388 . S
C410 H397 0.930 . S
C410 C409 1.388 . S
C410 C411 1.390 . S
C411 C410 1.390 . S
C411 C412 1.394 . S
C411 C417 1.465 . S
C412 C407 1.399 . S
C412 C411 1.394 . S
C412 C413 1.516 . S
C413 C412 1.516 . S
C413 C414 1.502 . S
C413 C415 1.561 . S
C413 C416 1.526 . S
C414 H398 0.959 . S
C414 H399 0.959 . S
C414 H400 0.961 . S
C414 C413 1.502 . S
C415 H401 0.960 . S
C415 H402 0.961 . S
C415 H403 0.959 . S
C415 C413 1.561 . S
C416 C413 1.526 . S
C416 C417 1.396 . S
C416 C421 1.390 . S
C417 C411 1.465 . S
C417 C416 1.396 . S
C417 C418 1.399 . S
C418 H404 0.929 . S
C418 C417 1.399 . S
C418 C419 1.385 . S
C419 H405 0.931 . S
C419 C418 1.385 . S
C419 C420 1.389 . S
C420 C419 1.389 . S
C420 C421 1.387 . S
C421 H406 0.930 . S
C421 C416 1.390 . S
C421 C420 1.387 . S
H422 C434 0.930 . S
H423 C436 0.930 . S
H424 C437 0.930 . S
H425 C441 0.959 . S
H426 C441 0.959 . S
H427 C441 0.961 . S
H428 C442 0.960 . S
H429 C442 0.961 1_554 S
H430 C442 0.959 1_554 S
H431 C445 0.929 . S
H432 C446 0.931 . S
H433 C448 0.930 . S
C434 H422 0.930 . S
C434 C435 1.399 . S
C434 C439 1.399 . S
C435 C434 1.399 . S
C435 C436 1.376 . S
C436 H423 0.930 . S
C436 C435 1.376 . S
C436 C437 1.388 . S
C437 H424 0.930 . S
C437 C436 1.388 . S
C437 C438 1.390 . S
C438 C437 1.390 . S
C438 C439 1.394 . S
C438 C444 1.465 1_556 S
C439 C434 1.399 . S
C439 C438 1.394 . S
C439 C440 1.516 . S
C440 C439 1.516 . S
C440 C441 1.502 . S
C440 C442 1.561 . S
C440 C443 1.526 1_556 S
C441 H425 0.959 . S
C441 H426 0.959 . S
C441 H427 0.961 . S
C441 C440 1.502 . S
C442 H428 0.960 . S
C442 H429 0.961 1_556 S
C442 H430 0.959 1_556 S
C442 C440 1.561 . S
C443 C440 1.526 1_554 S
C443 C444 1.396 . S
C443 C448 1.390 . S
C444 C438 1.465 1_554 S
C444 C443 1.396 . S
C444 C445 1.399 . S
C445 H431 0.929 . S
C445 C444 1.399 . S
C445 C446 1.385 . S
C446 H432 0.931 . S
C446 C445 1.385 . S
C446 C447 1.389 . S
C447 C446 1.389 . S
C447 C448 1.387 . S
C448 H433 0.930 . S
C448 C443 1.390 . S
C448 C447 1.387 . S
H449 C461 0.930 . S
H450 C463 0.930 . S
H451 C464 0.930 . S
H452 C468 0.959 . S
H453 C468 0.959 . S
H454 C468 0.961 . S
H455 C469 0.960 . S
H456 C469 0.961 . S
H457 C469 0.959 . S
H458 C472 0.929 . S
H459 C473 0.931 . S
H460 C475 0.930 . S
C461 H449 0.930 . S
C461 C462 1.399 . S
C461 C466 1.399 . S
C462 C461 1.399 . S
C462 C463 1.376 . S
C463 H450 0.930 . S
C463 C462 1.376 . S
C463 C464 1.388 . S
C464 H451 0.930 . S
C464 C463 1.388 . S
C464 C465 1.390 . S
C465 C464 1.390 . S
C465 C466 1.394 . S
C465 C471 1.465 . S
C466 C461 1.399 . S
C466 C465 1.394 . S
C466 C467 1.516 . S
C467 C466 1.516 . S
C467 C468 1.502 . S
C467 C469 1.561 . S
C467 C470 1.526 . S
C468 H452 0.959 . S
C468 H453 0.959 . S
C468 H454 0.961 . S
C468 C467 1.502 . S
C469 H455 0.960 . S
C469 H456 0.961 . S
C469 H457 0.959 . S
C469 C467 1.561 . S
C470 C467 1.526 . S
C470 C471 1.396 . S
C470 C475 1.390 . S
C471 C465 1.465 . S
C471 C470 1.396 . S
C471 C472 1.399 . S
C472 H458 0.929 . S
C472 C471 1.399 . S
C472 C473 1.385 . S
C473 H459 0.931 . S
C473 C472 1.385 . S
C473 C474 1.389 . S
C474 C473 1.389 . S
C474 C475 1.387 . S
C475 H460 0.930 . S
C475 C470 1.390 . S
C475 C474 1.387 . S
H476 C488 0.930 . S
H477 C490 0.930 . S
H478 C491 0.930 . S
H479 C495 0.959 . S
H480 C495 0.959 . S
H481 C495 0.961 1_554 S
H482 C496 0.960 . S
H483 C496 0.961 1_556 S
H484 C496 0.959 . S
H485 C499 0.929 . S
H486 C500 0.931 . S
H487 C502 0.930 . S
C488 H476 0.930 . S
C488 C489 1.399 . S
C488 C493 1.399 . S
C489 C488 1.399 . S
C489 C490 1.376 . S
C490 H477 0.930 . S
C490 C489 1.376 . S
C490 C491 1.388 . S
C491 H478 0.930 . S
C491 C490 1.388 . S
C491 C492 1.390 . S
C492 C491 1.390 . S
C492 C493 1.394 . S
C492 C498 1.465 1_554 S
C493 C488 1.399 . S
C493 C492 1.394 . S
C493 C494 1.489 1_554 S
C494 C493 1.489 1_556 S
C494 C495 1.512 . S
C494 C496 1.553 1_556 S
C494 C497 1.551 . S
C495 H479 0.959 . S
C495 H480 0.959 . S
C495 H481 0.961 1_556 S
C495 C494 1.512 . S
C496 H482 0.960 . S
C496 H483 0.961 1_554 S
C496 H484 0.959 . S
C496 C494 1.553 1_554 S
C497 C494 1.551 . S
C497 C498 1.396 . S
C497 C502 1.390 . S
C498 C492 1.465 1_556 S
C498 C497 1.396 . S
C498 C499 1.399 . S
C499 H485 0.929 . S
C499 C498 1.399 . S
C499 C500 1.385 . S
C500 H486 0.931 . S
C500 C499 1.385 . S
C500 C501 1.389 . S
C501 C500 1.389 . S
C501 C502 1.387 . S
C502 H487 0.930 . S
C502 C497 1.390 . S
C502 C501 1.387 . S
H503 C515 0.930 . S
H504 C517 0.930 . S
H505 C518 0.930 . S
H506 C522 0.959 . S
H507 C522 0.959 . S
H508 C522 0.961 . S
H509 C523 0.960 . S
H510 C523 0.961 . S
H511 C523 0.959 . S
H512 C526 0.929 . S
H513 C527 0.931 . S
H514 C529 0.930 . S
C515 H503 0.930 . S
C515 C516 1.399 . S
C515 C520 1.399 . S
C516 C515 1.399 . S
C516 C517 1.376 . S
C517 H504 0.930 . S
C517 C516 1.376 . S
C517 C518 1.388 . S
C518 H505 0.930 . S
C518 C517 1.388 . S
C518 C519 1.390 . S
C519 C518 1.390 . S
C519 C520 1.394 . S
C519 C525 1.465 . S
C520 C515 1.399 . S
C520 C519 1.394 . S
C520 C521 1.516 . S
C521 C520 1.516 . S
C521 C522 1.502 . S
C521 C523 1.561 . S
C521 C524 1.526 . S
C522 H506 0.959 . S
C522 H507 0.959 . S
C522 H508 0.961 . S
C522 C521 1.502 . S
C523 H509 0.960 . S
C523 H510 0.961 . S
C523 H511 0.959 . S
C523 C521 1.561 . S
C524 C521 1.526 . S
C524 C525 1.396 . S
C524 C529 1.390 . S
C525 C519 1.465 . S
C525 C524 1.396 . S
C525 C526 1.399 . S
C526 H512 0.929 . S
C526 C525 1.399 . S
C526 C527 1.385 . S
C527 H513 0.931 . S
C527 C526 1.385 . S
C527 C528 1.389 . S
C528 C527 1.389 . S
C528 C529 1.387 . S
C529 H514 0.930 . S
C529 C524 1.390 . S
C529 C528 1.387 . S
H530 C542 0.930 . S
H531 C544 0.930 . S
H532 C545 0.930 . S
H533 C549 0.959 . S
H534 C549 0.959 . S
H535 C549 0.961 . S
H536 C550 0.960 1_556 S
H537 C550 0.961 . S
H538 C550 0.959 . S
H539 C553 0.929 . S
H540 C554 0.931 . S
H541 C556 0.930 . S
C542 H530 0.930 . S
C542 C543 1.399 . S
C542 C547 1.399 . S
C543 C542 1.399 . S
C543 C544 1.376 . S
C544 H531 0.930 . S
C544 C543 1.376 . S
C544 C545 1.388 . S
C545 H532 0.930 . S
C545 C544 1.388 . S
C545 C546 1.390 . S
C546 C545 1.390 . S
C546 C547 1.394 . S
C546 C552 1.465 1_556 S
C547 C542 1.399 . S
C547 C546 1.394 . S
C547 C548 1.516 1_556 S
C548 C547 1.516 1_554 S
C548 C549 1.502 . S
C548 C550 1.561 . S
C548 C551 1.526 . S
C549 H533 0.959 . S
C549 H534 0.959 . S
C549 H535 0.961 . S
C549 C548 1.502 . S
C550 H536 0.960 1_554 S
C550 H537 0.961 . S
C550 H538 0.959 . S
C550 C548 1.561 . S
C551 C548 1.526 . S
C551 C552 1.396 . S
C551 C556 1.390 . S
C552 C546 1.465 1_554 S
C552 C551 1.396 . S
C552 C553 1.399 . S
C553 H539 0.929 . S
C553 C552 1.399 . S
C553 C554 1.385 . S
C554 H540 0.931 . S
C554 C553 1.385 . S
C554 C555 1.389 . S
C555 C554 1.389 . S
C555 C556 1.387 . S
C556 H541 0.930 . S
C556 C551 1.390 . S
C556 C555 1.387 . S
H557 C569 0.930 . S
H558 C571 0.930 . S
H559 C572 0.930 . S
H560 C576 0.959 . S
H561 C576 0.959 . S
H562 C576 0.961 . S
H563 C577 0.960 . S
H564 C577 0.961 . S
H565 C577 0.959 . S
H566 C580 0.929 . S
H567 C581 0.931 . S
H568 C583 0.930 . S
C569 H557 0.930 . S
C569 C570 1.399 . S
C569 C574 1.399 . S
C570 C569 1.399 . S
C570 C571 1.376 . S
C571 H558 0.930 . S
C571 C570 1.376 . S
C571 C572 1.388 . S
C572 H559 0.930 . S
C572 C571 1.388 . S
C572 C573 1.390 . S
C573 C572 1.390 . S
C573 C574 1.394 . S
C573 C579 1.465 . S
C574 C569 1.399 . S
C574 C573 1.394 . S
C574 C575 1.516 . S
C575 C574 1.516 . S
C575 C576 1.502 . S
C575 C577 1.561 . S
C575 C578 1.526 . S
C576 H560 0.959 . S
C576 H561 0.959 . S
C576 H562 0.961 . S
C576 C575 1.502 . S
C577 H563 0.960 . S
C577 H564 0.961 . S
C577 H565 0.959 . S
C577 C575 1.561 . S
C578 C575 1.526 . S
C578 C579 1.396 . S
C578 C583 1.390 . S
C579 C573 1.465 . S
C579 C578 1.396 . S
C579 C580 1.399 . S
C580 H566 0.929 . S
C580 C579 1.399 . S
C580 C581 1.385 . S
C581 H567 0.931 . S
C581 C580 1.385 . S
C581 C582 1.389 . S
C582 C581 1.389 . S
C582 C583 1.387 . S
C583 H568 0.930 . S
C583 C578 1.390 . S
C583 C582 1.387 . S
H584 C596 0.930 . S
H585 C598 0.930 . S
H586 C599 0.930 . S
H587 C603 0.959 . S
H588 C603 0.959 . S
H589 C603 0.961 . S
H590 C604 0.960 . S
H591 C604 0.961 . S
H592 C604 0.959 . S
H593 C607 0.929 . S
H594 C608 0.931 . S
H595 C610 0.930 . S
C596 H584 0.930 . S
C596 C597 1.399 . S
C596 C601 1.399 . S
C597 C596 1.399 . S
C597 C598 1.376 . S
C598 H585 0.930 . S
C598 C597 1.376 . S
C598 C599 1.388 . S
C599 H586 0.930 . S
C599 C598 1.388 . S
C599 C600 1.390 . S
C600 C599 1.390 . S
C600 C601 1.394 . S
C600 C606 1.465 . S
C601 C596 1.399 . S
C601 C600 1.394 . S
C601 C602 1.516 . S
C602 C601 1.516 . S
C602 C603 1.502 . S
C602 C604 1.561 . S
C602 C605 1.526 . S
C603 H587 0.959 . S
C603 H588 0.959 . S
C603 H589 0.961 . S
C603 C602 1.502 . S
C604 H590 0.960 . S
C604 H591 0.961 . S
C604 H592 0.959 . S
C604 C602 1.561 . S
C605 C602 1.526 . S
C605 C606 1.396 . S
C605 C610 1.390 . S
C606 C600 1.465 . S
C606 C605 1.396 . S
C606 C607 1.399 . S
C607 H593 0.929 . S
C607 C606 1.399 . S
C607 C608 1.385 . S
C608 H594 0.931 . S
C608 C607 1.385 . S
C608 C609 1.389 . S
C609 C608 1.389 . S
C609 C610 1.387 . S
C610 H595 0.930 . S
C610 C605 1.390 . S
C610 C609 1.387 . S
H611 C623 0.930 . S
H612 C625 0.930 . S
H613 C626 0.930 . S
H614 C630 0.959 . S
H615 C630 0.959 . S
H616 C630 0.961 . S
H617 C631 0.960 . S
H618 C631 0.961 . S
H619 C631 0.959 . S
H620 C634 0.929 . S
H621 C635 0.931 . S
H622 C637 0.930 . S
C623 H611 0.930 . S
C623 C624 1.399 . S
C623 C628 1.399 . S
C624 C623 1.399 . S
C624 C625 1.376 . S
C625 H612 0.930 . S
C625 C624 1.376 . S
C625 C626 1.388 . S
C626 H613 0.930 . S
C626 C625 1.388 . S
C626 C627 1.390 . S
C627 C626 1.390 . S
C627 C628 1.394 . S
C627 C633 1.465 . S
C628 C623 1.399 . S
C628 C627 1.394 . S
C628 C629 1.516 . S
C629 C628 1.516 . S
C629 C630 1.502 . S
C629 C631 1.561 . S
C629 C632 1.526 . S
C630 H614 0.959 . S
C630 H615 0.959 . S
C630 H616 0.961 . S
C630 C629 1.502 . S
C631 H617 0.960 . S
C631 H618 0.961 . S
C631 H619 0.959 . S
C631 C629 1.561 . S
C632 C629 1.526 . S
C632 C633 1.396 . S
C632 C637 1.390 . S
C633 C627 1.465 . S
C633 C632 1.396 . S
C633 C634 1.399 . S
C634 H620 0.929 . S
C634 C633 1.399 . S
C634 C635 1.385 . S
C635 H621 0.931 . S
C635 C634 1.385 . S
C635 C636 1.389 . S
C636 C635 1.389 . S
C636 C637 1.387 . S
C637 H622 0.930 . S
C637 C632 1.390 . S
C637 C636 1.387 . S
H638 C650 0.930 . S
H639 C652 0.930 . S
H640 C653 0.930 . S
H641 C657 0.959 . S
H642 C657 0.959 . S
H643 C657 0.961 . S
H644 C658 0.960 . S
H645 C658 0.961 . S
H646 C658 0.959 . S
H647 C661 0.929 . S
H648 C662 0.931 . S
H649 C664 0.930 . S
C650 H638 0.930 . S
C650 C651 1.399 . S
C650 C655 1.399 . S
C651 C650 1.399 . S
C651 C652 1.376 . S
C652 H639 0.930 . S
C652 C651 1.376 . S
C652 C653 1.388 . S
C653 H640 0.930 . S
C653 C652 1.388 . S
C653 C654 1.390 . S
C654 C653 1.390 . S
C654 C655 1.394 . S
C654 C660 1.465 . S
C655 C650 1.399 . S
C655 C654 1.394 . S
C655 C656 1.516 . S
C656 C655 1.516 . S
C656 C657 1.502 . S
C656 C658 1.561 . S
C656 C659 1.526 . S
C657 H641 0.959 . S
C657 H642 0.959 . S
C657 H643 0.961 . S
C657 C656 1.502 . S
C658 H644 0.960 . S
C658 H645 0.961 . S
C658 H646 0.959 . S
C658 C656 1.561 . S
C659 C656 1.526 . S
C659 C660 1.396 . S
C659 C664 1.390 . S
C660 C654 1.465 . S
C660 C659 1.396 . S
C660 C661 1.399 . S
C661 H647 0.929 . S
C661 C660 1.399 . S
C661 C662 1.385 . S
C662 H648 0.931 . S
C662 C661 1.385 . S
C662 C663 1.389 . S
C663 C662 1.389 . S
C663 C664 1.387 . S
C664 H649 0.930 . S
C664 C659 1.390 . S
C664 C663 1.387 . S
H665 C677 0.930 . S
H666 C679 0.930 . S
H667 C680 0.930 . S
H668 C684 0.959 . S
H669 C684 0.959 . S
H670 C684 0.961 . S
H671 C685 0.960 . S
H672 C685 0.961 . S
H673 C685 0.959 . S
H674 C688 0.929 . S
H675 C689 0.931 . S
H676 C691 0.930 . S
C677 H665 0.930 . S
C677 C678 1.399 . S
C677 C682 1.399 . S
C678 C677 1.399 . S
C678 C679 1.376 . S
C679 H666 0.930 . S
C679 C678 1.376 . S
C679 C680 1.388 . S
C680 H667 0.930 . S
C680 C679 1.388 . S
C680 C681 1.390 . S
C681 C680 1.390 . S
C681 C682 1.394 . S
C681 C687 1.465 . S
C682 C677 1.399 . S
C682 C681 1.394 . S
C682 C683 1.516 . S
C683 C682 1.516 . S
C683 C684 1.502 . S
C683 C685 1.561 . S
C683 C686 1.526 . S
C684 H668 0.959 . S
C684 H669 0.959 . S
C684 H670 0.961 . S
C684 C683 1.502 . S
C685 H671 0.960 . S
C685 H672 0.961 . S
C685 H673 0.959 . S
C685 C683 1.561 . S
C686 C683 1.526 . S
C686 C687 1.396 . S
C686 C691 1.390 . S
C687 C681 1.465 . S
C687 C686 1.396 . S
C687 C688 1.399 . S
C688 H674 0.929 . S
C688 C687 1.399 . S
C688 C689 1.385 . S
C689 H675 0.931 . S
C689 C688 1.385 . S
C689 C690 1.389 . S
C690 C689 1.389 . S
C690 C691 1.387 . S
C691 H676 0.930 . S
C691 C686 1.390 . S
C691 C690 1.387 . S
H692 C704 0.930 . S
H693 C706 0.930 . S
H694 C707 0.930 . S
H695 C711 0.959 . S
H696 C711 0.959 . S
H697 C711 0.961 . S
H698 C712 0.960 . S
H699 C712 0.961 . S
H700 C712 0.959 . S
H701 C715 0.929 . S
H702 C716 0.931 . S
H703 C718 0.930 . S
C704 H692 0.930 . S
C704 C705 1.399 . S
C704 C709 1.399 . S
C705 C704 1.399 . S
C705 C706 1.376 . S
C706 H693 0.930 . S
C706 C705 1.376 . S
C706 C707 1.388 . S
C707 H694 0.930 . S
C707 C706 1.388 . S
C707 C708 1.390 . S
C708 C707 1.390 . S
C708 C709 1.394 . S
C708 C714 1.465 . S
C709 C704 1.399 . S
C709 C708 1.394 . S
C709 C710 1.516 . S
C710 C709 1.516 . S
C710 C711 1.502 . S
C710 C712 1.561 . S
C710 C713 1.526 . S
C711 H695 0.959 . S
C711 H696 0.959 . S
C711 H697 0.961 . S
C711 C710 1.502 . S
C712 H698 0.960 . S
C712 H699 0.961 . S
C712 H700 0.959 . S
C712 C710 1.561 . S
C713 C710 1.526 . S
C713 C714 1.396 . S
C713 C718 1.390 . S
C714 C708 1.465 . S
C714 C713 1.396 . S
C714 C715 1.399 . S
C715 H701 0.929 . S
C715 C714 1.399 . S
C715 C716 1.385 . S
C716 H702 0.931 . S
C716 C715 1.385 . S
C716 C717 1.389 . S
C717 C716 1.389 . S
C717 C718 1.387 . S
C718 H703 0.930 . S
C718 C713 1.390 . S
C718 C717 1.387 . S
H719 C731 0.930 . S
H720 C733 0.930 . S
H721 C734 0.930 . S
H722 C738 0.959 . S
H723 C738 0.959 . S
H724 C738 0.961 . S
H725 C739 0.960 . S
H726 C739 0.961 . S
H727 C739 0.959 . S
H728 C742 0.929 . S
H729 C743 0.931 . S
H730 C745 0.930 . S
C731 H719 0.930 . S
C731 C732 1.399 . S
C731 C736 1.399 . S
C732 C731 1.399 . S
C732 C733 1.376 . S
C733 H720 0.930 . S
C733 C732 1.376 . S
C733 C734 1.388 . S
C734 H721 0.930 . S
C734 C733 1.388 . S
C734 C735 1.390 . S
C735 C734 1.390 . S
C735 C736 1.394 . S
C735 C741 1.465 . S
C736 C731 1.399 . S
C736 C735 1.394 . S
C736 C737 1.516 . S
C737 C736 1.516 . S
C737 C738 1.502 . S
C737 C739 1.561 . S
C737 C740 1.526 . S
C738 H722 0.959 . S
C738 H723 0.959 . S
C738 H724 0.961 . S
C738 C737 1.502 . S
C739 H725 0.960 . S
C739 H726 0.961 . S
C739 H727 0.959 . S
C739 C737 1.561 . S
C740 C737 1.526 . S
C740 C741 1.396 . S
C740 C745 1.390 . S
C741 C735 1.465 . S
C741 C740 1.396 . S
C741 C742 1.399 . S
C742 H728 0.929 . S
C742 C741 1.399 . S
C742 C743 1.385 . S
C743 H729 0.931 . S
C743 C742 1.385 . S
C743 C744 1.389 . S
C744 C743 1.389 . S
C744 C745 1.387 . S
C745 H730 0.930 . S
C745 C740 1.390 . S
C745 C744 1.387 . S
H746 C758 0.930 . S
H747 C760 0.930 . S
H748 C761 0.930 . S
H749 C765 0.959 . S
H750 C765 0.959 . S
H751 C765 0.961 . S
H752 C766 0.960 . S
H753 C766 0.961 . S
H754 C766 0.959 . S
H755 C769 0.929 . S
H756 C770 0.931 . S
H757 C772 0.930 . S
C758 H746 0.930 . S
C758 C759 1.399 . S
C758 C763 1.399 . S
C759 C758 1.399 . S
C759 C760 1.376 . S
C760 H747 0.930 . S
C760 C759 1.376 . S
C760 C761 1.388 . S
C761 H748 0.930 . S
C761 C760 1.388 . S
C761 C762 1.390 . S
C762 C761 1.390 . S
C762 C763 1.394 . S
C762 C768 1.465 . S
C763 C758 1.399 . S
C763 C762 1.394 . S
C763 C764 1.516 . S
C764 C763 1.516 . S
C764 C765 1.502 . S
C764 C766 1.561 . S
C764 C767 1.526 . S
C765 H749 0.959 . S
C765 H750 0.959 . S
C765 H751 0.961 . S
C765 C764 1.502 . S
C766 H752 0.960 . S
C766 H753 0.961 . S
C766 H754 0.959 . S
C766 C764 1.561 . S
C767 C764 1.526 . S
C767 C768 1.396 . S
C767 C772 1.390 . S
C768 C762 1.465 . S
C768 C767 1.396 . S
C768 C769 1.399 . S
C769 H755 0.929 . S
C769 C768 1.399 . S
C769 C770 1.385 . S
C770 H756 0.931 . S
C770 C769 1.385 . S
C770 C771 1.389 . S
C771 C770 1.389 . S
C771 C772 1.387 . S
C772 H757 0.930 . S
C772 C767 1.390 . S
C772 C771 1.387 . S
H773 C785 0.930 . S
H774 C787 0.930 . S
H775 C788 0.930 . S
H776 C792 0.959 . S
H777 C792 0.959 . S
H778 C792 0.961 . S
H779 C793 0.960 . S
H780 C793 0.961 . S
H781 C793 0.959 . S
H782 C796 0.929 . S
H783 C797 0.931 . S
H784 C799 0.930 . S
C785 H773 0.930 . S
C785 C786 1.399 . S
C785 C790 1.399 . S
C786 C785 1.399 . S
C786 C787 1.376 . S
C787 H774 0.930 . S
C787 C786 1.376 . S
C787 C788 1.388 . S
C788 H775 0.930 . S
C788 C787 1.388 . S
C788 C789 1.390 . S
C789 C788 1.390 . S
C789 C790 1.394 . S
C789 C795 1.465 . S
C790 C785 1.399 . S
C790 C789 1.394 . S
C790 C791 1.516 . S
C791 C790 1.516 . S
C791 C792 1.502 . S
C791 C793 1.561 . S
C791 C794 1.526 . S
C792 H776 0.959 . S
C792 H777 0.959 . S
C792 H778 0.961 . S
C792 C791 1.502 . S
C793 H779 0.960 . S
C793 H780 0.961 . S
C793 H781 0.959 . S
C793 C791 1.561 . S
C794 C791 1.526 . S
C794 C795 1.396 . S
C794 C799 1.390 . S
C795 C789 1.465 . S
C795 C794 1.396 . S
C795 C796 1.399 . S
C796 H782 0.929 . S
C796 C795 1.399 . S
C796 C797 1.385 . S
C797 H783 0.931 . S
C797 C796 1.385 . S
C797 C798 1.389 . S
C798 C797 1.389 . S
C798 C799 1.387 . S
C799 H784 0.930 . S
C799 C794 1.390 . S
C799 C798 1.387 . S
H800 C812 0.930 . S
H801 C814 0.930 . S
H802 C815 0.930 . S
H803 C819 0.959 . S
H804 C819 0.959 . S
H805 C819 0.961 . S
H806 C820 0.960 . S
H807 C820 0.961 . S
H808 C820 0.959 . S
H809 C823 0.929 . S
H810 C824 0.931 . S
H811 C826 0.930 . S
C812 H800 0.930 . S
C812 C813 1.399 . S
C812 C817 1.399 . S
C813 C812 1.399 . S
C813 C814 1.376 . S
C814 H801 0.930 . S
C814 C813 1.376 . S
C814 C815 1.388 . S
C815 H802 0.930 . S
C815 C814 1.388 . S
C815 C816 1.390 . S
C816 C815 1.390 . S
C816 C817 1.394 . S
C816 C822 1.465 . S
C817 C812 1.399 . S
C817 C816 1.394 . S
C817 C818 1.516 . S
C818 C817 1.516 . S
C818 C819 1.502 . S
C818 C820 1.561 . S
C818 C821 1.526 . S
C819 H803 0.959 . S
C819 H804 0.959 . S
C819 H805 0.961 . S
C819 C818 1.502 . S
C820 H806 0.960 . S
C820 H807 0.961 . S
C820 H808 0.959 . S
C820 C818 1.561 . S
C821 C818 1.526 . S
C821 C822 1.396 . S
C821 C826 1.390 . S
C822 C816 1.465 . S
C822 C821 1.396 . S
C822 C823 1.399 . S
C823 H809 0.929 . S
C823 C822 1.399 . S
C823 C824 1.385 . S
C824 H810 0.931 . S
C824 C823 1.385 . S
C824 C825 1.389 . S
C825 C824 1.389 . S
C825 C826 1.387 . S
C826 H811 0.930 . S
C826 C821 1.390 . S
C826 C825 1.387 . S
H827 C839 0.930 . S
H828 C841 0.930 . S
H829 C842 0.930 . S
H830 C846 0.959 . S
H831 C846 0.959 . S
H832 C846 0.961 . S
H833 C847 0.960 . S
H834 C847 0.961 . S
H835 C847 0.959 . S
H836 C850 0.929 . S
H837 C851 0.931 . S
H838 C853 0.930 . S
C839 H827 0.930 . S
C839 C840 1.399 . S
C839 C844 1.399 . S
C840 C839 1.399 . S
C840 C841 1.376 . S
C841 H828 0.930 . S
C841 C840 1.376 . S
C841 C842 1.388 . S
C842 H829 0.930 . S
C842 C841 1.388 . S
C842 C843 1.390 . S
C843 C842 1.390 . S
C843 C844 1.394 . S
C843 C849 1.465 . S
C844 C839 1.399 . S
C844 C843 1.394 . S
C844 C845 1.516 . S
C845 C844 1.516 . S
C845 C846 1.502 . S
C845 C847 1.561 . S
C845 C848 1.526 . S
C846 H830 0.959 . S
C846 H831 0.959 . S
C846 H832 0.961 . S
C846 C845 1.502 . S
C847 H833 0.960 . S
C847 H834 0.961 . S
C847 H835 0.959 . S
C847 C845 1.561 . S
C848 C845 1.526 . S
C848 C849 1.396 . S
C848 C853 1.390 . S
C849 C843 1.465 . S
C849 C848 1.396 . S
C849 C850 1.399 . S
C850 H836 0.929 . S
C850 C849 1.399 . S
C850 C851 1.385 . S
C851 H837 0.931 . S
C851 C850 1.385 . S
C851 C852 1.389 . S
C852 C851 1.389 . S
C852 C853 1.387 . S
C853 H838 0.930 . S
C853 C848 1.390 . S
C853 C852 1.387 . S
H854 C866 0.930 . S
H855 C868 0.930 . S
H856 C869 0.930 . S
H857 C873 0.959 . S
H858 C873 0.959 . S
H859 C873 0.961 . S
H860 C874 0.960 . S
H861 C874 0.961 . S
H862 C874 0.959 . S
H863 C877 0.929 . S
H864 C878 0.931 . S
H865 C880 0.930 . S
C866 H854 0.930 . S
C866 C867 1.399 . S
C866 C871 1.399 . S
C867 C866 1.399 . S
C867 C868 1.376 . S
C868 H855 0.930 . S
C868 C867 1.376 . S
C868 C869 1.388 . S
C869 H856 0.930 . S
C869 C868 1.388 . S
C869 C870 1.390 . S
C870 C869 1.390 . S
C870 C871 1.394 . S
C870 C876 1.465 . S
C871 C866 1.399 . S
C871 C870 1.394 . S
C871 C872 1.516 . S
C872 C871 1.516 . S
C872 C873 1.502 . S
C872 C874 1.561 . S
C872 C875 1.526 . S
C873 H857 0.959 . S
C873 H858 0.959 . S
C873 H859 0.961 . S
C873 C872 1.502 . S
C874 H860 0.960 . S
C874 H861 0.961 . S
C874 H862 0.959 . S
C874 C872 1.561 . S
C875 C872 1.526 . S
C875 C876 1.396 . S
C875 C880 1.390 . S
C876 C870 1.465 . S
C876 C875 1.396 . S
C876 C877 1.399 . S
C877 H863 0.929 . S
C877 C876 1.399 . S
C877 C878 1.385 . S
C878 H864 0.931 . S
C878 C877 1.385 . S
C878 C879 1.389 . S
C879 C878 1.389 . S
C879 C880 1.387 . S
C880 H865 0.930 . S
C880 C875 1.390 . S
C880 C879 1.387 . S
H881 C893 0.930 . S
H882 C895 0.930 . S
H883 C896 0.930 . S
H884 C900 0.959 . S
H885 C900 0.959 . S
H886 C900 0.961 . S
H887 C901 0.960 . S
H888 C901 0.961 . S
H889 C901 0.959 . S
H890 C904 0.929 . S
H891 C905 0.931 . S
H892 C907 0.930 . S
C893 H881 0.930 . S
C893 C894 1.399 . S
C893 C898 1.399 . S
C894 C893 1.399 . S
C894 C895 1.376 . S
C895 H882 0.930 . S
C895 C894 1.376 . S
C895 C896 1.388 . S
C896 H883 0.930 . S
C896 C895 1.388 . S
C896 C897 1.390 . S
C897 C896 1.390 . S
C897 C898 1.394 . S
C897 C903 1.465 . S
C898 C893 1.399 . S
C898 C897 1.394 . S
C898 C899 1.516 . S
C899 C898 1.516 . S
C899 C900 1.502 . S
C899 C901 1.561 . S
C899 C902 1.526 . S
C900 H884 0.959 . S
C900 H885 0.959 . S
C900 H886 0.961 . S
C900 C899 1.502 . S
C901 H887 0.960 . S
C901 H888 0.961 . S
C901 H889 0.959 . S
C901 C899 1.561 . S
C902 C899 1.526 . S
C902 C903 1.396 . S
C902 C907 1.390 . S
C903 C897 1.465 . S
C903 C902 1.396 . S
C903 C904 1.399 . S
C904 H890 0.929 . S
C904 C903 1.399 . S
C904 C905 1.385 . S
C905 H891 0.931 . S
C905 C904 1.385 . S
C905 C906 1.389 . S
C906 C905 1.389 . S
C906 C907 1.387 . S
C907 H892 0.930 . S
C907 C902 1.390 . S
C907 C906 1.387 . S
H908 C920 0.930 . S
H909 C922 0.930 . S
H910 C923 0.930 . S
H911 C927 0.959 . S
H912 C927 0.959 . S
H913 C927 0.961 . S
H914 C928 0.960 . S
H915 C928 0.961 . S
H916 C928 0.959 . S
H917 C931 0.929 . S
H918 C932 0.931 . S
H919 C934 0.930 . S
C920 H908 0.930 . S
C920 C921 1.399 . S
C920 C925 1.399 . S
C921 C920 1.399 . S
C921 C922 1.376 . S
C922 H909 0.930 . S
C922 C921 1.376 . S
C922 C923 1.388 . S
C923 H910 0.930 . S
C923 C922 1.388 . S
C923 C924 1.390 . S
C924 C923 1.390 . S
C924 C925 1.394 . S
C924 C930 1.465 . S
C925 C920 1.399 . S
C925 C924 1.394 . S
C925 C926 1.516 . S
C926 C925 1.516 . S
C926 C927 1.502 . S
C926 C928 1.561 . S
C926 C929 1.526 . S
C927 H911 0.959 . S
C927 H912 0.959 . S
C927 H913 0.961 . S
C927 C926 1.502 . S
C928 H914 0.960 . S
C928 H915 0.961 . S
C928 H916 0.959 . S
C928 C926 1.561 . S
C929 C926 1.526 . S
C929 C930 1.396 . S
C929 C934 1.390 . S
C930 C924 1.465 . S
C930 C929 1.396 . S
C930 C931 1.399 . S
C931 H917 0.929 . S
C931 C930 1.399 . S
C931 C932 1.385 . S
C932 H918 0.931 . S
C932 C931 1.385 . S
C932 C933 1.389 . S
C933 C932 1.389 . S
C933 C934 1.387 . S
C934 H919 0.930 . S
C934 C929 1.390 . S
C934 C933 1.387 . S
H935 C947 0.930 . S
H936 C949 0.930 . S
H937 C950 0.930 . S
H938 C954 0.959 . S
H939 C954 0.959 . S
H940 C954 0.961 . S
H941 C955 0.960 . S
H942 C955 0.961 . S
H943 C955 0.959 . S
H944 C958 0.929 . S
H945 C959 0.931 . S
H946 C961 0.930 . S
C947 H935 0.930 . S
C947 C948 1.399 . S
C947 C952 1.399 . S
C948 C947 1.399 . S
C948 C949 1.376 . S
C949 H936 0.930 . S
C949 C948 1.376 . S
C949 C950 1.388 . S
C950 H937 0.930 . S
C950 C949 1.388 . S
C950 C951 1.390 . S
C951 C950 1.390 . S
C951 C952 1.394 . S
C951 C957 1.465 . S
C952 C947 1.399 . S
C952 C951 1.394 . S
C952 C953 1.516 . S
C953 C952 1.516 . S
C953 C954 1.502 . S
C953 C955 1.561 . S
C953 C956 1.526 . S
C954 H938 0.959 . S
C954 H939 0.959 . S
C954 H940 0.961 . S
C954 C953 1.502 . S
C955 H941 0.960 . S
C955 H942 0.961 . S
C955 H943 0.959 . S
C955 C953 1.561 . S
C956 C953 1.526 . S
C956 C957 1.396 . S
C956 C961 1.390 . S
C957 C951 1.465 . S
C957 C956 1.396 . S
C957 C958 1.399 . S
C958 H944 0.929 . S
C958 C957 1.399 . S
C958 C959 1.385 . S
C959 H945 0.931 . S
C959 C958 1.385 . S
C959 C960 1.389 . S
C960 C959 1.389 . S
C960 C961 1.387 . S
C961 H946 0.930 . S
C961 C956 1.390 . S
C961 C960 1.387 . S
H962 C974 0.930 . S
H963 C976 0.930 . S
H964 C977 0.930 . S
H965 C981 0.959 . S
H966 C981 0.959 . S
H967 C981 0.961 . S
H968 C982 0.960 . S
H969 C982 0.961 . S
H970 C982 0.959 . S
H971 C985 0.929 . S
H972 C986 0.931 . S
H973 C988 0.930 . S
C974 H962 0.930 . S
C974 C975 1.399 . S
C974 C979 1.399 . S
C975 C974 1.399 . S
C975 C976 1.376 . S
C976 H963 0.930 . S
C976 C975 1.376 . S
C976 C977 1.388 . S
C977 H964 0.930 . S
C977 C976 1.388 . S
C977 C978 1.390 . S
C978 C977 1.390 . S
C978 C979 1.394 . S
C978 C984 1.465 . S
C979 C974 1.399 . S
C979 C978 1.394 . S
C979 C980 1.516 . S
C980 C979 1.516 . S
C980 C981 1.502 . S
C980 C982 1.561 . S
C980 C983 1.526 . S
C981 H965 0.959 . S
C981 H966 0.959 . S
C981 H967 0.961 . S
C981 C980 1.502 . S
C982 H968 0.960 . S
C982 H969 0.961 . S
C982 H970 0.959 . S
C982 C980 1.561 . S
C983 C980 1.526 . S
C983 C984 1.396 . S
C983 C988 1.390 . S
C984 C978 1.465 . S
C984 C983 1.396 . S
C984 C985 1.399 . S
C985 H971 0.929 . S
C985 C984 1.399 . S
C985 C986 1.385 . S
C986 H972 0.931 . S
C986 C985 1.385 . S
C986 C987 1.389 . S
C987 C986 1.389 . S
C987 C988 1.387 . S
C988 H973 0.930 . S
C988 C983 1.390 . S
C988 C987 1.387 . S
H989 C1001 0.930 . S
H990 C1003 0.930 . S
H991 C1004 0.930 . S
H992 C1008 0.959 . S
H993 C1008 0.959 . S
H994 C1008 0.961 . S
H995 C1009 0.960 . S
H996 C1009 0.961 . S
H997 C1009 0.959 . S
H998 C1012 0.929 . S
H999 C1013 0.931 . S
H1000 C1015 0.930 . S
C1001 H989 0.930 . S
C1001 C1002 1.399 . S
C1001 C1006 1.399 . S
C1002 C1001 1.399 . S
C1002 C1003 1.376 . S
C1003 H990 0.930 . S
C1003 C1002 1.376 . S
C1003 C1004 1.388 . S
C1004 H991 0.930 . S
C1004 C1003 1.388 . S
C1004 C1005 1.390 . S
C1005 C1004 1.390 . S
C1005 C1006 1.394 . S
C1005 C1011 1.465 . S
C1006 C1001 1.399 . S
C1006 C1005 1.394 . S
C1006 C1007 1.516 . S
C1007 C1006 1.516 . S
C1007 C1008 1.502 . S
C1007 C1009 1.561 . S
C1007 C1010 1.526 . S
C1008 H992 0.959 . S
C1008 H993 0.959 . S
C1008 H994 0.961 . S
C1008 C1007 1.502 . S
C1009 H995 0.960 . S
C1009 H996 0.961 . S
C1009 H997 0.959 . S
C1009 C1007 1.561 . S
C1010 C1007 1.526 . S
C1010 C1011 1.396 . S
C1010 C1015 1.390 . S
C1011 C1005 1.465 . S
C1011 C1010 1.396 . S
C1011 C1012 1.399 . S
C1012 H998 0.929 . S
C1012 C1011 1.399 . S
C1012 C1013 1.385 . S
C1013 H999 0.931 . S
C1013 C1012 1.385 . S
C1013 C1014 1.389 . S
C1014 C1013 1.389 . S
C1014 C1015 1.387 . S
C1015 H1000 0.930 . S
C1015 C1010 1.390 . S
C1015 C1014 1.387 . S
H1016 C1028 0.930 . S
H1017 C1030 0.930 . S
H1018 C1031 0.930 . S
H1019 C1035 0.959 . S
H1020 C1035 0.959 . S
H1021 C1035 0.961 . S
H1022 C1036 0.960 . S
H1023 C1036 0.961 . S
H1024 C1036 0.959 . S
H1025 C1039 0.929 . S
H1026 C1040 0.931 . S
H1027 C1042 0.930 . S
C1028 H1016 0.930 . S
C1028 C1029 1.401 . S
C1028 C1033 1.397 1_545 S
C1029 C1028 1.401 . S
C1029 C1030 1.376 . S
C1030 H1017 0.930 . S
C1030 C1029 1.376 . S
C1030 C1031 1.388 1_545 S
C1031 H1018 0.930 . S
C1031 C1030 1.388 1_565 S
C1031 C1032 1.390 . S
C1032 C1031 1.390 . S
C1032 C1033 1.394 . S
C1032 C1038 1.465 . S
C1033 C1028 1.397 1_565 S
C1033 C1032 1.394 . S
C1033 C1034 1.516 . S
C1034 C1033 1.516 . S
C1034 C1035 1.502 . S
C1034 C1036 1.561 . S
C1034 C1037 1.526 . S
C1035 H1019 0.959 . S
C1035 H1020 0.959 . S
C1035 H1021 0.961 . S
C1035 C1034 1.502 . S
C1036 H1022 0.960 . S
C1036 H1023 0.961 . S
C1036 H1024 0.959 . S
C1036 C1034 1.561 . S
C1037 C1034 1.526 . S
C1037 C1038 1.396 . S
C1037 C1042 1.390 . S
C1038 C1032 1.465 . S
C1038 C1037 1.396 . S
C1038 C1039 1.399 . S
C1039 H1025 0.929 . S
C1039 C1038 1.399 . S
C1039 C1040 1.385 . S
C1040 H1026 0.931 . S
C1040 C1039 1.385 . S
C1040 C1041 1.389 . S
C1041 C1040 1.389 . S
C1041 C1042 1.387 . S
C1042 H1027 0.930 . S
C1042 C1037 1.390 . S
C1042 C1041 1.387 . S
H1043 C1055 0.930 . S
H1044 C1057 0.930 . S
H1045 C1058 0.930 . S
H1046 C1062 0.959 . S
H1047 C1062 0.959 . S
H1048 C1062 0.961 . S
H1049 C1063 0.960 . S
H1050 C1063 0.961 . S
H1051 C1063 0.959 . S
H1052 C1066 0.929 . S
H1053 C1067 0.931 . S
H1054 C1069 0.930 . S
C1055 H1043 0.930 . S
C1055 C1056 1.399 . S
C1055 C1060 1.399 . S
C1056 C1055 1.399 . S
C1056 C1057 1.376 . S
C1057 H1044 0.930 . S
C1057 C1056 1.376 . S
C1057 C1058 1.388 . S
C1058 H1045 0.930 . S
C1058 C1057 1.388 . S
C1058 C1059 1.390 . S
C1059 C1058 1.390 . S
C1059 C1060 1.394 . S
C1059 C1065 1.465 . S
C1060 C1055 1.399 . S
C1060 C1059 1.394 . S
C1060 C1061 1.516 . S
C1061 C1060 1.516 . S
C1061 C1062 1.502 . S
C1061 C1063 1.561 . S
C1061 C1064 1.526 . S
C1062 H1046 0.959 . S
C1062 H1047 0.959 . S
C1062 H1048 0.961 . S
C1062 C1061 1.502 . S
C1063 H1049 0.960 . S
C1063 H1050 0.961 . S
C1063 H1051 0.959 . S
C1063 C1061 1.561 . S
C1064 C1061 1.526 . S
C1064 C1065 1.396 . S
C1064 C1069 1.390 . S
C1065 C1059 1.465 . S
C1065 C1064 1.396 . S
C1065 C1066 1.399 . S
C1066 H1052 0.929 . S
C1066 C1065 1.399 . S
C1066 C1067 1.385 . S
C1067 H1053 0.931 . S
C1067 C1066 1.385 . S
C1067 C1068 1.389 . S
C1068 C1067 1.389 . S
C1068 C1069 1.387 . S
C1069 H1054 0.930 . S
C1069 C1064 1.390 . S
C1069 C1068 1.387 . S
H1070 C1082 0.930 . S
H1071 C1084 0.930 . S
H1072 C1085 0.930 . S
H1073 C1089 0.959 . S
H1074 C1089 0.959 . S
H1075 C1089 0.961 . S
H1076 C1090 0.960 . S
H1077 C1090 0.961 1_655 S
H1078 C1090 0.959 . S
H1079 C1093 0.929 . S
H1080 C1094 0.931 . S
H1081 C1096 0.930 . S
C1082 H1070 0.930 . S
C1082 C1083 1.399 . S
C1082 C1087 1.399 . S
C1083 C1082 1.399 . S
C1083 C1084 1.376 . S
C1084 H1071 0.930 . S
C1084 C1083 1.376 . S
C1084 C1085 1.388 . S
C1085 H1072 0.930 . S
C1085 C1084 1.388 . S
C1085 C1086 1.390 . S
C1086 C1085 1.390 . S
C1086 C1087 1.394 . S
C1086 C1092 1.465 . S
C1087 C1082 1.399 . S
C1087 C1086 1.394 . S
C1087 C1088 1.516 . S
C1088 C1087 1.516 . S
C1088 C1089 1.502 1_455 S
C1088 C1090 1.561 . S
C1088 C1091 1.526 . S
C1089 H1073 0.959 . S
C1089 H1074 0.959 . S
C1089 H1075 0.961 . S
C1089 C1088 1.502 1_655 S
C1090 H1076 0.960 . S
C1090 H1077 0.961 1_455 S
C1090 H1078 0.959 . S
C1090 C1088 1.561 . S
C1091 C1088 1.526 . S
C1091 C1092 1.396 . S
C1091 C1096 1.390 1_455 S
C1092 C1086 1.465 . S
C1092 C1091 1.396 . S
C1092 C1093 1.399 . S
C1093 H1079 0.929 . S
C1093 C1092 1.399 . S
C1093 C1094 1.385 . S
C1094 H1080 0.931 . S
C1094 C1093 1.385 . S
C1094 C1095 1.389 1_455 S
C1095 C1094 1.389 1_655 S
C1095 C1096 1.387 . S
C1096 H1081 0.930 . S
C1096 C1091 1.390 1_655 S
C1096 C1095 1.387 . S
H1097 C1109 0.930 . S
H1098 C1111 0.930 . S
H1099 C1112 0.930 . S
H1100 C1116 0.959 . S
H1101 C1116 0.959 . S
H1102 C1116 0.961 . S
H1103 C1117 0.960 . S
H1104 C1117 0.961 . S
H1105 C1117 0.959 . S
H1106 C1120 0.930 . S
H1107 C1121 0.931 . S
H1108 C1123 0.930 . S
C1109 H1097 0.930 . S
C1109 C1110 1.399 1_545 S
C1109 C1114 1.399 . S
C1110 C1109 1.399 1_565 S
C1110 C1111 1.376 . S
C1111 H1098 0.930 . S
C1111 C1110 1.376 . S
C1111 C1112 1.388 . S
C1112 H1099 0.930 . S
C1112 C1111 1.388 . S
C1112 C1113 1.390 1_565 S
C1113 C1112 1.390 1_545 S
C1113 C1114 1.394 . S
C1113 C1119 1.465 . S
C1114 C1109 1.399 . S
C1114 C1113 1.394 . S
C1114 C1115 1.516 . S
C1115 C1114 1.516 . S
C1115 C1116 1.502 . S
C1115 C1117 1.561 . S
C1115 C1118 1.526 . S
C1116 H1100 0.959 . S
C1116 H1101 0.959 . S
C1116 H1102 0.961 . S
C1116 C1115 1.502 . S
C1117 H1103 0.960 . S
C1117 H1104 0.961 . S
C1117 H1105 0.959 . S
C1117 C1115 1.561 . S
C1118 C1115 1.526 . S
C1118 C1119 1.396 . S
C1118 C1123 1.390 . S
C1119 C1113 1.465 . S
C1119 C1118 1.396 . S
C1119 C1120 1.389 1_655 S
C1120 H1106 0.930 . S
C1120 C1119 1.389 1_455 S
C1120 C1121 1.394 . S
C1121 H1107 0.931 . S
C1121 C1120 1.394 . S
C1121 C1122 1.389 . S
C1122 C1121 1.389 . S
C1122 C1123 1.387 1_455 S
C1123 H1108 0.930 . S
C1123 C1118 1.390 . S
C1123 C1122 1.387 1_655 S
H1124 C1136 0.930 . S
H1125 C1138 0.930 . S
H1126 C1139 0.930 . S
H1127 C1143 0.959 . S
H1128 C1143 0.959 . S
H1129 C1143 0.961 . S
H1130 C1144 0.960 . S
H1131 C1144 0.961 . S
H1132 C1144 0.959 . S
H1133 C1147 0.929 . S
H1134 C1148 0.931 . S
H1135 C1150 0.930 . S
C1136 H1124 0.930 . S
C1136 C1137 1.399 . S
C1136 C1141 1.399 . S
C1137 C1136 1.399 . S
C1137 C1138 1.376 . S
C1138 H1125 0.930 . S
C1138 C1137 1.376 . S
C1138 C1139 1.388 . S
C1139 H1126 0.930 . S
C1139 C1138 1.388 . S
C1139 C1140 1.390 . S
C1140 C1139 1.390 . S
C1140 C1141 1.394 . S
C1140 C1146 1.465 . S
C1141 C1136 1.399 . S
C1141 C1140 1.394 . S
C1141 C1142 1.516 . S
C1142 C1141 1.516 . S
C1142 C1143 1.502 . S
C1142 C1144 1.561 . S
C1142 C1145 1.526 . S
C1143 H1127 0.959 . S
C1143 H1128 0.959 . S
C1143 H1129 0.961 . S
C1143 C1142 1.502 . S
C1144 H1130 0.960 . S
C1144 H1131 0.961 . S
C1144 H1132 0.959 . S
C1144 C1142 1.561 . S
C1145 C1142 1.526 . S
C1145 C1146 1.396 . S
C1145 C1150 1.390 . S
C1146 C1140 1.465 . S
C1146 C1145 1.396 . S
C1146 C1147 1.399 . S
C1147 H1133 0.929 . S
C1147 C1146 1.399 . S
C1147 C1148 1.385 . S
C1148 H1134 0.931 . S
C1148 C1147 1.385 . S
C1148 C1149 1.389 . S
C1149 C1148 1.389 . S
C1149 C1150 1.387 . S
C1150 H1135 0.930 . S
C1150 C1145 1.390 . S
C1150 C1149 1.387 . S
H1151 C1163 0.930 . S
H1152 C1165 0.940 . S
H1153 C1166 0.930 . S
H1154 C1170 0.959 . S
H1155 C1170 0.959 . S
H1156 C1170 0.961 1_455 S
H1157 C1171 0.960 . S
H1158 C1171 0.961 . S
H1159 C1171 0.959 . S
H1160 C1174 0.929 . S
H1161 C1175 0.931 . S
H1162 C1177 0.930 . S
C1163 H1151 0.930 . S
C1163 C1164 1.399 . S
C1163 C1168 1.399 1_455 S
C1164 C1163 1.399 . S
C1164 C1165 1.392 . S
C1165 H1152 0.940 . S
C1165 C1164 1.392 . S
C1165 C1166 1.364 1_455 S
C1166 H1153 0.930 . S
C1166 C1165 1.364 1_655 S
C1166 C1167 1.390 . S
C1167 C1166 1.390 . S
C1167 C1168 1.394 . S
C1167 C1173 1.465 . S
C1168 C1163 1.399 1_655 S
C1168 C1167 1.394 . S
C1168 C1169 1.516 . S
C1169 C1168 1.516 . S
C1169 C1170 1.502 . S
C1169 C1171 1.561 . S
C1169 C1172 1.526 . S
C1170 H1154 0.959 . S
C1170 H1155 0.959 . S
C1170 H1156 0.961 1_655 S
C1170 C1169 1.502 . S
C1171 H1157 0.960 . S
C1171 H1158 0.961 . S
C1171 H1159 0.959 . S
C1171 C1169 1.561 . S
C1172 C1169 1.526 . S
C1172 C1173 1.396 . S
C1172 C1177 1.390 . S
C1173 C1167 1.465 . S
C1173 C1172 1.396 . S
C1173 C1174 1.399 . S
C1174 H1160 0.929 . S
C1174 C1173 1.399 . S
C1174 C1175 1.385 . S
C1175 H1161 0.931 . S
C1175 C1174 1.385 . S
C1175 C1176 1.389 . S
C1176 C1175 1.389 . S
C1176 C1177 1.387 . S
C1177 H1162 0.930 . S
C1177 C1172 1.390 . S
C1177 C1176 1.387 . S
H1178 C1190 0.930 . S
H1179 C1192 0.930 . S
H1180 C1193 0.930 . S
H1181 C1197 0.959 . S
H1182 C1197 0.959 . S
H1183 C1197 0.961 . S
H1184 C1198 0.960 . S
H1185 C1198 0.961 . S
H1186 C1198 0.959 . S
H1187 C1201 0.929 . S
H1188 C1202 0.931 . S
H1189 C1204 0.930 . S
C1190 H1178 0.930 . S
C1190 C1191 1.399 1_455 S
C1190 C1195 1.399 . S
C1191 C1190 1.399 1_655 S
C1191 C1192 1.376 . S
C1192 H1179 0.930 . S
C1192 C1191 1.376 . S
C1192 C1193 1.388 . S
C1193 H1180 0.930 . S
C1193 C1192 1.388 . S
C1193 C1194 1.390 1_655 S
C1194 C1193 1.390 1_455 S
C1194 C1195 1.394 . S
C1194 C1200 1.465 . S
C1195 C1190 1.399 . S
C1195 C1194 1.394 . S
C1195 C1196 1.516 . S
C1196 C1195 1.516 . S
C1196 C1197 1.502 . S
C1196 C1198 1.561 . S
C1196 C1199 1.526 . S
C1197 H1181 0.959 . S
C1197 H1182 0.959 . S
C1197 H1183 0.961 . S
C1197 C1196 1.502 . S
C1198 H1184 0.960 . S
C1198 H1185 0.961 . S
C1198 H1186 0.959 . S
C1198 C1196 1.561 . S
C1199 C1196 1.526 . S
C1199 C1200 1.396 . S
C1199 C1204 1.390 . S
C1200 C1194 1.465 . S
C1200 C1199 1.396 . S
C1200 C1201 1.399 1_565 S
C1201 H1187 0.929 . S
C1201 C1200 1.399 1_545 S
C1201 C1202 1.385 . S
C1202 H1188 0.931 . S
C1202 C1201 1.385 . S
C1202 C1203 1.389 . S
C1203 C1202 1.389 . S
C1203 C1204 1.387 1_545 S
C1204 H1189 0.930 . S
C1204 C1199 1.390 . S
C1204 C1203 1.387 1_565 S
H1205 C1217 0.930 . S
H1206 C1219 0.930 . S
H1207 C1220 0.929 . S
H1208 C1224 0.959 . S
H1209 C1224 0.959 . S
H1210 C1224 0.961 . S
H1211 C1225 0.960 . S
H1212 C1225 0.961 . S
H1213 C1225 0.959 . S
H1214 C1228 0.929 . S
H1215 C1229 0.931 . S
H1216 C1231 0.930 . S
C1217 H1205 0.930 . S
C1217 C1218 1.399 1_545 S
C1217 C1222 1.399 . S
C1218 C1217 1.399 1_565 S
C1218 C1219 1.376 . S
C1219 H1206 0.930 . S
C1219 C1218 1.376 . S
C1219 C1220 1.390 . S
C1220 H1207 0.929 . S
C1220 C1219 1.390 . S
C1220 C1221 1.388 1_565 S
C1221 C1220 1.388 1_545 S
C1221 C1222 1.394 . S
C1221 C1227 1.465 . S
C1222 C1217 1.399 . S
C1222 C1221 1.394 . S
C1222 C1223 1.516 . S
C1223 C1222 1.516 . S
C1223 C1224 1.502 . S
C1223 C1225 1.561 . S
C1223 C1226 1.526 . S
C1224 H1208 0.959 . S
C1224 H1209 0.959 . S
C1224 H1210 0.961 . S
C1224 C1223 1.502 . S
C1225 H1211 0.960 . S
C1225 H1212 0.961 . S
C1225 H1213 0.959 . S
C1225 C1223 1.561 . S
C1226 C1223 1.526 . S
C1226 C1227 1.396 . S
C1226 C1231 1.390 . S
C1227 C1221 1.465 . S
C1227 C1226 1.396 . S
C1227 C1228 1.399 . S
C1228 H1214 0.929 . S
C1228 C1227 1.399 . S
C1228 C1229 1.385 . S
C1229 H1215 0.931 . S
C1229 C1228 1.385 . S
C1229 C1230 1.389 . S
C1230 C1229 1.389 . S
C1230 C1231 1.387 . S
C1231 H1216 0.930 . S
C1231 C1226 1.390 . S
C1231 C1230 1.387 . S
C381 C168 1.659 . S
C393 C7 1.657 . S
C408 C99 1.672 . S
C420 C30 1.672 . S
C435 C122 1.644 . S
C447 C53 1.643 . S
C462 C76 1.644 . S
C474 C145 1.646 . S
C489 C352 1.634 . S
C501 C191 1.630 . S
C516 C283 1.657 . S
C528 C214 1.646 . S
C543 C237 1.652 . S
C555 C306 1.641 . S
C570 C260 1.629 . S
C582 C329 1.632 . S
C597 N48 1.257 . S
C609 N2 1.286 . S
C624 N25 1.256 . S
C636 N71 1.287 . S
C651 N94 1.332 . S
C663 N140 1.300 . S
C678 N163 1.256 . S
C690 N117 1.286 . S
C705 N186 1.319 . S
C717 N232 1.255 . S
C732 N209 1.257 . S
C744 N255 1.340 . S
C759 N324 1.315 . S
C771 N278 1.258 . S
C786 N301 1.270 . S
C798 N347 1.332 . S
C813 C154 1.649 . S
C825 C16 1.630 . S
C840 C39 1.623 . S
C852 C177 1.651 . S
C867 C62 1.608 . S
C879 C108 1.631 . S
C894 C85 1.622 . S
C906 C131 1.614 . S
C921 C200 1.642 . S
C933 C338 1.610 . S
C948 C223 1.609 . S
C960 C361 1.641 . S
C975 C246 1.611 . S
C987 C292 1.651 . S
C1002 C269 1.652 . S
C1014 C315 1.607 . S
C1029 N12 1.441 . S
C1041 N357 1.434 . S
C1056 N288 1.447 . S
C1068 N35 1.439 . S
C1083 N58 1.440 . S
C1095 N311 1.448 . S
C1110 N334 1.483 . S
C1122 N81 1.485 . S
C1137 N219 1.482 . S
C1149 N104 1.484 . S
C1164 N127 1.467 . S
C1176 N242 1.475 . S
C1191 N265 1.482 . S
C1203 N150 1.485 . S
C1218 N196 1.483 . S
C1230 N173 1.485 . S
