# Generated by pormake.
# Topology une, (4)-cn, num edge types: 1
# Building blocks:
#     Node 0, Type 0, BuildingBlock: GALJAG_clean_sbu_0, # of connection points: 4
#     Node 1, Type 0, BuildingBlock: GALJAG_clean_sbu_0, # of connection points: 4
#     Node 2, Type 0, BuildingBlock: GALJAG_clean_sbu_0, # of connection points: 4
#     Node 3, Type 0, BuildingBlock: GALJAG_clean_sbu_0, # of connection points: 4
#     Node 4, Type 0, BuildingBlock: GALJAG_clean_sbu_0, # of connection points: 4
#     Node 5, Type 0, BuildingBlock: GALJAG_clean_sbu_0, # of connection points: 4
#     Node 6, Type 0, BuildingBlock: GALJAG_clean_sbu_0, # of connection points: 4
#     Node 7, Type 0, BuildingBlock: GALJAG_clean_sbu_0, # of connection points: 4
#     Node 8, Type 0, BuildingBlock: GALJAG_clean_sbu_0, # of connection points: 4
#     Node 9, Type 0, BuildingBlock: GALJAG_clean_sbu_0, # of connection points: 4
#     Node 10, Type 0, BuildingBlock: GALJAG_clean_sbu_0, # of connection points: 4
#     Node 11, Type 0, BuildingBlock: GALJAG_clean_sbu_0, # of connection points: 4
#     Node 12, Type 0, BuildingBlock: GALJAG_clean_sbu_0, # of connection points: 4
#     Node 13, Type 0, BuildingBlock: GALJAG_clean_sbu_0, # of connection points: 4
#     Node 14, Type 0, BuildingBlock: GALJAG_clean_sbu_0, # of connection points: 4
#     Node 15, Type 0, BuildingBlock: GALJAG_clean_sbu_0, # of connection points: 4
#     Node 16, Type 0, BuildingBlock: GALJAG_clean_sbu_0, # of connection points: 4
#     Node 17, Type 0, BuildingBlock: GALJAG_clean_sbu_0, # of connection points: 4
#     Edge 18, Type (0, 0), BuildingBlock: ZUJKAS_clean_linker_0, # of connection points: 2
#     Edge 19, Type (0, 0), BuildingBlock: ZUJKAS_clean_linker_0, # of connection points: 2
#     Edge 20, Type (0, 0), BuildingBlock: ZUJKAS_clean_linker_0, # of connection points: 2
#     Edge 21, Type (0, 0), BuildingBlock: ZUJKAS_clean_linker_0, # of connection points: 2
#     Edge 22, Type (0, 0), BuildingBlock: ZUJKAS_clean_linker_0, # of connection points: 2
#     Edge 23, Type (0, 0), BuildingBlock: ZUJKAS_clean_linker_0, # of connection points: 2
#     Edge 24, Type (0, 0), BuildingBlock: ZUJKAS_clean_linker_0, # of connection points: 2
#     Edge 25, Type (0, 0), BuildingBlock: ZUJKAS_clean_linker_0, # of connection points: 2
#     Edge 26, Type (0, 0), BuildingBlock: ZUJKAS_clean_linker_0, # of connection points: 2
#     Edge 27, Type (0, 0), BuildingBlock: ZUJKAS_clean_linker_0, # of connection points: 2
#     Edge 28, Type (0, 0), BuildingBlock: ZUJKAS_clean_linker_0, # of connection points: 2
#     Edge 29, Type (0, 0), BuildingBlock: ZUJKAS_clean_linker_0, # of connection points: 2
#     Edge 30, Type (0, 0), BuildingBlock: ZUJKAS_clean_linker_0, # of connection points: 2
#     Edge 31, Type (0, 0), BuildingBlock: ZUJKAS_clean_linker_0, # of connection points: 2
#     Edge 32, Type (0, 0), BuildingBlock: ZUJKAS_clean_linker_0, # of connection points: 2
#     Edge 33, Type (0, 0), BuildingBlock: ZUJKAS_clean_linker_0, # of connection points: 2
#     Edge 34, Type (0, 0), BuildingBlock: ZUJKAS_clean_linker_0, # of connection points: 2
#     Edge 35, Type (0, 0), BuildingBlock: ZUJKAS_clean_linker_0, # of connection points: 2
#     Edge 36, Type (0, 0), BuildingBlock: ZUJKAS_clean_linker_0, # of connection points: 2
#     Edge 37, Type (0, 0), BuildingBlock: ZUJKAS_clean_linker_0, # of connection points: 2
#     Edge 38, Type (0, 0), BuildingBlock: ZUJKAS_clean_linker_0, # of connection points: 2
#     Edge 39, Type (0, 0), BuildingBlock: ZUJKAS_clean_linker_0, # of connection points: 2
#     Edge 40, Type (0, 0), BuildingBlock: ZUJKAS_clean_linker_0, # of connection points: 2
#     Edge 41, Type (0, 0), BuildingBlock: ZUJKAS_clean_linker_0, # of connection points: 2
#     Edge 42, Type (0, 0), BuildingBlock: ZUJKAS_clean_linker_0, # of connection points: 2
#     Edge 43, Type (0, 0), BuildingBlock: ZUJKAS_clean_linker_0, # of connection points: 2
#     Edge 44, Type (0, 0), BuildingBlock: ZUJKAS_clean_linker_0, # of connection points: 2
#     Edge 45, Type (0, 0), BuildingBlock: ZUJKAS_clean_linker_0, # of connection points: 2
#     Edge 46, Type (0, 0), BuildingBlock: ZUJKAS_clean_linker_0, # of connection points: 2
#     Edge 47, Type (0, 0), BuildingBlock: ZUJKAS_clean_linker_0, # of connection points: 2
#     Edge 48, Type (0, 0), BuildingBlock: ZUJKAS_clean_linker_0, # of connection points: 2
#     Edge 49, Type (0, 0), BuildingBlock: ZUJKAS_clean_linker_0, # of connection points: 2
#     Edge 50, Type (0, 0), BuildingBlock: ZUJKAS_clean_linker_0, # of connection points: 2
#     Edge 51, Type (0, 0), BuildingBlock: ZUJKAS_clean_linker_0, # of connection points: 2
#     Edge 52, Type (0, 0), BuildingBlock: ZUJKAS_clean_linker_0, # of connection points: 2
#     Edge 53, Type (0, 0), BuildingBlock: ZUJKAS_clean_linker_0, # of connection points: 2
# Relax obj value: 0.162
# Max RMSD: 0.140
# Mean RMSD: 0.139
data_MOF--net-une--node1-GALJAG_clean_sbu_0--edge1-ZUJKAS_clean_linker_0
_symmetry_space_group_name_H-M    P1
_symmetry_Int_Tables_number       1
_symmetry_cell_setting            triclinic
loop_
_symmetry_equiv_pos_as_xyz
'x, y, z'
_cell_length_a     51.762185
_cell_length_b     51.786763
_cell_length_c     67.1911
_cell_angle_alpha  89.987965
_cell_angle_beta   90.043382
_cell_angle_gamma 120.00859
loop_
_atom_site_label
_atom_site_type_symbol
_atom_site_fract_x
_atom_site_fract_y
_atom_site_fract_z
_atom_type_partial_charge
In0 In 0.37011 0.06228 0.06045 0.0
O1 O 0.34153 0.05857 0.08709 0.0
O2 O 0.38736 0.09158 0.08835 0.0
C3 C 0.33063 0.00598 0.05012 0.0
C4 C 0.36062 0.10065 0.03912 0.0
C5 C 0.41962 0.06002 0.05102 0.0
O6 O 0.34005 0.01298 0.06776 0.0
O7 O 0.34108 0.02735 0.03791 0.0
O8 O 0.4099 0.07361 0.04067 0.0
O9 O 0.40536 0.04894 0.06693 0.0
C10 C 0.36208 0.07996 0.09658 0.0
O11 O 0.38531 0.1083 0.04742 0.0
O12 O 0.34094 0.07369 0.04147 0.0
In13 In 0.93329 0.29859 0.05622 0.0
O14 O 0.93231 0.27105 0.08277 0.0
O15 O 0.90163 0.28687 0.08292 0.0
C16 C 0.99032 0.31502 0.04816 0.0
C17 C 0.89549 0.25361 0.03263 0.0
C18 C 0.93838 0.35151 0.04666 0.0
O19 O 0.98222 0.31883 0.0651 0.0
O20 O 0.96961 0.30259 0.03554 0.0
O21 O 0.92493 0.32858 0.03595 0.0
O22 O 0.94796 0.34746 0.06298 0.0
C23 C 0.91098 0.27141 0.09149 0.0
O24 O 0.89006 0.27344 0.03877 0.0
O25 O 0.92001 0.25649 0.0384 0.0
In26 In 0.6925 0.6287 0.04818 0.0
O27 O 0.72098 0.60931 0.03744 0.0
O28 O 0.72847 0.65 0.02452 0.0
C29 C 0.6419 0.5858 0.03127 0.0
C30 C 0.71867 0.63487 0.08392 0.0
C31 C 0.67851 0.67197 0.04929 0.0
O32 O 0.66211 0.6076 0.02192 0.0
O33 O 0.64727 0.58489 0.04956 0.0
O34 O 0.66487 0.64867 0.05978 0.0
O35 O 0.69915 0.67331 0.03854 0.0
C36 C 0.73571 0.6301 0.02523 0.0
O37 O 0.72266 0.6565 0.0732 0.0
O38 O 0.70036 0.60944 0.07696 0.0
In39 In 0.62264 0.92447 0.94822 0.0
O40 O 0.65199 0.92116 0.9246 0.0
O41 O 0.60524 0.89662 0.91957 0.0
C42 C 0.67008 0.97942 0.95278 0.0
C43 C 0.61822 0.88369 0.97476 0.0
C44 C 0.57667 0.93328 0.9569 0.0
O45 O 0.64757 0.97454 0.94263 0.0
O46 O 0.66875 0.95655 0.96046 0.0
O47 O 0.58583 0.92046 0.96845 0.0
O48 O 0.58966 0.94041 0.94023 0.0
C49 C 0.63097 0.90331 0.91353 0.0
O50 O 0.60597 0.87661 0.95783 0.0
O51 O 0.63259 0.91134 0.9783 0.0
In52 In 0.0688 0.6886 0.94333 0.0
O53 O 0.11687 0.71825 0.95346 0.0
O54 O 0.08272 0.7221 0.96848 0.0
C55 C 0.06278 0.6346 0.95098 0.0
C56 C 0.08683 0.71878 0.90864 0.0
C57 C 0.01302 0.67602 0.95184 0.0
O58 O 0.07814 0.65727 0.96155 0.0
O59 O 0.05177 0.63943 0.93565 0.0
O60 O 0.02035 0.67192 0.93471 0.0
O61 O 0.0338 0.68642 0.96452 0.0
C62 C 0.11019 0.73089 0.96695 0.0
O63 O 0.06899 0.72076 0.92041 0.0
O64 O 0.09506 0.7006 0.91396 0.0
In65 In 0.29911 0.36519 0.93748 0.0
O66 O 0.27478 0.34043 0.90941 0.0
O67 O 0.28487 0.38523 0.9121 0.0
C68 C 0.30516 0.32018 0.95194 0.0
C69 C 0.25856 0.36427 0.96301 0.0
C70 C 0.35736 0.40765 0.93892 0.0
O71 O 0.30207 0.32318 0.93359 0.0
O72 O 0.30512 0.33988 0.96299 0.0
O73 O 0.33699 0.41142 0.94608 0.0
O74 O 0.34819 0.38335 0.92979 0.0
C75 C 0.27234 0.36147 0.90209 0.0
O76 O 0.28307 0.38764 0.95961 0.0
O77 O 0.25459 0.34157 0.95353 0.0
In78 In 0.03208 0.4028 0.38411 0.0
O79 O 0.002 0.40134 0.40914 0.0
O80 O 0.04868 0.42836 0.41357 0.0
C81 C 0.98844 0.34654 0.37754 0.0
C82 C 0.03309 0.44702 0.36267 0.0
C83 C 0.07809 0.3966 0.37139 0.0
O84 O 0.00859 0.35289 0.39037 0.0
O85 O 0.9901 0.36861 0.36839 0.0
O86 O 0.06428 0.4053 0.36036 0.0
O87 O 0.0696 0.39218 0.38931 0.0
C88 C 0.02277 0.41948 0.42025 0.0
O89 O 0.05311 0.45161 0.37522 0.0
O90 O 0.01289 0.42011 0.36078 0.0
In91 In 0.60024 0.63058 0.38897 0.0
O92 O 0.55256 0.60067 0.37835 0.0
O93 O 0.58752 0.59999 0.3621 0.0
C94 C 0.60617 0.68265 0.37618 0.0
C95 C 0.57919 0.60266 0.42416 0.0
C96 C 0.65752 0.64406 0.38723 0.0
O97 O 0.60057 0.66116 0.36481 0.0
O98 O 0.6078 0.67767 0.39443 0.0
O99 O 0.64944 0.65979 0.39681 0.0
O100 O 0.63665 0.62133 0.37892 0.0
C101 C 0.55986 0.59002 0.36393 0.0
O102 O 0.59743 0.59938 0.41361 0.0
O103 O 0.57217 0.62108 0.41735 0.0
In104 In 0.35793 0.96159 0.38623 0.0
O105 O 0.38241 0.93944 0.37292 0.0
O106 O 0.39722 0.98457 0.3651 0.0
C107 C 0.30685 0.92141 0.36838 0.0
C108 C 0.38003 0.96183 0.42275 0.0
C109 C 0.34711 0.0071 0.38534 0.0
O110 O 0.33002 0.93944 0.35903 0.0
O111 O 0.30948 0.9228 0.38714 0.0
O112 O 0.32993 0.98282 0.39406 0.0
O113 O 0.36994 0.0085 0.37749 0.0
C114 C 0.40051 0.96216 0.36311 0.0
O115 O 0.38412 0.98499 0.41392 0.0
O116 O 0.3635 0.93784 0.41354 0.0
In117 In 0.28901 0.26303 0.27541 0.0
O118 O 0.31412 0.26241 0.24795 0.0
O119 O 0.26844 0.22924 0.24985 0.0
C120 C 0.33356 0.31854 0.2832 0.0
C121 C 0.29291 0.22325 0.299 0.0
C122 C 0.24355 0.27236 0.28444 0.0
O123 O 0.32019 0.31158 0.26665 0.0
O124 O 0.32442 0.29755 0.29564 0.0
O125 O 0.25414 0.26139 0.29643 0.0
O126 O 0.25501 0.27756 0.26727 0.0
C127 C 0.29261 0.23959 0.24031 0.0
O128 O 0.26816 0.2199 0.29331 0.0
O129 O 0.31554 0.24654 0.29273 0.0
In130 In 0.72832 0.0238 0.27538 0.0
O131 O 0.72773 0.05101 0.24909 0.0
O132 O 0.75752 0.03418 0.24747 0.0
C133 C 0.67196 0.01168 0.2806 0.0
C134 C 0.77047 0.06711 0.29805 0.0
C135 C 0.72067 0.97125 0.28864 0.0
O136 O 0.67873 -0.00159 0.26762 0.0
O137 O 0.69363 0.03114 0.29058 0.0
O138 O 0.72796 0.99344 0.29972 0.0
O139 O 0.71824 0.97573 0.27042 0.0
C140 C 0.74796 0.04984 0.23946 0.0
O141 O 0.77565 0.04987 0.28769 0.0
O142 O 0.74408 0.0623 0.29702 0.0
In143 In 0.96872 0.71397 0.27049 0.0
O144 O 0.94652 0.7338 0.2896 0.0
O145 O 0.92851 0.68681 0.29024 0.0
C146 C 0.02363 0.76251 0.27268 0.0
C147 C 0.93762 0.70375 0.23619 0.0
C148 C 0.98578 0.67543 0.28285 0.0
O149 O 0.0021 0.75917 0.28328 0.0
O150 O 0.01697 0.74229 0.25989 0.0
O151 O 0.98308 0.67962 0.26463 0.0
O152 O 0.97972 0.69054 0.2947 0.0
C153 C 0.92702 0.70896 0.29655 0.0
O154 O 0.93925 0.68371 0.24573 0.0
O155 O 0.95278 0.72957 0.24347 0.0
In156 In 0.71078 0.73775 0.72442 0.0
O157 O 0.72526 0.78549 0.71537 0.0
O158 O 0.69458 0.75018 0.69666 0.0
C159 C 0.76002 0.73537 0.71425 0.0
C160 C 0.69883 0.75508 0.75948 0.0
C161 C 0.6688 0.68043 0.71873 0.0
O162 O 0.74718 0.74458 0.70275 0.0
O163 O 0.74898 0.72869 0.7315 0.0
O164 O 0.69018 0.68796 0.73072 0.0
O165 O 0.66837 0.70182 0.71006 0.0
C166 C 0.70937 0.7779 0.69983 0.0
O167 O 0.67891 0.73643 0.74809 0.0
O168 O 0.72522 0.76438 0.7536 0.0
In169 In 0.25442 0.97302 0.72585 0.0
O170 O 0.25721 0.94881 0.7532 0.0
O171 O 0.2218 0.95824 0.75214 0.0
C172 C 0.31033 0.99001 0.71421 0.0
C173 C 0.21807 0.92654 0.70266 0.0
C174 C 0.25869 0.02648 0.71982 0.0
O175 O 0.30346 0.98902 0.73234 0.0
O176 O 0.28904 0.98234 0.70215 0.0
O177 O 0.24367 0.00423 0.70877 0.0
O178 O 0.27003 0.02127 0.73485 0.0
C179 C 0.23405 0.94597 0.76138 0.0
O180 O 0.21166 0.94607 0.70792 0.0
O181 O 0.24269 0.93054 0.70909 0.0
In182 In 0.01829 0.28366 0.72128 0.0
O183 O 0.04283 0.31129 0.74841 0.0
O184 O 0.03026 0.26556 0.74884 0.0
C185 C 0.00396 0.32578 0.71337 0.0
C186 C 0.06409 0.28888 0.69947 0.0
C187 C 0.96618 0.23685 0.70905 0.0
O188 O 0.99315 0.30844 0.7281 0.0
O189 O 0.02211 0.32202 0.703 0.0
O190 O 0.98895 0.24968 0.69816 0.0
O191 O 0.96999 0.24661 0.72666 0.0
C192 C 0.0437 0.2905 0.75752 0.0
O193 O 0.04594 0.26479 0.70802 0.0
O194 O 0.0589 0.31003 0.70186 0.0
In195 In 0.96058 0.59544 0.60908 0.0
O196 O 0.93582 0.54817 0.62154 0.0
O197 O 0.98073 0.5768 0.63069 0.0
C198 C 0.9189 0.60729 0.62322 0.0
C199 C 0.96414 0.57568 0.57248 0.0
C200 C 0.00757 0.65028 0.61444 0.0
O201 O 0.93289 0.59849 0.63401 0.0
O202 O 0.92506 0.60913 0.60489 0.0
O203 O 0.98545 0.64563 0.60388 0.0
O204 O 0.00614 0.62723 0.62189 0.0
C205 C 0.95765 0.55141 0.63186 0.0
O206 O 0.9864 0.59509 0.58191 0.0
O207 O 0.93948 0.56696 0.58108 0.0
In208 In 0.40289 0.36713 0.61607 0.0
O209 O 0.40524 0.39814 0.59144 0.0
O210 O 0.42888 0.37497 0.58685 0.0
C211 C 0.34732 0.35712 0.62201 0.0
C212 C 0.44733 0.40721 0.63903 0.0
C213 C 0.39235 0.31318 0.62845 0.0
O214 O 0.35324 0.3434 0.60889 0.0
O215 O 0.36953 0.37625 0.63177 0.0
O216 O 0.40267 0.33573 0.63957 0.0
O217 O 0.3885 0.31799 0.61055 0.0
C218 C 0.42226 0.39381 0.58032 0.0
O219 O 0.45088 0.39029 0.62718 0.0
O220 O 0.42142 0.40381 0.63924 0.0
In221 In 0.62369 0.02812 0.60977 0.0
O222 O 0.59729 0.05019 0.61964 0.0
O223 O 0.5879 0.00942 0.63356 0.0
C224 C 0.67757 0.07458 0.61965 0.0
C225 C 0.59434 0.01687 0.57476 0.0
C226 C 0.63616 0.98459 0.61728 0.0
O227 O 0.65555 0.06346 0.63124 0.0
O228 O 0.67216 0.06328 0.60243 0.0
O229 O 0.64518 0.00038 0.60174 0.0
O230 O 0.62055 0.99054 0.62876 0.0
C231 C 0.58193 0.0302 0.63223 0.0
O232 O 0.59199 0.99669 0.58635 0.0
O233 O 0.61262 0.04309 0.58038 0.0
H234 H 0.43679 0.02231 0.06682 0.0
H235 H 0.46619 0.00352 0.05026 0.0
H236 H 0.48214 0.06287 0.00087 0.0
H237 H 0.4525 0.08151 0.01721 0.0
H238 H 0.45769 0.00364 0.9897 0.0
H239 H 0.55508 0.03765 0.0394 0.0
H240 H 0.51984 0.01896 0.05206 0.0
H241 H 0.5319 0.05455 0.04057 0.0
C242 C 0.44726 0.03195 0.0527 0.0
C243 C 0.4423 0.05331 0.04328 0.0
C244 C 0.46408 0.02122 0.04326 0.0
C245 C 0.47642 0.03189 0.02437 0.0
C246 C 0.4728 0.05436 0.01544 0.0
H247 H 0.56436 0.97357 0.93927 0.0
H248 H 0.53826 -0.00285 0.95447 0.0
C249 C 0.45597 0.06506 0.02484 0.0
C250 C 0.49046 0.01758 0.0131 0.0
H251 H 0.54626 0.00078 0.01494 0.0
C252 C 0.47724 0.00324 0.99509 0.0
C253 C 0.51587 0.01705 0.02023 0.0
C254 C 0.5317 0.03311 0.03903 0.0
C255 C 0.48826 0.98761 0.98429 0.0
C256 C 0.51338 0.98669 0.99159 0.0
C257 C 0.52687 0.00141 0.00944 0.0
C258 C 0.52592 0.97023 0.9812 0.0
C259 C 0.47243 0.97149 0.96551 0.0
C260 C 0.52721 0.94704 0.99106 0.0
C261 C 0.5421 0.93365 0.98246 0.0
C262 C 0.55609 0.94329 0.96386 0.0
C263 C 0.55352 0.9655 0.95352 0.0
C264 C 0.53865 0.97899 0.9622 0.0
H265 H 0.4497 0.96858 0.96446 0.0
H266 H 0.48543 0.98463 0.95242 0.0
H267 H 0.4706 0.94922 0.96471 0.0
H268 H 0.51747 0.93994 0.00571 0.0
H269 H 0.54373 0.9166 0.99078 0.0
H270 H 0.91699 0.36437 0.01341 0.0
H271 H 0.93753 0.41276 0.99691 0.0
H272 H -0.00028 0.45417 0.04527 0.0
H273 H 0.97895 0.4058 0.06206 0.0
H274 H 0.97493 0.48835 0.03046 0.0
H275 H 0.01956 0.44891 0.96978 0.0
H276 H 0.98011 0.42614 0.97383 0.0
H277 H 0.00575 0.42887 0.99289 0.0
C278 C 0.93465 0.38388 0.02073 0.0
C279 C 0.94657 0.38131 0.03893 0.0
C280 C 0.94651 0.41143 0.0112 0.0
C281 C 0.97065 0.4368 0.01962 0.0
C282 C 0.98126 0.43473 0.03845 0.0
H283 H 0.08484 0.61996 0.98309 0.0
H284 H 0.06353 0.57113 0.99904 0.0
C285 C 0.9693 0.40714 0.04806 0.0
C286 C 0.98569 0.46514 0.00838 0.0
H287 H 0.02475 0.49674 0.96572 0.0
C288 C 0.9859 0.49025 0.01634 0.0
C289 C 4e-05 0.46747 0.98998 0.0
C290 C 0.00166 0.44151 0.98116 0.0
C291 C -0.00033 0.5176 0.00621 0.0
C292 C 0.01399 0.51991 0.98782 0.0
C293 C 0.01373 0.49481 0.97982 0.0
C294 C 0.02933 0.54836 0.97674 0.0
C295 C -0.00165 0.54369 0.01509 0.0
C296 C 0.01819 0.55125 0.95834 0.0
C297 C 0.03049 0.57911 0.94907 0.0
C298 C 0.05411 0.60438 0.95811 0.0
C299 C 0.06653 0.60092 0.97583 0.0
C300 C 0.05426 0.57311 0.98505 0.0
H301 H 0.98085 0.5365 0.02673 0.0
H302 H 0.02017 0.55919 0.02205 0.0
H303 H 0.99389 0.55614 0.00341 0.0
H304 H -0.00091 0.53226 0.95164 0.0
H305 H 0.02045 0.58114 0.93545 0.0
H306 H 0.4019 0.39429 0.93721 0.0
H307 H 0.45121 0.42208 0.95253 0.0
H308 H 0.43388 0.49296 0.96777 0.0
H309 H 0.38389 0.46452 0.95331 0.0
H310 H 0.49959 0.4733 0.94759 0.0
H311 H 0.45301 0.47409 0.02147 0.0
H312 H 0.42981 0.45273 0.00088 0.0
H313 H 0.44217 0.49191 0.00308 0.0
C314 C 0.40878 0.41602 0.94355 0.0
C315 C 0.389 0.42716 0.94424 0.0
C316 C 0.43693 0.43182 0.95239 0.0
C317 C 0.44589 0.45917 0.96189 0.0
C318 C 0.42702 0.47139 0.9612 0.0
H319 H 0.62323 0.59121 0.99469 0.0
H320 H 0.57613 0.55792 0.97843 0.0
C321 C 0.39864 0.45533 0.9527 0.0
C322 C 0.47464 0.47451 0.97287 0.0
H323 H 0.50559 0.50636 0.01757 0.0
C324 C 0.50085 0.48031 0.96294 0.0
C325 C 0.47626 0.48283 0.99312 0.0
C326 C 0.44876 0.47476 0.00532 0.0
C327 C 0.52872 0.49523 0.97243 0.0
C328 C 0.53058 0.50563 0.99217 0.0
C329 C 0.50426 0.49878 0.00236 0.0
C330 C 0.55962 0.52514 0.00209 0.0
C331 C 0.5558 0.49939 0.96122 0.0
C332 C 0.5657 0.51845 0.02122 0.0
C333 C 0.59256 0.53795 0.03084 0.0
C334 C 0.61373 0.56432 0.02139 0.0
C335 C 0.60755 0.57085 0.00227 0.0
C336 C 0.58068 0.55168 0.99284 0.0
H337 H 0.54964 0.48133 0.95011 0.0
H338 H 0.56584 0.52082 0.95298 0.0
H339 H 0.57286 0.49974 0.97141 0.0
H340 H 0.54961 0.49822 0.02874 0.0
H341 H 0.59673 0.53245 0.04561 0.0
H342 H 0.10166 0.40778 0.3341 0.0
H343 H 0.13013 0.38716 0.31856 0.0
H344 H 0.1306 0.34571 0.37412 0.0
H345 H 0.10195 0.36621 0.38983 0.0
H346 H 0.18637 0.39103 0.32915 0.0
H347 H 0.0891 0.27596 0.33312 0.0
H348 H 0.08563 0.30871 0.33637 0.0
H349 H 0.09987 0.29615 0.35623 0.0
C350 C 0.10823 0.39467 0.34311 0.0
C351 C 0.09942 0.3884 0.36314 0.0
C352 C 0.12445 0.3829 0.3342 0.0
C353 C 0.13192 0.36452 0.34512 0.0
C354 C 0.12458 0.3595 0.3654 0.0
H355 H 0.21535 0.26107 0.32011 0.0
H356 H 0.18683 0.28306 0.33335 0.0
C357 C 0.10844 0.3714 0.37437 0.0
C358 C 0.1462 0.34954 0.33501 0.0
H359 H 0.1344 0.28106 0.32118 0.0
C360 C 0.17505 0.36701 0.32731 0.0
C361 C 0.13115 0.31824 0.33256 0.0
C362 C 0.09962 0.29858 0.33984 0.0
C363 C 0.18969 0.35387 0.31771 0.0
C364 C 0.17472 0.3225 0.31541 0.0
C365 C 0.14572 0.30509 0.3229 0.0
C366 C 0.18953 0.30719 0.30642 0.0
C367 C 0.22136 0.37355 0.31071 0.0
C368 C 0.19953 0.31261 0.28661 0.0
C369 C 0.21589 0.30001 0.27897 0.0
C370 C 0.22233 0.28178 0.29103 0.0
C371 C 0.21085 0.27514 0.31048 0.0
C372 C 0.19456 0.28769 0.31808 0.0
H373 H 0.23175 0.39615 0.31747 0.0
H374 H 0.23532 0.36345 0.31438 0.0
H375 H 0.22147 0.3761 0.29431 0.0
H376 H 0.1953 0.32712 0.27725 0.0
H377 H 0.22443 0.30546 0.26392 0.0
H378 H 0.62919 0.73565 0.39627 0.0
H379 H 0.64748 0.7853 0.38173 0.0
H380 H 0.61911 0.74567 0.32361 0.0
H381 H 0.60061 0.69624 0.33796 0.0
H382 H 0.69212 0.80998 0.3522 0.0
H383 H 0.58751 0.80396 0.32616 0.0
H384 H 0.58785 0.77839 0.34429 0.0
H385 H 0.59172 0.77316 0.31824 0.0
C386 C 0.62629 0.73753 0.38047 0.0
C387 C 0.61345 0.71211 0.36825 0.0
C388 C 0.63684 0.76586 0.37219 0.0
C389 C 0.63439 0.76909 0.35163 0.0
C390 C 0.62072 0.74364 0.33954 0.0
H391 H 0.69614 0.91767 0.26913 0.0
H392 H 0.67715 0.86822 0.28416 0.0
C393 C 0.61028 0.71541 0.34777 0.0
C394 C 0.64815 0.79907 0.34248 0.0
H395 H 0.63295 0.84424 0.31379 0.0
C396 C 0.67919 0.81762 0.34394 0.0
C397 C 0.63122 0.80876 0.33155 0.0
C398 C 0.59769 0.79016 0.33008 0.0
C399 C 0.69386 0.84547 0.33445 0.0
C400 C 0.67693 0.85515 0.32349 0.0
C401 C 0.64588 0.83662 0.32207 0.0
C402 C 0.69078 0.88497 0.3141 0.0
C403 C 0.7274 0.86401 0.33589 0.0
C404 C 0.70494 0.91066 0.32594 0.0
C405 C 0.71583 0.93879 0.31743 0.0
C406 C 0.71259 0.94175 0.29691 0.0
C407 C 0.69911 0.91605 0.28495 0.0
C408 C 0.68816 0.88784 0.29352 0.0
H409 H 0.73755 0.85019 0.33986 0.0
H410 H 0.73723 0.87568 0.32164 0.0
H411 H 0.73344 0.88109 0.34768 0.0
H412 H 0.70669 0.90892 0.34189 0.0
H413 H 0.72596 0.95816 0.32705 0.0
H414 H 0.07452 0.76556 0.25849 0.0
H415 H 0.12463 0.79445 0.27277 0.0
H416 H 0.09301 0.83721 0.31319 0.0
H417 H 0.0429 0.8085 0.29901 0.0
H418 H 0.15229 0.87553 0.29602 0.0
H419 H 0.13716 0.77115 0.33051 0.0
H420 H 0.13124 0.76998 0.30407 0.0
H421 H 0.10641 0.77427 0.32059 0.0
C422 C 0.07842 0.7817 0.27005 0.0
C423 C 0.05476 0.78462 0.27776 0.0
C424 C 0.10697 0.79798 0.27829 0.0
C425 C 0.11224 0.81744 0.29427 0.0
C426 C 0.08925 0.8221 0.30094 0.0
H427 H 0.25125 0.88639 0.38451 0.0
H428 H 0.20367 0.86029 0.36642 0.0
C429 C 0.06068 0.80575 0.2928 0.0
C430 C 0.14099 0.83125 0.30505 0.0
H431 H 0.18361 0.81488 0.33562 0.0
C432 C 0.15925 0.86233 0.30462 0.0
C433 C 0.14958 0.81389 0.31654 0.0
C434 C 0.13004 0.78048 0.31817 0.0
C435 C 0.18625 0.87655 0.31519 0.0
C436 C 0.19519 0.85913 0.32631 0.0
C437 C 0.17671 0.82808 0.32697 0.0
C438 C 0.22383 0.87287 0.33722 0.0
C439 C 0.2048 0.91014 0.31464 0.0
C440 C 0.25078 0.88762 0.32674 0.0
C441 C 0.27781 0.90236 0.33697 0.0
C442 C 0.2784 0.90253 0.3579 0.0
C443 C 0.25145 0.88661 0.36839 0.0
C444 C 0.22432 0.8718 0.3581 0.0
H445 H 0.19168 0.92045 0.30937 0.0
H446 H 0.21403 0.9192 0.32959 0.0
H447 H 0.2238 0.91682 0.30428 0.0
H448 H 0.25086 0.88818 0.31062 0.0
H449 H 0.29823 0.91428 0.32845 0.0
H450 H 0.89981 0.60105 0.66151 0.0
H451 H 0.87319 0.62355 0.67713 0.0
H452 H 0.86913 0.66095 0.62063 0.0
H453 H 0.89532 0.63797 0.60479 0.0
H454 H 0.89311 0.68355 0.67935 0.0
H455 H 0.78381 0.62454 0.64062 0.0
H456 H 0.81028 0.61152 0.63992 0.0
H457 H 0.81524 0.64169 0.62411 0.0
C458 C 0.89277 0.61362 0.65233 0.0
C459 C 0.89954 0.6177 0.63191 0.0
C460 C 0.87768 0.62654 0.6613 0.0
C461 C 0.86903 0.64375 0.65003 0.0
C462 C 0.87512 0.64729 0.62953 0.0
H463 H 0.78658 0.74869 0.67791 0.0
H464 H 0.81623 0.72892 0.66314 0.0
C465 C 0.89011 0.6342 0.6205 0.0
C466 C 0.85519 0.65932 0.66003 0.0
H467 H 0.79301 0.66619 0.6605 0.0
C468 C 0.87116 0.67968 0.6753 0.0
C469 C 0.82658 0.65419 0.65471 0.0
C470 C 0.80782 0.6316 0.63907 0.0
C471 C 0.85943 0.6954 0.68521 0.0
C472 C 0.83094 0.6904 0.67978 0.0
C473 C 0.81496 0.67006 0.66453 0.0
C474 C 0.81694 0.70578 0.68975 0.0
C475 C 0.87775 0.71759 0.70114 0.0
C476 C 0.80825 0.69996 0.70979 0.0
C477 C 0.79132 0.7113 0.71832 0.0
C478 C 0.78272 0.72845 0.70686 0.0
C479 C 0.79285 0.73553 0.68712 0.0
C480 C 0.80971 0.72419 0.67863 0.0
H481 H 0.90158 0.72366 0.70049 0.0
H482 H 0.87633 0.73822 0.69974 0.0
H483 H 0.86888 0.70772 0.71598 0.0
H484 H 0.81331 0.68546 0.71854 0.0
H485 H 0.78364 0.70532 0.73351 0.0
H486 H 0.35604 0.2594 0.61063 0.0
H487 H 0.33238 0.21017 0.62659 0.0
H488 H 0.38073 0.25014 0.68074 0.0
H489 H 0.40439 0.29926 0.66497 0.0
H490 H 0.37773 0.19425 0.66814 0.0
H491 H 0.26766 0.18881 0.67134 0.0
H492 H 0.28578 0.19689 0.64747 0.0
H493 H 0.30218 0.22331 0.66738 0.0
C494 C 0.36203 0.25757 0.6258 0.0
C495 C 0.38192 0.28312 0.63661 0.0
C496 C 0.34833 0.22954 0.63493 0.0
C497 C 0.35449 0.22674 0.65491 0.0
C498 C 0.37558 0.25196 0.66535 0.0
H499 H 0.29692 0.07915 0.73822 0.0
H500 H 0.31878 0.12913 0.72368 0.0
C501 C 0.38909 0.27995 0.6563 0.0
C502 C 0.33823 0.19777 0.66528 0.0
H503 H 0.26966 0.147 0.68336 0.0
C504 C 0.35412 0.18387 0.67151 0.0
C505 C 0.30748 0.18451 0.66966 0.0
C506 C 0.28968 0.19914 0.66378 0.0
C507 C 0.3399 0.15658 0.68171 0.0
C508 C 0.30914 0.14337 0.68624 0.0
C509 C 0.29327 0.15734 0.68 0.0
C510 C 0.29283 0.11426 0.69654 0.0
C511 C 0.35776 0.14177 0.68703 0.0
C512 C 0.26963 0.08977 0.68668 0.0
C513 C 0.25683 0.06134 0.69506 0.0
C514 C 0.26706 0.05695 0.71344 0.0
C515 C 0.2887 0.08185 0.72399 0.0
C516 C 0.30141 0.11034 0.71562 0.0
H517 H 0.37876 0.15102 0.67831 0.0
H518 H 0.36379 0.14555 0.70304 0.0
H519 H 0.34458 0.11735 0.68442 0.0
H520 H 0.26248 0.09238 0.67203 0.0
H521 H 0.24011 0.0426 0.68659 0.0
H522 H 0.73073 0.09311 0.60056 0.0
H523 H 0.78075 0.12084 0.61531 0.0
H524 H 0.74271 0.13093 0.66979 0.0
H525 H 0.69283 0.10318 0.65529 0.0
H526 H 0.81315 0.17903 0.63403 0.0
H527 H 0.78704 0.08611 0.68642 0.0
H528 H 0.76452 0.0817 0.66476 0.0
H529 H 0.76096 0.09942 0.68675 0.0
C530 C 0.73312 0.10175 0.61554 0.0
C531 C 0.70789 0.09577 0.62684 0.0
C532 C 0.76164 0.11745 0.62396 0.0
C533 C 0.76523 0.12725 0.64377 0.0
C534 C 0.74027 0.12294 0.65462 0.0
H535 H 0.91165 0.21503 0.72679 0.0
H536 H 0.86274 0.18683 0.71068 0.0
C537 C 0.71184 0.10727 0.64626 0.0
C538 C 0.79484 0.14093 0.65346 0.0
H539 H 0.83293 0.13092 0.69139 0.0
C540 C 0.8176 0.16849 0.64649 0.0
C541 C 0.80044 0.12701 0.66971 0.0
C542 C 0.77707 0.0968 0.67729 0.0
C543 C 0.84571 0.18296 0.6557 0.0
C544 C 0.85128 0.1691 0.67202 0.0
C545 C 0.82855 0.14143 0.67889 0.0
C546 C 0.88048 0.18329 0.6823 0.0
C547 C 0.86893 0.21331 0.64823 0.0
C548 C 0.90642 0.18942 0.67193 0.0
C549 C 0.93429 0.20547 0.68106 0.0
C550 C 0.93664 0.21543 0.7008 0.0
C551 C 0.91049 0.20761 0.71158 0.0
C552 C 0.88259 0.19163 0.70238 0.0
H553 H 0.85886 0.22389 0.63908 0.0
H554 H 0.88127 0.22841 0.66081 0.0
H555 H 0.88523 0.21096 0.6388 0.0
H556 H 0.90518 0.18252 0.65657 0.0
H557 H 0.95406 0.211 0.67242 0.0
H558 H 0.30992 0.05728 0.11717 0.0
H559 H 0.29674 0.08269 0.14243 0.0
H560 H 0.3862 0.15795 0.14043 0.0
H561 H 0.39973 0.13245 0.11533 0.0
H562 H 0.36229 0.14269 0.17909 0.0
H563 H 0.284 0.15215 0.12699 0.0
H564 H 0.27675 0.11479 0.13088 0.0
H565 H 0.31069 0.14164 0.11886 0.0
C566 C 0.32694 0.07904 0.12235 0.0
C567 C 0.3558 0.093 0.11417 0.0
C568 C 0.31929 0.09361 0.13665 0.0
C569 C 0.34028 0.12248 0.14288 0.0
C570 C 0.36961 0.13576 0.13565 0.0
H571 H 0.34248 0.2589 0.21771 0.0
H572 H 0.35282 0.2301 0.19346 0.0
C573 C 0.37733 0.12114 0.12138 0.0
C574 C 0.3314 0.13928 0.15638 0.0
H575 H 0.28563 0.16899 0.15996 0.0
C576 C 0.34556 0.14847 0.17492 0.0
C577 C 0.30955 0.14678 0.15085 0.0
C578 C 0.29451 0.13859 0.13075 0.0
C579 C 0.33828 0.16477 0.18819 0.0
C580 C 0.31661 0.17244 0.18259 0.0
C581 C 0.30221 0.16302 0.16415 0.0
C582 C 0.30912 0.19078 0.19563 0.0
C583 C 0.35358 0.17336 0.20819 0.0
C584 C 0.2806 0.17868 0.20408 0.0
C585 C 0.27452 0.19518 0.21787 0.0
C586 C 0.29688 0.22404 0.22331 0.0
C587 C 0.32485 0.23666 0.21391 0.0
C588 C 0.33088 0.22018 0.20016 0.0
H589 H 0.36397 0.15975 0.2121 0.0
H590 H 0.37145 0.19712 0.20779 0.0
H591 H 0.33758 0.17076 0.2201 0.0
H592 H 0.26345 0.15607 0.20059 0.0
H593 H 0.25279 0.18489 0.2249 0.0
H594 H 0.9284 0.23747 0.11208 0.0
H595 H 0.89994 0.19962 0.13716 0.0
H596 H 0.83057 0.22253 0.13457 0.0
H597 H 0.85911 0.26078 0.10948 0.0
H598 H 0.84577 0.21282 0.17389 0.0
H599 H 0.82425 0.12054 0.12212 0.0
H600 H 0.8629 0.14829 0.12494 0.0
H601 H 0.83756 0.15825 0.11373 0.0
C602 C 0.90727 0.23476 0.11702 0.0
C603 C 0.89586 0.25194 0.10872 0.0
C604 C 0.89096 0.21297 0.13125 0.0
C605 C 0.86288 0.20785 0.13734 0.0
C606 C 0.8521 0.22601 0.12988 0.0
H607 H 0.72899 0.08288 0.21931 0.0
H608 H 0.75593 0.1202 0.19359 0.0
C609 C 0.86845 0.24789 0.11563 0.0
C610 C 0.84454 0.18304 0.15112 0.0
H611 H 0.80963 0.10725 0.15574 0.0
C612 C 0.8377 0.18973 0.16992 0.0
C613 C 0.83412 0.15295 0.14583 0.0
C614 C 0.83981 0.14444 0.1255 0.0
C615 C 0.82124 0.16712 0.1838 0.0
C616 C 0.81089 0.13702 0.17853 0.0
C617 C 0.81763 0.13034 0.1597 0.0
C618 C 0.79315 0.11225 0.1925 0.0
C619 C 0.8157 0.17569 0.20416 0.0
C620 C 0.80442 0.09433 0.1996 0.0
C621 C 0.78891 0.07271 0.21417 0.0
C622 C 0.76188 0.06873 0.2218 0.0
C623 C 0.74988 0.08558 0.21382 0.0
C624 C 0.76533 0.10707 0.19924 0.0
H625 H 0.83121 0.19962 0.20747 0.0
H626 H 0.79259 0.17174 0.20482 0.0
H627 H 0.81816 0.16199 0.21592 0.0
H628 H 0.82576 0.09784 0.19442 0.0
H629 H 0.7987 0.06008 0.22006 0.0
H630 H 0.92495 0.74168 0.21556 0.0
H631 H 0.88644 0.72825 0.18997 0.0
H632 H 0.86527 0.63653 0.19305 0.0
H633 H 0.9034 0.64966 0.21866 0.0
H634 H 0.87891 0.69974 0.15234 0.0
H635 H 0.78465 0.63211 0.20367 0.0
H636 H 0.82183 0.65785 0.21244 0.0
H637 H 0.81315 0.62198 0.20292 0.0
C638 C 0.91228 0.71873 0.21062 0.0
C639 C 0.91705 0.6967 0.21918 0.0
C640 C 0.89026 0.71107 0.19608 0.0
C641 C 0.87263 0.6813 0.18996 0.0
C642 C 0.87819 0.65951 0.1979 0.0
H643 H 0.72645 0.59363 0.10471 0.0
H644 H 0.76316 0.60399 0.1312 0.0
C645 C 0.90015 0.66712 0.21242 0.0
C646 C 0.8483 0.67295 0.17535 0.0
H647 H 0.77266 0.63144 0.16956 0.0
C648 C 0.85568 0.68488 0.1561 0.0
C649 C 0.81803 0.65342 0.18032 0.0
C650 C 0.80879 0.64074 0.201 0.0
C651 C 0.8336 0.6776 0.14158 0.0
C652 C 0.80329 0.65835 0.14661 0.0
C653 C 0.79591 0.64618 0.1658 0.0
C654 C 0.77901 0.65137 0.13218 0.0
C655 C 0.84295 0.69023 0.12089 0.0
C656 C 0.77498 0.67434 0.12465 0.0
C657 C 0.7542 0.66853 0.10961 0.0
C658 C 0.73682 0.63954 0.10195 0.0
C659 C 0.73953 0.61616 0.11036 0.0
C660 C 0.76053 0.62206 0.12541 0.0
H661 H 0.86682 0.69771 0.11805 0.0
H662 H 0.82917 0.67353 0.10942 0.0
H663 H 0.83987 0.70984 0.11921 0.0
H664 H 0.78851 0.69697 0.13003 0.0
H665 H 0.75241 0.68696 0.10355 0.0
H666 H 0.5898 0.85764 0.89031 0.0
H667 H 0.59999 0.83079 0.86416 0.0
H668 H 0.69449 0.89039 0.87153 0.0
H669 H 0.68459 0.91703 0.89766 0.0
H670 H 0.6331 0.85127 0.82781 0.0
H671 H 0.68413 0.80694 0.88047 0.0
H672 H 0.66191 0.82291 0.88865 0.0
H673 H 0.70013 0.84671 0.88142 0.0
C674 C 0.6127 0.86518 0.88618 0.0
C675 C 0.6364 0.88926 0.89612 0.0
C676 C 0.61849 0.8498 0.87131 0.0
C677 C 0.648 0.85824 0.86627 0.0
C678 C 0.67158 0.88312 0.87554 0.0
H679 H 0.73721 0.80026 0.78407 0.0
H680 H 0.72397 0.8242 0.81052 0.0
C681 C 0.66586 0.89843 0.89037 0.0
C682 C 0.65438 0.84092 0.85154 0.0
H683 H 0.6895 0.80039 0.846 0.0
C684 C 0.64521 0.83993 0.83178 0.0
C685 C 0.67021 0.82619 0.85682 0.0
C686 C 0.67946 0.82544 0.87803 0.0
C687 C 0.6522 0.82526 0.81699 0.0
C688 C 0.66833 0.81082 0.82224 0.0
C689 C 0.67723 0.81156 0.84204 0.0
C690 C 0.67633 0.79501 0.8073 0.0
C691 C 0.643 0.82603 0.79578 0.0
C692 C 0.65396 0.7701 0.79727 0.0
C693 C 0.66143 0.7564 0.78224 0.0
C694 C 0.69145 0.76728 0.77706 0.0
C695 C 0.71391 0.7914 0.78774 0.0
C696 C 0.70638 0.80512 0.8028 0.0
H697 H 0.63719 0.84377 0.79348 0.0
H698 H 0.66109 0.82977 0.78526 0.0
H699 H 0.62308 0.80429 0.79209 0.0
H700 H 0.63067 0.76157 0.80083 0.0
H701 H 0.64363 0.73774 0.77434 0.0
H702 H 0.06675 0.75345 0.89225 0.0
H703 H 0.09072 0.79127 0.86639 0.0
H704 H 0.15984 0.76832 0.86072 0.0
H705 H 0.13547 0.72982 0.88628 0.0
H706 H 0.14566 0.83977 0.8689 0.0
H707 H 0.1399 0.77249 0.80309 0.0
H708 H 0.11811 0.75599 0.82525 0.0
H709 H 0.15673 0.76589 0.82438 0.0
C710 C 0.08674 0.75605 0.88521 0.0
C711 C 0.09923 0.73866 0.89123 0.0
C712 C 0.10045 0.77774 0.87049 0.0
C713 C 0.12694 0.78251 0.86152 0.0
C714 C 0.13907 0.76462 0.86713 0.0
H715 H 0.25557 0.91538 0.78183 0.0
H716 H 0.22977 0.87715 0.80723 0.0
C717 C 0.12518 0.74269 0.88177 0.0
C718 C 0.14289 0.80761 0.84739 0.0
H719 H 0.17166 0.82511 0.80042 0.0
C720 C 0.15115 0.83654 0.85388 0.0
C721 C 0.15005 0.80335 0.8278 0.0
C722 C 0.1405 0.77273 0.81962 0.0
C723 C 0.16685 0.86137 0.84143 0.0
C724 C 0.17429 0.85711 0.82197 0.0
C725 C 0.16598 0.82824 0.81543 0.0
C726 C 0.19084 0.88231 0.80809 0.0
C727 C 0.1759 0.89204 0.84927 0.0
C728 C 0.17764 0.89821 0.80045 0.0
C729 C 0.19234 0.92013 0.78591 0.0
C730 C 0.22041 0.92637 0.7788 0.0
C731 C 0.23399 0.91114 0.78705 0.0
C732 C 0.21927 0.88921 0.8015 0.0
H733 H 0.17374 0.89217 0.86572 0.0
H734 H 0.19931 0.90821 0.84509 0.0
H735 H 0.16135 0.89978 0.84257 0.0
H736 H 0.15554 0.89293 0.80521 0.0
H737 H 0.18125 0.93135 0.77973 0.0
H738 H 0.24321 0.31184 0.87904 0.0
H739 H 0.20452 0.30108 0.85426 0.0
H740 H 0.2171 0.38928 0.86218 0.0
H741 H 0.2561 0.40035 0.88693 0.0
H742 H 0.15176 0.30225 0.86298 0.0
H743 H 0.21524 0.37954 0.80123 0.0
H744 H 0.23306 0.36965 0.82051 0.0
H745 H 0.2215 0.39646 0.82542 0.0
C746 C 0.2382 0.32919 0.87521 0.0
C747 C 0.25269 0.35696 0.88491 0.0
C748 C 0.21601 0.32295 0.86111 0.0
C749 C 0.20803 0.3444 0.85636 0.0
C750 C 0.22324 0.37257 0.86544 0.0
H751 H 0.0726 0.34187 0.77896 0.0
H752 H 0.11048 0.3542 0.80465 0.0
C753 C 0.24549 0.37885 0.87957 0.0
C754 C 0.18234 0.33642 0.843 0.0
H755 H 0.16258 0.35357 0.79861 0.0
C756 C 0.15409 0.31339 0.84887 0.0
C757 C 0.18549 0.35115 0.8247 0.0
C758 C 0.21547 0.37542 0.81744 0.0
C759 C 0.12878 0.30483 0.83697 0.0
C760 C 0.13195 0.31935 0.81856 0.0
C761 C 0.1602 0.34252 0.81277 0.0
C762 C 0.10648 0.31057 0.80482 0.0
C763 C 0.09882 0.28071 0.84438 0.0
C764 C 0.0912 0.28173 0.79669 0.0
C765 C 0.06933 0.27453 0.7821 0.0
C766 C 0.06268 0.29619 0.77526 0.0
C767 C 0.07721 0.32469 0.78396 0.0
C768 C 0.09894 0.33182 0.79858 0.0
H769 H 0.09878 0.27801 0.86079 0.0
H770 H 0.08089 0.2856 0.84035 0.0
H771 H 0.09352 0.25917 0.83744 0.0
H772 H 0.09704 0.26514 0.80101 0.0
H773 H 0.05872 0.25248 0.77552 0.0
H774 H 0.06274 0.46701 0.4425 0.0
H775 H 0.05122 0.49246 0.46884 0.0
H776 H 0.95781 0.4268 0.46412 0.0
H777 H 0.96909 0.40122 0.43793 0.0
H778 H 0.01181 0.51577 0.46258 0.0
H779 H 0.97393 0.43404 0.52471 0.0
H780 H -0.00385 0.43315 0.50429 0.0
H781 H 0.95691 0.4191 0.501 0.0
C782 C 0.03985 0.45763 0.44741 0.0
C783 C 0.01681 0.43213 0.43818 0.0
C784 C 0.03329 0.47226 0.46236 0.0
C785 C 0.00369 0.46139 0.46847 0.0
C786 C 0.98083 0.43529 0.45982 0.0
H787 H 0.92125 0.52649 0.55283 0.0
H788 H 0.92914 0.4994 0.52574 0.0
C789 C 0.98733 0.42076 0.44482 0.0
C790 C -0.00361 0.47858 0.4827 0.0
H791 H 0.96651 0.47535 0.52851 0.0
C792 C 0.00202 0.50702 0.47704 0.0
C793 C 0.98325 0.46688 0.5014 0.0
C794 C 0.97737 0.43671 0.50836 0.0
C795 C 0.99476 0.52411 0.48958 0.0
C796 C 0.98206 0.51263 0.50843 0.0
C797 C 0.97611 0.48402 0.514 0.0
C798 C 0.97647 0.53059 0.52313 0.0
C799 C 0.00038 0.5541 0.48243 0.0
C800 C 0.00037 0.55725 0.5304 0.0
C801 C 0.99591 0.57274 0.54575 0.0
C802 C 0.9675 0.56174 0.55423 0.0
C803 C 0.94334 0.53559 0.54648 0.0
C804 C 0.94784 0.52004 0.5311 0.0
H805 H 0.00132 0.55556 0.46592 0.0
H806 H 0.98278 0.55872 0.48776 0.0
H807 H 0.02217 0.57175 0.4883 0.0
H808 H 0.02274 0.56549 0.52475 0.0
H809 H 0.015 0.59275 0.55148 0.0
H810 H 0.53352 0.59933 0.44665 0.0
H811 H 0.50652 0.56374 0.47342 0.0
H812 H 0.56562 0.52793 0.46809 0.0
H813 H 0.59243 0.56309 0.44126 0.0
H814 H 0.50517 0.48456 0.46709 0.0
H815 H 0.53082 0.5613 0.53124 0.0
H816 H 0.51612 0.57027 0.50977 0.0
H817 H 0.55193 0.57269 0.50838 0.0
C818 C 0.54105 0.58421 0.45143 0.0
C819 C 0.56508 0.584 0.44189 0.0
C820 C 0.52565 0.56394 0.46674 0.0
C821 C 0.53422 0.54335 0.47281 0.0
C822 C 0.55869 0.54366 0.46363 0.0
H823 H 0.46675 0.39609 0.55702 0.0
H824 H 0.49302 0.43113 0.52984 0.0
C825 C 0.57402 0.56383 0.44835 0.0
C826 C 0.51676 0.52033 0.48793 0.0
H827 H 0.49453 0.51057 0.53646 0.0
C828 C 0.50291 0.4902 0.48229 0.0
C829 C 0.51384 0.52781 0.5077 0.0
C830 C 0.52915 0.55975 0.51475 0.0
C831 C 0.4858 0.4673 0.49585 0.0
C832 C 0.48291 0.47479 0.51562 0.0
C833 C 0.49676 0.50492 0.52126 0.0
C834 C 0.46559 0.4518 0.53081 0.0
C835 C 0.47048 0.43537 0.48878 0.0
C836 C 0.44148 0.4518 0.54031 0.0
C837 C 0.4266 0.43198 0.55585 0.0
C838 C 0.43562 0.41183 0.56223 0.0
C839 C 0.45917 0.41119 0.5523 0.0
C840 C 0.47414 0.43115 0.53675 0.0
H841 H 0.46855 0.43385 0.4723 0.0
H842 H 0.48368 0.42494 0.49356 0.0
H843 H 0.44781 0.42234 0.49531 0.0
H844 H 0.43456 0.46757 0.53595 0.0
H845 H 0.40854 0.43302 0.56322 0.0
H846 H 0.55724 0.96234 0.55865 0.0
H847 H 0.51933 0.95008 0.53297 0.0
H848 H 0.54774 0.04336 0.52635 0.0
H849 H 0.58586 0.05588 0.55209 0.0
H850 H 0.48393 0.00274 0.53399 0.0
H851 H 0.52812 0.96546 0.47159 0.0
H852 H 0.52737 0.95003 0.49572 0.0
H853 H 0.55162 0.98915 0.49141 0.0
C854 C 0.5558 0.98031 0.55147 0.0
C855 C 0.57453 0.01009 0.55735 0.0
C856 C 0.53416 0.97325 0.53679 0.0
C857 C 0.53087 0.99582 0.52774 0.0
C858 C 0.55007 0.02565 0.53316 0.0
H859 H 0.41304 0.0108 0.44555 0.0
H860 H 0.44672 0.01626 0.47264 0.0
C861 C 0.57189 0.03277 0.54776 0.0
C862 C 0.5061 0.98811 0.51364 0.0
H863 H 0.48013 0.95949 0.46744 0.0
C864 C 0.48306 0.99331 0.51942 0.0
C865 C 0.50489 0.97539 0.49482 0.0
C866 C 0.52937 0.9698 0.48786 0.0
C867 C 0.45882 0.98627 0.50679 0.0
C868 C 0.45799 0.97432 0.48771 0.0
C869 C 0.48076 0.96855 0.4821 0.0
C870 C 0.43507 0.96988 0.47275 0.0
C871 C 0.43423 0.99148 0.51406 0.0
C872 C 0.41726 0.94193 0.46375 0.0
C873 C 0.39794 0.93874 0.44813 0.0
C874 C 0.39646 0.96355 0.44115 0.0
C875 C 0.41359 0.99123 0.45065 0.0
C876 C 0.43277 0.99437 0.46622 0.0
H877 H 0.43309 0.99116 0.53057 0.0
H878 H 0.43873 0.01374 0.50897 0.0
H879 H 0.41219 0.9744 0.50811 0.0
H880 H 0.41885 0.92278 0.4685 0.0
H881 H 0.38516 0.91721 0.44099 0.0
H882 H 0.31063 0.98616 0.01274 0.0
H883 H 0.27254 0.9361 0.00266 0.0
H884 H 0.26238 0.90656 0.06365 0.0
H885 H 0.30101 0.95676 0.07389 0.0
H886 H 0.26424 0.86636 0.03554 0.0
H887 H 0.18324 0.90183 0.01405 0.0
H888 H 0.21902 0.92357 0.00244 0.0
H889 H 0.21579 0.92476 0.02904 0.0
C890 C 0.30036 0.96903 0.02402 0.0
C891 C 0.30855 0.97538 0.04413 0.0
C892 C 0.27855 0.94049 0.01825 0.0
C893 C 0.26434 0.9179 0.03248 0.0
C894 C 0.27303 0.92385 0.0525 0.0
H895 H 0.10045 0.75728 0.99883 0.0
H896 H 0.1376 0.79999 0.0179 0.0
C897 C 0.295 0.95247 0.05831 0.0
C898 C 0.24013 0.88823 0.02629 0.0
H899 H 0.17308 0.85411 0.00239 0.0
C900 C 0.24411 0.8635 0.0285 0.0
C901 C 0.21373 0.88459 0.01745 0.0
C902 C 0.20748 0.91003 0.01577 0.0
C903 C 0.22282 0.83534 0.02125 0.0
C904 C 0.19729 0.83215 0.0113 0.0
C905 C 0.1928 0.85665 0.00988 0.0
C906 C 0.17542 0.80406 0.00148 0.0
C907 C 0.2279 0.80936 0.02427 0.0
C908 C 0.18443 0.79206 0.98604 0.0
C909 C 0.16327 0.76756 0.9752 0.0
C910 C 0.13275 0.75499 0.97945 0.0
C911 C 0.12384 0.7666 0.9952 0.0
C912 C 0.145 0.79094 0.00612 0.0
H913 H 0.24273 0.81306 0.03722 0.0
H914 H 0.20652 0.78828 0.02659 0.0
H915 H 0.23888 0.80675 0.01085 0.0
H916 H 0.20771 0.80231 0.98188 0.0
H917 H 0.17072 0.75912 0.96307 0.0
H918 H 0.03881 0.34003 0.07296 0.0
H919 H 0.09087 0.35667 0.06412 0.0
H920 H 0.0641 0.3287 0.00348 0.0
H921 H 0.01238 0.3122 0.0121 0.0
H922 H 0.11366 0.32155 0.0475 0.0
H923 H 0.1336 0.41519 0.99805 0.0
H924 H 0.10332 0.39906 0.01577 0.0
H925 H 0.09974 0.38147 0.99203 0.0
C926 C 0.04412 0.33757 0.05774 0.0
C927 C 0.02162 0.3249 0.04319 0.0
C928 C 0.07379 0.3471 0.05273 0.0
C929 C 0.08128 0.34439 0.03309 0.0
C930 C 0.0588 0.33157 0.01863 0.0
H931 H 0.2051 0.31621 0.97262 0.0
H932 H 0.16618 0.31513 0.99362 0.0
C933 C 0.02925 0.32195 0.02361 0.0
C934 C 0.11228 0.35346 0.0276 0.0
H935 H 0.16546 0.3941 0.99304 0.0
C936 C 0.12535 0.33787 0.0359 0.0
C937 C 0.12768 0.37517 0.01277 0.0
C938 C 0.1155 0.39392 0.00428 0.0
C939 C 0.15245 0.34178 0.02859 0.0
C940 C 0.16641 0.36143 0.01245 0.0
C941 C 0.15451 0.37874 0.00526 0.0
C942 C 0.19132 0.36197 0.00136 0.0
C943 C 0.1654 0.32418 0.03783 0.0
C944 C 0.21817 0.3888 0.99845 0.0
C945 C 0.24042 0.38954 0.98628 0.0
C946 C 0.23595 0.36349 0.9767 0.0
C947 C 0.2092 0.33662 0.97986 0.0
C948 C 0.18706 0.3359 0.99201 0.0
H949 H 0.15845 0.31873 0.05363 0.0
H950 H 0.15704 0.30284 0.02966 0.0
H951 H 0.19015 0.33659 0.0371 0.0
H952 H 0.2217 0.40921 0.00538 0.0
H953 H 0.26083 0.41056 0.98407 0.0
H954 H 0.70239 0.72107 0.0258 0.0
H955 H 0.68722 0.75841 0.02311 0.0
H956 H 0.62149 0.714 0.06915 0.0
H957 H 0.63615 0.67573 0.07156 0.0
H958 H 0.59795 0.72663 0.038 0.0
H959 H 0.70293 0.82795 0.05739 0.0
H960 H 0.71025 0.80794 0.03859 0.0
H961 H 0.69676 0.79108 0.06266 0.0
C962 C 0.68496 0.7194 0.03556 0.0
C963 C 0.67047 0.69553 0.04891 0.0
C964 C 0.67651 0.74096 0.03414 0.0
C965 C 0.65373 0.73942 0.04627 0.0
C966 C 0.63937 0.71577 0.05983 0.0
H967 H 0.63356 0.89185 0.01405 0.0
H968 H 0.63584 0.85601 0.03672 0.0
C969 C 0.64774 0.69397 0.06117 0.0
C970 C 0.64345 0.76114 0.04319 0.0
H971 H 0.67091 0.83486 0.03359 0.0
C972 C 0.61369 0.7504 0.03755 0.0
C973 C 0.66365 0.7922 0.0432 0.0
C974 C 0.69507 0.80541 0.05104 0.0
C975 C 0.6044 0.7697 0.03 0.0
C976 C 0.62569 0.80026 0.0275 0.0
C977 C 0.65465 0.81134 0.03505 0.0
C978 C 0.61974 0.82033 0.01503 0.0
C979 C 0.57209 0.75692 0.02427 0.0
C980 C 0.60963 0.81213 0.99538 0.0
C981 C 0.60793 0.83238 0.98254 0.0
C982 C 0.61703 0.86147 0.98896 0.0
C983 C 0.62652 0.86955 0.00872 0.0
C984 C 0.62776 0.8491 0.02168 0.0
H985 H 0.55738 0.73823 0.03431 0.0
H986 H 0.56517 0.77403 0.02481 0.0
H987 H 0.56864 0.7478 0.00894 0.0
H988 H 0.60432 0.79049 0.98964 0.0
H989 H 0.60076 0.82566 0.96733 0.0
H990 H 0.72221 0.99476 0.97193 0.0
H991 H 0.76217 0.04506 0.98035 0.0
H992 H 0.71486 0.08254 0.95031 0.0
H993 H 0.67476 0.03228 0.9417 0.0
H994 H 0.79675 0.10034 0.9522 0.0
H995 H 0.72684 0.1085 0.01227 0.0
H996 H 0.72012 0.07298 0.00289 0.0
H997 H 0.71048 0.09568 0.98804 0.0
C998 C 0.72048 0.01372 0.96691 0.0
C999 C 0.69532 0.00967 0.95629 0.0
C1000 C 0.74333 0.04236 0.97167 0.0
C1001 C 0.74123 0.06728 0.96599 0.0
C1002 C 0.71669 0.06343 0.95481 0.0
H1003 H 0.84527 0.24657 0.01448 0.0
H1004 H 0.80887 0.20357 0.9952 0.0
C1005 C 0.69388 0.03478 0.94993 0.0
C1006 C 0.76373 0.09709 0.97306 0.0
H1007 H 0.77571 0.14838 0.00893 0.0
C1008 C 0.79221 0.11108 0.96448 0.0
C1009 C 0.75746 0.11087 0.98898 0.0
C1010 C 0.72715 0.09634 0.99873 0.0
C1011 C 0.8149 0.13862 0.97164 0.0
C1012 C 0.80899 0.1519 0.98812 0.0
C1013 C 0.78019 0.13816 0.9963 0.0
C1014 C 0.83256 0.17914 0.9979 0.0
C1015 C 0.84487 0.15322 0.96144 0.0
C1016 C 0.85795 0.17967 0.00577 0.0
C1017 C 0.87885 0.20428 0.01663 0.0
C1018 C 0.87442 0.22852 0.0201 0.0
C1019 C 0.84918 0.22813 0.01206 0.0
C1020 C 0.82843 0.20364 0.00102 0.0
H1021 H 0.84281 0.14592 0.94568 0.0
H1022 H 0.85565 0.1779 0.96182 0.0
H1023 H 0.85966 0.14663 0.96915 0.0
H1024 H 0.86115 0.16067 0.00405 0.0
H1025 H 0.89803 0.20392 0.02278 0.0
H1026 H 0.76638 0.66921 0.99543 0.0
H1027 H 0.81013 0.67473 0.97772 0.0
H1028 H 0.80544 0.60148 0.01133 0.0
H1029 H 0.76123 0.59531 0.02866 0.0
H1030 H 0.86218 0.68949 0.99444 0.0
H1031 H 0.8198 0.58124 0.95608 0.0
H1032 H 0.79528 0.59305 0.96658 0.0
H1033 H 0.8114 0.57649 0.98217 0.0
C1034 C 0.7744 0.65397 0.99879 0.0
C1035 C 0.76048 0.63185 0.01341 0.0
C1036 C 0.79934 0.65712 0.98865 0.0
C1037 C 0.81078 0.63825 0.993 0.0
C1038 C 0.79653 0.61577 0.00734 0.0
H1039 H 0.99164 0.67832 0.98831 0.0
H1040 H 0.94186 0.66926 0.99652 0.0
C1041 C 0.77142 0.61242 0.01736 0.0
C1042 C 0.8393 0.644 0.98407 0.0
H1043 H 0.87312 0.61041 0.96053 0.0
C1044 C 0.86447 0.67231 0.98677 0.0
C1045 C 0.84219 0.62171 0.97384 0.0
C1046 C 0.81564 0.59153 0.9693 0.0
C1047 C 0.8927 0.67858 0.98025 0.0
C1048 C 0.89593 0.65568 0.97126 0.0
C1049 C 0.8706 0.62777 0.96772 0.0
C1050 C 0.92561 0.66002 0.96619 0.0
C1051 C 0.91882 0.70965 0.98318 0.0
C1052 C 0.93254 0.6567 0.94651 0.0
C1053 C 0.96093 0.66155 0.9418 0.0
C1054 C 0.98268 0.66973 0.95673 0.0
C1055 C 0.9754 0.67234 0.97647 0.0
C1056 C 0.94705 0.66733 0.98117 0.0
H1057 H 0.91141 0.72637 0.98438 0.0
H1058 H 0.93049 0.71039 0.99721 0.0
H1059 H 0.93499 0.71616 0.97073 0.0
H1060 H 0.91616 0.65083 0.93479 0.0
H1061 H 0.96595 0.65929 0.92647 0.0
H1062 H 0.30285 0.27366 0.9314 0.0
H1063 H 0.30984 0.2335 0.94462 0.0
H1064 H 0.32393 0.27205 0.00331 0.0
H1065 H 0.3164 0.31188 0.9903 0.0
H1066 H 0.35922 0.238 0.96318 0.0
H1067 H 0.26109 0.18543 0.01325 0.0
H1068 H 0.2654 0.21192 0.99423 0.0
H1069 H 0.28455 0.22465 0.01765 0.0
C1070 C 0.30724 0.27343 0.94714 0.0
C1071 C 0.30895 0.29577 0.95986 0.0
C1072 C 0.31124 0.25053 0.95465 0.0
C1073 C 0.31694 0.24961 0.97497 0.0
C1074 C 0.31887 0.27201 0.98766 0.0
H1075 H 0.39779 0.16049 0.03445 0.0
H1076 H 0.38687 0.19569 0.01738 0.0
C1077 C 0.31474 0.29483 0.98019 0.0
C1078 C 0.32198 0.22584 0.98281 0.0
H1079 H 0.29795 0.17109 0.01792 0.0
C1080 C 0.34569 0.22317 0.97503 0.0
C1081 C 0.304 0.2063 0.99806 0.0
C1082 C 0.27715 0.20696 0.00616 0.0
C1083 C 0.35249 0.20201 0.98254 0.0
C1084 C 0.33544 0.18351 0.99847 0.0
C1085 C 0.31118 0.18557 0.00584 0.0
C1086 C 0.34259 0.16211 0.00797 0.0
C1087 C 0.3777 0.19953 0.97327 0.0
C1088 C 0.32111 0.13171 0.00861 0.0
C1089 C 0.32717 0.11164 0.01851 0.0
C1090 C 0.3548 0.1217 0.02797 0.0
C1091 C 0.37638 0.15212 0.02717 0.0
C1092 C 0.37025 0.1722 0.01733 0.0
H1093 H 0.38263 0.20881 0.95794 0.0
H1094 H 0.39816 0.21238 0.98236 0.0
H1095 H 0.37245 0.17596 0.97271 0.0
H1096 H 0.29957 0.12355 0.00156 0.0
H1097 H 0.31011 0.08831 0.01891 0.0
H1098 H 0.94235 0.32845 0.35154 0.0
H1099 H 0.90654 0.27744 0.3416 0.0
H1100 H 0.94748 0.24387 0.38215 0.0
H1101 H 0.9833 0.29502 0.39241 0.0
H1102 H 0.92215 0.23767 0.32441 0.0
H1103 H 0.85731 0.19272 0.39436 0.0
H1104 H 0.88057 0.23221 0.38984 0.0
H1105 H 0.89721 0.21022 0.39652 0.0
C1106 C 0.94353 0.31021 0.35852 0.0
C1107 C 0.96558 0.31565 0.37274 0.0
C1108 C 0.92311 0.28112 0.35281 0.0
C1109 C 0.92431 0.25697 0.36124 0.0
C1110 C 0.94595 0.26224 0.37571 0.0
H1111 H 0.82889 0.08236 0.30258 0.0
H1112 H 0.8681 0.12624 0.31984 0.0
C1113 C 0.96642 0.29142 0.38149 0.0
C1114 C 0.90378 0.22653 0.35396 0.0
H1115 H 0.84431 0.15949 0.36726 0.0
C1116 C 0.90525 0.22045 0.33378 0.0
C1117 C 0.8818 0.20431 0.36629 0.0
C1118 C 0.87883 0.21009 0.38794 0.0
C1119 C 0.88478 0.19292 0.32541 0.0
C1120 C 0.86263 0.17072 0.33769 0.0
C1121 C 0.86155 0.17654 0.35799 0.0
C1122 C 0.83877 0.14244 0.32928 0.0
C1123 C 0.88621 0.18832 0.30334 0.0
C1124 C 0.80923 0.13654 0.32958 0.0
C1125 C 0.78686 0.11152 0.31988 0.0
C1126 C 0.79369 0.09197 0.30973 0.0
C1127 C 0.82308 0.09722 0.31016 0.0
C1128 C 0.84546 0.12226 0.31994 0.0
H1129 H 0.90072 0.20962 0.29543 0.0
H1130 H 0.89543 0.17332 0.30086 0.0
H1131 H 0.86359 0.17772 0.2966 0.0
H1132 H 0.80367 0.15187 0.33674 0.0
H1133 H 0.76438 0.10794 0.31989 0.0
H1134 H 0.92218 0.75335 0.31503 0.0
H1135 H 0.8827 0.7477 0.3378 0.0
H1136 H 0.84019 0.65203 0.33228 0.0
H1137 H 0.87984 0.65749 0.31006 0.0
H1138 H 0.82499 0.7234 0.32911 0.0
H1139 H 0.83637 0.66031 0.39143 0.0
H1140 H 0.86514 0.67886 0.37291 0.0
H1141 H 0.83379 0.64228 0.36816 0.0
C1142 C 0.90459 0.73113 0.31891 0.0
C1143 C 0.90403 0.70585 0.31081 0.0
C1144 C 0.88214 0.72794 0.33194 0.0
C1145 C 0.85885 0.69944 0.33707 0.0
C1146 C 0.85843 0.67421 0.32905 0.0
H1147 H 0.67943 0.61154 0.3699 0.0
H1148 H 0.73141 0.62829 0.36151 0.0
C1149 C 0.88093 0.67737 0.31617 0.0
C1150 C 0.83336 0.69587 0.34911 0.0
H1151 H 0.78748 0.65554 0.38737 0.0
C1152 C 0.81718 0.70917 0.34215 0.0
C1153 C 0.82328 0.67738 0.36617 0.0
C1154 C 0.84078 0.66418 0.37521 0.0
C1155 C 0.79012 0.70284 0.35097 0.0
C1156 C 0.77915 0.68285 0.3672 0.0
C1157 C 0.796 0.67075 0.37484 0.0
C1158 C 0.74875 0.67187 0.37487 0.0
C1159 C 0.77254 0.71615 0.34218 0.0
C1160 C 0.74161 0.69065 0.38562 0.0
C1161 C 0.71192 0.68111 0.39049 0.0
C1162 C 0.68909 0.65276 0.38454 0.0
C1163 C 0.69656 0.63355 0.37459 0.0
C1164 C 0.7262 0.64302 0.36985 0.0
H1165 H 0.78286 0.72897 0.32836 0.0
H1166 H 0.74941 0.6983 0.33876 0.0
H1167 H 0.77116 0.73139 0.35319 0.0
H1168 H 0.75885 0.71296 0.38966 0.0
H1169 H 0.70676 0.69634 0.3982 0.0
H1170 H 0.34341 0.22235 0.3088 0.0
H1171 H 0.34753 0.18535 0.32898 0.0
H1172 H 0.25246 0.13876 0.33896 0.0
H1173 H 0.24804 0.17533 0.31824 0.0
H1174 H 0.33293 0.16824 0.36795 0.0
H1175 H 0.26573 0.07363 0.31653 0.0
H1176 H 0.2789 0.11189 0.30967 0.0
H1177 H 0.24712 0.09259 0.32575 0.0
C1178 C 0.32338 0.20423 0.31529 0.0
C1179 C 0.29537 0.2015 0.31181 0.0
C1180 C 0.32578 0.18318 0.32687 0.0
C1181 C 0.30025 0.15912 0.33522 0.0
C1182 C 0.27233 0.15683 0.33229 0.0
H1183 H 0.29448 0.00497 0.39369 0.0
H1184 H 0.28083 0.04275 0.38545 0.0
C1185 C 0.26987 0.17776 0.32053 0.0
C1186 C 0.30313 0.13619 0.34652 0.0
H1187 H 0.28512 0.06321 0.34506 0.0
C1188 C 0.32225 0.14519 0.36308 0.0
C1189 C 0.28909 0.10614 0.34012 0.0
C1190 C 0.26925 0.09542 0.32196 0.0
C1191 C 0.32842 0.12511 0.37307 0.0
C1192 C 0.3152 0.09541 0.36623 0.0
C1193 C 0.29505 0.08604 0.35027 0.0
C1194 C 0.32435 0.0745 0.3739 0.0
C1195 C 0.34947 0.13591 0.39059 0.0
C1196 C 0.35338 0.0801 0.37026 0.0
C1197 C 0.36114 0.05857 0.37477 0.0
C1198 C 0.33997 0.03111 0.38301 0.0
C1199 C 0.31125 0.02601 0.38742 0.0
C1200 C 0.30342 0.0475 0.38273 0.0
H1201 H 0.35112 0.15628 0.39732 0.0
H1202 H 0.34221 0.11837 0.40219 0.0
H1203 H 0.37207 0.14147 0.3855 0.0
H1204 H 0.36966 0.10061 0.36311 0.0
H1205 H 0.38342 0.06307 0.3712 0.0
H1206 H 0.57039 0.56759 0.33016 0.0
H1207 H 0.53381 0.5262 0.3098 0.0
H1208 H 0.46314 0.51792 0.34807 0.0
H1209 H 0.49943 0.55974 0.3681 0.0
H1210 H 0.50019 0.47068 0.32235 0.0
H1211 H 0.42616 0.51073 0.29423 0.0
H1212 H 0.46226 0.53554 0.30498 0.0
H1213 H 0.43021 0.51475 0.32073 0.0
C1214 C 0.54698 0.55725 0.334 0.0
C1215 C 0.5377 0.56679 0.35071 0.0
C1216 C 0.52613 0.53368 0.32235 0.0
C1217 C 0.4957 0.51928 0.32722 0.0
C1218 C 0.48638 0.52923 0.34368 0.0
H1219 H 0.3629 0.33824 0.31834 0.0
H1220 H 0.4038 0.38801 0.32618 0.0
C1221 C 0.50717 0.55294 0.35524 0.0
C1222 C 0.47413 0.49185 0.31657 0.0
H1223 H 0.40486 0.45706 0.29548 0.0
C1224 C 0.4796 0.46791 0.31613 0.0
C1225 C 0.44749 0.48835 0.30817 0.0
C1226 C 0.44134 0.51386 0.30685 0.0
C1227 C 0.45838 0.44004 0.3086 0.0
C1228 C 0.43071 0.43586 0.30177 0.0
C1229 C 0.42593 0.46023 0.30104 0.0
C1230 C 0.40577 0.40593 0.29675 0.0
C1231 C 0.46559 0.41518 0.30837 0.0
C1232 C 0.39269 0.39983 0.27778 0.0
C1233 C 0.36905 0.37137 0.27329 0.0
C1234 C 0.35814 0.34876 0.28777 0.0
C1235 C 0.37101 0.35514 0.30683 0.0
C1236 C 0.39449 0.38351 0.3113 0.0
H1237 H 0.49006 0.42407 0.3078 0.0
H1238 H 0.45704 0.40187 0.32221 0.0
H1239 H 0.45505 0.40011 0.29545 0.0
H1240 H 0.40096 0.41697 0.26643 0.0
H1241 H 0.35943 0.36704 0.2585 0.0
H1242 H 0.6534 0.03785 0.30761 0.0
H1243 H 0.60216 0.02279 0.31677 0.0
H1244 H 0.56919 0.95332 0.27243 0.0
H1245 H 0.62072 0.96825 0.26308 0.0
H1246 H 0.54025 0.99296 0.27618 0.0
H1247 H 0.54766 0.93881 0.34565 0.0
H1248 H 0.5789 0.97535 0.34095 0.0
H1249 H 0.57155 0.94517 0.32443 0.0
C1250 C 0.6353 0.01952 0.29967 0.0
C1251 C 0.641 0.00406 0.28474 0.0
C1252 C 0.60609 0.01096 0.30494 0.0
C1253 C 0.58212 0.98682 0.29539 0.0
C1254 C 0.58757 0.97197 0.27996 0.0
H1255 H 0.40925 0.91568 0.35423 0.0
H1256 H 0.44972 0.91725 0.33443 0.0
C1257 C 0.61691 0.9805 0.27467 0.0
C1258 C 0.55156 0.97669 0.30234 0.0
H1259 H 0.50786 0.94922 0.34354 0.0
C1260 C 0.53282 0.98292 0.29075 0.0
C1261 C 0.54195 0.9632 0.32119 0.0
C1262 C 0.56091 0.95496 0.33376 0.0
C1263 C 0.50518 0.97752 0.29811 0.0
C1264 C 0.49655 0.96608 0.31762 0.0
C1265 C 0.5146 0.95821 0.32865 0.0
C1266 C 0.47025 0.96429 0.32758 0.0
C1267 C 0.48578 0.98458 0.28508 0.0
C1268 C 0.46846 0.99021 0.33029 0.0
C1269 C 0.44539 0.98936 0.34151 0.0
C1270 C 0.42396 0.96263 0.35045 0.0
C1271 C 0.42554 0.93659 0.34753 0.0
C1272 C 0.44854 0.93743 0.3362 0.0
H1273 H 0.49018 0.98313 0.26906 0.0
H1274 H 0.46173 0.96923 0.28809 0.0
H1275 H 0.49089 0.00773 0.2881 0.0
H1276 H 0.48546 0.01135 0.32427 0.0
H1277 H 0.44479 0.00979 0.3436 0.0
H1278 H -0.00393 0.66572 0.32105 0.0
H1279 H 0.00884 0.62895 0.33304 0.0
H1280 H 0.00786 0.59986 0.27274 0.0
H1281 H 0.99556 0.63703 0.26057 0.0
H1282 H 0.97408 0.56835 0.3282 0.0
H1283 H 0.08614 0.60984 0.29485 0.0
H1284 H 0.06877 0.63254 0.29667 0.0
H1285 H 0.05773 0.60495 0.27739 0.0
C1286 C -0.00114 0.6517 0.31032 0.0
C1287 C 0.99478 0.65415 0.28988 0.0
C1288 C 0.00618 0.63076 0.31719 0.0
C1289 C 0.00961 0.61197 0.30375 0.0
C1290 C 0.0059 0.61459 0.2833 0.0
H1291 H 0.99268 0.44205 0.33477 0.0
H1292 H 0.9884 0.48247 0.31926 0.0
C1293 C -0.00132 0.63565 0.27639 0.0
C1294 C 0.01493 0.58827 0.31136 0.0
H1295 H 0.06348 0.5618 0.3099 0.0
C1296 C 0.99366 0.56695 0.32425 0.0
C1297 C 0.04064 0.58675 0.30628 0.0
C1298 C 0.0648 0.60987 0.29318 0.0
C1299 C -0.00277 0.54389 0.33209 0.0
C1300 C 0.02248 0.54183 0.32656 0.0
C1301 C 0.044 0.56334 0.31388 0.0
C1302 C 0.027 0.51768 0.33421 0.0
C1303 C 0.9742 0.52221 0.34648 0.0
C1304 C 0.05082 0.52428 0.34712 0.0
C1305 C 0.05341 0.50125 0.35593 0.0
C1306 C 0.03224 0.47135 0.3519 0.0
C1307 C 0.00918 0.46489 0.33827 0.0
C1308 C 0.00665 0.4879 0.32944 0.0
H1309 H 0.96023 0.53097 0.35275 0.0
H1310 H 0.95924 0.50107 0.33859 0.0
H1311 H 0.98499 0.51707 0.35896 0.0
H1312 H 0.06678 0.54719 0.35089 0.0
H1313 H 0.07146 0.50685 0.36634 0.0
H1314 H 0.50485 0.41875 0.64135 0.0
H1315 H 0.54613 0.45918 0.65978 0.0
H1316 H 0.48632 0.48782 0.68202 0.0
H1317 H 0.44502 0.44729 0.66403 0.0
H1318 H 0.56677 0.51744 0.65315 0.0
H1319 H 0.53226 0.49242 0.73183 0.0
H1320 H 0.51525 0.46493 0.71233 0.0
H1321 H 0.50316 0.49154 0.71684 0.0
C1322 C 0.50045 0.43339 0.65045 0.0
C1323 C 0.47178 0.42997 0.65123 0.0
C1324 C 0.524 0.45639 0.66099 0.0
C1325 C 0.51917 0.47617 0.67253 0.0
C1326 C 0.49039 0.47233 0.67366 0.0
H1327 H 0.62219 0.66003 0.69299 0.0
H1328 H 0.58833 0.60847 0.68318 0.0
C1329 C 0.46687 0.44934 0.6632 0.0
C1330 C 0.54459 0.50289 0.68149 0.0
H1331 H 0.56711 0.54435 0.72408 0.0
C1332 C 0.56718 0.52303 0.66876 0.0
C1333 C 0.54533 0.51 0.70189 0.0
C1334 C 0.52284 0.48839 0.71653 0.0
C1335 C 0.58937 0.55094 0.6756 0.0
C1336 C 0.58859 0.55902 0.69558 0.0
C1337 C 0.56728 0.53818 0.70867 0.0
C1338 C 0.60822 0.58981 0.70257 0.0
C1339 C 0.61297 0.57193 0.66124 0.0
C1340 C 0.62988 0.59615 0.71723 0.0
C1341 C 0.64927 0.62568 0.72293 0.0
C1342 C 0.64701 0.6491 0.71412 0.0
C1343 C 0.62457 0.64247 0.69996 0.0
C1344 C 0.60531 0.61307 0.69427 0.0
H1345 H 0.61563 0.5597 0.64855 0.0
H1346 H 0.60632 0.58767 0.65514 0.0
H1347 H 0.63485 0.58512 0.66881 0.0
H1348 H 0.63222 0.57837 0.72387 0.0
H1349 H 0.66636 0.63019 0.73391 0.0
H1350 H 0.54808 0.99106 0.66118 0.0
H1351 H 0.50471 0.98799 0.67795 0.0
H1352 H 0.51724 0.06553 0.6458 0.0
H1353 H 0.56099 0.06906 0.62915 0.0
H1354 H 0.50142 0.06403 0.68677 0.0
H1355 H 0.42645 0.95883 0.64652 0.0
H1356 H 0.45583 0.95826 0.6604 0.0
H1357 H 0.46487 0.98294 0.63948 0.0
C1358 C 0.54179 0.00765 0.65783 0.0
C1359 C 0.55766 0.03011 0.64371 0.0
C1360 C 0.51701 0.00581 0.66739 0.0
C1361 C 0.50759 0.02624 0.66283 0.0
C1362 C 0.52419 0.04952 0.64943 0.0
H1363 H 0.33043 -0.00157 0.67612 0.0
H1364 H 0.37974 0.00992 0.66455 0.0
C1365 C 0.54908 0.05145 0.63992 0.0
C1366 C 0.47938 0.0222 0.67107 0.0
H1367 H 0.40426 0.97443 0.67084 0.0
C1368 C 0.48013 0.04448 0.68334 0.0
C1369 C 0.45172 0.99683 0.66626 0.0
C1370 C 0.44949 0.97294 0.65231 0.0
C1371 C 0.45377 0.04188 0.69113 0.0
C1372 C 0.42618 0.01618 0.68666 0.0
C1373 C 0.42551 0.99402 0.67432 0.0
C1374 C 0.39745 0.01196 0.69406 0.0
C1375 C 0.45556 0.0669 0.70366 0.0
C1376 C 0.39119 0.00952 0.71451 0.0
C1377 C 0.36301 0.00307 0.72119 0.0
C1378 C 0.34066 -0.00134 0.70747 0.0
C1379 C 0.34719 0.0016 0.68703 0.0
C1380 C 0.37533 0.00819 0.6804 0.0
H1381 H 0.4772 0.08786 0.70169 0.0
H1382 H 0.43718 0.07124 0.69992 0.0
H1383 H 0.45341 0.0605 0.7196 0.0
H1384 H 0.40779 0.01177 0.72526 0.0
H1385 H 0.3585 0.00081 0.73703 0.0
H1386 H 0.02692 0.36659 0.68366 0.0
H1387 H 0.01182 0.40239 0.67372 0.0
H1388 H 0.94631 0.37105 0.72072 0.0
H1389 H 0.96168 0.3352 0.73101 0.0
H1390 H 0.9545 0.38859 0.66136 0.0
H1391 H 0.99275 0.46264 0.72792 0.0
H1392 H 0.00539 0.43657 0.72268 0.0
H1393 H 0.96856 0.42342 0.7323 0.0
C1394 C 0.00945 0.36743 0.692 0.0
C1395 C 0.99549 0.34817 0.70813 0.0
C1396 C 0.00081 0.38784 0.68627 0.0
C1397 C 0.97809 0.38942 0.69656 0.0
C1398 C 0.96418 0.37039 0.71278 0.0
H1399 H 0.90974 0.49611 0.63892 0.0
H1400 H 0.90962 0.45492 0.65701 0.0
C1401 C 0.9729 0.34993 0.71858 0.0
C1402 C 0.96881 0.41064 0.6897 0.0
H1403 H 0.97184 0.47612 0.70163 0.0
C1404 C 0.95789 0.40756 0.67022 0.0
C1405 C 0.97343 0.43531 0.70134 0.0
C1406 C 0.98586 0.43998 0.72219 0.0
C1407 C 0.95269 0.42923 0.66169 0.0
C1408 C 0.95793 0.45429 0.67318 0.0
C1409 C 0.96769 0.45675 0.69295 0.0
C1410 C 0.95668 0.4797 0.66421 0.0
C1411 C 0.9433 0.42594 0.64013 0.0
C1412 C 0.98288 0.50751 0.66299 0.0
C1413 C 0.98294 0.53105 0.6529 0.0
C1414 C 0.95679 0.52714 0.64379 0.0
C1415 C 0.93027 0.49961 0.64564 0.0
C1416 C 0.93019 0.47608 0.6559 0.0
H1417 H 0.94603 0.40849 0.63239 0.0
H1418 H 0.91942 0.41952 0.63927 0.0
H1419 H 0.95648 0.44734 0.63203 0.0
H1420 H 0.00355 0.51074 0.66933 0.0
H1421 H 0.00367 0.55207 0.65179 0.0
H1422 H 0.22529 0.87961 0.69281 0.0
H1423 H 0.19077 0.83493 0.67413 0.0
H1424 H 0.13137 0.86989 0.66611 0.0
H1425 H 0.16572 0.91473 0.68495 0.0
H1426 H 0.12336 0.79882 0.68735 0.0
H1427 H 0.14678 0.83874 0.60881 0.0
H1428 H 0.17504 0.85489 0.62797 0.0
H1429 H 0.14481 0.86239 0.62776 0.0
C1430 C 0.20502 0.87794 0.68691 0.0
C1431 C 0.19808 0.90055 0.69038 0.0
C1432 C 0.18542 0.85248 0.67623 0.0
C1433 C 0.1588 0.84941 0.66869 0.0
C1434 C 0.15205 0.87216 0.6717 0.0
H1435 H 0.01009 0.70333 0.60706 0.0
H1436 H 0.04778 0.75265 0.61919 0.0
C1437 C 0.17157 0.89761 0.68251 0.0
C1438 C 0.13702 0.82127 0.65913 0.0
H1439 H 0.10956 0.78861 0.61408 0.0
C1440 C 0.12027 0.79649 0.67134 0.0
C1441 C 0.13305 0.81869 0.63831 0.0
C1442 C 0.15085 0.84498 0.6248 0.0
C1443 C 0.09945 0.76891 0.66323 0.0
C1444 C 0.09601 0.76597 0.64231 0.0
C1445 C 0.11249 0.79095 0.63009 0.0
C1446 C 0.07523 0.73703 0.633 0.0
C1447 C 0.08097 0.74334 0.67718 0.0
C1448 C 0.07889 0.71226 0.63613 0.0
C1449 C 0.05735 0.68414 0.62941 0.0
C1450 C 0.03205 0.68044 0.61919 0.0
C1451 C 0.02936 0.70558 0.61496 0.0
C1452 C 0.05083 0.73371 0.62186 0.0
H1453 H 0.08037 0.75132 0.69243 0.0
H1454 H 0.05771 0.72973 0.67168 0.0
H1455 H 0.09093 0.72875 0.6782 0.0
H1456 H 0.09798 0.71456 0.64429 0.0
H1457 H 0.06012 0.66518 0.63268 0.0
H1458 H 0.08102 0.24737 0.69285 0.0
H1459 H 0.12649 0.25519 0.67614 0.0
H1460 H 0.15142 0.34664 0.66433 0.0
H1461 H 0.10598 0.33893 0.6807 0.0
H1462 H 0.16098 0.31738 0.63189 0.0
H1463 H 0.20876 0.30453 0.70295 0.0
H1464 H 0.17281 0.27386 0.69627 0.0
H1465 H 0.17663 0.30943 0.70219 0.0
C1466 C 0.09609 0.26905 0.68653 0.0
C1467 C 0.09016 0.29263 0.68822 0.0
C1468 C 0.12203 0.27349 0.67706 0.0
C1469 C 0.1424 0.30159 0.66928 0.0
C1470 C 0.13595 0.32481 0.67029 0.0
H1471 H 0.32996 0.38452 0.64901 0.0
H1472 H 0.27903 0.37015 0.65872 0.0
C1473 C 0.11005 0.32039 0.67971 0.0
C1474 C 0.17125 0.3075 0.66098 0.0
H1475 H 0.23785 0.31387 0.6741 0.0
C1476 C 0.17777 0.31643 0.64103 0.0
C1477 C 0.19311 0.30656 0.67309 0.0
C1478 C 0.18771 0.29832 0.69486 0.0
C1479 C 0.20583 0.32476 0.63288 0.0
C1480 C 0.22763 0.32379 0.64501 0.0
C1481 C 0.22095 0.31447 0.66487 0.0
C1482 C 0.25809 0.33362 0.63778 0.0
C1483 C 0.21228 0.33547 0.61161 0.0
C1484 C 0.26306 0.31797 0.62264 0.0
C1485 C 0.29216 0.32619 0.61701 0.0
C1486 C 0.31664 0.35004 0.62656 0.0
C1487 C 0.31152 0.36604 0.6414 0.0
C1488 C 0.28249 0.35786 0.64698 0.0
H1489 H 0.19537 0.34067 0.60564 0.0
H1490 H 0.23468 0.35568 0.61036 0.0
H1491 H 0.2121 0.3178 0.60218 0.0
H1492 H 0.24449 0.29891 0.61559 0.0
H1493 H 0.29549 0.31338 0.60559 0.0
H1494 H 0.68167 0.76728 0.66384 0.0
H1495 H 0.67314 0.80188 0.64396 0.0
H1496 H 0.72142 0.87123 0.68726 0.0
H1497 H 0.73075 0.837 0.7069 0.0
H1498 H 0.6415 0.82642 0.65582 0.0
H1499 H 0.75486 0.91641 0.63621 0.0
H1500 H 0.74764 0.88074 0.6456 0.0
H1501 H 0.75127 0.90939 0.66248 0.0
C1502 C 0.69094 0.79008 0.66892 0.0
C1503 C 0.70683 0.7995 0.68691 0.0
C1504 C 0.68608 0.8098 0.65754 0.0
C1505 C 0.69697 0.83923 0.66399 0.0
C1506 C 0.71349 0.84887 0.68172 0.0
H1507 H 0.62239 0.9513 0.65098 0.0
H1508 H 0.63687 0.91459 0.65975 0.0
C1509 C 0.7186 0.82923 0.69301 0.0
C1510 C 0.68833 0.85882 0.6534 0.0
H1511 H 0.71586 0.92913 0.63494 0.0
C1512 C 0.6578 0.8487 0.65094 0.0
C1513 C 0.70957 0.88771 0.64677 0.0
C1514 C 0.74266 0.89907 0.6477 0.0
C1515 C 0.6479 0.86722 0.64297 0.0
C1516 C 0.66909 0.89686 0.63777 0.0
C1517 C 0.69965 0.9065 0.63921 0.0
C1518 C 0.65996 0.91868 0.63205 0.0
C1519 C 0.6148 0.85493 0.64041 0.0
C1520 C 0.66883 0.93371 0.61377 0.0
C1521 C 0.66081 0.95498 0.60878 0.0
C1522 C 0.64393 0.96155 0.62207 0.0
C1523 C 0.63517 0.9465 0.64037 0.0
C1524 C 0.64327 0.92539 0.64535 0.0
H1525 H 0.60271 0.83028 0.63877 0.0
H1526 H 0.60591 0.86033 0.65382 0.0
H1527 H 0.61 0.86477 0.62722 0.0
H1528 H 0.68192 0.92897 0.60339 0.0
H1529 H 0.66797 0.96637 0.59462 0.0
loop_
_geom_bond_atom_site_label_1
_geom_bond_atom_site_label_2
_geom_bond_distance
_geom_bond_site_symmetry_2
_ccdc_geom_bond_type
In0 O1 2.294 . S
In0 O2 2.326 . S
In0 O6 2.266 . S
In0 O7 2.326 . S
In0 O8 2.266 . S
In0 O9 2.326 . S
In0 O11 2.294 . S
In0 O12 2.326 . S
O1 In0 2.294 . S
O1 C10 1.240 . S
O2 In0 2.326 . S
O2 C10 1.252 . S
C3 O6 1.252 . S
C3 O7 1.260 . S
C4 O11 1.240 . S
C4 O12 1.252 . S
C5 O8 1.252 . S
C5 O9 1.260 . S
O6 In0 2.266 . S
O6 C3 1.252 . S
O7 In0 2.326 . S
O7 C3 1.260 . S
O8 In0 2.266 . S
O8 C5 1.252 . S
O9 In0 2.326 . S
O9 C5 1.260 . S
C10 O1 1.240 . S
C10 O2 1.252 . S
O11 In0 2.294 . S
O11 C4 1.240 . S
O12 In0 2.326 . S
O12 C4 1.252 . S
In13 O14 2.294 . S
In13 O15 2.326 . S
In13 O19 2.266 . S
In13 O20 2.326 . S
In13 O21 2.266 . S
In13 O22 2.326 . S
In13 O24 2.294 . S
In13 O25 2.326 . S
O14 In13 2.294 . S
O14 C23 1.240 . S
O15 In13 2.326 . S
O15 C23 1.252 . S
C16 O19 1.252 . S
C16 O20 1.260 . S
C17 O24 1.240 . S
C17 O25 1.252 . S
C18 O21 1.252 . S
C18 O22 1.260 . S
O19 In13 2.266 . S
O19 C16 1.252 . S
O20 In13 2.326 . S
O20 C16 1.260 . S
O21 In13 2.266 . S
O21 C18 1.252 . S
O22 In13 2.326 . S
O22 C18 1.260 . S
C23 O14 1.240 . S
C23 O15 1.252 . S
O24 In13 2.294 . S
O24 C17 1.240 . S
O25 In13 2.326 . S
O25 C17 1.252 . S
In26 O27 2.294 . S
In26 O28 2.326 . S
In26 O32 2.266 . S
In26 O33 2.326 . S
In26 O34 2.266 . S
In26 O35 2.326 . S
In26 O37 2.294 . S
In26 O38 2.326 . S
O27 In26 2.294 . S
O27 C36 1.240 . S
O28 In26 2.326 . S
O28 C36 1.252 . S
C29 O32 1.252 . S
C29 O33 1.260 . S
C30 O37 1.240 . S
C30 O38 1.252 . S
C31 O34 1.252 . S
C31 O35 1.260 . S
O32 In26 2.266 . S
O32 C29 1.252 . S
O33 In26 2.326 . S
O33 C29 1.260 . S
O34 In26 2.266 . S
O34 C31 1.252 . S
O35 In26 2.326 . S
O35 C31 1.260 . S
C36 O27 1.240 . S
C36 O28 1.252 . S
O37 In26 2.294 . S
O37 C30 1.240 . S
O38 In26 2.326 . S
O38 C30 1.252 . S
In39 O40 2.294 . S
In39 O41 2.326 . S
In39 O45 2.266 . S
In39 O46 2.326 . S
In39 O47 2.266 . S
In39 O48 2.326 . S
In39 O50 2.294 . S
In39 O51 2.326 . S
O40 In39 2.294 . S
O40 C49 1.240 . S
O41 In39 2.326 . S
O41 C49 1.252 . S
C42 O45 1.252 . S
C42 O46 1.260 . S
C43 O50 1.240 . S
C43 O51 1.252 . S
C44 O47 1.252 . S
C44 O48 1.260 . S
O45 In39 2.266 . S
O45 C42 1.252 . S
O46 In39 2.326 . S
O46 C42 1.260 . S
O47 In39 2.266 . S
O47 C44 1.252 . S
O48 In39 2.326 . S
O48 C44 1.260 . S
C49 O40 1.240 . S
C49 O41 1.252 . S
O50 In39 2.294 . S
O50 C43 1.240 . S
O51 In39 2.326 . S
O51 C43 1.252 . S
In52 O53 2.294 . S
In52 O54 2.326 . S
In52 O58 2.266 . S
In52 O59 2.326 . S
In52 O60 2.266 . S
In52 O61 2.326 . S
In52 O63 2.294 . S
In52 O64 2.326 . S
O53 In52 2.294 . S
O53 C62 1.240 . S
O54 In52 2.326 . S
O54 C62 1.252 . S
C55 O58 1.252 . S
C55 O59 1.260 . S
C56 O63 1.240 . S
C56 O64 1.252 . S
C57 O60 1.252 . S
C57 O61 1.260 . S
O58 In52 2.266 . S
O58 C55 1.252 . S
O59 In52 2.326 . S
O59 C55 1.260 . S
O60 In52 2.266 . S
O60 C57 1.252 . S
O61 In52 2.326 . S
O61 C57 1.260 . S
C62 O53 1.240 . S
C62 O54 1.252 . S
O63 In52 2.294 . S
O63 C56 1.240 . S
O64 In52 2.326 . S
O64 C56 1.252 . S
In65 O66 2.294 . S
In65 O67 2.326 . S
In65 O71 2.266 . S
In65 O72 2.326 . S
In65 O73 2.266 . S
In65 O74 2.326 . S
In65 O76 2.294 . S
In65 O77 2.326 . S
O66 In65 2.294 . S
O66 C75 1.240 . S
O67 In65 2.326 . S
O67 C75 1.252 . S
C68 O71 1.252 . S
C68 O72 1.260 . S
C69 O76 1.240 . S
C69 O77 1.252 . S
C70 O73 1.252 . S
C70 O74 1.260 . S
O71 In65 2.266 . S
O71 C68 1.252 . S
O72 In65 2.326 . S
O72 C68 1.260 . S
O73 In65 2.266 . S
O73 C70 1.252 . S
O74 In65 2.326 . S
O74 C70 1.260 . S
C75 O66 1.240 . S
C75 O67 1.252 . S
O76 In65 2.294 . S
O76 C69 1.240 . S
O77 In65 2.326 . S
O77 C69 1.252 . S
In78 O79 2.294 . S
In78 O80 2.326 . S
In78 O84 2.266 1_455 S
In78 O85 2.326 . S
In78 O86 2.266 . S
In78 O87 2.326 . S
In78 O89 2.294 . S
In78 O90 2.326 1_455 S
O79 In78 2.294 . S
O79 C88 1.240 . S
O80 In78 2.326 . S
O80 C88 1.252 . S
C81 O84 1.252 . S
C81 O85 1.260 1_655 S
C82 O89 1.240 . S
C82 O90 1.252 1_455 S
C83 O86 1.252 . S
C83 O87 1.260 . S
O84 In78 2.266 1_655 S
O84 C81 1.252 . S
O85 In78 2.326 . S
O85 C81 1.260 1_455 S
O86 In78 2.266 . S
O86 C83 1.252 . S
O87 In78 2.326 . S
O87 C83 1.260 . S
C88 O79 1.240 . S
C88 O80 1.252 . S
O89 In78 2.294 . S
O89 C82 1.240 . S
O90 In78 2.326 1_655 S
O90 C82 1.252 1_655 S
In91 O92 2.294 . S
In91 O93 2.326 . S
In91 O97 2.266 . S
In91 O98 2.326 . S
In91 O99 2.266 . S
In91 O100 2.326 . S
In91 O102 2.294 . S
In91 O103 2.326 . S
O92 In91 2.294 . S
O92 C101 1.240 . S
O93 In91 2.326 . S
O93 C101 1.252 . S
C94 O97 1.252 . S
C94 O98 1.260 . S
C95 O102 1.240 . S
C95 O103 1.252 . S
C96 O99 1.252 . S
C96 O100 1.260 . S
O97 In91 2.266 . S
O97 C94 1.252 . S
O98 In91 2.326 . S
O98 C94 1.260 . S
O99 In91 2.266 . S
O99 C96 1.252 . S
O100 In91 2.326 . S
O100 C96 1.260 . S
C101 O92 1.240 . S
C101 O93 1.252 . S
O102 In91 2.294 . S
O102 C95 1.240 . S
O103 In91 2.326 . S
O103 C95 1.252 . S
In104 O105 2.294 . S
In104 O106 2.326 1_565 S
In104 O110 2.266 . S
In104 O111 2.326 . S
In104 O112 2.266 1_565 S
In104 O113 2.326 . S
In104 O115 2.294 . S
In104 O116 2.326 . S
O105 In104 2.294 . S
O105 C114 1.240 . S
O106 In104 2.326 1_545 S
O106 C114 1.252 1_545 S
C107 O110 1.252 . S
C107 O111 1.260 . S
C108 O115 1.240 . S
C108 O116 1.252 . S
C109 O112 1.252 . S
C109 O113 1.260 1_545 S
O110 In104 2.266 . S
O110 C107 1.252 . S
O111 In104 2.326 . S
O111 C107 1.260 . S
O112 In104 2.266 1_545 S
O112 C109 1.252 . S
O113 In104 2.326 . S
O113 C109 1.260 1_565 S
C114 O105 1.240 . S
C114 O106 1.252 1_565 S
O115 In104 2.294 . S
O115 C108 1.240 . S
O116 In104 2.326 . S
O116 C108 1.252 . S
In117 O118 2.294 . S
In117 O119 2.326 . S
In117 O123 2.266 . S
In117 O124 2.326 . S
In117 O125 2.266 . S
In117 O126 2.326 . S
In117 O128 2.294 . S
In117 O129 2.326 . S
O118 In117 2.294 . S
O118 C127 1.240 . S
O119 In117 2.326 . S
O119 C127 1.252 . S
C120 O123 1.252 . S
C120 O124 1.260 . S
C121 O128 1.240 . S
C121 O129 1.252 . S
C122 O125 1.252 . S
C122 O126 1.260 . S
O123 In117 2.266 . S
O123 C120 1.252 . S
O124 In117 2.326 . S
O124 C120 1.260 . S
O125 In117 2.266 . S
O125 C122 1.252 . S
O126 In117 2.326 . S
O126 C122 1.260 . S
C127 O118 1.240 . S
C127 O119 1.252 . S
O128 In117 2.294 . S
O128 C121 1.240 . S
O129 In117 2.326 . S
O129 C121 1.252 . S
In130 O131 2.294 . S
In130 O132 2.326 . S
In130 O136 2.266 . S
In130 O137 2.326 . S
In130 O138 2.266 . S
In130 O139 2.326 1_545 S
In130 O141 2.294 . S
In130 O142 2.326 . S
O131 In130 2.294 . S
O131 C140 1.240 . S
O132 In130 2.326 . S
O132 C140 1.252 . S
C133 O136 1.252 . S
C133 O137 1.260 . S
C134 O141 1.240 . S
C134 O142 1.252 . S
C135 O138 1.252 1_565 S
C135 O139 1.260 . S
O136 In130 2.266 . S
O136 C133 1.252 . S
O137 In130 2.326 . S
O137 C133 1.260 . S
O138 In130 2.266 . S
O138 C135 1.252 1_545 S
O139 In130 2.326 1_565 S
O139 C135 1.260 . S
C140 O131 1.240 . S
C140 O132 1.252 . S
O141 In130 2.294 . S
O141 C134 1.240 . S
O142 In130 2.326 . S
O142 C134 1.252 . S
In143 O144 2.294 . S
In143 O145 2.326 . S
In143 O149 2.266 . S
In143 O150 2.326 1_655 S
In143 O151 2.266 . S
In143 O152 2.326 . S
In143 O154 2.294 . S
In143 O155 2.326 . S
O144 In143 2.294 . S
O144 C153 1.240 . S
O145 In143 2.326 . S
O145 C153 1.252 . S
C146 O149 1.252 1_455 S
C146 O150 1.260 . S
C147 O154 1.240 . S
C147 O155 1.252 . S
C148 O151 1.252 . S
C148 O152 1.260 . S
O149 In143 2.266 . S
O149 C146 1.252 1_655 S
O150 In143 2.326 1_455 S
O150 C146 1.260 . S
O151 In143 2.266 . S
O151 C148 1.252 . S
O152 In143 2.326 . S
O152 C148 1.260 . S
C153 O144 1.240 . S
C153 O145 1.252 . S
O154 In143 2.294 . S
O154 C147 1.240 . S
O155 In143 2.326 . S
O155 C147 1.252 . S
In156 O157 2.294 . S
In156 O158 2.326 . S
In156 O162 2.266 . S
In156 O163 2.326 . S
In156 O164 2.266 . S
In156 O165 2.326 . S
In156 O167 2.294 . S
In156 O168 2.326 . S
O157 In156 2.294 . S
O157 C166 1.240 . S
O158 In156 2.326 . S
O158 C166 1.252 . S
C159 O162 1.252 . S
C159 O163 1.260 . S
C160 O167 1.240 . S
C160 O168 1.252 . S
C161 O164 1.252 . S
C161 O165 1.260 . S
O162 In156 2.266 . S
O162 C159 1.252 . S
O163 In156 2.326 . S
O163 C159 1.260 . S
O164 In156 2.266 . S
O164 C161 1.252 . S
O165 In156 2.326 . S
O165 C161 1.260 . S
C166 O157 1.240 . S
C166 O158 1.252 . S
O167 In156 2.294 . S
O167 C160 1.240 . S
O168 In156 2.326 . S
O168 C160 1.252 . S
In169 O170 2.294 . S
In169 O171 2.326 . S
In169 O175 2.266 . S
In169 O176 2.326 . S
In169 O177 2.266 . S
In169 O178 2.326 1_565 S
In169 O180 2.294 . S
In169 O181 2.326 . S
O170 In169 2.294 . S
O170 C179 1.240 . S
O171 In169 2.326 . S
O171 C179 1.252 . S
C172 O175 1.252 . S
C172 O176 1.260 . S
C173 O180 1.240 . S
C173 O181 1.252 . S
C174 O177 1.252 1_545 S
C174 O178 1.260 . S
O175 In169 2.266 . S
O175 C172 1.252 . S
O176 In169 2.326 . S
O176 C172 1.260 . S
O177 In169 2.266 . S
O177 C174 1.252 1_565 S
O178 In169 2.326 1_545 S
O178 C174 1.260 . S
C179 O170 1.240 . S
C179 O171 1.252 . S
O180 In169 2.294 . S
O180 C173 1.240 . S
O181 In169 2.326 . S
O181 C173 1.252 . S
In182 O183 2.294 . S
In182 O184 2.326 . S
In182 O188 2.266 . S
In182 O189 2.326 . S
In182 O190 2.266 . S
In182 O191 2.326 1_455 S
In182 O193 2.294 . S
In182 O194 2.326 . S
O183 In182 2.294 . S
O183 C192 1.240 . S
O184 In182 2.326 . S
O184 C192 1.252 . S
C185 O188 1.252 . S
C185 O189 1.260 . S
C186 O193 1.240 . S
C186 O194 1.252 . S
C187 O190 1.252 1_655 S
C187 O191 1.260 . S
O188 In182 2.266 . S
O188 C185 1.252 . S
O189 In182 2.326 . S
O189 C185 1.260 . S
O190 In182 2.266 . S
O190 C187 1.252 1_455 S
O191 In182 2.326 1_655 S
O191 C187 1.260 . S
C192 O183 1.240 . S
C192 O184 1.252 . S
O193 In182 2.294 . S
O193 C186 1.240 . S
O194 In182 2.326 . S
O194 C186 1.252 . S
In195 O196 2.294 . S
In195 O197 2.326 1_655 S
In195 O201 2.266 . S
In195 O202 2.326 . S
In195 O203 2.266 1_655 S
In195 O204 2.326 . S
In195 O206 2.294 . S
In195 O207 2.326 . S
O196 In195 2.294 . S
O196 C205 1.240 . S
O197 In195 2.326 1_455 S
O197 C205 1.252 1_455 S
C198 O201 1.252 . S
C198 O202 1.260 . S
C199 O206 1.240 . S
C199 O207 1.252 . S
C200 O203 1.252 . S
C200 O204 1.260 1_455 S
O201 In195 2.266 . S
O201 C198 1.252 . S
O202 In195 2.326 . S
O202 C198 1.260 . S
O203 In195 2.266 1_455 S
O203 C200 1.252 . S
O204 In195 2.326 . S
O204 C200 1.260 1_655 S
C205 O196 1.240 . S
C205 O197 1.252 1_655 S
O206 In195 2.294 . S
O206 C199 1.240 . S
O207 In195 2.326 . S
O207 C199 1.252 . S
In208 O209 2.294 . S
In208 O210 2.326 . S
In208 O214 2.266 . S
In208 O215 2.326 . S
In208 O216 2.266 . S
In208 O217 2.326 . S
In208 O219 2.294 . S
In208 O220 2.326 . S
O209 In208 2.294 . S
O209 C218 1.240 . S
O210 In208 2.326 . S
O210 C218 1.252 . S
C211 O214 1.252 . S
C211 O215 1.260 . S
C212 O219 1.240 . S
C212 O220 1.252 . S
C213 O216 1.252 . S
C213 O217 1.260 . S
O214 In208 2.266 . S
O214 C211 1.252 . S
O215 In208 2.326 . S
O215 C211 1.260 . S
O216 In208 2.266 . S
O216 C213 1.252 . S
O217 In208 2.326 . S
O217 C213 1.260 . S
C218 O209 1.240 . S
C218 O210 1.252 . S
O219 In208 2.294 . S
O219 C212 1.240 . S
O220 In208 2.326 . S
O220 C212 1.252 . S
In221 O222 2.294 . S
In221 O223 2.326 1_545 S
In221 O227 2.266 . S
In221 O228 2.326 . S
In221 O229 2.266 1_545 S
In221 O230 2.326 . S
In221 O232 2.294 . S
In221 O233 2.326 . S
O222 In221 2.294 . S
O222 C231 1.240 . S
O223 In221 2.326 1_565 S
O223 C231 1.252 1_565 S
C224 O227 1.252 . S
C224 O228 1.260 . S
C225 O232 1.240 . S
C225 O233 1.252 . S
C226 O229 1.252 . S
C226 O230 1.260 1_565 S
O227 In221 2.266 . S
O227 C224 1.252 . S
O228 In221 2.326 . S
O228 C224 1.260 . S
O229 In221 2.266 1_565 S
O229 C226 1.252 . S
O230 In221 2.326 . S
O230 C226 1.260 1_545 S
C231 O222 1.240 . S
C231 O223 1.252 1_545 S
O232 In221 2.294 . S
O232 C225 1.240 . S
O233 In221 2.326 . S
O233 C225 1.252 . S
H234 C242 0.929 1_565 S
H235 C244 0.932 . S
H236 C246 0.930 . S
H237 C249 0.929 . S
H238 C252 0.914 1_545 S
H239 C254 0.960 . S
H240 C254 0.953 1_565 S
H241 C254 0.960 . S
C242 H234 0.929 1_545 S
C242 C243 1.377 . S
C242 C244 1.382 1_545 S
C243 C242 1.377 . S
C243 C249 1.390 . S
C244 H235 0.932 . S
C244 C242 1.382 1_565 S
C244 C245 1.372 1_565 S
C245 C244 1.372 1_545 S
C245 C246 1.400 . S
C245 C250 1.490 . S
C246 H236 0.930 . S
C246 C245 1.400 . S
C246 C249 1.386 . S
H247 C263 0.930 1_545 S
H248 C264 0.910 1_545 S
C249 H237 0.929 . S
C249 C243 1.390 . S
C249 C246 1.386 . S
C250 C245 1.490 . S
C250 C252 1.390 1_544 S
C250 C253 1.403 . S
H251 C257 0.930 . S
C252 H238 0.914 1_565 S
C252 C250 1.390 1_566 S
C252 C255 1.417 . S
C253 C250 1.403 . S
C253 C254 1.524 . S
C253 C257 1.400 1_545 S
C254 H239 0.960 . S
C254 H240 0.953 1_545 S
C254 H241 0.960 . S
C254 C253 1.524 . S
C255 C252 1.417 . S
C255 C256 1.392 . S
C255 C259 1.495 . S
C256 C255 1.392 . S
C256 C257 1.385 1_556 S
C256 C258 1.478 . S
C257 H251 0.930 . S
C257 C253 1.400 1_565 S
C257 C256 1.385 1_554 S
C258 C256 1.478 . S
C258 C260 1.381 . S
C258 C264 1.387 . S
C259 C255 1.495 . S
C259 H265 0.959 . S
C259 H266 0.961 . S
C259 H267 0.960 . S
C260 C258 1.381 . S
C260 C261 1.394 . S
C260 H268 0.930 . S
C261 C260 1.394 . S
C261 C262 1.383 . S
C261 H269 0.929 . S
C262 C261 1.383 . S
C262 C263 1.377 . S
C263 H247 0.930 1_565 S
C263 C262 1.377 . S
C263 C264 1.396 . S
C264 H248 0.910 1_565 S
C264 C258 1.387 . S
C264 C263 1.396 . S
H265 C259 0.959 . S
H266 C259 0.961 . S
H267 C259 0.960 . S
H268 C260 0.930 . S
H269 C261 0.929 . S
H270 C278 0.929 . S
H271 C280 0.930 . S
H272 C282 0.916 1_455 S
H273 C285 0.929 1_455 S
H274 C288 0.930 . S
H275 C290 0.960 . S
H276 C290 0.960 1_655 S
H277 C290 0.960 . S
C278 H270 0.929 . S
C278 C279 1.377 . S
C278 C280 1.384 . S
C279 C278 1.377 . S
C279 C285 1.390 . S
C280 H271 0.930 . S
C280 C278 1.384 . S
C280 C281 1.372 . S
C281 C280 1.372 . S
C281 C282 1.417 . S
C281 C286 1.490 . S
C282 H272 0.916 1_655 S
C282 C281 1.417 . S
C282 C285 1.382 . S
H283 C299 0.930 . S
H284 C300 0.931 . S
C285 H273 0.929 1_655 S
C285 C279 1.390 . S
C285 C282 1.382 . S
C286 C281 1.490 . S
C286 C288 1.395 . S
C286 C289 1.403 1_654 S
H287 C293 0.930 . S
C288 H274 0.930 . S
C288 C286 1.395 . S
C288 C291 1.403 . S
C289 C286 1.403 1_456 S
C289 C290 1.524 . S
C289 C293 1.400 . S
C290 H275 0.960 . S
C290 H276 0.960 1_455 S
C290 H277 0.960 . S
C290 C289 1.524 . S
C291 C288 1.403 . S
C291 C292 1.392 1_654 S
C291 C295 1.495 . S
C292 C291 1.392 1_456 S
C292 C293 1.385 . S
C292 C294 1.478 . S
C293 H287 0.930 . S
C293 C289 1.400 . S
C293 C292 1.385 . S
C294 C292 1.478 . S
C294 C296 1.381 1_455 S
C294 C300 1.383 . S
C295 C291 1.495 . S
C295 H301 0.959 . S
C295 H302 0.961 1_655 S
C295 H303 0.960 . S
C296 C294 1.381 1_655 S
C296 C297 1.394 1_655 S
C296 H304 0.930 . S
C297 C296 1.394 1_455 S
C297 C298 1.383 . S
C297 H305 0.929 1_455 S
C298 C297 1.383 . S
C298 C299 1.377 . S
C299 H283 0.930 . S
C299 C298 1.377 . S
C299 C300 1.379 . S
C300 H284 0.931 . S
C300 C294 1.383 . S
C300 C299 1.379 . S
H301 C295 0.959 . S
H302 C295 0.961 1_455 S
H303 C295 0.960 . S
H304 C296 0.930 . S
H305 C297 0.929 1_655 S
H306 C314 0.929 . S
H307 C316 0.915 1_554 S
H308 C318 0.930 . S
H309 C321 0.929 . S
H310 C324 0.930 . S
H311 C326 0.960 . S
H312 C326 0.960 . S
H313 C326 0.960 1_556 S
C314 H306 0.929 . S
C314 C315 1.377 . S
C314 C316 1.384 . S
C315 C314 1.377 . S
C315 C321 1.390 . S
C316 H307 0.915 1_556 S
C316 C314 1.384 . S
C316 C317 1.372 . S
C317 C316 1.372 . S
C317 C318 1.400 . S
C317 C322 1.490 . S
C318 H308 0.930 . S
C318 C317 1.400 . S
C318 C321 1.386 . S
H319 C335 0.930 . S
H320 C336 0.931 1_556 S
C321 H309 0.929 . S
C321 C315 1.390 . S
C321 C318 1.386 . S
C322 C317 1.490 . S
C322 C324 1.395 . S
C322 C325 1.403 1_556 S
H323 C329 0.930 . S
C324 H310 0.930 . S
C324 C322 1.395 . S
C324 C327 1.426 . S
C325 C322 1.403 1_554 S
C325 C326 1.524 . S
C325 C329 1.400 . S
C326 H311 0.960 . S
C326 H312 0.960 . S
C326 H313 0.960 1_554 S
C326 C325 1.524 . S
C327 C324 1.426 . S
C327 C328 1.368 1_556 S
C327 C331 1.501 . S
C328 C327 1.368 1_554 S
C328 C329 1.385 . S
C328 C330 1.478 . S
C329 H323 0.930 . S
C329 C325 1.400 . S
C329 C328 1.385 . S
C330 C328 1.478 . S
C330 C332 1.381 . S
C330 C336 1.383 . S
C331 C327 1.501 . S
C331 H337 0.959 . S
C331 H338 0.961 . S
C331 H339 0.960 1_556 S
C332 C330 1.381 . S
C332 C333 1.394 . S
C332 H340 0.930 . S
C333 C332 1.394 . S
C333 C334 1.383 . S
C333 H341 0.929 . S
C334 C333 1.383 . S
C334 C335 1.377 . S
C335 H319 0.930 . S
C335 C334 1.377 . S
C335 C336 1.379 . S
C336 H320 0.931 1_554 S
C336 C330 1.383 . S
C336 C335 1.379 . S
H337 C331 0.959 . S
H338 C331 0.961 . S
H339 C331 0.960 1_554 S
H340 C332 0.930 . S
H341 C333 0.929 . S
H342 C350 0.929 . S
H343 C352 0.930 . S
H344 C354 0.930 . S
H345 C357 0.929 . S
H346 C360 0.930 . S
H347 C362 0.960 . S
H348 C362 0.960 . S
H349 C362 0.960 . S
C350 H342 0.929 . S
C350 C351 1.377 . S
C350 C352 1.384 . S
C351 C350 1.377 . S
C351 C357 1.390 . S
C352 H343 0.930 . S
C352 C350 1.384 . S
C352 C353 1.372 . S
C353 C352 1.372 . S
C353 C354 1.400 . S
C353 C358 1.490 . S
C354 H344 0.930 . S
C354 C353 1.400 . S
C354 C357 1.386 . S
H355 C371 0.930 . S
H356 C372 0.931 . S
C357 H345 0.929 . S
C357 C351 1.390 . S
C357 C354 1.386 . S
C358 C353 1.490 . S
C358 C360 1.395 . S
C358 C361 1.403 . S
H359 C365 0.930 . S
C360 H346 0.930 . S
C360 C358 1.395 . S
C360 C363 1.403 . S
C361 C358 1.403 . S
C361 C362 1.524 . S
C361 C365 1.400 . S
C362 H347 0.960 . S
C362 H348 0.960 . S
C362 H349 0.960 . S
C362 C361 1.524 . S
C363 C360 1.403 . S
C363 C364 1.392 . S
C363 C367 1.495 . S
C364 C363 1.392 . S
C364 C365 1.385 . S
C364 C366 1.478 . S
C365 H359 0.930 . S
C365 C361 1.400 . S
C365 C364 1.385 . S
C366 C364 1.478 . S
C366 C368 1.381 . S
C366 C372 1.383 . S
C367 C363 1.495 . S
C367 H373 0.959 . S
C367 H374 0.961 . S
C367 H375 0.960 . S
C368 C366 1.381 . S
C368 C369 1.394 . S
C368 H376 0.930 . S
C369 C368 1.394 . S
C369 C370 1.383 . S
C369 H377 0.929 . S
C370 C369 1.383 . S
C370 C371 1.377 . S
C371 H355 0.930 . S
C371 C370 1.377 . S
C371 C372 1.379 . S
C372 H356 0.931 . S
C372 C366 1.383 . S
C372 C371 1.379 . S
H373 C367 0.959 . S
H374 C367 0.961 . S
H375 C367 0.960 . S
H376 C368 0.930 . S
H377 C369 0.929 . S
H378 C386 0.929 . S
H379 C388 0.930 . S
H380 C390 0.930 . S
H381 C393 0.929 . S
H382 C396 0.930 . S
H383 C398 0.960 . S
H384 C398 0.960 . S
H385 C398 0.960 . S
C386 H378 0.929 . S
C386 C387 1.377 . S
C386 C388 1.384 . S
C387 C386 1.377 . S
C387 C393 1.390 . S
C388 H379 0.930 . S
C388 C386 1.384 . S
C388 C389 1.372 . S
C389 C388 1.372 . S
C389 C390 1.400 . S
C389 C394 1.490 . S
C390 H380 0.930 . S
C390 C389 1.400 . S
C390 C393 1.386 . S
H391 C407 0.930 . S
H392 C408 0.931 . S
C393 H381 0.929 . S
C393 C387 1.390 . S
C393 C390 1.386 . S
C394 C389 1.490 . S
C394 C396 1.395 . S
C394 C397 1.403 . S
H395 C401 0.930 . S
C396 H382 0.930 . S
C396 C394 1.395 . S
C396 C399 1.403 . S
C397 C394 1.403 . S
C397 C398 1.524 . S
C397 C401 1.400 . S
C398 H383 0.960 . S
C398 H384 0.960 . S
C398 H385 0.960 . S
C398 C397 1.524 . S
C399 C396 1.403 . S
C399 C400 1.392 . S
C399 C403 1.495 . S
C400 C399 1.392 . S
C400 C401 1.385 . S
C400 C402 1.478 . S
C401 H395 0.930 . S
C401 C397 1.400 . S
C401 C400 1.385 . S
C402 C400 1.478 . S
C402 C404 1.381 . S
C402 C408 1.383 . S
C403 C399 1.495 . S
C403 H409 0.959 . S
C403 H410 0.961 . S
C403 H411 0.960 . S
C404 C402 1.381 . S
C404 C405 1.394 . S
C404 H412 0.930 . S
C405 C404 1.394 . S
C405 C406 1.383 . S
C405 H413 0.929 . S
C406 C405 1.383 . S
C406 C407 1.377 . S
C407 H391 0.930 . S
C407 C406 1.377 . S
C407 C408 1.379 . S
C408 H392 0.931 . S
C408 C402 1.383 . S
C408 C407 1.379 . S
H409 C403 0.959 . S
H410 C403 0.961 . S
H411 C403 0.960 . S
H412 C404 0.930 . S
H413 C405 0.929 . S
H414 C422 0.929 . S
H415 C424 0.930 . S
H416 C426 0.930 . S
H417 C429 0.929 . S
H418 C432 0.930 . S
H419 C434 0.960 . S
H420 C434 0.960 . S
H421 C434 0.960 . S
C422 H414 0.929 . S
C422 C423 1.377 . S
C422 C424 1.384 . S
C423 C422 1.377 . S
C423 C429 1.390 . S
C424 H415 0.930 . S
C424 C422 1.384 . S
C424 C425 1.372 . S
C425 C424 1.372 . S
C425 C426 1.400 . S
C425 C430 1.490 . S
C426 H416 0.930 . S
C426 C425 1.400 . S
C426 C429 1.386 . S
H427 C443 0.930 . S
H428 C444 0.931 . S
C429 H417 0.929 . S
C429 C423 1.390 . S
C429 C426 1.386 . S
C430 C425 1.490 . S
C430 C432 1.395 . S
C430 C433 1.403 . S
H431 C437 0.930 . S
C432 H418 0.930 . S
C432 C430 1.395 . S
C432 C435 1.403 . S
C433 C430 1.403 . S
C433 C434 1.524 . S
C433 C437 1.400 . S
C434 H419 0.960 . S
C434 H420 0.960 . S
C434 H421 0.960 . S
C434 C433 1.524 . S
C435 C432 1.403 . S
C435 C436 1.392 . S
C435 C439 1.495 . S
C436 C435 1.392 . S
C436 C437 1.385 . S
C436 C438 1.478 . S
C437 H431 0.930 . S
C437 C433 1.400 . S
C437 C436 1.385 . S
C438 C436 1.478 . S
C438 C440 1.381 . S
C438 C444 1.383 . S
C439 C435 1.495 . S
C439 H445 0.959 . S
C439 H446 0.961 . S
C439 H447 0.960 . S
C440 C438 1.381 . S
C440 C441 1.394 . S
C440 H448 0.930 . S
C441 C440 1.394 . S
C441 C442 1.383 . S
C441 H449 0.929 . S
C442 C441 1.383 . S
C442 C443 1.377 . S
C443 H427 0.930 . S
C443 C442 1.377 . S
C443 C444 1.379 . S
C444 H428 0.931 . S
C444 C438 1.383 . S
C444 C443 1.379 . S
H445 C439 0.959 . S
H446 C439 0.961 . S
H447 C439 0.960 . S
H448 C440 0.930 . S
H449 C441 0.929 . S
H450 C458 0.929 . S
H451 C460 0.930 . S
H452 C462 0.930 . S
H453 C465 0.929 . S
H454 C468 0.930 . S
H455 C470 0.960 . S
H456 C470 0.960 . S
H457 C470 0.960 . S
C458 H450 0.929 . S
C458 C459 1.377 . S
C458 C460 1.384 . S
C459 C458 1.377 . S
C459 C465 1.390 . S
C460 H451 0.930 . S
C460 C458 1.384 . S
C460 C461 1.372 . S
C461 C460 1.372 . S
C461 C462 1.400 . S
C461 C466 1.490 . S
C462 H452 0.930 . S
C462 C461 1.400 . S
C462 C465 1.386 . S
H463 C479 0.930 . S
H464 C480 0.931 . S
C465 H453 0.929 . S
C465 C459 1.390 . S
C465 C462 1.386 . S
C466 C461 1.490 . S
C466 C468 1.395 . S
C466 C469 1.403 . S
H467 C473 0.930 . S
C468 H454 0.930 . S
C468 C466 1.395 . S
C468 C471 1.403 . S
C469 C466 1.403 . S
C469 C470 1.524 . S
C469 C473 1.400 . S
C470 H455 0.960 . S
C470 H456 0.960 . S
C470 H457 0.960 . S
C470 C469 1.524 . S
C471 C468 1.403 . S
C471 C472 1.392 . S
C471 C475 1.495 . S
C472 C471 1.392 . S
C472 C473 1.385 . S
C472 C474 1.478 . S
C473 H467 0.930 . S
C473 C469 1.400 . S
C473 C472 1.385 . S
C474 C472 1.478 . S
C474 C476 1.381 . S
C474 C480 1.383 . S
C475 C471 1.495 . S
C475 H481 0.959 . S
C475 H482 0.961 . S
C475 H483 0.960 . S
C476 C474 1.381 . S
C476 C477 1.394 . S
C476 H484 0.930 . S
C477 C476 1.394 . S
C477 C478 1.383 . S
C477 H485 0.929 . S
C478 C477 1.383 . S
C478 C479 1.377 . S
C479 H463 0.930 . S
C479 C478 1.377 . S
C479 C480 1.379 . S
C480 H464 0.931 . S
C480 C474 1.383 . S
C480 C479 1.379 . S
H481 C475 0.959 . S
H482 C475 0.961 . S
H483 C475 0.960 . S
H484 C476 0.930 . S
H485 C477 0.929 . S
H486 C494 0.929 . S
H487 C496 0.930 . S
H488 C498 0.930 . S
H489 C501 0.929 . S
H490 C504 0.930 . S
H491 C506 0.960 . S
H492 C506 0.960 . S
H493 C506 0.960 . S
C494 H486 0.929 . S
C494 C495 1.377 . S
C494 C496 1.384 . S
C495 C494 1.377 . S
C495 C501 1.390 . S
C496 H487 0.930 . S
C496 C494 1.384 . S
C496 C497 1.372 . S
C497 C496 1.372 . S
C497 C498 1.400 . S
C497 C502 1.490 . S
C498 H488 0.930 . S
C498 C497 1.400 . S
C498 C501 1.386 . S
H499 C515 0.930 . S
H500 C516 0.931 . S
C501 H489 0.929 . S
C501 C495 1.390 . S
C501 C498 1.386 . S
C502 C497 1.490 . S
C502 C504 1.395 . S
C502 C505 1.403 . S
H503 C509 0.930 . S
C504 H490 0.930 . S
C504 C502 1.395 . S
C504 C507 1.403 . S
C505 C502 1.403 . S
C505 C506 1.524 . S
C505 C509 1.400 . S
C506 H491 0.960 . S
C506 H492 0.960 . S
C506 H493 0.960 . S
C506 C505 1.524 . S
C507 C504 1.403 . S
C507 C508 1.392 . S
C507 C511 1.495 . S
C508 C507 1.392 . S
C508 C509 1.385 . S
C508 C510 1.478 . S
C509 H503 0.930 . S
C509 C505 1.400 . S
C509 C508 1.385 . S
C510 C508 1.478 . S
C510 C512 1.381 . S
C510 C516 1.383 . S
C511 C507 1.495 . S
C511 H517 0.959 . S
C511 H518 0.961 . S
C511 H519 0.960 . S
C512 C510 1.381 . S
C512 C513 1.394 . S
C512 H520 0.930 . S
C513 C512 1.394 . S
C513 C514 1.383 . S
C513 H521 0.929 . S
C514 C513 1.383 . S
C514 C515 1.377 . S
C515 H499 0.930 . S
C515 C514 1.377 . S
C515 C516 1.379 . S
C516 H500 0.931 . S
C516 C510 1.383 . S
C516 C515 1.379 . S
H517 C511 0.959 . S
H518 C511 0.961 . S
H519 C511 0.960 . S
H520 C512 0.930 . S
H521 C513 0.929 . S
H522 C530 0.929 . S
H523 C532 0.930 . S
H524 C534 0.930 . S
H525 C537 0.929 . S
H526 C540 0.930 . S
H527 C542 0.960 . S
H528 C542 0.960 . S
H529 C542 0.960 . S
C530 H522 0.929 . S
C530 C531 1.377 . S
C530 C532 1.384 . S
C531 C530 1.377 . S
C531 C537 1.390 . S
C532 H523 0.930 . S
C532 C530 1.384 . S
C532 C533 1.372 . S
C533 C532 1.372 . S
C533 C534 1.400 . S
C533 C538 1.490 . S
C534 H524 0.930 . S
C534 C533 1.400 . S
C534 C537 1.386 . S
H535 C551 0.930 . S
H536 C552 0.931 . S
C537 H525 0.929 . S
C537 C531 1.390 . S
C537 C534 1.386 . S
C538 C533 1.490 . S
C538 C540 1.395 . S
C538 C541 1.403 . S
H539 C545 0.930 . S
C540 H526 0.930 . S
C540 C538 1.395 . S
C540 C543 1.403 . S
C541 C538 1.403 . S
C541 C542 1.524 . S
C541 C545 1.400 . S
C542 H527 0.960 . S
C542 H528 0.960 . S
C542 H529 0.960 . S
C542 C541 1.524 . S
C543 C540 1.403 . S
C543 C544 1.392 . S
C543 C547 1.495 . S
C544 C543 1.392 . S
C544 C545 1.385 . S
C544 C546 1.478 . S
C545 H539 0.930 . S
C545 C541 1.400 . S
C545 C544 1.385 . S
C546 C544 1.478 . S
C546 C548 1.381 . S
C546 C552 1.383 . S
C547 C543 1.495 . S
C547 H553 0.959 . S
C547 H554 0.961 . S
C547 H555 0.960 . S
C548 C546 1.381 . S
C548 C549 1.394 . S
C548 H556 0.930 . S
C549 C548 1.394 . S
C549 C550 1.383 . S
C549 H557 0.929 . S
C550 C549 1.383 . S
C550 C551 1.377 . S
C551 H535 0.930 . S
C551 C550 1.377 . S
C551 C552 1.379 . S
C552 H536 0.931 . S
C552 C546 1.383 . S
C552 C551 1.379 . S
H553 C547 0.959 . S
H554 C547 0.961 . S
H555 C547 0.960 . S
H556 C548 0.930 . S
H557 C549 0.929 . S
H558 C566 0.929 . S
H559 C568 0.930 . S
H560 C570 0.930 . S
H561 C573 0.929 . S
H562 C576 0.930 . S
H563 C578 0.960 . S
H564 C578 0.960 . S
H565 C578 0.960 . S
C566 H558 0.929 . S
C566 C567 1.377 . S
C566 C568 1.384 . S
C567 C566 1.377 . S
C567 C573 1.390 . S
C568 H559 0.930 . S
C568 C566 1.384 . S
C568 C569 1.372 . S
C569 C568 1.372 . S
C569 C570 1.400 . S
C569 C574 1.490 . S
C570 H560 0.930 . S
C570 C569 1.400 . S
C570 C573 1.386 . S
H571 C587 0.930 . S
H572 C588 0.931 . S
C573 H561 0.929 . S
C573 C567 1.390 . S
C573 C570 1.386 . S
C574 C569 1.490 . S
C574 C576 1.395 . S
C574 C577 1.403 . S
H575 C581 0.930 . S
C576 H562 0.930 . S
C576 C574 1.395 . S
C576 C579 1.403 . S
C577 C574 1.403 . S
C577 C578 1.524 . S
C577 C581 1.400 . S
C578 H563 0.960 . S
C578 H564 0.960 . S
C578 H565 0.960 . S
C578 C577 1.524 . S
C579 C576 1.403 . S
C579 C580 1.392 . S
C579 C583 1.495 . S
C580 C579 1.392 . S
C580 C581 1.385 . S
C580 C582 1.478 . S
C581 H575 0.930 . S
C581 C577 1.400 . S
C581 C580 1.385 . S
C582 C580 1.478 . S
C582 C584 1.381 . S
C582 C588 1.383 . S
C583 C579 1.495 . S
C583 H589 0.959 . S
C583 H590 0.961 . S
C583 H591 0.960 . S
C584 C582 1.381 . S
C584 C585 1.394 . S
C584 H592 0.930 . S
C585 C584 1.394 . S
C585 C586 1.383 . S
C585 H593 0.929 . S
C586 C585 1.383 . S
C586 C587 1.377 . S
C587 H571 0.930 . S
C587 C586 1.377 . S
C587 C588 1.379 . S
C588 H572 0.931 . S
C588 C582 1.383 . S
C588 C587 1.379 . S
H589 C583 0.959 . S
H590 C583 0.961 . S
H591 C583 0.960 . S
H592 C584 0.930 . S
H593 C585 0.929 . S
H594 C602 0.929 . S
H595 C604 0.930 . S
H596 C606 0.930 . S
H597 C609 0.929 . S
H598 C612 0.930 . S
H599 C614 0.960 . S
H600 C614 0.960 . S
H601 C614 0.960 . S
C602 H594 0.929 . S
C602 C603 1.377 . S
C602 C604 1.384 . S
C603 C602 1.377 . S
C603 C609 1.390 . S
C604 H595 0.930 . S
C604 C602 1.384 . S
C604 C605 1.372 . S
C605 C604 1.372 . S
C605 C606 1.400 . S
C605 C610 1.490 . S
C606 H596 0.930 . S
C606 C605 1.400 . S
C606 C609 1.386 . S
H607 C623 0.930 . S
H608 C624 0.931 . S
C609 H597 0.929 . S
C609 C603 1.390 . S
C609 C606 1.386 . S
C610 C605 1.490 . S
C610 C612 1.395 . S
C610 C613 1.403 . S
H611 C617 0.930 . S
C612 H598 0.930 . S
C612 C610 1.395 . S
C612 C615 1.403 . S
C613 C610 1.403 . S
C613 C614 1.524 . S
C613 C617 1.400 . S
C614 H599 0.960 . S
C614 H600 0.960 . S
C614 H601 0.960 . S
C614 C613 1.524 . S
C615 C612 1.403 . S
C615 C616 1.392 . S
C615 C619 1.495 . S
C616 C615 1.392 . S
C616 C617 1.385 . S
C616 C618 1.478 . S
C617 H611 0.930 . S
C617 C613 1.400 . S
C617 C616 1.385 . S
C618 C616 1.478 . S
C618 C620 1.381 . S
C618 C624 1.383 . S
C619 C615 1.495 . S
C619 H625 0.959 . S
C619 H626 0.961 . S
C619 H627 0.960 . S
C620 C618 1.381 . S
C620 C621 1.394 . S
C620 H628 0.930 . S
C621 C620 1.394 . S
C621 C622 1.383 . S
C621 H629 0.929 . S
C622 C621 1.383 . S
C622 C623 1.377 . S
C623 H607 0.930 . S
C623 C622 1.377 . S
C623 C624 1.379 . S
C624 H608 0.931 . S
C624 C618 1.383 . S
C624 C623 1.379 . S
H625 C619 0.959 . S
H626 C619 0.961 . S
H627 C619 0.960 . S
H628 C620 0.930 . S
H629 C621 0.929 . S
H630 C638 0.929 . S
H631 C640 0.930 . S
H632 C642 0.930 . S
H633 C645 0.929 . S
H634 C648 0.930 . S
H635 C650 0.960 . S
H636 C650 0.960 . S
H637 C650 0.960 . S
C638 H630 0.929 . S
C638 C639 1.377 . S
C638 C640 1.384 . S
C639 C638 1.377 . S
C639 C645 1.390 . S
C640 H631 0.930 . S
C640 C638 1.384 . S
C640 C641 1.372 . S
C641 C640 1.372 . S
C641 C642 1.400 . S
C641 C646 1.490 . S
C642 H632 0.930 . S
C642 C641 1.400 . S
C642 C645 1.386 . S
H643 C659 0.930 . S
H644 C660 0.931 . S
C645 H633 0.929 . S
C645 C639 1.390 . S
C645 C642 1.386 . S
C646 C641 1.490 . S
C646 C648 1.395 . S
C646 C649 1.403 . S
H647 C653 0.930 . S
C648 H634 0.930 . S
C648 C646 1.395 . S
C648 C651 1.403 . S
C649 C646 1.403 . S
C649 C650 1.524 . S
C649 C653 1.400 . S
C650 H635 0.960 . S
C650 H636 0.960 . S
C650 H637 0.960 . S
C650 C649 1.524 . S
C651 C648 1.403 . S
C651 C652 1.392 . S
C651 C655 1.495 . S
C652 C651 1.392 . S
C652 C653 1.385 . S
C652 C654 1.478 . S
C653 H647 0.930 . S
C653 C649 1.400 . S
C653 C652 1.385 . S
C654 C652 1.478 . S
C654 C656 1.381 . S
C654 C660 1.383 . S
C655 C651 1.495 . S
C655 H661 0.959 . S
C655 H662 0.961 . S
C655 H663 0.960 . S
C656 C654 1.381 . S
C656 C657 1.394 . S
C656 H664 0.930 . S
C657 C656 1.394 . S
C657 C658 1.383 . S
C657 H665 0.929 . S
C658 C657 1.383 . S
C658 C659 1.377 . S
C659 H643 0.930 . S
C659 C658 1.377 . S
C659 C660 1.379 . S
C660 H644 0.931 . S
C660 C654 1.383 . S
C660 C659 1.379 . S
H661 C655 0.959 . S
H662 C655 0.961 . S
H663 C655 0.960 . S
H664 C656 0.930 . S
H665 C657 0.929 . S
H666 C674 0.929 . S
H667 C676 0.930 . S
H668 C678 0.930 . S
H669 C681 0.929 . S
H670 C684 0.930 . S
H671 C686 0.960 . S
H672 C686 0.960 . S
H673 C686 0.960 . S
C674 H666 0.929 . S
C674 C675 1.377 . S
C674 C676 1.384 . S
C675 C674 1.377 . S
C675 C681 1.390 . S
C676 H667 0.930 . S
C676 C674 1.384 . S
C676 C677 1.372 . S
C677 C676 1.372 . S
C677 C678 1.400 . S
C677 C682 1.490 . S
C678 H668 0.930 . S
C678 C677 1.400 . S
C678 C681 1.386 . S
H679 C695 0.930 . S
H680 C696 0.931 . S
C681 H669 0.929 . S
C681 C675 1.390 . S
C681 C678 1.386 . S
C682 C677 1.490 . S
C682 C684 1.395 . S
C682 C685 1.403 . S
H683 C689 0.930 . S
C684 H670 0.930 . S
C684 C682 1.395 . S
C684 C687 1.403 . S
C685 C682 1.403 . S
C685 C686 1.524 . S
C685 C689 1.400 . S
C686 H671 0.960 . S
C686 H672 0.960 . S
C686 H673 0.960 . S
C686 C685 1.524 . S
C687 C684 1.403 . S
C687 C688 1.392 . S
C687 C691 1.495 . S
C688 C687 1.392 . S
C688 C689 1.385 . S
C688 C690 1.478 . S
C689 H683 0.930 . S
C689 C685 1.400 . S
C689 C688 1.385 . S
C690 C688 1.478 . S
C690 C692 1.381 . S
C690 C696 1.383 . S
C691 C687 1.495 . S
C691 H697 0.959 . S
C691 H698 0.961 . S
C691 H699 0.960 . S
C692 C690 1.381 . S
C692 C693 1.394 . S
C692 H700 0.930 . S
C693 C692 1.394 . S
C693 C694 1.383 . S
C693 H701 0.929 . S
C694 C693 1.383 . S
C694 C695 1.377 . S
C695 H679 0.930 . S
C695 C694 1.377 . S
C695 C696 1.379 . S
C696 H680 0.931 . S
C696 C690 1.383 . S
C696 C695 1.379 . S
H697 C691 0.959 . S
H698 C691 0.961 . S
H699 C691 0.960 . S
H700 C692 0.930 . S
H701 C693 0.929 . S
H702 C710 0.929 . S
H703 C712 0.930 . S
H704 C714 0.930 . S
H705 C717 0.929 . S
H706 C720 0.930 . S
H707 C722 0.960 . S
H708 C722 0.960 . S
H709 C722 0.960 . S
C710 H702 0.929 . S
C710 C711 1.377 . S
C710 C712 1.384 . S
C711 C710 1.377 . S
C711 C717 1.390 . S
C712 H703 0.930 . S
C712 C710 1.384 . S
C712 C713 1.372 . S
C713 C712 1.372 . S
C713 C714 1.400 . S
C713 C718 1.490 . S
C714 H704 0.930 . S
C714 C713 1.400 . S
C714 C717 1.386 . S
H715 C731 0.930 . S
H716 C732 0.931 . S
C717 H705 0.929 . S
C717 C711 1.390 . S
C717 C714 1.386 . S
C718 C713 1.490 . S
C718 C720 1.395 . S
C718 C721 1.403 . S
H719 C725 0.930 . S
C720 H706 0.930 . S
C720 C718 1.395 . S
C720 C723 1.403 . S
C721 C718 1.403 . S
C721 C722 1.524 . S
C721 C725 1.400 . S
C722 H707 0.960 . S
C722 H708 0.960 . S
C722 H709 0.960 . S
C722 C721 1.524 . S
C723 C720 1.403 . S
C723 C724 1.392 . S
C723 C727 1.495 . S
C724 C723 1.392 . S
C724 C725 1.385 . S
C724 C726 1.478 . S
C725 H719 0.930 . S
C725 C721 1.400 . S
C725 C724 1.385 . S
C726 C724 1.478 . S
C726 C728 1.381 . S
C726 C732 1.383 . S
C727 C723 1.495 . S
C727 H733 0.959 . S
C727 H734 0.961 . S
C727 H735 0.960 . S
C728 C726 1.381 . S
C728 C729 1.394 . S
C728 H736 0.930 . S
C729 C728 1.394 . S
C729 C730 1.383 . S
C729 H737 0.929 . S
C730 C729 1.383 . S
C730 C731 1.377 . S
C731 H715 0.930 . S
C731 C730 1.377 . S
C731 C732 1.379 . S
C732 H716 0.931 . S
C732 C726 1.383 . S
C732 C731 1.379 . S
H733 C727 0.959 . S
H734 C727 0.961 . S
H735 C727 0.960 . S
H736 C728 0.930 . S
H737 C729 0.929 . S
H738 C746 0.929 . S
H739 C748 0.930 . S
H740 C750 0.930 . S
H741 C753 0.929 . S
H742 C756 0.930 . S
H743 C758 0.960 . S
H744 C758 0.960 . S
H745 C758 0.960 . S
C746 H738 0.929 . S
C746 C747 1.377 . S
C746 C748 1.384 . S
C747 C746 1.377 . S
C747 C753 1.390 . S
C748 H739 0.930 . S
C748 C746 1.384 . S
C748 C749 1.372 . S
C749 C748 1.372 . S
C749 C750 1.400 . S
C749 C754 1.490 . S
C750 H740 0.930 . S
C750 C749 1.400 . S
C750 C753 1.386 . S
H751 C767 0.930 . S
H752 C768 0.931 . S
C753 H741 0.929 . S
C753 C747 1.390 . S
C753 C750 1.386 . S
C754 C749 1.490 . S
C754 C756 1.395 . S
C754 C757 1.403 . S
H755 C761 0.930 . S
C756 H742 0.930 . S
C756 C754 1.395 . S
C756 C759 1.403 . S
C757 C754 1.403 . S
C757 C758 1.524 . S
C757 C761 1.400 . S
C758 H743 0.960 . S
C758 H744 0.960 . S
C758 H745 0.960 . S
C758 C757 1.524 . S
C759 C756 1.403 . S
C759 C760 1.392 . S
C759 C763 1.495 . S
C760 C759 1.392 . S
C760 C761 1.385 . S
C760 C762 1.478 . S
C761 H755 0.930 . S
C761 C757 1.400 . S
C761 C760 1.385 . S
C762 C760 1.478 . S
C762 C764 1.381 . S
C762 C768 1.383 . S
C763 C759 1.495 . S
C763 H769 0.959 . S
C763 H770 0.961 . S
C763 H771 0.960 . S
C764 C762 1.381 . S
C764 C765 1.394 . S
C764 H772 0.930 . S
C765 C764 1.394 . S
C765 C766 1.383 . S
C765 H773 0.929 . S
C766 C765 1.383 . S
C766 C767 1.377 . S
C767 H751 0.930 . S
C767 C766 1.377 . S
C767 C768 1.379 . S
C768 H752 0.931 . S
C768 C762 1.383 . S
C768 C767 1.379 . S
H769 C763 0.959 . S
H770 C763 0.961 . S
H771 C763 0.960 . S
H772 C764 0.930 . S
H773 C765 0.929 . S
H774 C782 0.929 . S
H775 C784 0.930 . S
H776 C786 0.930 1_655 S
H777 C789 0.929 . S
H778 C792 0.930 . S
H779 C794 0.960 . S
H780 C794 0.960 . S
H781 C794 0.960 . S
C782 H774 0.929 . S
C782 C783 1.377 . S
C782 C784 1.384 . S
C783 C782 1.377 . S
C783 C789 1.390 . S
C784 H775 0.930 . S
C784 C782 1.384 . S
C784 C785 1.372 . S
C785 C784 1.372 . S
C785 C786 1.400 . S
C785 C790 1.490 . S
C786 H776 0.930 1_455 S
C786 C785 1.400 . S
C786 C789 1.386 . S
H787 C803 0.930 . S
H788 C804 0.931 . S
C789 H777 0.929 . S
C789 C783 1.390 . S
C789 C786 1.386 . S
C790 C785 1.490 . S
C790 C792 1.395 1_455 S
C790 C793 1.403 . S
H791 C797 0.930 . S
C792 H778 0.930 . S
C792 C790 1.395 1_655 S
C792 C795 1.403 . S
C793 C790 1.403 . S
C793 C794 1.524 . S
C793 C797 1.400 . S
C794 H779 0.960 . S
C794 H780 0.960 . S
C794 H781 0.960 . S
C794 C793 1.524 . S
C795 C792 1.403 . S
C795 C796 1.392 . S
C795 C799 1.495 . S
C796 C795 1.392 . S
C796 C797 1.385 1_655 S
C796 C798 1.478 . S
C797 H791 0.930 . S
C797 C793 1.400 . S
C797 C796 1.385 1_455 S
C798 C796 1.478 . S
C798 C800 1.381 . S
C798 C804 1.383 . S
C799 C795 1.495 . S
C799 H805 0.959 . S
C799 H806 0.961 . S
C799 H807 0.960 . S
C800 C798 1.381 . S
C800 C801 1.394 . S
C800 H808 0.930 1_655 S
C801 C800 1.394 . S
C801 C802 1.383 . S
C801 H809 0.929 . S
C802 C801 1.383 . S
C802 C803 1.377 . S
C803 H787 0.930 . S
C803 C802 1.377 . S
C803 C804 1.379 . S
C804 H788 0.931 . S
C804 C798 1.383 . S
C804 C803 1.379 . S
H805 C799 0.959 . S
H806 C799 0.961 . S
H807 C799 0.960 . S
H808 C800 0.930 1_455 S
H809 C801 0.929 . S
H810 C818 0.929 . S
H811 C820 0.930 . S
H812 C822 0.930 . S
H813 C825 0.929 . S
H814 C828 0.930 . S
H815 C830 0.960 . S
H816 C830 0.960 . S
H817 C830 0.960 . S
C818 H810 0.929 . S
C818 C819 1.377 . S
C818 C820 1.384 . S
C819 C818 1.377 . S
C819 C825 1.390 . S
C820 H811 0.930 . S
C820 C818 1.384 . S
C820 C821 1.372 . S
C821 C820 1.372 . S
C821 C822 1.400 . S
C821 C826 1.490 . S
C822 H812 0.930 . S
C822 C821 1.400 . S
C822 C825 1.386 . S
H823 C839 0.930 . S
H824 C840 0.931 . S
C825 H813 0.929 . S
C825 C819 1.390 . S
C825 C822 1.386 . S
C826 C821 1.490 . S
C826 C828 1.395 . S
C826 C829 1.403 . S
H827 C833 0.930 . S
C828 H814 0.930 . S
C828 C826 1.395 . S
C828 C831 1.403 . S
C829 C826 1.403 . S
C829 C830 1.524 . S
C829 C833 1.400 . S
C830 H815 0.960 . S
C830 H816 0.960 . S
C830 H817 0.960 . S
C830 C829 1.524 . S
C831 C828 1.403 . S
C831 C832 1.392 . S
C831 C835 1.495 . S
C832 C831 1.392 . S
C832 C833 1.385 . S
C832 C834 1.478 . S
C833 H827 0.930 . S
C833 C829 1.400 . S
C833 C832 1.385 . S
C834 C832 1.478 . S
C834 C836 1.381 . S
C834 C840 1.383 . S
C835 C831 1.495 . S
C835 H841 0.959 . S
C835 H842 0.961 . S
C835 H843 0.960 . S
C836 C834 1.381 . S
C836 C837 1.394 . S
C836 H844 0.930 . S
C837 C836 1.394 . S
C837 C838 1.383 . S
C837 H845 0.929 . S
C838 C837 1.383 . S
C838 C839 1.377 . S
C839 H823 0.930 . S
C839 C838 1.377 . S
C839 C840 1.379 . S
C840 H824 0.931 . S
C840 C834 1.383 . S
C840 C839 1.379 . S
H841 C835 0.959 . S
H842 C835 0.961 . S
H843 C835 0.960 . S
H844 C836 0.930 . S
H845 C837 0.929 . S
H846 C854 0.929 1_565 S
H847 C856 0.933 . S
H848 C858 0.930 . S
H849 C861 0.929 . S
H850 C864 0.930 . S
H851 C866 0.960 . S
H852 C866 0.960 . S
H853 C866 0.964 . S
C854 H846 0.929 1_545 S
C854 C855 1.377 . S
C854 C856 1.386 1_545 S
C855 C854 1.377 . S
C855 C861 1.390 . S
C856 H847 0.933 . S
C856 C854 1.386 1_565 S
C856 C857 1.366 1_565 S
C857 C856 1.366 1_545 S
C857 C858 1.400 . S
C857 C862 1.490 . S
C858 H848 0.930 . S
C858 C857 1.400 . S
C858 C861 1.386 . S
H859 C875 0.930 1_545 S
H860 C876 0.931 . S
C861 H849 0.929 . S
C861 C855 1.390 . S
C861 C858 1.386 . S
C862 C857 1.490 . S
C862 C864 1.395 . S
C862 C865 1.403 1_545 S
H863 C869 0.930 . S
C864 H850 0.930 . S
C864 C862 1.395 . S
C864 C867 1.403 . S
C865 C862 1.403 1_565 S
C865 C866 1.524 . S
C865 C869 1.400 . S
C866 H851 0.960 . S
C866 H852 0.960 . S
C866 H853 0.964 . S
C866 C865 1.524 . S
C867 C864 1.403 . S
C867 C868 1.392 1_545 S
C867 C871 1.495 . S
C868 C867 1.392 1_565 S
C868 C869 1.385 . S
C868 C870 1.478 . S
C869 H863 0.930 . S
C869 C865 1.400 . S
C869 C868 1.385 . S
C870 C868 1.478 . S
C870 C872 1.381 . S
C870 C876 1.383 1_565 S
C871 C867 1.495 . S
C871 H877 0.959 . S
C871 H878 0.961 . S
C871 H879 0.960 1_545 S
C872 C870 1.381 . S
C872 C873 1.394 . S
C872 H880 0.930 . S
C873 C872 1.394 . S
C873 C874 1.383 . S
C873 H881 0.929 . S
C874 C873 1.383 . S
C874 C875 1.377 . S
C875 H859 0.930 1_565 S
C875 C874 1.377 . S
C875 C876 1.379 1_565 S
C876 H860 0.931 . S
C876 C870 1.383 1_545 S
C876 C875 1.379 1_545 S
H877 C871 0.959 . S
H878 C871 0.961 . S
H879 C871 0.960 1_565 S
H880 C872 0.930 . S
H881 C873 0.929 . S
H882 C890 0.929 1_545 S
H883 C892 0.930 1_556 S
H884 C894 0.930 . S
H885 C897 0.929 . S
H886 C900 0.930 . S
H887 C902 0.960 1_556 S
H888 C902 0.960 1_556 S
H889 C902 0.960 . S
C890 H882 0.929 1_565 S
C890 C891 1.377 1_565 S
C890 C892 1.384 . S
C891 C890 1.377 1_545 S
C891 C897 1.390 1_545 S
C892 H883 0.930 1_554 S
C892 C890 1.384 . S
C892 C893 1.372 . S
C893 C892 1.372 . S
C893 C894 1.400 . S
C893 C898 1.490 . S
C894 H884 0.930 . S
C894 C893 1.400 . S
C894 C897 1.386 . S
H895 C911 0.930 . S
H896 C912 0.931 1_554 S
C897 H885 0.929 . S
C897 C891 1.390 1_565 S
C897 C894 1.386 . S
C898 C893 1.490 . S
C898 C900 1.395 . S
C898 C901 1.403 . S
H899 C905 0.930 . S
C900 H886 0.930 . S
C900 C898 1.395 . S
C900 C903 1.403 1_554 S
C901 C898 1.403 . S
C901 C902 1.524 . S
C901 C905 1.400 1_554 S
C902 H887 0.960 1_554 S
C902 H888 0.960 1_554 S
C902 H889 0.960 . S
C902 C901 1.524 . S
C903 C900 1.403 1_556 S
C903 C904 1.392 . S
C903 C907 1.495 . S
C904 C903 1.392 . S
C904 C905 1.385 . S
C904 C906 1.478 . S
C905 H899 0.930 . S
C905 C901 1.400 1_556 S
C905 C904 1.385 . S
C906 C904 1.478 . S
C906 C908 1.381 . S
C906 C912 1.383 . S
C907 C903 1.495 . S
C907 H913 0.959 . S
C907 H914 0.961 1_556 S
C907 H915 0.960 . S
C908 C906 1.381 . S
C908 C909 1.394 . S
C908 H916 0.930 . S
C909 C908 1.394 . S
C909 C910 1.383 . S
C909 H917 0.929 . S
C910 C909 1.383 . S
C910 C911 1.377 . S
C911 H895 0.930 . S
C911 C910 1.377 . S
C911 C912 1.379 . S
C912 H896 0.931 1_556 S
C912 C906 1.383 . S
C912 C911 1.379 . S
H913 C907 0.959 . S
H914 C907 0.961 1_554 S
H915 C907 0.960 . S
H916 C908 0.930 . S
H917 C909 0.929 . S
H918 C926 0.929 . S
H919 C928 0.930 . S
H920 C930 0.930 1_556 S
H921 C933 0.903 1_655 S
H922 C936 0.930 . S
H923 C938 0.960 . S
H924 C938 0.960 . S
H925 C938 0.960 . S
C926 H918 0.929 . S
C926 C927 1.377 1_455 S
C926 C928 1.384 . S
C927 C926 1.377 1_655 S
C927 C933 1.379 1_655 S
C928 H919 0.930 . S
C928 C926 1.384 . S
C928 C929 1.372 . S
C929 C928 1.372 . S
C929 C930 1.400 . S
C929 C934 1.490 . S
C930 H920 0.930 1_554 S
C930 C929 1.400 . S
C930 C933 1.423 . S
H931 C947 0.930 . S
H932 C948 0.931 . S
C933 H921 0.903 1_455 S
C933 C927 1.379 1_455 S
C933 C930 1.423 . S
C934 C929 1.490 . S
C934 C936 1.395 . S
C934 C937 1.403 1_554 S
H935 C941 0.930 . S
C936 H922 0.930 . S
C936 C934 1.395 . S
C936 C939 1.403 . S
C937 C934 1.403 1_556 S
C937 C938 1.524 . S
C937 C941 1.400 . S
C938 H923 0.960 . S
C938 H924 0.960 . S
C938 H925 0.960 . S
C938 C937 1.524 . S
C939 C936 1.403 . S
C939 C940 1.392 1_554 S
C939 C943 1.495 . S
C940 C939 1.392 1_556 S
C940 C941 1.385 . S
C940 C942 1.478 . S
C941 H935 0.930 . S
C941 C937 1.400 . S
C941 C940 1.385 . S
C942 C940 1.478 . S
C942 C944 1.381 . S
C942 C948 1.383 . S
C943 C939 1.495 . S
C943 H949 0.959 . S
C943 H950 0.961 . S
C943 H951 0.960 . S
C944 C942 1.381 . S
C944 C945 1.394 . S
C944 H952 0.930 1_556 S
C945 C944 1.394 . S
C945 C946 1.383 . S
C945 H953 0.929 . S
C946 C945 1.383 . S
C946 C947 1.377 . S
C947 H931 0.930 . S
C947 C946 1.377 . S
C947 C948 1.379 . S
C948 H932 0.931 . S
C948 C942 1.383 . S
C948 C947 1.379 . S
H949 C943 0.959 . S
H950 C943 0.961 . S
H951 C943 0.960 . S
H952 C944 0.930 1_554 S
H953 C945 0.929 . S
H954 C962 0.929 . S
H955 C964 0.930 . S
H956 C966 0.930 . S
H957 C969 0.929 . S
H958 C972 0.930 . S
H959 C974 0.960 . S
H960 C974 0.960 . S
H961 C974 0.960 . S
C962 H954 0.929 . S
C962 C963 1.377 . S
C962 C964 1.384 . S
C963 C962 1.377 . S
C963 C969 1.390 . S
C964 H955 0.930 . S
C964 C962 1.384 . S
C964 C965 1.372 . S
C965 C964 1.372 . S
C965 C966 1.400 . S
C965 C970 1.490 . S
C966 H956 0.930 . S
C966 C965 1.400 . S
C966 C969 1.386 . S
H967 C983 0.930 . S
H968 C984 0.931 . S
C969 H957 0.929 . S
C969 C963 1.390 . S
C969 C966 1.386 . S
C970 C965 1.490 . S
C970 C972 1.395 . S
C970 C973 1.403 1_554 S
H971 C977 0.930 . S
C972 H958 0.930 . S
C972 C970 1.395 . S
C972 C975 1.403 . S
C973 C970 1.403 1_556 S
C973 C974 1.524 . S
C973 C977 1.400 . S
C974 H959 0.960 . S
C974 H960 0.960 . S
C974 H961 0.960 . S
C974 C973 1.524 . S
C975 C972 1.403 . S
C975 C976 1.392 1_554 S
C975 C979 1.495 . S
C976 C975 1.392 1_556 S
C976 C977 1.385 . S
C976 C978 1.478 . S
C977 H971 0.930 . S
C977 C973 1.400 . S
C977 C976 1.385 . S
C978 C976 1.478 . S
C978 C980 1.381 . S
C978 C984 1.383 . S
C979 C975 1.495 . S
C979 H985 0.959 . S
C979 H986 0.961 . S
C979 H987 0.960 . S
C980 C978 1.381 . S
C980 C981 1.394 . S
C980 H988 0.930 . S
C981 C980 1.394 . S
C981 C982 1.383 . S
C981 H989 0.929 . S
C982 C981 1.383 . S
C982 C983 1.377 . S
C983 H967 0.930 . S
C983 C982 1.377 . S
C983 C984 1.379 . S
C984 H968 0.931 . S
C984 C978 1.383 . S
C984 C983 1.379 . S
H985 C979 0.959 . S
H986 C979 0.961 . S
H987 C979 0.960 . S
H988 C980 0.930 . S
H989 C981 0.929 . S
H990 C998 0.912 1_565 S
H991 C1000 0.930 1_554 S
H992 C1002 0.930 . S
H993 C1005 0.929 . S
H994 C1008 0.930 . S
H995 C1010 0.960 . S
H996 C1010 0.960 . S
H997 C1010 0.960 . S
C998 H990 0.912 1_545 S
C998 C999 1.379 1_545 S
C998 C1000 1.397 . S
C999 C998 1.379 1_565 S
C999 C1005 1.390 1_565 S
C1000 H991 0.930 1_556 S
C1000 C998 1.397 . S
C1000 C1001 1.372 . S
C1001 C1000 1.372 . S
C1001 C1002 1.400 . S
C1001 C1006 1.490 . S
C1002 H992 0.930 . S
C1002 C1001 1.400 . S
C1002 C1005 1.386 . S
H1003 C1019 0.928 . S
H1004 C1020 0.931 1_556 S
C1005 H993 0.929 . S
C1005 C999 1.390 1_545 S
C1005 C1002 1.386 . S
C1006 C1001 1.490 . S
C1006 C1008 1.395 1_556 S
C1006 C1009 1.403 . S
H1007 C1013 0.930 . S
C1008 H994 0.930 . S
C1008 C1006 1.395 1_554 S
C1008 C1011 1.403 . S
C1009 C1006 1.403 . S
C1009 C1010 1.524 . S
C1009 C1013 1.400 1_556 S
C1010 H995 0.960 . S
C1010 H996 0.960 . S
C1010 H997 0.960 . S
C1010 C1009 1.524 . S
C1011 C1008 1.403 . S
C1011 C1012 1.392 . S
C1011 C1015 1.495 . S
C1012 C1011 1.392 . S
C1012 C1013 1.385 . S
C1012 C1014 1.478 . S
C1013 H1007 0.930 . S
C1013 C1009 1.400 1_554 S
C1013 C1012 1.385 . S
C1014 C1012 1.478 . S
C1014 C1016 1.381 . S
C1014 C1020 1.383 . S
C1015 C1011 1.495 . S
C1015 H1021 0.959 . S
C1015 H1022 0.961 . S
C1015 H1023 0.960 . S
C1016 C1014 1.381 . S
C1016 C1017 1.394 . S
C1016 H1024 0.930 . S
C1017 C1016 1.394 . S
C1017 C1018 1.383 . S
C1017 H1025 0.929 . S
C1018 C1017 1.383 . S
C1018 C1019 1.377 . S
C1019 H1003 0.928 . S
C1019 C1018 1.377 . S
C1019 C1020 1.379 . S
C1020 H1004 0.931 1_554 S
C1020 C1014 1.383 . S
C1020 C1019 1.379 . S
H1021 C1015 0.959 . S
H1022 C1015 0.961 . S
H1023 C1015 0.960 . S
H1024 C1016 0.930 . S
H1025 C1017 0.929 . S
H1026 C1034 0.929 . S
H1027 C1036 0.930 1_556 S
H1028 C1038 0.930 . S
H1029 C1041 0.929 . S
H1030 C1044 0.930 . S
H1031 C1046 0.960 . S
H1032 C1046 0.960 . S
H1033 C1046 0.960 1_554 S
C1034 H1026 0.929 . S
C1034 C1035 1.377 . S
C1034 C1036 1.384 . S
C1035 C1034 1.377 . S
C1035 C1041 1.390 . S
C1036 H1027 0.930 1_554 S
C1036 C1034 1.384 . S
C1036 C1037 1.372 . S
C1037 C1036 1.372 . S
C1037 C1038 1.400 . S
C1037 C1042 1.490 . S
C1038 H1028 0.930 . S
C1038 C1037 1.400 . S
C1038 C1041 1.386 . S
H1039 C1055 0.930 . S
H1040 C1056 0.931 1_554 S
C1041 H1029 0.929 . S
C1041 C1035 1.390 . S
C1041 C1038 1.386 . S
C1042 C1037 1.490 . S
C1042 C1044 1.395 . S
C1042 C1045 1.403 1_554 S
H1043 C1049 0.930 . S
C1044 H1030 0.930 . S
C1044 C1042 1.395 . S
C1044 C1047 1.403 . S
C1045 C1042 1.403 1_556 S
C1045 C1046 1.524 . S
C1045 C1049 1.400 . S
C1046 H1031 0.960 . S
C1046 H1032 0.960 . S
C1046 H1033 0.960 1_556 S
C1046 C1045 1.524 . S
C1047 C1044 1.403 . S
C1047 C1048 1.392 1_554 S
C1047 C1051 1.495 . S
C1048 C1047 1.392 1_556 S
C1048 C1049 1.385 . S
C1048 C1050 1.478 . S
C1049 H1043 0.930 . S
C1049 C1045 1.400 . S
C1049 C1048 1.385 . S
C1050 C1048 1.478 . S
C1050 C1052 1.381 . S
C1050 C1056 1.383 . S
C1051 C1047 1.495 . S
C1051 H1057 0.959 . S
C1051 H1058 0.961 . S
C1051 H1059 0.960 1_554 S
C1052 C1050 1.381 . S
C1052 C1053 1.394 . S
C1052 H1060 0.930 . S
C1053 C1052 1.394 . S
C1053 C1054 1.383 1_655 S
C1053 H1061 0.929 1_655 S
C1054 C1053 1.383 1_455 S
C1054 C1055 1.377 1_455 S
C1055 H1039 0.930 . S
C1055 C1054 1.377 1_655 S
C1055 C1056 1.379 . S
C1056 H1040 0.931 1_556 S
C1056 C1050 1.383 . S
C1056 C1055 1.379 . S
H1057 C1051 0.959 . S
H1058 C1051 0.961 . S
H1059 C1051 0.960 1_556 S
H1060 C1052 0.930 . S
H1061 C1053 0.929 1_455 S
H1062 C1070 0.929 . S
H1063 C1072 0.930 . S
H1064 C1074 0.930 1_554 S
H1065 C1077 0.929 . S
H1066 C1080 0.930 . S
H1067 C1082 0.960 . S
H1068 C1082 0.960 . S
H1069 C1082 0.960 . S
C1070 H1062 0.929 . S
C1070 C1071 1.377 . S
C1070 C1072 1.384 . S
C1071 C1070 1.377 . S
C1071 C1077 1.390 . S
C1072 H1063 0.930 . S
C1072 C1070 1.384 . S
C1072 C1073 1.372 . S
C1073 C1072 1.372 . S
C1073 C1074 1.400 . S
C1073 C1078 1.490 . S
C1074 H1064 0.930 1_556 S
C1074 C1073 1.400 . S
C1074 C1077 1.386 . S
H1075 C1091 0.930 . S
H1076 C1092 0.931 . S
C1077 H1065 0.929 . S
C1077 C1071 1.390 . S
C1077 C1074 1.386 . S
C1078 C1073 1.490 . S
C1078 C1080 1.395 . S
C1078 C1081 1.403 1_556 S
H1079 C1085 0.930 . S
C1080 H1066 0.930 . S
C1080 C1078 1.395 . S
C1080 C1083 1.403 . S
C1081 C1078 1.403 1_554 S
C1081 C1082 1.524 . S
C1081 C1085 1.400 . S
C1082 H1067 0.960 . S
C1082 H1068 0.960 . S
C1082 H1069 0.960 . S
C1082 C1081 1.524 . S
C1083 C1080 1.403 . S
C1083 C1084 1.392 1_556 S
C1083 C1087 1.495 . S
C1084 C1083 1.392 1_554 S
C1084 C1085 1.385 . S
C1084 C1086 1.478 . S
C1085 H1079 0.930 . S
C1085 C1081 1.400 . S
C1085 C1084 1.385 . S
C1086 C1084 1.478 . S
C1086 C1088 1.381 . S
C1086 C1092 1.383 . S
C1087 C1083 1.495 . S
C1087 H1093 0.959 . S
C1087 H1094 0.961 . S
C1087 H1095 0.960 . S
C1088 C1086 1.381 . S
C1088 C1089 1.394 . S
C1088 H1096 0.930 1_554 S
C1089 C1088 1.394 . S
C1089 C1090 1.383 . S
C1089 H1097 0.929 . S
C1090 C1089 1.383 . S
C1090 C1091 1.377 . S
C1091 H1075 0.930 . S
C1091 C1090 1.377 . S
C1091 C1092 1.379 . S
C1092 H1076 0.931 . S
C1092 C1086 1.383 . S
C1092 C1091 1.379 . S
H1093 C1087 0.959 . S
H1094 C1087 0.961 . S
H1095 C1087 0.960 . S
H1096 C1088 0.930 1_556 S
H1097 C1089 0.929 . S
H1098 C1106 0.929 . S
H1099 C1108 0.930 . S
H1100 C1110 0.930 . S
H1101 C1113 0.929 . S
H1102 C1116 0.930 . S
H1103 C1118 0.960 . S
H1104 C1118 0.960 . S
H1105 C1118 0.960 . S
C1106 H1098 0.929 . S
C1106 C1107 1.377 . S
C1106 C1108 1.384 . S
C1107 C1106 1.377 . S
C1107 C1113 1.390 . S
C1108 H1099 0.930 . S
C1108 C1106 1.384 . S
C1108 C1109 1.372 . S
C1109 C1108 1.372 . S
C1109 C1110 1.400 . S
C1109 C1114 1.490 . S
C1110 H1100 0.930 . S
C1110 C1109 1.400 . S
C1110 C1113 1.386 . S
H1111 C1127 0.930 . S
H1112 C1128 0.931 . S
C1113 H1101 0.929 . S
C1113 C1107 1.390 . S
C1113 C1110 1.386 . S
C1114 C1109 1.490 . S
C1114 C1116 1.395 . S
C1114 C1117 1.403 . S
H1115 C1121 0.930 . S
C1116 H1102 0.930 . S
C1116 C1114 1.395 . S
C1116 C1119 1.403 . S
C1117 C1114 1.403 . S
C1117 C1118 1.524 . S
C1117 C1121 1.400 . S
C1118 H1103 0.960 . S
C1118 H1104 0.960 . S
C1118 H1105 0.960 . S
C1118 C1117 1.524 . S
C1119 C1116 1.403 . S
C1119 C1120 1.392 . S
C1119 C1123 1.495 . S
C1120 C1119 1.392 . S
C1120 C1121 1.385 . S
C1120 C1122 1.478 . S
C1121 H1115 0.930 . S
C1121 C1117 1.400 . S
C1121 C1120 1.385 . S
C1122 C1120 1.478 . S
C1122 C1124 1.381 . S
C1122 C1128 1.383 . S
C1123 C1119 1.495 . S
C1123 H1129 0.959 . S
C1123 H1130 0.961 . S
C1123 H1131 0.960 . S
C1124 C1122 1.381 . S
C1124 C1125 1.394 . S
C1124 H1132 0.930 . S
C1125 C1124 1.394 . S
C1125 C1126 1.383 . S
C1125 H1133 0.929 . S
C1126 C1125 1.383 . S
C1126 C1127 1.377 . S
C1127 H1111 0.930 . S
C1127 C1126 1.377 . S
C1127 C1128 1.379 . S
C1128 H1112 0.931 . S
C1128 C1122 1.383 . S
C1128 C1127 1.379 . S
H1129 C1123 0.959 . S
H1130 C1123 0.961 . S
H1131 C1123 0.960 . S
H1132 C1124 0.930 . S
H1133 C1125 0.929 . S
H1134 C1142 0.929 . S
H1135 C1144 0.930 . S
H1136 C1146 0.930 . S
H1137 C1149 0.929 . S
H1138 C1152 0.930 . S
H1139 C1154 0.960 . S
H1140 C1154 0.960 . S
H1141 C1154 0.960 . S
C1142 H1134 0.929 . S
C1142 C1143 1.377 . S
C1142 C1144 1.384 . S
C1143 C1142 1.377 . S
C1143 C1149 1.390 . S
C1144 H1135 0.930 . S
C1144 C1142 1.384 . S
C1144 C1145 1.372 . S
C1145 C1144 1.372 . S
C1145 C1146 1.400 . S
C1145 C1150 1.490 . S
C1146 H1136 0.930 . S
C1146 C1145 1.400 . S
C1146 C1149 1.386 . S
H1147 C1163 0.930 . S
H1148 C1164 0.931 . S
C1149 H1137 0.929 . S
C1149 C1143 1.390 . S
C1149 C1146 1.386 . S
C1150 C1145 1.490 . S
C1150 C1152 1.395 . S
C1150 C1153 1.403 . S
H1151 C1157 0.930 . S
C1152 H1138 0.930 . S
C1152 C1150 1.395 . S
C1152 C1155 1.403 . S
C1153 C1150 1.403 . S
C1153 C1154 1.524 . S
C1153 C1157 1.400 . S
C1154 H1139 0.960 . S
C1154 H1140 0.960 . S
C1154 H1141 0.960 . S
C1154 C1153 1.524 . S
C1155 C1152 1.403 . S
C1155 C1156 1.392 . S
C1155 C1159 1.495 . S
C1156 C1155 1.392 . S
C1156 C1157 1.385 . S
C1156 C1158 1.478 . S
C1157 H1151 0.930 . S
C1157 C1153 1.400 . S
C1157 C1156 1.385 . S
C1158 C1156 1.478 . S
C1158 C1160 1.381 . S
C1158 C1164 1.383 . S
C1159 C1155 1.495 . S
C1159 H1165 0.959 . S
C1159 H1166 0.961 . S
C1159 H1167 0.960 . S
C1160 C1158 1.381 . S
C1160 C1161 1.394 . S
C1160 H1168 0.930 . S
C1161 C1160 1.394 . S
C1161 C1162 1.383 . S
C1161 H1169 0.929 . S
C1162 C1161 1.383 . S
C1162 C1163 1.377 . S
C1163 H1147 0.930 . S
C1163 C1162 1.377 . S
C1163 C1164 1.379 . S
C1164 H1148 0.931 . S
C1164 C1158 1.383 . S
C1164 C1163 1.379 . S
H1165 C1159 0.959 . S
H1166 C1159 0.961 . S
H1167 C1159 0.960 . S
H1168 C1160 0.930 . S
H1169 C1161 0.929 . S
H1170 C1178 0.929 . S
H1171 C1180 0.930 . S
H1172 C1182 0.930 . S
H1173 C1185 0.929 . S
H1174 C1188 0.930 . S
H1175 C1190 0.960 . S
H1176 C1190 0.960 . S
H1177 C1190 0.960 . S
C1178 H1170 0.929 . S
C1178 C1179 1.377 . S
C1178 C1180 1.384 . S
C1179 C1178 1.377 . S
C1179 C1185 1.390 . S
C1180 H1171 0.930 . S
C1180 C1178 1.384 . S
C1180 C1181 1.372 . S
C1181 C1180 1.372 . S
C1181 C1182 1.400 . S
C1181 C1186 1.490 . S
C1182 H1172 0.930 . S
C1182 C1181 1.400 . S
C1182 C1185 1.386 . S
H1183 C1199 0.930 . S
H1184 C1200 0.931 . S
C1185 H1173 0.929 . S
C1185 C1179 1.390 . S
C1185 C1182 1.386 . S
C1186 C1181 1.490 . S
C1186 C1188 1.395 . S
C1186 C1189 1.403 . S
H1187 C1193 0.930 . S
C1188 H1174 0.930 . S
C1188 C1186 1.395 . S
C1188 C1191 1.403 . S
C1189 C1186 1.403 . S
C1189 C1190 1.524 . S
C1189 C1193 1.400 . S
C1190 H1175 0.960 . S
C1190 H1176 0.960 . S
C1190 H1177 0.960 . S
C1190 C1189 1.524 . S
C1191 C1188 1.403 . S
C1191 C1192 1.392 . S
C1191 C1195 1.495 . S
C1192 C1191 1.392 . S
C1192 C1193 1.385 . S
C1192 C1194 1.478 . S
C1193 H1187 0.930 . S
C1193 C1189 1.400 . S
C1193 C1192 1.385 . S
C1194 C1192 1.478 . S
C1194 C1196 1.381 . S
C1194 C1200 1.383 . S
C1195 C1191 1.495 . S
C1195 H1201 0.959 . S
C1195 H1202 0.961 . S
C1195 H1203 0.960 . S
C1196 C1194 1.381 . S
C1196 C1197 1.394 . S
C1196 H1204 0.930 . S
C1197 C1196 1.394 . S
C1197 C1198 1.383 . S
C1197 H1205 0.929 . S
C1198 C1197 1.383 . S
C1198 C1199 1.377 . S
C1199 H1183 0.930 . S
C1199 C1198 1.377 . S
C1199 C1200 1.379 . S
C1200 H1184 0.931 . S
C1200 C1194 1.383 . S
C1200 C1199 1.379 . S
H1201 C1195 0.959 . S
H1202 C1195 0.961 . S
H1203 C1195 0.960 . S
H1204 C1196 0.930 . S
H1205 C1197 0.929 . S
H1206 C1214 0.929 . S
H1207 C1216 0.930 . S
H1208 C1218 0.930 . S
H1209 C1221 0.929 . S
H1210 C1224 0.930 . S
H1211 C1226 0.960 . S
H1212 C1226 0.960 . S
H1213 C1226 0.960 . S
C1214 H1206 0.929 . S
C1214 C1215 1.377 . S
C1214 C1216 1.384 . S
C1215 C1214 1.377 . S
C1215 C1221 1.390 . S
C1216 H1207 0.930 . S
C1216 C1214 1.384 . S
C1216 C1217 1.372 . S
C1217 C1216 1.372 . S
C1217 C1218 1.400 . S
C1217 C1222 1.490 . S
C1218 H1208 0.930 . S
C1218 C1217 1.400 . S
C1218 C1221 1.386 . S
H1219 C1235 0.930 . S
H1220 C1236 0.931 . S
C1221 H1209 0.929 . S
C1221 C1215 1.390 . S
C1221 C1218 1.386 . S
C1222 C1217 1.490 . S
C1222 C1224 1.395 . S
C1222 C1225 1.403 . S
H1223 C1229 0.930 . S
C1224 H1210 0.930 . S
C1224 C1222 1.395 . S
C1224 C1227 1.403 . S
C1225 C1222 1.403 . S
C1225 C1226 1.524 . S
C1225 C1229 1.400 . S
C1226 H1211 0.960 . S
C1226 H1212 0.960 . S
C1226 H1213 0.960 . S
C1226 C1225 1.524 . S
C1227 C1224 1.403 . S
C1227 C1228 1.392 . S
C1227 C1231 1.495 . S
C1228 C1227 1.392 . S
C1228 C1229 1.385 . S
C1228 C1230 1.478 . S
C1229 H1223 0.930 . S
C1229 C1225 1.400 . S
C1229 C1228 1.385 . S
C1230 C1228 1.478 . S
C1230 C1232 1.381 . S
C1230 C1236 1.383 . S
C1231 C1227 1.495 . S
C1231 H1237 0.959 . S
C1231 H1238 0.961 . S
C1231 H1239 0.960 . S
C1232 C1230 1.381 . S
C1232 C1233 1.394 . S
C1232 H1240 0.930 . S
C1233 C1232 1.394 . S
C1233 C1234 1.383 . S
C1233 H1241 0.929 . S
C1234 C1233 1.383 . S
C1234 C1235 1.377 . S
C1235 H1219 0.930 . S
C1235 C1234 1.377 . S
C1235 C1236 1.379 . S
C1236 H1220 0.931 . S
C1236 C1230 1.383 . S
C1236 C1235 1.379 . S
H1237 C1231 0.959 . S
H1238 C1231 0.961 . S
H1239 C1231 0.960 . S
H1240 C1232 0.930 . S
H1241 C1233 0.929 . S
H1242 C1250 0.929 . S
H1243 C1252 0.930 . S
H1244 C1254 0.930 . S
H1245 C1257 0.929 . S
H1246 C1260 0.930 . S
H1247 C1262 0.960 . S
H1248 C1262 0.960 . S
H1249 C1262 0.960 . S
C1250 H1242 0.929 . S
C1250 C1251 1.377 . S
C1250 C1252 1.384 . S
C1251 C1250 1.377 . S
C1251 C1257 1.390 . S
C1252 H1243 0.930 . S
C1252 C1250 1.384 . S
C1252 C1253 1.372 . S
C1253 C1252 1.372 . S
C1253 C1254 1.400 . S
C1253 C1258 1.490 . S
C1254 H1244 0.930 . S
C1254 C1253 1.400 . S
C1254 C1257 1.386 . S
H1255 C1271 0.930 . S
H1256 C1272 0.931 . S
C1257 H1245 0.929 . S
C1257 C1251 1.390 . S
C1257 C1254 1.386 . S
C1258 C1253 1.490 . S
C1258 C1260 1.395 . S
C1258 C1261 1.403 1_545 S
H1259 C1265 0.930 . S
C1260 H1246 0.930 . S
C1260 C1258 1.395 . S
C1260 C1263 1.403 . S
C1261 C1258 1.403 1_565 S
C1261 C1262 1.524 . S
C1261 C1265 1.400 . S
C1262 H1247 0.960 . S
C1262 H1248 0.960 . S
C1262 H1249 0.960 . S
C1262 C1261 1.524 . S
C1263 C1260 1.403 . S
C1263 C1264 1.392 . S
C1263 C1267 1.495 . S
C1264 C1263 1.392 . S
C1264 C1265 1.385 1_545 S
C1264 C1266 1.478 . S
C1265 H1259 0.930 . S
C1265 C1261 1.400 . S
C1265 C1264 1.385 1_565 S
C1266 C1264 1.478 . S
C1266 C1268 1.381 . S
C1266 C1272 1.383 1_545 S
C1267 C1263 1.495 . S
C1267 H1273 0.959 . S
C1267 H1274 0.961 . S
C1267 H1275 0.960 . S
C1268 C1266 1.381 . S
C1268 C1269 1.394 . S
C1268 H1276 0.930 . S
C1269 C1268 1.394 . S
C1269 C1270 1.383 1_545 S
C1269 H1277 0.929 . S
C1270 C1269 1.383 1_565 S
C1270 C1271 1.377 . S
C1271 H1255 0.930 . S
C1271 C1270 1.377 . S
C1271 C1272 1.379 . S
C1272 H1256 0.931 . S
C1272 C1266 1.383 1_565 S
C1272 C1271 1.379 . S
H1273 C1267 0.959 . S
H1274 C1267 0.961 . S
H1275 C1267 0.960 . S
H1276 C1268 0.930 . S
H1277 C1269 0.929 . S
H1278 C1286 0.929 1_455 S
H1279 C1288 0.930 . S
H1280 C1290 0.930 . S
H1281 C1293 0.929 . S
H1282 C1296 0.930 1_455 S
H1283 C1298 0.960 . S
H1284 C1298 0.960 . S
H1285 C1298 0.960 . S
C1286 H1278 0.929 1_655 S
C1286 C1287 1.377 . S
C1286 C1288 1.384 1_655 S
C1287 C1286 1.377 . S
C1287 C1293 1.390 . S
C1288 H1279 0.930 . S
C1288 C1286 1.384 1_455 S
C1288 C1289 1.372 1_455 S
C1289 C1288 1.372 1_655 S
C1289 C1290 1.400 . S
C1289 C1294 1.490 . S
C1290 H1280 0.930 . S
C1290 C1289 1.400 . S
C1290 C1293 1.386 . S
H1291 C1307 0.930 . S
H1292 C1308 0.931 . S
C1293 H1281 0.929 . S
C1293 C1287 1.390 . S
C1293 C1290 1.386 . S
C1294 C1289 1.490 . S
C1294 C1296 1.395 . S
C1294 C1297 1.403 . S
H1295 C1301 0.930 . S
C1296 H1282 0.930 1_655 S
C1296 C1294 1.395 . S
C1296 C1299 1.403 1_655 S
C1297 C1294 1.403 . S
C1297 C1298 1.524 . S
C1297 C1301 1.400 . S
C1298 H1283 0.960 . S
C1298 H1284 0.960 . S
C1298 H1285 0.960 . S
C1298 C1297 1.524 . S
C1299 C1296 1.403 1_455 S
C1299 C1300 1.392 1_455 S
C1299 C1303 1.495 . S
C1300 C1299 1.392 1_655 S
C1300 C1301 1.385 . S
C1300 C1302 1.474 1_655 S
C1301 H1295 0.930 . S
C1301 C1297 1.400 . S
C1301 C1300 1.385 . S
C1302 C1300 1.474 1_455 S
C1302 C1304 1.387 . S
C1302 C1308 1.380 1_455 S
C1303 C1299 1.495 . S
C1303 H1309 0.959 . S
C1303 H1310 0.961 1_455 S
C1303 H1311 0.960 . S
C1304 C1302 1.387 . S
C1304 C1305 1.394 . S
C1304 H1312 0.930 . S
C1305 C1304 1.394 . S
C1305 C1306 1.383 . S
C1305 H1313 0.929 . S
C1306 C1305 1.383 . S
C1306 C1307 1.377 1_455 S
C1307 H1291 0.930 . S
C1307 C1306 1.377 1_655 S
C1307 C1308 1.379 . S
C1308 H1292 0.931 . S
C1308 C1302 1.380 1_655 S
C1308 C1307 1.379 . S
H1309 C1303 0.959 . S
H1310 C1303 0.961 1_655 S
H1311 C1303 0.960 . S
H1312 C1304 0.930 . S
H1313 C1305 0.929 . S
H1314 C1322 0.929 . S
H1315 C1324 0.930 . S
H1316 C1326 0.930 . S
H1317 C1329 0.929 . S
H1318 C1332 0.930 . S
H1319 C1334 0.960 . S
H1320 C1334 0.960 . S
H1321 C1334 0.960 . S
C1322 H1314 0.929 . S
C1322 C1323 1.377 . S
C1322 C1324 1.384 . S
C1323 C1322 1.377 . S
C1323 C1329 1.390 . S
C1324 H1315 0.930 . S
C1324 C1322 1.384 . S
C1324 C1325 1.372 . S
C1325 C1324 1.372 . S
C1325 C1326 1.400 . S
C1325 C1330 1.490 . S
C1326 H1316 0.930 . S
C1326 C1325 1.400 . S
C1326 C1329 1.386 . S
H1327 C1343 0.930 . S
H1328 C1344 0.931 . S
C1329 H1317 0.929 . S
C1329 C1323 1.390 . S
C1329 C1326 1.386 . S
C1330 C1325 1.490 . S
C1330 C1332 1.395 . S
C1330 C1333 1.403 . S
H1331 C1337 0.930 . S
C1332 H1318 0.930 . S
C1332 C1330 1.395 . S
C1332 C1335 1.403 . S
C1333 C1330 1.403 . S
C1333 C1334 1.524 . S
C1333 C1337 1.400 . S
C1334 H1319 0.960 . S
C1334 H1320 0.960 . S
C1334 H1321 0.960 . S
C1334 C1333 1.524 . S
C1335 C1332 1.403 . S
C1335 C1336 1.392 . S
C1335 C1339 1.495 . S
C1336 C1335 1.392 . S
C1336 C1337 1.385 . S
C1336 C1338 1.478 . S
C1337 H1331 0.930 . S
C1337 C1333 1.400 . S
C1337 C1336 1.385 . S
C1338 C1336 1.478 . S
C1338 C1340 1.381 . S
C1338 C1344 1.383 . S
C1339 C1335 1.495 . S
C1339 H1345 0.959 . S
C1339 H1346 0.961 . S
C1339 H1347 0.960 . S
C1340 C1338 1.381 . S
C1340 C1341 1.394 . S
C1340 H1348 0.930 . S
C1341 C1340 1.394 . S
C1341 C1342 1.383 . S
C1341 H1349 0.929 . S
C1342 C1341 1.383 . S
C1342 C1343 1.377 . S
C1343 H1327 0.930 . S
C1343 C1342 1.377 . S
C1343 C1344 1.379 . S
C1344 H1328 0.931 . S
C1344 C1338 1.383 . S
C1344 C1343 1.379 . S
H1345 C1339 0.959 . S
H1346 C1339 0.961 . S
H1347 C1339 0.960 . S
H1348 C1340 0.930 . S
H1349 C1341 0.929 . S
H1350 C1358 0.929 . S
H1351 C1360 0.930 . S
H1352 C1362 0.930 . S
H1353 C1365 0.929 . S
H1354 C1368 0.930 . S
H1355 C1370 0.960 . S
H1356 C1370 0.960 . S
H1357 C1370 0.960 1_545 S
C1358 H1350 0.929 . S
C1358 C1359 1.377 1_565 S
C1358 C1360 1.384 . S
C1359 C1358 1.377 1_545 S
C1359 C1365 1.390 . S
C1360 H1351 0.930 . S
C1360 C1358 1.384 . S
C1360 C1361 1.372 . S
C1361 C1360 1.372 . S
C1361 C1362 1.400 1_565 S
C1361 C1366 1.490 . S
C1362 H1352 0.930 . S
C1362 C1361 1.400 1_545 S
C1362 C1365 1.386 . S
H1363 C1379 0.930 1_545 S
H1364 C1380 0.931 . S
C1365 H1353 0.929 . S
C1365 C1359 1.390 . S
C1365 C1362 1.386 . S
C1366 C1361 1.490 . S
C1366 C1368 1.395 . S
C1366 C1369 1.403 . S
H1367 C1373 0.930 . S
C1368 H1354 0.930 . S
C1368 C1366 1.395 . S
C1368 C1371 1.403 . S
C1369 C1366 1.403 . S
C1369 C1370 1.524 . S
C1369 C1373 1.400 . S
C1370 H1355 0.960 . S
C1370 H1356 0.960 . S
C1370 H1357 0.960 1_565 S
C1370 C1369 1.524 . S
C1371 C1368 1.403 . S
C1371 C1372 1.392 . S
C1371 C1375 1.495 . S
C1372 C1371 1.392 . S
C1372 C1373 1.385 . S
C1372 C1374 1.478 . S
C1373 H1367 0.930 . S
C1373 C1369 1.400 . S
C1373 C1372 1.385 . S
C1374 C1372 1.478 . S
C1374 C1376 1.381 . S
C1374 C1380 1.383 1_565 S
C1375 C1371 1.495 . S
C1375 H1381 0.959 . S
C1375 H1382 0.935 1_565 S
C1375 H1383 0.960 . S
C1376 C1374 1.381 . S
C1376 C1377 1.394 . S
C1376 H1384 0.930 . S
C1377 C1376 1.394 . S
C1377 C1378 1.383 . S
C1377 H1385 0.929 . S
C1378 C1377 1.383 . S
C1378 C1379 1.377 . S
C1379 H1363 0.930 1_565 S
C1379 C1378 1.377 . S
C1379 C1380 1.379 1_565 S
C1380 H1364 0.931 . S
C1380 C1374 1.383 1_545 S
C1380 C1379 1.379 1_545 S
H1381 C1375 0.959 . S
H1382 C1375 0.935 1_545 S
H1383 C1375 0.960 . S
H1384 C1376 0.930 . S
H1385 C1377 0.929 . S
H1386 C1394 0.929 . S
H1387 C1396 0.930 . S
H1388 C1398 0.930 . S
H1389 C1401 0.929 . S
H1390 C1404 0.930 . S
H1391 C1406 0.960 . S
H1392 C1406 0.960 . S
H1393 C1406 0.960 . S
C1394 H1386 0.929 . S
C1394 C1395 1.377 . S
C1394 C1396 1.384 . S
C1395 C1394 1.377 . S
C1395 C1401 1.390 . S
C1396 H1387 0.930 . S
C1396 C1394 1.384 . S
C1396 C1397 1.372 . S
C1397 C1396 1.372 . S
C1397 C1398 1.400 . S
C1397 C1402 1.490 . S
C1398 H1388 0.930 . S
C1398 C1397 1.400 . S
C1398 C1401 1.386 . S
H1399 C1415 0.930 . S
H1400 C1416 0.931 . S
C1401 H1389 0.929 . S
C1401 C1395 1.390 . S
C1401 C1398 1.386 . S
C1402 C1397 1.490 . S
C1402 C1404 1.395 1_455 S
C1402 C1405 1.403 . S
H1403 C1409 0.930 . S
C1404 H1390 0.930 . S
C1404 C1402 1.395 1_655 S
C1404 C1407 1.403 . S
C1405 C1402 1.403 . S
C1405 C1406 1.524 . S
C1405 C1409 1.400 . S
C1406 H1391 0.960 . S
C1406 H1392 0.960 . S
C1406 H1393 0.960 . S
C1406 C1405 1.524 . S
C1407 C1404 1.403 . S
C1407 C1408 1.392 1_655 S
C1407 C1411 1.495 . S
C1408 C1407 1.392 1_455 S
C1408 C1409 1.385 . S
C1408 C1410 1.478 1_455 S
C1409 H1403 0.930 . S
C1409 C1405 1.400 . S
C1409 C1408 1.385 . S
C1410 C1408 1.478 1_655 S
C1410 C1412 1.381 1_655 S
C1410 C1416 1.383 . S
C1411 C1407 1.495 . S
C1411 H1417 0.959 . S
C1411 H1418 0.961 . S
C1411 H1419 0.960 . S
C1412 C1410 1.381 1_455 S
C1412 C1413 1.394 . S
C1412 H1420 0.930 . S
C1413 C1412 1.394 . S
C1413 C1414 1.383 1_455 S
C1413 H1421 0.929 . S
C1414 C1413 1.383 1_655 S
C1414 C1415 1.377 . S
C1415 H1399 0.930 . S
C1415 C1414 1.377 . S
C1415 C1416 1.379 . S
C1416 H1400 0.931 . S
C1416 C1410 1.383 . S
C1416 C1415 1.379 . S
H1417 C1411 0.959 . S
H1418 C1411 0.961 . S
H1419 C1411 0.960 . S
H1420 C1412 0.930 . S
H1421 C1413 0.929 . S
H1422 C1430 0.929 . S
H1423 C1432 0.930 . S
H1424 C1434 0.930 . S
H1425 C1437 0.929 . S
H1426 C1440 0.930 . S
H1427 C1442 0.960 . S
H1428 C1442 0.960 . S
H1429 C1442 0.960 . S
C1430 H1422 0.929 . S
C1430 C1431 1.377 . S
C1430 C1432 1.384 . S
C1431 C1430 1.377 . S
C1431 C1437 1.390 . S
C1432 H1423 0.930 . S
C1432 C1430 1.384 . S
C1432 C1433 1.372 . S
C1433 C1432 1.372 . S
C1433 C1434 1.400 . S
C1433 C1438 1.490 . S
C1434 H1424 0.930 . S
C1434 C1433 1.400 . S
C1434 C1437 1.386 . S
H1435 C1451 0.930 . S
H1436 C1452 0.931 . S
C1437 H1425 0.929 . S
C1437 C1431 1.390 . S
C1437 C1434 1.386 . S
C1438 C1433 1.490 . S
C1438 C1440 1.395 . S
C1438 C1441 1.403 . S
H1439 C1445 0.930 . S
C1440 H1426 0.930 . S
C1440 C1438 1.395 . S
C1440 C1443 1.403 . S
C1441 C1438 1.403 . S
C1441 C1442 1.524 . S
C1441 C1445 1.400 . S
C1442 H1427 0.960 . S
C1442 H1428 0.960 . S
C1442 H1429 0.960 . S
C1442 C1441 1.524 . S
C1443 C1440 1.403 . S
C1443 C1444 1.392 . S
C1443 C1447 1.495 . S
C1444 C1443 1.392 . S
C1444 C1445 1.385 . S
C1444 C1446 1.478 . S
C1445 H1439 0.930 . S
C1445 C1441 1.400 . S
C1445 C1444 1.385 . S
C1446 C1444 1.478 . S
C1446 C1448 1.381 . S
C1446 C1452 1.383 . S
C1447 C1443 1.495 . S
C1447 H1453 0.959 . S
C1447 H1454 0.961 . S
C1447 H1455 0.960 . S
C1448 C1446 1.381 . S
C1448 C1449 1.394 . S
C1448 H1456 0.930 . S
C1449 C1448 1.394 . S
C1449 C1450 1.383 . S
C1449 H1457 0.929 . S
C1450 C1449 1.383 . S
C1450 C1451 1.377 . S
C1451 H1435 0.930 . S
C1451 C1450 1.377 . S
C1451 C1452 1.379 . S
C1452 H1436 0.931 . S
C1452 C1446 1.383 . S
C1452 C1451 1.379 . S
H1453 C1447 0.959 . S
H1454 C1447 0.961 . S
H1455 C1447 0.960 . S
H1456 C1448 0.930 . S
H1457 C1449 0.929 . S
H1458 C1466 0.929 . S
H1459 C1468 0.930 . S
H1460 C1470 0.930 . S
H1461 C1473 0.929 . S
H1462 C1476 0.930 . S
H1463 C1478 0.960 . S
H1464 C1478 0.960 . S
H1465 C1478 0.960 . S
C1466 H1458 0.929 . S
C1466 C1467 1.377 . S
C1466 C1468 1.384 . S
C1467 C1466 1.377 . S
C1467 C1473 1.390 . S
C1468 H1459 0.930 . S
C1468 C1466 1.384 . S
C1468 C1469 1.372 . S
C1469 C1468 1.372 . S
C1469 C1470 1.400 . S
C1469 C1474 1.490 . S
C1470 H1460 0.930 . S
C1470 C1469 1.400 . S
C1470 C1473 1.386 . S
H1471 C1487 0.930 . S
H1472 C1488 0.931 . S
C1473 H1461 0.929 . S
C1473 C1467 1.390 . S
C1473 C1470 1.386 . S
C1474 C1469 1.490 . S
C1474 C1476 1.395 . S
C1474 C1477 1.403 . S
H1475 C1481 0.930 . S
C1476 H1462 0.930 . S
C1476 C1474 1.395 . S
C1476 C1479 1.403 . S
C1477 C1474 1.403 . S
C1477 C1478 1.524 . S
C1477 C1481 1.400 . S
C1478 H1463 0.960 . S
C1478 H1464 0.960 . S
C1478 H1465 0.960 . S
C1478 C1477 1.524 . S
C1479 C1476 1.403 . S
C1479 C1480 1.392 . S
C1479 C1483 1.495 . S
C1480 C1479 1.392 . S
C1480 C1481 1.385 . S
C1480 C1482 1.478 . S
C1481 H1475 0.930 . S
C1481 C1477 1.400 . S
C1481 C1480 1.385 . S
C1482 C1480 1.478 . S
C1482 C1484 1.381 . S
C1482 C1488 1.383 . S
C1483 C1479 1.495 . S
C1483 H1489 0.959 . S
C1483 H1490 0.961 . S
C1483 H1491 0.960 . S
C1484 C1482 1.381 . S
C1484 C1485 1.394 . S
C1484 H1492 0.930 . S
C1485 C1484 1.394 . S
C1485 C1486 1.383 . S
C1485 H1493 0.929 . S
C1486 C1485 1.383 . S
C1486 C1487 1.377 . S
C1487 H1471 0.930 . S
C1487 C1486 1.377 . S
C1487 C1488 1.379 . S
C1488 H1472 0.931 . S
C1488 C1482 1.383 . S
C1488 C1487 1.379 . S
H1489 C1483 0.959 . S
H1490 C1483 0.961 . S
H1491 C1483 0.960 . S
H1492 C1484 0.930 . S
H1493 C1485 0.929 . S
H1494 C1502 0.929 . S
H1495 C1504 0.930 . S
H1496 C1506 0.930 . S
H1497 C1509 0.929 . S
H1498 C1512 0.930 . S
H1499 C1514 0.960 . S
H1500 C1514 0.960 . S
H1501 C1514 0.960 . S
C1502 H1494 0.929 . S
C1502 C1503 1.377 . S
C1502 C1504 1.384 . S
C1503 C1502 1.377 . S
C1503 C1509 1.390 . S
C1504 H1495 0.930 . S
C1504 C1502 1.384 . S
C1504 C1505 1.372 . S
C1505 C1504 1.372 . S
C1505 C1506 1.400 . S
C1505 C1510 1.490 . S
C1506 H1496 0.930 . S
C1506 C1505 1.400 . S
C1506 C1509 1.386 . S
H1507 C1523 0.930 . S
H1508 C1524 0.931 . S
C1509 H1497 0.929 . S
C1509 C1503 1.390 . S
C1509 C1506 1.386 . S
C1510 C1505 1.490 . S
C1510 C1512 1.395 . S
C1510 C1513 1.403 . S
H1511 C1517 0.930 . S
C1512 H1498 0.930 . S
C1512 C1510 1.395 . S
C1512 C1515 1.403 . S
C1513 C1510 1.403 . S
C1513 C1514 1.524 . S
C1513 C1517 1.400 . S
C1514 H1499 0.960 . S
C1514 H1500 0.960 . S
C1514 H1501 0.960 . S
C1514 C1513 1.524 . S
C1515 C1512 1.403 . S
C1515 C1516 1.392 . S
C1515 C1519 1.495 . S
C1516 C1515 1.392 . S
C1516 C1517 1.385 . S
C1516 C1518 1.478 . S
C1517 H1511 0.930 . S
C1517 C1513 1.400 . S
C1517 C1516 1.385 . S
C1518 C1516 1.478 . S
C1518 C1520 1.381 . S
C1518 C1524 1.383 . S
C1519 C1515 1.495 . S
C1519 H1525 0.959 . S
C1519 H1526 0.961 . S
C1519 H1527 0.960 . S
C1520 C1518 1.381 . S
C1520 C1521 1.394 . S
C1520 H1528 0.930 . S
C1521 C1520 1.394 . S
C1521 C1522 1.383 . S
C1521 H1529 0.929 . S
C1522 C1521 1.383 . S
C1522 C1523 1.377 . S
C1523 H1507 0.930 . S
C1523 C1522 1.377 . S
C1523 C1524 1.379 . S
C1524 H1508 0.931 . S
C1524 C1518 1.383 . S
C1524 C1523 1.379 . S
H1525 C1519 0.959 . S
H1526 C1519 0.961 . S
H1527 C1519 0.960 . S
H1528 C1520 0.930 . S
H1529 C1521 0.929 . S
C243 C5 2.021 . S
C262 C44 2.027 . S
C279 C18 2.019 . S
C298 C55 2.005 . S
C315 C70 2.018 . S
C334 C29 2.016 . S
C351 C83 2.018 . S
C370 C122 2.011 . S
C387 C94 2.022 . S
C406 C135 2.017 . S
C423 C146 2.019 . S
C442 C107 2.005 . S
C459 C198 2.020 . S
C478 C159 2.026 . S
C495 C213 2.022 . S
C514 C174 2.017 . S
C531 C224 2.018 . S
C550 C187 2.010 . S
C567 C10 1.622 . S
C586 C127 1.601 . S
C603 C23 1.622 . S
C622 C140 1.600 . S
C639 C147 1.618 . S
C658 C30 1.614 . S
C675 C49 1.620 . S
C694 C160 1.598 . S
C711 C56 1.626 . S
C730 C179 1.621 . S
C747 C75 1.625 . S
C766 C192 1.639 . S
C783 C88 1.625 . S
C802 C199 1.640 . S
C819 C95 1.621 . S
C838 C218 1.633 . S
C855 C225 1.619 . S
C874 C108 1.624 . S
C891 C3 0.648 . S
C910 C62 0.645 . S
C927 C16 0.649 . S
C946 C69 0.662 . S
C963 C31 0.648 . S
C982 C43 0.654 . S
C999 C42 0.649 . S
C1018 C17 0.653 . S
C1035 C36 0.651 . S
C1054 C57 0.644 . S
C1071 C68 0.646 . S
C1090 C4 0.657 . S
C1107 C81 0.647 . S
C1126 C134 0.639 . S
C1143 C153 0.650 . S
C1162 C96 0.653 . S
C1179 C121 0.645 . S
C1198 C109 0.641 . S
C1215 C101 0.650 . S
C1234 C120 0.642 . S
C1251 C133 0.649 . S
C1270 C114 0.655 . S
C1287 C148 0.648 . S
C1306 C82 0.635 . S
C1323 C212 0.650 . S
C1342 C161 0.656 . S
C1359 C231 0.648 . S
C1378 C172 0.645 . S
C1395 C185 0.646 . S
C1414 C205 0.636 . S
C1431 C173 0.651 . S
C1450 C200 0.650 . S
C1467 C186 0.646 . S
C1486 C211 0.643 . S
C1503 C166 0.650 . S
C1522 C226 0.642 . S
