# Generated by pormake.
# Topology uni, (4)-cn, num edge types: 1
# Building blocks:
#     Node 0, Type 0, BuildingBlock: AZAVOO_clean_sbu_0, # of connection points: 4
#     Node 1, Type 0, BuildingBlock: AZAVOO_clean_sbu_0, # of connection points: 4
#     Node 2, Type 0, BuildingBlock: AZAVOO_clean_sbu_0, # of connection points: 4
#     Node 3, Type 0, BuildingBlock: AZAVOO_clean_sbu_0, # of connection points: 4
#     Node 4, Type 0, BuildingBlock: AZAVOO_clean_sbu_0, # of connection points: 4
#     Node 5, Type 0, BuildingBlock: AZAVOO_clean_sbu_0, # of connection points: 4
#     Edge 6, Type (0, 0), BuildingBlock: ZUJKAS_clean_linker_0, # of connection points: 2
#     Edge 7, Type (0, 0), BuildingBlock: ZUJKAS_clean_linker_0, # of connection points: 2
#     Edge 8, Type (0, 0), BuildingBlock: ZUJKAS_clean_linker_0, # of connection points: 2
#     Edge 9, Type (0, 0), BuildingBlock: ZUJKAS_clean_linker_0, # of connection points: 2
#     Edge 10, Type (0, 0), BuildingBlock: ZUJKAS_clean_linker_0, # of connection points: 2
#     Edge 11, Type (0, 0), BuildingBlock: ZUJKAS_clean_linker_0, # of connection points: 2
#     Edge 12, Type (0, 0), BuildingBlock: ZUJKAS_clean_linker_0, # of connection points: 2
#     Edge 13, Type (0, 0), BuildingBlock: ZUJKAS_clean_linker_0, # of connection points: 2
#     Edge 14, Type (0, 0), BuildingBlock: ZUJKAS_clean_linker_0, # of connection points: 2
#     Edge 15, Type (0, 0), BuildingBlock: ZUJKAS_clean_linker_0, # of connection points: 2
#     Edge 16, Type (0, 0), BuildingBlock: ZUJKAS_clean_linker_0, # of connection points: 2
#     Edge 17, Type (0, 0), BuildingBlock: ZUJKAS_clean_linker_0, # of connection points: 2
# Relax obj value: 0.055
# Max RMSD: 0.097
# Mean RMSD: 0.097
data_MOF--net-uni--node1-AZAVOO_clean_sbu_0--edge1-ZUJKAS_clean_linker_0
_symmetry_space_group_name_H-M    P1
_symmetry_Int_Tables_number       1
_symmetry_cell_setting            triclinic
loop_
_symmetry_equiv_pos_as_xyz
'x, y, z'
_cell_length_a     51.302098
_cell_length_b     51.313593
_cell_length_c     28.386279
_cell_angle_alpha  89.965414
_cell_angle_beta   90.019031
_cell_angle_gamma 119.998
loop_
_atom_site_label
_atom_site_type_symbol
_atom_site_fract_x
_atom_site_fract_y
_atom_site_fract_z
_atom_type_partial_charge
Mg0 Mg 0.6464 0.0216 0.02744 0.0
O1 O 0.6236 0.03499 0.0842 0.0
O2 O 0.61842 0.07296 0.05699 0.0
Mg3 Mg 0.63878 0.08437 0.98287 0.0
C4 C 0.61481 0.05411 0.08927 0.0
C5 C 0.67738 0.99193 0.08651 0.0
O6 O 0.70119 0.01063 0.06198 0.0
O7 O 0.69202 0.06284 0.04354 0.0
O8 O 0.68602 0.09966 0.01288 0.0
O9 O 0.60145 0.99063 0.99611 0.0
O10 O 0.63019 0.03807 0.97447 0.0
C11 C 0.7022 0.09054 0.03346 0.0
C12 C 0.60509 0.01315 0.97065 0.0
O13 O 0.65294 0.99224 0.08103 0.0
Mg14 Mg 0.63913 0.65169 0.1923 0.0
O15 O 0.60234 0.62717 0.24787 0.0
O16 O 0.55887 0.62046 0.21901 0.0
Mg17 Mg 0.5684 0.64282 0.14646 0.0
C18 C 0.57411 0.61715 0.25163 0.0
C19 C 0.6991 0.68265 0.25326 0.0
O20 O 0.70414 0.70677 0.22969 0.0
O21 O 0.64183 0.6962 0.21062 0.0
O22 O 0.59898 0.68962 0.17918 0.0
O23 O 0.6271 0.60792 0.15819 0.0
O24 O 0.60705 0.63571 0.13841 0.0
C25 C 0.62386 0.70588 0.2008 0.0
C26 C 0.60795 0.61126 0.13294 0.0
O27 O 0.67468 0.65809 0.24648 0.0
Mg28 Mg -0.00017 0.64336 0.36084 0.0
O29 O 0.98795 0.60696 0.417 0.0
O30 O 0.95093 0.56336 0.38899 0.0
Mg31 Mg 0.9376 0.57245 0.31655 0.0
C32 C 0.96972 0.57876 0.42122 0.0
C33 C 0.03081 0.70463 0.41744 0.0
O34 O 0.01316 0.71022 0.39095 0.0
O35 O 0.95823 0.64635 0.37966 0.0
O36 O 0.92171 0.60336 0.34907 0.0
O37 O 0.03133 0.63109 0.32657 0.0
O38 O 0.98335 0.61093 0.30753 0.0
C39 C 0.93051 0.62838 0.37031 0.0
C40 C 0.00867 0.61177 0.30183 0.0
O41 O 0.02936 0.67924 0.41414 0.0
Mg42 Mg 0.37256 0.00613 0.52512 0.0
O43 O 0.39664 0.99495 0.58306 0.0
O44 O 0.405 0.95887 0.55612 0.0
Mg45 Mg 0.38443 0.94557 0.48243 0.0
C46 C 0.40723 0.97729 0.58821 0.0
C47 C 0.38465 0.05541 0.59858 0.0
O48 O 0.41193 0.05999 0.59136 0.0
O49 O 0.32837 0.96362 0.54149 0.0
O50 O 0.33651 0.92794 0.51193 0.0
O51 O 0.41677 0.03895 0.49306 0.0
O52 O 0.39072 0.99098 0.47331 0.0
C53 C 0.3194 0.93609 0.53198 0.0
C54 C 0.41479 0.01675 0.46859 0.0
O55 O 0.36266 0.0338 0.57735 0.0
Mg56 Mg 0.37953 0.37683 0.69116 0.0
O57 O 0.41609 0.40303 0.74644 0.0
O58 O 0.4601 0.41124 0.71782 0.0
Mg59 Mg 0.45159 0.38955 0.64491 0.0
C60 C 0.44447 0.41396 0.75039 0.0
C61 C 0.34305 0.38986 0.76503 0.0
O62 O 0.36516 0.41714 0.75582 0.0
O63 O 0.37952 0.33354 0.70977 0.0
O64 O 0.42343 0.3428 0.67876 0.0
O65 O 0.38955 0.42018 0.65704 0.0
O66 O 0.41135 0.39398 0.63724 0.0
C67 C 0.39891 0.32557 0.70057 0.0
C68 C 0.40924 0.41775 0.6318 0.0
O69 O 0.34294 0.36761 0.74515 0.0
Mg70 Mg 0.0166 0.38447 0.86017 0.0
O71 O 0.02667 0.42102 0.91514 0.0
O72 O 0.06255 0.46512 0.88694 0.0
Mg73 Mg 0.07622 0.45653 0.81442 0.0
C74 C 0.044 0.4494 0.91925 0.0
C75 C 0.98811 0.32366 0.91815 0.0
O76 O 0.00641 0.31892 0.89189 0.0
O77 O 0.05976 0.38429 0.87964 0.0
O78 O 0.09446 0.42822 0.84878 0.0
O79 O 0.98358 0.39465 0.82571 0.0
O80 O 0.03162 0.41626 0.80602 0.0
C81 C 0.08716 0.40371 0.87064 0.0
C82 C 0.00578 0.41428 0.80052 0.0
O83 O 0.98833 0.34846 0.91433 0.0
H84 H 0.60183 0.0167 0.16542 0.0
H85 H 0.57116 0.01248 0.23401 0.0
H86 H 0.56031 0.08528 0.18122 0.0
H87 H 0.5907 0.08958 0.11221 0.0
H88 H 0.57696 0.0554 0.30404 0.0
H89 H 0.4734 0.01397 0.19575 0.0
H90 H 0.5071 0.01537 0.17383 0.0
H91 H 0.50475 0.04911 0.17677 0.0
C92 C 0.59312 0.03199 0.16844 0.0
C93 C 0.59849 0.05328 0.13292 0.0
C94 C 0.57566 0.02957 0.20777 0.0
C95 C 0.56313 0.04826 0.21227 0.0
C96 C 0.5694 0.07032 0.17796 0.0
H97 H 0.46866 0.06799 0.45239 0.0
H98 H 0.5063 0.07571 0.39267 0.0
C99 C 0.58686 0.07279 0.13861 0.0
C100 C 0.54245 0.04379 0.25178 0.0
H101 H 0.46948 0.02298 0.27633 0.0
C102 C 0.55345 0.04833 0.29811 0.0
C103 C 0.51173 0.03416 0.24382 0.0
C104 C 0.49837 0.02758 0.19493 0.0
C105 C 0.53454 0.04382 0.33678 0.0
C106 C 0.50397 0.03482 0.3287 0.0
C107 C 0.49297 0.03003 0.28238 0.0
C108 C 0.48269 0.02973 0.36762 0.0
C109 C 0.54723 0.04816 0.38593 0.0
C110 C 0.45689 0.00138 0.3732 0.0
C111 C 0.43529 0.99695 0.40701 0.0
C112 C 0.439 0.02084 0.43584 0.0
C113 C 0.4652 0.04909 0.4309 0.0
C114 C 0.48682 0.05351 0.39697 0.0
H115 H 0.56876 0.04791 0.38657 0.0
H116 H 0.55166 0.07025 0.39965 0.0
H117 H 0.531 0.03038 0.41 0.0
H118 H 0.45321 0.98278 0.35073 0.0
H119 H 0.41531 0.97498 0.4096 0.0
H120 H 0.59716 0.62266 0.34025 0.0
H121 H 0.57115 0.59326 0.41025 0.0
H122 H 0.48995 0.54276 0.32872 0.0
H123 H 0.51535 0.57322 0.25951 0.0
H124 H 0.47607 0.55409 0.4104 0.0
H125 H 0.55454 0.51086 0.43873 0.0
H126 H 0.57306 0.55109 0.44166 0.0
H127 H 0.55633 0.53212 0.38711 0.0
C128 C 0.57373 0.60533 0.33739 0.0
C129 C 0.55832 0.6001 0.29438 0.0
C130 C 0.55894 0.58836 0.37732 0.0
C131 C 0.52877 0.5652 0.37459 0.0
C132 C 0.51325 0.5604 0.33179 0.0
H133 H 0.43842 0.41155 0.55667 0.0
H134 H 0.46768 0.44902 0.49683 0.0
C135 C 0.5278 0.57781 0.2922 0.0
C136 C 0.51318 0.54582 0.41599 0.0
H137 H 0.51761 0.49921 0.4975 0.0
C138 C 0.48513 0.54204 0.42939 0.0
C139 C 0.52482 0.52979 0.44051 0.0
C140 C 0.55367 0.53089 0.426 0.0
C141 C 0.46816 0.52235 0.46589 0.0
C142 C 0.48018 0.50696 0.49125 0.0
C143 C 0.50849 0.51119 0.47842 0.0
C144 C 0.46299 0.48476 0.52892 0.0
C145 C 0.43701 0.51731 0.47527 0.0
C146 C 0.45093 0.49237 0.5675 0.0
C147 C 0.43352 0.47067 0.60126 0.0
C148 C 0.42868 0.44127 0.59777 0.0
C149 C 0.44181 0.43405 0.56032 0.0
C150 C 0.45858 0.45549 0.52609 0.0
H151 H 0.42805 0.52372 0.44445 0.0
H152 H 0.421 0.49341 0.48399 0.0
H153 H 0.43793 0.53148 0.50545 0.0
H154 H 0.45483 0.51502 0.57144 0.0
H155 H 0.42395 0.47693 0.63012 0.0
H156 H 0.96173 0.42954 0.79957 0.0
H157 H 0.95456 0.46058 0.74117 0.0
H158 H 0.03288 0.47279 0.66553 0.0
H159 H 0.04107 0.44335 0.72515 0.0
H160 H 0.03282 0.52287 0.66606 0.0
H161 H 0.91833 0.43346 0.61479 0.0
H162 H 0.9208 0.4435 0.67575 0.0
H163 H 0.94175 0.42643 0.65399 0.0
C164 C 0.97745 0.439 0.77054 0.0
C165 C 0.00184 0.4339 0.76668 0.0
C166 C 0.9732 0.45651 0.73696 0.0
C167 C 0.9927 0.46841 0.69814 0.0
C168 C 0.01743 0.4638 0.69497 0.0
H169 H 0.9549 0.52005 0.4295 0.0
H170 H 0.96049 0.49492 0.49861 0.0
C171 C 0.02208 0.44693 0.72906 0.0
C172 C 0.98756 0.48554 0.66053 0.0
H173 H 0.93585 0.48142 0.58062 0.0
C174 C 0.01161 0.51377 0.64732 0.0
C175 C 0.95999 0.47355 0.63563 0.0
C176 C 0.93386 0.44246 0.64539 0.0
C177 C 0.00914 0.53006 0.60951 0.0
C178 C 0.98132 0.51844 0.58546 0.0
C179 C 0.95709 0.49048 0.59924 0.0
C180 C 0.97731 0.53393 0.54411 0.0
C181 C 0.03684 0.55883 0.59458 0.0
C182 C 0.98441 0.56413 0.54666 0.0
C183 C 0.98192 0.57876 0.50676 0.0
C184 C 0.97133 0.56317 0.46399 0.0
C185 C 0.96305 0.53263 0.46201 0.0
C186 C 0.96623 0.51824 0.50154 0.0
H187 H 0.0578 0.55968 0.60698 0.0
H188 H 0.03803 0.56139 0.55568 0.0
H189 H 0.03617 0.57828 0.61028 0.0
H190 H 0.992 0.57647 0.57943 0.0
H191 H 0.98808 0.60221 0.50946 0.0
H192 H 0.545 0.9715 0.97207 0.0
H193 H 0.50693 0.96514 0.914 0.0
H194 H 0.57447 0.04101 0.83554 0.0
H195 H 0.61208 0.04845 0.89479 0.0
H196 H 0.52484 0.0425 0.83475 0.0
H197 H 0.4971 0.92631 0.78952 0.0
H198 H 0.48983 0.93023 0.8501 0.0
H199 H 0.52784 0.94998 0.82804 0.0
C200 C 0.5516 0.98693 0.94258 0.0
C201 C 0.58153 0.01032 0.9377 0.0
C202 C 0.5299 0.98312 0.90919 0.0
C203 C 0.53795 0.00204 0.86957 0.0
C204 C 0.56767 0.02599 0.8656 0.0
H205 H 0.45048 0.96183 0.59985 0.0
H206 H 0.48042 0.96802 0.67013 0.0
C207 C 0.58918 0.03022 0.89948 0.0
C208 C 0.51584 0.9968 0.83163 0.0
H209 H 0.46782 0.94436 0.75303 0.0
C210 C 0.51237 0.02103 0.81686 0.0
C211 C 0.49982 0.96888 0.80783 0.0
C212 C 0.50402 0.94247 0.81931 0.0
C213 C 0.49389 0.01836 0.77852 0.0
C214 C 0.47731 0.99024 0.75546 0.0
C215 C 0.48031 0.96585 0.77087 0.0
C216 C 0.45831 0.98602 0.71335 0.0
C217 C 0.49349 0.04613 0.76194 0.0
C218 C 0.43553 0.99362 0.71423 0.0
C219 C 0.4188 0.99072 0.67362 0.0
C220 C 0.42392 0.97928 0.63182 0.0
C221 C 0.44592 0.9706 0.63155 0.0
C222 C 0.46305 0.97414 0.67176 0.0
H223 H 0.51368 0.06707 0.77415 0.0
H224 H 0.49252 0.04683 0.72292 0.0
H225 H 0.47339 0.04602 0.77658 0.0
H226 H 0.4307 0.00188 0.74622 0.0
H227 H 0.40175 0.99728 0.67502 0.0
H228 H 0.60335 0.55665 0.11555 0.0
H229 H 0.57375 0.52054 0.05378 0.0
H230 H 0.53804 0.5772 0.01127 0.0
H231 H 0.56781 0.61358 0.07221 0.0
H232 H 0.51062 0.48882 0.03406 0.0
H233 H 0.57758 0.56785 0.89079 0.0
H234 H 0.58985 0.57379 0.95141 0.0
H235 H 0.56183 0.58269 0.93212 0.0
C236 C 0.58903 0.56132 0.09329 0.0
C237 C 0.58807 0.58808 0.09866 0.0
C238 C 0.57211 0.54064 0.05809 0.0
C239 C 0.55409 0.54646 0.02757 0.0
C240 C 0.55219 0.57255 0.03401 0.0
H241 H 0.41997 0.42812 0.82518 0.0
H242 H 0.4462 0.4586 0.89405 0.0
C243 C 0.5691 0.59323 0.0691 0.0
C244 C 0.53813 0.52583 0.9879 0.0
H245 H 0.53406 0.52264 0.86787 0.0
C246 C 0.51574 0.49612 0.99769 0.0
C247 C 0.54522 0.53536 0.94054 0.0
C248 C 0.57011 0.56657 0.92789 0.0
C249 C 0.4998 0.4758 0.96123 0.0
C250 C 0.50625 0.48565 0.9139 0.0
C251 C 0.52901 0.51521 0.9042 0.0
C252 C 0.48993 0.46571 0.87366 0.0
C253 C 0.47654 0.44388 0.97363 0.0
C254 C 0.50587 0.45993 0.83901 0.0
C255 C 0.49103 0.44274 0.79941 0.0
C256 C 0.4599 0.43105 0.79352 0.0
C257 C 0.44392 0.43662 0.82863 0.0
C258 C 0.45883 0.4539 0.86822 0.0
H259 H 0.47981 0.43787 0.0099 0.0
H260 H 0.45381 0.44141 0.97175 0.0
H261 H 0.47728 0.42769 0.94849 0.0
H262 H 0.52992 0.46897 0.84245 0.0
H263 H 0.50408 0.43891 0.77319 0.0
H264 H 0.00605 0.4242 0.99463 0.0
H265 H 0.00054 0.45006 0.06294 0.0
H266 H 0.07147 0.53481 0.00998 0.0
H267 H 0.077 0.50933 0.94129 0.0
H268 H 0.04258 0.48699 0.13249 0.0
H269 H -0.00021 0.54895 0.02706 0.0
H270 H 0.002 0.51735 0.00391 0.0
H271 H 0.03523 0.55385 0.0073 0.0
C272 C 0.02058 0.44833 0.99749 0.0
C273 C 0.04179 0.46471 0.96213 0.0
C274 C 0.01742 0.46304 0.03664 0.0
C275 C 0.03528 0.49437 0.04109 0.0
C276 C 0.05709 0.51067 0.00673 0.0
H277 H 0.05878 0.60756 0.28327 0.0
H278 H 0.06476 0.57725 0.2223 0.0
C279 C 0.06028 0.49602 0.96756 0.0
C280 C 0.03061 0.5101 0.0811 0.0
H281 H 0.0104 0.56246 0.10747 0.0
C282 C 0.03548 0.50345 0.12714 0.0
C283 C 0.02093 0.53122 0.07395 0.0
C284 C 0.01389 0.53813 0.02545 0.0
C285 C 0.03143 0.51782 0.16627 0.0
C286 C 0.02263 0.53961 0.15896 0.0
C287 C 0.01733 0.54587 0.11295 0.0
C288 C 0.01857 0.55618 0.19836 0.0
C289 C 0.03612 0.50923 0.21505 0.0
C290 C 0.9907 0.55459 0.20489 0.0
C291 C 0.98728 0.57204 0.23938 0.0
C292 C 0.01171 0.59152 0.26799 0.0
C293 C 0.03947 0.59266 0.262 0.0
C294 C 0.04289 0.57521 0.22736 0.0
H295 H 0.03501 0.48704 0.21526 0.0
H296 H 0.0587 0.52635 0.22798 0.0
H297 H 0.01904 0.50838 0.23999 0.0
H298 H 0.97169 0.54017 0.1827 0.0
H299 H 0.96566 0.57077 0.24275 0.0
H300 H 0.58899 0.73226 0.19814 0.0
H301 H 0.60614 0.78603 0.19795 0.0
H302 H 0.69725 0.80605 0.22223 0.0
H303 H 0.68036 0.75214 0.22251 0.0
H304 H 0.64408 0.837 0.265 0.0
H305 H 0.69522 0.84263 0.08921 0.0
H306 H 0.66726 0.80738 0.11469 0.0
H307 H 0.70491 0.82631 0.13748 0.0
C308 C 0.61261 0.74801 0.20436 0.0
C309 C 0.63337 0.73788 0.20968 0.0
C310 C 0.62233 0.77874 0.20443 0.0
C311 C 0.65296 0.79991 0.20953 0.0
C312 C 0.67352 0.78996 0.21794 0.0
H313 H 0.72534 0.98407 0.10615 0.0
H314 H 0.72416 0.94113 0.14583 0.0
C315 C 0.66379 0.75915 0.21821 0.0
C316 C 0.66339 0.83206 0.20068 0.0
H317 H 0.69408 0.88533 0.11451 0.0
C318 C 0.65546 0.84784 0.23249 0.0
C319 C 0.67833 0.84608 0.15834 0.0
C320 C 0.68689 0.82984 0.12267 0.0
C321 C 0.66133 0.87709 0.22235 0.0
C322 C 0.67466 0.89045 0.17867 0.0
C323 C 0.68387 0.87513 0.14798 0.0
C324 C 0.67653 0.91871 0.16162 0.0
C325 C 0.65287 0.89321 0.25833 0.0
C326 C 0.65026 0.92064 0.15785 0.0
C327 C 0.6509 0.9452 0.1355 0.0
C328 C 0.67774 0.96815 0.11569 0.0
C329 C 0.70427 0.96675 0.12091 0.0
C330 C 0.70365 0.94223 0.14363 0.0
H331 H 0.65398 0.88569 0.29462 0.0
H332 H 0.66782 0.91798 0.2562 0.0
H333 H 0.62935 0.88781 0.25199 0.0
H334 H 0.62888 0.90246 0.17018 0.0
H335 H 0.63001 0.94548 0.13199 0.0
H336 H 0.86924 0.59377 0.36769 0.0
H337 H 0.83282 0.61116 0.36738 0.0
H338 H 0.90417 0.70209 0.39186 0.0
H339 H 0.94101 0.68496 0.39214 0.0
H340 H 0.81928 0.64831 0.43349 0.0
H341 H 0.86659 0.7015 0.25946 0.0
H342 H 0.87403 0.67362 0.28487 0.0
H343 H 0.89215 0.71108 0.30831 0.0
C344 C 0.87721 0.6174 0.37391 0.0
C345 C 0.90812 0.63803 0.37924 0.0
C346 C 0.85631 0.62727 0.37391 0.0
C347 C 0.8659 0.65792 0.37898 0.0
C348 C 0.89643 0.67835 0.3875 0.0
H349 H 0.75445 0.73068 0.275 0.0
H350 H 0.79595 0.72944 0.31553 0.0
C351 C 0.9174 0.66848 0.38779 0.0
C352 C 0.84428 0.66848 0.37004 0.0
H353 H 0.82252 0.70012 0.28416 0.0
C354 C 0.82017 0.66009 0.40125 0.0
C355 C 0.84564 0.68395 0.32805 0.0
C356 C 0.87084 0.69302 0.29295 0.0
C357 C 0.79681 0.66595 0.3908 0.0
C358 C 0.79724 0.6798 0.34741 0.0
C359 C 0.82216 0.68951 0.3174 0.0
C360 C 0.77092 0.68161 0.32983 0.0
C361 C 0.77177 0.65691 0.42611 0.0
C362 C 0.74291 0.65525 0.32492 0.0
C363 C 0.71915 0.65591 0.30207 0.0
C364 C 0.72302 0.6829 0.2829 0.0
C365 C 0.75074 0.70951 0.28926 0.0
C366 C 0.77448 0.70885 0.31246 0.0
H367 H 0.77997 0.65763 0.46258 0.0
H368 H 0.76181 0.67175 0.42406 0.0
H369 H 0.75383 0.63342 0.41896 0.0
H370 H 0.73978 0.6338 0.33675 0.0
H371 H 0.69816 0.63497 0.29769 0.0
H372 H 0.07494 0.70211 0.4676 0.0
H373 H 0.11894 0.74375 0.50431 0.0
H374 H 0.08576 0.80373 0.46901 0.0
H375 H 0.04186 0.76217 0.43089 0.0
H376 H 0.14163 0.82507 0.43903 0.0
H377 H 0.13692 0.79052 0.62445 0.0
H378 H 0.13338 0.76157 0.58523 0.0
H379 H 0.10484 0.77227 0.58559 0.0
C380 C 0.07663 0.724 0.46841 0.0
C381 C 0.05496 0.72884 0.44596 0.0
C382 C 0.10174 0.74779 0.48989 0.0
C383 C 0.10551 0.77683 0.49009 0.0
C384 C 0.08323 0.78146 0.46955 0.0
H385 H 0.27252 0.94555 0.5524 0.0
H386 H 0.21873 0.90829 0.55019 0.0
C387 C 0.05815 0.75768 0.44775 0.0
C388 C 0.13443 0.80278 0.50608 0.0
H389 H 0.18648 0.82686 0.59474 0.0
C390 C 0.1511 0.82581 0.4735 0.0
C391 C 0.14687 0.80375 0.55105 0.0
C392 C 0.12938 0.78083 0.5887 0.0
C393 C 0.18042 0.84882 0.48368 0.0
C394 C 0.19338 0.84886 0.52761 0.0
C395 C 0.17642 0.82661 0.561 0.0
C396 C 0.22539 0.87051 0.53728 0.0
C397 C 0.19801 0.87219 0.44656 0.0
C398 C 0.24676 0.86131 0.5323 0.0
C399 C 0.27746 0.88248 0.53321 0.0
C400 C 0.28731 0.91325 0.53937 0.0
C401 C 0.26575 0.92207 0.54752 0.0
C402 C 0.235 0.90086 0.54625 0.0
H403 H 0.18547 0.8676 0.41283 0.0
H404 H 0.2032 0.8947 0.45943 0.0
H405 H 0.21974 0.87304 0.43971 0.0
H406 H 0.23966 0.83794 0.52529 0.0
H407 H 0.29342 0.87486 0.52717 0.0
H408 H 0.34371 0.27567 0.71646 0.0
H409 H 0.33235 0.22326 0.7205 0.0
H410 H 0.42712 0.25311 0.71222 0.0
H411 H 0.43864 0.30524 0.70816 0.0
H412 H 0.34894 0.19881 0.64543 0.0
H413 H 0.3971 0.18661 0.81267 0.0
H414 H 0.388 0.21599 0.80307 0.0
H415 H 0.42266 0.21998 0.78086 0.0
C416 C 0.36215 0.27109 0.71683 0.0
C417 C 0.39207 0.29458 0.71161 0.0
C418 C 0.35561 0.24116 0.7191 0.0
C419 C 0.37891 0.23434 0.71716 0.0
C420 C 0.40883 0.25787 0.71471 0.0
H421 H 0.4279 0.10862 0.6358 0.0
H422 H 0.42103 0.14789 0.67182 0.0
C423 C 0.41536 0.28767 0.71194 0.0
C424 C 0.37224 0.20298 0.71047 0.0
H425 H 0.39186 0.15234 0.7501 0.0
C426 C 0.3576 0.1882 0.66884 0.0
C427 C 0.38371 0.18937 0.74102 0.0
C428 C 0.3985 0.20369 0.78715 0.0
C429 C 0.35615 0.16125 0.65507 0.0
C430 C 0.36904 0.14837 0.68447 0.0
C431 C 0.38206 0.16226 0.72755 0.0
C432 C 0.37237 0.12268 0.66847 0.0
C433 C 0.3428 0.14808 0.60757 0.0
C434 C 0.34725 0.09501 0.65609 0.0
C435 C 0.35112 0.07257 0.63484 0.0
C436 C 0.38019 0.07731 0.62627 0.0
C437 C 0.4052 0.10429 0.64157 0.0
C438 C 0.40132 0.12676 0.66235 0.0
H439 H 0.33944 0.16403 0.58545 0.0
H440 H 0.35749 0.14163 0.58808 0.0
H441 H 0.32055 0.12756 0.61263 0.0
H442 H 0.32468 0.09111 0.66154 0.0
H443 H 0.33137 0.05187 0.624 0.0
H444 H 0.08203 0.34851 0.88601 0.0
H445 H 0.12323 0.33732 0.88943 0.0
H446 H 0.18788 0.43218 0.88199 0.0
H447 H 0.14714 0.44352 0.87864 0.0
H448 H 0.16394 0.35382 0.81464 0.0
H449 H 0.22517 0.40255 0.98089 0.0
H450 H 0.18671 0.39364 0.97173 0.0
H451 H 0.21742 0.4282 0.94924 0.0
C452 C 0.10503 0.367 0.88648 0.0
C453 C 0.11134 0.3969 0.88168 0.0
C454 C 0.12852 0.36056 0.88837 0.0
C455 C 0.15861 0.38393 0.88645 0.0
C456 C 0.16487 0.41383 0.88447 0.0
H457 H 0.33304 0.43326 0.80149 0.0
H458 H 0.28707 0.42649 0.83812 0.0
C459 C 0.14151 0.42025 0.88212 0.0
C460 C 0.18341 0.37743 0.87932 0.0
H461 H 0.2541 0.39764 0.91765 0.0
C462 C 0.18338 0.36267 0.83772 0.0
C463 C 0.20874 0.38915 0.9094 0.0
C464 C 0.20944 0.40402 0.95556 0.0
C465 C 0.20888 0.36133 0.82353 0.0
C466 C 0.23487 0.37448 0.85244 0.0
C467 C 0.23422 0.38764 0.89547 0.0
C468 C 0.26383 0.37782 0.83599 0.0
C469 C 0.20845 0.34777 0.77613 0.0
C470 C 0.26646 0.35268 0.82407 0.0
C471 C 0.29269 0.35649 0.80256 0.0
C472 C 0.31685 0.38552 0.79315 0.0
C473 C 0.31481 0.41059 0.80791 0.0
C474 C 0.28855 0.40676 0.82902 0.0
H475 H 0.1889 0.34412 0.75436 0.0
H476 H 0.2294 0.36247 0.75619 0.0
H477 H 0.20698 0.32565 0.78136 0.0
H478 H 0.24792 0.33014 0.83013 0.0
H479 H 0.29369 0.3367 0.79212 0.0
H480 H 0.94249 0.32399 0.96727 0.0
H481 H 0.89968 0.28144 0.00468 0.0
H482 H 0.93731 0.22486 0.97231 0.0
H483 H 0.98003 0.26733 0.93344 0.0
H484 H 0.88115 0.20024 0.94269 0.0
H485 H 0.88389 0.23665 0.12626 0.0
H486 H 0.88585 0.26449 0.08603 0.0
H487 H 0.9158 0.25576 0.08727 0.0
C488 C 0.94205 0.30268 0.96887 0.0
C489 C 0.96463 0.29904 0.94704 0.0
C490 C 0.91761 0.27837 0.99076 0.0
C491 C 0.91542 0.24999 0.99203 0.0
C492 C 0.9386 0.24659 0.97204 0.0
H493 H 0.7483 0.0792 0.0505 0.0
H494 H 0.80239 0.11573 0.04899 0.0
C495 C 0.96301 0.27089 0.94981 0.0
C496 C 0.88721 0.22334 0.00865 0.0
H497 H 0.83473 0.19887 0.09662 0.0
C498 C 0.87137 0.19957 0.97685 0.0
C499 C 0.87439 0.22242 0.05324 0.0
C500 C 0.89108 0.24609 0.09028 0.0
C501 C 0.84233 0.17598 0.98715 0.0
C502 C 0.82884 0.17606 0.03052 0.0
C503 C 0.84515 0.19897 0.06333 0.0
C504 C 0.79669 0.15441 0.03963 0.0
C505 C 0.82551 0.15205 0.95044 0.0
C506 C 0.77575 0.16429 0.03668 0.0
C507 C 0.74494 0.14358 0.03729 0.0
C508 C 0.73449 0.11256 0.04119 0.0
C509 C 0.75558 0.10291 0.0474 0.0
C510 C 0.78648 0.1237 0.04641 0.0
H511 H 0.83802 0.15704 0.91663 0.0
H512 H 0.82168 0.13006 0.96368 0.0
H513 H 0.80315 0.14979 0.94359 0.0
H514 H 0.78324 0.18793 0.03148 0.0
H515 H 0.72934 0.15182 0.03286 0.0
loop_
_geom_bond_atom_site_label_1
_geom_bond_atom_site_label_2
_geom_bond_distance
_geom_bond_site_symmetry_2
_ccdc_geom_bond_type
Mg0 O1 2.028 . S
Mg0 O7 1.986 . S
Mg0 O9 2.114 1_545 S
Mg0 O10 2.251 . S
Mg0 O13 2.010 1_545 S
O1 Mg0 2.028 . S
O1 C4 1.250 . S
O2 Mg3 2.028 . S
O2 C4 1.248 . S
Mg3 O2 2.028 . S
Mg3 O8 2.032 . S
Mg3 O10 2.079 . S
C4 O1 1.250 . S
C4 O2 1.248 . S
C5 O6 1.264 . S
C5 O13 1.249 . S
O6 C5 1.264 . S
O7 Mg0 1.986 . S
O7 C11 1.246 . S
O8 Mg3 2.032 . S
O8 C11 1.259 . S
O9 Mg0 2.114 1_565 S
O9 C12 1.252 1_564 S
O10 Mg0 2.251 . S
O10 Mg3 2.079 . S
O10 C12 1.273 1_554 S
C11 O7 1.246 . S
C11 O8 1.259 . S
C12 O9 1.252 1_546 S
C12 O10 1.273 1_556 S
O13 Mg0 2.010 1_565 S
O13 C5 1.249 . S
Mg14 O15 2.028 . S
Mg14 O21 1.986 . S
Mg14 O23 2.114 . S
Mg14 O24 2.251 . S
Mg14 O27 2.010 . S
O15 Mg14 2.028 . S
O15 C18 1.250 . S
O16 Mg17 2.028 . S
O16 C18 1.248 . S
Mg17 O16 2.028 . S
Mg17 O22 2.032 . S
Mg17 O24 2.079 . S
C18 O15 1.250 . S
C18 O16 1.248 . S
C19 O20 1.264 . S
C19 O27 1.249 . S
O20 C19 1.264 . S
O21 Mg14 1.986 . S
O21 C25 1.246 . S
O22 Mg17 2.032 . S
O22 C25 1.259 . S
O23 Mg14 2.114 . S
O23 C26 1.252 . S
O24 Mg14 2.251 . S
O24 Mg17 2.079 . S
O24 C26 1.273 . S
C25 O21 1.246 . S
C25 O22 1.259 . S
C26 O23 1.252 . S
C26 O24 1.273 . S
O27 Mg14 2.010 . S
O27 C19 1.249 . S
Mg28 O29 2.028 . S
Mg28 O35 1.986 1_455 S
Mg28 O37 2.114 . S
Mg28 O38 2.251 1_455 S
Mg28 O41 2.010 . S
O29 Mg28 2.028 . S
O29 C32 1.250 . S
O30 Mg31 2.028 . S
O30 C32 1.248 1_655 S
Mg31 O30 2.028 . S
Mg31 O36 2.032 . S
Mg31 O38 2.079 . S
C32 O29 1.250 . S
C32 O30 1.248 1_455 S
C33 O34 1.264 . S
C33 O41 1.249 . S
O34 C33 1.264 . S
O35 Mg28 1.986 1_655 S
O35 C39 1.246 . S
O36 Mg31 2.032 . S
O36 C39 1.259 . S
O37 Mg28 2.114 . S
O37 C40 1.252 . S
O38 Mg28 2.251 1_655 S
O38 Mg31 2.079 . S
O38 C40 1.273 1_655 S
C39 O35 1.246 . S
C39 O36 1.259 . S
C40 O37 1.252 . S
C40 O38 1.273 1_455 S
O41 Mg28 2.010 . S
O41 C33 1.249 . S
Mg42 O43 2.028 . S
Mg42 O49 1.986 1_545 S
Mg42 O51 2.114 . S
Mg42 O52 2.242 1_545 S
Mg42 O55 2.010 . S
O43 Mg42 2.028 . S
O43 C46 1.250 . S
O44 Mg45 2.028 . S
O44 C46 1.248 1_565 S
Mg45 O44 2.028 . S
Mg45 O50 2.032 . S
Mg45 O52 2.088 . S
C46 O43 1.250 . S
C46 O44 1.248 1_545 S
C47 O48 1.264 . S
C47 O55 1.249 . S
O48 C47 1.264 . S
O49 Mg42 1.986 1_565 S
O49 C53 1.246 . S
O50 Mg45 2.032 . S
O50 C53 1.259 . S
O51 Mg42 2.114 . S
O51 C54 1.252 . S
O52 Mg42 2.242 1_565 S
O52 Mg45 2.088 . S
O52 C54 1.265 1_565 S
C53 O49 1.246 . S
C53 O50 1.259 . S
C54 O51 1.252 . S
C54 O52 1.265 1_545 S
O55 Mg42 2.010 . S
O55 C47 1.249 . S
Mg56 O57 2.028 . S
Mg56 O63 1.986 . S
Mg56 O65 2.114 . S
Mg56 O66 2.251 . S
Mg56 O69 2.010 . S
O57 Mg56 2.028 . S
O57 C60 1.250 . S
O58 Mg59 2.028 . S
O58 C60 1.248 . S
Mg59 O58 2.028 . S
Mg59 O64 2.032 . S
Mg59 O66 2.079 . S
C60 O57 1.250 . S
C60 O58 1.248 . S
C61 O62 1.264 . S
C61 O69 1.249 . S
O62 C61 1.264 . S
O63 Mg56 1.986 . S
O63 C67 1.246 . S
O64 Mg59 2.032 . S
O64 C67 1.259 . S
O65 Mg56 2.114 . S
O65 C68 1.252 . S
O66 Mg56 2.251 . S
O66 Mg59 2.079 . S
O66 C68 1.273 . S
C67 O63 1.246 . S
C67 O64 1.259 . S
C68 O65 1.252 . S
C68 O66 1.273 . S
O69 Mg56 2.010 . S
O69 C61 1.249 . S
Mg70 O71 2.028 . S
Mg70 O77 1.986 . S
Mg70 O79 2.114 1_455 S
Mg70 O80 2.251 . S
Mg70 O83 2.010 1_455 S
O71 Mg70 2.028 . S
O71 C74 1.250 . S
O72 Mg73 2.028 . S
O72 C74 1.248 . S
Mg73 O72 2.028 . S
Mg73 O78 2.032 . S
Mg73 O80 2.079 . S
C74 O71 1.250 . S
C74 O72 1.248 . S
C75 O76 1.264 . S
C75 O83 1.249 . S
O76 C75 1.264 . S
O77 Mg70 1.986 . S
O77 C81 1.246 . S
O78 Mg73 2.032 . S
O78 C81 1.259 . S
O79 Mg70 2.114 1_655 S
O79 C82 1.252 1_655 S
O80 Mg70 2.251 . S
O80 Mg73 2.079 . S
O80 C82 1.273 . S
C81 O77 1.246 . S
C81 O78 1.259 . S
C82 O79 1.252 1_455 S
C82 O80 1.273 . S
O83 Mg70 2.010 1_655 S
O83 C75 1.249 . S
H84 C92 0.933 1_565 S
H85 C94 0.952 . S
H86 C96 0.930 . S
H87 C99 0.929 . S
H88 C102 0.930 . S
H89 C104 0.960 . S
H90 C104 0.960 . S
H91 C104 0.960 1_545 S
C92 H84 0.933 1_545 S
C92 C93 1.377 . S
C92 C94 1.384 . S
C93 C92 1.377 . S
C93 C99 1.390 . S
C94 H85 0.952 . S
C94 C92 1.384 . S
C94 C95 1.372 . S
C95 C94 1.372 . S
C95 C96 1.400 . S
C95 C100 1.490 . S
C96 H86 0.930 . S
C96 C95 1.400 . S
C96 C99 1.386 . S
H97 C113 0.930 . S
H98 C114 0.931 . S
C99 H87 0.929 . S
C99 C93 1.390 . S
C99 C96 1.386 . S
C100 C95 1.490 . S
C100 C102 1.395 . S
C100 C103 1.403 . S
H101 C107 0.930 . S
C102 H88 0.930 . S
C102 C100 1.395 . S
C102 C105 1.403 . S
C103 C100 1.403 . S
C103 C104 1.524 1_545 S
C103 C107 1.400 . S
C104 H89 0.960 . S
C104 H90 0.960 . S
C104 H91 0.960 1_565 S
C104 C103 1.524 1_565 S
C105 C102 1.403 . S
C105 C106 1.392 . S
C105 C109 1.495 . S
C106 C105 1.392 . S
C106 C107 1.385 . S
C106 C108 1.478 . S
C107 H101 0.930 . S
C107 C103 1.400 . S
C107 C106 1.385 . S
C108 C106 1.478 . S
C108 C110 1.381 . S
C108 C114 1.383 . S
C109 C105 1.495 . S
C109 H115 0.959 . S
C109 H116 0.961 . S
C109 H117 0.960 . S
C110 C108 1.381 . S
C110 C111 1.394 . S
C110 H118 0.930 . S
C111 C110 1.394 . S
C111 C112 1.383 . S
C111 H119 0.929 . S
C112 C111 1.383 . S
C112 C113 1.377 . S
C113 H97 0.930 . S
C113 C112 1.377 . S
C113 C114 1.379 . S
C114 H98 0.931 . S
C114 C108 1.383 . S
C114 C113 1.379 . S
H115 C109 0.959 . S
H116 C109 0.961 . S
H117 C109 0.960 . S
H118 C110 0.930 . S
H119 C111 0.929 . S
H120 C128 0.929 . S
H121 C130 0.930 . S
H122 C132 0.930 . S
H123 C135 0.929 . S
H124 C138 0.930 . S
H125 C140 0.960 . S
H126 C140 0.960 . S
H127 C140 0.960 . S
C128 H120 0.929 . S
C128 C129 1.377 . S
C128 C130 1.384 . S
C129 C128 1.377 . S
C129 C135 1.390 . S
C130 H121 0.930 . S
C130 C128 1.384 . S
C130 C131 1.372 . S
C131 C130 1.372 . S
C131 C132 1.400 . S
C131 C136 1.490 . S
C132 H122 0.930 . S
C132 C131 1.400 . S
C132 C135 1.386 . S
H133 C149 0.930 . S
H134 C150 0.931 . S
C135 H123 0.929 . S
C135 C129 1.390 . S
C135 C132 1.386 . S
C136 C131 1.490 . S
C136 C138 1.395 . S
C136 C139 1.403 . S
H137 C143 0.930 . S
C138 H124 0.930 . S
C138 C136 1.395 . S
C138 C141 1.403 . S
C139 C136 1.403 . S
C139 C140 1.524 . S
C139 C143 1.400 . S
C140 H125 0.960 . S
C140 H126 0.960 . S
C140 H127 0.960 . S
C140 C139 1.524 . S
C141 C138 1.403 . S
C141 C142 1.392 . S
C141 C145 1.495 . S
C142 C141 1.392 . S
C142 C143 1.385 . S
C142 C144 1.478 . S
C143 H137 0.930 . S
C143 C139 1.400 . S
C143 C142 1.385 . S
C144 C142 1.478 . S
C144 C146 1.381 . S
C144 C150 1.383 . S
C145 C141 1.495 . S
C145 H151 0.959 . S
C145 H152 0.961 . S
C145 H153 0.960 . S
C146 C144 1.381 . S
C146 C147 1.394 . S
C146 H154 0.930 . S
C147 C146 1.394 . S
C147 C148 1.383 . S
C147 H155 0.929 . S
C148 C147 1.383 . S
C148 C149 1.377 . S
C149 H133 0.930 . S
C149 C148 1.377 . S
C149 C150 1.379 . S
C150 H134 0.931 . S
C150 C144 1.383 . S
C150 C149 1.379 . S
H151 C145 0.959 . S
H152 C145 0.961 . S
H153 C145 0.960 . S
H154 C146 0.930 . S
H155 C147 0.929 . S
H156 C164 0.929 . S
H157 C166 0.930 . S
H158 C168 0.930 . S
H159 C171 0.929 . S
H160 C174 0.930 . S
H161 C176 0.960 . S
H162 C176 0.960 . S
H163 C176 0.960 . S
C164 H156 0.929 . S
C164 C165 1.377 1_655 S
C164 C166 1.384 . S
C165 C164 1.377 1_455 S
C165 C171 1.390 . S
C166 H157 0.930 . S
C166 C164 1.384 . S
C166 C167 1.372 1_655 S
C167 C166 1.372 1_455 S
C167 C168 1.400 . S
C167 C172 1.490 . S
C168 H158 0.930 . S
C168 C167 1.400 . S
C168 C171 1.386 . S
H169 C185 0.930 . S
H170 C186 0.931 . S
C171 H159 0.929 . S
C171 C165 1.390 . S
C171 C168 1.386 . S
C172 C167 1.490 . S
C172 C174 1.395 . S
C172 C175 1.403 1_455 S
H173 C179 0.930 . S
C174 H160 0.930 . S
C174 C172 1.395 . S
C174 C177 1.403 . S
C175 C172 1.403 1_655 S
C175 C176 1.524 . S
C175 C179 1.400 . S
C176 H161 0.960 . S
C176 H162 0.960 . S
C176 H163 0.960 . S
C176 C175 1.524 . S
C177 C174 1.403 . S
C177 C178 1.392 . S
C177 C181 1.495 . S
C178 C177 1.392 . S
C178 C179 1.385 1_455 S
C178 C180 1.478 . S
C179 H173 0.930 . S
C179 C175 1.400 . S
C179 C178 1.385 1_655 S
C180 C178 1.478 . S
C180 C182 1.381 1_455 S
C180 C186 1.383 . S
C181 C177 1.495 . S
C181 H187 0.959 . S
C181 H188 0.961 . S
C181 H189 0.960 . S
C182 C180 1.381 1_655 S
C182 C183 1.394 . S
C182 H190 0.930 . S
C183 C182 1.394 . S
C183 C184 1.383 1_655 S
C183 H191 0.929 . S
C184 C183 1.383 1_455 S
C184 C185 1.377 . S
C185 H169 0.930 . S
C185 C184 1.377 . S
C185 C186 1.379 . S
C186 H170 0.931 . S
C186 C180 1.383 . S
C186 C185 1.379 . S
H187 C181 0.959 . S
H188 C181 0.961 . S
H189 C181 0.960 . S
H190 C182 0.930 . S
H191 C183 0.929 . S
H192 C200 0.929 . S
H193 C202 0.930 . S
H194 C204 0.930 . S
H195 C207 0.929 . S
H196 C210 0.930 . S
H197 C212 0.960 . S
H198 C212 0.960 . S
H199 C212 0.960 . S
C200 H192 0.929 . S
C200 C201 1.377 1_565 S
C200 C202 1.384 . S
C201 C200 1.377 1_545 S
C201 C207 1.390 . S
C202 H193 0.930 . S
C202 C200 1.384 . S
C202 C203 1.372 1_565 S
C203 C202 1.372 1_545 S
C203 C204 1.400 . S
C203 C208 1.490 . S
C204 H194 0.930 . S
C204 C203 1.400 . S
C204 C207 1.386 . S
H205 C221 0.930 . S
H206 C222 0.931 . S
C207 H195 0.929 . S
C207 C201 1.390 . S
C207 C204 1.386 . S
C208 C203 1.490 . S
C208 C210 1.395 . S
C208 C211 1.403 1_545 S
H209 C215 0.930 . S
C210 H196 0.930 . S
C210 C208 1.395 . S
C210 C213 1.403 . S
C211 C208 1.403 1_565 S
C211 C212 1.524 . S
C211 C215 1.400 . S
C212 H197 0.960 . S
C212 H198 0.960 . S
C212 H199 0.960 . S
C212 C211 1.524 . S
C213 C210 1.403 . S
C213 C214 1.392 . S
C213 C217 1.495 . S
C214 C213 1.392 . S
C214 C215 1.385 1_545 S
C214 C216 1.478 . S
C215 H209 0.930 . S
C215 C211 1.400 . S
C215 C214 1.385 1_565 S
C216 C214 1.478 . S
C216 C218 1.380 . S
C216 C222 1.383 . S
C217 C213 1.495 . S
C217 H223 0.959 . S
C217 H224 0.961 . S
C217 H225 0.960 . S
C218 C216 1.380 . S
C218 C219 1.407 . S
C218 H226 0.920 1_545 S
C219 C218 1.407 . S
C219 C220 1.384 . S
C219 H227 0.929 1_545 S
C220 C219 1.384 . S
C220 C221 1.377 . S
C221 H205 0.930 . S
C221 C220 1.377 . S
C221 C222 1.379 . S
C222 H206 0.931 . S
C222 C216 1.383 . S
C222 C221 1.379 . S
H223 C217 0.959 . S
H224 C217 0.961 . S
H225 C217 0.960 . S
H226 C218 0.920 1_565 S
H227 C219 0.929 1_565 S
H228 C236 0.929 . S
H229 C238 0.930 . S
H230 C240 0.930 . S
H231 C243 0.929 . S
H232 C246 0.930 . S
H233 C248 0.960 . S
H234 C248 0.960 . S
H235 C248 0.960 . S
C236 H228 0.929 . S
C236 C237 1.377 . S
C236 C238 1.384 . S
C237 C236 1.377 . S
C237 C243 1.390 . S
C238 H229 0.930 . S
C238 C236 1.384 . S
C238 C239 1.372 . S
C239 C238 1.372 . S
C239 C240 1.400 . S
C239 C244 1.490 . S
C240 H230 0.930 . S
C240 C239 1.400 . S
C240 C243 1.386 . S
H241 C257 0.930 . S
H242 C258 0.931 . S
C243 H231 0.929 . S
C243 C237 1.390 . S
C243 C240 1.386 . S
C244 C239 1.490 . S
C244 C246 1.395 . S
C244 C247 1.403 1_554 S
H245 C251 0.930 . S
C246 H232 0.930 . S
C246 C244 1.395 . S
C246 C249 1.403 1_554 S
C247 C244 1.403 1_556 S
C247 C248 1.524 . S
C247 C251 1.400 . S
C248 H233 0.960 . S
C248 H234 0.960 . S
C248 H235 0.960 . S
C248 C247 1.524 . S
C249 C246 1.403 1_556 S
C249 C250 1.392 . S
C249 C253 1.495 1_556 S
C250 C249 1.392 . S
C250 C251 1.385 . S
C250 C252 1.478 . S
C251 H245 0.930 . S
C251 C247 1.400 . S
C251 C250 1.385 . S
C252 C250 1.478 . S
C252 C254 1.381 . S
C252 C258 1.383 . S
C253 C249 1.495 1_554 S
C253 H259 0.959 . S
C253 H260 0.961 1_554 S
C253 H261 0.960 1_554 S
C254 C252 1.381 . S
C254 C255 1.394 . S
C254 H262 0.930 . S
C255 C254 1.394 . S
C255 C256 1.383 . S
C255 H263 0.929 . S
C256 C255 1.383 . S
C256 C257 1.377 . S
C257 H241 0.930 . S
C257 C256 1.377 . S
C257 C258 1.379 . S
C258 H242 0.931 . S
C258 C252 1.383 . S
C258 C257 1.379 . S
H259 C253 0.959 . S
H260 C253 0.961 1_556 S
H261 C253 0.960 1_556 S
H262 C254 0.930 . S
H263 C255 0.929 . S
H264 C272 0.926 1_556 S
H265 C274 0.930 . S
H266 C276 0.930 . S
H267 C279 0.925 1_556 S
H268 C282 0.930 1_655 S
H269 C284 0.960 . S
H270 C284 0.960 . S
H271 C284 0.960 . S
C272 H264 0.926 1_554 S
C272 C273 1.377 1_654 S
C272 C274 1.384 . S
C273 C272 1.377 1_456 S
C273 C279 1.390 1_556 S
C274 H265 0.930 . S
C274 C272 1.384 . S
C274 C275 1.372 1_655 S
C275 C274 1.372 1_455 S
C275 C276 1.400 . S
C275 C280 1.490 . S
C276 H266 0.930 . S
C276 C275 1.400 . S
C276 C279 1.386 . S
H277 C293 0.930 . S
H278 C294 0.931 . S
C279 H267 0.925 1_554 S
C279 C273 1.390 1_554 S
C279 C276 1.386 . S
C280 C275 1.490 . S
C280 C282 1.395 . S
C280 C283 1.403 . S
H281 C287 0.930 . S
C282 H268 0.930 1_455 S
C282 C280 1.395 . S
C282 C285 1.403 . S
C283 C280 1.403 . S
C283 C284 1.524 . S
C283 C287 1.400 . S
C284 H269 0.960 . S
C284 H270 0.960 . S
C284 H271 0.960 . S
C284 C283 1.524 . S
C285 C282 1.403 . S
C285 C286 1.392 . S
C285 C289 1.495 1_455 S
C286 C285 1.392 . S
C286 C287 1.385 . S
C286 C288 1.478 . S
C287 H281 0.930 . S
C287 C283 1.400 . S
C287 C286 1.385 . S
C288 C286 1.478 . S
C288 C290 1.381 1_455 S
C288 C294 1.383 . S
C289 C285 1.495 1_655 S
C289 H295 0.959 . S
C289 H296 0.961 1_655 S
C289 H297 0.960 . S
C290 C288 1.381 1_655 S
C290 C291 1.394 . S
C290 H298 0.930 . S
C291 C290 1.394 . S
C291 C292 1.383 1_655 S
C291 H299 0.929 . S
C292 C291 1.383 1_455 S
C292 C293 1.377 . S
C293 H277 0.930 . S
C293 C292 1.377 . S
C293 C294 1.379 . S
C294 H278 0.931 . S
C294 C288 1.383 . S
C294 C293 1.379 . S
H295 C289 0.959 . S
H296 C289 0.961 1_455 S
H297 C289 0.960 . S
H298 C290 0.930 . S
H299 C291 0.929 . S
H300 C308 0.929 . S
H301 C310 0.930 . S
H302 C312 0.930 . S
H303 C315 0.929 . S
H304 C318 0.930 . S
H305 C320 0.960 . S
H306 C320 0.960 . S
H307 C320 0.960 . S
C308 H300 0.929 . S
C308 C309 1.377 . S
C308 C310 1.384 . S
C309 C308 1.377 . S
C309 C315 1.390 . S
C310 H301 0.930 . S
C310 C308 1.384 . S
C310 C311 1.372 . S
C311 C310 1.372 . S
C311 C312 1.400 . S
C311 C316 1.490 . S
C312 H302 0.930 . S
C312 C311 1.400 . S
C312 C315 1.386 . S
H313 C329 0.930 . S
H314 C330 0.931 . S
C315 H303 0.929 . S
C315 C309 1.390 . S
C315 C312 1.386 . S
C316 C311 1.490 . S
C316 C318 1.395 . S
C316 C319 1.403 . S
H317 C323 0.930 . S
C318 H304 0.930 . S
C318 C316 1.395 . S
C318 C321 1.403 . S
C319 C316 1.403 . S
C319 C320 1.524 . S
C319 C323 1.400 . S
C320 H305 0.960 . S
C320 H306 0.960 . S
C320 H307 0.960 . S
C320 C319 1.524 . S
C321 C318 1.403 . S
C321 C322 1.392 . S
C321 C325 1.495 . S
C322 C321 1.392 . S
C322 C323 1.385 . S
C322 C324 1.478 . S
C323 H317 0.930 . S
C323 C319 1.400 . S
C323 C322 1.385 . S
C324 C322 1.478 . S
C324 C326 1.381 . S
C324 C330 1.383 . S
C325 C321 1.495 . S
C325 H331 0.959 . S
C325 H332 0.961 . S
C325 H333 0.960 . S
C326 C324 1.381 . S
C326 C327 1.394 . S
C326 H334 0.930 . S
C327 C326 1.394 . S
C327 C328 1.383 . S
C327 H335 0.929 . S
C328 C327 1.383 . S
C328 C329 1.377 . S
C329 H313 0.930 . S
C329 C328 1.377 . S
C329 C330 1.379 . S
C330 H314 0.931 . S
C330 C324 1.383 . S
C330 C329 1.379 . S
H331 C325 0.959 . S
H332 C325 0.961 . S
H333 C325 0.960 . S
H334 C326 0.930 . S
H335 C327 0.929 . S
H336 C344 0.929 . S
H337 C346 0.930 . S
H338 C348 0.930 . S
H339 C351 0.929 . S
H340 C354 0.930 . S
H341 C356 0.960 . S
H342 C356 0.960 . S
H343 C356 0.960 . S
C344 H336 0.929 . S
C344 C345 1.377 . S
C344 C346 1.384 . S
C345 C344 1.377 . S
C345 C351 1.390 . S
C346 H337 0.930 . S
C346 C344 1.384 . S
C346 C347 1.372 . S
C347 C346 1.372 . S
C347 C348 1.400 . S
C347 C352 1.490 . S
C348 H338 0.930 . S
C348 C347 1.400 . S
C348 C351 1.386 . S
H349 C365 0.930 . S
H350 C366 0.931 . S
C351 H339 0.929 . S
C351 C345 1.390 . S
C351 C348 1.386 . S
C352 C347 1.490 . S
C352 C354 1.395 . S
C352 C355 1.403 . S
H353 C359 0.930 . S
C354 H340 0.930 . S
C354 C352 1.395 . S
C354 C357 1.403 . S
C355 C352 1.403 . S
C355 C356 1.524 . S
C355 C359 1.400 . S
C356 H341 0.960 . S
C356 H342 0.960 . S
C356 H343 0.960 . S
C356 C355 1.524 . S
C357 C354 1.403 . S
C357 C358 1.392 . S
C357 C361 1.495 . S
C358 C357 1.392 . S
C358 C359 1.385 . S
C358 C360 1.478 . S
C359 H353 0.930 . S
C359 C355 1.400 . S
C359 C358 1.385 . S
C360 C358 1.478 . S
C360 C362 1.381 . S
C360 C366 1.383 . S
C361 C357 1.495 . S
C361 H367 0.959 . S
C361 H368 0.961 . S
C361 H369 0.960 . S
C362 C360 1.381 . S
C362 C363 1.394 . S
C362 H370 0.930 . S
C363 C362 1.394 . S
C363 C364 1.383 . S
C363 H371 0.929 . S
C364 C363 1.383 . S
C364 C365 1.377 . S
C365 H349 0.930 . S
C365 C364 1.377 . S
C365 C366 1.379 . S
C366 H350 0.931 . S
C366 C360 1.383 . S
C366 C365 1.379 . S
H367 C361 0.959 . S
H368 C361 0.961 . S
H369 C361 0.960 . S
H370 C362 0.930 . S
H371 C363 0.929 . S
H372 C380 0.929 . S
H373 C382 0.930 . S
H374 C384 0.930 . S
H375 C387 0.929 . S
H376 C390 0.930 . S
H377 C392 0.960 . S
H378 C392 0.960 . S
H379 C392 0.960 . S
C380 H372 0.929 . S
C380 C381 1.377 . S
C380 C382 1.384 . S
C381 C380 1.377 . S
C381 C387 1.390 . S
C382 H373 0.930 . S
C382 C380 1.384 . S
C382 C383 1.372 . S
C383 C382 1.372 . S
C383 C384 1.400 . S
C383 C388 1.490 . S
C384 H374 0.930 . S
C384 C383 1.400 . S
C384 C387 1.386 . S
H385 C401 0.930 . S
H386 C402 0.931 . S
C387 H375 0.929 . S
C387 C381 1.390 . S
C387 C384 1.386 . S
C388 C383 1.490 . S
C388 C390 1.395 . S
C388 C391 1.403 . S
H389 C395 0.930 . S
C390 H376 0.930 . S
C390 C388 1.395 . S
C390 C393 1.403 . S
C391 C388 1.403 . S
C391 C392 1.524 . S
C391 C395 1.400 . S
C392 H377 0.960 . S
C392 H378 0.960 . S
C392 H379 0.960 . S
C392 C391 1.524 . S
C393 C390 1.403 . S
C393 C394 1.392 . S
C393 C397 1.495 . S
C394 C393 1.392 . S
C394 C395 1.385 . S
C394 C396 1.478 . S
C395 H389 0.930 . S
C395 C391 1.400 . S
C395 C394 1.385 . S
C396 C394 1.478 . S
C396 C398 1.381 . S
C396 C402 1.383 . S
C397 C393 1.495 . S
C397 H403 0.959 . S
C397 H404 0.961 . S
C397 H405 0.960 . S
C398 C396 1.381 . S
C398 C399 1.394 . S
C398 H406 0.930 . S
C399 C398 1.394 . S
C399 C400 1.383 . S
C399 H407 0.929 . S
C400 C399 1.383 . S
C400 C401 1.377 . S
C401 H385 0.930 . S
C401 C400 1.377 . S
C401 C402 1.379 . S
C402 H386 0.931 . S
C402 C396 1.383 . S
C402 C401 1.379 . S
H403 C397 0.959 . S
H404 C397 0.961 . S
H405 C397 0.960 . S
H406 C398 0.930 . S
H407 C399 0.929 . S
H408 C416 0.929 . S
H409 C418 0.930 . S
H410 C420 0.930 . S
H411 C423 0.929 . S
H412 C426 0.930 . S
H413 C428 0.960 . S
H414 C428 0.960 . S
H415 C428 0.960 . S
C416 H408 0.929 . S
C416 C417 1.377 . S
C416 C418 1.384 . S
C417 C416 1.377 . S
C417 C423 1.390 . S
C418 H409 0.930 . S
C418 C416 1.384 . S
C418 C419 1.372 . S
C419 C418 1.372 . S
C419 C420 1.400 . S
C419 C424 1.490 . S
C420 H410 0.930 . S
C420 C419 1.400 . S
C420 C423 1.386 . S
H421 C437 0.930 . S
H422 C438 0.931 . S
C423 H411 0.929 . S
C423 C417 1.390 . S
C423 C420 1.386 . S
C424 C419 1.490 . S
C424 C426 1.395 . S
C424 C427 1.403 . S
H425 C431 0.930 . S
C426 H412 0.930 . S
C426 C424 1.395 . S
C426 C429 1.403 . S
C427 C424 1.403 . S
C427 C428 1.524 . S
C427 C431 1.400 . S
C428 H413 0.960 . S
C428 H414 0.960 . S
C428 H415 0.960 . S
C428 C427 1.524 . S
C429 C426 1.403 . S
C429 C430 1.392 . S
C429 C433 1.495 . S
C430 C429 1.392 . S
C430 C431 1.385 . S
C430 C432 1.478 . S
C431 H425 0.930 . S
C431 C427 1.400 . S
C431 C430 1.385 . S
C432 C430 1.478 . S
C432 C434 1.381 . S
C432 C438 1.383 . S
C433 C429 1.495 . S
C433 H439 0.959 . S
C433 H440 0.961 . S
C433 H441 0.960 . S
C434 C432 1.381 . S
C434 C435 1.394 . S
C434 H442 0.930 . S
C435 C434 1.394 . S
C435 C436 1.383 . S
C435 H443 0.929 . S
C436 C435 1.383 . S
C436 C437 1.377 . S
C437 H421 0.930 . S
C437 C436 1.377 . S
C437 C438 1.379 . S
C438 H422 0.931 . S
C438 C432 1.383 . S
C438 C437 1.379 . S
H439 C433 0.959 . S
H440 C433 0.961 . S
H441 C433 0.960 . S
H442 C434 0.930 . S
H443 C435 0.929 . S
H444 C452 0.929 . S
H445 C454 0.930 . S
H446 C456 0.930 . S
H447 C459 0.929 . S
H448 C462 0.930 . S
H449 C464 0.960 . S
H450 C464 0.960 . S
H451 C464 0.960 . S
C452 H444 0.929 . S
C452 C453 1.377 . S
C452 C454 1.384 . S
C453 C452 1.377 . S
C453 C459 1.390 . S
C454 H445 0.930 . S
C454 C452 1.384 . S
C454 C455 1.372 . S
C455 C454 1.372 . S
C455 C456 1.400 . S
C455 C460 1.490 . S
C456 H446 0.930 . S
C456 C455 1.400 . S
C456 C459 1.386 . S
H457 C473 0.930 . S
H458 C474 0.931 . S
C459 H447 0.929 . S
C459 C453 1.390 . S
C459 C456 1.386 . S
C460 C455 1.490 . S
C460 C462 1.395 . S
C460 C463 1.403 . S
H461 C467 0.930 . S
C462 H448 0.930 . S
C462 C460 1.395 . S
C462 C465 1.403 . S
C463 C460 1.403 . S
C463 C464 1.524 . S
C463 C467 1.400 . S
C464 H449 0.960 . S
C464 H450 0.960 . S
C464 H451 0.960 . S
C464 C463 1.524 . S
C465 C462 1.403 . S
C465 C466 1.392 . S
C465 C469 1.495 . S
C466 C465 1.392 . S
C466 C467 1.385 . S
C466 C468 1.478 . S
C467 H461 0.930 . S
C467 C463 1.400 . S
C467 C466 1.385 . S
C468 C466 1.478 . S
C468 C470 1.381 . S
C468 C474 1.383 . S
C469 C465 1.495 . S
C469 H475 0.959 . S
C469 H476 0.961 . S
C469 H477 0.960 . S
C470 C468 1.381 . S
C470 C471 1.394 . S
C470 H478 0.930 . S
C471 C470 1.394 . S
C471 C472 1.383 . S
C471 H479 0.929 . S
C472 C471 1.383 . S
C472 C473 1.377 . S
C473 H457 0.930 . S
C473 C472 1.377 . S
C473 C474 1.379 . S
C474 H458 0.931 . S
C474 C468 1.383 . S
C474 C473 1.379 . S
H475 C469 0.959 . S
H476 C469 0.961 . S
H477 C469 0.960 . S
H478 C470 0.930 . S
H479 C471 0.929 . S
H480 C488 0.929 . S
H481 C490 0.930 1_554 S
H482 C492 0.930 . S
H483 C495 0.929 . S
H484 C498 0.930 . S
H485 C500 0.960 . S
H486 C500 0.960 . S
H487 C500 0.960 . S
C488 H480 0.929 . S
C488 C489 1.377 . S
C488 C490 1.384 . S
C489 C488 1.377 . S
C489 C495 1.390 . S
C490 H481 0.930 1_556 S
C490 C488 1.384 . S
C490 C491 1.372 . S
C491 C490 1.372 . S
C491 C492 1.400 . S
C491 C496 1.490 . S
C492 H482 0.930 . S
C492 C491 1.400 . S
C492 C495 1.386 . S
H493 C509 0.930 . S
H494 C510 0.931 . S
C495 H483 0.929 . S
C495 C489 1.390 . S
C495 C492 1.386 . S
C496 C491 1.490 . S
C496 C498 1.395 . S
C496 C499 1.403 . S
H497 C503 0.930 . S
C498 H484 0.930 . S
C498 C496 1.395 . S
C498 C501 1.403 1_556 S
C499 C496 1.403 . S
C499 C500 1.524 . S
C499 C503 1.400 . S
C500 H485 0.960 . S
C500 H486 0.960 . S
C500 H487 0.960 . S
C500 C499 1.524 . S
C501 C498 1.403 1_554 S
C501 C502 1.392 . S
C501 C505 1.496 . S
C502 C501 1.392 . S
C502 C503 1.385 1_554 S
C502 C504 1.478 . S
C503 H497 0.930 . S
C503 C499 1.400 . S
C503 C502 1.385 1_556 S
C504 C502 1.478 . S
C504 C506 1.381 . S
C504 C510 1.383 1_554 S
C505 C501 1.496 . S
C505 H511 0.959 . S
C505 H512 0.961 1_554 S
C505 H513 0.960 . S
C506 C504 1.381 . S
C506 C507 1.394 . S
C506 H514 0.930 . S
C507 C506 1.394 . S
C507 C508 1.383 . S
C507 H515 0.929 . S
C508 C507 1.383 . S
C508 C509 1.377 1_554 S
C509 H493 0.930 . S
C509 C508 1.377 1_556 S
C509 C510 1.379 . S
C510 H494 0.931 . S
C510 C504 1.383 1_556 S
C510 C509 1.379 . S
H511 C505 0.959 . S
H512 C505 0.961 1_556 S
H513 C505 0.960 . S
H514 C506 0.930 . S
H515 C507 0.929 . S
C93 C4 1.283 . S
C112 C54 1.310 . S
C129 C18 1.284 . S
C148 C68 1.315 . S
C165 C82 1.313 . S
C184 C32 1.303 . S
C201 C12 1.313 . S
C220 C46 1.303 . S
C237 C26 1.313 . S
C256 C60 1.301 . S
C273 C74 1.278 . S
C292 C40 1.306 . S
C309 C25 1.398 . S
C328 C5 1.286 . S
C345 C39 1.398 . S
C364 C19 1.295 . S
C381 C33 1.268 . S
C400 C53 1.376 . S
C417 C67 1.408 . S
C436 C47 1.210 . S
C453 C81 1.408 . S
C472 C61 1.206 . S
C489 C75 1.265 . S
C508 C11 1.379 . S
