# Generated by pormake.
# Topology vme, (6)-cn, num edge types: 1
# Building blocks:
#     Node 0, Type 0, BuildingBlock: OJICUG_clean_sbu_0, # of connection points: 6
#     Node 1, Type 0, BuildingBlock: OJICUG_clean_sbu_0, # of connection points: 6
#     Node 2, Type 0, BuildingBlock: OJICUG_clean_sbu_0, # of connection points: 6
#     Node 3, Type 0, BuildingBlock: OJICUG_clean_sbu_0, # of connection points: 6
#     Edge 4, Type (0, 0), BuildingBlock: FUNLAD_clean_linker_1, # of connection points: 2
#     Edge 5, Type (0, 0), BuildingBlock: FUNLAD_clean_linker_1, # of connection points: 2
#     Edge 6, Type (0, 0), BuildingBlock: FUNLAD_clean_linker_1, # of connection points: 2
#     Edge 7, Type (0, 0), BuildingBlock: FUNLAD_clean_linker_1, # of connection points: 2
#     Edge 8, Type (0, 0), BuildingBlock: FUNLAD_clean_linker_1, # of connection points: 2
#     Edge 9, Type (0, 0), BuildingBlock: FUNLAD_clean_linker_1, # of connection points: 2
#     Edge 10, Type (0, 0), BuildingBlock: FUNLAD_clean_linker_1, # of connection points: 2
#     Edge 11, Type (0, 0), BuildingBlock: FUNLAD_clean_linker_1, # of connection points: 2
#     Edge 12, Type (0, 0), BuildingBlock: FUNLAD_clean_linker_1, # of connection points: 2
#     Edge 13, Type (0, 0), BuildingBlock: FUNLAD_clean_linker_1, # of connection points: 2
#     Edge 14, Type (0, 0), BuildingBlock: FUNLAD_clean_linker_1, # of connection points: 2
#     Edge 15, Type (0, 0), BuildingBlock: FUNLAD_clean_linker_1, # of connection points: 2
# Relax obj value: 0.276
# Max RMSD: 0.267
# Mean RMSD: 0.267
data_MOF--net-vme--node1-OJICUG_clean_sbu_0--edge1-FUNLAD_clean_linker_1
_symmetry_space_group_name_H-M    P1
_symmetry_Int_Tables_number       1
_symmetry_cell_setting            triclinic
loop_
_symmetry_equiv_pos_as_xyz
'x, y, z'
_cell_length_a     28.394614
_cell_length_b     27.16113
_cell_length_c     30.479792
_cell_angle_alpha  89.761741
_cell_angle_beta   121.32562
_cell_angle_gamma 90.443025
loop_
_atom_site_label
_atom_site_type_symbol
_atom_site_fract_x
_atom_site_fract_y
_atom_site_fract_z
_atom_type_partial_charge
Sc0 Sc 0.21933 0.30623 0.40263 0.0
Sc1 Sc 0.09498 0.36235 0.31528 0.0
Sc2 Sc 0.19754 0.42989 0.41842 0.0
O3 O 0.17091 0.36657 0.37845 0.0
C4 C 0.23025 0.34647 0.50424 0.0
C5 C 0.09949 0.26041 0.3627 0.0
C6 C 0.07374 0.43266 0.38736 0.0
C7 C 0.17028 0.29942 0.28521 0.0
C8 C 0.30859 0.39318 0.43235 0.0
C9 C 0.13322 0.46617 0.30066 0.0
O10 O 0.22516 0.31058 0.47535 0.0
O11 O 0.07432 0.30064 0.3455 0.0
O12 O 0.12446 0.43954 0.41921 0.0
O13 O 0.21325 0.29939 0.32996 0.0
O14 O 0.27452 0.42752 0.42231 0.0
O15 O 0.11039 0.42495 0.28185 0.0
O16 O 0.29594 0.34788 0.43102 0.0
O17 O 0.12381 0.31563 0.27578 0.0
O18 O 0.16371 0.47423 0.34888 0.0
O19 O 0.15021 0.25499 0.37762 0.0
O20 O 0.22889 0.39147 0.49133 0.0
O21 O 0.05593 0.40796 0.34623 0.0
Sc22 Sc 0.78606 0.91744 0.06078 0.0
Sc23 Sc 0.88379 0.87157 0.18114 0.0
Sc24 Sc 0.76498 0.80219 0.09936 0.0
O25 O 0.81158 0.86351 0.11375 0.0
C26 C 0.67579 0.889 0.05493 0.0
C27 C 0.84188 0.97864 0.16668 0.0
C28 C 0.80724 0.81821 0.21603 0.0
C29 C 0.91043 0.91836 0.09885 0.0
C30 C 0.74981 0.82017 0.99114 0.0
C31 C 0.88929 0.76126 0.15489 0.0
O32 O 0.70874 0.92145 0.0559 0.0
O33 O 0.85987 0.94105 0.19549 0.0
O34 O 0.76886 0.80808 0.1708 0.0
O35 O 0.8609 0.91637 0.06194 0.0
O36 O 0.75588 0.79096 0.02615 0.0
O37 O 0.91227 0.80281 0.1715 0.0
O38 O 0.75441 0.86671 0.99666 0.0
O39 O 0.9248 0.9075 0.14497 0.0
O40 O 0.83717 0.75432 0.13194 0.0
O41 O 0.81825 0.97605 0.11797 0.0
O42 O 0.68858 0.84377 0.06551 0.0
O43 O 0.85328 0.83695 0.22659 0.0
Sc44 Sc 0.78919 0.56407 0.571 0.0
Sc45 Sc 0.8891 0.63408 0.67507 0.0
Sc46 Sc 0.75823 0.6844 0.58993 0.0
O47 O 0.81204 0.62737 0.61242 0.0
C48 C 0.7501 0.64981 0.48693 0.0
C49 C 0.91308 0.57659 0.59828 0.0
C50 C 0.87275 0.74286 0.63299 0.0
C51 C 0.8582 0.52276 0.68491 0.0
C52 C 0.67537 0.59202 0.5591 0.0
C53 C 0.81054 0.68244 0.71016 0.0
O54 O 0.75994 0.60483 0.50044 0.0
O55 O 0.92913 0.60537 0.63632 0.0
O56 O 0.8205 0.74116 0.61023 0.0
O57 O 0.81982 0.51782 0.63819 0.0
O58 O 0.68609 0.63785 0.56593 0.0
O59 O 0.85641 0.66497 0.71933 0.0
O60 O 0.70988 0.56076 0.56244 0.0
O61 O 0.88597 0.56225 0.70283 0.0
O62 O 0.76909 0.68904 0.66505 0.0
O63 O 0.86488 0.55862 0.57341 0.0
O64 O 0.74764 0.68326 0.51482 0.0
O65 O 0.90284 0.70591 0.65524 0.0
Sc66 Sc 0.24581 0.18993 0.91348 0.0
Sc67 Sc 0.11353 0.13916 0.82978 0.0
Sc68 Sc 0.21118 0.07303 0.93837 0.0
O69 O 0.19021 0.13388 0.89355 0.0
C70 C 0.32366 0.09563 0.94444 0.0
C71 C 0.19252 0.18571 0.79322 0.0
C72 C 0.14111 0.02674 0.82538 0.0
C73 C 0.13243 0.24801 0.87191 0.0
C74 C 0.25851 0.16147 0.01994 0.0
C75 C 0.08783 0.0873 0.90962 0.0
O76 O 0.31506 0.14149 0.93609 0.0
O77 O 0.14582 0.16954 0.78391 0.0
O78 O 0.1764 0.02333 0.87327 0.0
O79 O 0.18461 0.24685 0.89339 0.0
O80 O 0.24448 0.11664 0.00767 0.0
O81 O 0.07172 0.11061 0.86787 0.0
O82 O 0.26118 0.19267 0.99018 0.0
O83 O 0.10163 0.21106 0.84976 0.0
O84 O 0.13678 0.0726 0.93816 0.0
O85 O 0.23391 0.19161 0.83821 0.0
O86 O 0.28883 0.06619 0.94432 0.0
O87 O 0.11676 0.06664 0.80382 0.0
H88 H 0.86337 0.05662 0.16825 0.0
C89 C 0.86066 0.0273 0.19125 0.0
H90 H 0.88275 0.00324 0.26518 0.0
H91 H 0.11572 0.10423 0.37869 0.0
H92 H 0.13626 0.01815 0.40171 0.0
H93 H 0.06261 0.9552 0.36375 0.0
H94 H 0.96831 0.97773 0.30345 0.0
C95 C 0.88577 0.03269 0.24253 0.0
C96 C 0.92879 0.07148 0.26983 0.0
C97 C 0.98419 0.05718 0.30485 0.0
C98 C 0.02704 0.09318 0.32573 0.0
C99 C 0.08179 0.0782 0.36106 0.0
C100 C 0.09418 0.02893 0.37469 0.0
C101 C 0.0527 0.99353 0.35339 0.0
C102 C -0.00157 0.00717 0.31878 0.0
H103 H 0.03536 0.22221 0.36994 0.0
C104 C 0.06544 0.21773 0.3584 0.0
H105 H 0.08908 0.17569 0.31511 0.0
H106 H 0.82651 0.11254 0.21379 0.0
H107 H 0.80628 0.19817 0.18775 0.0
H108 H 0.88146 0.25894 0.21483 0.0
H109 H 0.97675 0.23499 0.26922 0.0
C110 C 0.06078 0.17942 0.32883 0.0
C111 C 0.01487 0.14305 0.31069 0.0
C112 C 0.95938 0.15751 0.27638 0.0
C113 C 0.91618 0.12193 0.25771 0.0
C114 C 0.86093 0.13775 0.2267 0.0
C115 C 0.84875 0.18679 0.21182 0.0
C116 C 0.89105 0.22103 0.22728 0.0
C117 C 0.94574 0.20678 0.25902 0.0
H118 H 0.09379 0.49959 0.22406 0.0
C119 C 0.11213 0.50786 0.26467 0.0
H120 H 0.11114 0.55561 0.31823 0.0
H121 H 0.9672 0.68817 0.10554 0.0
H122 H 0.05096 0.69529 0.10247 0.0
H123 H 0.13428 0.64861 0.16296 0.0
H124 H 0.13415 0.59398 0.2263 0.0
C125 C 0.09738 0.54929 0.27808 0.0
C126 C 0.04732 0.57617 0.23949 0.0
C127 C 0.04867 0.60832 0.20351 0.0
C128 C 0.00131 0.63648 0.16988 0.0
C129 C 0.00286 0.66734 0.13313 0.0
C130 C 0.05044 0.67144 0.13076 0.0
C131 C 0.09731 0.64505 0.16474 0.0
C132 C 0.0967 0.6138 0.20084 0.0
H133 H 0.97073 0.72767 0.19332 0.0
C134 C 0.92708 0.71978 0.16733 0.0
H135 H 0.86813 0.66407 0.12623 0.0
H136 H 0.0272 0.50981 0.29612 0.0
H137 H 0.94189 0.49963 0.2953 0.0
H138 H 0.86169 0.55212 0.24065 0.0
H139 H 0.86554 0.61365 0.18474 0.0
C140 C 0.91145 0.67341 0.15115 0.0
C141 C 0.95371 0.63392 0.17389 0.0
C142 C 0.95067 0.59839 0.20646 0.0
C143 C -0.00252 0.56923 0.23912 0.0
C144 C 0.99327 0.53362 0.27108 0.0
C145 C 0.94449 0.52733 0.27099 0.0
C146 C 0.89929 0.55678 0.24011 0.0
C147 C 0.90214 0.59208 0.20828 0.0
H148 H 0.13994 0.94626 0.81497 0.0
C149 C 0.12127 0.98064 0.79543 0.0
H150 H 0.0546 0.01308 0.72888 0.0
H151 H 0.98518 0.81259 0.60109 0.0
H152 H 0.03019 0.85382 0.56155 0.0
H153 H 0.08186 0.93139 0.59752 0.0
H154 H 0.0889 0.96824 0.6733 0.0
C155 C 0.07447 0.97929 0.749 0.0
C156 C 0.04356 0.93249 0.72722 0.0
C157 C 0.03973 0.91165 0.68294 0.0
C158 C 0.00989 0.86697 0.66215 0.0
C159 C 0.00718 0.84658 0.61824 0.0
C160 C 0.03285 0.86984 0.59524 0.0
C161 C 0.06193 0.91353 0.6155 0.0
C162 C 0.0656 0.93431 0.65892 0.0
H163 H 0.87483 0.82402 0.62702 0.0
C164 C 0.90005 0.79107 0.6393 0.0
H165 H 0.98131 0.76291 0.67835 0.0
H166 H 0.0359 0.96624 0.80828 0.0
H167 H 0.99199 0.92458 0.84813 0.0
H168 H 0.94472 0.84477 0.81497 0.0
H169 H 0.94054 0.80661 0.74137 0.0
C170 C 0.95539 0.79539 0.6659 0.0
C171 C 0.9835 0.84363 0.68537 0.0
C172 C 0.98686 0.86471 0.72944 0.0
C173 C 0.01596 0.90972 0.74977 0.0
C174 C 0.01634 0.93115 0.79233 0.0
C175 C 0.99088 0.9078 0.81543 0.0
C176 C 0.96416 0.86295 0.79669 0.0
C177 C 0.96196 0.84152 0.75422 0.0
H178 H 0.85672 0.4435 0.70047 0.0
C179 C 0.87777 0.47818 0.71721 0.0
H180 H 0.94929 0.5119 0.77846 0.0
H181 H 0.03915 0.3244 0.92195 0.0
H182 H 0.00715 0.37211 0.96867 0.0
H183 H 0.95198 0.44718 0.93068 0.0
H184 H 0.92865 0.47515 0.84586 0.0
C185 C 0.92731 0.47775 0.76115 0.0
C186 C 0.95818 0.43136 0.78308 0.0
C187 C 0.97107 0.41551 0.83244 0.0
C188 C 0.00247 0.37208 0.8542 0.0
C189 C 0.01512 0.35703 0.90366 0.0
C190 C -0.00295 0.38408 0.93083 0.0
C191 C 0.96603 0.42638 0.90946 0.0
C192 C 0.953 0.44207 0.86082 0.0
H193 H 0.12963 0.32921 0.87474 0.0
C194 C 0.1056 0.29559 0.86727 0.0
H195 H 0.02629 0.26489 0.84001 0.0
H196 H 0.94918 0.45577 0.69101 0.0
H197 H 0.97872 0.40674 0.64388 0.0
H198 H 0.02731 0.32833 0.67898 0.0
H199 H 0.04638 0.29857 0.76157 0.0
C200 C 0.05089 0.29811 0.84747 0.0
C201 C 0.02064 0.34472 0.82641 0.0
C202 C 0.00791 0.36053 0.77706 0.0
C203 C 0.97794 0.40465 0.75591 0.0
C204 C 0.96917 0.4213 0.70803 0.0
C205 C 0.98663 0.39379 0.6807 0.0
C206 C 0.01398 0.34968 0.70047 0.0
C207 C 0.02475 0.33311 0.74808 0.0
H208 H 0.99288 0.57799 0.60103 0.0
C209 C 0.95064 0.56443 0.58008 0.0
H210 H 0.88922 0.5259 0.51453 0.0
H211 H 0.98997 0.55231 0.37657 0.0
H212 H 0.91921 0.61529 0.33992 0.0
H213 H 0.86893 0.63856 0.38272 0.0
H214 H 0.88943 0.59933 0.46246 0.0
C215 C 0.93199 0.53796 0.53676 0.0
C216 C 0.96588 0.5271 0.51416 0.0
C217 C 0.95269 0.55 0.46723 0.0
C218 C 0.98095 0.53619 0.44215 0.0
C219 C 0.96854 0.56068 0.39632 0.0
C220 C 0.92831 0.59705 0.37512 0.0
C221 C 0.90003 0.61016 0.39923 0.0
C222 C 0.91205 0.58719 0.44487 0.0
H223 H 0.99262 0.43979 0.38135 0.0
C224 C 0.03489 0.45322 0.40078 0.0
H225 H 0.09555 0.49919 0.45919 0.0
H226 H 0.00023 0.47546 0.60327 0.0
H227 H 0.07042 0.41226 0.63918 0.0
H228 H 0.1191 0.38792 0.59524 0.0
H229 H 0.09773 0.42657 0.51512 0.0
C230 C 0.05321 0.48585 0.43956 0.0
C231 C 0.02126 0.49883 0.46354 0.0
C232 C 0.03479 0.4762 0.51066 0.0
C233 C 0.007 0.49035 0.53607 0.0
C234 C 0.02042 0.46646 0.58255 0.0
C235 C 0.06059 0.43003 0.60356 0.0
C236 C 0.08802 0.41634 0.57885 0.0
C237 C 0.07541 0.43895 0.53292 0.0
H238 H 0.99481 0.93924 0.11726 0.0
C239 C 0.95151 0.93784 0.08721 0.0
H240 H 0.89111 0.95726 0.01074 0.0
H241 H 0.01944 0.13052 0.98393 0.0
H242 H 0.96333 0.17701 0.00767 0.0
H243 H 0.91032 0.13479 0.04029 0.0
H244 H 0.91353 0.04587 0.04986 0.0
C245 C 0.93462 0.95671 0.04032 0.0
C246 C 0.97185 0.98196 0.02697 0.0
C247 C 0.96909 0.03389 0.02122 0.0
C248 C -0.00078 0.05821 0.00204 0.0
C249 C -0.0032 0.11018 0.99774 0.0
C250 C 0.96485 0.1373 0.01132 0.0
C251 C 0.93499 0.11353 0.02968 0.0
C252 C 0.93702 0.06246 0.03477 0.0
H253 H 0.00436 0.07643 0.89817 0.0
C254 C 0.04839 0.07389 0.92559 0.0
H255 H 0.11136 0.05225 0.00018 0.0
H256 H 0.9847 0.88182 0.03212 0.0
H257 H 0.03994 0.83528 0.00748 0.0
H258 H 0.09182 0.87736 0.97361 0.0
H259 H 0.08871 0.96617 0.96412 0.0
C260 C 0.0673 0.05515 0.97291 0.0
C261 C 0.03145 0.03037 0.98821 0.0
C262 C 0.03418 0.97841 0.99393 0.0
C263 C 0.00431 0.95414 0.01338 0.0
C264 C 0.00689 0.90216 0.01783 0.0
C265 C 0.03838 0.87498 0.00376 0.0
C266 C 0.06763 0.89867 0.98474 0.0
C267 C 0.06567 0.94973 0.97973 0.0
H268 H 0.2874 0.21501 0.08312 0.0
C269 C 0.26518 0.18046 0.06806 0.0
H270 H 0.21185 0.12815 0.07185 0.0
H271 H 0.2654 0.18507 0.29417 0.0
H272 H 0.3066 0.10422 0.31 0.0
H273 H 0.31457 0.0612 0.24306 0.0
H274 H 0.28084 0.09868 0.1596 0.0
C275 C 0.23563 0.16191 0.08735 0.0
C276 C 0.2312 0.1884 0.12774 0.0
C277 C 0.25188 0.16641 0.17655 0.0
C278 C 0.2482 0.19169 0.21544 0.0
C279 C 0.26801 0.16814 0.26346 0.0
C280 C 0.29163 0.12158 0.27305 0.0
C281 C 0.29605 0.09732 0.23535 0.0
C282 C 0.27649 0.11927 0.1876 0.0
H283 H 0.13512 0.27127 0.2062 0.0
C284 C 0.17341 0.27783 0.24239 0.0
H285 H 0.26005 0.27112 0.28355 0.0
H286 H 0.1771 0.23702 0.03519 0.0
H287 H 0.13879 0.31902 0.01989 0.0
H288 H 0.14283 0.36714 0.09025 0.0
H289 H 0.1835 0.33279 0.17579 0.0
C290 C 0.2217 0.26546 0.24721 0.0
C291 C 0.22453 0.23934 0.2057 0.0
C292 C 0.20412 0.26151 0.15683 0.0
C293 C 0.20546 0.23519 0.11723 0.0
C294 C 0.18023 0.25639 0.06753 0.0
C295 C 0.1576 0.30334 0.05805 0.0
C296 C 0.1596 0.33031 0.09757 0.0
C297 C 0.18264 0.30991 0.14646 0.0
H298 H 0.75361 0.80702 0.24694 0.0
C299 C 0.79638 0.80588 0.25694 0.0
H300 H 0.87664 0.7819 0.31197 0.0
H301 H 0.82227 0.77201 0.49051 0.0
H302 H 0.89295 0.83505 0.52268 0.0
H303 H 0.92955 0.86597 0.46991 0.0
H304 H 0.89531 0.83369 0.38428 0.0
C305 C 0.83387 0.7849 0.30145 0.0
C306 C 0.81608 0.76273 0.33548 0.0
C307 C 0.83598 0.78228 0.3851 0.0
C308 C 0.81394 0.76512 0.41504 0.0
C309 C 0.83603 0.78441 0.46524 0.0
C310 C 0.87711 0.82047 0.48448 0.0
C311 C 0.89766 0.8379 0.45475 0.0
C312 C 0.87755 0.81913 0.40564 0.0
H313 H 0.76594 0.63722 0.42456 0.0
C314 C 0.75234 0.66467 0.44142 0.0
H315 H 0.7363 0.7397 0.4446 0.0
H316 H 0.77974 0.70774 0.2483 0.0
H317 H 0.70583 0.64714 0.21355 0.0
H318 H 0.65752 0.62654 0.25914 0.0
H319 H 0.68437 0.66489 0.34059 0.0
C320 C 0.74829 0.71199 0.4267 0.0
C321 C 0.77088 0.72927 0.39465 0.0
C322 C 0.7515 0.70931 0.34512 0.0
C323 C 0.77614 0.72423 0.31677 0.0
C324 C 0.75995 0.7001 0.26983 0.0
C325 C 0.71793 0.66492 0.24968 0.0
C326 C 0.69098 0.65311 0.27548 0.0
C327 C 0.70725 0.67504 0.32255 0.0
H328 H 0.72146 0.76168 0.93296 0.0
C329 C 0.74065 0.79795 0.94346 0.0
H330 H 0.78364 0.85288 0.92868 0.0
H331 H 0.79747 0.64303 0.82057 0.0
H332 H 0.84707 0.6099 0.90704 0.0
H333 H 0.86262 0.66023 0.9807 0.0
H334 H 0.82664 0.74296 0.96795 0.0
C335 C 0.76321 0.81715 0.91788 0.0
C336 C 0.76228 0.78978 0.87522 0.0
C337 C 0.78753 0.74286 0.88413 0.0
C338 C 0.7829 0.71551 0.8424 0.0
C339 C 0.80321 0.66672 0.85142 0.0
C340 C 0.83128 0.64705 0.90081 0.0
C341 C 0.83972 0.67524 0.94221 0.0
C342 C 0.81825 0.72259 0.93422 0.0
H343 H 0.84585 0.70459 0.79074 0.0
C344 C 0.80737 0.69959 0.75431 0.0
H345 H 0.72093 0.70728 0.71377 0.0
H346 H 0.70977 0.87857 0.84515 0.0
H347 H 0.66695 0.91447 0.76005 0.0
H348 H 0.66662 0.87047 0.68928 0.0
H349 H 0.70824 0.79014 0.70288 0.0
C350 C 0.75943 0.71173 0.75024 0.0
C351 C 0.7582 0.73716 0.79287 0.0
C352 C 0.73443 0.78469 0.78431 0.0
C353 C 0.73587 0.8107 0.8254 0.0
C354 C 0.71065 0.85752 0.81554 0.0
C355 C 0.68585 0.87858 0.76683 0.0
C356 C 0.6856 0.85378 0.72698 0.0
C357 C 0.70957 0.80748 0.73537 0.0
H358 H 0.24181 0.19644 0.75742 0.0
C359 C 0.20046 0.19988 0.75079 0.0
H360 H 0.12083 0.22868 0.70186 0.0
H361 H 0.30284 0.33482 0.6508 0.0
H362 H 0.34468 0.36942 0.73626 0.0
H363 H 0.30729 0.35039 0.7916 0.0
H364 H 0.22902 0.2952 0.76234 0.0
C365 C 0.16206 0.22371 0.70867 0.0
C366 C 0.17579 0.24472 0.67119 0.0
C367 C 0.21888 0.2801 0.68735 0.0
C368 C 0.23775 0.29409 0.65396 0.0
C369 C 0.28454 0.32534 0.67319 0.0
C370 C 0.30933 0.34515 0.72243 0.0
C371 C 0.28849 0.33423 0.75369 0.0
C372 C 0.24386 0.3021 0.73659 0.0
H373 H 0.22074 0.36601 0.56951 0.0
C374 C 0.22901 0.33575 0.55128 0.0
H375 H 0.2363 0.25897 0.54773 0.0
H376 H 0.08861 0.18038 0.62638 0.0
H377 H 0.03973 0.15295 0.53776 0.0
H378 H 0.06679 0.18283 0.47737 0.0
H379 H 0.14325 0.2396 0.50531 0.0
C380 C 0.22948 0.28921 0.56699 0.0
C381 C 0.21029 0.27607 0.60284 0.0
C382 C 0.16408 0.244 0.58535 0.0
C383 C 0.14737 0.22781 0.61974 0.0
C384 C 0.10253 0.19437 0.60172 0.0
C385 C 0.07407 0.17832 0.55092 0.0
C386 C 0.08936 0.19507 0.51695 0.0
C387 C 0.13368 0.22752 0.53368 0.0
H388 H 0.3958 0.37796 0.4573 0.0
C389 C 0.36599 0.40692 0.44867 0.0
H390 H 0.35323 0.48355 0.4488 0.0
H391 H 0.59561 0.54247 0.61462 0.0
H392 H 0.55211 0.54657 0.66498 0.0
H393 H 0.45719 0.51582 0.63007 0.0
H394 H 0.40541 0.48035 0.5447 0.0
C395 C 0.38227 0.45448 0.45535 0.0
C396 C 0.44067 0.46983 0.47703 0.0
C397 C 0.47011 0.49128 0.5267 0.0
C398 C 0.52455 0.50974 0.54654 0.0
C399 C 0.55364 0.52919 0.59701 0.0
C400 C 0.52928 0.53146 0.62653 0.0
C401 C 0.47586 0.51411 0.60689 0.0
C402 C 0.44651 0.49404 0.55771 0.0
H403 H 0.58865 0.60108 0.53867 0.0
C404 C 0.61965 0.57428 0.54454 0.0
H405 H 0.63658 0.49921 0.54091 0.0
H406 H 0.39505 0.43253 0.37972 0.0
H407 H 0.43863 0.42801 0.32945 0.0
H408 H 0.53308 0.45976 0.36382 0.0
H409 H 0.58438 0.49647 0.44854 0.0
C410 C 0.60624 0.52605 0.53653 0.0
C411 C 0.54905 0.50756 0.51622 0.0
C412 C 0.51986 0.48547 0.46682 0.0
C413 C 0.46552 0.46679 0.4471 0.0
C414 C 0.43675 0.44645 0.39702 0.0
C415 C 0.4612 0.44382 0.3676 0.0
C416 C 0.51437 0.4617 0.38694 0.0
C417 C 0.54345 0.48251 0.4358 0.0
H418 H 0.40781 0.10061 0.9573 0.0
C419 C 0.37696 0.07559 0.95586 0.0
H420 H 0.35848 0.00218 0.96581 0.0
H421 H 0.56872 0.96607 0.93372 0.0
H422 H 0.50667 0.99183 0.84564 0.0
H423 H 0.41433 0.02398 0.81825 0.0
H424 H 0.38366 0.03084 0.87883 0.0
C425 C 0.38826 0.02739 0.96559 0.0
C426 C 0.44315 0.00735 0.98125 0.0
C427 C 0.46004 0.00329 0.94511 0.0
C428 C 0.51294 0.98427 0.96075 0.0
C429 C 0.52901 0.98053 0.92398 0.0
C430 C 0.49374 0.99501 0.87323 0.0
C431 C 0.44177 0.01314 0.85782 0.0
C432 C 0.4248 0.01714 0.8931 0.0
H433 H 0.59104 0.8776 0.03933 0.0
C434 C 0.61998 0.90477 0.04048 0.0
H435 H 0.63258 0.97927 0.0282 0.0
H436 H 0.42213 0.00886 0.05942 0.0
H437 H 0.48399 0.98286 0.1474 0.0
H438 H 0.57653 0.95115 0.17496 0.0
H439 H 0.60755 0.94491 0.11468 0.0
C440 C 0.60463 0.95203 0.0287 0.0
C441 C 0.54832 0.96881 0.01223 0.0
C442 C 0.53117 0.97233 0.04824 0.0
C443 C 0.4782 0.99124 0.03254 0.0
C444 C 0.46193 0.99463 0.0692 0.0
C445 C 0.49709 0.97997 0.1199 0.0
C446 C 0.54916 0.96208 0.13541 0.0
C447 C 0.56633 0.95844 0.10026 0.0
loop_
_geom_bond_atom_site_label_1
_geom_bond_atom_site_label_2
_geom_bond_distance
_geom_bond_site_symmetry_2
_ccdc_geom_bond_type
Sc0 O3 2.025 . S
Sc0 O10 2.105 . S
Sc0 O13 2.105 . S
Sc0 O16 2.105 . S
Sc0 O19 2.105 . S
Sc1 O3 2.025 . S
Sc1 O11 2.105 . S
Sc1 O15 2.105 . S
Sc1 O17 2.105 . S
Sc1 O21 2.105 . S
Sc2 O3 2.025 . S
Sc2 O12 2.105 . S
Sc2 O14 2.105 . S
Sc2 O18 2.105 . S
Sc2 O20 2.105 . S
O3 Sc0 2.025 . S
O3 Sc1 2.025 . S
O3 Sc2 2.025 . S
C4 O10 1.268 . S
C4 O20 1.268 . S
C5 O11 1.268 . S
C5 O19 1.268 . S
C6 O12 1.268 . S
C6 O21 1.268 . S
C7 O13 1.268 . S
C7 O17 1.268 . S
C8 O14 1.268 . S
C8 O16 1.268 . S
C9 O15 1.268 . S
C9 O18 1.268 . S
O10 Sc0 2.105 . S
O10 C4 1.268 . S
O11 Sc1 2.105 . S
O11 C5 1.268 . S
O12 Sc2 2.105 . S
O12 C6 1.268 . S
O13 Sc0 2.105 . S
O13 C7 1.268 . S
O14 Sc2 2.105 . S
O14 C8 1.268 . S
O15 Sc1 2.105 . S
O15 C9 1.268 . S
O16 Sc0 2.105 . S
O16 C8 1.268 . S
O17 Sc1 2.105 . S
O17 C7 1.268 . S
O18 Sc2 2.105 . S
O18 C9 1.268 . S
O19 Sc0 2.105 . S
O19 C5 1.268 . S
O20 Sc2 2.105 . S
O20 C4 1.268 . S
O21 Sc1 2.105 . S
O21 C6 1.268 . S
Sc22 O25 2.025 . S
Sc22 O32 2.105 . S
Sc22 O35 2.105 . S
Sc22 O38 2.105 1_554 S
Sc22 O41 2.105 . S
Sc23 O25 2.025 . S
Sc23 O33 2.105 . S
Sc23 O37 2.105 . S
Sc23 O39 2.105 . S
Sc23 O43 2.105 . S
Sc24 O25 2.025 . S
Sc24 O34 2.105 . S
Sc24 O36 2.105 . S
Sc24 O40 2.105 . S
Sc24 O42 2.105 . S
O25 Sc22 2.025 . S
O25 Sc23 2.025 . S
O25 Sc24 2.025 . S
C26 O32 1.268 . S
C26 O42 1.268 . S
C27 O33 1.268 . S
C27 O41 1.268 . S
C28 O34 1.268 . S
C28 O43 1.268 . S
C29 O35 1.268 . S
C29 O39 1.268 . S
C30 O36 1.268 1_556 S
C30 O38 1.268 . S
C31 O37 1.268 . S
C31 O40 1.268 . S
O32 Sc22 2.105 . S
O32 C26 1.268 . S
O33 Sc23 2.105 . S
O33 C27 1.268 . S
O34 Sc24 2.105 . S
O34 C28 1.268 . S
O35 Sc22 2.105 . S
O35 C29 1.268 . S
O36 Sc24 2.105 . S
O36 C30 1.268 1_554 S
O37 Sc23 2.105 . S
O37 C31 1.268 . S
O38 Sc22 2.105 1_556 S
O38 C30 1.268 . S
O39 Sc23 2.105 . S
O39 C29 1.268 . S
O40 Sc24 2.105 . S
O40 C31 1.268 . S
O41 Sc22 2.105 . S
O41 C27 1.268 . S
O42 Sc24 2.105 . S
O42 C26 1.268 . S
O43 Sc23 2.105 . S
O43 C28 1.268 . S
Sc44 O47 2.025 . S
Sc44 O54 2.105 . S
Sc44 O57 2.105 . S
Sc44 O60 2.105 . S
Sc44 O63 2.105 . S
Sc45 O47 2.025 . S
Sc45 O55 2.105 . S
Sc45 O59 2.105 . S
Sc45 O61 2.105 . S
Sc45 O65 2.105 . S
Sc46 O47 2.025 . S
Sc46 O56 2.105 . S
Sc46 O58 2.105 . S
Sc46 O62 2.105 . S
Sc46 O64 2.105 . S
O47 Sc44 2.025 . S
O47 Sc45 2.025 . S
O47 Sc46 2.025 . S
C48 O54 1.268 . S
C48 O64 1.268 . S
C49 O55 1.268 . S
C49 O63 1.268 . S
C50 O56 1.268 . S
C50 O65 1.268 . S
C51 O57 1.268 . S
C51 O61 1.268 . S
C52 O58 1.268 . S
C52 O60 1.268 . S
C53 O59 1.268 . S
C53 O62 1.268 . S
O54 Sc44 2.105 . S
O54 C48 1.268 . S
O55 Sc45 2.105 . S
O55 C49 1.268 . S
O56 Sc46 2.105 . S
O56 C50 1.268 . S
O57 Sc44 2.105 . S
O57 C51 1.268 . S
O58 Sc46 2.105 . S
O58 C52 1.268 . S
O59 Sc45 2.105 . S
O59 C53 1.268 . S
O60 Sc44 2.105 . S
O60 C52 1.268 . S
O61 Sc45 2.105 . S
O61 C51 1.268 . S
O62 Sc46 2.105 . S
O62 C53 1.268 . S
O63 Sc44 2.105 . S
O63 C49 1.268 . S
O64 Sc46 2.105 . S
O64 C48 1.268 . S
O65 Sc45 2.105 . S
O65 C50 1.268 . S
Sc66 O69 2.025 . S
Sc66 O76 2.105 . S
Sc66 O79 2.105 . S
Sc66 O82 2.105 . S
Sc66 O85 2.105 . S
Sc67 O69 2.025 . S
Sc67 O77 2.105 . S
Sc67 O81 2.105 . S
Sc67 O83 2.105 . S
Sc67 O87 2.105 . S
Sc68 O69 2.025 . S
Sc68 O78 2.105 . S
Sc68 O80 2.105 1_556 S
Sc68 O84 2.105 . S
Sc68 O86 2.105 . S
O69 Sc66 2.025 . S
O69 Sc67 2.025 . S
O69 Sc68 2.025 . S
C70 O76 1.268 . S
C70 O86 1.268 . S
C71 O77 1.268 . S
C71 O85 1.268 . S
C72 O78 1.268 . S
C72 O87 1.268 . S
C73 O79 1.268 . S
C73 O83 1.268 . S
C74 O80 1.268 . S
C74 O82 1.268 1_554 S
C75 O81 1.268 . S
C75 O84 1.268 . S
O76 Sc66 2.105 . S
O76 C70 1.268 . S
O77 Sc67 2.105 . S
O77 C71 1.268 . S
O78 Sc68 2.105 . S
O78 C72 1.268 . S
O79 Sc66 2.105 . S
O79 C73 1.268 . S
O80 Sc68 2.105 1_554 S
O80 C74 1.268 . S
O81 Sc67 2.105 . S
O81 C75 1.268 . S
O82 Sc66 2.105 . S
O82 C74 1.268 1_556 S
O83 Sc67 2.105 . S
O83 C73 1.268 . S
O84 Sc68 2.105 . S
O84 C75 1.268 . S
O85 Sc66 2.105 . S
O85 C71 1.268 . S
O86 Sc68 2.105 . S
O86 C70 1.268 . S
O87 Sc67 2.105 . S
O87 C72 1.268 . S
H88 C89 0.951 . S
C89 H88 0.951 . S
C89 C95 1.265 . S
H90 C95 0.950 . S
H91 C99 0.949 . S
H92 C100 0.950 . S
H93 C101 0.951 . S
H94 C102 0.951 . S
C95 C89 1.265 . S
C95 H90 0.950 . S
C95 C96 1.478 . S
C96 C95 1.478 . S
C96 C97 1.397 . S
C96 C113 1.394 . S
C97 C96 1.397 . S
C97 C98 1.438 1_655 S
C97 C102 1.429 . S
C98 C97 1.438 1_455 S
C98 C99 1.428 . S
C98 C111 1.394 . S
C99 H91 0.949 . S
C99 C98 1.428 . S
C99 C100 1.345 . S
C100 H92 0.950 . S
C100 C99 1.345 . S
C100 C101 1.424 1_455 S
C101 H93 0.951 . S
C101 C100 1.424 1_655 S
C101 C102 1.347 . S
C102 H94 0.951 . S
C102 C97 1.429 . S
C102 C101 1.347 . S
H103 C104 0.951 . S
C104 H103 0.951 . S
C104 C110 1.265 . S
H105 C110 0.950 . S
H106 C114 0.949 . S
H107 C115 0.950 . S
H108 C116 0.951 . S
H109 C117 0.951 1_455 S
C110 C104 1.265 . S
C110 H105 0.950 . S
C110 C111 1.478 . S
C111 C98 1.394 . S
C111 C110 1.478 . S
C111 C112 1.397 1_455 S
C112 C111 1.397 1_655 S
C112 C113 1.438 . S
C112 C117 1.429 . S
C113 C96 1.394 . S
C113 C112 1.438 . S
C113 C114 1.428 . S
C114 H106 0.949 . S
C114 C113 1.428 . S
C114 C115 1.345 . S
C115 H107 0.950 . S
C115 C114 1.345 . S
C115 C116 1.424 . S
C116 H108 0.951 . S
C116 C115 1.424 . S
C116 C117 1.347 . S
C117 H109 0.951 1_655 S
C117 C112 1.429 . S
C117 C116 1.347 . S
H118 C119 0.951 . S
C119 H118 0.951 . S
C119 C125 1.265 . S
H120 C125 0.950 . S
H121 C129 0.949 . S
H122 C130 0.950 . S
H123 C131 0.951 . S
H124 C132 0.951 . S
C125 C119 1.265 . S
C125 H120 0.950 . S
C125 C126 1.478 . S
C126 C125 1.478 . S
C126 C127 1.397 . S
C126 C143 1.394 . S
C127 C126 1.397 . S
C127 C128 1.438 . S
C127 C132 1.429 . S
C128 C127 1.438 . S
C128 C129 1.428 . S
C128 C141 1.394 1_455 S
C129 H121 0.949 . S
C129 C128 1.428 . S
C129 C130 1.345 . S
C130 H122 0.950 . S
C130 C129 1.345 . S
C130 C131 1.424 . S
C131 H123 0.951 . S
C131 C130 1.424 . S
C131 C132 1.347 . S
C132 H124 0.951 . S
C132 C127 1.429 . S
C132 C131 1.347 . S
H133 C134 0.951 . S
C134 H133 0.951 . S
C134 C140 1.265 . S
H135 C140 0.950 . S
H136 C144 0.949 . S
H137 C145 0.950 . S
H138 C146 0.951 . S
H139 C147 0.951 . S
C140 C134 1.265 . S
C140 H135 0.950 . S
C140 C141 1.478 . S
C141 C128 1.394 1_655 S
C141 C140 1.478 . S
C141 C142 1.397 . S
C142 C141 1.397 . S
C142 C143 1.438 1_655 S
C142 C147 1.429 . S
C143 C126 1.394 . S
C143 C142 1.438 1_455 S
C143 C144 1.428 . S
C144 H136 0.949 . S
C144 C143 1.428 . S
C144 C145 1.345 1_455 S
C145 H137 0.950 . S
C145 C144 1.345 1_655 S
C145 C146 1.424 . S
C146 H138 0.951 . S
C146 C145 1.424 . S
C146 C147 1.347 . S
C147 H139 0.951 . S
C147 C142 1.429 . S
C147 C146 1.347 . S
H148 C149 0.951 . S
C149 H148 0.951 . S
C149 C155 1.265 . S
H150 C155 0.950 . S
H151 C159 0.949 . S
H152 C160 0.950 . S
H153 C161 0.951 . S
H154 C162 0.951 . S
C155 C149 1.265 . S
C155 H150 0.950 . S
C155 C156 1.478 . S
C156 C155 1.478 . S
C156 C157 1.397 . S
C156 C173 1.394 . S
C157 C156 1.397 . S
C157 C158 1.438 1_455 S
C157 C162 1.429 . S
C158 C157 1.438 1_655 S
C158 C159 1.428 . S
C158 C171 1.394 . S
C159 H151 0.949 . S
C159 C158 1.428 . S
C159 C160 1.345 . S
C160 H152 0.950 . S
C160 C159 1.345 . S
C160 C161 1.424 . S
C161 H153 0.951 . S
C161 C160 1.424 . S
C161 C162 1.347 1_655 S
C162 H154 0.951 . S
C162 C157 1.429 . S
C162 C161 1.347 1_455 S
H163 C164 0.951 . S
C164 H163 0.951 . S
C164 C170 1.265 . S
H165 C170 0.950 . S
H166 C174 0.949 . S
H167 C175 0.950 . S
H168 C176 0.951 . S
H169 C177 0.951 . S
C170 C164 1.265 . S
C170 H165 0.950 . S
C170 C171 1.478 . S
C171 C158 1.394 . S
C171 C170 1.478 . S
C171 C172 1.397 1_655 S
C172 C171 1.397 1_455 S
C172 C173 1.438 . S
C172 C177 1.429 . S
C173 C156 1.394 . S
C173 C172 1.438 . S
C173 C174 1.428 . S
C174 H166 0.949 . S
C174 C173 1.428 . S
C174 C175 1.345 . S
C175 H167 0.950 . S
C175 C174 1.345 . S
C175 C176 1.424 . S
C176 H168 0.951 . S
C176 C175 1.424 . S
C176 C177 1.347 . S
C177 H169 0.951 . S
C177 C172 1.429 . S
C177 C176 1.347 . S
H178 C179 0.951 . S
C179 H178 0.951 . S
C179 C185 1.265 . S
H180 C185 0.950 . S
H181 C189 0.949 . S
H182 C190 0.950 . S
H183 C191 0.951 . S
H184 C192 0.951 . S
C185 C179 1.265 . S
C185 H180 0.950 . S
C185 C186 1.478 . S
C186 C185 1.478 . S
C186 C187 1.397 . S
C186 C203 1.394 . S
C187 C186 1.397 . S
C187 C188 1.438 . S
C187 C192 1.429 . S
C188 C187 1.438 . S
C188 C189 1.428 1_655 S
C188 C201 1.394 1_655 S
C189 H181 0.949 . S
C189 C188 1.428 1_455 S
C189 C190 1.345 . S
C190 H182 0.950 . S
C190 C189 1.345 . S
C190 C191 1.424 1_455 S
C191 H183 0.951 . S
C191 C190 1.424 1_655 S
C191 C192 1.347 . S
C192 H184 0.951 . S
C192 C187 1.429 . S
C192 C191 1.347 . S
H193 C194 0.951 . S
C194 H193 0.951 . S
C194 C200 1.265 . S
H195 C200 0.950 . S
H196 C204 0.949 . S
H197 C205 0.950 . S
H198 C206 0.951 . S
H199 C207 0.951 1_455 S
C200 C194 1.265 . S
C200 H195 0.950 . S
C200 C201 1.478 . S
C201 C188 1.394 1_455 S
C201 C200 1.478 . S
C201 C202 1.397 1_455 S
C202 C201 1.397 1_655 S
C202 C203 1.438 . S
C202 C207 1.429 . S
C203 C186 1.394 . S
C203 C202 1.438 . S
C203 C204 1.428 . S
C204 H196 0.949 . S
C204 C203 1.428 . S
C204 C205 1.345 . S
C205 H197 0.950 . S
C205 C204 1.345 . S
C205 C206 1.424 . S
C206 H198 0.951 . S
C206 C205 1.424 . S
C206 C207 1.347 . S
C207 H199 0.951 1_655 S
C207 C202 1.429 . S
C207 C206 1.347 . S
H208 C209 0.951 . S
C209 H208 0.951 . S
C209 C215 1.265 . S
H210 C215 0.950 . S
H211 C219 0.949 1_455 S
H212 C220 0.950 . S
H213 C221 0.951 . S
H214 C222 0.951 . S
C215 C209 1.265 . S
C215 H210 0.950 . S
C215 C216 1.478 . S
C216 C215 1.478 . S
C216 C217 1.397 . S
C216 C233 1.394 1_655 S
C217 C216 1.397 . S
C217 C218 1.438 . S
C217 C222 1.429 . S
C218 C217 1.438 . S
C218 C219 1.428 . S
C218 C231 1.394 1_655 S
C219 H211 0.949 1_655 S
C219 C218 1.428 . S
C219 C220 1.345 . S
C220 H212 0.950 . S
C220 C219 1.345 . S
C220 C221 1.424 . S
C221 H213 0.951 . S
C221 C220 1.424 . S
C221 C222 1.347 . S
C222 H214 0.951 . S
C222 C217 1.429 . S
C222 C221 1.347 . S
H223 C224 0.951 . S
C224 H223 0.951 . S
C224 C230 1.265 . S
H225 C230 0.950 . S
H226 C234 0.949 1_655 S
H227 C235 0.950 . S
H228 C236 0.951 . S
H229 C237 0.951 . S
C230 C224 1.265 . S
C230 H225 0.950 . S
C230 C231 1.478 . S
C231 C218 1.394 1_455 S
C231 C230 1.478 . S
C231 C232 1.397 . S
C232 C231 1.397 . S
C232 C233 1.438 . S
C232 C237 1.429 . S
C233 C216 1.394 1_455 S
C233 C232 1.438 . S
C233 C234 1.428 . S
C234 H226 0.949 1_455 S
C234 C233 1.428 . S
C234 C235 1.345 . S
C235 H227 0.950 . S
C235 C234 1.345 . S
C235 C236 1.424 . S
C236 H228 0.951 . S
C236 C235 1.424 . S
C236 C237 1.347 . S
C237 H229 0.951 . S
C237 C232 1.429 . S
C237 C236 1.347 . S
H238 C239 0.951 . S
C239 H238 0.951 . S
C239 C245 1.265 . S
H240 C245 0.950 . S
H241 C249 0.949 . S
H242 C250 0.950 . S
H243 C251 0.951 . S
H244 C252 0.951 . S
C245 C239 1.265 . S
C245 H240 0.950 . S
C245 C246 1.478 . S
C246 C245 1.478 . S
C246 C247 1.397 1_564 S
C246 C263 1.394 1_655 S
C247 C246 1.397 1_546 S
C247 C248 1.438 . S
C247 C252 1.429 . S
C248 C247 1.438 . S
C248 C249 1.428 . S
C248 C261 1.394 1_655 S
C249 H241 0.949 . S
C249 C248 1.428 . S
C249 C250 1.345 . S
C250 H242 0.950 . S
C250 C249 1.345 . S
C250 C251 1.424 . S
C251 H243 0.951 . S
C251 C250 1.424 . S
C251 C252 1.347 . S
C252 H244 0.951 . S
C252 C247 1.429 . S
C252 C251 1.347 . S
H253 C254 0.951 . S
C254 H253 0.951 . S
C254 C260 1.265 . S
H255 C260 0.950 . S
H256 C264 0.949 . S
H257 C265 0.950 . S
H258 C266 0.951 . S
H259 C267 0.951 . S
C260 C254 1.265 . S
C260 H255 0.950 . S
C260 C261 1.478 . S
C261 C248 1.394 1_455 S
C261 C260 1.478 . S
C261 C262 1.397 1_546 S
C262 C261 1.397 1_564 S
C262 C263 1.438 . S
C262 C267 1.429 . S
C263 C246 1.394 1_455 S
C263 C262 1.438 . S
C263 C264 1.428 . S
C264 H256 0.949 . S
C264 C263 1.428 . S
C264 C265 1.345 . S
C265 H257 0.950 . S
C265 C264 1.345 . S
C265 C266 1.424 . S
C266 H258 0.951 . S
C266 C265 1.424 . S
C266 C267 1.347 . S
C267 H259 0.951 . S
C267 C262 1.429 . S
C267 C266 1.347 . S
H268 C269 0.951 . S
C269 H268 0.951 . S
C269 C275 1.265 . S
H270 C275 0.950 . S
H271 C279 0.949 . S
H272 C280 0.950 . S
H273 C281 0.951 . S
H274 C282 0.951 . S
C275 C269 1.265 . S
C275 H270 0.950 . S
C275 C276 1.478 . S
C276 C275 1.478 . S
C276 C277 1.397 . S
C276 C293 1.394 . S
C277 C276 1.397 . S
C277 C278 1.438 . S
C277 C282 1.429 . S
C278 C277 1.438 . S
C278 C279 1.428 . S
C278 C291 1.394 . S
C279 H271 0.949 . S
C279 C278 1.428 . S
C279 C280 1.345 . S
C280 H272 0.950 . S
C280 C279 1.345 . S
C280 C281 1.424 . S
C281 H273 0.951 . S
C281 C280 1.424 . S
C281 C282 1.347 . S
C282 H274 0.951 . S
C282 C277 1.429 . S
C282 C281 1.347 . S
H283 C284 0.951 . S
C284 H283 0.951 . S
C284 C290 1.265 . S
H285 C290 0.950 . S
H286 C294 0.949 . S
H287 C295 0.950 . S
H288 C296 0.951 . S
H289 C297 0.951 . S
C290 C284 1.265 . S
C290 H285 0.950 . S
C290 C291 1.478 . S
C291 C278 1.394 . S
C291 C290 1.478 . S
C291 C292 1.397 . S
C292 C291 1.397 . S
C292 C293 1.438 . S
C292 C297 1.429 . S
C293 C276 1.394 . S
C293 C292 1.438 . S
C293 C294 1.428 . S
C294 H286 0.949 . S
C294 C293 1.428 . S
C294 C295 1.345 . S
C295 H287 0.950 . S
C295 C294 1.345 . S
C295 C296 1.424 . S
C296 H288 0.951 . S
C296 C295 1.424 . S
C296 C297 1.347 . S
C297 H289 0.951 . S
C297 C292 1.429 . S
C297 C296 1.347 . S
H298 C299 0.951 . S
C299 H298 0.951 . S
C299 C305 1.265 . S
H300 C305 0.950 . S
H301 C309 0.949 . S
H302 C310 0.950 . S
H303 C311 0.951 . S
H304 C312 0.951 . S
C305 C299 1.265 . S
C305 H300 0.950 . S
C305 C306 1.478 . S
C306 C305 1.478 . S
C306 C307 1.397 . S
C306 C323 1.394 . S
C307 C306 1.397 . S
C307 C308 1.438 . S
C307 C312 1.429 . S
C308 C307 1.438 . S
C308 C309 1.428 . S
C308 C321 1.394 . S
C309 H301 0.949 . S
C309 C308 1.428 . S
C309 C310 1.345 . S
C310 H302 0.950 . S
C310 C309 1.345 . S
C310 C311 1.424 . S
C311 H303 0.951 . S
C311 C310 1.424 . S
C311 C312 1.347 . S
C312 H304 0.951 . S
C312 C307 1.429 . S
C312 C311 1.347 . S
H313 C314 0.951 . S
C314 H313 0.951 . S
C314 C320 1.265 . S
H315 C320 0.950 . S
H316 C324 0.949 . S
H317 C325 0.950 . S
H318 C326 0.951 . S
H319 C327 0.951 . S
C320 C314 1.265 . S
C320 H315 0.950 . S
C320 C321 1.478 . S
C321 C308 1.394 . S
C321 C320 1.478 . S
C321 C322 1.397 . S
C322 C321 1.397 . S
C322 C323 1.438 . S
C322 C327 1.429 . S
C323 C306 1.394 . S
C323 C322 1.438 . S
C323 C324 1.428 . S
C324 H316 0.949 . S
C324 C323 1.428 . S
C324 C325 1.345 . S
C325 H317 0.950 . S
C325 C324 1.345 . S
C325 C326 1.424 . S
C326 H318 0.951 . S
C326 C325 1.424 . S
C326 C327 1.347 . S
C327 H319 0.951 . S
C327 C322 1.429 . S
C327 C326 1.347 . S
H328 C329 0.951 . S
C329 H328 0.951 . S
C329 C335 1.265 . S
H330 C335 0.950 . S
H331 C339 0.949 . S
H332 C340 0.950 . S
H333 C341 0.951 . S
H334 C342 0.951 . S
C335 C329 1.265 . S
C335 H330 0.950 . S
C335 C336 1.478 . S
C336 C335 1.478 . S
C336 C337 1.397 . S
C336 C353 1.394 . S
C337 C336 1.397 . S
C337 C338 1.438 . S
C337 C342 1.429 . S
C338 C337 1.438 . S
C338 C339 1.428 . S
C338 C351 1.394 . S
C339 H331 0.949 . S
C339 C338 1.428 . S
C339 C340 1.345 . S
C340 H332 0.950 . S
C340 C339 1.345 . S
C340 C341 1.424 . S
C341 H333 0.951 . S
C341 C340 1.424 . S
C341 C342 1.347 . S
C342 H334 0.951 . S
C342 C337 1.429 . S
C342 C341 1.347 . S
H343 C344 0.951 . S
C344 H343 0.951 . S
C344 C350 1.265 . S
H345 C350 0.950 . S
H346 C354 0.949 . S
H347 C355 0.950 . S
H348 C356 0.951 . S
H349 C357 0.951 . S
C350 C344 1.265 . S
C350 H345 0.950 . S
C350 C351 1.478 . S
C351 C338 1.394 . S
C351 C350 1.478 . S
C351 C352 1.397 . S
C352 C351 1.397 . S
C352 C353 1.438 . S
C352 C357 1.429 . S
C353 C336 1.394 . S
C353 C352 1.438 . S
C353 C354 1.428 . S
C354 H346 0.949 . S
C354 C353 1.428 . S
C354 C355 1.345 . S
C355 H347 0.950 . S
C355 C354 1.345 . S
C355 C356 1.424 . S
C356 H348 0.951 . S
C356 C355 1.424 . S
C356 C357 1.347 . S
C357 H349 0.951 . S
C357 C352 1.429 . S
C357 C356 1.347 . S
H358 C359 0.951 . S
C359 H358 0.951 . S
C359 C365 1.265 . S
H360 C365 0.950 . S
H361 C369 0.949 . S
H362 C370 0.950 . S
H363 C371 0.951 . S
H364 C372 0.951 . S
C365 C359 1.265 . S
C365 H360 0.950 . S
C365 C366 1.478 . S
C366 C365 1.478 . S
C366 C367 1.397 . S
C366 C383 1.394 . S
C367 C366 1.397 . S
C367 C368 1.438 . S
C367 C372 1.429 . S
C368 C367 1.438 . S
C368 C369 1.428 . S
C368 C381 1.394 . S
C369 H361 0.949 . S
C369 C368 1.428 . S
C369 C370 1.345 . S
C370 H362 0.950 . S
C370 C369 1.345 . S
C370 C371 1.424 . S
C371 H363 0.951 . S
C371 C370 1.424 . S
C371 C372 1.347 . S
C372 H364 0.951 . S
C372 C367 1.429 . S
C372 C371 1.347 . S
H373 C374 0.951 . S
C374 H373 0.951 . S
C374 C380 1.265 . S
H375 C380 0.950 . S
H376 C384 0.949 . S
H377 C385 0.950 . S
H378 C386 0.951 . S
H379 C387 0.951 . S
C380 C374 1.265 . S
C380 H375 0.950 . S
C380 C381 1.478 . S
C381 C368 1.394 . S
C381 C380 1.478 . S
C381 C382 1.397 . S
C382 C381 1.397 . S
C382 C383 1.438 . S
C382 C387 1.429 . S
C383 C366 1.394 . S
C383 C382 1.438 . S
C383 C384 1.428 . S
C384 H376 0.949 . S
C384 C383 1.428 . S
C384 C385 1.345 . S
C385 H377 0.950 . S
C385 C384 1.345 . S
C385 C386 1.424 . S
C386 H378 0.951 . S
C386 C385 1.424 . S
C386 C387 1.347 . S
C387 H379 0.951 . S
C387 C382 1.429 . S
C387 C386 1.347 . S
H388 C389 0.951 . S
C389 H388 0.951 . S
C389 C395 1.265 . S
H390 C395 0.950 . S
H391 C399 0.949 . S
H392 C400 0.950 . S
H393 C401 0.951 . S
H394 C402 0.951 . S
C395 C389 1.265 . S
C395 H390 0.950 . S
C395 C396 1.478 . S
C396 C395 1.478 . S
C396 C397 1.397 . S
C396 C413 1.394 . S
C397 C396 1.397 . S
C397 C398 1.438 . S
C397 C402 1.429 . S
C398 C397 1.438 . S
C398 C399 1.428 . S
C398 C411 1.394 . S
C399 H391 0.949 . S
C399 C398 1.428 . S
C399 C400 1.345 . S
C400 H392 0.950 . S
C400 C399 1.345 . S
C400 C401 1.424 . S
C401 H393 0.951 . S
C401 C400 1.424 . S
C401 C402 1.347 . S
C402 H394 0.951 . S
C402 C397 1.429 . S
C402 C401 1.347 . S
H403 C404 0.951 . S
C404 H403 0.951 . S
C404 C410 1.265 . S
H405 C410 0.950 . S
H406 C414 0.949 . S
H407 C415 0.950 . S
H408 C416 0.951 . S
H409 C417 0.951 . S
C410 C404 1.265 . S
C410 H405 0.950 . S
C410 C411 1.478 . S
C411 C398 1.394 . S
C411 C410 1.478 . S
C411 C412 1.397 . S
C412 C411 1.397 . S
C412 C413 1.438 . S
C412 C417 1.429 . S
C413 C396 1.394 . S
C413 C412 1.438 . S
C413 C414 1.428 . S
C414 H406 0.949 . S
C414 C413 1.428 . S
C414 C415 1.345 . S
C415 H407 0.950 . S
C415 C414 1.345 . S
C415 C416 1.424 . S
C416 H408 0.951 . S
C416 C415 1.424 . S
C416 C417 1.347 . S
C417 H409 0.951 . S
C417 C412 1.429 . S
C417 C416 1.347 . S
H418 C419 0.951 . S
C419 H418 0.951 . S
C419 C425 1.265 . S
H420 C425 0.950 . S
H421 C429 0.949 . S
H422 C430 0.950 . S
H423 C431 0.951 . S
H424 C432 0.951 . S
C425 C419 1.265 . S
C425 H420 0.950 . S
C425 C426 1.478 . S
C426 C425 1.478 . S
C426 C427 1.397 . S
C426 C443 1.394 1_556 S
C427 C426 1.397 . S
C427 C428 1.438 1_545 S
C427 C432 1.429 . S
C428 C427 1.438 1_565 S
C428 C429 1.428 . S
C428 C441 1.394 1_556 S
C429 H421 0.949 . S
C429 C428 1.428 . S
C429 C430 1.345 . S
C430 H422 0.950 . S
C430 C429 1.345 . S
C430 C431 1.424 1_565 S
C431 H423 0.951 . S
C431 C430 1.424 1_545 S
C431 C432 1.347 . S
C432 H424 0.951 . S
C432 C427 1.429 . S
C432 C431 1.347 . S
H433 C434 0.951 . S
C434 H433 0.951 . S
C434 C440 1.265 . S
H435 C440 0.950 . S
H436 C444 0.949 . S
H437 C445 0.950 . S
H438 C446 0.951 . S
H439 C447 0.951 . S
C440 C434 1.265 . S
C440 H435 0.950 . S
C440 C441 1.478 . S
C441 C428 1.394 1_554 S
C441 C440 1.478 . S
C441 C442 1.397 . S
C442 C441 1.397 . S
C442 C443 1.438 1_565 S
C442 C447 1.429 . S
C443 C426 1.394 1_554 S
C443 C442 1.438 1_545 S
C443 C444 1.428 . S
C444 H436 0.949 . S
C444 C443 1.428 . S
C444 C445 1.345 . S
C445 H437 0.950 . S
C445 C444 1.345 . S
C445 C446 1.424 1_545 S
C446 H438 0.951 . S
C446 C445 1.424 1_565 S
C446 C447 1.347 . S
C447 H439 0.951 . S
C447 C442 1.429 . S
C447 C446 1.347 . S
C89 C27 1.257 1_545 S
C104 C5 1.408 . S
C119 C9 1.289 . S
C134 C31 1.339 . S
C149 C72 1.395 1_565 S
C164 C50 1.383 . S
C179 C51 1.386 . S
C194 C73 1.397 . S
C209 C49 1.115 . S
C224 C6 1.115 . S
C239 C29 1.072 . S
C254 C75 1.072 . S
C269 C74 1.624 . S
C284 C7 1.515 . S
C299 C28 1.559 . S
C314 C48 1.594 . S
C329 C30 1.624 . S
C344 C53 1.513 . S
C359 C71 1.564 . S
C374 C4 1.595 . S
C389 C8 1.530 . S
C404 C52 1.530 . S
C419 C70 1.525 . S
C434 C26 1.525 . S
