# Generated by pormake.
# Topology twf-e, (6)-cn, num edge types: 1
# Building blocks:
#     Node 0, Type 0, BuildingBlock: CUKXOW_clean_sbu_0, # of connection points: 6
#     Node 1, Type 0, BuildingBlock: CUKXOW_clean_sbu_0, # of connection points: 6
#     Node 2, Type 0, BuildingBlock: CUKXOW_clean_sbu_0, # of connection points: 6
#     Node 3, Type 0, BuildingBlock: CUKXOW_clean_sbu_0, # of connection points: 6
#     Node 4, Type 0, BuildingBlock: CUKXOW_clean_sbu_0, # of connection points: 6
#     Node 5, Type 0, BuildingBlock: CUKXOW_clean_sbu_0, # of connection points: 6
#     Node 6, Type 0, BuildingBlock: CUKXOW_clean_sbu_0, # of connection points: 6
#     Node 7, Type 0, BuildingBlock: CUKXOW_clean_sbu_0, # of connection points: 6
#     Node 8, Type 0, BuildingBlock: CUKXOW_clean_sbu_0, # of connection points: 6
#     Node 9, Type 0, BuildingBlock: CUKXOW_clean_sbu_0, # of connection points: 6
#     Node 10, Type 0, BuildingBlock: CUKXOW_clean_sbu_0, # of connection points: 6
#     Node 11, Type 0, BuildingBlock: CUKXOW_clean_sbu_0, # of connection points: 6
#     Node 12, Type 0, BuildingBlock: CUKXOW_clean_sbu_0, # of connection points: 6
#     Node 13, Type 0, BuildingBlock: CUKXOW_clean_sbu_0, # of connection points: 6
#     Node 14, Type 0, BuildingBlock: CUKXOW_clean_sbu_0, # of connection points: 6
#     Node 15, Type 0, BuildingBlock: CUKXOW_clean_sbu_0, # of connection points: 6
#     Node 16, Type 0, BuildingBlock: CUKXOW_clean_sbu_0, # of connection points: 6
#     Node 17, Type 0, BuildingBlock: CUKXOW_clean_sbu_0, # of connection points: 6
#     Node 18, Type 0, BuildingBlock: CUKXOW_clean_sbu_0, # of connection points: 6
#     Node 19, Type 0, BuildingBlock: CUKXOW_clean_sbu_0, # of connection points: 6
#     Node 20, Type 0, BuildingBlock: CUKXOW_clean_sbu_0, # of connection points: 6
#     Node 21, Type 0, BuildingBlock: CUKXOW_clean_sbu_0, # of connection points: 6
#     Node 22, Type 0, BuildingBlock: CUKXOW_clean_sbu_0, # of connection points: 6
#     Node 23, Type 0, BuildingBlock: CUKXOW_clean_sbu_0, # of connection points: 6
#     Node 24, Type 0, BuildingBlock: CUKXOW_clean_sbu_0, # of connection points: 6
#     Node 25, Type 0, BuildingBlock: CUKXOW_clean_sbu_0, # of connection points: 6
#     Node 26, Type 0, BuildingBlock: CUKXOW_clean_sbu_0, # of connection points: 6
#     Node 27, Type 0, BuildingBlock: CUKXOW_clean_sbu_0, # of connection points: 6
#     Node 28, Type 0, BuildingBlock: CUKXOW_clean_sbu_0, # of connection points: 6
#     Node 29, Type 0, BuildingBlock: CUKXOW_clean_sbu_0, # of connection points: 6
#     Node 30, Type 0, BuildingBlock: CUKXOW_clean_sbu_0, # of connection points: 6
#     Node 31, Type 0, BuildingBlock: CUKXOW_clean_sbu_0, # of connection points: 6
#     Node 32, Type 0, BuildingBlock: CUKXOW_clean_sbu_0, # of connection points: 6
#     Node 33, Type 0, BuildingBlock: CUKXOW_clean_sbu_0, # of connection points: 6
#     Node 34, Type 0, BuildingBlock: CUKXOW_clean_sbu_0, # of connection points: 6
#     Node 35, Type 0, BuildingBlock: CUKXOW_clean_sbu_0, # of connection points: 6
#     Node 36, Type 0, BuildingBlock: CUKXOW_clean_sbu_0, # of connection points: 6
#     Node 37, Type 0, BuildingBlock: CUKXOW_clean_sbu_0, # of connection points: 6
#     Node 38, Type 0, BuildingBlock: CUKXOW_clean_sbu_0, # of connection points: 6
#     Node 39, Type 0, BuildingBlock: CUKXOW_clean_sbu_0, # of connection points: 6
#     Node 40, Type 0, BuildingBlock: CUKXOW_clean_sbu_0, # of connection points: 6
#     Node 41, Type 0, BuildingBlock: CUKXOW_clean_sbu_0, # of connection points: 6
#     Node 42, Type 0, BuildingBlock: CUKXOW_clean_sbu_0, # of connection points: 6
#     Node 43, Type 0, BuildingBlock: CUKXOW_clean_sbu_0, # of connection points: 6
#     Node 44, Type 0, BuildingBlock: CUKXOW_clean_sbu_0, # of connection points: 6
#     Node 45, Type 0, BuildingBlock: CUKXOW_clean_sbu_0, # of connection points: 6
#     Node 46, Type 0, BuildingBlock: CUKXOW_clean_sbu_0, # of connection points: 6
#     Node 47, Type 0, BuildingBlock: CUKXOW_clean_sbu_0, # of connection points: 6
#     Edge 48, Type (0, 0), BuildingBlock: KIFKEQ_clean_linker_1, # of connection points: 2
#     Edge 49, Type (0, 0), BuildingBlock: KIFKEQ_clean_linker_1, # of connection points: 2
#     Edge 50, Type (0, 0), BuildingBlock: KIFKEQ_clean_linker_1, # of connection points: 2
#     Edge 51, Type (0, 0), BuildingBlock: KIFKEQ_clean_linker_1, # of connection points: 2
#     Edge 52, Type (0, 0), BuildingBlock: KIFKEQ_clean_linker_1, # of connection points: 2
#     Edge 53, Type (0, 0), BuildingBlock: KIFKEQ_clean_linker_1, # of connection points: 2
#     Edge 54, Type (0, 0), BuildingBlock: KIFKEQ_clean_linker_1, # of connection points: 2
#     Edge 55, Type (0, 0), BuildingBlock: KIFKEQ_clean_linker_1, # of connection points: 2
#     Edge 56, Type (0, 0), BuildingBlock: KIFKEQ_clean_linker_1, # of connection points: 2
#     Edge 57, Type (0, 0), BuildingBlock: KIFKEQ_clean_linker_1, # of connection points: 2
#     Edge 58, Type (0, 0), BuildingBlock: KIFKEQ_clean_linker_1, # of connection points: 2
#     Edge 59, Type (0, 0), BuildingBlock: KIFKEQ_clean_linker_1, # of connection points: 2
#     Edge 60, Type (0, 0), BuildingBlock: KIFKEQ_clean_linker_1, # of connection points: 2
#     Edge 61, Type (0, 0), BuildingBlock: KIFKEQ_clean_linker_1, # of connection points: 2
#     Edge 62, Type (0, 0), BuildingBlock: KIFKEQ_clean_linker_1, # of connection points: 2
#     Edge 63, Type (0, 0), BuildingBlock: KIFKEQ_clean_linker_1, # of connection points: 2
#     Edge 64, Type (0, 0), BuildingBlock: KIFKEQ_clean_linker_1, # of connection points: 2
#     Edge 65, Type (0, 0), BuildingBlock: KIFKEQ_clean_linker_1, # of connection points: 2
#     Edge 66, Type (0, 0), BuildingBlock: KIFKEQ_clean_linker_1, # of connection points: 2
#     Edge 67, Type (0, 0), BuildingBlock: KIFKEQ_clean_linker_1, # of connection points: 2
#     Edge 68, Type (0, 0), BuildingBlock: KIFKEQ_clean_linker_1, # of connection points: 2
#     Edge 69, Type (0, 0), BuildingBlock: KIFKEQ_clean_linker_1, # of connection points: 2
#     Edge 70, Type (0, 0), BuildingBlock: KIFKEQ_clean_linker_1, # of connection points: 2
#     Edge 71, Type (0, 0), BuildingBlock: KIFKEQ_clean_linker_1, # of connection points: 2
#     Edge 72, Type (0, 0), BuildingBlock: KIFKEQ_clean_linker_1, # of connection points: 2
#     Edge 73, Type (0, 0), BuildingBlock: KIFKEQ_clean_linker_1, # of connection points: 2
#     Edge 74, Type (0, 0), BuildingBlock: KIFKEQ_clean_linker_1, # of connection points: 2
#     Edge 75, Type (0, 0), BuildingBlock: KIFKEQ_clean_linker_1, # of connection points: 2
#     Edge 76, Type (0, 0), BuildingBlock: KIFKEQ_clean_linker_1, # of connection points: 2
#     Edge 77, Type (0, 0), BuildingBlock: KIFKEQ_clean_linker_1, # of connection points: 2
#     Edge 78, Type (0, 0), BuildingBlock: KIFKEQ_clean_linker_1, # of connection points: 2
#     Edge 79, Type (0, 0), BuildingBlock: KIFKEQ_clean_linker_1, # of connection points: 2
#     Edge 80, Type (0, 0), BuildingBlock: KIFKEQ_clean_linker_1, # of connection points: 2
#     Edge 81, Type (0, 0), BuildingBlock: KIFKEQ_clean_linker_1, # of connection points: 2
#     Edge 82, Type (0, 0), BuildingBlock: KIFKEQ_clean_linker_1, # of connection points: 2
#     Edge 83, Type (0, 0), BuildingBlock: KIFKEQ_clean_linker_1, # of connection points: 2
#     Edge 84, Type (0, 0), BuildingBlock: KIFKEQ_clean_linker_1, # of connection points: 2
#     Edge 85, Type (0, 0), BuildingBlock: KIFKEQ_clean_linker_1, # of connection points: 2
#     Edge 86, Type (0, 0), BuildingBlock: KIFKEQ_clean_linker_1, # of connection points: 2
#     Edge 87, Type (0, 0), BuildingBlock: KIFKEQ_clean_linker_1, # of connection points: 2
#     Edge 88, Type (0, 0), BuildingBlock: KIFKEQ_clean_linker_1, # of connection points: 2
#     Edge 89, Type (0, 0), BuildingBlock: KIFKEQ_clean_linker_1, # of connection points: 2
#     Edge 90, Type (0, 0), BuildingBlock: KIFKEQ_clean_linker_1, # of connection points: 2
#     Edge 91, Type (0, 0), BuildingBlock: KIFKEQ_clean_linker_1, # of connection points: 2
#     Edge 92, Type (0, 0), BuildingBlock: KIFKEQ_clean_linker_1, # of connection points: 2
#     Edge 93, Type (0, 0), BuildingBlock: KIFKEQ_clean_linker_1, # of connection points: 2
#     Edge 94, Type (0, 0), BuildingBlock: KIFKEQ_clean_linker_1, # of connection points: 2
#     Edge 95, Type (0, 0), BuildingBlock: KIFKEQ_clean_linker_1, # of connection points: 2
#     Edge 96, Type (0, 0), BuildingBlock: KIFKEQ_clean_linker_1, # of connection points: 2
#     Edge 97, Type (0, 0), BuildingBlock: KIFKEQ_clean_linker_1, # of connection points: 2
#     Edge 98, Type (0, 0), BuildingBlock: KIFKEQ_clean_linker_1, # of connection points: 2
#     Edge 99, Type (0, 0), BuildingBlock: KIFKEQ_clean_linker_1, # of connection points: 2
#     Edge 100, Type (0, 0), BuildingBlock: KIFKEQ_clean_linker_1, # of connection points: 2
#     Edge 101, Type (0, 0), BuildingBlock: KIFKEQ_clean_linker_1, # of connection points: 2
#     Edge 102, Type (0, 0), BuildingBlock: KIFKEQ_clean_linker_1, # of connection points: 2
#     Edge 103, Type (0, 0), BuildingBlock: KIFKEQ_clean_linker_1, # of connection points: 2
#     Edge 104, Type (0, 0), BuildingBlock: KIFKEQ_clean_linker_1, # of connection points: 2
#     Edge 105, Type (0, 0), BuildingBlock: KIFKEQ_clean_linker_1, # of connection points: 2
#     Edge 106, Type (0, 0), BuildingBlock: KIFKEQ_clean_linker_1, # of connection points: 2
#     Edge 107, Type (0, 0), BuildingBlock: KIFKEQ_clean_linker_1, # of connection points: 2
#     Edge 108, Type (0, 0), BuildingBlock: KIFKEQ_clean_linker_1, # of connection points: 2
#     Edge 109, Type (0, 0), BuildingBlock: KIFKEQ_clean_linker_1, # of connection points: 2
#     Edge 110, Type (0, 0), BuildingBlock: KIFKEQ_clean_linker_1, # of connection points: 2
#     Edge 111, Type (0, 0), BuildingBlock: KIFKEQ_clean_linker_1, # of connection points: 2
#     Edge 112, Type (0, 0), BuildingBlock: KIFKEQ_clean_linker_1, # of connection points: 2
#     Edge 113, Type (0, 0), BuildingBlock: KIFKEQ_clean_linker_1, # of connection points: 2
#     Edge 114, Type (0, 0), BuildingBlock: KIFKEQ_clean_linker_1, # of connection points: 2
#     Edge 115, Type (0, 0), BuildingBlock: KIFKEQ_clean_linker_1, # of connection points: 2
#     Edge 116, Type (0, 0), BuildingBlock: KIFKEQ_clean_linker_1, # of connection points: 2
#     Edge 117, Type (0, 0), BuildingBlock: KIFKEQ_clean_linker_1, # of connection points: 2
#     Edge 118, Type (0, 0), BuildingBlock: KIFKEQ_clean_linker_1, # of connection points: 2
#     Edge 119, Type (0, 0), BuildingBlock: KIFKEQ_clean_linker_1, # of connection points: 2
#     Edge 120, Type (0, 0), BuildingBlock: KIFKEQ_clean_linker_1, # of connection points: 2
#     Edge 121, Type (0, 0), BuildingBlock: KIFKEQ_clean_linker_1, # of connection points: 2
#     Edge 122, Type (0, 0), BuildingBlock: KIFKEQ_clean_linker_1, # of connection points: 2
#     Edge 123, Type (0, 0), BuildingBlock: KIFKEQ_clean_linker_1, # of connection points: 2
#     Edge 124, Type (0, 0), BuildingBlock: KIFKEQ_clean_linker_1, # of connection points: 2
#     Edge 125, Type (0, 0), BuildingBlock: KIFKEQ_clean_linker_1, # of connection points: 2
#     Edge 126, Type (0, 0), BuildingBlock: KIFKEQ_clean_linker_1, # of connection points: 2
#     Edge 127, Type (0, 0), BuildingBlock: KIFKEQ_clean_linker_1, # of connection points: 2
#     Edge 128, Type (0, 0), BuildingBlock: KIFKEQ_clean_linker_1, # of connection points: 2
#     Edge 129, Type (0, 0), BuildingBlock: KIFKEQ_clean_linker_1, # of connection points: 2
#     Edge 130, Type (0, 0), BuildingBlock: KIFKEQ_clean_linker_1, # of connection points: 2
#     Edge 131, Type (0, 0), BuildingBlock: KIFKEQ_clean_linker_1, # of connection points: 2
#     Edge 132, Type (0, 0), BuildingBlock: KIFKEQ_clean_linker_1, # of connection points: 2
#     Edge 133, Type (0, 0), BuildingBlock: KIFKEQ_clean_linker_1, # of connection points: 2
#     Edge 134, Type (0, 0), BuildingBlock: KIFKEQ_clean_linker_1, # of connection points: 2
#     Edge 135, Type (0, 0), BuildingBlock: KIFKEQ_clean_linker_1, # of connection points: 2
#     Edge 136, Type (0, 0), BuildingBlock: KIFKEQ_clean_linker_1, # of connection points: 2
#     Edge 137, Type (0, 0), BuildingBlock: KIFKEQ_clean_linker_1, # of connection points: 2
#     Edge 138, Type (0, 0), BuildingBlock: KIFKEQ_clean_linker_1, # of connection points: 2
#     Edge 139, Type (0, 0), BuildingBlock: KIFKEQ_clean_linker_1, # of connection points: 2
#     Edge 140, Type (0, 0), BuildingBlock: KIFKEQ_clean_linker_1, # of connection points: 2
#     Edge 141, Type (0, 0), BuildingBlock: KIFKEQ_clean_linker_1, # of connection points: 2
#     Edge 142, Type (0, 0), BuildingBlock: KIFKEQ_clean_linker_1, # of connection points: 2
#     Edge 143, Type (0, 0), BuildingBlock: KIFKEQ_clean_linker_1, # of connection points: 2
#     Edge 144, Type (0, 0), BuildingBlock: KIFKEQ_clean_linker_1, # of connection points: 2
#     Edge 145, Type (0, 0), BuildingBlock: KIFKEQ_clean_linker_1, # of connection points: 2
#     Edge 146, Type (0, 0), BuildingBlock: KIFKEQ_clean_linker_1, # of connection points: 2
#     Edge 147, Type (0, 0), BuildingBlock: KIFKEQ_clean_linker_1, # of connection points: 2
#     Edge 148, Type (0, 0), BuildingBlock: KIFKEQ_clean_linker_1, # of connection points: 2
#     Edge 149, Type (0, 0), BuildingBlock: KIFKEQ_clean_linker_1, # of connection points: 2
#     Edge 150, Type (0, 0), BuildingBlock: KIFKEQ_clean_linker_1, # of connection points: 2
#     Edge 151, Type (0, 0), BuildingBlock: KIFKEQ_clean_linker_1, # of connection points: 2
#     Edge 152, Type (0, 0), BuildingBlock: KIFKEQ_clean_linker_1, # of connection points: 2
#     Edge 153, Type (0, 0), BuildingBlock: KIFKEQ_clean_linker_1, # of connection points: 2
#     Edge 154, Type (0, 0), BuildingBlock: KIFKEQ_clean_linker_1, # of connection points: 2
#     Edge 155, Type (0, 0), BuildingBlock: KIFKEQ_clean_linker_1, # of connection points: 2
#     Edge 156, Type (0, 0), BuildingBlock: KIFKEQ_clean_linker_1, # of connection points: 2
#     Edge 157, Type (0, 0), BuildingBlock: KIFKEQ_clean_linker_1, # of connection points: 2
#     Edge 158, Type (0, 0), BuildingBlock: KIFKEQ_clean_linker_1, # of connection points: 2
#     Edge 159, Type (0, 0), BuildingBlock: KIFKEQ_clean_linker_1, # of connection points: 2
#     Edge 160, Type (0, 0), BuildingBlock: KIFKEQ_clean_linker_1, # of connection points: 2
#     Edge 161, Type (0, 0), BuildingBlock: KIFKEQ_clean_linker_1, # of connection points: 2
#     Edge 162, Type (0, 0), BuildingBlock: KIFKEQ_clean_linker_1, # of connection points: 2
#     Edge 163, Type (0, 0), BuildingBlock: KIFKEQ_clean_linker_1, # of connection points: 2
#     Edge 164, Type (0, 0), BuildingBlock: KIFKEQ_clean_linker_1, # of connection points: 2
#     Edge 165, Type (0, 0), BuildingBlock: KIFKEQ_clean_linker_1, # of connection points: 2
#     Edge 166, Type (0, 0), BuildingBlock: KIFKEQ_clean_linker_1, # of connection points: 2
#     Edge 167, Type (0, 0), BuildingBlock: KIFKEQ_clean_linker_1, # of connection points: 2
#     Edge 168, Type (0, 0), BuildingBlock: KIFKEQ_clean_linker_1, # of connection points: 2
#     Edge 169, Type (0, 0), BuildingBlock: KIFKEQ_clean_linker_1, # of connection points: 2
#     Edge 170, Type (0, 0), BuildingBlock: KIFKEQ_clean_linker_1, # of connection points: 2
#     Edge 171, Type (0, 0), BuildingBlock: KIFKEQ_clean_linker_1, # of connection points: 2
#     Edge 172, Type (0, 0), BuildingBlock: KIFKEQ_clean_linker_1, # of connection points: 2
#     Edge 173, Type (0, 0), BuildingBlock: KIFKEQ_clean_linker_1, # of connection points: 2
#     Edge 174, Type (0, 0), BuildingBlock: KIFKEQ_clean_linker_1, # of connection points: 2
#     Edge 175, Type (0, 0), BuildingBlock: KIFKEQ_clean_linker_1, # of connection points: 2
#     Edge 176, Type (0, 0), BuildingBlock: KIFKEQ_clean_linker_1, # of connection points: 2
#     Edge 177, Type (0, 0), BuildingBlock: KIFKEQ_clean_linker_1, # of connection points: 2
#     Edge 178, Type (0, 0), BuildingBlock: KIFKEQ_clean_linker_1, # of connection points: 2
#     Edge 179, Type (0, 0), BuildingBlock: KIFKEQ_clean_linker_1, # of connection points: 2
#     Edge 180, Type (0, 0), BuildingBlock: KIFKEQ_clean_linker_1, # of connection points: 2
#     Edge 181, Type (0, 0), BuildingBlock: KIFKEQ_clean_linker_1, # of connection points: 2
#     Edge 182, Type (0, 0), BuildingBlock: KIFKEQ_clean_linker_1, # of connection points: 2
#     Edge 183, Type (0, 0), BuildingBlock: KIFKEQ_clean_linker_1, # of connection points: 2
#     Edge 184, Type (0, 0), BuildingBlock: KIFKEQ_clean_linker_1, # of connection points: 2
#     Edge 185, Type (0, 0), BuildingBlock: KIFKEQ_clean_linker_1, # of connection points: 2
#     Edge 186, Type (0, 0), BuildingBlock: KIFKEQ_clean_linker_1, # of connection points: 2
#     Edge 187, Type (0, 0), BuildingBlock: KIFKEQ_clean_linker_1, # of connection points: 2
#     Edge 188, Type (0, 0), BuildingBlock: KIFKEQ_clean_linker_1, # of connection points: 2
#     Edge 189, Type (0, 0), BuildingBlock: KIFKEQ_clean_linker_1, # of connection points: 2
#     Edge 190, Type (0, 0), BuildingBlock: KIFKEQ_clean_linker_1, # of connection points: 2
#     Edge 191, Type (0, 0), BuildingBlock: KIFKEQ_clean_linker_1, # of connection points: 2
# Relax obj value: 0.532
# Max RMSD: 0.261
# Mean RMSD: 0.251
data_MOF--net-twf-e--node1-CUKXOW_clean_sbu_0--edge1-KIFKEQ_clean_linker_1
_symmetry_space_group_name_H-M    P1
_symmetry_Int_Tables_number       1
_symmetry_cell_setting            triclinic
loop_
_symmetry_equiv_pos_as_xyz
'x, y, z'
_cell_length_a     59.713467
_cell_length_b     59.718467
_cell_length_c     59.620543
_cell_angle_alpha  90.531907
_cell_angle_beta   88.823423
_cell_angle_gamma 89.750338
loop_
_atom_site_label
_atom_site_type_symbol
_atom_site_fract_x
_atom_site_fract_y
_atom_site_fract_z
_atom_type_partial_charge
Tb0 Tb 0.08488 0.2099 0.41714 0.0
C1 C 0.06562 0.22346 0.36953 0.0
Tb2 Tb 0.04139 0.19758 0.40847 0.0
O3 O 0.0927 0.17487 0.42296 0.0
O4 O 0.07191 0.18317 0.39703 0.0
O5 O 0.08147 0.22683 0.38446 0.0
C6 C 1.00643 0.17134 0.40122 0.0
O7 O 0.04886 0.20965 0.37432 0.0
C8 C 0.04301 0.24039 0.41746 0.0
C9 C 0.05712 0.19797 0.46022 0.0
O10 O 0.027 0.16468 0.40238 0.0
O11 O 1.00537 0.19278 0.40458 0.0
O12 O 0.03052 0.2312 0.40242 0.0
O13 O 0.05397 0.22529 0.42731 0.0
O14 O 0.04253 0.18996 0.44541 0.0
O15 O 0.07443 0.20986 0.45271 0.0
C16 C 0.12727 0.22349 0.41803 0.0
O17 O 0.11934 0.20617 0.42814 0.0
O18 O 0.11103 0.23411 0.40871 0.0
C19 C 0.08089 0.16705 0.40695 0.0
Tb20 Tb 0.85413 0.03023 0.38593 0.0
C21 C 0.85149 0.01494 0.43687 0.0
Tb22 Tb 0.83366 0.98883 0.39404 0.0
O23 O 0.82413 0.04742 0.37676 0.0
O24 O 0.8225 0.02211 0.40124 0.0
O25 O 0.86063 0.02929 0.42246 0.0
C26 C 0.82051 0.94998 0.4107 0.0
O27 O 0.83873 0.99849 0.42936 0.0
C28 C 0.87229 0.98496 0.37162 0.0
C29 C 0.82316 1.00936 0.34791 0.0
O30 O 0.84034 0.95828 0.41207 0.0
O31 O 0.80766 0.96367 0.39993 0.0
O32 O 0.85404 0.97474 0.36674 0.0
O33 O 0.86816 0.99764 0.38828 0.0
O34 O 0.81508 0.9961 0.36382 0.0
O35 O 0.84145 0.02161 0.35177 0.0
C36 C 0.88245 0.06371 0.37956 0.0
O37 O 0.88376 0.04445 0.36932 0.0
O38 O 0.86541 0.06395 0.39333 0.0
C39 C 0.81118 0.03528 0.38929 0.0
Tb40 Tb 1.00174 0.83396 0.38487 0.0
C41 C 0.02514 0.82317 0.33921 0.0
Tb42 Tb 0.04291 0.85878 0.37711 0.0
O43 O 0.98522 0.85478 0.36044 0.0
O44 O 1.00891 0.8688 0.38137 0.0
O45 O 1.00979 0.81632 0.35389 0.0
C46 C 0.07368 0.88848 0.36379 0.0
O47 O 0.03833 0.84079 0.34387 0.0
C48 C 0.04994 0.82156 0.39696 0.0
C49 C 0.0245 0.85694 0.42769 0.0
O50 O 0.05432 0.8934 0.37283 0.0
O51 O 0.07537 0.86694 0.36174 0.0
O52 O 0.06274 0.83891 0.39921 0.0
O53 O 0.03579 0.82474 0.38196 0.0
O54 O 0.03962 0.8662 0.41385 0.0
O55 O 1.0086 0.84389 0.41969 0.0
C56 C 0.96908 0.8103 0.40433 0.0
O57 O 0.96672 0.82931 0.39439 0.0
O58 O 0.98961 0.80382 0.40107 0.0
C59 C 0.99557 0.87306 0.36574 0.0
Tb60 Tb 0.2508 1.00032 0.38127 0.0
C61 C 0.24581 1.01045 0.32979 0.0
Tb62 Tb 0.20853 0.02269 0.36714 0.0
O63 O 0.23141 0.9702 0.3897 0.0
O64 O 0.22207 0.99059 0.36323 0.0
O65 O 0.25966 1.00615 0.34628 0.0
C66 C 0.16688 0.03757 0.35948 0.0
O67 O 0.22394 0.01437 0.33368 0.0
C68 C 0.24158 0.05027 0.37482 0.0
C69 C 0.21767 1.01385 0.42073 0.0
O70 O 0.18532 0.04582 0.35147 0.0
O71 O 0.17182 0.0202 0.37144 0.0
O72 O 0.22642 0.05342 0.36 0.0
O73 O 0.23664 0.03266 0.38516 0.0
O74 O 0.20268 0.01879 0.40486 0.0
O75 O 0.23846 1.00813 0.41497 0.0
C76 C 0.29269 0.99274 0.39477 0.0
O77 O 0.28398 1.01205 0.39012 0.0
O78 O 0.27811 0.97764 0.38909 0.0
C79 C 0.21651 0.9739 0.37458 0.0
Tb80 Tb 0.03963 0.80142 0.63375 0.0
C81 C 0.03827 0.80547 0.6871 0.0
Tb82 Tb 0.02718 0.84656 0.65422 0.0
O83 O 0.07324 0.81357 0.62396 0.0
O84 O 0.05623 0.8269 0.65201 0.0
O85 O 0.03867 0.79215 0.66914 0.0
C86 C 0.02179 0.88924 0.66788 0.0
O87 O 0.03669 0.82781 0.68511 0.0
C88 C 0.99356 0.81982 0.64664 0.0
C89 C 0.03117 0.84016 0.59948 0.0
O90 O 0.01311 0.8718 0.67729 0.0
O91 O 0.03415 0.8826 0.65088 0.0
O92 O 0.99317 0.83485 0.66234 0.0
O93 O 1.01102 0.82222 0.63498 0.0
O94 O 0.03097 0.85452 0.61708 0.0
O95 O 0.03179 0.81823 0.60261 0.0
C96 C 0.02993 0.75947 0.62092 0.0
O97 O 0.04897 0.76969 0.61732 0.0
O98 O 0.0171 0.77286 0.63266 0.0
C99 C 0.07311 0.82932 0.63931 0.0
Tb100 Tb 0.20741 0.05153 0.63905 0.0
C101 C 0.21876 0.02945 0.68662 0.0
Tb102 Tb 0.19751 1.00402 0.64486 0.0
O103 O 0.17275 0.05636 0.63021 0.0
O104 O 0.18039 0.0339 0.65514 0.0
O105 O 0.21945 0.04739 0.67354 0.0
C106 C 0.17336 0.96606 0.6466 0.0
O107 O 0.20858 1.01065 0.67987 0.0
C108 C 0.23971 1.01296 0.64265 0.0
C109 C 0.20192 0.02442 0.59425 0.0
O110 O 0.19409 0.96759 0.63972 0.0
O111 O 0.16642 0.98584 0.6528 0.0
O112 O 0.23162 0.99577 0.65338 0.0
O113 O 0.22479 0.02199 0.6311 0.0
O114 O 0.19317 1.00842 0.60746 0.0
O115 O 0.21162 0.0421 0.60358 0.0
C116 C 0.22082 0.09399 0.63918 0.0
O117 O 0.20137 0.08708 0.63315 0.0
O118 O 0.233 0.07694 0.64457 0.0
C119 C 0.16443 0.04245 0.6445 0.0
Tb120 Tb 0.0161 0.23285 0.67181 0.0
C121 C 0.02648 0.22762 0.72307 0.0
Tb122 Tb 0.03901 0.19063 0.68558 0.0
O123 O 0.98694 0.21402 0.6615 0.0
O124 O 1.00592 0.20287 0.68851 0.0
O125 O 0.02181 0.24132 0.70658 0.0
C126 C 0.05109 0.1478 0.69183 0.0
O127 O 0.03128 0.20593 0.71929 0.0
C128 C 0.06651 0.22387 0.6776 0.0
C129 C 0.03156 0.20149 0.63188 0.0
O130 O 0.06102 0.1653 0.69978 0.0
O131 O 0.03381 0.15439 0.6807 0.0
O132 O 0.07044 0.20799 0.69168 0.0
O133 O 0.04854 0.21919 0.66808 0.0
O134 O 0.03795 0.18674 0.64757 0.0
O135 O 0.02368 0.22154 0.63771 0.0
C136 C 1.00634 0.27535 0.66219 0.0
O137 O 0.99215 0.2602 0.66876 0.0
O138 O 0.02613 0.2664 0.66198 0.0
C139 C 0.98998 0.19803 0.67573 0.0
Tb140 Tb 0.86822 0.02927 0.66105 0.0
C141 C 0.862 0.03787 0.60822 0.0
Tb142 Tb 0.83841 0.06537 0.6481 0.0
O143 O 0.84166 1.00723 0.67175 0.0
O144 O 0.83692 0.02983 0.64546 0.0
O145 O 0.8735 0.0268 0.62366 0.0
C146 C 0.81578 0.0947 0.62391 0.0
O147 O 0.84704 0.05316 0.61436 0.0
C148 C 0.875 0.07841 0.6685 0.0
C149 C 0.83041 0.04883 0.69621 0.0
O150 O 0.83679 0.09576 0.6286 0.0
O151 O 0.80718 0.07787 0.63473 0.0
O152 O 0.85532 0.08704 0.67202 0.0
O153 O 0.87357 0.0633 0.65371 0.0
O154 O 0.82072 0.05855 0.67909 0.0
O155 O 0.85075 0.03903 0.69386 0.0
C156 C 0.90474 1.00462 0.66835 0.0
O157 O 0.9002 0.02375 0.67808 0.0
O158 O 0.88855 0.99936 0.6552 0.0
C159 C 0.82734 0.01563 0.658 0.0
Tb160 Tb 0.41202 1.01283 0.22136 0.0
C161 C 0.36216 1.01343 0.2099 0.0
Tb162 Tb 0.40138 1.00547 0.1717 0.0
O163 O 0.40361 0.04911 0.21951 0.0
O164 O 0.41459 0.031 0.19154 0.0
O165 O 0.37654 1.00845 0.22564 0.0
C166 C 0.38535 1.00296 0.13013 0.0
O167 O 0.36858 0.01604 0.18829 0.0
C168 C 0.40851 0.9698 0.19519 0.0
C169 C 0.45295 1.00936 0.18536 0.0
O170 O 0.37979 0.9903 0.14682 0.0
O171 O 0.40004 0.01742 0.13686 0.0
O172 O 0.41487 0.97128 0.17433 0.0
O173 O 0.39842 0.98729 0.20128 0.0
O174 O 0.43851 1.00968 0.1684 0.0
O175 O 0.4459 1.00933 0.20668 0.0
C176 C 0.42969 1.00023 0.26021 0.0
O177 O 0.41871 0.01881 0.25677 0.0
O178 O 0.43011 0.98887 0.24161 0.0
C179 C 0.40652 0.04944 0.19775 0.0
Tb180 Tb 0.03814 0.39044 0.2439 0.0
C181 C 0.05578 0.34177 0.24697 0.0
Tb182 Tb 0.06749 0.37579 0.20555 0.0
O183 O 1.00949 0.37273 0.22984 0.0
O184 O 0.03364 0.38592 0.20873 0.0
O185 O 0.0485 0.35933 0.25871 0.0
C186 C 0.08465 0.35945 0.16679 0.0
O187 O 0.06203 0.34375 0.22519 0.0
C188 C 0.08896 0.3954 0.23722 0.0
C189 C 0.05291 0.42802 0.20933 0.0
O190 O 0.09485 0.36029 0.18577 0.0
O191 O 0.06446 0.36708 0.1699 0.0
O192 O 0.09546 0.39585 0.21632 0.0
O193 O 0.07246 0.3825 0.23973 0.0
O194 O 0.06289 0.41207 0.19659 0.0
O195 O 0.04284 0.42312 0.22858 0.0
C196 C 0.01922 0.41411 0.27738 0.0
O197 O 1.01227 0.39499 0.26975 0.0
O198 O 0.038 0.41862 0.26719 0.0
C199 C 0.01613 0.37429 0.20909 0.0
Tb200 Tb 0.66361 1.00753 0.21596 0.0
C201 C 0.70791 0.02976 0.22598 0.0
Tb202 Tb 0.67224 0.04544 0.18812 0.0
O203 O 0.69027 0.9897 0.19778 0.0
O204 O 0.66943 1.01093 0.18055 0.0
O205 O 0.69169 0.0179 0.23512 0.0
C206 C 0.6872 0.07298 0.15572 0.0
O207 O 0.70495 0.04014 0.2063 0.0
C208 C 0.64728 0.0564 0.2226 0.0
C209 C 0.62334 0.02382 0.18666 0.0
O210 O 0.68521 0.07798 0.17689 0.0
O211 O 0.68125 0.05231 0.15292 0.0
O212 O 0.6468 0.06644 0.20345 0.0
O213 O 0.66354 0.04258 0.22291 0.0
O214 O 0.63746 0.03813 0.17672 0.0
O215 O 0.63011 1.01096 0.20306 0.0
C216 C 0.64704 0.97408 0.24002 0.0
O217 O 0.66167 0.97218 0.22389 0.0
O218 O 0.64251 0.99511 0.24329 0.0
C219 C 0.68565 0.99743 0.17822 0.0
Tb220 Tb 0.05196 0.63578 0.2404 0.0
C221 C 0.04316 0.68718 0.23662 0.0
Tb222 Tb 0.03226 0.65194 0.19682 0.0
O223 O 0.08509 0.65062 0.23165 0.0
O224 O 0.06353 0.6404 0.2069 0.0
O225 O 0.04513 0.67015 0.2505 0.0
C226 C 0.02109 0.66204 0.15503 0.0
O227 O 0.04114 0.68399 0.21442 0.0
C228 C 1.00267 0.64905 0.22995 0.0
C229 C 0.04152 0.59879 0.20365 0.0
O230 O 0.03579 0.67281 0.16671 0.0
O231 O 1.01301 0.64571 0.16679 0.0
O232 O 1.00109 0.66271 0.21335 0.0
O233 O 0.01946 0.63654 0.22604 0.0
O234 O 0.03657 0.61513 0.18919 0.0
O235 O 0.04681 0.60326 0.22463 0.0
C236 C 0.05201 0.61159 0.27817 0.0
O237 O 0.06756 0.61163 0.26253 0.0
O238 O 0.0383 0.62768 0.27354 0.0
C239 C 0.08153 0.65061 0.21011 0.0
Tb240 Tb 0.39827 0.03407 0.79675 0.0
C241 C 0.34615 0.03608 0.80005 0.0
Tb242 Tb 0.37855 0.04645 0.8431 0.0
O243 O 0.39081 0.99816 0.80125 0.0
O244 O 0.39563 0.01906 0.82871 0.0
O245 O 0.36396 0.03805 0.78652 0.0
C246 C 0.36205 0.05289 0.88506 0.0
O247 O 0.34816 0.03598 0.82271 0.0
C248 C 0.38898 0.0801 0.81797 0.0
C249 C 0.43289 0.04405 0.83557 0.0
O250 O 0.35691 0.06431 0.86749 0.0
O251 O 0.37536 0.03667 0.87858 0.0
O252 O 0.39005 0.0808 0.8396 0.0
O253 O 0.38116 0.06166 0.8117 0.0
O254 O 0.41563 0.04641 0.85029 0.0
O255 O 0.42957 0.03949 0.81419 0.0
C256 C 0.42555 0.04109 0.76121 0.0
O257 O 0.41314 0.0234 0.76457 0.0
O258 O 0.42055 0.0553 0.77711 0.0
C259 C 0.389 0.99995 0.82303 0.0
Tb260 Tb 0.04928 0.40219 0.82546 0.0
C261 C 0.03388 0.35257 0.83464 0.0
Tb262 Tb 0.02751 0.39363 0.86931 0.0
O263 O 0.07925 0.41466 0.84187 0.0
O264 O 0.06043 0.38929 0.85678 0.0
O265 O 0.04121 0.36731 0.82006 0.0
C266 C 0.01429 0.38001 0.90994 0.0
O267 O 0.02796 0.35863 0.85554 0.0
C268 C 1.00044 0.41169 0.84117 0.0
C269 C 0.03897 0.44445 0.85425 0.0
O270 O 1.00582 0.37385 0.89106 0.0
O271 O 0.03047 0.39408 0.90607 0.0
O272 O 0.99876 0.41434 0.86268 0.0
O273 O 0.01542 0.39732 0.83628 0.0
O274 O 0.03644 0.43019 0.87146 0.0
O275 O 0.04152 0.43698 0.83331 0.0
C276 C 0.06329 0.39477 0.7837 0.0
O277 O 0.04784 0.40939 0.78932 0.0
O278 O 0.07186 0.38635 0.80147 0.0
C279 C 0.07681 0.40224 0.85946 0.0
Tb280 Tb 0.64261 0.06219 0.79844 0.0
C281 C 0.69448 0.04938 0.80151 0.0
Tb282 Tb 0.65741 0.0368 0.83945 0.0
O283 O 0.636 0.09263 0.81883 0.0
O284 O 0.66059 0.06978 0.82797 0.0
O285 O 0.67806 0.05822 0.78968 0.0
C286 C 0.66281 0.01739 0.8793 0.0
O287 O 0.6908 0.04101 0.82211 0.0
C288 C 0.6497 1.0122 0.80416 0.0
C289 C 0.6047 0.04898 0.83256 0.0
O290 O 0.64743 1.01301 0.86502 0.0
O291 O 0.67548 0.03329 0.87135 0.0
O292 O 0.66444 1.00704 0.81893 0.0
O293 O 0.63942 0.02947 0.8108 0.0
O294 O 0.6211 0.04614 0.84747 0.0
O295 O 0.60979 0.05234 0.81119 0.0
C296 C 0.62984 0.06623 0.75568 0.0
O297 O 0.62815 0.08163 0.77133 0.0
O298 O 0.64059 0.04949 0.76411 0.0
C299 C 0.64997 0.08696 0.83434 0.0
Tb300 Tb 0.01699 0.65549 0.82289 0.0
C301 C 0.03907 0.7024 0.82114 0.0
Tb302 Tb 0.04579 0.6682 0.86036 0.0
O303 O 0.98925 0.64909 0.84581 0.0
O304 O 1.01172 0.67493 0.85328 0.0
O305 O 0.03407 0.68452 0.80934 0.0
C306 C 0.06333 0.67761 0.90049 0.0
O307 O 0.04105 0.70104 0.84335 0.0
C308 C 0.06874 0.65382 0.82474 0.0
C309 C 0.0304 0.61555 0.85318 0.0
O310 O 0.07068 0.68461 0.88125 0.0
O311 O 0.04572 0.66538 0.89726 0.0
O312 O 0.07658 0.66751 0.83963 0.0
O313 O 0.0499 0.64785 0.83189 0.0
O314 O 0.03995 0.63116 0.86639 0.0
O315 O 0.0214 0.62106 0.83377 0.0
C316 C 0.99601 0.65538 0.78417 0.0
O317 O 0.99281 0.66966 0.80038 0.0
O318 O 1.01048 0.64033 0.79017 0.0
C319 C 0.995 0.66392 0.86053 0.0
Tb320 Tb 0.24123 0.3979 0.05637 0.0
C321 C 0.24916 0.35031 0.03343 0.0
Tb322 Tb 0.22501 0.39226 1.01171 0.0
O323 O 0.20782 0.41048 0.0651 0.0
O324 O 0.21146 0.38369 0.04331 0.0
O325 O 0.25551 0.36468 0.04914 0.0
C326 C 0.19497 0.39075 0.9787 0.0
O327 O 0.2346 0.35664 0.01787 0.0
C328 C 0.26819 0.39128 1.01208 0.0
C329 C 0.2313 0.44289 0.0324 0.0
O330 O 0.21591 0.39622 0.97629 0.0
O331 O 0.19112 0.3859 0.99956 0.0
O332 O 0.25611 0.38092 0.99733 0.0
O333 O 0.2561 0.40429 0.02428 0.0
O334 O 0.22228 0.42976 0.0166 0.0
O335 O 0.24185 0.43376 0.04944 0.0
C336 C 0.25364 0.39515 0.09896 0.0
O337 O 0.23726 0.38458 0.08997 0.0
O338 O 0.26366 0.40696 0.08354 0.0
C339 C 0.19718 0.39576 0.05354 0.0
Tb340 Tb 0.23017 0.66032 0.99477 0.0
C341 C 0.2398 0.70908 1.0131 0.0
Tb342 Tb 0.21785 0.66889 0.04027 0.0
O343 O 0.1972 0.64565 0.99194 0.0
O344 O 0.20076 0.67505 1.01021 0.0
O345 O 0.2451 0.69353 0.99791 0.0
C346 C 0.19052 0.66954 0.07723 0.0
O347 O 0.2259 0.70411 0.03031 0.0
C348 C 0.2615 0.66719 0.0349 0.0
C349 C 0.22537 0.61674 0.0226 0.0
O350 O 0.21189 0.67364 0.07694 0.0
O351 O 0.1847 0.66554 0.05677 0.0
O352 O 0.2507 0.67997 0.04934 0.0
O353 O 0.24735 0.65488 0.02514 0.0
O354 O 0.2178 0.63071 0.03896 0.0
O355 O 0.23332 0.62516 1.00358 0.0
C356 C 0.2383 0.65793 0.95054 0.0
O357 O 0.25093 0.64968 0.96596 0.0
O358 O 0.22183 0.66838 0.96039 0.0
C359 C 0.18663 0.66117 1.00301 0.0
Tb360 Tb 0.40451 0.20151 0.99538 0.0
C361 C 0.36044 0.21904 0.02042 0.0
Tb362 Tb 0.40024 0.19142 0.04106 0.0
O363 O 0.41624 0.1673 0.99118 0.0
O364 O 0.38904 0.17406 1.01224 0.0
O365 O 0.3744 0.2215 1.00313 0.0
C366 C 0.39698 0.16587 0.07782 0.0
O367 O 0.36585 0.20531 0.03703 0.0
C368 C 0.40604 0.2342 0.03639 0.0
C369 C 0.45043 0.19311 0.0172 0.0
O370 O 0.40539 0.18585 0.07715 0.0
O371 O 0.39063 0.16039 0.0579 0.0
O372 O 0.39367 0.22512 0.05204 0.0
O373 O 0.4155 0.21898 0.02456 0.0
O374 O 0.43757 0.18635 0.03468 0.0
O375 O 0.44081 0.20172 0.99927 0.0
C376 C 0.39472 0.20633 0.95249 0.0
O377 O 0.40862 0.21898 0.96339 0.0
O378 O 0.38709 0.19093 0.96543 0.0
C379 C 0.40046 0.15837 1.00315 0.0
Tb380 Tb 0.845 0.40886 0.01553 0.0
C381 C 0.83588 0.36189 0.03705 0.0
Tb382 Tb 0.86999 0.39779 0.05657 0.0
O383 O 0.87592 0.41148 0.99621 0.0
O384 O 0.87364 0.38857 0.02253 0.0
O385 O 0.82752 0.3789 0.0261 0.0
C386 C 0.90266 0.38948 0.08589 0.0
O387 O 0.85488 0.36431 0.0484 0.0
C388 C 0.82927 0.41166 0.06509 0.0
C389 C 0.87014 0.44939 0.036 0.0
O390 O 0.88177 0.38412 0.08834 0.0
O391 O 0.90527 0.39956 0.06681 0.0
O392 O 0.84021 0.39846 0.07814 0.0
O393 O 0.84235 0.41812 0.04975 0.0
O394 O 0.87826 0.43469 0.05099 0.0
O395 O 0.85542 0.44311 0.02083 0.0
C396 C 0.81389 0.40905 0.98455 0.0
O397 O 0.83234 0.39763 0.9834 0.0
O398 O 0.81355 0.42147 1.00255 0.0
C399 C 0.88685 0.39752 1.00847 0.0
Tb400 Tb 0.67045 0.85965 0.01756 0.0
C401 C 0.61802 0.85705 0.03207 0.0
Tb402 Tb 0.65894 0.83669 0.06026 0.0
O403 O 0.67455 0.82796 0.99921 0.0
O404 O 0.6528 0.83095 0.02636 0.0
O405 O 0.63327 0.86586 0.01789 0.0
C406 C 0.64041 0.81709 0.09582 0.0
O407 O 0.62458 0.84474 0.04934 0.0
C408 C 0.6816 0.8745 0.06481 0.0
C409 C 0.70534 0.82419 0.03723 0.0
O410 O 0.63949 0.8383 0.09153 0.0
O411 O 0.65198 0.80681 0.08011 0.0
O412 O 0.68464 0.85664 0.07646 0.0
O413 O 0.66596 0.87059 0.05146 0.0
O414 O 0.68865 0.81712 0.05043 0.0
O415 O 0.70316 0.84305 0.02534 0.0
C416 C 0.67884 0.89211 0.98794 0.0
O417 O 0.68657 0.89139 1.00815 0.0
O418 O 0.66683 0.87441 0.98443 0.0
C419 C 0.66068 0.81709 1.01228 0.0
Tb420 Tb 0.87128 0.67373 0.02762 0.0
C421 C 0.86879 0.62027 0.01917 0.0
Tb422 Tb 0.83652 0.65495 0.99463 0.0
O423 O 0.8536 0.66862 0.05967 0.0
O424 O 0.83953 0.6609 0.02898 0.0
O425 O 0.87749 0.63681 0.03166 0.0
C426 C 0.80945 0.62519 0.97621 0.0
O427 O 0.85471 0.62452 1.00282 0.0
C428 C 0.87222 0.67432 0.97636 0.0
C429 C 0.82788 0.70329 1.01329 0.0
O430 O 0.81804 0.64223 0.96576 0.0
O431 O 0.81496 0.62597 0.99704 0.0
O432 O 0.85251 0.67424 0.96751 0.0
O433 O 0.87115 0.66259 0.99378 0.0
O434 O 0.81839 0.68465 1.00571 0.0
O435 O 0.8498 0.70371 0.01868 0.0
C436 C 0.91109 0.68891 0.04084 0.0
O437 O 0.89177 0.69483 0.04943 0.0
O438 O 0.90782 0.67492 0.02451 0.0
C439 C 0.83576 0.66123 0.04983 0.0
Tb440 Tb 0.39861 0.85037 0.03241 0.0
C441 C 0.35339 0.83814 1.00801 0.0
Tb442 Tb 0.39653 0.86116 0.98509 0.0
O443 O 0.41183 0.88365 0.03733 0.0
O444 O 0.38634 0.87853 1.01451 0.0
O445 O 0.36595 0.83583 0.02582 0.0
C446 C 0.3954 0.88781 0.94896 0.0
O447 O 0.36085 0.84992 0.99031 0.0
C448 C 0.39683 0.81862 0.99153 0.0
C449 C 0.44543 0.85669 1.00991 0.0
O450 O 0.4023 0.86711 0.94887 0.0
O451 O 0.38928 0.89329 0.96926 0.0
O452 O 0.38762 0.82799 0.97432 0.0
O453 O 0.40796 0.83279 1.00257 0.0
O454 O 0.43389 0.86419 0.99218 0.0
O455 O 0.43461 0.84774 0.0273 0.0
C456 C 0.39064 0.84164 0.07529 0.0
O457 O 0.38669 0.86048 0.06573 0.0
O458 O 0.39984 0.82769 0.06094 0.0
C459 C 0.39885 0.89314 0.02316 0.0
Tb460 Tb 0.66193 0.2414 0.04199 0.0
C461 C 0.7117 0.24584 0.02377 0.0
Tb462 Tb 0.67467 0.21264 1.003 0.0
O463 O 0.65791 0.21291 0.06373 0.0
O464 O 0.6823 0.21177 0.03768 0.0
O465 O 0.69532 0.25457 0.03627 0.0
C466 C 0.68006 0.17858 0.97346 0.0
O467 O 0.70824 0.22774 1.0107 0.0
C468 C 0.65819 0.25195 0.99202 0.0
C469 C 0.62253 0.21263 0.02296 0.0
O470 O 0.68809 0.19859 0.97126 0.0
O471 O 0.66989 0.17746 0.99286 0.0
O472 O 0.67277 0.24096 0.97981 0.0
O473 O 0.65316 0.23969 1.00822 0.0
O474 O 0.63818 0.20296 1.00934 0.0
O475 O 0.62804 0.22948 0.03633 0.0
C476 C 0.64821 0.27701 0.06594 0.0
O477 O 0.65096 0.27607 0.04432 0.0
O478 O 0.65565 0.25826 0.07394 0.0
C479 C 0.6723 0.20047 0.05272 0.0
Tb480 Tb 0.52508 0.73612 0.9087 0.0
C481 C 0.5104 0.73385 0.85915 0.0
Tb482 Tb 0.50401 0.69407 0.89437 0.0
O483 O 0.55668 0.71865 0.91444 0.0
O484 O 0.53593 0.70775 0.88889 0.0
O485 O 0.51295 0.74716 0.87663 0.0
C486 C 0.49145 0.65218 0.88419 0.0
O487 O 0.50979 0.71157 0.86159 0.0
C488 C 0.47458 0.72438 0.90798 0.0
C489 C 0.51653 0.70222 0.94755 0.0
O490 O 0.48466 0.67028 0.87469 0.0
O491 O 0.50603 0.65759 0.89915 0.0
O492 O 0.47104 0.70968 0.89245 0.0
O493 O 0.4938 0.72069 0.91519 0.0
O494 O 0.50993 0.68765 0.93155 0.0
O495 O 0.52202 0.72293 0.9422 0.0
C496 C 0.53612 0.77714 0.92229 0.0
O497 O 0.54695 0.76507 0.9074 0.0
O498 O 0.51827 0.76632 0.92835 0.0
C499 C 0.55341 0.70326 0.89943 0.0
Tb500 Tb 0.32616 0.52272 0.89735 0.0
C501 C 0.31104 0.5123 0.94926 0.0
Tb502 Tb 0.29885 0.48669 0.90643 0.0
O503 O 0.302 0.54464 0.8833 0.0
O504 O 0.29178 0.52197 0.90872 0.0
O505 O 0.3266 0.5211 0.93537 0.0
C506 C 0.28121 0.44554 0.90498 0.0
O507 O 0.29515 0.49958 0.94068 0.0
C508 C 0.34217 0.47752 0.90953 0.0
C509 C 0.29609 0.50462 0.85739 0.0
O510 O 0.27649 0.46105 0.9199 0.0
O511 O 0.29284 0.45511 0.8893 0.0
O512 O 0.32701 0.4724 0.92414 0.0
O513 O 0.33294 0.48822 0.8941 0.0
O514 O 0.28547 0.49358 0.87345 0.0
O515 O 0.31481 0.51583 0.86218 0.0
C516 C 0.36366 0.54696 0.89296 0.0
O517 O 0.3463 0.55238 0.9053 0.0
O518 O 0.35979 0.52812 0.88291 0.0
C519 C 0.28518 0.53597 0.89426 0.0
Tb520 Tb 0.48209 0.31776 0.90491 0.0
C521 C 0.50775 0.32179 0.85866 0.0
Tb522 Tb 0.50746 0.35824 0.89888 0.0
O523 O 0.45298 0.33705 0.91611 0.0
O524 O 0.47428 0.35008 0.89129 0.0
O525 O 0.4962 0.30898 0.87229 0.0
C526 C 0.52474 0.39673 0.88447 0.0
O527 O 0.51373 0.34237 0.86499 0.0
C528 C 0.53014 0.32914 0.9205 0.0
C529 C 0.48987 0.3443 0.94881 0.0
O530 O 0.53365 0.37708 0.88198 0.0
O531 O 0.50587 0.39503 0.8956 0.0
O532 O 0.53179 0.35058 0.92342 0.0
O533 O 0.51737 0.32446 0.90433 0.0
O534 O 0.49516 0.36133 0.935 0.0
O535 O 0.48661 0.32384 0.94054 0.0
C536 C 0.46249 0.27964 0.89429 0.0
O537 O 0.45829 0.29892 0.88565 0.0
O538 O 0.47663 0.28189 0.91057 0.0
C539 C 0.45719 0.35415 0.90358 0.0
Tb540 Tb 0.68728 0.48224 0.89215 0.0
C541 C 0.70695 0.50742 0.8503 0.0
Tb542 Tb 0.67654 0.53001 0.89058 0.0
O543 O 0.66285 0.47649 0.86597 0.0
O544 O 0.65701 0.50081 0.88995 0.0
O545 O 0.70789 0.48921 0.86271 0.0
C546 C 0.65389 0.56775 0.88193 0.0
O547 O 0.69446 0.52511 0.85708 0.0
C548 C 0.7128 0.52208 0.91231 0.0
C549 C 0.67078 0.50555 0.93767 0.0
O550 O 0.67438 0.56673 0.88877 0.0
O551 O 0.64645 0.54754 0.87945 0.0
O552 O 0.6995 0.53899 0.91646 0.0
O553 O 0.70681 0.51182 0.89482 0.0
O554 O 0.66392 0.52261 0.9251 0.0
O555 O 0.68249 0.48872 0.92842 0.0
C556 C 0.6988 0.43952 0.89775 0.0
O557 O 0.68092 0.44899 0.90613 0.0
O558 O 0.71046 0.45436 0.88709 0.0
C559 C 0.64918 0.49213 0.87258 0.0
Tb560 Tb 0.50618 0.30589 0.15984 0.0
C561 C 0.4964 0.30989 0.21041 0.0
Tb562 Tb 0.48564 0.35008 0.17552 0.0
O563 O 0.53926 0.31676 0.17253 0.0
O564 O 0.51638 0.33978 0.16159 0.0
O565 O 0.49666 0.29583 0.19322 0.0
C566 C 0.47712 0.39135 0.19152 0.0
O567 O 0.49507 0.33219 0.20736 0.0
C568 C 0.45613 0.32224 0.16039 0.0
C569 C 0.49301 0.34018 0.12186 0.0
O570 O 0.49246 0.38611 0.17663 0.0
O571 O 0.46713 0.37317 0.19786 0.0
O572 O 0.45264 0.34358 0.16298 0.0
O573 O 0.47394 0.31728 0.17053 0.0
O574 O 0.4877 0.35553 0.13787 0.0
O575 O 0.5002 0.31996 0.12716 0.0
C576 C 0.51389 0.26661 0.13901 0.0
O577 O 0.52459 0.27435 0.15617 0.0
O578 O 0.49874 0.28117 0.13409 0.0
C579 C 0.53475 0.33796 0.17102 0.0
Tb580 Tb 0.69529 0.54052 0.14745 0.0
C581 C 0.70286 0.5249 0.19717 0.0
Tb582 Tb 0.66874 0.50073 0.1621 0.0
O583 O 0.66495 0.55798 0.13815 0.0
O584 O 0.66379 0.53582 0.16496 0.0
O585 O 0.70785 0.53962 0.18135 0.0
C586 C 0.63974 0.47025 0.17822 0.0
O587 O 0.68785 0.50845 0.19368 0.0
C588 C 0.70457 0.49099 0.13897 0.0
C589 C 0.66981 0.51523 0.10985 0.0
O590 O 0.66142 0.46856 0.17805 0.0
O591 O 0.63436 0.48969 0.17016 0.0
O592 O 0.68658 0.47901 0.13849 0.0
O593 O 0.70252 0.50649 0.15331 0.0
O594 O 0.6579 0.50522 0.12627 0.0
O595 O 0.6874 0.52756 0.11455 0.0
C596 C 0.72622 0.56856 0.13291 0.0
O597 O 0.71076 0.57359 0.14783 0.0
O598 O 0.72453 0.54775 0.12681 0.0
C599 C 0.65205 0.54801 0.15255 0.0
Tb600 Tb 0.47749 0.72666 0.16217 0.0
C601 C 0.48862 0.71933 0.21218 0.0
Tb602 Tb 0.50368 0.68736 0.17231 0.0
O603 O 0.45188 0.70635 0.14723 0.0
O604 O 0.46889 0.69398 0.17499 0.0
O605 O 0.48691 0.7342 0.19625 0.0
C606 C 0.5216 0.64625 0.17677 0.0
O607 O 0.49191 0.69779 0.20677 0.0
C608 C 0.52786 0.72388 0.17151 0.0
C609 C 0.49699 0.70237 0.11982 0.0
O610 O 0.52673 0.66398 0.18809 0.0
O611 O 0.50595 0.65152 0.16297 0.0
O612 O 0.5324 0.70658 0.18347 0.0
O613 O 0.512 0.719 0.15884 0.0
O614 O 0.50302 0.68631 0.13426 0.0
O615 O 0.48821 0.72155 0.1274 0.0
C616 C 0.45558 0.76516 0.16706 0.0
O617 O 0.44926 0.74617 0.17512 0.0
O618 O 0.47374 0.76238 0.15489 0.0
C619 C 0.45449 0.68938 0.1603 0.0
Tb620 Tb 0.32306 0.52882 0.17505 0.0
C621 C 0.30833 0.53474 0.12293 0.0
Tb622 Tb 0.28904 0.55948 0.16458 0.0
O623 O 0.30179 0.50553 0.19222 0.0
O624 O 0.28922 0.52362 0.16516 0.0
O625 O 0.32484 0.52941 0.13691 0.0
C626 C 0.25919 0.59202 0.15739 0.0
O627 O 0.29003 0.54448 0.13123 0.0
C628 C 0.33033 0.5755 0.16021 0.0
C629 C 0.29187 0.54745 0.21525 0.0
O630 O 0.25878 0.57184 0.14906 0.0
O631 O 0.27426 0.59192 0.1727 0.0
O632 O 0.3145 0.5789 0.1463 0.0
O633 O 0.32272 0.56388 0.176 0.0
O634 O 0.27875 0.55502 0.19946 0.0
O635 O 0.31178 0.53826 0.20994 0.0
C636 C 0.3623 0.50757 0.1793 0.0
O637 O 0.3569 0.52649 0.18883 0.0
O638 O 0.34568 0.50068 0.16751 0.0
C639 C 0.2841 0.51027 0.18092 0.0
Tb640 Tb 0.88205 0.5267 0.72361 0.0
C641 C 0.83591 0.50388 0.7339 0.0
Tb642 Tb 0.87426 0.48477 0.70076 0.0
O643 O 0.89023 0.54091 0.69123 0.0
O644 O 0.86413 0.518 0.69396 0.0
O645 O 0.85167 0.51722 0.74141 0.0
C646 C 0.87032 0.45518 0.66662 0.0
O647 O 0.83994 0.49069 0.71591 0.0
C648 C 0.88501 0.4786 0.74251 0.0
C649 C 0.92539 0.50585 0.70316 0.0
O650 O 0.87212 0.45022 0.68764 0.0
O651 O 0.87054 0.47679 0.66488 0.0
O652 O 0.8716 0.4656 0.73148 0.0
O653 O 0.89252 0.49334 0.72937 0.0
O654 O 0.91157 0.49074 0.69376 0.0
O655 O 0.91736 0.52086 0.71766 0.0
C656 C 0.88346 0.56549 0.7457 0.0
O657 O 0.87146 0.56128 0.72839 0.0
O658 O 0.89419 0.54739 0.75104 0.0
C659 C 0.87502 0.53026 0.68047 0.0
Tb660 Tb 0.49792 0.90859 0.74519 0.0
C661 C 0.5065 0.85617 0.74268 0.0
Tb662 Tb 0.5211 0.88945 0.7016 0.0
O663 O 0.46935 0.91886 0.72487 0.0
O664 O 0.48846 0.89091 0.71555 0.0
O665 O 0.4988 0.87356 0.75466 0.0
C666 C 0.52956 0.87551 0.65953 0.0
O667 O 0.51474 0.85817 0.72155 0.0
C668 C 0.55112 0.9025 0.73011 0.0
C669 C 0.51694 0.94367 0.71057 0.0
O670 O 0.53673 0.86607 0.67759 0.0
O671 O 0.51664 0.89227 0.66534 0.0
O672 O 0.55631 0.89379 0.71068 0.0
O673 O 0.53015 0.90264 0.732 0.0
O674 O 0.51927 0.92694 0.69531 0.0
O675 O 0.51133 0.93944 0.7317 0.0
C676 C 0.49085 0.92626 0.78633 0.0
O677 O 0.5094 0.91761 0.77855 0.0
O678 O 0.47567 0.92224 0.77144 0.0
C679 C 0.47285 0.90356 0.70952 0.0
Tb680 Tb 0.14382 0.48978 0.71431 0.0
C681 C 0.18853 0.51271 0.72661 0.0
Tb682 Tb 0.1481 0.53306 0.69998 0.0
O683 O 0.13028 0.48327 0.68164 0.0
O684 O 0.15866 0.50293 0.68388 0.0
O685 O 0.17367 0.4977 0.73281 0.0
C686 C 0.14623 0.56905 0.6727 0.0
O687 O 0.18352 0.52712 0.71038 0.0
C688 C 0.14297 0.53363 0.74347 0.0
C689 C 0.0979 0.51056 0.70567 0.0
O690 O 0.15514 0.56854 0.69229 0.0
O691 O 0.13871 0.54924 0.66834 0.0
O692 O 0.15483 0.54776 0.73199 0.0
O693 O 0.13298 0.52055 0.73013 0.0
O694 O 0.11049 0.52757 0.69792 0.0
O695 O 0.10772 0.49351 0.71559 0.0
C696 C 0.15199 0.44661 0.7219 0.0
O697 O 0.13759 0.45905 0.73309 0.0
O698 O 0.16163 0.45867 0.70678 0.0
C699 C 0.1457 0.49332 0.67025 0.0
Tb700 Tb 0.54023 0.14712 0.74155 0.0
C701 C 0.5347 0.19977 0.74221 0.0
Tb702 Tb 0.52637 0.16899 0.69806 0.0
O703 O 0.5732 0.13872 0.7261 0.0
O704 O 0.55586 0.16708 0.71617 0.0
O705 O 0.5363 0.18125 0.75425 0.0
C706 C 0.52089 0.18384 0.65612 0.0
O707 O 0.53365 0.19904 0.71967 0.0
C708 C 0.49369 0.16056 0.72586 0.0
C709 C 0.52988 0.11393 0.70199 0.0
O710 O 0.51155 0.19199 0.67419 0.0
O711 O 0.53406 0.16753 0.66173 0.0
O712 O 0.49272 0.17625 0.71113 0.0
O713 O 0.51103 0.14907 0.72225 0.0
O714 O 0.52805 0.13188 0.68851 0.0
O715 O 0.53251 0.11643 0.72375 0.0
C716 C 0.53495 0.12488 0.78024 0.0
O717 O 0.55398 0.1303 0.77058 0.0
O718 O 0.5194 0.13508 0.76933 0.0
C719 C 0.5727 0.15501 0.71176 0.0
Tb720 Tb 0.87447 0.52689 0.31829 0.0
C721 C 0.82332 0.53935 0.31688 0.0
Tb722 Tb 0.85912 0.55984 0.35214 0.0
O723 O 0.88687 0.50511 0.34427 0.0
O724 O 0.85799 0.52419 0.35075 0.0
O725 O 0.83967 0.52638 0.30897 0.0
C726 C 0.84431 0.58348 0.38818 0.0
O727 O 0.82676 0.55393 0.33385 0.0
C728 C 0.88008 0.57843 0.31849 0.0
C729 C 0.91207 0.5477 0.34693 0.0
O730 O 0.84151 0.58872 0.36734 0.0
O731 O 0.85437 0.56413 0.3887 0.0
O732 O 0.87943 0.58674 0.33857 0.0
O733 O 0.86728 0.56165 0.31738 0.0
O734 O 0.89548 0.55472 0.36087 0.0
O735 O 0.90742 0.53866 0.32731 0.0
C736 C 0.88612 0.50443 0.28092 0.0
O737 O 0.8761 0.49602 0.29843 0.0
O738 O 0.88861 0.52565 0.2845 0.0
C739 C 0.87187 0.51074 0.35928 0.0
Tb740 Tb 0.50746 0.87986 0.32867 0.0
C741 C 0.48633 0.83348 0.33478 0.0
Tb742 Tb 0.4754 0.87632 0.36706 0.0
O743 O 0.53275 0.86086 0.34638 0.0
O744 O 0.51049 0.88095 0.36449 0.0
O745 O 0.4933 0.84803 0.31981 0.0
C746 C 0.45208 0.86901 0.40518 0.0
O747 O 0.48069 0.84024 0.35575 0.0
C748 C 0.45806 0.8906 0.33021 0.0
C749 C 0.49549 0.92505 0.35522 0.0
O750 O 0.47179 0.87802 0.40381 0.0
O751 O 0.44588 0.86359 0.38516 0.0
O752 O 0.45082 0.89688 0.34992 0.0
O753 O 0.47273 0.87571 0.33203 0.0
O754 O 0.48381 0.91275 0.37005 0.0
O755 O 0.50559 0.91557 0.33743 0.0
C756 C 0.52772 0.88524 0.28925 0.0
O757 O 0.53404 0.87164 0.30467 0.0
O758 O 0.5106 0.89684 0.29652 0.0
C759 C 0.5259 0.86665 0.36633 0.0
Tb760 Tb 0.12619 0.56448 0.32653 0.0
C761 C 0.17595 0.55436 0.33819 0.0
Tb762 Tb 0.13488 0.5448 0.37325 0.0
O763 O 0.14258 0.59633 0.3376 0.0
O764 O 0.12627 0.5754 0.36001 0.0
O765 O 0.16131 0.55761 0.32239 0.0
C766 C 0.13772 0.53636 0.41683 0.0
O767 O 0.16978 0.55167 0.35983 0.0
C768 C 0.13598 0.51616 0.34039 0.0
C769 C 0.08346 0.55555 0.35759 0.0
O770 O 0.14891 0.55187 0.40633 0.0
O771 O 0.12508 0.52588 0.40279 0.0
O772 O 0.14737 0.51361 0.35847 0.0
O773 O 0.12349 0.53306 0.34263 0.0
O774 O 0.09718 0.54801 0.37358 0.0
O775 O 0.09123 0.56318 0.33801 0.0
C776 C 0.11938 0.55602 0.28323 0.0
O777 O 0.11211 0.57388 0.29424 0.0
O778 O 0.131 0.54394 0.29671 0.0
C779 C 0.13809 0.59247 0.35881 0.0
Tb780 Tb 0.49009 0.13675 0.32039 0.0
C781 C 0.50192 0.18771 0.32537 0.0
Tb782 Tb 0.51538 0.15035 0.36324 0.0
O783 O 0.46025 0.12888 0.34108 0.0
O784 O 0.48246 0.15357 0.3515 0.0
O785 O 0.49247 0.17198 0.31303 0.0
C786 C 0.52712 0.16377 0.40441 0.0
O787 O 0.51113 0.18337 0.34537 0.0
C788 C 0.54384 0.13476 0.3326 0.0
C789 C 0.50368 0.09795 0.35237 0.0
O790 O 0.53088 0.1745 0.3859 0.0
O791 O 0.51605 0.14565 0.3998 0.0
O792 O 0.54993 0.14234 0.35196 0.0
O793 O 0.52299 0.13734 0.33181 0.0
O794 O 0.50756 0.11346 0.36844 0.0
O795 O 0.49934 0.10391 0.33163 0.0
C796 C 0.48512 0.1233 0.27797 0.0
O797 O 0.46903 0.12642 0.29282 0.0
O798 O 0.50355 0.13008 0.28687 0.0
C799 C 0.46542 0.14251 0.35736 0.0
Tb800 Tb 0.70264 0.89577 0.55317 0.0
C801 C 0.70485 0.8444 0.53905 0.0
Tb802 Tb 0.67584 0.88218 0.51431 0.0
O803 O 0.67216 0.90814 0.56985 0.0
O804 O 0.67098 0.87981 0.54921 0.0
O805 O 0.71301 0.86077 0.55154 0.0
C806 C 0.64234 0.87511 0.48581 0.0
O807 O 0.68832 0.84823 0.52454 0.0
C808 C 0.71824 0.88249 0.50579 0.0
C809 C 0.68366 0.93561 0.52594 0.0
O810 O 0.6626 0.88093 0.48038 0.0
O811 O 0.64084 0.87308 0.50748 0.0
O812 O 0.70438 0.86921 0.49577 0.0
O813 O 0.70769 0.89668 0.51794 0.0
O814 O 0.67179 0.92011 0.5148 0.0
O815 O 0.69882 0.92941 0.54051 0.0
C816 C 0.73319 0.90539 0.58339 0.0
O817 O 0.73648 0.9052 0.56185 0.0
O818 O 0.71269 0.8997 0.58795 0.0
C819 C 0.65929 0.89328 0.56092 0.0
Tb820 Tb 0.69929 0.15152 0.48239 0.0
C821 C 0.72185 0.19393 0.50467 0.0
Tb822 Tb 0.69 0.15709 0.53081 0.0
O823 O 0.67631 0.17868 0.47589 0.0
O824 O 0.66939 0.15687 0.502 0.0
O825 O 0.72133 0.18046 0.48671 0.0
C826 C 0.66921 0.1674 0.5702 0.0
O827 O 0.70942 0.18907 0.52322 0.0
C828 C 0.72565 0.1337 0.52126 0.0
C829 C 0.6833 0.10834 0.50973 0.0
O830 O 0.68961 0.16001 0.56769 0.0
O831 O 0.66093 0.16996 0.5504 0.0
O832 O 0.71366 0.13098 0.53948 0.0
O833 O 0.71896 0.15059 0.51103 0.0
O834 O 0.67723 0.12227 0.52648 0.0
O835 O 0.69415 0.11614 0.4918 0.0
C836 C 0.70598 0.13501 0.44111 0.0
O837 O 0.68741 0.13439 0.45257 0.0
O838 O 0.7208 0.14562 0.45276 0.0
C839 C 0.66206 0.17379 0.49176 0.0
Tb840 Tb 0.87538 0.73146 0.5394 0.0
C841 C 0.82562 0.72546 0.5507 0.0
Tb842 Tb 0.86362 0.68745 0.55989 0.0
O843 O 0.86077 0.72171 0.50712 0.0
O844 O 0.87423 0.6976 0.52769 0.0
O845 O 0.84198 0.74015 0.55074 0.0
C846 C 0.84911 0.64674 0.57205 0.0
O847 O 0.83017 0.70335 0.55149 0.0
C848 C 0.87776 0.7174 0.58834 0.0
C849 C 0.91591 0.698 0.54845 0.0
O850 O 0.84483 0.66543 0.58254 0.0
O851 O 0.86111 0.65107 0.55419 0.0
O852 O 0.88072 0.69607 0.59074 0.0
O853 O 0.86561 0.72074 0.57168 0.0
O854 O 0.90085 0.68236 0.55448 0.0
O855 O 0.90934 0.71837 0.5427 0.0
C856 C 0.89142 0.77247 0.53401 0.0
O857 O 0.90017 0.75708 0.54624 0.0
O858 O 0.87415 0.76435 0.52396 0.0
C859 C 0.86297 0.70036 0.51036 0.0
Tb860 Tb 0.28937 0.91357 0.53589 0.0
C861 C 0.28885 0.86403 0.55206 0.0
Tb862 Tb 0.32916 0.89849 0.5616 0.0
O863 O 0.31078 0.91769 0.50597 0.0
O864 O 0.31803 0.89263 0.52889 0.0
O865 O 0.27636 0.88161 0.54727 0.0
C866 C 0.36886 0.88889 0.57999 0.0
O867 O 0.31099 0.86611 0.55529 0.0
C868 C 0.29676 0.91551 0.58731 0.0
C869 C 0.32434 0.9514 0.5461 0.0
O870 O 0.34968 0.88035 0.58556 0.0
O871 O 0.36588 0.90214 0.56312 0.0
O872 O 0.30973 0.89923 0.59304 0.0
O873 O 0.30256 0.92034 0.56769 0.0
O874 O 0.33796 0.935 0.55352 0.0
O875 O 0.30375 0.94659 0.53992 0.0
C876 C 0.25137 0.93149 0.52087 0.0
O877 O 0.26345 0.91595 0.51098 0.0
O878 O 0.25954 0.93439 0.54068 0.0
C879 C 0.32497 0.9023 0.51148 0.0
Tb880 Tb 0.16478 0.37067 0.5183 0.0
C881 C 0.1119 0.35383 0.52262 0.0
Tb882 Tb 0.15345 0.32794 0.54093 0.0
O883 O 0.17585 0.35682 0.48642 0.0
O884 O 0.15282 0.33966 0.50734 0.0
O885 O 0.12651 0.3703 0.51736 0.0
C886 C 0.15358 0.28801 0.56016 0.0
O887 O 0.11923 0.33456 0.53078 0.0
C888 C 0.15504 0.36417 0.56669 0.0
C889 C 0.20339 0.33416 0.52694 0.0
O890 O 0.16609 0.30477 0.5655 0.0
O891 O 0.14045 0.29388 0.54408 0.0
O892 O 0.14052 0.34834 0.5694 0.0
O893 O 0.16812 0.35884 0.55083 0.0
O894 O 0.18695 0.31965 0.52888 0.0
O895 O 0.19892 0.35628 0.52616 0.0
C896 C 0.16888 0.41484 0.51277 0.0
O897 O 0.17914 0.3995 0.50089 0.0
O898 O 0.15624 0.40529 0.52777 0.0
C899 C 0.16588 0.33792 0.49036 0.0
Tb900 Tb 0.35818 0.17438 0.53699 0.0
C901 C 0.34019 0.12334 0.52799 0.0
Tb902 Tb 0.31741 0.1669 0.50807 0.0
O903 O 0.34206 0.17903 0.57027 0.0
O904 O 0.32397 0.17283 0.54173 0.0
O905 O 0.35619 0.13664 0.53635 0.0
C906 C 0.27923 0.15872 0.48759 0.0
O907 O 0.32327 0.13179 0.51654 0.0
C908 C 0.35613 0.17358 0.48591 0.0
C909 C 0.32399 0.21532 0.5257 0.0
O910 O 0.28669 0.14768 0.50457 0.0
O911 O 0.29342 0.17417 0.48228 0.0
O912 O 0.33667 0.18 0.47934 0.0
O913 O 0.35305 0.1627 0.50367 0.0
O914 O 0.30903 0.19998 0.52069 0.0
O915 O 0.34546 0.20954 0.52969 0.0
C916 C 0.40053 0.17854 0.54985 0.0
O917 O 0.39103 0.19112 0.53499 0.0
O918 O 0.38617 0.16406 0.55731 0.0
C919 C 0.3221 0.17646 0.56242 0.0
Tb920 Tb 0.90177 0.31026 0.51391 0.0
C921 C 0.85362 0.3073 0.49763 0.0
Tb922 Tb 0.88657 0.35065 0.48933 0.0
O923 O 0.88154 0.32075 0.54337 0.0
O924 O 0.8955 0.3447 0.52278 0.0
O925 O 0.87208 0.29537 0.50023 0.0
C926 C 0.86918 0.38905 0.47336 0.0
O927 O 0.85493 0.32988 0.49618 0.0
C928 C 0.90918 0.32268 0.46375 0.0
C929 C 0.9393 0.34613 0.50298 0.0
O930 O 0.8662 0.36909 0.46523 0.0
O931 O 0.88115 0.38724 0.49123 0.0
O932 O 0.90628 0.34365 0.4593 0.0
O933 O 0.89608 0.31774 0.47993 0.0
O934 O 0.92311 0.35986 0.49543 0.0
O935 O 0.93421 0.32604 0.51048 0.0
C936 C 0.92573 0.27664 0.53066 0.0
O937 O 0.90606 0.28323 0.53776 0.0
O938 O 0.93056 0.28788 0.51279 0.0
C939 C 0.88266 0.34199 0.53948 0.0
Tb940 Tb 0.11665 0.73933 0.54878 0.0
C941 C 0.16859 0.74317 0.54529 0.0
Tb942 Tb 0.14012 0.69805 0.52977 0.0
O943 O 0.10733 0.72128 0.57964 0.0
O944 O 0.13658 0.71266 0.56177 0.0
O945 O 0.14974 0.75337 0.5519 0.0
C946 C 0.16512 0.66814 0.50632 0.0
O947 O 0.16874 0.72202 0.53688 0.0
C948 C 0.11647 0.72004 0.50156 0.0
C949 C 0.087 0.69704 0.54002 0.0
O950 O 0.1654 0.68969 0.50427 0.0
O951 O 0.15216 0.66343 0.52362 0.0
O952 O 0.11838 0.69864 0.5012 0.0
O953 O 0.12832 0.72826 0.51674 0.0
O954 O 0.10587 0.68456 0.5395 0.0
O955 O 0.08799 0.71909 0.53997 0.0
C956 C 0.09146 0.77604 0.5427 0.0
O957 O 0.09643 0.7674 0.56208 0.0
O958 O 0.10326 0.76534 0.52765 0.0
C959 C 0.12394 0.7071 0.57793 0.0
H960 H 1.00496 0.21613 0.59824 0.0
H961 H 0.06509 0.17772 0.60834 0.0
H962 H 1.0108 0.21341 0.55766 0.0
H963 H 0.07128 0.17535 0.56736 0.0
H964 H 0.08745 0.20274 0.49419 0.0
H965 H 0.08117 0.20096 0.53487 0.0
H966 H 1.01131 0.18718 0.52463 0.0
H967 H 0.01771 0.18854 0.48384 0.0
C968 C 0.01936 0.20679 0.59182 0.0
C969 C 0.03438 0.19694 0.60689 0.0
C970 C 0.0227 0.20521 0.56835 0.0
C971 C 0.04156 0.19416 0.5588 0.0
C972 C 0.05658 0.1841 0.57385 0.0
C973 C 0.05292 0.18524 0.59747 0.0
C974 C 0.07073 0.19913 0.50052 0.0
C975 C 0.05314 0.19575 0.48536 0.0
C976 C 0.06715 0.19798 0.52402 0.0
C977 C 0.04569 0.19389 0.53344 0.0
C978 C 0.02808 0.19047 0.51827 0.0
C979 C 0.03177 0.19114 0.49472 0.0
H980 H 0.89838 0.03512 0.57778 0.0
H981 H 0.82681 0.02724 0.58224 0.0
H982 H 0.89707 0.02946 0.53671 0.0
H983 H 0.82536 0.0218 0.54179 0.0
H984 H 0.83038 0.99208 0.47115 0.0
H985 H 0.83449 0.99601 0.51156 0.0
H986 H 0.88406 0.04735 0.50112 0.0
H987 H 0.87986 0.04344 0.46032 0.0
C988 C 0.88243 0.03183 0.57013 0.0
C989 C 0.86272 0.03152 0.58357 0.0
C990 C 0.88159 0.02885 0.54645 0.0
C991 C 0.86107 0.02511 0.53549 0.0
C992 C 0.84156 0.02434 0.54921 0.0
C993 C 0.84238 0.02759 0.57262 0.0
C994 C 0.84222 1.00426 0.47729 0.0
C995 C 0.85467 0.01748 0.46203 0.0
C996 C 0.84453 1.0066 0.50072 0.0
C997 C 0.85958 0.0221 0.51009 0.0
C998 C 0.8724 0.03508 0.49484 0.0
C999 C 0.86987 0.03293 0.47129 0.0
H1000 H 1.00189 0.82433 0.56893 0.0
H1001 H 0.05555 0.87176 0.57458 0.0
H1002 H 1.00101 0.83005 0.52873 0.0
H1003 H 0.0543 0.87834 0.53381 0.0
H1004 H 0.06109 0.86559 0.45518 0.0
H1005 H 0.06236 0.86416 0.49639 0.0
H1006 H 0.99111 0.85238 0.49917 0.0
H1007 H 0.9901 0.85346 0.4585 0.0
C1008 C 0.01329 0.83642 0.56163 0.0
C1009 C 0.02866 0.84764 0.57538 0.0
C1010 C 1.01273 0.83987 0.53828 0.0
C1011 C 0.02749 0.85485 0.52732 0.0
C1012 C 0.04267 0.86652 0.54118 0.0
C1013 C 0.04319 0.86304 0.56478 0.0
C1014 C 0.04565 0.86301 0.46462 0.0
C1015 C 0.0255 0.85945 0.45311 0.0
C1016 C 0.04635 0.86214 0.48846 0.0
C1017 C 0.02691 0.85772 0.50175 0.0
C1018 C 1.0067 0.85513 0.49007 0.0
C1019 C 1.00606 0.8559 0.46643 0.0
H1020 H 0.22442 0.05086 0.56389 0.0
H1021 H 0.18091 0.99347 0.56578 0.0
H1022 H 0.22631 0.04863 0.52323 0.0
H1023 H 0.18288 0.99117 0.52444 0.0
H1024 H 0.17773 1.00751 0.44617 0.0
H1025 H 0.17286 1.00912 0.48748 0.0
H1026 H 0.24244 0.02676 0.49347 0.0
H1027 H 0.24705 0.02542 0.45299 0.0
C1028 C 0.21516 0.03766 0.55573 0.0
C1029 C 0.2025 0.02236 0.56868 0.0
C1030 C 0.21637 0.03629 0.53208 0.0
C1031 C 0.20486 0.01964 0.51997 0.0
C1032 C 0.1919 1.0044 0.53282 0.0
C1033 C 0.19087 1.00564 0.55671 0.0
C1034 C 0.19189 1.01197 0.45632 0.0
C1035 C 0.21284 0.01634 0.44585 0.0
C1036 C 0.18919 1.01266 0.48016 0.0
C1037 C 0.20722 0.01814 0.49434 0.0
C1038 C 0.22794 0.02273 0.48362 0.0
C1039 C 0.23066 0.02178 0.4601 0.0
H1040 H 0.597 0.9874 0.19278 0.0
H1041 H 0.59392 0.05475 0.16744 0.0
H1042 H 0.55686 0.98381 0.18944 0.0
H1043 H 0.55287 0.05112 0.16417 0.0
H1044 H 0.47793 0.02684 0.14927 0.0
H1045 H 0.51906 0.03093 0.14625 0.0
H1046 H 0.52544 0.99924 0.21055 0.0
H1047 H 0.48518 0.99501 0.21334 0.0
C1048 C 0.5878 1.00152 0.18625 0.0
C1049 C 0.59902 0.02149 0.18058 0.0
C1050 C 0.56453 0.99944 0.18444 0.0
C1051 C 0.55122 0.01727 0.17695 0.0
C1052 C 0.56243 0.03696 0.17003 0.0
C1053 C 0.58604 0.03906 0.17185 0.0
C1054 C 0.4882 0.02048 0.16257 0.0
C1055 C 0.478 1.01045 0.18152 0.0
C1056 C 0.51182 0.02306 0.16097 0.0
C1057 C 0.52589 0.01534 0.17809 0.0
C1058 C 0.5155 1.00516 0.1968 0.0
C1059 C 0.49217 1.00281 0.19847 0.0
H1060 H 0.07092 0.57332 0.17713 0.0
H1061 H 1.01158 0.56823 0.21874 0.0
H1062 H 0.07366 0.5323 0.17513 0.0
H1063 H 0.01456 0.52771 0.21789 0.0
H1064 H 0.01532 0.45363 0.20858 0.0
H1065 H 1.01138 0.49359 0.20303 0.0
H1066 H 0.08287 0.49862 0.1914 0.0
H1067 H 0.0863 0.45786 0.19563 0.0
C1068 C 0.05804 0.56343 0.18532 0.0
C1069 C 0.04058 0.57425 0.19752 0.0
C1070 C 0.05984 0.5397 0.18462 0.0
C1071 C 0.04438 0.52586 0.19633 0.0
C1072 C 0.02667 0.53702 0.20805 0.0
C1073 C 0.02484 0.56058 0.20859 0.0
C1074 C 0.03019 0.46316 0.2043 0.0
C1075 C 0.05107 0.45219 0.2022 0.0
C1076 C 0.02802 0.48647 0.20148 0.0
C1077 C 0.0468 0.50024 0.1971 0.0
C1078 C 0.06777 0.4891 0.19446 0.0
C1079 C 0.06984 0.4655 0.19684 0.0
H1080 H 0.57475 0.02289 0.81092 0.0
H1081 H 0.57778 0.07008 0.86576 0.0
H1082 H 0.53413 0.02179 0.81468 0.0
H1083 H 0.53654 0.06897 0.8698 0.0
H1084 H 0.4596 0.0793 0.85024 0.0
H1085 H 0.50081 0.07988 0.85225 0.0
H1086 H 0.50284 1.00933 0.83612 0.0
H1087 H 0.46206 1.00904 0.83407 0.0
C1088 C 0.56677 0.03269 0.82425 0.0
C1089 C 0.57994 0.04624 0.83828 0.0
C1090 C 0.5432 0.03207 0.82644 0.0
C1091 C 0.53144 0.04515 0.8427 0.0
C1092 C 0.54463 0.05863 0.85698 0.0
C1093 C 0.56845 0.05905 0.85491 0.0
C1094 C 0.46883 0.06378 0.84786 0.0
C1095 C 0.45721 0.04399 0.84241 0.0
C1096 C 0.49264 0.06411 0.84884 0.0
C1097 C 0.50574 0.0447 0.84412 0.0
C1098 C 0.49385 0.02482 0.83951 0.0
C1099 C 0.47023 0.02453 0.83858 0.0
H1100 H 0.06749 0.59028 0.86368 0.0
H1101 H 0.99666 0.5847 0.85282 0.0
H1102 H 0.07035 0.5492 0.86601 0.0
H1103 H 0.9993 0.54381 0.85607 0.0
H1104 H 1.0125 0.47051 0.88316 0.0
H1105 H 1.01041 0.51173 0.88553 0.0
H1106 H 0.06363 0.51646 0.83591 0.0
H1107 H 0.0651 0.47552 0.83292 0.0
C1108 C 0.05241 0.58036 0.86247 0.0
C1109 C 0.03177 0.59095 0.85843 0.0
C1110 C 0.05407 0.55674 0.8636 0.0
C1111 C 0.03503 0.54298 0.86135 0.0
C1112 C 0.01429 0.5537 0.85813 0.0
C1113 C 1.01276 0.57722 0.8563 0.0
C1114 C 0.02394 0.48033 0.87297 0.0
C1115 C 0.03907 0.46951 0.85794 0.0
C1116 C 0.02265 0.50402 0.87421 0.0
C1117 C 0.03692 0.51763 0.86098 0.0
C1118 C 0.05249 0.50671 0.84651 0.0
C1119 C 0.0533 0.48314 0.84478 0.0
H1120 H 0.2158 0.59001 0.06016 0.0
H1121 H 0.23638 0.5849 0.99056 0.0
H1122 H 0.21684 0.54892 0.06278 0.0
H1123 H 0.23769 0.54437 0.9932 0.0
H1124 H 0.24099 0.47442 0.06509 0.0
H1125 H 0.23917 0.51524 0.06357 0.0
H1126 H 0.21658 0.51091 0.99542 0.0
H1127 H 0.21835 0.46998 0.99705 0.0
C1128 C 0.22053 0.58027 0.04538 0.0
C1129 C 0.22585 0.59129 0.02511 0.0
C1130 C 0.22127 0.55649 0.04689 0.0
C1131 C 0.22715 0.5427 0.02814 0.0
C1132 C 0.23259 0.55387 1.008 0.0
C1133 C 0.232 0.57747 1.00655 0.0
C1134 C 0.23557 0.48206 0.04971 0.0
C1135 C 0.22983 0.4684 0.03119 0.0
C1136 C 0.23438 0.50575 0.04889 0.0
C1137 C 0.22775 0.51702 0.02935 0.0
C1138 C 0.22206 0.50331 1.01079 0.0
C1139 C 0.22293 0.47958 1.01173 0.0
H1140 H 0.59867 0.18845 0.99076 0.0
H1141 H 0.58936 0.22381 0.05366 0.0
H1142 H 0.558 0.18214 0.98945 0.0
H1143 H 0.5492 0.21762 0.05238 0.0
H1144 H 0.47794 0.18841 0.05406 0.0
H1145 H 0.51886 0.19113 0.05551 0.0
H1146 H 0.52213 0.201 0.98397 0.0
H1147 H 0.48136 0.19834 0.98258 0.0
C1148 C 0.58812 0.19468 1.00445 0.0
C1149 C 0.59777 0.20659 0.02235 0.0
C1150 C 0.56459 0.19122 1.00364 0.0
C1151 C 0.54979 0.19927 0.02084 0.0
C1152 C 0.55962 0.21078 0.03888 0.0
C1153 C 0.58295 0.21445 0.03955 0.0
C1154 C 0.48733 0.19093 0.03857 0.0
C1155 C 0.47591 0.19305 0.0182 0.0
C1156 C 0.511 0.19269 0.0394 0.0
C1157 C 0.52434 0.19635 0.01985 0.0
C1158 C 0.51288 0.19795 0.99944 0.0
C1159 C 0.48924 0.19651 0.99866 0.0
H1160 H 0.85792 0.58515 0.99198 0.0
H1161 H 0.88933 0.59821 0.05529 0.0
H1162 H 0.86075 0.54558 0.99787 0.0
H1163 H 0.89303 0.55741 0.06096 0.0
H1164 H 0.87218 0.48032 0.07156 0.0
H1165 H 0.87452 0.52147 0.06881 0.0
H1166 H 0.88405 0.51503 0.99707 0.0
H1167 H 0.88071 0.47468 0.99986 0.0
C1168 C 0.86587 0.5797 1.00717 0.0
C1169 C 0.87351 0.59551 0.02303 0.0
C1170 C 0.86769 0.55653 1.01049 0.0
C1171 C 0.87749 0.54761 0.02979 0.0
C1172 C 0.88533 0.56329 0.04582 0.0
C1173 C 0.88343 0.58685 0.04247 0.0
C1174 C 0.87524 0.48775 0.05529 0.0
C1175 C 0.87627 0.47395 0.03593 0.0
C1176 C 0.87651 0.51149 0.05365 0.0
C1177 C 0.87895 0.52217 0.0326 0.0
C1178 C 0.88137 0.50802 1.01357 0.0
C1179 C 0.87977 0.48458 0.01518 0.0
H1180 H 0.59447 0.88174 1.00007 0.0
H1181 H 0.58389 0.83424 0.05317 0.0
H1182 H 0.55389 0.88241 0.99352 0.0
H1183 H 0.54418 0.83413 0.04621 0.0
H1184 H 0.47101 0.85092 0.04696 0.0
H1185 H 0.51103 0.85225 0.05119 0.0
H1186 H 0.51959 0.86654 0.98072 0.0
H1187 H 0.47856 0.866 0.97668 0.0
C1188 C 0.58362 0.87145 1.01043 0.0
C1189 C 0.59293 0.85829 0.02754 0.0
C1190 C 0.56013 0.87167 1.00652 0.0
C1191 C 0.54495 0.85862 0.01948 0.0
C1192 C 0.55456 0.84512 0.03616 0.0
C1193 C 0.57779 0.84507 0.04015 0.0
C1194 C 0.48118 0.85431 0.03215 0.0
C1195 C 0.47094 0.85815 1.01136 0.0
C1196 C 0.50461 0.85489 0.03458 0.0
C1197 C 0.5194 0.85906 0.01631 0.0
C1198 C 0.50922 0.86331 0.99542 0.0
C1199 C 0.48547 0.86291 0.99301 0.0
H1200 H 0.49373 0.66881 0.9724 0.0
H1201 H 0.53734 0.7256 0.98047 0.0
H1202 H 0.48943 0.6666 1.01373 0.0
H1203 H 0.53281 0.72359 0.02079 0.0
H1204 H 0.49654 0.73507 0.08789 0.0
H1205 H 0.50155 0.73207 0.04743 0.0
H1206 H 0.51009 0.66063 0.05257 0.0
H1207 H 0.50523 0.66366 0.09375 0.0
C1208 C 0.50271 0.68055 0.98279 0.0
C1209 C 0.51582 0.69746 0.97262 0.0
C1210 C 0.50018 0.67935 1.0066 0.0
C1211 C 0.51046 0.69517 0.02095 0.0
C1212 C 0.52419 0.71135 1.01064 0.0
C1213 C 0.52687 0.7124 0.9872 0.0
C1214 C 0.4995 0.7186 0.08064 0.0
C1215 C 0.50055 0.69965 0.09457 0.0
C1216 C 0.50248 0.71689 0.05718 0.0
C1217 C 0.50636 0.69611 0.04631 0.0
C1218 C 0.50705 0.67696 0.06009 0.0
C1219 C 0.50442 0.67873 0.08383 0.0
H1220 H 0.34492 0.52973 0.97603 0.0
H1221 H 0.2781 0.50304 0.98101 0.0
H1222 H 0.34523 0.5345 0.01707 0.0
H1223 H 0.27837 0.50775 0.02164 0.0
H1224 H 0.27517 0.53966 0.09191 0.0
H1225 H 0.2766 0.53493 0.05137 0.0
H1226 H 0.34624 0.51614 0.05424 0.0
H1227 H 0.34485 0.52114 0.09533 0.0
C1228 C 0.33022 0.52492 0.98574 0.0
C1229 C 0.31146 0.51602 0.97469 0.0
C1230 C 0.33045 0.52751 1.00951 0.0
C1231 C 0.31179 0.52165 0.02327 0.0
C1232 C 0.29305 0.51286 1.01209 0.0
C1233 C 0.29294 0.51001 0.98848 0.0
C1234 C 0.2909 0.5344 0.08414 0.0
C1235 C 0.30987 0.53072 0.09752 0.0
C1236 C 0.29166 0.53151 0.06056 0.0
C1237 C 0.31147 0.52489 0.04891 0.0
C1238 C 0.33059 0.52135 0.0622 0.0
C1239 C 0.32978 0.52407 0.08599 0.0
H1240 H 0.50701 0.37799 0.97678 0.0
H1241 H 0.46857 0.31711 0.97896 0.0
H1242 H 0.50651 0.37939 0.01818 0.0
H1243 H 0.46743 0.3188 0.01955 0.0
H1244 H 0.4921 0.30835 0.08901 0.0
H1245 H 0.49083 0.31169 0.04903 0.0
H1246 H 0.48691 0.38363 0.05547 0.0
H1247 H 0.48882 0.38022 0.09677 0.0
C1248 C 0.49817 0.36508 0.98596 0.0
C1249 C 0.48805 0.34729 0.97415 0.0
C1250 C 0.49783 0.3659 1.00985 0.0
C1251 C 0.4873 0.34898 0.02276 0.0
C1252 C 0.47639 0.33187 1.01071 0.0
C1253 C 0.4769 0.33097 0.9871 0.0
C1254 C 0.49104 0.3251 0.08229 0.0
C1255 C 0.49072 0.34401 0.09675 0.0
C1256 C 0.49002 0.32699 0.0589 0.0
C1257 C 0.48851 0.34794 0.04836 0.0
C1258 C 0.48815 0.36711 0.06266 0.0
C1259 C 0.48908 0.36518 0.08649 0.0
H1260 H 0.68036 0.47278 0.9686 0.0
H1261 H 0.65302 0.53954 0.96469 0.0
H1262 H 0.67694 0.47441 1.00952 0.0
H1263 H 0.6494 0.54112 1.0056 0.0
H1264 H 0.67389 0.5476 0.07845 0.0
H1265 H 0.67202 0.54466 0.03788 0.0
H1266 H 0.65319 0.47524 0.04356 0.0
H1267 H 0.65524 0.47832 0.08478 0.0
C1268 C 0.67339 0.48779 0.97637 0.0
C1269 C 0.66703 0.50605 0.96294 0.0
C1270 C 0.67129 0.48867 1.00005 0.0
C1271 C 0.66295 0.50793 1.01136 0.0
C1272 C 0.6562 0.52603 0.99785 0.0
C1273 C 0.65814 0.52508 0.97418 0.0
C1274 C 0.66892 0.53173 0.07119 0.0
C1275 C 0.66449 0.51329 0.08521 0.0
C1276 C 0.66779 0.53005 0.04768 0.0
C1277 C 0.66244 0.5097 0.03692 0.0
C1278 C 0.65753 0.49123 0.05095 0.0
C1279 C 0.65838 0.49303 0.07472 0.0
H1280 H 0.95351 0.54128 0.70774 0.0
H1281 H 0.95494 0.47098 0.69072 0.0
H1282 H 0.99412 0.54231 0.70691 0.0
H1283 H 0.99619 0.472 0.68958 0.0
H1284 H 0.06882 0.47655 0.71662 0.0
H1285 H 0.02828 0.47495 0.71338 0.0
H1286 H 0.02828 0.54148 0.68577 0.0
H1287 H 0.06909 0.54314 0.68926 0.0
C1288 C 0.96248 0.52597 0.70348 0.0
C1289 C 0.95057 0.50601 0.69928 0.0
C1290 C 0.98605 0.52662 0.70288 0.0
C1291 C 0.99897 0.50728 0.69823 0.0
C1292 C 0.9871 0.48731 0.69349 0.0
C1293 C 0.9633 0.48671 0.69387 0.0
C1294 C 0.06031 0.49095 0.70983 0.0
C1295 C 0.07263 0.51009 0.70337 0.0
C1296 C 0.03682 0.4899 0.70776 0.0
C1297 C 0.02449 0.50802 0.69926 0.0
C1298 C 0.03684 0.52717 0.69265 0.0
C1299 C 0.06043 0.52815 0.69459 0.0
H1300 H 0.51464 0.97932 0.73965 0.0
H1301 H 0.5271 0.96536 0.66937 0.0
H1302 H 0.51727 0.01914 0.73287 0.0
H1303 H 0.53039 1.00616 0.6627 0.0
H1304 H 0.56015 0.08461 0.68115 0.0
H1305 H 0.55784 0.04333 0.67989 0.0
H1306 H 0.49101 0.04701 0.70821 0.0
H1307 H 0.49316 0.08791 0.70894 0.0
C1308 C 0.51793 0.98456 0.72259 0.0
C1309 C 0.52022 0.96846 0.70507 0.0
C1310 C 0.51945 1.00773 0.71875 0.0
C1311 C 0.52375 0.01624 0.69721 0.0
C1312 C 0.52695 1.00038 0.67957 0.0
C1313 C 0.52504 0.97687 0.6834 0.0
C1314 C 0.54453 0.07667 0.68599 0.0
C1315 C 0.52651 0.08996 0.69432 0.0
C1316 C 0.54328 0.05287 0.6855 0.0
C1317 C 0.52416 0.04153 0.69384 0.0
C1318 C 0.50595 0.05491 0.70143 0.0
C1319 C 0.5071 0.07854 0.70164 0.0
H1320 H 0.93562 0.58066 0.37031 0.0
H1321 H 0.94488 0.51735 0.33606 0.0
H1322 H 0.97649 0.58311 0.37531 0.0
H1323 H 0.98522 0.51946 0.34152 0.0
H1324 H 0.05623 0.52075 0.37158 0.0
H1325 H 0.01506 0.51887 0.37144 0.0
H1326 H 1.01211 0.58757 0.35014 0.0
H1327 H 0.05316 0.58923 0.34992 0.0
C1328 C 0.94622 0.56705 0.36423 0.0
C1329 C 0.93664 0.54874 0.35287 0.0
C1330 C 0.96978 0.56852 0.36693 0.0
C1331 C 0.98451 0.55144 0.3589 0.0
C1332 C 0.97472 0.53288 0.34818 0.0
C1333 C 0.9514 0.53171 0.345 0.0
C1334 C 0.0468 0.53559 0.36728 0.0
C1335 C 0.05824 0.55519 0.3609 0.0
C1336 C 0.02309 0.53447 0.36698 0.0
C1337 C 1.00989 0.55308 0.36079 0.0
C1338 C 0.0214 0.57292 0.35523 0.0
C1339 C 0.04507 0.57386 0.35504 0.0
H1340 H 0.50705 0.0654 0.32025 0.0
H1341 H 0.50061 0.07228 0.39224 0.0
H1342 H 0.50482 0.02543 0.32307 0.0
H1343 H 0.49897 0.03096 0.39514 0.0
H1344 H 0.47436 0.95469 0.38598 0.0
H1345 H 0.47717 0.99586 0.38773 0.0
H1346 H 0.52507 0.99382 0.33259 0.0
H1347 H 0.52189 0.95351 0.33054 0.0
C1348 C 0.50535 0.05849 0.33693 0.0
C1349 C 0.50408 0.07271 0.35604 0.0
C1350 C 0.50424 0.03509 0.33852 0.0
C1351 C 0.50194 0.02432 0.35935 0.0
C1352 C 0.50067 0.03836 0.3787 0.0
C1353 C 0.50185 0.06218 0.37709 0.0
C1354 C 0.48555 0.96304 0.37428 0.0
C1355 C 0.49768 0.95033 0.35795 0.0
C1356 C 0.48726 0.9868 0.37535 0.0
C1357 C 0.50113 0.99872 0.36009 0.0
C1358 C 0.5137 0.98578 0.34435 0.0
C1359 C 0.51196 0.9623 0.34325 0.0
H1360 H 0.69539 0.96922 0.55484 0.0
H1361 H 0.66547 0.95997 0.49024 0.0
H1362 H 0.69347 1.00956 0.55068 0.0
H1363 H 0.66356 1.001 0.48598 0.0
H1364 H 0.68848 0.07566 0.47679 0.0
H1365 H 0.68649 0.03491 0.48007 0.0
H1366 H 0.66965 0.04215 0.55043 0.0
H1367 H 0.67162 0.08297 0.54711 0.0
C1368 C 0.68823 0.9757 0.53966 0.0
C1369 C 0.68061 0.9608 0.5229 0.0
C1370 C 0.68699 0.99917 0.53735 0.0
C1371 C 0.6783 1.00913 0.518 0.0
C1372 C 0.67053 0.99429 0.50114 0.0
C1373 C 0.67147 0.97059 0.50363 0.0
C1374 C 0.68411 0.06868 0.49299 0.0
C1375 C 0.68017 0.08308 0.51167 0.0
C1376 C 0.68287 0.04506 0.49485 0.0
C1377 C 0.67798 0.03468 0.51555 0.0
C1378 C 0.67374 0.04912 0.53417 0.0
C1379 C 0.67469 0.07277 0.53225 0.0
H1380 H 0.06195 0.67422 0.57256 0.0
H1381 H 0.05759 0.70218 0.50661 0.0
H1382 H 0.02072 0.67147 0.5747 0.0
H1383 H 0.01706 0.69917 0.50834 0.0
H1384 H 0.9483 0.72453 0.52958 0.0
H1385 H 0.98839 0.71973 0.5272 0.0
H1386 H 0.98291 0.65695 0.56197 0.0
H1387 H 0.94176 0.66183 0.5644 0.0
C1388 C 0.05237 0.6787 0.55803 0.0
C1389 C 0.0635 0.68772 0.53903 0.0
C1390 C 0.02854 0.67738 0.55934 0.0
C1391 C 0.01501 0.6854 0.54184 0.0
C1392 C 0.02641 0.69314 0.52244 0.0
C1393 C 0.04997 0.69441 0.52117 0.0
C1394 C 0.95528 0.7095 0.53673 0.0
C1395 C 0.94113 0.69353 0.54708 0.0
C1396 C 0.97868 0.70666 0.5352 0.0
C1397 C 0.98948 0.68776 0.54409 0.0
C1398 C 0.97552 0.67178 0.55483 0.0
C1399 C 0.95175 0.67451 0.55613 0.0
H1400 H 0.36599 0.9744 0.54258 0.0
H1401 H 0.29494 0.98608 0.55026 0.0
H1402 H 0.37171 0.0153 0.53885 0.0
H1403 H 0.3005 0.02585 0.5467 0.0
H1404 H 0.30988 0.09228 0.51318 0.0
H1405 H 0.30862 0.05216 0.51837 0.0
H1406 H 0.36976 0.05482 0.55549 0.0
H1407 H 0.3712 0.09574 0.54999 0.0
C1408 C 0.35161 0.98549 0.54372 0.0
C1409 C 0.32991 0.97638 0.54634 0.0
C1410 C 0.35487 1.00911 0.54154 0.0
C1411 C 0.33654 0.02439 0.54185 0.0
C1412 C 0.31514 0.01511 0.54553 0.0
C1413 C 0.31194 0.99189 0.5477 0.0
C1414 C 0.32322 0.08461 0.52249 0.0
C1415 C 0.34059 0.09791 0.53122 0.0
C1416 C 0.3224 0.06123 0.52563 0.0
C1417 C 0.33888 0.04965 0.53771 0.0
C1418 C 0.35667 0.06276 0.54605 0.0
C1419 C 0.35745 0.08643 0.54297 0.0
H1420 H 0.08598 0.38828 0.50301 0.0
H1421 H 0.0791 0.32389 0.53444 0.0
H1422 H 0.0451 0.38906 0.49698 0.0
H1423 H 0.03919 0.32484 0.52894 0.0
H1424 H 0.97308 0.31606 0.49762 0.0
H1425 H 1.01294 0.31997 0.50111 0.0
H1426 H 1.00488 0.39107 0.51186 0.0
H1427 H 0.96382 0.38704 0.50774 0.0
C1428 C 0.07595 0.37431 0.50873 0.0
C1429 C 0.08653 0.35589 0.51905 0.0
C1430 C 0.05228 0.37479 0.50533 0.0
C1431 C 0.03821 0.35682 0.512 0.0
C1432 C 0.04892 0.33885 0.5228 0.0
C1433 C 0.07225 0.33837 0.52615 0.0
C1434 C 0.97947 0.33273 0.50064 0.0
C1435 C 0.96451 0.35112 0.50254 0.0
C1436 C 1.00277 0.33496 0.50288 0.0
C1437 C 1.01285 0.35577 0.50749 0.0
C1438 C 0.99816 0.37461 0.50844 0.0
C1439 C 0.97441 0.37234 0.50601 0.0
H1440 H 0.09875 0.25085 0.35175 0.0
H1441 H 0.03155 0.22853 0.33923 0.0
H1442 H 0.09675 0.27627 0.31982 0.0
H1443 H 0.02952 0.25394 0.30741 0.0
H1444 H 0.02355 0.32405 0.27402 0.0
H1445 H 0.02655 0.29395 0.30113 0.0
H1446 H 0.09449 0.28116 0.27841 0.0
H1447 H 0.09125 0.31153 0.25085 0.0
C1448 C 0.08361 0.25107 0.34206 0.0
C1449 C 0.06534 0.23737 0.34834 0.0
C1450 C 0.08249 0.2657 0.32356 0.0
C1451 C 0.06292 0.2675 0.31078 0.0
C1452 C 0.04484 0.25341 0.31679 0.0
C1453 C 0.04607 0.23859 0.33509 0.0
C1454 C 0.03898 0.31444 0.27431 0.0
C1455 C 0.05698 0.32011 0.25978 0.0
C1456 C 0.04073 0.29707 0.29001 0.0
C1457 C 0.06079 0.28483 0.2923 0.0
C1458 C 0.07876 0.29015 0.27741 0.0
C1459 C 0.07682 0.30739 0.26129 0.0
H1460 H 0.78872 0.98343 0.33294 0.0
H1461 H 0.8258 0.04282 0.31565 0.0
H1462 H 0.76402 0.98963 0.30176 0.0
H1463 H 0.80094 0.049 0.28385 0.0
H1464 H 0.73261 0.06406 0.24557 0.0
H1465 H 0.76243 0.05962 0.27323 0.0
H1466 H 0.76135 0.9881 0.26232 0.0
H1467 H 0.73162 0.99263 0.23541 0.0
C1468 C 0.7919 0.99771 0.32228 0.0
C1469 C 0.80963 1.01242 0.32694 0.0
C1470 C 0.77763 1.00126 0.30414 0.0
C1471 C 0.78031 0.01979 0.28981 0.0
C1472 C 0.79811 0.03457 0.29438 0.0
C1473 C 0.81261 0.03088 0.31255 0.0
C1474 C 0.73932 0.04751 0.24857 0.0
C1475 C 0.72987 0.02874 0.23789 0.0
C1476 C 0.75636 0.04488 0.26463 0.0
C1477 C 0.76429 0.02339 0.2706 0.0
C1478 C 0.75555 1.00489 0.25885 0.0
C1479 C 0.73864 1.00751 0.24301 0.0
H1480 H 0.06527 0.80959 0.3192 0.0
H1481 H 0.99389 0.80148 0.31422 0.0
H1482 H 0.07115 0.77897 0.29177 0.0
H1483 H 0.99968 0.77138 0.28655 0.0
H1484 H 0.01802 0.72483 0.22599 0.0
H1485 H 0.01455 0.76021 0.24746 0.0
H1486 H 0.06456 0.737 0.29303 0.0
H1487 H 0.06756 0.70175 0.27206 0.0
C1488 C 0.05081 0.80184 0.31172 0.0
C1489 C 0.02908 0.80834 0.31886 0.0
C1490 C 0.05417 0.78403 0.29614 0.0
C1491 C 0.03591 0.77244 0.2868 0.0
C1492 C 0.01421 0.77985 0.29307 0.0
C1493 C 1.01088 0.79723 0.30899 0.0
C1494 C 0.02857 0.72746 0.24033 0.0
C1495 C 0.04315 0.71031 0.24712 0.0
C1496 C 0.02646 0.74772 0.25281 0.0
C1497 C 0.03929 0.75171 0.27213 0.0
C1498 C 0.05453 0.73487 0.27824 0.0
C1499 C 0.05621 0.71451 0.26616 0.0
H1500 H 0.33162 0.97994 0.21234 0.0
H1501 H 0.3406 0.04969 0.2283 0.0
H1502 H 0.29867 0.97883 0.23741 0.0
H1503 H 0.3077 0.04876 0.25353 0.0
H1504 H 0.24296 0.04163 0.29586 0.0
H1505 H 0.26672 0.04337 0.26161 0.0
H1506 H 0.29643 0.97979 0.27824 0.0
H1507 H 0.27308 0.97831 0.31212 0.0
C1508 C 0.32589 0.99533 0.22037 0.0
C1509 C 0.33837 0.01507 0.21774 0.0
C1510 C 0.30719 0.99464 0.23511 0.0
C1511 C 0.30048 1.01365 0.24784 0.0
C1512 C 0.31207 0.03382 0.24395 0.0
C1513 C 0.33088 0.03444 0.22928 0.0
C1514 C 0.25408 0.02775 0.29175 0.0
C1515 C 0.25591 1.0097 0.30662 0.0
C1516 C 0.26793 0.02885 0.27226 0.0
C1517 C 0.28363 1.01171 0.26696 0.0
C1518 C 0.28444 0.99318 0.28136 0.0
C1519 C 0.27101 0.99231 0.30091 0.0
H1520 H 1.00998 0.7378 0.81564 0.0
H1521 H 0.07482 0.71293 0.7945 0.0
H1522 H 1.01115 0.76534 0.78522 0.0
H1523 H 0.07638 0.74049 0.76452 0.0
H1524 H 0.05683 0.76459 0.69497 0.0
H1525 H 0.05858 0.74369 0.72947 0.0
H1526 H 0.02701 0.79865 0.76559 0.0
H1527 H 0.02513 0.81989 0.73035 0.0
C1528 C 0.02496 0.7389 0.80516 0.0
C1529 C 0.04261 0.72349 0.80804 0.0
C1530 C 0.02557 0.75462 0.78749 0.0
C1531 C 0.04374 0.7552 0.77191 0.0
C1532 C 0.06187 0.74052 0.77571 0.0
C1533 C 0.06121 0.72488 0.79326 0.0
C1534 C 0.05037 0.77251 0.7102 0.0
C1535 C 0.04085 0.79416 0.70955 0.0
C1536 C 0.05155 0.76043 0.73026 0.0
C1537 C 0.04311 0.76927 0.75075 0.0
C1538 C 0.03367 0.79107 0.75029 0.0
C1539 C 0.03275 0.80341 0.73004 0.0
H1540 H 0.33421 0.06279 0.76591 0.0
H1541 H 0.30796 1.00872 0.80567 0.0
H1542 H 0.30233 0.06061 0.7415 0.0
H1543 H 0.27525 1.0065 0.78092 0.0
H1544 H 0.23458 0.99427 0.7129 0.0
H1545 H 0.26264 0.99593 0.74256 0.0
H1546 H 0.26398 0.06787 0.73726 0.0
H1547 H 0.23655 0.06617 0.7078 0.0
C1548 C 0.32132 0.05063 0.7698 0.0
C1549 C 0.32383 0.0362 0.78821 0.0
C1550 C 0.30276 0.04939 0.75564 0.0
C1551 C 0.28566 0.03344 0.7589 0.0
C1552 C 0.2879 0.01903 0.77755 0.0
C1553 C 0.30658 0.02049 0.79205 0.0
C1554 C 0.2405 1.01049 0.71838 0.0
C1555 C 0.23295 0.03006 0.70762 0.0
C1556 C 0.25677 1.01147 0.73549 0.0
C1557 C 0.26624 0.03204 0.74246 0.0
C1558 C 0.25783 0.05157 0.73232 0.0
C1559 C 0.24171 0.0506 0.71535 0.0
H1560 H 0.99892 0.32186 0.83588 0.0
H1561 H 0.06687 0.33039 0.81199 0.0
H1562 H 0.9963 0.28717 0.8134 0.0
H1563 H 0.06444 0.29615 0.78977 0.0
H1564 H 0.05949 0.22933 0.75495 0.0
H1565 H 0.06127 0.25573 0.78676 0.0
H1566 H 0.99408 0.27815 0.77345 0.0
H1567 H 0.99248 0.25192 0.74194 0.0
C1568 C 0.01354 0.31596 0.82649 0.0
C1569 C 0.03321 0.32885 0.82606 0.0
C1570 C 1.01199 0.29618 0.8133 0.0
C1571 C 0.03015 0.2886 0.79952 0.0
C1572 C 0.05015 0.30097 0.80023 0.0
C1573 C 0.05156 0.32076 0.81306 0.0
C1574 C 0.04481 0.23926 0.75941 0.0
C1575 C 0.02571 0.23815 0.74603 0.0
C1576 C 0.04591 0.25473 0.77748 0.0
C1577 C 0.02786 0.26944 0.78282 0.0
C1578 C 1.00827 0.26714 0.77026 0.0
C1579 C 1.00732 0.25196 0.75211 0.0
H1580 H 0.81148 0.0844 0.71788 0.0
H1581 H 0.81642 1.01263 0.7218 0.0
H1582 H 0.78161 0.08456 0.74627 0.0
H1583 H 0.78568 1.01253 0.75004 0.0
H1584 H 0.73243 0.02263 0.80906 0.0
H1585 H 0.7681 0.02196 0.7873 0.0
H1586 H 0.74354 0.07538 0.74607 0.0
H1587 H 0.70889 0.07627 0.76759 0.0
C1588 C 0.80655 0.06862 0.72527 0.0
C1589 C 0.81676 0.04858 0.7177 0.0
C1590 C 0.78904 0.06863 0.74141 0.0
C1591 C 0.78054 0.04851 0.75038 0.0
C1592 C 0.79162 0.02843 0.74377 0.0
C1593 C 0.80945 0.02847 0.72763 0.0
C1594 C 0.73486 0.03445 0.79558 0.0
C1595 C 0.71752 0.04956 0.79034 0.0
C1596 C 0.7553 0.03394 0.78289 0.0
C1597 C 0.75915 0.04874 0.76479 0.0
C1598 C 0.74182 0.06396 0.75999 0.0
C1599 C 0.7216 0.06435 0.7724 0.0
H1600 H 0.34302 0.2456 0.98765 0.0
H1601 H 0.33289 0.2294 0.05743 0.0
H1602 H 0.31458 0.27477 0.99091 0.0
H1603 H 0.30385 0.25848 0.06066 0.0
H1604 H 0.25269 0.3197 0.99789 0.0
H1605 H 0.27668 0.2863 0.99487 0.0
H1606 H 0.2988 0.29775 0.06246 0.0
H1607 H 0.27467 0.33054 0.06553 0.0
C1608 C 0.33447 0.24795 1.0037 0.0
C1609 C 0.34051 0.23484 0.02226 0.0
C1610 C 0.31789 0.2648 1.00555 0.0
C1611 C 0.3066 0.26945 0.02609 0.0
C1612 C 0.31219 0.25589 0.04456 0.0
C1613 C 0.32878 0.23889 0.04267 0.0
C1614 C 0.26232 0.31485 1.01226 0.0
C1615 C 0.26145 0.32805 0.03199 0.0
C1616 C 0.27641 0.29572 1.01047 0.0
C1617 C 0.29008 0.28897 0.02838 0.0
C1618 C 0.28856 0.30186 0.04829 0.0
C1619 C 0.27463 0.32095 0.05002 0.0
H1620 H 0.33061 0.82025 0.04384 0.0
H1621 H 0.32884 0.82203 0.97167 0.0
H1622 H 0.30192 0.79172 0.04455 0.0
H1623 H 0.29913 0.79376 0.97229 0.0
H1624 H 0.26697 0.72381 0.97861 0.0
H1625 H 0.29118 0.75619 0.97683 0.0
H1626 H 0.26601 0.77804 0.04185 0.0
H1627 H 0.24217 0.74475 0.04393 0.0
C1628 C 0.32374 0.81497 0.02799 0.0
C1629 C 0.33234 0.82386 1.00767 0.0
C1630 C 0.30695 0.79841 0.02842 0.0
C1631 C 0.29777 0.78979 1.00852 0.0
C1632 C 0.30574 0.79934 0.98813 0.0
C1633 C 0.32267 0.81601 0.98771 0.0
C1634 C 0.2663 0.73553 0.99258 0.0
C1635 C 0.25231 0.73122 1.01149 0.0
C1636 C 0.28031 0.75448 0.99145 0.0
C1637 C 0.2811 0.77028 1.00916 0.0
C1638 C 0.26653 0.76637 0.02786 0.0
C1639 C 0.25248 0.74724 0.02901 0.0
H1640 H 0.82723 0.32825 0.06875 0.0
H1641 H 0.8138 0.34669 1.00062 0.0
H1642 H 0.80049 0.2971 0.06552 0.0
H1643 H 0.78735 0.31612 0.99739 0.0
H1644 H 0.74584 0.25249 0.99149 0.0
H1645 H 0.77873 0.27698 0.99466 0.0
H1646 H 0.76075 0.29092 0.06385 0.0
H1647 H 0.72841 0.26662 0.06067 0.0
C1648 C 0.81905 0.32542 0.05294 0.0
C1649 C 0.82296 0.34017 0.03498 0.0
C1650 C 0.80339 0.30764 0.05109 0.0
C1651 C 0.79133 0.30379 0.03113 0.0
C1652 C 0.79618 0.318 1.01297 0.0
C1653 C 0.81147 0.33579 0.01491 0.0
C1654 C 0.7492 0.26036 1.0075 0.0
C1655 C 0.73421 0.25735 0.02577 0.0
C1656 C 0.76802 0.27472 1.00932 0.0
C1657 C 0.77271 0.28636 0.02957 0.0
C1658 C 0.75822 0.28236 0.04802 0.0
C1659 C 0.7394 0.26834 0.04612 0.0
H1660 H 0.78226 0.70267 0.01532 0.0
H1661 H 0.83691 0.74946 0.01963 0.0
H1662 H 0.75555 0.73276 0.02099 0.0
H1663 H 0.8094 0.78029 0.02532 0.0
H1664 H 0.74472 0.82923 1.01097 0.0
H1665 H 0.7759 0.80224 1.00567 0.0
H1666 H 0.74346 0.75754 0.05229 0.0
H1667 H 0.71292 0.78402 0.05767 0.0
C1668 C 0.78879 0.71944 0.01737 0.0
C1669 C 0.81215 0.72323 0.01692 0.0
C1670 C 0.7732 0.73688 0.02081 0.0
C1671 C 0.77999 0.75923 0.0238 0.0
C1672 C 0.80335 0.76338 0.02302 0.0
C1673 C 0.8192 0.74562 0.01987 0.0
C1674 C 0.74435 0.81376 0.02029 0.0
C1675 C 0.72588 0.80908 0.03471 0.0
C1676 C 0.76236 0.79823 0.01728 0.0
C1677 C 0.76235 0.77736 0.02835 0.0
C1678 C 0.74418 0.77312 0.04314 0.0
C1679 C 0.72649 0.78856 0.0463 0.0
H1680 H 0.47453 0.74209 0.832 0.0
H1681 H 0.54535 0.75349 0.83695 0.0
H1682 H 0.47296 0.76857 0.80076 0.0
H1683 H 0.544 0.77984 0.80576 0.0
H1684 H 0.53702 0.82069 0.74089 0.0
H1685 H 0.53808 0.78786 0.76559 0.0
H1686 H 0.47566 0.809 0.79691 0.0
H1687 H 0.47477 0.8415 0.77259 0.0
C1688 C 0.48993 0.74962 0.82589 0.0
C1689 C 0.51017 0.74509 0.83668 0.0
C1690 C 0.48902 0.76514 0.80813 0.0
C1691 C 0.50836 0.77667 0.8005 0.0
C1692 C 0.52877 0.77128 0.81072 0.0
C1693 C 0.52958 0.756 0.82863 0.0
C1694 C 0.52328 0.81803 0.75268 0.0
C1695 C 0.50575 0.83387 0.7545 0.0
C1696 C 0.52399 0.79927 0.7671 0.0
C1697 C 0.50696 0.7955 0.78352 0.0
C1698 C 0.489 0.81089 0.78451 0.0
C1699 C 0.48852 0.82973 0.77047 0.0
H1700 H 0.21353 0.47745 0.73989 0.0
H1701 H 0.21044 0.5493 0.74577 0.0
H1702 H 0.24187 0.47614 0.7685 0.0
H1703 H 0.23876 0.54809 0.7753 0.0
H1704 H 0.29956 0.53716 0.82373 0.0
H1705 H 0.27674 0.54052 0.78984 0.0
H1706 H 0.24247 0.47951 0.8075 0.0
H1707 H 0.26514 0.47609 0.84046 0.0
C1708 C 0.21926 0.49313 0.74699 0.0
C1709 C 0.2097 0.51349 0.7401 0.0
C1710 C 0.23543 0.49237 0.76382 0.0
C1711 C 0.24259 0.51194 0.77498 0.0
C1712 C 0.23393 0.53256 0.76728 0.0
C1713 C 0.21772 0.53332 0.75012 0.0
C1714 C 0.28747 0.52424 0.82007 0.0
C1715 C 0.28457 0.50618 0.83498 0.0
C1716 C 0.27409 0.52631 0.80069 0.0
C1717 C 0.25758 0.51023 0.79541 0.0
C1718 C 0.25511 0.49211 0.81029 0.0
C1719 C 0.26821 0.49018 0.82952 0.0
H1720 H 0.51197 0.23947 0.73333 0.0
H1721 H 0.55535 0.20945 0.7816 0.0
H1722 H 0.50708 0.27237 0.75821 0.0
H1723 H 0.5508 0.24212 0.80611 0.0
H1724 H 0.54971 0.3093 0.84266 0.0
H1725 H 0.55825 0.28244 0.81211 0.0
H1726 H 0.48837 0.28104 0.79531 0.0
H1727 H 0.47999 0.30752 0.82594 0.0
C1728 C 0.52089 0.24004 0.74895 0.0
C1729 C 0.53415 0.22164 0.75525 0.0
C1730 C 0.51793 0.25889 0.76341 0.0
C1731 C 0.52853 0.26018 0.78441 0.0
C1732 C 0.5425 0.24213 0.79013 0.0
C1733 C 0.54506 0.22321 0.77599 0.0
C1734 C 0.53633 0.30396 0.83186 0.0
C1735 C 0.51423 0.31124 0.83644 0.0
C1736 C 0.54114 0.28819 0.81451 0.0
C1737 C 0.52403 0.27929 0.801 0.0
C1738 C 0.50213 0.28754 0.80493 0.0
C1739 C 0.4973 0.30294 0.82249 0.0
H1740 H 0.72162 0.54342 0.8241 0.0
H1741 H 0.72763 0.47169 0.82942 0.0
H1742 H 0.7497 0.5428 0.79343 0.0
H1743 H 0.75581 0.47108 0.79957 0.0
H1744 H 0.80091 0.47251 0.73664 0.0
H1745 H 0.76756 0.47396 0.76162 0.0
H1746 H 0.78823 0.53858 0.78655 0.0
H1747 H 0.82061 0.53735 0.7616 0.0
C1748 C 0.72866 0.52749 0.81866 0.0
C1749 C 0.72215 0.50768 0.82959 0.0
C1750 C 0.74507 0.52708 0.8011 0.0
C1751 C 0.75555 0.50684 0.79376 0.0
C1752 C 0.74829 0.48703 0.80422 0.0
C1753 C 0.73204 0.48745 0.82168 0.0
C1754 C 0.79811 0.48715 0.74718 0.0
C1755 C 0.81382 0.50469 0.74694 0.0
C1756 C 0.779 0.48797 0.7618 0.0
C1757 C 0.77484 0.50642 0.77654 0.0
C1758 C 0.79025 0.52417 0.77554 0.0
C1759 C 0.8092 0.52331 0.76116 0.0
H1760 H 0.4664 0.20832 0.30652 0.0
H1761 H 0.53618 0.21882 0.31986 0.0
H1762 H 0.46598 0.24132 0.28284 0.0
H1763 H 0.53592 0.25219 0.29587 0.0
H1764 H 0.53209 0.28594 0.22438 0.0
H1765 H 0.53393 0.26016 0.25586 0.0
H1766 H 0.46793 0.28147 0.27806 0.0
H1767 H 0.46627 0.30739 0.2463 0.0
C1768 C 0.48159 0.21808 0.30491 0.0
C1769 C 0.50125 0.21088 0.31548 0.0
C1770 C 0.48135 0.23718 0.29122 0.0
C1771 C 0.50091 0.24974 0.28709 0.0
C1772 C 0.52048 0.24302 0.29835 0.0
C1773 C 0.52061 0.224 0.31244 0.0
C1774 C 0.51828 0.28575 0.23645 0.0
C1775 C 0.49926 0.29926 0.23298 0.0
C1776 C 0.5193 0.27081 0.25459 0.0
C1777 C 0.50107 0.26836 0.26977 0.0
C1778 C 0.48232 0.28257 0.26678 0.0
C1779 C 0.48144 0.29779 0.24871 0.0
H1780 H 0.71179 0.49314 0.23035 0.0
H1781 H 0.72511 0.56175 0.21287 0.0
H1782 H 0.7374 0.49667 0.26195 0.0
H1783 H 0.75068 0.56518 0.24381 0.0
H1784 H 0.79026 0.5716 0.30828 0.0
H1785 H 0.75875 0.56817 0.28251 0.0
H1786 H 0.77584 0.49874 0.27061 0.0
H1787 H 0.80667 0.50214 0.29633 0.0
C1788 C 0.71984 0.50908 0.23333 0.0
C1789 C 0.7161 0.52707 0.21869 0.0
C1790 C 0.73486 0.51111 0.25146 0.0
C1791 C 0.74662 0.53128 0.25581 0.0
C1792 C 0.74209 0.54942 0.2416 0.0
C1793 C 0.72732 0.54734 0.22352 0.0
C1794 C 0.78694 0.55547 0.30063 0.0
C1795 C 0.80126 0.53718 0.30472 0.0
C1796 C 0.76894 0.5535 0.28545 0.0
C1797 C 0.76442 0.53312 0.27393 0.0
C1798 C 0.7782 0.51469 0.27898 0.0
C1799 C 0.79616 0.51671 0.29387 0.0
H1800 H 0.45536 0.74651 0.22747 0.0
H1801 H 0.51575 0.71463 0.24948 0.0
H1802 H 0.45382 0.76944 0.2613 0.0
H1803 H 0.5142 0.73759 0.28403 0.0
H1804 H 0.52127 0.80729 0.32137 0.0
H1805 H 0.52054 0.77547 0.29549 0.0
H1806 H 0.4483 0.77528 0.30016 0.0
H1807 H 0.44929 0.80758 0.32586 0.0
C1808 C 0.46798 0.74383 0.23999 0.0
C1809 C 0.48547 0.72833 0.23573 0.0
C1810 C 0.4671 0.75711 0.2596 0.0
C1811 C 0.48388 0.75573 0.27582 0.0
C1812 C 0.50098 0.73948 0.27203 0.0
C1813 C 0.50173 0.72594 0.25232 0.0
C1814 C 0.50524 0.79981 0.31769 0.0
C1815 C 0.48537 0.80973 0.32636 0.0
C1816 C 0.50479 0.78151 0.30259 0.0
C1817 C 0.48436 0.77256 0.29521 0.0
C1818 C 0.46445 0.78168 0.30499 0.0
C1819 C 0.46495 0.8 0.32022 0.0
H1820 H 0.27228 0.51255 0.23754 0.0
H1821 H 0.28741 0.58251 0.24493 0.0
H1822 H 0.2483 0.51429 0.27121 0.0
H1823 H 0.26462 0.58432 0.27937 0.0
H1824 H 0.19772 0.58882 0.31881 0.0
H1825 H 0.22882 0.58662 0.29217 0.0
H1826 H 0.23854 0.51699 0.30875 0.0
H1827 H 0.2063 0.51931 0.33486 0.0
C1828 C 0.2712 0.52814 0.24693 0.0
C1829 C 0.28222 0.54726 0.23871 0.0
C1830 C 0.25731 0.52923 0.26641 0.0
C1831 C 0.25392 0.54955 0.27846 0.0
C1832 C 0.26601 0.56839 0.27066 0.0
C1833 C 0.27957 0.56733 0.25099 0.0
C1834 C 0.20711 0.57328 0.31753 0.0
C1835 C 0.19976 0.55448 0.32967 0.0
C1836 C 0.2251 0.57189 0.30194 0.0
C1837 C 0.23665 0.55153 0.29769 0.0
C1838 C 0.23013 0.53297 0.31094 0.0
C1839 C 0.2119 0.53438 0.32652 0.0
H1840 H 0.71287 0.81133 0.50629 0.0
H1841 H 0.72557 0.82713 0.5755 0.0
H1842 H 0.73839 0.77899 0.50838 0.0
H1843 H 0.75103 0.79544 0.57759 0.0
H1844 H 0.79112 0.73155 0.58197 0.0
H1845 H 0.75876 0.75677 0.57898 0.0
H1846 H 0.77732 0.76974 0.50999 0.0
H1847 H 0.80924 0.74431 0.51311 0.0
C1848 C 0.72059 0.80765 0.52212 0.0
C1849 C 0.71676 0.82198 0.54076 0.0
C1850 C 0.73561 0.78918 0.52329 0.0
C1851 C 0.7472 0.78421 0.5432 0.0
C1852 C 0.7425 0.7981 0.56199 0.0
C1853 C 0.72776 0.81655 0.56075 0.0
C1854 C 0.78774 0.73907 0.56592 0.0
C1855 C 0.80254 0.73518 0.54759 0.0
C1856 C 0.76933 0.75401 0.56425 0.0
C1857 C 0.7651 0.76581 0.54422 0.0
C1858 C 0.77944 0.76102 0.52564 0.0
C1859 C 0.79784 0.74621 0.52738 0.0
H1860 H 0.8475 0.26586 0.47938 0.0
H1861 H 0.8103 0.31705 0.51547 0.0
H1862 H 0.81556 0.24091 0.48175 0.0
H1863 H 0.77771 0.29163 0.51801 0.0
H1864 H 0.73298 0.22652 0.53747 0.0
H1865 H 0.76246 0.25539 0.53535 0.0
H1866 H 0.77904 0.23402 0.46779 0.0
H1867 H 0.75014 0.20574 0.46982 0.0
C1868 C 0.83232 0.27206 0.48759 0.0
C1869 C 0.83181 0.29393 0.49687 0.0
C1870 C 0.81373 0.25754 0.48897 0.0
C1871 C 0.7935 0.26383 0.50005 0.0
C1872 C 0.79279 0.28581 0.50938 0.0
C1873 C 0.8115 0.30065 0.50764 0.0
C1874 C 0.74276 0.22808 0.52207 0.0
C1875 C 0.73876 0.21329 0.50389 0.0
C1876 C 0.75979 0.24482 0.52081 0.0
C1877 C 0.77375 0.2473 0.50143 0.0
C1878 C 0.76929 0.23278 0.48324 0.0
C1879 C 0.75232 0.21637 0.48441 0.0
H1880 H 0.208 0.74279 0.51901 0.0
H1881 H 0.17735 0.77545 0.57669 0.0
H1882 H 0.23972 0.76899 0.52092 0.0
H1883 H 0.20872 0.80122 0.57873 0.0
H1884 H 0.2744 0.83818 0.58764 0.0
H1885 H 0.24804 0.80671 0.5868 0.0
H1886 H 0.24829 0.8091 0.51452 0.0
H1887 H 0.27448 0.84057 0.51556 0.0
C1888 C 0.20816 0.7552 0.53236 0.0
C1889 C 0.18989 0.75673 0.54771 0.0
C1890 C 0.22632 0.77047 0.53336 0.0
C1891 C 0.22711 0.78753 0.55003 0.0
C1892 C 0.20919 0.78838 0.56578 0.0
C1893 C 0.19097 0.7735 0.56453 0.0
C1894 C 0.26939 0.83152 0.57156 0.0
C1895 C 0.27717 0.84166 0.55166 0.0
C1896 C 0.25393 0.81359 0.57102 0.0
C1897 C 0.24567 0.80506 0.55055 0.0
C1898 C 0.25423 0.81473 0.53064 0.0
C1899 C 0.26943 0.83283 0.53122 0.0
H1900 H 0.21886 0.30603 0.49417 0.0
H1901 H 0.23919 0.33604 0.55626 0.0
H1902 H 0.25111 0.28117 0.49422 0.0
H1903 H 0.27205 0.31088 0.55655 0.0
H1904 H 0.30845 0.23965 0.56244 0.0
H1905 H 0.28255 0.27172 0.56222 0.0
H1906 H 0.29001 0.27493 0.4902 0.0
H1907 H 0.3155 0.24283 0.49065 0.0
C1908 C 0.23076 0.30802 0.50744 0.0
C1909 C 0.22658 0.32389 0.52469 0.0
C1910 C 0.24944 0.29347 0.5076 0.0
C1911 C 0.26476 0.29368 0.52534 0.0
C1912 C 0.26086 0.30991 0.54252 0.0
C1913 C 0.24214 0.32476 0.54218 0.0
C1914 C 0.30538 0.24788 0.54668 0.0
C1915 C 0.31497 0.23899 0.52665 0.0
C1916 C 0.29021 0.26627 0.54648 0.0
C1917 C 0.28363 0.27622 0.52615 0.0
C1918 C 0.2941 0.26785 0.50626 0.0
C1919 C 0.30924 0.24958 0.50651 0.0
H1920 H 0.0756 0.15146 0.36375 0.0
H1921 H 0.09452 0.13113 0.42999 0.0
H1922 H 0.0889 0.11529 0.34853 0.0
H1923 H 0.10784 0.09544 0.41507 0.0
H1924 H 0.1309 0.03162 0.38802 0.0
H1925 H 0.10187 0.05954 0.39703 0.0
H1926 H 0.1271 0.10119 0.34339 0.0
H1927 H 0.15562 0.07321 0.33426 0.0
C1928 C 0.08206 0.13904 0.3751 0.0
C1929 C 0.08436 0.14413 0.39797 0.0
C1930 C 0.08976 0.1184 0.36641 0.0
C1931 C 0.09961 0.10247 0.38053 0.0
C1932 C 0.10016 0.10708 0.40368 0.0
C1933 C 0.0927 0.12767 0.41224 0.0
C1934 C 0.12963 0.04635 0.37765 0.0
C1935 C 0.14568 0.05042 0.36066 0.0
C1936 C 0.11314 0.06244 0.3829 0.0
C1937 C 0.11241 0.08285 0.37123 0.0
C1938 C 0.12703 0.08571 0.3527 0.0
C1939 C 0.1435 0.06968 0.34752 0.0
H1940 H 1.0076 0.12649 0.39476 0.0
H1941 H 0.9633 0.18385 0.39429 0.0
H1942 H 0.97654 0.10212 0.38537 0.0
H1943 H 0.93216 0.15951 0.38426 0.0
H1944 H 0.92096 0.06432 0.35429 0.0
H1945 H 0.95057 0.09246 0.35588 0.0
H1946 H 0.91057 0.13108 0.4037 0.0
H1947 H 0.88097 0.10339 0.4016 0.0
C1948 C 0.99119 0.13386 0.39247 0.0
C1949 C 0.98765 0.15692 0.39543 0.0
C1950 C 0.97349 0.11997 0.38683 0.0
C1951 C 0.95197 0.12894 0.38396 0.0
C1952 C 0.94856 0.15214 0.38655 0.0
C1953 C 0.9663 0.16604 0.39229 0.0
C1954 C 0.91844 0.07907 0.36476 0.0
C1955 C 0.89894 0.08169 0.37801 0.0
C1956 C 0.93535 0.09507 0.36578 0.0
C1957 C 0.93293 0.11382 0.38009 0.0
C1958 C 0.91283 0.11694 0.39236 0.0
C1959 C 0.89596 0.10101 0.39129 0.0
H1960 H 0.97546 0.88929 0.32886 0.0
H1961 H 0.98849 0.90535 0.39797 0.0
H1962 H 0.9499 0.92111 0.32696 0.0
H1963 H 0.9617 0.93619 0.39685 0.0
H1964 H 0.91324 0.99338 0.39065 0.0
H1965 H 0.94742 0.97074 0.38639 0.0
H1966 H 0.91401 0.92819 0.33852 0.0
H1967 H 0.8809 0.95137 0.3419 0.0
C1968 C 0.97305 0.89989 0.34357 0.0
C1969 C 0.98392 0.89485 0.36352 0.0
C1970 C 0.95812 0.91799 0.34265 0.0
C1971 C 0.95305 0.93109 0.36193 0.0
C1972 C 0.9651 0.92678 0.38155 0.0
C1973 C 0.98051 0.90899 0.38226 0.0
C1974 C 0.91354 0.9795 0.37882 0.0
C1975 C 0.8943 0.97408 0.36674 0.0
C1976 C 0.93305 0.96631 0.37653 0.0
C1977 C 0.93369 0.9473 0.36224 0.0
C1978 C 0.91465 0.94275 0.34942 0.0
C1979 C 0.8954 0.95602 0.3515 0.0
H1980 H 0.18946 0.9749 0.3387 0.0
H1981 H 0.19547 0.94647 0.40467 0.0
H1982 H 0.15355 0.95581 0.3342 0.0
H1983 H 0.15913 0.92786 0.40029 0.0
H1984 H 0.07888 0.92874 0.38477 0.0
H1985 H 0.11358 0.9505 0.38694 0.0
H1986 H 0.14624 0.90434 0.34069 0.0
H1987 H 0.11183 0.88214 0.33901 0.0
C1988 C 0.18306 0.96459 0.35222 0.0
C1989 C 0.19521 0.96196 0.37198 0.0
C1990 C 0.16258 0.95378 0.34963 0.0
C1991 C 0.15375 0.9406 0.36695 0.0
C1992 C 0.16573 0.9381 0.3868 0.0
C1993 C 0.18646 0.94857 0.38923 0.0
C1994 C 0.09333 0.92353 0.37471 0.0
C1995 C 0.09277 0.90383 0.36168 0.0
C1996 C 0.11313 0.93584 0.37611 0.0
C1997 C 0.13239 0.92886 0.36409 0.0
C1998 C 0.13149 0.90991 0.35009 0.0
C1999 C 0.11186 0.89734 0.34907 0.0
H2000 H 0.12924 0.96214 0.65847 0.0
H2001 H 0.18584 0.92364 0.63341 0.0
H2002 H 0.10571 0.92894 0.65653 0.0
H2003 H 0.16246 0.8901 0.63195 0.0
H2004 H 0.07422 0.86166 0.67167 0.0
H2005 H 0.09892 0.8939 0.67391 0.0
H2006 H 0.13214 0.87293 0.6121 0.0
H2007 H 0.10754 0.84026 0.61023 0.0
C2008 C 0.13671 0.94649 0.65273 0.0
C2009 C 0.15941 0.94551 0.64615 0.0
C2010 C 0.12323 0.92736 0.65171 0.0
C2011 C 0.1321 0.90666 0.64415 0.0
C2012 C 0.15491 0.90573 0.63761 0.0
C2013 C 0.16839 0.92492 0.63861 0.0
C2014 C 0.08686 0.86387 0.6586 0.0
C2015 C 0.08892 0.8484 0.64077 0.0
C2016 C 0.10097 0.88249 0.65979 0.0
C2017 C 0.11755 0.88625 0.64312 0.0
C2018 C 0.11978 0.87054 0.6254 0.0
C2019 C 0.10563 0.85183 0.62424 0.0
H2020 H 0.03832 0.11158 0.66669 0.0
H2021 H 0.08754 0.13342 0.71403 0.0
H2022 H 0.06065 0.07788 0.65854 0.0
H2023 H 0.11001 0.10025 0.70568 0.0
H2024 H 0.15042 0.04128 0.68868 0.0
H2025 H 0.11724 0.06043 0.70447 0.0
H2026 H 0.09527 0.07458 0.63743 0.0
H2027 H 0.12802 0.05527 0.62193 0.0
C2028 C 0.05359 0.10887 0.67579 0.0
C2029 C 0.06136 0.12522 0.69077 0.0
C2030 C 0.06647 0.08964 0.67104 0.0
C2031 C 0.08734 0.08643 0.6812 0.0
C2032 C 0.09401 0.10195 0.69764 0.0
C2033 C 0.08118 0.12111 0.70234 0.0
C2034 C 0.13798 0.04769 0.6774 0.0
C2035 C 0.14185 0.04703 0.65409 0.0
C2036 C 0.11909 0.05888 0.68641 0.0
C2037 C 0.10374 0.06946 0.67225 0.0
C2038 C 0.10655 0.0666 0.64892 0.0
C2039 C 0.12541 0.05556 0.63997 0.0
H2040 H 0.96715 0.18004 0.64144 0.0
H2041 H 0.98281 0.16931 0.71087 0.0
H2042 H 0.94291 0.14725 0.64189 0.0
H2043 H 0.95777 0.13661 0.71152 0.0
H2044 H 0.88138 0.10897 0.70178 0.0
H2045 H 0.91285 0.13484 0.70545 0.0
H2046 H 0.94608 0.10321 0.64848 0.0
H2047 H 0.91486 0.07695 0.64513 0.0
C2048 C 0.96547 0.17054 0.65678 0.0
C2049 C 0.9767 0.17724 0.67616 0.0
C2050 C 0.95173 0.1517 0.65698 0.0
C2051 C 0.94853 0.13938 0.67672 0.0
C2052 C 0.96002 0.14583 0.69609 0.0
C2053 C 0.97429 0.16446 0.69572 0.0
C2054 C 0.89569 0.10719 0.69042 0.0
C2055 C 0.89564 0.0911 0.67308 0.0
C2056 C 0.91371 0.12192 0.69258 0.0
C2057 C 0.9318 0.12107 0.67717 0.0
C2058 C 0.93228 0.10422 0.66053 0.0
C2059 C 0.91447 0.08919 0.65866 0.0
H2060 H 0.0227 0.92401 0.63855 0.0
H2061 H 0.99942 0.90532 0.70475 0.0
H2062 H 0.99788 0.95675 0.64001 0.0
H2063 H 0.9749 0.93822 0.70634 0.0
H2064 H 0.93652 1.00617 0.70114 0.0
H2065 H 0.97061 0.98286 0.70311 0.0
H2066 H 0.95422 0.95138 0.64012 0.0
H2067 H 0.92027 0.97392 0.63849 0.0
C2068 C 1.013 0.92741 0.65377 0.0
C2069 C 1.01276 0.91206 0.67145 0.0
C2070 C 0.99873 0.94606 0.65456 0.0
C2071 C 0.98432 0.94983 0.67319 0.0
C2072 C 0.98589 0.93577 0.69183 0.0
C2073 C 0.99989 0.91693 0.69089 0.0
C2074 C 0.94038 0.99432 0.68773 0.0
C2075 C 0.92574 0.99166 0.66976 0.0
C2076 C 0.95983 0.98109 0.68882 0.0
C2077 C 0.96516 0.96556 0.67161 0.0
C2078 C 0.95075 0.96348 0.65341 0.0
C2079 C 0.93119 0.97622 0.65261 0.0
H2080 H 0.4214 0.0511 0.15496 0.0
H2081 H 0.38767 0.09135 0.20592 0.0
H2082 H 0.41687 0.08067 0.12795 0.0
H2083 H 0.38357 0.12179 0.17845 0.0
H2084 H 0.38103 0.12358 0.07896 0.0
H2085 H 0.38165 0.09736 0.11 0.0
H2086 H 0.41071 0.14802 0.15236 0.0
H2087 H 0.41012 0.17454 0.12098 0.0
C2088 C 0.41283 0.06626 0.16038 0.0
C2089 C 0.40442 0.06867 0.18245 0.0
C2090 C 0.41032 0.08327 0.14486 0.0
C2091 C 0.39957 0.10338 0.15098 0.0
C2092 C 0.39185 0.10636 0.17331 0.0
C2093 C 0.39416 0.08901 0.18896 0.0
C2094 C 0.38735 0.12925 0.09493 0.0
C2095 C 0.39577 0.151 0.0975 0.0
C2096 C 0.38769 0.11424 0.11271 0.0
C2097 C 0.39636 0.12063 0.13353 0.0
C2098 C 0.40383 0.14273 0.13651 0.0
C2099 C 0.40363 0.1578 0.11856 0.0
H2100 H 0.02491 0.3831 0.16482 0.0
H2101 H 0.97149 0.36442 0.21055 0.0
H2102 H 0.99867 0.38438 0.13422 0.0
H2103 H 0.94477 0.36746 0.18054 0.0
H2104 H 0.90143 0.35991 0.12029 0.0
H2105 H 0.9295 0.35365 0.1486 0.0
H2106 H 0.97089 0.40506 0.1185 0.0
H2107 H 0.94331 0.40996 0.08933 0.0
C2108 C 1.00757 0.37906 0.1683 0.0
C2109 C 1.00041 0.37336 0.19009 0.0
C2110 C 0.99232 0.3802 0.15077 0.0
C2111 C 0.9693 0.37622 0.15464 0.0
C2112 C 0.96228 0.37024 0.17652 0.0
C2113 C 0.97763 0.36862 0.1939 0.0
C2114 C 0.91666 0.3697 0.11967 0.0
C2115 C 0.92019 0.38542 0.10262 0.0
C2116 C 0.93275 0.36629 0.13608 0.0
C2117 C 0.95265 0.37893 0.13624 0.0
C2118 C 0.95613 0.39461 0.11893 0.0
C2119 C 0.94022 0.39761 0.10221 0.0
H2120 H 0.66924 1.00361 0.13591 0.0
H2121 H 0.71089 0.95958 0.17424 0.0
H2122 H 0.67163 0.97745 0.1041 0.0
H2123 H 0.71231 0.93303 0.14339 0.0
H2124 H 0.71933 0.88807 0.08533 0.0
H2125 H 0.72419 0.92141 0.10855 0.0
H2126 H 0.6573 0.94328 0.09242 0.0
H2127 H 0.65334 0.91066 0.06796 0.0
C2128 C 0.67912 0.98847 0.13744 0.0
C2129 C 0.68976 0.98363 0.15765 0.0
C2130 C 0.68031 0.97329 0.11928 0.0
C2131 C 0.692 0.9528 0.12099 0.0
C2132 C 0.70345 0.94862 0.14098 0.0
C2133 C 0.70249 0.96387 0.15891 0.0
C2134 C 0.70598 0.9004 0.08628 0.0
C2135 C 0.68598 0.89677 0.0749 0.0
C2136 C 0.70858 0.91942 0.09987 0.0
C2137 C 0.69093 0.93499 0.10304 0.0
C2138 C 0.6714 0.93194 0.09045 0.0
C2139 C 0.66905 0.91315 0.07639 0.0
H2140 H 0.07355 0.65297 0.16566 0.0
H2141 H 0.12712 0.65872 0.21258 0.0
H2142 H 0.09936 0.65973 0.13481 0.0
H2143 H 0.15394 0.66338 0.18132 0.0
H2144 H 0.19662 0.68569 0.12026 0.0
H2145 H 0.17085 0.68293 0.15262 0.0
H2146 H 0.12533 0.64455 0.11199 0.0
H2147 H 0.15019 0.64893 0.07979 0.0
C2148 C 0.09096 0.65576 0.1694 0.0
C2149 C 0.09809 0.6556 0.19169 0.0
C2150 C 0.10607 0.65917 0.1515 0.0
C2151 C 0.12922 0.66171 0.15506 0.0
C2152 C 0.13638 0.66176 0.17755 0.0
C2153 C 0.12099 0.65895 0.19562 0.0
C2154 C 0.18095 0.67687 0.11834 0.0
C2155 C 0.17535 0.66777 0.09736 0.0
C2156 C 0.16615 0.67508 0.137 0.0
C2157 C 0.1455 0.66371 0.13531 0.0
C2158 C 0.14043 0.65417 0.11425 0.0
C2159 C 0.1549 0.65645 0.09561 0.0
H2160 H 0.41144 0.95984 0.82146 0.0
H2161 H 0.36332 0.99815 0.86073 0.0
H2162 H 0.413 0.93185 0.8512 0.0
H2163 H 0.36388 0.97001 0.89002 0.0
H2164 H 0.3886 0.93269 0.94989 0.0
H2165 H 0.38641 0.95824 0.91858 0.0
H2166 H 0.39658 0.9028 0.87224 0.0
H2167 H 0.39991 0.87735 0.90403 0.0
C2168 C 0.40079 0.96194 0.83627 0.0
C2169 C 0.38738 0.98118 0.83897 0.0
C2170 C 0.40164 0.94591 0.85337 0.0
C2171 C 0.38887 0.94868 0.87341 0.0
C2172 C 0.37458 0.9675 0.87532 0.0
C2173 C 0.37406 0.98361 0.85846 0.0
C2174 C 0.39041 0.92595 0.93301 0.0
C2175 C 0.39438 0.90301 0.92943 0.0
C2176 C 0.38893 0.9406 0.91493 0.0
C2177 C 0.39096 0.93272 0.89261 0.0
C2178 C 0.3951 0.90965 0.88907 0.0
C2179 C 0.39691 0.89499 0.90729 0.0
H2180 H 0.20088 0.40046 0.93422 0.0
H2181 H 0.15028 0.38255 0.98344 0.0
H2182 H 0.17229 0.40257 0.90555 0.0
H2183 H 0.12154 0.38526 0.95506 0.0
H2184 H 0.11337 0.42841 0.86564 0.0
H2185 H 0.1417 0.42521 0.89431 0.0
H2186 H 0.10682 0.36827 0.92218 0.0
H2187 H 0.07812 0.372 0.89374 0.0
C2188 C 0.18362 0.39698 0.93889 0.0
C2189 C 0.17782 0.39132 0.96105 0.0
C2190 C 0.16716 0.39835 0.92251 0.0
C2191 C 0.14446 0.3942 0.92791 0.0
C2192 C 0.1388 0.3883 0.95012 0.0
C2193 C 0.15528 0.38685 0.96645 0.0
C2194 C 0.11174 0.41524 0.87794 0.0
C2195 C 0.09356 0.40042 0.8774 0.0
C2196 C 0.1281 0.41327 0.89431 0.0
C2197 C 0.12678 0.39635 0.91057 0.0
C2198 C 0.10837 0.38165 0.91012 0.0
C2199 C 0.09193 0.38369 0.89376 0.0
H2200 H 0.64795 0.14664 0.96872 0.0
H2201 H 0.70601 0.17478 0.93541 0.0
H2202 H 0.64045 0.12399 0.93515 0.0
H2203 H 0.69895 0.15149 0.90218 0.0
H2204 H 0.68734 0.08461 0.85953 0.0
H2205 H 0.69554 0.10548 0.89395 0.0
H2206 H 0.63104 0.13802 0.89137 0.0
H2207 H 0.62308 0.11766 0.85637 0.0
C2208 C 0.6594 0.14758 0.95443 0.0
C2209 C 0.67766 0.16236 0.95471 0.0
C2210 C 0.65498 0.13478 0.93519 0.0
C2211 C 0.66906 0.1361 0.91607 0.0
C2212 C 0.68786 0.15015 0.91671 0.0
C2213 C 0.69194 0.1634 0.93572 0.0
C2214 C 0.67493 0.09628 0.86626 0.0
C2215 C 0.65462 0.09964 0.85521 0.0
C2216 C 0.67965 0.10821 0.88593 0.0
C2217 C 0.66391 0.12329 0.89531 0.0
C2218 C 0.64341 0.12639 0.8845 0.0
C2219 C 0.63892 0.11487 0.86447 0.0
H2220 H 0.97482 0.63306 0.88623 0.0
H2221 H 0.98367 0.70443 0.8806 0.0
H2222 H 0.94775 0.63887 0.91693 0.0
H2223 H 0.95572 0.71039 0.91122 0.0
H2224 H 0.91322 0.65533 0.983 0.0
H2225 H 0.94593 0.65571 0.95771 0.0
H2226 H 0.91138 0.70032 0.91351 0.0
H2227 H 0.87836 0.69973 0.93877 0.0
C2228 C 0.9712 0.65003 0.89186 0.0
C2229 C 0.98143 0.66829 0.88117 0.0
C2230 C 0.95571 0.65335 0.90946 0.0
C2231 C 0.94959 0.67507 0.9165 0.0
C2232 C 0.96014 0.69345 0.90613 0.0
C2233 C 0.97622 0.69007 0.88878 0.0
C2234 C 0.91274 0.66568 0.96819 0.0
C2235 C 0.89317 0.6775 0.96288 0.0
C2236 C 0.93147 0.6658 0.95365 0.0
C2237 C 0.93123 0.67803 0.93362 0.0
C2238 C 0.91214 0.69091 0.92893 0.0
C2239 C 0.89322 0.6905 0.94332 0.0
H2240 H 0.16228 0.42021 0.07023 0.0
H2241 H 0.18385 0.35219 0.05712 0.0
H2242 H 0.13061 0.40646 0.09269 0.0
H2243 H 0.15243 0.33842 0.08015 0.0
H2244 H 0.12514 0.34006 0.15766 0.0
H2245 H 0.14843 0.34521 0.12392 0.0
H2246 H 0.09448 0.38121 0.09313 0.0
H2247 H 0.07094 0.37555 0.12672 0.0
C2248 C 0.15981 0.40231 0.07159 0.0
C2249 C 0.17547 0.38728 0.06201 0.0
C2250 C 0.14168 0.39442 0.0844 0.0
C2251 C 0.13916 0.37137 0.08823 0.0
C2252 C 0.15403 0.35626 0.07745 0.0
C2253 C 0.17191 0.36415 0.06421 0.0
C2254 C 0.118 0.34834 0.14337 0.0
C2255 C 0.09632 0.35748 0.1448 0.0
C2256 C 0.13129 0.35126 0.12404 0.0
C2257 C 0.12327 0.36374 0.10599 0.0
C2258 C 0.10104 0.37156 0.10684 0.0
C2259 C 0.08758 0.36823 0.126 0.0
H2260 H 0.15432 0.63148 0.99339 0.0
H2261 H 0.16655 0.70243 0.99895 0.0
H2262 H 0.11969 0.63883 0.974 0.0
H2263 H 0.1315 0.70998 0.97959 0.0
H2264 H 0.09828 0.70513 0.90846 0.0
H2265 H 0.12351 0.70413 0.93995 0.0
H2266 H 0.08194 0.65409 0.97179 0.0
H2267 H 0.05671 0.655 0.93987 0.0
C2268 C 0.14913 0.64872 0.99114 0.0
C2269 C 0.16319 0.66637 0.99747 0.0
C2270 C 0.12919 0.65296 0.98008 0.0
C2271 C 0.12289 0.675 0.97493 0.0
C2272 C 0.13603 0.69278 0.98302 0.0
C2273 C 0.15599 0.6885 0.9943 0.0
C2274 C 0.09424 0.6943 0.92243 0.0
C2275 C 0.0757 0.67995 0.92162 0.0
C2276 C 0.10862 0.69384 0.94062 0.0
C2277 C 0.10489 0.6789 0.95839 0.0
C2278 C 0.08544 0.66562 0.95826 0.0
C2279 C 0.07093 0.66619 0.94006 0.0
H2280 H 0.42335 0.12189 0.98831 0.0
H2281 H 0.35614 0.1474 0.99779 0.0
H2282 H 0.40953 0.09195 0.96448 0.0
H2283 H 0.34202 0.1171 0.97403 0.0
H2284 H 0.33893 0.08988 0.89949 0.0
H2285 H 0.3447 0.11109 0.93393 0.0
H2286 H 0.38818 0.05872 0.95754 0.0
H2287 H 0.3827 0.03771 0.92268 0.0
C2288 C 0.40545 0.12055 0.98598 0.0
C2289 C 0.39087 0.13701 0.99491 0.0
C2290 C 0.39746 0.10332 0.97228 0.0
C2291 C 0.37462 0.10214 0.96701 0.0
C2292 C 0.35975 0.11763 0.97744 0.0
C2293 C 0.36778 0.13485 0.99132 0.0
C2294 C 0.34917 0.08256 0.91233 0.0
C2295 C 0.36051 0.0622 0.90825 0.0
C2296 C 0.35246 0.09473 0.93219 0.0
C2297 C 0.36721 0.08686 0.94851 0.0
C2298 C 0.37704 0.06553 0.94521 0.0
C2299 C 0.37372 0.05334 0.9253 0.0
H2300 H 1.01243 0.4073 0.94689 0.0
H2301 H 0.99013 0.3436 0.92126 0.0
H2302 H 0.98389 0.40572 0.97677 0.0
H2303 H 0.96228 0.34141 0.95161 0.0
H2304 H 0.89301 0.37325 0.97078 0.0
H2305 H 0.9285 0.36328 0.9526 0.0
H2306 H 0.96394 0.39019 1.0093 0.0
H2307 H 0.92794 0.4005 0.02729 0.0
C2308 C 1.00212 0.39248 0.94832 0.0
C2309 C 1.00311 0.37576 0.93166 0.0
C2310 C 0.98577 0.39152 0.96546 0.0
C2311 C 0.9704 0.37369 0.96622 0.0
C2312 C 0.97345 0.35565 0.95112 0.0
C2313 C 0.98948 0.35681 0.93385 0.0
C2314 C 0.9084 0.37636 0.9796 0.0
C2315 C 0.90792 0.38738 1.00041 0.0
C2316 C 0.92878 0.37056 0.9693 0.0
C2317 C 0.94916 0.37588 0.97952 0.0
C2318 C 0.94856 0.38592 1.00098 0.0
C2319 C 0.92803 0.39162 1.01137 0.0
H2320 H 0.70159 1.011 0.903 0.0
H2321 H 0.63214 0.99171 0.9 0.0
H2322 H 0.70804 0.98131 0.93066 0.0
H2323 H 0.63842 0.9626 0.92735 0.0
H2324 H 0.66247 0.89432 0.94608 0.0
H2325 H 0.66039 0.92687 0.92198 0.0
H2326 H 0.69614 0.96612 0.97063 0.0
H2327 H 0.69836 0.93314 0.99497 0.0
C2328 C 0.68764 1.00085 0.9087 0.0
C2329 C 0.66643 1.00345 0.89924 0.0
C2330 C 0.69132 0.98385 0.92441 0.0
C2331 C 0.67383 0.96931 0.93072 0.0
C2332 C 0.65235 0.97315 0.9224 0.0
C2333 C 0.64872 0.98995 0.90684 0.0
C2334 C 0.67014 0.90979 0.95157 0.0
C2335 C 0.68041 0.91126 0.97247 0.0
C2336 C 0.66884 0.92848 0.93782 0.0
C2337 C 0.67775 0.94916 0.94461 0.0
C2338 C 0.6891 0.95041 0.96501 0.0
C2339 C 0.69034 0.93158 0.97891 0.0
H2340 H 0.0189 0.70416 0.1375 0.0
H2341 H 1.00206 0.63515 0.12437 0.0
H2342 H 0.99676 0.71565 0.10516 0.0
H2343 H 0.98063 0.64642 0.09198 0.0
H2344 H 0.91995 0.71487 0.07749 0.0
H2345 H 0.9528 0.71187 0.10116 0.0
H2346 H 0.98349 0.66593 0.05328 0.0
H2347 H 0.95082 0.66911 0.0295 0.0
C2348 C 1.01108 0.69144 0.12726 0.0
C2349 C 1.01206 0.6688 0.13333 0.0
C2350 C 0.99838 0.698 0.10889 0.0
C2351 C 0.98707 0.68191 0.09608 0.0
C2352 C 0.9894 0.65916 0.10137 0.0
C2353 C 1.00158 0.6527 0.11995 0.0
C2354 C 0.93406 0.70478 0.07166 0.0
C2355 C 0.93275 0.69198 0.05186 0.0
C2356 C 0.95289 0.70313 0.08515 0.0
C2357 C 0.97054 0.68847 0.07912 0.0
C2358 C 0.97003 0.67723 0.05835 0.0
C2359 C 0.95135 0.67909 0.04475 0.0
H2360 H 0.40664 0.01728 0.09173 0.0
H2361 H 0.35287 0.97529 0.11582 0.0
H2362 H 0.40552 0.99847 0.05511 0.0
H2363 H 0.35203 0.9562 0.07986 0.0
H2364 H 0.35779 0.91392 0.02242 0.0
H2365 H 0.34915 0.95012 0.04032 0.0
H2366 H 0.41997 0.96164 0.0486 0.0
H2367 H 0.42829 0.92602 0.03055 0.0
C2368 C 0.39405 1.0046 0.08893 0.0
C2369 C 0.38021 0.99731 0.10668 0.0
C2370 C 0.39346 0.99373 0.06802 0.0
C2371 C 0.37909 0.97538 0.06465 0.0
C2372 C 0.36332 0.9702 0.08166 0.0
C2373 C 0.36392 0.98104 0.10245 0.0
C2374 C 0.37144 0.92478 0.02711 0.0
C2375 C 0.39367 0.91714 0.02557 0.0
C2376 C 0.36653 0.94542 0.03753 0.0
C2377 C 0.38382 0.95858 0.04649 0.0
C2378 C 0.40615 0.95212 0.04199 0.0
C2379 C 0.41099 0.93157 0.03172 0.0
H2380 H 0.64632 0.16435 0.05849 0.0
H2381 H 0.71346 0.18832 0.06801 0.0
H2382 H 0.65458 0.13109 0.08049 0.0
H2383 H 0.72167 0.15519 0.09079 0.0
H2384 H 0.70268 0.11577 0.1594 0.0
H2385 H 0.70363 0.14439 0.13021 0.0
H2386 H 0.6805 0.09583 0.08201 0.0
H2387 H 0.67997 0.0671 0.11108 0.0
C2388 C 0.66308 0.16208 0.06477 0.0
C2389 C 0.67938 0.17859 0.06133 0.0
C2390 C 0.66781 0.1431 0.07739 0.0
C2391 C 0.68876 0.14056 0.08738 0.0
C2392 C 0.7054 0.15673 0.08325 0.0
C2393 C 0.7008 0.17552 0.07008 0.0
C2394 C 0.69833 0.11111 0.14244 0.0
C2395 C 0.69117 0.08926 0.13752 0.0
C2396 C 0.69897 0.12744 0.12572 0.0
C2397 C 0.69208 0.12234 0.10385 0.0
C2398 C 0.68585 0.10023 0.09873 0.0
C2399 C 0.6856 0.0838 0.11535 0.0
H2400 H 0.59111 0.69236 0.92165 0.0
H2401 H 0.54989 0.67078 0.86699 0.0
H2402 H 0.61582 0.6603 0.91518 0.0
H2403 H 0.57502 0.63888 0.85996 0.0
H2404 H 0.6671 0.61103 0.8883 0.0
H2405 H 0.6434 0.64448 0.89026 0.0
H2406 H 0.58549 0.60395 0.87604 0.0
H2407 H 0.60937 0.57076 0.87341 0.0
C2408 C 0.58748 0.68083 0.90808 0.0
C2409 C 0.5686 0.68406 0.89482 0.0
C2410 C 0.60175 0.66252 0.90423 0.0
C2411 C 0.59756 0.64697 0.88695 0.0
C2412 C 0.57868 0.65035 0.87356 0.0
C2413 C 0.56434 0.66868 0.87748 0.0
C2414 C 0.64936 0.60938 0.88527 0.0
C2415 C 0.64007 0.58832 0.88074 0.0
C2416 C 0.63571 0.62851 0.88659 0.0
C2417 C 0.61242 0.62696 0.88354 0.0
C2418 C 0.60333 0.6059 0.87825 0.0
C2419 C 0.61701 0.58682 0.87683 0.0
H2420 H 0.37776 0.58017 0.92077 0.0
H2421 H 0.39713 0.54215 0.86151 0.0
H2422 H 0.41277 0.60125 0.91805 0.0
H2423 H 0.43197 0.56369 0.85847 0.0
H2424 H 0.48595 0.62156 0.91741 0.0
H2425 H 0.45672 0.59289 0.91947 0.0
H2426 H 0.43858 0.60726 0.85139 0.0
H2427 H 0.46734 0.63627 0.84954 0.0
C2428 C 0.38953 0.57634 0.90719 0.0
C2429 C 0.38476 0.55965 0.89129 0.0
C2430 C 0.40961 0.58823 0.90575 0.0
C2431 C 0.4251 0.58393 0.88815 0.0
C2432 C 0.42032 0.56723 0.87223 0.0
C2433 C 0.40043 0.555 0.87395 0.0
C2434 C 0.47621 0.61805 0.90266 0.0
C2435 C 0.47883 0.63107 0.88331 0.0
C2436 C 0.45938 0.60183 0.90392 0.0
C2437 C 0.44531 0.59807 0.88565 0.0
C2438 C 0.44925 0.60979 0.86566 0.0
C2439 C 0.46572 0.62632 0.86458 0.0
H2440 H 0.36517 0.45974 0.94338 0.0
H2441 H 0.3661 0.46486 0.87126 0.0
H2442 H 0.39542 0.43239 0.94117 0.0
H2443 H 0.39623 0.43664 0.86887 0.0
H2444 H 0.46066 0.39177 0.87679 0.0
H2445 H 0.43555 0.42467 0.87737 0.0
H2446 H 0.39536 0.39393 0.92961 0.0
H2447 H 0.42032 0.36189 0.92932 0.0
C2448 C 0.37213 0.45522 0.92702 0.0
C2449 C 0.3632 0.46433 0.90751 0.0
C2450 C 0.38936 0.43936 0.92571 0.0
C2451 C 0.39796 0.43185 0.90481 0.0
C2452 C 0.39002 0.44203 0.88524 0.0
C2453 C 0.37278 0.45819 0.88659 0.0
C2454 C 0.44648 0.39222 0.8884 0.0
C2455 C 0.44253 0.37428 0.90308 0.0
C2456 C 0.43205 0.41098 0.88869 0.0
C2457 C 0.41356 0.41215 0.90376 0.0
C2458 C 0.40968 0.39399 0.91816 0.0
C2459 C 0.42395 0.37544 0.91786 0.0
H2460 H 0.55758 0.39915 0.85336 0.0
H2461 H 0.51722 0.44032 0.89836 0.0
H2462 H 0.58181 0.43033 0.84553 0.0
H2463 H 0.54149 0.47247 0.89006 0.0
H2464 H 0.62861 0.48064 0.83404 0.0
H2465 H 0.59093 0.46536 0.83124 0.0
H2466 H 0.57852 0.48093 0.90141 0.0
H2467 H 0.61544 0.49761 0.90356 0.0
C2468 C 0.55356 0.41519 0.86113 0.0
C2469 C 0.53584 0.41728 0.87677 0.0
C2470 C 0.56734 0.43329 0.8564 0.0
C2471 C 0.56379 0.45407 0.86724 0.0
C2472 C 0.54487 0.45665 0.88162 0.0
C2473 C 0.53092 0.43834 0.88632 0.0
C2474 C 0.61738 0.48163 0.84853 0.0
C2475 C 0.625 0.48973 0.86911 0.0
C2476 C 0.59587 0.47274 0.84704 0.0
C2477 C 0.582 0.47102 0.86634 0.0
C2478 C 0.58868 0.4818 0.88619 0.0
C2479 C 0.60997 0.49127 0.8875 0.0
H2480 H 0.57307 0.33956 0.19603 0.0
H2481 H 0.53167 0.37938 0.15326 0.0
H2482 H 0.59784 0.37176 0.20146 0.0
H2483 H 0.55645 0.41102 0.15782 0.0
H2484 H 0.59391 0.47123 0.18009 0.0
H2485 H 0.56846 0.43938 0.18138 0.0
H2486 H 0.62517 0.3943 0.18429 0.0
H2487 H 0.65036 0.42629 0.18418 0.0
C2488 C 0.56933 0.35516 0.18775 0.0
C2489 C 0.55031 0.35699 0.17441 0.0
C2490 C 0.58355 0.37365 0.19076 0.0
C2491 C 0.57919 0.3943 0.18027 0.0
C2492 C 0.56019 0.39581 0.16677 0.0
C2493 C 0.54596 0.37751 0.164 0.0
C2494 C 0.60086 0.45452 0.18144 0.0
C2495 C 0.62412 0.45129 0.18199 0.0
C2496 C 0.58629 0.43615 0.18191 0.0
C2497 C 0.59462 0.414 0.18253 0.0
C2498 C 0.61795 0.41094 0.18401 0.0
C2499 C 0.63247 0.42935 0.18386 0.0
H2500 H 0.55307 0.63401 0.20647 0.0
H2501 H 0.52095 0.61195 0.14603 0.0
H2502 H 0.58086 0.60422 0.20195 0.0
H2503 H 0.54875 0.58186 0.14152 0.0
H2504 H 0.62453 0.56729 0.12317 0.0
H2505 H 0.58863 0.58539 0.1309 0.0
H2506 H 0.59087 0.56377 0.19978 0.0
H2507 H 0.62718 0.54547 0.19185 0.0
C2508 C 0.55161 0.62236 0.19254 0.0
C2509 C 0.53503 0.62541 0.17646 0.0
C2510 C 0.56746 0.60519 0.19002 0.0
C2511 C 0.56718 0.59078 0.17125 0.0
C2512 C 0.54957 0.59286 0.15603 0.0
C2513 C 0.53358 0.60999 0.15865 0.0
C2514 C 0.61713 0.56599 0.13986 0.0
C2515 C 0.62869 0.55523 0.15698 0.0
C2516 C 0.59644 0.57622 0.14426 0.0
C2517 C 0.58688 0.57613 0.16599 0.0
C2518 C 0.59789 0.56426 0.1829 0.0
C2519 C 0.61858 0.55371 0.17838 0.0
H2520 H 0.35682 0.58569 0.19602 0.0
H2521 H 0.35122 0.59464 0.12467 0.0
H2522 H 0.38869 0.61141 0.19638 0.0
H2523 H 0.38365 0.6191 0.1246 0.0
H2524 H 0.41798 0.68488 0.1349 0.0
H2525 H 0.39022 0.65571 0.13538 0.0
H2526 H 0.42663 0.62109 0.18666 0.0
H2527 H 0.45435 0.65148 0.18681 0.0
C2528 C 0.36273 0.59282 0.18035 0.0
C2529 C 0.35136 0.58851 0.16037 0.0
C2530 C 0.38108 0.60748 0.18051 0.0
C2531 C 0.3886 0.61783 0.16059 0.0
C2532 C 0.37798 0.61217 0.14043 0.0
C2533 C 0.35946 0.59796 0.14038 0.0
C2534 C 0.4202 0.67107 0.1463 0.0
C2535 C 0.43839 0.67054 0.16084 0.0
C2536 C 0.40429 0.65408 0.14641 0.0
C2537 C 0.40618 0.63567 0.16081 0.0
C2538 C 0.4245 0.63503 0.17541 0.0
C2539 C 0.44045 0.65234 0.17545 0.0
H2540 H 0.38056 0.47684 0.15075 0.0
H2541 H 0.39117 0.51007 0.21422 0.0
H2542 H 0.41377 0.45365 0.15635 0.0
H2543 H 0.42413 0.48609 0.22024 0.0
H2544 H 0.44747 0.40526 0.22404 0.0
H2545 H 0.42348 0.43858 0.22272 0.0
H2546 H 0.45936 0.4606 0.16345 0.0
H2547 H 0.48381 0.42769 0.16512 0.0
C2548 C 0.39016 0.4793 0.16579 0.0
C2549 C 0.38338 0.49514 0.18208 0.0
C2550 C 0.4092 0.46616 0.16892 0.0
C2551 C 0.42149 0.46826 0.18864 0.0
C2552 C 0.41495 0.48435 0.20484 0.0
C2553 C 0.39618 0.49799 0.2014 0.0
C2554 C 0.4508 0.4177 0.2113 0.0
C2555 C 0.46735 0.41389 0.19461 0.0
C2556 C 0.43712 0.43674 0.21056 0.0
C2557 C 0.43955 0.45196 0.19289 0.0
C2558 C 0.45723 0.44905 0.17723 0.0
C2559 C 0.47123 0.43028 0.17825 0.0
H2560 H 0.83176 0.53739 0.66721 0.0
H2561 H 0.90085 0.54373 0.64587 0.0
H2562 H 0.82042 0.56112 0.6359 0.0
H2563 H 0.88977 0.5671 0.61478 0.0
H2564 H 0.86749 0.6069 0.55795 0.0
H2565 H 0.86958 0.57236 0.5796 0.0
H2566 H 0.82668 0.60205 0.63106 0.0
H2567 H 0.82452 0.63637 0.60937 0.0
C2568 C 0.84439 0.54313 0.65532 0.0
C2569 C 0.86716 0.5388 0.65887 0.0
C2570 C 0.83796 0.55687 0.63754 0.0
C2571 C 0.8542 0.56614 0.6229 0.0
C2572 C 0.87677 0.5601 0.6255 0.0
C2573 C 0.88316 0.54674 0.64337 0.0
C2574 C 0.85796 0.60576 0.57355 0.0
C2575 C 0.84605 0.62439 0.58212 0.0
C2576 C 0.85924 0.58603 0.58601 0.0
C2577 C 0.84851 0.58452 0.6072 0.0
C2578 C 0.83501 0.60253 0.61477 0.0
C2579 C 0.83387 0.62228 0.60239 0.0
H2580 H 0.40184 0.92033 0.58328 0.0
H2581 H 0.37935 0.8577 0.61107 0.0
H2582 H 0.42937 0.92375 0.61311 0.0
H2583 H 0.40716 0.86083 0.64052 0.0
H2584 H 0.47225 0.86752 0.68096 0.0
H2585 H 0.4501 0.86286 0.64704 0.0
H2586 H 0.42338 0.92963 0.6563 0.0
H2587 H 0.44516 0.93411 0.69043 0.0
C2588 C 0.40324 0.90698 0.59535 0.0
C2589 C 0.38851 0.88869 0.5948 0.0
C2590 C 0.41884 0.90904 0.61255 0.0
C2591 C 0.42034 0.89263 0.62925 0.0
C2592 C 0.4065 0.8737 0.62785 0.0
C2593 C 0.39061 0.87188 0.61097 0.0
C2594 C 0.4617 0.88121 0.67568 0.0
C2595 C 0.46029 0.90112 0.68842 0.0
C2596 C 0.44902 0.87854 0.65629 0.0
C2597 C 0.43503 0.89589 0.64896 0.0
C2598 C 0.43416 0.91604 0.66138 0.0
C2599 C 0.4465 0.91855 0.681 0.0
H2600 H 0.18851 0.39527 0.567 0.0
H2601 H 0.1228 0.38143 0.59484 0.0
H2602 H 0.18921 0.43087 0.58794 0.0
H2603 H 0.12339 0.41692 0.61552 0.0
H2604 H 0.18553 0.473 0.65845 0.0
H2605 H 0.18944 0.4431 0.63009 0.0
H2606 H 0.12335 0.45842 0.60643 0.0
H2607 H 0.11952 0.48809 0.63467 0.0
C2608 C 0.17421 0.39988 0.57756 0.0
C2609 C 0.15558 0.3856 0.57933 0.0
C2610 C 0.17465 0.42021 0.58953 0.0
C2611 C 0.15628 0.42681 0.60318 0.0
C2612 C 0.13765 0.4125 0.60484 0.0
C2613 C 0.13736 0.39208 0.59315 0.0
C2614 C 0.1724 0.47076 0.64636 0.0
C2615 C 0.1523 0.48297 0.64857 0.0
C2616 C 0.1745 0.45346 0.6303 0.0
C2617 C 0.15647 0.4481 0.61639 0.0
C2618 C 0.13735 0.46189 0.61718 0.0
C2619 C 0.13531 0.47912 0.63309 0.0
H2620 H 0.57249 0.18887 0.68143 0.0
H2621 H 0.60737 0.12783 0.69729 0.0
H2622 H 0.59642 0.19341 0.64813 0.0
H2623 H 0.63131 0.13218 0.66376 0.0
H2624 H 0.62538 0.17957 0.57689 0.0
H2625 H 0.60284 0.17716 0.61144 0.0
H2626 H 0.66098 0.15451 0.64687 0.0
H2627 H 0.68339 0.15665 0.61214 0.0
C2628 C 0.58532 0.1764 0.67779 0.0
C2629 C 0.58799 0.15796 0.69199 0.0
C2630 C 0.599 0.17894 0.65859 0.0
C2631 C 0.61585 0.16315 0.65306 0.0
C2632 C 0.61873 0.14484 0.66753 0.0
C2633 C 0.60495 0.14226 0.68673 0.0
C2634 C 0.63341 0.17436 0.59213 0.0
C2635 C 0.6562 0.16839 0.59177 0.0
C2636 C 0.62048 0.173 0.612 0.0
C2637 C 0.62998 0.16554 0.63208 0.0
C2638 C 0.65295 0.16002 0.63175 0.0
C2639 C 0.66589 0.16146 0.61187 0.0
H2640 H 0.88723 0.43048 0.48056 0.0
H2641 H 0.84197 0.39501 0.43755 0.0
H2642 H 0.88544 0.46307 0.45597 0.0
H2643 H 0.83986 0.42773 0.41317 0.0
H2644 H 0.83243 0.49717 0.37996 0.0
H2645 H 0.8286 0.46994 0.41062 0.0
H2646 H 0.90054 0.46722 0.41571 0.0
H2647 H 0.90428 0.49374 0.38498 0.0
C2648 C 0.87643 0.42984 0.46619 0.0
C2649 C 0.86477 0.41013 0.46099 0.0
C2650 C 0.87551 0.44848 0.45202 0.0
C2651 C 0.86258 0.44801 0.43252 0.0
C2652 C 0.84983 0.42875 0.42812 0.0
C2653 C 0.85108 0.40997 0.44207 0.0
C2654 C 0.84733 0.49107 0.388 0.0
C2655 C 0.86866 0.4976 0.38013 0.0
C2656 C 0.84518 0.47537 0.40542 0.0
C2657 C 0.86428 0.46639 0.41565 0.0
C2658 C 0.88548 0.47391 0.40843 0.0
C2659 C 0.88763 0.48909 0.39077 0.0
H2660 H 0.52123 0.88757 0.40743 0.0
H2661 H 0.56364 0.84155 0.36964 0.0
H2662 H 0.54839 0.88791 0.43778 0.0
H2663 H 0.59058 0.84181 0.39979 0.0
H2664 H 0.59752 0.8685 0.49463 0.0
H2665 H 0.56759 0.86445 0.46719 0.0
H2666 H 0.61645 0.871 0.41326 0.0
H2667 H 0.64605 0.87501 0.44047 0.0
C2668 C 0.53615 0.87726 0.40578 0.0
C2669 C 0.54043 0.86472 0.38607 0.0
C2670 C 0.55167 0.87741 0.42316 0.0
C2671 C 0.57179 0.86512 0.42106 0.0
C2672 C 0.57545 0.85178 0.40177 0.0
C2673 C 0.55995 0.85154 0.38453 0.0
C2674 C 0.60178 0.86896 0.47689 0.0
C2675 C 0.6241 0.872 0.46966 0.0
C2676 C 0.58467 0.86675 0.46121 0.0
C2677 C 0.58966 0.86726 0.43804 0.0
C2678 C 0.61205 0.87018 0.43095 0.0
C2679 C 0.62902 0.8726 0.44655 0.0
H2680 H 0.17651 0.61747 0.36659 0.0
H2681 H 0.11518 0.59437 0.39781 0.0
H2682 H 0.1883 0.63269 0.40304 0.0
H2683 H 0.12622 0.60986 0.43344 0.0
H2684 H 0.15232 0.62432 0.49987 0.0
H2685 H 0.14946 0.60497 0.46377 0.0
H2686 H 0.18212 0.66057 0.43093 0.0
H2687 H 0.18605 0.67911 0.46708 0.0
C2688 C 0.1654 0.61605 0.38109 0.0
C2689 C 0.1449 0.60482 0.3793 0.0
C2690 C 0.17215 0.62461 0.40205 0.0
C2691 C 0.15846 0.62217 0.42156 0.0
C2692 C 0.13769 0.6115 0.41926 0.0
C2693 C 0.13114 0.60289 0.3986 0.0
C2694 C 0.15964 0.63198 0.48506 0.0
C2695 C 0.16923 0.65334 0.4864 0.0
C2696 C 0.15764 0.62111 0.46419 0.0
C2697 C 0.16485 0.63148 0.44408 0.0
C2698 C 0.17627 0.65195 0.44582 0.0
C2699 C 0.17852 0.66264 0.46668 0.0
H2700 H 0.43324 0.11565 0.37603 0.0
H2701 H 0.46616 0.17912 0.38531 0.0
H2702 H 0.40925 0.1234 0.40915 0.0
H2703 H 0.44165 0.18718 0.418 0.0
H2704 H 0.3686 0.20042 0.45129 0.0
H2705 H 0.39701 0.19301 0.42184 0.0
H2706 H 0.41416 0.13083 0.4536 0.0
H2707 H 0.38622 0.13864 0.48356 0.0
C2708 C 0.43537 0.13123 0.38517 0.0
C2709 C 0.45153 0.1468 0.378 0.0
C2710 C 0.42171 0.13562 0.40419 0.0
C2711 C 0.42353 0.15592 0.41618 0.0
C2712 C 0.43981 0.17143 0.40908 0.0
C2713 C 0.45385 0.1668 0.39039 0.0
C2714 C 0.37876 0.18539 0.45223 0.0
C2715 C 0.37524 0.17018 0.4698 0.0
C2716 C 0.39501 0.18114 0.43536 0.0
C2717 C 0.40776 0.16129 0.43532 0.0
C2718 C 0.40453 0.14623 0.45313 0.0
C2719 C 0.38866 0.15078 0.47035 0.0
H2720 H 0.55891 0.84287 0.64608 0.0
H2721 H 0.5272 0.90361 0.62384 0.0
H2722 H 0.58665 0.84566 0.61566 0.0
H2723 H 0.55498 0.90641 0.59332 0.0
H2724 H 0.63171 0.92313 0.58191 0.0
H2725 H 0.59515 0.91613 0.59921 0.0
H2726 H 0.59756 0.84787 0.57462 0.0
H2727 H 0.63436 0.85504 0.55706 0.0
C2728 C 0.55736 0.85634 0.63415 0.0
C2729 C 0.54112 0.87319 0.6375 0.0
C2730 C 0.57324 0.85793 0.61668 0.0
C2731 C 0.57325 0.87649 0.60235 0.0
C2732 C 0.55558 0.89209 0.60433 0.0
C2733 C 0.53958 0.8904 0.6217 0.0
C2734 C 0.62423 0.90676 0.57983 0.0
C2735 C 0.63591 0.88956 0.5684 0.0
C2736 C 0.60319 0.90279 0.58956 0.0
C2737 C 0.59344 0.88143 0.58829 0.0
C2738 C 0.60469 0.86447 0.57592 0.0
C2739 C 0.62569 0.86857 0.56587 0.0
H2740 H 0.54127 0.20392 0.42043 0.0
H2741 H 0.54168 0.13329 0.43459 0.0
H2742 H 0.56901 0.21023 0.4492 0.0
H2743 H 0.57067 0.13905 0.46211 0.0
H2744 H 0.62575 0.15078 0.50894 0.0
H2745 H 0.58771 0.1514 0.49448 0.0
H2746 H 0.60677 0.20512 0.44986 0.0
H2747 H 0.64386 0.20518 0.46516 0.0
C2748 C 0.54706 0.18979 0.43004 0.0
C2749 C 0.53948 0.16813 0.42521 0.0
C2750 C 0.56323 0.19331 0.44636 0.0
C2751 C 0.57282 0.1751 0.45768 0.0
C2752 C 0.5638 0.15361 0.454 0.0
C2753 C 0.54714 0.15022 0.4381 0.0
C2754 C 0.62146 0.1632 0.4966 0.0
C2755 C 0.6379 0.1777 0.48793 0.0
C2756 C 0.59971 0.16339 0.48804 0.0
C2757 C 0.59401 0.17795 0.47052 0.0
C2758 C 0.61009 0.19371 0.46339 0.0
C2759 C 0.63161 0.19369 0.4721 0.0
H2760 H 0.84883 0.57518 0.43305 0.0
H2761 H 0.83625 0.62828 0.38641 0.0
H2762 H 0.85054 0.60258 0.46364 0.0
H2763 H 0.83933 0.6558 0.41637 0.0
H2764 H 0.83402 0.70259 0.47565 0.0
H2765 H 0.82586 0.67369 0.44787 0.0
H2766 H 0.87312 0.62933 0.47925 0.0
H2767 H 0.88001 0.65786 0.50769 0.0
C2768 C 0.84624 0.59272 0.42939 0.0
C2769 C 0.8423 0.59953 0.40733 0.0
C2770 C 0.84753 0.60856 0.44689 0.0
C2771 C 0.84537 0.63171 0.44272 0.0
C2772 C 0.84075 0.63829 0.42062 0.0
C2773 C 0.83905 0.62244 0.40327 0.0
C2774 C 0.84251 0.68657 0.47662 0.0
C2775 C 0.85771 0.68253 0.49378 0.0
C2776 C 0.83798 0.66995 0.46056 0.0
C2777 C 0.8489 0.64894 0.46092 0.0
C2778 C 0.86397 0.64496 0.4784 0.0
C2779 C 0.86814 0.66144 0.49469 0.0
H2780 H 0.34726 0.92792 0.48108 0.0
H2781 H 0.34893 0.86329 0.51287 0.0
H2782 H 0.38079 0.91785 0.45876 0.0
H2783 H 0.38209 0.85294 0.48986 0.0
H2784 H 0.41454 0.84435 0.41276 0.0
H2785 H 0.38545 0.85109 0.44171 0.0
H2786 H 0.42506 0.90424 0.46978 0.0
H2787 H 0.45456 0.897 0.44134 0.0
C2788 C 0.35484 0.91158 0.48329 0.0
C2789 C 0.34552 0.89633 0.49859 0.0
C2790 C 0.37404 0.9059 0.47065 0.0
C2791 C 0.38396 0.88467 0.47272 0.0
C2792 C 0.37472 0.86941 0.48807 0.0
C2793 C 0.35581 0.87533 0.50116 0.0
C2794 C 0.4173 0.85701 0.42553 0.0
C2795 C 0.43677 0.87012 0.4249 0.0
C2796 C 0.40069 0.86085 0.44203 0.0
C2797 C 0.40307 0.87823 0.45781 0.0
C2798 C 0.42292 0.89075 0.45775 0.0
C2799 C 0.43979 0.88652 0.4416 0.0
H2800 H 0.17641 0.53967 0.44023 0.0
H2801 H 0.10933 0.51319 0.44348 0.0
H2802 H 0.18687 0.51575 0.4716 0.0
H2803 H 0.11952 0.48969 0.47479 0.0
H2804 H 0.14034 0.44693 0.52943 0.0
H2805 H 0.13412 0.48412 0.51369 0.0
H2806 H 0.19001 0.47352 0.4676 0.0
H2807 H 0.19609 0.43649 0.48322 0.0
C2808 C 0.16369 0.52946 0.44829 0.0
C2809 C 0.14217 0.52796 0.43939 0.0
C2810 C 0.16968 0.51573 0.46613 0.0
C2811 C 0.15408 0.50069 0.47548 0.0
C2812 C 0.13189 0.50118 0.46809 0.0
C2813 C 0.12605 0.51456 0.45007 0.0
C2814 C 0.15167 0.45288 0.51639 0.0
C2815 C 0.16841 0.43879 0.5072 0.0
C2816 C 0.14812 0.47413 0.50742 0.0
C2817 C 0.16146 0.48164 0.48931 0.0
C2818 C 0.17958 0.46832 0.48167 0.0
C2819 C 0.18295 0.44702 0.49047 0.0
H2820 H 0.42421 0.14638 0.57021 0.0
H2821 H 0.42827 0.21519 0.54916 0.0
H2822 H 0.45943 0.15017 0.58957 0.0
H2823 H 0.46382 0.21919 0.56896 0.0
H2824 H 0.49524 0.21868 0.64286 0.0
H2825 H 0.47082 0.2191 0.61062 0.0
H2826 H 0.50058 0.15711 0.58664 0.0
H2827 H 0.52508 0.15672 0.61907 0.0
C2828 C 0.43293 0.16224 0.56938 0.0
C2829 C 0.42348 0.18054 0.55836 0.0
C2830 C 0.45324 0.16436 0.58031 0.0
C2831 C 0.46448 0.18498 0.58079 0.0
C2832 C 0.45553 0.2031 0.56888 0.0
C2833 C 0.43526 0.20082 0.55753 0.0
C2834 C 0.49716 0.20559 0.63025 0.0
C2835 C 0.51182 0.18752 0.63359 0.0
C2836 C 0.4832 0.20586 0.61172 0.0
C2837 C 0.4835 0.18794 0.59627 0.0
C2838 C 0.49978 0.17101 0.59844 0.0
C2839 C 0.51392 0.17085 0.61691 0.0
H2840 H 0.89596 0.38579 0.53963 0.0
H2841 H 0.85865 0.33761 0.57861 0.0
H2842 H 0.8914 0.41329 0.56993 0.0
H2843 H 0.8534 0.36526 0.60869 0.0
H2844 H 0.87316 0.40962 0.6684 0.0
H2845 H 0.87432 0.38296 0.63715 0.0
H2846 H 0.86669 0.43743 0.59064 0.0
H2847 H 0.86623 0.46408 0.62201 0.0
C2848 C 0.88645 0.3812 0.55455 0.0
C2849 C 0.87779 0.35948 0.55679 0.0
C2850 C 0.88373 0.39702 0.57194 0.0
C2851 C 0.87216 0.39156 0.59199 0.0
C2852 C 0.86282 0.37001 0.59379 0.0
C2853 C 0.86565 0.35417 0.57645 0.0
C2854 C 0.87162 0.41586 0.6515 0.0
C2855 C 0.86966 0.43893 0.64766 0.0
C2856 C 0.87213 0.40055 0.63352 0.0
C2857 C 0.8706 0.40792 0.6112 0.0
C2858 C 0.86825 0.43107 0.60748 0.0
C2859 C 0.86783 0.44638 0.62548 0.0
H2860 H 0.11674 0.57512 0.63891 0.0
H2861 H 0.1693 0.60847 0.67467 0.0
H2862 H 0.11106 0.60883 0.61644 0.0
H2863 H 0.16412 0.64193 0.65163 0.0
H2864 H 0.16256 0.68346 0.5836 0.0
H2865 H 0.16821 0.65026 0.6068 0.0
H2866 H 0.09836 0.65178 0.62669 0.0
H2867 H 0.09286 0.68548 0.60407 0.0
C2868 C 0.1272 0.58959 0.64183 0.0
C2869 C 0.14349 0.58916 0.65852 0.0
C2870 C 0.12387 0.6089 0.62905 0.0
C2871 C 0.13713 0.62801 0.6323 0.0
C2872 C 0.1537 0.62743 0.64873 0.0
C2873 C 0.15664 0.60831 0.66191 0.0
C2874 C 0.14845 0.67678 0.59305 0.0
C2875 C 0.12729 0.68712 0.59214 0.0
C2876 C 0.1517 0.65783 0.60634 0.0
C2877 C 0.13373 0.64843 0.61855 0.0
C2878 C 0.1125 0.65862 0.61742 0.0
C2879 C 0.10937 0.67794 0.60457 0.0
H2880 H 0.15931 0.20814 0.44584 0.0
H2881 H 0.14634 0.25804 0.39577 0.0
H2882 H 0.18761 0.23226 0.46209 0.0
H2883 H 0.17456 0.28194 0.41176 0.0
H2884 H 0.1526 0.29579 0.50061 0.0
H2885 H 0.16194 0.26165 0.48018 0.0
H2886 H 0.20463 0.29899 0.43465 0.0
H2887 H 0.19517 0.33331 0.45536 0.0
C2888 C 0.16338 0.22374 0.4376 0.0
C2889 C 0.14986 0.23215 0.42063 0.0
C2890 C 0.17981 0.23739 0.4467 0.0
C2891 C 0.18204 0.25947 0.4391 0.0
C2892 C 0.17256 0.26528 0.41854 0.0
C2893 C 0.15607 0.25176 0.40953 0.0
C2894 C 0.16429 0.29658 0.48653 0.0
C2895 C 0.17261 0.31708 0.47908 0.0
C2896 C 0.17015 0.27698 0.47509 0.0
C2897 C 0.18411 0.27767 0.45575 0.0
C2898 C 0.19393 0.29801 0.4495 0.0
C2899 C 0.18812 0.31763 0.46105 0.0
H2900 H 0.68664 0.09468 0.4346 0.0
H2901 H 0.7394 0.1377 0.40988 0.0
H2902 H 0.70467 0.06251 0.41594 0.0
H2903 H 0.75675 0.10581 0.39032 0.0
H2904 H 0.78545 0.05009 0.35629 0.0
H2905 H 0.75023 0.07039 0.36136 0.0
H2906 H 0.74757 0.05118 0.43097 0.0
H2907 H 0.78314 0.03092 0.42594 0.0
C2908 C 0.70141 0.09746 0.42416 0.0
C2909 C 0.71188 0.11851 0.42371 0.0
C2910 C 0.71167 0.07905 0.4136 0.0
C2911 C 0.73198 0.08181 0.40184 0.0
C2912 C 0.74091 0.10339 0.39916 0.0
C2913 C 0.73106 0.12162 0.4103 0.0
C2914 C 0.77683 0.04942 0.37245 0.0
C2915 C 0.7871 0.03964 0.39097 0.0
C2916 C 0.75665 0.06086 0.37523 0.0
C2917 C 0.74654 0.06252 0.39655 0.0
C2918 C 0.75513 0.04996 0.41432 0.0
C2919 C 0.77547 0.03848 0.41153 0.0
H2920 H 0.98976 0.80941 0.44362 0.0
H2921 H 0.92452 0.80761 0.41393 0.0
H2922 H 0.97292 0.81482 0.48027 0.0
H2923 H 0.9071 0.80979 0.45109 0.0
H2924 H 0.87482 0.80842 0.51201 0.0
H2925 H 0.89648 0.82755 0.48306 0.0
H2926 H 0.95692 0.79693 0.50811 0.0
H2927 H 0.93559 0.78032 0.53796 0.0
C2928 C 0.97165 0.8092 0.44516 0.0
C2929 C 0.95828 0.80742 0.42616 0.0
C2930 C 0.96192 0.81248 0.46626 0.0
C2931 C 0.93852 0.81277 0.46905 0.0
C2932 C 0.92517 0.81042 0.44985 0.0
C2933 C 0.93502 0.80833 0.42853 0.0
C2934 C 0.89293 0.80704 0.51194 0.0
C2935 C 0.9036 0.79199 0.52609 0.0
C2936 C 0.90533 0.81755 0.4951 0.0
C2937 C 0.92812 0.81207 0.49186 0.0
C2938 C 0.93928 0.801 0.50922 0.0
C2939 C 0.92699 0.79132 0.52658 0.0
H2940 H 0.31031 0.95431 0.41178 0.0
H2941 H 0.30172 0.0245 0.42701 0.0
H2942 H 0.29452 0.94505 0.4484 0.0
H2943 H 0.2853 0.01533 0.46349 0.0
H2944 H 0.25925 0.97571 0.53009 0.0
H2945 H 0.28068 0.99498 0.50096 0.0
H2946 H 0.25147 0.95198 0.45097 0.0
H2947 H 0.23129 0.93183 0.48027 0.0
C2948 C 0.30641 0.96784 0.42347 0.0
C2949 C 0.30473 0.9899 0.41585 0.0
C2950 C 0.29668 0.96253 0.44417 0.0
C2951 C 0.28675 0.97951 0.45759 0.0
C2952 C 0.29156 1.0019 0.45272 0.0
C2953 C 0.30147 1.00709 0.43197 0.0
C2954 C 0.2565 0.97108 0.51275 0.0
C2955 C 0.24537 0.951 0.5074 0.0
C2956 C 0.26918 0.98188 0.49616 0.0
C2957 C 0.26909 0.97357 0.47412 0.0
C2958 C 0.25292 0.95761 0.46821 0.0
C2959 C 0.2407 0.9466 0.48488 0.0
H2960 H 0.05182 0.72691 0.59616 0.0
H2961 H 0.98673 0.75681 0.60679 0.0
H2962 H 0.04709 0.72907 0.55632 0.0
H2963 H 0.9832 0.7614 0.56656 0.0
H2964 H 0.06726 0.76204 0.50697 0.0
H2965 H 0.03013 0.74729 0.51416 0.0
H2966 H 0.02378 0.78923 0.57294 0.0
H2967 H 0.06201 0.80185 0.56764 0.0
C2968 C 0.03577 0.73245 0.59004 0.0
C2969 C 0.02063 0.74387 0.60428 0.0
C2970 C 0.03287 0.73357 0.56692 0.0
C2971 C 0.01589 0.74748 0.55857 0.0
C2972 C 0.99722 0.75179 0.57266 0.0
C2973 C 0.99948 0.74946 0.59585 0.0
C2974 C 0.05754 0.76921 0.52082 0.0
C2975 C 0.06803 0.78182 0.53778 0.0
C2976 C 0.03595 0.76091 0.52463 0.0
C2977 C 0.02474 0.76613 0.54489 0.0
C2978 C 0.03251 0.78445 0.55757 0.0
C2979 C 0.05459 0.79163 0.55467 0.0
H2980 H 0.25994 0.11069 0.65374 0.0
H2981 H 0.20052 0.12829 0.61768 0.0
H2982 H 0.27874 0.14351 0.63924 0.0
H2983 H 0.21937 0.16151 0.60303 0.0
H2984 H 0.28056 0.16448 0.54923 0.0
H2985 H 0.24896 0.15611 0.57404 0.0
H2986 H 0.28506 0.18282 0.63038 0.0
H2987 H 0.31697 0.19055 0.60547 0.0
C2988 C 0.25066 0.12212 0.64336 0.0
C2989 C 0.22919 0.11674 0.63616 0.0
C2990 C 0.26129 0.14113 0.63523 0.0
C2991 C 0.25064 0.15484 0.61956 0.0
C2992 C 0.22803 0.15102 0.61481 0.0
C2993 C 0.21731 0.13202 0.62313 0.0
C2994 C 0.28139 0.16919 0.56678 0.0
C2995 C 0.30131 0.17724 0.57575 0.0
C2996 C 0.26319 0.16472 0.581 0.0
C2997 C 0.2648 0.16832 0.60429 0.0
C2998 C 0.28359 0.17948 0.61258 0.0
C2999 C 0.30186 0.18373 0.59839 0.0
H3000 H 0.96673 0.29774 0.65953 0.0
H3001 H 0.03114 0.28929 0.62637 0.0
H3002 H 0.94896 0.29945 0.62325 0.0
H3003 H 0.01341 0.28892 0.59031 0.0
H3004 H 0.96985 0.28719 0.52741 0.0
H3005 H 0.99152 0.29788 0.55972 0.0
H3006 H 0.94296 0.26536 0.60318 0.0
H3007 H 0.92039 0.25636 0.57088 0.0
C3008 C 0.97722 0.29746 0.64447 0.0
C3009 C 0.99995 0.29188 0.64555 0.0
C3010 C 0.96701 0.29773 0.6237 0.0
C3011 C 0.97961 0.29239 0.60415 0.0
C3012 C 1.00308 0.29223 0.60512 0.0
C3013 C 0.01331 0.29271 0.6259 0.0
C3014 C 0.96416 0.28173 0.54383 0.0
C3015 C 0.94308 0.27163 0.54684 0.0
C3016 C 0.97647 0.28815 0.56239 0.0
C3017 C 0.96824 0.28369 0.5841 0.0
C3018 C 0.94901 0.27032 0.58671 0.0
C3019 C 0.93644 0.26443 0.5682 0.0
H3020 H 0.80436 0.01927 0.61934 0.0
H3021 H 0.80652 0.98311 0.68174 0.0
H3022 H 0.77961 0.99079 0.60404 0.0
H3023 H 0.78179 0.95457 0.66634 0.0
H3024 H 0.72348 0.91761 0.62662 0.0
H3025 H 0.74284 0.94671 0.64796 0.0
H3026 H 0.79376 0.95009 0.5956 0.0
H3027 H 0.77458 0.92119 0.57438 0.0
C3028 C 0.799 1.00559 0.62996 0.0
C3029 C 0.80772 1.00288 0.6514 0.0
C3030 C 0.78503 0.98928 0.6212 0.0
C3031 C 0.77951 0.97032 0.6339 0.0
C3032 C 0.7861 0.96899 0.65625 0.0
C3033 C 0.8002 0.98524 0.66498 0.0
C3034 C 0.73916 0.92416 0.62006 0.0
C3035 C 0.74751 0.9175 0.59883 0.0
C3036 C 0.75005 0.94086 0.63213 0.0
C3037 C 0.76922 0.95099 0.62292 0.0
C3038 C 0.77855 0.94291 0.60261 0.0
C3039 C 0.76779 0.92621 0.59067 0.0
H3040 H 0.43134 0.01539 0.30386 0.0
H3041 H 0.47217 0.98447 0.25202 0.0
H3042 H 0.45746 0.04634 0.30585 0.0
H3043 H 0.49707 0.01662 0.252 0.0
H3044 H 0.52102 0.09718 0.26495 0.0
H3045 H 0.51767 0.05666 0.26996 0.0
H3046 H 0.44613 0.06236 0.26273 0.0
H3047 H 0.4493 0.10278 0.25958 0.0
C3048 C 0.44675 0.01435 0.29399 0.0
C3049 C 0.44848 0.99958 0.27567 0.0
C3050 C 0.46154 0.03232 0.29481 0.0
C3051 C 0.47791 0.03454 0.27765 0.0
C3052 C 0.48386 0.0157 0.26468 0.0
C3053 C 0.46955 0.99724 0.26485 0.0
C3054 C 0.50466 0.08962 0.26366 0.0
C3055 C 0.48517 0.10307 0.26381 0.0
C3056 C 0.50282 0.06652 0.26677 0.0
C3057 C 0.48153 0.05699 0.26845 0.0
C3058 C 0.46265 0.0698 0.26284 0.0
C3059 C 0.46449 0.09284 0.26035 0.0
H3060 H 0.9815 0.41136 0.30327 0.0
H3061 H 0.01939 0.45566 0.26023 0.0
H3062 H 0.94807 0.43388 0.29765 0.0
H3063 H 0.98592 0.47643 0.25232 0.0
H3064 H 0.92333 0.52047 0.26031 0.0
H3065 H 0.95812 0.50017 0.26076 0.0
H3066 H 0.92172 0.43831 0.27069 0.0
H3067 H 0.88683 0.45947 0.27289 0.0
C3068 C 0.98273 0.4263 0.29314 0.0
C3069 C 1.00285 0.43176 0.28217 0.0
C3070 C 0.96347 0.43875 0.28918 0.0
C3071 C 0.96393 0.45634 0.27355 0.0
C3072 C 0.98467 0.46301 0.26433 0.0
C3073 C 1.00405 0.45116 0.26908 0.0
C3074 C 0.92267 0.5024 0.26177 0.0
C3075 C 0.90264 0.49158 0.26774 0.0
C3076 C 0.94279 0.49066 0.26217 0.0
C3077 C 0.94289 0.46772 0.26726 0.0
C3078 C 0.92233 0.45625 0.26832 0.0
C3079 C 0.90225 0.4682 0.26886 0.0
H3080 H 0.64786 0.93128 0.22424 0.0
H3081 H 0.6102 0.97756 0.26673 0.0
H3082 H 0.6162 0.90535 0.22487 0.0
H3083 H 0.5789 0.95175 0.26752 0.0
H3084 H 0.52067 0.91837 0.25929 0.0
H3085 H 0.55099 0.93695 0.23887 0.0
H3086 H 0.59599 0.88297 0.25529 0.0
H3087 H 0.56564 0.86415 0.2751 0.0
C3088 C 0.633 0.93564 0.23409 0.0
C3089 C 0.63127 0.95633 0.24543 0.0
C3090 C 0.61486 0.92104 0.23408 0.0
C3091 C 0.59491 0.92711 0.24535 0.0
C3092 C 0.59381 0.94719 0.25783 0.0
C3093 C 0.61187 0.96167 0.2579 0.0
C3094 C 0.53673 0.90995 0.25747 0.0
C3095 C 0.54141 0.89058 0.26958 0.0
C3096 C 0.55402 0.92053 0.24582 0.0
C3097 C 0.57587 0.91178 0.24661 0.0
C3098 C 0.57933 0.89019 0.25487 0.0
C3099 C 0.562 0.87952 0.26635 0.0
H3100 H 0.06865 0.58417 0.30996 0.0
H3101 H 0.01681 0.58875 0.26115 0.0
H3102 H 0.06887 0.54362 0.30495 0.0
H3103 H 0.0179 0.54889 0.25573 0.0
H3104 H 0.10973 0.5117 0.27827 0.0
H3105 H 0.07003 0.5036 0.27532 0.0
H3106 H 0.06141 0.56474 0.23918 0.0
H3107 H 0.09942 0.57539 0.24677 0.0
C3108 C 0.05632 0.57647 0.29939 0.0
C3109 C 0.04333 0.58978 0.28558 0.0
C3110 C 0.05619 0.55317 0.29646 0.0
C3111 C 0.04592 0.5441 0.27727 0.0
C3112 C 0.02765 0.55604 0.26908 0.0
C3113 C 0.02704 0.57925 0.27233 0.0
C3114 C 0.09941 0.5232 0.2691 0.0
C3115 C 0.10663 0.54532 0.26523 0.0
C3116 C 0.07668 0.51819 0.26687 0.0
C3117 C 0.06223 0.53531 0.2601 0.0
C3118 C 0.07193 0.55238 0.24685 0.0
C3119 C 0.09392 0.5587 0.25116 0.0
H3120 H 0.46243 0.06366 0.77606 0.0
H3121 H 0.4429 1.01183 0.72979 0.0
H3122 H 0.49014 0.03865 0.7918 0.0
H3123 H 0.47148 0.98737 0.74446 0.0
H3124 H 0.45522 0.94924 0.80417 0.0
H3125 H 0.4513 0.98851 0.79456 0.0
H3126 H 0.52244 0.9928 0.78162 0.0
H3127 H 0.52664 0.95392 0.79318 0.0
C3128 C 0.46522 0.04754 0.76795 0.0
C3129 C 0.44904 0.0385 0.75353 0.0
C3130 C 0.48105 0.0332 0.77721 0.0
C3131 C 0.48183 1.01082 0.77014 0.0
C3132 C 0.4706 1.00452 0.75056 0.0
C3133 C 0.45438 0.01866 0.7419 0.0
C3134 C 0.47025 0.95895 0.80109 0.0
C3135 C 0.49096 0.94824 0.79773 0.0
C3136 C 0.46799 0.98135 0.79522 0.0
C3137 C 0.48648 0.99301 0.78625 0.0
C3138 C 0.50793 0.98385 0.78796 0.0
C3139 C 0.51022 0.96157 0.79462 0.0
H3140 H 0.06035 0.41755 0.7442 0.0
H3141 H 0.0807 0.35448 0.77224 0.0
H3142 H 0.08513 0.41067 0.71202 0.0
H3143 H 0.10578 0.34777 0.74023 0.0
H3144 H 0.141 0.42519 0.68388 0.0
H3145 H 0.11666 0.39258 0.68401 0.0
H3146 H 0.13301 0.38087 0.75318 0.0
H3147 H 0.15542 0.41451 0.75354 0.0
C3148 C 0.06927 0.40174 0.7429 0.0
C3149 C 0.07 0.38726 0.76112 0.0
C3150 C 0.08322 0.39747 0.72425 0.0
C3151 C 0.09853 0.37937 0.72456 0.0
C3152 C 0.09475 0.36222 0.74003 0.0
C3153 C 0.08085 0.36641 0.75865 0.0
C3154 C 0.14034 0.41482 0.6987 0.0
C3155 C 0.14908 0.42258 0.71905 0.0
C3156 C 0.12664 0.39595 0.69862 0.0
C3157 C 0.12199 0.38502 0.71889 0.0
C3158 C 0.13568 0.38946 0.73742 0.0
C3159 C 0.14843 0.40889 0.73784 0.0
H3160 H 0.61099 0.02635 0.74309 0.0
H3161 H 0.60538 0.09735 0.73314 0.0
H3162 H 0.5709 0.02455 0.75201 0.0
H3163 H 0.56527 0.09485 0.73797 0.0
H3164 H 0.5604 0.09926 0.80802 0.0
H3165 H 0.57547 0.06611 0.78969 0.0
H3166 H 0.51905 0.06388 0.74615 0.0
H3167 H 0.50267 0.09578 0.7661 0.0
C3168 C 0.60095 0.04128 0.74111 0.0
C3169 C 0.61125 0.06245 0.74017 0.0
C3170 C 0.57792 0.04006 0.74583 0.0
C3171 C 0.56526 0.05983 0.74677 0.0
C3172 C 0.57475 0.07942 0.73773 0.0
C3173 C 0.59794 0.08092 0.7349 0.0
C3174 C 0.55003 0.09049 0.79614 0.0
C3175 C 0.53167 0.10132 0.78675 0.0
C3176 C 0.55872 0.07132 0.7855 0.0
C3177 C 0.54914 0.06354 0.76552 0.0
C3178 C 0.52727 0.07025 0.76086 0.0
C3179 C 0.51796 0.08865 0.77243 0.0
H3180 H 0.9601 0.68153 0.77559 0.0
H3181 H 0.99728 0.62378 0.75107 0.0
H3182 H 0.92619 0.66667 0.75917 0.0
H3183 H 0.96348 0.60948 0.73392 0.0
H3184 H 0.90881 0.57767 0.78064 0.0
H3185 H 0.93541 0.60848 0.77966 0.0
H3186 H 0.90574 0.63347 0.71939 0.0
H3187 H 0.8785 0.60289 0.72062 0.0
C3188 C 0.96134 0.66639 0.76547 0.0
C3189 C 0.98077 0.65304 0.7655 0.0
C3190 C 0.94197 0.65809 0.75589 0.0
C3191 C 0.94239 0.63677 0.74605 0.0
C3192 C 0.96298 0.62594 0.74173 0.0
C3193 C 0.98225 0.63401 0.75167 0.0
C3194 C 0.90724 0.59033 0.76785 0.0
C3195 C 0.892 0.58781 0.75054 0.0
C3196 C 0.92254 0.60772 0.76711 0.0
C3197 C 0.92276 0.62259 0.74902 0.0
C3198 C 0.90584 0.62184 0.73323 0.0
C3199 C 0.89024 0.60453 0.73415 0.0
H3200 H 0.28852 0.40862 0.12406 0.0
H3201 H 0.217 0.3981 0.1261 0.0
H3202 H 0.2848 0.43383 0.15636 0.0
H3203 H 0.21317 0.42464 0.15734 0.0
H3204 H 0.27489 0.47825 0.21141 0.0
H3205 H 0.25883 0.44212 0.20185 0.0
H3206 H 0.23549 0.46922 0.1397 0.0
H3207 H 0.25263 0.50514 0.14858 0.0
C3208 C 0.27224 0.4108 0.13216 0.0
C3209 C 0.25308 0.40178 0.12259 0.0
C3210 C 0.27005 0.42514 0.1506 0.0
C3211 C 0.24865 0.43112 0.15898 0.0
C3212 C 0.22976 0.42 0.15119 0.0
C3213 C 0.23206 0.4049 0.13331 0.0
C3214 C 0.26537 0.47684 0.19618 0.0
C3215 C 0.26587 0.49397 0.18013 0.0
C3216 C 0.25597 0.45622 0.19094 0.0
C3217 C 0.24641 0.45302 0.16998 0.0
C3218 C 0.24287 0.47151 0.15603 0.0
C3219 C 0.25281 0.492 0.16099 0.0
H3220 H 0.27077 0.64651 0.92011 0.0
H3221 H 0.19984 0.64143 0.93448 0.0
H3222 H 0.2687 0.61373 0.89561 0.0
H3223 H 0.19815 0.6076 0.91131 0.0
H3224 H 0.25499 0.54206 0.92897 0.0
H3225 H 0.23024 0.57467 0.93161 0.0
H3226 H 0.24284 0.58846 0.8616 0.0
H3227 H 0.26682 0.55545 0.85872 0.0
C3228 C 0.25457 0.63914 0.91699 0.0
C3229 C 0.23558 0.64624 0.92917 0.0
C3230 C 0.25331 0.6204 0.90302 0.0
C3231 C 0.23325 0.60819 0.9019 0.0
C3232 C 0.21365 0.61693 0.91183 0.0
C3233 C 0.21472 0.63627 0.92505 0.0
C3234 C 0.25118 0.55111 0.91384 0.0
C3235 C 0.26329 0.547 0.8939 0.0
C3236 C 0.23693 0.5697 0.91526 0.0
C3237 C 0.23523 0.58419 0.89686 0.0
C3238 C 0.24402 0.57752 0.87593 0.0
C3239 C 0.25791 0.55879 0.87442 0.0
H3240 H 0.40494 0.17203 0.92421 0.0
H3241 H 0.37852 0.23931 0.92643 0.0
H3242 H 0.41707 0.17733 0.88529 0.0
H3243 H 0.38857 0.24383 0.88721 0.0
H3244 H 0.47064 0.2371 0.90832 0.0
H3245 H 0.44804 0.20465 0.8999 0.0
H3246 H 0.41219 0.24249 0.85059 0.0
H3247 H 0.43539 0.27487 0.85865 0.0
C3248 C 0.40054 0.18744 0.91588 0.0
C3249 C 0.39238 0.20594 0.92828 0.0
C3250 C 0.40692 0.19025 0.89341 0.0
C3251 C 0.40596 0.21181 0.88422 0.0
C3252 C 0.39125 0.22753 0.89455 0.0
C3253 C 0.3858 0.22526 0.91721 0.0
C3254 C 0.45842 0.23822 0.89518 0.0
C3255 C 0.45344 0.25872 0.88537 0.0
C3256 C 0.44576 0.21946 0.88982 0.0
C3257 C 0.42715 0.22162 0.8757 0.0
C3258 C 0.42583 0.24064 0.86214 0.0
C3259 C 0.43864 0.25937 0.86733 0.0
H3260 H 0.81114 0.37942 0.94979 0.0
H3261 H 0.77248 0.42694 0.98977 0.0
H3262 H 0.77799 0.3709 0.9278 0.0
H3263 H 0.73968 0.41874 0.96794 0.0
H3264 H 0.73408 0.41735 0.87902 0.0
H3265 H 0.76015 0.39605 0.90096 0.0
H3266 H 0.71085 0.39199 0.95482 0.0
H3267 H 0.6848 0.41383 0.93282 0.0
C3268 C 0.79552 0.38797 0.95386 0.0
C3269 C 0.79434 0.40427 0.97098 0.0
C3270 C 0.77655 0.38282 0.94156 0.0
C3271 C 0.75618 0.39387 0.94631 0.0
C3272 C 0.75494 0.40945 0.96418 0.0
C3273 C 0.77385 0.41461 0.97635 0.0
C3274 C 0.72838 0.41084 0.89504 0.0
C3275 C 0.7081 0.41814 0.90489 0.0
C3276 C 0.74328 0.39842 0.90761 0.0
C3277 C 0.73787 0.39354 0.93007 0.0
C3278 C 0.71561 0.39634 0.93778 0.0
C3279 C 0.70069 0.40883 0.9252 0.0
H3280 H 0.66249 0.79701 0.9708 0.0
H3281 H 0.62363 0.80035 0.0326 0.0
H3282 H 0.62871 0.78852 0.95038 0.0
H3283 H 0.5897 0.79487 1.01222 0.0
H3284 H 0.53202 0.77558 0.96728 0.0
H3285 H 0.56384 0.77852 0.99124 0.0
H3286 H 0.60094 0.81194 0.93814 0.0
H3287 H 0.56956 0.80648 0.91332 0.0
C3288 C 0.64682 0.79525 0.98009 0.0
C3289 C 0.64534 0.80054 1.00299 0.0
C3290 C 0.62732 0.79117 0.96834 0.0
C3291 C 0.60625 0.79276 0.97937 0.0
C3292 C 0.60543 0.79407 1.00291 0.0
C3293 C 0.62501 0.79711 0.01471 0.0
C3294 C 0.54668 0.78435 0.96099 0.0
C3295 C 0.54868 0.79033 0.93834 0.0
C3296 C 0.56515 0.78581 0.97473 0.0
C3297 C 0.5855 0.79435 0.96627 0.0
C3298 C 0.58601 0.80393 0.94475 0.0
C3299 C 0.5678 0.80161 0.93073 0.0
H3300 H 0.82919 0.66001 0.09463 0.0
H3301 H 0.79791 0.64356 0.03199 0.0
H3302 H 0.79943 0.6407 0.11512 0.0
H3303 H 0.76831 0.62359 0.05252 0.0
H3304 H 0.7328 0.61253 0.14371 0.0
H3305 H 0.75607 0.63934 0.12275 0.0
H3306 H 0.77495 0.58707 0.0754 0.0
H3307 H 0.75218 0.56044 0.09628 0.0
C3308 C 0.81576 0.65247 0.08527 0.0
C3309 C 0.8161 0.65249 0.06174 0.0
C3310 C 0.7987 0.64162 0.097 0.0
C3311 C 0.78189 0.63052 0.08529 0.0
C3312 C 0.78137 0.63185 0.0618 0.0
C3313 C 0.79833 0.64301 0.05008 0.0
C3314 C 0.74205 0.60688 0.12887 0.0
C3315 C 0.74093 0.58453 0.1216 0.0
C3316 C 0.75515 0.62215 0.11688 0.0
C3317 C 0.76686 0.61521 0.09735 0.0
C3318 C 0.76565 0.59286 0.09016 0.0
C3319 C 0.75289 0.5776 0.10226 0.0
H3320 H 0.39598 0.87212 0.10861 0.0
H3321 H 0.37986 0.80292 0.09563 0.0
H3322 H 0.40425 0.86308 0.14754 0.0
H3323 H 0.38673 0.79409 0.13451 0.0
H3324 H 0.46709 0.80673 0.15278 0.0
H3325 H 0.44067 0.83659 0.14521 0.0
H3326 H 0.38808 0.7998 0.17904 0.0
H3327 H 0.41476 0.77014 0.18725 0.0
C3328 C 0.39306 0.85524 0.11447 0.0
C3329 C 0.38821 0.83791 0.0993 0.0
C3330 C 0.39744 0.8502 0.13676 0.0
C3331 C 0.39649 0.82789 0.14388 0.0
C3332 C 0.38765 0.81147 0.1295 0.0
C3333 C 0.38408 0.81634 0.10712 0.0
C3334 C 0.45015 0.80556 0.15952 0.0
C3335 C 0.44248 0.7858 0.16938 0.0
C3336 C 0.43506 0.82286 0.15563 0.0
C3337 C 0.41216 0.81993 0.16077 0.0
C3338 C 0.40559 0.80219 0.17464 0.0
C3339 C 0.42077 0.78503 0.17886 0.0
H3340 H 0.63704 0.28237 0.11011 0.0
H3341 H 0.61181 0.29156 0.04356 0.0
H3342 H 0.59984 0.27201 0.12329 0.0
H3343 H 0.57561 0.27803 0.05559 0.0
H3344 H 0.50845 0.26883 0.09395 0.0
H3345 H 0.54245 0.27665 0.07323 0.0
H3346 H 0.58006 0.23915 0.12173 0.0
H3347 H 0.54596 0.23427 0.14403 0.0
C3348 C 0.62334 0.2829 0.09847 0.0
C3349 C 0.62748 0.28636 0.07561 0.0
C3350 C 0.60222 0.27591 0.10571 0.0
C3351 C 0.58519 0.27211 0.09008 0.0
C3352 C 0.58841 0.27981 0.06806 0.0
C3353 C 0.60924 0.28788 0.06117 0.0
C3354 C 0.52389 0.26144 0.09972 0.0
C3355 C 0.5253 0.25317 0.12161 0.0
C3356 C 0.54361 0.2662 0.08788 0.0
C3357 C 0.56433 0.2605 0.09711 0.0
C3358 C 0.5645 0.24567 0.11536 0.0
C3359 C 0.54485 0.24202 0.12772 0.0
H3360 H 0.98263 0.80841 0.60414 0.0
H3361 H 0.9607 0.80257 0.67329 0.0
H3362 H 0.95039 0.78638 0.5923 0.0
H3363 H 0.92889 0.77957 0.66144 0.0
H3364 H 0.90827 0.71045 0.62053 0.0
H3365 H 0.93352 0.73797 0.63679 0.0
H3366 H 0.90213 0.79026 0.59893 0.0
H3367 H 0.87588 0.76284 0.58348 0.0
C3368 C 0.97083 0.80246 0.61675 0.0
C3369 C 0.97403 0.80699 0.63959 0.0
C3370 C 0.95237 0.79009 0.60998 0.0
C3371 C 0.93727 0.78155 0.62603 0.0
C3372 C 0.94035 0.7862 0.64886 0.0
C3373 C 0.95847 0.79919 0.65559 0.0
C3374 C 0.9064 0.7279 0.61606 0.0
C3375 C 0.89056 0.73453 0.60034 0.0
C3376 C 0.92079 0.74357 0.62539 0.0
C3377 C 0.91971 0.76603 0.61891 0.0
C3378 C 0.9032 0.77293 0.60402 0.0
C3379 C 0.88838 0.75729 0.59512 0.0
H3380 H 0.27067 1.00334 0.67386 0.0
H3381 H 0.26318 0.03588 0.61008 0.0
H3382 H 0.30724 0.9898 0.6618 0.0
H3383 H 0.30005 0.02204 0.5984 0.0
H3384 H 0.26747 0.94915 0.58396 0.0
H3385 H 0.27295 0.98674 0.59754 0.0
H3386 H 0.32967 0.96467 0.63586 0.0
H3387 H 0.32392 0.92657 0.62194 0.0
C3388 C 0.27737 1.00862 0.65774 0.0
C3389 C 0.26349 0.01846 0.64184 0.0
C3390 C 0.29857 1.00117 0.65086 0.0
C3391 C 0.3037 1.00152 0.62779 0.0
C3392 C 0.29457 0.01936 0.6156 0.0
C3393 C 0.2732 0.02702 0.62211 0.0
C3394 C 0.28063 0.95221 0.59584 0.0
C3395 C 0.29481 0.9349 0.60229 0.0
C3396 C 0.28448 0.97398 0.60301 0.0
C3397 C 0.30256 0.97903 0.61712 0.0
C3398 C 0.3161 0.96144 0.6245 0.0
C3399 C 0.31225 0.93954 0.61718 0.0
H3400 H 0.11162 0.21514 0.67958 0.0
H3401 H 0.06218 0.25384 0.64465 0.0
H3402 H 0.13907 0.22275 0.64936 0.0
H3403 H 0.08924 0.2615 0.61513 0.0
H3404 H 0.12383 0.2542 0.5548 0.0
H3405 H 0.1073 0.23328 0.58588 0.0
H3406 H 0.15788 0.25874 0.62998 0.0
H3407 H 0.17486 0.27909 0.5988 0.0
C3408 C 0.10682 0.22582 0.66588 0.0
C3409 C 0.08472 0.23386 0.66434 0.0
C3410 C 0.12237 0.22983 0.64853 0.0
C3411 C 0.11579 0.24176 0.62962 0.0
C3412 C 0.09438 0.25144 0.62918 0.0
C3413 C 0.07902 0.24754 0.64637 0.0
C3414 C 0.13208 0.25437 0.57083 0.0
C3415 C 0.14995 0.26884 0.57481 0.0
C3416 C 0.12265 0.24247 0.58857 0.0
C3417 C 0.13094 0.24527 0.61031 0.0
C3418 C 0.15111 0.25662 0.61338 0.0
C3419 C 0.16071 0.26833 0.59555 0.0
H3420 H 0.81191 0.06405 0.59161 0.0
H3421 H 0.80828 0.13508 0.60447 0.0
H3422 H 0.80512 0.06998 0.55214 0.0
H3423 H 0.79851 0.14121 0.56547 0.0
H3424 H 0.76497 0.15432 0.511 0.0
H3425 H 0.80046 0.14102 0.52561 0.0
H3426 H 0.77 0.07668 0.53886 0.0
H3427 H 0.73519 0.09008 0.52445 0.0
C3428 C 0.80933 0.08097 0.58587 0.0
C3429 C 0.80951 0.09909 0.60097 0.0
C3430 C 0.80569 0.08441 0.56326 0.0
C3431 C 0.80064 0.10595 0.55559 0.0
C3432 C 0.8024 0.12431 0.57059 0.0
C3433 C 0.80721 0.12088 0.59311 0.0
C3434 C 0.76648 0.13694 0.51583 0.0
C3435 C 0.74748 0.12338 0.51792 0.0
C3436 C 0.78673 0.12933 0.52425 0.0
C3437 C 0.7875 0.10847 0.535 0.0
C3438 C 0.76991 0.09322 0.53161 0.0
C3439 C 0.74974 0.10086 0.52344 0.0
H3440 H 0.03138 0.24331 0.46177 0.0
H3441 H 0.03044 0.27924 0.39933 0.0
H3442 H 0.99997 0.26602 0.47608 0.0
H3443 H 0.99913 0.30172 0.41336 0.0
H3444 H 0.92238 0.27899 0.47006 0.0
H3445 H 0.9602 0.26353 0.4636 0.0
H3446 H 0.98271 0.32792 0.43981 0.0
H3447 H 0.94546 0.34301 0.44582 0.0
C3448 C 0.02525 0.25687 0.45159 0.0
C3449 C 0.03313 0.25959 0.42942 0.0
C3450 C 1.00699 0.26952 0.45959 0.0
C3451 C 0.99672 0.28512 0.44558 0.0
C3452 C 1.00663 0.28978 0.42455 0.0
C3453 C 0.02472 0.27708 0.41654 0.0
C3454 C 0.93552 0.28971 0.46354 0.0
C3455 C 0.93103 0.31213 0.45862 0.0
C3456 C 0.95715 0.28102 0.46007 0.0
C3457 C 0.97445 0.29466 0.45143 0.0
C3458 C 0.96975 0.317 0.44635 0.0
C3459 C 0.9483 0.32556 0.44973 0.0
H3460 H 0.7829 0.92551 0.40493 0.0
H3461 H 0.84086 0.93246 0.44661 0.0
H3462 H 0.76629 0.89985 0.43219 0.0
H3463 H 0.82372 0.90756 0.47436 0.0
H3464 H 0.74119 0.85276 0.47989 0.0
H3465 H 0.77488 0.86086 0.4577 0.0
H3466 H 0.78202 0.92351 0.49346 0.0
H3467 H 0.74786 0.9158 0.51528 0.0
C3468 C 0.79231 0.92097 0.41957 0.0
C3469 C 0.81288 0.931 0.42394 0.0
C3470 C 0.78297 0.90623 0.43504 0.0
C3471 C 0.79391 0.90188 0.45519 0.0
C3472 C 0.81525 0.91059 0.45878 0.0
C3473 C 0.82488 0.92484 0.44298 0.0
C3474 C 0.75041 0.86792 0.48353 0.0
C3475 C 0.74167 0.88415 0.49854 0.0
C3476 C 0.76975 0.87234 0.47104 0.0
C3477 C 0.78064 0.89282 0.47384 0.0
C3478 C 0.77379 0.90752 0.49122 0.0
C3479 C 0.75421 0.90324 0.50353 0.0
H3480 H 0.02545 0.79307 0.42222 0.0
H3481 H 0.09008 0.80249 0.39006 0.0
H3482 H 0.0411 0.76322 0.44506 0.0
H3483 H 0.10577 0.77278 0.41286 0.0
H3484 H 0.12509 0.76232 0.4878 0.0
H3485 H 0.1072 0.78177 0.45701 0.0
H3486 H 0.06547 0.72415 0.44494 0.0
H3487 H 0.08358 0.70455 0.47561 0.0
C3488 C 0.04263 0.78787 0.41924 0.0
C3489 C 0.05672 0.79976 0.40466 0.0
C3490 C 0.05158 0.77097 0.43229 0.0
C3491 C 0.07458 0.76622 0.43072 0.0
C3492 C 0.08801 0.77648 0.41431 0.0
C3493 C 0.07909 0.79331 0.40135 0.0
C3494 C 0.11193 0.754 0.47872 0.0
C3495 C 0.10522 0.73231 0.48417 0.0
C3496 C 0.10198 0.76489 0.46101 0.0
C3497 C 0.08529 0.75413 0.4487 0.0
C3498 C 0.07841 0.73254 0.45429 0.0
C3499 C 0.08859 0.72153 0.47181 0.0
H3500 H 0.27185 0.17331 0.44555 0.0
H3501 H 0.25208 0.12287 0.49343 0.0
H3502 H 0.26197 0.14845 0.4149 0.0
H3503 H 0.2411 0.09832 0.46275 0.0
H3504 H 0.2668 0.04922 0.41191 0.0
H3505 H 0.26976 0.07947 0.43914 0.0
H3506 H 0.23728 0.12457 0.39357 0.0
H3507 H 0.23518 0.09445 0.36587 0.0
C3508 C 0.26427 0.15734 0.44953 0.0
C3509 C 0.26354 0.14946 0.47163 0.0
C3510 C 0.2587 0.14309 0.43196 0.0
C3511 C 0.2519 0.12115 0.43658 0.0
C3512 C 0.2473 0.1149 0.45887 0.0
C3513 C 0.25321 0.12902 0.4764 0.0
C3514 C 0.26104 0.06578 0.40741 0.0
C3515 C 0.2504 0.06946 0.38706 0.0
C3516 C 0.2622 0.08294 0.42317 0.0
C3517 C 0.25267 0.10397 0.41879 0.0
C3518 C 0.24427 0.10834 0.39748 0.0
C3519 C 0.24331 0.09117 0.38159 0.0
H3520 H 0.61141 0.01739 0.78194 0.0
H3521 H 0.6628 0.96883 0.79644 0.0
H3522 H 0.58937 0.98856 0.7644 0.0
H3523 H 0.63982 0.93925 0.78 0.0
H3524 H 0.59631 0.899 0.72846 0.0
H3525 H 0.62289 0.92474 0.74553 0.0
H3526 H 0.5679 0.95881 0.77987 0.0
H3527 H 0.54173 0.93442 0.76136 0.0
C3528 C 0.61821 1.00058 0.7809 0.0
C3529 C 0.63882 0.99532 0.79031 0.0
C3530 C 0.60536 0.98396 0.7713 0.0
C3531 C 0.61261 0.96159 0.77147 0.0
C3532 C 0.63384 0.95639 0.77977 0.0
C3533 C 0.64695 0.97325 0.78912 0.0
C3534 C 0.59007 0.91178 0.74002 0.0
C3535 C 0.56696 0.91462 0.74398 0.0
C3536 C 0.60524 0.92641 0.7498 0.0
C3537 C 0.59739 0.94396 0.76369 0.0
C3538 C 0.57439 0.94568 0.76884 0.0
C3539 C 0.55933 0.93134 0.75878 0.0
H3540 H 0.06004 0.63157 0.7866 0.0
H3541 H 0.10764 0.63645 0.83986 0.0
H3542 H 0.07771 0.59689 0.7735 0.0
H3543 H 0.1247 0.60112 0.82767 0.0
H3544 H 0.16442 0.55628 0.77551 0.0
H3545 H 0.1468 0.58497 0.79888 0.0
H3546 H 0.08164 0.5585 0.78293 0.0
H3547 H 0.09952 0.53042 0.75846 0.0
C3548 C 0.07464 0.62538 0.79514 0.0
C3549 C 0.08292 0.63686 0.81374 0.0
C3550 C 0.08437 0.60521 0.78812 0.0
C3551 C 0.10229 0.59589 0.79991 0.0
C3552 C 0.11098 0.60783 0.81818 0.0
C3553 C 0.10145 0.62823 0.82496 0.0
C3554 C 0.14636 0.55601 0.77784 0.0
C3555 C 0.13324 0.54173 0.76476 0.0
C3556 C 0.13621 0.57253 0.79119 0.0
C3557 C 0.11277 0.57466 0.79191 0.0
C3558 C 0.09976 0.55784 0.78187 0.0
C3559 C 0.10997 0.54145 0.76824 0.0
H3560 H 0.4101 0.11822 0.82983 0.0
H3561 H 0.38327 0.08265 0.77299 0.0
H3562 H 0.42971 0.14364 0.8044 0.0
H3563 H 0.40361 0.10768 0.74759 0.0
H3564 H 0.48478 0.11773 0.73624 0.0
H3565 H 0.45168 0.10354 0.75585 0.0
H3566 H 0.42552 0.17084 0.76285 0.0
H3567 H 0.45867 0.18514 0.74235 0.0
C3568 C 0.40788 0.1163 0.81192 0.0
C3569 C 0.39605 0.09811 0.80315 0.0
C3570 C 0.41884 0.13095 0.79747 0.0
C3571 C 0.4181 0.1273 0.77428 0.0
C3572 C 0.40419 0.11068 0.76552 0.0
C3573 C 0.3929 0.09627 0.77998 0.0
C3574 C 0.47192 0.12945 0.74184 0.0
C3575 C 0.47411 0.15243 0.73807 0.0
C3576 C 0.45295 0.12136 0.75272 0.0
C3577 C 0.43614 0.13621 0.76027 0.0
C3578 C 0.43827 0.15924 0.75668 0.0
C3579 C 0.45713 0.16732 0.74524 0.0
H3580 H 0.98865 0.39798 0.79889 0.0
H3581 H 0.97677 0.44915 0.84945 0.0
H3582 H 0.95917 0.41463 0.77597 0.0
H3583 H 0.9477 0.46566 0.82678 0.0
H3584 H 0.91608 0.50122 0.76602 0.0
H3585 H 0.94508 0.48513 0.78937 0.0
H3586 H 0.91595 0.4196 0.78106 0.0
H3587 H 0.88681 0.43568 0.75783 0.0
C3588 C 0.97991 0.41286 0.80491 0.0
C3589 C 0.98476 0.42226 0.82587 0.0
C3590 C 0.963 0.42224 0.79199 0.0
C3591 C 0.95111 0.44129 0.79978 0.0
C3592 C 0.95662 0.45102 0.8204 0.0
C3593 C 0.9732 0.44153 0.83335 0.0
C3594 C 0.9156 0.48347 0.76963 0.0
C3595 C 0.89924 0.4697 0.76019 0.0
C3596 C 0.93224 0.47426 0.78283 0.0
C3597 C 0.9329 0.4511 0.78663 0.0
C3598 C 0.91599 0.43745 0.77799 0.0
C3599 C 0.89917 0.44671 0.765 0.0
H3600 H 0.64743 0.09955 0.23569 0.0
H3601 H 0.61935 0.03525 0.25251 0.0
H3602 H 0.62232 0.11783 0.263 0.0
H3603 H 0.59394 0.05361 0.28011 0.0
H3604 H 0.5341 0.10096 0.30288 0.0
H3605 H 0.56068 0.08029 0.27833 0.0
H3606 H 0.61471 0.12054 0.30361 0.0
H3607 H 0.58817 0.14125 0.32754 0.0
C3608 C 0.63622 0.08926 0.24576 0.0
C3609 C 0.63554 0.066 0.24239 0.0
C3610 C 0.6218 0.09968 0.26133 0.0
C3611 C 0.60608 0.08714 0.27368 0.0
C3612 C 0.60576 0.06369 0.27075 0.0
C3613 C 0.62053 0.05319 0.25526 0.0
C3614 C 0.55156 0.10567 0.30266 0.0
C3615 C 0.55901 0.12313 0.31649 0.0
C3616 C 0.56685 0.09357 0.28903 0.0
C3617 C 0.58981 0.09884 0.28899 0.0
C3618 C 0.59714 0.11624 0.30303 0.0
C3619 C 0.58193 0.12813 0.3167 0.0
H3620 H 1.0008 0.62106 0.26535 0.0
H3621 H 0.95878 0.6611 0.22382 0.0
H3622 H 0.9682 0.60399 0.28275 0.0
H3623 H 0.92549 0.64452 0.24187 0.0
H3624 H 0.8801 0.62227 0.30783 0.0
H3625 H 0.90789 0.64155 0.28418 0.0
H3626 H 0.93757 0.57781 0.26578 0.0
H3627 H 0.91032 0.55887 0.28952 0.0
C3628 C 0.98468 0.6261 0.25989 0.0
C3629 C 0.98261 0.64177 0.24282 0.0
C3630 C 0.96589 0.61641 0.26985 0.0
C3631 C 0.94438 0.62253 0.26316 0.0
C3632 C 0.94198 0.63934 0.24707 0.0
C3633 C 0.96101 0.64885 0.23688 0.0
C3634 C 0.89208 0.6124 0.29802 0.0
C3635 C 0.89268 0.58898 0.30002 0.0
C3636 C 0.90791 0.62341 0.28454 0.0
C3637 C 0.92483 0.61111 0.27331 0.0
C3638 C 0.9246 0.58763 0.27428 0.0
C3639 C 0.90867 0.57668 0.28755 0.0
H3640 H 0.38207 0.95455 0.22833 0.0
H3641 H 0.4475 0.94607 0.19727 0.0
H3642 H 0.39337 0.93169 0.25975 0.0
H3643 H 0.45934 0.92379 0.22934 0.0
H3644 H 0.43129 0.92657 0.32461 0.0
H3645 H 0.41864 0.94199 0.28942 0.0
H3646 H 0.45452 0.88987 0.25268 0.0
H3647 H 0.46768 0.87474 0.28812 0.0
C3648 C 0.39875 0.94729 0.2281 0.0
C3649 C 0.41403 0.95197 0.21067 0.0
C3650 C 0.40529 0.93444 0.24612 0.0
C3651 C 0.42738 0.92646 0.24721 0.0
C3652 C 0.44219 0.92972 0.22887 0.0
C3653 C 0.43547 0.94236 0.21055 0.0
C3654 C 0.43635 0.91836 0.30902 0.0
C3655 C 0.45029 0.89948 0.30895 0.0
C3656 C 0.42902 0.92706 0.28889 0.0
C3657 C 0.43532 0.91687 0.26834 0.0
C3658 C 0.44945 0.89802 0.26828 0.0
C3659 C 0.45689 0.88937 0.28849 0.0
H3660 H 0.12418 0.42317 0.23247 0.0
H3661 H 0.07549 0.39912 0.28108 0.0
H3662 H 0.13743 0.45043 0.25974 0.0
H3663 H 0.08841 0.42704 0.30827 0.0
H3664 H 0.09492 0.50443 0.32636 0.0
H3665 H 0.08534 0.47145 0.30407 0.0
H3666 H 0.15516 0.45225 0.30023 0.0
H3667 H 0.16473 0.48514 0.32313 0.0
C3668 C 0.11653 0.42355 0.24911 0.0
C3669 C 0.09856 0.40947 0.25467 0.0
C3670 C 0.12418 0.43903 0.26467 0.0
C3671 C 0.11378 0.44076 0.28588 0.0
C3672 C 0.0965 0.42597 0.29185 0.0
C3673 C 0.08909 0.41017 0.27637 0.0
C3674 C 0.10818 0.49312 0.32074 0.0
C3675 C 0.13057 0.49721 0.32602 0.0
C3676 C 0.10268 0.4742 0.30831 0.0
C3677 C 0.11955 0.45941 0.30075 0.0
C3678 C 0.14196 0.46352 0.30603 0.0
C3679 C 0.14741 0.48224 0.3189 0.0
H3680 H 0.79325 0.62055 0.93396 0.0
H3681 H 0.8076 0.584 0.99419 0.0
H3682 H 0.77844 0.58642 0.91702 0.0
H3683 H 0.79392 0.54973 0.97702 0.0
H3684 H 0.72462 0.51962 0.95507 0.0
H3685 H 0.75619 0.53966 0.97004 0.0
H3686 H 0.78322 0.54822 0.90279 0.0
H3687 H 0.75107 0.5281 0.88789 0.0
C3688 C 0.79341 0.60514 0.94341 0.0
C3689 C 0.80077 0.60495 0.96553 0.0
C3690 C 0.78541 0.5855 0.93361 0.0
C3691 C 0.78502 0.56533 0.94573 0.0
C3692 C 0.79374 0.56502 0.96739 0.0
C3693 C 0.80132 0.58469 0.97728 0.0
C3694 C 0.73805 0.52459 0.94367 0.0
C3695 C 0.73553 0.5227 0.92048 0.0
C3696 C 0.75616 0.53618 0.95218 0.0
C3697 C 0.77181 0.54617 0.93749 0.0
C3698 C 0.77107 0.54113 0.91442 0.0
C3699 C 0.75292 0.52935 0.90591 0.0
H3700 H 0.80664 0.44347 0.04224 0.0
H3701 H 0.81065 0.4116 0.10687 0.0
H3702 H 0.7779 0.46919 0.05754 0.0
H3703 H 0.78262 0.43765 0.12213 0.0
H3704 H 0.74818 0.4994 0.14791 0.0
H3705 H 0.78059 0.4839 0.12689 0.0
H3706 H 0.7365 0.45819 0.07634 0.0
H3707 H 0.70425 0.47304 0.09753 0.0
C3708 C 0.80128 0.44193 0.05962 0.0
C3709 C 0.81063 0.42554 0.07339 0.0
C3710 C 0.78517 0.45675 0.06835 0.0
C3711 C 0.77871 0.45558 0.09103 0.0
C3712 C 0.7879 0.4391 0.10471 0.0
C3713 C 0.80362 0.42404 0.0959 0.0
C3714 C 0.74563 0.491 0.13199 0.0
C3715 C 0.724 0.48684 0.12441 0.0
C3716 C 0.76401 0.48222 0.12004 0.0
C3717 C 0.76075 0.46983 0.10025 0.0
C3718 C 0.73927 0.46779 0.09154 0.0
C3719 C 0.72092 0.47608 0.10371 0.0
H3720 H 0.60726 0.83574 0.12162 0.0
H3721 H 0.64278 0.77363 0.10872 0.0
H3722 H 0.58023 0.81601 0.14556 0.0
H3723 H 0.61597 0.754 0.13297 0.0
H3724 H 0.57011 0.72724 0.18725 0.0
H3725 H 0.59941 0.75272 0.17412 0.0
H3726 H 0.55183 0.78559 0.13175 0.0
H3727 H 0.52259 0.75988 0.14457 0.0
C3728 C 0.6096 0.81798 0.1244 0.0
C3729 C 0.62691 0.80607 0.11326 0.0
C3730 C 0.59414 0.80676 0.13801 0.0
C3731 C 0.59607 0.78357 0.14097 0.0
C3732 C 0.61429 0.77195 0.13106 0.0
C3733 C 0.62953 0.78311 0.11715 0.0
C3734 C 0.56584 0.74018 0.17544 0.0
C3735 C 0.54425 0.74148 0.16661 0.0
C3736 C 0.58257 0.7547 0.16798 0.0
C3737 C 0.57781 0.77095 0.15191 0.0
C3738 C 0.55582 0.77326 0.14429 0.0
C3739 C 0.53916 0.75853 0.1515 0.0
H3740 H 0.28027 0.62536 0.0271 0.0
H3741 H 0.29435 0.68866 0.05836 0.0
H3742 H 0.28434 0.60675 0.06282 0.0
H3743 H 0.29695 0.67078 0.09446 0.0
H3744 H 0.28438 0.62997 0.1589 0.0
H3745 H 0.30045 0.64637 0.12517 0.0
H3746 H 0.25047 0.61292 0.08566 0.0
H3747 H 0.23538 0.59535 0.11925 0.0
C3748 C 0.28565 0.63521 0.04135 0.0
C3749 C 0.28357 0.6586 0.04136 0.0
C3750 C 0.28738 0.6246 0.06198 0.0
C3751 C 0.28848 0.63773 0.08167 0.0
C3752 C 0.29474 0.6603 0.07976 0.0
C3753 C 0.29362 0.67054 0.05887 0.0
C3754 C 0.27632 0.62669 0.14309 0.0
C3755 C 0.25914 0.61067 0.14153 0.0
C3756 C 0.28588 0.63577 0.1237 0.0
C3757 C 0.27775 0.62967 0.10263 0.0
C3758 C 0.25812 0.61671 0.10156 0.0
C3759 C 0.24886 0.60731 0.12088 0.0
H3760 H 0.45057 0.24012 0.04173 0.0
H3761 H 0.38638 0.27345 0.04695 0.0
H3762 H 0.46515 0.26522 0.0705 0.0
H3763 H 0.40092 0.29866 0.07541 0.0
H3764 H 0.45772 0.27768 0.14897 0.0
H3765 H 0.45014 0.26156 0.11182 0.0
H3766 H 0.42937 0.32658 0.08868 0.0
H3767 H 0.43705 0.34256 0.12519 0.0
C3768 C 0.44004 0.25372 0.048 0.0
C3769 C 0.41732 0.25486 0.04251 0.0
C3770 C 0.44825 0.26776 0.06471 0.0
C3771 C 0.43387 0.28322 0.07556 0.0
C3772 C 0.41226 0.2867 0.06739 0.0
C3773 C 0.40399 0.27248 0.05093 0.0
C3774 C 0.45166 0.28841 0.13583 0.0
C3775 C 0.44856 0.31133 0.13974 0.0
C3776 C 0.44756 0.27934 0.11462 0.0
C3777 C 0.43981 0.29308 0.09732 0.0
C3778 C 0.43562 0.31576 0.10165 0.0
C3779 C 0.43983 0.32477 0.12268 0.0
H3780 H 0.29633 0.35663 1.0042 0.0
H3781 H 0.29486 0.4285 1.01045 0.0
H3782 H 0.31706 0.35952 0.96901 0.0
H3783 H 0.31763 0.43127 0.97644 0.0
H3784 H 0.25761 0.41436 0.92846 0.0
H3785 H 0.27464 0.39119 0.95686 0.0
H3786 H 0.34048 0.40835 0.93153 0.0
H3787 H 0.32349 0.42922 0.9014 0.0
C3788 C 0.30235 0.37299 0.99923 0.0
C3789 C 0.29248 0.39245 1.0086 0.0
C3790 C 0.31441 0.37457 0.97903 0.0
C3791 C 0.31718 0.39567 0.96936 0.0
C3792 C 0.31464 0.41476 0.98326 0.0
C3793 C 0.30155 0.41324 1.0029 0.0
C3794 C 0.27557 0.41165 0.9278 0.0
C3795 C 0.28916 0.42387 0.9131 0.0
C3796 C 0.28542 0.3985 0.9441 0.0
C3797 C 0.30887 0.39851 0.94653 0.0
C3798 C 0.32244 0.40805 0.9299 0.0
C3799 C 0.31255 0.42007 0.91273 0.0
H3800 H 0.65573 0.26687 0.94867 0.0
H3801 H 0.62031 0.26669 1.01254 0.0
H3802 H 0.62262 0.28311 0.93122 0.0
H3803 H 0.58741 0.28189 0.99529 0.0
H3804 H 0.54344 0.33374 0.96246 0.0
H3805 H 0.57512 0.31582 0.97956 0.0
H3806 H 0.58375 0.27285 0.92117 0.0
H3807 H 0.5519 0.29171 0.90359 0.0
C3808 C 0.64106 0.27067 0.95902 0.0
C3809 C 0.64066 0.26578 0.98202 0.0
C3810 C 0.62201 0.27952 0.94899 0.0
C3811 C 0.60235 0.28354 0.96184 0.0
C3812 C 0.60232 0.27922 0.98493 0.0
C3813 C 0.62128 0.27065 0.9949 0.0
C3814 C 0.55182 0.32012 0.95347 0.0
C3815 C 0.54539 0.31401 0.93181 0.0
C3816 C 0.56997 0.30984 0.96326 0.0
C3817 C 0.58208 0.29305 0.95164 0.0
C3818 C 0.5749 0.28602 0.93034 0.0
C3819 C 0.55652 0.29644 0.92045 0.0
H3820 H 0.43142 0.79517 1.00899 0.0
H3821 H 0.36802 0.78778 0.9763 0.0
H3822 H 0.44353 0.75918 0.99377 0.0
H3823 H 0.38009 0.75165 0.961 0.0
H3824 H 0.43716 0.74937 0.90175 0.0
H3825 H 0.40956 0.76043 0.93063 0.0
H3826 H 0.44337 0.71941 0.97896 0.0
H3827 H 0.4707 0.70843 0.95008 0.0
C3828 C 0.4196 0.78519 0.99968 0.0
C3829 C 0.3994 0.79442 0.99268 0.0
C3830 C 0.42644 0.76447 0.99102 0.0
C3831 C 0.41304 0.75331 0.97533 0.0
C3832 C 0.39088 0.76036 0.97255 0.0
C3833 C 0.38407 0.78104 0.98118 0.0
C3834 C 0.43832 0.74249 0.91844 0.0
C3835 C 0.45647 0.72908 0.92413 0.0
C3836 C 0.42238 0.74839 0.93488 0.0
C3837 C 0.42449 0.74078 0.95709 0.0
C3838 C 0.44148 0.72555 0.96205 0.0
C3839 C 0.45735 0.71972 0.94566 0.0
loop_
_geom_bond_atom_site_label_1
_geom_bond_atom_site_label_2
_geom_bond_distance
_geom_bond_site_symmetry_2
_ccdc_geom_bond_type
Tb0 O3 2.453 . S
Tb0 O4 2.596 . S
Tb0 O5 2.374 . S
Tb0 O13 2.343 . S
Tb0 O15 2.353 . S
Tb0 O17 2.427 . S
Tb0 O18 2.513 . S
C1 O5 1.251 . S
C1 O7 1.263 1_455 S
Tb2 O4 2.343 1_655 S
Tb2 O7 2.353 . S
Tb2 O10 2.427 . S
Tb2 O11 2.513 . S
Tb2 O12 2.453 . S
Tb2 O13 2.596 1_655 S
Tb2 O14 2.374 . S
O3 Tb0 2.453 . S
O3 C19 1.245 . S
O4 Tb0 2.596 . S
O4 Tb2 2.343 1_455 S
O4 C19 1.259 . S
O5 Tb0 2.374 . S
O5 C1 1.251 . S
C6 O10 1.275 . S
C6 O11 1.246 . S
O7 C1 1.263 1_655 S
O7 Tb2 2.353 . S
C8 O12 1.245 . S
C8 O13 1.259 1_655 S
C9 O14 1.250 1_455 S
C9 O15 1.263 . S
O10 Tb2 2.427 . S
O10 C6 1.275 . S
O11 Tb2 2.513 . S
O11 C6 1.246 . S
O12 Tb2 2.453 . S
O12 C8 1.245 . S
O13 Tb0 2.343 . S
O13 Tb2 2.596 1_455 S
O13 C8 1.259 1_455 S
O14 Tb2 2.374 . S
O14 C9 1.250 1_655 S
O15 Tb0 2.353 . S
O15 C9 1.263 . S
C16 O17 1.275 . S
C16 O18 1.246 . S
O17 Tb0 2.427 . S
O17 C16 1.275 . S
O18 Tb0 2.513 . S
O18 C16 1.246 . S
C19 O3 1.245 . S
C19 O4 1.259 . S
Tb20 O23 2.453 . S
Tb20 O24 2.596 . S
Tb20 O25 2.374 . S
Tb20 O33 2.343 1_545 S
Tb20 O35 2.353 . S
Tb20 O37 2.427 . S
Tb20 O38 2.513 . S
C21 O25 1.251 . S
C21 O27 1.263 1_545 S
Tb22 O24 2.343 1_565 S
Tb22 O27 2.353 . S
Tb22 O30 2.427 . S
Tb22 O31 2.513 . S
Tb22 O32 2.453 . S
Tb22 O33 2.596 . S
Tb22 O34 2.374 . S
O23 Tb20 2.453 . S
O23 C39 1.245 . S
O24 Tb20 2.596 . S
O24 Tb22 2.343 1_545 S
O24 C39 1.259 . S
O25 Tb20 2.374 . S
O25 C21 1.251 . S
C26 O30 1.275 . S
C26 O31 1.246 . S
O27 C21 1.263 1_565 S
O27 Tb22 2.353 . S
C28 O32 1.245 . S
C28 O33 1.259 . S
C29 O34 1.250 . S
C29 O35 1.263 1_565 S
O30 Tb22 2.427 . S
O30 C26 1.275 . S
O31 Tb22 2.513 . S
O31 C26 1.246 . S
O32 Tb22 2.453 . S
O32 C28 1.245 . S
O33 Tb20 2.343 1_565 S
O33 Tb22 2.596 . S
O33 C28 1.259 . S
O34 Tb22 2.374 . S
O34 C29 1.250 . S
O35 Tb20 2.353 . S
O35 C29 1.263 1_545 S
C36 O37 1.275 . S
C36 O38 1.246 . S
O37 Tb20 2.427 . S
O37 C36 1.275 . S
O38 Tb20 2.513 . S
O38 C36 1.246 . S
C39 O23 1.245 . S
C39 O24 1.259 . S
Tb40 O43 2.453 . S
Tb40 O44 2.594 1_655 S
Tb40 O45 2.374 . S
Tb40 O53 2.343 1_655 S
Tb40 O55 2.353 . S
Tb40 O57 2.427 . S
Tb40 O58 2.513 . S
C41 O45 1.251 1_455 S
C41 O47 1.263 . S
Tb42 O44 2.346 . S
Tb42 O47 2.353 . S
Tb42 O50 2.427 . S
Tb42 O51 2.513 . S
Tb42 O52 2.453 . S
Tb42 O53 2.596 . S
Tb42 O54 2.374 . S
O43 Tb40 2.453 . S
O43 C59 1.245 . S
O44 Tb40 2.594 1_455 S
O44 Tb42 2.346 . S
O44 C59 1.257 1_455 S
O45 Tb40 2.374 . S
O45 C41 1.251 1_655 S
C46 O50 1.275 . S
C46 O51 1.246 . S
O47 C41 1.263 . S
O47 Tb42 2.353 . S
C48 O52 1.245 . S
C48 O53 1.259 . S
C49 O54 1.250 . S
C49 O55 1.263 1_455 S
O50 Tb42 2.427 . S
O50 C46 1.275 . S
O51 Tb42 2.513 . S
O51 C46 1.246 . S
O52 Tb42 2.453 . S
O52 C48 1.245 . S
O53 Tb40 2.343 1_455 S
O53 Tb42 2.596 . S
O53 C48 1.259 . S
O54 Tb42 2.374 . S
O54 C49 1.250 . S
O55 Tb40 2.353 . S
O55 C49 1.263 1_655 S
C56 O57 1.275 . S
C56 O58 1.246 . S
O57 Tb40 2.427 . S
O57 C56 1.275 . S
O58 Tb40 2.513 . S
O58 C56 1.246 . S
C59 O43 1.245 . S
C59 O44 1.257 1_655 S
Tb60 O63 2.453 . S
Tb60 O64 2.596 1_565 S
Tb60 O65 2.374 . S
Tb60 O73 2.343 1_565 S
Tb60 O75 2.353 . S
Tb60 O77 2.427 . S
Tb60 O78 2.513 . S
C61 O65 1.251 1_545 S
C61 O67 1.263 . S
Tb62 O64 2.343 . S
Tb62 O67 2.353 . S
Tb62 O70 2.427 . S
Tb62 O71 2.513 . S
Tb62 O72 2.453 . S
Tb62 O73 2.596 . S
Tb62 O74 2.374 . S
O63 Tb60 2.453 . S
O63 C79 1.245 . S
O64 Tb60 2.596 1_545 S
O64 Tb62 2.343 . S
O64 C79 1.259 1_545 S
O65 Tb60 2.374 . S
O65 C61 1.251 1_565 S
C66 O70 1.275 . S
C66 O71 1.246 . S
O67 C61 1.263 . S
O67 Tb62 2.353 . S
C68 O72 1.245 . S
C68 O73 1.259 . S
C69 O74 1.250 . S
C69 O75 1.263 1_545 S
O70 Tb62 2.427 . S
O70 C66 1.275 . S
O71 Tb62 2.513 . S
O71 C66 1.246 . S
O72 Tb62 2.453 . S
O72 C68 1.245 . S
O73 Tb60 2.343 1_545 S
O73 Tb62 2.596 . S
O73 C68 1.259 . S
O74 Tb62 2.374 . S
O74 C69 1.250 . S
O75 Tb60 2.353 . S
O75 C69 1.263 1_565 S
C76 O77 1.275 . S
C76 O78 1.246 . S
O77 Tb60 2.427 . S
O77 C76 1.275 . S
O78 Tb60 2.513 . S
O78 C76 1.246 . S
C79 O63 1.245 . S
C79 O64 1.259 1_565 S
Tb80 O83 2.453 . S
Tb80 O84 2.596 . S
Tb80 O85 2.374 . S
Tb80 O93 2.343 . S
Tb80 O95 2.353 . S
Tb80 O97 2.427 . S
Tb80 O98 2.513 . S
C81 O85 1.251 . S
C81 O87 1.263 1_455 S
Tb82 O84 2.343 1_655 S
Tb82 O87 2.353 . S
Tb82 O90 2.427 . S
Tb82 O91 2.513 . S
Tb82 O92 2.453 . S
Tb82 O93 2.596 1_655 S
Tb82 O94 2.374 . S
O83 Tb80 2.453 . S
O83 C99 1.245 . S
O84 Tb80 2.596 . S
O84 Tb82 2.343 1_455 S
O84 C99 1.259 . S
O85 Tb80 2.374 . S
O85 C81 1.251 . S
C86 O90 1.275 . S
C86 O91 1.246 . S
O87 C81 1.263 1_655 S
O87 Tb82 2.353 . S
C88 O92 1.245 . S
C88 O93 1.259 1_655 S
C89 O94 1.250 1_455 S
C89 O95 1.263 . S
O90 Tb82 2.427 . S
O90 C86 1.275 . S
O91 Tb82 2.513 . S
O91 C86 1.246 . S
O92 Tb82 2.453 . S
O92 C88 1.245 . S
O93 Tb80 2.343 . S
O93 Tb82 2.596 1_455 S
O93 C88 1.259 1_455 S
O94 Tb82 2.374 . S
O94 C89 1.250 1_655 S
O95 Tb80 2.353 . S
O95 C89 1.263 . S
C96 O97 1.275 . S
C96 O98 1.246 . S
O97 Tb80 2.427 . S
O97 C96 1.275 . S
O98 Tb80 2.513 . S
O98 C96 1.246 . S
C99 O83 1.245 . S
C99 O84 1.259 . S
Tb100 O103 2.453 . S
Tb100 O104 2.596 . S
Tb100 O105 2.374 . S
Tb100 O113 2.347 . S
Tb100 O115 2.353 . S
Tb100 O117 2.427 . S
Tb100 O118 2.513 . S
C101 O105 1.251 . S
C101 O107 1.263 1_545 S
Tb102 O104 2.343 1_565 S
Tb102 O107 2.353 . S
Tb102 O110 2.427 . S
Tb102 O111 2.513 . S
Tb102 O112 2.453 . S
Tb102 O113 2.593 1_565 S
Tb102 O114 2.374 . S
O103 Tb100 2.453 . S
O103 C119 1.245 . S
O104 Tb100 2.596 . S
O104 Tb102 2.343 1_545 S
O104 C119 1.259 . S
O105 Tb100 2.374 . S
O105 C101 1.251 . S
C106 O110 1.275 . S
C106 O111 1.246 . S
O107 C101 1.263 1_565 S
O107 Tb102 2.353 . S
C108 O112 1.245 . S
C108 O113 1.256 1_565 S
C109 O114 1.250 1_545 S
C109 O115 1.263 . S
O110 Tb102 2.427 . S
O110 C106 1.275 . S
O111 Tb102 2.513 . S
O111 C106 1.246 . S
O112 Tb102 2.453 . S
O112 C108 1.245 . S
O113 Tb100 2.347 . S
O113 Tb102 2.593 1_545 S
O113 C108 1.256 1_545 S
O114 Tb102 2.374 . S
O114 C109 1.250 1_565 S
O115 Tb100 2.353 . S
O115 C109 1.263 . S
C116 O117 1.275 . S
C116 O118 1.246 . S
O117 Tb100 2.427 . S
O117 C116 1.275 . S
O118 Tb100 2.513 . S
O118 C116 1.246 . S
C119 O103 1.245 . S
C119 O104 1.259 . S
Tb120 O123 2.453 . S
Tb120 O124 2.596 . S
Tb120 O125 2.374 . S
Tb120 O133 2.343 1_655 S
Tb120 O135 2.353 . S
Tb120 O137 2.427 . S
Tb120 O138 2.513 . S
C121 O125 1.222 1_455 S
C121 O127 1.298 . S
Tb122 O124 2.343 1_455 S
Tb122 O127 2.353 . S
Tb122 O130 2.427 . S
Tb122 O131 2.513 . S
Tb122 O132 2.453 . S
Tb122 O133 2.596 . S
Tb122 O134 2.374 . S
O123 Tb120 2.453 . S
O123 C139 1.245 . S
O124 Tb120 2.596 . S
O124 Tb122 2.343 1_655 S
O124 C139 1.259 . S
O125 Tb120 2.374 . S
O125 C121 1.222 1_655 S
C126 O130 1.275 . S
C126 O131 1.246 . S
O127 C121 1.298 . S
O127 Tb122 2.353 . S
C128 O132 1.245 . S
C128 O133 1.259 . S
C129 O134 1.250 . S
C129 O135 1.263 1_455 S
O130 Tb122 2.427 . S
O130 C126 1.275 . S
O131 Tb122 2.513 . S
O131 C126 1.246 . S
O132 Tb122 2.453 . S
O132 C128 1.245 . S
O133 Tb120 2.343 1_455 S
O133 Tb122 2.596 . S
O133 C128 1.259 . S
O134 Tb122 2.374 . S
O134 C129 1.250 . S
O135 Tb120 2.353 . S
O135 C129 1.263 1_655 S
C136 O137 1.275 . S
C136 O138 1.246 . S
O137 Tb120 2.427 . S
O137 C136 1.275 . S
O138 Tb120 2.513 . S
O138 C136 1.246 . S
C139 O123 1.245 . S
C139 O124 1.259 . S
Tb140 O143 2.453 . S
Tb140 O144 2.596 1_565 S
Tb140 O145 2.374 1_565 S
Tb140 O153 2.343 1_565 S
Tb140 O155 2.353 1_565 S
Tb140 O157 2.427 . S
Tb140 O158 2.513 . S
C141 O145 1.251 . S
C141 O147 1.263 . S
Tb142 O144 2.343 . S
Tb142 O147 2.353 . S
Tb142 O150 2.427 . S
Tb142 O151 2.513 . S
Tb142 O152 2.453 . S
Tb142 O153 2.596 . S
Tb142 O154 2.374 . S
O143 Tb140 2.453 . S
O143 C159 1.245 . S
O144 Tb140 2.596 1_545 S
O144 Tb142 2.343 . S
O144 C159 1.259 1_545 S
O145 Tb140 2.374 1_545 S
O145 C141 1.251 . S
C146 O150 1.275 . S
C146 O151 1.246 . S
O147 C141 1.263 . S
O147 Tb142 2.353 . S
C148 O152 1.245 . S
C148 O153 1.259 . S
C149 O154 1.250 . S
C149 O155 1.263 . S
O150 Tb142 2.427 . S
O150 C146 1.275 . S
O151 Tb142 2.513 . S
O151 C146 1.246 . S
O152 Tb142 2.453 . S
O152 C148 1.245 . S
O153 Tb140 2.343 1_545 S
O153 Tb142 2.596 . S
O153 C148 1.259 . S
O154 Tb142 2.374 . S
O154 C149 1.250 . S
O155 Tb140 2.353 1_545 S
O155 C149 1.263 . S
C156 O157 1.275 . S
C156 O158 1.246 . S
O157 Tb140 2.427 . S
O157 C156 1.275 . S
O158 Tb140 2.513 . S
O158 C156 1.246 . S
C159 O143 1.245 . S
C159 O144 1.259 1_565 S
Tb160 O163 2.453 . S
Tb160 O164 2.596 . S
Tb160 O165 2.374 . S
Tb160 O173 2.343 1_545 S
Tb160 O175 2.353 . S
Tb160 O177 2.427 . S
Tb160 O178 2.513 . S
C161 O165 1.251 . S
C161 O167 1.263 1_545 S
Tb162 O164 2.343 1_565 S
Tb162 O167 2.353 . S
Tb162 O170 2.427 . S
Tb162 O171 2.513 . S
Tb162 O172 2.453 . S
Tb162 O173 2.596 . S
Tb162 O174 2.374 . S
O163 Tb160 2.453 . S
O163 C179 1.245 . S
O164 Tb160 2.596 . S
O164 Tb162 2.343 1_545 S
O164 C179 1.259 . S
O165 Tb160 2.374 . S
O165 C161 1.251 . S
C166 O170 1.275 . S
C166 O171 1.246 . S
O167 C161 1.263 1_565 S
O167 Tb162 2.353 . S
C168 O172 1.245 . S
C168 O173 1.259 . S
C169 O174 1.250 . S
C169 O175 1.263 1_565 S
O170 Tb162 2.427 . S
O170 C166 1.275 . S
O171 Tb162 2.513 . S
O171 C166 1.246 . S
O172 Tb162 2.453 . S
O172 C168 1.245 . S
O173 Tb160 2.343 1_565 S
O173 Tb162 2.596 . S
O173 C168 1.259 . S
O174 Tb162 2.374 . S
O174 C169 1.250 . S
O175 Tb160 2.353 . S
O175 C169 1.263 1_545 S
C176 O177 1.275 . S
C176 O178 1.246 . S
O177 Tb160 2.427 . S
O177 C176 1.275 . S
O178 Tb160 2.513 . S
O178 C176 1.246 . S
C179 O163 1.245 . S
C179 O164 1.259 . S
Tb180 O183 2.453 . S
Tb180 O184 2.596 1_655 S
Tb180 O185 2.374 . S
Tb180 O193 2.343 1_655 S
Tb180 O195 2.353 . S
Tb180 O197 2.427 . S
Tb180 O198 2.513 . S
C181 O185 1.251 1_455 S
C181 O187 1.263 . S
Tb182 O184 2.343 . S
Tb182 O187 2.353 . S
Tb182 O190 2.427 . S
Tb182 O191 2.513 . S
Tb182 O192 2.453 . S
Tb182 O193 2.596 . S
Tb182 O194 2.374 . S
O183 Tb180 2.453 . S
O183 C199 1.245 . S
O184 Tb180 2.596 1_455 S
O184 Tb182 2.343 . S
O184 C199 1.259 1_455 S
O185 Tb180 2.374 . S
O185 C181 1.251 1_655 S
C186 O190 1.275 . S
C186 O191 1.246 . S
O187 C181 1.263 . S
O187 Tb182 2.353 . S
C188 O192 1.245 . S
C188 O193 1.259 . S
C189 O194 1.250 . S
C189 O195 1.263 1_455 S
O190 Tb182 2.427 . S
O190 C186 1.275 . S
O191 Tb182 2.513 . S
O191 C186 1.246 . S
O192 Tb182 2.453 . S
O192 C188 1.245 . S
O193 Tb180 2.343 1_455 S
O193 Tb182 2.596 . S
O193 C188 1.259 . S
O194 Tb182 2.374 . S
O194 C189 1.250 . S
O195 Tb180 2.353 . S
O195 C189 1.263 1_655 S
C196 O197 1.275 . S
C196 O198 1.246 . S
O197 Tb180 2.427 . S
O197 C196 1.275 . S
O198 Tb180 2.513 . S
O198 C196 1.246 . S
C199 O183 1.245 . S
C199 O184 1.259 1_655 S
Tb200 O203 2.453 . S
Tb200 O204 2.596 . S
Tb200 O205 2.374 . S
Tb200 O213 2.343 1_565 S
Tb200 O215 2.353 . S
Tb200 O217 2.427 . S
Tb200 O218 2.513 . S
C201 O205 1.251 1_545 S
C201 O207 1.263 . S
Tb202 O204 2.343 1_545 S
Tb202 O207 2.353 . S
Tb202 O210 2.427 . S
Tb202 O211 2.513 . S
Tb202 O212 2.453 . S
Tb202 O213 2.596 . S
Tb202 O214 2.374 . S
O203 Tb200 2.453 . S
O203 C219 1.245 . S
O204 Tb200 2.596 . S
O204 Tb202 2.343 1_565 S
O204 C219 1.259 . S
O205 Tb200 2.374 . S
O205 C201 1.251 1_565 S
C206 O210 1.275 . S
C206 O211 1.246 . S
O207 C201 1.263 . S
O207 Tb202 2.353 . S
C208 O212 1.245 . S
C208 O213 1.259 . S
C209 O214 1.250 . S
C209 O215 1.263 1_545 S
O210 Tb202 2.427 . S
O210 C206 1.275 . S
O211 Tb202 2.513 . S
O211 C206 1.246 . S
O212 Tb202 2.453 . S
O212 C208 1.245 . S
O213 Tb200 2.343 1_545 S
O213 Tb202 2.596 . S
O213 C208 1.259 . S
O214 Tb202 2.374 . S
O214 C209 1.250 . S
O215 Tb200 2.353 . S
O215 C209 1.263 1_565 S
C216 O217 1.275 . S
C216 O218 1.246 . S
O217 Tb200 2.427 . S
O217 C216 1.275 . S
O218 Tb200 2.513 . S
O218 C216 1.246 . S
C219 O203 1.245 . S
C219 O204 1.259 . S
Tb220 O223 2.453 . S
Tb220 O224 2.596 . S
Tb220 O225 2.374 . S
Tb220 O233 2.343 . S
Tb220 O235 2.353 . S
Tb220 O237 2.427 . S
Tb220 O238 2.513 . S
C221 O225 1.251 . S
C221 O227 1.263 1_455 S
Tb222 O224 2.343 1_655 S
Tb222 O227 2.353 . S
Tb222 O230 2.427 . S
Tb222 O231 2.513 . S
Tb222 O232 2.453 . S
Tb222 O233 2.596 1_655 S
Tb222 O234 2.374 . S
O223 Tb220 2.453 . S
O223 C239 1.245 . S
O224 Tb220 2.596 . S
O224 Tb222 2.343 1_455 S
O224 C239 1.259 . S
O225 Tb220 2.374 . S
O225 C221 1.251 . S
C226 O230 1.275 . S
C226 O231 1.246 . S
O227 C221 1.263 1_655 S
O227 Tb222 2.353 . S
C228 O232 1.245 . S
C228 O233 1.259 1_655 S
C229 O234 1.250 1_455 S
C229 O235 1.263 . S
O230 Tb222 2.427 . S
O230 C226 1.275 . S
O231 Tb222 2.513 . S
O231 C226 1.246 . S
O232 Tb222 2.453 . S
O232 C228 1.245 . S
O233 Tb220 2.343 . S
O233 Tb222 2.596 1_455 S
O233 C228 1.259 1_455 S
O234 Tb222 2.374 . S
O234 C229 1.250 1_655 S
O235 Tb220 2.353 . S
O235 C229 1.263 . S
C236 O237 1.275 . S
C236 O238 1.246 . S
O237 Tb220 2.427 . S
O237 C236 1.275 . S
O238 Tb220 2.513 . S
O238 C236 1.246 . S
C239 O223 1.245 . S
C239 O224 1.259 . S
Tb240 O243 2.453 . S
Tb240 O244 2.596 1_565 S
Tb240 O245 2.374 1_565 S
Tb240 O253 2.343 1_565 S
Tb240 O255 2.353 1_565 S
Tb240 O257 2.427 . S
Tb240 O258 2.513 . S
C241 O245 1.251 . S
C241 O247 1.263 . S
Tb242 O244 2.343 . S
Tb242 O247 2.353 . S
Tb242 O250 2.427 . S
Tb242 O251 2.513 . S
Tb242 O252 2.453 . S
Tb242 O253 2.596 . S
Tb242 O254 2.374 . S
O243 Tb240 2.453 . S
O243 C259 1.245 . S
O244 Tb240 2.596 1_545 S
O244 Tb242 2.343 . S
O244 C259 1.259 1_545 S
O245 Tb240 2.374 1_545 S
O245 C241 1.251 . S
C246 O250 1.275 . S
C246 O251 1.246 . S
O247 C241 1.263 . S
O247 Tb242 2.353 . S
C248 O252 1.245 . S
C248 O253 1.259 . S
C249 O254 1.250 . S
C249 O255 1.263 . S
O250 Tb242 2.427 . S
O250 C246 1.275 . S
O251 Tb242 2.513 . S
O251 C246 1.246 . S
O252 Tb242 2.453 . S
O252 C248 1.245 . S
O253 Tb240 2.343 1_545 S
O253 Tb242 2.596 . S
O253 C248 1.259 . S
O254 Tb242 2.374 . S
O254 C249 1.250 . S
O255 Tb240 2.353 1_545 S
O255 C249 1.263 . S
C256 O257 1.275 . S
C256 O258 1.246 . S
O257 Tb240 2.427 . S
O257 C256 1.275 . S
O258 Tb240 2.513 . S
O258 C256 1.246 . S
C259 O243 1.245 . S
C259 O244 1.259 1_565 S
Tb260 O263 2.453 . S
Tb260 O264 2.596 . S
Tb260 O265 2.374 . S
Tb260 O273 2.343 1_455 S
Tb260 O275 2.353 . S
Tb260 O277 2.427 . S
Tb260 O278 2.513 . S
C261 O265 1.251 . S
C261 O267 1.263 1_455 S
Tb262 O264 2.343 1_655 S
Tb262 O267 2.353 . S
Tb262 O270 2.427 . S
Tb262 O271 2.513 . S
Tb262 O272 2.453 . S
Tb262 O273 2.596 . S
Tb262 O274 2.374 . S
O263 Tb260 2.453 . S
O263 C279 1.245 . S
O264 Tb260 2.596 . S
O264 Tb262 2.343 1_455 S
O264 C279 1.259 . S
O265 Tb260 2.374 . S
O265 C261 1.251 . S
C266 O270 1.275 . S
C266 O271 1.246 . S
O267 C261 1.263 1_655 S
O267 Tb262 2.353 . S
C268 O272 1.245 . S
C268 O273 1.259 . S
C269 O274 1.250 . S
C269 O275 1.263 1_655 S
O270 Tb262 2.427 . S
O270 C266 1.275 . S
O271 Tb262 2.513 . S
O271 C266 1.246 . S
O272 Tb262 2.453 . S
O272 C268 1.245 . S
O273 Tb260 2.343 1_655 S
O273 Tb262 2.596 . S
O273 C268 1.259 . S
O274 Tb262 2.374 . S
O274 C269 1.250 . S
O275 Tb260 2.353 . S
O275 C269 1.263 1_455 S
C276 O277 1.275 . S
C276 O278 1.246 . S
O277 Tb260 2.427 . S
O277 C276 1.275 . S
O278 Tb260 2.513 . S
O278 C276 1.246 . S
C279 O263 1.245 . S
C279 O264 1.259 . S
Tb280 O283 2.453 . S
Tb280 O284 2.596 . S
Tb280 O285 2.374 . S
Tb280 O293 2.343 . S
Tb280 O295 2.353 . S
Tb280 O297 2.427 . S
Tb280 O298 2.513 . S
C281 O285 1.251 . S
C281 O287 1.263 . S
Tb282 O284 2.343 1_565 S
Tb282 O287 2.353 1_565 S
Tb282 O290 2.427 . S
Tb282 O291 2.513 . S
Tb282 O292 2.453 . S
Tb282 O293 2.596 1_565 S
Tb282 O294 2.374 1_565 S
O283 Tb280 2.453 . S
O283 C299 1.245 . S
O284 Tb280 2.596 . S
O284 Tb282 2.343 1_545 S
O284 C299 1.259 . S
O285 Tb280 2.374 . S
O285 C281 1.251 . S
C286 O290 1.275 . S
C286 O291 1.246 . S
O287 C281 1.263 . S
O287 Tb282 2.353 1_545 S
C288 O292 1.245 . S
C288 O293 1.259 1_565 S
C289 O294 1.250 . S
C289 O295 1.263 . S
O290 Tb282 2.427 . S
O290 C286 1.275 . S
O291 Tb282 2.513 . S
O291 C286 1.246 . S
O292 Tb282 2.453 . S
O292 C288 1.245 . S
O293 Tb280 2.343 . S
O293 Tb282 2.596 1_545 S
O293 C288 1.259 1_545 S
O294 Tb282 2.374 1_545 S
O294 C289 1.250 . S
O295 Tb280 2.353 . S
O295 C289 1.263 . S
C296 O297 1.275 . S
C296 O298 1.246 . S
O297 Tb280 2.427 . S
O297 C296 1.275 . S
O298 Tb280 2.513 . S
O298 C296 1.246 . S
C299 O283 1.245 . S
C299 O284 1.259 . S
Tb300 O303 2.453 . S
Tb300 O304 2.596 . S
Tb300 O305 2.374 . S
Tb300 O313 2.343 1_655 S
Tb300 O315 2.353 . S
Tb300 O317 2.427 . S
Tb300 O318 2.513 . S
C301 O305 1.251 1_455 S
C301 O307 1.263 . S
Tb302 O304 2.343 1_455 S
Tb302 O307 2.353 . S
Tb302 O310 2.427 . S
Tb302 O311 2.513 . S
Tb302 O312 2.453 . S
Tb302 O313 2.596 . S
Tb302 O314 2.374 . S
O303 Tb300 2.453 . S
O303 C319 1.245 . S
O304 Tb300 2.596 . S
O304 Tb302 2.343 1_655 S
O304 C319 1.259 . S
O305 Tb300 2.374 . S
O305 C301 1.251 1_655 S
C306 O310 1.275 . S
C306 O311 1.246 . S
O307 C301 1.263 . S
O307 Tb302 2.353 . S
C308 O312 1.245 . S
C308 O313 1.259 . S
C309 O314 1.250 . S
C309 O315 1.263 1_455 S
O310 Tb302 2.427 . S
O310 C306 1.275 . S
O311 Tb302 2.513 . S
O311 C306 1.246 . S
O312 Tb302 2.453 . S
O312 C308 1.245 . S
O313 Tb300 2.343 1_455 S
O313 Tb302 2.596 . S
O313 C308 1.259 . S
O314 Tb302 2.374 . S
O314 C309 1.250 . S
O315 Tb300 2.353 . S
O315 C309 1.263 1_655 S
C316 O317 1.275 . S
C316 O318 1.246 . S
O317 Tb300 2.427 . S
O317 C316 1.275 . S
O318 Tb300 2.513 . S
O318 C316 1.246 . S
C319 O303 1.245 . S
C319 O304 1.259 . S
Tb320 O323 2.453 . S
Tb320 O324 2.596 . S
Tb320 O325 2.374 . S
Tb320 O333 2.395 . S
Tb320 O335 2.353 . S
Tb320 O337 2.427 . S
Tb320 O338 2.513 . S
C321 O325 1.251 . S
C321 O327 1.263 1_554 S
Tb322 O324 2.343 1_556 S
Tb322 O327 2.353 . S
Tb322 O330 2.427 . S
Tb322 O331 2.513 . S
Tb322 O332 2.453 . S
Tb322 O333 2.568 1_556 S
Tb322 O334 2.374 . S
O323 Tb320 2.453 . S
O323 C339 1.245 . S
O324 Tb320 2.596 . S
O324 Tb322 2.343 1_554 S
O324 C339 1.259 . S
O325 Tb320 2.374 . S
O325 C321 1.251 . S
C326 O330 1.275 . S
C326 O331 1.246 . S
O327 C321 1.263 1_556 S
O327 Tb322 2.353 . S
C328 O332 1.245 . S
C328 O333 1.214 1_556 S
C329 O334 1.250 1_554 S
C329 O335 1.263 . S
O330 Tb322 2.427 . S
O330 C326 1.275 . S
O331 Tb322 2.513 . S
O331 C326 1.246 . S
O332 Tb322 2.453 . S
O332 C328 1.245 . S
O333 Tb320 2.395 . S
O333 Tb322 2.568 1_554 S
O333 C328 1.214 1_554 S
O334 Tb322 2.374 . S
O334 C329 1.250 1_556 S
O335 Tb320 2.353 . S
O335 C329 1.263 . S
C336 O337 1.275 . S
C336 O338 1.246 . S
O337 Tb320 2.427 . S
O337 C336 1.275 . S
O338 Tb320 2.513 . S
O338 C336 1.246 . S
C339 O323 1.245 . S
C339 O324 1.259 . S
Tb340 O343 2.453 . S
Tb340 O344 2.596 1_556 S
Tb340 O345 2.374 . S
Tb340 O353 2.343 1_556 S
Tb340 O355 2.353 . S
Tb340 O357 2.427 . S
Tb340 O358 2.513 . S
C341 O345 1.251 1_554 S
C341 O347 1.263 . S
Tb342 O344 2.343 . S
Tb342 O347 2.353 . S
Tb342 O350 2.427 . S
Tb342 O351 2.513 . S
Tb342 O352 2.453 . S
Tb342 O353 2.596 . S
Tb342 O354 2.374 . S
O343 Tb340 2.453 . S
O343 C359 1.245 . S
O344 Tb340 2.596 1_554 S
O344 Tb342 2.343 . S
O344 C359 1.259 1_554 S
O345 Tb340 2.374 . S
O345 C341 1.251 1_556 S
C346 O350 1.275 . S
C346 O351 1.246 . S
O347 C341 1.263 . S
O347 Tb342 2.353 . S
C348 O352 1.245 . S
C348 O353 1.259 . S
C349 O354 1.250 . S
C349 O355 1.263 1_554 S
O350 Tb342 2.427 . S
O350 C346 1.275 . S
O351 Tb342 2.513 . S
O351 C346 1.246 . S
O352 Tb342 2.453 . S
O352 C348 1.245 . S
O353 Tb340 2.343 1_554 S
O353 Tb342 2.596 . S
O353 C348 1.259 . S
O354 Tb342 2.374 . S
O354 C349 1.250 . S
O355 Tb340 2.353 . S
O355 C349 1.263 1_556 S
C356 O357 1.275 . S
C356 O358 1.246 . S
O357 Tb340 2.427 . S
O357 C356 1.275 . S
O358 Tb340 2.513 . S
O358 C356 1.246 . S
C359 O343 1.245 . S
C359 O344 1.259 1_556 S
Tb360 O363 2.453 . S
Tb360 O364 2.596 1_556 S
Tb360 O365 2.370 1_556 S
Tb360 O373 2.343 1_556 S
Tb360 O375 2.357 . S
Tb360 O377 2.427 . S
Tb360 O378 2.513 . S
C361 O365 1.259 . S
C361 O367 1.263 . S
Tb362 O364 2.343 . S
Tb362 O367 2.353 . S
Tb362 O370 2.427 . S
Tb362 O371 2.513 . S
Tb362 O372 2.453 . S
Tb362 O373 2.596 . S
Tb362 O374 2.374 . S
O363 Tb360 2.453 . S
O363 C379 1.245 . S
O364 Tb360 2.596 1_554 S
O364 Tb362 2.343 . S
O364 C379 1.259 1_554 S
O365 Tb360 2.370 1_554 S
O365 C361 1.259 . S
C366 O370 1.275 . S
C366 O371 1.246 . S
O367 C361 1.263 . S
O367 Tb362 2.353 . S
C368 O372 1.245 . S
C368 O373 1.259 . S
C369 O374 1.250 . S
C369 O375 1.253 1_554 S
O370 Tb362 2.427 . S
O370 C366 1.275 . S
O371 Tb362 2.513 . S
O371 C366 1.246 . S
O372 Tb362 2.453 . S
O372 C368 1.245 . S
O373 Tb360 2.343 1_554 S
O373 Tb362 2.596 . S
O373 C368 1.259 . S
O374 Tb362 2.374 . S
O374 C369 1.250 . S
O375 Tb360 2.357 . S
O375 C369 1.253 1_556 S
C376 O377 1.275 . S
C376 O378 1.246 . S
O377 Tb360 2.427 . S
O377 C376 1.275 . S
O378 Tb360 2.513 . S
O378 C376 1.246 . S
C379 O363 1.245 . S
C379 O364 1.259 1_556 S
Tb380 O383 2.453 . S
Tb380 O384 2.596 1_556 S
Tb380 O385 2.366 1_556 S
Tb380 O393 2.343 1_556 S
Tb380 O395 2.353 1_556 S
Tb380 O397 2.427 . S
Tb380 O398 2.513 . S
C381 O385 1.271 . S
C381 O387 1.263 . S
Tb382 O384 2.343 . S
Tb382 O387 2.353 . S
Tb382 O390 2.427 . S
Tb382 O391 2.513 . S
Tb382 O392 2.453 . S
Tb382 O393 2.596 . S
Tb382 O394 2.374 . S
O383 Tb380 2.453 . S
O383 C399 1.245 . S
O384 Tb380 2.596 1_554 S
O384 Tb382 2.343 . S
O384 C399 1.259 1_554 S
O385 Tb380 2.366 1_554 S
O385 C381 1.271 . S
C386 O390 1.275 . S
C386 O391 1.246 . S
O387 C381 1.263 . S
O387 Tb382 2.353 . S
C388 O392 1.245 . S
C388 O393 1.259 . S
C389 O394 1.250 . S
C389 O395 1.263 . S
O390 Tb382 2.427 . S
O390 C386 1.275 . S
O391 Tb382 2.513 . S
O391 C386 1.246 . S
O392 Tb382 2.453 . S
O392 C388 1.245 . S
O393 Tb380 2.343 1_554 S
O393 Tb382 2.596 . S
O393 C388 1.259 . S
O394 Tb382 2.374 . S
O394 C389 1.250 . S
O395 Tb380 2.353 1_554 S
O395 C389 1.263 . S
C396 O397 1.275 . S
C396 O398 1.246 . S
O397 Tb380 2.427 . S
O397 C396 1.275 . S
O398 Tb380 2.513 . S
O398 C396 1.246 . S
C399 O383 1.245 . S
C399 O384 1.259 1_556 S
Tb400 O403 2.453 . S
Tb400 O404 2.596 1_556 S
Tb400 O405 2.374 1_556 S
Tb400 O413 2.343 1_556 S
Tb400 O415 2.353 1_556 S
Tb400 O417 2.427 . S
Tb400 O418 2.513 . S
C401 O405 1.251 . S
C401 O407 1.263 . S
Tb402 O404 2.343 . S
Tb402 O407 2.353 . S
Tb402 O410 2.427 . S
Tb402 O411 2.513 . S
Tb402 O412 2.453 . S
Tb402 O413 2.596 . S
Tb402 O414 2.374 . S
O403 Tb400 2.453 . S
O403 C419 1.245 . S
O404 Tb400 2.596 1_554 S
O404 Tb402 2.343 . S
O404 C419 1.259 1_554 S
O405 Tb400 2.374 1_554 S
O405 C401 1.251 . S
C406 O410 1.275 . S
C406 O411 1.246 . S
O407 C401 1.263 . S
O407 Tb402 2.353 . S
C408 O412 1.245 . S
C408 O413 1.259 . S
C409 O414 1.250 . S
C409 O415 1.263 . S
O410 Tb402 2.427 . S
O410 C406 1.275 . S
O411 Tb402 2.513 . S
O411 C406 1.246 . S
O412 Tb402 2.453 . S
O412 C408 1.245 . S
O413 Tb400 2.343 1_554 S
O413 Tb402 2.596 . S
O413 C408 1.259 . S
O414 Tb402 2.374 . S
O414 C409 1.250 . S
O415 Tb400 2.353 1_554 S
O415 C409 1.263 . S
C416 O417 1.275 . S
C416 O418 1.246 . S
O417 Tb400 2.427 . S
O417 C416 1.275 . S
O418 Tb400 2.513 . S
O418 C416 1.246 . S
C419 O403 1.245 . S
C419 O404 1.259 1_556 S
Tb420 O423 2.453 . S
Tb420 O424 2.596 . S
Tb420 O425 2.374 . S
Tb420 O433 2.343 1_554 S
Tb420 O435 2.353 . S
Tb420 O437 2.427 . S
Tb420 O438 2.513 . S
C421 O425 1.251 . S
C421 O427 1.263 1_554 S
Tb422 O424 2.343 1_556 S
Tb422 O427 2.353 . S
Tb422 O430 2.427 . S
Tb422 O431 2.513 . S
Tb422 O432 2.453 . S
Tb422 O433 2.596 . S
Tb422 O434 2.374 . S
O423 Tb420 2.453 . S
O423 C439 1.245 . S
O424 Tb420 2.596 . S
O424 Tb422 2.343 1_554 S
O424 C439 1.259 . S
O425 Tb420 2.374 . S
O425 C421 1.251 . S
C426 O430 1.275 . S
C426 O431 1.246 . S
O427 C421 1.263 1_556 S
O427 Tb422 2.353 . S
C428 O432 1.245 . S
C428 O433 1.259 . S
C429 O434 1.250 1_554 S
C429 O435 1.263 . S
O430 Tb422 2.427 . S
O430 C426 1.275 . S
O431 Tb422 2.513 . S
O431 C426 1.246 . S
O432 Tb422 2.453 . S
O432 C428 1.245 . S
O433 Tb420 2.343 1_556 S
O433 Tb422 2.596 . S
O433 C428 1.259 . S
O434 Tb422 2.374 . S
O434 C429 1.250 1_556 S
O435 Tb420 2.353 . S
O435 C429 1.263 . S
C436 O437 1.275 . S
C436 O438 1.246 . S
O437 Tb420 2.427 . S
O437 C436 1.275 . S
O438 Tb420 2.513 . S
O438 C436 1.246 . S
C439 O423 1.245 . S
C439 O424 1.259 . S
Tb440 O443 2.453 . S
Tb440 O444 2.596 . S
Tb440 O445 2.374 . S
Tb440 O453 2.385 . S
Tb440 O455 2.353 . S
Tb440 O457 2.427 . S
Tb440 O458 2.513 . S
C441 O445 1.251 . S
C441 O447 1.263 1_554 S
Tb442 O444 2.343 1_556 S
Tb442 O447 2.353 . S
Tb442 O450 2.427 . S
Tb442 O451 2.513 . S
Tb442 O452 2.453 . S
Tb442 O453 2.572 1_556 S
Tb442 O454 2.374 . S
O443 Tb440 2.453 . S
O443 C459 1.245 . S
O444 Tb440 2.596 . S
O444 Tb442 2.343 1_554 S
O444 C459 1.259 . S
O445 Tb440 2.374 . S
O445 C441 1.251 . S
C446 O450 1.275 . S
C446 O451 1.246 . S
O447 C441 1.263 1_556 S
O447 Tb442 2.353 . S
C448 O452 1.245 . S
C448 O453 1.223 1_556 S
C449 O454 1.250 1_554 S
C449 O455 1.263 . S
O450 Tb442 2.427 . S
O450 C446 1.275 . S
O451 Tb442 2.513 . S
O451 C446 1.246 . S
O452 Tb442 2.453 . S
O452 C448 1.245 . S
O453 Tb440 2.385 . S
O453 Tb442 2.572 1_554 S
O453 C448 1.223 1_554 S
O454 Tb442 2.374 . S
O454 C449 1.250 1_556 S
O455 Tb440 2.353 . S
O455 C449 1.263 . S
C456 O457 1.275 . S
C456 O458 1.246 . S
O457 Tb440 2.427 . S
O457 C456 1.275 . S
O458 Tb440 2.513 . S
O458 C456 1.246 . S
C459 O443 1.245 . S
C459 O444 1.259 . S
Tb460 O463 2.453 . S
Tb460 O464 2.596 . S
Tb460 O465 2.374 . S
Tb460 O473 2.343 1_554 S
Tb460 O475 2.353 . S
Tb460 O477 2.427 . S
Tb460 O478 2.513 . S
C461 O465 1.251 . S
C461 O467 1.263 1_554 S
Tb462 O464 2.343 1_556 S
Tb462 O467 2.353 . S
Tb462 O470 2.427 . S
Tb462 O471 2.513 . S
Tb462 O472 2.453 . S
Tb462 O473 2.596 . S
Tb462 O474 2.374 . S
O463 Tb460 2.453 . S
O463 C479 1.245 . S
O464 Tb460 2.596 . S
O464 Tb462 2.343 1_554 S
O464 C479 1.259 . S
O465 Tb460 2.374 . S
O465 C461 1.251 . S
C466 O470 1.275 . S
C466 O471 1.246 . S
O467 C461 1.263 1_556 S
O467 Tb462 2.353 . S
C468 O472 1.245 . S
C468 O473 1.259 . S
C469 O474 1.250 1_554 S
C469 O475 1.263 . S
O470 Tb462 2.427 . S
O470 C466 1.275 . S
O471 Tb462 2.513 . S
O471 C466 1.246 . S
O472 Tb462 2.453 . S
O472 C468 1.245 . S
O473 Tb460 2.343 1_556 S
O473 Tb462 2.596 . S
O473 C468 1.259 . S
O474 Tb462 2.374 . S
O474 C469 1.250 1_556 S
O475 Tb460 2.353 . S
O475 C469 1.263 . S
C476 O477 1.275 . S
C476 O478 1.246 . S
O477 Tb460 2.427 . S
O477 C476 1.275 . S
O478 Tb460 2.513 . S
O478 C476 1.246 . S
C479 O463 1.245 . S
C479 O464 1.259 . S
Tb480 O483 2.453 . S
Tb480 O484 2.596 . S
Tb480 O485 2.374 . S
Tb480 O493 2.343 . S
Tb480 O495 2.353 . S
Tb480 O497 2.427 . S
Tb480 O498 2.513 . S
C481 O485 1.251 . S
C481 O487 1.263 . S
Tb482 O484 2.343 . S
Tb482 O487 2.353 . S
Tb482 O490 2.427 . S
Tb482 O491 2.513 . S
Tb482 O492 2.453 . S
Tb482 O493 2.596 . S
Tb482 O494 2.374 . S
O483 Tb480 2.453 . S
O483 C499 1.245 . S
O484 Tb480 2.596 . S
O484 Tb482 2.343 . S
O484 C499 1.259 . S
O485 Tb480 2.374 . S
O485 C481 1.251 . S
C486 O490 1.275 . S
C486 O491 1.246 . S
O487 C481 1.263 . S
O487 Tb482 2.353 . S
C488 O492 1.245 . S
C488 O493 1.259 . S
C489 O494 1.250 . S
C489 O495 1.263 . S
O490 Tb482 2.427 . S
O490 C486 1.275 . S
O491 Tb482 2.513 . S
O491 C486 1.246 . S
O492 Tb482 2.453 . S
O492 C488 1.245 . S
O493 Tb480 2.343 . S
O493 Tb482 2.596 . S
O493 C488 1.259 . S
O494 Tb482 2.374 . S
O494 C489 1.250 . S
O495 Tb480 2.353 . S
O495 C489 1.263 . S
C496 O497 1.275 . S
C496 O498 1.246 . S
O497 Tb480 2.427 . S
O497 C496 1.275 . S
O498 Tb480 2.513 . S
O498 C496 1.246 . S
C499 O483 1.245 . S
C499 O484 1.259 . S
Tb500 O503 2.453 . S
Tb500 O504 2.596 . S
Tb500 O505 2.374 . S
Tb500 O513 2.343 . S
Tb500 O515 2.353 . S
Tb500 O517 2.427 . S
Tb500 O518 2.513 . S
C501 O505 1.251 . S
C501 O507 1.263 . S
Tb502 O504 2.343 . S
Tb502 O507 2.353 . S
Tb502 O510 2.427 . S
Tb502 O511 2.513 . S
Tb502 O512 2.453 . S
Tb502 O513 2.596 . S
Tb502 O514 2.374 . S
O503 Tb500 2.453 . S
O503 C519 1.245 . S
O504 Tb500 2.596 . S
O504 Tb502 2.343 . S
O504 C519 1.259 . S
O505 Tb500 2.374 . S
O505 C501 1.251 . S
C506 O510 1.275 . S
C506 O511 1.246 . S
O507 C501 1.263 . S
O507 Tb502 2.353 . S
C508 O512 1.245 . S
C508 O513 1.259 . S
C509 O514 1.250 . S
C509 O515 1.263 . S
O510 Tb502 2.427 . S
O510 C506 1.275 . S
O511 Tb502 2.513 . S
O511 C506 1.246 . S
O512 Tb502 2.453 . S
O512 C508 1.245 . S
O513 Tb500 2.343 . S
O513 Tb502 2.596 . S
O513 C508 1.259 . S
O514 Tb502 2.374 . S
O514 C509 1.250 . S
O515 Tb500 2.353 . S
O515 C509 1.263 . S
C516 O517 1.275 . S
C516 O518 1.246 . S
O517 Tb500 2.427 . S
O517 C516 1.275 . S
O518 Tb500 2.513 . S
O518 C516 1.246 . S
C519 O503 1.245 . S
C519 O504 1.259 . S
Tb520 O523 2.453 . S
Tb520 O524 2.596 . S
Tb520 O525 2.374 . S
Tb520 O533 2.343 . S
Tb520 O535 2.353 . S
Tb520 O537 2.427 . S
Tb520 O538 2.513 . S
C521 O525 1.251 . S
C521 O527 1.263 . S
Tb522 O524 2.343 . S
Tb522 O527 2.353 . S
Tb522 O530 2.427 . S
Tb522 O531 2.513 . S
Tb522 O532 2.453 . S
Tb522 O533 2.596 . S
Tb522 O534 2.374 . S
O523 Tb520 2.453 . S
O523 C539 1.245 . S
O524 Tb520 2.596 . S
O524 Tb522 2.343 . S
O524 C539 1.259 . S
O525 Tb520 2.374 . S
O525 C521 1.251 . S
C526 O530 1.275 . S
C526 O531 1.246 . S
O527 C521 1.263 . S
O527 Tb522 2.353 . S
C528 O532 1.245 . S
C528 O533 1.259 . S
C529 O534 1.250 . S
C529 O535 1.263 . S
O530 Tb522 2.427 . S
O530 C526 1.275 . S
O531 Tb522 2.513 . S
O531 C526 1.246 . S
O532 Tb522 2.453 . S
O532 C528 1.245 . S
O533 Tb520 2.343 . S
O533 Tb522 2.596 . S
O533 C528 1.259 . S
O534 Tb522 2.374 . S
O534 C529 1.250 . S
O535 Tb520 2.353 . S
O535 C529 1.263 . S
C536 O537 1.275 . S
C536 O538 1.246 . S
O537 Tb520 2.427 . S
O537 C536 1.275 . S
O538 Tb520 2.513 . S
O538 C536 1.246 . S
C539 O523 1.245 . S
C539 O524 1.259 . S
Tb540 O543 2.453 . S
Tb540 O544 2.596 . S
Tb540 O545 2.374 . S
Tb540 O553 2.343 . S
Tb540 O555 2.353 . S
Tb540 O557 2.427 . S
Tb540 O558 2.513 . S
C541 O545 1.251 . S
C541 O547 1.263 . S
Tb542 O544 2.343 . S
Tb542 O547 2.353 . S
Tb542 O550 2.427 . S
Tb542 O551 2.513 . S
Tb542 O552 2.453 . S
Tb542 O553 2.596 . S
Tb542 O554 2.374 . S
O543 Tb540 2.453 . S
O543 C559 1.245 . S
O544 Tb540 2.596 . S
O544 Tb542 2.343 . S
O544 C559 1.259 . S
O545 Tb540 2.374 . S
O545 C541 1.251 . S
C546 O550 1.275 . S
C546 O551 1.246 . S
O547 C541 1.263 . S
O547 Tb542 2.353 . S
C548 O552 1.245 . S
C548 O553 1.259 . S
C549 O554 1.250 . S
C549 O555 1.263 . S
O550 Tb542 2.427 . S
O550 C546 1.275 . S
O551 Tb542 2.513 . S
O551 C546 1.246 . S
O552 Tb542 2.453 . S
O552 C548 1.245 . S
O553 Tb540 2.343 . S
O553 Tb542 2.596 . S
O553 C548 1.259 . S
O554 Tb542 2.374 . S
O554 C549 1.250 . S
O555 Tb540 2.353 . S
O555 C549 1.263 . S
C556 O557 1.275 . S
C556 O558 1.246 . S
O557 Tb540 2.427 . S
O557 C556 1.275 . S
O558 Tb540 2.513 . S
O558 C556 1.246 . S
C559 O543 1.245 . S
C559 O544 1.259 . S
Tb560 O563 2.453 . S
Tb560 O564 2.596 . S
Tb560 O565 2.374 . S
Tb560 O573 2.343 . S
Tb560 O575 2.353 . S
Tb560 O577 2.427 . S
Tb560 O578 2.513 . S
C561 O565 1.251 . S
C561 O567 1.263 . S
Tb562 O564 2.343 . S
Tb562 O567 2.353 . S
Tb562 O570 2.427 . S
Tb562 O571 2.513 . S
Tb562 O572 2.453 . S
Tb562 O573 2.596 . S
Tb562 O574 2.374 . S
O563 Tb560 2.453 . S
O563 C579 1.245 . S
O564 Tb560 2.596 . S
O564 Tb562 2.343 . S
O564 C579 1.259 . S
O565 Tb560 2.374 . S
O565 C561 1.251 . S
C566 O570 1.275 . S
C566 O571 1.246 . S
O567 C561 1.263 . S
O567 Tb562 2.353 . S
C568 O572 1.245 . S
C568 O573 1.259 . S
C569 O574 1.250 . S
C569 O575 1.263 . S
O570 Tb562 2.427 . S
O570 C566 1.275 . S
O571 Tb562 2.513 . S
O571 C566 1.246 . S
O572 Tb562 2.453 . S
O572 C568 1.245 . S
O573 Tb560 2.343 . S
O573 Tb562 2.596 . S
O573 C568 1.259 . S
O574 Tb562 2.374 . S
O574 C569 1.250 . S
O575 Tb560 2.353 . S
O575 C569 1.263 . S
C576 O577 1.275 . S
C576 O578 1.246 . S
O577 Tb560 2.427 . S
O577 C576 1.275 . S
O578 Tb560 2.513 . S
O578 C576 1.246 . S
C579 O563 1.245 . S
C579 O564 1.259 . S
Tb580 O583 2.453 . S
Tb580 O584 2.596 . S
Tb580 O585 2.374 . S
Tb580 O593 2.343 . S
Tb580 O595 2.353 . S
Tb580 O597 2.427 . S
Tb580 O598 2.513 . S
C581 O585 1.251 . S
C581 O587 1.263 . S
Tb582 O584 2.343 . S
Tb582 O587 2.353 . S
Tb582 O590 2.427 . S
Tb582 O591 2.513 . S
Tb582 O592 2.453 . S
Tb582 O593 2.596 . S
Tb582 O594 2.374 . S
O583 Tb580 2.453 . S
O583 C599 1.245 . S
O584 Tb580 2.596 . S
O584 Tb582 2.343 . S
O584 C599 1.259 . S
O585 Tb580 2.374 . S
O585 C581 1.251 . S
C586 O590 1.275 . S
C586 O591 1.246 . S
O587 C581 1.263 . S
O587 Tb582 2.353 . S
C588 O592 1.245 . S
C588 O593 1.259 . S
C589 O594 1.250 . S
C589 O595 1.263 . S
O590 Tb582 2.427 . S
O590 C586 1.275 . S
O591 Tb582 2.513 . S
O591 C586 1.246 . S
O592 Tb582 2.453 . S
O592 C588 1.245 . S
O593 Tb580 2.343 . S
O593 Tb582 2.596 . S
O593 C588 1.259 . S
O594 Tb582 2.374 . S
O594 C589 1.250 . S
O595 Tb580 2.353 . S
O595 C589 1.263 . S
C596 O597 1.275 . S
C596 O598 1.246 . S
O597 Tb580 2.427 . S
O597 C596 1.275 . S
O598 Tb580 2.513 . S
O598 C596 1.246 . S
C599 O583 1.245 . S
C599 O584 1.259 . S
Tb600 O603 2.453 . S
Tb600 O604 2.596 . S
Tb600 O605 2.374 . S
Tb600 O613 2.343 . S
Tb600 O615 2.353 . S
Tb600 O617 2.427 . S
Tb600 O618 2.513 . S
C601 O605 1.251 . S
C601 O607 1.263 . S
Tb602 O604 2.343 . S
Tb602 O607 2.353 . S
Tb602 O610 2.427 . S
Tb602 O611 2.513 . S
Tb602 O612 2.453 . S
Tb602 O613 2.596 . S
Tb602 O614 2.374 . S
O603 Tb600 2.453 . S
O603 C619 1.245 . S
O604 Tb600 2.596 . S
O604 Tb602 2.343 . S
O604 C619 1.259 . S
O605 Tb600 2.374 . S
O605 C601 1.251 . S
C606 O610 1.275 . S
C606 O611 1.246 . S
O607 C601 1.263 . S
O607 Tb602 2.353 . S
C608 O612 1.245 . S
C608 O613 1.259 . S
C609 O614 1.250 . S
C609 O615 1.263 . S
O610 Tb602 2.427 . S
O610 C606 1.275 . S
O611 Tb602 2.513 . S
O611 C606 1.246 . S
O612 Tb602 2.453 . S
O612 C608 1.245 . S
O613 Tb600 2.343 . S
O613 Tb602 2.596 . S
O613 C608 1.259 . S
O614 Tb602 2.374 . S
O614 C609 1.250 . S
O615 Tb600 2.353 . S
O615 C609 1.263 . S
C616 O617 1.275 . S
C616 O618 1.246 . S
O617 Tb600 2.427 . S
O617 C616 1.275 . S
O618 Tb600 2.513 . S
O618 C616 1.246 . S
C619 O603 1.245 . S
C619 O604 1.259 . S
Tb620 O623 2.453 . S
Tb620 O624 2.596 . S
Tb620 O625 2.374 . S
Tb620 O633 2.343 . S
Tb620 O635 2.353 . S
Tb620 O637 2.427 . S
Tb620 O638 2.513 . S
C621 O625 1.251 . S
C621 O627 1.263 . S
Tb622 O624 2.343 . S
Tb622 O627 2.353 . S
Tb622 O630 2.427 . S
Tb622 O631 2.513 . S
Tb622 O632 2.453 . S
Tb622 O633 2.596 . S
Tb622 O634 2.374 . S
O623 Tb620 2.453 . S
O623 C639 1.245 . S
O624 Tb620 2.596 . S
O624 Tb622 2.343 . S
O624 C639 1.259 . S
O625 Tb620 2.374 . S
O625 C621 1.251 . S
C626 O630 1.275 . S
C626 O631 1.246 . S
O627 C621 1.263 . S
O627 Tb622 2.353 . S
C628 O632 1.245 . S
C628 O633 1.259 . S
C629 O634 1.250 . S
C629 O635 1.263 . S
O630 Tb622 2.427 . S
O630 C626 1.275 . S
O631 Tb622 2.513 . S
O631 C626 1.246 . S
O632 Tb622 2.453 . S
O632 C628 1.245 . S
O633 Tb620 2.343 . S
O633 Tb622 2.596 . S
O633 C628 1.259 . S
O634 Tb622 2.374 . S
O634 C629 1.250 . S
O635 Tb620 2.353 . S
O635 C629 1.263 . S
C636 O637 1.275 . S
C636 O638 1.246 . S
O637 Tb620 2.427 . S
O637 C636 1.275 . S
O638 Tb620 2.513 . S
O638 C636 1.246 . S
C639 O623 1.245 . S
C639 O624 1.259 . S
Tb640 O643 2.453 . S
Tb640 O644 2.596 . S
Tb640 O645 2.374 . S
Tb640 O653 2.343 . S
Tb640 O655 2.353 . S
Tb640 O657 2.427 . S
Tb640 O658 2.513 . S
C641 O645 1.251 . S
C641 O647 1.263 . S
Tb642 O644 2.343 . S
Tb642 O647 2.353 . S
Tb642 O650 2.427 . S
Tb642 O651 2.513 . S
Tb642 O652 2.453 . S
Tb642 O653 2.596 . S
Tb642 O654 2.374 . S
O643 Tb640 2.453 . S
O643 C659 1.245 . S
O644 Tb640 2.596 . S
O644 Tb642 2.343 . S
O644 C659 1.259 . S
O645 Tb640 2.374 . S
O645 C641 1.251 . S
C646 O650 1.275 . S
C646 O651 1.246 . S
O647 C641 1.263 . S
O647 Tb642 2.353 . S
C648 O652 1.245 . S
C648 O653 1.259 . S
C649 O654 1.250 . S
C649 O655 1.263 . S
O650 Tb642 2.427 . S
O650 C646 1.275 . S
O651 Tb642 2.513 . S
O651 C646 1.246 . S
O652 Tb642 2.453 . S
O652 C648 1.245 . S
O653 Tb640 2.343 . S
O653 Tb642 2.596 . S
O653 C648 1.259 . S
O654 Tb642 2.374 . S
O654 C649 1.250 . S
O655 Tb640 2.353 . S
O655 C649 1.263 . S
C656 O657 1.275 . S
C656 O658 1.246 . S
O657 Tb640 2.427 . S
O657 C656 1.275 . S
O658 Tb640 2.513 . S
O658 C656 1.246 . S
C659 O643 1.245 . S
C659 O644 1.259 . S
Tb660 O663 2.453 . S
Tb660 O664 2.596 . S
Tb660 O665 2.374 . S
Tb660 O673 2.343 . S
Tb660 O675 2.353 . S
Tb660 O677 2.427 . S
Tb660 O678 2.513 . S
C661 O665 1.251 . S
C661 O667 1.263 . S
Tb662 O664 2.343 . S
Tb662 O667 2.353 . S
Tb662 O670 2.427 . S
Tb662 O671 2.513 . S
Tb662 O672 2.453 . S
Tb662 O673 2.596 . S
Tb662 O674 2.374 . S
O663 Tb660 2.453 . S
O663 C679 1.245 . S
O664 Tb660 2.596 . S
O664 Tb662 2.343 . S
O664 C679 1.259 . S
O665 Tb660 2.374 . S
O665 C661 1.251 . S
C666 O670 1.275 . S
C666 O671 1.246 . S
O667 C661 1.263 . S
O667 Tb662 2.353 . S
C668 O672 1.245 . S
C668 O673 1.259 . S
C669 O674 1.250 . S
C669 O675 1.263 . S
O670 Tb662 2.427 . S
O670 C666 1.275 . S
O671 Tb662 2.513 . S
O671 C666 1.246 . S
O672 Tb662 2.453 . S
O672 C668 1.245 . S
O673 Tb660 2.343 . S
O673 Tb662 2.596 . S
O673 C668 1.259 . S
O674 Tb662 2.374 . S
O674 C669 1.250 . S
O675 Tb660 2.353 . S
O675 C669 1.263 . S
C676 O677 1.275 . S
C676 O678 1.246 . S
O677 Tb660 2.427 . S
O677 C676 1.275 . S
O678 Tb660 2.513 . S
O678 C676 1.246 . S
C679 O663 1.245 . S
C679 O664 1.259 . S
Tb680 O683 2.453 . S
Tb680 O684 2.596 . S
Tb680 O685 2.374 . S
Tb680 O693 2.343 . S
Tb680 O695 2.353 . S
Tb680 O697 2.427 . S
Tb680 O698 2.513 . S
C681 O685 1.251 . S
C681 O687 1.263 . S
Tb682 O684 2.343 . S
Tb682 O687 2.353 . S
Tb682 O690 2.427 . S
Tb682 O691 2.513 . S
Tb682 O692 2.453 . S
Tb682 O693 2.596 . S
Tb682 O694 2.374 . S
O683 Tb680 2.453 . S
O683 C699 1.245 . S
O684 Tb680 2.596 . S
O684 Tb682 2.343 . S
O684 C699 1.259 . S
O685 Tb680 2.374 . S
O685 C681 1.251 . S
C686 O690 1.275 . S
C686 O691 1.246 . S
O687 C681 1.263 . S
O687 Tb682 2.353 . S
C688 O692 1.245 . S
C688 O693 1.259 . S
C689 O694 1.250 . S
C689 O695 1.263 . S
O690 Tb682 2.427 . S
O690 C686 1.275 . S
O691 Tb682 2.513 . S
O691 C686 1.246 . S
O692 Tb682 2.453 . S
O692 C688 1.245 . S
O693 Tb680 2.343 . S
O693 Tb682 2.596 . S
O693 C688 1.259 . S
O694 Tb682 2.374 . S
O694 C689 1.250 . S
O695 Tb680 2.353 . S
O695 C689 1.263 . S
C696 O697 1.275 . S
C696 O698 1.246 . S
O697 Tb680 2.427 . S
O697 C696 1.275 . S
O698 Tb680 2.513 . S
O698 C696 1.246 . S
C699 O683 1.245 . S
C699 O684 1.259 . S
Tb700 O703 2.453 . S
Tb700 O704 2.596 . S
Tb700 O705 2.374 . S
Tb700 O713 2.343 . S
Tb700 O715 2.353 . S
Tb700 O717 2.427 . S
Tb700 O718 2.513 . S
C701 O705 1.251 . S
C701 O707 1.263 . S
Tb702 O704 2.343 . S
Tb702 O707 2.353 . S
Tb702 O710 2.427 . S
Tb702 O711 2.513 . S
Tb702 O712 2.453 . S
Tb702 O713 2.596 . S
Tb702 O714 2.374 . S
O703 Tb700 2.453 . S
O703 C719 1.245 . S
O704 Tb700 2.596 . S
O704 Tb702 2.343 . S
O704 C719 1.259 . S
O705 Tb700 2.374 . S
O705 C701 1.251 . S
C706 O710 1.275 . S
C706 O711 1.246 . S
O707 C701 1.263 . S
O707 Tb702 2.353 . S
C708 O712 1.245 . S
C708 O713 1.259 . S
C709 O714 1.250 . S
C709 O715 1.263 . S
O710 Tb702 2.427 . S
O710 C706 1.275 . S
O711 Tb702 2.513 . S
O711 C706 1.246 . S
O712 Tb702 2.453 . S
O712 C708 1.245 . S
O713 Tb700 2.343 . S
O713 Tb702 2.596 . S
O713 C708 1.259 . S
O714 Tb702 2.374 . S
O714 C709 1.250 . S
O715 Tb700 2.353 . S
O715 C709 1.263 . S
C716 O717 1.275 . S
C716 O718 1.246 . S
O717 Tb700 2.427 . S
O717 C716 1.275 . S
O718 Tb700 2.513 . S
O718 C716 1.246 . S
C719 O703 1.245 . S
C719 O704 1.259 . S
Tb720 O723 2.453 . S
Tb720 O724 2.596 . S
Tb720 O725 2.374 . S
Tb720 O733 2.343 . S
Tb720 O735 2.353 . S
Tb720 O737 2.427 . S
Tb720 O738 2.513 . S
C721 O725 1.251 . S
C721 O727 1.263 . S
Tb722 O724 2.343 . S
Tb722 O727 2.353 . S
Tb722 O730 2.427 . S
Tb722 O731 2.513 . S
Tb722 O732 2.453 . S
Tb722 O733 2.596 . S
Tb722 O734 2.374 . S
O723 Tb720 2.453 . S
O723 C739 1.245 . S
O724 Tb720 2.596 . S
O724 Tb722 2.343 . S
O724 C739 1.259 . S
O725 Tb720 2.374 . S
O725 C721 1.251 . S
C726 O730 1.275 . S
C726 O731 1.246 . S
O727 C721 1.263 . S
O727 Tb722 2.353 . S
C728 O732 1.245 . S
C728 O733 1.259 . S
C729 O734 1.250 . S
C729 O735 1.263 . S
O730 Tb722 2.427 . S
O730 C726 1.275 . S
O731 Tb722 2.513 . S
O731 C726 1.246 . S
O732 Tb722 2.453 . S
O732 C728 1.245 . S
O733 Tb720 2.343 . S
O733 Tb722 2.596 . S
O733 C728 1.259 . S
O734 Tb722 2.374 . S
O734 C729 1.250 . S
O735 Tb720 2.353 . S
O735 C729 1.263 . S
C736 O737 1.275 . S
C736 O738 1.246 . S
O737 Tb720 2.427 . S
O737 C736 1.275 . S
O738 Tb720 2.513 . S
O738 C736 1.246 . S
C739 O723 1.245 . S
C739 O724 1.259 . S
Tb740 O743 2.453 . S
Tb740 O744 2.596 . S
Tb740 O745 2.374 . S
Tb740 O753 2.343 . S
Tb740 O755 2.353 . S
Tb740 O757 2.427 . S
Tb740 O758 2.513 . S
C741 O745 1.251 . S
C741 O747 1.263 . S
Tb742 O744 2.343 . S
Tb742 O747 2.353 . S
Tb742 O750 2.427 . S
Tb742 O751 2.513 . S
Tb742 O752 2.453 . S
Tb742 O753 2.596 . S
Tb742 O754 2.374 . S
O743 Tb740 2.453 . S
O743 C759 1.245 . S
O744 Tb740 2.596 . S
O744 Tb742 2.343 . S
O744 C759 1.259 . S
O745 Tb740 2.374 . S
O745 C741 1.251 . S
C746 O750 1.275 . S
C746 O751 1.246 . S
O747 C741 1.263 . S
O747 Tb742 2.353 . S
C748 O752 1.245 . S
C748 O753 1.259 . S
C749 O754 1.250 . S
C749 O755 1.263 . S
O750 Tb742 2.427 . S
O750 C746 1.275 . S
O751 Tb742 2.513 . S
O751 C746 1.246 . S
O752 Tb742 2.453 . S
O752 C748 1.245 . S
O753 Tb740 2.343 . S
O753 Tb742 2.596 . S
O753 C748 1.259 . S
O754 Tb742 2.374 . S
O754 C749 1.250 . S
O755 Tb740 2.353 . S
O755 C749 1.263 . S
C756 O757 1.275 . S
C756 O758 1.246 . S
O757 Tb740 2.427 . S
O757 C756 1.275 . S
O758 Tb740 2.513 . S
O758 C756 1.246 . S
C759 O743 1.245 . S
C759 O744 1.259 . S
Tb760 O763 2.453 . S
Tb760 O764 2.596 . S
Tb760 O765 2.374 . S
Tb760 O773 2.343 . S
Tb760 O775 2.353 . S
Tb760 O777 2.427 . S
Tb760 O778 2.513 . S
C761 O765 1.251 . S
C761 O767 1.263 . S
Tb762 O764 2.343 . S
Tb762 O767 2.353 . S
Tb762 O770 2.427 . S
Tb762 O771 2.513 . S
Tb762 O772 2.453 . S
Tb762 O773 2.596 . S
Tb762 O774 2.374 . S
O763 Tb760 2.453 . S
O763 C779 1.245 . S
O764 Tb760 2.596 . S
O764 Tb762 2.343 . S
O764 C779 1.259 . S
O765 Tb760 2.374 . S
O765 C761 1.251 . S
C766 O770 1.275 . S
C766 O771 1.246 . S
O767 C761 1.263 . S
O767 Tb762 2.353 . S
C768 O772 1.245 . S
C768 O773 1.259 . S
C769 O774 1.250 . S
C769 O775 1.263 . S
O770 Tb762 2.427 . S
O770 C766 1.275 . S
O771 Tb762 2.513 . S
O771 C766 1.246 . S
O772 Tb762 2.453 . S
O772 C768 1.245 . S
O773 Tb760 2.343 . S
O773 Tb762 2.596 . S
O773 C768 1.259 . S
O774 Tb762 2.374 . S
O774 C769 1.250 . S
O775 Tb760 2.353 . S
O775 C769 1.263 . S
C776 O777 1.275 . S
C776 O778 1.246 . S
O777 Tb760 2.427 . S
O777 C776 1.275 . S
O778 Tb760 2.513 . S
O778 C776 1.246 . S
C779 O763 1.245 . S
C779 O764 1.259 . S
Tb780 O783 2.453 . S
Tb780 O784 2.596 . S
Tb780 O785 2.374 . S
Tb780 O793 2.343 . S
Tb780 O795 2.353 . S
Tb780 O797 2.427 . S
Tb780 O798 2.513 . S
C781 O785 1.251 . S
C781 O787 1.263 . S
Tb782 O784 2.343 . S
Tb782 O787 2.353 . S
Tb782 O790 2.427 . S
Tb782 O791 2.513 . S
Tb782 O792 2.453 . S
Tb782 O793 2.596 . S
Tb782 O794 2.374 . S
O783 Tb780 2.453 . S
O783 C799 1.245 . S
O784 Tb780 2.596 . S
O784 Tb782 2.343 . S
O784 C799 1.259 . S
O785 Tb780 2.374 . S
O785 C781 1.251 . S
C786 O790 1.275 . S
C786 O791 1.246 . S
O787 C781 1.263 . S
O787 Tb782 2.353 . S
C788 O792 1.245 . S
C788 O793 1.259 . S
C789 O794 1.250 . S
C789 O795 1.263 . S
O790 Tb782 2.427 . S
O790 C786 1.275 . S
O791 Tb782 2.513 . S
O791 C786 1.246 . S
O792 Tb782 2.453 . S
O792 C788 1.245 . S
O793 Tb780 2.343 . S
O793 Tb782 2.596 . S
O793 C788 1.259 . S
O794 Tb782 2.374 . S
O794 C789 1.250 . S
O795 Tb780 2.353 . S
O795 C789 1.263 . S
C796 O797 1.275 . S
C796 O798 1.246 . S
O797 Tb780 2.427 . S
O797 C796 1.275 . S
O798 Tb780 2.513 . S
O798 C796 1.246 . S
C799 O783 1.245 . S
C799 O784 1.259 . S
Tb800 O803 2.453 . S
Tb800 O804 2.596 . S
Tb800 O805 2.374 . S
Tb800 O813 2.343 . S
Tb800 O815 2.353 . S
Tb800 O817 2.427 . S
Tb800 O818 2.513 . S
C801 O805 1.251 . S
C801 O807 1.263 . S
Tb802 O804 2.343 . S
Tb802 O807 2.353 . S
Tb802 O810 2.427 . S
Tb802 O811 2.513 . S
Tb802 O812 2.453 . S
Tb802 O813 2.596 . S
Tb802 O814 2.374 . S
O803 Tb800 2.453 . S
O803 C819 1.245 . S
O804 Tb800 2.596 . S
O804 Tb802 2.343 . S
O804 C819 1.259 . S
O805 Tb800 2.374 . S
O805 C801 1.251 . S
C806 O810 1.275 . S
C806 O811 1.246 . S
O807 C801 1.263 . S
O807 Tb802 2.353 . S
C808 O812 1.245 . S
C808 O813 1.259 . S
C809 O814 1.250 . S
C809 O815 1.263 . S
O810 Tb802 2.427 . S
O810 C806 1.275 . S
O811 Tb802 2.513 . S
O811 C806 1.246 . S
O812 Tb802 2.453 . S
O812 C808 1.245 . S
O813 Tb800 2.343 . S
O813 Tb802 2.596 . S
O813 C808 1.259 . S
O814 Tb802 2.374 . S
O814 C809 1.250 . S
O815 Tb800 2.353 . S
O815 C809 1.263 . S
C816 O817 1.275 . S
C816 O818 1.246 . S
O817 Tb800 2.427 . S
O817 C816 1.275 . S
O818 Tb800 2.513 . S
O818 C816 1.246 . S
C819 O803 1.245 . S
C819 O804 1.259 . S
Tb820 O823 2.453 . S
Tb820 O824 2.596 . S
Tb820 O825 2.374 . S
Tb820 O833 2.343 . S
Tb820 O835 2.353 . S
Tb820 O837 2.427 . S
Tb820 O838 2.513 . S
C821 O825 1.251 . S
C821 O827 1.263 . S
Tb822 O824 2.343 . S
Tb822 O827 2.353 . S
Tb822 O830 2.427 . S
Tb822 O831 2.513 . S
Tb822 O832 2.453 . S
Tb822 O833 2.596 . S
Tb822 O834 2.374 . S
O823 Tb820 2.453 . S
O823 C839 1.245 . S
O824 Tb820 2.596 . S
O824 Tb822 2.343 . S
O824 C839 1.259 . S
O825 Tb820 2.374 . S
O825 C821 1.251 . S
C826 O830 1.275 . S
C826 O831 1.246 . S
O827 C821 1.263 . S
O827 Tb822 2.353 . S
C828 O832 1.245 . S
C828 O833 1.259 . S
C829 O834 1.250 . S
C829 O835 1.263 . S
O830 Tb822 2.427 . S
O830 C826 1.275 . S
O831 Tb822 2.513 . S
O831 C826 1.246 . S
O832 Tb822 2.453 . S
O832 C828 1.245 . S
O833 Tb820 2.343 . S
O833 Tb822 2.596 . S
O833 C828 1.259 . S
O834 Tb822 2.374 . S
O834 C829 1.250 . S
O835 Tb820 2.353 . S
O835 C829 1.263 . S
C836 O837 1.275 . S
C836 O838 1.246 . S
O837 Tb820 2.427 . S
O837 C836 1.275 . S
O838 Tb820 2.513 . S
O838 C836 1.246 . S
C839 O823 1.245 . S
C839 O824 1.259 . S
Tb840 O843 2.453 . S
Tb840 O844 2.596 . S
Tb840 O845 2.374 . S
Tb840 O853 2.343 . S
Tb840 O855 2.353 . S
Tb840 O857 2.427 . S
Tb840 O858 2.513 . S
C841 O845 1.251 . S
C841 O847 1.263 . S
Tb842 O844 2.343 . S
Tb842 O847 2.353 . S
Tb842 O850 2.427 . S
Tb842 O851 2.513 . S
Tb842 O852 2.453 . S
Tb842 O853 2.596 . S
Tb842 O854 2.374 . S
O843 Tb840 2.453 . S
O843 C859 1.245 . S
O844 Tb840 2.596 . S
O844 Tb842 2.343 . S
O844 C859 1.259 . S
O845 Tb840 2.374 . S
O845 C841 1.251 . S
C846 O850 1.275 . S
C846 O851 1.246 . S
O847 C841 1.263 . S
O847 Tb842 2.353 . S
C848 O852 1.245 . S
C848 O853 1.259 . S
C849 O854 1.250 . S
C849 O855 1.263 . S
O850 Tb842 2.427 . S
O850 C846 1.275 . S
O851 Tb842 2.513 . S
O851 C846 1.246 . S
O852 Tb842 2.453 . S
O852 C848 1.245 . S
O853 Tb840 2.343 . S
O853 Tb842 2.596 . S
O853 C848 1.259 . S
O854 Tb842 2.374 . S
O854 C849 1.250 . S
O855 Tb840 2.353 . S
O855 C849 1.263 . S
C856 O857 1.275 . S
C856 O858 1.246 . S
O857 Tb840 2.427 . S
O857 C856 1.275 . S
O858 Tb840 2.513 . S
O858 C856 1.246 . S
C859 O843 1.245 . S
C859 O844 1.259 . S
Tb860 O863 2.453 . S
Tb860 O864 2.596 . S
Tb860 O865 2.374 . S
Tb860 O873 2.343 . S
Tb860 O875 2.353 . S
Tb860 O877 2.427 . S
Tb860 O878 2.513 . S
C861 O865 1.251 . S
C861 O867 1.263 . S
Tb862 O864 2.343 . S
Tb862 O867 2.353 . S
Tb862 O870 2.427 . S
Tb862 O871 2.513 . S
Tb862 O872 2.453 . S
Tb862 O873 2.596 . S
Tb862 O874 2.374 . S
O863 Tb860 2.453 . S
O863 C879 1.245 . S
O864 Tb860 2.596 . S
O864 Tb862 2.343 . S
O864 C879 1.259 . S
O865 Tb860 2.374 . S
O865 C861 1.251 . S
C866 O870 1.275 . S
C866 O871 1.246 . S
O867 C861 1.263 . S
O867 Tb862 2.353 . S
C868 O872 1.245 . S
C868 O873 1.259 . S
C869 O874 1.250 . S
C869 O875 1.263 . S
O870 Tb862 2.427 . S
O870 C866 1.275 . S
O871 Tb862 2.513 . S
O871 C866 1.246 . S
O872 Tb862 2.453 . S
O872 C868 1.245 . S
O873 Tb860 2.343 . S
O873 Tb862 2.596 . S
O873 C868 1.259 . S
O874 Tb862 2.374 . S
O874 C869 1.250 . S
O875 Tb860 2.353 . S
O875 C869 1.263 . S
C876 O877 1.275 . S
C876 O878 1.246 . S
O877 Tb860 2.427 . S
O877 C876 1.275 . S
O878 Tb860 2.513 . S
O878 C876 1.246 . S
C879 O863 1.245 . S
C879 O864 1.259 . S
Tb880 O883 2.453 . S
Tb880 O884 2.596 . S
Tb880 O885 2.374 . S
Tb880 O893 2.343 . S
Tb880 O895 2.353 . S
Tb880 O897 2.427 . S
Tb880 O898 2.513 . S
C881 O885 1.251 . S
C881 O887 1.263 . S
Tb882 O884 2.343 . S
Tb882 O887 2.353 . S
Tb882 O890 2.427 . S
Tb882 O891 2.513 . S
Tb882 O892 2.453 . S
Tb882 O893 2.596 . S
Tb882 O894 2.374 . S
O883 Tb880 2.453 . S
O883 C899 1.245 . S
O884 Tb880 2.596 . S
O884 Tb882 2.343 . S
O884 C899 1.259 . S
O885 Tb880 2.374 . S
O885 C881 1.251 . S
C886 O890 1.275 . S
C886 O891 1.246 . S
O887 C881 1.263 . S
O887 Tb882 2.353 . S
C888 O892 1.245 . S
C888 O893 1.259 . S
C889 O894 1.250 . S
C889 O895 1.263 . S
O890 Tb882 2.427 . S
O890 C886 1.275 . S
O891 Tb882 2.513 . S
O891 C886 1.246 . S
O892 Tb882 2.453 . S
O892 C888 1.245 . S
O893 Tb880 2.343 . S
O893 Tb882 2.596 . S
O893 C888 1.259 . S
O894 Tb882 2.374 . S
O894 C889 1.250 . S
O895 Tb880 2.353 . S
O895 C889 1.263 . S
C896 O897 1.275 . S
C896 O898 1.246 . S
O897 Tb880 2.427 . S
O897 C896 1.275 . S
O898 Tb880 2.513 . S
O898 C896 1.246 . S
C899 O883 1.245 . S
C899 O884 1.259 . S
Tb900 O903 2.453 . S
Tb900 O904 2.596 . S
Tb900 O905 2.374 . S
Tb900 O913 2.343 . S
Tb900 O915 2.353 . S
Tb900 O917 2.427 . S
Tb900 O918 2.513 . S
C901 O905 1.251 . S
C901 O907 1.263 . S
Tb902 O904 2.343 . S
Tb902 O907 2.353 . S
Tb902 O910 2.427 . S
Tb902 O911 2.513 . S
Tb902 O912 2.453 . S
Tb902 O913 2.596 . S
Tb902 O914 2.374 . S
O903 Tb900 2.453 . S
O903 C919 1.245 . S
O904 Tb900 2.596 . S
O904 Tb902 2.343 . S
O904 C919 1.259 . S
O905 Tb900 2.374 . S
O905 C901 1.251 . S
C906 O910 1.275 . S
C906 O911 1.246 . S
O907 C901 1.263 . S
O907 Tb902 2.353 . S
C908 O912 1.245 . S
C908 O913 1.259 . S
C909 O914 1.250 . S
C909 O915 1.263 . S
O910 Tb902 2.427 . S
O910 C906 1.275 . S
O911 Tb902 2.513 . S
O911 C906 1.246 . S
O912 Tb902 2.453 . S
O912 C908 1.245 . S
O913 Tb900 2.343 . S
O913 Tb902 2.596 . S
O913 C908 1.259 . S
O914 Tb902 2.374 . S
O914 C909 1.250 . S
O915 Tb900 2.353 . S
O915 C909 1.263 . S
C916 O917 1.275 . S
C916 O918 1.246 . S
O917 Tb900 2.427 . S
O917 C916 1.275 . S
O918 Tb900 2.513 . S
O918 C916 1.246 . S
C919 O903 1.245 . S
C919 O904 1.259 . S
Tb920 O923 2.453 . S
Tb920 O924 2.596 . S
Tb920 O925 2.374 . S
Tb920 O933 2.343 . S
Tb920 O935 2.353 . S
Tb920 O937 2.427 . S
Tb920 O938 2.513 . S
C921 O925 1.251 . S
C921 O927 1.263 . S
Tb922 O924 2.343 . S
Tb922 O927 2.353 . S
Tb922 O930 2.427 . S
Tb922 O931 2.513 . S
Tb922 O932 2.453 . S
Tb922 O933 2.596 . S
Tb922 O934 2.374 . S
O923 Tb920 2.453 . S
O923 C939 1.245 . S
O924 Tb920 2.596 . S
O924 Tb922 2.343 . S
O924 C939 1.259 . S
O925 Tb920 2.374 . S
O925 C921 1.251 . S
C926 O930 1.275 . S
C926 O931 1.246 . S
O927 C921 1.263 . S
O927 Tb922 2.353 . S
C928 O932 1.245 . S
C928 O933 1.259 . S
C929 O934 1.250 . S
C929 O935 1.263 . S
O930 Tb922 2.427 . S
O930 C926 1.275 . S
O931 Tb922 2.513 . S
O931 C926 1.246 . S
O932 Tb922 2.453 . S
O932 C928 1.245 . S
O933 Tb920 2.343 . S
O933 Tb922 2.596 . S
O933 C928 1.259 . S
O934 Tb922 2.374 . S
O934 C929 1.250 . S
O935 Tb920 2.353 . S
O935 C929 1.263 . S
C936 O937 1.275 . S
C936 O938 1.246 . S
O937 Tb920 2.427 . S
O937 C936 1.275 . S
O938 Tb920 2.513 . S
O938 C936 1.246 . S
C939 O923 1.245 . S
C939 O924 1.259 . S
Tb940 O943 2.453 . S
Tb940 O944 2.596 . S
Tb940 O945 2.374 . S
Tb940 O953 2.343 . S
Tb940 O955 2.353 . S
Tb940 O957 2.427 . S
Tb940 O958 2.513 . S
C941 O945 1.251 . S
C941 O947 1.263 . S
Tb942 O944 2.343 . S
Tb942 O947 2.353 . S
Tb942 O950 2.427 . S
Tb942 O951 2.513 . S
Tb942 O952 2.453 . S
Tb942 O953 2.596 . S
Tb942 O954 2.374 . S
O943 Tb940 2.453 . S
O943 C959 1.245 . S
O944 Tb940 2.596 . S
O944 Tb942 2.343 . S
O944 C959 1.259 . S
O945 Tb940 2.374 . S
O945 C941 1.251 . S
C946 O950 1.275 . S
C946 O951 1.246 . S
O947 C941 1.263 . S
O947 Tb942 2.353 . S
C948 O952 1.245 . S
C948 O953 1.259 . S
C949 O954 1.250 . S
C949 O955 1.263 . S
O950 Tb942 2.427 . S
O950 C946 1.275 . S
O951 Tb942 2.513 . S
O951 C946 1.246 . S
O952 Tb942 2.453 . S
O952 C948 1.245 . S
O953 Tb940 2.343 . S
O953 Tb942 2.596 . S
O953 C948 1.259 . S
O954 Tb942 2.374 . S
O954 C949 1.250 . S
O955 Tb940 2.353 . S
O955 C949 1.263 . S
C956 O957 1.275 . S
C956 O958 1.246 . S
O957 Tb940 2.427 . S
O957 C956 1.275 . S
O958 Tb940 2.513 . S
O958 C956 1.246 . S
C959 O943 1.245 . S
C959 O944 1.259 . S
H960 C968 0.950 . S
H961 C973 0.950 . S
H962 C970 0.950 . S
H963 C972 0.950 . S
H964 C974 0.950 . S
H965 C976 0.950 . S
H966 C978 0.950 . S
H967 C979 0.950 . S
C968 H960 0.950 . S
C968 C969 1.386 1_655 S
C968 C970 1.391 . S
C969 C968 1.386 1_455 S
C969 C973 1.393 . S
C970 H962 0.950 . S
C970 C968 1.391 . S
C970 C971 1.400 1_655 S
C971 C970 1.400 1_455 S
C971 C972 1.398 . S
C971 C977 1.491 . S
C972 H963 0.950 . S
C972 C971 1.398 . S
C972 C973 1.391 . S
C973 H961 0.950 . S
C973 C969 1.393 . S
C973 C972 1.391 . S
C974 H964 0.950 . S
C974 C975 1.386 . S
C974 C976 1.391 . S
C975 C974 1.386 . S
C975 C979 1.393 1_455 S
C976 H965 0.950 . S
C976 C974 1.391 . S
C976 C977 1.400 . S
C977 C971 1.491 . S
C977 C976 1.400 . S
C977 C978 1.398 1_455 S
C978 H966 0.950 . S
C978 C977 1.398 1_655 S
C978 C979 1.391 . S
C979 H967 0.950 . S
C979 C975 1.393 1_655 S
C979 C978 1.391 . S
H980 C988 0.950 1_565 S
H981 C993 0.950 . S
H982 C990 0.950 1_565 S
H983 C992 0.950 . S
H984 C994 0.950 . S
H985 C996 0.950 . S
H986 C998 0.938 1_565 S
H987 C999 0.969 . S
C988 H980 0.950 1_545 S
C988 C989 1.386 . S
C988 C990 1.391 . S
C989 C988 1.386 . S
C989 C993 1.393 . S
C990 H982 0.950 1_545 S
C990 C988 1.391 . S
C990 C991 1.400 . S
C991 C990 1.400 . S
C991 C992 1.398 . S
C991 C997 1.491 . S
C992 H983 0.950 . S
C992 C991 1.398 . S
C992 C993 1.391 . S
C993 H981 0.950 . S
C993 C989 1.393 . S
C993 C992 1.391 . S
C994 H984 0.950 . S
C994 C995 1.386 . S
C994 C996 1.391 . S
C995 C994 1.386 . S
C995 C999 1.376 1_545 S
C996 H985 0.950 . S
C996 C994 1.391 . S
C996 C997 1.400 . S
C997 C991 1.491 . S
C997 C996 1.400 . S
C997 C998 1.413 . S
C998 H986 0.938 1_545 S
C998 C997 1.413 . S
C998 C999 1.389 1_545 S
C999 H987 0.969 . S
C999 C995 1.376 1_565 S
C999 C998 1.389 1_565 S
H1000 C1008 0.950 . S
H1001 C1013 0.950 . S
H1002 C1010 0.950 . S
H1003 C1012 0.950 . S
H1004 C1014 0.950 . S
H1005 C1016 0.950 . S
H1006 C1018 0.950 . S
H1007 C1019 0.950 . S
C1008 H1000 0.950 . S
C1008 C1009 1.386 1_655 S
C1008 C1010 1.391 . S
C1009 C1008 1.386 1_455 S
C1009 C1013 1.393 . S
C1010 H1002 0.950 . S
C1010 C1008 1.391 . S
C1010 C1011 1.400 1_655 S
C1011 C1010 1.400 1_455 S
C1011 C1012 1.398 . S
C1011 C1017 1.491 . S
C1012 H1003 0.950 . S
C1012 C1011 1.398 . S
C1012 C1013 1.391 . S
C1013 H1001 0.950 . S
C1013 C1009 1.393 . S
C1013 C1012 1.391 . S
C1014 H1004 0.950 . S
C1014 C1015 1.386 . S
C1014 C1016 1.391 . S
C1015 C1014 1.386 . S
C1015 C1019 1.393 1_455 S
C1016 H1005 0.950 . S
C1016 C1014 1.391 . S
C1016 C1017 1.400 . S
C1017 C1011 1.491 . S
C1017 C1016 1.400 . S
C1017 C1018 1.398 1_455 S
C1018 H1006 0.950 . S
C1018 C1017 1.398 1_655 S
C1018 C1019 1.391 . S
C1019 H1007 0.950 . S
C1019 C1015 1.393 1_655 S
C1019 C1018 1.391 . S
H1020 C1028 0.950 . S
H1021 C1033 0.950 . S
H1022 C1030 0.950 . S
H1023 C1032 0.950 . S
H1024 C1034 0.950 . S
H1025 C1036 0.950 . S
H1026 C1038 0.950 1_565 S
H1027 C1039 0.950 1_565 S
C1028 H1020 0.950 . S
C1028 C1029 1.386 1_565 S
C1028 C1030 1.391 . S
C1029 C1028 1.386 1_545 S
C1029 C1033 1.393 . S
C1030 H1022 0.950 . S
C1030 C1028 1.391 . S
C1030 C1031 1.400 1_565 S
C1031 C1030 1.400 1_545 S
C1031 C1032 1.398 . S
C1031 C1037 1.491 . S
C1032 H1023 0.950 . S
C1032 C1031 1.398 . S
C1032 C1033 1.391 . S
C1033 H1021 0.950 . S
C1033 C1029 1.393 . S
C1033 C1032 1.391 . S
C1034 H1024 0.950 . S
C1034 C1035 1.386 . S
C1034 C1036 1.391 . S
C1035 C1034 1.386 . S
C1035 C1039 1.393 . S
C1036 H1025 0.950 . S
C1036 C1034 1.391 . S
C1036 C1037 1.400 . S
C1037 C1031 1.491 . S
C1037 C1036 1.400 . S
C1037 C1038 1.398 . S
C1038 H1026 0.950 1_545 S
C1038 C1037 1.398 . S
C1038 C1039 1.391 . S
C1039 H1027 0.950 1_545 S
C1039 C1035 1.393 . S
C1039 C1038 1.391 . S
H1040 C1048 0.950 . S
H1041 C1053 0.950 . S
H1042 C1050 0.950 . S
H1043 C1052 0.950 . S
H1044 C1054 0.950 . S
H1045 C1056 0.950 . S
H1046 C1058 0.950 . S
H1047 C1059 0.950 . S
C1048 H1040 0.950 . S
C1048 C1049 1.386 1_565 S
C1048 C1050 1.391 . S
C1049 C1048 1.386 1_545 S
C1049 C1053 1.393 . S
C1050 H1042 0.950 . S
C1050 C1048 1.391 . S
C1050 C1051 1.400 1_565 S
C1051 C1050 1.400 1_545 S
C1051 C1052 1.398 . S
C1051 C1057 1.497 . S
C1052 H1043 0.950 . S
C1052 C1051 1.398 . S
C1052 C1053 1.391 . S
C1053 H1041 0.950 . S
C1053 C1049 1.393 . S
C1053 C1052 1.391 . S
C1054 H1044 0.950 . S
C1054 C1055 1.386 1_545 S
C1054 C1056 1.391 . S
C1055 C1054 1.386 1_565 S
C1055 C1059 1.393 . S
C1056 H1045 0.950 . S
C1056 C1054 1.391 . S
C1056 C1057 1.421 . S
C1057 C1051 1.497 . S
C1057 C1056 1.421 . S
C1057 C1058 1.374 1_545 S
C1058 H1046 0.950 . S
C1058 C1057 1.374 1_565 S
C1058 C1059 1.391 . S
C1059 H1047 0.950 . S
C1059 C1055 1.393 . S
C1059 C1058 1.391 . S
H1060 C1068 0.950 . S
H1061 C1073 0.950 . S
H1062 C1070 0.950 . S
H1063 C1072 0.950 . S
H1064 C1074 0.950 . S
H1065 C1076 0.950 . S
H1066 C1078 0.950 . S
H1067 C1079 0.950 . S
C1068 H1060 0.950 . S
C1068 C1069 1.386 . S
C1068 C1070 1.391 . S
C1069 C1068 1.386 . S
C1069 C1073 1.393 . S
C1070 H1062 0.950 . S
C1070 C1068 1.391 . S
C1070 C1071 1.400 . S
C1071 C1070 1.400 . S
C1071 C1072 1.398 . S
C1071 C1077 1.491 . S
C1072 H1063 0.950 . S
C1072 C1071 1.398 . S
C1072 C1073 1.391 . S
C1073 H1061 0.950 . S
C1073 C1069 1.393 . S
C1073 C1072 1.391 . S
C1074 H1064 0.950 . S
C1074 C1075 1.386 . S
C1074 C1076 1.391 . S
C1075 C1074 1.386 . S
C1075 C1079 1.393 . S
C1076 H1065 0.950 . S
C1076 C1074 1.391 . S
C1076 C1077 1.400 . S
C1077 C1071 1.491 . S
C1077 C1076 1.400 . S
C1077 C1078 1.398 . S
C1078 H1066 0.950 . S
C1078 C1077 1.398 . S
C1078 C1079 1.391 . S
C1079 H1067 0.950 . S
C1079 C1075 1.393 . S
C1079 C1078 1.391 . S
H1080 C1088 0.950 . S
H1081 C1093 0.950 . S
H1082 C1090 0.950 . S
H1083 C1092 0.950 . S
H1084 C1094 0.950 . S
H1085 C1096 0.950 . S
H1086 C1098 0.950 . S
H1087 C1099 0.950 . S
C1088 H1080 0.950 . S
C1088 C1089 1.386 . S
C1088 C1090 1.391 . S
C1089 C1088 1.386 . S
C1089 C1093 1.393 . S
C1090 H1082 0.950 . S
C1090 C1088 1.391 . S
C1090 C1091 1.400 . S
C1091 C1090 1.400 . S
C1091 C1092 1.398 . S
C1091 C1097 1.491 . S
C1092 H1083 0.950 . S
C1092 C1091 1.398 . S
C1092 C1093 1.391 . S
C1093 H1081 0.950 . S
C1093 C1089 1.393 . S
C1093 C1092 1.391 . S
C1094 H1084 0.950 . S
C1094 C1095 1.386 . S
C1094 C1096 1.391 . S
C1095 C1094 1.386 . S
C1095 C1099 1.393 . S
C1096 H1085 0.950 . S
C1096 C1094 1.391 . S
C1096 C1097 1.400 . S
C1097 C1091 1.491 . S
C1097 C1096 1.400 . S
C1097 C1098 1.398 . S
C1098 H1086 0.950 . S
C1098 C1097 1.398 . S
C1098 C1099 1.391 . S
C1099 H1087 0.950 . S
C1099 C1095 1.393 . S
C1099 C1098 1.391 . S
H1100 C1108 0.950 . S
H1101 C1113 0.950 . S
H1102 C1110 0.950 . S
H1103 C1112 0.950 . S
H1104 C1114 0.950 . S
H1105 C1116 0.950 . S
H1106 C1118 0.950 . S
H1107 C1119 0.950 . S
C1108 H1100 0.950 . S
C1108 C1109 1.386 . S
C1108 C1110 1.391 . S
C1109 C1108 1.386 . S
C1109 C1113 1.393 1_455 S
C1110 H1102 0.950 . S
C1110 C1108 1.391 . S
C1110 C1111 1.400 . S
C1111 C1110 1.400 . S
C1111 C1112 1.398 1_455 S
C1111 C1117 1.491 . S
C1112 H1103 0.950 . S
C1112 C1111 1.398 1_655 S
C1112 C1113 1.391 . S
C1113 H1101 0.950 . S
C1113 C1109 1.393 1_655 S
C1113 C1112 1.391 . S
C1114 H1104 0.950 . S
C1114 C1115 1.386 . S
C1114 C1116 1.391 . S
C1115 C1114 1.386 . S
C1115 C1119 1.393 1_655 S
C1116 H1105 0.950 . S
C1116 C1114 1.391 . S
C1116 C1117 1.400 1_655 S
C1117 C1111 1.491 . S
C1117 C1116 1.400 1_455 S
C1117 C1118 1.398 . S
C1118 H1106 0.950 . S
C1118 C1117 1.398 . S
C1118 C1119 1.391 . S
C1119 H1107 0.950 . S
C1119 C1115 1.393 1_455 S
C1119 C1118 1.391 . S
H1120 C1128 0.950 . S
H1121 C1133 0.950 . S
H1122 C1130 0.950 . S
H1123 C1132 0.950 . S
H1124 C1134 0.950 . S
H1125 C1136 0.950 . S
H1126 C1138 0.950 . S
H1127 C1139 0.950 . S
C1128 H1120 0.950 . S
C1128 C1129 1.386 . S
C1128 C1130 1.391 . S
C1129 C1128 1.386 . S
C1129 C1133 1.393 . S
C1130 H1122 0.950 . S
C1130 C1128 1.391 . S
C1130 C1131 1.400 . S
C1131 C1130 1.400 . S
C1131 C1132 1.398 . S
C1131 C1137 1.491 . S
C1132 H1123 0.950 . S
C1132 C1131 1.398 . S
C1132 C1133 1.391 . S
C1133 H1121 0.950 . S
C1133 C1129 1.393 . S
C1133 C1132 1.391 . S
C1134 H1124 0.950 . S
C1134 C1135 1.386 . S
C1134 C1136 1.391 . S
C1135 C1134 1.386 . S
C1135 C1139 1.393 . S
C1136 H1125 0.950 . S
C1136 C1134 1.391 . S
C1136 C1137 1.400 . S
C1137 C1131 1.491 . S
C1137 C1136 1.400 . S
C1137 C1138 1.398 . S
C1138 H1126 0.950 . S
C1138 C1137 1.398 . S
C1138 C1139 1.391 . S
C1139 H1127 0.950 . S
C1139 C1135 1.393 . S
C1139 C1138 1.391 . S
H1140 C1148 0.950 . S
H1141 C1153 0.950 . S
H1142 C1150 0.950 . S
H1143 C1152 0.950 . S
H1144 C1154 0.950 . S
H1145 C1156 0.950 . S
H1146 C1158 0.950 . S
H1147 C1159 0.950 . S
C1148 H1140 0.950 . S
C1148 C1149 1.386 1_556 S
C1148 C1150 1.391 . S
C1149 C1148 1.386 1_554 S
C1149 C1153 1.393 . S
C1150 H1142 0.950 . S
C1150 C1148 1.391 . S
C1150 C1151 1.400 1_556 S
C1151 C1150 1.400 1_554 S
C1151 C1152 1.398 . S
C1151 C1157 1.491 . S
C1152 H1143 0.950 . S
C1152 C1151 1.398 . S
C1152 C1153 1.391 . S
C1153 H1141 0.950 . S
C1153 C1149 1.393 . S
C1153 C1152 1.391 . S
C1154 H1144 0.950 . S
C1154 C1155 1.386 . S
C1154 C1156 1.391 . S
C1155 C1154 1.386 . S
C1155 C1159 1.393 1_554 S
C1156 H1145 0.950 . S
C1156 C1154 1.391 . S
C1156 C1157 1.400 . S
C1157 C1151 1.491 . S
C1157 C1156 1.400 . S
C1157 C1158 1.398 1_554 S
C1158 H1146 0.950 . S
C1158 C1157 1.398 1_556 S
C1158 C1159 1.391 . S
C1159 H1147 0.950 . S
C1159 C1155 1.393 1_556 S
C1159 C1158 1.391 . S
H1160 C1168 0.950 . S
H1161 C1173 0.950 . S
H1162 C1170 0.950 . S
H1163 C1172 0.950 . S
H1164 C1174 0.950 . S
H1165 C1176 0.950 . S
H1166 C1178 0.950 . S
H1167 C1179 0.950 . S
C1168 H1160 0.950 . S
C1168 C1169 1.386 1_556 S
C1168 C1170 1.391 . S
C1169 C1168 1.386 1_554 S
C1169 C1173 1.393 . S
C1170 H1162 0.950 . S
C1170 C1168 1.391 . S
C1170 C1171 1.400 1_556 S
C1171 C1170 1.400 1_554 S
C1171 C1172 1.398 . S
C1171 C1177 1.491 . S
C1172 H1163 0.950 . S
C1172 C1171 1.398 . S
C1172 C1173 1.391 . S
C1173 H1161 0.950 . S
C1173 C1169 1.393 . S
C1173 C1172 1.391 . S
C1174 H1164 0.950 . S
C1174 C1175 1.386 . S
C1174 C1176 1.391 . S
C1175 C1174 1.386 . S
C1175 C1179 1.393 1_554 S
C1176 H1165 0.950 . S
C1176 C1174 1.391 . S
C1176 C1177 1.400 . S
C1177 C1171 1.491 . S
C1177 C1176 1.400 . S
C1177 C1178 1.398 1_554 S
C1178 H1166 0.950 . S
C1178 C1177 1.398 1_556 S
C1178 C1179 1.391 . S
C1179 H1167 0.950 . S
C1179 C1175 1.393 1_556 S
C1179 C1178 1.391 . S
H1180 C1188 0.950 . S
H1181 C1193 0.950 . S
H1182 C1190 0.950 . S
H1183 C1192 0.950 . S
H1184 C1194 0.950 . S
H1185 C1196 0.950 . S
H1186 C1198 0.950 . S
H1187 C1199 0.950 . S
C1188 H1180 0.950 . S
C1188 C1189 1.386 1_556 S
C1188 C1190 1.391 . S
C1189 C1188 1.386 1_554 S
C1189 C1193 1.393 . S
C1190 H1182 0.950 . S
C1190 C1188 1.391 . S
C1190 C1191 1.400 1_556 S
C1191 C1190 1.400 1_554 S
C1191 C1192 1.398 . S
C1191 C1197 1.491 . S
C1192 H1183 0.950 . S
C1192 C1191 1.398 . S
C1192 C1193 1.391 . S
C1193 H1181 0.950 . S
C1193 C1189 1.393 . S
C1193 C1192 1.391 . S
C1194 H1184 0.950 . S
C1194 C1195 1.386 . S
C1194 C1196 1.391 . S
C1195 C1194 1.386 . S
C1195 C1199 1.393 1_554 S
C1196 H1185 0.950 . S
C1196 C1194 1.391 . S
C1196 C1197 1.400 . S
C1197 C1191 1.491 . S
C1197 C1196 1.400 . S
C1197 C1198 1.398 1_554 S
C1198 H1186 0.950 . S
C1198 C1197 1.398 1_556 S
C1198 C1199 1.391 . S
C1199 H1187 0.950 . S
C1199 C1195 1.393 1_556 S
C1199 C1198 1.391 . S
H1200 C1208 0.950 . S
H1201 C1213 0.950 . S
H1202 C1210 0.955 . S
H1203 C1212 0.950 1_554 S
H1204 C1214 0.950 . S
H1205 C1216 0.950 . S
H1206 C1218 0.950 . S
H1207 C1219 0.950 . S
C1208 H1200 0.950 . S
C1208 C1209 1.386 . S
C1208 C1210 1.391 . S
C1209 C1208 1.386 . S
C1209 C1213 1.393 . S
C1210 H1202 0.955 . S
C1210 C1208 1.391 . S
C1210 C1211 1.400 1_556 S
C1211 C1210 1.400 1_554 S
C1211 C1212 1.398 1_554 S
C1211 C1217 1.491 . S
C1212 H1203 0.950 1_556 S
C1212 C1211 1.398 1_556 S
C1212 C1213 1.391 . S
C1213 H1201 0.950 . S
C1213 C1209 1.393 . S
C1213 C1212 1.391 . S
C1214 H1204 0.950 . S
C1214 C1215 1.386 . S
C1214 C1216 1.391 . S
C1215 C1214 1.386 . S
C1215 C1219 1.393 . S
C1216 H1205 0.950 . S
C1216 C1214 1.391 . S
C1216 C1217 1.400 . S
C1217 C1211 1.491 . S
C1217 C1216 1.400 . S
C1217 C1218 1.398 . S
C1218 H1206 0.950 . S
C1218 C1217 1.398 . S
C1218 C1219 1.391 . S
C1219 H1207 0.950 . S
C1219 C1215 1.393 . S
C1219 C1218 1.391 . S
H1220 C1228 0.950 . S
H1221 C1233 0.950 . S
H1222 C1230 0.950 . S
H1223 C1232 0.950 . S
H1224 C1234 0.950 . S
H1225 C1236 0.950 . S
H1226 C1238 0.950 . S
H1227 C1239 0.950 . S
C1228 H1220 0.950 . S
C1228 C1229 1.386 . S
C1228 C1230 1.391 . S
C1229 C1228 1.386 . S
C1229 C1233 1.393 . S
C1230 H1222 0.950 . S
C1230 C1228 1.391 . S
C1230 C1231 1.400 . S
C1231 C1230 1.400 . S
C1231 C1232 1.398 . S
C1231 C1237 1.491 1_556 S
C1232 H1223 0.950 . S
C1232 C1231 1.398 . S
C1232 C1233 1.391 . S
C1233 H1221 0.950 . S
C1233 C1229 1.393 . S
C1233 C1232 1.391 . S
C1234 H1224 0.950 . S
C1234 C1235 1.386 . S
C1234 C1236 1.391 . S
C1235 C1234 1.386 . S
C1235 C1239 1.393 . S
C1236 H1225 0.950 . S
C1236 C1234 1.391 . S
C1236 C1237 1.400 . S
C1237 C1231 1.491 1_554 S
C1237 C1236 1.400 . S
C1237 C1238 1.398 . S
C1238 H1226 0.950 . S
C1238 C1237 1.398 . S
C1238 C1239 1.391 . S
C1239 H1227 0.950 . S
C1239 C1235 1.393 . S
C1239 C1238 1.391 . S
H1240 C1248 0.950 . S
H1241 C1253 0.950 . S
H1242 C1250 0.950 . S
H1243 C1252 0.950 . S
H1244 C1254 0.950 . S
H1245 C1256 0.950 . S
H1246 C1258 0.950 . S
H1247 C1259 0.950 . S
C1248 H1240 0.950 . S
C1248 C1249 1.386 . S
C1248 C1250 1.391 . S
C1249 C1248 1.386 . S
C1249 C1253 1.393 . S
C1250 H1242 0.950 . S
C1250 C1248 1.391 . S
C1250 C1251 1.400 . S
C1251 C1250 1.400 . S
C1251 C1252 1.398 . S
C1251 C1257 1.491 1_556 S
C1252 H1243 0.950 . S
C1252 C1251 1.398 . S
C1252 C1253 1.391 . S
C1253 H1241 0.950 . S
C1253 C1249 1.393 . S
C1253 C1252 1.391 . S
C1254 H1244 0.950 . S
C1254 C1255 1.386 . S
C1254 C1256 1.391 . S
C1255 C1254 1.386 . S
C1255 C1259 1.393 . S
C1256 H1245 0.950 . S
C1256 C1254 1.391 . S
C1256 C1257 1.400 . S
C1257 C1251 1.491 1_554 S
C1257 C1256 1.400 . S
C1257 C1258 1.398 . S
C1258 H1246 0.950 . S
C1258 C1257 1.398 . S
C1258 C1259 1.391 . S
C1259 H1247 0.950 . S
C1259 C1255 1.393 . S
C1259 C1258 1.391 . S
H1260 C1268 0.950 . S
H1261 C1273 0.950 . S
H1262 C1270 0.950 . S
H1263 C1272 0.950 . S
H1264 C1274 0.950 . S
H1265 C1276 0.950 . S
H1266 C1278 0.950 . S
H1267 C1279 0.950 . S
C1268 H1260 0.950 . S
C1268 C1269 1.386 . S
C1268 C1270 1.391 . S
C1269 C1268 1.386 . S
C1269 C1273 1.393 . S
C1270 H1262 0.950 . S
C1270 C1268 1.391 . S
C1270 C1271 1.400 . S
C1271 C1270 1.400 . S
C1271 C1272 1.398 . S
C1271 C1277 1.491 1_556 S
C1272 H1263 0.950 . S
C1272 C1271 1.398 . S
C1272 C1273 1.391 . S
C1273 H1261 0.950 . S
C1273 C1269 1.393 . S
C1273 C1272 1.391 . S
C1274 H1264 0.950 . S
C1274 C1275 1.386 . S
C1274 C1276 1.391 . S
C1275 C1274 1.386 . S
C1275 C1279 1.393 . S
C1276 H1265 0.950 . S
C1276 C1274 1.391 . S
C1276 C1277 1.400 . S
C1277 C1271 1.491 1_554 S
C1277 C1276 1.400 . S
C1277 C1278 1.398 . S
C1278 H1266 0.950 . S
C1278 C1277 1.398 . S
C1278 C1279 1.391 . S
C1279 H1267 0.950 . S
C1279 C1275 1.393 . S
C1279 C1278 1.391 . S
H1280 C1288 0.950 . S
H1281 C1293 0.950 . S
H1282 C1290 0.950 . S
H1283 C1292 0.950 . S
H1284 C1294 0.950 . S
H1285 C1296 0.950 . S
H1286 C1298 0.950 . S
H1287 C1299 0.950 . S
C1288 H1280 0.950 . S
C1288 C1289 1.386 . S
C1288 C1290 1.391 . S
C1289 C1288 1.386 . S
C1289 C1293 1.393 . S
C1290 H1282 0.950 . S
C1290 C1288 1.391 . S
C1290 C1291 1.400 . S
C1291 C1290 1.400 . S
C1291 C1292 1.398 . S
C1291 C1297 1.491 1_655 S
C1292 H1283 0.950 . S
C1292 C1291 1.398 . S
C1292 C1293 1.391 . S
C1293 H1281 0.950 . S
C1293 C1289 1.393 . S
C1293 C1292 1.391 . S
C1294 H1284 0.950 . S
C1294 C1295 1.386 . S
C1294 C1296 1.391 . S
C1295 C1294 1.386 . S
C1295 C1299 1.393 . S
C1296 H1285 0.950 . S
C1296 C1294 1.391 . S
C1296 C1297 1.400 . S
C1297 C1291 1.491 1_455 S
C1297 C1296 1.400 . S
C1297 C1298 1.398 . S
C1298 H1286 0.950 . S
C1298 C1297 1.398 . S
C1298 C1299 1.391 . S
C1299 H1287 0.950 . S
C1299 C1295 1.393 . S
C1299 C1298 1.391 . S
H1300 C1308 0.950 . S
H1301 C1313 0.950 . S
H1302 C1310 0.950 . S
H1303 C1312 0.941 1_545 S
H1304 C1314 0.950 . S
H1305 C1316 0.950 . S
H1306 C1318 0.950 . S
H1307 C1319 0.950 . S
C1308 H1300 0.950 . S
C1308 C1309 1.386 . S
C1308 C1310 1.391 . S
C1309 C1308 1.386 . S
C1309 C1313 1.393 . S
C1310 H1302 0.950 . S
C1310 C1308 1.391 . S
C1310 C1311 1.400 1_565 S
C1311 C1310 1.400 1_545 S
C1311 C1312 1.398 1_545 S
C1311 C1317 1.491 . S
C1312 H1303 0.941 1_565 S
C1312 C1311 1.398 1_565 S
C1312 C1313 1.391 . S
C1313 H1301 0.950 . S
C1313 C1309 1.393 . S
C1313 C1312 1.391 . S
C1314 H1304 0.950 . S
C1314 C1315 1.386 . S
C1314 C1316 1.391 . S
C1315 C1314 1.386 . S
C1315 C1319 1.393 . S
C1316 H1305 0.950 . S
C1316 C1314 1.391 . S
C1316 C1317 1.400 . S
C1317 C1311 1.491 . S
C1317 C1316 1.400 . S
C1317 C1318 1.398 . S
C1318 H1306 0.950 . S
C1318 C1317 1.398 . S
C1318 C1319 1.391 . S
C1319 H1307 0.950 . S
C1319 C1315 1.393 . S
C1319 C1318 1.391 . S
H1320 C1328 0.950 . S
H1321 C1333 0.950 . S
H1322 C1330 0.950 . S
H1323 C1332 0.950 . S
H1324 C1334 0.950 . S
H1325 C1336 0.950 . S
H1326 C1338 0.950 . S
H1327 C1339 0.950 . S
C1328 H1320 0.950 . S
C1328 C1329 1.386 . S
C1328 C1330 1.391 . S
C1329 C1328 1.386 . S
C1329 C1333 1.393 . S
C1330 H1322 0.950 . S
C1330 C1328 1.391 . S
C1330 C1331 1.400 . S
C1331 C1330 1.400 . S
C1331 C1332 1.398 . S
C1331 C1337 1.491 1_655 S
C1332 H1323 0.950 . S
C1332 C1331 1.398 . S
C1332 C1333 1.391 . S
C1333 H1321 0.950 . S
C1333 C1329 1.393 . S
C1333 C1332 1.391 . S
C1334 H1324 0.950 . S
C1334 C1335 1.386 . S
C1334 C1336 1.391 . S
C1335 C1334 1.386 . S
C1335 C1339 1.393 . S
C1336 H1325 0.950 . S
C1336 C1334 1.391 . S
C1336 C1337 1.400 . S
C1337 C1331 1.491 1_455 S
C1337 C1336 1.400 . S
C1337 C1338 1.398 . S
C1338 H1326 0.950 . S
C1338 C1337 1.398 . S
C1338 C1339 1.391 . S
C1339 H1327 0.950 . S
C1339 C1335 1.393 . S
C1339 C1338 1.391 . S
H1340 C1348 0.950 . S
H1341 C1353 0.950 . S
H1342 C1350 0.950 . S
H1343 C1352 0.950 . S
H1344 C1354 0.950 . S
H1345 C1356 0.950 . S
H1346 C1358 0.950 . S
H1347 C1359 0.950 . S
C1348 H1340 0.950 . S
C1348 C1349 1.386 . S
C1348 C1350 1.391 . S
C1349 C1348 1.386 . S
C1349 C1353 1.393 . S
C1350 H1342 0.950 . S
C1350 C1348 1.391 . S
C1350 C1351 1.400 . S
C1351 C1350 1.400 . S
C1351 C1352 1.398 . S
C1351 C1357 1.491 1_545 S
C1352 H1343 0.950 . S
C1352 C1351 1.398 . S
C1352 C1353 1.391 . S
C1353 H1341 0.950 . S
C1353 C1349 1.393 . S
C1353 C1352 1.391 . S
C1354 H1344 0.950 . S
C1354 C1355 1.386 . S
C1354 C1356 1.391 . S
C1355 C1354 1.386 . S
C1355 C1359 1.393 . S
C1356 H1345 0.950 . S
C1356 C1354 1.391 . S
C1356 C1357 1.400 . S
C1357 C1351 1.491 1_565 S
C1357 C1356 1.400 . S
C1357 C1358 1.398 . S
C1358 H1346 0.950 . S
C1358 C1357 1.398 . S
C1358 C1359 1.391 . S
C1359 H1347 0.950 . S
C1359 C1355 1.393 . S
C1359 C1358 1.391 . S
H1360 C1368 0.950 . S
H1361 C1373 0.950 . S
H1362 C1370 0.950 . S
H1363 C1372 0.950 . S
H1364 C1374 0.950 . S
H1365 C1376 0.950 . S
H1366 C1378 0.950 . S
H1367 C1379 0.950 . S
C1368 H1360 0.950 . S
C1368 C1369 1.386 . S
C1368 C1370 1.391 . S
C1369 C1368 1.386 . S
C1369 C1373 1.393 . S
C1370 H1362 0.950 . S
C1370 C1368 1.391 . S
C1370 C1371 1.400 . S
C1371 C1370 1.400 . S
C1371 C1372 1.398 . S
C1371 C1377 1.491 1_565 S
C1372 H1363 0.950 . S
C1372 C1371 1.398 . S
C1372 C1373 1.391 . S
C1373 H1361 0.950 . S
C1373 C1369 1.393 . S
C1373 C1372 1.391 . S
C1374 H1364 0.950 . S
C1374 C1375 1.386 . S
C1374 C1376 1.391 . S
C1375 C1374 1.386 . S
C1375 C1379 1.393 . S
C1376 H1365 0.950 . S
C1376 C1374 1.391 . S
C1376 C1377 1.400 . S
C1377 C1371 1.491 1_545 S
C1377 C1376 1.400 . S
C1377 C1378 1.398 . S
C1378 H1366 0.950 . S
C1378 C1377 1.398 . S
C1378 C1379 1.391 . S
C1379 H1367 0.950 . S
C1379 C1375 1.393 . S
C1379 C1378 1.391 . S
H1380 C1388 0.950 . S
H1381 C1393 0.950 . S
H1382 C1390 0.950 . S
H1383 C1392 0.950 . S
H1384 C1394 0.950 . S
H1385 C1396 0.950 . S
H1386 C1398 0.950 . S
H1387 C1399 0.950 . S
C1388 H1380 0.950 . S
C1388 C1389 1.386 . S
C1388 C1390 1.391 . S
C1389 C1388 1.386 . S
C1389 C1393 1.393 . S
C1390 H1382 0.950 . S
C1390 C1388 1.391 . S
C1390 C1391 1.400 . S
C1391 C1390 1.400 . S
C1391 C1392 1.398 . S
C1391 C1397 1.491 1_455 S
C1392 H1383 0.950 . S
C1392 C1391 1.398 . S
C1392 C1393 1.391 . S
C1393 H1381 0.950 . S
C1393 C1389 1.393 . S
C1393 C1392 1.391 . S
C1394 H1384 0.950 . S
C1394 C1395 1.386 . S
C1394 C1396 1.391 . S
C1395 C1394 1.386 . S
C1395 C1399 1.393 . S
C1396 H1385 0.950 . S
C1396 C1394 1.391 . S
C1396 C1397 1.400 . S
C1397 C1391 1.491 1_655 S
C1397 C1396 1.400 . S
C1397 C1398 1.398 . S
C1398 H1386 0.950 . S
C1398 C1397 1.398 . S
C1398 C1399 1.391 . S
C1399 H1387 0.950 . S
C1399 C1395 1.393 . S
C1399 C1398 1.391 . S
H1400 C1408 0.950 . S
H1401 C1413 0.950 . S
H1402 C1410 0.950 . S
H1403 C1412 0.950 . S
H1404 C1414 0.950 . S
H1405 C1416 0.950 . S
H1406 C1418 0.950 . S
H1407 C1419 0.950 . S
C1408 H1400 0.950 . S
C1408 C1409 1.386 . S
C1408 C1410 1.391 . S
C1409 C1408 1.386 . S
C1409 C1413 1.393 . S
C1410 H1402 0.950 . S
C1410 C1408 1.391 . S
C1410 C1411 1.400 . S
C1411 C1410 1.400 . S
C1411 C1412 1.398 . S
C1411 C1417 1.491 1_565 S
C1412 H1403 0.950 . S
C1412 C1411 1.398 . S
C1412 C1413 1.391 . S
C1413 H1401 0.950 . S
C1413 C1409 1.393 . S
C1413 C1412 1.391 . S
C1414 H1404 0.950 . S
C1414 C1415 1.386 . S
C1414 C1416 1.391 . S
C1415 C1414 1.386 . S
C1415 C1419 1.393 . S
C1416 H1405 0.950 . S
C1416 C1414 1.391 . S
C1416 C1417 1.400 . S
C1417 C1411 1.491 1_545 S
C1417 C1416 1.400 . S
C1417 C1418 1.398 . S
C1418 H1406 0.950 . S
C1418 C1417 1.398 . S
C1418 C1419 1.391 . S
C1419 H1407 0.950 . S
C1419 C1415 1.393 . S
C1419 C1418 1.391 . S
H1420 C1428 0.950 . S
H1421 C1433 0.950 . S
H1422 C1430 0.950 . S
H1423 C1432 0.950 . S
H1424 C1434 0.950 . S
H1425 C1436 0.950 . S
H1426 C1438 0.950 . S
H1427 C1439 0.950 . S
C1428 H1420 0.950 . S
C1428 C1429 1.386 . S
C1428 C1430 1.391 . S
C1429 C1428 1.386 . S
C1429 C1433 1.393 . S
C1430 H1422 0.950 . S
C1430 C1428 1.391 . S
C1430 C1431 1.400 . S
C1431 C1430 1.400 . S
C1431 C1432 1.398 . S
C1431 C1437 1.491 1_455 S
C1432 H1423 0.950 . S
C1432 C1431 1.398 . S
C1432 C1433 1.391 . S
C1433 H1421 0.950 . S
C1433 C1429 1.393 . S
C1433 C1432 1.391 . S
C1434 H1424 0.950 . S
C1434 C1435 1.386 . S
C1434 C1436 1.391 . S
C1435 C1434 1.386 . S
C1435 C1439 1.393 . S
C1436 H1425 0.950 . S
C1436 C1434 1.391 . S
C1436 C1437 1.400 . S
C1437 C1431 1.491 1_655 S
C1437 C1436 1.400 . S
C1437 C1438 1.398 . S
C1438 H1426 0.950 . S
C1438 C1437 1.398 . S
C1438 C1439 1.391 . S
C1439 H1427 0.950 . S
C1439 C1435 1.393 . S
C1439 C1438 1.391 . S
H1440 C1448 0.950 . S
H1441 C1453 0.931 1_655 S
H1442 C1450 0.950 . S
H1443 C1452 0.949 1_655 S
H1444 C1454 0.950 . S
H1445 C1456 0.950 . S
H1446 C1458 0.950 . S
H1447 C1459 0.950 . S
C1448 H1440 0.950 . S
C1448 C1449 1.386 . S
C1448 C1450 1.391 . S
C1449 C1448 1.386 . S
C1449 C1453 1.413 . S
C1450 H1442 0.950 . S
C1450 C1448 1.391 . S
C1450 C1451 1.400 . S
C1451 C1450 1.400 . S
C1451 C1452 1.399 . S
C1451 C1457 1.491 . S
C1452 H1443 0.949 1_455 S
C1452 C1451 1.399 . S
C1452 C1453 1.390 . S
C1453 H1441 0.931 1_455 S
C1453 C1449 1.413 . S
C1453 C1452 1.390 . S
C1454 H1444 0.950 . S
C1454 C1455 1.386 1_655 S
C1454 C1456 1.391 . S
C1455 C1454 1.386 1_455 S
C1455 C1459 1.393 . S
C1456 H1445 0.950 . S
C1456 C1454 1.391 . S
C1456 C1457 1.400 1_655 S
C1457 C1451 1.491 . S
C1457 C1456 1.400 1_455 S
C1457 C1458 1.398 . S
C1458 H1446 0.950 . S
C1458 C1457 1.398 . S
C1458 C1459 1.391 . S
C1459 H1447 0.950 . S
C1459 C1455 1.393 . S
C1459 C1458 1.391 . S
H1460 C1468 0.950 . S
H1461 C1473 0.950 . S
H1462 C1470 0.950 . S
H1463 C1472 0.950 . S
H1464 C1474 0.950 . S
H1465 C1476 0.950 . S
H1466 C1478 0.950 . S
H1467 C1479 0.950 . S
C1468 H1460 0.950 . S
C1468 C1469 1.386 . S
C1468 C1470 1.391 . S
C1469 C1468 1.386 . S
C1469 C1473 1.393 1_565 S
C1470 H1462 0.950 . S
C1470 C1468 1.391 . S
C1470 C1471 1.400 . S
C1471 C1470 1.400 . S
C1471 C1472 1.398 1_565 S
C1471 C1477 1.491 . S
C1472 H1463 0.950 . S
C1472 C1471 1.398 1_545 S
C1472 C1473 1.391 . S
C1473 H1461 0.950 . S
C1473 C1469 1.393 1_545 S
C1473 C1472 1.391 . S
C1474 H1464 0.950 . S
C1474 C1475 1.379 1_545 S
C1474 C1476 1.391 . S
C1475 C1474 1.379 1_565 S
C1475 C1479 1.400 . S
C1476 H1465 0.950 . S
C1476 C1474 1.391 . S
C1476 C1477 1.400 1_545 S
C1477 C1471 1.491 . S
C1477 C1476 1.400 1_565 S
C1477 C1478 1.398 . S
C1478 H1466 0.950 . S
C1478 C1477 1.398 . S
C1478 C1479 1.391 . S
C1479 H1467 0.950 . S
C1479 C1475 1.400 . S
C1479 C1478 1.391 . S
H1480 C1488 0.950 . S
H1481 C1493 0.950 . S
H1482 C1490 0.950 . S
H1483 C1492 0.950 . S
H1484 C1494 0.950 . S
H1485 C1496 0.950 . S
H1486 C1498 0.950 . S
H1487 C1499 0.950 . S
C1488 H1480 0.950 . S
C1488 C1489 1.386 . S
C1488 C1490 1.391 . S
C1489 C1488 1.386 . S
C1489 C1493 1.393 1_455 S
C1490 H1482 0.950 . S
C1490 C1488 1.391 . S
C1490 C1491 1.400 . S
C1491 C1490 1.400 . S
C1491 C1492 1.398 1_455 S
C1491 C1497 1.491 . S
C1492 H1483 0.950 . S
C1492 C1491 1.398 1_655 S
C1492 C1493 1.391 . S
C1493 H1481 0.950 . S
C1493 C1489 1.393 1_655 S
C1493 C1492 1.391 . S
C1494 H1484 0.950 . S
C1494 C1495 1.386 1_655 S
C1494 C1496 1.391 . S
C1495 C1494 1.386 1_455 S
C1495 C1499 1.393 . S
C1496 H1485 0.950 . S
C1496 C1494 1.391 . S
C1496 C1497 1.400 1_655 S
C1497 C1491 1.491 . S
C1497 C1496 1.400 1_455 S
C1497 C1498 1.398 . S
C1498 H1486 0.950 . S
C1498 C1497 1.398 . S
C1498 C1499 1.391 . S
C1499 H1487 0.950 . S
C1499 C1495 1.393 . S
C1499 C1498 1.391 . S
H1500 C1508 0.950 . S
H1501 C1513 0.950 . S
H1502 C1510 0.950 . S
H1503 C1512 0.950 . S
H1504 C1514 0.950 . S
H1505 C1516 0.950 . S
H1506 C1518 0.950 . S
H1507 C1519 0.950 . S
C1508 H1500 0.950 . S
C1508 C1509 1.386 1_565 S
C1508 C1510 1.391 . S
C1509 C1508 1.386 1_545 S
C1509 C1513 1.393 . S
C1510 H1502 0.950 . S
C1510 C1508 1.391 . S
C1510 C1511 1.400 1_565 S
C1511 C1510 1.400 1_545 S
C1511 C1512 1.398 . S
C1511 C1517 1.491 . S
C1512 H1503 0.950 . S
C1512 C1511 1.398 . S
C1512 C1513 1.391 . S
C1513 H1501 0.950 . S
C1513 C1509 1.393 . S
C1513 C1512 1.391 . S
C1514 H1504 0.950 . S
C1514 C1515 1.386 . S
C1514 C1516 1.391 . S
C1515 C1514 1.386 . S
C1515 C1519 1.393 1_545 S
C1516 H1505 0.950 . S
C1516 C1514 1.391 . S
C1516 C1517 1.400 . S
C1517 C1511 1.491 . S
C1517 C1516 1.400 . S
C1517 C1518 1.398 1_545 S
C1518 H1506 0.950 . S
C1518 C1517 1.398 1_565 S
C1518 C1519 1.391 . S
C1519 H1507 0.950 . S
C1519 C1515 1.393 1_565 S
C1519 C1518 1.391 . S
H1520 C1528 0.950 . S
H1521 C1533 0.950 . S
H1522 C1530 0.950 . S
H1523 C1532 0.950 . S
H1524 C1534 0.950 . S
H1525 C1536 0.950 . S
H1526 C1538 0.950 . S
H1527 C1539 0.950 . S
C1528 H1520 0.950 . S
C1528 C1529 1.386 1_655 S
C1528 C1530 1.391 . S
C1529 C1528 1.386 1_455 S
C1529 C1533 1.393 . S
C1530 H1522 0.950 . S
C1530 C1528 1.391 . S
C1530 C1531 1.400 1_655 S
C1531 C1530 1.400 1_455 S
C1531 C1532 1.398 . S
C1531 C1537 1.491 . S
C1532 H1523 0.950 . S
C1532 C1531 1.398 . S
C1532 C1533 1.391 . S
C1533 H1521 0.950 . S
C1533 C1529 1.393 . S
C1533 C1532 1.391 . S
C1534 H1524 0.950 . S
C1534 C1535 1.386 . S
C1534 C1536 1.391 . S
C1535 C1534 1.386 . S
C1535 C1539 1.393 1_455 S
C1536 H1525 0.950 . S
C1536 C1534 1.391 . S
C1536 C1537 1.400 . S
C1537 C1531 1.491 . S
C1537 C1536 1.400 . S
C1537 C1538 1.398 1_455 S
C1538 H1526 0.950 . S
C1538 C1537 1.398 1_655 S
C1538 C1539 1.391 . S
C1539 H1527 0.950 . S
C1539 C1535 1.393 1_655 S
C1539 C1538 1.391 . S
H1540 C1548 0.950 . S
H1541 C1553 0.950 . S
H1542 C1550 0.950 . S
H1543 C1552 0.950 . S
H1544 C1554 0.950 . S
H1545 C1556 0.950 . S
H1546 C1558 0.950 . S
H1547 C1559 0.950 . S
C1548 H1540 0.950 . S
C1548 C1549 1.386 . S
C1548 C1550 1.391 . S
C1549 C1548 1.386 . S
C1549 C1553 1.393 . S
C1550 H1542 0.950 . S
C1550 C1548 1.391 . S
C1550 C1551 1.400 . S
C1551 C1550 1.400 . S
C1551 C1552 1.398 . S
C1551 C1557 1.491 . S
C1552 H1543 0.950 . S
C1552 C1551 1.398 . S
C1552 C1553 1.391 . S
C1553 H1541 0.950 . S
C1553 C1549 1.393 . S
C1553 C1552 1.391 . S
C1554 H1544 0.950 . S
C1554 C1555 1.386 . S
C1554 C1556 1.391 . S
C1555 C1554 1.386 . S
C1555 C1559 1.393 . S
C1556 H1545 0.950 . S
C1556 C1554 1.391 . S
C1556 C1557 1.400 . S
C1557 C1551 1.491 . S
C1557 C1556 1.400 . S
C1557 C1558 1.398 . S
C1558 H1546 0.950 . S
C1558 C1557 1.398 . S
C1558 C1559 1.391 . S
C1559 H1547 0.950 . S
C1559 C1555 1.393 . S
C1559 C1558 1.391 . S
H1560 C1568 0.950 . S
H1561 C1573 0.950 . S
H1562 C1570 0.950 . S
H1563 C1572 0.950 . S
H1564 C1574 0.950 . S
H1565 C1576 0.950 . S
H1566 C1578 0.950 . S
H1567 C1579 0.950 . S
C1568 H1560 0.950 . S
C1568 C1569 1.386 1_655 S
C1568 C1570 1.391 . S
C1569 C1568 1.386 1_455 S
C1569 C1573 1.393 . S
C1570 H1562 0.950 . S
C1570 C1568 1.391 . S
C1570 C1571 1.400 1_655 S
C1571 C1570 1.400 1_455 S
C1571 C1572 1.398 . S
C1571 C1577 1.491 . S
C1572 H1563 0.950 . S
C1572 C1571 1.398 . S
C1572 C1573 1.391 . S
C1573 H1561 0.950 . S
C1573 C1569 1.393 . S
C1573 C1572 1.391 . S
C1574 H1564 0.950 . S
C1574 C1575 1.374 1_455 S
C1574 C1576 1.391 . S
C1575 C1574 1.374 1_655 S
C1575 C1579 1.404 . S
C1576 H1565 0.950 . S
C1576 C1574 1.391 . S
C1576 C1577 1.400 . S
C1577 C1571 1.491 . S
C1577 C1576 1.400 . S
C1577 C1578 1.398 1_455 S
C1578 H1566 0.950 . S
C1578 C1577 1.398 1_655 S
C1578 C1579 1.391 . S
C1579 H1567 0.950 . S
C1579 C1575 1.404 . S
C1579 C1578 1.391 . S
H1580 C1588 0.950 . S
H1581 C1593 0.950 . S
H1582 C1590 0.950 . S
H1583 C1592 0.950 . S
H1584 C1594 0.950 . S
H1585 C1596 0.950 . S
H1586 C1598 0.950 . S
H1587 C1599 0.950 . S
C1588 H1580 0.950 . S
C1588 C1589 1.386 . S
C1588 C1590 1.391 . S
C1589 C1588 1.386 . S
C1589 C1593 1.393 . S
C1590 H1582 0.950 . S
C1590 C1588 1.391 . S
C1590 C1591 1.400 . S
C1591 C1590 1.400 . S
C1591 C1592 1.398 . S
C1591 C1597 1.491 . S
C1592 H1583 0.950 . S
C1592 C1591 1.398 . S
C1592 C1593 1.391 . S
C1593 H1581 0.950 . S
C1593 C1589 1.393 . S
C1593 C1592 1.391 . S
C1594 H1584 0.950 . S
C1594 C1595 1.386 . S
C1594 C1596 1.391 . S
C1595 C1594 1.386 . S
C1595 C1599 1.393 . S
C1596 H1585 0.950 . S
C1596 C1594 1.391 . S
C1596 C1597 1.400 . S
C1597 C1591 1.491 . S
C1597 C1596 1.400 . S
C1597 C1598 1.398 . S
C1598 H1586 0.950 . S
C1598 C1597 1.398 . S
C1598 C1599 1.391 . S
C1599 H1587 0.950 . S
C1599 C1595 1.393 . S
C1599 C1598 1.391 . S
H1600 C1608 0.950 . S
H1601 C1613 0.950 . S
H1602 C1610 0.950 . S
H1603 C1612 0.950 . S
H1604 C1614 0.950 . S
H1605 C1616 0.950 . S
H1606 C1618 0.950 . S
H1607 C1619 0.950 . S
C1608 H1600 0.950 . S
C1608 C1609 1.386 . S
C1608 C1610 1.391 . S
C1609 C1608 1.386 . S
C1609 C1613 1.393 . S
C1610 H1602 0.950 . S
C1610 C1608 1.391 . S
C1610 C1611 1.400 . S
C1611 C1610 1.400 . S
C1611 C1612 1.398 . S
C1611 C1617 1.491 . S
C1612 H1603 0.950 . S
C1612 C1611 1.398 . S
C1612 C1613 1.391 . S
C1613 H1601 0.950 . S
C1613 C1609 1.393 . S
C1613 C1612 1.391 . S
C1614 H1604 0.950 . S
C1614 C1615 1.386 . S
C1614 C1616 1.391 . S
C1615 C1614 1.386 . S
C1615 C1619 1.393 . S
C1616 H1605 0.950 . S
C1616 C1614 1.391 . S
C1616 C1617 1.400 . S
C1617 C1611 1.491 . S
C1617 C1616 1.400 . S
C1617 C1618 1.398 . S
C1618 H1606 0.950 . S
C1618 C1617 1.398 . S
C1618 C1619 1.391 . S
C1619 H1607 0.950 . S
C1619 C1615 1.393 . S
C1619 C1618 1.391 . S
H1620 C1628 0.950 . S
H1621 C1633 0.950 . S
H1622 C1630 0.950 . S
H1623 C1632 0.950 . S
H1624 C1634 0.950 . S
H1625 C1636 0.950 . S
H1626 C1638 0.950 . S
H1627 C1639 0.956 . S
C1628 H1620 0.950 . S
C1628 C1629 1.386 . S
C1628 C1630 1.391 . S
C1629 C1628 1.386 . S
C1629 C1633 1.393 . S
C1630 H1622 0.950 . S
C1630 C1628 1.391 . S
C1630 C1631 1.400 . S
C1631 C1630 1.400 . S
C1631 C1632 1.398 . S
C1631 C1637 1.491 . S
C1632 H1623 0.950 . S
C1632 C1631 1.398 . S
C1632 C1633 1.391 . S
C1633 H1621 0.950 . S
C1633 C1629 1.393 . S
C1633 C1632 1.391 . S
C1634 H1624 0.950 . S
C1634 C1635 1.386 . S
C1634 C1636 1.391 . S
C1635 C1634 1.386 . S
C1635 C1639 1.393 . S
C1636 H1625 0.950 . S
C1636 C1634 1.391 . S
C1636 C1637 1.400 . S
C1637 C1631 1.491 . S
C1637 C1636 1.400 . S
C1637 C1638 1.398 . S
C1638 H1626 0.950 . S
C1638 C1637 1.398 . S
C1638 C1639 1.391 . S
C1639 H1627 0.956 . S
C1639 C1635 1.393 . S
C1639 C1638 1.391 . S
H1640 C1648 0.950 . S
H1641 C1653 0.950 . S
H1642 C1650 0.950 . S
H1643 C1652 0.950 . S
H1644 C1654 0.950 . S
H1645 C1656 0.950 . S
H1646 C1658 0.950 . S
H1647 C1659 0.950 . S
C1648 H1640 0.950 . S
C1648 C1649 1.386 . S
C1648 C1650 1.391 . S
C1649 C1648 1.386 . S
C1649 C1653 1.393 1_554 S
C1650 H1642 0.950 . S
C1650 C1648 1.391 . S
C1650 C1651 1.400 . S
C1651 C1650 1.400 . S
C1651 C1652 1.398 1_554 S
C1651 C1657 1.491 . S
C1652 H1643 0.950 . S
C1652 C1651 1.398 1_556 S
C1652 C1653 1.391 . S
C1653 H1641 0.950 . S
C1653 C1649 1.393 1_556 S
C1653 C1652 1.391 . S
C1654 H1644 0.950 . S
C1654 C1655 1.386 1_556 S
C1654 C1656 1.391 . S
C1655 C1654 1.386 1_554 S
C1655 C1659 1.393 . S
C1656 H1645 0.950 . S
C1656 C1654 1.391 . S
C1656 C1657 1.400 1_556 S
C1657 C1651 1.491 . S
C1657 C1656 1.400 1_554 S
C1657 C1658 1.398 . S
C1658 H1646 0.950 . S
C1658 C1657 1.398 . S
C1658 C1659 1.391 . S
C1659 H1647 0.950 . S
C1659 C1655 1.393 . S
C1659 C1658 1.391 . S
H1660 C1668 0.950 . S
H1661 C1673 0.950 . S
H1662 C1670 0.950 . S
H1663 C1672 0.935 1_556 S
H1664 C1674 0.950 . S
H1665 C1676 0.950 1_556 S
H1666 C1678 0.950 . S
H1667 C1679 0.950 . S
C1668 H1660 0.950 . S
C1668 C1669 1.386 . S
C1668 C1670 1.391 . S
C1669 C1668 1.386 . S
C1669 C1673 1.393 1_554 S
C1670 H1662 0.950 . S
C1670 C1668 1.391 . S
C1670 C1671 1.400 . S
C1671 C1670 1.400 . S
C1671 C1672 1.422 . S
C1671 C1677 1.491 . S
C1672 H1663 0.935 1_554 S
C1672 C1671 1.422 . S
C1672 C1673 1.386 1_554 S
C1673 H1661 0.950 . S
C1673 C1669 1.393 1_556 S
C1673 C1672 1.386 1_556 S
C1674 H1664 0.950 . S
C1674 C1675 1.386 . S
C1674 C1676 1.391 . S
C1675 C1674 1.386 . S
C1675 C1679 1.393 . S
C1676 H1665 0.950 1_554 S
C1676 C1674 1.391 . S
C1676 C1677 1.400 . S
C1677 C1671 1.491 . S
C1677 C1676 1.400 . S
C1677 C1678 1.398 . S
C1678 H1666 0.950 . S
C1678 C1677 1.398 . S
C1678 C1679 1.391 . S
C1679 H1667 0.950 . S
C1679 C1675 1.393 . S
C1679 C1678 1.391 . S
H1680 C1688 0.950 . S
H1681 C1693 0.950 . S
H1682 C1690 0.950 . S
H1683 C1692 0.950 . S
H1684 C1694 0.950 . S
H1685 C1696 0.950 . S
H1686 C1698 0.950 . S
H1687 C1699 0.950 . S
C1688 H1680 0.950 . S
C1688 C1689 1.386 . S
C1688 C1690 1.391 . S
C1689 C1688 1.386 . S
C1689 C1693 1.393 . S
C1690 H1682 0.950 . S
C1690 C1688 1.391 . S
C1690 C1691 1.400 . S
C1691 C1690 1.400 . S
C1691 C1692 1.398 . S
C1691 C1697 1.491 . S
C1692 H1683 0.950 . S
C1692 C1691 1.398 . S
C1692 C1693 1.391 . S
C1693 H1681 0.950 . S
C1693 C1689 1.393 . S
C1693 C1692 1.391 . S
C1694 H1684 0.950 . S
C1694 C1695 1.386 . S
C1694 C1696 1.391 . S
C1695 C1694 1.386 . S
C1695 C1699 1.393 . S
C1696 H1685 0.950 . S
C1696 C1694 1.391 . S
C1696 C1697 1.400 . S
C1697 C1691 1.491 . S
C1697 C1696 1.400 . S
C1697 C1698 1.398 . S
C1698 H1686 0.950 . S
C1698 C1697 1.398 . S
C1698 C1699 1.391 . S
C1699 H1687 0.950 . S
C1699 C1695 1.393 . S
C1699 C1698 1.391 . S
H1700 C1708 0.950 . S
H1701 C1713 0.950 . S
H1702 C1710 0.950 . S
H1703 C1712 0.950 . S
H1704 C1714 0.950 . S
H1705 C1716 0.950 . S
H1706 C1718 0.950 . S
H1707 C1719 0.950 . S
C1708 H1700 0.950 . S
C1708 C1709 1.386 . S
C1708 C1710 1.391 . S
C1709 C1708 1.386 . S
C1709 C1713 1.393 . S
C1710 H1702 0.950 . S
C1710 C1708 1.391 . S
C1710 C1711 1.400 . S
C1711 C1710 1.400 . S
C1711 C1712 1.398 . S
C1711 C1717 1.491 . S
C1712 H1703 0.950 . S
C1712 C1711 1.398 . S
C1712 C1713 1.391 . S
C1713 H1701 0.950 . S
C1713 C1709 1.393 . S
C1713 C1712 1.391 . S
C1714 H1704 0.950 . S
C1714 C1715 1.386 . S
C1714 C1716 1.391 . S
C1715 C1714 1.386 . S
C1715 C1719 1.393 . S
C1716 H1705 0.950 . S
C1716 C1714 1.391 . S
C1716 C1717 1.400 . S
C1717 C1711 1.491 . S
C1717 C1716 1.400 . S
C1717 C1718 1.398 . S
C1718 H1706 0.950 . S
C1718 C1717 1.398 . S
C1718 C1719 1.391 . S
C1719 H1707 0.950 . S
C1719 C1715 1.393 . S
C1719 C1718 1.391 . S
H1720 C1728 0.950 . S
H1721 C1733 0.950 . S
H1722 C1730 0.950 . S
H1723 C1732 0.950 . S
H1724 C1734 0.950 . S
H1725 C1736 0.950 . S
H1726 C1738 0.950 . S
H1727 C1739 0.950 . S
C1728 H1720 0.950 . S
C1728 C1729 1.386 . S
C1728 C1730 1.391 . S
C1729 C1728 1.386 . S
C1729 C1733 1.393 . S
C1730 H1722 0.950 . S
C1730 C1728 1.391 . S
C1730 C1731 1.400 . S
C1731 C1730 1.400 . S
C1731 C1732 1.398 . S
C1731 C1737 1.491 . S
C1732 H1723 0.950 . S
C1732 C1731 1.398 . S
C1732 C1733 1.391 . S
C1733 H1721 0.950 . S
C1733 C1729 1.393 . S
C1733 C1732 1.391 . S
C1734 H1724 0.950 . S
C1734 C1735 1.386 . S
C1734 C1736 1.391 . S
C1735 C1734 1.386 . S
C1735 C1739 1.393 . S
C1736 H1725 0.950 . S
C1736 C1734 1.391 . S
C1736 C1737 1.400 . S
C1737 C1731 1.491 . S
C1737 C1736 1.400 . S
C1737 C1738 1.398 . S
C1738 H1726 0.950 . S
C1738 C1737 1.398 . S
C1738 C1739 1.391 . S
C1739 H1727 0.950 . S
C1739 C1735 1.393 . S
C1739 C1738 1.391 . S
H1740 C1748 0.950 . S
H1741 C1753 0.950 . S
H1742 C1750 0.950 . S
H1743 C1752 0.950 . S
H1744 C1754 0.950 . S
H1745 C1756 0.950 . S
H1746 C1758 0.950 . S
H1747 C1759 0.950 . S
C1748 H1740 0.950 . S
C1748 C1749 1.386 . S
C1748 C1750 1.391 . S
C1749 C1748 1.386 . S
C1749 C1753 1.393 . S
C1750 H1742 0.950 . S
C1750 C1748 1.391 . S
C1750 C1751 1.400 . S
C1751 C1750 1.400 . S
C1751 C1752 1.398 . S
C1751 C1757 1.491 . S
C1752 H1743 0.950 . S
C1752 C1751 1.398 . S
C1752 C1753 1.391 . S
C1753 H1741 0.950 . S
C1753 C1749 1.393 . S
C1753 C1752 1.391 . S
C1754 H1744 0.950 . S
C1754 C1755 1.386 . S
C1754 C1756 1.391 . S
C1755 C1754 1.386 . S
C1755 C1759 1.393 . S
C1756 H1745 0.950 . S
C1756 C1754 1.391 . S
C1756 C1757 1.400 . S
C1757 C1751 1.491 . S
C1757 C1756 1.400 . S
C1757 C1758 1.398 . S
C1758 H1746 0.950 . S
C1758 C1757 1.398 . S
C1758 C1759 1.391 . S
C1759 H1747 0.950 . S
C1759 C1755 1.393 . S
C1759 C1758 1.391 . S
H1760 C1768 0.950 . S
H1761 C1773 0.950 . S
H1762 C1770 0.950 . S
H1763 C1772 0.950 . S
H1764 C1774 0.950 . S
H1765 C1776 0.950 . S
H1766 C1778 0.950 . S
H1767 C1779 0.950 . S
C1768 H1760 0.950 . S
C1768 C1769 1.386 . S
C1768 C1770 1.391 . S
C1769 C1768 1.386 . S
C1769 C1773 1.393 . S
C1770 H1762 0.950 . S
C1770 C1768 1.391 . S
C1770 C1771 1.400 . S
C1771 C1770 1.400 . S
C1771 C1772 1.398 . S
C1771 C1777 1.491 . S
C1772 H1763 0.950 . S
C1772 C1771 1.398 . S
C1772 C1773 1.391 . S
C1773 H1761 0.950 . S
C1773 C1769 1.393 . S
C1773 C1772 1.391 . S
C1774 H1764 0.950 . S
C1774 C1775 1.386 . S
C1774 C1776 1.391 . S
C1775 C1774 1.386 . S
C1775 C1779 1.393 . S
C1776 H1765 0.950 . S
C1776 C1774 1.391 . S
C1776 C1777 1.400 . S
C1777 C1771 1.491 . S
C1777 C1776 1.400 . S
C1777 C1778 1.398 . S
C1778 H1766 0.950 . S
C1778 C1777 1.398 . S
C1778 C1779 1.391 . S
C1779 H1767 0.950 . S
C1779 C1775 1.393 . S
C1779 C1778 1.391 . S
H1780 C1788 0.950 . S
H1781 C1793 0.950 . S
H1782 C1790 0.950 . S
H1783 C1792 0.950 . S
H1784 C1794 0.950 . S
H1785 C1796 0.950 . S
H1786 C1798 0.950 . S
H1787 C1799 0.950 . S
C1788 H1780 0.950 . S
C1788 C1789 1.386 . S
C1788 C1790 1.391 . S
C1789 C1788 1.386 . S
C1789 C1793 1.393 . S
C1790 H1782 0.950 . S
C1790 C1788 1.391 . S
C1790 C1791 1.400 . S
C1791 C1790 1.400 . S
C1791 C1792 1.398 . S
C1791 C1797 1.491 . S
C1792 H1783 0.950 . S
C1792 C1791 1.398 . S
C1792 C1793 1.391 . S
C1793 H1781 0.950 . S
C1793 C1789 1.393 . S
C1793 C1792 1.391 . S
C1794 H1784 0.950 . S
C1794 C1795 1.386 . S
C1794 C1796 1.391 . S
C1795 C1794 1.386 . S
C1795 C1799 1.393 . S
C1796 H1785 0.950 . S
C1796 C1794 1.391 . S
C1796 C1797 1.400 . S
C1797 C1791 1.491 . S
C1797 C1796 1.400 . S
C1797 C1798 1.398 . S
C1798 H1786 0.950 . S
C1798 C1797 1.398 . S
C1798 C1799 1.391 . S
C1799 H1787 0.950 . S
C1799 C1795 1.393 . S
C1799 C1798 1.391 . S
H1800 C1808 0.950 . S
H1801 C1813 0.950 . S
H1802 C1810 0.950 . S
H1803 C1812 0.950 . S
H1804 C1814 0.950 . S
H1805 C1816 0.950 . S
H1806 C1818 0.950 . S
H1807 C1819 0.950 . S
C1808 H1800 0.950 . S
C1808 C1809 1.386 . S
C1808 C1810 1.391 . S
C1809 C1808 1.386 . S
C1809 C1813 1.393 . S
C1810 H1802 0.950 . S
C1810 C1808 1.391 . S
C1810 C1811 1.400 . S
C1811 C1810 1.400 . S
C1811 C1812 1.398 . S
C1811 C1817 1.491 . S
C1812 H1803 0.950 . S
C1812 C1811 1.398 . S
C1812 C1813 1.391 . S
C1813 H1801 0.950 . S
C1813 C1809 1.393 . S
C1813 C1812 1.391 . S
C1814 H1804 0.950 . S
C1814 C1815 1.386 . S
C1814 C1816 1.391 . S
C1815 C1814 1.386 . S
C1815 C1819 1.393 . S
C1816 H1805 0.950 . S
C1816 C1814 1.391 . S
C1816 C1817 1.400 . S
C1817 C1811 1.491 . S
C1817 C1816 1.400 . S
C1817 C1818 1.398 . S
C1818 H1806 0.950 . S
C1818 C1817 1.398 . S
C1818 C1819 1.391 . S
C1819 H1807 0.950 . S
C1819 C1815 1.393 . S
C1819 C1818 1.391 . S
H1820 C1828 0.950 . S
H1821 C1833 0.950 . S
H1822 C1830 0.950 . S
H1823 C1832 0.950 . S
H1824 C1834 0.950 . S
H1825 C1836 0.950 . S
H1826 C1838 0.950 . S
H1827 C1839 0.950 . S
C1828 H1820 0.950 . S
C1828 C1829 1.386 . S
C1828 C1830 1.391 . S
C1829 C1828 1.386 . S
C1829 C1833 1.393 . S
C1830 H1822 0.950 . S
C1830 C1828 1.391 . S
C1830 C1831 1.400 . S
C1831 C1830 1.400 . S
C1831 C1832 1.398 . S
C1831 C1837 1.491 . S
C1832 H1823 0.950 . S
C1832 C1831 1.398 . S
C1832 C1833 1.391 . S
C1833 H1821 0.950 . S
C1833 C1829 1.393 . S
C1833 C1832 1.391 . S
C1834 H1824 0.950 . S
C1834 C1835 1.386 . S
C1834 C1836 1.391 . S
C1835 C1834 1.386 . S
C1835 C1839 1.393 . S
C1836 H1825 0.950 . S
C1836 C1834 1.391 . S
C1836 C1837 1.400 . S
C1837 C1831 1.491 . S
C1837 C1836 1.400 . S
C1837 C1838 1.398 . S
C1838 H1826 0.950 . S
C1838 C1837 1.398 . S
C1838 C1839 1.391 . S
C1839 H1827 0.950 . S
C1839 C1835 1.393 . S
C1839 C1838 1.391 . S
H1840 C1848 0.950 . S
H1841 C1853 0.950 . S
H1842 C1850 0.950 . S
H1843 C1852 0.950 . S
H1844 C1854 0.950 . S
H1845 C1856 0.950 . S
H1846 C1858 0.950 . S
H1847 C1859 0.950 . S
C1848 H1840 0.950 . S
C1848 C1849 1.386 . S
C1848 C1850 1.391 . S
C1849 C1848 1.386 . S
C1849 C1853 1.393 . S
C1850 H1842 0.950 . S
C1850 C1848 1.391 . S
C1850 C1851 1.400 . S
C1851 C1850 1.400 . S
C1851 C1852 1.398 . S
C1851 C1857 1.491 . S
C1852 H1843 0.950 . S
C1852 C1851 1.398 . S
C1852 C1853 1.391 . S
C1853 H1841 0.950 . S
C1853 C1849 1.393 . S
C1853 C1852 1.391 . S
C1854 H1844 0.950 . S
C1854 C1855 1.386 . S
C1854 C1856 1.391 . S
C1855 C1854 1.386 . S
C1855 C1859 1.393 . S
C1856 H1845 0.950 . S
C1856 C1854 1.391 . S
C1856 C1857 1.400 . S
C1857 C1851 1.491 . S
C1857 C1856 1.400 . S
C1857 C1858 1.398 . S
C1858 H1846 0.950 . S
C1858 C1857 1.398 . S
C1858 C1859 1.391 . S
C1859 H1847 0.950 . S
C1859 C1855 1.393 . S
C1859 C1858 1.391 . S
H1860 C1868 0.950 . S
H1861 C1873 0.950 . S
H1862 C1870 0.950 . S
H1863 C1872 0.950 . S
H1864 C1874 0.950 . S
H1865 C1876 0.950 . S
H1866 C1878 0.950 . S
H1867 C1879 0.950 . S
C1868 H1860 0.950 . S
C1868 C1869 1.386 . S
C1868 C1870 1.391 . S
C1869 C1868 1.386 . S
C1869 C1873 1.393 . S
C1870 H1862 0.950 . S
C1870 C1868 1.391 . S
C1870 C1871 1.400 . S
C1871 C1870 1.400 . S
C1871 C1872 1.398 . S
C1871 C1877 1.491 . S
C1872 H1863 0.950 . S
C1872 C1871 1.398 . S
C1872 C1873 1.391 . S
C1873 H1861 0.950 . S
C1873 C1869 1.393 . S
C1873 C1872 1.391 . S
C1874 H1864 0.950 . S
C1874 C1875 1.386 . S
C1874 C1876 1.391 . S
C1875 C1874 1.386 . S
C1875 C1879 1.393 . S
C1876 H1865 0.950 . S
C1876 C1874 1.391 . S
C1876 C1877 1.400 . S
C1877 C1871 1.491 . S
C1877 C1876 1.400 . S
C1877 C1878 1.398 . S
C1878 H1866 0.950 . S
C1878 C1877 1.398 . S
C1878 C1879 1.391 . S
C1879 H1867 0.950 . S
C1879 C1875 1.393 . S
C1879 C1878 1.391 . S
H1880 C1888 0.950 . S
H1881 C1893 0.950 . S
H1882 C1890 0.950 . S
H1883 C1892 0.950 . S
H1884 C1894 0.950 . S
H1885 C1896 0.950 . S
H1886 C1898 0.950 . S
H1887 C1899 0.950 . S
C1888 H1880 0.950 . S
C1888 C1889 1.386 . S
C1888 C1890 1.391 . S
C1889 C1888 1.386 . S
C1889 C1893 1.393 . S
C1890 H1882 0.950 . S
C1890 C1888 1.391 . S
C1890 C1891 1.400 . S
C1891 C1890 1.400 . S
C1891 C1892 1.398 . S
C1891 C1897 1.491 . S
C1892 H1883 0.950 . S
C1892 C1891 1.398 . S
C1892 C1893 1.391 . S
C1893 H1881 0.950 . S
C1893 C1889 1.393 . S
C1893 C1892 1.391 . S
C1894 H1884 0.950 . S
C1894 C1895 1.386 . S
C1894 C1896 1.391 . S
C1895 C1894 1.386 . S
C1895 C1899 1.393 . S
C1896 H1885 0.950 . S
C1896 C1894 1.391 . S
C1896 C1897 1.400 . S
C1897 C1891 1.491 . S
C1897 C1896 1.400 . S
C1897 C1898 1.398 . S
C1898 H1886 0.950 . S
C1898 C1897 1.398 . S
C1898 C1899 1.391 . S
C1899 H1887 0.950 . S
C1899 C1895 1.393 . S
C1899 C1898 1.391 . S
H1900 C1908 0.950 . S
H1901 C1913 0.950 . S
H1902 C1910 0.950 . S
H1903 C1912 0.950 . S
H1904 C1914 0.950 . S
H1905 C1916 0.950 . S
H1906 C1918 0.950 . S
H1907 C1919 0.950 . S
C1908 H1900 0.950 . S
C1908 C1909 1.386 . S
C1908 C1910 1.391 . S
C1909 C1908 1.386 . S
C1909 C1913 1.393 . S
C1910 H1902 0.950 . S
C1910 C1908 1.391 . S
C1910 C1911 1.400 . S
C1911 C1910 1.400 . S
C1911 C1912 1.398 . S
C1911 C1917 1.491 . S
C1912 H1903 0.950 . S
C1912 C1911 1.398 . S
C1912 C1913 1.391 . S
C1913 H1901 0.950 . S
C1913 C1909 1.393 . S
C1913 C1912 1.391 . S
C1914 H1904 0.950 . S
C1914 C1915 1.386 . S
C1914 C1916 1.391 . S
C1915 C1914 1.386 . S
C1915 C1919 1.393 . S
C1916 H1905 0.950 . S
C1916 C1914 1.391 . S
C1916 C1917 1.400 . S
C1917 C1911 1.491 . S
C1917 C1916 1.400 . S
C1917 C1918 1.398 . S
C1918 H1906 0.950 . S
C1918 C1917 1.398 . S
C1918 C1919 1.391 . S
C1919 H1907 0.950 . S
C1919 C1915 1.393 . S
C1919 C1918 1.391 . S
H1920 C1928 0.950 . S
H1921 C1933 0.950 . S
H1922 C1930 0.950 . S
H1923 C1932 0.950 . S
H1924 C1934 0.950 . S
H1925 C1936 0.950 . S
H1926 C1938 0.950 . S
H1927 C1939 0.950 . S
C1928 H1920 0.950 . S
C1928 C1929 1.386 . S
C1928 C1930 1.391 . S
C1929 C1928 1.386 . S
C1929 C1933 1.393 . S
C1930 H1922 0.950 . S
C1930 C1928 1.391 . S
C1930 C1931 1.400 . S
C1931 C1930 1.400 . S
C1931 C1932 1.398 . S
C1931 C1937 1.491 . S
C1932 H1923 0.950 . S
C1932 C1931 1.398 . S
C1932 C1933 1.391 . S
C1933 H1921 0.950 . S
C1933 C1929 1.393 . S
C1933 C1932 1.391 . S
C1934 H1924 0.950 . S
C1934 C1935 1.386 . S
C1934 C1936 1.391 . S
C1935 C1934 1.386 . S
C1935 C1939 1.393 . S
C1936 H1925 0.950 . S
C1936 C1934 1.391 . S
C1936 C1937 1.400 . S
C1937 C1931 1.491 . S
C1937 C1936 1.400 . S
C1937 C1938 1.398 . S
C1938 H1926 0.950 . S
C1938 C1937 1.398 . S
C1938 C1939 1.391 . S
C1939 H1927 0.950 . S
C1939 C1935 1.393 . S
C1939 C1938 1.391 . S
H1940 C1948 0.950 . S
H1941 C1953 0.950 . S
H1942 C1950 0.950 . S
H1943 C1952 0.950 . S
H1944 C1954 0.950 . S
H1945 C1956 0.950 . S
H1946 C1958 0.950 . S
H1947 C1959 0.950 . S
C1948 H1940 0.950 . S
C1948 C1949 1.386 . S
C1948 C1950 1.391 . S
C1949 C1948 1.386 . S
C1949 C1953 1.393 . S
C1950 H1942 0.950 . S
C1950 C1948 1.391 . S
C1950 C1951 1.400 . S
C1951 C1950 1.400 . S
C1951 C1952 1.398 . S
C1951 C1957 1.491 . S
C1952 H1943 0.950 . S
C1952 C1951 1.398 . S
C1952 C1953 1.391 . S
C1953 H1941 0.950 . S
C1953 C1949 1.393 . S
C1953 C1952 1.391 . S
C1954 H1944 0.950 . S
C1954 C1955 1.386 . S
C1954 C1956 1.391 . S
C1955 C1954 1.386 . S
C1955 C1959 1.393 . S
C1956 H1945 0.950 . S
C1956 C1954 1.391 . S
C1956 C1957 1.400 . S
C1957 C1951 1.491 . S
C1957 C1956 1.400 . S
C1957 C1958 1.398 . S
C1958 H1946 0.950 . S
C1958 C1957 1.398 . S
C1958 C1959 1.391 . S
C1959 H1947 0.950 . S
C1959 C1955 1.393 . S
C1959 C1958 1.391 . S
H1960 C1968 0.950 . S
H1961 C1973 0.950 . S
H1962 C1970 0.950 . S
H1963 C1972 0.950 . S
H1964 C1974 0.950 . S
H1965 C1976 0.950 . S
H1966 C1978 0.950 . S
H1967 C1979 0.950 . S
C1968 H1960 0.950 . S
C1968 C1969 1.386 . S
C1968 C1970 1.391 . S
C1969 C1968 1.386 . S
C1969 C1973 1.393 . S
C1970 H1962 0.950 . S
C1970 C1968 1.391 . S
C1970 C1971 1.400 . S
C1971 C1970 1.400 . S
C1971 C1972 1.398 . S
C1971 C1977 1.491 . S
C1972 H1963 0.950 . S
C1972 C1971 1.398 . S
C1972 C1973 1.391 . S
C1973 H1961 0.950 . S
C1973 C1969 1.393 . S
C1973 C1972 1.391 . S
C1974 H1964 0.950 . S
C1974 C1975 1.386 . S
C1974 C1976 1.391 . S
C1975 C1974 1.386 . S
C1975 C1979 1.393 . S
C1976 H1965 0.950 . S
C1976 C1974 1.391 . S
C1976 C1977 1.400 . S
C1977 C1971 1.491 . S
C1977 C1976 1.400 . S
C1977 C1978 1.398 . S
C1978 H1966 0.950 . S
C1978 C1977 1.398 . S
C1978 C1979 1.391 . S
C1979 H1967 0.950 . S
C1979 C1975 1.393 . S
C1979 C1978 1.391 . S
H1980 C1988 0.950 . S
H1981 C1993 0.950 1_545 S
H1982 C1990 0.950 . S
H1983 C1992 0.950 . S
H1984 C1994 0.950 . S
H1985 C1996 0.950 . S
H1986 C1998 0.950 . S
H1987 C1999 0.950 . S
C1988 H1980 0.950 . S
C1988 C1989 1.386 . S
C1988 C1990 1.391 . S
C1989 C1988 1.386 . S
C1989 C1993 1.393 . S
C1990 H1982 0.950 . S
C1990 C1988 1.391 . S
C1990 C1991 1.400 . S
C1991 C1990 1.400 . S
C1991 C1992 1.398 . S
C1991 C1997 1.491 . S
C1992 H1983 0.950 . S
C1992 C1991 1.398 . S
C1992 C1993 1.391 . S
C1993 H1981 0.950 1_565 S
C1993 C1989 1.393 . S
C1993 C1992 1.391 . S
C1994 H1984 0.950 . S
C1994 C1995 1.386 . S
C1994 C1996 1.391 . S
C1995 C1994 1.386 . S
C1995 C1999 1.393 . S
C1996 H1985 0.950 . S
C1996 C1994 1.391 . S
C1996 C1997 1.400 . S
C1997 C1991 1.491 . S
C1997 C1996 1.400 . S
C1997 C1998 1.398 . S
C1998 H1986 0.950 . S
C1998 C1997 1.398 . S
C1998 C1999 1.391 . S
C1999 H1987 0.950 . S
C1999 C1995 1.393 . S
C1999 C1998 1.391 . S
H2000 C2008 0.950 . S
H2001 C2013 0.950 . S
H2002 C2010 0.950 . S
H2003 C2012 0.950 . S
H2004 C2014 0.950 . S
H2005 C2016 0.950 . S
H2006 C2018 0.950 . S
H2007 C2019 0.950 . S
C2008 H2000 0.950 . S
C2008 C2009 1.386 . S
C2008 C2010 1.391 . S
C2009 C2008 1.386 . S
C2009 C2013 1.393 . S
C2010 H2002 0.950 . S
C2010 C2008 1.391 . S
C2010 C2011 1.400 . S
C2011 C2010 1.400 . S
C2011 C2012 1.398 . S
C2011 C2017 1.491 . S
C2012 H2003 0.950 . S
C2012 C2011 1.398 . S
C2012 C2013 1.391 . S
C2013 H2001 0.950 . S
C2013 C2009 1.393 . S
C2013 C2012 1.391 . S
C2014 H2004 0.950 . S
C2014 C2015 1.386 . S
C2014 C2016 1.391 . S
C2015 C2014 1.386 . S
C2015 C2019 1.393 . S
C2016 H2005 0.950 . S
C2016 C2014 1.391 . S
C2016 C2017 1.400 . S
C2017 C2011 1.491 . S
C2017 C2016 1.400 . S
C2017 C2018 1.398 . S
C2018 H2006 0.950 . S
C2018 C2017 1.398 . S
C2018 C2019 1.391 . S
C2019 H2007 0.950 . S
C2019 C2015 1.393 . S
C2019 C2018 1.391 . S
H2020 C2028 0.950 . S
H2021 C2033 0.950 . S
H2022 C2030 0.950 . S
H2023 C2032 0.950 . S
H2024 C2034 0.950 . S
H2025 C2036 0.950 . S
H2026 C2038 0.950 . S
H2027 C2039 0.950 . S
C2028 H2020 0.950 . S
C2028 C2029 1.386 . S
C2028 C2030 1.391 . S
C2029 C2028 1.386 . S
C2029 C2033 1.393 . S
C2030 H2022 0.950 . S
C2030 C2028 1.391 . S
C2030 C2031 1.400 . S
C2031 C2030 1.400 . S
C2031 C2032 1.398 . S
C2031 C2037 1.491 . S
C2032 H2023 0.950 . S
C2032 C2031 1.398 . S
C2032 C2033 1.391 . S
C2033 H2021 0.950 . S
C2033 C2029 1.393 . S
C2033 C2032 1.391 . S
C2034 H2024 0.950 . S
C2034 C2035 1.386 . S
C2034 C2036 1.391 . S
C2035 C2034 1.386 . S
C2035 C2039 1.393 . S
C2036 H2025 0.950 . S
C2036 C2034 1.391 . S
C2036 C2037 1.400 . S
C2037 C2031 1.491 . S
C2037 C2036 1.400 . S
C2037 C2038 1.398 . S
C2038 H2026 0.950 . S
C2038 C2037 1.398 . S
C2038 C2039 1.391 . S
C2039 H2027 0.950 . S
C2039 C2035 1.393 . S
C2039 C2038 1.391 . S
H2040 C2048 0.950 . S
H2041 C2053 0.950 . S
H2042 C2050 0.950 . S
H2043 C2052 0.950 . S
H2044 C2054 0.950 . S
H2045 C2056 0.950 . S
H2046 C2058 0.950 . S
H2047 C2059 0.950 . S
C2048 H2040 0.950 . S
C2048 C2049 1.386 . S
C2048 C2050 1.391 . S
C2049 C2048 1.386 . S
C2049 C2053 1.393 . S
C2050 H2042 0.950 . S
C2050 C2048 1.391 . S
C2050 C2051 1.400 . S
C2051 C2050 1.400 . S
C2051 C2052 1.398 . S
C2051 C2057 1.491 . S
C2052 H2043 0.950 . S
C2052 C2051 1.398 . S
C2052 C2053 1.391 . S
C2053 H2041 0.950 . S
C2053 C2049 1.393 . S
C2053 C2052 1.391 . S
C2054 H2044 0.950 . S
C2054 C2055 1.386 . S
C2054 C2056 1.391 . S
C2055 C2054 1.386 . S
C2055 C2059 1.393 . S
C2056 H2045 0.950 . S
C2056 C2054 1.391 . S
C2056 C2057 1.400 . S
C2057 C2051 1.491 . S
C2057 C2056 1.400 . S
C2057 C2058 1.398 . S
C2058 H2046 0.950 . S
C2058 C2057 1.398 . S
C2058 C2059 1.391 . S
C2059 H2047 0.950 . S
C2059 C2055 1.393 . S
C2059 C2058 1.391 . S
H2060 C2068 0.950 . S
H2061 C2073 0.950 . S
H2062 C2070 0.950 . S
H2063 C2072 0.950 . S
H2064 C2074 0.950 . S
H2065 C2076 0.950 . S
H2066 C2078 0.950 . S
H2067 C2079 0.950 1_545 S
C2068 H2060 0.950 . S
C2068 C2069 1.386 . S
C2068 C2070 1.391 . S
C2069 C2068 1.386 . S
C2069 C2073 1.393 . S
C2070 H2062 0.950 . S
C2070 C2068 1.391 . S
C2070 C2071 1.400 . S
C2071 C2070 1.400 . S
C2071 C2072 1.398 . S
C2071 C2077 1.491 . S
C2072 H2063 0.950 . S
C2072 C2071 1.398 . S
C2072 C2073 1.391 . S
C2073 H2061 0.950 . S
C2073 C2069 1.393 . S
C2073 C2072 1.391 . S
C2074 H2064 0.950 . S
C2074 C2075 1.386 . S
C2074 C2076 1.391 . S
C2075 C2074 1.386 . S
C2075 C2079 1.393 . S
C2076 H2065 0.950 . S
C2076 C2074 1.391 . S
C2076 C2077 1.400 . S
C2077 C2071 1.491 . S
C2077 C2076 1.400 . S
C2077 C2078 1.398 . S
C2078 H2066 0.950 . S
C2078 C2077 1.398 . S
C2078 C2079 1.391 . S
C2079 H2067 0.950 1_565 S
C2079 C2075 1.393 . S
C2079 C2078 1.391 . S
H2080 C2088 0.950 . S
H2081 C2093 0.950 . S
H2082 C2090 0.950 . S
H2083 C2092 0.950 . S
H2084 C2094 0.950 . S
H2085 C2096 0.950 . S
H2086 C2098 0.950 . S
H2087 C2099 0.950 . S
C2088 H2080 0.950 . S
C2088 C2089 1.386 . S
C2088 C2090 1.391 . S
C2089 C2088 1.386 . S
C2089 C2093 1.393 . S
C2090 H2082 0.950 . S
C2090 C2088 1.391 . S
C2090 C2091 1.400 . S
C2091 C2090 1.400 . S
C2091 C2092 1.398 . S
C2091 C2097 1.491 . S
C2092 H2083 0.950 . S
C2092 C2091 1.398 . S
C2092 C2093 1.391 . S
C2093 H2081 0.950 . S
C2093 C2089 1.393 . S
C2093 C2092 1.391 . S
C2094 H2084 0.950 . S
C2094 C2095 1.386 . S
C2094 C2096 1.391 . S
C2095 C2094 1.386 . S
C2095 C2099 1.393 . S
C2096 H2085 0.950 . S
C2096 C2094 1.391 . S
C2096 C2097 1.400 . S
C2097 C2091 1.491 . S
C2097 C2096 1.400 . S
C2097 C2098 1.398 . S
C2098 H2086 0.950 . S
C2098 C2097 1.398 . S
C2098 C2099 1.391 . S
C2099 H2087 0.950 . S
C2099 C2095 1.393 . S
C2099 C2098 1.391 . S
H2100 C2108 0.950 . S
H2101 C2113 0.950 . S
H2102 C2110 0.950 . S
H2103 C2112 0.950 . S
H2104 C2114 0.950 . S
H2105 C2116 0.950 . S
H2106 C2118 0.950 . S
H2107 C2119 0.950 . S
C2108 H2100 0.950 . S
C2108 C2109 1.386 . S
C2108 C2110 1.391 . S
C2109 C2108 1.386 . S
C2109 C2113 1.393 . S
C2110 H2102 0.950 . S
C2110 C2108 1.391 . S
C2110 C2111 1.400 . S
C2111 C2110 1.400 . S
C2111 C2112 1.398 . S
C2111 C2117 1.491 . S
C2112 H2103 0.950 . S
C2112 C2111 1.398 . S
C2112 C2113 1.391 . S
C2113 H2101 0.950 . S
C2113 C2109 1.393 . S
C2113 C2112 1.391 . S
C2114 H2104 0.950 . S
C2114 C2115 1.386 . S
C2114 C2116 1.391 . S
C2115 C2114 1.386 . S
C2115 C2119 1.393 . S
C2116 H2105 0.950 . S
C2116 C2114 1.391 . S
C2116 C2117 1.400 . S
C2117 C2111 1.491 . S
C2117 C2116 1.400 . S
C2117 C2118 1.398 . S
C2118 H2106 0.950 . S
C2118 C2117 1.398 . S
C2118 C2119 1.391 . S
C2119 H2107 0.950 . S
C2119 C2115 1.393 . S
C2119 C2118 1.391 . S
H2120 C2128 0.950 . S
H2121 C2133 0.950 . S
H2122 C2130 0.950 . S
H2123 C2132 0.950 . S
H2124 C2134 0.950 . S
H2125 C2136 0.950 . S
H2126 C2138 0.950 . S
H2127 C2139 0.950 . S
C2128 H2120 0.950 . S
C2128 C2129 1.386 . S
C2128 C2130 1.391 . S
C2129 C2128 1.386 . S
C2129 C2133 1.393 . S
C2130 H2122 0.950 . S
C2130 C2128 1.391 . S
C2130 C2131 1.400 . S
C2131 C2130 1.400 . S
C2131 C2132 1.398 . S
C2131 C2137 1.491 . S
C2132 H2123 0.950 . S
C2132 C2131 1.398 . S
C2132 C2133 1.391 . S
C2133 H2121 0.950 . S
C2133 C2129 1.393 . S
C2133 C2132 1.391 . S
C2134 H2124 0.950 . S
C2134 C2135 1.386 . S
C2134 C2136 1.391 . S
C2135 C2134 1.386 . S
C2135 C2139 1.393 . S
C2136 H2125 0.950 . S
C2136 C2134 1.391 . S
C2136 C2137 1.400 . S
C2137 C2131 1.491 . S
C2137 C2136 1.400 . S
C2137 C2138 1.398 . S
C2138 H2126 0.950 . S
C2138 C2137 1.398 . S
C2138 C2139 1.391 . S
C2139 H2127 0.950 . S
C2139 C2135 1.393 . S
C2139 C2138 1.391 . S
H2140 C2148 0.950 . S
H2141 C2153 0.950 . S
H2142 C2150 0.950 . S
H2143 C2152 0.950 . S
H2144 C2154 0.950 . S
H2145 C2156 0.950 . S
H2146 C2158 0.950 . S
H2147 C2159 0.950 . S
C2148 H2140 0.950 . S
C2148 C2149 1.386 . S
C2148 C2150 1.391 . S
C2149 C2148 1.386 . S
C2149 C2153 1.393 . S
C2150 H2142 0.950 . S
C2150 C2148 1.391 . S
C2150 C2151 1.400 . S
C2151 C2150 1.400 . S
C2151 C2152 1.398 . S
C2151 C2157 1.491 . S
C2152 H2143 0.950 . S
C2152 C2151 1.398 . S
C2152 C2153 1.391 . S
C2153 H2141 0.950 . S
C2153 C2149 1.393 . S
C2153 C2152 1.391 . S
C2154 H2144 0.950 . S
C2154 C2155 1.386 . S
C2154 C2156 1.391 . S
C2155 C2154 1.386 . S
C2155 C2159 1.393 . S
C2156 H2145 0.950 . S
C2156 C2154 1.391 . S
C2156 C2157 1.400 . S
C2157 C2151 1.491 . S
C2157 C2156 1.400 . S
C2157 C2158 1.398 . S
C2158 H2146 0.950 . S
C2158 C2157 1.398 . S
C2158 C2159 1.391 . S
C2159 H2147 0.950 . S
C2159 C2155 1.393 . S
C2159 C2158 1.391 . S
H2160 C2168 0.950 . S
H2161 C2173 0.950 . S
H2162 C2170 0.950 . S
H2163 C2172 0.950 . S
H2164 C2174 0.950 . S
H2165 C2176 0.950 . S
H2166 C2178 0.950 . S
H2167 C2179 0.950 . S
C2168 H2160 0.950 . S
C2168 C2169 1.386 . S
C2168 C2170 1.391 . S
C2169 C2168 1.386 . S
C2169 C2173 1.393 . S
C2170 H2162 0.950 . S
C2170 C2168 1.391 . S
C2170 C2171 1.400 . S
C2171 C2170 1.400 . S
C2171 C2172 1.398 . S
C2171 C2177 1.491 . S
C2172 H2163 0.950 . S
C2172 C2171 1.398 . S
C2172 C2173 1.391 . S
C2173 H2161 0.950 . S
C2173 C2169 1.393 . S
C2173 C2172 1.391 . S
C2174 H2164 0.950 . S
C2174 C2175 1.386 . S
C2174 C2176 1.391 . S
C2175 C2174 1.386 . S
C2175 C2179 1.393 . S
C2176 H2165 0.950 . S
C2176 C2174 1.391 . S
C2176 C2177 1.400 . S
C2177 C2171 1.491 . S
C2177 C2176 1.400 . S
C2177 C2178 1.398 . S
C2178 H2166 0.950 . S
C2178 C2177 1.398 . S
C2178 C2179 1.391 . S
C2179 H2167 0.950 . S
C2179 C2175 1.393 . S
C2179 C2178 1.391 . S
H2180 C2188 0.950 . S
H2181 C2193 0.950 . S
H2182 C2190 0.950 . S
H2183 C2192 0.950 . S
H2184 C2194 0.950 . S
H2185 C2196 0.950 . S
H2186 C2198 0.950 . S
H2187 C2199 0.950 . S
C2188 H2180 0.950 . S
C2188 C2189 1.386 . S
C2188 C2190 1.391 . S
C2189 C2188 1.386 . S
C2189 C2193 1.393 . S
C2190 H2182 0.950 . S
C2190 C2188 1.391 . S
C2190 C2191 1.400 . S
C2191 C2190 1.400 . S
C2191 C2192 1.398 . S
C2191 C2197 1.491 . S
C2192 H2183 0.950 . S
C2192 C2191 1.398 . S
C2192 C2193 1.391 . S
C2193 H2181 0.950 . S
C2193 C2189 1.393 . S
C2193 C2192 1.391 . S
C2194 H2184 0.950 . S
C2194 C2195 1.386 . S
C2194 C2196 1.391 . S
C2195 C2194 1.386 . S
C2195 C2199 1.393 . S
C2196 H2185 0.950 . S
C2196 C2194 1.391 . S
C2196 C2197 1.400 . S
C2197 C2191 1.491 . S
C2197 C2196 1.400 . S
C2197 C2198 1.398 . S
C2198 H2186 0.950 . S
C2198 C2197 1.398 . S
C2198 C2199 1.391 . S
C2199 H2187 0.950 . S
C2199 C2195 1.393 . S
C2199 C2198 1.391 . S
H2200 C2208 0.950 . S
H2201 C2213 0.950 . S
H2202 C2210 0.950 . S
H2203 C2212 0.950 . S
H2204 C2214 0.950 . S
H2205 C2216 0.950 . S
H2206 C2218 0.950 . S
H2207 C2219 0.950 . S
C2208 H2200 0.950 . S
C2208 C2209 1.386 . S
C2208 C2210 1.391 . S
C2209 C2208 1.386 . S
C2209 C2213 1.393 . S
C2210 H2202 0.950 . S
C2210 C2208 1.391 . S
C2210 C2211 1.400 . S
C2211 C2210 1.400 . S
C2211 C2212 1.398 . S
C2211 C2217 1.491 . S
C2212 H2203 0.950 . S
C2212 C2211 1.398 . S
C2212 C2213 1.391 . S
C2213 H2201 0.950 . S
C2213 C2209 1.393 . S
C2213 C2212 1.391 . S
C2214 H2204 0.950 . S
C2214 C2215 1.386 . S
C2214 C2216 1.391 . S
C2215 C2214 1.386 . S
C2215 C2219 1.393 . S
C2216 H2205 0.950 . S
C2216 C2214 1.391 . S
C2216 C2217 1.400 . S
C2217 C2211 1.491 . S
C2217 C2216 1.400 . S
C2217 C2218 1.398 . S
C2218 H2206 0.950 . S
C2218 C2217 1.398 . S
C2218 C2219 1.391 . S
C2219 H2207 0.950 . S
C2219 C2215 1.393 . S
C2219 C2218 1.391 . S
H2220 C2228 0.950 . S
H2221 C2233 0.950 . S
H2222 C2230 0.950 . S
H2223 C2232 0.950 . S
H2224 C2234 0.950 . S
H2225 C2236 0.950 . S
H2226 C2238 0.950 . S
H2227 C2239 0.950 . S
C2228 H2220 0.950 . S
C2228 C2229 1.386 . S
C2228 C2230 1.391 . S
C2229 C2228 1.386 . S
C2229 C2233 1.393 . S
C2230 H2222 0.950 . S
C2230 C2228 1.391 . S
C2230 C2231 1.400 . S
C2231 C2230 1.400 . S
C2231 C2232 1.398 . S
C2231 C2237 1.491 . S
C2232 H2223 0.950 . S
C2232 C2231 1.398 . S
C2232 C2233 1.391 . S
C2233 H2221 0.950 . S
C2233 C2229 1.393 . S
C2233 C2232 1.391 . S
C2234 H2224 0.950 . S
C2234 C2235 1.386 . S
C2234 C2236 1.391 . S
C2235 C2234 1.386 . S
C2235 C2239 1.393 . S
C2236 H2225 0.950 . S
C2236 C2234 1.391 . S
C2236 C2237 1.400 . S
C2237 C2231 1.491 . S
C2237 C2236 1.400 . S
C2237 C2238 1.398 . S
C2238 H2226 0.950 . S
C2238 C2237 1.398 . S
C2238 C2239 1.391 . S
C2239 H2227 0.950 . S
C2239 C2235 1.393 . S
C2239 C2238 1.391 . S
H2240 C2248 0.950 . S
H2241 C2253 0.950 . S
H2242 C2250 0.950 . S
H2243 C2252 0.950 . S
H2244 C2254 0.950 . S
H2245 C2256 0.950 . S
H2246 C2258 0.950 . S
H2247 C2259 0.950 . S
C2248 H2240 0.950 . S
C2248 C2249 1.386 . S
C2248 C2250 1.391 . S
C2249 C2248 1.386 . S
C2249 C2253 1.393 . S
C2250 H2242 0.950 . S
C2250 C2248 1.391 . S
C2250 C2251 1.400 . S
C2251 C2250 1.400 . S
C2251 C2252 1.398 . S
C2251 C2257 1.491 . S
C2252 H2243 0.950 . S
C2252 C2251 1.398 . S
C2252 C2253 1.391 . S
C2253 H2241 0.950 . S
C2253 C2249 1.393 . S
C2253 C2252 1.391 . S
C2254 H2244 0.950 . S
C2254 C2255 1.386 . S
C2254 C2256 1.391 . S
C2255 C2254 1.386 . S
C2255 C2259 1.393 . S
C2256 H2245 0.950 . S
C2256 C2254 1.391 . S
C2256 C2257 1.400 . S
C2257 C2251 1.491 . S
C2257 C2256 1.400 . S
C2257 C2258 1.398 . S
C2258 H2246 0.950 . S
C2258 C2257 1.398 . S
C2258 C2259 1.391 . S
C2259 H2247 0.950 . S
C2259 C2255 1.393 . S
C2259 C2258 1.391 . S
H2260 C2268 0.950 1_554 S
H2261 C2273 0.950 . S
H2262 C2270 0.950 . S
H2263 C2272 0.950 . S
H2264 C2274 0.950 . S
H2265 C2276 0.950 . S
H2266 C2278 0.950 . S
H2267 C2279 0.950 . S
C2268 H2260 0.950 1_556 S
C2268 C2269 1.386 . S
C2268 C2270 1.391 . S
C2269 C2268 1.386 . S
C2269 C2273 1.393 . S
C2270 H2262 0.950 . S
C2270 C2268 1.391 . S
C2270 C2271 1.400 . S
C2271 C2270 1.400 . S
C2271 C2272 1.398 . S
C2271 C2277 1.491 . S
C2272 H2263 0.950 . S
C2272 C2271 1.398 . S
C2272 C2273 1.391 . S
C2273 H2261 0.950 . S
C2273 C2269 1.393 . S
C2273 C2272 1.391 . S
C2274 H2264 0.950 . S
C2274 C2275 1.386 . S
C2274 C2276 1.391 . S
C2275 C2274 1.386 . S
C2275 C2279 1.393 . S
C2276 H2265 0.950 . S
C2276 C2274 1.391 . S
C2276 C2277 1.400 . S
C2277 C2271 1.491 . S
C2277 C2276 1.400 . S
C2277 C2278 1.398 . S
C2278 H2266 0.950 . S
C2278 C2277 1.398 . S
C2278 C2279 1.391 . S
C2279 H2267 0.950 . S
C2279 C2275 1.393 . S
C2279 C2278 1.391 . S
H2280 C2288 0.951 . S
H2281 C2293 0.950 . S
H2282 C2290 0.950 . S
H2283 C2292 0.950 . S
H2284 C2294 0.950 . S
H2285 C2296 0.950 . S
H2286 C2298 0.950 . S
H2287 C2299 0.950 . S
C2288 H2280 0.951 . S
C2288 C2289 1.386 . S
C2288 C2290 1.391 . S
C2289 C2288 1.386 . S
C2289 C2293 1.393 . S
C2290 H2282 0.950 . S
C2290 C2288 1.391 . S
C2290 C2291 1.400 . S
C2291 C2290 1.400 . S
C2291 C2292 1.398 . S
C2291 C2297 1.491 . S
C2292 H2283 0.950 . S
C2292 C2291 1.398 . S
C2292 C2293 1.391 . S
C2293 H2281 0.950 . S
C2293 C2289 1.393 . S
C2293 C2292 1.391 . S
C2294 H2284 0.950 . S
C2294 C2295 1.386 . S
C2294 C2296 1.391 . S
C2295 C2294 1.386 . S
C2295 C2299 1.393 . S
C2296 H2285 0.950 . S
C2296 C2294 1.391 . S
C2296 C2297 1.400 . S
C2297 C2291 1.491 . S
C2297 C2296 1.400 . S
C2297 C2298 1.398 . S
C2298 H2286 0.950 . S
C2298 C2297 1.398 . S
C2298 C2299 1.391 . S
C2299 H2287 0.950 . S
C2299 C2295 1.393 . S
C2299 C2298 1.391 . S
H2300 C2308 0.950 . S
H2301 C2313 0.950 . S
H2302 C2310 0.950 . S
H2303 C2312 0.950 . S
H2304 C2314 0.955 . S
H2305 C2316 0.950 . S
H2306 C2318 0.950 . S
H2307 C2319 0.950 . S
C2308 H2300 0.950 . S
C2308 C2309 1.386 . S
C2308 C2310 1.391 . S
C2309 C2308 1.386 . S
C2309 C2313 1.393 . S
C2310 H2302 0.950 . S
C2310 C2308 1.391 . S
C2310 C2311 1.400 . S
C2311 C2310 1.400 . S
C2311 C2312 1.398 . S
C2311 C2317 1.491 . S
C2312 H2303 0.950 . S
C2312 C2311 1.398 . S
C2312 C2313 1.391 . S
C2313 H2301 0.950 . S
C2313 C2309 1.393 . S
C2313 C2312 1.391 . S
C2314 H2304 0.955 . S
C2314 C2315 1.386 . S
C2314 C2316 1.391 . S
C2315 C2314 1.386 . S
C2315 C2319 1.393 . S
C2316 H2305 0.950 . S
C2316 C2314 1.391 . S
C2316 C2317 1.400 . S
C2317 C2311 1.491 . S
C2317 C2316 1.400 . S
C2317 C2318 1.398 . S
C2318 H2306 0.950 . S
C2318 C2317 1.398 . S
C2318 C2319 1.391 . S
C2319 H2307 0.950 . S
C2319 C2315 1.393 . S
C2319 C2318 1.391 . S
H2320 C2328 0.950 1_545 S
H2321 C2333 0.950 . S
H2322 C2330 0.950 . S
H2323 C2332 0.950 . S
H2324 C2334 0.950 . S
H2325 C2336 0.950 . S
H2326 C2338 0.950 . S
H2327 C2339 0.950 1_554 S
C2328 H2320 0.950 1_565 S
C2328 C2329 1.386 . S
C2328 C2330 1.391 . S
C2329 C2328 1.386 . S
C2329 C2333 1.393 . S
C2330 H2322 0.950 . S
C2330 C2328 1.391 . S
C2330 C2331 1.400 . S
C2331 C2330 1.400 . S
C2331 C2332 1.398 . S
C2331 C2337 1.491 . S
C2332 H2323 0.950 . S
C2332 C2331 1.398 . S
C2332 C2333 1.391 . S
C2333 H2321 0.950 . S
C2333 C2329 1.393 . S
C2333 C2332 1.391 . S
C2334 H2324 0.950 . S
C2334 C2335 1.386 . S
C2334 C2336 1.391 . S
C2335 C2334 1.386 . S
C2335 C2339 1.393 . S
C2336 H2325 0.950 . S
C2336 C2334 1.391 . S
C2336 C2337 1.400 . S
C2337 C2331 1.491 . S
C2337 C2336 1.400 . S
C2337 C2338 1.398 . S
C2338 H2326 0.950 . S
C2338 C2337 1.398 . S
C2338 C2339 1.391 . S
C2339 H2327 0.950 1_556 S
C2339 C2335 1.393 . S
C2339 C2338 1.391 . S
H2340 C2348 0.950 . S
H2341 C2353 0.950 . S
H2342 C2350 0.950 . S
H2343 C2352 0.950 . S
H2344 C2354 0.950 . S
H2345 C2356 0.950 . S
H2346 C2358 0.950 . S
H2347 C2359 0.950 . S
C2348 H2340 0.950 . S
C2348 C2349 1.386 . S
C2348 C2350 1.391 . S
C2349 C2348 1.386 . S
C2349 C2353 1.393 . S
C2350 H2342 0.950 . S
C2350 C2348 1.391 . S
C2350 C2351 1.400 . S
C2351 C2350 1.400 . S
C2351 C2352 1.398 . S
C2351 C2357 1.491 . S
C2352 H2343 0.950 . S
C2352 C2351 1.398 . S
C2352 C2353 1.391 . S
C2353 H2341 0.950 . S
C2353 C2349 1.393 . S
C2353 C2352 1.391 . S
C2354 H2344 0.950 . S
C2354 C2355 1.386 . S
C2354 C2356 1.391 . S
C2355 C2354 1.386 . S
C2355 C2359 1.393 . S
C2356 H2345 0.950 . S
C2356 C2354 1.391 . S
C2356 C2357 1.400 . S
C2357 C2351 1.491 . S
C2357 C2356 1.400 . S
C2357 C2358 1.398 . S
C2358 H2346 0.950 . S
C2358 C2357 1.398 . S
C2358 C2359 1.391 . S
C2359 H2347 0.950 . S
C2359 C2355 1.393 . S
C2359 C2358 1.391 . S
H2360 C2368 0.950 . S
H2361 C2373 0.950 . S
H2362 C2370 0.950 . S
H2363 C2372 0.950 . S
H2364 C2374 0.950 . S
H2365 C2376 0.950 . S
H2366 C2378 0.950 . S
H2367 C2379 0.950 . S
C2368 H2360 0.950 . S
C2368 C2369 1.386 . S
C2368 C2370 1.391 . S
C2369 C2368 1.386 . S
C2369 C2373 1.393 . S
C2370 H2362 0.950 . S
C2370 C2368 1.391 . S
C2370 C2371 1.400 . S
C2371 C2370 1.400 . S
C2371 C2372 1.398 . S
C2371 C2377 1.491 . S
C2372 H2363 0.950 . S
C2372 C2371 1.398 . S
C2372 C2373 1.391 . S
C2373 H2361 0.950 . S
C2373 C2369 1.393 . S
C2373 C2372 1.391 . S
C2374 H2364 0.950 . S
C2374 C2375 1.386 . S
C2374 C2376 1.391 . S
C2375 C2374 1.386 . S
C2375 C2379 1.393 . S
C2376 H2365 0.950 . S
C2376 C2374 1.391 . S
C2376 C2377 1.400 . S
C2377 C2371 1.491 . S
C2377 C2376 1.400 . S
C2377 C2378 1.398 . S
C2378 H2366 0.950 . S
C2378 C2377 1.398 . S
C2378 C2379 1.391 . S
C2379 H2367 0.950 . S
C2379 C2375 1.393 . S
C2379 C2378 1.391 . S
H2380 C2388 0.950 . S
H2381 C2393 0.950 . S
H2382 C2390 0.950 . S
H2383 C2392 0.950 . S
H2384 C2394 0.950 . S
H2385 C2396 0.950 . S
H2386 C2398 0.950 . S
H2387 C2399 0.950 . S
C2388 H2380 0.950 . S
C2388 C2389 1.386 . S
C2388 C2390 1.391 . S
C2389 C2388 1.386 . S
C2389 C2393 1.393 . S
C2390 H2382 0.950 . S
C2390 C2388 1.391 . S
C2390 C2391 1.400 . S
C2391 C2390 1.400 . S
C2391 C2392 1.398 . S
C2391 C2397 1.491 . S
C2392 H2383 0.950 . S
C2392 C2391 1.398 . S
C2392 C2393 1.391 . S
C2393 H2381 0.950 . S
C2393 C2389 1.393 . S
C2393 C2392 1.391 . S
C2394 H2384 0.950 . S
C2394 C2395 1.386 . S
C2394 C2396 1.391 . S
C2395 C2394 1.386 . S
C2395 C2399 1.393 . S
C2396 H2385 0.950 . S
C2396 C2394 1.391 . S
C2396 C2397 1.400 . S
C2397 C2391 1.491 . S
C2397 C2396 1.400 . S
C2397 C2398 1.398 . S
C2398 H2386 0.950 . S
C2398 C2397 1.398 . S
C2398 C2399 1.391 . S
C2399 H2387 0.950 . S
C2399 C2395 1.393 . S
C2399 C2398 1.391 . S
H2400 C2408 0.950 . S
H2401 C2413 0.950 . S
H2402 C2410 0.950 . S
H2403 C2412 0.950 . S
H2404 C2414 0.950 . S
H2405 C2416 0.950 . S
H2406 C2418 0.950 . S
H2407 C2419 0.950 . S
C2408 H2400 0.950 . S
C2408 C2409 1.386 . S
C2408 C2410 1.391 . S
C2409 C2408 1.386 . S
C2409 C2413 1.393 . S
C2410 H2402 0.950 . S
C2410 C2408 1.391 . S
C2410 C2411 1.400 . S
C2411 C2410 1.400 . S
C2411 C2412 1.398 . S
C2411 C2417 1.491 . S
C2412 H2403 0.950 . S
C2412 C2411 1.398 . S
C2412 C2413 1.391 . S
C2413 H2401 0.950 . S
C2413 C2409 1.393 . S
C2413 C2412 1.391 . S
C2414 H2404 0.950 . S
C2414 C2415 1.386 . S
C2414 C2416 1.391 . S
C2415 C2414 1.386 . S
C2415 C2419 1.393 . S
C2416 H2405 0.950 . S
C2416 C2414 1.391 . S
C2416 C2417 1.400 . S
C2417 C2411 1.491 . S
C2417 C2416 1.400 . S
C2417 C2418 1.398 . S
C2418 H2406 0.950 . S
C2418 C2417 1.398 . S
C2418 C2419 1.391 . S
C2419 H2407 0.950 . S
C2419 C2415 1.393 . S
C2419 C2418 1.391 . S
H2420 C2428 0.950 . S
H2421 C2433 0.950 . S
H2422 C2430 0.950 . S
H2423 C2432 0.950 . S
H2424 C2434 0.950 . S
H2425 C2436 0.950 . S
H2426 C2438 0.950 . S
H2427 C2439 0.950 . S
C2428 H2420 0.950 . S
C2428 C2429 1.386 . S
C2428 C2430 1.391 . S
C2429 C2428 1.386 . S
C2429 C2433 1.393 . S
C2430 H2422 0.950 . S
C2430 C2428 1.391 . S
C2430 C2431 1.400 . S
C2431 C2430 1.400 . S
C2431 C2432 1.398 . S
C2431 C2437 1.491 . S
C2432 H2423 0.950 . S
C2432 C2431 1.398 . S
C2432 C2433 1.391 . S
C2433 H2421 0.950 . S
C2433 C2429 1.393 . S
C2433 C2432 1.391 . S
C2434 H2424 0.950 . S
C2434 C2435 1.386 . S
C2434 C2436 1.391 . S
C2435 C2434 1.386 . S
C2435 C2439 1.393 . S
C2436 H2425 0.950 . S
C2436 C2434 1.391 . S
C2436 C2437 1.400 . S
C2437 C2431 1.491 . S
C2437 C2436 1.400 . S
C2437 C2438 1.398 . S
C2438 H2426 0.950 . S
C2438 C2437 1.398 . S
C2438 C2439 1.391 . S
C2439 H2427 0.950 . S
C2439 C2435 1.393 . S
C2439 C2438 1.391 . S
H2440 C2448 0.950 . S
H2441 C2453 0.950 . S
H2442 C2450 0.950 . S
H2443 C2452 0.950 . S
H2444 C2454 0.950 . S
H2445 C2456 0.950 . S
H2446 C2458 0.950 . S
H2447 C2459 0.950 . S
C2448 H2440 0.950 . S
C2448 C2449 1.386 . S
C2448 C2450 1.391 . S
C2449 C2448 1.386 . S
C2449 C2453 1.393 . S
C2450 H2442 0.950 . S
C2450 C2448 1.391 . S
C2450 C2451 1.400 . S
C2451 C2450 1.400 . S
C2451 C2452 1.398 . S
C2451 C2457 1.491 . S
C2452 H2443 0.950 . S
C2452 C2451 1.398 . S
C2452 C2453 1.391 . S
C2453 H2441 0.950 . S
C2453 C2449 1.393 . S
C2453 C2452 1.391 . S
C2454 H2444 0.950 . S
C2454 C2455 1.386 . S
C2454 C2456 1.391 . S
C2455 C2454 1.386 . S
C2455 C2459 1.393 . S
C2456 H2445 0.950 . S
C2456 C2454 1.391 . S
C2456 C2457 1.400 . S
C2457 C2451 1.491 . S
C2457 C2456 1.400 . S
C2457 C2458 1.398 . S
C2458 H2446 0.950 . S
C2458 C2457 1.398 . S
C2458 C2459 1.391 . S
C2459 H2447 0.950 . S
C2459 C2455 1.393 . S
C2459 C2458 1.391 . S
H2460 C2468 0.950 . S
H2461 C2473 0.950 . S
H2462 C2470 0.950 . S
H2463 C2472 0.950 . S
H2464 C2474 0.950 . S
H2465 C2476 0.950 . S
H2466 C2478 0.950 . S
H2467 C2479 0.950 . S
C2468 H2460 0.950 . S
C2468 C2469 1.386 . S
C2468 C2470 1.391 . S
C2469 C2468 1.386 . S
C2469 C2473 1.393 . S
C2470 H2462 0.950 . S
C2470 C2468 1.391 . S
C2470 C2471 1.400 . S
C2471 C2470 1.400 . S
C2471 C2472 1.398 . S
C2471 C2477 1.491 . S
C2472 H2463 0.950 . S
C2472 C2471 1.398 . S
C2472 C2473 1.391 . S
C2473 H2461 0.950 . S
C2473 C2469 1.393 . S
C2473 C2472 1.391 . S
C2474 H2464 0.950 . S
C2474 C2475 1.386 . S
C2474 C2476 1.391 . S
C2475 C2474 1.386 . S
C2475 C2479 1.393 . S
C2476 H2465 0.950 . S
C2476 C2474 1.391 . S
C2476 C2477 1.400 . S
C2477 C2471 1.491 . S
C2477 C2476 1.400 . S
C2477 C2478 1.398 . S
C2478 H2466 0.950 . S
C2478 C2477 1.398 . S
C2478 C2479 1.391 . S
C2479 H2467 0.950 . S
C2479 C2475 1.393 . S
C2479 C2478 1.391 . S
H2480 C2488 0.950 . S
H2481 C2493 0.950 . S
H2482 C2490 0.950 . S
H2483 C2492 0.950 . S
H2484 C2494 0.950 . S
H2485 C2496 0.950 . S
H2486 C2498 0.950 . S
H2487 C2499 0.950 . S
C2488 H2480 0.950 . S
C2488 C2489 1.386 . S
C2488 C2490 1.391 . S
C2489 C2488 1.386 . S
C2489 C2493 1.393 . S
C2490 H2482 0.950 . S
C2490 C2488 1.391 . S
C2490 C2491 1.400 . S
C2491 C2490 1.400 . S
C2491 C2492 1.398 . S
C2491 C2497 1.491 . S
C2492 H2483 0.950 . S
C2492 C2491 1.398 . S
C2492 C2493 1.391 . S
C2493 H2481 0.950 . S
C2493 C2489 1.393 . S
C2493 C2492 1.391 . S
C2494 H2484 0.950 . S
C2494 C2495 1.386 . S
C2494 C2496 1.391 . S
C2495 C2494 1.386 . S
C2495 C2499 1.393 . S
C2496 H2485 0.950 . S
C2496 C2494 1.391 . S
C2496 C2497 1.400 . S
C2497 C2491 1.491 . S
C2497 C2496 1.400 . S
C2497 C2498 1.398 . S
C2498 H2486 0.950 . S
C2498 C2497 1.398 . S
C2498 C2499 1.391 . S
C2499 H2487 0.950 . S
C2499 C2495 1.393 . S
C2499 C2498 1.391 . S
H2500 C2508 0.950 . S
H2501 C2513 0.950 . S
H2502 C2510 0.950 . S
H2503 C2512 0.950 . S
H2504 C2514 0.950 . S
H2505 C2516 0.950 . S
H2506 C2518 0.950 . S
H2507 C2519 0.950 . S
C2508 H2500 0.950 . S
C2508 C2509 1.386 . S
C2508 C2510 1.391 . S
C2509 C2508 1.386 . S
C2509 C2513 1.393 . S
C2510 H2502 0.950 . S
C2510 C2508 1.391 . S
C2510 C2511 1.400 . S
C2511 C2510 1.400 . S
C2511 C2512 1.398 . S
C2511 C2517 1.491 . S
C2512 H2503 0.950 . S
C2512 C2511 1.398 . S
C2512 C2513 1.391 . S
C2513 H2501 0.950 . S
C2513 C2509 1.393 . S
C2513 C2512 1.391 . S
C2514 H2504 0.950 . S
C2514 C2515 1.386 . S
C2514 C2516 1.391 . S
C2515 C2514 1.386 . S
C2515 C2519 1.393 . S
C2516 H2505 0.950 . S
C2516 C2514 1.391 . S
C2516 C2517 1.400 . S
C2517 C2511 1.491 . S
C2517 C2516 1.400 . S
C2517 C2518 1.398 . S
C2518 H2506 0.950 . S
C2518 C2517 1.398 . S
C2518 C2519 1.391 . S
C2519 H2507 0.950 . S
C2519 C2515 1.393 . S
C2519 C2518 1.391 . S
H2520 C2528 0.950 . S
H2521 C2533 0.950 . S
H2522 C2530 0.950 . S
H2523 C2532 0.950 . S
H2524 C2534 0.950 . S
H2525 C2536 0.950 . S
H2526 C2538 0.950 . S
H2527 C2539 0.950 . S
C2528 H2520 0.950 . S
C2528 C2529 1.386 . S
C2528 C2530 1.391 . S
C2529 C2528 1.386 . S
C2529 C2533 1.393 . S
C2530 H2522 0.950 . S
C2530 C2528 1.391 . S
C2530 C2531 1.400 . S
C2531 C2530 1.400 . S
C2531 C2532 1.398 . S
C2531 C2537 1.491 . S
C2532 H2523 0.950 . S
C2532 C2531 1.398 . S
C2532 C2533 1.391 . S
C2533 H2521 0.950 . S
C2533 C2529 1.393 . S
C2533 C2532 1.391 . S
C2534 H2524 0.950 . S
C2534 C2535 1.386 . S
C2534 C2536 1.391 . S
C2535 C2534 1.386 . S
C2535 C2539 1.393 . S
C2536 H2525 0.950 . S
C2536 C2534 1.391 . S
C2536 C2537 1.400 . S
C2537 C2531 1.491 . S
C2537 C2536 1.400 . S
C2537 C2538 1.398 . S
C2538 H2526 0.950 . S
C2538 C2537 1.398 . S
C2538 C2539 1.391 . S
C2539 H2527 0.950 . S
C2539 C2535 1.393 . S
C2539 C2538 1.391 . S
H2540 C2548 0.950 . S
H2541 C2553 0.950 . S
H2542 C2550 0.950 . S
H2543 C2552 0.950 . S
H2544 C2554 0.950 . S
H2545 C2556 0.950 . S
H2546 C2558 0.950 . S
H2547 C2559 0.950 . S
C2548 H2540 0.950 . S
C2548 C2549 1.386 . S
C2548 C2550 1.391 . S
C2549 C2548 1.386 . S
C2549 C2553 1.393 . S
C2550 H2542 0.950 . S
C2550 C2548 1.391 . S
C2550 C2551 1.400 . S
C2551 C2550 1.400 . S
C2551 C2552 1.398 . S
C2551 C2557 1.491 . S
C2552 H2543 0.950 . S
C2552 C2551 1.398 . S
C2552 C2553 1.391 . S
C2553 H2541 0.950 . S
C2553 C2549 1.393 . S
C2553 C2552 1.391 . S
C2554 H2544 0.950 . S
C2554 C2555 1.386 . S
C2554 C2556 1.391 . S
C2555 C2554 1.386 . S
C2555 C2559 1.393 . S
C2556 H2545 0.950 . S
C2556 C2554 1.391 . S
C2556 C2557 1.400 . S
C2557 C2551 1.491 . S
C2557 C2556 1.400 . S
C2557 C2558 1.398 . S
C2558 H2546 0.950 . S
C2558 C2557 1.398 . S
C2558 C2559 1.391 . S
C2559 H2547 0.950 . S
C2559 C2555 1.393 . S
C2559 C2558 1.391 . S
H2560 C2568 0.950 . S
H2561 C2573 0.950 . S
H2562 C2570 0.950 . S
H2563 C2572 0.950 . S
H2564 C2574 0.950 . S
H2565 C2576 0.950 . S
H2566 C2578 0.950 . S
H2567 C2579 0.950 . S
C2568 H2560 0.950 . S
C2568 C2569 1.386 . S
C2568 C2570 1.391 . S
C2569 C2568 1.386 . S
C2569 C2573 1.393 . S
C2570 H2562 0.950 . S
C2570 C2568 1.391 . S
C2570 C2571 1.400 . S
C2571 C2570 1.400 . S
C2571 C2572 1.398 . S
C2571 C2577 1.491 . S
C2572 H2563 0.950 . S
C2572 C2571 1.398 . S
C2572 C2573 1.391 . S
C2573 H2561 0.950 . S
C2573 C2569 1.393 . S
C2573 C2572 1.391 . S
C2574 H2564 0.950 . S
C2574 C2575 1.386 . S
C2574 C2576 1.391 . S
C2575 C2574 1.386 . S
C2575 C2579 1.393 . S
C2576 H2565 0.950 . S
C2576 C2574 1.391 . S
C2576 C2577 1.400 . S
C2577 C2571 1.491 . S
C2577 C2576 1.400 . S
C2577 C2578 1.398 . S
C2578 H2566 0.950 . S
C2578 C2577 1.398 . S
C2578 C2579 1.391 . S
C2579 H2567 0.950 . S
C2579 C2575 1.393 . S
C2579 C2578 1.391 . S
H2580 C2588 0.950 . S
H2581 C2593 0.950 . S
H2582 C2590 0.950 . S
H2583 C2592 0.950 . S
H2584 C2594 0.950 . S
H2585 C2596 0.950 . S
H2586 C2598 0.950 . S
H2587 C2599 0.950 . S
C2588 H2580 0.950 . S
C2588 C2589 1.386 . S
C2588 C2590 1.391 . S
C2589 C2588 1.386 . S
C2589 C2593 1.393 . S
C2590 H2582 0.950 . S
C2590 C2588 1.391 . S
C2590 C2591 1.400 . S
C2591 C2590 1.400 . S
C2591 C2592 1.398 . S
C2591 C2597 1.491 . S
C2592 H2583 0.950 . S
C2592 C2591 1.398 . S
C2592 C2593 1.391 . S
C2593 H2581 0.950 . S
C2593 C2589 1.393 . S
C2593 C2592 1.391 . S
C2594 H2584 0.950 . S
C2594 C2595 1.386 . S
C2594 C2596 1.391 . S
C2595 C2594 1.386 . S
C2595 C2599 1.393 . S
C2596 H2585 0.950 . S
C2596 C2594 1.391 . S
C2596 C2597 1.400 . S
C2597 C2591 1.491 . S
C2597 C2596 1.400 . S
C2597 C2598 1.398 . S
C2598 H2586 0.950 . S
C2598 C2597 1.398 . S
C2598 C2599 1.391 . S
C2599 H2587 0.950 . S
C2599 C2595 1.393 . S
C2599 C2598 1.391 . S
H2600 C2608 0.950 . S
H2601 C2613 0.950 . S
H2602 C2610 0.950 . S
H2603 C2612 0.950 . S
H2604 C2614 0.950 . S
H2605 C2616 0.950 . S
H2606 C2618 0.950 . S
H2607 C2619 0.950 . S
C2608 H2600 0.950 . S
C2608 C2609 1.386 . S
C2608 C2610 1.391 . S
C2609 C2608 1.386 . S
C2609 C2613 1.393 . S
C2610 H2602 0.950 . S
C2610 C2608 1.391 . S
C2610 C2611 1.400 . S
C2611 C2610 1.400 . S
C2611 C2612 1.398 . S
C2611 C2617 1.491 . S
C2612 H2603 0.950 . S
C2612 C2611 1.398 . S
C2612 C2613 1.391 . S
C2613 H2601 0.950 . S
C2613 C2609 1.393 . S
C2613 C2612 1.391 . S
C2614 H2604 0.950 . S
C2614 C2615 1.386 . S
C2614 C2616 1.391 . S
C2615 C2614 1.386 . S
C2615 C2619 1.393 . S
C2616 H2605 0.950 . S
C2616 C2614 1.391 . S
C2616 C2617 1.400 . S
C2617 C2611 1.491 . S
C2617 C2616 1.400 . S
C2617 C2618 1.398 . S
C2618 H2606 0.950 . S
C2618 C2617 1.398 . S
C2618 C2619 1.391 . S
C2619 H2607 0.950 . S
C2619 C2615 1.393 . S
C2619 C2618 1.391 . S
H2620 C2628 0.950 . S
H2621 C2633 0.950 . S
H2622 C2630 0.950 . S
H2623 C2632 0.950 . S
H2624 C2634 0.950 . S
H2625 C2636 0.950 . S
H2626 C2638 0.950 . S
H2627 C2639 0.950 . S
C2628 H2620 0.950 . S
C2628 C2629 1.386 . S
C2628 C2630 1.391 . S
C2629 C2628 1.386 . S
C2629 C2633 1.393 . S
C2630 H2622 0.950 . S
C2630 C2628 1.391 . S
C2630 C2631 1.400 . S
C2631 C2630 1.400 . S
C2631 C2632 1.398 . S
C2631 C2637 1.491 . S
C2632 H2623 0.950 . S
C2632 C2631 1.398 . S
C2632 C2633 1.391 . S
C2633 H2621 0.950 . S
C2633 C2629 1.393 . S
C2633 C2632 1.391 . S
C2634 H2624 0.950 . S
C2634 C2635 1.386 . S
C2634 C2636 1.391 . S
C2635 C2634 1.386 . S
C2635 C2639 1.393 . S
C2636 H2625 0.950 . S
C2636 C2634 1.391 . S
C2636 C2637 1.400 . S
C2637 C2631 1.491 . S
C2637 C2636 1.400 . S
C2637 C2638 1.398 . S
C2638 H2626 0.950 . S
C2638 C2637 1.398 . S
C2638 C2639 1.391 . S
C2639 H2627 0.950 . S
C2639 C2635 1.393 . S
C2639 C2638 1.391 . S
H2640 C2648 0.950 . S
H2641 C2653 0.950 . S
H2642 C2650 0.950 . S
H2643 C2652 0.950 . S
H2644 C2654 0.950 . S
H2645 C2656 0.950 . S
H2646 C2658 0.950 . S
H2647 C2659 0.950 . S
C2648 H2640 0.950 . S
C2648 C2649 1.386 . S
C2648 C2650 1.391 . S
C2649 C2648 1.386 . S
C2649 C2653 1.393 . S
C2650 H2642 0.950 . S
C2650 C2648 1.391 . S
C2650 C2651 1.400 . S
C2651 C2650 1.400 . S
C2651 C2652 1.398 . S
C2651 C2657 1.491 . S
C2652 H2643 0.950 . S
C2652 C2651 1.398 . S
C2652 C2653 1.391 . S
C2653 H2641 0.950 . S
C2653 C2649 1.393 . S
C2653 C2652 1.391 . S
C2654 H2644 0.950 . S
C2654 C2655 1.386 . S
C2654 C2656 1.391 . S
C2655 C2654 1.386 . S
C2655 C2659 1.393 . S
C2656 H2645 0.950 . S
C2656 C2654 1.391 . S
C2656 C2657 1.400 . S
C2657 C2651 1.491 . S
C2657 C2656 1.400 . S
C2657 C2658 1.398 . S
C2658 H2646 0.950 . S
C2658 C2657 1.398 . S
C2658 C2659 1.391 . S
C2659 H2647 0.950 . S
C2659 C2655 1.393 . S
C2659 C2658 1.391 . S
H2660 C2668 0.950 . S
H2661 C2673 0.950 . S
H2662 C2670 0.950 . S
H2663 C2672 0.950 . S
H2664 C2674 0.950 . S
H2665 C2676 0.950 . S
H2666 C2678 0.950 . S
H2667 C2679 0.950 . S
C2668 H2660 0.950 . S
C2668 C2669 1.386 . S
C2668 C2670 1.391 . S
C2669 C2668 1.386 . S
C2669 C2673 1.393 . S
C2670 H2662 0.950 . S
C2670 C2668 1.391 . S
C2670 C2671 1.400 . S
C2671 C2670 1.400 . S
C2671 C2672 1.398 . S
C2671 C2677 1.491 . S
C2672 H2663 0.950 . S
C2672 C2671 1.398 . S
C2672 C2673 1.391 . S
C2673 H2661 0.950 . S
C2673 C2669 1.393 . S
C2673 C2672 1.391 . S
C2674 H2664 0.950 . S
C2674 C2675 1.386 . S
C2674 C2676 1.391 . S
C2675 C2674 1.386 . S
C2675 C2679 1.393 . S
C2676 H2665 0.950 . S
C2676 C2674 1.391 . S
C2676 C2677 1.400 . S
C2677 C2671 1.491 . S
C2677 C2676 1.400 . S
C2677 C2678 1.398 . S
C2678 H2666 0.950 . S
C2678 C2677 1.398 . S
C2678 C2679 1.391 . S
C2679 H2667 0.950 . S
C2679 C2675 1.393 . S
C2679 C2678 1.391 . S
H2680 C2688 0.950 . S
H2681 C2693 0.950 . S
H2682 C2690 0.950 . S
H2683 C2692 0.950 . S
H2684 C2694 0.950 . S
H2685 C2696 0.950 . S
H2686 C2698 0.950 . S
H2687 C2699 0.950 . S
C2688 H2680 0.950 . S
C2688 C2689 1.386 . S
C2688 C2690 1.391 . S
C2689 C2688 1.386 . S
C2689 C2693 1.393 . S
C2690 H2682 0.950 . S
C2690 C2688 1.391 . S
C2690 C2691 1.400 . S
C2691 C2690 1.400 . S
C2691 C2692 1.398 . S
C2691 C2697 1.491 . S
C2692 H2683 0.950 . S
C2692 C2691 1.398 . S
C2692 C2693 1.391 . S
C2693 H2681 0.950 . S
C2693 C2689 1.393 . S
C2693 C2692 1.391 . S
C2694 H2684 0.950 . S
C2694 C2695 1.386 . S
C2694 C2696 1.391 . S
C2695 C2694 1.386 . S
C2695 C2699 1.393 . S
C2696 H2685 0.950 . S
C2696 C2694 1.391 . S
C2696 C2697 1.400 . S
C2697 C2691 1.491 . S
C2697 C2696 1.400 . S
C2697 C2698 1.398 . S
C2698 H2686 0.950 . S
C2698 C2697 1.398 . S
C2698 C2699 1.391 . S
C2699 H2687 0.950 . S
C2699 C2695 1.393 . S
C2699 C2698 1.391 . S
H2700 C2708 0.950 . S
H2701 C2713 0.950 . S
H2702 C2710 0.950 . S
H2703 C2712 0.950 . S
H2704 C2714 0.950 . S
H2705 C2716 0.950 . S
H2706 C2718 0.950 . S
H2707 C2719 0.950 . S
C2708 H2700 0.950 . S
C2708 C2709 1.386 . S
C2708 C2710 1.391 . S
C2709 C2708 1.386 . S
C2709 C2713 1.393 . S
C2710 H2702 0.950 . S
C2710 C2708 1.391 . S
C2710 C2711 1.400 . S
C2711 C2710 1.400 . S
C2711 C2712 1.398 . S
C2711 C2717 1.491 . S
C2712 H2703 0.950 . S
C2712 C2711 1.398 . S
C2712 C2713 1.391 . S
C2713 H2701 0.950 . S
C2713 C2709 1.393 . S
C2713 C2712 1.391 . S
C2714 H2704 0.950 . S
C2714 C2715 1.386 . S
C2714 C2716 1.391 . S
C2715 C2714 1.386 . S
C2715 C2719 1.393 . S
C2716 H2705 0.950 . S
C2716 C2714 1.391 . S
C2716 C2717 1.400 . S
C2717 C2711 1.491 . S
C2717 C2716 1.400 . S
C2717 C2718 1.398 . S
C2718 H2706 0.950 . S
C2718 C2717 1.398 . S
C2718 C2719 1.391 . S
C2719 H2707 0.950 . S
C2719 C2715 1.393 . S
C2719 C2718 1.391 . S
H2720 C2728 0.950 . S
H2721 C2733 0.950 . S
H2722 C2730 0.950 . S
H2723 C2732 0.950 . S
H2724 C2734 0.950 . S
H2725 C2736 0.950 . S
H2726 C2738 0.950 . S
H2727 C2739 0.950 . S
C2728 H2720 0.950 . S
C2728 C2729 1.386 . S
C2728 C2730 1.391 . S
C2729 C2728 1.386 . S
C2729 C2733 1.393 . S
C2730 H2722 0.950 . S
C2730 C2728 1.391 . S
C2730 C2731 1.400 . S
C2731 C2730 1.400 . S
C2731 C2732 1.398 . S
C2731 C2737 1.491 . S
C2732 H2723 0.950 . S
C2732 C2731 1.398 . S
C2732 C2733 1.391 . S
C2733 H2721 0.950 . S
C2733 C2729 1.393 . S
C2733 C2732 1.391 . S
C2734 H2724 0.950 . S
C2734 C2735 1.386 . S
C2734 C2736 1.391 . S
C2735 C2734 1.386 . S
C2735 C2739 1.393 . S
C2736 H2725 0.950 . S
C2736 C2734 1.391 . S
C2736 C2737 1.400 . S
C2737 C2731 1.491 . S
C2737 C2736 1.400 . S
C2737 C2738 1.398 . S
C2738 H2726 0.950 . S
C2738 C2737 1.398 . S
C2738 C2739 1.391 . S
C2739 H2727 0.950 . S
C2739 C2735 1.393 . S
C2739 C2738 1.391 . S
H2740 C2748 0.950 . S
H2741 C2753 0.950 . S
H2742 C2750 0.950 . S
H2743 C2752 0.950 . S
H2744 C2754 0.950 . S
H2745 C2756 0.950 . S
H2746 C2758 0.950 . S
H2747 C2759 0.950 . S
C2748 H2740 0.950 . S
C2748 C2749 1.386 . S
C2748 C2750 1.391 . S
C2749 C2748 1.386 . S
C2749 C2753 1.393 . S
C2750 H2742 0.950 . S
C2750 C2748 1.391 . S
C2750 C2751 1.400 . S
C2751 C2750 1.400 . S
C2751 C2752 1.398 . S
C2751 C2757 1.491 . S
C2752 H2743 0.950 . S
C2752 C2751 1.398 . S
C2752 C2753 1.391 . S
C2753 H2741 0.950 . S
C2753 C2749 1.393 . S
C2753 C2752 1.391 . S
C2754 H2744 0.950 . S
C2754 C2755 1.386 . S
C2754 C2756 1.391 . S
C2755 C2754 1.386 . S
C2755 C2759 1.393 . S
C2756 H2745 0.950 . S
C2756 C2754 1.391 . S
C2756 C2757 1.400 . S
C2757 C2751 1.491 . S
C2757 C2756 1.400 . S
C2757 C2758 1.398 . S
C2758 H2746 0.950 . S
C2758 C2757 1.398 . S
C2758 C2759 1.391 . S
C2759 H2747 0.950 . S
C2759 C2755 1.393 . S
C2759 C2758 1.391 . S
H2760 C2768 0.950 . S
H2761 C2773 0.950 . S
H2762 C2770 0.950 . S
H2763 C2772 0.950 . S
H2764 C2774 0.950 . S
H2765 C2776 0.950 . S
H2766 C2778 0.950 . S
H2767 C2779 0.950 . S
C2768 H2760 0.950 . S
C2768 C2769 1.386 . S
C2768 C2770 1.391 . S
C2769 C2768 1.386 . S
C2769 C2773 1.393 . S
C2770 H2762 0.950 . S
C2770 C2768 1.391 . S
C2770 C2771 1.400 . S
C2771 C2770 1.400 . S
C2771 C2772 1.398 . S
C2771 C2777 1.491 . S
C2772 H2763 0.950 . S
C2772 C2771 1.398 . S
C2772 C2773 1.391 . S
C2773 H2761 0.950 . S
C2773 C2769 1.393 . S
C2773 C2772 1.391 . S
C2774 H2764 0.950 . S
C2774 C2775 1.386 . S
C2774 C2776 1.391 . S
C2775 C2774 1.386 . S
C2775 C2779 1.393 . S
C2776 H2765 0.950 . S
C2776 C2774 1.391 . S
C2776 C2777 1.400 . S
C2777 C2771 1.491 . S
C2777 C2776 1.400 . S
C2777 C2778 1.398 . S
C2778 H2766 0.950 . S
C2778 C2777 1.398 . S
C2778 C2779 1.391 . S
C2779 H2767 0.950 . S
C2779 C2775 1.393 . S
C2779 C2778 1.391 . S
H2780 C2788 0.950 . S
H2781 C2793 0.950 . S
H2782 C2790 0.950 . S
H2783 C2792 0.950 . S
H2784 C2794 0.950 . S
H2785 C2796 0.950 . S
H2786 C2798 0.950 . S
H2787 C2799 0.950 . S
C2788 H2780 0.950 . S
C2788 C2789 1.386 . S
C2788 C2790 1.391 . S
C2789 C2788 1.386 . S
C2789 C2793 1.393 . S
C2790 H2782 0.950 . S
C2790 C2788 1.391 . S
C2790 C2791 1.400 . S
C2791 C2790 1.400 . S
C2791 C2792 1.398 . S
C2791 C2797 1.491 . S
C2792 H2783 0.950 . S
C2792 C2791 1.398 . S
C2792 C2793 1.391 . S
C2793 H2781 0.950 . S
C2793 C2789 1.393 . S
C2793 C2792 1.391 . S
C2794 H2784 0.950 . S
C2794 C2795 1.386 . S
C2794 C2796 1.391 . S
C2795 C2794 1.386 . S
C2795 C2799 1.393 . S
C2796 H2785 0.950 . S
C2796 C2794 1.391 . S
C2796 C2797 1.400 . S
C2797 C2791 1.491 . S
C2797 C2796 1.400 . S
C2797 C2798 1.398 . S
C2798 H2786 0.950 . S
C2798 C2797 1.398 . S
C2798 C2799 1.391 . S
C2799 H2787 0.950 . S
C2799 C2795 1.393 . S
C2799 C2798 1.391 . S
H2800 C2808 0.950 . S
H2801 C2813 0.950 . S
H2802 C2810 0.950 . S
H2803 C2812 0.950 . S
H2804 C2814 0.950 . S
H2805 C2816 0.950 . S
H2806 C2818 0.950 . S
H2807 C2819 0.950 . S
C2808 H2800 0.950 . S
C2808 C2809 1.386 . S
C2808 C2810 1.391 . S
C2809 C2808 1.386 . S
C2809 C2813 1.393 . S
C2810 H2802 0.950 . S
C2810 C2808 1.391 . S
C2810 C2811 1.400 . S
C2811 C2810 1.400 . S
C2811 C2812 1.398 . S
C2811 C2817 1.491 . S
C2812 H2803 0.950 . S
C2812 C2811 1.398 . S
C2812 C2813 1.391 . S
C2813 H2801 0.950 . S
C2813 C2809 1.393 . S
C2813 C2812 1.391 . S
C2814 H2804 0.950 . S
C2814 C2815 1.386 . S
C2814 C2816 1.391 . S
C2815 C2814 1.386 . S
C2815 C2819 1.393 . S
C2816 H2805 0.950 . S
C2816 C2814 1.391 . S
C2816 C2817 1.400 . S
C2817 C2811 1.491 . S
C2817 C2816 1.400 . S
C2817 C2818 1.398 . S
C2818 H2806 0.950 . S
C2818 C2817 1.398 . S
C2818 C2819 1.391 . S
C2819 H2807 0.950 . S
C2819 C2815 1.393 . S
C2819 C2818 1.391 . S
H2820 C2828 0.950 . S
H2821 C2833 0.950 . S
H2822 C2830 0.950 . S
H2823 C2832 0.950 . S
H2824 C2834 0.950 . S
H2825 C2836 0.950 . S
H2826 C2838 0.950 . S
H2827 C2839 0.950 . S
C2828 H2820 0.950 . S
C2828 C2829 1.386 . S
C2828 C2830 1.391 . S
C2829 C2828 1.386 . S
C2829 C2833 1.393 . S
C2830 H2822 0.950 . S
C2830 C2828 1.391 . S
C2830 C2831 1.400 . S
C2831 C2830 1.400 . S
C2831 C2832 1.398 . S
C2831 C2837 1.491 . S
C2832 H2823 0.950 . S
C2832 C2831 1.398 . S
C2832 C2833 1.391 . S
C2833 H2821 0.950 . S
C2833 C2829 1.393 . S
C2833 C2832 1.391 . S
C2834 H2824 0.950 . S
C2834 C2835 1.386 . S
C2834 C2836 1.391 . S
C2835 C2834 1.386 . S
C2835 C2839 1.393 . S
C2836 H2825 0.950 . S
C2836 C2834 1.391 . S
C2836 C2837 1.400 . S
C2837 C2831 1.491 . S
C2837 C2836 1.400 . S
C2837 C2838 1.398 . S
C2838 H2826 0.950 . S
C2838 C2837 1.398 . S
C2838 C2839 1.391 . S
C2839 H2827 0.950 . S
C2839 C2835 1.393 . S
C2839 C2838 1.391 . S
H2840 C2848 0.950 . S
H2841 C2853 0.950 . S
H2842 C2850 0.950 . S
H2843 C2852 0.950 . S
H2844 C2854 0.950 . S
H2845 C2856 0.950 . S
H2846 C2858 0.950 . S
H2847 C2859 0.950 . S
C2848 H2840 0.950 . S
C2848 C2849 1.386 . S
C2848 C2850 1.391 . S
C2849 C2848 1.386 . S
C2849 C2853 1.393 . S
C2850 H2842 0.950 . S
C2850 C2848 1.391 . S
C2850 C2851 1.400 . S
C2851 C2850 1.400 . S
C2851 C2852 1.398 . S
C2851 C2857 1.491 . S
C2852 H2843 0.950 . S
C2852 C2851 1.398 . S
C2852 C2853 1.391 . S
C2853 H2841 0.950 . S
C2853 C2849 1.393 . S
C2853 C2852 1.391 . S
C2854 H2844 0.950 . S
C2854 C2855 1.386 . S
C2854 C2856 1.391 . S
C2855 C2854 1.386 . S
C2855 C2859 1.393 . S
C2856 H2845 0.950 . S
C2856 C2854 1.391 . S
C2856 C2857 1.400 . S
C2857 C2851 1.491 . S
C2857 C2856 1.400 . S
C2857 C2858 1.398 . S
C2858 H2846 0.950 . S
C2858 C2857 1.398 . S
C2858 C2859 1.391 . S
C2859 H2847 0.950 . S
C2859 C2855 1.393 . S
C2859 C2858 1.391 . S
H2860 C2868 0.950 . S
H2861 C2873 0.950 . S
H2862 C2870 0.950 . S
H2863 C2872 0.950 . S
H2864 C2874 0.950 . S
H2865 C2876 0.950 . S
H2866 C2878 0.950 . S
H2867 C2879 0.950 . S
C2868 H2860 0.950 . S
C2868 C2869 1.386 . S
C2868 C2870 1.391 . S
C2869 C2868 1.386 . S
C2869 C2873 1.393 . S
C2870 H2862 0.950 . S
C2870 C2868 1.391 . S
C2870 C2871 1.400 . S
C2871 C2870 1.400 . S
C2871 C2872 1.398 . S
C2871 C2877 1.491 . S
C2872 H2863 0.950 . S
C2872 C2871 1.398 . S
C2872 C2873 1.391 . S
C2873 H2861 0.950 . S
C2873 C2869 1.393 . S
C2873 C2872 1.391 . S
C2874 H2864 0.950 . S
C2874 C2875 1.386 . S
C2874 C2876 1.391 . S
C2875 C2874 1.386 . S
C2875 C2879 1.393 . S
C2876 H2865 0.950 . S
C2876 C2874 1.391 . S
C2876 C2877 1.400 . S
C2877 C2871 1.491 . S
C2877 C2876 1.400 . S
C2877 C2878 1.398 . S
C2878 H2866 0.950 . S
C2878 C2877 1.398 . S
C2878 C2879 1.391 . S
C2879 H2867 0.950 . S
C2879 C2875 1.393 . S
C2879 C2878 1.391 . S
H2880 C2888 0.950 . S
H2881 C2893 0.950 . S
H2882 C2890 0.950 . S
H2883 C2892 0.950 . S
H2884 C2894 0.950 . S
H2885 C2896 0.950 . S
H2886 C2898 0.950 . S
H2887 C2899 0.950 . S
C2888 H2880 0.950 . S
C2888 C2889 1.386 . S
C2888 C2890 1.391 . S
C2889 C2888 1.386 . S
C2889 C2893 1.393 . S
C2890 H2882 0.950 . S
C2890 C2888 1.391 . S
C2890 C2891 1.400 . S
C2891 C2890 1.400 . S
C2891 C2892 1.398 . S
C2891 C2897 1.491 . S
C2892 H2883 0.950 . S
C2892 C2891 1.398 . S
C2892 C2893 1.391 . S
C2893 H2881 0.950 . S
C2893 C2889 1.393 . S
C2893 C2892 1.391 . S
C2894 H2884 0.950 . S
C2894 C2895 1.386 . S
C2894 C2896 1.391 . S
C2895 C2894 1.386 . S
C2895 C2899 1.393 . S
C2896 H2885 0.950 . S
C2896 C2894 1.391 . S
C2896 C2897 1.400 . S
C2897 C2891 1.491 . S
C2897 C2896 1.400 . S
C2897 C2898 1.398 . S
C2898 H2886 0.950 . S
C2898 C2897 1.398 . S
C2898 C2899 1.391 . S
C2899 H2887 0.950 . S
C2899 C2895 1.393 . S
C2899 C2898 1.391 . S
H2900 C2908 0.950 . S
H2901 C2913 0.950 . S
H2902 C2910 0.950 . S
H2903 C2912 0.950 . S
H2904 C2914 0.950 . S
H2905 C2916 0.950 . S
H2906 C2918 0.950 . S
H2907 C2919 0.950 . S
C2908 H2900 0.950 . S
C2908 C2909 1.386 . S
C2908 C2910 1.391 . S
C2909 C2908 1.386 . S
C2909 C2913 1.393 . S
C2910 H2902 0.950 . S
C2910 C2908 1.391 . S
C2910 C2911 1.400 . S
C2911 C2910 1.400 . S
C2911 C2912 1.398 . S
C2911 C2917 1.491 . S
C2912 H2903 0.950 . S
C2912 C2911 1.398 . S
C2912 C2913 1.391 . S
C2913 H2901 0.950 . S
C2913 C2909 1.393 . S
C2913 C2912 1.391 . S
C2914 H2904 0.950 . S
C2914 C2915 1.386 . S
C2914 C2916 1.391 . S
C2915 C2914 1.386 . S
C2915 C2919 1.393 . S
C2916 H2905 0.950 . S
C2916 C2914 1.391 . S
C2916 C2917 1.400 . S
C2917 C2911 1.491 . S
C2917 C2916 1.400 . S
C2917 C2918 1.398 . S
C2918 H2906 0.950 . S
C2918 C2917 1.398 . S
C2918 C2919 1.391 . S
C2919 H2907 0.950 . S
C2919 C2915 1.393 . S
C2919 C2918 1.391 . S
H2920 C2928 0.950 . S
H2921 C2933 0.950 . S
H2922 C2930 0.950 . S
H2923 C2932 0.950 . S
H2924 C2934 0.950 . S
H2925 C2936 0.950 . S
H2926 C2938 0.950 . S
H2927 C2939 0.950 . S
C2928 H2920 0.950 . S
C2928 C2929 1.386 . S
C2928 C2930 1.391 . S
C2929 C2928 1.386 . S
C2929 C2933 1.393 . S
C2930 H2922 0.950 . S
C2930 C2928 1.391 . S
C2930 C2931 1.400 . S
C2931 C2930 1.400 . S
C2931 C2932 1.398 . S
C2931 C2937 1.491 . S
C2932 H2923 0.950 . S
C2932 C2931 1.398 . S
C2932 C2933 1.391 . S
C2933 H2921 0.950 . S
C2933 C2929 1.393 . S
C2933 C2932 1.391 . S
C2934 H2924 0.950 . S
C2934 C2935 1.386 . S
C2934 C2936 1.391 . S
C2935 C2934 1.386 . S
C2935 C2939 1.393 . S
C2936 H2925 0.950 . S
C2936 C2934 1.391 . S
C2936 C2937 1.400 . S
C2937 C2931 1.491 . S
C2937 C2936 1.400 . S
C2937 C2938 1.398 . S
C2938 H2926 0.950 . S
C2938 C2937 1.398 . S
C2938 C2939 1.391 . S
C2939 H2927 0.950 . S
C2939 C2935 1.393 . S
C2939 C2938 1.391 . S
H2940 C2948 0.950 . S
H2941 C2953 0.950 . S
H2942 C2950 0.950 . S
H2943 C2952 0.950 . S
H2944 C2954 0.950 . S
H2945 C2956 0.950 . S
H2946 C2958 0.950 . S
H2947 C2959 0.950 . S
C2948 H2940 0.950 . S
C2948 C2949 1.386 . S
C2948 C2950 1.391 . S
C2949 C2948 1.386 . S
C2949 C2953 1.393 . S
C2950 H2942 0.950 . S
C2950 C2948 1.391 . S
C2950 C2951 1.400 . S
C2951 C2950 1.400 . S
C2951 C2952 1.398 . S
C2951 C2957 1.491 . S
C2952 H2943 0.950 . S
C2952 C2951 1.398 . S
C2952 C2953 1.391 . S
C2953 H2941 0.950 . S
C2953 C2949 1.393 . S
C2953 C2952 1.391 . S
C2954 H2944 0.950 . S
C2954 C2955 1.386 . S
C2954 C2956 1.391 . S
C2955 C2954 1.386 . S
C2955 C2959 1.393 . S
C2956 H2945 0.950 . S
C2956 C2954 1.391 . S
C2956 C2957 1.400 . S
C2957 C2951 1.491 . S
C2957 C2956 1.400 . S
C2957 C2958 1.398 . S
C2958 H2946 0.950 . S
C2958 C2957 1.398 . S
C2958 C2959 1.391 . S
C2959 H2947 0.950 . S
C2959 C2955 1.393 . S
C2959 C2958 1.391 . S
H2960 C2968 0.950 . S
H2961 C2973 0.950 . S
H2962 C2970 0.950 . S
H2963 C2972 0.950 . S
H2964 C2974 0.950 . S
H2965 C2976 0.950 . S
H2966 C2978 0.950 . S
H2967 C2979 0.950 . S
C2968 H2960 0.950 . S
C2968 C2969 1.386 . S
C2968 C2970 1.391 . S
C2969 C2968 1.386 . S
C2969 C2973 1.393 . S
C2970 H2962 0.950 . S
C2970 C2968 1.391 . S
C2970 C2971 1.400 . S
C2971 C2970 1.400 . S
C2971 C2972 1.398 . S
C2971 C2977 1.491 . S
C2972 H2963 0.950 . S
C2972 C2971 1.398 . S
C2972 C2973 1.391 . S
C2973 H2961 0.950 . S
C2973 C2969 1.393 . S
C2973 C2972 1.391 . S
C2974 H2964 0.950 . S
C2974 C2975 1.386 . S
C2974 C2976 1.391 . S
C2975 C2974 1.386 . S
C2975 C2979 1.393 . S
C2976 H2965 0.950 . S
C2976 C2974 1.391 . S
C2976 C2977 1.400 . S
C2977 C2971 1.491 . S
C2977 C2976 1.400 . S
C2977 C2978 1.398 . S
C2978 H2966 0.950 . S
C2978 C2977 1.398 . S
C2978 C2979 1.391 . S
C2979 H2967 0.950 . S
C2979 C2975 1.393 . S
C2979 C2978 1.391 . S
H2980 C2988 0.950 . S
H2981 C2993 0.950 . S
H2982 C2990 0.950 . S
H2983 C2992 0.950 . S
H2984 C2994 0.950 . S
H2985 C2996 0.950 . S
H2986 C2998 0.950 . S
H2987 C2999 0.950 . S
C2988 H2980 0.950 . S
C2988 C2989 1.386 . S
C2988 C2990 1.391 . S
C2989 C2988 1.386 . S
C2989 C2993 1.393 . S
C2990 H2982 0.950 . S
C2990 C2988 1.391 . S
C2990 C2991 1.400 . S
C2991 C2990 1.400 . S
C2991 C2992 1.398 . S
C2991 C2997 1.491 . S
C2992 H2983 0.950 . S
C2992 C2991 1.398 . S
C2992 C2993 1.391 . S
C2993 H2981 0.950 . S
C2993 C2989 1.393 . S
C2993 C2992 1.391 . S
C2994 H2984 0.950 . S
C2994 C2995 1.386 . S
C2994 C2996 1.391 . S
C2995 C2994 1.386 . S
C2995 C2999 1.393 . S
C2996 H2985 0.950 . S
C2996 C2994 1.391 . S
C2996 C2997 1.400 . S
C2997 C2991 1.491 . S
C2997 C2996 1.400 . S
C2997 C2998 1.398 . S
C2998 H2986 0.950 . S
C2998 C2997 1.398 . S
C2998 C2999 1.391 . S
C2999 H2987 0.950 . S
C2999 C2995 1.393 . S
C2999 C2998 1.391 . S
H3000 C3008 0.950 . S
H3001 C3013 0.950 . S
H3002 C3010 0.950 . S
H3003 C3012 0.950 . S
H3004 C3014 0.950 . S
H3005 C3016 0.950 . S
H3006 C3018 0.950 . S
H3007 C3019 0.950 . S
C3008 H3000 0.950 . S
C3008 C3009 1.386 . S
C3008 C3010 1.391 . S
C3009 C3008 1.386 . S
C3009 C3013 1.393 . S
C3010 H3002 0.950 . S
C3010 C3008 1.391 . S
C3010 C3011 1.400 . S
C3011 C3010 1.400 . S
C3011 C3012 1.398 . S
C3011 C3017 1.491 . S
C3012 H3003 0.950 . S
C3012 C3011 1.398 . S
C3012 C3013 1.391 . S
C3013 H3001 0.950 . S
C3013 C3009 1.393 . S
C3013 C3012 1.391 . S
C3014 H3004 0.950 . S
C3014 C3015 1.386 . S
C3014 C3016 1.391 . S
C3015 C3014 1.386 . S
C3015 C3019 1.393 . S
C3016 H3005 0.950 . S
C3016 C3014 1.391 . S
C3016 C3017 1.400 . S
C3017 C3011 1.491 . S
C3017 C3016 1.400 . S
C3017 C3018 1.398 . S
C3018 H3006 0.950 . S
C3018 C3017 1.398 . S
C3018 C3019 1.391 . S
C3019 H3007 0.950 . S
C3019 C3015 1.393 . S
C3019 C3018 1.391 . S
H3020 C3028 0.950 . S
H3021 C3033 0.950 . S
H3022 C3030 0.950 . S
H3023 C3032 0.950 . S
H3024 C3034 0.950 . S
H3025 C3036 0.950 . S
H3026 C3038 0.950 . S
H3027 C3039 0.950 . S
C3028 H3020 0.950 . S
C3028 C3029 1.386 . S
C3028 C3030 1.391 . S
C3029 C3028 1.386 . S
C3029 C3033 1.393 . S
C3030 H3022 0.950 . S
C3030 C3028 1.391 . S
C3030 C3031 1.400 . S
C3031 C3030 1.400 . S
C3031 C3032 1.398 . S
C3031 C3037 1.491 . S
C3032 H3023 0.950 . S
C3032 C3031 1.398 . S
C3032 C3033 1.391 . S
C3033 H3021 0.950 . S
C3033 C3029 1.393 . S
C3033 C3032 1.391 . S
C3034 H3024 0.950 . S
C3034 C3035 1.386 . S
C3034 C3036 1.391 . S
C3035 C3034 1.386 . S
C3035 C3039 1.393 . S
C3036 H3025 0.950 . S
C3036 C3034 1.391 . S
C3036 C3037 1.400 . S
C3037 C3031 1.491 . S
C3037 C3036 1.400 . S
C3037 C3038 1.398 . S
C3038 H3026 0.950 . S
C3038 C3037 1.398 . S
C3038 C3039 1.391 . S
C3039 H3027 0.950 . S
C3039 C3035 1.393 . S
C3039 C3038 1.391 . S
H3040 C3048 0.950 . S
H3041 C3053 0.950 . S
H3042 C3050 0.950 . S
H3043 C3052 0.950 . S
H3044 C3054 0.950 . S
H3045 C3056 0.950 . S
H3046 C3058 0.950 . S
H3047 C3059 0.950 . S
C3048 H3040 0.950 . S
C3048 C3049 1.386 . S
C3048 C3050 1.391 . S
C3049 C3048 1.386 . S
C3049 C3053 1.393 . S
C3050 H3042 0.950 . S
C3050 C3048 1.391 . S
C3050 C3051 1.400 . S
C3051 C3050 1.400 . S
C3051 C3052 1.398 . S
C3051 C3057 1.491 . S
C3052 H3043 0.950 . S
C3052 C3051 1.398 . S
C3052 C3053 1.391 . S
C3053 H3041 0.950 . S
C3053 C3049 1.393 . S
C3053 C3052 1.391 . S
C3054 H3044 0.950 . S
C3054 C3055 1.386 . S
C3054 C3056 1.391 . S
C3055 C3054 1.386 . S
C3055 C3059 1.393 . S
C3056 H3045 0.950 . S
C3056 C3054 1.391 . S
C3056 C3057 1.400 . S
C3057 C3051 1.491 . S
C3057 C3056 1.400 . S
C3057 C3058 1.398 . S
C3058 H3046 0.950 . S
C3058 C3057 1.398 . S
C3058 C3059 1.391 . S
C3059 H3047 0.950 . S
C3059 C3055 1.393 . S
C3059 C3058 1.391 . S
H3060 C3068 0.950 . S
H3061 C3073 0.950 . S
H3062 C3070 0.950 . S
H3063 C3072 0.950 . S
H3064 C3074 0.950 . S
H3065 C3076 0.950 . S
H3066 C3078 0.950 . S
H3067 C3079 0.950 . S
C3068 H3060 0.950 . S
C3068 C3069 1.386 . S
C3068 C3070 1.391 . S
C3069 C3068 1.386 . S
C3069 C3073 1.393 . S
C3070 H3062 0.950 . S
C3070 C3068 1.391 . S
C3070 C3071 1.400 . S
C3071 C3070 1.400 . S
C3071 C3072 1.398 . S
C3071 C3077 1.491 . S
C3072 H3063 0.950 . S
C3072 C3071 1.398 . S
C3072 C3073 1.391 . S
C3073 H3061 0.950 . S
C3073 C3069 1.393 . S
C3073 C3072 1.391 . S
C3074 H3064 0.950 . S
C3074 C3075 1.386 . S
C3074 C3076 1.391 . S
C3075 C3074 1.386 . S
C3075 C3079 1.393 . S
C3076 H3065 0.950 . S
C3076 C3074 1.391 . S
C3076 C3077 1.400 . S
C3077 C3071 1.491 . S
C3077 C3076 1.400 . S
C3077 C3078 1.398 . S
C3078 H3066 0.950 . S
C3078 C3077 1.398 . S
C3078 C3079 1.391 . S
C3079 H3067 0.950 . S
C3079 C3075 1.393 . S
C3079 C3078 1.391 . S
H3080 C3088 0.950 . S
H3081 C3093 0.950 . S
H3082 C3090 0.950 . S
H3083 C3092 0.950 . S
H3084 C3094 0.950 . S
H3085 C3096 0.950 . S
H3086 C3098 0.950 . S
H3087 C3099 0.950 . S
C3088 H3080 0.950 . S
C3088 C3089 1.386 . S
C3088 C3090 1.391 . S
C3089 C3088 1.386 . S
C3089 C3093 1.393 . S
C3090 H3082 0.950 . S
C3090 C3088 1.391 . S
C3090 C3091 1.400 . S
C3091 C3090 1.400 . S
C3091 C3092 1.398 . S
C3091 C3097 1.491 . S
C3092 H3083 0.950 . S
C3092 C3091 1.398 . S
C3092 C3093 1.391 . S
C3093 H3081 0.950 . S
C3093 C3089 1.393 . S
C3093 C3092 1.391 . S
C3094 H3084 0.950 . S
C3094 C3095 1.386 . S
C3094 C3096 1.391 . S
C3095 C3094 1.386 . S
C3095 C3099 1.393 . S
C3096 H3085 0.950 . S
C3096 C3094 1.391 . S
C3096 C3097 1.400 . S
C3097 C3091 1.491 . S
C3097 C3096 1.400 . S
C3097 C3098 1.398 . S
C3098 H3086 0.950 . S
C3098 C3097 1.398 . S
C3098 C3099 1.391 . S
C3099 H3087 0.950 . S
C3099 C3095 1.393 . S
C3099 C3098 1.391 . S
H3100 C3108 0.950 . S
H3101 C3113 0.950 . S
H3102 C3110 0.950 . S
H3103 C3112 0.950 . S
H3104 C3114 0.950 . S
H3105 C3116 0.950 . S
H3106 C3118 0.950 . S
H3107 C3119 0.950 . S
C3108 H3100 0.950 . S
C3108 C3109 1.386 . S
C3108 C3110 1.391 . S
C3109 C3108 1.386 . S
C3109 C3113 1.393 . S
C3110 H3102 0.950 . S
C3110 C3108 1.391 . S
C3110 C3111 1.400 . S
C3111 C3110 1.400 . S
C3111 C3112 1.398 . S
C3111 C3117 1.491 . S
C3112 H3103 0.950 . S
C3112 C3111 1.398 . S
C3112 C3113 1.391 . S
C3113 H3101 0.950 . S
C3113 C3109 1.393 . S
C3113 C3112 1.391 . S
C3114 H3104 0.950 . S
C3114 C3115 1.386 . S
C3114 C3116 1.391 . S
C3115 C3114 1.386 . S
C3115 C3119 1.393 . S
C3116 H3105 0.950 . S
C3116 C3114 1.391 . S
C3116 C3117 1.400 . S
C3117 C3111 1.491 . S
C3117 C3116 1.400 . S
C3117 C3118 1.398 . S
C3118 H3106 0.950 . S
C3118 C3117 1.398 . S
C3118 C3119 1.391 . S
C3119 H3107 0.950 . S
C3119 C3115 1.393 . S
C3119 C3118 1.391 . S
H3120 C3128 0.950 . S
H3121 C3133 0.950 . S
H3122 C3130 0.950 . S
H3123 C3132 0.950 . S
H3124 C3134 0.950 . S
H3125 C3136 0.950 . S
H3126 C3138 0.950 . S
H3127 C3139 0.950 . S
C3128 H3120 0.950 . S
C3128 C3129 1.386 . S
C3128 C3130 1.391 . S
C3129 C3128 1.386 . S
C3129 C3133 1.393 . S
C3130 H3122 0.950 . S
C3130 C3128 1.391 . S
C3130 C3131 1.400 . S
C3131 C3130 1.400 . S
C3131 C3132 1.398 . S
C3131 C3137 1.491 . S
C3132 H3123 0.950 . S
C3132 C3131 1.398 . S
C3132 C3133 1.391 . S
C3133 H3121 0.950 . S
C3133 C3129 1.393 . S
C3133 C3132 1.391 . S
C3134 H3124 0.950 . S
C3134 C3135 1.386 . S
C3134 C3136 1.391 . S
C3135 C3134 1.386 . S
C3135 C3139 1.393 . S
C3136 H3125 0.950 . S
C3136 C3134 1.391 . S
C3136 C3137 1.400 . S
C3137 C3131 1.491 . S
C3137 C3136 1.400 . S
C3137 C3138 1.398 . S
C3138 H3126 0.950 . S
C3138 C3137 1.398 . S
C3138 C3139 1.391 . S
C3139 H3127 0.950 . S
C3139 C3135 1.393 . S
C3139 C3138 1.391 . S
H3140 C3148 0.950 . S
H3141 C3153 0.950 . S
H3142 C3150 0.950 . S
H3143 C3152 0.950 . S
H3144 C3154 0.950 . S
H3145 C3156 0.950 . S
H3146 C3158 0.950 . S
H3147 C3159 0.950 . S
C3148 H3140 0.950 . S
C3148 C3149 1.386 . S
C3148 C3150 1.391 . S
C3149 C3148 1.386 . S
C3149 C3153 1.393 . S
C3150 H3142 0.950 . S
C3150 C3148 1.391 . S
C3150 C3151 1.400 . S
C3151 C3150 1.400 . S
C3151 C3152 1.398 . S
C3151 C3157 1.491 . S
C3152 H3143 0.950 . S
C3152 C3151 1.398 . S
C3152 C3153 1.391 . S
C3153 H3141 0.950 . S
C3153 C3149 1.393 . S
C3153 C3152 1.391 . S
C3154 H3144 0.950 . S
C3154 C3155 1.386 . S
C3154 C3156 1.391 . S
C3155 C3154 1.386 . S
C3155 C3159 1.393 . S
C3156 H3145 0.950 . S
C3156 C3154 1.391 . S
C3156 C3157 1.400 . S
C3157 C3151 1.491 . S
C3157 C3156 1.400 . S
C3157 C3158 1.398 . S
C3158 H3146 0.950 . S
C3158 C3157 1.398 . S
C3158 C3159 1.391 . S
C3159 H3147 0.950 . S
C3159 C3155 1.393 . S
C3159 C3158 1.391 . S
H3160 C3168 0.950 . S
H3161 C3173 0.950 . S
H3162 C3170 0.950 . S
H3163 C3172 0.950 . S
H3164 C3174 0.950 . S
H3165 C3176 0.950 . S
H3166 C3178 0.950 . S
H3167 C3179 0.950 . S
C3168 H3160 0.950 . S
C3168 C3169 1.386 . S
C3168 C3170 1.391 . S
C3169 C3168 1.386 . S
C3169 C3173 1.393 . S
C3170 H3162 0.950 . S
C3170 C3168 1.391 . S
C3170 C3171 1.400 . S
C3171 C3170 1.400 . S
C3171 C3172 1.398 . S
C3171 C3177 1.491 . S
C3172 H3163 0.950 . S
C3172 C3171 1.398 . S
C3172 C3173 1.391 . S
C3173 H3161 0.950 . S
C3173 C3169 1.393 . S
C3173 C3172 1.391 . S
C3174 H3164 0.950 . S
C3174 C3175 1.386 . S
C3174 C3176 1.391 . S
C3175 C3174 1.386 . S
C3175 C3179 1.393 . S
C3176 H3165 0.950 . S
C3176 C3174 1.391 . S
C3176 C3177 1.400 . S
C3177 C3171 1.491 . S
C3177 C3176 1.400 . S
C3177 C3178 1.398 . S
C3178 H3166 0.950 . S
C3178 C3177 1.398 . S
C3178 C3179 1.391 . S
C3179 H3167 0.950 . S
C3179 C3175 1.393 . S
C3179 C3178 1.391 . S
H3180 C3188 0.950 . S
H3181 C3193 0.950 . S
H3182 C3190 0.950 . S
H3183 C3192 0.950 . S
H3184 C3194 0.950 . S
H3185 C3196 0.950 . S
H3186 C3198 0.950 . S
H3187 C3199 0.950 . S
C3188 H3180 0.950 . S
C3188 C3189 1.386 . S
C3188 C3190 1.391 . S
C3189 C3188 1.386 . S
C3189 C3193 1.393 . S
C3190 H3182 0.950 . S
C3190 C3188 1.391 . S
C3190 C3191 1.400 . S
C3191 C3190 1.400 . S
C3191 C3192 1.398 . S
C3191 C3197 1.491 . S
C3192 H3183 0.950 . S
C3192 C3191 1.398 . S
C3192 C3193 1.391 . S
C3193 H3181 0.950 . S
C3193 C3189 1.393 . S
C3193 C3192 1.391 . S
C3194 H3184 0.950 . S
C3194 C3195 1.386 . S
C3194 C3196 1.391 . S
C3195 C3194 1.386 . S
C3195 C3199 1.393 . S
C3196 H3185 0.950 . S
C3196 C3194 1.391 . S
C3196 C3197 1.400 . S
C3197 C3191 1.491 . S
C3197 C3196 1.400 . S
C3197 C3198 1.398 . S
C3198 H3186 0.950 . S
C3198 C3197 1.398 . S
C3198 C3199 1.391 . S
C3199 H3187 0.950 . S
C3199 C3195 1.393 . S
C3199 C3198 1.391 . S
H3200 C3208 0.950 . S
H3201 C3213 0.950 . S
H3202 C3210 0.950 . S
H3203 C3212 0.950 . S
H3204 C3214 0.950 . S
H3205 C3216 0.950 . S
H3206 C3218 0.950 . S
H3207 C3219 0.950 . S
C3208 H3200 0.950 . S
C3208 C3209 1.386 . S
C3208 C3210 1.391 . S
C3209 C3208 1.386 . S
C3209 C3213 1.393 . S
C3210 H3202 0.950 . S
C3210 C3208 1.391 . S
C3210 C3211 1.400 . S
C3211 C3210 1.400 . S
C3211 C3212 1.398 . S
C3211 C3217 1.491 . S
C3212 H3203 0.950 . S
C3212 C3211 1.398 . S
C3212 C3213 1.391 . S
C3213 H3201 0.950 . S
C3213 C3209 1.393 . S
C3213 C3212 1.391 . S
C3214 H3204 0.950 . S
C3214 C3215 1.386 . S
C3214 C3216 1.391 . S
C3215 C3214 1.386 . S
C3215 C3219 1.393 . S
C3216 H3205 0.950 . S
C3216 C3214 1.391 . S
C3216 C3217 1.400 . S
C3217 C3211 1.491 . S
C3217 C3216 1.400 . S
C3217 C3218 1.398 . S
C3218 H3206 0.950 . S
C3218 C3217 1.398 . S
C3218 C3219 1.391 . S
C3219 H3207 0.950 . S
C3219 C3215 1.393 . S
C3219 C3218 1.391 . S
H3220 C3228 0.950 . S
H3221 C3233 0.950 . S
H3222 C3230 0.950 . S
H3223 C3232 0.950 . S
H3224 C3234 0.950 . S
H3225 C3236 0.950 . S
H3226 C3238 0.950 . S
H3227 C3239 0.950 . S
C3228 H3220 0.950 . S
C3228 C3229 1.386 . S
C3228 C3230 1.391 . S
C3229 C3228 1.386 . S
C3229 C3233 1.393 . S
C3230 H3222 0.950 . S
C3230 C3228 1.391 . S
C3230 C3231 1.400 . S
C3231 C3230 1.400 . S
C3231 C3232 1.398 . S
C3231 C3237 1.491 . S
C3232 H3223 0.950 . S
C3232 C3231 1.398 . S
C3232 C3233 1.391 . S
C3233 H3221 0.950 . S
C3233 C3229 1.393 . S
C3233 C3232 1.391 . S
C3234 H3224 0.950 . S
C3234 C3235 1.386 . S
C3234 C3236 1.391 . S
C3235 C3234 1.386 . S
C3235 C3239 1.393 . S
C3236 H3225 0.950 . S
C3236 C3234 1.391 . S
C3236 C3237 1.400 . S
C3237 C3231 1.491 . S
C3237 C3236 1.400 . S
C3237 C3238 1.398 . S
C3238 H3226 0.950 . S
C3238 C3237 1.398 . S
C3238 C3239 1.391 . S
C3239 H3227 0.950 . S
C3239 C3235 1.393 . S
C3239 C3238 1.391 . S
H3240 C3248 0.950 . S
H3241 C3253 0.950 1_554 S
H3242 C3250 0.950 . S
H3243 C3252 0.950 . S
H3244 C3254 0.950 . S
H3245 C3256 0.950 . S
H3246 C3258 0.950 . S
H3247 C3259 0.950 . S
C3248 H3240 0.950 . S
C3248 C3249 1.386 . S
C3248 C3250 1.391 . S
C3249 C3248 1.386 . S
C3249 C3253 1.393 . S
C3250 H3242 0.950 . S
C3250 C3248 1.391 . S
C3250 C3251 1.400 . S
C3251 C3250 1.400 . S
C3251 C3252 1.398 . S
C3251 C3257 1.491 . S
C3252 H3243 0.950 . S
C3252 C3251 1.398 . S
C3252 C3253 1.391 . S
C3253 H3241 0.950 1_556 S
C3253 C3249 1.393 . S
C3253 C3252 1.391 . S
C3254 H3244 0.950 . S
C3254 C3255 1.386 . S
C3254 C3256 1.391 . S
C3255 C3254 1.386 . S
C3255 C3259 1.393 . S
C3256 H3245 0.950 . S
C3256 C3254 1.391 . S
C3256 C3257 1.400 . S
C3257 C3251 1.491 . S
C3257 C3256 1.400 . S
C3257 C3258 1.398 . S
C3258 H3246 0.950 . S
C3258 C3257 1.398 . S
C3258 C3259 1.391 . S
C3259 H3247 0.950 . S
C3259 C3255 1.393 . S
C3259 C3258 1.391 . S
H3260 C3268 0.950 . S
H3261 C3273 0.950 . S
H3262 C3270 0.950 . S
H3263 C3272 0.950 . S
H3264 C3274 0.950 . S
H3265 C3276 0.950 . S
H3266 C3278 0.950 . S
H3267 C3279 0.950 . S
C3268 H3260 0.950 . S
C3268 C3269 1.386 . S
C3268 C3270 1.391 . S
C3269 C3268 1.386 . S
C3269 C3273 1.393 . S
C3270 H3262 0.950 . S
C3270 C3268 1.391 . S
C3270 C3271 1.400 . S
C3271 C3270 1.400 . S
C3271 C3272 1.398 . S
C3271 C3277 1.491 . S
C3272 H3263 0.950 . S
C3272 C3271 1.398 . S
C3272 C3273 1.391 . S
C3273 H3261 0.950 . S
C3273 C3269 1.393 . S
C3273 C3272 1.391 . S
C3274 H3264 0.950 . S
C3274 C3275 1.386 . S
C3274 C3276 1.391 . S
C3275 C3274 1.386 . S
C3275 C3279 1.393 . S
C3276 H3265 0.950 . S
C3276 C3274 1.391 . S
C3276 C3277 1.400 . S
C3277 C3271 1.491 . S
C3277 C3276 1.400 . S
C3277 C3278 1.398 . S
C3278 H3266 0.950 . S
C3278 C3277 1.398 . S
C3278 C3279 1.391 . S
C3279 H3267 0.950 . S
C3279 C3275 1.393 . S
C3279 C3278 1.391 . S
H3280 C3288 0.950 . S
H3281 C3293 0.987 . S
H3282 C3290 0.950 . S
H3283 C3292 0.950 . S
H3284 C3294 0.950 . S
H3285 C3296 0.950 . S
H3286 C3298 0.950 . S
H3287 C3299 0.950 . S
C3288 H3280 0.950 . S
C3288 C3289 1.386 . S
C3288 C3290 1.391 . S
C3289 C3288 1.386 . S
C3289 C3293 1.383 1_556 S
C3290 H3282 0.950 . S
C3290 C3288 1.391 . S
C3290 C3291 1.400 . S
C3291 C3290 1.400 . S
C3291 C3292 1.398 . S
C3291 C3297 1.491 . S
C3292 H3283 0.950 . S
C3292 C3291 1.398 . S
C3292 C3293 1.365 1_556 S
C3293 H3281 0.987 . S
C3293 C3289 1.383 1_554 S
C3293 C3292 1.365 1_554 S
C3294 H3284 0.950 . S
C3294 C3295 1.386 . S
C3294 C3296 1.391 . S
C3295 C3294 1.386 . S
C3295 C3299 1.393 . S
C3296 H3285 0.950 . S
C3296 C3294 1.391 . S
C3296 C3297 1.400 . S
C3297 C3291 1.491 . S
C3297 C3296 1.400 . S
C3297 C3298 1.398 . S
C3298 H3286 0.950 . S
C3298 C3297 1.398 . S
C3298 C3299 1.391 . S
C3299 H3287 0.950 . S
C3299 C3295 1.393 . S
C3299 C3298 1.391 . S
H3300 C3308 0.950 . S
H3301 C3313 0.950 . S
H3302 C3310 0.950 . S
H3303 C3312 0.950 . S
H3304 C3314 0.950 . S
H3305 C3316 0.950 . S
H3306 C3318 0.950 . S
H3307 C3319 0.950 . S
C3308 H3300 0.950 . S
C3308 C3309 1.386 . S
C3308 C3310 1.391 . S
C3309 C3308 1.386 . S
C3309 C3313 1.393 . S
C3310 H3302 0.950 . S
C3310 C3308 1.391 . S
C3310 C3311 1.400 . S
C3311 C3310 1.400 . S
C3311 C3312 1.398 . S
C3311 C3317 1.491 . S
C3312 H3303 0.950 . S
C3312 C3311 1.398 . S
C3312 C3313 1.391 . S
C3313 H3301 0.950 . S
C3313 C3309 1.393 . S
C3313 C3312 1.391 . S
C3314 H3304 0.950 . S
C3314 C3315 1.386 . S
C3314 C3316 1.391 . S
C3315 C3314 1.386 . S
C3315 C3319 1.393 . S
C3316 H3305 0.950 . S
C3316 C3314 1.391 . S
C3316 C3317 1.400 . S
C3317 C3311 1.491 . S
C3317 C3316 1.400 . S
C3317 C3318 1.398 . S
C3318 H3306 0.950 . S
C3318 C3317 1.398 . S
C3318 C3319 1.391 . S
C3319 H3307 0.950 . S
C3319 C3315 1.393 . S
C3319 C3318 1.391 . S
H3320 C3328 0.950 . S
H3321 C3333 0.950 . S
H3322 C3330 0.950 . S
H3323 C3332 0.950 . S
H3324 C3334 0.950 . S
H3325 C3336 0.950 . S
H3326 C3338 0.950 . S
H3327 C3339 0.950 . S
C3328 H3320 0.950 . S
C3328 C3329 1.386 . S
C3328 C3330 1.391 . S
C3329 C3328 1.386 . S
C3329 C3333 1.393 . S
C3330 H3322 0.950 . S
C3330 C3328 1.391 . S
C3330 C3331 1.400 . S
C3331 C3330 1.400 . S
C3331 C3332 1.398 . S
C3331 C3337 1.491 . S
C3332 H3323 0.950 . S
C3332 C3331 1.398 . S
C3332 C3333 1.391 . S
C3333 H3321 0.950 . S
C3333 C3329 1.393 . S
C3333 C3332 1.391 . S
C3334 H3324 0.950 . S
C3334 C3335 1.386 . S
C3334 C3336 1.391 . S
C3335 C3334 1.386 . S
C3335 C3339 1.393 . S
C3336 H3325 0.950 . S
C3336 C3334 1.391 . S
C3336 C3337 1.400 . S
C3337 C3331 1.491 . S
C3337 C3336 1.400 . S
C3337 C3338 1.398 . S
C3338 H3326 0.950 . S
C3338 C3337 1.398 . S
C3338 C3339 1.391 . S
C3339 H3327 0.950 . S
C3339 C3335 1.393 . S
C3339 C3338 1.391 . S
H3340 C3348 0.950 . S
H3341 C3353 0.950 . S
H3342 C3350 0.950 . S
H3343 C3352 0.950 . S
H3344 C3354 0.950 . S
H3345 C3356 0.950 . S
H3346 C3358 0.950 . S
H3347 C3359 0.950 . S
C3348 H3340 0.950 . S
C3348 C3349 1.386 . S
C3348 C3350 1.391 . S
C3349 C3348 1.386 . S
C3349 C3353 1.393 . S
C3350 H3342 0.950 . S
C3350 C3348 1.391 . S
C3350 C3351 1.400 . S
C3351 C3350 1.400 . S
C3351 C3352 1.398 . S
C3351 C3357 1.491 . S
C3352 H3343 0.950 . S
C3352 C3351 1.398 . S
C3352 C3353 1.391 . S
C3353 H3341 0.950 . S
C3353 C3349 1.393 . S
C3353 C3352 1.391 . S
C3354 H3344 0.950 . S
C3354 C3355 1.386 . S
C3354 C3356 1.391 . S
C3355 C3354 1.386 . S
C3355 C3359 1.393 . S
C3356 H3345 0.950 . S
C3356 C3354 1.391 . S
C3356 C3357 1.400 . S
C3357 C3351 1.491 . S
C3357 C3356 1.400 . S
C3357 C3358 1.398 . S
C3358 H3346 0.950 . S
C3358 C3357 1.398 . S
C3358 C3359 1.391 . S
C3359 H3347 0.950 . S
C3359 C3355 1.393 . S
C3359 C3358 1.391 . S
H3360 C3368 0.950 . S
H3361 C3373 0.950 . S
H3362 C3370 0.950 . S
H3363 C3372 0.950 . S
H3364 C3374 0.950 . S
H3365 C3376 0.950 . S
H3366 C3378 0.950 . S
H3367 C3379 0.950 . S
C3368 H3360 0.950 . S
C3368 C3369 1.386 . S
C3368 C3370 1.391 . S
C3369 C3368 1.386 . S
C3369 C3373 1.393 . S
C3370 H3362 0.950 . S
C3370 C3368 1.391 . S
C3370 C3371 1.400 . S
C3371 C3370 1.400 . S
C3371 C3372 1.398 . S
C3371 C3377 1.491 . S
C3372 H3363 0.950 . S
C3372 C3371 1.398 . S
C3372 C3373 1.391 . S
C3373 H3361 0.950 . S
C3373 C3369 1.393 . S
C3373 C3372 1.391 . S
C3374 H3364 0.950 . S
C3374 C3375 1.386 . S
C3374 C3376 1.391 . S
C3375 C3374 1.386 . S
C3375 C3379 1.393 . S
C3376 H3365 0.950 . S
C3376 C3374 1.391 . S
C3376 C3377 1.400 . S
C3377 C3371 1.491 . S
C3377 C3376 1.400 . S
C3377 C3378 1.398 . S
C3378 H3366 0.950 . S
C3378 C3377 1.398 . S
C3378 C3379 1.391 . S
C3379 H3367 0.950 . S
C3379 C3375 1.393 . S
C3379 C3378 1.391 . S
H3380 C3388 0.950 . S
H3381 C3393 0.950 . S
H3382 C3390 0.950 . S
H3383 C3392 0.950 . S
H3384 C3394 0.950 . S
H3385 C3396 0.950 . S
H3386 C3398 0.950 . S
H3387 C3399 0.950 . S
C3388 H3380 0.950 . S
C3388 C3389 1.386 . S
C3388 C3390 1.391 . S
C3389 C3388 1.386 . S
C3389 C3393 1.393 . S
C3390 H3382 0.950 . S
C3390 C3388 1.391 . S
C3390 C3391 1.400 . S
C3391 C3390 1.400 . S
C3391 C3392 1.398 . S
C3391 C3397 1.491 . S
C3392 H3383 0.950 . S
C3392 C3391 1.398 . S
C3392 C3393 1.391 . S
C3393 H3381 0.950 . S
C3393 C3389 1.393 . S
C3393 C3392 1.391 . S
C3394 H3384 0.950 . S
C3394 C3395 1.386 . S
C3394 C3396 1.391 . S
C3395 C3394 1.386 . S
C3395 C3399 1.393 . S
C3396 H3385 0.950 . S
C3396 C3394 1.391 . S
C3396 C3397 1.400 . S
C3397 C3391 1.491 . S
C3397 C3396 1.400 . S
C3397 C3398 1.398 . S
C3398 H3386 0.950 . S
C3398 C3397 1.398 . S
C3398 C3399 1.391 . S
C3399 H3387 0.950 . S
C3399 C3395 1.393 . S
C3399 C3398 1.391 . S
H3400 C3408 0.950 . S
H3401 C3413 0.950 . S
H3402 C3410 0.950 . S
H3403 C3412 0.950 . S
H3404 C3414 0.950 . S
H3405 C3416 0.950 . S
H3406 C3418 0.950 . S
H3407 C3419 0.950 . S
C3408 H3400 0.950 . S
C3408 C3409 1.386 . S
C3408 C3410 1.391 . S
C3409 C3408 1.386 . S
C3409 C3413 1.393 . S
C3410 H3402 0.950 . S
C3410 C3408 1.391 . S
C3410 C3411 1.400 . S
C3411 C3410 1.400 . S
C3411 C3412 1.398 . S
C3411 C3417 1.491 . S
C3412 H3403 0.950 . S
C3412 C3411 1.398 . S
C3412 C3413 1.391 . S
C3413 H3401 0.950 . S
C3413 C3409 1.393 . S
C3413 C3412 1.391 . S
C3414 H3404 0.950 . S
C3414 C3415 1.386 . S
C3414 C3416 1.391 . S
C3415 C3414 1.386 . S
C3415 C3419 1.393 . S
C3416 H3405 0.950 . S
C3416 C3414 1.391 . S
C3416 C3417 1.400 . S
C3417 C3411 1.491 . S
C3417 C3416 1.400 . S
C3417 C3418 1.398 . S
C3418 H3406 0.950 . S
C3418 C3417 1.398 . S
C3418 C3419 1.391 . S
C3419 H3407 0.950 . S
C3419 C3415 1.393 . S
C3419 C3418 1.391 . S
H3420 C3428 0.950 . S
H3421 C3433 0.950 . S
H3422 C3430 0.950 . S
H3423 C3432 0.950 . S
H3424 C3434 0.950 . S
H3425 C3436 0.950 . S
H3426 C3438 0.950 . S
H3427 C3439 0.950 . S
C3428 H3420 0.950 . S
C3428 C3429 1.386 . S
C3428 C3430 1.391 . S
C3429 C3428 1.386 . S
C3429 C3433 1.393 . S
C3430 H3422 0.950 . S
C3430 C3428 1.391 . S
C3430 C3431 1.400 . S
C3431 C3430 1.400 . S
C3431 C3432 1.398 . S
C3431 C3437 1.491 . S
C3432 H3423 0.950 . S
C3432 C3431 1.398 . S
C3432 C3433 1.391 . S
C3433 H3421 0.950 . S
C3433 C3429 1.393 . S
C3433 C3432 1.391 . S
C3434 H3424 0.950 . S
C3434 C3435 1.386 . S
C3434 C3436 1.391 . S
C3435 C3434 1.386 . S
C3435 C3439 1.393 . S
C3436 H3425 0.950 . S
C3436 C3434 1.391 . S
C3436 C3437 1.400 . S
C3437 C3431 1.491 . S
C3437 C3436 1.400 . S
C3437 C3438 1.398 . S
C3438 H3426 0.950 . S
C3438 C3437 1.398 . S
C3438 C3439 1.391 . S
C3439 H3427 0.950 . S
C3439 C3435 1.393 . S
C3439 C3438 1.391 . S
H3440 C3448 0.916 1_455 S
H3441 C3453 0.950 . S
H3442 C3450 0.950 . S
H3443 C3452 0.950 . S
H3444 C3454 0.950 . S
H3445 C3456 0.950 . S
H3446 C3458 0.950 . S
H3447 C3459 0.950 . S
C3448 H3440 0.916 1_655 S
C3448 C3449 1.386 . S
C3448 C3450 1.391 . S
C3449 C3448 1.386 . S
C3449 C3453 1.393 . S
C3450 H3442 0.950 . S
C3450 C3448 1.391 . S
C3450 C3451 1.400 . S
C3451 C3450 1.400 . S
C3451 C3452 1.398 . S
C3451 C3457 1.491 . S
C3452 H3443 0.950 . S
C3452 C3451 1.398 . S
C3452 C3453 1.391 . S
C3453 H3441 0.950 . S
C3453 C3449 1.393 . S
C3453 C3452 1.391 . S
C3454 H3444 0.950 . S
C3454 C3455 1.386 . S
C3454 C3456 1.391 . S
C3455 C3454 1.386 . S
C3455 C3459 1.393 . S
C3456 H3445 0.950 . S
C3456 C3454 1.391 . S
C3456 C3457 1.400 . S
C3457 C3451 1.491 . S
C3457 C3456 1.400 . S
C3457 C3458 1.398 . S
C3458 H3446 0.950 . S
C3458 C3457 1.398 . S
C3458 C3459 1.391 . S
C3459 H3447 0.950 . S
C3459 C3455 1.393 . S
C3459 C3458 1.391 . S
H3460 C3468 0.950 . S
H3461 C3473 0.950 . S
H3462 C3470 0.950 . S
H3463 C3472 0.950 . S
H3464 C3474 0.950 . S
H3465 C3476 0.950 . S
H3466 C3478 0.950 . S
H3467 C3479 0.950 . S
C3468 H3460 0.950 . S
C3468 C3469 1.386 . S
C3468 C3470 1.391 . S
C3469 C3468 1.386 . S
C3469 C3473 1.393 . S
C3470 H3462 0.950 . S
C3470 C3468 1.391 . S
C3470 C3471 1.400 . S
C3471 C3470 1.400 . S
C3471 C3472 1.398 . S
C3471 C3477 1.491 . S
C3472 H3463 0.950 . S
C3472 C3471 1.398 . S
C3472 C3473 1.391 . S
C3473 H3461 0.950 . S
C3473 C3469 1.393 . S
C3473 C3472 1.391 . S
C3474 H3464 0.950 . S
C3474 C3475 1.386 . S
C3474 C3476 1.391 . S
C3475 C3474 1.386 . S
C3475 C3479 1.393 . S
C3476 H3465 0.950 . S
C3476 C3474 1.391 . S
C3476 C3477 1.400 . S
C3477 C3471 1.491 . S
C3477 C3476 1.400 . S
C3477 C3478 1.398 . S
C3478 H3466 0.950 . S
C3478 C3477 1.398 . S
C3478 C3479 1.391 . S
C3479 H3467 0.950 . S
C3479 C3475 1.393 . S
C3479 C3478 1.391 . S
H3480 C3488 0.950 . S
H3481 C3493 0.950 . S
H3482 C3490 0.950 . S
H3483 C3492 0.950 . S
H3484 C3494 0.950 . S
H3485 C3496 0.950 . S
H3486 C3498 0.950 . S
H3487 C3499 0.950 . S
C3488 H3480 0.950 . S
C3488 C3489 1.386 . S
C3488 C3490 1.391 . S
C3489 C3488 1.386 . S
C3489 C3493 1.393 . S
C3490 H3482 0.950 . S
C3490 C3488 1.391 . S
C3490 C3491 1.400 . S
C3491 C3490 1.400 . S
C3491 C3492 1.398 . S
C3491 C3497 1.491 . S
C3492 H3483 0.950 . S
C3492 C3491 1.398 . S
C3492 C3493 1.391 . S
C3493 H3481 0.950 . S
C3493 C3489 1.393 . S
C3493 C3492 1.391 . S
C3494 H3484 0.950 . S
C3494 C3495 1.386 . S
C3494 C3496 1.391 . S
C3495 C3494 1.386 . S
C3495 C3499 1.393 . S
C3496 H3485 0.950 . S
C3496 C3494 1.391 . S
C3496 C3497 1.400 . S
C3497 C3491 1.491 . S
C3497 C3496 1.400 . S
C3497 C3498 1.398 . S
C3498 H3486 0.950 . S
C3498 C3497 1.398 . S
C3498 C3499 1.391 . S
C3499 H3487 0.950 . S
C3499 C3495 1.393 . S
C3499 C3498 1.391 . S
H3500 C3508 0.950 . S
H3501 C3513 0.950 . S
H3502 C3510 0.950 . S
H3503 C3512 0.950 . S
H3504 C3514 0.950 . S
H3505 C3516 0.950 . S
H3506 C3518 0.950 . S
H3507 C3519 0.950 . S
C3508 H3500 0.950 . S
C3508 C3509 1.386 . S
C3508 C3510 1.391 . S
C3509 C3508 1.386 . S
C3509 C3513 1.393 . S
C3510 H3502 0.950 . S
C3510 C3508 1.391 . S
C3510 C3511 1.400 . S
C3511 C3510 1.400 . S
C3511 C3512 1.398 . S
C3511 C3517 1.491 . S
C3512 H3503 0.950 . S
C3512 C3511 1.398 . S
C3512 C3513 1.391 . S
C3513 H3501 0.950 . S
C3513 C3509 1.393 . S
C3513 C3512 1.391 . S
C3514 H3504 0.950 . S
C3514 C3515 1.386 . S
C3514 C3516 1.391 . S
C3515 C3514 1.386 . S
C3515 C3519 1.393 . S
C3516 H3505 0.950 . S
C3516 C3514 1.391 . S
C3516 C3517 1.400 . S
C3517 C3511 1.491 . S
C3517 C3516 1.400 . S
C3517 C3518 1.398 . S
C3518 H3506 0.950 . S
C3518 C3517 1.398 . S
C3518 C3519 1.391 . S
C3519 H3507 0.950 . S
C3519 C3515 1.393 . S
C3519 C3518 1.391 . S
H3520 C3528 0.950 1_545 S
H3521 C3533 0.950 . S
H3522 C3530 0.950 . S
H3523 C3532 0.950 . S
H3524 C3534 0.950 . S
H3525 C3536 0.950 . S
H3526 C3538 0.950 . S
H3527 C3539 0.950 . S
C3528 H3520 0.950 1_565 S
C3528 C3529 1.386 . S
C3528 C3530 1.391 . S
C3529 C3528 1.386 . S
C3529 C3533 1.393 . S
C3530 H3522 0.950 . S
C3530 C3528 1.391 . S
C3530 C3531 1.400 . S
C3531 C3530 1.400 . S
C3531 C3532 1.398 . S
C3531 C3537 1.491 . S
C3532 H3523 0.950 . S
C3532 C3531 1.398 . S
C3532 C3533 1.391 . S
C3533 H3521 0.950 . S
C3533 C3529 1.393 . S
C3533 C3532 1.391 . S
C3534 H3524 0.950 . S
C3534 C3535 1.386 . S
C3534 C3536 1.391 . S
C3535 C3534 1.386 . S
C3535 C3539 1.393 . S
C3536 H3525 0.950 . S
C3536 C3534 1.391 . S
C3536 C3537 1.400 . S
C3537 C3531 1.491 . S
C3537 C3536 1.400 . S
C3537 C3538 1.398 . S
C3538 H3526 0.950 . S
C3538 C3537 1.398 . S
C3538 C3539 1.391 . S
C3539 H3527 0.950 . S
C3539 C3535 1.393 . S
C3539 C3538 1.391 . S
H3540 C3548 0.950 . S
H3541 C3553 0.950 . S
H3542 C3550 0.950 . S
H3543 C3552 0.950 . S
H3544 C3554 0.950 . S
H3545 C3556 0.950 . S
H3546 C3558 0.950 . S
H3547 C3559 0.950 . S
C3548 H3540 0.950 . S
C3548 C3549 1.386 . S
C3548 C3550 1.391 . S
C3549 C3548 1.386 . S
C3549 C3553 1.393 . S
C3550 H3542 0.950 . S
C3550 C3548 1.391 . S
C3550 C3551 1.400 . S
C3551 C3550 1.400 . S
C3551 C3552 1.398 . S
C3551 C3557 1.491 . S
C3552 H3543 0.950 . S
C3552 C3551 1.398 . S
C3552 C3553 1.391 . S
C3553 H3541 0.950 . S
C3553 C3549 1.393 . S
C3553 C3552 1.391 . S
C3554 H3544 0.950 . S
C3554 C3555 1.386 . S
C3554 C3556 1.391 . S
C3555 C3554 1.386 . S
C3555 C3559 1.393 . S
C3556 H3545 0.950 . S
C3556 C3554 1.391 . S
C3556 C3557 1.400 . S
C3557 C3551 1.491 . S
C3557 C3556 1.400 . S
C3557 C3558 1.398 . S
C3558 H3546 0.950 . S
C3558 C3557 1.398 . S
C3558 C3559 1.391 . S
C3559 H3547 0.950 . S
C3559 C3555 1.393 . S
C3559 C3558 1.391 . S
H3560 C3568 0.950 . S
H3561 C3573 0.950 . S
H3562 C3570 0.950 . S
H3563 C3572 0.950 . S
H3564 C3574 0.950 . S
H3565 C3576 0.950 . S
H3566 C3578 0.950 . S
H3567 C3579 0.950 . S
C3568 H3560 0.950 . S
C3568 C3569 1.386 . S
C3568 C3570 1.391 . S
C3569 C3568 1.386 . S
C3569 C3573 1.393 . S
C3570 H3562 0.950 . S
C3570 C3568 1.391 . S
C3570 C3571 1.400 . S
C3571 C3570 1.400 . S
C3571 C3572 1.398 . S
C3571 C3577 1.491 . S
C3572 H3563 0.950 . S
C3572 C3571 1.398 . S
C3572 C3573 1.391 . S
C3573 H3561 0.950 . S
C3573 C3569 1.393 . S
C3573 C3572 1.391 . S
C3574 H3564 0.950 . S
C3574 C3575 1.386 . S
C3574 C3576 1.391 . S
C3575 C3574 1.386 . S
C3575 C3579 1.393 . S
C3576 H3565 0.950 . S
C3576 C3574 1.391 . S
C3576 C3577 1.400 . S
C3577 C3571 1.491 . S
C3577 C3576 1.400 . S
C3577 C3578 1.398 . S
C3578 H3566 0.950 . S
C3578 C3577 1.398 . S
C3578 C3579 1.391 . S
C3579 H3567 0.950 . S
C3579 C3575 1.393 . S
C3579 C3578 1.391 . S
H3580 C3588 0.950 . S
H3581 C3593 0.950 . S
H3582 C3590 0.950 . S
H3583 C3592 0.950 . S
H3584 C3594 0.950 . S
H3585 C3596 0.950 . S
H3586 C3598 0.950 . S
H3587 C3599 0.950 . S
C3588 H3580 0.950 . S
C3588 C3589 1.386 . S
C3588 C3590 1.391 . S
C3589 C3588 1.386 . S
C3589 C3593 1.393 . S
C3590 H3582 0.950 . S
C3590 C3588 1.391 . S
C3590 C3591 1.400 . S
C3591 C3590 1.400 . S
C3591 C3592 1.398 . S
C3591 C3597 1.491 . S
C3592 H3583 0.950 . S
C3592 C3591 1.398 . S
C3592 C3593 1.391 . S
C3593 H3581 0.950 . S
C3593 C3589 1.393 . S
C3593 C3592 1.391 . S
C3594 H3584 0.950 . S
C3594 C3595 1.386 . S
C3594 C3596 1.391 . S
C3595 C3594 1.386 . S
C3595 C3599 1.393 . S
C3596 H3585 0.950 . S
C3596 C3594 1.391 . S
C3596 C3597 1.400 . S
C3597 C3591 1.491 . S
C3597 C3596 1.400 . S
C3597 C3598 1.398 . S
C3598 H3586 0.950 . S
C3598 C3597 1.398 . S
C3598 C3599 1.391 . S
C3599 H3587 0.950 . S
C3599 C3595 1.393 . S
C3599 C3598 1.391 . S
H3600 C3608 0.950 . S
H3601 C3613 0.950 . S
H3602 C3610 0.950 . S
H3603 C3612 0.950 . S
H3604 C3614 0.950 . S
H3605 C3616 0.950 . S
H3606 C3618 0.950 . S
H3607 C3619 0.950 . S
C3608 H3600 0.950 . S
C3608 C3609 1.386 . S
C3608 C3610 1.391 . S
C3609 C3608 1.386 . S
C3609 C3613 1.393 . S
C3610 H3602 0.950 . S
C3610 C3608 1.391 . S
C3610 C3611 1.400 . S
C3611 C3610 1.400 . S
C3611 C3612 1.398 . S
C3611 C3617 1.491 . S
C3612 H3603 0.950 . S
C3612 C3611 1.398 . S
C3612 C3613 1.391 . S
C3613 H3601 0.950 . S
C3613 C3609 1.393 . S
C3613 C3612 1.391 . S
C3614 H3604 0.950 . S
C3614 C3615 1.386 . S
C3614 C3616 1.391 . S
C3615 C3614 1.386 . S
C3615 C3619 1.393 . S
C3616 H3605 0.950 . S
C3616 C3614 1.391 . S
C3616 C3617 1.400 . S
C3617 C3611 1.491 . S
C3617 C3616 1.400 . S
C3617 C3618 1.398 . S
C3618 H3606 0.950 . S
C3618 C3617 1.398 . S
C3618 C3619 1.391 . S
C3619 H3607 0.950 . S
C3619 C3615 1.393 . S
C3619 C3618 1.391 . S
H3620 C3628 0.950 . S
H3621 C3633 0.950 . S
H3622 C3630 0.950 . S
H3623 C3632 0.950 . S
H3624 C3634 0.950 . S
H3625 C3636 0.950 . S
H3626 C3638 0.950 . S
H3627 C3639 0.950 . S
C3628 H3620 0.950 . S
C3628 C3629 1.386 . S
C3628 C3630 1.391 . S
C3629 C3628 1.386 . S
C3629 C3633 1.393 . S
C3630 H3622 0.950 . S
C3630 C3628 1.391 . S
C3630 C3631 1.400 . S
C3631 C3630 1.400 . S
C3631 C3632 1.398 . S
C3631 C3637 1.491 . S
C3632 H3623 0.950 . S
C3632 C3631 1.398 . S
C3632 C3633 1.391 . S
C3633 H3621 0.950 . S
C3633 C3629 1.393 . S
C3633 C3632 1.391 . S
C3634 H3624 0.950 . S
C3634 C3635 1.386 . S
C3634 C3636 1.391 . S
C3635 C3634 1.386 . S
C3635 C3639 1.393 . S
C3636 H3625 0.950 . S
C3636 C3634 1.391 . S
C3636 C3637 1.400 . S
C3637 C3631 1.491 . S
C3637 C3636 1.400 . S
C3637 C3638 1.398 . S
C3638 H3626 0.950 . S
C3638 C3637 1.398 . S
C3638 C3639 1.391 . S
C3639 H3627 0.950 . S
C3639 C3635 1.393 . S
C3639 C3638 1.391 . S
H3640 C3648 0.950 . S
H3641 C3653 0.950 . S
H3642 C3650 0.950 . S
H3643 C3652 0.950 . S
H3644 C3654 0.950 . S
H3645 C3656 0.950 . S
H3646 C3658 0.950 . S
H3647 C3659 0.950 . S
C3648 H3640 0.950 . S
C3648 C3649 1.386 . S
C3648 C3650 1.391 . S
C3649 C3648 1.386 . S
C3649 C3653 1.393 . S
C3650 H3642 0.950 . S
C3650 C3648 1.391 . S
C3650 C3651 1.400 . S
C3651 C3650 1.400 . S
C3651 C3652 1.398 . S
C3651 C3657 1.491 . S
C3652 H3643 0.950 . S
C3652 C3651 1.398 . S
C3652 C3653 1.391 . S
C3653 H3641 0.950 . S
C3653 C3649 1.393 . S
C3653 C3652 1.391 . S
C3654 H3644 0.950 . S
C3654 C3655 1.386 . S
C3654 C3656 1.391 . S
C3655 C3654 1.386 . S
C3655 C3659 1.393 . S
C3656 H3645 0.950 . S
C3656 C3654 1.391 . S
C3656 C3657 1.400 . S
C3657 C3651 1.491 . S
C3657 C3656 1.400 . S
C3657 C3658 1.398 . S
C3658 H3646 0.950 . S
C3658 C3657 1.398 . S
C3658 C3659 1.391 . S
C3659 H3647 0.950 . S
C3659 C3655 1.393 . S
C3659 C3658 1.391 . S
H3660 C3668 0.950 . S
H3661 C3673 0.950 . S
H3662 C3670 0.950 . S
H3663 C3672 0.950 . S
H3664 C3674 0.950 . S
H3665 C3676 0.950 . S
H3666 C3678 0.950 . S
H3667 C3679 0.950 . S
C3668 H3660 0.950 . S
C3668 C3669 1.386 . S
C3668 C3670 1.391 . S
C3669 C3668 1.386 . S
C3669 C3673 1.393 . S
C3670 H3662 0.950 . S
C3670 C3668 1.391 . S
C3670 C3671 1.400 . S
C3671 C3670 1.400 . S
C3671 C3672 1.398 . S
C3671 C3677 1.491 . S
C3672 H3663 0.950 . S
C3672 C3671 1.398 . S
C3672 C3673 1.391 . S
C3673 H3661 0.950 . S
C3673 C3669 1.393 . S
C3673 C3672 1.391 . S
C3674 H3664 0.950 . S
C3674 C3675 1.386 . S
C3674 C3676 1.391 . S
C3675 C3674 1.386 . S
C3675 C3679 1.393 . S
C3676 H3665 0.950 . S
C3676 C3674 1.391 . S
C3676 C3677 1.400 . S
C3677 C3671 1.491 . S
C3677 C3676 1.400 . S
C3677 C3678 1.398 . S
C3678 H3666 0.950 . S
C3678 C3677 1.398 . S
C3678 C3679 1.391 . S
C3679 H3667 0.950 . S
C3679 C3675 1.393 . S
C3679 C3678 1.391 . S
H3680 C3688 0.950 . S
H3681 C3693 0.950 . S
H3682 C3690 0.950 . S
H3683 C3692 0.950 . S
H3684 C3694 0.950 . S
H3685 C3696 0.950 . S
H3686 C3698 0.950 . S
H3687 C3699 0.950 . S
C3688 H3680 0.950 . S
C3688 C3689 1.386 . S
C3688 C3690 1.391 . S
C3689 C3688 1.386 . S
C3689 C3693 1.393 . S
C3690 H3682 0.950 . S
C3690 C3688 1.391 . S
C3690 C3691 1.400 . S
C3691 C3690 1.400 . S
C3691 C3692 1.398 . S
C3691 C3697 1.491 . S
C3692 H3683 0.950 . S
C3692 C3691 1.398 . S
C3692 C3693 1.391 . S
C3693 H3681 0.950 . S
C3693 C3689 1.393 . S
C3693 C3692 1.391 . S
C3694 H3684 0.950 . S
C3694 C3695 1.386 . S
C3694 C3696 1.391 . S
C3695 C3694 1.386 . S
C3695 C3699 1.393 . S
C3696 H3685 0.950 . S
C3696 C3694 1.391 . S
C3696 C3697 1.400 . S
C3697 C3691 1.491 . S
C3697 C3696 1.400 . S
C3697 C3698 1.398 . S
C3698 H3686 0.950 . S
C3698 C3697 1.398 . S
C3698 C3699 1.391 . S
C3699 H3687 0.950 . S
C3699 C3695 1.393 . S
C3699 C3698 1.391 . S
H3700 C3708 0.950 . S
H3701 C3713 0.950 . S
H3702 C3710 0.950 . S
H3703 C3712 0.950 . S
H3704 C3714 0.950 . S
H3705 C3716 0.950 . S
H3706 C3718 0.950 . S
H3707 C3719 0.950 . S
C3708 H3700 0.950 . S
C3708 C3709 1.386 . S
C3708 C3710 1.391 . S
C3709 C3708 1.386 . S
C3709 C3713 1.393 . S
C3710 H3702 0.950 . S
C3710 C3708 1.391 . S
C3710 C3711 1.400 . S
C3711 C3710 1.400 . S
C3711 C3712 1.398 . S
C3711 C3717 1.491 . S
C3712 H3703 0.950 . S
C3712 C3711 1.398 . S
C3712 C3713 1.391 . S
C3713 H3701 0.950 . S
C3713 C3709 1.393 . S
C3713 C3712 1.391 . S
C3714 H3704 0.950 . S
C3714 C3715 1.386 . S
C3714 C3716 1.391 . S
C3715 C3714 1.386 . S
C3715 C3719 1.393 . S
C3716 H3705 0.950 . S
C3716 C3714 1.391 . S
C3716 C3717 1.400 . S
C3717 C3711 1.491 . S
C3717 C3716 1.400 . S
C3717 C3718 1.398 . S
C3718 H3706 0.950 . S
C3718 C3717 1.398 . S
C3718 C3719 1.391 . S
C3719 H3707 0.950 . S
C3719 C3715 1.393 . S
C3719 C3718 1.391 . S
H3720 C3728 0.950 . S
H3721 C3733 0.950 . S
H3722 C3730 0.950 . S
H3723 C3732 0.950 . S
H3724 C3734 0.950 . S
H3725 C3736 0.950 . S
H3726 C3738 0.950 . S
H3727 C3739 0.950 . S
C3728 H3720 0.950 . S
C3728 C3729 1.386 . S
C3728 C3730 1.391 . S
C3729 C3728 1.386 . S
C3729 C3733 1.393 . S
C3730 H3722 0.950 . S
C3730 C3728 1.391 . S
C3730 C3731 1.400 . S
C3731 C3730 1.400 . S
C3731 C3732 1.398 . S
C3731 C3737 1.491 . S
C3732 H3723 0.950 . S
C3732 C3731 1.398 . S
C3732 C3733 1.391 . S
C3733 H3721 0.950 . S
C3733 C3729 1.393 . S
C3733 C3732 1.391 . S
C3734 H3724 0.950 . S
C3734 C3735 1.386 . S
C3734 C3736 1.391 . S
C3735 C3734 1.386 . S
C3735 C3739 1.393 . S
C3736 H3725 0.950 . S
C3736 C3734 1.391 . S
C3736 C3737 1.400 . S
C3737 C3731 1.491 . S
C3737 C3736 1.400 . S
C3737 C3738 1.398 . S
C3738 H3726 0.950 . S
C3738 C3737 1.398 . S
C3738 C3739 1.391 . S
C3739 H3727 0.950 . S
C3739 C3735 1.393 . S
C3739 C3738 1.391 . S
H3740 C3748 0.950 . S
H3741 C3753 0.950 . S
H3742 C3750 0.950 . S
H3743 C3752 0.950 . S
H3744 C3754 0.950 . S
H3745 C3756 0.950 . S
H3746 C3758 0.950 . S
H3747 C3759 0.950 . S
C3748 H3740 0.950 . S
C3748 C3749 1.386 . S
C3748 C3750 1.391 . S
C3749 C3748 1.386 . S
C3749 C3753 1.393 . S
C3750 H3742 0.950 . S
C3750 C3748 1.391 . S
C3750 C3751 1.400 . S
C3751 C3750 1.400 . S
C3751 C3752 1.398 . S
C3751 C3757 1.491 . S
C3752 H3743 0.950 . S
C3752 C3751 1.398 . S
C3752 C3753 1.391 . S
C3753 H3741 0.950 . S
C3753 C3749 1.393 . S
C3753 C3752 1.391 . S
C3754 H3744 0.950 . S
C3754 C3755 1.386 . S
C3754 C3756 1.391 . S
C3755 C3754 1.386 . S
C3755 C3759 1.393 . S
C3756 H3745 0.950 . S
C3756 C3754 1.391 . S
C3756 C3757 1.400 . S
C3757 C3751 1.491 . S
C3757 C3756 1.400 . S
C3757 C3758 1.398 . S
C3758 H3746 0.950 . S
C3758 C3757 1.398 . S
C3758 C3759 1.391 . S
C3759 H3747 0.950 . S
C3759 C3755 1.393 . S
C3759 C3758 1.391 . S
H3760 C3768 0.950 . S
H3761 C3773 0.950 . S
H3762 C3770 0.950 . S
H3763 C3772 0.950 . S
H3764 C3774 0.950 . S
H3765 C3776 0.950 . S
H3766 C3778 0.950 . S
H3767 C3779 0.950 . S
C3768 H3760 0.950 . S
C3768 C3769 1.386 . S
C3768 C3770 1.391 . S
C3769 C3768 1.386 . S
C3769 C3773 1.393 . S
C3770 H3762 0.950 . S
C3770 C3768 1.391 . S
C3770 C3771 1.400 . S
C3771 C3770 1.400 . S
C3771 C3772 1.398 . S
C3771 C3777 1.491 . S
C3772 H3763 0.950 . S
C3772 C3771 1.398 . S
C3772 C3773 1.391 . S
C3773 H3761 0.950 . S
C3773 C3769 1.393 . S
C3773 C3772 1.391 . S
C3774 H3764 0.950 . S
C3774 C3775 1.386 . S
C3774 C3776 1.391 . S
C3775 C3774 1.386 . S
C3775 C3779 1.393 . S
C3776 H3765 0.950 . S
C3776 C3774 1.391 . S
C3776 C3777 1.400 . S
C3777 C3771 1.491 . S
C3777 C3776 1.400 . S
C3777 C3778 1.398 . S
C3778 H3766 0.950 . S
C3778 C3777 1.398 . S
C3778 C3779 1.391 . S
C3779 H3767 0.950 . S
C3779 C3775 1.393 . S
C3779 C3778 1.391 . S
H3780 C3788 0.950 . S
H3781 C3793 0.950 . S
H3782 C3790 0.950 . S
H3783 C3792 0.950 . S
H3784 C3794 0.950 . S
H3785 C3796 0.950 . S
H3786 C3798 0.950 . S
H3787 C3799 0.950 . S
C3788 H3780 0.950 . S
C3788 C3789 1.386 . S
C3788 C3790 1.391 . S
C3789 C3788 1.386 . S
C3789 C3793 1.393 . S
C3790 H3782 0.950 . S
C3790 C3788 1.391 . S
C3790 C3791 1.400 . S
C3791 C3790 1.400 . S
C3791 C3792 1.398 . S
C3791 C3797 1.491 . S
C3792 H3783 0.950 . S
C3792 C3791 1.398 . S
C3792 C3793 1.391 . S
C3793 H3781 0.950 . S
C3793 C3789 1.393 . S
C3793 C3792 1.391 . S
C3794 H3784 0.950 . S
C3794 C3795 1.386 . S
C3794 C3796 1.391 . S
C3795 C3794 1.386 . S
C3795 C3799 1.393 . S
C3796 H3785 0.950 . S
C3796 C3794 1.391 . S
C3796 C3797 1.400 . S
C3797 C3791 1.491 . S
C3797 C3796 1.400 . S
C3797 C3798 1.398 . S
C3798 H3786 0.950 . S
C3798 C3797 1.398 . S
C3798 C3799 1.391 . S
C3799 H3787 0.950 . S
C3799 C3795 1.393 . S
C3799 C3798 1.391 . S
H3800 C3808 0.950 . S
H3801 C3813 0.950 . S
H3802 C3810 0.950 . S
H3803 C3812 0.950 . S
H3804 C3814 0.950 . S
H3805 C3816 0.950 . S
H3806 C3818 0.950 . S
H3807 C3819 0.950 . S
C3808 H3800 0.950 . S
C3808 C3809 1.386 . S
C3808 C3810 1.391 . S
C3809 C3808 1.386 . S
C3809 C3813 1.393 . S
C3810 H3802 0.950 . S
C3810 C3808 1.391 . S
C3810 C3811 1.400 . S
C3811 C3810 1.400 . S
C3811 C3812 1.398 . S
C3811 C3817 1.491 . S
C3812 H3803 0.950 . S
C3812 C3811 1.398 . S
C3812 C3813 1.391 . S
C3813 H3801 0.950 . S
C3813 C3809 1.393 . S
C3813 C3812 1.391 . S
C3814 H3804 0.950 . S
C3814 C3815 1.386 . S
C3814 C3816 1.391 . S
C3815 C3814 1.386 . S
C3815 C3819 1.393 . S
C3816 H3805 0.950 . S
C3816 C3814 1.391 . S
C3816 C3817 1.400 . S
C3817 C3811 1.491 . S
C3817 C3816 1.400 . S
C3817 C3818 1.398 . S
C3818 H3806 0.950 . S
C3818 C3817 1.398 . S
C3818 C3819 1.391 . S
C3819 H3807 0.950 . S
C3819 C3815 1.393 . S
C3819 C3818 1.391 . S
H3820 C3828 0.950 1_554 S
H3821 C3833 0.950 . S
H3822 C3830 0.950 . S
H3823 C3832 0.950 . S
H3824 C3834 0.950 . S
H3825 C3836 0.950 . S
H3826 C3838 0.950 . S
H3827 C3839 0.950 . S
C3828 H3820 0.950 1_556 S
C3828 C3829 1.386 . S
C3828 C3830 1.391 . S
C3829 C3828 1.386 . S
C3829 C3833 1.393 . S
C3830 H3822 0.950 . S
C3830 C3828 1.391 . S
C3830 C3831 1.400 . S
C3831 C3830 1.400 . S
C3831 C3832 1.398 . S
C3831 C3837 1.491 . S
C3832 H3823 0.950 . S
C3832 C3831 1.398 . S
C3832 C3833 1.391 . S
C3833 H3821 0.950 . S
C3833 C3829 1.393 . S
C3833 C3832 1.391 . S
C3834 H3824 0.950 . S
C3834 C3835 1.386 . S
C3834 C3836 1.391 . S
C3835 C3834 1.386 . S
C3835 C3839 1.393 . S
C3836 H3825 0.950 . S
C3836 C3834 1.391 . S
C3836 C3837 1.400 . S
C3837 C3831 1.491 . S
C3837 C3836 1.400 . S
C3837 C3838 1.398 . S
C3838 H3826 0.950 . S
C3838 C3837 1.398 . S
C3838 C3839 1.391 . S
C3839 H3827 0.950 . S
C3839 C3835 1.393 . S
C3839 C3838 1.391 . S
C969 C129 2.276 . S
C975 C9 2.279 . S
C989 C141 2.269 . S
C995 C21 2.269 . S
C1009 C89 2.278 . S
C1015 C49 2.277 . S
C1029 C109 2.298 . S
C1035 C69 2.297 . S
C1049 C209 2.321 . S
C1055 C169 2.320 . S
C1069 C229 2.237 . S
C1075 C189 2.235 . S
C1089 C289 2.243 . S
C1095 C249 2.241 . S
C1109 C309 2.317 . S
C1115 C269 2.316 . S
C1129 C349 2.272 . S
C1135 C329 2.269 . S
C1149 C469 2.288 . S
C1155 C369 2.288 . S
C1169 C421 2.286 . S
C1175 C389 2.271 . S
C1189 C401 2.286 . S
C1195 C449 2.279 . S
C1209 C489 2.275 . S
C1215 C609 2.273 . S
C1229 C501 2.269 . S
C1235 C621 2.269 . S
C1249 C529 2.272 . S
C1255 C569 2.273 . S
C1269 C549 2.292 . S
C1275 C589 2.294 . S
C1289 C649 2.319 . S
C1295 C689 2.321 . S
C1309 C669 2.238 . S
C1315 C709 2.240 . S
C1329 C729 2.237 . S
C1335 C769 2.239 . S
C1349 C789 2.322 . S
C1355 C749 2.321 . S
C1369 C809 2.275 . S
C1375 C829 2.278 . S
C1389 C949 2.289 . S
C1395 C849 2.290 . S
C1409 C869 2.275 . S
C1415 C901 2.285 . S
C1429 C881 2.288 . S
C1435 C929 2.274 . S
C1449 C1 2.629 . S
C1455 C181 2.582 . S
C1469 C29 2.717 . S
C1475 C201 2.744 1_565 S
C1489 C41 2.462 . S
C1495 C221 2.482 . S
C1509 C161 2.464 . S
C1515 C61 2.460 . S
C1529 C301 2.653 . S
C1535 C81 2.636 . S
C1549 C241 2.687 . S
C1555 C101 2.702 . S
C1569 C261 2.554 . S
C1575 C121 2.541 1_655 S
C1589 C149 2.384 . S
C1595 C281 2.381 . S
C1609 C361 2.581 . S
C1615 C321 2.576 . S
C1629 C441 2.574 . S
C1635 C341 2.576 . S
C1649 C381 2.574 . S
C1655 C461 2.583 . S
C1669 C429 2.587 . S
C1675 C409 2.573 . S
C1689 C481 2.610 . S
C1695 C661 2.598 . S
C1709 C681 2.746 . S
C1715 C509 2.716 . S
C1729 C701 2.466 . S
C1735 C521 2.480 . S
C1749 C541 2.440 . S
C1755 C641 2.478 . S
C1769 C781 2.653 . S
C1775 C561 2.633 . S
C1789 C581 2.704 . S
C1795 C721 2.685 . S
C1809 C601 2.540 . S
C1815 C741 2.558 . S
C1829 C629 2.393 . S
C1835 C761 2.371 . S
C1849 C801 2.568 . S
C1855 C841 2.582 . S
C1869 C921 2.575 . S
C1875 C821 2.583 . S
C1889 C941 2.567 . S
C1895 C861 2.589 . S
C1909 C889 2.584 . S
C1915 C909 2.576 . S
C1929 C19 0.793 . S
C1935 C66 0.855 . S
C1949 C6 0.541 . S
C1955 C36 0.672 . S
C1969 C59 1.160 . S
C1975 C28 1.193 . S
C1989 C79 0.744 . S
C1995 C46 0.795 . S
C2009 C106 0.817 . S
C2015 C99 0.869 . S
C2029 C126 0.845 . S
C2035 C119 0.920 . S
C2049 C139 1.108 . S
C2055 C148 1.120 . S
C2069 C86 0.512 . S
C2075 C156 0.593 . S
C2089 C179 0.868 . S
C2095 C366 0.861 . S
C2109 C199 0.942 . S
C2115 C386 0.924 . S
C2129 C219 1.015 . S
C2135 C408 1.031 . S
C2149 C239 0.814 . S
C2155 C346 0.756 . S
C2169 C259 0.874 . S
C2175 C446 0.942 . S
C2189 C326 0.942 . S
C2195 C279 0.855 . S
C2209 C466 0.605 . S
C2215 C299 0.698 . S
C2229 C319 1.172 . S
C2235 C428 1.199 . S
C2249 C339 0.730 . S
C2255 C186 0.713 . S
C2269 C359 0.848 . S
C2275 C306 0.836 . S
C2289 C379 0.783 . S
C2295 C246 0.705 . S
C2309 C266 0.676 . S
C2315 C399 0.727 . S
C2329 C286 0.593 . S
C2335 C416 0.641 . S
C2349 C226 0.478 . S
C2355 C436 0.584 . S
C2369 C166 0.675 . S
C2375 C459 0.748 . S
C2389 C479 0.996 . S
C2395 C206 1.004 . S
C2409 C499 0.860 . S
C2415 C546 0.784 . S
C2429 C516 0.647 . S
C2435 C486 0.563 . S
C2449 C508 1.153 . S
C2455 C539 1.200 . S
C2469 C526 0.773 . S
C2475 C559 0.769 . S
C2489 C579 0.834 . S
C2495 C586 0.852 . S
C2509 C606 0.909 . S
C2515 C599 0.858 . S
C2529 C628 1.129 . S
C2535 C619 1.096 . S
C2549 C636 0.595 . S
C2555 C566 0.510 . S
C2569 C659 0.827 . S
C2575 C846 0.896 . S
C2589 C866 0.921 . S
C2595 C679 0.950 . S
C2609 C888 1.017 . S
C2615 C699 1.028 . S
C2629 C719 0.755 . S
C2635 C826 0.820 . S
C2649 C926 0.896 . S
C2655 C739 0.927 . S
C2669 C759 0.890 . S
C2675 C806 0.910 . S
C2689 C779 0.626 . S
C2695 C946 0.682 . S
C2709 C799 1.202 . S
C2715 C908 1.169 . S
C2729 C666 0.751 . S
C2735 C819 0.679 . S
C2749 C786 0.846 . S
C2755 C839 0.837 . S
C2769 C726 0.705 . S
C2775 C859 0.783 . S
C2789 C879 0.739 . S
C2795 C746 0.668 . S
C2809 C766 0.646 . S
C2815 C896 0.584 . S
C2829 C916 0.547 . S
C2835 C706 0.517 . S
C2849 C939 0.759 . S
C2855 C646 0.667 . S
C2869 C686 0.988 . S
C2875 C959 1.004 . S
C2889 C16 0.994 . S
C2895 C899 0.951 . S
C2909 C836 1.246 . S
C2915 C39 1.218 . S
C2929 C56 0.679 . S
C2935 C856 0.700 . S
C2949 C76 0.921 . S
C2955 C876 0.929 . S
C2969 C96 0.653 . S
C2975 C956 0.631 . S
C2989 C116 1.169 . S
C2995 C919 1.143 . S
C3009 C136 0.922 . S
C3015 C936 0.907 . S
C3029 C159 1.242 . S
C3035 C816 1.296 . S
C3049 C176 0.757 . S
C3055 C796 0.748 . S
C3069 C196 0.721 . S
C3075 C736 0.715 . S
C3089 C216 0.749 . S
C3095 C756 0.748 . S
C3109 C236 0.632 . S
C3115 C776 0.629 . S
C3129 C256 0.650 . S
C3135 C676 0.672 . S
C3149 C276 0.716 . S
C3155 C696 0.691 . S
C3169 C296 0.538 . S
C3175 C716 0.543 . S
C3189 C316 0.753 . S
C3195 C656 0.743 . S
C3209 C336 1.275 . S
C3215 C639 1.262 . S
C3229 C356 1.257 . S
C3235 C519 1.201 . S
C3249 C376 0.732 . S
C3255 C536 0.744 . S
C3269 C396 0.931 . S
C3275 C556 0.925 . S
C3289 C419 0.970 . S
C3295 C496 1.001 . S
C3309 C439 1.141 . S
C3315 C596 1.170 . S
C3329 C456 0.921 . S
C3335 C616 0.920 . S
C3349 C476 0.613 . S
C3355 C576 0.640 . S
C3369 C88 1.682 . S
C3375 C848 1.677 . S
C3389 C108 1.427 . S
C3395 C868 1.426 . S
C3409 C128 1.237 . S
C3415 C886 1.285 . S
C3429 C146 1.022 . S
C3435 C828 1.000 . S
C3449 C8 1.405 . S
C3455 C928 1.448 . S
C3469 C26 0.985 . S
C3475 C808 0.991 . S
C3489 C48 1.886 . S
C3495 C948 1.900 . S
C3509 C906 1.084 . S
C3515 C68 1.078 . S
C3529 C288 1.655 . S
C3535 C668 1.688 . S
C3549 C308 1.958 . S
C3555 C688 1.936 . S
C3569 C248 1.689 . S
C3575 C708 1.650 . S
C3589 C268 1.784 . S
C3595 C648 1.809 . S
C3609 C208 1.946 . S
C3615 C788 1.937 . S
C3629 C228 1.654 . S
C3635 C728 1.691 . S
C3649 C168 1.799 . S
C3655 C748 1.783 . S
C3669 C188 1.687 . S
C3675 C768 1.648 . S
C3689 C426 1.094 . S
C3695 C548 1.056 . S
C3709 C388 1.439 . S
C3715 C588 1.437 . S
C3729 C406 1.279 . S
C3735 C608 1.233 . S
C3749 C348 1.002 . S
C3755 C626 1.006 . S
C3769 C368 1.697 . S
C3775 C568 1.678 . S
C3789 C328 0.958 . S
C3795 C506 1.003 . S
C3809 C468 1.890 . S
C3815 C528 1.877 . S
C3829 C448 1.437 . S
C3835 C488 1.423 . S
