# Generated by pormake.
# Topology vby, (6)-cn, num edge types: 1
# Building blocks:
#     Node 0, Type 0, BuildingBlock: KUMJIN_clean_sbu_1, # of connection points: 6
#     Node 1, Type 0, BuildingBlock: KUMJIN_clean_sbu_1, # of connection points: 6
#     Node 2, Type 0, BuildingBlock: KUMJIN_clean_sbu_1, # of connection points: 6
#     Node 3, Type 0, BuildingBlock: KUMJIN_clean_sbu_1, # of connection points: 6
#     Node 4, Type 0, BuildingBlock: KUMJIN_clean_sbu_1, # of connection points: 6
#     Node 5, Type 0, BuildingBlock: KUMJIN_clean_sbu_1, # of connection points: 6
#     Node 6, Type 0, BuildingBlock: KUMJIN_clean_sbu_1, # of connection points: 6
#     Node 7, Type 0, BuildingBlock: KUMJIN_clean_sbu_1, # of connection points: 6
#     Edge 8, Type (0, 0), BuildingBlock: CIFDUS_clean_linker_0, # of connection points: 2
#     Edge 9, Type (0, 0), BuildingBlock: CIFDUS_clean_linker_0, # of connection points: 2
#     Edge 10, Type (0, 0), BuildingBlock: CIFDUS_clean_linker_0, # of connection points: 2
#     Edge 11, Type (0, 0), BuildingBlock: CIFDUS_clean_linker_0, # of connection points: 2
#     Edge 12, Type (0, 0), BuildingBlock: CIFDUS_clean_linker_0, # of connection points: 2
#     Edge 13, Type (0, 0), BuildingBlock: CIFDUS_clean_linker_0, # of connection points: 2
#     Edge 14, Type (0, 0), BuildingBlock: CIFDUS_clean_linker_0, # of connection points: 2
#     Edge 15, Type (0, 0), BuildingBlock: CIFDUS_clean_linker_0, # of connection points: 2
#     Edge 16, Type (0, 0), BuildingBlock: CIFDUS_clean_linker_0, # of connection points: 2
#     Edge 17, Type (0, 0), BuildingBlock: CIFDUS_clean_linker_0, # of connection points: 2
#     Edge 18, Type (0, 0), BuildingBlock: CIFDUS_clean_linker_0, # of connection points: 2
#     Edge 19, Type (0, 0), BuildingBlock: CIFDUS_clean_linker_0, # of connection points: 2
#     Edge 20, Type (0, 0), BuildingBlock: CIFDUS_clean_linker_0, # of connection points: 2
#     Edge 21, Type (0, 0), BuildingBlock: CIFDUS_clean_linker_0, # of connection points: 2
#     Edge 22, Type (0, 0), BuildingBlock: CIFDUS_clean_linker_0, # of connection points: 2
#     Edge 23, Type (0, 0), BuildingBlock: CIFDUS_clean_linker_0, # of connection points: 2
#     Edge 24, Type (0, 0), BuildingBlock: CIFDUS_clean_linker_0, # of connection points: 2
#     Edge 25, Type (0, 0), BuildingBlock: CIFDUS_clean_linker_0, # of connection points: 2
#     Edge 26, Type (0, 0), BuildingBlock: CIFDUS_clean_linker_0, # of connection points: 2
#     Edge 27, Type (0, 0), BuildingBlock: CIFDUS_clean_linker_0, # of connection points: 2
#     Edge 28, Type (0, 0), BuildingBlock: CIFDUS_clean_linker_0, # of connection points: 2
#     Edge 29, Type (0, 0), BuildingBlock: CIFDUS_clean_linker_0, # of connection points: 2
#     Edge 30, Type (0, 0), BuildingBlock: CIFDUS_clean_linker_0, # of connection points: 2
#     Edge 31, Type (0, 0), BuildingBlock: CIFDUS_clean_linker_0, # of connection points: 2
# Relax obj value: 0.190
# Max RMSD: 0.311
# Mean RMSD: 0.219
data_MOF--net-vby--node1-KUMJIN_clean_sbu_1--edge1-CIFDUS_clean_linker_0
_symmetry_space_group_name_H-M    P1
_symmetry_Int_Tables_number       1
_symmetry_cell_setting            triclinic
loop_
_symmetry_equiv_pos_as_xyz
'x, y, z'
_cell_length_a     13.262785
_cell_length_b     92.618792
_cell_length_c     25.823064
_cell_angle_alpha  101.43115
_cell_angle_beta   94.762981
_cell_angle_gamma 90.067772
loop_
_atom_site_label
_atom_site_type_symbol
_atom_site_fract_x
_atom_site_fract_y
_atom_site_fract_z
_atom_type_partial_charge
Eu0 Eu 0.09639 0.35664 0.01716 0.0
C1 C 0.29033 0.41449 0.11529 0.0
N2 N 0.19878 0.40894 0.12316 0.0
C3 C 0.23965 0.41503 0.21746 0.0
C4 C 0.36209 0.41974 0.15855 0.0
C5 C 0.16999 0.41044 0.17364 0.0
C6 C 0.33704 0.41936 0.20983 0.0
C7 C 0.39848 0.42353 0.05643 0.0
C8 C 0.30901 0.41636 0.06461 0.0
C9 C 0.47194 0.42798 0.09897 0.0
C10 C 0.45402 0.42602 0.14981 0.0
Eu11 Eu 0.08889 0.40141 0.04472 0.0
N12 N 0.2375 0.41185 0.02368 0.0
C13 C 0.40993 0.4265 0.00607 0.0
C14 C 0.24547 0.41541 0.97531 0.0
C15 C 0.33231 0.42265 0.96559 0.0
H16 H 0.09262 0.40853 0.18085 0.0
H17 H 0.3394 0.42522 0.92695 0.0
H18 H 0.09184 0.3471 0.88178 0.0
H19 H 0.85435 0.33651 0.14891 0.0
H20 H 0.18501 0.41246 0.9442 0.0
H21 H 0.47726 0.4321 0.99841 0.0
H22 H 1.00251 0.34953 0.12596 0.0
H23 H 0.2171 0.41566 0.25718 0.0
H24 H 0.54159 0.43337 0.0933 0.0
H25 H 0.51 0.43 0.18257 0.0
H26 H 0.97322 0.33552 0.8073 0.0
H27 H 0.39011 0.42327 0.24399 0.0
H28 H 0.72449 0.32506 0.07827 0.0
N29 N 0.99048 0.34573 0.9409 0.0
C30 C 0.90475 0.33903 0.95125 0.0
C31 C 0.95201 0.33671 0.8475 0.0
C32 C 0.83632 0.33172 0.90943 0.0
C33 C 1.01809 0.34367 0.89008 0.0
C34 C 0.85966 0.33101 0.85713 0.0
N35 N 0.95491 0.34564 0.04378 0.0
C36 C 0.94556 0.34462 0.09515 0.0
C37 C 0.80162 0.33133 0.01513 0.0
C38 C 0.8876 0.3387 1.00375 0.0
C39 C 0.78934 0.3307 0.06802 0.0
C40 C 0.86241 0.33717 0.10808 0.0
H41 H 0.80907 0.32549 0.824 0.0
H42 H 0.69515 0.31931 0.88925 0.0
H43 H 0.66461 0.31903 0.98159 0.0
O44 O 0.1406 0.33757 0.05377 0.0
O45 O 0.94176 0.36692 0.03172 0.0
O46 O 0.92888 0.39228 0.03626 0.0
O47 O 0.17863 0.33868 0.97384 0.0
O48 O 0.14212 0.36937 0.09969 0.0
O49 O 0.03988 0.38964 0.10866 0.0
O50 O 1.02738 0.41784 1.00019 0.0
O51 O 0.2258 0.38938 0.01034 0.0
O52 O 0.24518 0.36893 0.04757 0.0
O53 O 0.04876 0.42317 0.08613 0.0
O54 O 1.03231 0.38907 0.96246 0.0
O55 O 0.12854 0.36799 0.94966 0.0
C56 C 0.88931 0.37909 0.0339 0.0
C57 C 0.22211 0.3161 1.00298 0.0
C58 C 0.25394 0.29288 0.03194 0.0
C59 C 0.27867 0.28652 0.98067 0.0
C60 C 0.24815 0.30947 0.95211 0.0
C61 C 0.27625 0.29479 0.94117 0.0
C62 C 0.22596 0.30775 0.04336 0.0
C63 C 0.08393 0.37878 0.12749 0.0
C64 C 0.17693 0.33082 0.01039 0.0
C65 C 0.74879 0.32485 0.92092 0.0
C66 C 0.73156 0.32464 0.97354 0.0
C67 C 0.28371 0.3797 0.0287 0.0
C68 C 0.95745 0.44039 0.04412 0.0
C69 C 0.93339 0.46549 0.0306 0.0
C70 C 0.84599 0.46628 0.05831 0.0
C71 C 0.87012 0.44129 0.07149 0.0
C72 C 0.98784 0.45237 0.02287 0.0
C73 C 0.81418 0.4542 0.07815 0.0
C74 C 0.07622 0.37832 0.93164 0.0
C75 C 1.0257 0.42799 0.04274 0.0
H76 H 0.3006 0.27508 0.9713 0.0
H77 H 0.2439 0.31549 0.9201 0.0
H78 H 0.29507 0.28975 0.90174 0.0
H79 H 0.20482 0.31259 0.08261 0.0
H80 H 0.80292 0.47631 0.06506 0.0
H81 H 0.84679 0.43219 0.08868 0.0
H82 H 0.05723 0.45178 1.00309 0.0
H83 H 0.74732 0.45496 0.09981 0.0
Eu84 Eu 0.97362 0.65298 0.03129 0.0
C85 C 0.77081 0.59554 0.06271 0.0
N86 N 0.86022 0.60255 0.08293 0.0
C87 C 0.83197 0.59839 0.1695 0.0
C88 C 0.70756 0.59 0.09591 0.0
C89 C 0.89352 0.60331 0.13498 0.0
C90 C 0.73824 0.59181 0.15001 0.0
C91 C 0.65102 0.58622 0.98654 0.0
C92 C 0.74238 0.59363 0.00833 0.0
C93 C 0.58837 0.58077 0.01973 0.0
C94 C 0.61642 0.58267 0.07417 0.0
Eu95 Eu 0.95922 0.60885 0.01832 0.0
N96 N 0.8032 0.5992 0.97684 0.0
C97 C 0.62556 0.58442 0.93184 0.0
C98 C 0.7816 0.59686 0.92319 0.0
C99 C 0.6914 0.5897 0.90001 0.0
H100 H 0.96911 0.60703 0.15005 0.0
H101 H 0.67323 0.58809 0.8576 0.0
H102 H 0.96 0.65706 0.90416 0.0
H103 H 0.25371 0.67487 0.1956 0.0
H104 H 0.83404 0.60062 0.89861 0.0
H105 H 0.55592 0.5788 0.9137 0.0
H106 H 0.09409 0.66259 0.15404 0.0
H107 H 0.85827 0.59928 0.21086 0.0
H108 H 0.51792 0.57505 1.00366 0.0
H109 H 0.56717 0.57835 0.09914 0.0
H110 H 0.06903 0.66583 0.84371 0.0
H111 H 0.6915 0.58777 0.17675 0.0
H112 H 0.37197 0.68444 0.14073 0.0
N113 N 0.07056 0.66122 0.97013 0.0
C114 C 0.15987 0.66811 0.99075 0.0
C115 C 0.09616 0.66635 0.88473 0.0
C116 C 0.22273 0.67393 0.95812 0.0
C117 C 0.03565 0.66099 0.91876 0.0
C118 C 0.19074 0.67267 0.90431 0.0
N119 N 0.12468 0.66417 0.07585 0.0
C120 C 0.14659 0.66617 0.12933 0.0
C121 C 0.27815 0.67717 0.06741 0.0
C122 C 0.18698 0.6698 0.04506 0.0
C123 C 0.30269 0.67881 0.12206 0.0
C124 C 0.23634 0.67337 0.15315 0.0
H125 H 0.237 0.67696 0.87796 0.0
H126 H 0.36339 0.68559 0.95584 0.0
H127 H 0.41204 0.68839 0.05129 0.0
O128 O 0.9402 0.67431 0.07915 0.0
O129 O 0.1216 0.64053 0.01274 0.0
O130 O 0.11605 0.61886 0.04454 0.0
O131 O 0.8743 0.66844 0.99832 0.0
O132 O 0.95925 0.64501 0.10829 0.0
O133 O 0.03303 0.622 0.09591 0.0
O134 O 1.02114 0.59111 0.96087 0.0
O135 O 0.81352 0.62118 1.00216 0.0
O136 O 0.8344 0.64346 0.05878 0.0
O137 O 0.98713 0.58728 0.03769 0.0
O138 O 1.00406 0.61712 0.94655 0.0
O139 O 0.91052 0.63825 0.95397 0.0
C140 C 0.16648 0.6292 0.02835 0.0
C141 C 0.90554 0.69387 0.0353 0.0
C142 C 0.86993 0.72006 0.05775 0.0
C143 C 0.95155 0.72303 0.02978 0.0
C144 C 0.98468 0.69709 0.00641 0.0
C145 C 1.00814 0.71158 1.00407 0.0
C146 C 0.84727 0.70542 0.06061 0.0
C147 C 1.00659 0.63432 0.12637 0.0
C148 C 0.88536 0.67867 0.04123 0.0
C149 C 0.31404 0.6811 0.98033 0.0
C150 C 0.34161 0.68273 0.03476 0.0
C151 C 0.77553 0.63291 0.03079 0.0
C152 C 0.09135 0.56986 0.98948 0.0
C153 C 0.12501 0.54432 0.99464 0.0
C154 C 0.2269 0.54659 0.98714 0.0
C155 C 0.19357 0.57216 0.98304 0.0
C156 C 0.0576 0.55597 0.99537 0.0
C157 C 0.26096 0.56049 0.98159 0.0
C158 C 0.96205 0.62776 0.92602 0.0
C159 C 1.0169 0.58157 0.99159 0.0
H160 H 0.96889 0.73418 0.02591 0.0
H161 H 1.02809 0.68852 0.98521 0.0
H162 H 0.06935 0.71392 0.98155 0.0
H163 H 0.78438 0.70305 0.08207 0.0
H164 H 0.28047 0.53778 0.98741 0.0
H165 H 0.22107 0.58291 0.97945 0.0
H166 H 0.97884 0.55428 1.00158 0.0
H167 H 0.34005 0.56227 0.97693 0.0
Eu168 Eu 0.09672 0.65366 0.55143 0.0
C169 C 0.26827 0.59547 0.45946 0.0
N170 N 0.18314 0.6025 0.44511 0.0
C171 C 0.22238 0.59708 0.35422 0.0
C172 C 0.3365 0.58974 0.42169 0.0
C173 C 0.15637 0.60239 0.39274 0.0
C174 C 0.31371 0.59097 0.36888 0.0
C175 C 0.3717 0.58577 0.52683 0.0
C176 C 0.28535 0.59328 0.51149 0.0
C177 C 0.44099 0.58053 0.48957 0.0
C178 C 0.42337 0.58248 0.43721 0.0
Eu179 Eu 0.0746 0.60967 0.51367 0.0
N180 N 0.21823 0.59866 0.54739 0.0
C181 C 0.38589 0.58374 0.5793 0.0
C182 C 0.2301 0.59644 0.59823 0.0
C183 C 0.3146 0.58904 0.61506 0.0
H184 H 0.08246 0.60575 0.37963 0.0
H185 H 0.32471 0.58743 0.65553 0.0
H186 H 0.09893 0.6596 0.68611 0.0
H187 H 0.84826 0.67698 0.41158 0.0
H188 H 0.17427 0.60043 0.6256 0.0
H189 H 0.45145 0.57805 0.59253 0.0
H190 H 0.99926 0.66411 0.4412 0.0
H191 H 0.20132 0.59732 0.31298 0.0
H192 H 0.50796 0.57479 0.5007 0.0
H193 H 0.47659 0.57808 0.4087 0.0
H194 H 0.98431 0.66881 0.75452 0.0
H195 H 0.36395 0.58664 0.33872 0.0
H196 H 0.72252 0.68647 0.47507 0.0
N197 N 0.99417 0.66238 0.62163 0.0
C198 C 0.90894 0.66943 0.60785 0.0
C199 C 0.96093 0.66872 0.7133 0.0
C200 C 0.84289 0.67551 0.64628 0.0
C201 C 1.02451 0.66305 0.67398 0.0
C202 C 0.8686 0.67469 0.69927 0.0
N203 N 0.95627 0.66582 0.51952 0.0
C204 C 0.94374 0.66805 0.46873 0.0
C205 C 0.80373 0.67891 0.54072 0.0
C206 C 0.89024 0.6714 0.55574 0.0
C207 C 0.78827 0.68078 0.48813 0.0
C208 C 0.85898 0.67542 0.4521 0.0
H209 H 0.82006 0.67926 0.72995 0.0
H210 H 0.7036 0.68731 0.66007 0.0
H211 H 0.66859 0.69009 0.56762 0.0
O212 O 0.14199 0.6749 0.53154 0.0
O213 O 0.94061 0.64344 0.51929 0.0
O214 O 0.92893 0.62058 0.54154 0.0
O215 O 0.19511 0.66916 0.60708 0.0
O216 O 0.12561 0.6434 0.46678 0.0
O217 O 1.02067 0.62276 0.4509 0.0
O218 O 0.03467 0.5889 0.53642 0.0
O219 O 0.22544 0.62098 0.55002 0.0
O220 O 0.23558 0.64217 0.51787 0.0
O221 O 0.99026 0.59233 0.45634 0.0
O222 O 1.03039 0.61949 0.59536 0.0
O223 O 0.13613 0.64004 0.61547 0.0
C224 C 0.88706 0.63263 0.53051 0.0
C225 C 0.24639 0.69338 0.59591 0.0
C226 C 0.28888 0.7183 0.58538 0.0
C227 C 0.33061 0.72152 0.63816 0.0
C228 C 0.28978 0.69692 0.64855 0.0
C229 C 0.33159 0.71087 0.66935 0.0
C230 C 0.24699 0.70414 0.56399 0.0
C231 C 0.06517 0.63364 0.43494 0.0
C232 C 0.19163 0.67909 0.57772 0.0
C233 C 0.75546 0.6827 0.63111 0.0
C234 C 0.73579 0.68436 0.5785 0.0
C235 C 0.27918 0.63091 0.53377 0.0
C236 C 0.94784 0.56842 0.47537 0.0
C237 C 0.95146 0.54236 0.48122 0.0
C238 C 0.87392 0.5395 0.43963 0.0
C239 C 0.8705 0.56524 0.43418 0.0
C240 C 0.98762 0.55698 0.49923 0.0
C241 C 0.83349 0.55088 0.41671 0.0
C242 C 0.07978 0.62997 0.62981 0.0
C243 C 0.99366 0.58332 0.48922 0.0
H244 H 0.36258 0.73236 0.65528 0.0
H245 H 0.28934 0.68901 0.67432 0.0
H246 H 0.36368 0.71349 0.71009 0.0
H247 H 0.21246 0.70172 0.52361 0.0
H248 H 0.84597 0.52839 0.42369 0.0
H249 H 0.83969 0.57384 0.41489 0.0
H250 H 0.04807 0.55942 0.53076 0.0
H251 H 0.77455 0.54849 0.38447 0.0
Eu252 Eu 0.97377 0.39935 0.54644 0.0
C253 C 0.17213 0.34006 0.44375 0.0
N254 N 0.08254 0.34591 0.42932 0.0
C255 C 0.11034 0.33836 0.33749 0.0
C256 C 0.23507 0.33322 0.40502 0.0
C257 C 0.04983 0.34488 0.37718 0.0
C258 C 0.20344 0.33253 0.35144 0.0
C259 C 0.29447 0.33513 0.51338 0.0
C260 C 0.20202 0.34112 0.49761 0.0
C261 C 0.35662 0.32821 0.47479 0.0
C262 C 0.32732 0.3273 0.42084 0.0
Eu263 Eu 0.98564 0.35581 0.49965 0.0
N264 N 0.14182 0.34826 0.53448 0.0
C265 C 0.3217 0.33621 0.56758 0.0
C266 C 0.16579 0.34875 0.58717 0.0
C267 C 0.25666 0.34295 0.60457 0.0
H268 H 0.976 0.34874 0.36603 0.0
H269 H 0.27568 0.34346 0.64648 0.0
H270 H 0.97343 0.40542 0.67969 0.0
H271 H 0.69248 0.4122 0.39635 0.0
H272 H 0.11406 0.35315 0.61588 0.0
H273 H 0.39196 0.33168 0.58123 0.0
H274 H 0.85243 0.40244 0.42904 0.0
H275 H 0.08455 0.33767 0.29617 0.0
H276 H 0.42764 0.32353 0.48641 0.0
H277 H 0.37656 0.32198 0.39164 0.0
H278 H 0.8624 0.41667 0.74795 0.0
H279 H 0.24987 0.3274 0.32053 0.0
H280 H 0.57291 0.42389 0.45994 0.0
N281 N 0.87161 0.40871 0.61517 0.0
C282 C 0.78387 0.41486 0.59971 0.0
C283 C 0.83895 0.4161 0.70642 0.0
C284 C 0.71945 0.42177 0.63758 0.0
C285 C 0.90077 0.40944 0.66758 0.0
C286 C 0.74785 0.42227 0.69139 0.0
N287 N 0.81955 0.40698 0.50961 0.0
C288 C 0.79876 0.40669 0.45686 0.0
C289 C 0.66619 0.42018 0.52881 0.0
C290 C 0.75728 0.41401 0.54564 0.0
C291 C 0.64208 0.41925 0.47442 0.0
C292 C 0.70901 0.41257 0.43836 0.0
H293 H 0.70041 0.42751 0.72165 0.0
H294 H 0.57868 0.43332 0.64929 0.0
H295 H 0.53224 0.43196 0.5543 0.0
O296 O 1.02589 0.41778 0.51133 0.0
O297 O 0.82977 0.38582 0.55017 0.0
O298 O 0.83157 0.36536 0.483 0.0
O299 O 1.02421 0.42003 0.5969 0.0
O300 O 1.01043 0.39012 0.46139 0.0
O301 O 0.91929 0.36824 0.43834 0.0
O302 O 0.93417 0.33839 0.53819 0.0
O303 O 0.13091 0.36911 0.49637 0.0
O304 O 0.12889 0.39001 0.5618 0.0
O305 O 0.93468 0.33443 0.45284 0.0
O306 O 0.95103 0.36526 0.58464 0.0
O307 O 0.04228 0.38707 0.60768 0.0
C308 C 0.78234 0.3751 0.51539 0.0
C309 C 0.1011 0.44001 0.56851 0.0
C310 C 0.1104 0.46638 0.56765 0.0
C311 C 0.19699 0.46758 0.6039 0.0
C312 C 0.18769 0.44147 0.6042 0.0
C313 C 0.23582 0.45519 0.62136 0.0
C314 C 0.06429 0.45234 0.54937 0.0
C315 C 0.96623 0.37936 0.42561 0.0
C316 C 0.03854 0.42649 0.5578 0.0
C317 C 0.62893 0.42793 0.62072 0.0
C318 C 0.60241 0.42714 0.56658 0.0
C319 C 0.17793 0.38014 0.52985 0.0
C320 C 0.83061 0.3187 0.48798 0.0
C321 C 0.76641 0.29418 0.49026 0.0
C322 C 0.66944 0.29829 0.47309 0.0
C323 C 0.73365 0.32265 0.47042 0.0
C324 C 0.84692 0.30444 0.49751 0.0
C325 C 0.65354 0.31242 0.4628 0.0
C326 C 0.99818 0.37573 0.62043 0.0
C327 C 0.91743 0.32887 0.49375 0.0
H328 H 0.23339 0.47815 0.6202 0.0
H329 H 0.2161 0.43212 0.62001 0.0
H330 H 0.30168 0.45633 0.64966 0.0
H331 H 0.99737 0.451 0.52166 0.0
H332 H 0.60663 0.29047 0.46664 0.0
H333 H 0.72043 0.33351 0.46201 0.0
H334 H 0.92225 0.30129 0.51035 0.0
H335 H 0.57924 0.3154 0.44826 0.0
Eu336 Eu 0.57237 0.85793 0.01202 0.0
C337 C 0.79754 0.91764 0.11861 0.0
N338 N 0.70948 0.91175 0.12956 0.0
C339 C 0.75295 0.91966 0.22279 0.0
C340 C 0.86729 0.92473 0.16001 0.0
C341 C 0.68528 0.91292 0.18056 0.0
C342 C 0.84437 0.92558 0.21251 0.0
C343 C 0.90922 0.92254 0.05363 0.0
C344 C 0.81878 0.91645 0.06572 0.0
C345 C 0.97802 0.92976 0.09492 0.0
C346 C 0.95737 0.93079 0.14786 0.0
Eu347 Eu 0.60017 0.90198 0.05456 0.0
N348 N 0.75271 0.90894 0.02627 0.0
C349 C 0.92808 0.92114 1.0003 0.0
C350 C 0.76893 0.90793 0.97431 0.0
C351 C 0.8574 0.91386 0.96051 0.0
H352 H 0.61275 0.90908 0.18897 0.0
H353 H 0.87045 0.91299 0.91919 0.0
H354 H 0.56803 0.8459 0.88058 0.0
H355 H 0.31119 0.84494 0.1494 0.0
H356 H 0.71294 0.90285 0.94351 0.0
H357 H 0.99656 0.92573 0.98942 0.0
H358 H 0.46823 0.85467 0.12329 0.0
H359 H 0.73383 0.9205 0.26321 0.0
H360 H 0.04795 0.9345 0.08633 0.0
H361 H 1.01167 0.93633 0.17919 0.0
H362 H 0.4482 0.83423 0.80572 0.0
H363 H 0.89624 0.93091 0.24538 0.0
H364 H 0.18015 0.83295 0.0804 0.0
N365 N 0.46445 0.84608 0.9385 0.0
C366 C 0.37542 0.84065 0.94965 0.0
C367 C 0.42568 0.83624 0.84583 0.0
C368 C 0.30607 0.83318 0.90867 0.0
C369 C 0.49222 0.84337 0.88788 0.0
C370 C 0.33139 0.8313 0.85618 0.0
N371 N 0.4232 0.84947 0.041 0.0
C372 C 0.40992 0.8501 0.09312 0.0
C373 C 0.26473 0.83618 0.01528 0.0
C374 C 0.35491 0.84215 1.00237 0.0
C375 C 0.24826 0.83746 0.06883 0.0
C376 C 0.32175 0.84431 0.1079 0.0
H377 H 0.28025 0.82561 0.82362 0.0
H378 H 0.16072 0.82183 0.89044 0.0
H379 H 0.12459 0.82441 0.98371 0.0
O380 O 0.63935 0.84138 0.05661 0.0
O381 O 0.42393 0.87065 0.00842 0.0
O382 O 0.445 0.89332 0.06633 0.0
O383 O 0.62444 0.83734 0.96993 0.0
O384 O 0.62644 0.86876 0.09716 0.0
O385 O 0.54016 0.89053 0.11486 0.0
O386 O 0.54849 0.91913 0.00976 0.0
O387 O 0.74369 0.88823 0.06042 0.0
O388 O 0.71869 0.86772 0.99408 0.0
O389 O 0.56553 0.92382 0.09602 0.0
O390 O 0.53837 0.8918 0.97121 0.0
O391 O 0.61654 0.86958 0.94769 0.0
C392 C 0.38731 0.88247 0.03793 0.0
C393 C 0.6996 0.8178 0.00661 0.0
C394 C 0.73063 0.79454 0.0348 0.0
C395 C 0.77179 0.78902 0.98653 0.0
C396 C 0.74245 0.81207 0.95889 0.0
C397 C 0.77822 0.79778 0.94902 0.0
C398 C 0.69522 0.80905 0.04528 0.0
C399 C 0.58046 0.8789 0.12957 0.0
C400 C 0.65155 0.83226 0.01211 0.0
C401 C 0.21506 0.82755 0.92139 0.0
C402 C 0.19458 0.829 0.97453 0.0
C403 C 0.77919 0.87716 0.02696 0.0
C404 C 0.48568 0.9425 0.05619 0.0
C405 C 0.4553 0.96648 0.03161 0.0
C406 C 0.39094 0.96987 0.07287 0.0
C407 C 0.41988 0.94617 0.09646 0.0
C408 C 0.50353 0.95272 0.02369 0.0
C409 C 0.37334 0.9598 0.10479 0.0
C410 C 0.57553 0.88154 0.93568 0.0
C411 C 0.54676 0.92909 0.05316 0.0
H412 H 0.79993 0.77788 0.97809 0.0
H413 H 0.74688 0.81858 0.92858 0.0
H414 H 0.81025 0.79343 0.912 0.0
H415 H 0.66206 0.81328 0.08214 0.0
H416 H 0.35593 0.98054 0.08149 0.0
H417 H 0.40676 0.93868 0.12263 0.0
H418 H 0.55626 0.95012 0.99341 0.0
H419 H 0.32482 0.96271 0.13682 0.0
Eu420 Eu 0.46988 0.15083 0.03104 0.0
C421 C 0.25848 0.09681 0.05909 0.0
N422 N 0.35264 0.10222 0.079 0.0
C423 C 0.31606 0.09959 0.1662 0.0
C424 C 0.18836 0.09314 0.09287 0.0
C425 C 0.38397 0.10263 0.13108 0.0
C426 C 0.21732 0.09504 0.14718 0.0
C427 C 0.13757 0.08823 0.98275 0.0
C428 C 0.2329 0.0943 0.00436 0.0
C429 C 0.06711 0.08497 0.01662 0.0
C430 C 0.09232 0.08744 0.07145 0.0
Eu431 Eu 0.45867 0.10677 0.01425 0.0
N432 N 0.30116 0.09791 0.97218 0.0
C433 C 0.11632 0.08543 0.92754 0.0
C434 C 0.28318 0.09459 0.91832 0.0
C435 C 0.1898 0.08848 0.89519 0.0
H436 H 0.46202 0.10469 0.14579 0.0
H437 H 0.17471 0.08607 0.85249 0.0
H438 H 0.46485 0.15526 0.90377 0.0
H439 H 0.7403 0.17299 0.19988 0.0
H440 H 0.34084 0.09682 0.89356 0.0
H441 H 0.04404 0.08069 0.90945 0.0
H442 H 0.58265 0.16067 0.15576 0.0
H443 H 0.34087 0.10034 0.20767 0.0
H444 H 0.99318 0.08037 1.00076 0.0
H445 H 0.03742 0.08468 0.09693 0.0
H446 H 0.57894 0.16388 0.84582 0.0
H447 H 0.16534 0.09246 0.17441 0.0
H448 H 0.86225 0.18271 0.14734 0.0
N449 N 0.56965 0.15975 0.97222 0.0
C450 C 0.65734 0.16682 0.99447 0.0
C451 C 0.60266 0.16459 0.88731 0.0
C452 C 0.72282 0.17266 0.96312 0.0
C453 C 0.53967 0.15915 0.91996 0.0
C454 C 0.6951 0.17126 0.90883 0.0
N455 N 0.61759 0.16246 0.07835 0.0
C456 C 0.63658 0.16435 0.13201 0.0
C457 C 0.77223 0.17557 0.07273 0.0
C458 C 0.68185 0.16823 0.04886 0.0
C459 C 0.79374 0.1771 0.12754 0.0
C460 C 0.72528 0.17156 0.15731 0.0
H461 H 0.7434 0.17559 0.88344 0.0
H462 H 0.86455 0.18431 0.96331 0.0
H463 H 0.90772 0.18689 0.05915 0.0
O464 O 0.43836 0.17276 0.07602 0.0
O465 O 0.6178 0.13856 0.0093 0.0
O466 O 0.61608 0.11697 0.04182 0.0
O467 O 0.3571 0.16479 0.99972 0.0
O468 O 0.45823 0.14218 0.107 0.0
O469 O 0.53378 0.11931 0.09279 0.0
O470 O 0.53568 0.08914 0.96231 0.0
O471 O 0.31833 0.1198 0.9939 0.0
O472 O 0.33431 0.1402 0.05881 0.0
O473 O 0.46437 0.08451 0.02901 0.0
O474 O 0.50122 0.11522 0.94216 0.0
O475 O 0.41232 0.13694 0.95088 0.0
C476 C 0.6653 0.12773 0.02709 0.0
C477 C 0.38236 0.19071 0.02723 0.0
C478 C 0.35179 0.21714 0.04763 0.0
C479 C 0.40266 0.21877 1.00348 0.0
C480 C 0.43102 0.19267 0.98287 0.0
C481 C 0.44156 0.2066 0.97125 0.0
C482 C 0.34145 0.20304 0.05953 0.0
C483 C 0.50928 0.13162 0.12414 0.0
C484 C 0.37306 0.17589 0.0396 0.0
C485 C 0.81332 0.17979 0.98683 0.0
C486 C 0.83788 0.18126 0.04143 0.0
C487 C 0.27647 0.1302 0.027 0.0
C488 C 0.59542 0.06905 1.00127 0.0
C489 C 0.64683 0.04362 1.0019 0.0
C490 C 0.72824 0.04932 0.03913 0.0
C491 C 0.67767 0.07434 0.03764 0.0
C492 C 0.58066 0.05374 0.98298 0.0
C493 C 0.74389 0.06449 0.05623 0.0
C494 C 0.46097 0.12616 0.92241 0.0
C495 C 0.51557 0.07915 0.98928 0.0
H496 H 0.40945 0.22947 0.99294 0.0
H497 H 0.45982 0.18348 0.95659 0.0
H498 H 0.47876 0.20792 0.93668 0.0
H499 H 0.30137 0.20167 0.09321 0.0
H500 H 0.7785 0.0421 0.05678 0.0
H501 H 0.68833 0.08605 0.05311 0.0
H502 H 0.51593 0.04981 0.95534 0.0
H503 H 0.80599 0.06861 0.08533 0.0
Eu504 Eu 0.57719 0.15362 0.55735 0.0
C505 C 0.77987 0.09515 0.45333 0.0
N506 N 0.69094 0.10102 0.43798 0.0
C507 C 0.72226 0.09357 0.34662 0.0
C508 C 0.84426 0.08835 0.41526 0.0
C509 C 0.66044 0.10011 0.38564 0.0
C510 C 0.81458 0.08768 0.36146 0.0
C511 C 0.89996 0.09023 0.52403 0.0
C512 C 0.80765 0.09613 0.50747 0.0
C513 C 0.96369 0.08339 0.48602 0.0
C514 C 0.93594 0.08245 0.4319 0.0
Eu515 Eu 0.58871 0.10959 0.50704 0.0
N516 N 0.74521 0.10295 0.54381 0.0
C517 C 0.92519 0.09126 0.57839 0.0
C518 C 0.76703 0.10333 0.5965 0.0
C519 C 0.8581 0.09775 0.61473 0.0
H520 H 0.58691 0.10393 0.37378 0.0
H521 H 0.87545 0.09816 0.65671 0.0
H522 H 0.60286 0.15934 0.69178 0.0
H523 H 0.29492 0.17406 0.42672 0.0
H524 H 0.71296 0.10737 0.62431 0.0
H525 H 0.99532 0.08682 0.59265 0.0
H526 H 0.45511 0.16243 0.45115 0.0
H527 H 0.69791 0.09286 0.30512 0.0
H528 H 0.03478 0.07878 0.49809 0.0
H529 H 0.98617 0.07714 0.40317 0.0
H530 H 0.50035 0.1688 0.7661 0.0
H531 H 0.86197 0.08251 0.33106 0.0
H532 H 0.17896 0.18333 0.49578 0.0
N533 N 0.48897 0.16278 0.63256 0.0
C534 C 0.39837 0.16902 0.62244 0.0
C535 C 0.47035 0.16875 0.72587 0.0
C536 C 0.33891 0.17502 0.66399 0.0
C537 C 0.52743 0.16314 0.6835 0.0
C538 C 0.3752 0.17456 0.71609 0.0
N539 N 0.42403 0.1637 0.53091 0.0
C540 C 0.40208 0.16572 0.48047 0.0
C541 C 0.27495 0.17673 0.55879 0.0
C542 C 0.36602 0.16977 0.57035 0.0
C543 C 0.24802 0.17795 0.50622 0.0
C544 C 0.31282 0.17263 0.46703 0.0
H545 H 0.33167 0.17902 0.74911 0.0
H546 H 0.19952 0.18618 0.68379 0.0
H547 H 0.14458 0.18782 0.59173 0.0
O548 O 0.64597 0.16974 0.51834 0.0
O549 O 0.4243 0.14143 0.54774 0.0
O550 O 0.4273 0.11736 0.49942 0.0
O551 O 0.62477 0.17538 0.60211 0.0
O552 O 0.59689 0.14431 0.46977 0.0
O553 O 0.51474 0.12154 0.446 0.0
O554 O 0.55501 0.09013 0.5406 0.0
O555 O 0.72679 0.12425 0.5017 0.0
O556 O 0.72721 0.14313 0.57412 0.0
O557 O 0.54024 0.08885 0.4556 0.0
O558 O 0.54545 0.11834 0.59107 0.0
O559 O 0.63804 0.13997 0.61629 0.0
C560 C 0.37921 0.12898 0.52292 0.0
C561 C 0.73854 0.19052 0.57013 0.0
C562 C 0.80026 0.21537 0.57071 0.0
C563 C 0.89559 0.21169 0.59166 0.0
C564 C 0.83368 0.18703 0.59162 0.0
C565 C 0.91177 0.19762 0.60244 0.0
C566 C 0.72179 0.20474 0.56011 0.0
C567 C 0.54354 0.13415 0.43528 0.0
C568 C 0.6532 0.18 0.56117 0.0
C569 C 0.24638 0.18156 0.65239 0.0
C570 C 0.21487 0.18248 0.59999 0.0
C571 C 0.77577 0.13428 0.53867 0.0
C572 C 0.46532 0.06911 0.48604 0.0
C573 C 0.43368 0.0436 0.49305 0.0
C574 C 0.34361 0.04346 0.46042 0.0
C575 C 0.37464 0.06877 0.45362 0.0
C576 C 0.49453 0.05647 0.50584 0.0
C577 C 0.31432 0.05598 0.44088 0.0
C578 C 0.58592 0.12915 0.62784 0.0
C579 C 0.53668 0.08169 0.49392 0.0
H580 H 0.95673 0.2198 0.60065 0.0
H581 H 0.84689 0.17624 0.60066 0.0
H582 H 0.98456 0.19498 0.61993 0.0
H583 H 0.64759 0.20757 0.54445 0.0
H584 H 0.29624 0.0336 0.44985 0.0
H585 H 0.35165 0.07827 0.4372 0.0
H586 H 0.56526 0.05654 0.53022 0.0
H587 H 0.24513 0.05572 0.41532 0.0
Eu588 Eu 0.47714 0.9009 0.54682 0.0
C589 C 0.65738 0.83967 0.42998 0.0
N590 N 0.56742 0.84623 0.42103 0.0
C591 C 0.57397 0.83851 0.32718 0.0
C592 C 0.70897 0.83221 0.38727 0.0
C593 C 0.5241 0.84546 0.37069 0.0
C594 C 0.66677 0.83186 0.33547 0.0
C595 C 0.79054 0.83352 0.49227 0.0
C596 C 0.69805 0.84037 0.48214 0.0
C597 C 0.84068 0.82582 0.44974 0.0
C598 C 0.80042 0.82524 0.39746 0.0
Eu599 Eu 0.48796 0.85641 0.49789 0.0
N600 N 0.65016 0.8484 0.52272 0.0
C601 C 0.83117 0.83489 0.54486 0.0
C602 C 0.69102 0.85013 0.5738 0.0
C603 C 0.7816 0.84334 0.58572 0.0
H604 H 0.44979 0.84985 0.36407 0.0
H605 H 0.81341 0.84471 0.62641 0.0
H606 H 0.49117 0.91454 0.67769 0.0
H607 H 0.19982 0.91192 0.39145 0.0
H608 H 0.6556 0.857 0.60522 0.0
H609 H 0.90179 0.82973 0.55423 0.0
H610 H 0.36253 0.90383 0.42815 0.0
H611 H 0.53996 0.83806 0.28729 0.0
H612 H 0.91164 0.82046 0.45683 0.0
H613 H 0.84073 0.81938 0.36511 0.0
H614 H 0.3818 0.92745 0.74427 0.0
H615 H 0.70457 0.82632 0.30163 0.0
H616 H 0.07445 0.92334 0.45216 0.0
N617 N 0.3795 0.91351 0.6131 0.0
C618 C 0.28839 0.91831 0.59607 0.0
C619 C 0.35391 0.92478 0.70284 0.0
C620 C 0.22441 0.92611 0.63248 0.0
C621 C 0.4149 0.91722 0.66519 0.0
C622 C 0.25754 0.92907 0.68651 0.0
N623 N 0.32466 0.90858 0.50758 0.0
C624 C 0.30583 0.90774 0.45446 0.0
C625 C 0.16774 0.9212 0.52303 0.0
C626 C 0.26032 0.91584 0.54187 0.0
C627 C 0.14457 0.91932 0.46822 0.0
C628 C 0.21477 0.91278 0.43381 0.0
H629 H 0.21062 0.93502 0.7157 0.0
H630 H 0.08039 0.93695 0.64123 0.0
H631 H 1.03085 0.93268 0.54548 0.0
O632 O 0.51314 0.92082 0.51529 0.0
O633 O 0.33413 0.88753 0.55366 0.0
O634 O 0.33561 0.86716 0.48554 0.0
O635 O 0.56696 0.91887 0.5958 0.0
O636 O 0.51821 0.89104 0.46324 0.0
O637 O 0.41877 0.87002 0.44145 0.0
O638 O 0.41025 0.84012 0.53458 0.0
O639 O 0.63512 0.86951 0.49772 0.0
O640 O 0.62912 0.89057 0.56224 0.0
O641 O 0.45518 0.83422 0.45493 0.0
O642 O 0.47819 0.86388 0.58627 0.0
O643 O 0.51289 0.88919 0.61484 0.0
C644 C 0.28713 0.87642 0.52028 0.0
C645 C 0.61192 0.94167 0.57099 0.0
C646 C 0.62198 0.96734 0.5612 0.0
C647 C 0.70261 0.96984 0.60077 0.0
C648 C 0.69314 0.94449 0.6104 0.0
C649 C 0.73814 0.95846 0.62502 0.0
C650 C 0.57662 0.95317 0.54597 0.0
C651 C 0.47123 0.88046 0.42791 0.0
C652 C 0.56022 0.9271 0.5605 0.0
C653 C 0.13077 0.93102 0.61383 0.0
C654 C 0.10255 0.92858 0.55927 0.0
C655 C 0.67973 0.8809 0.53044 0.0
C656 C 0.33555 0.81815 0.47641 0.0
C657 C 0.2743 0.79345 0.47941 0.0
C658 C 0.21407 0.79318 0.43197 0.0
C659 C 0.27306 0.81775 0.42941 0.0
C660 C 0.33499 0.80599 0.50171 0.0
C661 C 0.21303 0.8053 0.40736 0.0
C662 C 0.49667 0.8758 0.62336 0.0
C663 C 0.41545 0.82963 0.49293 0.0
H664 H 0.73794 0.98068 0.61301 0.0
H665 H 0.72137 0.9359 0.63048 0.0
H666 H 0.80022 0.96051 0.65564 0.0
H667 H 0.51299 0.95126 0.51612 0.0
H668 H 0.16739 0.78358 0.41417 0.0
H669 H 0.27374 0.82682 0.4086 0.0
H670 H 0.38411 0.80605 0.5375 0.0
H671 H 0.1667 0.80496 0.37059 0.0
H672 H 0.43868 0.36718 0.08081 0.0
H673 H 0.37787 0.39273 0.95966 0.0
H674 H 0.55805 0.39608 0.95386 0.0
H675 H 0.73538 0.39135 0.98185 0.0
H676 H 0.79692 0.36481 0.09943 0.0
H677 H 0.61611 0.3616 0.10618 0.0
C678 C 0.46488 0.37339 0.05292 0.0
C679 C 0.39424 0.38024 0.02235 0.0
C680 C 0.56959 0.37481 0.04826 0.0
C681 C 0.43005 0.38801 0.98574 0.0
C682 C 0.53353 0.38975 0.98175 0.0
C683 C 0.70886 0.38491 0.009 0.0
C684 C 0.7793 0.37795 0.03909 0.0
C685 C 0.60424 0.38326 0.01298 0.0
C686 C 0.74405 0.3697 0.07423 0.0
C687 C 0.64051 0.36806 0.07868 0.0
H688 H 0.30807 0.64732 0.99738 0.0
H689 H 0.2828 0.6081 0.06249 0.0
H690 H 0.46539 0.60602 0.06917 0.0
H691 H 0.63343 0.61574 0.06063 0.0
H692 H 0.66486 0.65473 0.99658 0.0
H693 H 0.47966 0.65706 0.98832 0.0
C694 C 0.3421 0.63847 0.01385 0.0
C695 C 0.27981 0.62811 0.03041 0.0
C696 C 0.44898 0.63737 0.01834 0.0
C697 C 0.32709 0.6164 0.04983 0.0
C698 C 0.43232 0.61515 0.05372 0.0
C699 C 0.60021 0.62444 0.04329 0.0
C700 C 0.66337 0.63473 0.02784 0.0
C701 C 0.49406 0.62559 0.03845 0.0
C702 C 0.61817 0.64658 0.0086 0.0
C703 C 0.51214 0.64786 1.00366 0.0
H704 H 0.74797 0.61943 0.58008 0.0
H705 H 0.77142 0.64778 0.46785 0.0
H706 H 0.58812 0.65032 0.46007 0.0
H707 H 0.41844 0.6441 0.48378 0.0
H708 H 0.39598 0.6165 0.59855 0.0
H709 H 0.57881 0.61368 0.60532 0.0
C710 C 0.71289 0.6261 0.55374 0.0
C711 C 0.77425 0.63358 0.52518 0.0
C712 C 0.60642 0.62747 0.54923 0.0
C713 C 0.7269 0.6422 0.49136 0.0
C714 C 0.62153 0.64356 0.4865 0.0
C715 C 0.45357 0.63752 0.51043 0.0
C716 C 0.39227 0.63014 0.53941 0.0
C717 C 0.56017 0.63626 0.51524 0.0
C718 C 0.44005 0.62182 0.57412 0.0
C719 C 0.54529 0.62034 0.57855 0.0
H720 H 0.65151 0.3909 0.58133 0.0
H721 H 0.65657 0.35693 0.44065 0.0
H722 H 0.47215 0.35536 0.43294 0.0
H723 H 0.30853 0.36428 0.46394 0.0
H724 H 0.30353 0.39866 0.60349 0.0
H725 H 0.48803 0.40006 0.6116 0.0
C726 C 0.61272 0.38334 0.54836 0.0
C727 C 0.66914 0.37418 0.51136 0.0
C728 C 0.50595 0.38273 0.54336 0.0
C729 C 0.61618 0.36413 0.46994 0.0
C730 C 0.51023 0.36327 0.46525 0.0
C731 C 0.3474 0.37191 0.4967 0.0
C732 C 0.29104 0.38113 0.53357 0.0
C733 C 0.45417 0.37257 0.50154 0.0
C734 C 0.34396 0.39131 0.57461 0.0
C735 C 0.44993 0.39211 0.57944 0.0
H736 H 0.93196 0.89352 0.09045 0.0
H737 H 0.87998 0.85744 0.95658 0.0
H738 H 0.0618 0.85575 0.94836 0.0
H739 H 0.2356 0.86526 0.97639 0.0
H740 H 0.28609 0.9018 0.1089 0.0
H741 H 0.10483 0.90312 0.11807 0.0
C742 C 0.95967 0.8855 0.05867 0.0
C743 C 0.89098 0.87591 0.02343 0.0
C744 C 0.06456 0.8848 0.05329 0.0
C745 C 0.9301 0.86513 0.98405 0.0
C746 C 0.03444 0.86416 0.97916 0.0
C747 C 0.20746 0.87337 0.00781 0.0
C748 C 0.27567 0.88327 0.04225 0.0
C749 C 0.10245 0.87404 0.01321 0.0
C750 C 0.23632 0.89399 0.08171 0.0
C751 C 0.13227 0.89473 0.08719 0.0
H752 H 0.13764 0.12227 0.08929 0.0
H753 H 0.16162 0.14184 0.95303 0.0
H754 H 0.97637 0.1438 0.94215 0.0
H755 H 0.80487 0.13916 0.97025 0.0
H756 H 0.78461 0.11612 0.0988 0.0
H757 H 0.96846 0.11599 0.11299 0.0
C758 C 0.10227 0.1268 0.05689 0.0
C759 C 0.16381 0.13191 0.0221 0.0
C760 C 0.99523 0.12719 0.04932 0.0
C761 C 0.11633 0.13792 0.98062 0.0
C762 C 1.01013 0.13897 0.97428 0.0
C763 C 0.84068 0.13416 1.00146 0.0
C764 C 0.77944 0.12783 0.03387 0.0
C765 C 0.94825 0.13356 0.00821 0.0
C766 C 0.82842 0.12119 0.07345 0.0
C767 C 0.93426 0.12108 0.08165 0.0
H768 H 0.25009 0.14524 0.58811 0.0
H769 H 0.25338 0.1108 0.4487 0.0
H770 H 0.06863 0.1098 0.44002 0.0
H771 H 0.90574 0.11918 0.4704 0.0
H772 H 0.9024 0.15211 0.614 0.0
H773 H 0.08672 0.15389 0.62061 0.0
C774 C 0.21059 0.13766 0.5554 0.0
C775 C 0.2663 0.12828 0.51867 0.0
C776 C 0.10385 0.13701 0.5509 0.0
C777 C 0.21308 0.11819 0.47755 0.0
C778 C 0.10711 0.11763 0.47243 0.0
C779 C 0.94485 0.12649 0.5039 0.0
C780 C 0.88892 0.13533 0.54194 0.0
C781 C 0.05159 0.12701 0.50878 0.0
C782 C 0.94236 0.14516 0.58389 0.0
C783 C 0.04828 0.14613 0.58797 0.0
H784 H 0.8147 0.86331 0.47245 0.0
H785 H 0.8023 0.90217 0.59525 0.0
H786 H 0.98679 0.90417 0.6035 0.0
H787 H 0.15279 0.89429 0.57862 0.0
H788 H 0.16393 0.85521 0.45652 0.0
H789 H 0.97975 0.85328 0.44841 0.0
C790 C 0.85175 0.872 0.50205 0.0
C791 C 0.79315 0.88228 0.53422 0.0
C792 C 0.95854 0.87293 0.50743 0.0
C793 C 0.84424 0.89391 0.57039 0.0
C794 C 0.95029 0.89506 0.57525 0.0
C795 C 0.11542 0.88551 0.5495 0.0
C796 C 0.17373 0.87516 0.51737 0.0
C797 C 1.00846 0.88456 0.54432 0.0
C798 C 0.12232 0.86352 0.48136 0.0
C799 C 1.01641 0.8624 0.47655 0.0
H800 H 0.10204 0.51702 0.93053 0.0
H801 H 0.07016 0.54095 0.08922 0.0
H802 H 1.00988 0.5186 0.11445 0.0
H803 H 0.96418 0.49248 0.09153 0.0
H804 H 0.99238 0.46802 0.93329 0.0
H805 H 0.05579 0.49027 0.90735 0.0
C806 C 0.08215 0.51721 0.97056 0.0
C807 C 0.09058 0.53049 0.00824 0.0
C808 C 0.04633 0.5043 0.98462 0.0
C809 C 0.06393 0.53079 0.05984 0.0
C810 C 1.02952 0.51805 0.0742 0.0
C811 C 0.98342 0.49207 0.05124 0.0
C812 C 0.97247 0.47875 0.01419 0.0
C813 C 1.01983 0.5048 0.03692 0.0
C814 C 1.00008 0.47822 0.96244 0.0
C815 C 0.03615 0.49092 0.94764 0.0
H816 H 0.20842 0.49138 0.55428 0.0
H817 H 0.9092 0.47194 0.54529 0.0
H818 H 0.83533 0.49369 0.51946 0.0
H819 H 0.85394 0.51835 0.50067 0.0
H820 H 0.15156 0.5382 0.5114 0.0
H821 H 0.22643 0.51658 0.5392 0.0
C822 C 0.1269 0.49191 0.54757 0.0
C823 C 0.06529 0.4798 0.5515 0.0
C824 C 0.08399 0.5047 0.53418 0.0
C825 C 0.95967 0.48078 0.5414 0.0
C826 C 0.91679 0.49335 0.52727 0.0
C827 C 0.93534 0.51794 0.50868 0.0
C828 C 0.99679 0.52987 0.50324 0.0
C829 C 0.97815 0.50536 0.52354 0.0
C830 C 0.10194 0.52927 0.51547 0.0
C831 C 0.14506 0.51682 0.53084 0.0
H832 H 0.63863 0.97645 0.00906 0.0
H833 H 0.31745 0.98287 0.98596 0.0
H834 H 0.34782 0.00712 0.96631 0.0
H835 H 0.46414 0.02836 0.97704 0.0
H836 H 0.78648 0.02146 0.99202 0.0
H837 H 0.75666 0.99562 0.99343 0.0
C838 C 0.57541 0.98292 0.99782 0.0
C839 C 0.4758 0.97813 1.0012 0.0
C840 C 0.5934 0.997 0.98695 0.0
C841 C 0.39487 0.98655 0.98543 0.0
C842 C 0.41215 1.00046 0.97442 0.0
C843 C 0.52844 0.02123 0.97889 0.0
C844 C 0.62768 0.02724 0.98755 0.0
C845 C 0.511 0.00619 0.97854 0.0
C846 C 0.709 0.01747 0.98862 0.0
C847 C 0.69217 1.00257 0.98888 0.0
H848 H 0.56564 0.02267 0.45386 0.0
H849 H 0.36239 0.0345 0.57643 0.0
H850 H 0.39637 0.0113 0.60624 0.0
H851 H 0.48507 0.98761 0.59751 0.0
H852 H 0.68721 0.97559 0.4746 0.0
H853 H 0.65219 0.99869 0.4441 0.0
C854 C 0.52977 0.02014 0.48733 0.0
C855 C 0.46248 0.03022 0.51344 0.0
C856 C 0.54832 0.00666 0.50348 0.0
C857 C 0.41517 0.02688 0.55631 0.0
C858 C 0.4341 0.01361 0.57304 0.0
C859 C 0.51945 0.98998 0.56335 0.0
C860 C 0.58668 0.97988 0.53739 0.0
C861 C 0.49996 1.00336 0.54672 0.0
C862 C 0.63328 0.98312 0.49413 0.0
C863 C 0.6141 0.99638 0.47717 0.0
H864 H 0.11794 0.27259 0.04623 0.0
H865 H 0.41292 0.29142 0.10291 0.0
H866 H 0.46509 0.2685 0.1296 0.0
H867 H 0.44267 0.24153 0.1083 0.0
H868 H 0.15079 0.22235 0.04659 0.0
H869 H 0.07968 0.2469 0.05217 0.0
C870 C 0.19142 0.27191 0.06738 0.0
C871 C 0.26229 0.28349 0.072 0.0
C872 C 0.22203 0.25845 0.08039 0.0
C873 C 0.35747 0.28259 0.09907 0.0
C874 C 0.38774 0.26939 0.11351 0.0
C875 C 0.36225 0.24279 0.09901 0.0
C876 C 0.3022 0.23027 0.07615 0.0
C877 C 0.3233 0.25694 0.10025 0.0
C878 C 0.19824 0.23189 0.06409 0.0
C879 C 0.15803 0.24595 0.06654 0.0
H880 H 0.60436 0.77152 0.03047 0.0
H881 H 0.86175 0.79505 0.12105 0.0
H882 H 0.91777 0.77268 0.15075 0.0
H883 H 0.92094 0.74564 0.12611 0.0
H884 H 0.6698 0.72195 0.02968 0.0
H885 H 0.58178 0.74503 0.02825 0.0
C886 C 0.66924 0.77188 0.05926 0.0
C887 C 0.72998 0.78472 0.07312 0.0
C888 C 0.70349 0.7588 0.07374 0.0
C889 C 0.81419 0.78522 0.11005 0.0
C890 C 0.84706 0.77236 0.12624 0.0
C891 C 0.84481 0.74555 0.10704 0.0
C892 C 0.80257 0.73228 0.07695 0.0
C893 C 0.79674 0.7589 0.10469 0.0
C894 C 0.70378 0.73211 0.05273 0.0
C895 C 0.65404 0.74533 0.0514 0.0
H896 H 0.17582 0.74266 0.59878 0.0
H897 H 0.40679 0.7208 0.50612 0.0
H898 H 0.42831 0.74259 0.46687 0.0
H899 H 0.3828 0.76828 0.46074 0.0
H900 H 0.1518 0.78989 0.5542 0.0
H901 H 0.12831 0.76789 0.59148 0.0
C902 C 0.22934 0.74263 0.56918 0.0
C903 C 0.28853 0.73015 0.55451 0.0
C904 C 0.24204 0.75523 0.54763 0.0
C905 C 0.35895 0.73021 0.5169 0.0
C906 C 0.37197 0.74271 0.49503 0.0
C907 C 0.32835 0.76814 0.48975 0.0
C908 C 0.27003 0.78067 0.50561 0.0
C909 C 0.31469 0.75537 0.51055 0.0
C910 C 0.19853 0.78041 0.54244 0.0
C911 C 0.18461 0.76782 0.56333 0.0
H912 H 0.69254 0.28153 0.56545 0.0
H913 H 0.8786 0.27312 0.43412 0.0
H914 H 0.9034 0.24772 0.44622 0.0
H915 H 0.87324 0.22795 0.49516 0.0
H916 H 0.68782 0.2364 0.62672 0.0
H917 H 0.66252 0.26178 0.61443 0.0
C918 C 0.73854 0.27408 0.53969 0.0
C919 C 0.78386 0.27906 0.49905 0.0
C920 C 0.75288 0.25957 0.54721 0.0
C921 C 0.8438 0.26945 0.46589 0.0
C922 C 0.85768 0.25496 0.47273 0.0
C923 C 0.82717 0.2354 0.52087 0.0
C924 C 0.78214 0.23044 0.56163 0.0
C925 C 0.8128 0.24991 0.51334 0.0
C926 C 0.72233 0.24005 0.59484 0.0
C927 C 0.70817 0.25453 0.5879 0.0
H928 H 0.91597 0.38105 0.18146 0.0
H929 H 0.23862 0.37548 0.19937 0.0
H930 H 0.23159 0.37597 0.29419 0.0
H931 H 0.13334 0.37825 0.37241 0.0
H932 H 0.80855 0.38046 0.35245 0.0
H933 H 0.81586 0.38111 0.25827 0.0
C934 C 0.98443 0.37993 0.20633 0.0
C935 C 0.07779 0.37836 0.18396 0.0
C936 C 0.97922 0.37972 0.26039 0.0
C937 C 0.166 0.37666 0.21599 0.0
C938 C 0.16204 0.37701 0.27014 0.0
C939 C 0.06452 0.37897 0.34727 0.0
C940 C 0.97077 0.37967 0.36906 0.0
C941 C 0.06918 0.37861 0.29284 0.0
C942 C 0.88152 0.38012 0.33627 0.0
C943 C 0.88574 0.38045 0.28255 0.0
H944 H 0.8806 0.63787 0.20507 0.0
H945 H 0.19483 0.63403 0.1749 0.0
H946 H 0.24262 0.63478 0.2692 0.0
H947 H 0.19363 0.63518 0.35977 0.0
H948 H 0.87776 0.63567 0.38731 0.0
H949 H 0.83129 0.63761 0.29512 0.0
C950 C 0.95947 0.63745 0.2196 0.0
C951 C 0.03449 0.63614 0.18376 0.0
C952 C 0.9857 0.63718 0.27336 0.0
C953 C 0.13627 0.63517 0.20225 0.0
C954 C 0.16344 0.63555 0.256 0.0
C955 C 0.1149 0.6359 0.34547 0.0
C956 C 0.0391 0.63549 0.38002 0.0
C957 C 0.08874 0.63637 0.29187 0.0
C958 C 0.9371 0.63603 0.36114 0.0
C959 C 0.91061 0.63714 0.30855 0.0
H960 H 0.13115 0.62764 0.87389 0.0
H961 H 0.80566 0.62759 0.85159 0.0
H962 H 0.81361 0.62777 0.75719 0.0
H963 H 0.91336 0.62817 0.6812 0.0
H964 H 0.23848 0.63129 0.70506 0.0
H965 H 0.23144 0.62983 0.79871 0.0
C966 C 0.06227 0.62751 0.84798 0.0
C967 C 0.96778 0.62735 0.86897 0.0
C968 C 0.06771 0.62829 0.79436 0.0
C969 C 0.87888 0.62761 0.83585 0.0
C970 C 0.88353 0.62775 0.78208 0.0
C971 C 0.98248 0.62848 0.70705 0.0
C972 C 0.07631 0.62964 0.68656 0.0
C973 C 0.97742 0.62812 0.76093 0.0
C974 C 0.16553 0.63037 0.72029 0.0
C975 C 0.16142 0.62949 0.77364 0.0
H976 H 0.14435 0.38594 0.69958 0.0
H977 H 0.85464 0.36332 0.66779 0.0
H978 H 0.85155 0.36258 0.76177 0.0
H979 H 0.92891 0.36906 0.85368 0.0
H980 H 0.22708 0.38889 0.88422 0.0
H981 H 0.22848 0.3905 0.79056 0.0
C982 C 0.08062 0.38087 0.71338 0.0
C983 C 0.99928 0.37484 0.67703 0.0
C984 C 0.08043 0.38019 0.7673 0.0
C985 C 0.91798 0.36806 0.6951 0.0
C986 C 0.91595 0.36769 0.74882 0.0
C987 C 0.99432 0.37359 0.83947 0.0
C988 C 0.0774 0.37896 0.87529 0.0
C989 C 0.99633 0.37381 0.78532 0.0
C990 C 0.16201 0.38484 0.85703 0.0
C991 C 0.16292 0.38568 0.80357 0.0
H992 H 0.41972 0.88377 0.18651 0.0
H993 H 0.73221 0.87115 0.19608 0.0
H994 H 0.72759 0.87125 0.29106 0.0
H995 H 0.63488 0.87599 0.372 0.0
H996 H 0.31479 0.88397 0.35738 0.0
H997 H 0.32187 0.88507 0.26387 0.0
C998 C 0.48661 0.88103 0.20959 0.0
C999 C 0.57664 0.87772 0.18521 0.0
C1000 C 0.48213 0.88059 0.26319 0.0
C1001 C 0.66239 0.87381 0.21458 0.0
C1002 C 0.65983 0.87394 0.26871 0.0
C1003 C 0.56718 0.87803 0.34808 0.0
C1004 C 0.47539 0.88055 0.37144 0.0
C1005 C 0.57042 0.87753 0.29357 0.0
C1006 C 0.3868 0.88253 0.34024 0.0
C1007 C 0.39065 0.88301 0.28682 0.0
H1008 H 0.39318 0.14228 0.20446 0.0
H1009 H 0.68348 0.12338 0.17232 0.0
H1010 H 0.72413 0.12373 0.26675 0.0
H1011 H 0.67407 0.12867 0.35866 0.0
H1012 H 0.37131 0.14295 0.38735 0.0
H1013 H 0.33945 0.14576 0.2952 0.0
C1014 C 0.46584 0.13847 0.21841 0.0
C1015 C 0.53589 0.13301 0.18175 0.0
C1016 C 0.48656 0.13804 0.27244 0.0
C1017 C 0.62878 0.12773 0.19996 0.0
C1018 C 0.65196 0.12791 0.25392 0.0
C1019 C 0.60129 0.1324 0.34451 0.0
C1020 C 0.526 0.13602 0.37984 0.0
C1021 C 0.58101 0.13291 0.29051 0.0
C1022 C 0.43137 0.14057 0.36114 0.0
C1023 C 0.41281 0.14202 0.30834 0.0
H1024 H 0.62842 0.12324 0.8684 0.0
H1025 H 0.30699 0.12983 0.85045 0.0
H1026 H 0.31673 0.13096 0.75691 0.0
H1027 H 0.41729 0.12991 0.67989 0.0
H1028 H 0.74166 0.12718 0.70158 0.0
H1029 H 0.73098 0.12456 0.79362 0.0
C1030 C 0.56055 0.12468 0.84356 0.0
C1031 C 0.46664 0.12602 0.86546 0.0
C1032 C 0.56758 0.12599 0.79058 0.0
C1033 C 0.3796 0.12849 0.83386 0.0
C1034 C 0.38529 0.12919 0.78057 0.0
C1035 C 0.48529 0.12866 0.70493 0.0
C1036 C 0.57979 0.12828 0.68394 0.0
C1037 C 0.4788 0.12791 0.75844 0.0
C1038 C 0.66801 0.12721 0.71686 0.0
C1039 C 0.66189 0.12574 0.76942 0.0
H1040 H 0.45221 0.89524 0.7109 0.0
H1041 H 0.55412 0.851 0.66195 0.0
H1042 H 0.60383 0.84984 0.75409 0.0
H1043 H 0.63212 0.86257 0.84758 0.0
H1044 H 0.49505 0.90474 0.89698 0.0
H1045 H 0.45783 0.90655 0.80465 0.0
C1046 C 0.48843 0.8856 0.72004 0.0
C1047 C 0.50848 0.87387 0.67908 0.0
C1048 C 0.51295 0.88485 0.77305 0.0
C1049 C 0.54464 0.86067 0.69225 0.0
C1050 C 0.57258 0.85995 0.74503 0.0
C1051 C 0.58846 0.87171 0.83862 0.0
C1052 C 0.56097 0.88301 0.87958 0.0
C1053 C 0.55914 0.87213 0.78562 0.0
C1054 C 0.51478 0.89563 0.86646 0.0
C1055 C 0.49272 0.89665 0.81365 0.0
loop_
_geom_bond_atom_site_label_1
_geom_bond_atom_site_label_2
_geom_bond_distance
_geom_bond_site_symmetry_2
_ccdc_geom_bond_type
Eu0 N29 2.600 1_455 S
Eu0 N35 2.562 1_456 S
Eu0 O44 2.462 1_556 S
Eu0 O45 2.373 1_455 S
Eu0 O47 2.432 . S
Eu0 O48 2.291 1_556 S
Eu0 O52 2.335 1_556 S
Eu0 O55 2.372 . S
Eu0 C64 2.787 . S
C1 N2 1.365 . S
C1 C4 1.405 . S
C1 C8 1.448 . S
N2 C1 1.365 . S
N2 C5 1.319 . S
N2 Eu11 2.600 . S
C3 C5 1.397 . S
C3 C6 1.367 . S
C3 H23 0.931 . S
C4 C1 1.405 . S
C4 C6 1.403 . S
C4 C10 1.439 . S
C5 N2 1.319 . S
C5 C3 1.397 . S
C5 H16 0.930 . S
C6 C3 1.367 . S
C6 C4 1.403 . S
C6 H27 0.929 . S
C7 C8 1.430 . S
C7 C9 1.387 . S
C7 C13 1.404 . S
C8 C1 1.448 . S
C8 C7 1.430 . S
C8 N12 1.351 . S
C9 C7 1.387 . S
C9 C10 1.374 . S
C9 H24 0.931 . S
C10 C4 1.439 . S
C10 C9 1.374 . S
C10 H25 0.931 . S
Eu11 N2 2.600 . S
Eu11 N12 2.562 . S
Eu11 O46 2.335 1_455 S
Eu11 O49 2.372 . S
Eu11 O50 2.462 . S
Eu11 O51 2.373 . S
Eu11 O53 2.432 . S
Eu11 O54 2.291 1_554 S
Eu11 C75 2.787 1_455 S
N12 C8 1.351 . S
N12 Eu11 2.562 . S
N12 C14 1.325 1_554 S
C13 C7 1.404 . S
C13 C15 1.366 1_554 S
C13 H21 0.930 1_554 S
C14 N12 1.325 1_556 S
C14 C15 1.416 . S
C14 H20 0.929 . S
C15 C13 1.366 1_556 S
C15 C14 1.416 . S
C15 H17 0.930 . S
H16 C5 0.930 . S
H17 C15 0.930 . S
H18 C33 0.930 . S
H19 C40 0.930 . S
H20 C14 0.929 . S
H21 C13 0.930 1_556 S
H22 C36 0.929 . S
H23 C3 0.931 . S
H24 C9 0.931 . S
H25 C10 0.931 . S
H26 C31 0.931 . S
H27 C6 0.929 . S
H28 C39 0.930 . S
N29 Eu0 2.600 1_655 S
N29 C30 1.365 . S
N29 C33 1.319 . S
C30 N29 1.365 . S
C30 C32 1.405 . S
C30 C38 1.448 . S
C31 H26 0.931 . S
C31 C33 1.397 . S
C31 C34 1.367 . S
C32 C30 1.405 . S
C32 C34 1.403 . S
C32 C65 1.439 . S
C33 H18 0.930 . S
C33 N29 1.319 . S
C33 C31 1.397 . S
C34 C31 1.367 . S
C34 C32 1.403 . S
C34 H41 0.929 . S
N35 Eu0 2.562 1_654 S
N35 C36 1.325 . S
N35 C38 1.351 1_554 S
C36 H22 0.929 . S
C36 N35 1.325 . S
C36 C40 1.416 . S
C37 C38 1.430 . S
C37 C39 1.404 1_556 S
C37 C66 1.387 . S
C38 C30 1.448 . S
C38 N35 1.351 1_556 S
C38 C37 1.430 . S
C39 H28 0.930 . S
C39 C37 1.404 1_554 S
C39 C40 1.366 . S
C40 H19 0.930 . S
C40 C36 1.416 . S
C40 C39 1.366 . S
H41 C34 0.929 . S
H42 C65 0.931 . S
H43 C66 0.931 . S
O44 Eu0 2.462 1_554 S
O44 C64 1.252 1_554 S
O45 Eu0 2.373 1_655 S
O45 C56 1.249 1_556 S
O46 Eu11 2.335 1_655 S
O46 C56 1.264 . S
O47 Eu0 2.432 . S
O47 C64 1.268 . S
O48 Eu0 2.291 1_554 S
O48 C63 1.255 . S
O49 Eu11 2.372 . S
O49 C63 1.257 . S
O50 Eu11 2.462 . S
O50 C75 1.252 1_455 S
O51 Eu11 2.373 . S
O51 C67 1.249 . S
O52 Eu0 2.335 1_554 S
O52 C67 1.264 . S
O53 Eu11 2.432 . S
O53 C75 1.268 1_455 S
O54 Eu11 2.291 1_556 S
O54 C74 1.255 . S
O55 Eu0 2.372 . S
O55 C74 1.257 . S
C56 O45 1.249 1_554 S
C56 O46 1.264 . S
C57 C60 1.382 . S
C57 C62 1.390 1_556 S
C57 C64 1.506 . S
C58 C59 1.398 1_554 S
C58 C62 1.392 . S
C59 C58 1.398 1_556 S
C59 C61 1.372 . S
C59 H76 0.931 . S
C60 C57 1.382 . S
C60 C61 1.390 . S
C60 H77 0.931 . S
C61 C59 1.372 . S
C61 C60 1.390 . S
C61 H78 0.929 . S
C62 C57 1.390 1_554 S
C62 C58 1.392 . S
C62 H79 0.930 . S
C63 O48 1.255 . S
C63 O49 1.257 . S
C64 Eu0 2.787 . S
C64 O44 1.252 1_556 S
C64 O47 1.268 . S
C64 C57 1.506 . S
C65 C32 1.439 . S
C65 H42 0.931 . S
C65 C66 1.374 . S
C66 C37 1.387 . S
C66 H43 0.931 . S
C66 C65 1.374 . S
C67 O51 1.249 . S
C67 O52 1.264 . S
C68 C71 1.382 . S
C68 C72 1.390 . S
C68 C75 1.506 . S
C69 C70 1.398 . S
C69 C72 1.392 . S
C70 C69 1.398 . S
C70 C73 1.372 . S
C70 H80 0.931 . S
C71 C68 1.382 . S
C71 C73 1.390 . S
C71 H81 0.931 . S
C72 C68 1.390 . S
C72 C69 1.392 . S
C72 H82 0.930 1_554 S
C73 C70 1.372 . S
C73 C71 1.390 . S
C73 H83 0.929 . S
C74 O54 1.255 . S
C74 O55 1.257 . S
C75 Eu11 2.787 1_655 S
C75 O50 1.252 1_655 S
C75 O53 1.268 1_655 S
C75 C68 1.506 . S
H76 C59 0.931 . S
H77 C60 0.931 . S
H78 C61 0.929 . S
H79 C62 0.930 . S
H80 C70 0.931 . S
H81 C71 0.931 . S
H82 C72 0.930 1_556 S
H83 C73 0.929 . S
Eu84 N113 2.600 1_654 S
Eu84 N119 2.562 1_655 S
Eu84 O128 2.462 . S
Eu84 O129 2.373 1_655 S
Eu84 O131 2.432 1_554 S
Eu84 O132 2.291 . S
Eu84 O136 2.335 . S
Eu84 O139 2.372 1_554 S
Eu84 C148 2.787 . S
C85 N86 1.365 . S
C85 C88 1.405 . S
C85 C92 1.448 . S
N86 C85 1.365 . S
N86 C89 1.319 . S
N86 Eu95 2.600 . S
C87 C89 1.397 . S
C87 C90 1.367 . S
C87 H107 0.931 . S
C88 C85 1.405 . S
C88 C90 1.403 . S
C88 C94 1.439 . S
C89 N86 1.319 . S
C89 C87 1.397 . S
C89 H100 0.930 . S
C90 C87 1.367 . S
C90 C88 1.403 . S
C90 H111 0.929 . S
C91 C92 1.430 1_556 S
C91 C93 1.387 1_556 S
C91 C97 1.404 . S
C92 C85 1.448 . S
C92 C91 1.430 1_554 S
C92 N96 1.351 1_554 S
C93 C91 1.387 1_554 S
C93 C94 1.374 . S
C93 H108 0.931 . S
C94 C88 1.439 . S
C94 C93 1.374 . S
C94 H109 0.931 . S
Eu95 N86 2.600 . S
Eu95 N96 2.562 1_554 S
Eu95 O130 2.335 1_655 S
Eu95 O133 2.372 . S
Eu95 O134 2.462 1_554 S
Eu95 O135 2.373 . S
Eu95 O137 2.432 . S
Eu95 O138 2.291 1_554 S
Eu95 C159 2.787 1_655 S
N96 C92 1.351 1_556 S
N96 Eu95 2.562 1_556 S
N96 C98 1.325 . S
C97 C91 1.404 . S
C97 C99 1.366 . S
C97 H105 0.930 . S
C98 N96 1.325 . S
C98 C99 1.416 . S
C98 H104 0.929 . S
C99 C97 1.366 . S
C99 C98 1.416 . S
C99 H101 0.930 . S
H100 C89 0.930 . S
H101 C99 0.930 . S
H102 C117 0.930 1_655 S
H103 C124 0.930 . S
H104 C98 0.929 . S
H105 C97 0.930 . S
H106 C120 0.929 . S
H107 C87 0.931 . S
H108 C93 0.931 . S
H109 C94 0.931 . S
H110 C115 0.931 . S
H111 C90 0.929 . S
H112 C123 0.930 . S
N113 Eu84 2.600 1_456 S
N113 C114 1.365 . S
N113 C117 1.319 . S
C114 N113 1.365 . S
C114 C116 1.405 . S
C114 C122 1.448 1_556 S
C115 H110 0.931 . S
C115 C117 1.397 . S
C115 C118 1.367 . S
C116 C114 1.405 . S
C116 C118 1.403 . S
C116 C149 1.439 . S
C117 H102 0.930 1_455 S
C117 N113 1.319 . S
C117 C115 1.397 . S
C118 C115 1.367 . S
C118 C116 1.403 . S
C118 H125 0.929 . S
N119 Eu84 2.562 1_455 S
N119 C120 1.325 . S
N119 C122 1.351 . S
C120 H106 0.929 . S
C120 N119 1.325 . S
C120 C124 1.416 . S
C121 C122 1.430 . S
C121 C123 1.404 . S
C121 C150 1.387 . S
C122 C114 1.448 1_554 S
C122 N119 1.351 . S
C122 C121 1.430 . S
C123 H112 0.930 . S
C123 C121 1.404 . S
C123 C124 1.366 . S
C124 H103 0.930 . S
C124 C120 1.416 . S
C124 C123 1.366 . S
H125 C118 0.929 . S
H126 C149 0.931 . S
H127 C150 0.931 . S
O128 Eu84 2.462 . S
O128 C148 1.252 . S
O129 Eu84 2.373 1_455 S
O129 C140 1.249 . S
O130 Eu95 2.335 1_455 S
O130 C140 1.264 . S
O131 Eu84 2.432 1_556 S
O131 C148 1.268 1_556 S
O132 Eu84 2.291 . S
O132 C147 1.255 . S
O133 Eu95 2.372 . S
O133 C147 1.257 . S
O134 Eu95 2.462 1_556 S
O134 C159 1.252 1_656 S
O135 Eu95 2.373 . S
O135 C151 1.249 . S
O136 Eu84 2.335 . S
O136 C151 1.264 . S
O137 Eu95 2.432 . S
O137 C159 1.268 1_655 S
O138 Eu95 2.291 1_556 S
O138 C158 1.255 . S
O139 Eu84 2.372 1_556 S
O139 C158 1.257 . S
C140 O129 1.249 . S
C140 O130 1.264 . S
C141 C144 1.382 . S
C141 C146 1.390 . S
C141 C148 1.506 . S
C142 C143 1.398 . S
C142 C146 1.392 . S
C143 C142 1.398 . S
C143 C145 1.372 . S
C143 H160 0.931 . S
C144 C141 1.382 . S
C144 C145 1.390 . S
C144 H161 0.931 1_554 S
C145 C143 1.372 . S
C145 C144 1.390 . S
C145 H162 0.929 1_554 S
C146 C141 1.390 . S
C146 C142 1.392 . S
C146 H163 0.930 . S
C147 O132 1.255 . S
C147 O133 1.257 . S
C148 Eu84 2.787 . S
C148 O128 1.252 . S
C148 O131 1.268 1_554 S
C148 C141 1.506 . S
C149 C116 1.439 . S
C149 H126 0.931 . S
C149 C150 1.374 1_556 S
C150 C121 1.387 . S
C150 H127 0.931 . S
C150 C149 1.374 1_554 S
C151 O135 1.249 . S
C151 O136 1.264 . S
C152 C155 1.382 . S
C152 C156 1.390 1_554 S
C152 C159 1.506 . S
C153 C154 1.398 . S
C153 C156 1.392 . S
C154 C153 1.398 . S
C154 C157 1.372 1_556 S
C154 H164 0.931 . S
C155 C152 1.382 . S
C155 C157 1.390 . S
C155 H165 0.931 . S
C156 C152 1.390 1_556 S
C156 C153 1.392 . S
C156 H166 0.930 . S
C157 C154 1.372 1_554 S
C157 C155 1.390 . S
C157 H167 0.929 . S
C158 O138 1.255 . S
C158 O139 1.257 . S
C159 Eu95 2.787 1_455 S
C159 O134 1.252 1_454 S
C159 O137 1.268 1_455 S
C159 C152 1.506 . S
H160 C143 0.931 . S
H161 C144 0.931 1_556 S
H162 C145 0.929 1_556 S
H163 C146 0.930 . S
H164 C154 0.931 . S
H165 C155 0.931 . S
H166 C156 0.930 . S
H167 C157 0.929 . S
Eu168 N197 2.600 1_455 S
Eu168 N203 2.562 1_455 S
Eu168 O212 2.462 . S
Eu168 O213 2.373 1_455 S
Eu168 O215 2.432 . S
Eu168 O216 2.291 . S
Eu168 O220 2.335 . S
Eu168 O223 2.372 . S
Eu168 C232 2.787 . S
C169 N170 1.365 . S
C169 C172 1.405 . S
C169 C176 1.448 . S
N170 C169 1.365 . S
N170 C173 1.319 . S
N170 Eu179 2.600 . S
C171 C173 1.397 . S
C171 C174 1.367 . S
C171 H191 0.931 . S
C172 C169 1.405 . S
C172 C174 1.403 . S
C172 C178 1.439 . S
C173 N170 1.319 . S
C173 C171 1.397 . S
C173 H184 0.930 . S
C174 C171 1.367 . S
C174 C172 1.403 . S
C174 H195 0.929 . S
C175 C176 1.430 . S
C175 C177 1.387 . S
C175 C181 1.404 . S
C176 C169 1.448 . S
C176 C175 1.430 . S
C176 N180 1.351 . S
C177 C175 1.387 . S
C177 C178 1.374 . S
C177 H192 0.931 . S
C178 C172 1.439 . S
C178 C177 1.374 . S
C178 H193 0.931 . S
Eu179 N170 2.600 . S
Eu179 N180 2.562 . S
Eu179 O214 2.335 1_455 S
Eu179 O217 2.372 . S
Eu179 O218 2.462 . S
Eu179 O219 2.373 . S
Eu179 O221 2.432 1_455 S
Eu179 O222 2.291 . S
Eu179 C243 2.787 1_455 S
N180 C176 1.351 . S
N180 Eu179 2.562 . S
N180 C182 1.325 . S
C181 C175 1.404 . S
C181 C183 1.366 . S
C181 H189 0.930 . S
C182 N180 1.325 . S
C182 C183 1.416 . S
C182 H188 0.929 . S
C183 C181 1.366 . S
C183 C182 1.416 . S
C183 H185 0.930 . S
H184 C173 0.930 . S
H185 C183 0.930 . S
H186 C201 0.930 1_455 S
H187 C208 0.930 . S
H188 C182 0.929 . S
H189 C181 0.930 . S
H190 C204 0.929 . S
H191 C171 0.931 . S
H192 C177 0.931 . S
H193 C178 0.931 . S
H194 C199 0.931 . S
H195 C174 0.929 . S
H196 C207 0.930 . S
N197 Eu168 2.600 1_655 S
N197 C198 1.365 . S
N197 C201 1.319 . S
C198 N197 1.365 . S
C198 C200 1.405 . S
C198 C206 1.448 . S
C199 H194 0.931 . S
C199 C201 1.397 . S
C199 C202 1.367 . S
C200 C198 1.405 . S
C200 C202 1.403 . S
C200 C233 1.439 . S
C201 H186 0.930 1_655 S
C201 N197 1.319 . S
C201 C199 1.397 . S
C202 C199 1.367 . S
C202 C200 1.403 . S
C202 H209 0.929 . S
N203 Eu168 2.562 1_655 S
N203 C204 1.325 . S
N203 C206 1.351 . S
C204 H190 0.929 . S
C204 N203 1.325 . S
C204 C208 1.416 . S
C205 C206 1.430 . S
C205 C207 1.404 . S
C205 C234 1.387 . S
C206 C198 1.448 . S
C206 N203 1.351 . S
C206 C205 1.430 . S
C207 H196 0.930 . S
C207 C205 1.404 . S
C207 C208 1.366 . S
C208 H187 0.930 . S
C208 C204 1.416 . S
C208 C207 1.366 . S
H209 C202 0.929 . S
H210 C233 0.931 . S
H211 C234 0.931 . S
O212 Eu168 2.462 . S
O212 C232 1.252 . S
O213 Eu168 2.373 1_655 S
O213 C224 1.249 . S
O214 Eu179 2.335 1_655 S
O214 C224 1.264 . S
O215 Eu168 2.432 . S
O215 C232 1.268 . S
O216 Eu168 2.291 . S
O216 C231 1.255 . S
O217 Eu179 2.372 . S
O217 C231 1.257 . S
O218 Eu179 2.462 . S
O218 C243 1.252 1_455 S
O219 Eu179 2.373 . S
O219 C235 1.249 . S
O220 Eu168 2.335 . S
O220 C235 1.264 . S
O221 Eu179 2.432 1_655 S
O221 C243 1.268 . S
O222 Eu179 2.291 . S
O222 C242 1.255 . S
O223 Eu168 2.372 . S
O223 C242 1.257 . S
C224 O213 1.249 . S
C224 O214 1.264 . S
C225 C228 1.382 . S
C225 C230 1.390 . S
C225 C232 1.506 . S
C226 C227 1.398 . S
C226 C230 1.392 . S
C227 C226 1.398 . S
C227 C229 1.372 . S
C227 H244 0.931 . S
C228 C225 1.382 . S
C228 C229 1.390 . S
C228 H245 0.931 . S
C229 C227 1.372 . S
C229 C228 1.390 . S
C229 H246 0.929 . S
C230 C225 1.390 . S
C230 C226 1.392 . S
C230 H247 0.930 . S
C231 O216 1.255 . S
C231 O217 1.257 . S
C232 Eu168 2.787 . S
C232 O212 1.252 . S
C232 O215 1.268 . S
C232 C225 1.506 . S
C233 C200 1.439 . S
C233 H210 0.931 . S
C233 C234 1.374 . S
C234 C205 1.387 . S
C234 H211 0.931 . S
C234 C233 1.374 . S
C235 O219 1.249 . S
C235 O220 1.264 . S
C236 C239 1.382 . S
C236 C240 1.390 . S
C236 C243 1.506 . S
C237 C238 1.398 . S
C237 C240 1.392 . S
C238 C237 1.398 . S
C238 C241 1.372 . S
C238 H248 0.931 . S
C239 C236 1.382 . S
C239 C241 1.390 . S
C239 H249 0.931 . S
C240 C236 1.390 . S
C240 C237 1.392 . S
C240 H250 0.930 . S
C241 C238 1.372 . S
C241 C239 1.390 . S
C241 H251 0.929 . S
C242 O222 1.255 . S
C242 O223 1.257 . S
C243 Eu179 2.787 1_655 S
C243 O218 1.252 1_655 S
C243 O221 1.268 . S
C243 C236 1.506 . S
H244 C227 0.931 . S
H245 C228 0.931 . S
H246 C229 0.929 . S
H247 C230 0.930 . S
H248 C238 0.931 . S
H249 C239 0.931 . S
H250 C240 0.930 . S
H251 C241 0.929 . S
Eu252 N281 2.600 . S
Eu252 N287 2.562 . S
Eu252 O296 2.462 . S
Eu252 O297 2.373 . S
Eu252 O299 2.432 1_655 S
Eu252 O300 2.291 . S
Eu252 O304 2.335 1_655 S
Eu252 O307 2.372 . S
Eu252 C316 2.787 1_655 S
C253 N254 1.365 . S
C253 C256 1.405 . S
C253 C260 1.448 . S
N254 C253 1.365 . S
N254 C257 1.319 . S
N254 Eu263 2.600 1_455 S
C255 C257 1.397 . S
C255 C258 1.367 . S
C255 H275 0.931 . S
C256 C253 1.405 . S
C256 C258 1.403 . S
C256 C262 1.439 . S
C257 N254 1.319 . S
C257 C255 1.397 . S
C257 H268 0.930 1_455 S
C258 C255 1.367 . S
C258 C256 1.403 . S
C258 H279 0.929 . S
C259 C260 1.430 . S
C259 C261 1.387 . S
C259 C265 1.404 . S
C260 C253 1.448 . S
C260 C259 1.430 . S
C260 N264 1.351 . S
C261 C259 1.387 . S
C261 C262 1.374 . S
C261 H276 0.931 . S
C262 C256 1.439 . S
C262 C261 1.374 . S
C262 H277 0.931 . S
Eu263 N254 2.600 1_655 S
Eu263 N264 2.562 1_655 S
Eu263 O298 2.335 . S
Eu263 O301 2.372 . S
Eu263 O302 2.462 . S
Eu263 O303 2.373 1_655 S
Eu263 O305 2.432 . S
Eu263 O306 2.291 . S
Eu263 C327 2.787 . S
N264 C260 1.351 . S
N264 Eu263 2.562 1_455 S
N264 C266 1.325 . S
C265 C259 1.404 . S
C265 C267 1.366 . S
C265 H273 0.930 . S
C266 N264 1.325 . S
C266 C267 1.416 . S
C266 H272 0.929 . S
C267 C265 1.366 . S
C267 C266 1.416 . S
C267 H269 0.930 . S
H268 C257 0.930 1_655 S
H269 C267 0.930 . S
H270 C285 0.930 . S
H271 C292 0.930 . S
H272 C266 0.929 . S
H273 C265 0.930 . S
H274 C288 0.929 . S
H275 C255 0.931 . S
H276 C261 0.931 . S
H277 C262 0.931 . S
H278 C283 0.931 . S
H279 C258 0.929 . S
H280 C291 0.930 . S
N281 Eu252 2.600 . S
N281 C282 1.365 . S
N281 C285 1.319 . S
C282 N281 1.365 . S
C282 C284 1.405 . S
C282 C290 1.448 . S
C283 H278 0.931 . S
C283 C285 1.397 . S
C283 C286 1.367 . S
C284 C282 1.405 . S
C284 C286 1.403 . S
C284 C317 1.439 . S
C285 H270 0.930 . S
C285 N281 1.319 . S
C285 C283 1.397 . S
C286 C283 1.367 . S
C286 C284 1.403 . S
C286 H293 0.929 . S
N287 Eu252 2.562 . S
N287 C288 1.325 . S
N287 C290 1.351 . S
C288 H274 0.929 . S
C288 N287 1.325 . S
C288 C292 1.416 . S
C289 C290 1.430 . S
C289 C291 1.404 . S
C289 C318 1.387 . S
C290 C282 1.448 . S
C290 N287 1.351 . S
C290 C289 1.430 . S
C291 H280 0.930 . S
C291 C289 1.404 . S
C291 C292 1.366 . S
C292 H271 0.930 . S
C292 C288 1.416 . S
C292 C291 1.366 . S
H293 C286 0.929 . S
H294 C317 0.931 . S
H295 C318 0.931 . S
O296 Eu252 2.462 . S
O296 C316 1.252 1_655 S
O297 Eu252 2.373 . S
O297 C308 1.249 . S
O298 Eu263 2.335 . S
O298 C308 1.264 . S
O299 Eu252 2.432 1_455 S
O299 C316 1.268 . S
O300 Eu252 2.291 . S
O300 C315 1.255 . S
O301 Eu263 2.372 . S
O301 C315 1.257 . S
O302 Eu263 2.462 . S
O302 C327 1.252 . S
O303 Eu263 2.373 1_455 S
O303 C319 1.249 . S
O304 Eu252 2.335 1_455 S
O304 C319 1.264 . S
O305 Eu263 2.432 . S
O305 C327 1.268 . S
O306 Eu263 2.291 . S
O306 C326 1.255 . S
O307 Eu252 2.372 . S
O307 C326 1.257 . S
C308 O297 1.249 . S
C308 O298 1.264 . S
C309 C312 1.382 . S
C309 C314 1.390 . S
C309 C316 1.506 . S
C310 C311 1.398 . S
C310 C314 1.392 . S
C311 C310 1.398 . S
C311 C313 1.372 . S
C311 H328 0.931 . S
C312 C309 1.382 . S
C312 C313 1.390 . S
C312 H329 0.931 . S
C313 C311 1.372 . S
C313 C312 1.390 . S
C313 H330 0.929 . S
C314 C309 1.390 . S
C314 C310 1.392 . S
C314 H331 0.930 . S
C315 O300 1.255 . S
C315 O301 1.257 . S
C316 Eu252 2.787 1_455 S
C316 O296 1.252 1_455 S
C316 O299 1.268 . S
C316 C309 1.506 . S
C317 C284 1.439 . S
C317 H294 0.931 . S
C317 C318 1.374 . S
C318 C289 1.387 . S
C318 H295 0.931 . S
C318 C317 1.374 . S
C319 O303 1.249 . S
C319 O304 1.264 . S
C320 C323 1.382 . S
C320 C324 1.390 . S
C320 C327 1.506 . S
C321 C322 1.398 . S
C321 C324 1.392 . S
C322 C321 1.398 . S
C322 C325 1.372 . S
C322 H332 0.931 . S
C323 C320 1.382 . S
C323 C325 1.390 . S
C323 H333 0.931 . S
C324 C320 1.390 . S
C324 C321 1.392 . S
C324 H334 0.930 . S
C325 C322 1.372 . S
C325 C323 1.390 . S
C325 H335 0.929 . S
C326 O306 1.255 . S
C326 O307 1.257 . S
C327 Eu263 2.787 . S
C327 O302 1.252 . S
C327 O305 1.268 . S
C327 C320 1.506 . S
H328 C311 0.931 . S
H329 C312 0.931 . S
H330 C313 0.929 . S
H331 C314 0.930 . S
H332 C322 0.931 . S
H333 C323 0.931 . S
H334 C324 0.930 . S
H335 C325 0.929 . S
Eu336 N365 2.600 . S
Eu336 N371 2.562 1_556 S
Eu336 O380 2.462 1_556 S
Eu336 O381 2.373 . S
Eu336 O383 2.432 . S
Eu336 O384 2.291 1_556 S
Eu336 O388 2.335 1_556 S
Eu336 O391 2.372 . S
Eu336 C400 2.787 . S
C337 N338 1.365 . S
C337 C340 1.405 . S
C337 C344 1.448 . S
N338 C337 1.365 . S
N338 C341 1.319 . S
N338 Eu347 2.600 . S
C339 C341 1.397 . S
C339 C342 1.367 . S
C339 H359 0.931 . S
C340 C337 1.405 . S
C340 C342 1.403 . S
C340 C346 1.439 . S
C341 N338 1.319 . S
C341 C339 1.397 . S
C341 H352 0.930 . S
C342 C339 1.367 . S
C342 C340 1.403 . S
C342 H363 0.929 . S
C343 C344 1.430 . S
C343 C345 1.387 . S
C343 C349 1.404 . S
C344 C337 1.448 . S
C344 C343 1.430 . S
C344 N348 1.351 . S
C345 C343 1.387 . S
C345 C346 1.374 . S
C345 H360 0.931 1_655 S
C346 C340 1.439 . S
C346 C345 1.374 . S
C346 H361 0.931 . S
Eu347 N338 2.600 . S
Eu347 N348 2.562 . S
Eu347 O382 2.335 . S
Eu347 O385 2.372 . S
Eu347 O386 2.462 . S
Eu347 O387 2.373 . S
Eu347 O389 2.432 . S
Eu347 O390 2.291 1_554 S
Eu347 C411 2.787 . S
N348 C344 1.351 . S
N348 Eu347 2.562 . S
N348 C350 1.325 1_554 S
C349 C343 1.404 . S
C349 C351 1.366 1_554 S
C349 H357 0.930 1_554 S
C350 N348 1.325 1_556 S
C350 C351 1.416 . S
C350 H356 0.929 . S
C351 C349 1.366 1_556 S
C351 C350 1.416 . S
C351 H353 0.930 . S
H352 C341 0.930 . S
H353 C351 0.930 . S
H354 C369 0.930 . S
H355 C376 0.930 . S
H356 C350 0.929 . S
H357 C349 0.930 1_556 S
H358 C372 0.929 . S
H359 C339 0.931 . S
H360 C345 0.931 1_455 S
H361 C346 0.931 . S
H362 C367 0.931 . S
H363 C342 0.929 . S
H364 C375 0.930 . S
N365 Eu336 2.600 . S
N365 C366 1.365 . S
N365 C369 1.319 . S
C366 N365 1.365 . S
C366 C368 1.405 . S
C366 C374 1.448 . S
C367 H362 0.931 . S
C367 C369 1.397 . S
C367 C370 1.367 . S
C368 C366 1.405 . S
C368 C370 1.403 . S
C368 C401 1.439 . S
C369 H354 0.930 . S
C369 N365 1.319 . S
C369 C367 1.397 . S
C370 C367 1.367 . S
C370 C368 1.403 . S
C370 H377 0.929 . S
N371 Eu336 2.562 1_554 S
N371 C372 1.325 . S
N371 C374 1.351 1_554 S
C372 H358 0.929 . S
C372 N371 1.325 . S
C372 C376 1.416 . S
C373 C374 1.430 . S
C373 C375 1.404 1_556 S
C373 C402 1.387 . S
C374 C366 1.448 . S
C374 N371 1.351 1_556 S
C374 C373 1.430 . S
C375 H364 0.930 . S
C375 C373 1.404 1_554 S
C375 C376 1.366 . S
C376 H355 0.930 . S
C376 C372 1.416 . S
C376 C375 1.366 . S
H377 C370 0.929 . S
H378 C401 0.931 . S
H379 C402 0.931 . S
O380 Eu336 2.462 1_554 S
O380 C400 1.252 1_554 S
O381 Eu336 2.373 . S
O381 C392 1.249 1_556 S
O382 Eu347 2.335 . S
O382 C392 1.264 . S
O383 Eu336 2.432 . S
O383 C400 1.268 . S
O384 Eu336 2.291 1_554 S
O384 C399 1.255 . S
O385 Eu347 2.372 . S
O385 C399 1.257 . S
O386 Eu347 2.462 . S
O386 C411 1.252 . S
O387 Eu347 2.373 . S
O387 C403 1.249 . S
O388 Eu336 2.335 1_554 S
O388 C403 1.264 . S
O389 Eu347 2.432 . S
O389 C411 1.268 . S
O390 Eu347 2.291 1_556 S
O390 C410 1.255 . S
O391 Eu336 2.372 . S
O391 C410 1.257 . S
C392 O381 1.249 1_554 S
C392 O382 1.264 . S
C393 C396 1.382 . S
C393 C398 1.390 1_556 S
C393 C400 1.506 . S
C394 C395 1.398 1_554 S
C394 C398 1.392 . S
C395 C394 1.398 1_556 S
C395 C397 1.372 . S
C395 H412 0.931 . S
C396 C393 1.382 . S
C396 C397 1.390 . S
C396 H413 0.931 . S
C397 C395 1.372 . S
C397 C396 1.390 . S
C397 H414 0.929 . S
C398 C393 1.390 1_554 S
C398 C394 1.392 . S
C398 H415 0.930 . S
C399 O384 1.255 . S
C399 O385 1.257 . S
C400 Eu336 2.787 . S
C400 O380 1.252 1_556 S
C400 O383 1.268 . S
C400 C393 1.506 . S
C401 C368 1.439 . S
C401 H378 0.931 . S
C401 C402 1.374 . S
C402 C373 1.387 . S
C402 H379 0.931 . S
C402 C401 1.374 . S
C403 O387 1.249 . S
C403 O388 1.264 . S
C404 C407 1.382 . S
C404 C408 1.390 . S
C404 C411 1.506 . S
C405 C406 1.398 . S
C405 C408 1.392 . S
C406 C405 1.398 . S
C406 C409 1.372 . S
C406 H416 0.931 . S
C407 C404 1.382 . S
C407 C409 1.390 . S
C407 H417 0.931 . S
C408 C404 1.390 . S
C408 C405 1.392 . S
C408 H418 0.930 1_554 S
C409 C406 1.372 . S
C409 C407 1.390 . S
C409 H419 0.929 . S
C410 O390 1.255 . S
C410 O391 1.257 . S
C411 Eu347 2.787 . S
C411 O386 1.252 . S
C411 O389 1.268 . S
C411 C404 1.506 . S
H412 C395 0.931 . S
H413 C396 0.931 . S
H414 C397 0.929 . S
H415 C398 0.930 . S
H416 C406 0.931 . S
H417 C407 0.931 . S
H418 C408 0.930 1_556 S
H419 C409 0.929 . S
Eu420 N449 2.600 1_554 S
Eu420 N455 2.562 . S
Eu420 O464 2.462 . S
Eu420 O465 2.373 . S
Eu420 O467 2.432 1_554 S
Eu420 O468 2.291 . S
Eu420 O472 2.335 . S
Eu420 O475 2.372 1_554 S
Eu420 C484 2.787 . S
C421 N422 1.365 . S
C421 C424 1.405 . S
C421 C428 1.448 . S
N422 C421 1.365 . S
N422 C425 1.319 . S
N422 Eu431 2.600 . S
C423 C425 1.397 . S
C423 C426 1.367 . S
C423 H443 0.931 . S
C424 C421 1.405 . S
C424 C426 1.403 . S
C424 C430 1.439 . S
C425 N422 1.319 . S
C425 C423 1.397 . S
C425 H436 0.930 . S
C426 C423 1.367 . S
C426 C424 1.403 . S
C426 H447 0.929 . S
C427 C428 1.430 1_556 S
C427 C429 1.387 1_556 S
C427 C433 1.404 . S
C428 C421 1.448 . S
C428 C427 1.430 1_554 S
C428 N432 1.351 1_554 S
C429 C427 1.387 1_554 S
C429 C430 1.374 . S
C429 H444 0.931 1_455 S
C430 C424 1.439 . S
C430 C429 1.374 . S
C430 H445 0.931 . S
Eu431 N422 2.600 . S
Eu431 N432 2.562 1_554 S
Eu431 O466 2.335 . S
Eu431 O469 2.372 . S
Eu431 O470 2.462 1_554 S
Eu431 O471 2.373 . S
Eu431 O473 2.432 . S
Eu431 O474 2.291 1_554 S
Eu431 C495 2.787 . S
N432 C428 1.351 1_556 S
N432 Eu431 2.562 1_556 S
N432 C434 1.325 . S
C433 C427 1.404 . S
C433 C435 1.366 . S
C433 H441 0.930 . S
C434 N432 1.325 . S
C434 C435 1.416 . S
C434 H440 0.929 . S
C435 C433 1.366 . S
C435 C434 1.416 . S
C435 H437 0.930 . S
H436 C425 0.930 . S
H437 C435 0.930 . S
H438 C453 0.930 . S
H439 C460 0.930 . S
H440 C434 0.929 . S
H441 C433 0.930 . S
H442 C456 0.929 . S
H443 C423 0.931 . S
H444 C429 0.931 1_655 S
H445 C430 0.931 . S
H446 C451 0.931 . S
H447 C426 0.929 . S
H448 C459 0.930 . S
N449 Eu420 2.600 1_556 S
N449 C450 1.365 . S
N449 C453 1.319 . S
C450 N449 1.365 . S
C450 C452 1.405 . S
C450 C458 1.448 1_556 S
C451 H446 0.931 . S
C451 C453 1.397 . S
C451 C454 1.367 . S
C452 C450 1.405 . S
C452 C454 1.403 . S
C452 C485 1.439 . S
C453 H438 0.930 . S
C453 N449 1.319 . S
C453 C451 1.397 . S
C454 C451 1.367 . S
C454 C452 1.403 . S
C454 H461 0.929 . S
N455 Eu420 2.562 . S
N455 C456 1.325 . S
N455 C458 1.351 . S
C456 H442 0.929 . S
C456 N455 1.325 . S
C456 C460 1.416 . S
C457 C458 1.430 . S
C457 C459 1.404 . S
C457 C486 1.387 . S
C458 C450 1.448 1_554 S
C458 N455 1.351 . S
C458 C457 1.430 . S
C459 H448 0.930 . S
C459 C457 1.404 . S
C459 C460 1.366 . S
C460 H439 0.930 . S
C460 C456 1.416 . S
C460 C459 1.366 . S
H461 C454 0.929 . S
H462 C485 0.931 . S
H463 C486 0.931 . S
O464 Eu420 2.462 . S
O464 C484 1.252 . S
O465 Eu420 2.373 . S
O465 C476 1.249 . S
O466 Eu431 2.335 . S
O466 C476 1.264 . S
O467 Eu420 2.432 1_556 S
O467 C484 1.268 1_556 S
O468 Eu420 2.291 . S
O468 C483 1.255 . S
O469 Eu431 2.372 . S
O469 C483 1.257 . S
O470 Eu431 2.462 1_556 S
O470 C495 1.252 1_556 S
O471 Eu431 2.373 . S
O471 C487 1.249 . S
O472 Eu420 2.335 . S
O472 C487 1.264 . S
O473 Eu431 2.432 . S
O473 C495 1.268 . S
O474 Eu431 2.291 1_556 S
O474 C494 1.255 . S
O475 Eu420 2.372 1_556 S
O475 C494 1.257 . S
C476 O465 1.249 . S
C476 O466 1.264 . S
C477 C480 1.382 . S
C477 C482 1.390 . S
C477 C484 1.506 . S
C478 C479 1.398 . S
C478 C482 1.392 . S
C479 C478 1.398 . S
C479 C481 1.372 . S
C479 H496 0.931 . S
C480 C477 1.382 . S
C480 C481 1.390 . S
C480 H497 0.931 1_554 S
C481 C479 1.372 . S
C481 C480 1.390 . S
C481 H498 0.929 1_554 S
C482 C477 1.390 . S
C482 C478 1.392 . S
C482 H499 0.930 . S
C483 O468 1.255 . S
C483 O469 1.257 . S
C484 Eu420 2.787 . S
C484 O464 1.252 . S
C484 O467 1.268 1_554 S
C484 C477 1.506 . S
C485 C452 1.439 . S
C485 H462 0.931 . S
C485 C486 1.374 1_556 S
C486 C457 1.387 . S
C486 H463 0.931 . S
C486 C485 1.374 1_554 S
C487 O471 1.249 . S
C487 O472 1.264 . S
C488 C491 1.382 . S
C488 C492 1.390 1_554 S
C488 C495 1.506 . S
C489 C490 1.398 . S
C489 C492 1.392 . S
C490 C489 1.398 . S
C490 C493 1.372 1_556 S
C490 H500 0.931 . S
C491 C488 1.382 . S
C491 C493 1.390 . S
C491 H501 0.931 . S
C492 C488 1.390 1_556 S
C492 C489 1.392 . S
C492 H502 0.930 . S
C493 C490 1.372 1_554 S
C493 C491 1.390 . S
C493 H503 0.929 . S
C494 O474 1.255 . S
C494 O475 1.257 . S
C495 Eu431 2.787 . S
C495 O470 1.252 1_554 S
C495 O473 1.268 . S
C495 C488 1.506 . S
H496 C479 0.931 . S
H497 C480 0.931 1_556 S
H498 C481 0.929 1_556 S
H499 C482 0.930 . S
H500 C490 0.931 . S
H501 C491 0.931 . S
H502 C492 0.930 . S
H503 C493 0.929 . S
Eu504 N533 2.600 . S
Eu504 N539 2.562 . S
Eu504 O548 2.462 . S
Eu504 O549 2.373 . S
Eu504 O551 2.432 . S
Eu504 O552 2.291 . S
Eu504 O556 2.335 . S
Eu504 O559 2.372 . S
Eu504 C568 2.787 . S
C505 N506 1.365 . S
C505 C508 1.405 . S
C505 C512 1.448 . S
N506 C505 1.365 . S
N506 C509 1.319 . S
N506 Eu515 2.600 . S
C507 C509 1.397 . S
C507 C510 1.367 . S
C507 H527 0.931 . S
C508 C505 1.405 . S
C508 C510 1.403 . S
C508 C514 1.439 . S
C509 N506 1.319 . S
C509 C507 1.397 . S
C509 H520 0.930 . S
C510 C507 1.367 . S
C510 C508 1.403 . S
C510 H531 0.929 . S
C511 C512 1.430 . S
C511 C513 1.387 . S
C511 C517 1.404 . S
C512 C505 1.448 . S
C512 C511 1.430 . S
C512 N516 1.351 . S
C513 C511 1.387 . S
C513 C514 1.374 . S
C513 H528 0.931 . S
C514 C508 1.439 . S
C514 C513 1.374 . S
C514 H529 0.931 . S
Eu515 N506 2.600 . S
Eu515 N516 2.562 . S
Eu515 O550 2.335 . S
Eu515 O553 2.372 . S
Eu515 O554 2.462 . S
Eu515 O555 2.373 . S
Eu515 O557 2.432 . S
Eu515 O558 2.291 . S
Eu515 C579 2.787 . S
N516 C512 1.351 . S
N516 Eu515 2.562 . S
N516 C518 1.325 . S
C517 C511 1.404 . S
C517 C519 1.366 . S
C517 H525 0.930 . S
C518 N516 1.325 . S
C518 C519 1.416 . S
C518 H524 0.929 . S
C519 C517 1.366 . S
C519 C518 1.416 . S
C519 H521 0.930 . S
H520 C509 0.930 . S
H521 C519 0.930 . S
H522 C537 0.930 . S
H523 C544 0.930 . S
H524 C518 0.929 . S
H525 C517 0.930 . S
H526 C540 0.929 . S
H527 C507 0.931 . S
H528 C513 0.931 . S
H529 C514 0.931 . S
H530 C535 0.931 . S
H531 C510 0.929 . S
H532 C543 0.930 . S
N533 Eu504 2.600 . S
N533 C534 1.365 . S
N533 C537 1.319 . S
C534 N533 1.365 . S
C534 C536 1.405 . S
C534 C542 1.448 . S
C535 H530 0.931 . S
C535 C537 1.397 . S
C535 C538 1.367 . S
C536 C534 1.405 . S
C536 C538 1.403 . S
C536 C569 1.439 . S
C537 H522 0.930 . S
C537 N533 1.319 . S
C537 C535 1.397 . S
C538 C535 1.367 . S
C538 C536 1.403 . S
C538 H545 0.929 . S
N539 Eu504 2.562 . S
N539 C540 1.325 . S
N539 C542 1.351 . S
C540 H526 0.929 . S
C540 N539 1.325 . S
C540 C544 1.416 . S
C541 C542 1.430 . S
C541 C543 1.404 . S
C541 C570 1.387 . S
C542 C534 1.448 . S
C542 N539 1.351 . S
C542 C541 1.430 . S
C543 H532 0.930 . S
C543 C541 1.404 . S
C543 C544 1.366 . S
C544 H523 0.930 . S
C544 C540 1.416 . S
C544 C543 1.366 . S
H545 C538 0.929 . S
H546 C569 0.931 . S
H547 C570 0.931 . S
O548 Eu504 2.462 . S
O548 C568 1.252 . S
O549 Eu504 2.373 . S
O549 C560 1.249 . S
O550 Eu515 2.335 . S
O550 C560 1.264 . S
O551 Eu504 2.432 . S
O551 C568 1.268 . S
O552 Eu504 2.291 . S
O552 C567 1.255 . S
O553 Eu515 2.372 . S
O553 C567 1.257 . S
O554 Eu515 2.462 . S
O554 C579 1.252 . S
O555 Eu515 2.373 . S
O555 C571 1.249 . S
O556 Eu504 2.335 . S
O556 C571 1.264 . S
O557 Eu515 2.432 . S
O557 C579 1.268 . S
O558 Eu515 2.291 . S
O558 C578 1.255 . S
O559 Eu504 2.372 . S
O559 C578 1.257 . S
C560 O549 1.249 . S
C560 O550 1.264 . S
C561 C564 1.382 . S
C561 C566 1.390 . S
C561 C568 1.506 . S
C562 C563 1.398 . S
C562 C566 1.392 . S
C563 C562 1.398 . S
C563 C565 1.372 . S
C563 H580 0.931 . S
C564 C561 1.382 . S
C564 C565 1.390 . S
C564 H581 0.931 . S
C565 C563 1.372 . S
C565 C564 1.390 . S
C565 H582 0.929 . S
C566 C561 1.390 . S
C566 C562 1.392 . S
C566 H583 0.930 . S
C567 O552 1.255 . S
C567 O553 1.257 . S
C568 Eu504 2.787 . S
C568 O548 1.252 . S
C568 O551 1.268 . S
C568 C561 1.506 . S
C569 C536 1.439 . S
C569 H546 0.931 . S
C569 C570 1.374 . S
C570 C541 1.387 . S
C570 H547 0.931 . S
C570 C569 1.374 . S
C571 O555 1.249 . S
C571 O556 1.264 . S
C572 C575 1.382 . S
C572 C576 1.390 . S
C572 C579 1.506 . S
C573 C574 1.398 . S
C573 C576 1.392 . S
C574 C573 1.398 . S
C574 C577 1.372 . S
C574 H584 0.931 . S
C575 C572 1.382 . S
C575 C577 1.390 . S
C575 H585 0.931 . S
C576 C572 1.390 . S
C576 C573 1.392 . S
C576 H586 0.930 . S
C577 C574 1.372 . S
C577 C575 1.390 . S
C577 H587 0.929 . S
C578 O558 1.255 . S
C578 O559 1.257 . S
C579 Eu515 2.787 . S
C579 O554 1.252 . S
C579 O557 1.268 . S
C579 C572 1.506 . S
H580 C563 0.931 . S
H581 C564 0.931 . S
H582 C565 0.929 . S
H583 C566 0.930 . S
H584 C574 0.931 . S
H585 C575 0.931 . S
H586 C576 0.930 . S
H587 C577 0.929 . S
Eu588 N617 2.600 . S
Eu588 N623 2.562 . S
Eu588 O632 2.462 . S
Eu588 O633 2.373 . S
Eu588 O635 2.432 . S
Eu588 O636 2.291 . S
Eu588 O640 2.335 . S
Eu588 O643 2.372 . S
Eu588 C652 2.787 . S
C589 N590 1.365 . S
C589 C592 1.405 . S
C589 C596 1.448 . S
N590 C589 1.365 . S
N590 C593 1.319 . S
N590 Eu599 2.600 . S
C591 C593 1.397 . S
C591 C594 1.367 . S
C591 H611 0.931 . S
C592 C589 1.405 . S
C592 C594 1.403 . S
C592 C598 1.439 . S
C593 N590 1.319 . S
C593 C591 1.397 . S
C593 H604 0.930 . S
C594 C591 1.367 . S
C594 C592 1.403 . S
C594 H615 0.929 . S
C595 C596 1.430 . S
C595 C597 1.387 . S
C595 C601 1.404 . S
C596 C589 1.448 . S
C596 C595 1.430 . S
C596 N600 1.351 . S
C597 C595 1.387 . S
C597 C598 1.374 . S
C597 H612 0.931 . S
C598 C592 1.439 . S
C598 C597 1.374 . S
C598 H613 0.931 . S
Eu599 N590 2.600 . S
Eu599 N600 2.562 . S
Eu599 O634 2.335 . S
Eu599 O637 2.372 . S
Eu599 O638 2.462 . S
Eu599 O639 2.373 . S
Eu599 O641 2.432 . S
Eu599 O642 2.291 . S
Eu599 C663 2.787 . S
N600 C596 1.351 . S
N600 Eu599 2.562 . S
N600 C602 1.325 . S
C601 C595 1.404 . S
C601 C603 1.366 . S
C601 H609 0.930 . S
C602 N600 1.325 . S
C602 C603 1.416 . S
C602 H608 0.929 . S
C603 C601 1.366 . S
C603 C602 1.416 . S
C603 H605 0.930 . S
H604 C593 0.930 . S
H605 C603 0.930 . S
H606 C621 0.930 . S
H607 C628 0.930 . S
H608 C602 0.929 . S
H609 C601 0.930 . S
H610 C624 0.929 . S
H611 C591 0.931 . S
H612 C597 0.931 . S
H613 C598 0.931 . S
H614 C619 0.931 . S
H615 C594 0.929 . S
H616 C627 0.930 . S
N617 Eu588 2.600 . S
N617 C618 1.365 . S
N617 C621 1.319 . S
C618 N617 1.365 . S
C618 C620 1.405 . S
C618 C626 1.448 . S
C619 H614 0.931 . S
C619 C621 1.397 . S
C619 C622 1.367 . S
C620 C618 1.405 . S
C620 C622 1.403 . S
C620 C653 1.439 . S
C621 H606 0.930 . S
C621 N617 1.319 . S
C621 C619 1.397 . S
C622 C619 1.367 . S
C622 C620 1.403 . S
C622 H629 0.929 . S
N623 Eu588 2.562 . S
N623 C624 1.325 . S
N623 C626 1.351 . S
C624 H610 0.929 . S
C624 N623 1.325 . S
C624 C628 1.416 . S
C625 C626 1.430 . S
C625 C627 1.404 . S
C625 C654 1.387 . S
C626 C618 1.448 . S
C626 N623 1.351 . S
C626 C625 1.430 . S
C627 H616 0.930 . S
C627 C625 1.404 . S
C627 C628 1.366 . S
C628 H607 0.930 . S
C628 C624 1.416 . S
C628 C627 1.366 . S
H629 C622 0.929 . S
H630 C653 0.931 . S
H631 C654 0.931 . S
O632 Eu588 2.462 . S
O632 C652 1.252 . S
O633 Eu588 2.373 . S
O633 C644 1.249 . S
O634 Eu599 2.335 . S
O634 C644 1.264 . S
O635 Eu588 2.432 . S
O635 C652 1.268 . S
O636 Eu588 2.291 . S
O636 C651 1.255 . S
O637 Eu599 2.372 . S
O637 C651 1.257 . S
O638 Eu599 2.462 . S
O638 C663 1.252 . S
O639 Eu599 2.373 . S
O639 C655 1.249 . S
O640 Eu588 2.335 . S
O640 C655 1.264 . S
O641 Eu599 2.432 . S
O641 C663 1.268 . S
O642 Eu599 2.291 . S
O642 C662 1.255 . S
O643 Eu588 2.372 . S
O643 C662 1.257 . S
C644 O633 1.249 . S
C644 O634 1.264 . S
C645 C648 1.382 . S
C645 C650 1.390 . S
C645 C652 1.506 . S
C646 C647 1.398 . S
C646 C650 1.392 . S
C647 C646 1.398 . S
C647 C649 1.372 . S
C647 H664 0.931 . S
C648 C645 1.382 . S
C648 C649 1.390 . S
C648 H665 0.931 . S
C649 C647 1.372 . S
C649 C648 1.390 . S
C649 H666 0.929 . S
C650 C645 1.390 . S
C650 C646 1.392 . S
C650 H667 0.930 . S
C651 O636 1.255 . S
C651 O637 1.257 . S
C652 Eu588 2.787 . S
C652 O632 1.252 . S
C652 O635 1.268 . S
C652 C645 1.506 . S
C653 C620 1.439 . S
C653 H630 0.931 . S
C653 C654 1.374 . S
C654 C625 1.387 . S
C654 H631 0.931 . S
C654 C653 1.374 . S
C655 O639 1.249 . S
C655 O640 1.264 . S
C656 C659 1.382 . S
C656 C660 1.390 . S
C656 C663 1.506 . S
C657 C658 1.398 . S
C657 C660 1.392 . S
C658 C657 1.398 . S
C658 C661 1.372 . S
C658 H668 0.931 . S
C659 C656 1.382 . S
C659 C661 1.390 . S
C659 H669 0.931 . S
C660 C656 1.390 . S
C660 C657 1.392 . S
C660 H670 0.930 . S
C661 C658 1.372 . S
C661 C659 1.390 . S
C661 H671 0.929 . S
C662 O642 1.255 . S
C662 O643 1.257 . S
C663 Eu599 2.787 . S
C663 O638 1.252 . S
C663 O641 1.268 . S
C663 C656 1.506 . S
H664 C647 0.931 . S
H665 C648 0.931 . S
H666 C649 0.929 . S
H667 C650 0.930 . S
H668 C658 0.931 . S
H669 C659 0.931 . S
H670 C660 0.930 . S
H671 C661 0.929 . S
H672 C678 0.930 . S
H673 C681 0.930 . S
H674 C682 0.930 . S
H675 C683 0.930 1_556 S
H676 C686 0.930 . S
H677 C687 0.930 . S
C678 H672 0.930 . S
C678 C679 1.355 . S
C678 C680 1.415 . S
C679 C678 1.355 . S
C679 C681 1.420 1_554 S
C680 C678 1.415 . S
C680 C685 1.425 . S
C680 C687 1.409 . S
C681 H673 0.930 . S
C681 C679 1.420 1_556 S
C681 C682 1.362 . S
C682 H674 0.930 . S
C682 C681 1.362 . S
C682 C685 1.409 1_556 S
C683 H675 0.930 1_554 S
C683 C684 1.355 . S
C683 C685 1.415 . S
C684 C683 1.355 . S
C684 C686 1.419 . S
C685 C680 1.425 . S
C685 C682 1.409 1_554 S
C685 C683 1.415 . S
C686 H676 0.930 . S
C686 C684 1.419 . S
C686 C687 1.362 . S
C687 H677 0.930 . S
C687 C680 1.409 . S
C687 C686 1.362 . S
H688 C694 0.930 1_556 S
H689 C697 0.930 . S
H690 C698 0.930 . S
H691 C699 0.930 . S
H692 C702 0.930 . S
H693 C703 0.930 . S
C694 H688 0.930 1_554 S
C694 C695 1.355 . S
C694 C696 1.415 . S
C695 C694 1.355 . S
C695 C697 1.419 . S
C696 C694 1.415 . S
C696 C701 1.425 . S
C696 C703 1.409 1_554 S
C697 H689 0.930 . S
C697 C695 1.419 . S
C697 C698 1.362 . S
C698 H690 0.930 . S
C698 C697 1.362 . S
C698 C701 1.409 . S
C699 H691 0.930 . S
C699 C700 1.355 . S
C699 C701 1.415 . S
C700 C699 1.355 . S
C700 C702 1.419 1_554 S
C701 C696 1.425 . S
C701 C698 1.409 . S
C701 C699 1.415 . S
C702 H692 0.930 . S
C702 C700 1.419 1_556 S
C702 C703 1.362 . S
C703 H693 0.930 . S
C703 C696 1.409 1_556 S
C703 C702 1.362 . S
H704 C710 0.930 . S
H705 C713 0.930 . S
H706 C714 0.930 . S
H707 C715 0.930 . S
H708 C718 0.930 . S
H709 C719 0.930 . S
C710 H704 0.930 . S
C710 C711 1.355 . S
C710 C712 1.415 . S
C711 C710 1.355 . S
C711 C713 1.419 . S
C712 C710 1.415 . S
C712 C717 1.425 . S
C712 C719 1.409 . S
C713 H705 0.930 . S
C713 C711 1.419 . S
C713 C714 1.362 . S
C714 H706 0.930 . S
C714 C713 1.362 . S
C714 C717 1.409 . S
C715 H707 0.930 . S
C715 C716 1.355 . S
C715 C717 1.415 . S
C716 C715 1.355 . S
C716 C718 1.419 . S
C717 C712 1.425 . S
C717 C714 1.409 . S
C717 C715 1.415 . S
C718 H708 0.930 . S
C718 C716 1.419 . S
C718 C719 1.362 . S
C719 H709 0.930 . S
C719 C712 1.409 . S
C719 C718 1.362 . S
H720 C726 0.930 . S
H721 C729 0.930 . S
H722 C730 0.930 . S
H723 C731 0.930 . S
H724 C734 0.930 . S
H725 C735 0.930 . S
C726 H720 0.930 . S
C726 C727 1.355 . S
C726 C728 1.415 . S
C727 C726 1.355 . S
C727 C729 1.419 . S
C728 C726 1.415 . S
C728 C733 1.425 . S
C728 C735 1.409 . S
C729 H721 0.930 . S
C729 C727 1.419 . S
C729 C730 1.362 . S
C730 H722 0.930 . S
C730 C729 1.362 . S
C730 C733 1.409 . S
C731 H723 0.930 . S
C731 C732 1.355 . S
C731 C733 1.415 . S
C732 C731 1.355 . S
C732 C734 1.419 . S
C733 C728 1.425 . S
C733 C730 1.409 . S
C733 C731 1.415 . S
C734 H724 0.930 . S
C734 C732 1.419 . S
C734 C735 1.362 . S
C735 H725 0.930 . S
C735 C728 1.409 . S
C735 C734 1.362 . S
H736 C742 0.930 . S
H737 C745 0.930 . S
H738 C746 0.930 . S
H739 C747 0.930 . S
H740 C750 0.930 . S
H741 C751 0.930 . S
C742 H736 0.930 . S
C742 C743 1.355 . S
C742 C744 1.415 1_655 S
C743 C742 1.355 . S
C743 C745 1.419 1_554 S
C744 C742 1.415 1_455 S
C744 C749 1.425 . S
C744 C751 1.409 . S
C745 H737 0.930 . S
C745 C743 1.419 1_556 S
C745 C746 1.362 1_655 S
C746 H738 0.930 . S
C746 C745 1.362 1_455 S
C746 C749 1.409 1_556 S
C747 H739 0.930 . S
C747 C748 1.355 1_556 S
C747 C749 1.415 1_556 S
C748 C747 1.355 1_554 S
C748 C750 1.419 . S
C749 C744 1.425 . S
C749 C746 1.409 1_554 S
C749 C747 1.415 1_554 S
C750 H740 0.930 . S
C750 C748 1.419 . S
C750 C751 1.362 . S
C751 H741 0.930 . S
C751 C744 1.409 . S
C751 C750 1.362 . S
H752 C758 0.930 . S
H753 C761 0.930 . S
H754 C762 0.930 . S
H755 C763 0.930 . S
H756 C766 0.930 . S
H757 C767 0.930 . S
C758 H752 0.930 . S
C758 C759 1.355 . S
C758 C760 1.415 1_455 S
C759 C758 1.355 . S
C759 C761 1.419 1_554 S
C760 C758 1.415 1_655 S
C760 C765 1.431 . S
C760 C767 1.409 . S
C761 H753 0.930 . S
C761 C759 1.419 1_556 S
C761 C762 1.362 1_455 S
C762 H754 0.930 . S
C762 C761 1.362 1_655 S
C762 C765 1.403 1_556 S
C763 H755 0.930 . S
C763 C764 1.355 1_556 S
C763 C765 1.415 1_556 S
C764 C763 1.355 1_554 S
C764 C766 1.419 . S
C765 C760 1.431 . S
C765 C762 1.403 1_554 S
C765 C763 1.415 1_554 S
C766 H756 0.930 . S
C766 C764 1.419 . S
C766 C767 1.362 . S
C767 H757 0.930 . S
C767 C760 1.409 . S
C767 C766 1.362 . S
H768 C774 0.930 . S
H769 C777 0.930 . S
H770 C778 0.930 . S
H771 C779 0.930 . S
H772 C782 0.930 . S
H773 C783 0.930 . S
C774 H768 0.930 . S
C774 C775 1.355 . S
C774 C776 1.415 . S
C775 C774 1.355 . S
C775 C777 1.419 . S
C776 C774 1.415 . S
C776 C781 1.425 . S
C776 C783 1.409 . S
C777 H769 0.930 . S
C777 C775 1.419 . S
C777 C778 1.362 . S
C778 H770 0.930 . S
C778 C777 1.362 . S
C778 C781 1.409 . S
C779 H771 0.930 . S
C779 C780 1.355 . S
C779 C781 1.415 1_655 S
C780 C779 1.355 . S
C780 C782 1.419 . S
C781 C776 1.425 . S
C781 C778 1.409 . S
C781 C779 1.415 1_455 S
C782 H772 0.930 . S
C782 C780 1.419 . S
C782 C783 1.362 1_655 S
C783 H773 0.930 . S
C783 C776 1.409 . S
C783 C782 1.362 1_455 S
H784 C790 0.930 . S
H785 C793 0.930 . S
H786 C794 0.930 . S
H787 C795 0.930 . S
H788 C798 0.930 . S
H789 C799 0.930 . S
C790 H784 0.930 . S
C790 C791 1.355 . S
C790 C792 1.415 . S
C791 C790 1.355 . S
C791 C793 1.419 . S
C792 C790 1.415 . S
C792 C797 1.425 . S
C792 C799 1.409 . S
C793 H785 0.930 . S
C793 C791 1.419 . S
C793 C794 1.362 . S
C794 H786 0.930 . S
C794 C793 1.362 . S
C794 C797 1.409 . S
C795 H787 0.930 . S
C795 C796 1.355 . S
C795 C797 1.415 1_455 S
C796 C795 1.355 . S
C796 C798 1.419 . S
C797 C792 1.425 . S
C797 C794 1.409 . S
C797 C795 1.415 1_655 S
C798 H788 0.930 . S
C798 C796 1.419 . S
C798 C799 1.362 1_455 S
C799 H789 0.930 . S
C799 C792 1.409 . S
C799 C798 1.362 1_655 S
H800 C806 0.930 . S
H801 C809 0.930 1_554 S
H802 C810 0.930 . S
H803 C811 0.930 1_554 S
H804 C814 0.930 . S
H805 C815 0.930 . S
C806 H800 0.930 . S
C806 C807 1.355 . S
C806 C808 1.415 1_455 S
C807 C806 1.355 . S
C807 C809 1.419 . S
C808 C806 1.415 1_655 S
C808 C813 1.425 1_655 S
C808 C815 1.409 . S
C809 H801 0.930 1_556 S
C809 C807 1.419 . S
C809 C810 1.362 1_556 S
C810 H802 0.930 . S
C810 C809 1.362 1_554 S
C810 C813 1.409 1_554 S
C811 H803 0.930 1_556 S
C811 C812 1.355 . S
C811 C813 1.415 1_655 S
C812 C811 1.355 . S
C812 C814 1.419 . S
C813 C808 1.425 1_455 S
C813 C810 1.409 1_556 S
C813 C811 1.415 1_455 S
C814 H804 0.930 . S
C814 C812 1.419 . S
C814 C815 1.362 . S
C815 H805 0.930 . S
C815 C808 1.409 . S
C815 C814 1.362 . S
H816 C822 0.930 . S
H817 C825 0.930 . S
H818 C826 0.930 . S
H819 C827 0.930 . S
H820 C830 0.930 . S
H821 C831 0.930 . S
C822 H816 0.930 . S
C822 C823 1.355 . S
C822 C824 1.415 . S
C823 C822 1.355 . S
C823 C825 1.419 1_455 S
C824 C822 1.415 . S
C824 C829 1.425 1_455 S
C824 C831 1.409 . S
C825 H817 0.930 . S
C825 C823 1.419 1_655 S
C825 C826 1.362 . S
C826 H818 0.930 . S
C826 C825 1.362 . S
C826 C829 1.409 . S
C827 H819 0.930 . S
C827 C828 1.355 . S
C827 C829 1.415 . S
C828 C827 1.355 . S
C828 C830 1.419 1_655 S
C829 C824 1.425 1_655 S
C829 C826 1.409 . S
C829 C827 1.415 . S
C830 H820 0.930 . S
C830 C828 1.419 1_455 S
C830 C831 1.362 . S
C831 H821 0.930 . S
C831 C824 1.409 . S
C831 C830 1.362 . S
H832 C838 0.930 1_554 S
H833 C841 0.930 . S
H834 C842 0.930 . S
H835 C843 0.930 . S
H836 C846 0.930 . S
H837 C847 0.936 1_554 S
C838 H832 0.930 1_556 S
C838 C839 1.355 . S
C838 C840 1.415 . S
C839 C838 1.355 . S
C839 C841 1.419 . S
C840 C838 1.415 . S
C840 C845 1.404 1_565 S
C840 C847 1.409 1_565 S
C841 H833 0.930 . S
C841 C839 1.419 . S
C841 C842 1.362 . S
C842 H834 0.930 . S
C842 C841 1.362 . S
C842 C845 1.389 1_565 S
C843 H835 0.930 . S
C843 C844 1.355 . S
C843 C845 1.456 . S
C844 C843 1.355 . S
C844 C846 1.419 . S
C845 C840 1.404 1_545 S
C845 C842 1.389 1_545 S
C845 C843 1.456 . S
C846 H836 0.930 . S
C846 C844 1.419 . S
C846 C847 1.362 . S
C847 H837 0.936 1_556 S
C847 C840 1.409 1_545 S
C847 C846 1.362 . S
H848 C854 0.930 . S
H849 C857 0.930 . S
H850 C858 0.886 1_565 S
H851 C859 0.930 . S
H852 C862 0.930 . S
H853 C863 0.886 1_545 S
C854 H848 0.930 . S
C854 C855 1.355 . S
C854 C856 1.415 . S
C855 C854 1.355 . S
C855 C857 1.419 . S
C856 C854 1.415 . S
C856 C861 1.425 1_545 S
C856 C863 1.396 1_545 S
C857 H849 0.930 . S
C857 C855 1.419 . S
C857 C858 1.421 . S
C858 H850 0.886 1_545 S
C858 C857 1.421 . S
C858 C861 1.396 1_545 S
C859 H851 0.930 . S
C859 C860 1.355 . S
C859 C861 1.415 . S
C860 C859 1.355 . S
C860 C862 1.419 . S
C861 C856 1.425 1_565 S
C861 C858 1.396 1_565 S
C861 C859 1.415 . S
C862 H852 0.930 . S
C862 C860 1.419 . S
C862 C863 1.421 . S
C863 H853 0.886 1_565 S
C863 C856 1.396 1_565 S
C863 C862 1.421 . S
H864 C870 0.930 . S
H865 C873 0.930 . S
H866 C874 0.930 . S
H867 C875 0.930 . S
H868 C878 0.930 . S
H869 C879 0.930 . S
C870 H864 0.930 . S
C870 C871 1.355 . S
C870 C872 1.415 . S
C871 C870 1.355 . S
C871 C873 1.419 . S
C872 C870 1.415 . S
C872 C877 1.425 . S
C872 C879 1.409 . S
C873 H865 0.930 . S
C873 C871 1.419 . S
C873 C874 1.362 . S
C874 H866 0.930 . S
C874 C873 1.362 . S
C874 C877 1.409 . S
C875 H867 0.930 . S
C875 C876 1.355 . S
C875 C877 1.415 . S
C876 C875 1.355 . S
C876 C878 1.419 . S
C877 C872 1.425 . S
C877 C874 1.409 . S
C877 C875 1.415 . S
C878 H868 0.930 . S
C878 C876 1.419 . S
C878 C879 1.362 . S
C879 H869 0.930 . S
C879 C872 1.409 . S
C879 C878 1.362 . S
H880 C886 0.930 . S
H881 C889 0.930 . S
H882 C890 0.930 . S
H883 C891 0.930 . S
H884 C894 0.930 . S
H885 C895 0.930 . S
C886 H880 0.930 . S
C886 C887 1.355 . S
C886 C888 1.415 . S
C887 C886 1.355 . S
C887 C889 1.419 . S
C888 C886 1.415 . S
C888 C893 1.425 . S
C888 C895 1.409 . S
C889 H881 0.930 . S
C889 C887 1.419 . S
C889 C890 1.362 . S
C890 H882 0.930 . S
C890 C889 1.362 . S
C890 C893 1.409 . S
C891 H883 0.930 . S
C891 C892 1.355 . S
C891 C893 1.415 . S
C892 C891 1.355 . S
C892 C894 1.419 . S
C893 C888 1.425 . S
C893 C890 1.409 . S
C893 C891 1.415 . S
C894 H884 0.930 . S
C894 C892 1.419 . S
C894 C895 1.362 . S
C895 H885 0.930 . S
C895 C888 1.409 . S
C895 C894 1.362 . S
H896 C902 0.930 . S
H897 C905 0.930 . S
H898 C906 0.930 . S
H899 C907 0.930 . S
H900 C910 0.930 . S
H901 C911 0.930 . S
C902 H896 0.930 . S
C902 C903 1.355 . S
C902 C904 1.415 . S
C903 C902 1.355 . S
C903 C905 1.419 . S
C904 C902 1.415 . S
C904 C909 1.425 . S
C904 C911 1.409 . S
C905 H897 0.930 . S
C905 C903 1.419 . S
C905 C906 1.362 . S
C906 H898 0.930 . S
C906 C905 1.362 . S
C906 C909 1.409 . S
C907 H899 0.930 . S
C907 C908 1.355 . S
C907 C909 1.415 . S
C908 C907 1.355 . S
C908 C910 1.419 . S
C909 C904 1.425 . S
C909 C906 1.409 . S
C909 C907 1.415 . S
C910 H900 0.930 . S
C910 C908 1.419 . S
C910 C911 1.362 . S
C911 H901 0.930 . S
C911 C904 1.409 . S
C911 C910 1.362 . S
H912 C918 0.930 . S
H913 C921 0.930 . S
H914 C922 0.930 . S
H915 C923 0.930 . S
H916 C926 0.930 . S
H917 C927 0.930 . S
C918 H912 0.930 . S
C918 C919 1.355 . S
C918 C920 1.415 . S
C919 C918 1.355 . S
C919 C921 1.419 . S
C920 C918 1.415 . S
C920 C925 1.425 . S
C920 C927 1.409 . S
C921 H913 0.930 . S
C921 C919 1.419 . S
C921 C922 1.362 . S
C922 H914 0.930 . S
C922 C921 1.362 . S
C922 C925 1.409 . S
C923 H915 0.930 . S
C923 C924 1.355 . S
C923 C925 1.415 . S
C924 C923 1.355 . S
C924 C926 1.419 . S
C925 C920 1.425 . S
C925 C922 1.409 . S
C925 C923 1.415 . S
C926 H916 0.930 . S
C926 C924 1.419 . S
C926 C927 1.362 . S
C927 H917 0.930 . S
C927 C920 1.409 . S
C927 C926 1.362 . S
H928 C934 0.930 . S
H929 C937 0.930 . S
H930 C938 0.930 . S
H931 C939 0.930 . S
H932 C942 0.930 . S
H933 C943 0.930 . S
C934 H928 0.930 . S
C934 C935 1.355 1_655 S
C934 C936 1.415 . S
C935 C934 1.355 1_455 S
C935 C937 1.419 . S
C936 C934 1.415 . S
C936 C941 1.425 1_655 S
C936 C943 1.409 . S
C937 H929 0.930 . S
C937 C935 1.419 . S
C937 C938 1.362 . S
C938 H930 0.930 . S
C938 C937 1.362 . S
C938 C941 1.409 . S
C939 H931 0.930 . S
C939 C940 1.355 1_455 S
C939 C941 1.415 . S
C940 C939 1.355 1_655 S
C940 C942 1.419 . S
C941 C936 1.425 1_455 S
C941 C938 1.409 . S
C941 C939 1.415 . S
C942 H932 0.930 . S
C942 C940 1.419 . S
C942 C943 1.362 . S
C943 H933 0.930 . S
C943 C936 1.409 . S
C943 C942 1.362 . S
H944 C950 0.930 . S
H945 C953 0.930 . S
H946 C954 0.930 . S
H947 C955 0.930 . S
H948 C958 0.930 . S
H949 C959 0.930 . S
C950 H944 0.930 . S
C950 C951 1.355 . S
C950 C952 1.415 . S
C951 C950 1.355 . S
C951 C953 1.419 1_655 S
C952 C950 1.415 . S
C952 C957 1.425 1_655 S
C952 C959 1.409 . S
C953 H945 0.930 . S
C953 C951 1.419 1_455 S
C953 C954 1.362 . S
C954 H946 0.930 . S
C954 C953 1.362 . S
C954 C957 1.409 . S
C955 H947 0.930 . S
C955 C956 1.355 . S
C955 C957 1.415 . S
C956 C955 1.355 . S
C956 C958 1.419 1_455 S
C957 C952 1.425 1_455 S
C957 C954 1.409 . S
C957 C955 1.415 . S
C958 H948 0.930 . S
C958 C956 1.419 1_655 S
C958 C959 1.362 . S
C959 H949 0.930 . S
C959 C952 1.409 . S
C959 C958 1.362 . S
H960 C966 0.930 . S
H961 C969 0.930 . S
H962 C970 0.930 . S
H963 C971 0.930 . S
H964 C974 0.930 . S
H965 C975 0.930 . S
C966 H960 0.930 . S
C966 C967 1.355 1_455 S
C966 C968 1.415 . S
C967 C966 1.355 1_655 S
C967 C969 1.419 . S
C968 C966 1.415 . S
C968 C973 1.425 1_455 S
C968 C975 1.409 . S
C969 H961 0.930 . S
C969 C967 1.419 . S
C969 C970 1.362 . S
C970 H962 0.930 . S
C970 C969 1.362 . S
C970 C973 1.409 . S
C971 H963 0.930 . S
C971 C972 1.355 1_655 S
C971 C973 1.415 . S
C972 C971 1.355 1_455 S
C972 C974 1.419 . S
C973 C968 1.425 1_655 S
C973 C970 1.409 . S
C973 C971 1.415 . S
C974 H964 0.930 . S
C974 C972 1.419 . S
C974 C975 1.362 . S
C975 H965 0.930 . S
C975 C968 1.409 . S
C975 C974 1.362 . S
H976 C982 0.930 . S
H977 C985 0.930 . S
H978 C986 0.930 . S
H979 C987 0.930 . S
H980 C990 0.930 . S
H981 C991 0.930 . S
C982 H976 0.930 . S
C982 C983 1.355 1_455 S
C982 C984 1.415 . S
C983 C982 1.355 1_655 S
C983 C985 1.419 . S
C984 C982 1.415 . S
C984 C989 1.425 1_455 S
C984 C991 1.409 . S
C985 H977 0.930 . S
C985 C983 1.419 . S
C985 C986 1.362 . S
C986 H978 0.930 . S
C986 C985 1.362 . S
C986 C989 1.409 . S
C987 H979 0.930 . S
C987 C988 1.355 1_655 S
C987 C989 1.415 . S
C988 C987 1.355 1_455 S
C988 C990 1.419 . S
C989 C984 1.425 1_655 S
C989 C986 1.409 . S
C989 C987 1.415 . S
C990 H980 0.930 . S
C990 C988 1.419 . S
C990 C991 1.362 . S
C991 H981 0.930 . S
C991 C984 1.409 . S
C991 C990 1.362 . S
H992 C998 0.930 . S
H993 C1001 0.930 . S
H994 C1002 0.930 . S
H995 C1003 0.930 . S
H996 C1006 0.930 . S
H997 C1007 0.930 . S
C998 H992 0.930 . S
C998 C999 1.355 . S
C998 C1000 1.415 . S
C999 C998 1.355 . S
C999 C1001 1.419 . S
C1000 C998 1.415 . S
C1000 C1005 1.425 . S
C1000 C1007 1.409 . S
C1001 H993 0.930 . S
C1001 C999 1.419 . S
C1001 C1002 1.362 . S
C1002 H994 0.930 . S
C1002 C1001 1.362 . S
C1002 C1005 1.409 . S
C1003 H995 0.930 . S
C1003 C1004 1.355 . S
C1003 C1005 1.415 . S
C1004 C1003 1.355 . S
C1004 C1006 1.419 . S
C1005 C1000 1.425 . S
C1005 C1002 1.409 . S
C1005 C1003 1.415 . S
C1006 H996 0.930 . S
C1006 C1004 1.419 . S
C1006 C1007 1.362 . S
C1007 H997 0.930 . S
C1007 C1000 1.409 . S
C1007 C1006 1.362 . S
H1008 C1014 0.930 . S
H1009 C1017 0.930 . S
H1010 C1018 0.930 . S
H1011 C1019 0.930 . S
H1012 C1022 0.930 . S
H1013 C1023 0.930 . S
C1014 H1008 0.930 . S
C1014 C1015 1.355 . S
C1014 C1016 1.415 . S
C1015 C1014 1.355 . S
C1015 C1017 1.419 . S
C1016 C1014 1.415 . S
C1016 C1021 1.425 . S
C1016 C1023 1.409 . S
C1017 H1009 0.930 . S
C1017 C1015 1.419 . S
C1017 C1018 1.362 . S
C1018 H1010 0.930 . S
C1018 C1017 1.362 . S
C1018 C1021 1.409 . S
C1019 H1011 0.930 . S
C1019 C1020 1.355 . S
C1019 C1021 1.415 . S
C1020 C1019 1.355 . S
C1020 C1022 1.419 . S
C1021 C1016 1.425 . S
C1021 C1018 1.409 . S
C1021 C1019 1.415 . S
C1022 H1012 0.930 . S
C1022 C1020 1.419 . S
C1022 C1023 1.362 . S
C1023 H1013 0.930 . S
C1023 C1016 1.409 . S
C1023 C1022 1.362 . S
H1024 C1030 0.930 . S
H1025 C1033 0.930 . S
H1026 C1034 0.930 . S
H1027 C1035 0.930 . S
H1028 C1038 0.930 . S
H1029 C1039 0.930 . S
C1030 H1024 0.930 . S
C1030 C1031 1.355 . S
C1030 C1032 1.415 . S
C1031 C1030 1.355 . S
C1031 C1033 1.419 . S
C1032 C1030 1.415 . S
C1032 C1037 1.425 . S
C1032 C1039 1.409 . S
C1033 H1025 0.930 . S
C1033 C1031 1.419 . S
C1033 C1034 1.362 . S
C1034 H1026 0.930 . S
C1034 C1033 1.362 . S
C1034 C1037 1.409 . S
C1035 H1027 0.930 . S
C1035 C1036 1.355 . S
C1035 C1037 1.415 . S
C1036 C1035 1.355 . S
C1036 C1038 1.419 . S
C1037 C1032 1.425 . S
C1037 C1034 1.409 . S
C1037 C1035 1.415 . S
C1038 H1028 0.930 . S
C1038 C1036 1.419 . S
C1038 C1039 1.362 . S
C1039 H1029 0.930 . S
C1039 C1032 1.409 . S
C1039 C1038 1.362 . S
H1040 C1046 0.930 . S
H1041 C1049 0.930 . S
H1042 C1050 0.930 . S
H1043 C1051 0.930 . S
H1044 C1054 0.930 . S
H1045 C1055 0.930 . S
C1046 H1040 0.930 . S
C1046 C1047 1.355 . S
C1046 C1048 1.415 . S
C1047 C1046 1.355 . S
C1047 C1049 1.419 . S
C1048 C1046 1.415 . S
C1048 C1053 1.425 . S
C1048 C1055 1.409 . S
C1049 H1041 0.930 . S
C1049 C1047 1.419 . S
C1049 C1050 1.362 . S
C1050 H1042 0.930 . S
C1050 C1049 1.362 . S
C1050 C1053 1.409 . S
C1051 H1043 0.930 . S
C1051 C1052 1.355 . S
C1051 C1053 1.415 . S
C1052 C1051 1.355 . S
C1052 C1054 1.419 . S
C1053 C1048 1.425 . S
C1053 C1050 1.409 . S
C1053 C1051 1.415 . S
C1054 H1044 0.930 . S
C1054 C1052 1.419 . S
C1054 C1055 1.362 . S
C1055 H1045 0.930 . S
C1055 C1048 1.409 . S
C1055 C1054 1.362 . S
C679 C67 1.940 . S
C684 C56 1.940 . S
C695 C140 1.961 . S
C700 C151 1.961 . S
C711 C224 1.945 . S
C716 C235 1.945 . S
C727 C308 1.958 . S
C732 C319 1.958 . S
C743 C403 1.961 . S
C748 C392 1.961 . S
C759 C487 1.959 . S
C764 C476 1.959 . S
C775 C560 1.958 . S
C780 C571 1.958 . S
C791 C655 1.958 . S
C796 C644 1.958 . S
C807 C153 1.962 . S
C812 C69 2.395 1_556 S
C823 C310 1.997 . S
C828 C237 1.997 . S
C839 C405 2.395 1_556 S
C844 C489 2.010 . S
C855 C573 2.064 . S
C860 C646 2.064 . S
C871 C58 1.867 . S
C876 C478 1.456 . S
C887 C394 1.868 . S
C892 C142 1.439 . S
C903 C226 1.518 . S
C908 C657 1.518 . S
C919 C321 1.402 . S
C924 C562 1.402 . S
C935 C63 1.640 . S
C940 C315 1.677 . S
C951 C147 1.474 . S
C956 C231 1.552 . S
C967 C158 1.672 . S
C972 C242 1.769 . S
C983 C326 1.516 . S
C988 C74 1.531 . S
C999 C399 1.653 . S
C1004 C651 1.690 . S
C1015 C483 1.452 . S
C1020 C567 1.568 . S
C1031 C494 1.659 . S
C1036 C578 1.772 . S
C1047 C662 1.482 . S
C1052 C410 1.524 . S
