# Generated by pormake.
# Topology yfc, (5)-cn, num edge types: 1
# Building blocks:
#     Node 0, Type 0, BuildingBlock: XOMCOT_clean_sbu_1, # of connection points: 5
#     Node 1, Type 0, BuildingBlock: XOMCOT_clean_sbu_1, # of connection points: 5
#     Node 2, Type 0, BuildingBlock: XOMCOT_clean_sbu_1, # of connection points: 5
#     Node 3, Type 0, BuildingBlock: XOMCOT_clean_sbu_1, # of connection points: 5
#     Node 4, Type 0, BuildingBlock: XOMCOT_clean_sbu_1, # of connection points: 5
#     Node 5, Type 0, BuildingBlock: XOMCOT_clean_sbu_1, # of connection points: 5
#     Node 6, Type 0, BuildingBlock: XOMCOT_clean_sbu_1, # of connection points: 5
#     Node 7, Type 0, BuildingBlock: XOMCOT_clean_sbu_1, # of connection points: 5
#     Node 8, Type 0, BuildingBlock: XOMCOT_clean_sbu_1, # of connection points: 5
#     Node 9, Type 0, BuildingBlock: XOMCOT_clean_sbu_1, # of connection points: 5
#     Node 10, Type 0, BuildingBlock: XOMCOT_clean_sbu_1, # of connection points: 5
#     Node 11, Type 0, BuildingBlock: XOMCOT_clean_sbu_1, # of connection points: 5
#     Node 12, Type 0, BuildingBlock: XOMCOT_clean_sbu_1, # of connection points: 5
#     Node 13, Type 0, BuildingBlock: XOMCOT_clean_sbu_1, # of connection points: 5
#     Node 14, Type 0, BuildingBlock: XOMCOT_clean_sbu_1, # of connection points: 5
#     Node 15, Type 0, BuildingBlock: XOMCOT_clean_sbu_1, # of connection points: 5
#     Edge 16, Type (0, 0), BuildingBlock: MIFKUJ_clean_linker_0, # of connection points: 2
#     Edge 17, Type (0, 0), BuildingBlock: MIFKUJ_clean_linker_0, # of connection points: 2
#     Edge 18, Type (0, 0), BuildingBlock: MIFKUJ_clean_linker_0, # of connection points: 2
#     Edge 19, Type (0, 0), BuildingBlock: MIFKUJ_clean_linker_0, # of connection points: 2
#     Edge 20, Type (0, 0), BuildingBlock: MIFKUJ_clean_linker_0, # of connection points: 2
#     Edge 21, Type (0, 0), BuildingBlock: MIFKUJ_clean_linker_0, # of connection points: 2
#     Edge 22, Type (0, 0), BuildingBlock: MIFKUJ_clean_linker_0, # of connection points: 2
#     Edge 23, Type (0, 0), BuildingBlock: MIFKUJ_clean_linker_0, # of connection points: 2
#     Edge 24, Type (0, 0), BuildingBlock: MIFKUJ_clean_linker_0, # of connection points: 2
#     Edge 25, Type (0, 0), BuildingBlock: MIFKUJ_clean_linker_0, # of connection points: 2
#     Edge 26, Type (0, 0), BuildingBlock: MIFKUJ_clean_linker_0, # of connection points: 2
#     Edge 27, Type (0, 0), BuildingBlock: MIFKUJ_clean_linker_0, # of connection points: 2
#     Edge 28, Type (0, 0), BuildingBlock: MIFKUJ_clean_linker_0, # of connection points: 2
#     Edge 29, Type (0, 0), BuildingBlock: MIFKUJ_clean_linker_0, # of connection points: 2
#     Edge 30, Type (0, 0), BuildingBlock: MIFKUJ_clean_linker_0, # of connection points: 2
#     Edge 31, Type (0, 0), BuildingBlock: MIFKUJ_clean_linker_0, # of connection points: 2
#     Edge 32, Type (0, 0), BuildingBlock: MIFKUJ_clean_linker_0, # of connection points: 2
#     Edge 33, Type (0, 0), BuildingBlock: MIFKUJ_clean_linker_0, # of connection points: 2
#     Edge 34, Type (0, 0), BuildingBlock: MIFKUJ_clean_linker_0, # of connection points: 2
#     Edge 35, Type (0, 0), BuildingBlock: MIFKUJ_clean_linker_0, # of connection points: 2
#     Edge 36, Type (0, 0), BuildingBlock: MIFKUJ_clean_linker_0, # of connection points: 2
#     Edge 37, Type (0, 0), BuildingBlock: MIFKUJ_clean_linker_0, # of connection points: 2
#     Edge 38, Type (0, 0), BuildingBlock: MIFKUJ_clean_linker_0, # of connection points: 2
#     Edge 39, Type (0, 0), BuildingBlock: MIFKUJ_clean_linker_0, # of connection points: 2
#     Edge 40, Type (0, 0), BuildingBlock: MIFKUJ_clean_linker_0, # of connection points: 2
#     Edge 41, Type (0, 0), BuildingBlock: MIFKUJ_clean_linker_0, # of connection points: 2
#     Edge 42, Type (0, 0), BuildingBlock: MIFKUJ_clean_linker_0, # of connection points: 2
#     Edge 43, Type (0, 0), BuildingBlock: MIFKUJ_clean_linker_0, # of connection points: 2
#     Edge 44, Type (0, 0), BuildingBlock: MIFKUJ_clean_linker_0, # of connection points: 2
#     Edge 45, Type (0, 0), BuildingBlock: MIFKUJ_clean_linker_0, # of connection points: 2
#     Edge 46, Type (0, 0), BuildingBlock: MIFKUJ_clean_linker_0, # of connection points: 2
#     Edge 47, Type (0, 0), BuildingBlock: MIFKUJ_clean_linker_0, # of connection points: 2
#     Edge 48, Type (0, 0), BuildingBlock: MIFKUJ_clean_linker_0, # of connection points: 2
#     Edge 49, Type (0, 0), BuildingBlock: MIFKUJ_clean_linker_0, # of connection points: 2
#     Edge 50, Type (0, 0), BuildingBlock: MIFKUJ_clean_linker_0, # of connection points: 2
#     Edge 51, Type (0, 0), BuildingBlock: MIFKUJ_clean_linker_0, # of connection points: 2
#     Edge 52, Type (0, 0), BuildingBlock: MIFKUJ_clean_linker_0, # of connection points: 2
#     Edge 53, Type (0, 0), BuildingBlock: MIFKUJ_clean_linker_0, # of connection points: 2
#     Edge 54, Type (0, 0), BuildingBlock: MIFKUJ_clean_linker_0, # of connection points: 2
#     Edge 55, Type (0, 0), BuildingBlock: MIFKUJ_clean_linker_0, # of connection points: 2
# Relax obj value: 0.644
# Max RMSD: 0.269
# Mean RMSD: 0.269
data_MOF--net-yfc--node1-XOMCOT_clean_sbu_1--edge1-MIFKUJ_clean_linker_0
_symmetry_space_group_name_H-M    P1
_symmetry_Int_Tables_number       1
_symmetry_cell_setting            triclinic
loop_
_symmetry_equiv_pos_as_xyz
'x, y, z'
_cell_length_a     50.987132
_cell_length_b     50.977036
_cell_length_c     60.135564
_cell_angle_alpha  89.965105
_cell_angle_beta   90.002836
_cell_angle_gamma 90.026871
loop_
_atom_site_label
_atom_site_type_symbol
_atom_site_fract_x
_atom_site_fract_y
_atom_site_fract_z
_atom_type_partial_charge
C0 C 0.70148 0.99137 0.15132 0.0
C1 C 0.68318 0.97386 0.15932 0.0
N2 N 0.66692 0.9868 0.17315 0.0
N3 N 0.69674 0.01531 0.15992 0.0
C4 C 0.67537 0.01193 0.17296 0.0
H5 H 0.71798 0.98659 0.1408 0.0
Co6 Co 0.71864 0.04453 0.15699 0.0
C7 C 0.6875 0.0899 0.1718 0.0
O8 O 0.70806 0.09843 0.18286 0.0
N9 N 0.7411 0.07416 0.1534 0.0
C10 C 0.77193 0.10488 0.15676 0.0
C11 C 0.765 0.07951 0.16199 0.0
C12 C 0.73484 0.09618 0.14189 0.0
N13 N 0.75265 0.1156 0.14443 0.0
O14 O 0.71253 0.04527 0.12575 0.0
H15 H 0.77657 0.06648 0.17211 0.0
H16 H 0.7166 0.09839 0.13288 0.0
O17 O 0.68863 0.06801 0.16145 0.0
C18 C 0.73131 0.03481 0.115 0.0
O19 O 0.75064 0.0241 0.12627 0.0
N20 N 0.72633 0.04212 0.18765 0.0
C21 C 0.74701 0.04061 0.23047 0.0
C22 C 0.72116 0.04897 0.22685 0.0
C23 C 0.71099 0.04916 0.20531 0.0
C24 C 0.74977 0.03009 0.19136 0.0
C25 C 0.76083 0.02966 0.21257 0.0
H26 H 0.69114 0.05582 0.20306 0.0
H27 H 0.76082 0.02251 0.17741 0.0
H28 H 0.66654 0.02736 0.18271 0.0
H29 H 0.6829 0.95293 0.15632 0.0
H30 H 0.78914 0.11505 0.16281 0.0
H31 H 0.70928 0.05637 0.2404 0.0
H32 H 0.78069 0.02253 0.21452 0.0
C33 C 0.52508 0.71682 0.65212 0.0
C34 C 0.54362 0.69972 0.66021 0.0
N35 N 0.53162 0.68216 0.67357 0.0
N36 N 0.50137 0.71014 0.66018 0.0
C37 C 0.50593 0.68884 0.67306 0.0
H38 H 0.5289 0.73389 0.64195 0.0
Co39 Co 0.47124 0.73049 0.65704 0.0
C40 C 0.42807 0.69896 0.67578 0.0
O41 O 0.4195 0.71996 0.68618 0.0
N42 N 0.44067 0.75159 0.65325 0.0
C43 C 0.41055 0.78324 0.65415 0.0
C44 C 0.43606 0.77675 0.65916 0.0
C45 C 0.4179 0.74385 0.64358 0.0
N46 N 0.39896 0.76235 0.64462 0.0
O47 O 0.46929 0.72177 0.62627 0.0
H48 H 0.44992 0.78977 0.66698 0.0
H49 H 0.41498 0.7245 0.63661 0.0
O50 O 0.44917 0.70009 0.6643 0.0
C51 C 0.47881 0.74024 0.6145 0.0
O52 O 0.48887 0.76068 0.62474 0.0
N53 N 0.47508 0.74093 0.68683 0.0
C54 C 0.48039 0.76554 0.72793 0.0
C55 C 0.4724 0.7392 0.72662 0.0
C56 C 0.47032 0.72705 0.70586 0.0
C57 C 0.48664 0.76494 0.6881 0.0
C58 C 0.48887 0.77793 0.70836 0.0
H59 H 0.46437 0.70677 0.70527 0.0
H60 H 0.49275 0.77472 0.673 0.0
H61 H 0.49082 0.67898 0.6825 0.0
H62 H 0.56454 0.70117 0.65746 0.0
H63 H 0.40096 0.80156 0.65823 0.0
H64 H 0.46698 0.72834 0.74141 0.0
H65 H 0.49561 0.79807 0.70834 0.0
C66 C 0.78828 0.51653 0.14519 0.0
C67 C 0.80648 0.53417 0.15311 0.0
N68 N 0.82222 0.52164 0.16766 0.0
N69 N 0.79247 0.49299 0.15472 0.0
C70 C 0.81347 0.49664 0.16814 0.0
H71 H 0.77217 0.52091 0.13411 0.0
Co72 Co 0.76982 0.4645 0.15275 0.0
C73 C 0.79896 0.41966 0.17177 0.0
O74 O 0.77759 0.41179 0.18206 0.0
N75 N 0.7465 0.43552 0.15022 0.0
C76 C 0.71305 0.40754 0.15267 0.0
C77 C 0.72161 0.43253 0.15749 0.0
C78 C 0.75205 0.41238 0.14016 0.0
N79 N 0.7324 0.39473 0.14201 0.0
O80 O 0.77794 0.46066 0.12202 0.0
H81 H 0.71027 0.44717 0.16613 0.0
H82 H 0.7707 0.40827 0.1323 0.0
O83 O 0.79862 0.44072 0.16023 0.0
C84 C 0.75936 0.46911 0.10982 0.0
O85 O 0.73894 0.47995 0.11948 0.0
N86 N 0.76021 0.47025 0.18255 0.0
C87 C 0.73653 0.47894 0.22361 0.0
C88 C 0.76145 0.46735 0.22234 0.0
C89 C 0.77328 0.46375 0.20161 0.0
C90 C 0.73788 0.48481 0.18375 0.0
C91 C 0.7255 0.48917 0.20407 0.0
H92 H 0.79257 0.45521 0.20116 0.0
H93 H 0.72883 0.49181 0.16859 0.0
H94 H 0.8211 0.48177 0.17921 0.0
H95 H 0.80737 0.55486 0.14912 0.0
H96 H 0.69444 0.39913 0.1576 0.0
H97 H 0.77117 0.45977 0.23701 0.0
H98 H 0.70685 0.49931 0.20432 0.0
C99 C 0.99429 0.78827 0.65021 0.0
C100 C 0.97637 0.80646 0.65778 0.0
N101 N 0.98854 0.82226 0.67247 0.0
N102 N 0.01768 0.7927 0.65997 0.0
C103 C 0.01356 0.81372 0.67323 0.0
H104 H 0.99012 0.77208 0.63915 0.0
Co105 Co 0.04757 0.77153 0.65853 0.0
C106 C 0.09074 0.80608 0.67387 0.0
O107 O 0.10122 0.78672 0.68527 0.0
N108 N 0.07789 0.74993 0.65671 0.0
C109 C 0.1079 0.71871 0.66143 0.0
C110 C 0.08246 0.72609 0.66571 0.0
C111 C 0.1006 0.75588 0.64609 0.0
N112 N 0.11953 0.73766 0.64931 0.0
O113 O 0.04967 0.77684 0.62723 0.0
H114 H 0.06863 0.71474 0.67526 0.0
H115 H 0.10343 0.7739 0.6369 0.0
O116 O 0.0694 0.80247 0.66318 0.0
C117 C 0.03951 0.75767 0.61675 0.0
O118 O 0.02905 0.73841 0.62829 0.0
N119 N 0.04364 0.76443 0.68911 0.0
C120 C 0.0363 0.74451 0.73188 0.0
C121 C 0.04677 0.76972 0.72867 0.0
C122 C 0.05007 0.77945 0.70713 0.0
C123 C 0.03035 0.74153 0.69207 0.0
C124 C 0.02699 0.73087 0.71322 0.0
H125 H 0.05787 0.79893 0.70528 0.0
H126 H 0.02365 0.73069 0.67769 0.0
H127 H 0.02838 0.82219 0.68386 0.0
H128 H 0.95565 0.80697 0.65386 0.0
H129 H 0.11735 0.70124 0.66776 0.0
H130 H 0.05304 0.78157 0.74263 0.0
H131 H 0.01857 0.71145 0.71465 0.0
C132 C 0.71354 0.50555 0.84051 0.0
C133 C 0.69779 0.52601 0.83371 0.0
N134 N 0.67909 0.51642 0.82007 0.0
N135 N 0.70479 0.48313 0.8313 0.0
C136 C 0.68362 0.49032 0.81921 0.0
H137 H 0.73118 0.50716 0.85041 0.0
Co138 Co 0.72238 0.45114 0.83109 0.0
C139 C 0.68269 0.41335 0.81444 0.0
O140 O 0.70013 0.40225 0.80138 0.0
N141 N 0.7407 0.41864 0.8312 0.0
C142 C 0.77127 0.38765 0.82756 0.0
C143 C 0.76546 0.41375 0.82431 0.0
C144 C 0.73237 0.39528 0.83941 0.0
N145 N 0.75027 0.37602 0.83681 0.0
O146 O 0.71779 0.44788 0.86245 0.0
H147 H 0.77874 0.42806 0.81739 0.0
H148 H 0.71335 0.3923 0.84698 0.0
O149 O 0.68911 0.43297 0.82646 0.0
C150 C 0.73903 0.45273 0.87282 0.0
O151 O 0.75978 0.45968 0.86125 0.0
N152 N 0.72903 0.45609 0.8006 0.0
C153 C 0.74913 0.4642 0.7581 0.0
C154 C 0.72312 0.45592 0.761 0.0
C155 C 0.71316 0.45265 0.78249 0.0
C156 C 0.75315 0.4671 0.79801 0.0
C157 C 0.76378 0.47098 0.77695 0.0
H158 H 0.69288 0.44719 0.78425 0.0
H159 H 0.7647 0.47188 0.81255 0.0
H160 H 0.67243 0.47681 0.80915 0.0
H161 H 0.701 0.54655 0.83734 0.0
H162 H 0.78925 0.37782 0.82285 0.0
H163 H 0.71084 0.4514 0.7468 0.0
H164 H 0.78388 0.47769 0.77558 0.0
C165 C 0.98342 0.70045 0.34462 0.0
C166 C 0.96452 0.68337 0.33712 0.0
N167 N 0.97571 0.66657 0.32266 0.0
N168 N 0.00655 0.69449 0.33506 0.0
C169 C 1.0013 0.67352 0.32197 0.0
H170 H 0.98011 0.717 0.35547 0.0
Co171 Co 0.0365 0.71547 0.33672 0.0
C172 C 0.08062 0.68237 0.32189 0.0
O173 O 0.09017 0.70221 0.31048 0.0
N174 N 0.06671 0.73724 0.339 0.0
C175 C 0.09707 0.76821 0.33459 0.0
C176 C 0.07167 0.76098 0.32994 0.0
C177 C 0.08908 0.73131 0.35014 0.0
N178 N 0.10824 0.7493 0.34704 0.0
O179 O 0.0385 0.70987 0.368 0.0
H180 H 0.05822 0.7723 0.32 0.0
H181 H 0.09163 0.71332 0.35944 0.0
O182 O 0.05874 0.68464 0.3321 0.0
C183 C 0.02878 0.72863 0.37926 0.0
O184 O 0.01787 0.74836 0.36865 0.0
N185 N 0.03298 0.72261 0.30614 0.0
C186 C 0.0293 0.74324 0.26338 0.0
C187 C 0.03858 0.71762 0.26677 0.0
C188 C 0.03988 0.70747 0.28832 0.0
C189 C 0.02028 0.74574 0.30278 0.0
C190 C 0.01871 0.75675 0.28161 0.0
H191 H 0.047 0.68775 0.29044 0.0
H192 H 0.01307 0.75665 0.31694 0.0
H193 H 0.01554 0.66456 0.31106 0.0
H194 H 0.94391 0.68396 0.34138 0.0
H195 H 0.10689 0.78545 0.32817 0.0
H196 H 0.04577 0.70595 0.25302 0.0
H197 H 0.01102 0.77644 0.27994 0.0
C198 C 0.80391 0.97951 0.84845 0.0
C199 C 0.82335 0.96316 0.84066 0.0
N200 N 0.83465 0.97463 0.82291 0.0
N201 N 0.80305 1.00133 0.83577 0.0
C202 C 0.82215 0.9978 0.82043 0.0
H203 H 0.79063 0.97519 0.86196 0.0
Co204 Co 0.77835 0.02836 0.83747 0.0
C205 C 0.80531 0.07474 0.81783 0.0
O206 O 0.78392 0.08168 0.80711 0.0
N207 N 0.75327 0.05576 0.83963 0.0
C208 C 0.71834 0.08171 0.83615 0.0
C209 C 0.72807 0.05681 0.8327 0.0
C210 C 0.75777 0.07987 0.84829 0.0
N211 N 0.73728 0.0963 0.84561 0.0
O212 O 0.78631 0.03371 0.86809 0.0
H213 H 0.71746 0.04095 0.82496 0.0
H214 H 0.77638 0.08576 0.85538 0.0
O215 O 0.80559 0.05375 0.82949 0.0
C216 C 0.76956 0.02224 0.88043 0.0
O217 O 0.75132 0.00785 0.87094 0.0
N218 N 0.76864 0.02132 0.80789 0.0
C219 C 0.74199 0.01315 0.76818 0.0
C220 C 0.7661 0.02648 0.76837 0.0
C221 C 0.77952 0.02978 0.78841 0.0
C222 C 0.74765 0.00483 0.80742 0.0
C223 C 0.73388 1.00054 0.78775 0.0
H224 H 0.79799 0.03998 0.78806 0.0
H225 H 0.74034 0.99662 0.82282 0.0
H226 H 0.82651 0.01168 0.80736 0.0
H227 H 0.82787 0.94374 0.84686 0.0
H228 H 0.69937 0.08893 0.83085 0.0
H229 H 0.77368 0.036 0.7536 0.0
H230 H 0.71601 0.98905 0.78823 0.0
C231 C 0.50709 0.8007 0.34723 0.0
C232 C 0.52467 0.81973 0.3405 0.0
N233 N 0.51352 0.83366 0.32399 0.0
N234 N 0.48496 0.80277 0.33508 0.0
C235 C 0.48942 0.82326 0.32129 0.0
H236 H 0.51068 0.78556 0.35946 0.0
Co237 Co 0.45675 0.77939 0.33516 0.0
C238 C 0.41117 0.81044 0.31974 0.0
O239 O 0.40311 0.79054 0.30761 0.0
N240 N 0.42813 0.75533 0.33566 0.0
C241 C 0.40143 0.7213 0.33019 0.0
C242 C 0.42616 0.7312 0.32649 0.0
C243 C 0.40464 0.75893 0.34577 0.0
N244 N 0.38774 0.73897 0.34207 0.0
O245 O 0.45319 0.78367 0.36666 0.0
H246 H 0.44141 0.72127 0.3174 0.0
H247 H 0.3997 0.77643 0.35505 0.0
O248 O 0.4326 0.80872 0.33068 0.0
C249 C 0.45883 0.76341 0.37811 0.0
O250 O 0.46672 0.74209 0.36782 0.0
N251 N 0.46208 0.77374 0.30443 0.0
C252 C 0.47063 0.75576 0.26124 0.0
C253 C 0.45844 0.78002 0.26498 0.0
C254 C 0.45452 0.78878 0.28671 0.0
C255 C 0.47712 0.75207 0.30098 0.0
C256 C 0.48118 0.74237 0.27959 0.0
H257 H 0.44519 0.80751 0.28894 0.0
H258 H 0.48458 0.74127 0.31512 0.0
H259 H 0.47564 0.8301 0.30897 0.0
H260 H 0.54465 0.82206 0.34628 0.0
H261 H 0.3938 0.70299 0.32377 0.0
H262 H 0.45105 0.79167 0.25128 0.0
H263 H 0.49094 0.72365 0.27772 0.0
C264 C 0.28611 0.02233 0.8394 0.0
C265 C 0.30283 0.04097 0.83089 0.0
N266 N 0.32272 0.02863 0.82051 0.0
N267 N 0.29533 0.99825 0.83449 0.0
C268 C 0.31788 0.00276 0.82317 0.0
H269 H 0.26745 0.02618 0.84726 0.0
Co270 Co 0.27583 0.96739 0.83769 0.0
C271 C 0.30933 0.92718 0.81633 0.0
O272 O 0.28909 0.91783 0.80533 0.0
N273 N 0.25572 0.9362 0.84149 0.0
C274 C 0.22305 0.90732 0.84515 0.0
C275 C 0.22942 0.93296 0.8403 0.0
C276 C 0.26459 0.91238 0.8482 0.0
N277 N 0.24531 0.89434 0.84984 0.0
O278 O 0.28572 0.96459 0.8681 0.0
H279 H 0.2154 0.94813 0.83654 0.0
H280 H 0.28489 0.90823 0.85206 0.0
O281 O 0.30646 0.94674 0.82936 0.0
C282 C 0.26917 0.97588 0.88069 0.0
O283 O 0.24958 0.98869 0.87157 0.0
N284 N 0.26432 0.97164 0.80814 0.0
C285 C 0.2401 0.97792 0.76693 0.0
C286 C 0.26697 0.97217 0.76829 0.0
C287 C 0.27888 0.96969 0.78912 0.0
C288 C 0.23932 0.98088 0.80703 0.0
C289 C 0.22656 0.98352 0.78667 0.0
H290 H 0.29966 0.96589 0.78973 0.0
H291 H 0.22902 0.98579 0.82216 0.0
H292 H 0.3294 0.98752 0.81535 0.0
H293 H 0.29985 0.06199 0.83131 0.0
H294 H 0.20362 0.89876 0.8448 0.0
H295 H 0.27855 0.96903 0.75343 0.0
H296 H 0.20597 0.98868 0.78659 0.0
C297 C 0.49336 0.29716 0.35604 0.0
C298 C 0.47424 0.31355 0.34774 0.0
N299 N 0.48485 0.32829 0.33144 0.0
N300 N 0.51595 0.30149 0.34502 0.0
C301 C 0.51024 0.3208 0.33033 0.0
H302 H 0.49055 0.28196 0.36835 0.0
Co303 Co 0.54537 0.27985 0.34638 0.0
C304 C 0.58874 0.31047 0.32639 0.0
O305 O 0.59669 0.28951 0.31559 0.0
N306 N 0.57524 0.25753 0.34808 0.0
C307 C 0.60429 0.22528 0.3439 0.0
C308 C 0.57876 0.23296 0.34023 0.0
C309 C 0.59867 0.26374 0.35736 0.0
N310 N 0.61694 0.24486 0.35441 0.0
O311 O 0.55003 0.28814 0.37711 0.0
H312 H 0.56415 0.22135 0.33179 0.0
H313 H 0.60254 0.2824 0.36529 0.0
O314 O 0.56796 0.30947 0.33829 0.0
C315 C 0.5431 0.26889 0.3893 0.0
O316 O 0.53327 0.24795 0.37964 0.0
N317 N 0.53873 0.26972 0.31691 0.0
C318 C 0.52818 0.24379 0.27728 0.0
C319 C 0.54017 0.26857 0.27707 0.0
C320 C 0.54479 0.28158 0.29717 0.0
C321 C 0.5239 0.24752 0.31708 0.0
C322 C 0.51862 0.23403 0.29749 0.0
H323 H 0.55368 0.30073 0.29664 0.0
H324 H 0.51756 0.23937 0.3328 0.0
H325 H 0.52387 0.32786 0.31792 0.0
H326 H 0.45383 0.31378 0.35269 0.0
H327 H 0.61313 0.2072 0.33819 0.0
H328 H 0.54726 0.27715 0.26172 0.0
H329 H 0.50847 0.21537 0.29831 0.0
C330 C 0.21498 0.49031 0.84786 0.0
C331 C 0.19803 0.47121 0.84051 0.0
N332 N 0.18108 0.48214 0.82601 0.0
N333 N 0.20882 0.51333 0.83818 0.0
C334 C 0.1878 0.5078 0.82519 0.0
H335 H 0.23162 0.48721 0.85865 0.0
Co336 Co 0.22991 0.54333 0.83944 0.0
C337 C 0.1958 0.58668 0.82392 0.0
O338 O 0.2152 0.59625 0.812 0.0
N339 N 0.25191 0.57342 0.84128 0.0
C340 C 0.28557 0.60109 0.83857 0.0
C341 C 0.27705 0.57596 0.83454 0.0
C342 C 0.24629 0.597 0.8506 0.0
N343 N 0.26604 0.61456 0.84839 0.0
O344 O 0.22479 0.5457 0.87081 0.0
H345 H 0.28883 0.5607 0.82723 0.0
H346 H 0.22753 0.60152 0.85806 0.0
O347 O 0.19899 0.56545 0.83493 0.0
C348 C 0.24383 0.53616 0.88186 0.0
O349 O 0.26335 0.52527 0.87099 0.0
N350 N 0.23668 0.5395 0.80872 0.0
C351 C 0.25661 0.53607 0.76568 0.0
C352 C 0.23085 0.54469 0.76936 0.0
C353 C 0.22106 0.54585 0.79103 0.0
C354 C 0.26 0.52725 0.80508 0.0
C355 C 0.27069 0.52587 0.78377 0.0
H356 H 0.2012 0.55245 0.79331 0.0
H357 H 0.27115 0.51995 0.81908 0.0
H358 H 0.17863 0.52188 0.81425 0.0
H359 H 0.19883 0.45064 0.8449 0.0
H360 H 0.30474 0.60877 0.83444 0.0
H361 H 0.21872 0.55146 0.75573 0.0
H362 H 0.29047 0.51851 0.78185 0.0
C363 C 0.0177 0.20749 0.35039 0.0
C364 C 0.03457 0.18879 0.34212 0.0
N365 N 0.02286 0.17683 0.32478 0.0
N366 N 0.99532 0.20724 0.33846 0.0
C367 C 0.99904 0.18828 0.32302 0.0
H368 H 0.02191 0.22097 0.36378 0.0
Co369 Co 0.96716 0.23045 0.34139 0.0
C370 C 0.9211 0.20269 0.32271 0.0
O371 O 0.91315 0.22446 0.31311 0.0
N372 N 0.93847 0.254 0.34479 0.0
C373 C 0.90905 0.28595 0.34091 0.0
C374 C 0.93435 0.2782 0.33632 0.0
C375 C 0.91574 0.24823 0.35544 0.0
N376 N 0.89713 0.26682 0.35263 0.0
O377 O 0.96349 0.22131 0.37202 0.0
H378 H 0.94817 0.28925 0.32649 0.0
H379 H 0.91242 0.22976 0.36385 0.0
O380 O 0.94282 0.20224 0.33337 0.0
C381 C 0.97407 0.23894 0.38406 0.0
O382 O 0.98633 0.25837 0.37412 0.0
N383 N 0.97275 0.24141 0.31197 0.0
C384 C 0.98003 0.26935 0.27277 0.0
C385 C 0.96732 0.2449 0.27251 0.0
C386 C 0.96435 0.23088 0.29234 0.0
C387 C 0.98843 0.26304 0.31189 0.0
C388 C 0.99213 0.27753 0.2925 0.0
H389 H 0.95457 0.21218 0.29175 0.0
H390 H 0.99641 0.27021 0.32741 0.0
H391 H 0.98474 0.18322 0.31047 0.0
H392 H 0.05439 0.18515 0.34778 0.0
H393 H 0.89973 0.30359 0.33476 0.0
H394 H 0.95818 0.23748 0.25752 0.0
H395 H 0.00285 0.29585 0.29329 0.0
C396 C 0.29577 0.48259 0.15436 0.0
C397 C 0.31206 0.46321 0.16225 0.0
N398 N 0.33004 0.47428 0.17574 0.0
N399 N 0.30336 0.5059 0.16273 0.0
C400 C 0.32456 0.50024 0.17545 0.0
H401 H 0.2785 0.47958 0.14427 0.0
Co402 Co 0.28329 0.53655 0.16104 0.0
C403 C 0.31642 0.57717 0.18183 0.0
O404 O 0.29609 0.58557 0.19324 0.0
N405 N 0.26242 0.56756 0.15881 0.0
C406 C 0.229 0.59565 0.15919 0.0
C407 C 0.23644 0.57004 0.16249 0.0
C408 C 0.26988 0.59187 0.152 0.0
N409 N 0.25017 0.60967 0.15294 0.0
O410 O 0.29164 0.5404 0.1303 0.0
H411 H 0.22329 0.55437 0.16701 0.0
H412 H 0.28968 0.59653 0.14697 0.0
O413 O 0.31403 0.55753 0.1688 0.0
C414 C 0.27347 0.53104 0.11813 0.0
O415 O 0.25325 0.51987 0.12784 0.0
N416 N 0.2732 0.53105 0.1909 0.0
C417 C 0.24976 0.52428 0.23232 0.0
C418 C 0.27624 0.53151 0.23071 0.0
C419 C 0.28781 0.53418 0.20978 0.0
C420 C 0.24887 0.52016 0.19233 0.0
C421 C 0.23647 0.51718 0.21283 0.0
H422 H 0.30826 0.53935 0.20904 0.0
H423 H 0.23859 0.51472 0.1773 0.0
H424 H 0.33466 0.51452 0.18561 0.0
H425 H 0.31009 0.44241 0.15905 0.0
H426 H 0.20931 0.60314 0.16123 0.0
H427 H 0.28765 0.53589 0.24544 0.0
H428 H 0.21619 0.51086 0.21319 0.0
C429 C 0.0205 0.29412 0.65337 0.0
C430 C 0.03906 0.31155 0.661 0.0
N431 N 0.02791 0.32686 0.67661 0.0
N432 N 0.9977 0.29836 0.66411 0.0
C433 C 0.00279 0.31859 0.67805 0.0
H434 H 0.02389 0.27844 0.64163 0.0
Co435 Co 0.96821 0.27665 0.66346 0.0
C436 C 0.92557 0.3093 0.68285 0.0
O437 O 0.91639 0.28936 0.69436 0.0
N438 N 0.93832 0.25448 0.66257 0.0
C439 C 0.90951 0.22222 0.66798 0.0
C440 C 0.93525 0.2299 0.67057 0.0
C441 C 0.9144 0.26069 0.65425 0.0
N442 N 0.8963 0.24185 0.65803 0.0
O443 O 0.96307 0.28395 0.63268 0.0
H444 H 0.95037 0.21839 0.67845 0.0
H445 H 0.91001 0.27935 0.6465 0.0
O446 O 0.94612 0.30664 0.67091 0.0
C447 C 0.97296 0.26571 0.62091 0.0
O448 O 0.98521 0.2464 0.63101 0.0
N449 N 0.97517 0.26735 0.69305 0.0
C450 C 0.98349 0.24031 0.73254 0.0
C451 C 0.97115 0.26498 0.73266 0.0
C452 C 0.96792 0.27866 0.71268 0.0
C453 C 0.99076 0.2457 0.69316 0.0
C454 C 0.99532 0.2319 0.71274 0.0
H455 H 0.95884 0.29769 0.71319 0.0
H456 H 0.99812 0.23805 0.67759 0.0
H457 H 0.98892 0.32589 0.69016 0.0
H458 H 0.05946 0.31223 0.65604 0.0
H459 H 0.9009 0.20419 0.67409 0.0
H460 H 0.96244 0.27291 0.74763 0.0
H461 H 0.00631 0.21375 0.71198 0.0
C462 C 0.19833 0.01223 0.14577 0.0
C463 C 0.18015 0.02962 0.15413 0.0
N464 N 0.16891 0.01873 0.17218 0.0
N465 N 0.19844 0.99031 0.15836 0.0
C466 C 0.18016 0.99487 0.17422 0.0
H467 H 0.2113 0.01591 0.13192 0.0
Co468 Co 0.22148 0.96173 0.15629 0.0
C469 C 0.19255 0.9184 0.17877 0.0
O470 O 0.21373 0.91032 0.1892 0.0
N471 N 0.24472 0.93275 0.15386 0.0
C472 C 0.27927 0.90597 0.15501 0.0
C473 C 0.27062 0.93127 0.15848 0.0
C474 C 0.2385 0.90832 0.14667 0.0
N475 N 0.25889 0.89146 0.14788 0.0
O476 O 0.21114 0.95568 0.12632 0.0
H477 H 0.28262 0.94727 0.16432 0.0
H478 H 0.21907 0.90275 0.14117 0.0
O479 O 0.19342 0.93857 0.1662 0.0
C480 C 0.22688 0.9669 0.11294 0.0
O481 O 0.24621 0.98102 0.12105 0.0
N482 N 0.23357 0.96948 0.18507 0.0
C483 C 0.26161 0.98191 0.22334 0.0
C484 C 0.23732 0.96904 0.22481 0.0
C485 C 0.22329 0.96344 0.20543 0.0
C486 C 0.25532 0.9849 0.18366 0.0
C487 C 0.26984 0.99114 0.20254 0.0
H488 H 0.20455 0.95394 0.20706 0.0
H489 H 0.26222 0.99118 0.16749 0.0
H490 H 0.17551 0.9812 0.18737 0.0
H491 H 0.17651 0.04931 0.14811 0.0
H492 H 0.29877 0.89861 0.15839 0.0
H493 H 0.2299 0.96198 0.2406 0.0
H494 H 0.28804 0.00189 0.20072 0.0
C495 C 0.49116 0.21466 0.65498 0.0
C496 C 0.47231 0.1962 0.65995 0.0
N497 N 0.48242 0.17897 0.67469 0.0
N498 N 0.51315 0.20915 0.66643 0.0
C499 C 0.50736 0.18715 0.67802 0.0
H500 H 0.48862 0.23165 0.64442 0.0
Co501 Co 0.54272 0.23057 0.66842 0.0
C502 C 0.58443 0.19728 0.68699 0.0
O503 O 0.59134 0.21664 0.7002 0.0
N504 N 0.57301 0.25247 0.66999 0.0
C505 C 0.60324 0.2822 0.67893 0.0
C506 C 0.5773 0.27513 0.68104 0.0
C507 C 0.5965 0.24699 0.66046 0.0
N508 N 0.6155 0.26423 0.66621 0.0
O509 O 0.54858 0.22683 0.63721 0.0
H510 H 0.56297 0.28567 0.69072 0.0
H511 H 0.59982 0.22978 0.65033 0.0
O512 O 0.56467 0.19986 0.67408 0.0
C513 C 0.54198 0.24756 0.62676 0.0
O514 O 0.53206 0.26719 0.63816 0.0
N515 N 0.53485 0.23615 0.69866 0.0
C516 C 0.52216 0.25421 0.74103 0.0
C517 C 0.5327 0.22902 0.73808 0.0
C518 C 0.53851 0.22013 0.71665 0.0
C519 C 0.5214 0.25902 0.70106 0.0
C520 C 0.5153 0.26871 0.72207 0.0
H521 H 0.54634 0.20064 0.71486 0.0
H522 H 0.51686 0.27064 0.6865 0.0
H523 H 0.52073 0.17811 0.68964 0.0
H524 H 0.45244 0.19608 0.65364 0.0
H525 H 0.61254 0.29862 0.68716 0.0
H526 H 0.5373 0.21669 0.75222 0.0
H527 H 0.50696 0.28818 0.72337 0.0
H528 H 0.63579 0.94498 0.16464 0.0
H529 H 0.60642 0.92264 0.19085 0.0
H530 H 0.6258 0.97948 0.24131 0.0
H531 H 0.65509 0.00189 0.21519 0.0
H532 H 0.63153 0.9259 0.25459 0.0
H533 H 0.56723 0.98204 0.21923 0.0
H534 H 0.54321 1.00036 0.18714 0.0
H535 H 0.51698 0.92327 0.16909 0.0
H536 H 0.54105 0.9044 0.20087 0.0
H537 H 0.54588 0.87328 0.33584 0.0
H538 H 0.569 0.90352 0.31086 0.0
H539 H 0.53448 0.86448 0.25423 0.0
H540 H 0.51027 0.83551 0.27928 0.0
H541 H 0.53598 0.91197 0.24468 0.0
H542 H 0.60096 0.85398 0.2743 0.0
H543 H 0.62652 0.83121 0.30329 0.0
H544 H 0.654 0.90523 0.32816 0.0
H545 H 0.62832 0.92847 0.29948 0.0
C546 C 0.63356 0.95283 0.18125 0.0
C547 C 0.64773 0.9752 0.18782 0.0
C548 C 0.61671 0.94015 0.19617 0.0
C549 C 0.61388 0.94944 0.21802 0.0
C550 C 0.62764 0.97203 0.22451 0.0
C551 C 0.64422 0.98493 0.20951 0.0
C552 C 0.59781 0.9347 0.23443 0.0
C553 C 0.61054 0.92319 0.25267 0.0
C554 C 0.57065 0.93036 0.23142 0.0
C555 C 0.55613 0.94178 0.21235 0.0
C556 C 0.55652 0.96896 0.20832 0.0
C557 C 0.54287 0.97946 0.19021 0.0
C558 C 0.52867 0.963 0.17608 0.0
C559 C 0.52801 0.936 0.18004 0.0
C560 C 0.54162 0.9254 0.19811 0.0
C561 C 0.54318 0.87142 0.31805 0.0
C562 C 0.52634 0.85214 0.30947 0.0
C563 C 0.55652 0.88854 0.30374 0.0
C564 C 0.55406 0.88605 0.2805 0.0
C565 C 0.5368 0.86699 0.27201 0.0
C566 C 0.52295 0.85039 0.28633 0.0
C567 C 0.56968 0.90283 0.26495 0.0
C568 C 0.55692 0.91473 0.24681 0.0
C569 C 0.59704 0.90686 0.26764 0.0
C570 C 0.61248 0.89296 0.28491 0.0
C571 C 0.6123 0.8654 0.28606 0.0
C572 C 0.62683 0.85242 0.30242 0.0
C573 C 0.64181 0.86677 0.3176 0.0
C574 C 0.64234 0.89414 0.31642 0.0
C575 C 0.62782 0.90723 0.30011 0.0
H576 H 0.65304 0.85668 0.33025 0.0
H577 H 0.51812 0.97117 0.16207 0.0
H578 H 0.65779 0.50216 0.78033 0.0
H579 H 0.63034 0.52884 0.75609 0.0
H580 H 0.63214 0.59169 0.80401 0.0
H581 H 0.65952 0.56496 0.82857 0.0
H582 H 0.58302 0.5516 0.75908 0.0
H583 H 0.63613 0.64986 0.77587 0.0
H584 H 0.67971 0.66576 0.7876 0.0
H585 H 0.71537 0.59591 0.76161 0.0
H586 H 0.67208 0.57978 0.74946 0.0
H587 H 0.51289 0.66028 0.71187 0.0
H588 H 0.5359 0.63002 0.73659 0.0
H589 H 0.60244 0.63013 0.69237 0.0
H590 H 0.57943 0.65988 0.6673 0.0
H591 H 0.61751 0.63804 0.73483 0.0
H592 H 0.56345 0.57786 0.695 0.0
H593 H 0.52247 0.55935 0.67995 0.0
H594 H 0.49275 0.54907 0.7462 0.0
H595 H 0.53335 0.56805 0.76164 0.0
C596 C 0.65201 0.52143 0.78602 0.0
C597 C 0.66106 0.53139 0.80648 0.0
C598 C 0.63632 0.53674 0.77202 0.0
C599 C 0.62941 0.5624 0.77807 0.0
C600 C 0.63757 0.57209 0.79881 0.0
C601 C 0.65329 0.55679 0.81283 0.0
C602 C 0.61468 0.57934 0.76222 0.0
C603 C 0.59047 0.57058 0.75389 0.0
C604 C 0.62465 0.60385 0.75501 0.0
C605 C 0.65082 0.61351 0.762 0.0
C606 C 0.65329 0.63795 0.7726 0.0
C607 C 0.67794 0.64699 0.77933 0.0
C608 C 0.70028 0.63181 0.77542 0.0
C609 C 0.69804 0.6076 0.7647 0.0
C610 C 0.67345 0.59849 0.75792 0.0
C611 C 0.5322 0.65357 0.70711 0.0
C612 C 0.54428 0.66276 0.68751 0.0
C613 C 0.54541 0.6363 0.72138 0.0
C614 C 0.57095 0.62784 0.71638 0.0
C615 C 0.58285 0.63657 0.69668 0.0
C616 C 0.56964 0.65368 0.68237 0.0
C617 C 0.58564 0.6105 0.73193 0.0
C618 C 0.60988 0.6192 0.74019 0.0
C619 C 0.57595 0.58572 0.73869 0.0
C620 C 0.55133 0.57466 0.72946 0.0
C621 C 0.54805 0.57195 0.70635 0.0
C622 C 0.5249 0.56134 0.69775 0.0
C623 C 0.50498 0.55312 0.71209 0.0
C624 C 0.50816 0.55552 0.73509 0.0
C625 C 0.53123 0.56622 0.74378 0.0
H626 H 0.48715 0.54478 0.70537 0.0
H627 H 0.71934 0.63884 0.78066 0.0
H628 H 0.99531 0.62171 0.30471 0.0
H629 H 0.97266 0.59156 0.27933 0.0
H630 H 0.90352 0.64023 0.28227 0.0
H631 H 0.92576 0.6699 0.30767 0.0
H632 H 0.8893 0.59148 0.2843 0.0
H633 H 0.94926 0.64118 0.23828 0.0
H634 H 0.99275 0.65727 0.22656 0.0
H635 H 0.01813 0.57813 0.21505 0.0
H636 H 0.97497 0.56153 0.22718 0.0
H637 H 0.82057 0.57056 0.18493 0.0
H638 H 0.85065 0.58968 0.21202 0.0
H639 H 0.89664 0.51876 0.21177 0.0
H640 H 0.8663 0.49927 0.18453 0.0
H641 H 0.92583 0.57118 0.2098 0.0
H642 H 0.863 0.5225 0.25248 0.0
H643 H 0.81836 0.50812 0.2625 0.0
H644 H 0.79752 0.5874 0.27883 0.0
H645 H 0.8419 0.60235 0.26848 0.0
C646 C 0.97527 0.62589 0.29993 0.0
C647 C 0.96234 0.64817 0.30833 0.0
C648 C 0.96234 0.60868 0.2854 0.0
C649 C 0.93638 0.61367 0.27868 0.0
C650 C 0.92344 0.63576 0.28727 0.0
C651 C 0.93621 0.65274 0.3019 0.0
C652 C 0.92248 0.59643 0.26247 0.0
C653 C 0.89735 0.58715 0.26802 0.0
C654 C 0.93312 0.59009 0.24133 0.0
C655 C 0.959 0.60009 0.23392 0.0
C656 C 0.9642 0.6272 0.23344 0.0
C657 C 0.98878 0.63641 0.22672 0.0
C658 C 0.00823 0.61873 0.22015 0.0
C659 C 0.00308 0.5918 0.2202 0.0
C660 C 0.97857 0.58247 0.22704 0.0
C661 C 0.8373 0.55914 0.1903 0.0
C662 C 0.84109 0.53342 0.18251 0.0
C663 C 0.85439 0.57005 0.20589 0.0
C664 C 0.87582 0.55562 0.2139 0.0
C665 C 0.88024 0.53022 0.20572 0.0
C666 C 0.86284 0.51909 0.1903 0.0
C667 C 0.89263 0.567 0.23157 0.0
C668 C 0.91815 0.57516 0.22627 0.0
C669 C 0.88233 0.57254 0.25288 0.0
C670 C 0.85574 0.56357 0.25953 0.0
C671 C 0.84884 0.5369 0.25804 0.0
C672 C 0.82359 0.52864 0.2638 0.0
C673 C 0.8051 0.54684 0.27126 0.0
C674 C 0.81186 0.57333 0.27304 0.0
C675 C 0.83707 0.5817 0.26724 0.0
H676 H 0.78555 0.5404 0.2757 0.0
H677 H 0.02726 0.62589 0.21497 0.0
H678 H 0.94839 0.85505 0.66272 0.0
H679 H 0.92562 0.88466 0.68854 0.0
H680 H 0.9778 0.86094 0.74125 0.0
H681 H 1.00074 0.83164 0.71553 0.0
H682 H 0.92165 0.85712 0.75064 0.0
H683 H 0.98643 0.91831 0.7238 0.0
H684 H 0.01089 0.94261 0.695 0.0
H685 H 0.93919 0.97682 0.67137 0.0
H686 H 0.91423 0.95252 0.69988 0.0
H687 H 0.87421 0.94177 0.83386 0.0
H688 H 0.90384 0.91896 0.80836 0.0
H689 H 0.86673 0.95734 0.75265 0.0
H690 H 0.83762 0.98071 0.7782 0.0
H691 H 0.91677 0.95408 0.74475 0.0
H692 H 0.85136 0.89293 0.76874 0.0
H693 H 0.82469 0.86804 0.7957 0.0
H694 H 0.89432 0.83239 0.82215 0.0
H695 H 0.92145 0.85735 0.79553 0.0
C696 C 0.95511 0.85638 0.67976 0.0
C697 C 0.97637 0.84109 0.68708 0.0
C698 C 0.94219 0.87334 0.69445 0.0
C699 C 0.95008 0.87499 0.71678 0.0
C700 C 0.97148 0.85999 0.72406 0.0
C701 C 0.98466 0.8434 0.70932 0.0
C702 C 0.93506 0.89119 0.73283 0.0
C703 C 0.92089 0.87836 0.74961 0.0
C704 C 0.93344 0.91878 0.73098 0.0
C705 C 0.94842 0.93338 0.71383 0.0
C706 C 0.97584 0.93081 0.71233 0.0
C707 C 0.98981 0.94463 0.69609 0.0
C708 C 0.9766 0.96116 0.68133 0.0
C709 C 0.94939 0.96398 0.6828 0.0
C710 C 0.93533 0.95022 0.69902 0.0
C711 C 0.87252 0.94542 0.81618 0.0
C712 C 0.85349 0.96289 0.80804 0.0
C713 C 0.8894 0.93234 0.80159 0.0
C714 C 0.8872 0.93594 0.77847 0.0
C715 C 0.86884 0.95414 0.77037 0.0
C716 C 0.85221 0.96754 0.785 0.0
C717 C 0.9033 0.92004 0.76275 0.0
C718 C 0.91759 0.93287 0.74594 0.0
C719 C 0.9047 0.89232 0.76432 0.0
C720 C 0.88845 0.87722 0.7803 0.0
C721 C 0.861 0.87993 0.78042 0.0
C722 C 0.8458 0.86579 0.79562 0.0
C723 C 0.85781 0.8487 0.81067 0.0
C724 C 0.88505 0.84567 0.8105 0.0
C725 C 0.90035 0.85979 0.79536 0.0
H726 H 0.84601 0.83777 0.82242 0.0
H727 H 0.98745 0.97184 0.66877 0.0
H728 H 0.31593 0.07115 0.79433 0.0
H729 H 0.34765 0.09049 0.76868 0.0
H730 H 0.40485 0.03241 0.78766 0.0
H731 H 0.37278 0.01258 0.81336 0.0
H732 H 0.42204 0.09042 0.78563 0.0
H733 H 0.38513 0.02108 0.74252 0.0
H734 H 0.34923 0.99366 0.72792 0.0
H735 H 0.31546 0.06093 0.69584 0.0
H736 H 0.35098 0.08887 0.71057 0.0
H737 H 0.50347 0.13751 0.69725 0.0
H738 H 0.48019 0.10632 0.72099 0.0
H739 H 0.40664 0.14263 0.70364 0.0
H740 H 0.4296 0.17413 0.6803 0.0
H741 H 0.40268 0.08888 0.70472 0.0
H742 H 0.43695 0.1585 0.75123 0.0
H743 H 0.47234 0.18635 0.76622 0.0
H744 H 0.51118 0.1182 0.79223 0.0
H745 H 0.47621 0.08988 0.77705 0.0
C746 C 0.33533 0.06264 0.79328 0.0
C747 C 0.34194 0.04046 0.806 0.0
C748 C 0.35339 0.07363 0.77852 0.0
C749 C 0.37857 0.0629 0.7763 0.0
C750 C 0.38551 0.04101 0.78921 0.0
C751 C 0.3672 0.02966 0.80376 0.0
C752 C 0.3971 0.07462 0.76005 0.0
C753 C 0.41825 0.08959 0.76789 0.0
C754 C 0.39184 0.07384 0.73697 0.0
C755 C 0.3706 0.05712 0.72781 0.0
C756 C 0.36993 0.03008 0.73251 0.0
C757 C 0.34967 0.01443 0.72418 0.0
C758 C 0.33004 0.02556 0.711 0.0
C759 C 0.33068 0.05235 0.70607 0.0
C760 C 0.35089 0.0681 0.71438 0.0
C761 C 0.48236 0.13897 0.69844 0.0
C762 C 0.46857 0.15873 0.68692 0.0
C763 C 0.46905 0.12098 0.71198 0.0
C764 C 0.44167 0.1223 0.7143 0.0
C765 C 0.42776 0.14118 0.70209 0.0
C766 C 0.44102 0.15922 0.68864 0.0
C767 C 0.42747 0.10508 0.73028 0.0
C768 C 0.40693 0.08924 0.72239 0.0
C769 C 0.43337 0.10502 0.75332 0.0
C770 C 0.45413 0.12205 0.7628 0.0
C771 C 0.45313 0.14944 0.76002 0.0
C772 C 0.4731 0.16531 0.76855 0.0
C773 C 0.49403 0.15405 0.78011 0.0
C774 C 0.49498 0.12689 0.78323 0.0
C775 C 0.47509 0.11092 0.77467 0.0
H776 H 0.50949 0.16636 0.78669 0.0
H777 H 0.31435 0.01342 0.70458 0.0
H778 H 0.50343 0.37169 0.31053 0.0
H779 H 0.48017 0.39888 0.28307 0.0
H780 H 0.41205 0.3493 0.28938 0.0
H781 H 0.43503 0.32232 0.31674 0.0
H782 H 0.42751 0.35933 0.24475 0.0
H783 H 0.41101 0.40655 0.31334 0.0
H784 H 0.42432 0.42992 0.34742 0.0
H785 H 0.46666 0.48623 0.30823 0.0
H786 H 0.45389 0.46296 0.27391 0.0
H787 H 0.32373 0.4262 0.19412 0.0
H788 H 0.3534 0.40361 0.21937 0.0
H789 H 0.40728 0.46878 0.21608 0.0
H790 H 0.37707 0.49187 0.19097 0.0
H791 H 0.40434 0.45269 0.25714 0.0
H792 H 0.4194 0.40911 0.18865 0.0
H793 H 0.40836 0.38627 0.15376 0.0
H794 H 0.37264 0.32375 0.19084 0.0
H795 H 0.38313 0.34639 0.22597 0.0
C796 C 0.48347 0.3667 0.30608 0.0
C797 C 0.47102 0.34496 0.31593 0.0
C798 C 0.47019 0.38226 0.29046 0.0
C799 C 0.44434 0.37614 0.28421 0.0
C800 C 0.43196 0.35441 0.29397 0.0
C801 C 0.44505 0.33913 0.30976 0.0
C802 C 0.43013 0.39198 0.26727 0.0
C803 C 0.42224 0.37969 0.2475 0.0
C804 C 0.42417 0.41882 0.27049 0.0
C805 C 0.43176 0.43284 0.29109 0.0
C806 C 0.42336 0.42378 0.31201 0.0
C807 C 0.43076 0.43704 0.33136 0.0
C808 C 0.4464 0.4595 0.33 0.0
C809 C 0.45459 0.4688 0.30926 0.0
C810 C 0.44727 0.45559 0.28986 0.0
C811 C 0.34204 0.43563 0.19847 0.0
C812 C 0.34817 0.46073 0.19024 0.0
C813 C 0.35907 0.42265 0.21297 0.0
C814 C 0.38296 0.43415 0.21934 0.0
C815 C 0.38906 0.45937 0.21136 0.0
C816 C 0.37181 0.47256 0.197 0.0
C817 C 0.40108 0.41988 0.2347 0.0
C818 C 0.40979 0.43243 0.25416 0.0
C819 C 0.4082 0.39333 0.23104 0.0
C820 C 0.40189 0.37957 0.20995 0.0
C821 C 0.40903 0.39058 0.18937 0.0
C822 C 0.40289 0.37765 0.16954 0.0
C823 C 0.38976 0.3536 0.17008 0.0
C824 C 0.3828 0.34239 0.19045 0.0
C825 C 0.38886 0.35525 0.21033 0.0
H826 H 0.38503 0.34362 0.15471 0.0
H827 H 0.4521 0.46974 0.345 0.0
H828 H 0.07761 0.32349 0.69202 0.0
H829 H 0.09938 0.35318 0.71806 0.0
H830 H 0.03002 0.40139 0.72056 0.0
H831 H 0.00789 0.37138 0.69453 0.0
H832 H 0.08276 0.42886 0.71529 0.0
H833 H 0.03611 0.36751 0.7616 0.0
H834 H 0.02235 0.32321 0.77323 0.0
H835 H 0.10258 0.3025 0.78598 0.0
H836 H 0.11687 0.34656 0.77403 0.0
H837 H 0.13623 0.50127 0.80751 0.0
H838 H 0.10604 0.47791 0.78263 0.0
H839 H 0.1548 0.40893 0.78684 0.0
H840 H 0.18455 0.43188 0.8117 0.0
H841 H 0.10657 0.39452 0.7898 0.0
H842 H 0.1545 0.45272 0.74186 0.0
H843 H 0.17071 0.49512 0.72768 0.0
H844 H 0.09163 0.5201 0.71533 0.0
H845 H 0.07489 0.47813 0.73004 0.0
C846 C 0.06708 0.34057 0.69786 0.0
C847 C 0.04105 0.34515 0.69116 0.0
C848 C 0.0795 0.35744 0.71283 0.0
C849 C 0.0663 0.37945 0.72124 0.0
C850 C 0.04054 0.38453 0.71421 0.0
C851 C 0.0279 0.36734 0.69948 0.0
C852 C 0.0794 0.39642 0.73796 0.0
C853 C 0.08755 0.42167 0.73178 0.0
C854 C 0.08614 0.38667 0.75921 0.0
C855 C 0.07758 0.36028 0.76674 0.0
C856 C 0.05084 0.35345 0.76671 0.0
C857 C 0.04294 0.32839 0.77339 0.0
C858 C 0.06159 0.31003 0.7803 0.0
C859 C 0.08816 0.31673 0.78061 0.0
C860 C 0.09617 0.34176 0.7739 0.0
C861 C 0.14046 0.48113 0.80311 0.0
C862 C 0.16276 0.46844 0.81177 0.0
C863 C 0.12321 0.46779 0.78884 0.0
C864 C 0.12816 0.44161 0.78267 0.0
C865 C 0.15035 0.42899 0.79142 0.0
C866 C 0.16737 0.44217 0.80577 0.0
C867 C 0.11054 0.42707 0.76712 0.0
C868 C 0.10152 0.4021 0.7735 0.0
C869 C 0.10337 0.437 0.74592 0.0
C870 C 0.11342 0.46241 0.73738 0.0
C871 C 0.14054 0.46738 0.7364 0.0
C872 C 0.14983 0.49134 0.72824 0.0
C873 C 0.1322 0.51033 0.72069 0.0
C874 C 0.10526 0.50539 0.72123 0.0
C875 C 0.09585 0.48157 0.72956 0.0
H876 H 0.13942 0.52886 0.71436 0.0
H877 H 0.05544 0.29064 0.78545 0.0
H878 H 0.05881 0.13979 0.33525 0.0
H879 H 0.08117 0.10994 0.30971 0.0
H880 H 0.03641 0.14144 0.25498 0.0
H881 H 0.01364 0.17097 0.2806 0.0
H882 H 0.04143 0.09056 0.24973 0.0
H883 H 0.10085 0.16083 0.26577 0.0
H884 H 0.12658 0.19074 0.28949 0.0
H885 H 0.16831 0.12518 0.31701 0.0
H886 H 0.14256 0.09483 0.29367 0.0
H887 H 0.13104 0.05421 0.16262 0.0
H888 H 0.10338 0.078 0.18922 0.0
H889 H 0.13979 0.0362 0.24338 0.0
H890 H 0.16738 0.01235 0.21689 0.0
H891 H 0.13873 0.09107 0.24906 0.0
H892 H 0.07947 0.0211 0.2307 0.0
H893 H 0.05397 0.99261 0.2056 0.0
H894 H 0.01258 0.05967 0.18044 0.0
H895 H 0.03806 0.08865 0.2052 0.0
C896 C 0.0537 0.1403 0.31779 0.0
C897 C 0.03459 0.1579 0.30995 0.0
C898 C 0.06652 0.12325 0.30317 0.0
C899 C 0.06092 0.12375 0.28028 0.0
C900 C 0.04117 0.14067 0.27253 0.0
C901 C 0.0281 0.15753 0.28721 0.0
C902 C 0.0762 0.10727 0.26439 0.0
C903 C 0.0627 0.09093 0.24944 0.0
C904 C 0.10401 0.10734 0.26413 0.0
C905 C 0.11958 0.12554 0.27814 0.0
C906 C 0.11538 0.15278 0.277 0.0
C907 C 0.12999 0.16981 0.29036 0.0
C908 C 0.14902 0.15986 0.30479 0.0
C909 C 0.15353 0.13285 0.30585 0.0
C910 C 0.13895 0.11573 0.29255 0.0
C911 C 0.13299 0.04999 0.18019 0.0
C912 C 0.15134 0.03137 0.18764 0.0
C913 C 0.1171 0.06348 0.19535 0.0
C914 C 0.11946 0.05881 0.21829 0.0
C915 C 0.13759 0.04005 0.22576 0.0
C916 C 0.15321 0.0263 0.21059 0.0
C917 C 0.10396 0.0744 0.23452 0.0
C918 C 0.11746 0.09065 0.24947 0.0
C919 C 0.07621 0.07446 0.23456 0.0
C920 C 0.06087 0.05708 0.21965 0.0
C921 C 0.06511 0.02981 0.21967 0.0
C922 C 0.05062 0.01356 0.20554 0.0
C923 C 0.03174 0.02433 0.19139 0.0
C924 C 0.02724 0.05137 0.19139 0.0
C925 C 0.04168 0.06771 0.20549 0.0
H926 H 0.02054 0.01171 0.18046 0.0
H927 H 0.16031 0.17308 0.31512 0.0
H928 H 0.6801 0.13655 0.19236 0.0
H929 H 0.64001 0.16163 0.19513 0.0
H930 H 0.60001 0.10556 0.15346 0.0
H931 H 0.64038 0.07934 0.15125 0.0
H932 H 0.60909 0.18672 0.16828 0.0
H933 H 0.53734 0.10209 0.17333 0.0
H934 H 0.53674 0.0543 0.18044 0.0
H935 H 0.60287 0.06214 0.22417 0.0
H936 H 0.60364 0.10991 0.21747 0.0
H937 H 0.51774 0.25559 0.23333 0.0
H938 H 0.52834 0.22823 0.20092 0.0
H939 H 0.55415 0.16645 0.24499 0.0
H940 H 0.54279 0.19291 0.27681 0.0
H941 H 0.53723 0.14432 0.21062 0.0
H942 H 0.59607 0.21933 0.2245 0.0
H943 H 0.60715 0.26641 0.22664 0.0
H944 H 0.58129 0.27714 0.15927 0.0
H945 H 0.56985 0.23011 0.15687 0.0
C946 C 0.66291 0.12947 0.18363 0.0
C947 C 0.66331 0.10572 0.17186 0.0
C948 C 0.64004 0.14411 0.18497 0.0
C949 C 0.61704 0.13563 0.1744 0.0
C950 C 0.61754 0.11244 0.16179 0.0
C951 C 0.64055 0.09748 0.1606 0.0
C952 C 0.59246 0.15006 0.1791 0.0
C953 C 0.5929 0.17747 0.177 0.0
C954 C 0.57134 0.13797 0.19039 0.0
C955 C 0.57073 0.10939 0.19467 0.0
C956 C 0.5517 0.09355 0.18446 0.0
C957 C 0.55133 0.06651 0.18844 0.0
C958 C 0.56983 0.0552 0.20269 0.0
C959 C 0.58862 0.07091 0.21309 0.0
C960 C 0.58902 0.09794 0.20922 0.0
C961 C 0.52502 0.23587 0.23594 0.0
C962 C 0.52956 0.22643 0.25758 0.0
C963 C 0.53106 0.22026 0.21746 0.0
C964 C 0.54246 0.19537 0.22043 0.0
C965 C 0.54517 0.18541 0.24208 0.0
C966 C 0.53872 0.20068 0.26039 0.0
C967 C 0.55558 0.18109 0.20199 0.0
C968 C 0.5525 0.15369 0.20086 0.0
C969 C 0.57549 0.19315 0.18908 0.0
C970 C 0.58165 0.22145 0.19065 0.0
C971 C 0.59253 0.23183 0.21024 0.0
C972 C 0.59892 0.25846 0.21148 0.0
C973 C 0.5948 0.27478 0.19313 0.0
C974 C 0.58434 0.26449 0.1735 0.0
C975 C 0.57786 0.23788 0.17219 0.0
H976 H 0.5998 0.29539 0.1941 0.0
H977 H 0.56958 0.03429 0.20575 0.0
H978 H 0.25159 0.57923 0.7394 0.0
H979 H 0.28118 0.59355 0.71043 0.0
H980 H 0.32299 0.52012 0.71454 0.0
H981 H 0.29302 0.50544 0.74384 0.0
H982 H 0.35474 0.55855 0.722 0.0
H983 H 0.29564 0.54164 0.66414 0.0
H984 H 0.2538 0.53946 0.64372 0.0
H985 H 0.24896 0.62354 0.64354 0.0
H986 H 0.29046 0.62629 0.66435 0.0
H987 H 0.44337 0.64835 0.66675 0.0
H988 H 0.4161 0.60856 0.66937 0.0
H989 H 0.34962 0.65605 0.68802 0.0
H990 H 0.37648 0.69535 0.68574 0.0
H991 H 0.33698 0.61635 0.65743 0.0
H992 H 0.38841 0.62962 0.72566 0.0
H993 H 0.42948 0.63139 0.74724 0.0
H994 H 0.44711 0.55213 0.72832 0.0
H995 H 0.4067 0.55029 0.7059 0.0
C996 C 0.26627 0.56553 0.73355 0.0
C997 C 0.2701 0.54129 0.74422 0.0
C998 C 0.28327 0.57379 0.71681 0.0
C999 C 0.30438 0.55793 0.7102 0.0
C1000 C 0.30688 0.53272 0.7194 0.0
C1001 C 0.28983 0.52443 0.73623 0.0
C1002 C 0.32617 0.56994 0.69735 0.0
C1003 C 0.35107 0.57043 0.70735 0.0
C1004 C 0.32148 0.58555 0.67828 0.0
C1005 C 0.29629 0.58414 0.66586 0.0
C1006 C 0.28559 0.55968 0.65991 0.0
C1007 C 0.2619 0.55835 0.64824 0.0
C1008 C 0.24873 0.58134 0.64234 0.0
C1009 C 0.2592 0.60574 0.6481 0.0
C1010 C 0.28285 0.60719 0.65981 0.0
C1011 C 0.42288 0.65019 0.67123 0.0
C1012 C 0.41209 0.67486 0.67631 0.0
C1013 C 0.40736 0.62754 0.67264 0.0
C1014 C 0.38086 0.62944 0.67882 0.0
C1015 C 0.36997 0.65418 0.68306 0.0
C1016 C 0.38545 0.67661 0.682 0.0
C1017 C 0.36453 0.60599 0.68304 0.0
C1018 C 0.34081 0.60344 0.6714 0.0
C1019 C 0.37021 0.58849 0.70063 0.0
C1020 C 0.39484 0.59002 0.71368 0.0
C1021 C 0.40131 0.61276 0.72573 0.0
C1022 C 0.42449 0.61378 0.73813 0.0
C1023 C 0.4411 0.592 0.73895 0.0
C1024 C 0.4345 0.56914 0.72742 0.0
C1025 C 0.4115 0.56813 0.7148 0.0
H1026 H 0.45897 0.59277 0.74864 0.0
H1027 H 0.23041 0.58026 0.63329 0.0
H1028 H 0.96779 0.32095 0.27585 0.0
H1029 H 0.94957 0.34841 0.24692 0.0
H1030 H 0.96513 0.28816 0.1983 0.0
H1031 H 0.98301 0.25995 0.22767 0.0
H1032 H 0.95585 0.37094 0.20851 0.0
H1033 H 0.91092 0.28091 0.16708 0.0
H1034 H 0.90357 0.23377 0.17436 0.0
H1035 H 0.89903 0.2491 0.24448 0.0
H1036 H 0.90595 0.29632 0.23754 0.0
H1037 H 0.84568 0.4259 0.14962 0.0
H1038 H 0.88624 0.40083 0.15529 0.0
H1039 H 0.84792 0.35532 0.20642 0.0
H1040 H 0.80754 0.37942 0.20038 0.0
H1041 H 0.87618 0.32443 0.18227 0.0
H1042 H 0.88809 0.40991 0.21735 0.0
H1043 H 0.89093 0.45825 0.21678 0.0
H1044 H 0.95482 0.45416 0.1704 0.0
H1045 H 0.95208 0.40579 0.17045 0.0
C1046 C 0.96838 0.31381 0.2589 0.0
C1047 C 0.9764 0.28804 0.25413 0.0
C1048 C 0.95794 0.32967 0.24227 0.0
C1049 C 0.95538 0.32014 0.22051 0.0
C1050 C 0.96644 0.29569 0.2151 0.0
C1051 C 0.97657 0.27957 0.23188 0.0
C1052 C 0.93662 0.33345 0.20539 0.0
C1053 C 0.9387 0.36071 0.20229 0.0
C1054 C 0.91402 0.32022 0.1975 0.0
C1055 C 0.90932 0.29199 0.20179 0.0
C1056 C 0.90828 0.27418 0.18402 0.0
C1057 C 0.90418 0.24747 0.18809 0.0
C1058 C 0.90094 0.23843 0.20987 0.0
C1059 C 0.9016 0.2561 0.22762 0.0
C1060 C 0.90558 0.28282 0.22363 0.0
C1061 C 0.84596 0.41042 0.16196 0.0
C1062 C 0.82347 0.40469 0.17463 0.0
C1063 C 0.86911 0.39614 0.16517 0.0
C1064 C 0.87015 0.37625 0.18133 0.0
C1065 C 0.84756 0.37039 0.1937 0.0
C1066 C 0.82447 0.38434 0.19033 0.0
C1067 C 0.89476 0.36206 0.18653 0.0
C1068 C 0.89383 0.33459 0.18756 0.0
C1069 C 0.91778 0.37528 0.19346 0.0
C1070 C 0.91966 0.4043 0.19367 0.0
C1071 C 0.90263 0.41934 0.20693 0.0
C1072 C 0.90422 0.44673 0.20671 0.0
C1073 C 0.92298 0.45926 0.1935 0.0
C1074 C 0.94025 0.44443 0.18057 0.0
C1075 C 0.93868 0.41704 0.18068 0.0
H1076 H 0.92418 0.48046 0.19333 0.0
H1077 H 0.89785 0.21775 0.21299 0.0
H1078 H 0.24745 0.94063 0.73519 0.0
H1079 H 0.21715 0.92823 0.7061 0.0
H1080 H 0.16835 0.99491 0.7216 0.0
H1081 H 0.19905 0.00769 0.75097 0.0
H1082 H 0.1414 0.95233 0.72561 0.0
H1083 H 0.19139 0.98586 0.66728 0.0
H1084 H 0.23061 0.99748 0.64544 0.0
H1085 H 0.24759 0.91586 0.63546 0.0
H1086 H 0.20875 0.90368 0.65751 0.0
H1087 H 0.07955 0.84921 0.64819 0.0
H1088 H 0.09865 0.89339 0.65164 0.0
H1089 H 0.14679 0.86648 0.70599 0.0
H1090 H 0.12845 0.82258 0.70248 0.0
H1091 H 0.16082 0.90667 0.65467 0.0
H1092 H 0.12591 0.91217 0.74648 0.0
H1093 H 0.08694 0.89939 0.76822 0.0
H1094 H 0.039 0.90533 0.70976 0.0
H1095 H 0.0775 0.91893 0.68778 0.0
C1096 C 0.23096 0.95342 0.73186 0.0
C1097 C 0.22549 0.97493 0.7457 0.0
C1098 C 0.21356 0.94631 0.71505 0.0
C1099 C 0.19039 0.96063 0.71157 0.0
C1100 C 0.18607 0.98353 0.724 0.0
C1101 C 0.20354 0.99069 0.74088 0.0
C1102 C 0.1689 0.94843 0.69853 0.0
C1103 C 0.14532 0.94304 0.70974 0.0
C1104 C 0.17357 0.93681 0.67751 0.0
C1105 C 0.197 0.94386 0.66405 0.0
C1106 C 0.20352 0.97036 0.66051 0.0
C1107 C 0.22571 0.97705 0.64808 0.0
C1108 C 0.24156 0.95742 0.63904 0.0
C1109 C 0.23525 0.93105 0.64241 0.0
C1110 C 0.21308 0.92424 0.65483 0.0
C1111 C 0.09433 0.85275 0.66077 0.0
C1112 C 0.10248 0.83247 0.67512 0.0
C1113 C 0.10521 0.87789 0.66264 0.0
C1114 C 0.12393 0.88302 0.67912 0.0
C1115 C 0.13227 0.86277 0.69321 0.0
C1116 C 0.12177 0.83771 0.69116 0.0
C1117 C 0.1348 0.90946 0.68268 0.0
C1118 C 0.15639 0.91723 0.66986 0.0
C1119 C 0.12816 0.92359 0.70204 0.0
C1120 C 0.10468 0.9165 0.71544 0.0
C1121 C 0.10702 0.91108 0.7383 0.0
C1122 C 0.08499 0.90367 0.75067 0.0
C1123 C 0.0605 0.90158 0.74038 0.0
C1124 C 0.05796 0.90702 0.71771 0.0
C1125 C 0.07989 0.91457 0.70529 0.0
H1126 H 0.0435 0.89574 0.74996 0.0
H1127 H 0.25874 0.96265 0.62944 0.0
H1128 H 0.56015 0.2507 0.77259 0.0
H1129 H 0.56891 0.28236 0.80142 0.0
H1130 H 0.49466 0.32005 0.78844 0.0
H1131 H 0.48576 0.28804 0.7591 0.0
H1132 H 0.53073 0.35268 0.78087 0.0
H1133 H 0.51355 0.30349 0.84385 0.0
H1134 H 0.5103 0.26529 0.86883 0.0
H1135 H 0.59426 0.2598 0.87132 0.0
H1136 H 0.5981 0.29764 0.84607 0.0
H1137 H 0.64558 0.41998 0.847 0.0
H1138 H 0.60158 0.40012 0.84837 0.0
H1139 H 0.61546 0.36382 0.78468 0.0
H1140 H 0.65912 0.38308 0.78332 0.0
H1141 H 0.58993 0.34441 0.84591 0.0
H1142 H 0.56233 0.37141 0.75416 0.0
H1143 H 0.56555 0.41001 0.72965 0.0
H1144 H 0.56813 0.46074 0.78657 0.0
H1145 H 0.56446 0.42248 0.81147 0.0
C1146 C 0.54498 0.26481 0.77653 0.0
C1147 C 0.52255 0.26722 0.76313 0.0
C1148 C 0.54998 0.28302 0.79326 0.0
C1149 C 0.53256 0.30389 0.7971 0.0
C1150 C 0.50851 0.30428 0.78569 0.0
C1151 C 0.50352 0.28606 0.76883 0.0
C1152 C 0.54274 0.32789 0.80815 0.0
C1153 C 0.54307 0.35108 0.79549 0.0
C1154 C 0.55805 0.32645 0.82777 0.0
C1155 C 0.55609 0.3036 0.84308 0.0
C1156 C 0.53135 0.2941 0.84964 0.0
C1157 C 0.5294 0.27248 0.86386 0.0
C1158 C 0.55206 0.26016 0.87169 0.0
C1159 C 0.57672 0.26943 0.8653 0.0
C1160 C 0.57879 0.29104 0.85108 0.0
C1161 C 0.63905 0.40795 0.83323 0.0
C1162 C 0.65573 0.40299 0.81505 0.0
C1163 C 0.61402 0.39663 0.83408 0.0
C1164 C 0.60528 0.3808 0.81653 0.0
C1165 C 0.62177 0.37629 0.79826 0.0
C1166 C 0.64677 0.38718 0.79755 0.0
C1167 C 0.57966 0.36731 0.81718 0.0
C1168 C 0.5765 0.34633 0.83203 0.0
C1169 C 0.56147 0.37085 0.79974 0.0
C1170 C 0.56303 0.394 0.78473 0.0
C1171 C 0.56327 0.39079 0.76149 0.0
C1172 C 0.56526 0.41263 0.7475 0.0
C1173 C 0.56703 0.43781 0.75654 0.0
C1174 C 0.56677 0.44122 0.77959 0.0
C1175 C 0.56476 0.41945 0.79364 0.0
H1176 H 0.56861 0.45468 0.74569 0.0
H1177 H 0.55051 0.24342 0.88268 0.0
H1178 H 0.25415 0.56445 0.26164 0.0
H1179 H 0.22356 0.57628 0.29066 0.0
H1180 H 0.18063 0.5044 0.2798 0.0
H1181 H 0.2114 0.4925 0.25016 0.0
H1182 H 0.14932 0.54341 0.27583 0.0
H1183 H 0.20756 0.51993 0.33293 0.0
H1184 H 0.24956 0.51512 0.35282 0.0
H1185 H 0.25659 0.59886 0.3576 0.0
H1186 H 0.21488 0.60425 0.33746 0.0
H1187 H 0.06283 0.63272 0.33112 0.0
H1188 H 0.08858 0.59192 0.33006 0.0
H1189 H 0.15822 0.63664 0.31512 0.0
H1190 H 0.1329 0.67705 0.31595 0.0
H1191 H 0.16801 0.59478 0.34402 0.0
H1192 H 0.12116 0.61346 0.27312 0.0
H1193 H 0.07973 0.61999 0.25258 0.0
H1194 H 0.05217 0.54476 0.27473 0.0
H1195 H 0.09337 0.53796 0.29559 0.0
C1196 C 0.2389 0.55055 0.26598 0.0
C1197 C 0.2351 0.52763 0.25344 0.0
C1198 C 0.22136 0.55732 0.28275 0.0
C1199 C 0.1998 0.54115 0.28765 0.0
C1200 C 0.19712 0.51718 0.27635 0.0
C1201 C 0.21464 0.51046 0.25938 0.0
C1202 C 0.17802 0.5519 0.30126 0.0
C1203 C 0.15317 0.55374 0.29125 0.0
C1204 C 0.18284 0.56547 0.3214 0.0
C1205 C 0.20796 0.56246 0.3337 0.0
C1206 C 0.2181 0.53734 0.33814 0.0
C1207 C 0.24187 0.53451 0.34947 0.0
C1208 C 0.25571 0.55666 0.35649 0.0
C1209 C 0.24581 0.5817 0.35221 0.0
C1210 C 0.22204 0.58466 0.34089 0.0
C1211 C 0.08371 0.63376 0.32793 0.0
C1212 C 0.09583 0.65791 0.32322 0.0
C1213 C 0.09836 0.61053 0.32743 0.0
C1214 C 0.12527 0.61136 0.32248 0.0
C1215 C 0.13752 0.63564 0.31907 0.0
C1216 C 0.12295 0.65867 0.31927 0.0
C1217 C 0.14046 0.58735 0.31771 0.0
C1218 C 0.16392 0.58313 0.32934 0.0
C1219 C 0.13447 0.57157 0.29909 0.0
C1220 C 0.11013 0.57532 0.28605 0.0
C1221 C 0.10621 0.59836 0.27363 0.0
C1222 C 0.08279 0.60211 0.26195 0.0
C1223 C 0.0633 0.58284 0.26243 0.0
C1224 C 0.06726 0.55969 0.27444 0.0
C1225 C 0.09063 0.55588 0.28618 0.0
H1226 H 0.04515 0.58582 0.25348 0.0
H1227 H 0.27413 0.55442 0.36524 0.0
H1228 H 0.97595 0.18748 0.72969 0.0
H1229 H 0.9573 0.15921 0.75754 0.0
H1230 H 0.9618 0.22149 0.80591 0.0
H1231 H 0.98123 0.25041 0.77781 0.0
H1232 H 0.96148 0.13861 0.79777 0.0
H1233 H 0.90164 0.22457 0.83005 0.0
H1234 H 0.89114 0.27049 0.82034 0.0
H1235 H 0.89911 0.25237 0.75092 0.0
H1236 H 0.90923 0.20632 0.76025 0.0
H1237 H 0.84891 0.07367 0.84449 0.0
H1238 H 0.8872 0.10269 0.84246 0.0
H1239 H 0.85279 0.14233 0.78609 0.0
H1240 H 0.81438 0.11424 0.78854 0.0
H1241 H 0.87361 0.17686 0.81192 0.0
H1242 H 0.90073 0.09248 0.7815 0.0
H1243 H 0.90885 0.04482 0.78353 0.0
H1244 H 0.96258 0.05676 0.83759 0.0
H1245 H 0.9545 0.10449 0.83603 0.0
C1246 C 0.97431 0.19509 0.74643 0.0
C1247 C 0.97965 0.22159 0.75127 0.0
C1248 C 0.96351 0.17869 0.76247 0.0
C1249 C 0.9576 0.18838 0.78367 0.0
C1250 C 0.96584 0.21377 0.78948 0.0
C1251 C 0.97673 0.23033 0.77334 0.0
C1252 C 0.93814 0.17381 0.79719 0.0
C1253 C 0.94246 0.14708 0.80147 0.0
C1254 C 0.91316 0.18474 0.80164 0.0
C1255 C 0.90654 0.2122 0.79587 0.0
C1256 C 0.90107 0.23043 0.81273 0.0
C1257 C 0.89517 0.25644 0.8073 0.0
C1258 C 0.89455 0.26436 0.78504 0.0
C1259 C 0.89965 0.24624 0.76816 0.0
C1260 C 0.90543 0.22019 0.77351 0.0
C1261 C 0.84959 0.08862 0.8317 0.0
C1262 C 0.82875 0.0916 0.81658 0.0
C1263 C 0.87143 0.10519 0.83058 0.0
C1264 C 0.87293 0.12464 0.81408 0.0
C1265 C 0.852 0.12765 0.79912 0.0
C1266 C 0.8301 0.11142 0.80042 0.0
C1267 C 0.89653 0.14134 0.81137 0.0
C1268 C 0.89295 0.16853 0.8093 0.0
C1269 C 0.92181 0.13057 0.80799 0.0
C1270 C 0.92675 0.10195 0.80886 0.0
C1271 C 0.91413 0.0849 0.79392 0.0
C1272 C 0.91874 0.05789 0.79496 0.0
C1273 C 0.93614 0.04776 0.81073 0.0
C1274 C 0.94904 0.06463 0.82543 0.0
C1275 C 0.94446 0.09165 0.82448 0.0
H1276 H 0.93969 0.02685 0.81152 0.0
H1277 H 0.89006 0.28453 0.78087 0.0
H1278 H 0.31354 0.97074 0.22213 0.0
H1279 H 0.34064 0.95713 0.25297 0.0
H1280 H 0.27917 0.97809 0.29899 0.0
H1281 H 0.2513 0.99131 0.26769 0.0
H1282 H 0.36226 0.96778 0.2909 0.0
H1283 H 0.27239 0.9287 0.33487 0.0
H1284 H 0.22506 0.92132 0.32855 0.0
H1285 H 0.23973 0.90723 0.25924 0.0
H1286 H 0.28712 0.9142 0.26527 0.0
H1287 H 0.4195 0.85506 0.34446 0.0
H1288 H 0.39435 0.8961 0.34281 0.0
H1289 H 0.344 0.86209 0.29279 0.0
H1290 H 0.3682 0.82129 0.29485 0.0
H1291 H 0.31572 0.88954 0.32007 0.0
H1292 H 0.39935 0.90163 0.28029 0.0
H1293 H 0.44768 0.90395 0.27892 0.0
H1294 H 0.44711 0.96469 0.32838 0.0
H1295 H 0.39875 0.96248 0.33018 0.0
C1296 C 0.30604 0.97355 0.23881 0.0
C1297 C 0.28002 0.98155 0.24243 0.0
C1298 C 0.3217 0.96579 0.25656 0.0
C1299 C 0.31173 0.96592 0.27831 0.0
C1300 C 0.28705 0.97729 0.28229 0.0
C1301 C 0.27112 0.98473 0.2644 0.0
C1302 C 0.32472 0.94894 0.29506 0.0
C1303 C 0.352 0.95103 0.29788 0.0
C1304 C 0.31144 0.92698 0.30415 0.0
C1305 C 0.28312 0.9223 0.30048 0.0
C1306 C 0.26546 0.92397 0.31832 0.0
C1307 C 0.23866 0.91985 0.31479 0.0
C1308 C 0.22939 0.9139 0.2935 0.0
C1309 C 0.24692 0.91188 0.27571 0.0
C1310 C 0.27373 0.91587 0.27918 0.0
C1311 C 0.4029 0.85637 0.33328 0.0
C1312 C 0.39594 0.83503 0.31965 0.0
C1313 C 0.38856 0.87978 0.33238 0.0
C1314 C 0.36732 0.8822 0.31764 0.0
C1315 C 0.36012 0.86065 0.30448 0.0
C1316 C 0.37416 0.83733 0.30553 0.0
C1317 C 0.35339 0.90739 0.3142 0.0
C1318 C 0.32588 0.90697 0.31427 0.0
C1319 C 0.3666 0.93019 0.30678 0.0
C1320 C 0.39555 0.93166 0.30558 0.0
C1321 C 0.40958 0.91537 0.29095 0.0
C1322 C 0.43695 0.91667 0.29009 0.0
C1323 C 0.45046 0.93439 0.30362 0.0
C1324 C 0.43662 0.95092 0.31797 0.0
C1325 C 0.40924 0.94965 0.31892 0.0
H1326 H 0.47166 0.93536 0.30294 0.0
H1327 H 0.20863 0.9108 0.29079 0.0
H1328 H 0.51068 0.806 0.74447 0.0
H1329 H 0.49645 0.83902 0.7714 0.0
H1330 H 0.4268 0.79362 0.78478 0.0
H1331 H 0.44029 0.76123 0.75773 0.0
H1332 H 0.45362 0.86654 0.76282 0.0
H1333 H 0.40086 0.80574 0.8327 0.0
H1334 H 0.41101 0.7683 0.85721 0.0
H1335 H 0.4934 0.78308 0.84953 0.0
H1336 H 0.48379 0.82082 0.82523 0.0
H1337 H 0.3247 0.89447 0.78322 0.0
H1338 H 0.36742 0.87383 0.7784 0.0
H1339 H 0.39549 0.91119 0.83816 0.0
H1340 H 0.35258 0.93244 0.84301 0.0
H1341 H 0.40566 0.85429 0.83387 0.0
H1342 H 0.42142 0.9342 0.79681 0.0
H1343 H 0.41039 0.97177 0.77272 0.0
H1344 H 0.40466 0.92039 0.71638 0.0
H1345 H 0.41513 0.88242 0.74018 0.0
C1346 C 0.49261 0.80276 0.75352 0.0
C1347 C 0.47637 0.78118 0.74853 0.0
C1348 C 0.48464 0.82157 0.76904 0.0
C1349 C 0.46056 0.81884 0.78008 0.0
C1350 C 0.44569 0.796 0.77677 0.0
C1351 C 0.4535 0.77736 0.76119 0.0
C1352 C 0.44815 0.84149 0.79138 0.0
C1353 C 0.4437 0.86418 0.77865 0.0
C1354 C 0.43572 0.83876 0.81229 0.0
C1355 C 0.44157 0.8162 0.82715 0.0
C1356 C 0.42114 0.8012 0.83642 0.0
C1357 C 0.4268 0.77986 0.85022 0.0
C1358 C 0.45282 0.77334 0.85494 0.0
C1359 C 0.47325 0.78814 0.84585 0.0
C1360 C 0.4677 0.80948 0.83202 0.0
C1361 C 0.33992 0.89839 0.79534 0.0
C1362 C 0.33533 0.91507 0.81347 0.0
C1363 C 0.36433 0.88666 0.79252 0.0
C1364 C 0.38454 0.8912 0.80786 0.0
C1365 C 0.38008 0.90762 0.82615 0.0
C1366 C 0.35566 0.91973 0.82882 0.0
C1367 C 0.40996 0.878 0.8045 0.0
C1368 C 0.41662 0.85715 0.8186 0.0
C1369 C 0.42469 0.88256 0.78499 0.0
C1370 C 0.41909 0.90541 0.77034 0.0
C1371 C 0.41772 0.93088 0.7793 0.0
C1372 C 0.41155 0.95226 0.76569 0.0
C1373 C 0.40684 0.94847 0.74304 0.0
C1374 C 0.40836 0.9233 0.73393 0.0
C1375 C 0.41447 0.90184 0.74748 0.0
H1376 H 0.402 0.96504 0.73254 0.0
H1377 H 0.45716 0.75681 0.86563 0.0
H1378 H 0.68453 0.46788 0.22654 0.0
H1379 H 0.66052 0.45397 0.25897 0.0
H1380 H 0.72798 0.4696 0.30028 0.0
H1381 H 0.75254 0.48378 0.26734 0.0
H1382 H 0.71414 0.42254 0.30634 0.0
H1383 H 0.66653 0.49939 0.31193 0.0
H1384 H 0.64242 0.53915 0.30075 0.0
H1385 H 0.58133 0.49169 0.27257 0.0
H1386 H 0.6052 0.45162 0.28321 0.0
H1387 H 0.58266 0.35601 0.35034 0.0
H1388 H 0.61022 0.39546 0.34855 0.0
H1389 H 0.65777 0.35874 0.298 0.0
H1390 H 0.63109 0.31947 0.30013 0.0
H1391 H 0.61789 0.42847 0.31698 0.0
H1392 H 0.71772 0.37546 0.29734 0.0
H1393 H 0.74305 0.33779 0.31139 0.0
H1394 H 0.70183 0.34159 0.37353 0.0
H1395 H 0.67632 0.37946 0.35995 0.0
C1396 C 0.69407 0.46955 0.24256 0.0
C1397 C 0.72061 0.47676 0.24423 0.0
C1398 C 0.68015 0.46161 0.26128 0.0
C1399 C 0.69228 0.46086 0.28223 0.0
C1400 C 0.71818 0.47001 0.2843 0.0
C1401 C 0.73223 0.47795 0.26544 0.0
C1402 C 0.67949 0.44568 0.30033 0.0
C1403 C 0.69319 0.42415 0.30909 0.0
C1404 C 0.6524 0.44839 0.30497 0.0
C1405 C 0.6377 0.47241 0.29848 0.0
C1406 C 0.64801 0.49739 0.30326 0.0
C1407 C 0.63437 0.52001 0.29702 0.0
C1408 C 0.61035 0.51795 0.28599 0.0
C1409 C 0.5999 0.49325 0.28118 0.0
C1410 C 0.61346 0.47056 0.28739 0.0
C1411 C 0.59913 0.35637 0.33898 0.0
C1412 C 0.60469 0.33463 0.32536 0.0
C1413 C 0.61492 0.37885 0.33805 0.0
C1414 C 0.6365 0.37986 0.32356 0.0
C1415 C 0.64184 0.35818 0.3099 0.0
C1416 C 0.62629 0.33578 0.31092 0.0
C1417 C 0.65216 0.40417 0.32068 0.0
C1418 C 0.639 0.42741 0.315 0.0
C1419 C 0.67988 0.40335 0.31938 0.0
C1420 C 0.69512 0.38043 0.32762 0.0
C1421 C 0.71417 0.36844 0.31407 0.0
C1422 C 0.72851 0.34698 0.32193 0.0
C1423 C 0.7241 0.33736 0.34334 0.0
C1424 C 0.70523 0.3491 0.35694 0.0
C1425 C 0.69075 0.37051 0.34914 0.0
H1426 H 0.73524 0.32074 0.34937 0.0
H1427 H 0.59982 0.53548 0.28116 0.0
H1428 H 0.00204 0.70896 0.75093 0.0
H1429 H 0.01209 0.67884 0.78148 0.0
H1430 H 0.08514 0.71945 0.79273 0.0
H1431 H 0.07575 0.74884 0.76228 0.0
H1432 H 0.05192 0.64655 0.77743 0.0
H1433 H 0.10894 0.7134 0.84035 0.0
H1434 H 0.10132 0.75428 0.86119 0.0
H1435 H 0.0181 0.74312 0.8556 0.0
H1436 H 0.02528 0.70187 0.8351 0.0
H1437 H 0.18112 0.62716 0.79742 0.0
H1438 H 0.13875 0.64898 0.79601 0.0
H1439 H 0.11007 0.59951 0.84885 0.0
H1440 H 0.15272 0.57691 0.8502 0.0
H1441 H 0.10206 0.66565 0.84625 0.0
H1442 H 0.07894 0.58183 0.8165 0.0
H1443 H 0.08902 0.54128 0.79584 0.0
H1444 H 0.10161 0.58615 0.73634 0.0
H1445 H 0.09209 0.62704 0.75676 0.0
C1446 C 0.01998 0.71182 0.76025 0.0
C1447 C 0.03831 0.73107 0.7538 0.0
C1448 C 0.02555 0.69472 0.77785 0.0
C1449 C 0.04931 0.69689 0.78948 0.0
C1450 C 0.06638 0.71766 0.78441 0.0
C1451 C 0.06096 0.73455 0.7668 0.0
C1452 C 0.05929 0.67495 0.80329 0.0
C1453 C 0.06202 0.6504 0.79296 0.0
C1454 C 0.07208 0.67966 0.8238 0.0
C1455 C 0.0677 0.70437 0.83635 0.0
C1456 C 0.08904 0.71943 0.84386 0.0
C1457 C 0.08479 0.74275 0.85552 0.0
C1458 C 0.05924 0.75127 0.85977 0.0
C1459 C 0.03789 0.73649 0.85232 0.0
C1460 C 0.04205 0.71314 0.84065 0.0
C1461 C 0.16594 0.62087 0.80884 0.0
C1462 C 0.17021 0.60017 0.82381 0.0
C1463 C 0.14176 0.63342 0.80804 0.0
C1464 C 0.12146 0.62579 0.82233 0.0
C1465 C 0.12566 0.60563 0.83776 0.0
C1466 C 0.14991 0.59272 0.8384 0.0
C1467 C 0.09569 0.6384 0.81952 0.0
C1468 C 0.09042 0.66127 0.83162 0.0
C1469 C 0.08015 0.63201 0.80089 0.0
C1470 C 0.08482 0.60749 0.78819 0.0
C1471 C 0.08393 0.58305 0.79903 0.0
C1472 C 0.08956 0.56002 0.78737 0.0
C1473 C 0.09595 0.56116 0.76481 0.0
C1474 C 0.09661 0.58532 0.75382 0.0
C1475 C 0.09105 0.60843 0.76543 0.0
H1476 H 0.10041 0.54332 0.75588 0.0
H1477 H 0.05598 0.76935 0.86878 0.0
H1478 H 0.93412 0.15156 0.33198 0.0
H1479 H 0.90542 0.11294 0.32898 0.0
H1480 H 0.84131 0.16291 0.30898 0.0
H1481 H 0.86953 0.2012 0.31197 0.0
H1482 H 0.82553 0.12406 0.33815 0.0
H1483 H 0.87933 0.13338 0.27046 0.0
H1484 H 0.92192 0.13471 0.25101 0.0
H1485 H 0.94085 0.05828 0.27642 0.0
H1486 H 0.89844 0.05667 0.29624 0.0
H1487 H 0.7428 0.08536 0.25469 0.0
H1488 H 0.77215 0.1007 0.28344 0.0
H1489 H 0.8129 0.02651 0.28258 0.0
H1490 H 0.7833 0.01089 0.25332 0.0
H1491 H 0.84577 0.06401 0.27563 0.0
H1492 H 0.7827 0.05051 0.33153 0.0
H1493 H 0.73937 0.05025 0.34969 0.0
H1494 H 0.73663 0.13435 0.34675 0.0
H1495 H 0.77968 0.13518 0.32818 0.0
C1496 C 0.91384 0.15423 0.32712 0.0
C1497 C 0.90414 0.1793 0.32187 0.0
C1498 C 0.8975 0.13222 0.32549 0.0
C1499 C 0.87129 0.13512 0.31874 0.0
C1500 C 0.86144 0.16026 0.31434 0.0
C1501 C 0.8777 0.1821 0.31579 0.0
C1502 C 0.85436 0.11222 0.31407 0.0
C1503 C 0.82988 0.11067 0.32463 0.0
C1504 C 0.86062 0.09414 0.29709 0.0
C1505 C 0.88594 0.09505 0.28504 0.0
C1506 C 0.89267 0.11694 0.27201 0.0
C1507 C 0.91675 0.11774 0.26091 0.0
C1508 C 0.93412 0.09663 0.26254 0.0
C1509 C 0.9274 0.07464 0.27522 0.0
C1510 C 0.90336 0.07378 0.28639 0.0
C1511 C 0.75724 0.07179 0.26119 0.0
C1512 C 0.76079 0.04693 0.25155 0.0
C1513 C 0.77408 0.08062 0.27779 0.0
C1514 C 0.79471 0.06473 0.28538 0.0
C1515 C 0.79712 0.03912 0.277 0.0
C1516 C 0.78027 0.03027 0.26023 0.0
C1517 C 0.816 0.07679 0.29875 0.0
C1518 C 0.84149 0.07637 0.28985 0.0
C1519 C 0.81054 0.09312 0.31723 0.0
C1520 C 0.78453 0.09286 0.32844 0.0
C1521 C 0.77281 0.06896 0.33462 0.0
C1522 C 0.74828 0.06871 0.345 0.0
C1523 C 0.73526 0.09226 0.34936 0.0
C1524 C 0.74675 0.11612 0.34337 0.0
C1525 C 0.77127 0.11649 0.33296 0.0
H1526 H 0.71627 0.09203 0.3574 0.0
H1527 H 0.95276 0.09728 0.25394 0.0
H1528 H 0.42942 0.75736 0.23232 0.0
H1529 H 0.41905 0.72466 0.20459 0.0
H1530 H 0.49548 0.68989 0.21293 0.0
H1531 H 0.50645 0.72321 0.24066 0.0
H1532 H 0.43444 0.69565 0.16701 0.0
H1533 H 0.48431 0.63014 0.22874 0.0
H1534 H 0.50338 0.63144 0.26652 0.0
H1535 H 0.44494 0.68723 0.28666 0.0
H1536 H 0.42552 0.68609 0.24908 0.0
H1537 H 0.35955 0.57375 0.15458 0.0
H1538 H 0.4001 0.59979 0.15718 0.0
H1539 H 0.37023 0.63765 0.21612 0.0
H1540 H 0.3301 0.61213 0.21364 0.0
H1541 H 0.42259 0.6216 0.21969 0.0
H1542 H 0.36176 0.66112 0.1666 0.0
H1543 H 0.33797 0.66439 0.13117 0.0
H1544 H 0.41092 0.66424 0.09552 0.0
H1545 H 0.43522 0.66071 0.13088 0.0
C1546 C 0.4447 0.74376 0.22752 0.0
C1547 C 0.46848 0.7424 0.23934 0.0
C1548 C 0.43869 0.72499 0.21148 0.0
C1549 C 0.45624 0.70448 0.20713 0.0
C1550 C 0.48154 0.70542 0.2163 0.0
C1551 C 0.48764 0.72429 0.23236 0.0
C1552 C 0.44527 0.6795 0.1988 0.0
C1553 C 0.43251 0.67898 0.17812 0.0
C1554 C 0.44253 0.65793 0.21345 0.0
C1555 C 0.45368 0.65817 0.23616 0.0
C1556 C 0.47554 0.64259 0.24129 0.0
C1557 C 0.48641 0.64333 0.26264 0.0
C1558 C 0.47543 0.65947 0.27896 0.0
C1559 C 0.45346 0.67478 0.27401 0.0
C1560 C 0.44252 0.67409 0.25271 0.0
C1561 C 0.36187 0.58743 0.16822 0.0
C1562 C 0.34166 0.59102 0.18388 0.0
C1563 C 0.38497 0.60222 0.16965 0.0
C1564 C 0.38809 0.6205 0.18687 0.0
C1565 C 0.36824 0.62345 0.20281 0.0
C1566 C 0.34523 0.60897 0.20129 0.0
C1567 C 0.41103 0.63806 0.18819 0.0
C1568 C 0.42589 0.63726 0.20776 0.0
C1569 C 0.41514 0.65855 0.17266 0.0
C1570 C 0.40034 0.66031 0.15144 0.0
C1571 C 0.37278 0.66156 0.15126 0.0
C1572 C 0.35917 0.66352 0.13116 0.0
C1573 C 0.3729 0.66444 0.11108 0.0
C1574 C 0.40029 0.66346 0.11109 0.0
C1575 C 0.41399 0.66148 0.13116 0.0
H1576 H 0.36233 0.66597 0.09553 0.0
H1577 H 0.48391 0.66008 0.29545 0.0
H1578 H 0.78319 0.49897 0.7385 0.0
H1579 H 0.81539 0.48802 0.70979 0.0
H1580 H 0.77831 0.41256 0.70106 0.0
H1581 H 0.74611 0.42362 0.72909 0.0
H1582 H 0.84814 0.45272 0.71938 0.0
H1583 H 0.79519 0.38005 0.6579 0.0
H1584 H 0.75613 0.38023 0.6338 0.0
H1585 H 0.75747 0.46441 0.63192 0.0
H1586 H 0.79668 0.46482 0.65588 0.0
H1587 H 0.89127 0.32613 0.71415 0.0
H1588 H 0.86567 0.36652 0.71395 0.0
H1589 H 0.90109 0.38927 0.65174 0.0
H1590 H 0.92736 0.34878 0.65197 0.0
H1591 H 0.842 0.39182 0.65531 0.0
H1592 H 0.91924 0.42534 0.68801 0.0
H1593 H 0.95814 0.42441 0.71235 0.0
H1594 H 0.90849 0.42056 0.76993 0.0
H1595 H 0.86929 0.42098 0.74594 0.0
C1596 C 0.78134 0.48051 0.72973 0.0
C1597 C 0.76246 0.46194 0.7363 0.0
C1598 C 0.79969 0.4743 0.71329 0.0
C1599 C 0.7995 0.44938 0.7033 0.0
C1600 C 0.77876 0.43211 0.7081 0.0
C1601 C 0.76029 0.43841 0.72432 0.0
C1602 C 0.82354 0.43883 0.69261 0.0
C1603 C 0.84693 0.44003 0.70495 0.0
C1604 C 0.8224 0.42268 0.67347 0.0
C1605 C 0.79899 0.42247 0.65872 0.0
C1606 C 0.78736 0.39863 0.6522 0.0
C1607 C 0.76511 0.39862 0.63861 0.0
C1608 C 0.75436 0.42231 0.63131 0.0
C1609 C 0.7658 0.44607 0.63761 0.0
C1610 C 0.78801 0.4462 0.65125 0.0
C1611 C 0.89379 0.33977 0.70049 0.0
C1612 C 0.91133 0.3344 0.68311 0.0
C1613 C 0.8792 0.36282 0.70041 0.0
C1614 C 0.88165 0.38079 0.68287 0.0
C1615 C 0.89908 0.37558 0.66541 0.0
C1616 C 0.9141 0.3526 0.66566 0.0
C1617 C 0.8652 0.40455 0.68314 0.0
C1618 C 0.84339 0.40562 0.66898 0.0
C1619 C 0.86779 0.42299 0.70048 0.0
C1620 C 0.89128 0.42322 0.71513 0.0
C1621 C 0.9166 0.42418 0.70586 0.0
C1622 C 0.93872 0.42374 0.7196 0.0
C1623 C 0.93578 0.42245 0.74267 0.0
C1624 C 0.91073 0.42162 0.75205 0.0
C1625 C 0.88854 0.42201 0.73838 0.0
H1626 H 0.95293 0.42208 0.75328 0.0
H1627 H 0.73714 0.42225 0.62078 0.0
H1628 H 0.99809 0.77952 0.24202 0.0
H1629 H 0.01287 0.81143 0.21429 0.0
H1630 H 0.08714 0.77127 0.20969 0.0
H1631 H 0.0728 0.73981 0.23727 0.0
H1632 H 0.05098 0.8429 0.22508 0.0
H1633 H 0.12033 0.78503 0.16436 0.0
H1634 H 0.11861 0.74512 0.14135 0.0
H1635 H 0.03449 0.74878 0.14047 0.0
H1636 H 0.03564 0.78897 0.16321 0.0
H1637 H 0.17892 0.88557 0.2124 0.0
H1638 H 0.13883 0.8596 0.21574 0.0
H1639 H 0.11085 0.89087 0.15347 0.0
H1640 H 0.15086 0.91751 0.15019 0.0
H1641 H 0.10959 0.83205 0.15989 0.0
H1642 H 0.07868 0.91165 0.19071 0.0
H1643 H 0.08139 0.95166 0.21358 0.0
H1644 H 0.0869 0.90476 0.27272 0.0
H1645 H 0.08482 0.86443 0.25017 0.0
C1646 C 0.01729 0.77708 0.2346 0.0
C1647 C 0.03443 0.75738 0.2422 0.0
C1648 C 0.02563 0.79524 0.21866 0.0
C1649 C 0.05113 0.79383 0.20993 0.0
C1650 C 0.0672 0.77259 0.21583 0.0
C1651 C 0.05892 0.75451 0.23173 0.0
C1652 C 0.06314 0.81683 0.19876 0.0
C1653 C 0.06326 0.84068 0.21048 0.0
C1654 C 0.07886 0.81419 0.17947 0.0
C1655 C 0.07808 0.79008 0.16558 0.0
C1656 C 0.10144 0.7775 0.15913 0.0
C1657 C 0.10057 0.75476 0.14616 0.0
C1658 C 0.07646 0.74442 0.13946 0.0
C1659 C 0.05316 0.75679 0.14571 0.0
C1660 C 0.05391 0.77953 0.15869 0.0
C1661 C 0.16419 0.88705 0.19948 0.0
C1662 C 0.16792 0.90357 0.18108 0.0
C1663 C 0.14133 0.87228 0.20142 0.0
C1664 C 0.12198 0.87349 0.18487 0.0
C1665 C 0.12561 0.88983 0.16639 0.0
C1666 C 0.14835 0.90505 0.16463 0.0
C1667 C 0.09841 0.85695 0.18713 0.0
C1668 C 0.09636 0.83445 0.17387 0.0
C1669 C 0.0808 0.86079 0.20493 0.0
C1670 C 0.08164 0.88498 0.2187 0.0
C1671 C 0.08063 0.90985 0.20858 0.0
C1672 C 0.08204 0.9326 0.22149 0.0
C1673 C 0.08428 0.93076 0.24459 0.0
C1674 C 0.08511 0.90616 0.25482 0.0
C1675 C 0.08379 0.88333 0.24198 0.0
H1676 H 0.08537 0.9484 0.25456 0.0
H1677 H 0.07583 0.72681 0.12942 0.0
H1678 H 0.7525 0.01529 0.72311 0.0
H1679 H 0.72422 0.03546 0.69497 0.0
H1680 H 0.66151 0.0403 0.74295 0.0
H1681 H 0.68923 0.02061 0.77083 0.0
H1682 H 0.64103 0.03787 0.70291 0.0
H1683 H 0.70876 0.08879 0.74102 0.0
H1684 H 0.75419 0.09986 0.75167 0.0
H1685 H 0.77544 0.10633 0.68277 0.0
H1686 H 0.73013 0.09501 0.67176 0.0
H1687 H 0.62355 0.18448 0.71551 0.0
H1688 H 0.64952 0.1447 0.71623 0.0
H1689 H 0.60766 0.11531 0.65901 0.0
H1690 H 0.58071 0.15522 0.65859 0.0
H1691 H 0.68254 0.12426 0.68866 0.0
H1692 H 0.60678 0.04699 0.66438 0.0
H1693 H 0.55871 0.04113 0.66296 0.0
H1694 H 0.54961 0.09401 0.71798 0.0
H1695 H 0.59761 0.09987 0.71989 0.0
C1696 C 0.73242 0.01994 0.72743 0.0
C1697 C 0.7234 0.01689 0.74941 0.0
C1698 C 0.71624 0.03131 0.71129 0.0
C1699 C 0.69097 0.03996 0.71703 0.0
C1700 C 0.68092 0.03383 0.73809 0.0
C1701 C 0.69696 0.02245 0.75413 0.0
C1702 C 0.67708 0.05996 0.70359 0.0
C1703 C 0.65021 0.05658 0.69922 0.0
C1704 C 0.68894 0.08453 0.6991 0.0
C1705 C 0.71629 0.09063 0.70558 0.0
C1706 C 0.72322 0.09233 0.72817 0.0
C1707 C 0.7489 0.0987 0.73426 0.0
C1708 C 0.76772 0.10368 0.7179 0.0
C1709 C 0.76088 0.10233 0.69541 0.0
C1710 C 0.73522 0.0959 0.68923 0.0
C1711 C 0.61975 0.16962 0.70305 0.0
C1712 C 0.59994 0.1729 0.68709 0.0
C1713 C 0.6348 0.14692 0.70337 0.0
C1714 C 0.6306 0.12704 0.68764 0.0
C1715 C 0.6111 0.13034 0.67139 0.0
C1716 C 0.59573 0.15309 0.6712 0.0
C1717 C 0.64626 0.10268 0.68937 0.0
C1718 C 0.67355 0.10521 0.69124 0.0
C1719 C 0.63449 0.07785 0.69276 0.0
C1720 C 0.60569 0.07413 0.69204 0.0
C1721 C 0.59449 0.0573 0.67618 0.0
C1722 C 0.56728 0.05398 0.67531 0.0
C1723 C 0.55111 0.06728 0.69031 0.0
C1724 C 0.56214 0.0838 0.70632 0.0
C1725 C 0.58933 0.08713 0.7073 0.0
H1726 H 0.53005 0.06474 0.68957 0.0
H1727 H 0.78758 0.10868 0.72265 0.0
H1728 H 0.7756 0.36362 0.14059 0.0
H1729 H 0.77679 0.31615 0.13594 0.0
H1730 H 0.69271 0.31482 0.1282 0.0
H1731 H 0.69139 0.36252 0.13282 0.0
H1732 H 0.70792 0.27882 0.15743 0.0
H1733 H 0.73392 0.30188 0.08346 0.0
H1734 H 0.75977 0.32462 0.05463 0.0
H1735 H 0.83036 0.28949 0.07965 0.0
H1736 H 0.80495 0.26653 0.10865 0.0
H1737 H 0.70688 0.14194 0.13705 0.0
H1738 H 0.7014 0.189 0.13182 0.0
H1739 H 0.78516 0.19965 0.13624 0.0
H1740 H 0.79094 0.15237 0.1403 0.0
H1741 H 0.76681 0.23096 0.10588 0.0
H1742 H 0.74157 0.21037 0.18117 0.0
H1743 H 0.71646 0.18916 0.21128 0.0
H1744 H 0.64489 0.22085 0.18495 0.0
H1745 H 0.66953 0.24197 0.15449 0.0
C1746 C 0.75739 0.3534 0.13737 0.0
C1747 C 0.73337 0.36699 0.13703 0.0
C1748 C 0.7581 0.32614 0.13474 0.0
C1749 C 0.73486 0.31182 0.13152 0.0
C1750 C 0.71091 0.32539 0.13069 0.0
C1751 C 0.71017 0.35267 0.13336 0.0
C1752 C 0.73547 0.2826 0.13049 0.0
C1753 C 0.72039 0.26832 0.14584 0.0
C1754 C 0.75221 0.26887 0.11576 0.0
C1755 C 0.76755 0.28263 0.09833 0.0
C1756 C 0.75498 0.29913 0.0829 0.0
C1757 C 0.76954 0.31204 0.06651 0.0
C1758 C 0.79669 0.30861 0.06538 0.0
C1759 C 0.80933 0.29215 0.08056 0.0
C1760 C 0.79485 0.27912 0.09694 0.0
C1761 C 0.72425 0.15409 0.13641 0.0
C1762 C 0.74943 0.14315 0.1392 0.0
C1763 C 0.72102 0.18118 0.13373 0.0
C1764 C 0.7428 0.19807 0.13411 0.0
C1765 C 0.76799 0.18713 0.13603 0.0
C1766 C 0.77127 0.16003 0.13852 0.0
C1767 C 0.73948 0.22714 0.13303 0.0
C1768 C 0.75408 0.2414 0.1173 0.0
C1769 C 0.72233 0.24088 0.14748 0.0
C1770 C 0.70738 0.22753 0.16541 0.0
C1771 C 0.72045 0.21258 0.18165 0.0
C1772 C 0.70631 0.20063 0.19882 0.0
C1773 C 0.67912 0.2037 0.20004 0.0
C1774 C 0.66596 0.21853 0.18399 0.0
C1775 C 0.68 0.23048 0.16677 0.0
H1776 H 0.66827 0.19464 0.21347 0.0
H1777 H 0.80793 0.31865 0.0527 0.0
H1778 H 0.36402 0.80042 0.63386 0.0
H1779 H 0.31641 0.79591 0.6309 0.0
H1780 H 0.32309 0.71275 0.64289 0.0
H1781 H 0.37069 0.71712 0.64571 0.0
H1782 H 0.28639 0.72221 0.61196 0.0
H1783 H 0.30652 0.75503 0.68468 0.0
H1784 H 0.32626 0.78518 0.71202 0.0
H1785 H 0.28191 0.84921 0.68485 0.0
H1786 H 0.26218 0.8195 0.65711 0.0
H1787 H 0.15527 0.69806 0.64722 0.0
H1788 H 0.2026 0.70216 0.64303 0.0
H1789 H 0.19455 0.78581 0.63464 0.0
H1790 H 0.14735 0.78209 0.64008 0.0
H1791 H 0.23209 0.77636 0.66268 0.0
H1792 H 0.2108 0.74215 0.59031 0.0
H1793 H 0.19099 0.71097 0.56383 0.0
H1794 H 0.2371 0.64842 0.59142 0.0
H1795 H 0.25697 0.67918 0.61822 0.0
C1796 C 0.35539 0.78115 0.63575 0.0
C1797 C 0.37125 0.7592 0.64023 0.0
C1798 C 0.32813 0.77859 0.63408 0.0
C1799 C 0.31605 0.75406 0.63709 0.0
C1800 C 0.3319 0.7319 0.64054 0.0
C1801 C 0.35919 0.73443 0.6421 0.0
C1802 C 0.2869 0.75171 0.63756 0.0
C1803 C 0.27452 0.73388 0.62319 0.0
C1804 C 0.2713 0.7672 0.65197 0.0
C1805 C 0.28309 0.7851 0.66866 0.0
C1806 C 0.30113 0.77558 0.68442 0.0
C1807 C 0.3123 0.79258 0.70001 0.0
C1808 C 0.3054 0.81911 0.70014 0.0
C1809 C 0.28727 0.82867 0.68471 0.0
C1810 C 0.27608 0.81176 0.66905 0.0
C1811 C 0.16345 0.71737 0.64447 0.0
C1812 C 0.14722 0.73973 0.64411 0.0
C1813 C 0.19063 0.71965 0.64179 0.0
C1814 C 0.20229 0.74428 0.63826 0.0
C1815 C 0.1861 0.76655 0.63729 0.0
C1816 C 0.15894 0.76433 0.64018 0.0
C1817 C 0.23141 0.74704 0.6369 0.0
C1818 C 0.24386 0.76486 0.65126 0.0
C1819 C 0.24703 0.73143 0.62257 0.0
C1820 C 0.23523 0.71294 0.60637 0.0
C1821 C 0.2166 0.72172 0.59081 0.0
C1822 C 0.20538 0.70412 0.57573 0.0
C1823 C 0.21275 0.67772 0.57596 0.0
C1824 C 0.23141 0.66888 0.59125 0.0
C1825 C 0.24269 0.68639 0.60636 0.0
H1826 H 0.20403 0.66413 0.56428 0.0
H1827 H 0.31406 0.83224 0.71223 0.0
H1828 H 0.69706 0.12776 0.85791 0.0
H1829 H 0.69677 0.17603 0.8582 0.0
H1830 H 0.77755 0.17674 0.83704 0.0
H1831 H 0.77805 0.12873 0.83707 0.0
H1832 H 0.7327 0.21335 0.88166 0.0
H1833 H 0.7782 0.22526 0.79494 0.0
H1834 H 0.78188 0.20069 0.75973 0.0
H1835 H 0.70847 0.16246 0.77293 0.0
H1836 H 0.70415 0.18709 0.80804 0.0
H1837 H 0.78606 0.34156 0.85246 0.0
H1838 H 0.78086 0.29378 0.85595 0.0
H1839 H 0.70164 0.29986 0.83148 0.0
H1840 H 0.70653 0.3477 0.82855 0.0
H1841 H 0.74191 0.26008 0.80962 0.0
H1842 H 0.69911 0.28763 0.87801 0.0
H1843 H 0.69724 0.31205 0.91336 0.0
H1844 H 0.76553 0.27116 0.93669 0.0
H1845 H 0.76803 0.24679 0.9013 0.0
C1846 C 0.71479 0.13829 0.85358 0.0
C1847 C 0.73759 0.1245 0.84762 0.0
C1848 C 0.71463 0.16578 0.8538 0.0
C1849 C 0.7371 0.17991 0.84754 0.0
C1850 C 0.76 0.1662 0.8419 0.0
C1851 C 0.76031 0.13877 0.84207 0.0
C1852 C 0.73649 0.20898 0.84619 0.0
C1853 C 0.73458 0.22356 0.86591 0.0
C1854 C 0.739 0.22228 0.82562 0.0
C1855 C 0.74102 0.20782 0.80425 0.0
C1856 C 0.76278 0.21171 0.79028 0.0
C1857 C 0.76499 0.19775 0.77035 0.0
C1858 C 0.74549 0.17993 0.76416 0.0
C1859 C 0.72363 0.17617 0.77781 0.0
C1860 C 0.72132 0.19009 0.79774 0.0
C1861 C 0.76749 0.33267 0.84805 0.0
C1862 C 0.74666 0.34829 0.84036 0.0
C1863 C 0.76454 0.30546 0.85003 0.0
C1864 C 0.74089 0.29335 0.84393 0.0
C1865 C 0.72002 0.30888 0.83629 0.0
C1866 C 0.72277 0.33616 0.83479 0.0
C1867 C 0.73823 0.26441 0.84509 0.0
C1868 C 0.73979 0.24985 0.82534 0.0
C1869 C 0.7355 0.25113 0.86561 0.0
C1870 C 0.73392 0.26561 0.88692 0.0
C1871 C 0.71388 0.28405 0.89059 0.0
C1872 C 0.71267 0.29783 0.91065 0.0
C1873 C 0.7313 0.29321 0.92724 0.0
C1874 C 0.75114 0.27474 0.92382 0.0
C1875 C 0.75244 0.26093 0.90377 0.0
H1876 H 0.73033 0.3039 0.94276 0.0
H1877 H 0.74731 0.16905 0.74878 0.0
H1878 H 0.35481 0.78056 0.34512 0.0
H1879 H 0.30734 0.77943 0.35007 0.0
H1880 H 0.30964 0.69495 0.35387 0.0
H1881 H 0.3573 0.696 0.34872 0.0
H1882 H 0.27079 0.70956 0.32788 0.0
H1883 H 0.29927 0.73272 0.39998 0.0
H1884 H 0.32478 0.75731 0.42767 0.0
H1885 H 0.2839 0.82805 0.41025 0.0
H1886 H 0.25862 0.80394 0.38185 0.0
H1887 H 0.13549 0.70423 0.35512 0.0
H1888 H 0.18285 0.69973 0.35925 0.0
H1889 H 0.19172 0.78359 0.35336 0.0
H1890 H 0.14427 0.78839 0.35027 0.0
H1891 H 0.22502 0.76503 0.38343 0.0
H1892 H 0.19937 0.73996 0.30842 0.0
H1893 H 0.175 0.71344 0.28104 0.0
H1894 H 0.21095 0.64331 0.30627 0.0
H1895 H 0.23518 0.66937 0.33408 0.0
C1896 C 0.34533 0.76176 0.34743 0.0
C1897 C 0.35994 0.73837 0.3467 0.0
C1898 C 0.3181 0.76112 0.35019 0.0
C1899 C 0.30482 0.73711 0.35259 0.0
C1900 C 0.31937 0.71372 0.35202 0.0
C1901 C 0.34663 0.71434 0.34911 0.0
C1902 C 0.27572 0.73651 0.35514 0.0
C1903 C 0.26082 0.72134 0.34029 0.0
C1904 C 0.26258 0.75199 0.37122 0.0
C1905 C 0.27719 0.76654 0.38864 0.0
C1906 C 0.29581 0.75356 0.40194 0.0
C1907 C 0.31024 0.76743 0.41778 0.0
C1908 C 0.30597 0.79427 0.42078 0.0
C1909 C 0.2872 0.80727 0.40791 0.0
C1910 C 0.27282 0.7935 0.39191 0.0
C1911 C 0.14734 0.72182 0.3552 0.0
C1912 C 0.13588 0.74671 0.3521 0.0
C1913 C 0.17457 0.71916 0.35732 0.0
C1914 C 0.191 0.74126 0.35611 0.0
C1915 C 0.17954 0.76619 0.35416 0.0
C1916 C 0.15233 0.7689 0.3522 0.0
C1917 C 0.22011 0.73854 0.35586 0.0
C1918 C 0.23502 0.75307 0.37116 0.0
C1919 C 0.23326 0.7222 0.34037 0.0
C1920 C 0.2189 0.7066 0.32347 0.0
C1921 C 0.20196 0.71887 0.30822 0.0
C1922 C 0.18818 0.70392 0.29261 0.0
C1923 C 0.19141 0.67672 0.29192 0.0
C1924 C 0.20847 0.6644 0.30682 0.0
C1925 C 0.22221 0.67924 0.32252 0.0
H1926 H 0.18069 0.66517 0.27986 0.0
H1927 H 0.31718 0.80498 0.43307 0.0
H1928 H 0.23374 0.64077 0.87694 0.0
H1929 H 0.23028 0.68834 0.88163 0.0
H1930 H 0.29274 0.69957 0.83424 0.0
H1931 H 0.2962 0.65238 0.82931 0.0
H1932 H 0.29811 0.73226 0.86953 0.0
H1933 H 0.22777 0.70653 0.81894 0.0
H1934 H 0.18853 0.68051 0.80934 0.0
H1935 H 0.14784 0.71221 0.86578 0.0
H1936 H 0.18684 0.73834 0.87571 0.0
H1937 H 0.28412 0.86333 0.83447 0.0
H1938 H 0.28752 0.81574 0.83802 0.0
H1939 H 0.2166 0.81464 0.87725 0.0
H1940 H 0.21257 0.8623 0.87267 0.0
H1941 H 0.21428 0.7763 0.85061 0.0
H1942 H 0.28173 0.80521 0.89985 0.0
H1943 H 0.32073 0.83035 0.91147 0.0
H1944 H 0.36673 0.79205 0.86131 0.0
H1945 H 0.32797 0.76692 0.84919 0.0
C1946 C 0.24675 0.65331 0.86751 0.0
C1947 C 0.2652 0.64251 0.85267 0.0
C1948 C 0.24477 0.68056 0.87024 0.0
C1949 C 0.26107 0.6976 0.8581 0.0
C1950 C 0.27999 0.68687 0.84385 0.0
C1951 C 0.282 0.65972 0.84112 0.0
C1952 C 0.258 0.72662 0.85949 0.0
C1953 C 0.27984 0.74194 0.86527 0.0
C1954 C 0.23396 0.73925 0.85461 0.0
C1955 C 0.21025 0.72423 0.84815 0.0
C1956 C 0.21044 0.70791 0.8293 0.0
C1957 C 0.18825 0.69316 0.82379 0.0
C1958 C 0.16571 0.69469 0.83694 0.0
C1959 C 0.16527 0.71108 0.85556 0.0
C1960 C 0.18739 0.72591 0.86111 0.0
C1961 C 0.26947 0.85294 0.84409 0.0
C1962 C 0.2482 0.86652 0.85345 0.0
C1963 C 0.27144 0.82569 0.84621 0.0
C1964 C 0.25262 0.81141 0.85834 0.0
C1965 C 0.23143 0.82506 0.86785 0.0
C1966 C 0.22915 0.8523 0.8653 0.0
C1967 C 0.25459 0.78222 0.86035 0.0
C1968 C 0.23254 0.76679 0.85517 0.0
C1969 C 0.27839 0.76948 0.86608 0.0
C1970 C 0.30187 0.78431 0.87352 0.0
C1971 C 0.30014 0.80224 0.89122 0.0
C1972 C 0.32221 0.81648 0.8979 0.0
C1973 C 0.3462 0.81283 0.8871 0.0
C1974 C 0.34816 0.79487 0.86965 0.0
C1975 C 0.32615 0.78059 0.86289 0.0
H1976 H 0.36326 0.82389 0.89227 0.0
H1977 H 0.14858 0.68322 0.8327 0.0
H1978 H 0.86155 0.30631 0.35641 0.0
H1979 H 0.814 0.30208 0.35963 0.0
H1980 H 0.82159 0.21787 0.36244 0.0
H1981 H 0.86889 0.22186 0.35818 0.0
H1982 H 0.78453 0.23012 0.33468 0.0
H1983 H 0.80538 0.25645 0.40898 0.0
H1984 H 0.82488 0.2842 0.4382 0.0
H1985 H 0.77844 0.34958 0.41637 0.0
H1986 H 0.75891 0.32232 0.38683 0.0
H1987 H 0.65128 0.20496 0.36123 0.0
H1988 H 0.69907 0.20812 0.36391 0.0
H1989 H 0.694 0.29226 0.35837 0.0
H1990 H 0.6464 0.28931 0.35557 0.0
H1991 H 0.72976 0.27926 0.38859 0.0
H1992 H 0.71014 0.25323 0.31369 0.0
H1993 H 0.69111 0.22573 0.28407 0.0
H1994 H 0.7358 0.15966 0.30698 0.0
H1995 H 0.75475 0.18664 0.33703 0.0
C1996 C 0.85316 0.28688 0.35778 0.0
C1997 C 0.86929 0.26448 0.35705 0.0
C1998 C 0.8259 0.28448 0.35985 0.0
C1999 C 0.81408 0.25964 0.36153 0.0
C2000 C 0.83015 0.23727 0.36125 0.0
C2001 C 0.85738 0.23963 0.35906 0.0
C2002 C 0.78494 0.25686 0.3624 0.0
C2003 C 0.77263 0.24051 0.34676 0.0
C2004 C 0.76922 0.27094 0.37773 0.0
C2005 C 0.78089 0.28739 0.39552 0.0
C2006 C 0.79948 0.2768 0.41029 0.0
C2007 C 0.81051 0.29243 0.42694 0.0
C2008 C 0.80297 0.31865 0.4291 0.0
C2009 C 0.78431 0.32928 0.41465 0.0
C2010 C 0.77324 0.31373 0.39796 0.0
C2011 C 0.66034 0.22415 0.36062 0.0
C2012 C 0.6449 0.24684 0.35812 0.0
C2013 C 0.68769 0.22593 0.36213 0.0
C2014 C 0.70026 0.25044 0.36097 0.0
C2015 C 0.68484 0.27316 0.35927 0.0
C2016 C 0.65751 0.27142 0.3578 0.0
C2017 C 0.72945 0.25242 0.36096 0.0
C2018 C 0.74173 0.2687 0.37667 0.0
C2019 C 0.74518 0.23825 0.3457 0.0
C2020 C 0.73362 0.22189 0.32779 0.0
C2021 C 0.7157 0.23277 0.31257 0.0
C2022 C 0.70496 0.21728 0.29569 0.0
C2023 C 0.71217 0.19094 0.29372 0.0
C2024 C 0.73017 0.18004 0.3086 0.0
C2025 C 0.74091 0.19542 0.32556 0.0
H2026 H 0.70387 0.179 0.28061 0.0
H2027 H 0.81153 0.33072 0.442 0.0
H2028 H 0.29002 0.63827 0.13411 0.0
H2029 H 0.29298 0.686 0.13114 0.0
H2030 H 0.21721 0.69356 0.16218 0.0
H2031 H 0.21408 0.64629 0.16555 0.0
H2032 H 0.22081 0.72529 0.12693 0.0
H2033 H 0.27354 0.70445 0.19058 0.0
H2034 H 0.30935 0.68409 0.21204 0.0
H2035 H 0.36626 0.72133 0.16992 0.0
H2036 H 0.33076 0.74143 0.14782 0.0
H2037 H 0.21855 0.85907 0.15802 0.0
H2038 H 0.21828 0.81123 0.15658 0.0
H2039 H 0.29727 0.81181 0.13079 0.0
H2040 H 0.29783 0.85986 0.13297 0.0
H2041 H 0.29384 0.77564 0.16076 0.0
H2042 H 0.2404 0.79738 0.09754 0.0
H2043 H 0.20411 0.81951 0.07795 0.0
H2044 H 0.14828 0.78142 0.12058 0.0
H2045 H 0.18425 0.75922 0.14057 0.0
C2046 C 0.27396 0.64993 0.14041 0.0
C2047 C 0.25175 0.63795 0.15006 0.0
C2048 C 0.27574 0.67735 0.13869 0.0
C2049 C 0.25541 0.69346 0.14658 0.0
C2050 C 0.23313 0.68161 0.15588 0.0
C2051 C 0.23136 0.65433 0.15769 0.0
C2052 C 0.25704 0.72265 0.14521 0.0
C2053 C 0.23672 0.73629 0.13447 0.0
C2054 C 0.27807 0.73708 0.15459 0.0
C2055 C 0.29944 0.72422 0.16737 0.0
C2056 C 0.29367 0.70802 0.18568 0.0
C2057 C 0.31392 0.6966 0.19802 0.0
C2058 C 0.34005 0.7015 0.1924 0.0
C2059 C 0.34599 0.71765 0.17431 0.0
C2060 C 0.32581 0.72898 0.16182 0.0
C2061 C 0.23571 0.84904 0.1517 0.0
C2062 C 0.25814 0.86328 0.1454 0.0
C2063 C 0.23555 0.8216 0.15086 0.0
C2064 C 0.2576 0.80769 0.14317 0.0
C2065 C 0.27998 0.82194 0.13674 0.0
C2066 C 0.28029 0.84942 0.13793 0.0
C2067 C 0.25755 0.77834 0.14255 0.0
C2068 C 0.27813 0.76465 0.15295 0.0
C2069 C 0.23675 0.76382 0.13288 0.0
C2070 C 0.21504 0.77677 0.12063 0.0
C2071 C 0.22039 0.79379 0.10279 0.0
C2072 C 0.19987 0.80633 0.09161 0.0
C2073 C 0.17391 0.80189 0.09804 0.0
C2074 C 0.1684 0.78482 0.11562 0.0
C2075 C 0.18884 0.77221 0.12685 0.0
H2076 H 0.15806 0.81165 0.08939 0.0
H2077 H 0.35571 0.69269 0.202 0.0
H2078 H 0.64306 0.21995 0.65593 0.0
H2079 H 0.69045 0.2157 0.65216 0.0
H2080 H 0.6996 0.29826 0.66575 0.0
H2081 H 0.6521 0.30298 0.6684 0.0
H2082 H 0.73187 0.28497 0.63429 0.0
H2083 H 0.70959 0.24826 0.70556 0.0
H2084 H 0.68704 0.2185 0.73167 0.0
H2085 H 0.72167 0.15198 0.6993 0.0
H2086 H 0.74391 0.18125 0.67264 0.0
H2087 H 0.86702 0.28589 0.66239 0.0
H2088 H 0.81927 0.28911 0.66192 0.0
H2089 H 0.8137 0.2061 0.64869 0.0
H2090 H 0.86165 0.20274 0.64974 0.0
H2091 H 0.77956 0.21859 0.67902 0.0
H2092 H 0.80118 0.25499 0.60753 0.0
H2093 H 0.82458 0.28462 0.58187 0.0
H2094 H 0.79225 0.35147 0.61547 0.0
H2095 H 0.76877 0.32224 0.64148 0.0
C2096 C 0.65499 0.23737 0.65771 0.0
C2097 C 0.6435 0.26186 0.66255 0.0
C2098 C 0.68226 0.2348 0.65586 0.0
C2099 C 0.69879 0.25653 0.65912 0.0
C2100 C 0.68737 0.28111 0.66331 0.0
C2101 C 0.66011 0.28375 0.66499 0.0
C2102 C 0.72795 0.25378 0.65826 0.0
C2103 C 0.74227 0.27062 0.64427 0.0
C2104 C 0.74166 0.23465 0.67087 0.0
C2105 C 0.72813 0.21698 0.68687 0.0
C2106 C 0.71215 0.22727 0.70382 0.0
C2107 C 0.6994 0.21047 0.71872 0.0
C2108 C 0.70271 0.18334 0.717 0.0
C2109 C 0.71891 0.17297 0.70047 0.0
C2110 C 0.73158 0.18966 0.68546 0.0
C2111 C 0.85567 0.2684 0.65897 0.0
C2112 C 0.86816 0.24408 0.65587 0.0
C2113 C 0.82828 0.27025 0.65873 0.0
C2114 C 0.81269 0.24792 0.65493 0.0
C2115 C 0.82518 0.22364 0.65165 0.0
C2116 C 0.85259 0.22173 0.65218 0.0
C2117 C 0.78343 0.24977 0.65506 0.0
C2118 C 0.76911 0.23281 0.66894 0.0
C2119 C 0.7697 0.26877 0.64238 0.0
C2120 C 0.78336 0.28641 0.62653 0.0
C2121 C 0.79913 0.27601 0.6095 0.0
C2122 C 0.81238 0.29274 0.59489 0.0
C2123 C 0.80991 0.31991 0.59707 0.0
C2124 C 0.7941 0.33042 0.61381 0.0
C2125 C 0.78077 0.31378 0.62846 0.0
H2126 H 0.82023 0.33283 0.58577 0.0
H2127 H 0.6929 0.17037 0.72857 0.0
H2128 H 0.74664 0.99079 0.91104 0.0
H2129 H 0.74021 0.99943 0.95048 0.0
H2130 H 0.78264 0.07233 0.94417 0.0
H2131 H 0.78982 0.06332 0.90448 0.0
H2132 H 0.79496 0.04958 0.98191 0.0
H2133 H 0.71538 0.07216 0.9469 0.0
H2134 H 0.67738 0.06717 0.92192 0.0
H2135 H 0.65138 1.00025 0.95931 0.0
H2136 H 0.68945 0.00458 0.98433 0.0
H2137 H 0.70326 0.06641 0.0866 0.0
H2138 H 0.70985 0.07139 0.04635 0.0
H2139 H 0.76976 0.01167 0.04818 0.0
H2140 H 0.76372 0.00704 0.08812 0.0
H2141 H 0.70475 0.04008 0.01196 0.0
H2142 H 0.81851 0.02468 0.01333 0.0
H2143 H 0.85578 0.03499 0.03797 0.0
H2144 H 0.81197 0.09801 0.06731 0.0
H2145 H 0.7746 0.08837 0.04262 0.0
C2146 C 0.75481 0.00857 0.91806 0.0
C2147 C 0.76859 0.02647 0.90468 0.0
C2148 C 0.75095 0.01359 0.94059 0.0
C2149 C 0.76029 0.03688 0.95017 0.0
C2150 C 0.77505 0.05434 0.93707 0.0
C2151 C 0.77922 0.04914 0.91446 0.0
C2152 C 0.7544 0.04267 0.97385 0.0
C2153 C 0.77523 0.04767 0.98847 0.0
C2154 C 0.72849 0.04123 0.98233 0.0
C2155 C 0.70538 0.03863 0.96744 0.0
C2156 C 0.70165 0.05628 0.94973 0.0
C2157 C 0.68008 0.05358 0.93556 0.0
C2158 C 0.66199 0.03339 0.93901 0.0
C2159 C 0.66541 0.01589 0.95666 0.0
C2160 C 0.68696 0.01848 0.97087 0.0
C2161 C 0.7177 0.05426 0.07834 0.0
C2162 C 0.7331 0.03646 0.09052 0.0
C2163 C 0.7215 0.05718 0.05538 0.0
C2164 C 0.74073 0.04234 0.04433 0.0
C2165 C 0.75534 0.02388 0.05641 0.0
C2166 C 0.75172 0.02112 0.07926 0.0
C2167 C 0.7455 0.04554 0.02012 0.0
C2168 C 0.72443 0.04234 0.00539 0.0
C2169 C 0.77107 0.0495 0.0115 0.0
C2170 C 0.79367 0.05567 0.02619 0.0
C2171 C 0.81688 0.04085 0.02493 0.0
C2172 C 0.83802 0.04655 0.03893 0.0
C2173 C 0.83622 0.0671 0.05423 0.0
C2174 C 0.81331 0.08204 0.0555 0.0
C2175 C 0.79214 0.07645 0.04152 0.0
H2176 H 0.8526 0.07146 0.06507 0.0
H2177 H 0.64531 0.03132 0.92802 0.0
H2178 H 0.44398 0.72239 0.40375 0.0
H2179 H 0.44384 0.71982 0.44442 0.0
H2180 H 0.46902 0.80043 0.44821 0.0
H2181 H 0.46825 0.80344 0.40733 0.0
H2182 H 0.50161 0.75483 0.47042 0.0
H2183 H 0.41777 0.79735 0.46657 0.0
H2184 H 0.37173 0.80482 0.45581 0.0
H2185 H 0.35038 0.7296 0.48237 0.0
H2186 H 0.39642 0.72144 0.49294 0.0
H2187 H 0.50146 0.77496 0.58618 0.0
H2188 H 0.49629 0.77792 0.54607 0.0
H2189 H 0.44705 0.70909 0.54674 0.0
H2190 H 0.45183 0.70619 0.58734 0.0
H2191 H 0.42586 0.7482 0.52191 0.0
H2192 H 0.50896 0.70566 0.52654 0.0
H2193 H 0.55433 0.69872 0.53943 0.0
H2194 H 0.57712 0.77295 0.51171 0.0
H2195 H 0.53177 0.78052 0.49892 0.0
C2196 C 0.44905 0.7397 0.41327 0.0
C2197 C 0.45622 0.7631 0.4025 0.0
C2198 C 0.44885 0.73822 0.43644 0.0
C2199 C 0.45634 0.75994 0.4492 0.0
C2200 C 0.463 0.78354 0.43854 0.0
C2201 C 0.46252 0.78525 0.4153 0.0
C2202 C 0.45962 0.75694 0.47347 0.0
C2203 C 0.48511 0.7538 0.48178 0.0
C2204 C 0.43797 0.75457 0.48799 0.0
C2205 C 0.41063 0.75864 0.48029 0.0
C2206 C 0.40338 0.78216 0.46972 0.0
C2207 C 0.37725 0.78659 0.46376 0.0
C2208 C 0.35816 0.76772 0.46844 0.0
C2209 C 0.3652 0.74421 0.47878 0.0
C2210 C 0.39131 0.73967 0.48474 0.0
C2211 C 0.48966 0.76027 0.57786 0.0
C2212 C 0.47706 0.7403 0.58996 0.0
C2213 C 0.48683 0.76195 0.55486 0.0
C2214 C 0.47151 0.74359 0.54337 0.0
C2215 C 0.45903 0.72342 0.55531 0.0
C2216 C 0.46189 0.7217 0.57845 0.0
C2217 C 0.46792 0.74627 0.51899 0.0
C2218 C 0.4424 0.74918 0.51058 0.0
C2219 C 0.48956 0.74825 0.50432 0.0
C2220 C 0.51689 0.74375 0.51194 0.0
C2221 C 0.52359 0.7206 0.52334 0.0
C2222 C 0.54931 0.71654 0.5306 0.0
C2223 C 0.56858 0.73541 0.52643 0.0
C2224 C 0.56217 0.75836 0.51494 0.0
C2225 C 0.53646 0.76253 0.50766 0.0
H2226 H 0.58849 0.73223 0.53207 0.0
H2227 H 0.33786 0.77141 0.46426 0.0
H2228 H 0.71742 0.47259 0.08223 0.0
H2229 H 0.71613 0.46541 0.0422 0.0
H2230 H 0.79913 0.4492 0.04209 0.0
H2231 H 0.80058 0.45602 0.08257 0.0
H2232 H 0.78085 0.48633 0.00889 0.0
H2233 H 0.76185 0.40059 0.03648 0.0
H2234 H 0.73884 0.36857 0.06019 0.0
H2235 H 0.66591 0.38742 0.02829 0.0
H2236 H 0.68832 0.42023 0.00486 0.0
H2237 H 0.78369 0.44858 0.89701 0.0
H2238 H 0.78824 0.44715 0.93728 0.0
H2239 H 0.7041 0.45033 0.9444 0.0
H2240 H 0.69934 0.45097 0.90374 0.0
H2241 H 0.72519 0.41747 0.9745 0.0
H2242 H 0.74189 0.5056 0.95027 0.0
H2243 H 0.763 0.54026 0.92792 0.0
H2244 H 0.83825 0.51861 0.9542 0.0
H2245 H 0.81762 0.48356 0.97649 0.0
C2246 C 0.73547 0.46751 0.07376 0.0
C2247 C 0.75916 0.46493 0.08553 0.0
C2248 C 0.73462 0.46328 0.05089 0.0
C2249 C 0.75747 0.45659 0.03929 0.0
C2250 C 0.78128 0.45426 0.05086 0.0
C2251 C 0.78208 0.45812 0.07391 0.0
C2252 C 0.75627 0.45278 0.01494 0.0
C2253 C 0.76915 0.47096 0.00131 0.0
C2254 C 0.74026 0.4332 0.00524 0.0
C2255 C 0.72677 0.41308 0.01901 0.0
C2256 C 0.74087 0.39811 0.03463 0.0
C2257 C 0.72793 0.37978 0.04801 0.0
C2258 C 0.70094 0.37593 0.04572 0.0
C2259 C 0.68683 0.39042 0.03004 0.0
C2260 C 0.69964 0.40892 0.01672 0.0
C2261 C 0.76609 0.44887 0.9071 0.0
C2262 C 0.74113 0.45027 0.89723 0.0
C2263 C 0.76875 0.44808 0.93014 0.0
C2264 C 0.74656 0.44922 0.94388 0.0
C2265 C 0.72151 0.44957 0.9341 0.0
C2266 C 0.7188 0.45002 0.91091 0.0
C2267 C 0.74973 0.45112 0.96836 0.0
C2268 C 0.73714 0.43267 0.98203 0.0
C2269 C 0.7658 0.47065 0.97818 0.0
C2270 C 0.77824 0.49179 0.96487 0.0
C2271 C 0.76296 0.5081 0.95115 0.0
C2272 C 0.77483 0.52784 0.93852 0.0
C2273 C 0.80195 0.53159 0.93959 0.0
C2274 C 0.81725 0.51566 0.95336 0.0
C2275 C 0.80548 0.49587 0.96601 0.0
H2276 H 0.81111 0.54688 0.9298 0.0
H2277 H 0.69098 0.36171 0.05609 0.0
H2278 H 0.06635 0.70628 0.40569 0.0
H2279 H 0.07154 0.7117 0.44598 0.0
H2280 H 1.00064 0.75796 0.44796 0.0
H2281 H 0.99622 0.75366 0.40775 0.0
H2282 H 0.03443 0.78068 0.47212 0.0
H2283 H 0.00486 0.69108 0.46585 0.0
H2284 H 0.00648 0.64531 0.45262 0.0
H2285 H 0.08248 0.63564 0.48228 0.0
H2286 H 0.08143 0.68147 0.49546 0.0
H2287 H 0.00998 0.72578 0.59082 0.0
H2288 H 0.01097 0.72139 0.55055 0.0
H2289 H 0.07131 0.78065 0.54676 0.0
H2290 H 0.06981 0.78571 0.58734 0.0
H2291 H 0.04673 0.70555 0.52346 0.0
H2292 H 0.06627 0.81261 0.49686 0.0
H2293 H 0.05842 0.85763 0.51041 0.0
H2294 H 0.99129 0.83093 0.54715 0.0
H2295 H 0.99855 0.78586 0.5336 0.0
C2296 C 0.05179 0.71736 0.41484 0.0
C2297 C 0.03084 0.72948 0.40369 0.0
C2298 C 0.05474 0.72046 0.43784 0.0
C2299 C 0.03638 0.73512 0.45011 0.0
C2300 C 0.0152 0.74676 0.43892 0.0
C2301 C 0.01258 0.74414 0.41595 0.0
C2302 C 0.03908 0.73871 0.47456 0.0
C2303 C 0.0372 0.76421 0.48332 0.0
C2304 C 0.04255 0.71732 0.48928 0.0
C2305 C 0.04319 0.68976 0.48142 0.0
C2306 C 0.02199 0.67923 0.46941 0.0
C2307 C 0.02279 0.65328 0.46194 0.0
C2308 C 0.0446 0.6376 0.46655 0.0
C2309 C 0.06562 0.64782 0.47869 0.0
C2310 C 0.06493 0.67377 0.48618 0.0
C2311 C 0.0234 0.738 0.58144 0.0
C2312 C 0.03978 0.75616 0.59223 0.0
C2313 C 0.02404 0.73536 0.5584 0.0
C2314 C 0.04118 0.75067 0.54556 0.0
C2315 C 0.05766 0.76884 0.55628 0.0
C2316 C 0.05681 0.77174 0.57944 0.0
C2317 C 0.04144 0.7474 0.52101 0.0
C2318 C 0.04415 0.72201 0.51223 0.0
C2319 C 0.03783 0.76878 0.50632 0.0
C2320 C 0.03317 0.79583 0.51444 0.0
C2321 C 0.04981 0.81638 0.5078 0.0
C2322 C 0.04546 0.8419 0.51548 0.0
C2323 C 0.02444 0.84712 0.52971 0.0
C2324 C 0.00764 0.82685 0.53621 0.0
C2325 C 0.01188 0.80131 0.52856 0.0
H2326 H 0.02111 0.86688 0.53564 0.0
H2327 H 0.04519 0.61751 0.46075 0.0
H2328 H 0.21958 0.92159 0.08951 0.0
H2329 H 0.22447 0.91617 0.04896 0.0
H2330 H 0.23481 0.99973 0.04188 0.0
H2331 H 0.23095 0.00505 0.08219 0.0
H2332 H 0.19882 0.97091 0.00893 0.0
H2333 H 0.28645 0.97084 0.04436 0.0
H2334 H 0.31825 0.95217 0.07092 0.0
H2335 H 0.31098 0.87682 0.03962 0.0
H2336 H 0.2788 0.89502 0.01307 0.0
H2337 H 0.25592 0.01159 0.91175 0.0
H2338 H 0.24758 0.00373 0.95113 0.0
H2339 H 0.27171 0.92308 0.94345 0.0
H2340 H 0.28131 0.93137 0.90397 0.0
H2341 H 0.28596 0.93998 0.98302 0.0
H2342 H 0.20621 0.93968 0.94328 0.0
H2343 H 0.17269 0.95496 0.91673 0.0
H2344 H 0.16126 0.0248 0.9554 0.0
H2345 H 0.19502 0.01015 0.98202 0.0
C2346 C 0.22229 0.93876 0.07914 0.0
C2347 C 0.2248 0.96374 0.08875 0.0
C2348 C 0.22521 0.93565 0.05611 0.0
C2349 C 0.23003 0.95758 0.04257 0.0
C2350 C 0.23102 0.98263 0.0521 0.0
C2351 C 0.22882 0.98564 0.07505 0.0
C2352 C 0.23601 0.95474 0.01866 0.0
C2353 C 0.21781 0.96413 0.00317 0.0
C2354 C 0.26041 0.94493 0.01124 0.0
C2355 C 0.28002 0.93419 0.02695 0.0
C2356 C 0.29147 0.95024 0.04328 0.0
C2357 C 0.30959 0.93976 0.0583 0.0
C2358 C 0.31656 0.9133 0.05701 0.0
C2359 C 0.30551 0.89729 0.04063 0.0
C2360 C 0.28735 0.90768 0.02559 0.0
C2361 C 0.26 0.99235 0.9186 0.0
C2362 C 0.26917 0.97206 0.90493 0.0
C2363 C 0.25498 0.98778 0.94103 0.0
C2364 C 0.25814 0.96257 0.95009 0.0
C2365 C 0.26886 0.94261 0.93677 0.0
C2366 C 0.27447 0.94737 0.9143 0.0
C2367 C 0.24913 0.95723 0.97316 0.0
C2368 C 0.26671 0.94626 0.98854 0.0
C2369 C 0.22382 0.965 0.98043 0.0
C2370 C 0.20327 0.97385 0.9646 0.0
C2371 C 0.19666 0.95837 0.94606 0.0
C2372 C 0.17761 0.96692 0.931 0.0
C2373 C 0.16487 0.99085 0.93436 0.0
C2374 C 0.17114 0.00626 0.95282 0.0
C2375 C 0.19021 0.99783 0.96792 0.0
H2376 H 0.15013 0.99744 0.92268 0.0
H2377 H 0.33059 0.90521 0.06865 0.0
H2378 H 0.55197 0.20911 0.59587 0.0
H2379 H 0.55612 0.21466 0.5555 0.0
H2380 H 0.54567 0.29822 0.56291 0.0
H2381 H 0.54067 0.2927 0.60288 0.0
H2382 H 0.51679 0.28237 0.5307 0.0
H2383 H 0.60648 0.26958 0.55073 0.0
H2384 H 0.64418 0.24735 0.56816 0.0
H2385 H 0.63101 0.17954 0.52732 0.0
H2386 H 0.59296 0.20122 0.50987 0.0
H2387 H 0.55032 0.31096 0.41729 0.0
H2388 H 0.55448 0.30965 0.45806 0.0
H2389 H 0.54961 0.22521 0.45656 0.0
H2390 H 0.54517 0.22634 0.41623 0.0
H2391 H 0.58882 0.24443 0.48557 0.0
H2392 H 0.49677 0.2575 0.46809 0.0
H2393 H 0.45973 0.2809 0.45072 0.0
H2394 H 0.47936 0.35056 0.48724 0.0
H2395 H 0.51678 0.32764 0.5046 0.0
C2396 C 0.55071 0.22863 0.58885 0.0
C2397 C 0.54587 0.25043 0.60252 0.0
C2398 C 0.55321 0.23183 0.5658 0.0
C2399 C 0.55143 0.25693 0.55613 0.0
C2400 C 0.54702 0.27867 0.5699 0.0
C2401 C 0.54419 0.27546 0.5928 0.0
C2402 C 0.55305 0.26059 0.53164 0.0
C2403 C 0.53283 0.27444 0.52094 0.0
C2404 C 0.57376 0.25002 0.51876 0.0
C2405 C 0.59671 0.23695 0.52914 0.0
C2406 C 0.6115 0.24985 0.54558 0.0
C2407 C 0.63295 0.23736 0.55545 0.0
C2408 C 0.63995 0.21202 0.54889 0.0
C2409 C 0.62554 0.19915 0.53241 0.0
C2410 C 0.60404 0.21154 0.52251 0.0
C2411 C 0.55033 0.29217 0.4257 0.0
C2412 C 0.54715 0.2688 0.41363 0.0
C2413 C 0.5527 0.29144 0.44892 0.0
C2414 C 0.55227 0.26731 0.46026 0.0
C2415 C 0.55004 0.24399 0.44812 0.0
C2416 C 0.54731 0.24473 0.42507 0.0
C2417 C 0.5526 0.2661 0.48487 0.0
C2418 C 0.57306 0.25262 0.4955 0.0
C2419 C 0.5323 0.27724 0.49775 0.0
C2420 C 0.50974 0.29096 0.48742 0.0
C2421 C 0.49332 0.27787 0.47226 0.0
C2422 C 0.47224 0.29103 0.46245 0.0
C2423 C 0.46724 0.31723 0.46782 0.0
C2424 C 0.48328 0.33029 0.48307 0.0
C2425 C 0.50442 0.31722 0.4929 0.0
H2426 H 0.4509 0.32738 0.46021 0.0
H2427 H 0.65657 0.20238 0.55655 0.0
H2428 H 0.30065 0.5667 0.09264 0.0
H2429 H 0.29602 0.57397 0.0524 0.0
H2430 H 0.24204 0.5089 0.04856 0.0
H2431 H 0.24598 0.50212 0.08847 0.0
H2432 H 0.30536 0.54693 0.01624 0.0
H2433 H 0.19394 0.51967 0.0129 0.0
H2434 H 0.15491 0.52365 0.03688 0.0
H2435 H 0.19059 0.58805 0.07155 0.0
H2436 H 0.22966 0.58474 0.04757 0.0
H2437 H 0.27219 0.50571 0.90988 0.0
H2438 H 0.27765 0.51071 0.94988 0.0
H2439 H 0.22544 0.57734 0.94916 0.0
H2440 H 0.21908 0.57169 0.90896 0.0
H2441 H 0.21577 0.55007 0.98403 0.0
H2442 H 0.29363 0.58472 0.95362 0.0
H2443 H 0.33289 0.58671 0.92975 0.0
H2444 H 0.36468 0.51907 0.96269 0.0
H2445 H 0.32543 0.51642 0.98655 0.0
C2446 C 0.288 0.55386 0.08311 0.0
C2447 C 0.27349 0.534 0.09369 0.0
C2448 C 0.2853 0.55806 0.06016 0.0
C2449 C 0.26815 0.5424 0.04754 0.0
C2450 C 0.25475 0.52177 0.05801 0.0
C2451 C 0.25717 0.51779 0.08084 0.0
C2452 C 0.264 0.54729 0.02342 0.0
C2453 C 0.28579 0.54778 0.0092 0.0
C2454 C 0.23848 0.54944 0.01423 0.0
C2455 C 0.21482 0.55182 0.02851 0.0
C2456 C 0.1934 0.53479 0.02554 0.0
C2457 C 0.17128 0.53691 0.03916 0.0
C2458 C 0.17029 0.55605 0.05576 0.0
C2459 C 0.1914 0.57318 0.05873 0.0
C2460 C 0.21355 0.57117 0.04514 0.0
C2461 C 0.26175 0.52137 0.91824 0.0
C2462 C 0.24529 0.53839 0.90631 0.0
C2463 C 0.26508 0.52436 0.94111 0.0
C2464 C 0.25256 0.54486 0.95251 0.0
C2465 C 0.23548 0.5615 0.94072 0.0
C2466 C 0.2318 0.55823 0.91779 0.0
C2467 C 0.25709 0.54837 0.97677 0.0
C2468 C 0.23536 0.54955 0.99104 0.0
C2469 C 0.2827 0.54872 0.986 0.0
C2470 C 0.30649 0.5503 0.9718 0.0
C2471 C 0.30892 0.57017 0.95569 0.0
C2472 C 0.33119 0.57143 0.94217 0.0
C2473 C 0.35125 0.55301 0.94469 0.0
C2474 C 0.34912 0.53333 0.96077 0.0
C2475 C 0.32688 0.53196 0.97432 0.0
H2476 H 0.36847 0.55401 0.93419 0.0
H2477 H 0.15316 0.55764 0.0663 0.0
H2478 H 1.00108 0.26929 0.41304 0.0
H2479 H 0.99522 0.2729 0.45303 0.0
H2480 H 0.93447 0.21399 0.45074 0.0
H2481 H 0.94059 0.20995 0.41033 0.0
H2482 H 0.95466 0.28838 0.47677 0.0
H2483 H 0.93568 0.18113 0.50132 0.0
H2484 H 0.94524 0.13635 0.48799 0.0
H2485 H 0.01516 0.16418 0.45589 0.0
H2486 H 0.00618 0.20902 0.46926 0.0
H2487 H 0.93366 0.2866 0.5952 0.0
H2488 H 0.92771 0.28092 0.55493 0.0
H2489 H 1.00047 0.23775 0.55175 0.0
H2490 H 0.00577 0.24241 0.59178 0.0
H2491 H 0.96643 0.21336 0.52831 0.0
H2492 H 0.99307 0.30471 0.53484 0.0
H2493 H 0.98874 0.35028 0.54816 0.0
H2494 H 0.91266 0.35579 0.51788 0.0
H2495 H 0.91645 0.31014 0.50459 0.0
C2496 C 0.98653 0.25696 0.42099 0.0
C2497 C 0.97132 0.23929 0.40852 0.0
C2498 C 0.98309 0.25918 0.44387 0.0
C2499 C 0.96434 0.24384 0.4549 0.0
C2500 C 0.94919 0.22593 0.44258 0.0
C2501 C 0.95274 0.22357 0.41954 0.0
C2502 C 0.96125 0.24673 0.47932 0.0
C2503 C 0.95701 0.27193 0.48805 0.0
C2504 C 0.96435 0.22533 0.49406 0.0
C2505 C 0.97004 0.19845 0.48604 0.0
C2506 C 0.9531 0.17766 0.49144 0.0
C2507 C 0.95842 0.15227 0.48388 0.0
C2508 C 0.98073 0.14744 0.47102 0.0
C2509 C 0.99782 0.16797 0.46577 0.0
C2510 C 0.99261 0.19337 0.4733 0.0
C2511 C 0.94843 0.27615 0.58577 0.0
C2512 C 0.9702 0.26499 0.59652 0.0
C2513 C 0.94502 0.27286 0.5628 0.0
C2514 C 0.96368 0.25892 0.55023 0.0
C2515 C 0.98564 0.24831 0.56104 0.0
C2516 C 0.98876 0.25115 0.58392 0.0
C2517 C 0.96082 0.25521 0.52582 0.0
C2518 C 0.96364 0.22979 0.51707 0.0
C2519 C 0.95713 0.27652 0.51105 0.0
C2520 C 0.95491 0.30396 0.51896 0.0
C2521 C 0.97535 0.3156 0.53116 0.0
C2522 C 0.97301 0.34144 0.53868 0.0
C2523 C 0.9504 0.35589 0.53393 0.0
C2524 C 0.93013 0.34456 0.52158 0.0
C2525 C 0.93237 0.31871 0.51405 0.0
H2526 H 0.94862 0.37589 0.53977 0.0
H2527 H 0.98481 0.12779 0.46518 0.0
loop_
_geom_bond_atom_site_label_1
_geom_bond_atom_site_label_2
_geom_bond_distance
_geom_bond_site_symmetry_2
_ccdc_geom_bond_type
C0 C1 1.351 . S
C0 N3 1.368 1_565 S
C0 H5 0.931 . S
C1 C0 1.351 . S
C1 N2 1.373 . S
C1 H29 0.930 . S
N2 C1 1.373 . S
N2 C4 1.295 1_565 S
N3 C0 1.368 1_545 S
N3 C4 1.340 . S
N3 Co6 2.135 . S
C4 N2 1.295 1_545 S
C4 N3 1.340 . S
C4 H28 0.954 . S
H5 C0 0.931 . S
Co6 N3 2.135 . S
Co6 N9 2.121 . S
Co6 O14 2.055 . S
Co6 O17 2.039 . S
Co6 N20 2.140 . S
C7 O8 1.227 . S
C7 O17 1.265 . S
O8 C7 1.227 . S
N9 Co6 2.121 . S
N9 C11 1.375 . S
N9 C12 1.313 . S
C10 C11 1.338 . S
C10 N13 1.377 . S
C10 H30 0.930 . S
C11 N9 1.375 . S
C11 C10 1.338 . S
C11 H15 0.931 . S
C12 N9 1.313 . S
C12 N13 1.344 . S
C12 H16 0.930 . S
N13 C10 1.377 . S
N13 C12 1.344 . S
O14 Co6 2.055 . S
O14 C18 1.253 . S
H15 C11 0.931 . S
H16 C12 0.930 . S
O17 Co6 2.039 . S
O17 C7 1.265 . S
C18 O14 1.253 . S
C18 O19 1.227 . S
O19 C18 1.227 . S
N20 Co6 2.140 . S
N20 C23 1.346 . S
N20 C24 1.345 . S
C21 C22 1.387 . S
C21 C25 1.391 . S
C22 C21 1.387 . S
C22 C23 1.369 . S
C22 H31 0.929 . S
C23 N20 1.346 . S
C23 C22 1.369 . S
C23 H26 0.928 . S
C24 N20 1.345 . S
C24 C25 1.371 . S
C24 H27 0.931 . S
C25 C21 1.391 . S
C25 C24 1.371 . S
C25 H32 0.930 . S
H26 C23 0.928 . S
H27 C24 0.931 . S
H28 C4 0.954 . S
H29 C1 0.930 . S
H30 C10 0.930 . S
H31 C22 0.929 . S
H32 C25 0.930 . S
C33 C34 1.351 . S
C33 N36 1.368 . S
C33 H38 0.931 . S
C34 C33 1.351 . S
C34 N35 1.373 . S
C34 H62 0.930 . S
N35 C34 1.373 . S
N35 C37 1.340 . S
N36 C33 1.368 . S
N36 C37 1.321 . S
N36 Co39 2.135 . S
C37 N35 1.340 . S
C37 N36 1.321 . S
C37 H61 0.930 . S
H38 C33 0.931 . S
Co39 N36 2.135 . S
Co39 N42 2.121 . S
Co39 O47 2.055 . S
Co39 O50 2.039 . S
Co39 N53 2.140 . S
C40 O41 1.227 . S
C40 O50 1.265 . S
O41 C40 1.227 . S
N42 Co39 2.121 . S
N42 C44 1.375 . S
N42 C45 1.313 . S
C43 C44 1.338 . S
C43 N46 1.377 . S
C43 H63 0.930 . S
C44 N42 1.375 . S
C44 C43 1.338 . S
C44 H48 0.931 . S
C45 N42 1.313 . S
C45 N46 1.344 . S
C45 H49 0.930 . S
N46 C43 1.377 . S
N46 C45 1.344 . S
O47 Co39 2.055 . S
O47 C51 1.253 . S
H48 C44 0.931 . S
H49 C45 0.930 . S
O50 Co39 2.039 . S
O50 C40 1.265 . S
C51 O47 1.253 . S
C51 O52 1.227 . S
O52 C51 1.227 . S
N53 Co39 2.140 . S
N53 C56 1.346 . S
N53 C57 1.345 . S
C54 C55 1.387 . S
C54 C58 1.391 . S
C55 C54 1.387 . S
C55 C56 1.369 . S
C55 H64 0.929 . S
C56 N53 1.346 . S
C56 C55 1.369 . S
C56 H59 0.928 . S
C57 N53 1.345 . S
C57 C58 1.371 . S
C57 H60 0.931 . S
C58 C54 1.391 . S
C58 C57 1.371 . S
C58 H65 0.930 . S
H59 C56 0.928 . S
H60 C57 0.931 . S
H61 C37 0.930 . S
H62 C34 0.930 . S
H63 C43 0.930 . S
H64 C55 0.929 . S
H65 C58 0.930 . S
C66 C67 1.351 . S
C66 N69 1.368 . S
C66 H71 0.931 . S
C67 C66 1.351 . S
C67 N68 1.373 . S
C67 H95 0.930 . S
N68 C67 1.373 . S
N68 C70 1.340 . S
N69 C66 1.368 . S
N69 C70 1.321 . S
N69 Co72 2.135 . S
C70 N68 1.340 . S
C70 N69 1.321 . S
C70 H94 0.930 . S
H71 C66 0.931 . S
Co72 N69 2.135 . S
Co72 N75 2.121 . S
Co72 O80 2.055 . S
Co72 O83 2.039 . S
Co72 N86 2.140 . S
C73 O74 1.227 . S
C73 O83 1.265 . S
O74 C73 1.227 . S
N75 Co72 2.121 . S
N75 C77 1.375 . S
N75 C78 1.313 . S
C76 C77 1.338 . S
C76 N79 1.377 . S
C76 H96 0.930 . S
C77 N75 1.375 . S
C77 C76 1.338 . S
C77 H81 0.931 . S
C78 N75 1.313 . S
C78 N79 1.344 . S
C78 H82 0.930 . S
N79 C76 1.377 . S
N79 C78 1.344 . S
O80 Co72 2.055 . S
O80 C84 1.253 . S
H81 C77 0.931 . S
H82 C78 0.930 . S
O83 Co72 2.039 . S
O83 C73 1.265 . S
C84 O80 1.253 . S
C84 O85 1.227 . S
O85 C84 1.227 . S
N86 Co72 2.140 . S
N86 C89 1.346 . S
N86 C90 1.345 . S
C87 C88 1.387 . S
C87 C91 1.391 . S
C88 C87 1.387 . S
C88 C89 1.369 . S
C88 H97 0.929 . S
C89 N86 1.346 . S
C89 C88 1.369 . S
C89 H92 0.928 . S
C90 N86 1.345 . S
C90 C91 1.371 . S
C90 H93 0.931 . S
C91 C87 1.391 . S
C91 C90 1.371 . S
C91 H98 0.930 . S
H92 C89 0.928 . S
H93 C90 0.931 . S
H94 C70 0.930 . S
H95 C67 0.930 . S
H96 C76 0.930 . S
H97 C88 0.929 . S
H98 C91 0.930 . S
C99 C100 1.351 . S
C99 N102 1.368 1_655 S
C99 H104 0.931 . S
C100 C99 1.351 . S
C100 N101 1.373 . S
C100 H128 0.930 . S
N101 C100 1.373 . S
N101 C103 1.295 1_655 S
N102 C99 1.368 1_455 S
N102 C103 1.340 . S
N102 Co105 2.135 . S
C103 N101 1.295 1_455 S
C103 N102 1.340 . S
C103 H127 0.955 . S
H104 C99 0.931 . S
Co105 N102 2.135 . S
Co105 N108 2.121 . S
Co105 O113 2.055 . S
Co105 O116 2.039 . S
Co105 N119 2.140 . S
C106 O107 1.227 . S
C106 O116 1.265 . S
O107 C106 1.227 . S
N108 Co105 2.121 . S
N108 C110 1.375 . S
N108 C111 1.313 . S
C109 C110 1.338 . S
C109 N112 1.377 . S
C109 H129 0.930 . S
C110 N108 1.375 . S
C110 C109 1.338 . S
C110 H114 0.931 . S
C111 N108 1.313 . S
C111 N112 1.344 . S
C111 H115 0.930 . S
N112 C109 1.377 . S
N112 C111 1.344 . S
O113 Co105 2.055 . S
O113 C117 1.253 . S
H114 C110 0.931 . S
H115 C111 0.930 . S
O116 Co105 2.039 . S
O116 C106 1.265 . S
C117 O113 1.253 . S
C117 O118 1.227 . S
O118 C117 1.227 . S
N119 Co105 2.140 . S
N119 C122 1.346 . S
N119 C123 1.345 . S
C120 C121 1.387 . S
C120 C124 1.391 . S
C121 C120 1.387 . S
C121 C122 1.369 . S
C121 H130 0.929 . S
C122 N119 1.346 . S
C122 C121 1.369 . S
C122 H125 0.928 . S
C123 N119 1.345 . S
C123 C124 1.371 . S
C123 H126 0.931 . S
C124 C120 1.391 . S
C124 C123 1.371 . S
C124 H131 0.930 . S
H125 C122 0.928 . S
H126 C123 0.931 . S
H127 C103 0.955 . S
H128 C100 0.930 . S
H129 C109 0.930 . S
H130 C121 0.929 . S
H131 C124 0.930 . S
C132 C133 1.351 . S
C132 N135 1.368 . S
C132 H137 0.931 . S
C133 C132 1.351 . S
C133 N134 1.373 . S
C133 H161 0.930 . S
N134 C133 1.373 . S
N134 C136 1.340 . S
N135 C132 1.368 . S
N135 C136 1.321 . S
N135 Co138 2.135 . S
C136 N134 1.340 . S
C136 N135 1.321 . S
C136 H160 0.930 . S
H137 C132 0.931 . S
Co138 N135 2.135 . S
Co138 N141 2.121 . S
Co138 O146 2.055 . S
Co138 O149 2.039 . S
Co138 N152 2.140 . S
C139 O140 1.227 . S
C139 O149 1.265 . S
O140 C139 1.227 . S
N141 Co138 2.121 . S
N141 C143 1.375 . S
N141 C144 1.313 . S
C142 C143 1.338 . S
C142 N145 1.377 . S
C142 H162 0.930 . S
C143 N141 1.375 . S
C143 C142 1.338 . S
C143 H147 0.931 . S
C144 N141 1.313 . S
C144 N145 1.344 . S
C144 H148 0.930 . S
N145 C142 1.377 . S
N145 C144 1.344 . S
O146 Co138 2.055 . S
O146 C150 1.253 . S
H147 C143 0.931 . S
H148 C144 0.930 . S
O149 Co138 2.039 . S
O149 C139 1.265 . S
C150 O146 1.253 . S
C150 O151 1.227 . S
O151 C150 1.227 . S
N152 Co138 2.140 . S
N152 C155 1.346 . S
N152 C156 1.345 . S
C153 C154 1.387 . S
C153 C157 1.391 . S
C154 C153 1.387 . S
C154 C155 1.369 . S
C154 H163 0.929 . S
C155 N152 1.346 . S
C155 C154 1.369 . S
C155 H158 0.928 . S
C156 N152 1.345 . S
C156 C157 1.371 . S
C156 H159 0.931 . S
C157 C153 1.391 . S
C157 C156 1.371 . S
C157 H164 0.930 . S
H158 C155 0.928 . S
H159 C156 0.931 . S
H160 C136 0.930 . S
H161 C133 0.930 . S
H162 C142 0.930 . S
H163 C154 0.929 . S
H164 C157 0.930 . S
C165 C166 1.351 . S
C165 N168 1.368 1_655 S
C165 H170 0.931 . S
C166 C165 1.351 . S
C166 N167 1.373 . S
C166 H194 0.930 . S
N167 C166 1.373 . S
N167 C169 1.295 1_655 S
N168 C165 1.368 1_455 S
N168 C169 1.340 . S
N168 Co171 2.135 . S
C169 N167 1.295 1_455 S
C169 N168 1.340 . S
C169 H193 0.954 . S
H170 C165 0.931 . S
Co171 N168 2.135 . S
Co171 N174 2.121 . S
Co171 O179 2.055 . S
Co171 O182 2.039 . S
Co171 N185 2.140 . S
C172 O173 1.227 . S
C172 O182 1.265 . S
O173 C172 1.227 . S
N174 Co171 2.121 . S
N174 C176 1.375 . S
N174 C177 1.313 . S
C175 C176 1.338 . S
C175 N178 1.377 . S
C175 H195 0.930 . S
C176 N174 1.375 . S
C176 C175 1.338 . S
C176 H180 0.931 . S
C177 N174 1.313 . S
C177 N178 1.344 . S
C177 H181 0.930 . S
N178 C175 1.377 . S
N178 C177 1.344 . S
O179 Co171 2.055 . S
O179 C183 1.253 . S
H180 C176 0.931 . S
H181 C177 0.930 . S
O182 Co171 2.039 . S
O182 C172 1.265 . S
C183 O179 1.253 . S
C183 O184 1.227 . S
O184 C183 1.227 . S
N185 Co171 2.140 . S
N185 C188 1.346 . S
N185 C189 1.345 . S
C186 C187 1.387 . S
C186 C190 1.391 . S
C187 C186 1.387 . S
C187 C188 1.369 . S
C187 H196 0.929 . S
C188 N185 1.346 . S
C188 C187 1.369 . S
C188 H191 0.928 . S
C189 N185 1.345 . S
C189 C190 1.371 . S
C189 H192 0.931 . S
C190 C186 1.391 . S
C190 C189 1.371 . S
C190 H197 0.930 . S
H191 C188 0.928 . S
H192 C189 0.931 . S
H193 C169 0.954 . S
H194 C166 0.930 . S
H195 C175 0.930 . S
H196 C187 0.929 . S
H197 C190 0.930 . S
C198 C199 1.351 . S
C198 N201 1.368 1_565 S
C198 H203 0.931 . S
C199 C198 1.351 . S
C199 N200 1.373 . S
C199 H227 0.930 . S
N200 C199 1.373 . S
N200 C202 1.295 1_565 S
N201 C198 1.368 1_545 S
N201 C202 1.340 . S
N201 Co204 2.135 . S
C202 N200 1.295 1_545 S
C202 N201 1.340 . S
C202 H226 0.955 . S
H203 C198 0.931 . S
Co204 N201 2.135 . S
Co204 N207 2.121 . S
Co204 O212 2.055 . S
Co204 O215 2.039 . S
Co204 N218 2.140 . S
C205 O206 1.227 . S
C205 O215 1.265 . S
O206 C205 1.227 . S
N207 Co204 2.121 . S
N207 C209 1.375 . S
N207 C210 1.313 . S
C208 C209 1.338 . S
C208 N211 1.377 . S
C208 H228 0.930 . S
C209 N207 1.375 . S
C209 C208 1.338 . S
C209 H213 0.931 . S
C210 N207 1.313 . S
C210 N211 1.344 . S
C210 H214 0.930 . S
N211 C208 1.377 . S
N211 C210 1.344 . S
O212 Co204 2.055 . S
O212 C216 1.253 . S
H213 C209 0.931 . S
H214 C210 0.930 . S
O215 Co204 2.039 . S
O215 C205 1.265 . S
C216 O212 1.253 . S
C216 O217 1.227 . S
O217 C216 1.227 . S
N218 Co204 2.140 . S
N218 C221 1.346 . S
N218 C222 1.345 . S
C219 C220 1.387 . S
C219 C223 1.391 . S
C220 C219 1.387 . S
C220 C221 1.369 . S
C220 H229 0.929 . S
C221 N218 1.346 . S
C221 C220 1.369 . S
C221 H224 0.928 . S
C222 N218 1.345 . S
C222 C223 1.371 . S
C222 H225 0.931 . S
C223 C219 1.391 . S
C223 C222 1.371 . S
C223 H230 0.930 . S
H224 C221 0.928 . S
H225 C222 0.931 . S
H226 C202 0.955 . S
H227 C199 0.930 . S
H228 C208 0.930 . S
H229 C220 0.929 . S
H230 C223 0.930 . S
C231 C232 1.351 . S
C231 N234 1.368 . S
C231 H236 0.931 . S
C232 C231 1.351 . S
C232 N233 1.373 . S
C232 H260 0.930 . S
N233 C232 1.373 . S
N233 C235 1.340 . S
N234 C231 1.368 . S
N234 C235 1.321 . S
N234 Co237 2.135 . S
C235 N233 1.340 . S
C235 N234 1.321 . S
C235 H259 0.930 . S
H236 C231 0.931 . S
Co237 N234 2.135 . S
Co237 N240 2.121 . S
Co237 O245 2.055 . S
Co237 O248 2.039 . S
Co237 N251 2.140 . S
C238 O239 1.227 . S
C238 O248 1.265 . S
O239 C238 1.227 . S
N240 Co237 2.121 . S
N240 C242 1.375 . S
N240 C243 1.313 . S
C241 C242 1.338 . S
C241 N244 1.377 . S
C241 H261 0.930 . S
C242 N240 1.375 . S
C242 C241 1.338 . S
C242 H246 0.931 . S
C243 N240 1.313 . S
C243 N244 1.344 . S
C243 H247 0.930 . S
N244 C241 1.377 . S
N244 C243 1.344 . S
O245 Co237 2.055 . S
O245 C249 1.253 . S
H246 C242 0.931 . S
H247 C243 0.930 . S
O248 Co237 2.039 . S
O248 C238 1.265 . S
C249 O245 1.253 . S
C249 O250 1.227 . S
O250 C249 1.227 . S
N251 Co237 2.140 . S
N251 C254 1.346 . S
N251 C255 1.345 . S
C252 C253 1.387 . S
C252 C256 1.391 . S
C253 C252 1.387 . S
C253 C254 1.369 . S
C253 H262 0.929 . S
C254 N251 1.346 . S
C254 C253 1.369 . S
C254 H257 0.928 . S
C255 N251 1.345 . S
C255 C256 1.371 . S
C255 H258 0.931 . S
C256 C252 1.391 . S
C256 C255 1.371 . S
C256 H263 0.930 . S
H257 C254 0.928 . S
H258 C255 0.931 . S
H259 C235 0.930 . S
H260 C232 0.930 . S
H261 C241 0.930 . S
H262 C253 0.929 . S
H263 C256 0.930 . S
C264 C265 1.351 . S
C264 N267 1.368 1_545 S
C264 H269 0.931 . S
C265 C264 1.351 . S
C265 N266 1.373 . S
C265 H293 0.930 . S
N266 C265 1.373 . S
N266 C268 1.295 1_545 S
N267 C264 1.368 1_565 S
N267 C268 1.340 . S
N267 Co270 2.135 . S
C268 N266 1.295 1_565 S
C268 N267 1.340 . S
C268 H292 0.954 . S
H269 C264 0.931 . S
Co270 N267 2.135 . S
Co270 N273 2.121 . S
Co270 O278 2.055 . S
Co270 O281 2.039 . S
Co270 N284 2.140 . S
C271 O272 1.227 . S
C271 O281 1.265 . S
O272 C271 1.227 . S
N273 Co270 2.121 . S
N273 C275 1.375 . S
N273 C276 1.313 . S
C274 C275 1.338 . S
C274 N277 1.377 . S
C274 H294 0.930 . S
C275 N273 1.375 . S
C275 C274 1.338 . S
C275 H279 0.931 . S
C276 N273 1.313 . S
C276 N277 1.344 . S
C276 H280 0.930 . S
N277 C274 1.377 . S
N277 C276 1.344 . S
O278 Co270 2.055 . S
O278 C282 1.253 . S
H279 C275 0.931 . S
H280 C276 0.930 . S
O281 Co270 2.039 . S
O281 C271 1.265 . S
C282 O278 1.253 . S
C282 O283 1.227 . S
O283 C282 1.227 . S
N284 Co270 2.140 . S
N284 C287 1.346 . S
N284 C288 1.345 . S
C285 C286 1.387 . S
C285 C289 1.391 . S
C286 C285 1.387 . S
C286 C287 1.369 . S
C286 H295 0.929 . S
C287 N284 1.346 . S
C287 C286 1.369 . S
C287 H290 0.928 . S
C288 N284 1.345 . S
C288 C289 1.371 . S
C288 H291 0.931 . S
C289 C285 1.391 . S
C289 C288 1.371 . S
C289 H296 0.930 . S
H290 C287 0.928 . S
H291 C288 0.931 . S
H292 C268 0.954 . S
H293 C265 0.930 . S
H294 C274 0.930 . S
H295 C286 0.929 . S
H296 C289 0.930 . S
C297 C298 1.351 . S
C297 N300 1.368 . S
C297 H302 0.931 . S
C298 C297 1.351 . S
C298 N299 1.373 . S
C298 H326 0.930 . S
N299 C298 1.373 . S
N299 C301 1.340 . S
N300 C297 1.368 . S
N300 C301 1.321 . S
N300 Co303 2.135 . S
C301 N299 1.340 . S
C301 N300 1.321 . S
C301 H325 0.930 . S
H302 C297 0.931 . S
Co303 N300 2.135 . S
Co303 N306 2.121 . S
Co303 O311 2.055 . S
Co303 O314 2.039 . S
Co303 N317 2.140 . S
C304 O305 1.227 . S
C304 O314 1.265 . S
O305 C304 1.227 . S
N306 Co303 2.121 . S
N306 C308 1.375 . S
N306 C309 1.313 . S
C307 C308 1.338 . S
C307 N310 1.377 . S
C307 H327 0.930 . S
C308 N306 1.375 . S
C308 C307 1.338 . S
C308 H312 0.931 . S
C309 N306 1.313 . S
C309 N310 1.344 . S
C309 H313 0.930 . S
N310 C307 1.377 . S
N310 C309 1.344 . S
O311 Co303 2.055 . S
O311 C315 1.253 . S
H312 C308 0.931 . S
H313 C309 0.930 . S
O314 Co303 2.039 . S
O314 C304 1.265 . S
C315 O311 1.253 . S
C315 O316 1.227 . S
O316 C315 1.227 . S
N317 Co303 2.140 . S
N317 C320 1.346 . S
N317 C321 1.345 . S
C318 C319 1.387 . S
C318 C322 1.391 . S
C319 C318 1.387 . S
C319 C320 1.369 . S
C319 H328 0.929 . S
C320 N317 1.346 . S
C320 C319 1.369 . S
C320 H323 0.928 . S
C321 N317 1.345 . S
C321 C322 1.371 . S
C321 H324 0.931 . S
C322 C318 1.391 . S
C322 C321 1.371 . S
C322 H329 0.930 . S
H323 C320 0.928 . S
H324 C321 0.931 . S
H325 C301 0.930 . S
H326 C298 0.930 . S
H327 C307 0.930 . S
H328 C319 0.929 . S
H329 C322 0.930 . S
C330 C331 1.351 . S
C330 N333 1.368 . S
C330 H335 0.931 . S
C331 C330 1.351 . S
C331 N332 1.373 . S
C331 H359 0.930 . S
N332 C331 1.373 . S
N332 C334 1.340 . S
N333 C330 1.368 . S
N333 C334 1.321 . S
N333 Co336 2.135 . S
C334 N332 1.340 . S
C334 N333 1.321 . S
C334 H358 0.930 . S
H335 C330 0.931 . S
Co336 N333 2.135 . S
Co336 N339 2.121 . S
Co336 O344 2.055 . S
Co336 O347 2.039 . S
Co336 N350 2.140 . S
C337 O338 1.227 . S
C337 O347 1.265 . S
O338 C337 1.227 . S
N339 Co336 2.121 . S
N339 C341 1.375 . S
N339 C342 1.313 . S
C340 C341 1.338 . S
C340 N343 1.377 . S
C340 H360 0.930 . S
C341 N339 1.375 . S
C341 C340 1.338 . S
C341 H345 0.931 . S
C342 N339 1.313 . S
C342 N343 1.344 . S
C342 H346 0.930 . S
N343 C340 1.377 . S
N343 C342 1.344 . S
O344 Co336 2.055 . S
O344 C348 1.253 . S
H345 C341 0.931 . S
H346 C342 0.930 . S
O347 Co336 2.039 . S
O347 C337 1.265 . S
C348 O344 1.253 . S
C348 O349 1.227 . S
O349 C348 1.227 . S
N350 Co336 2.140 . S
N350 C353 1.346 . S
N350 C354 1.345 . S
C351 C352 1.387 . S
C351 C355 1.391 . S
C352 C351 1.387 . S
C352 C353 1.369 . S
C352 H361 0.929 . S
C353 N350 1.346 . S
C353 C352 1.369 . S
C353 H356 0.928 . S
C354 N350 1.345 . S
C354 C355 1.371 . S
C354 H357 0.931 . S
C355 C351 1.391 . S
C355 C354 1.371 . S
C355 H362 0.930 . S
H356 C353 0.928 . S
H357 C354 0.931 . S
H358 C334 0.930 . S
H359 C331 0.930 . S
H360 C340 0.930 . S
H361 C352 0.929 . S
H362 C355 0.930 . S
C363 C364 1.351 . S
C363 N366 1.368 1_455 S
C363 H368 0.931 . S
C364 C363 1.351 . S
C364 N365 1.373 . S
C364 H392 0.930 . S
N365 C364 1.373 . S
N365 C367 1.295 1_455 S
N366 C363 1.368 1_655 S
N366 C367 1.340 . S
N366 Co369 2.135 . S
C367 N365 1.295 1_655 S
C367 N366 1.340 . S
C367 H391 0.955 . S
H368 C363 0.931 . S
Co369 N366 2.135 . S
Co369 N372 2.121 . S
Co369 O377 2.055 . S
Co369 O380 2.039 . S
Co369 N383 2.140 . S
C370 O371 1.227 . S
C370 O380 1.265 . S
O371 C370 1.227 . S
N372 Co369 2.121 . S
N372 C374 1.375 . S
N372 C375 1.313 . S
C373 C374 1.338 . S
C373 N376 1.377 . S
C373 H393 0.930 . S
C374 N372 1.375 . S
C374 C373 1.338 . S
C374 H378 0.931 . S
C375 N372 1.313 . S
C375 N376 1.344 . S
C375 H379 0.930 . S
N376 C373 1.377 . S
N376 C375 1.344 . S
O377 Co369 2.055 . S
O377 C381 1.253 . S
H378 C374 0.931 . S
H379 C375 0.930 . S
O380 Co369 2.039 . S
O380 C370 1.265 . S
C381 O377 1.253 . S
C381 O382 1.227 . S
O382 C381 1.227 . S
N383 Co369 2.140 . S
N383 C386 1.346 . S
N383 C387 1.345 . S
C384 C385 1.387 . S
C384 C388 1.391 . S
C385 C384 1.387 . S
C385 C386 1.369 . S
C385 H394 0.929 . S
C386 N383 1.346 . S
C386 C385 1.369 . S
C386 H389 0.928 . S
C387 N383 1.345 . S
C387 C388 1.371 . S
C387 H390 0.931 . S
C388 C384 1.391 . S
C388 C387 1.371 . S
C388 H395 0.930 . S
H389 C386 0.928 . S
H390 C387 0.931 . S
H391 C367 0.955 . S
H392 C364 0.930 . S
H393 C373 0.930 . S
H394 C385 0.929 . S
H395 C388 0.930 . S
C396 C397 1.351 . S
C396 N399 1.368 . S
C396 H401 0.931 . S
C397 C396 1.351 . S
C397 N398 1.373 . S
C397 H425 0.930 . S
N398 C397 1.373 . S
N398 C400 1.340 . S
N399 C396 1.368 . S
N399 C400 1.321 . S
N399 Co402 2.135 . S
C400 N398 1.340 . S
C400 N399 1.321 . S
C400 H424 0.930 . S
H401 C396 0.931 . S
Co402 N399 2.135 . S
Co402 N405 2.121 . S
Co402 O410 2.055 . S
Co402 O413 2.039 . S
Co402 N416 2.140 . S
C403 O404 1.227 . S
C403 O413 1.265 . S
O404 C403 1.227 . S
N405 Co402 2.121 . S
N405 C407 1.375 . S
N405 C408 1.313 . S
C406 C407 1.338 . S
C406 N409 1.377 . S
C406 H426 0.930 . S
C407 N405 1.375 . S
C407 C406 1.338 . S
C407 H411 0.931 . S
C408 N405 1.313 . S
C408 N409 1.344 . S
C408 H412 0.930 . S
N409 C406 1.377 . S
N409 C408 1.344 . S
O410 Co402 2.055 . S
O410 C414 1.253 . S
H411 C407 0.931 . S
H412 C408 0.930 . S
O413 Co402 2.039 . S
O413 C403 1.265 . S
C414 O410 1.253 . S
C414 O415 1.227 . S
O415 C414 1.227 . S
N416 Co402 2.140 . S
N416 C419 1.346 . S
N416 C420 1.345 . S
C417 C418 1.387 . S
C417 C421 1.391 . S
C418 C417 1.387 . S
C418 C419 1.369 . S
C418 H427 0.929 . S
C419 N416 1.346 . S
C419 C418 1.369 . S
C419 H422 0.928 . S
C420 N416 1.345 . S
C420 C421 1.371 . S
C420 H423 0.931 . S
C421 C417 1.391 . S
C421 C420 1.371 . S
C421 H428 0.930 . S
H422 C419 0.928 . S
H423 C420 0.931 . S
H424 C400 0.930 . S
H425 C397 0.930 . S
H426 C406 0.930 . S
H427 C418 0.929 . S
H428 C421 0.930 . S
C429 C430 1.351 . S
C429 N432 1.368 1_455 S
C429 H434 0.931 . S
C430 C429 1.351 . S
C430 N431 1.373 . S
C430 H458 0.930 . S
N431 C430 1.373 . S
N431 C433 1.295 1_455 S
N432 C429 1.368 1_655 S
N432 C433 1.340 . S
N432 Co435 2.135 . S
C433 N431 1.295 1_655 S
C433 N432 1.340 . S
C433 H457 0.954 . S
H434 C429 0.931 . S
Co435 N432 2.135 . S
Co435 N438 2.121 . S
Co435 O443 2.055 . S
Co435 O446 2.039 . S
Co435 N449 2.140 . S
C436 O437 1.227 . S
C436 O446 1.265 . S
O437 C436 1.227 . S
N438 Co435 2.121 . S
N438 C440 1.375 . S
N438 C441 1.313 . S
C439 C440 1.338 . S
C439 N442 1.377 . S
C439 H459 0.930 . S
C440 N438 1.375 . S
C440 C439 1.338 . S
C440 H444 0.931 . S
C441 N438 1.313 . S
C441 N442 1.344 . S
C441 H445 0.930 . S
N442 C439 1.377 . S
N442 C441 1.344 . S
O443 Co435 2.055 . S
O443 C447 1.253 . S
H444 C440 0.931 . S
H445 C441 0.930 . S
O446 Co435 2.039 . S
O446 C436 1.265 . S
C447 O443 1.253 . S
C447 O448 1.227 . S
O448 C447 1.227 . S
N449 Co435 2.140 . S
N449 C452 1.346 . S
N449 C453 1.345 . S
C450 C451 1.387 . S
C450 C454 1.391 . S
C451 C450 1.387 . S
C451 C452 1.369 . S
C451 H460 0.929 . S
C452 N449 1.346 . S
C452 C451 1.369 . S
C452 H455 0.928 . S
C453 N449 1.345 . S
C453 C454 1.371 . S
C453 H456 0.931 . S
C454 C450 1.391 . S
C454 C453 1.371 . S
C454 H461 0.930 . S
H455 C452 0.928 . S
H456 C453 0.931 . S
H457 C433 0.954 . S
H458 C430 0.930 . S
H459 C439 0.930 . S
H460 C451 0.929 . S
H461 C454 0.930 . S
C462 C463 1.351 . S
C462 N465 1.368 1_545 S
C462 H467 0.931 . S
C463 C462 1.351 . S
C463 N464 1.373 . S
C463 H491 0.930 . S
N464 C463 1.373 . S
N464 C466 1.295 1_545 S
N465 C462 1.368 1_565 S
N465 C466 1.340 . S
N465 Co468 2.135 . S
C466 N464 1.295 1_565 S
C466 N465 1.340 . S
C466 H490 0.955 . S
H467 C462 0.931 . S
Co468 N465 2.135 . S
Co468 N471 2.121 . S
Co468 O476 2.055 . S
Co468 O479 2.039 . S
Co468 N482 2.140 . S
C469 O470 1.227 . S
C469 O479 1.265 . S
O470 C469 1.227 . S
N471 Co468 2.121 . S
N471 C473 1.375 . S
N471 C474 1.313 . S
C472 C473 1.338 . S
C472 N475 1.377 . S
C472 H492 0.930 . S
C473 N471 1.375 . S
C473 C472 1.338 . S
C473 H477 0.931 . S
C474 N471 1.313 . S
C474 N475 1.344 . S
C474 H478 0.930 . S
N475 C472 1.377 . S
N475 C474 1.344 . S
O476 Co468 2.055 . S
O476 C480 1.253 . S
H477 C473 0.931 . S
H478 C474 0.930 . S
O479 Co468 2.039 . S
O479 C469 1.265 . S
C480 O476 1.253 . S
C480 O481 1.227 . S
O481 C480 1.227 . S
N482 Co468 2.140 . S
N482 C485 1.346 . S
N482 C486 1.345 . S
C483 C484 1.387 . S
C483 C487 1.391 . S
C484 C483 1.387 . S
C484 C485 1.369 . S
C484 H493 0.929 . S
C485 N482 1.346 . S
C485 C484 1.369 . S
C485 H488 0.928 . S
C486 N482 1.345 . S
C486 C487 1.371 . S
C486 H489 0.931 . S
C487 C483 1.391 . S
C487 C486 1.371 . S
C487 H494 0.930 . S
H488 C485 0.928 . S
H489 C486 0.931 . S
H490 C466 0.955 . S
H491 C463 0.930 . S
H492 C472 0.930 . S
H493 C484 0.929 . S
H494 C487 0.930 . S
C495 C496 1.351 . S
C495 N498 1.368 . S
C495 H500 0.931 . S
C496 C495 1.351 . S
C496 N497 1.373 . S
C496 H524 0.930 . S
N497 C496 1.373 . S
N497 C499 1.340 . S
N498 C495 1.368 . S
N498 C499 1.321 . S
N498 Co501 2.135 . S
C499 N497 1.340 . S
C499 N498 1.321 . S
C499 H523 0.930 . S
H500 C495 0.931 . S
Co501 N498 2.135 . S
Co501 N504 2.121 . S
Co501 O509 2.055 . S
Co501 O512 2.039 . S
Co501 N515 2.140 . S
C502 O503 1.227 . S
C502 O512 1.265 . S
O503 C502 1.227 . S
N504 Co501 2.121 . S
N504 C506 1.375 . S
N504 C507 1.313 . S
C505 C506 1.338 . S
C505 N508 1.377 . S
C505 H525 0.930 . S
C506 N504 1.375 . S
C506 C505 1.338 . S
C506 H510 0.931 . S
C507 N504 1.313 . S
C507 N508 1.344 . S
C507 H511 0.930 . S
N508 C505 1.377 . S
N508 C507 1.344 . S
O509 Co501 2.055 . S
O509 C513 1.253 . S
H510 C506 0.931 . S
H511 C507 0.930 . S
O512 Co501 2.039 . S
O512 C502 1.265 . S
C513 O509 1.253 . S
C513 O514 1.227 . S
O514 C513 1.227 . S
N515 Co501 2.140 . S
N515 C518 1.346 . S
N515 C519 1.345 . S
C516 C517 1.387 . S
C516 C520 1.391 . S
C517 C516 1.387 . S
C517 C518 1.369 . S
C517 H526 0.929 . S
C518 N515 1.346 . S
C518 C517 1.369 . S
C518 H521 0.928 . S
C519 N515 1.345 . S
C519 C520 1.371 . S
C519 H522 0.931 . S
C520 C516 1.391 . S
C520 C519 1.371 . S
C520 H527 0.930 . S
H521 C518 0.928 . S
H522 C519 0.931 . S
H523 C499 0.930 . S
H524 C496 0.930 . S
H525 C505 0.930 . S
H526 C517 0.929 . S
H527 C520 0.930 . S
H528 C546 0.951 . S
H529 C548 0.951 . S
H530 C550 0.950 . S
H531 C551 0.950 . S
H532 C553 0.950 . S
H533 C556 0.950 . S
H534 C557 0.950 . S
H535 C559 0.950 . S
H536 C560 0.950 . S
H537 C561 0.951 . S
H538 C563 0.951 . S
H539 C565 0.950 . S
H540 C566 0.950 . S
H541 C568 0.950 . S
H542 C571 0.950 . S
H543 C572 0.950 . S
H544 C574 0.950 . S
H545 C575 0.950 . S
C546 H528 0.951 . S
C546 C547 1.366 . S
C546 C548 1.388 . S
C547 C546 1.366 . S
C547 C551 1.385 . S
C548 H529 0.951 . S
C548 C546 1.388 . S
C548 C549 1.366 . S
C549 C548 1.366 . S
C549 C550 1.414 . S
C549 C552 1.499 . S
C550 H530 0.950 . S
C550 C549 1.414 . S
C550 C551 1.374 . S
C551 H531 0.950 . S
C551 C547 1.385 . S
C551 C550 1.374 . S
C552 C549 1.499 . S
C552 C553 1.373 . S
C552 C554 1.389 . S
C553 H532 0.950 . S
C553 C552 1.373 . S
C553 C569 1.377 . S
C554 C552 1.389 . S
C554 C555 1.524 . S
C554 C568 1.377 . S
C555 C554 1.524 . S
C555 C556 1.397 . S
C555 C560 1.363 . S
C556 H533 0.950 . S
C556 C555 1.397 . S
C556 C557 1.334 . S
C557 H534 0.950 . S
C557 C556 1.334 . S
C557 C558 1.287 . S
C558 C557 1.287 . S
C558 C559 1.524 . S
C558 H577 0.913 . S
C559 H535 0.950 . S
C559 C558 1.524 . S
C559 C560 1.415 . S
C560 H536 0.950 . S
C560 C555 1.363 . S
C560 C559 1.415 . S
C561 H537 0.951 . S
C561 C562 1.366 . S
C561 C563 1.388 . S
C562 C561 1.366 . S
C562 C566 1.385 . S
C563 H538 0.951 . S
C563 C561 1.388 . S
C563 C564 1.366 . S
C564 C563 1.366 . S
C564 C565 1.414 . S
C564 C567 1.499 . S
C565 H539 0.950 . S
C565 C564 1.414 . S
C565 C566 1.374 . S
C566 H540 0.950 . S
C566 C562 1.385 . S
C566 C565 1.374 . S
C567 C564 1.499 . S
C567 C568 1.373 . S
C567 C569 1.389 . S
C568 H541 0.950 . S
C568 C554 1.377 . S
C568 C567 1.373 . S
C569 C553 1.377 . S
C569 C567 1.389 . S
C569 C570 1.524 . S
C570 C569 1.524 . S
C570 C571 1.397 . S
C570 C575 1.363 . S
C571 H542 0.950 . S
C571 C570 1.397 . S
C571 C572 1.334 . S
C572 H543 0.950 . S
C572 C571 1.334 . S
C572 C573 1.287 . S
C573 C572 1.287 . S
C573 C574 1.524 . S
C573 H576 0.999 . S
C574 H544 0.950 . S
C574 C573 1.524 . S
C574 C575 1.415 . S
C575 H545 0.950 . S
C575 C570 1.363 . S
C575 C574 1.415 . S
H576 C573 0.999 . S
H577 C558 0.913 . S
H578 C596 0.951 . S
H579 C598 0.951 . S
H580 C600 0.950 . S
H581 C601 0.950 . S
H582 C603 0.950 . S
H583 C606 0.950 . S
H584 C607 0.950 . S
H585 C609 0.950 . S
H586 C610 0.950 . S
H587 C611 0.951 . S
H588 C613 0.951 . S
H589 C615 0.950 . S
H590 C616 0.950 . S
H591 C618 0.950 . S
H592 C621 0.950 . S
H593 C622 0.950 . S
H594 C624 0.950 . S
H595 C625 0.950 . S
C596 H578 0.951 . S
C596 C597 1.366 . S
C596 C598 1.388 . S
C597 C596 1.366 . S
C597 C601 1.385 . S
C598 H579 0.951 . S
C598 C596 1.388 . S
C598 C599 1.366 . S
C599 C598 1.366 . S
C599 C600 1.414 . S
C599 C602 1.499 . S
C600 H580 0.950 . S
C600 C599 1.414 . S
C600 C601 1.374 . S
C601 H581 0.950 . S
C601 C597 1.385 . S
C601 C600 1.374 . S
C602 C599 1.499 . S
C602 C603 1.373 . S
C602 C604 1.389 . S
C603 H582 0.950 . S
C603 C602 1.373 . S
C603 C619 1.377 . S
C604 C602 1.389 . S
C604 C605 1.524 . S
C604 C618 1.377 . S
C605 C604 1.524 . S
C605 C606 1.397 . S
C605 C610 1.363 . S
C606 H583 0.950 . S
C606 C605 1.397 . S
C606 C607 1.334 . S
C607 H584 0.950 . S
C607 C606 1.334 . S
C607 C608 1.287 . S
C608 C607 1.287 . S
C608 C609 1.524 . S
C608 H627 0.913 . S
C609 H585 0.950 . S
C609 C608 1.524 . S
C609 C610 1.415 . S
C610 H586 0.950 . S
C610 C605 1.363 . S
C610 C609 1.415 . S
C611 H587 0.951 . S
C611 C612 1.366 . S
C611 C613 1.388 . S
C612 C611 1.366 . S
C612 C616 1.385 . S
C613 H588 0.951 . S
C613 C611 1.388 . S
C613 C614 1.366 . S
C614 C613 1.366 . S
C614 C615 1.414 . S
C614 C617 1.499 . S
C615 H589 0.950 . S
C615 C614 1.414 . S
C615 C616 1.374 . S
C616 H590 0.950 . S
C616 C612 1.385 . S
C616 C615 1.374 . S
C617 C614 1.499 . S
C617 C618 1.373 . S
C617 C619 1.389 . S
C618 H591 0.950 . S
C618 C604 1.377 . S
C618 C617 1.373 . S
C619 C603 1.377 . S
C619 C617 1.389 . S
C619 C620 1.524 . S
C620 C619 1.524 . S
C620 C621 1.397 . S
C620 C625 1.363 . S
C621 H592 0.950 . S
C621 C620 1.397 . S
C621 C622 1.334 . S
C622 H593 0.950 . S
C622 C621 1.334 . S
C622 C623 1.287 . S
C623 C622 1.287 . S
C623 C624 1.524 . S
C623 H626 0.999 . S
C624 H594 0.950 . S
C624 C623 1.524 . S
C624 C625 1.415 . S
C625 H595 0.950 . S
C625 C620 1.363 . S
C625 C624 1.415 . S
H626 C623 0.999 . S
H627 C608 0.913 . S
H628 C646 0.951 . S
H629 C648 0.951 . S
H630 C650 0.950 . S
H631 C651 0.950 . S
H632 C653 0.950 . S
H633 C656 0.950 . S
H634 C657 0.950 . S
H635 C659 0.950 . S
H636 C660 0.950 . S
H637 C661 0.951 . S
H638 C663 0.951 . S
H639 C665 0.950 . S
H640 C666 0.950 . S
H641 C668 0.950 . S
H642 C671 0.950 . S
H643 C672 0.950 . S
H644 C674 0.950 . S
H645 C675 0.950 . S
C646 H628 0.951 . S
C646 C647 1.366 . S
C646 C648 1.388 . S
C647 C646 1.366 . S
C647 C651 1.385 . S
C648 H629 0.951 . S
C648 C646 1.388 . S
C648 C649 1.366 . S
C649 C648 1.366 . S
C649 C650 1.414 . S
C649 C652 1.499 . S
C650 H630 0.950 . S
C650 C649 1.414 . S
C650 C651 1.374 . S
C651 H631 0.950 . S
C651 C647 1.385 . S
C651 C650 1.374 . S
C652 C649 1.499 . S
C652 C653 1.373 . S
C652 C654 1.389 . S
C653 H632 0.950 . S
C653 C652 1.373 . S
C653 C669 1.377 . S
C654 C652 1.389 . S
C654 C655 1.524 . S
C654 C668 1.377 . S
C655 C654 1.524 . S
C655 C656 1.397 . S
C655 C660 1.363 . S
C656 H633 0.950 . S
C656 C655 1.397 . S
C656 C657 1.334 . S
C657 H634 0.950 . S
C657 C656 1.334 . S
C657 C658 1.287 . S
C658 C657 1.287 . S
C658 C659 1.524 . S
C658 H677 0.913 . S
C659 H635 0.950 . S
C659 C658 1.524 . S
C659 C660 1.415 . S
C660 H636 0.950 . S
C660 C655 1.363 . S
C660 C659 1.415 . S
C661 H637 0.951 . S
C661 C662 1.366 . S
C661 C663 1.388 . S
C662 C661 1.366 . S
C662 C666 1.385 . S
C663 H638 0.951 . S
C663 C661 1.388 . S
C663 C664 1.366 . S
C664 C663 1.366 . S
C664 C665 1.414 . S
C664 C667 1.499 . S
C665 H639 0.950 . S
C665 C664 1.414 . S
C665 C666 1.374 . S
C666 H640 0.950 . S
C666 C662 1.385 . S
C666 C665 1.374 . S
C667 C664 1.499 . S
C667 C668 1.373 . S
C667 C669 1.389 . S
C668 H641 0.950 . S
C668 C654 1.377 . S
C668 C667 1.373 . S
C669 C653 1.377 . S
C669 C667 1.389 . S
C669 C670 1.524 . S
C670 C669 1.524 . S
C670 C671 1.397 . S
C670 C675 1.363 . S
C671 H642 0.950 . S
C671 C670 1.397 . S
C671 C672 1.334 . S
C672 H643 0.950 . S
C672 C671 1.334 . S
C672 C673 1.287 . S
C673 C672 1.287 . S
C673 C674 1.524 . S
C673 H676 0.999 . S
C674 H644 0.950 . S
C674 C673 1.524 . S
C674 C675 1.415 . S
C675 H645 0.950 . S
C675 C670 1.363 . S
C675 C674 1.415 . S
H676 C673 0.999 . S
H677 C658 0.913 . S
H678 C696 0.951 . S
H679 C698 0.951 . S
H680 C700 0.950 . S
H681 C701 0.950 . S
H682 C703 0.950 . S
H683 C706 0.950 . S
H684 C707 0.950 . S
H685 C709 0.950 . S
H686 C710 0.950 . S
H687 C711 0.951 . S
H688 C713 0.951 . S
H689 C715 0.950 . S
H690 C716 0.950 . S
H691 C718 0.950 . S
H692 C721 0.950 . S
H693 C722 0.950 . S
H694 C724 0.950 . S
H695 C725 0.950 . S
C696 H678 0.951 . S
C696 C697 1.366 . S
C696 C698 1.388 . S
C697 C696 1.366 . S
C697 C701 1.385 . S
C698 H679 0.951 . S
C698 C696 1.388 . S
C698 C699 1.366 . S
C699 C698 1.366 . S
C699 C700 1.414 . S
C699 C702 1.499 . S
C700 H680 0.950 . S
C700 C699 1.414 . S
C700 C701 1.374 . S
C701 H681 0.950 . S
C701 C697 1.385 . S
C701 C700 1.374 . S
C702 C699 1.499 . S
C702 C703 1.373 . S
C702 C704 1.389 . S
C703 H682 0.950 . S
C703 C702 1.373 . S
C703 C719 1.377 . S
C704 C702 1.389 . S
C704 C705 1.524 . S
C704 C718 1.377 . S
C705 C704 1.524 . S
C705 C706 1.397 . S
C705 C710 1.363 . S
C706 H683 0.950 . S
C706 C705 1.397 . S
C706 C707 1.334 . S
C707 H684 0.950 . S
C707 C706 1.334 . S
C707 C708 1.287 . S
C708 C707 1.287 . S
C708 C709 1.524 . S
C708 H727 0.913 . S
C709 H685 0.950 . S
C709 C708 1.524 . S
C709 C710 1.415 . S
C710 H686 0.950 . S
C710 C705 1.363 . S
C710 C709 1.415 . S
C711 H687 0.951 . S
C711 C712 1.366 . S
C711 C713 1.388 . S
C712 C711 1.366 . S
C712 C716 1.385 . S
C713 H688 0.951 . S
C713 C711 1.388 . S
C713 C714 1.366 . S
C714 C713 1.366 . S
C714 C715 1.414 . S
C714 C717 1.499 . S
C715 H689 0.950 . S
C715 C714 1.414 . S
C715 C716 1.374 . S
C716 H690 0.950 . S
C716 C712 1.385 . S
C716 C715 1.374 . S
C717 C714 1.499 . S
C717 C718 1.373 . S
C717 C719 1.389 . S
C718 H691 0.950 . S
C718 C704 1.377 . S
C718 C717 1.373 . S
C719 C703 1.377 . S
C719 C717 1.389 . S
C719 C720 1.524 . S
C720 C719 1.524 . S
C720 C721 1.397 . S
C720 C725 1.363 . S
C721 H692 0.950 . S
C721 C720 1.397 . S
C721 C722 1.334 . S
C722 H693 0.950 . S
C722 C721 1.334 . S
C722 C723 1.287 . S
C723 C722 1.287 . S
C723 C724 1.524 . S
C723 H726 0.999 . S
C724 H694 0.950 . S
C724 C723 1.524 . S
C724 C725 1.415 . S
C725 H695 0.950 . S
C725 C720 1.363 . S
C725 C724 1.415 . S
H726 C723 0.999 . S
H727 C708 0.913 . S
H728 C746 0.951 . S
H729 C748 0.951 . S
H730 C750 0.950 . S
H731 C751 0.950 . S
H732 C753 0.950 . S
H733 C756 0.950 . S
H734 C757 0.950 . S
H735 C759 0.950 . S
H736 C760 0.950 . S
H737 C761 0.951 . S
H738 C763 0.951 . S
H739 C765 0.950 . S
H740 C766 0.950 . S
H741 C768 0.950 . S
H742 C771 0.950 . S
H743 C772 0.950 . S
H744 C774 0.950 . S
H745 C775 0.950 . S
C746 H728 0.951 . S
C746 C747 1.366 . S
C746 C748 1.388 . S
C747 C746 1.366 . S
C747 C751 1.385 . S
C748 H729 0.951 . S
C748 C746 1.388 . S
C748 C749 1.366 . S
C749 C748 1.366 . S
C749 C750 1.414 . S
C749 C752 1.499 . S
C750 H730 0.950 . S
C750 C749 1.414 . S
C750 C751 1.374 . S
C751 H731 0.950 . S
C751 C747 1.385 . S
C751 C750 1.374 . S
C752 C749 1.499 . S
C752 C753 1.373 . S
C752 C754 1.389 . S
C753 H732 0.950 . S
C753 C752 1.373 . S
C753 C769 1.377 . S
C754 C752 1.389 . S
C754 C755 1.524 . S
C754 C768 1.377 . S
C755 C754 1.524 . S
C755 C756 1.397 . S
C755 C760 1.363 . S
C756 H733 0.950 . S
C756 C755 1.397 . S
C756 C757 1.334 . S
C757 H734 0.950 . S
C757 C756 1.334 . S
C757 C758 1.287 . S
C758 C757 1.287 . S
C758 C759 1.524 . S
C758 H777 0.913 . S
C759 H735 0.950 . S
C759 C758 1.524 . S
C759 C760 1.415 . S
C760 H736 0.950 . S
C760 C755 1.363 . S
C760 C759 1.415 . S
C761 H737 0.951 . S
C761 C762 1.366 . S
C761 C763 1.388 . S
C762 C761 1.366 . S
C762 C766 1.385 . S
C763 H738 0.951 . S
C763 C761 1.388 . S
C763 C764 1.366 . S
C764 C763 1.366 . S
C764 C765 1.414 . S
C764 C767 1.499 . S
C765 H739 0.950 . S
C765 C764 1.414 . S
C765 C766 1.374 . S
C766 H740 0.950 . S
C766 C762 1.385 . S
C766 C765 1.374 . S
C767 C764 1.499 . S
C767 C768 1.373 . S
C767 C769 1.389 . S
C768 H741 0.950 . S
C768 C754 1.377 . S
C768 C767 1.373 . S
C769 C753 1.377 . S
C769 C767 1.389 . S
C769 C770 1.524 . S
C770 C769 1.524 . S
C770 C771 1.397 . S
C770 C775 1.363 . S
C771 H742 0.950 . S
C771 C770 1.397 . S
C771 C772 1.334 . S
C772 H743 0.950 . S
C772 C771 1.334 . S
C772 C773 1.287 . S
C773 C772 1.287 . S
C773 C774 1.524 . S
C773 H776 0.999 . S
C774 H744 0.950 . S
C774 C773 1.524 . S
C774 C775 1.415 . S
C775 H745 0.950 . S
C775 C770 1.363 . S
C775 C774 1.415 . S
H776 C773 0.999 . S
H777 C758 0.913 . S
H778 C796 0.951 . S
H779 C798 0.951 . S
H780 C800 0.950 . S
H781 C801 0.950 . S
H782 C803 0.950 . S
H783 C806 0.950 . S
H784 C807 0.950 . S
H785 C809 0.950 . S
H786 C810 0.950 . S
H787 C811 0.951 . S
H788 C813 0.951 . S
H789 C815 0.950 . S
H790 C816 0.950 . S
H791 C818 0.950 . S
H792 C821 0.950 . S
H793 C822 0.950 . S
H794 C824 0.950 . S
H795 C825 0.950 . S
C796 H778 0.951 . S
C796 C797 1.366 . S
C796 C798 1.388 . S
C797 C796 1.366 . S
C797 C801 1.385 . S
C798 H779 0.951 . S
C798 C796 1.388 . S
C798 C799 1.366 . S
C799 C798 1.366 . S
C799 C800 1.414 . S
C799 C802 1.499 . S
C800 H780 0.950 . S
C800 C799 1.414 . S
C800 C801 1.374 . S
C801 H781 0.950 . S
C801 C797 1.385 . S
C801 C800 1.374 . S
C802 C799 1.499 . S
C802 C803 1.373 . S
C802 C804 1.389 . S
C803 H782 0.950 . S
C803 C802 1.373 . S
C803 C819 1.377 . S
C804 C802 1.389 . S
C804 C805 1.524 . S
C804 C818 1.377 . S
C805 C804 1.524 . S
C805 C806 1.397 . S
C805 C810 1.363 . S
C806 H783 0.950 . S
C806 C805 1.397 . S
C806 C807 1.334 . S
C807 H784 0.950 . S
C807 C806 1.334 . S
C807 C808 1.287 . S
C808 C807 1.287 . S
C808 C809 1.524 . S
C808 H827 0.913 . S
C809 H785 0.950 . S
C809 C808 1.524 . S
C809 C810 1.415 . S
C810 H786 0.950 . S
C810 C805 1.363 . S
C810 C809 1.415 . S
C811 H787 0.951 . S
C811 C812 1.366 . S
C811 C813 1.388 . S
C812 C811 1.366 . S
C812 C816 1.385 . S
C813 H788 0.951 . S
C813 C811 1.388 . S
C813 C814 1.366 . S
C814 C813 1.366 . S
C814 C815 1.414 . S
C814 C817 1.499 . S
C815 H789 0.950 . S
C815 C814 1.414 . S
C815 C816 1.374 . S
C816 H790 0.950 . S
C816 C812 1.385 . S
C816 C815 1.374 . S
C817 C814 1.499 . S
C817 C818 1.373 . S
C817 C819 1.389 . S
C818 H791 0.950 . S
C818 C804 1.377 . S
C818 C817 1.373 . S
C819 C803 1.377 . S
C819 C817 1.389 . S
C819 C820 1.524 . S
C820 C819 1.524 . S
C820 C821 1.397 . S
C820 C825 1.363 . S
C821 H792 0.950 . S
C821 C820 1.397 . S
C821 C822 1.334 . S
C822 H793 0.950 . S
C822 C821 1.334 . S
C822 C823 1.287 . S
C823 C822 1.287 . S
C823 C824 1.524 . S
C823 H826 0.999 . S
C824 H794 0.950 . S
C824 C823 1.524 . S
C824 C825 1.415 . S
C825 H795 0.950 . S
C825 C820 1.363 . S
C825 C824 1.415 . S
H826 C823 0.999 . S
H827 C808 0.913 . S
H828 C846 0.951 . S
H829 C848 0.951 . S
H830 C850 0.950 . S
H831 C851 0.950 . S
H832 C853 0.950 . S
H833 C856 0.950 . S
H834 C857 0.950 . S
H835 C859 0.950 . S
H836 C860 0.950 . S
H837 C861 0.951 . S
H838 C863 0.951 . S
H839 C865 0.950 . S
H840 C866 0.950 . S
H841 C868 0.950 . S
H842 C871 0.950 . S
H843 C872 0.950 . S
H844 C874 0.950 . S
H845 C875 0.950 . S
C846 H828 0.951 . S
C846 C847 1.366 . S
C846 C848 1.388 . S
C847 C846 1.366 . S
C847 C851 1.385 . S
C848 H829 0.951 . S
C848 C846 1.388 . S
C848 C849 1.366 . S
C849 C848 1.366 . S
C849 C850 1.414 . S
C849 C852 1.499 . S
C850 H830 0.950 . S
C850 C849 1.414 . S
C850 C851 1.374 . S
C851 H831 0.950 . S
C851 C847 1.385 . S
C851 C850 1.374 . S
C852 C849 1.499 . S
C852 C853 1.373 . S
C852 C854 1.389 . S
C853 H832 0.950 . S
C853 C852 1.373 . S
C853 C869 1.377 . S
C854 C852 1.389 . S
C854 C855 1.524 . S
C854 C868 1.377 . S
C855 C854 1.524 . S
C855 C856 1.397 . S
C855 C860 1.363 . S
C856 H833 0.950 . S
C856 C855 1.397 . S
C856 C857 1.334 . S
C857 H834 0.950 . S
C857 C856 1.334 . S
C857 C858 1.287 . S
C858 C857 1.287 . S
C858 C859 1.524 . S
C858 H877 0.913 . S
C859 H835 0.950 . S
C859 C858 1.524 . S
C859 C860 1.415 . S
C860 H836 0.950 . S
C860 C855 1.363 . S
C860 C859 1.415 . S
C861 H837 0.951 . S
C861 C862 1.366 . S
C861 C863 1.388 . S
C862 C861 1.366 . S
C862 C866 1.385 . S
C863 H838 0.951 . S
C863 C861 1.388 . S
C863 C864 1.366 . S
C864 C863 1.366 . S
C864 C865 1.414 . S
C864 C867 1.499 . S
C865 H839 0.950 . S
C865 C864 1.414 . S
C865 C866 1.374 . S
C866 H840 0.950 . S
C866 C862 1.385 . S
C866 C865 1.374 . S
C867 C864 1.499 . S
C867 C868 1.373 . S
C867 C869 1.389 . S
C868 H841 0.950 . S
C868 C854 1.377 . S
C868 C867 1.373 . S
C869 C853 1.377 . S
C869 C867 1.389 . S
C869 C870 1.524 . S
C870 C869 1.524 . S
C870 C871 1.397 . S
C870 C875 1.363 . S
C871 H842 0.950 . S
C871 C870 1.397 . S
C871 C872 1.334 . S
C872 H843 0.950 . S
C872 C871 1.334 . S
C872 C873 1.287 . S
C873 C872 1.287 . S
C873 C874 1.524 . S
C873 H876 0.999 . S
C874 H844 0.950 . S
C874 C873 1.524 . S
C874 C875 1.415 . S
C875 H845 0.950 . S
C875 C870 1.363 . S
C875 C874 1.415 . S
H876 C873 0.999 . S
H877 C858 0.913 . S
H878 C896 0.951 . S
H879 C898 0.951 . S
H880 C900 0.950 . S
H881 C901 0.950 . S
H882 C903 0.950 . S
H883 C906 0.950 . S
H884 C907 0.950 . S
H885 C909 0.950 . S
H886 C910 0.950 . S
H887 C911 0.951 . S
H888 C913 0.951 . S
H889 C915 0.950 . S
H890 C916 0.950 . S
H891 C918 0.950 . S
H892 C921 0.950 . S
H893 C922 0.950 . S
H894 C924 0.950 . S
H895 C925 0.950 . S
C896 H878 0.951 . S
C896 C897 1.366 . S
C896 C898 1.388 . S
C897 C896 1.366 . S
C897 C901 1.385 . S
C898 H879 0.951 . S
C898 C896 1.388 . S
C898 C899 1.366 . S
C899 C898 1.366 . S
C899 C900 1.414 . S
C899 C902 1.499 . S
C900 H880 0.950 . S
C900 C899 1.414 . S
C900 C901 1.374 . S
C901 H881 0.950 . S
C901 C897 1.385 . S
C901 C900 1.374 . S
C902 C899 1.499 . S
C902 C903 1.373 . S
C902 C904 1.389 . S
C903 H882 0.950 . S
C903 C902 1.373 . S
C903 C919 1.377 . S
C904 C902 1.389 . S
C904 C905 1.524 . S
C904 C918 1.377 . S
C905 C904 1.524 . S
C905 C906 1.397 . S
C905 C910 1.363 . S
C906 H883 0.950 . S
C906 C905 1.397 . S
C906 C907 1.334 . S
C907 H884 0.950 . S
C907 C906 1.334 . S
C907 C908 1.287 . S
C908 C907 1.287 . S
C908 C909 1.524 . S
C908 H927 0.913 . S
C909 H885 0.950 . S
C909 C908 1.524 . S
C909 C910 1.415 . S
C910 H886 0.950 . S
C910 C905 1.363 . S
C910 C909 1.415 . S
C911 H887 0.951 . S
C911 C912 1.366 . S
C911 C913 1.388 . S
C912 C911 1.366 . S
C912 C916 1.385 . S
C913 H888 0.951 . S
C913 C911 1.388 . S
C913 C914 1.366 . S
C914 C913 1.366 . S
C914 C915 1.414 . S
C914 C917 1.499 . S
C915 H889 0.950 . S
C915 C914 1.414 . S
C915 C916 1.374 . S
C916 H890 0.950 . S
C916 C912 1.385 . S
C916 C915 1.374 . S
C917 C914 1.499 . S
C917 C918 1.373 . S
C917 C919 1.389 . S
C918 H891 0.950 . S
C918 C904 1.377 . S
C918 C917 1.373 . S
C919 C903 1.377 . S
C919 C917 1.389 . S
C919 C920 1.524 . S
C920 C919 1.524 . S
C920 C921 1.397 . S
C920 C925 1.363 . S
C921 H892 0.950 . S
C921 C920 1.397 . S
C921 C922 1.334 . S
C922 H893 0.950 . S
C922 C921 1.334 . S
C922 C923 1.287 . S
C923 C922 1.287 . S
C923 C924 1.524 . S
C923 H926 0.999 . S
C924 H894 0.950 . S
C924 C923 1.524 . S
C924 C925 1.415 . S
C925 H895 0.950 . S
C925 C920 1.363 . S
C925 C924 1.415 . S
H926 C923 0.999 . S
H927 C908 0.913 . S
H928 C946 0.951 . S
H929 C948 0.951 . S
H930 C950 0.950 . S
H931 C951 0.950 . S
H932 C953 0.950 . S
H933 C956 0.950 . S
H934 C957 0.950 . S
H935 C959 0.950 . S
H936 C960 0.950 . S
H937 C961 0.951 . S
H938 C963 0.951 . S
H939 C965 0.950 . S
H940 C966 0.950 . S
H941 C968 0.950 . S
H942 C971 0.950 . S
H943 C972 0.950 . S
H944 C974 0.950 . S
H945 C975 0.950 . S
C946 H928 0.951 . S
C946 C947 1.366 . S
C946 C948 1.388 . S
C947 C946 1.366 . S
C947 C951 1.385 . S
C948 H929 0.951 . S
C948 C946 1.388 . S
C948 C949 1.366 . S
C949 C948 1.366 . S
C949 C950 1.414 . S
C949 C952 1.499 . S
C950 H930 0.950 . S
C950 C949 1.414 . S
C950 C951 1.374 . S
C951 H931 0.950 . S
C951 C947 1.385 . S
C951 C950 1.374 . S
C952 C949 1.499 . S
C952 C953 1.373 . S
C952 C954 1.389 . S
C953 H932 0.950 . S
C953 C952 1.373 . S
C953 C969 1.377 . S
C954 C952 1.389 . S
C954 C955 1.524 . S
C954 C968 1.377 . S
C955 C954 1.524 . S
C955 C956 1.397 . S
C955 C960 1.363 . S
C956 H933 0.950 . S
C956 C955 1.397 . S
C956 C957 1.334 . S
C957 H934 0.950 . S
C957 C956 1.334 . S
C957 C958 1.287 . S
C958 C957 1.287 . S
C958 C959 1.524 . S
C958 H977 0.913 . S
C959 H935 0.950 . S
C959 C958 1.524 . S
C959 C960 1.415 . S
C960 H936 0.950 . S
C960 C955 1.363 . S
C960 C959 1.415 . S
C961 H937 0.951 . S
C961 C962 1.366 . S
C961 C963 1.388 . S
C962 C961 1.366 . S
C962 C966 1.385 . S
C963 H938 0.951 . S
C963 C961 1.388 . S
C963 C964 1.366 . S
C964 C963 1.366 . S
C964 C965 1.414 . S
C964 C967 1.499 . S
C965 H939 0.950 . S
C965 C964 1.414 . S
C965 C966 1.374 . S
C966 H940 0.950 . S
C966 C962 1.385 . S
C966 C965 1.374 . S
C967 C964 1.499 . S
C967 C968 1.373 . S
C967 C969 1.389 . S
C968 H941 0.950 . S
C968 C954 1.377 . S
C968 C967 1.373 . S
C969 C953 1.377 . S
C969 C967 1.389 . S
C969 C970 1.524 . S
C970 C969 1.524 . S
C970 C971 1.397 . S
C970 C975 1.363 . S
C971 H942 0.950 . S
C971 C970 1.397 . S
C971 C972 1.334 . S
C972 H943 0.950 . S
C972 C971 1.334 . S
C972 C973 1.287 . S
C973 C972 1.287 . S
C973 C974 1.524 . S
C973 H976 0.999 . S
C974 H944 0.950 . S
C974 C973 1.524 . S
C974 C975 1.415 . S
C975 H945 0.950 . S
C975 C970 1.363 . S
C975 C974 1.415 . S
H976 C973 0.999 . S
H977 C958 0.913 . S
H978 C996 0.951 . S
H979 C998 0.951 . S
H980 C1000 0.950 . S
H981 C1001 0.950 . S
H982 C1003 0.950 . S
H983 C1006 0.950 . S
H984 C1007 0.950 . S
H985 C1009 0.950 . S
H986 C1010 0.950 . S
H987 C1011 0.951 . S
H988 C1013 0.951 . S
H989 C1015 0.950 . S
H990 C1016 0.950 . S
H991 C1018 0.950 . S
H992 C1021 0.950 . S
H993 C1022 0.950 . S
H994 C1024 0.950 . S
H995 C1025 0.950 . S
C996 H978 0.951 . S
C996 C997 1.366 . S
C996 C998 1.388 . S
C997 C996 1.366 . S
C997 C1001 1.385 . S
C998 H979 0.951 . S
C998 C996 1.388 . S
C998 C999 1.366 . S
C999 C998 1.366 . S
C999 C1000 1.414 . S
C999 C1002 1.499 . S
C1000 H980 0.950 . S
C1000 C999 1.414 . S
C1000 C1001 1.374 . S
C1001 H981 0.950 . S
C1001 C997 1.385 . S
C1001 C1000 1.374 . S
C1002 C999 1.499 . S
C1002 C1003 1.373 . S
C1002 C1004 1.389 . S
C1003 H982 0.950 . S
C1003 C1002 1.373 . S
C1003 C1019 1.377 . S
C1004 C1002 1.389 . S
C1004 C1005 1.524 . S
C1004 C1018 1.377 . S
C1005 C1004 1.524 . S
C1005 C1006 1.397 . S
C1005 C1010 1.363 . S
C1006 H983 0.950 . S
C1006 C1005 1.397 . S
C1006 C1007 1.334 . S
C1007 H984 0.950 . S
C1007 C1006 1.334 . S
C1007 C1008 1.287 . S
C1008 C1007 1.287 . S
C1008 C1009 1.524 . S
C1008 H1027 0.913 . S
C1009 H985 0.950 . S
C1009 C1008 1.524 . S
C1009 C1010 1.415 . S
C1010 H986 0.950 . S
C1010 C1005 1.363 . S
C1010 C1009 1.415 . S
C1011 H987 0.951 . S
C1011 C1012 1.366 . S
C1011 C1013 1.388 . S
C1012 C1011 1.366 . S
C1012 C1016 1.385 . S
C1013 H988 0.951 . S
C1013 C1011 1.388 . S
C1013 C1014 1.366 . S
C1014 C1013 1.366 . S
C1014 C1015 1.414 . S
C1014 C1017 1.499 . S
C1015 H989 0.950 . S
C1015 C1014 1.414 . S
C1015 C1016 1.374 . S
C1016 H990 0.950 . S
C1016 C1012 1.385 . S
C1016 C1015 1.374 . S
C1017 C1014 1.499 . S
C1017 C1018 1.373 . S
C1017 C1019 1.389 . S
C1018 H991 0.950 . S
C1018 C1004 1.377 . S
C1018 C1017 1.373 . S
C1019 C1003 1.377 . S
C1019 C1017 1.389 . S
C1019 C1020 1.524 . S
C1020 C1019 1.524 . S
C1020 C1021 1.397 . S
C1020 C1025 1.363 . S
C1021 H992 0.950 . S
C1021 C1020 1.397 . S
C1021 C1022 1.334 . S
C1022 H993 0.950 . S
C1022 C1021 1.334 . S
C1022 C1023 1.287 . S
C1023 C1022 1.287 . S
C1023 C1024 1.524 . S
C1023 H1026 0.999 . S
C1024 H994 0.950 . S
C1024 C1023 1.524 . S
C1024 C1025 1.415 . S
C1025 H995 0.950 . S
C1025 C1020 1.363 . S
C1025 C1024 1.415 . S
H1026 C1023 0.999 . S
H1027 C1008 0.913 . S
H1028 C1046 0.951 . S
H1029 C1048 0.951 . S
H1030 C1050 0.950 . S
H1031 C1051 0.950 . S
H1032 C1053 0.950 . S
H1033 C1056 0.950 . S
H1034 C1057 0.950 . S
H1035 C1059 0.950 . S
H1036 C1060 0.950 . S
H1037 C1061 0.951 . S
H1038 C1063 0.951 . S
H1039 C1065 0.950 . S
H1040 C1066 0.950 . S
H1041 C1068 0.950 . S
H1042 C1071 0.950 . S
H1043 C1072 0.950 . S
H1044 C1074 0.950 . S
H1045 C1075 0.950 . S
C1046 H1028 0.951 . S
C1046 C1047 1.366 . S
C1046 C1048 1.388 . S
C1047 C1046 1.366 . S
C1047 C1051 1.385 . S
C1048 H1029 0.951 . S
C1048 C1046 1.388 . S
C1048 C1049 1.366 . S
C1049 C1048 1.366 . S
C1049 C1050 1.414 . S
C1049 C1052 1.499 . S
C1050 H1030 0.950 . S
C1050 C1049 1.414 . S
C1050 C1051 1.374 . S
C1051 H1031 0.950 . S
C1051 C1047 1.385 . S
C1051 C1050 1.374 . S
C1052 C1049 1.499 . S
C1052 C1053 1.373 . S
C1052 C1054 1.389 . S
C1053 H1032 0.950 . S
C1053 C1052 1.373 . S
C1053 C1069 1.377 . S
C1054 C1052 1.389 . S
C1054 C1055 1.524 . S
C1054 C1068 1.377 . S
C1055 C1054 1.524 . S
C1055 C1056 1.397 . S
C1055 C1060 1.363 . S
C1056 H1033 0.950 . S
C1056 C1055 1.397 . S
C1056 C1057 1.334 . S
C1057 H1034 0.950 . S
C1057 C1056 1.334 . S
C1057 C1058 1.287 . S
C1058 C1057 1.287 . S
C1058 C1059 1.524 . S
C1058 H1077 0.913 . S
C1059 H1035 0.950 . S
C1059 C1058 1.524 . S
C1059 C1060 1.415 . S
C1060 H1036 0.950 . S
C1060 C1055 1.363 . S
C1060 C1059 1.415 . S
C1061 H1037 0.951 . S
C1061 C1062 1.366 . S
C1061 C1063 1.388 . S
C1062 C1061 1.366 . S
C1062 C1066 1.385 . S
C1063 H1038 0.951 . S
C1063 C1061 1.388 . S
C1063 C1064 1.366 . S
C1064 C1063 1.366 . S
C1064 C1065 1.414 . S
C1064 C1067 1.499 . S
C1065 H1039 0.950 . S
C1065 C1064 1.414 . S
C1065 C1066 1.374 . S
C1066 H1040 0.950 . S
C1066 C1062 1.385 . S
C1066 C1065 1.374 . S
C1067 C1064 1.499 . S
C1067 C1068 1.373 . S
C1067 C1069 1.389 . S
C1068 H1041 0.950 . S
C1068 C1054 1.377 . S
C1068 C1067 1.373 . S
C1069 C1053 1.377 . S
C1069 C1067 1.389 . S
C1069 C1070 1.524 . S
C1070 C1069 1.524 . S
C1070 C1071 1.397 . S
C1070 C1075 1.363 . S
C1071 H1042 0.950 . S
C1071 C1070 1.397 . S
C1071 C1072 1.334 . S
C1072 H1043 0.950 . S
C1072 C1071 1.334 . S
C1072 C1073 1.287 . S
C1073 C1072 1.287 . S
C1073 C1074 1.524 . S
C1073 H1076 0.999 . S
C1074 H1044 0.950 . S
C1074 C1073 1.524 . S
C1074 C1075 1.415 . S
C1075 H1045 0.950 . S
C1075 C1070 1.363 . S
C1075 C1074 1.415 . S
H1076 C1073 0.999 . S
H1077 C1058 0.913 . S
H1078 C1096 0.951 . S
H1079 C1098 0.951 . S
H1080 C1100 0.950 . S
H1081 C1101 0.950 . S
H1082 C1103 0.950 . S
H1083 C1106 0.950 . S
H1084 C1107 0.962 . S
H1085 C1109 0.950 . S
H1086 C1110 0.950 . S
H1087 C1111 0.951 . S
H1088 C1113 0.951 . S
H1089 C1115 0.950 . S
H1090 C1116 0.950 . S
H1091 C1118 0.950 . S
H1092 C1121 0.950 . S
H1093 C1122 0.950 . S
H1094 C1124 0.950 . S
H1095 C1125 0.950 . S
C1096 H1078 0.951 . S
C1096 C1097 1.366 . S
C1096 C1098 1.388 . S
C1097 C1096 1.366 . S
C1097 C1101 1.385 . S
C1098 H1079 0.951 . S
C1098 C1096 1.388 . S
C1098 C1099 1.366 . S
C1099 C1098 1.366 . S
C1099 C1100 1.414 . S
C1099 C1102 1.499 . S
C1100 H1080 0.950 . S
C1100 C1099 1.414 . S
C1100 C1101 1.374 . S
C1101 H1081 0.950 . S
C1101 C1097 1.385 . S
C1101 C1100 1.374 . S
C1102 C1099 1.499 . S
C1102 C1103 1.373 . S
C1102 C1104 1.389 . S
C1103 H1082 0.950 . S
C1103 C1102 1.373 . S
C1103 C1119 1.377 . S
C1104 C1102 1.389 . S
C1104 C1105 1.524 . S
C1104 C1118 1.377 . S
C1105 C1104 1.524 . S
C1105 C1106 1.397 . S
C1105 C1110 1.363 . S
C1106 H1083 0.950 . S
C1106 C1105 1.397 . S
C1106 C1107 1.334 . S
C1107 H1084 0.962 . S
C1107 C1106 1.334 . S
C1107 C1108 1.287 . S
C1108 C1107 1.287 . S
C1108 C1109 1.524 . S
C1108 H1127 0.913 . S
C1109 H1085 0.950 . S
C1109 C1108 1.524 . S
C1109 C1110 1.415 . S
C1110 H1086 0.950 . S
C1110 C1105 1.363 . S
C1110 C1109 1.415 . S
C1111 H1087 0.951 . S
C1111 C1112 1.366 . S
C1111 C1113 1.388 . S
C1112 C1111 1.366 . S
C1112 C1116 1.385 . S
C1113 H1088 0.951 . S
C1113 C1111 1.388 . S
C1113 C1114 1.366 . S
C1114 C1113 1.366 . S
C1114 C1115 1.414 . S
C1114 C1117 1.499 . S
C1115 H1089 0.950 . S
C1115 C1114 1.414 . S
C1115 C1116 1.374 . S
C1116 H1090 0.950 . S
C1116 C1112 1.385 . S
C1116 C1115 1.374 . S
C1117 C1114 1.499 . S
C1117 C1118 1.373 . S
C1117 C1119 1.389 . S
C1118 H1091 0.950 . S
C1118 C1104 1.377 . S
C1118 C1117 1.373 . S
C1119 C1103 1.377 . S
C1119 C1117 1.389 . S
C1119 C1120 1.524 . S
C1120 C1119 1.524 . S
C1120 C1121 1.397 . S
C1120 C1125 1.363 . S
C1121 H1092 0.950 . S
C1121 C1120 1.397 . S
C1121 C1122 1.334 . S
C1122 H1093 0.950 . S
C1122 C1121 1.334 . S
C1122 C1123 1.287 . S
C1123 C1122 1.287 . S
C1123 C1124 1.524 . S
C1123 H1126 0.999 . S
C1124 H1094 0.950 . S
C1124 C1123 1.524 . S
C1124 C1125 1.415 . S
C1125 H1095 0.950 . S
C1125 C1120 1.363 . S
C1125 C1124 1.415 . S
H1126 C1123 0.999 . S
H1127 C1108 0.913 . S
H1128 C1146 0.951 . S
H1129 C1148 0.951 . S
H1130 C1150 0.950 . S
H1131 C1151 0.950 . S
H1132 C1153 0.950 . S
H1133 C1156 0.950 . S
H1134 C1157 0.950 . S
H1135 C1159 0.950 . S
H1136 C1160 0.950 . S
H1137 C1161 0.951 . S
H1138 C1163 0.951 . S
H1139 C1165 0.950 . S
H1140 C1166 0.950 . S
H1141 C1168 0.950 . S
H1142 C1171 0.950 . S
H1143 C1172 0.950 . S
H1144 C1174 0.950 . S
H1145 C1175 0.950 . S
C1146 H1128 0.951 . S
C1146 C1147 1.366 . S
C1146 C1148 1.388 . S
C1147 C1146 1.366 . S
C1147 C1151 1.385 . S
C1148 H1129 0.951 . S
C1148 C1146 1.388 . S
C1148 C1149 1.366 . S
C1149 C1148 1.366 . S
C1149 C1150 1.414 . S
C1149 C1152 1.499 . S
C1150 H1130 0.950 . S
C1150 C1149 1.414 . S
C1150 C1151 1.374 . S
C1151 H1131 0.950 . S
C1151 C1147 1.385 . S
C1151 C1150 1.374 . S
C1152 C1149 1.499 . S
C1152 C1153 1.373 . S
C1152 C1154 1.389 . S
C1153 H1132 0.950 . S
C1153 C1152 1.373 . S
C1153 C1169 1.377 . S
C1154 C1152 1.389 . S
C1154 C1155 1.524 . S
C1154 C1168 1.377 . S
C1155 C1154 1.524 . S
C1155 C1156 1.397 . S
C1155 C1160 1.363 . S
C1156 H1133 0.950 . S
C1156 C1155 1.397 . S
C1156 C1157 1.334 . S
C1157 H1134 0.950 . S
C1157 C1156 1.334 . S
C1157 C1158 1.287 . S
C1158 C1157 1.287 . S
C1158 C1159 1.524 . S
C1158 H1177 0.913 . S
C1159 H1135 0.950 . S
C1159 C1158 1.524 . S
C1159 C1160 1.415 . S
C1160 H1136 0.950 . S
C1160 C1155 1.363 . S
C1160 C1159 1.415 . S
C1161 H1137 0.951 . S
C1161 C1162 1.366 . S
C1161 C1163 1.388 . S
C1162 C1161 1.366 . S
C1162 C1166 1.385 . S
C1163 H1138 0.951 . S
C1163 C1161 1.388 . S
C1163 C1164 1.366 . S
C1164 C1163 1.366 . S
C1164 C1165 1.414 . S
C1164 C1167 1.499 . S
C1165 H1139 0.950 . S
C1165 C1164 1.414 . S
C1165 C1166 1.374 . S
C1166 H1140 0.950 . S
C1166 C1162 1.385 . S
C1166 C1165 1.374 . S
C1167 C1164 1.499 . S
C1167 C1168 1.373 . S
C1167 C1169 1.389 . S
C1168 H1141 0.950 . S
C1168 C1154 1.377 . S
C1168 C1167 1.373 . S
C1169 C1153 1.377 . S
C1169 C1167 1.389 . S
C1169 C1170 1.524 . S
C1170 C1169 1.524 . S
C1170 C1171 1.397 . S
C1170 C1175 1.363 . S
C1171 H1142 0.950 . S
C1171 C1170 1.397 . S
C1171 C1172 1.334 . S
C1172 H1143 0.950 . S
C1172 C1171 1.334 . S
C1172 C1173 1.287 . S
C1173 C1172 1.287 . S
C1173 C1174 1.524 . S
C1173 H1176 0.999 . S
C1174 H1144 0.950 . S
C1174 C1173 1.524 . S
C1174 C1175 1.415 . S
C1175 H1145 0.950 . S
C1175 C1170 1.363 . S
C1175 C1174 1.415 . S
H1176 C1173 0.999 . S
H1177 C1158 0.913 . S
H1178 C1196 0.951 . S
H1179 C1198 0.951 . S
H1180 C1200 0.950 . S
H1181 C1201 0.950 . S
H1182 C1203 0.950 . S
H1183 C1206 0.950 . S
H1184 C1207 0.950 . S
H1185 C1209 0.950 . S
H1186 C1210 0.950 . S
H1187 C1211 0.951 . S
H1188 C1213 0.951 . S
H1189 C1215 0.950 . S
H1190 C1216 0.950 . S
H1191 C1218 0.950 . S
H1192 C1221 0.950 . S
H1193 C1222 0.950 . S
H1194 C1224 0.950 . S
H1195 C1225 0.950 . S
C1196 H1178 0.951 . S
C1196 C1197 1.366 . S
C1196 C1198 1.388 . S
C1197 C1196 1.366 . S
C1197 C1201 1.385 . S
C1198 H1179 0.951 . S
C1198 C1196 1.388 . S
C1198 C1199 1.366 . S
C1199 C1198 1.366 . S
C1199 C1200 1.414 . S
C1199 C1202 1.499 . S
C1200 H1180 0.950 . S
C1200 C1199 1.414 . S
C1200 C1201 1.374 . S
C1201 H1181 0.950 . S
C1201 C1197 1.385 . S
C1201 C1200 1.374 . S
C1202 C1199 1.499 . S
C1202 C1203 1.373 . S
C1202 C1204 1.389 . S
C1203 H1182 0.950 . S
C1203 C1202 1.373 . S
C1203 C1219 1.377 . S
C1204 C1202 1.389 . S
C1204 C1205 1.524 . S
C1204 C1218 1.377 . S
C1205 C1204 1.524 . S
C1205 C1206 1.397 . S
C1205 C1210 1.363 . S
C1206 H1183 0.950 . S
C1206 C1205 1.397 . S
C1206 C1207 1.334 . S
C1207 H1184 0.950 . S
C1207 C1206 1.334 . S
C1207 C1208 1.287 . S
C1208 C1207 1.287 . S
C1208 C1209 1.524 . S
C1208 H1227 0.913 . S
C1209 H1185 0.950 . S
C1209 C1208 1.524 . S
C1209 C1210 1.415 . S
C1210 H1186 0.950 . S
C1210 C1205 1.363 . S
C1210 C1209 1.415 . S
C1211 H1187 0.951 . S
C1211 C1212 1.366 . S
C1211 C1213 1.388 . S
C1212 C1211 1.366 . S
C1212 C1216 1.385 . S
C1213 H1188 0.951 . S
C1213 C1211 1.388 . S
C1213 C1214 1.366 . S
C1214 C1213 1.366 . S
C1214 C1215 1.414 . S
C1214 C1217 1.499 . S
C1215 H1189 0.950 . S
C1215 C1214 1.414 . S
C1215 C1216 1.374 . S
C1216 H1190 0.950 . S
C1216 C1212 1.385 . S
C1216 C1215 1.374 . S
C1217 C1214 1.499 . S
C1217 C1218 1.373 . S
C1217 C1219 1.389 . S
C1218 H1191 0.950 . S
C1218 C1204 1.377 . S
C1218 C1217 1.373 . S
C1219 C1203 1.377 . S
C1219 C1217 1.389 . S
C1219 C1220 1.524 . S
C1220 C1219 1.524 . S
C1220 C1221 1.397 . S
C1220 C1225 1.363 . S
C1221 H1192 0.950 . S
C1221 C1220 1.397 . S
C1221 C1222 1.334 . S
C1222 H1193 0.950 . S
C1222 C1221 1.334 . S
C1222 C1223 1.287 . S
C1223 C1222 1.287 . S
C1223 C1224 1.524 . S
C1223 H1226 0.999 . S
C1224 H1194 0.950 . S
C1224 C1223 1.524 . S
C1224 C1225 1.415 . S
C1225 H1195 0.950 . S
C1225 C1220 1.363 . S
C1225 C1224 1.415 . S
H1226 C1223 0.999 . S
H1227 C1208 0.913 . S
H1228 C1246 0.951 . S
H1229 C1248 0.951 . S
H1230 C1250 0.950 . S
H1231 C1251 0.950 . S
H1232 C1253 0.950 . S
H1233 C1256 0.950 . S
H1234 C1257 0.950 . S
H1235 C1259 0.950 . S
H1236 C1260 0.950 . S
H1237 C1261 0.951 . S
H1238 C1263 0.951 . S
H1239 C1265 0.950 . S
H1240 C1266 0.950 . S
H1241 C1268 0.950 . S
H1242 C1271 0.950 . S
H1243 C1272 0.950 . S
H1244 C1274 0.950 . S
H1245 C1275 0.950 . S
C1246 H1228 0.951 . S
C1246 C1247 1.366 . S
C1246 C1248 1.388 . S
C1247 C1246 1.366 . S
C1247 C1251 1.385 . S
C1248 H1229 0.951 . S
C1248 C1246 1.388 . S
C1248 C1249 1.366 . S
C1249 C1248 1.366 . S
C1249 C1250 1.414 . S
C1249 C1252 1.499 . S
C1250 H1230 0.950 . S
C1250 C1249 1.414 . S
C1250 C1251 1.374 . S
C1251 H1231 0.950 . S
C1251 C1247 1.385 . S
C1251 C1250 1.374 . S
C1252 C1249 1.499 . S
C1252 C1253 1.373 . S
C1252 C1254 1.389 . S
C1253 H1232 0.950 . S
C1253 C1252 1.373 . S
C1253 C1269 1.377 . S
C1254 C1252 1.389 . S
C1254 C1255 1.524 . S
C1254 C1268 1.377 . S
C1255 C1254 1.524 . S
C1255 C1256 1.397 . S
C1255 C1260 1.363 . S
C1256 H1233 0.950 . S
C1256 C1255 1.397 . S
C1256 C1257 1.334 . S
C1257 H1234 0.950 . S
C1257 C1256 1.334 . S
C1257 C1258 1.287 . S
C1258 C1257 1.287 . S
C1258 C1259 1.524 . S
C1258 H1277 0.913 . S
C1259 H1235 0.950 . S
C1259 C1258 1.524 . S
C1259 C1260 1.415 . S
C1260 H1236 0.950 . S
C1260 C1255 1.363 . S
C1260 C1259 1.415 . S
C1261 H1237 0.951 . S
C1261 C1262 1.366 . S
C1261 C1263 1.388 . S
C1262 C1261 1.366 . S
C1262 C1266 1.385 . S
C1263 H1238 0.951 . S
C1263 C1261 1.388 . S
C1263 C1264 1.366 . S
C1264 C1263 1.366 . S
C1264 C1265 1.414 . S
C1264 C1267 1.499 . S
C1265 H1239 0.950 . S
C1265 C1264 1.414 . S
C1265 C1266 1.374 . S
C1266 H1240 0.950 . S
C1266 C1262 1.385 . S
C1266 C1265 1.374 . S
C1267 C1264 1.499 . S
C1267 C1268 1.373 . S
C1267 C1269 1.389 . S
C1268 H1241 0.950 . S
C1268 C1254 1.377 . S
C1268 C1267 1.373 . S
C1269 C1253 1.377 . S
C1269 C1267 1.389 . S
C1269 C1270 1.524 . S
C1270 C1269 1.524 . S
C1270 C1271 1.397 . S
C1270 C1275 1.363 . S
C1271 H1242 0.950 . S
C1271 C1270 1.397 . S
C1271 C1272 1.334 . S
C1272 H1243 0.950 . S
C1272 C1271 1.334 . S
C1272 C1273 1.287 . S
C1273 C1272 1.287 . S
C1273 C1274 1.524 . S
C1273 H1276 0.999 . S
C1274 H1244 0.950 . S
C1274 C1273 1.524 . S
C1274 C1275 1.415 . S
C1275 H1245 0.950 . S
C1275 C1270 1.363 . S
C1275 C1274 1.415 . S
H1276 C1273 0.999 . S
H1277 C1258 0.913 . S
H1278 C1296 0.951 . S
H1279 C1298 0.951 . S
H1280 C1300 0.950 . S
H1281 C1301 0.950 . S
H1282 C1303 0.950 . S
H1283 C1306 0.950 . S
H1284 C1307 0.950 . S
H1285 C1309 0.950 . S
H1286 C1310 0.950 . S
H1287 C1311 0.951 . S
H1288 C1313 0.951 . S
H1289 C1315 0.950 . S
H1290 C1316 0.950 . S
H1291 C1318 0.950 . S
H1292 C1321 0.950 . S
H1293 C1322 0.950 . S
H1294 C1324 0.950 . S
H1295 C1325 0.950 . S
C1296 H1278 0.951 . S
C1296 C1297 1.366 . S
C1296 C1298 1.388 . S
C1297 C1296 1.366 . S
C1297 C1301 1.385 . S
C1298 H1279 0.951 . S
C1298 C1296 1.388 . S
C1298 C1299 1.366 . S
C1299 C1298 1.366 . S
C1299 C1300 1.414 . S
C1299 C1302 1.499 . S
C1300 H1280 0.950 . S
C1300 C1299 1.414 . S
C1300 C1301 1.374 . S
C1301 H1281 0.950 . S
C1301 C1297 1.385 . S
C1301 C1300 1.374 . S
C1302 C1299 1.499 . S
C1302 C1303 1.373 . S
C1302 C1304 1.389 . S
C1303 H1282 0.950 . S
C1303 C1302 1.373 . S
C1303 C1319 1.377 . S
C1304 C1302 1.389 . S
C1304 C1305 1.524 . S
C1304 C1318 1.377 . S
C1305 C1304 1.524 . S
C1305 C1306 1.397 . S
C1305 C1310 1.363 . S
C1306 H1283 0.950 . S
C1306 C1305 1.397 . S
C1306 C1307 1.334 . S
C1307 H1284 0.950 . S
C1307 C1306 1.334 . S
C1307 C1308 1.287 . S
C1308 C1307 1.287 . S
C1308 C1309 1.524 . S
C1308 H1327 0.913 . S
C1309 H1285 0.950 . S
C1309 C1308 1.524 . S
C1309 C1310 1.415 . S
C1310 H1286 0.950 . S
C1310 C1305 1.363 . S
C1310 C1309 1.415 . S
C1311 H1287 0.951 . S
C1311 C1312 1.366 . S
C1311 C1313 1.388 . S
C1312 C1311 1.366 . S
C1312 C1316 1.385 . S
C1313 H1288 0.951 . S
C1313 C1311 1.388 . S
C1313 C1314 1.366 . S
C1314 C1313 1.366 . S
C1314 C1315 1.414 . S
C1314 C1317 1.499 . S
C1315 H1289 0.950 . S
C1315 C1314 1.414 . S
C1315 C1316 1.374 . S
C1316 H1290 0.950 . S
C1316 C1312 1.385 . S
C1316 C1315 1.374 . S
C1317 C1314 1.499 . S
C1317 C1318 1.373 . S
C1317 C1319 1.389 . S
C1318 H1291 0.950 . S
C1318 C1304 1.377 . S
C1318 C1317 1.373 . S
C1319 C1303 1.377 . S
C1319 C1317 1.389 . S
C1319 C1320 1.524 . S
C1320 C1319 1.524 . S
C1320 C1321 1.397 . S
C1320 C1325 1.363 . S
C1321 H1292 0.950 . S
C1321 C1320 1.397 . S
C1321 C1322 1.334 . S
C1322 H1293 0.950 . S
C1322 C1321 1.334 . S
C1322 C1323 1.287 . S
C1323 C1322 1.287 . S
C1323 C1324 1.524 . S
C1323 H1326 0.999 . S
C1324 H1294 0.950 . S
C1324 C1323 1.524 . S
C1324 C1325 1.415 . S
C1325 H1295 0.950 . S
C1325 C1320 1.363 . S
C1325 C1324 1.415 . S
H1326 C1323 0.999 . S
H1327 C1308 0.913 . S
H1328 C1346 0.951 . S
H1329 C1348 0.951 . S
H1330 C1350 0.950 . S
H1331 C1351 0.950 . S
H1332 C1353 0.950 . S
H1333 C1356 0.950 . S
H1334 C1357 0.950 . S
H1335 C1359 0.950 . S
H1336 C1360 0.950 . S
H1337 C1361 0.951 . S
H1338 C1363 0.951 . S
H1339 C1365 0.950 . S
H1340 C1366 0.950 . S
H1341 C1368 0.950 . S
H1342 C1371 0.950 . S
H1343 C1372 0.950 . S
H1344 C1374 0.950 . S
H1345 C1375 0.950 . S
C1346 H1328 0.951 . S
C1346 C1347 1.366 . S
C1346 C1348 1.388 . S
C1347 C1346 1.366 . S
C1347 C1351 1.385 . S
C1348 H1329 0.951 . S
C1348 C1346 1.388 . S
C1348 C1349 1.366 . S
C1349 C1348 1.366 . S
C1349 C1350 1.414 . S
C1349 C1352 1.499 . S
C1350 H1330 0.950 . S
C1350 C1349 1.414 . S
C1350 C1351 1.374 . S
C1351 H1331 0.950 . S
C1351 C1347 1.385 . S
C1351 C1350 1.374 . S
C1352 C1349 1.499 . S
C1352 C1353 1.373 . S
C1352 C1354 1.389 . S
C1353 H1332 0.950 . S
C1353 C1352 1.373 . S
C1353 C1369 1.377 . S
C1354 C1352 1.389 . S
C1354 C1355 1.524 . S
C1354 C1368 1.377 . S
C1355 C1354 1.524 . S
C1355 C1356 1.397 . S
C1355 C1360 1.363 . S
C1356 H1333 0.950 . S
C1356 C1355 1.397 . S
C1356 C1357 1.334 . S
C1357 H1334 0.950 . S
C1357 C1356 1.334 . S
C1357 C1358 1.287 . S
C1358 C1357 1.287 . S
C1358 C1359 1.524 . S
C1358 H1377 0.913 . S
C1359 H1335 0.950 . S
C1359 C1358 1.524 . S
C1359 C1360 1.415 . S
C1360 H1336 0.950 . S
C1360 C1355 1.363 . S
C1360 C1359 1.415 . S
C1361 H1337 0.951 . S
C1361 C1362 1.366 . S
C1361 C1363 1.388 . S
C1362 C1361 1.366 . S
C1362 C1366 1.385 . S
C1363 H1338 0.951 . S
C1363 C1361 1.388 . S
C1363 C1364 1.366 . S
C1364 C1363 1.366 . S
C1364 C1365 1.414 . S
C1364 C1367 1.499 . S
C1365 H1339 0.950 . S
C1365 C1364 1.414 . S
C1365 C1366 1.374 . S
C1366 H1340 0.950 . S
C1366 C1362 1.385 . S
C1366 C1365 1.374 . S
C1367 C1364 1.499 . S
C1367 C1368 1.373 . S
C1367 C1369 1.389 . S
C1368 H1341 0.950 . S
C1368 C1354 1.377 . S
C1368 C1367 1.373 . S
C1369 C1353 1.377 . S
C1369 C1367 1.389 . S
C1369 C1370 1.524 . S
C1370 C1369 1.524 . S
C1370 C1371 1.397 . S
C1370 C1375 1.363 . S
C1371 H1342 0.950 . S
C1371 C1370 1.397 . S
C1371 C1372 1.334 . S
C1372 H1343 0.950 . S
C1372 C1371 1.334 . S
C1372 C1373 1.287 . S
C1373 C1372 1.287 . S
C1373 C1374 1.524 . S
C1373 H1376 0.999 . S
C1374 H1344 0.950 . S
C1374 C1373 1.524 . S
C1374 C1375 1.415 . S
C1375 H1345 0.950 . S
C1375 C1370 1.363 . S
C1375 C1374 1.415 . S
H1376 C1373 0.999 . S
H1377 C1358 0.913 . S
H1378 C1396 0.951 . S
H1379 C1398 0.951 . S
H1380 C1400 0.950 . S
H1381 C1401 0.950 . S
H1382 C1403 0.950 . S
H1383 C1406 0.950 . S
H1384 C1407 0.950 . S
H1385 C1409 0.950 . S
H1386 C1410 0.950 . S
H1387 C1411 0.951 . S
H1388 C1413 0.951 . S
H1389 C1415 0.950 . S
H1390 C1416 0.950 . S
H1391 C1418 0.950 . S
H1392 C1421 0.950 . S
H1393 C1422 0.950 . S
H1394 C1424 0.950 . S
H1395 C1425 0.950 . S
C1396 H1378 0.951 . S
C1396 C1397 1.366 . S
C1396 C1398 1.388 . S
C1397 C1396 1.366 . S
C1397 C1401 1.385 . S
C1398 H1379 0.951 . S
C1398 C1396 1.388 . S
C1398 C1399 1.366 . S
C1399 C1398 1.366 . S
C1399 C1400 1.414 . S
C1399 C1402 1.499 . S
C1400 H1380 0.950 . S
C1400 C1399 1.414 . S
C1400 C1401 1.374 . S
C1401 H1381 0.950 . S
C1401 C1397 1.385 . S
C1401 C1400 1.374 . S
C1402 C1399 1.499 . S
C1402 C1403 1.373 . S
C1402 C1404 1.389 . S
C1403 H1382 0.950 . S
C1403 C1402 1.373 . S
C1403 C1419 1.377 . S
C1404 C1402 1.389 . S
C1404 C1405 1.524 . S
C1404 C1418 1.377 . S
C1405 C1404 1.524 . S
C1405 C1406 1.397 . S
C1405 C1410 1.363 . S
C1406 H1383 0.950 . S
C1406 C1405 1.397 . S
C1406 C1407 1.334 . S
C1407 H1384 0.950 . S
C1407 C1406 1.334 . S
C1407 C1408 1.287 . S
C1408 C1407 1.287 . S
C1408 C1409 1.524 . S
C1408 H1427 0.913 . S
C1409 H1385 0.950 . S
C1409 C1408 1.524 . S
C1409 C1410 1.415 . S
C1410 H1386 0.950 . S
C1410 C1405 1.363 . S
C1410 C1409 1.415 . S
C1411 H1387 0.951 . S
C1411 C1412 1.366 . S
C1411 C1413 1.388 . S
C1412 C1411 1.366 . S
C1412 C1416 1.385 . S
C1413 H1388 0.951 . S
C1413 C1411 1.388 . S
C1413 C1414 1.366 . S
C1414 C1413 1.366 . S
C1414 C1415 1.414 . S
C1414 C1417 1.499 . S
C1415 H1389 0.950 . S
C1415 C1414 1.414 . S
C1415 C1416 1.374 . S
C1416 H1390 0.950 . S
C1416 C1412 1.385 . S
C1416 C1415 1.374 . S
C1417 C1414 1.499 . S
C1417 C1418 1.373 . S
C1417 C1419 1.389 . S
C1418 H1391 0.950 . S
C1418 C1404 1.377 . S
C1418 C1417 1.373 . S
C1419 C1403 1.377 . S
C1419 C1417 1.389 . S
C1419 C1420 1.524 . S
C1420 C1419 1.524 . S
C1420 C1421 1.397 . S
C1420 C1425 1.363 . S
C1421 H1392 0.950 . S
C1421 C1420 1.397 . S
C1421 C1422 1.334 . S
C1422 H1393 0.950 . S
C1422 C1421 1.334 . S
C1422 C1423 1.287 . S
C1423 C1422 1.287 . S
C1423 C1424 1.524 . S
C1423 H1426 0.999 . S
C1424 H1394 0.950 . S
C1424 C1423 1.524 . S
C1424 C1425 1.415 . S
C1425 H1395 0.950 . S
C1425 C1420 1.363 . S
C1425 C1424 1.415 . S
H1426 C1423 0.999 . S
H1427 C1408 0.913 . S
H1428 C1446 0.951 . S
H1429 C1448 0.951 . S
H1430 C1450 0.950 . S
H1431 C1451 0.950 . S
H1432 C1453 0.950 . S
H1433 C1456 0.950 . S
H1434 C1457 0.950 . S
H1435 C1459 0.950 . S
H1436 C1460 0.950 . S
H1437 C1461 0.951 . S
H1438 C1463 0.951 . S
H1439 C1465 0.950 . S
H1440 C1466 0.950 . S
H1441 C1468 0.950 . S
H1442 C1471 0.950 . S
H1443 C1472 0.950 . S
H1444 C1474 0.950 . S
H1445 C1475 0.950 . S
C1446 H1428 0.951 . S
C1446 C1447 1.366 . S
C1446 C1448 1.388 . S
C1447 C1446 1.366 . S
C1447 C1451 1.385 . S
C1448 H1429 0.951 . S
C1448 C1446 1.388 . S
C1448 C1449 1.366 . S
C1449 C1448 1.366 . S
C1449 C1450 1.414 . S
C1449 C1452 1.499 . S
C1450 H1430 0.950 . S
C1450 C1449 1.414 . S
C1450 C1451 1.374 . S
C1451 H1431 0.950 . S
C1451 C1447 1.385 . S
C1451 C1450 1.374 . S
C1452 C1449 1.499 . S
C1452 C1453 1.373 . S
C1452 C1454 1.389 . S
C1453 H1432 0.950 . S
C1453 C1452 1.373 . S
C1453 C1469 1.377 . S
C1454 C1452 1.389 . S
C1454 C1455 1.524 . S
C1454 C1468 1.377 . S
C1455 C1454 1.524 . S
C1455 C1456 1.397 . S
C1455 C1460 1.363 . S
C1456 H1433 0.950 . S
C1456 C1455 1.397 . S
C1456 C1457 1.334 . S
C1457 H1434 0.950 . S
C1457 C1456 1.334 . S
C1457 C1458 1.287 . S
C1458 C1457 1.287 . S
C1458 C1459 1.524 . S
C1458 H1477 0.913 . S
C1459 H1435 0.950 . S
C1459 C1458 1.524 . S
C1459 C1460 1.415 . S
C1460 H1436 0.950 . S
C1460 C1455 1.363 . S
C1460 C1459 1.415 . S
C1461 H1437 0.951 . S
C1461 C1462 1.366 . S
C1461 C1463 1.388 . S
C1462 C1461 1.366 . S
C1462 C1466 1.385 . S
C1463 H1438 0.951 . S
C1463 C1461 1.388 . S
C1463 C1464 1.366 . S
C1464 C1463 1.366 . S
C1464 C1465 1.414 . S
C1464 C1467 1.499 . S
C1465 H1439 0.950 . S
C1465 C1464 1.414 . S
C1465 C1466 1.374 . S
C1466 H1440 0.950 . S
C1466 C1462 1.385 . S
C1466 C1465 1.374 . S
C1467 C1464 1.499 . S
C1467 C1468 1.373 . S
C1467 C1469 1.389 . S
C1468 H1441 0.950 . S
C1468 C1454 1.377 . S
C1468 C1467 1.373 . S
C1469 C1453 1.377 . S
C1469 C1467 1.389 . S
C1469 C1470 1.524 . S
C1470 C1469 1.524 . S
C1470 C1471 1.397 . S
C1470 C1475 1.363 . S
C1471 H1442 0.950 . S
C1471 C1470 1.397 . S
C1471 C1472 1.334 . S
C1472 H1443 0.950 . S
C1472 C1471 1.334 . S
C1472 C1473 1.287 . S
C1473 C1472 1.287 . S
C1473 C1474 1.524 . S
C1473 H1476 0.999 . S
C1474 H1444 0.950 . S
C1474 C1473 1.524 . S
C1474 C1475 1.415 . S
C1475 H1445 0.950 . S
C1475 C1470 1.363 . S
C1475 C1474 1.415 . S
H1476 C1473 0.999 . S
H1477 C1458 0.913 . S
H1478 C1496 0.951 . S
H1479 C1498 0.951 . S
H1480 C1500 0.950 . S
H1481 C1501 0.950 . S
H1482 C1503 0.950 . S
H1483 C1506 0.950 . S
H1484 C1507 0.950 . S
H1485 C1509 0.950 . S
H1486 C1510 0.950 . S
H1487 C1511 0.951 . S
H1488 C1513 0.951 . S
H1489 C1515 0.950 . S
H1490 C1516 0.950 . S
H1491 C1518 0.950 . S
H1492 C1521 0.950 . S
H1493 C1522 0.950 . S
H1494 C1524 0.950 . S
H1495 C1525 0.950 . S
C1496 H1478 0.951 . S
C1496 C1497 1.366 . S
C1496 C1498 1.388 . S
C1497 C1496 1.366 . S
C1497 C1501 1.385 . S
C1498 H1479 0.951 . S
C1498 C1496 1.388 . S
C1498 C1499 1.366 . S
C1499 C1498 1.366 . S
C1499 C1500 1.414 . S
C1499 C1502 1.499 . S
C1500 H1480 0.950 . S
C1500 C1499 1.414 . S
C1500 C1501 1.374 . S
C1501 H1481 0.950 . S
C1501 C1497 1.385 . S
C1501 C1500 1.374 . S
C1502 C1499 1.499 . S
C1502 C1503 1.373 . S
C1502 C1504 1.389 . S
C1503 H1482 0.950 . S
C1503 C1502 1.373 . S
C1503 C1519 1.377 . S
C1504 C1502 1.389 . S
C1504 C1505 1.524 . S
C1504 C1518 1.377 . S
C1505 C1504 1.524 . S
C1505 C1506 1.397 . S
C1505 C1510 1.363 . S
C1506 H1483 0.950 . S
C1506 C1505 1.397 . S
C1506 C1507 1.334 . S
C1507 H1484 0.950 . S
C1507 C1506 1.334 . S
C1507 C1508 1.287 . S
C1508 C1507 1.287 . S
C1508 C1509 1.524 . S
C1508 H1527 0.913 . S
C1509 H1485 0.950 . S
C1509 C1508 1.524 . S
C1509 C1510 1.415 . S
C1510 H1486 0.950 . S
C1510 C1505 1.363 . S
C1510 C1509 1.415 . S
C1511 H1487 0.951 . S
C1511 C1512 1.366 . S
C1511 C1513 1.388 . S
C1512 C1511 1.366 . S
C1512 C1516 1.385 . S
C1513 H1488 0.951 . S
C1513 C1511 1.388 . S
C1513 C1514 1.366 . S
C1514 C1513 1.366 . S
C1514 C1515 1.414 . S
C1514 C1517 1.499 . S
C1515 H1489 0.950 . S
C1515 C1514 1.414 . S
C1515 C1516 1.374 . S
C1516 H1490 0.950 . S
C1516 C1512 1.385 . S
C1516 C1515 1.374 . S
C1517 C1514 1.499 . S
C1517 C1518 1.373 . S
C1517 C1519 1.389 . S
C1518 H1491 0.950 . S
C1518 C1504 1.377 . S
C1518 C1517 1.373 . S
C1519 C1503 1.377 . S
C1519 C1517 1.389 . S
C1519 C1520 1.524 . S
C1520 C1519 1.524 . S
C1520 C1521 1.397 . S
C1520 C1525 1.363 . S
C1521 H1492 0.950 . S
C1521 C1520 1.397 . S
C1521 C1522 1.334 . S
C1522 H1493 0.950 . S
C1522 C1521 1.334 . S
C1522 C1523 1.287 . S
C1523 C1522 1.287 . S
C1523 C1524 1.524 . S
C1523 H1526 0.999 . S
C1524 H1494 0.950 . S
C1524 C1523 1.524 . S
C1524 C1525 1.415 . S
C1525 H1495 0.950 . S
C1525 C1520 1.363 . S
C1525 C1524 1.415 . S
H1526 C1523 0.999 . S
H1527 C1508 0.913 . S
H1528 C1546 0.951 . S
H1529 C1548 0.951 . S
H1530 C1550 0.950 . S
H1531 C1551 0.950 . S
H1532 C1553 0.950 . S
H1533 C1556 0.950 . S
H1534 C1557 0.950 . S
H1535 C1559 0.950 . S
H1536 C1560 0.950 . S
H1537 C1561 0.951 . S
H1538 C1563 0.951 . S
H1539 C1565 0.950 . S
H1540 C1566 0.950 . S
H1541 C1568 0.950 . S
H1542 C1571 0.950 . S
H1543 C1572 0.950 . S
H1544 C1574 0.950 . S
H1545 C1575 0.950 . S
C1546 H1528 0.951 . S
C1546 C1547 1.366 . S
C1546 C1548 1.388 . S
C1547 C1546 1.366 . S
C1547 C1551 1.385 . S
C1548 H1529 0.951 . S
C1548 C1546 1.388 . S
C1548 C1549 1.366 . S
C1549 C1548 1.366 . S
C1549 C1550 1.414 . S
C1549 C1552 1.499 . S
C1550 H1530 0.950 . S
C1550 C1549 1.414 . S
C1550 C1551 1.374 . S
C1551 H1531 0.950 . S
C1551 C1547 1.385 . S
C1551 C1550 1.374 . S
C1552 C1549 1.499 . S
C1552 C1553 1.373 . S
C1552 C1554 1.389 . S
C1553 H1532 0.950 . S
C1553 C1552 1.373 . S
C1553 C1569 1.377 . S
C1554 C1552 1.389 . S
C1554 C1555 1.524 . S
C1554 C1568 1.377 . S
C1555 C1554 1.524 . S
C1555 C1556 1.397 . S
C1555 C1560 1.363 . S
C1556 H1533 0.950 . S
C1556 C1555 1.397 . S
C1556 C1557 1.334 . S
C1557 H1534 0.950 . S
C1557 C1556 1.334 . S
C1557 C1558 1.287 . S
C1558 C1557 1.287 . S
C1558 C1559 1.524 . S
C1558 H1577 0.913 . S
C1559 H1535 0.950 . S
C1559 C1558 1.524 . S
C1559 C1560 1.415 . S
C1560 H1536 0.950 . S
C1560 C1555 1.363 . S
C1560 C1559 1.415 . S
C1561 H1537 0.951 . S
C1561 C1562 1.366 . S
C1561 C1563 1.388 . S
C1562 C1561 1.366 . S
C1562 C1566 1.385 . S
C1563 H1538 0.951 . S
C1563 C1561 1.388 . S
C1563 C1564 1.366 . S
C1564 C1563 1.366 . S
C1564 C1565 1.414 . S
C1564 C1567 1.499 . S
C1565 H1539 0.950 . S
C1565 C1564 1.414 . S
C1565 C1566 1.374 . S
C1566 H1540 0.950 . S
C1566 C1562 1.385 . S
C1566 C1565 1.374 . S
C1567 C1564 1.499 . S
C1567 C1568 1.373 . S
C1567 C1569 1.389 . S
C1568 H1541 0.950 . S
C1568 C1554 1.377 . S
C1568 C1567 1.373 . S
C1569 C1553 1.377 . S
C1569 C1567 1.389 . S
C1569 C1570 1.524 . S
C1570 C1569 1.524 . S
C1570 C1571 1.397 . S
C1570 C1575 1.363 . S
C1571 H1542 0.950 . S
C1571 C1570 1.397 . S
C1571 C1572 1.334 . S
C1572 H1543 0.950 . S
C1572 C1571 1.334 . S
C1572 C1573 1.287 . S
C1573 C1572 1.287 . S
C1573 C1574 1.524 . S
C1573 H1576 0.999 . S
C1574 H1544 0.950 . S
C1574 C1573 1.524 . S
C1574 C1575 1.415 . S
C1575 H1545 0.950 . S
C1575 C1570 1.363 . S
C1575 C1574 1.415 . S
H1576 C1573 0.999 . S
H1577 C1558 0.913 . S
H1578 C1596 0.951 . S
H1579 C1598 0.951 . S
H1580 C1600 0.950 . S
H1581 C1601 0.950 . S
H1582 C1603 0.950 . S
H1583 C1606 0.950 . S
H1584 C1607 0.950 . S
H1585 C1609 0.950 . S
H1586 C1610 0.950 . S
H1587 C1611 0.951 . S
H1588 C1613 0.951 . S
H1589 C1615 0.950 . S
H1590 C1616 0.950 . S
H1591 C1618 0.950 . S
H1592 C1621 0.950 . S
H1593 C1622 0.950 . S
H1594 C1624 0.950 . S
H1595 C1625 0.950 . S
C1596 H1578 0.951 . S
C1596 C1597 1.366 . S
C1596 C1598 1.388 . S
C1597 C1596 1.366 . S
C1597 C1601 1.385 . S
C1598 H1579 0.951 . S
C1598 C1596 1.388 . S
C1598 C1599 1.366 . S
C1599 C1598 1.366 . S
C1599 C1600 1.414 . S
C1599 C1602 1.499 . S
C1600 H1580 0.950 . S
C1600 C1599 1.414 . S
C1600 C1601 1.374 . S
C1601 H1581 0.950 . S
C1601 C1597 1.385 . S
C1601 C1600 1.374 . S
C1602 C1599 1.499 . S
C1602 C1603 1.373 . S
C1602 C1604 1.389 . S
C1603 H1582 0.950 . S
C1603 C1602 1.373 . S
C1603 C1619 1.377 . S
C1604 C1602 1.389 . S
C1604 C1605 1.524 . S
C1604 C1618 1.377 . S
C1605 C1604 1.524 . S
C1605 C1606 1.397 . S
C1605 C1610 1.363 . S
C1606 H1583 0.950 . S
C1606 C1605 1.397 . S
C1606 C1607 1.334 . S
C1607 H1584 0.950 . S
C1607 C1606 1.334 . S
C1607 C1608 1.287 . S
C1608 C1607 1.287 . S
C1608 C1609 1.524 . S
C1608 H1627 0.913 . S
C1609 H1585 0.950 . S
C1609 C1608 1.524 . S
C1609 C1610 1.415 . S
C1610 H1586 0.950 . S
C1610 C1605 1.363 . S
C1610 C1609 1.415 . S
C1611 H1587 0.951 . S
C1611 C1612 1.366 . S
C1611 C1613 1.388 . S
C1612 C1611 1.366 . S
C1612 C1616 1.385 . S
C1613 H1588 0.951 . S
C1613 C1611 1.388 . S
C1613 C1614 1.366 . S
C1614 C1613 1.366 . S
C1614 C1615 1.414 . S
C1614 C1617 1.499 . S
C1615 H1589 0.950 . S
C1615 C1614 1.414 . S
C1615 C1616 1.374 . S
C1616 H1590 0.950 . S
C1616 C1612 1.385 . S
C1616 C1615 1.374 . S
C1617 C1614 1.499 . S
C1617 C1618 1.373 . S
C1617 C1619 1.389 . S
C1618 H1591 0.950 . S
C1618 C1604 1.377 . S
C1618 C1617 1.373 . S
C1619 C1603 1.377 . S
C1619 C1617 1.389 . S
C1619 C1620 1.524 . S
C1620 C1619 1.524 . S
C1620 C1621 1.397 . S
C1620 C1625 1.363 . S
C1621 H1592 0.950 . S
C1621 C1620 1.397 . S
C1621 C1622 1.334 . S
C1622 H1593 0.950 . S
C1622 C1621 1.334 . S
C1622 C1623 1.287 . S
C1623 C1622 1.287 . S
C1623 C1624 1.524 . S
C1623 H1626 0.999 . S
C1624 H1594 0.950 . S
C1624 C1623 1.524 . S
C1624 C1625 1.415 . S
C1625 H1595 0.950 . S
C1625 C1620 1.363 . S
C1625 C1624 1.415 . S
H1626 C1623 0.999 . S
H1627 C1608 0.913 . S
H1628 C1646 0.951 . S
H1629 C1648 0.951 . S
H1630 C1650 0.950 . S
H1631 C1651 0.950 . S
H1632 C1653 0.950 . S
H1633 C1656 0.950 . S
H1634 C1657 0.950 . S
H1635 C1659 0.950 . S
H1636 C1660 0.950 . S
H1637 C1661 0.951 . S
H1638 C1663 0.951 . S
H1639 C1665 0.950 . S
H1640 C1666 0.950 . S
H1641 C1668 0.950 . S
H1642 C1671 0.950 . S
H1643 C1672 0.950 . S
H1644 C1674 0.950 . S
H1645 C1675 0.950 . S
C1646 H1628 0.951 . S
C1646 C1647 1.366 . S
C1646 C1648 1.388 . S
C1647 C1646 1.366 . S
C1647 C1651 1.385 . S
C1648 H1629 0.951 . S
C1648 C1646 1.388 . S
C1648 C1649 1.366 . S
C1649 C1648 1.366 . S
C1649 C1650 1.414 . S
C1649 C1652 1.499 . S
C1650 H1630 0.950 . S
C1650 C1649 1.414 . S
C1650 C1651 1.374 . S
C1651 H1631 0.950 . S
C1651 C1647 1.385 . S
C1651 C1650 1.374 . S
C1652 C1649 1.499 . S
C1652 C1653 1.373 . S
C1652 C1654 1.389 . S
C1653 H1632 0.950 . S
C1653 C1652 1.373 . S
C1653 C1669 1.377 . S
C1654 C1652 1.389 . S
C1654 C1655 1.524 . S
C1654 C1668 1.377 . S
C1655 C1654 1.524 . S
C1655 C1656 1.397 . S
C1655 C1660 1.363 . S
C1656 H1633 0.950 . S
C1656 C1655 1.397 . S
C1656 C1657 1.334 . S
C1657 H1634 0.950 . S
C1657 C1656 1.334 . S
C1657 C1658 1.287 . S
C1658 C1657 1.287 . S
C1658 C1659 1.524 . S
C1658 H1677 0.913 . S
C1659 H1635 0.950 . S
C1659 C1658 1.524 . S
C1659 C1660 1.415 . S
C1660 H1636 0.950 . S
C1660 C1655 1.363 . S
C1660 C1659 1.415 . S
C1661 H1637 0.951 . S
C1661 C1662 1.366 . S
C1661 C1663 1.388 . S
C1662 C1661 1.366 . S
C1662 C1666 1.385 . S
C1663 H1638 0.951 . S
C1663 C1661 1.388 . S
C1663 C1664 1.366 . S
C1664 C1663 1.366 . S
C1664 C1665 1.414 . S
C1664 C1667 1.499 . S
C1665 H1639 0.950 . S
C1665 C1664 1.414 . S
C1665 C1666 1.374 . S
C1666 H1640 0.950 . S
C1666 C1662 1.385 . S
C1666 C1665 1.374 . S
C1667 C1664 1.499 . S
C1667 C1668 1.373 . S
C1667 C1669 1.389 . S
C1668 H1641 0.950 . S
C1668 C1654 1.377 . S
C1668 C1667 1.373 . S
C1669 C1653 1.377 . S
C1669 C1667 1.389 . S
C1669 C1670 1.524 . S
C1670 C1669 1.524 . S
C1670 C1671 1.397 . S
C1670 C1675 1.363 . S
C1671 H1642 0.950 . S
C1671 C1670 1.397 . S
C1671 C1672 1.334 . S
C1672 H1643 0.950 . S
C1672 C1671 1.334 . S
C1672 C1673 1.287 . S
C1673 C1672 1.287 . S
C1673 C1674 1.524 . S
C1673 H1676 0.999 . S
C1674 H1644 0.950 . S
C1674 C1673 1.524 . S
C1674 C1675 1.415 . S
C1675 H1645 0.950 . S
C1675 C1670 1.363 . S
C1675 C1674 1.415 . S
H1676 C1673 0.999 . S
H1677 C1658 0.913 . S
H1678 C1696 0.951 . S
H1679 C1698 0.951 . S
H1680 C1700 0.950 . S
H1681 C1701 0.950 . S
H1682 C1703 0.950 . S
H1683 C1706 0.950 . S
H1684 C1707 0.950 . S
H1685 C1709 0.950 . S
H1686 C1710 0.950 . S
H1687 C1711 0.951 . S
H1688 C1713 0.951 . S
H1689 C1715 0.950 . S
H1690 C1716 0.950 . S
H1691 C1718 0.950 . S
H1692 C1721 0.950 . S
H1693 C1722 0.950 . S
H1694 C1724 0.950 . S
H1695 C1725 0.950 . S
C1696 H1678 0.951 . S
C1696 C1697 1.366 . S
C1696 C1698 1.388 . S
C1697 C1696 1.366 . S
C1697 C1701 1.385 . S
C1698 H1679 0.951 . S
C1698 C1696 1.388 . S
C1698 C1699 1.366 . S
C1699 C1698 1.366 . S
C1699 C1700 1.414 . S
C1699 C1702 1.499 . S
C1700 H1680 0.950 . S
C1700 C1699 1.414 . S
C1700 C1701 1.374 . S
C1701 H1681 0.950 . S
C1701 C1697 1.385 . S
C1701 C1700 1.374 . S
C1702 C1699 1.499 . S
C1702 C1703 1.373 . S
C1702 C1704 1.389 . S
C1703 H1682 0.950 . S
C1703 C1702 1.373 . S
C1703 C1719 1.377 . S
C1704 C1702 1.389 . S
C1704 C1705 1.524 . S
C1704 C1718 1.377 . S
C1705 C1704 1.524 . S
C1705 C1706 1.397 . S
C1705 C1710 1.363 . S
C1706 H1683 0.950 . S
C1706 C1705 1.397 . S
C1706 C1707 1.334 . S
C1707 H1684 0.950 . S
C1707 C1706 1.334 . S
C1707 C1708 1.287 . S
C1708 C1707 1.287 . S
C1708 C1709 1.524 . S
C1708 H1727 0.913 . S
C1709 H1685 0.950 . S
C1709 C1708 1.524 . S
C1709 C1710 1.415 . S
C1710 H1686 0.950 . S
C1710 C1705 1.363 . S
C1710 C1709 1.415 . S
C1711 H1687 0.951 . S
C1711 C1712 1.366 . S
C1711 C1713 1.388 . S
C1712 C1711 1.366 . S
C1712 C1716 1.385 . S
C1713 H1688 0.951 . S
C1713 C1711 1.388 . S
C1713 C1714 1.366 . S
C1714 C1713 1.366 . S
C1714 C1715 1.414 . S
C1714 C1717 1.499 . S
C1715 H1689 0.950 . S
C1715 C1714 1.414 . S
C1715 C1716 1.374 . S
C1716 H1690 0.950 . S
C1716 C1712 1.385 . S
C1716 C1715 1.374 . S
C1717 C1714 1.499 . S
C1717 C1718 1.373 . S
C1717 C1719 1.389 . S
C1718 H1691 0.950 . S
C1718 C1704 1.377 . S
C1718 C1717 1.373 . S
C1719 C1703 1.377 . S
C1719 C1717 1.389 . S
C1719 C1720 1.524 . S
C1720 C1719 1.524 . S
C1720 C1721 1.397 . S
C1720 C1725 1.363 . S
C1721 H1692 0.950 . S
C1721 C1720 1.397 . S
C1721 C1722 1.334 . S
C1722 H1693 0.950 . S
C1722 C1721 1.334 . S
C1722 C1723 1.287 . S
C1723 C1722 1.287 . S
C1723 C1724 1.524 . S
C1723 H1726 0.999 . S
C1724 H1694 0.950 . S
C1724 C1723 1.524 . S
C1724 C1725 1.415 . S
C1725 H1695 0.950 . S
C1725 C1720 1.363 . S
C1725 C1724 1.415 . S
H1726 C1723 0.999 . S
H1727 C1708 0.913 . S
H1728 C1746 0.951 . S
H1729 C1748 0.951 . S
H1730 C1750 0.950 . S
H1731 C1751 0.950 . S
H1732 C1753 0.950 . S
H1733 C1756 0.950 . S
H1734 C1757 0.950 . S
H1735 C1759 0.950 . S
H1736 C1760 0.950 . S
H1737 C1761 0.951 . S
H1738 C1763 0.951 . S
H1739 C1765 0.950 . S
H1740 C1766 0.950 . S
H1741 C1768 0.950 . S
H1742 C1771 0.950 . S
H1743 C1772 0.950 . S
H1744 C1774 0.950 . S
H1745 C1775 0.950 . S
C1746 H1728 0.951 . S
C1746 C1747 1.366 . S
C1746 C1748 1.388 . S
C1747 C1746 1.366 . S
C1747 C1751 1.385 . S
C1748 H1729 0.951 . S
C1748 C1746 1.388 . S
C1748 C1749 1.366 . S
C1749 C1748 1.366 . S
C1749 C1750 1.414 . S
C1749 C1752 1.499 . S
C1750 H1730 0.950 . S
C1750 C1749 1.414 . S
C1750 C1751 1.374 . S
C1751 H1731 0.950 . S
C1751 C1747 1.385 . S
C1751 C1750 1.374 . S
C1752 C1749 1.499 . S
C1752 C1753 1.373 . S
C1752 C1754 1.389 . S
C1753 H1732 0.950 . S
C1753 C1752 1.373 . S
C1753 C1769 1.377 . S
C1754 C1752 1.389 . S
C1754 C1755 1.524 . S
C1754 C1768 1.377 . S
C1755 C1754 1.524 . S
C1755 C1756 1.397 . S
C1755 C1760 1.363 . S
C1756 H1733 0.950 . S
C1756 C1755 1.397 . S
C1756 C1757 1.334 . S
C1757 H1734 0.950 . S
C1757 C1756 1.334 . S
C1757 C1758 1.287 . S
C1758 C1757 1.287 . S
C1758 C1759 1.524 . S
C1758 H1777 0.913 . S
C1759 H1735 0.950 . S
C1759 C1758 1.524 . S
C1759 C1760 1.415 . S
C1760 H1736 0.950 . S
C1760 C1755 1.363 . S
C1760 C1759 1.415 . S
C1761 H1737 0.951 . S
C1761 C1762 1.366 . S
C1761 C1763 1.388 . S
C1762 C1761 1.366 . S
C1762 C1766 1.385 . S
C1763 H1738 0.951 . S
C1763 C1761 1.388 . S
C1763 C1764 1.366 . S
C1764 C1763 1.366 . S
C1764 C1765 1.414 . S
C1764 C1767 1.499 . S
C1765 H1739 0.950 . S
C1765 C1764 1.414 . S
C1765 C1766 1.374 . S
C1766 H1740 0.950 . S
C1766 C1762 1.385 . S
C1766 C1765 1.374 . S
C1767 C1764 1.499 . S
C1767 C1768 1.373 . S
C1767 C1769 1.389 . S
C1768 H1741 0.950 . S
C1768 C1754 1.377 . S
C1768 C1767 1.373 . S
C1769 C1753 1.377 . S
C1769 C1767 1.389 . S
C1769 C1770 1.524 . S
C1770 C1769 1.524 . S
C1770 C1771 1.397 . S
C1770 C1775 1.363 . S
C1771 H1742 0.950 . S
C1771 C1770 1.397 . S
C1771 C1772 1.334 . S
C1772 H1743 0.950 . S
C1772 C1771 1.334 . S
C1772 C1773 1.287 . S
C1773 C1772 1.287 . S
C1773 C1774 1.524 . S
C1773 H1776 0.999 . S
C1774 H1744 0.950 . S
C1774 C1773 1.524 . S
C1774 C1775 1.415 . S
C1775 H1745 0.950 . S
C1775 C1770 1.363 . S
C1775 C1774 1.415 . S
H1776 C1773 0.999 . S
H1777 C1758 0.913 . S
H1778 C1796 0.951 . S
H1779 C1798 0.951 . S
H1780 C1800 0.950 . S
H1781 C1801 0.950 . S
H1782 C1803 0.950 . S
H1783 C1806 0.950 . S
H1784 C1807 0.950 . S
H1785 C1809 0.950 . S
H1786 C1810 0.950 . S
H1787 C1811 0.951 . S
H1788 C1813 0.951 . S
H1789 C1815 0.950 . S
H1790 C1816 0.950 . S
H1791 C1818 0.950 . S
H1792 C1821 0.950 . S
H1793 C1822 0.950 . S
H1794 C1824 0.950 . S
H1795 C1825 0.950 . S
C1796 H1778 0.951 . S
C1796 C1797 1.366 . S
C1796 C1798 1.388 . S
C1797 C1796 1.366 . S
C1797 C1801 1.385 . S
C1798 H1779 0.951 . S
C1798 C1796 1.388 . S
C1798 C1799 1.366 . S
C1799 C1798 1.366 . S
C1799 C1800 1.414 . S
C1799 C1802 1.499 . S
C1800 H1780 0.950 . S
C1800 C1799 1.414 . S
C1800 C1801 1.374 . S
C1801 H1781 0.950 . S
C1801 C1797 1.385 . S
C1801 C1800 1.374 . S
C1802 C1799 1.499 . S
C1802 C1803 1.373 . S
C1802 C1804 1.389 . S
C1803 H1782 0.950 . S
C1803 C1802 1.373 . S
C1803 C1819 1.377 . S
C1804 C1802 1.389 . S
C1804 C1805 1.524 . S
C1804 C1818 1.377 . S
C1805 C1804 1.524 . S
C1805 C1806 1.397 . S
C1805 C1810 1.363 . S
C1806 H1783 0.950 . S
C1806 C1805 1.397 . S
C1806 C1807 1.334 . S
C1807 H1784 0.950 . S
C1807 C1806 1.334 . S
C1807 C1808 1.287 . S
C1808 C1807 1.287 . S
C1808 C1809 1.524 . S
C1808 H1827 0.913 . S
C1809 H1785 0.950 . S
C1809 C1808 1.524 . S
C1809 C1810 1.415 . S
C1810 H1786 0.950 . S
C1810 C1805 1.363 . S
C1810 C1809 1.415 . S
C1811 H1787 0.951 . S
C1811 C1812 1.366 . S
C1811 C1813 1.388 . S
C1812 C1811 1.366 . S
C1812 C1816 1.385 . S
C1813 H1788 0.951 . S
C1813 C1811 1.388 . S
C1813 C1814 1.366 . S
C1814 C1813 1.366 . S
C1814 C1815 1.414 . S
C1814 C1817 1.499 . S
C1815 H1789 0.950 . S
C1815 C1814 1.414 . S
C1815 C1816 1.374 . S
C1816 H1790 0.950 . S
C1816 C1812 1.385 . S
C1816 C1815 1.374 . S
C1817 C1814 1.499 . S
C1817 C1818 1.373 . S
C1817 C1819 1.389 . S
C1818 H1791 0.950 . S
C1818 C1804 1.377 . S
C1818 C1817 1.373 . S
C1819 C1803 1.377 . S
C1819 C1817 1.389 . S
C1819 C1820 1.524 . S
C1820 C1819 1.524 . S
C1820 C1821 1.397 . S
C1820 C1825 1.363 . S
C1821 H1792 0.950 . S
C1821 C1820 1.397 . S
C1821 C1822 1.334 . S
C1822 H1793 0.950 . S
C1822 C1821 1.334 . S
C1822 C1823 1.287 . S
C1823 C1822 1.287 . S
C1823 C1824 1.524 . S
C1823 H1826 0.999 . S
C1824 H1794 0.950 . S
C1824 C1823 1.524 . S
C1824 C1825 1.415 . S
C1825 H1795 0.950 . S
C1825 C1820 1.363 . S
C1825 C1824 1.415 . S
H1826 C1823 0.999 . S
H1827 C1808 0.913 . S
H1828 C1846 0.951 . S
H1829 C1848 0.951 . S
H1830 C1850 0.950 . S
H1831 C1851 0.950 . S
H1832 C1853 0.950 . S
H1833 C1856 0.950 . S
H1834 C1857 0.950 . S
H1835 C1859 0.950 . S
H1836 C1860 0.950 . S
H1837 C1861 0.951 . S
H1838 C1863 0.951 . S
H1839 C1865 0.950 . S
H1840 C1866 0.950 . S
H1841 C1868 0.950 . S
H1842 C1871 0.950 . S
H1843 C1872 0.950 . S
H1844 C1874 0.950 . S
H1845 C1875 0.950 . S
C1846 H1828 0.951 . S
C1846 C1847 1.366 . S
C1846 C1848 1.388 . S
C1847 C1846 1.366 . S
C1847 C1851 1.385 . S
C1848 H1829 0.951 . S
C1848 C1846 1.388 . S
C1848 C1849 1.366 . S
C1849 C1848 1.366 . S
C1849 C1850 1.414 . S
C1849 C1852 1.499 . S
C1850 H1830 0.950 . S
C1850 C1849 1.414 . S
C1850 C1851 1.374 . S
C1851 H1831 0.950 . S
C1851 C1847 1.385 . S
C1851 C1850 1.374 . S
C1852 C1849 1.499 . S
C1852 C1853 1.373 . S
C1852 C1854 1.389 . S
C1853 H1832 0.950 . S
C1853 C1852 1.373 . S
C1853 C1869 1.377 . S
C1854 C1852 1.389 . S
C1854 C1855 1.524 . S
C1854 C1868 1.377 . S
C1855 C1854 1.524 . S
C1855 C1856 1.397 . S
C1855 C1860 1.363 . S
C1856 H1833 0.950 . S
C1856 C1855 1.397 . S
C1856 C1857 1.334 . S
C1857 H1834 0.950 . S
C1857 C1856 1.334 . S
C1857 C1858 1.287 . S
C1858 C1857 1.287 . S
C1858 C1859 1.524 . S
C1858 H1877 0.913 . S
C1859 H1835 0.950 . S
C1859 C1858 1.524 . S
C1859 C1860 1.415 . S
C1860 H1836 0.950 . S
C1860 C1855 1.363 . S
C1860 C1859 1.415 . S
C1861 H1837 0.951 . S
C1861 C1862 1.366 . S
C1861 C1863 1.388 . S
C1862 C1861 1.366 . S
C1862 C1866 1.385 . S
C1863 H1838 0.951 . S
C1863 C1861 1.388 . S
C1863 C1864 1.366 . S
C1864 C1863 1.366 . S
C1864 C1865 1.414 . S
C1864 C1867 1.499 . S
C1865 H1839 0.950 . S
C1865 C1864 1.414 . S
C1865 C1866 1.374 . S
C1866 H1840 0.950 . S
C1866 C1862 1.385 . S
C1866 C1865 1.374 . S
C1867 C1864 1.499 . S
C1867 C1868 1.373 . S
C1867 C1869 1.389 . S
C1868 H1841 0.950 . S
C1868 C1854 1.377 . S
C1868 C1867 1.373 . S
C1869 C1853 1.377 . S
C1869 C1867 1.389 . S
C1869 C1870 1.524 . S
C1870 C1869 1.524 . S
C1870 C1871 1.397 . S
C1870 C1875 1.363 . S
C1871 H1842 0.950 . S
C1871 C1870 1.397 . S
C1871 C1872 1.334 . S
C1872 H1843 0.950 . S
C1872 C1871 1.334 . S
C1872 C1873 1.287 . S
C1873 C1872 1.287 . S
C1873 C1874 1.524 . S
C1873 H1876 0.999 . S
C1874 H1844 0.950 . S
C1874 C1873 1.524 . S
C1874 C1875 1.415 . S
C1875 H1845 0.950 . S
C1875 C1870 1.363 . S
C1875 C1874 1.415 . S
H1876 C1873 0.999 . S
H1877 C1858 0.913 . S
H1878 C1896 0.951 . S
H1879 C1898 0.951 . S
H1880 C1900 0.950 . S
H1881 C1901 0.950 . S
H1882 C1903 0.950 . S
H1883 C1906 0.950 . S
H1884 C1907 0.950 . S
H1885 C1909 0.950 . S
H1886 C1910 0.950 . S
H1887 C1911 0.951 . S
H1888 C1913 0.951 . S
H1889 C1915 0.950 . S
H1890 C1916 0.950 . S
H1891 C1918 0.950 . S
H1892 C1921 0.950 . S
H1893 C1922 0.950 . S
H1894 C1924 0.950 . S
H1895 C1925 0.950 . S
C1896 H1878 0.951 . S
C1896 C1897 1.366 . S
C1896 C1898 1.388 . S
C1897 C1896 1.366 . S
C1897 C1901 1.385 . S
C1898 H1879 0.951 . S
C1898 C1896 1.388 . S
C1898 C1899 1.366 . S
C1899 C1898 1.366 . S
C1899 C1900 1.414 . S
C1899 C1902 1.499 . S
C1900 H1880 0.950 . S
C1900 C1899 1.414 . S
C1900 C1901 1.374 . S
C1901 H1881 0.950 . S
C1901 C1897 1.385 . S
C1901 C1900 1.374 . S
C1902 C1899 1.499 . S
C1902 C1903 1.373 . S
C1902 C1904 1.389 . S
C1903 H1882 0.950 . S
C1903 C1902 1.373 . S
C1903 C1919 1.377 . S
C1904 C1902 1.389 . S
C1904 C1905 1.524 . S
C1904 C1918 1.377 . S
C1905 C1904 1.524 . S
C1905 C1906 1.397 . S
C1905 C1910 1.363 . S
C1906 H1883 0.950 . S
C1906 C1905 1.397 . S
C1906 C1907 1.334 . S
C1907 H1884 0.950 . S
C1907 C1906 1.334 . S
C1907 C1908 1.287 . S
C1908 C1907 1.287 . S
C1908 C1909 1.524 . S
C1908 H1927 0.913 . S
C1909 H1885 0.950 . S
C1909 C1908 1.524 . S
C1909 C1910 1.415 . S
C1910 H1886 0.950 . S
C1910 C1905 1.363 . S
C1910 C1909 1.415 . S
C1911 H1887 0.951 . S
C1911 C1912 1.366 . S
C1911 C1913 1.388 . S
C1912 C1911 1.366 . S
C1912 C1916 1.385 . S
C1913 H1888 0.951 . S
C1913 C1911 1.388 . S
C1913 C1914 1.366 . S
C1914 C1913 1.366 . S
C1914 C1915 1.414 . S
C1914 C1917 1.499 . S
C1915 H1889 0.950 . S
C1915 C1914 1.414 . S
C1915 C1916 1.374 . S
C1916 H1890 0.950 . S
C1916 C1912 1.385 . S
C1916 C1915 1.374 . S
C1917 C1914 1.499 . S
C1917 C1918 1.373 . S
C1917 C1919 1.389 . S
C1918 H1891 0.950 . S
C1918 C1904 1.377 . S
C1918 C1917 1.373 . S
C1919 C1903 1.377 . S
C1919 C1917 1.389 . S
C1919 C1920 1.524 . S
C1920 C1919 1.524 . S
C1920 C1921 1.397 . S
C1920 C1925 1.363 . S
C1921 H1892 0.950 . S
C1921 C1920 1.397 . S
C1921 C1922 1.334 . S
C1922 H1893 0.950 . S
C1922 C1921 1.334 . S
C1922 C1923 1.287 . S
C1923 C1922 1.287 . S
C1923 C1924 1.524 . S
C1923 H1926 0.999 . S
C1924 H1894 0.950 . S
C1924 C1923 1.524 . S
C1924 C1925 1.415 . S
C1925 H1895 0.950 . S
C1925 C1920 1.363 . S
C1925 C1924 1.415 . S
H1926 C1923 0.999 . S
H1927 C1908 0.913 . S
H1928 C1946 0.951 . S
H1929 C1948 0.951 . S
H1930 C1950 0.950 . S
H1931 C1951 0.950 . S
H1932 C1953 0.950 . S
H1933 C1956 0.950 . S
H1934 C1957 0.950 . S
H1935 C1959 0.950 . S
H1936 C1960 0.950 . S
H1937 C1961 0.951 . S
H1938 C1963 0.951 . S
H1939 C1965 0.950 . S
H1940 C1966 0.950 . S
H1941 C1968 0.950 . S
H1942 C1971 0.950 . S
H1943 C1972 0.950 . S
H1944 C1974 0.950 . S
H1945 C1975 0.950 . S
C1946 H1928 0.951 . S
C1946 C1947 1.366 . S
C1946 C1948 1.388 . S
C1947 C1946 1.366 . S
C1947 C1951 1.385 . S
C1948 H1929 0.951 . S
C1948 C1946 1.388 . S
C1948 C1949 1.366 . S
C1949 C1948 1.366 . S
C1949 C1950 1.414 . S
C1949 C1952 1.499 . S
C1950 H1930 0.950 . S
C1950 C1949 1.414 . S
C1950 C1951 1.374 . S
C1951 H1931 0.950 . S
C1951 C1947 1.385 . S
C1951 C1950 1.374 . S
C1952 C1949 1.499 . S
C1952 C1953 1.373 . S
C1952 C1954 1.389 . S
C1953 H1932 0.950 . S
C1953 C1952 1.373 . S
C1953 C1969 1.377 . S
C1954 C1952 1.389 . S
C1954 C1955 1.524 . S
C1954 C1968 1.377 . S
C1955 C1954 1.524 . S
C1955 C1956 1.397 . S
C1955 C1960 1.363 . S
C1956 H1933 0.950 . S
C1956 C1955 1.397 . S
C1956 C1957 1.334 . S
C1957 H1934 0.950 . S
C1957 C1956 1.334 . S
C1957 C1958 1.287 . S
C1958 C1957 1.287 . S
C1958 C1959 1.524 . S
C1958 H1977 0.913 . S
C1959 H1935 0.950 . S
C1959 C1958 1.524 . S
C1959 C1960 1.415 . S
C1960 H1936 0.950 . S
C1960 C1955 1.363 . S
C1960 C1959 1.415 . S
C1961 H1937 0.951 . S
C1961 C1962 1.366 . S
C1961 C1963 1.388 . S
C1962 C1961 1.366 . S
C1962 C1966 1.385 . S
C1963 H1938 0.951 . S
C1963 C1961 1.388 . S
C1963 C1964 1.366 . S
C1964 C1963 1.366 . S
C1964 C1965 1.414 . S
C1964 C1967 1.499 . S
C1965 H1939 0.950 . S
C1965 C1964 1.414 . S
C1965 C1966 1.374 . S
C1966 H1940 0.950 . S
C1966 C1962 1.385 . S
C1966 C1965 1.374 . S
C1967 C1964 1.499 . S
C1967 C1968 1.373 . S
C1967 C1969 1.389 . S
C1968 H1941 0.950 . S
C1968 C1954 1.377 . S
C1968 C1967 1.373 . S
C1969 C1953 1.377 . S
C1969 C1967 1.389 . S
C1969 C1970 1.524 . S
C1970 C1969 1.524 . S
C1970 C1971 1.397 . S
C1970 C1975 1.363 . S
C1971 H1942 0.950 . S
C1971 C1970 1.397 . S
C1971 C1972 1.334 . S
C1972 H1943 0.950 . S
C1972 C1971 1.334 . S
C1972 C1973 1.287 . S
C1973 C1972 1.287 . S
C1973 C1974 1.524 . S
C1973 H1976 0.999 . S
C1974 H1944 0.950 . S
C1974 C1973 1.524 . S
C1974 C1975 1.415 . S
C1975 H1945 0.950 . S
C1975 C1970 1.363 . S
C1975 C1974 1.415 . S
H1976 C1973 0.999 . S
H1977 C1958 0.913 . S
H1978 C1996 0.951 . S
H1979 C1998 0.951 . S
H1980 C2000 0.950 . S
H1981 C2001 0.950 . S
H1982 C2003 0.950 . S
H1983 C2006 0.950 . S
H1984 C2007 0.950 . S
H1985 C2009 0.950 . S
H1986 C2010 0.950 . S
H1987 C2011 0.951 . S
H1988 C2013 0.951 . S
H1989 C2015 0.950 . S
H1990 C2016 0.950 . S
H1991 C2018 0.950 . S
H1992 C2021 0.950 . S
H1993 C2022 0.950 . S
H1994 C2024 0.950 . S
H1995 C2025 0.950 . S
C1996 H1978 0.951 . S
C1996 C1997 1.366 . S
C1996 C1998 1.388 . S
C1997 C1996 1.366 . S
C1997 C2001 1.385 . S
C1998 H1979 0.951 . S
C1998 C1996 1.388 . S
C1998 C1999 1.366 . S
C1999 C1998 1.366 . S
C1999 C2000 1.414 . S
C1999 C2002 1.499 . S
C2000 H1980 0.950 . S
C2000 C1999 1.414 . S
C2000 C2001 1.374 . S
C2001 H1981 0.950 . S
C2001 C1997 1.385 . S
C2001 C2000 1.374 . S
C2002 C1999 1.499 . S
C2002 C2003 1.373 . S
C2002 C2004 1.389 . S
C2003 H1982 0.950 . S
C2003 C2002 1.373 . S
C2003 C2019 1.377 . S
C2004 C2002 1.389 . S
C2004 C2005 1.524 . S
C2004 C2018 1.377 . S
C2005 C2004 1.524 . S
C2005 C2006 1.397 . S
C2005 C2010 1.363 . S
C2006 H1983 0.950 . S
C2006 C2005 1.397 . S
C2006 C2007 1.334 . S
C2007 H1984 0.950 . S
C2007 C2006 1.334 . S
C2007 C2008 1.287 . S
C2008 C2007 1.287 . S
C2008 C2009 1.524 . S
C2008 H2027 0.913 . S
C2009 H1985 0.950 . S
C2009 C2008 1.524 . S
C2009 C2010 1.415 . S
C2010 H1986 0.950 . S
C2010 C2005 1.363 . S
C2010 C2009 1.415 . S
C2011 H1987 0.951 . S
C2011 C2012 1.366 . S
C2011 C2013 1.388 . S
C2012 C2011 1.366 . S
C2012 C2016 1.385 . S
C2013 H1988 0.951 . S
C2013 C2011 1.388 . S
C2013 C2014 1.366 . S
C2014 C2013 1.366 . S
C2014 C2015 1.414 . S
C2014 C2017 1.499 . S
C2015 H1989 0.950 . S
C2015 C2014 1.414 . S
C2015 C2016 1.374 . S
C2016 H1990 0.950 . S
C2016 C2012 1.385 . S
C2016 C2015 1.374 . S
C2017 C2014 1.499 . S
C2017 C2018 1.373 . S
C2017 C2019 1.389 . S
C2018 H1991 0.950 . S
C2018 C2004 1.377 . S
C2018 C2017 1.373 . S
C2019 C2003 1.377 . S
C2019 C2017 1.389 . S
C2019 C2020 1.524 . S
C2020 C2019 1.524 . S
C2020 C2021 1.397 . S
C2020 C2025 1.363 . S
C2021 H1992 0.950 . S
C2021 C2020 1.397 . S
C2021 C2022 1.334 . S
C2022 H1993 0.950 . S
C2022 C2021 1.334 . S
C2022 C2023 1.287 . S
C2023 C2022 1.287 . S
C2023 C2024 1.524 . S
C2023 H2026 0.999 . S
C2024 H1994 0.950 . S
C2024 C2023 1.524 . S
C2024 C2025 1.415 . S
C2025 H1995 0.950 . S
C2025 C2020 1.363 . S
C2025 C2024 1.415 . S
H2026 C2023 0.999 . S
H2027 C2008 0.913 . S
H2028 C2046 0.951 . S
H2029 C2048 0.951 . S
H2030 C2050 0.950 . S
H2031 C2051 0.950 . S
H2032 C2053 0.950 . S
H2033 C2056 0.950 . S
H2034 C2057 0.950 . S
H2035 C2059 0.950 . S
H2036 C2060 0.950 . S
H2037 C2061 0.951 . S
H2038 C2063 0.951 . S
H2039 C2065 0.950 . S
H2040 C2066 0.950 . S
H2041 C2068 0.950 . S
H2042 C2071 0.950 . S
H2043 C2072 0.950 . S
H2044 C2074 0.950 . S
H2045 C2075 0.950 . S
C2046 H2028 0.951 . S
C2046 C2047 1.366 . S
C2046 C2048 1.388 . S
C2047 C2046 1.366 . S
C2047 C2051 1.385 . S
C2048 H2029 0.951 . S
C2048 C2046 1.388 . S
C2048 C2049 1.366 . S
C2049 C2048 1.366 . S
C2049 C2050 1.414 . S
C2049 C2052 1.499 . S
C2050 H2030 0.950 . S
C2050 C2049 1.414 . S
C2050 C2051 1.374 . S
C2051 H2031 0.950 . S
C2051 C2047 1.385 . S
C2051 C2050 1.374 . S
C2052 C2049 1.499 . S
C2052 C2053 1.373 . S
C2052 C2054 1.389 . S
C2053 H2032 0.950 . S
C2053 C2052 1.373 . S
C2053 C2069 1.377 . S
C2054 C2052 1.389 . S
C2054 C2055 1.524 . S
C2054 C2068 1.377 . S
C2055 C2054 1.524 . S
C2055 C2056 1.397 . S
C2055 C2060 1.363 . S
C2056 H2033 0.950 . S
C2056 C2055 1.397 . S
C2056 C2057 1.334 . S
C2057 H2034 0.950 . S
C2057 C2056 1.334 . S
C2057 C2058 1.287 . S
C2058 C2057 1.287 . S
C2058 C2059 1.524 . S
C2058 H2077 0.913 . S
C2059 H2035 0.950 . S
C2059 C2058 1.524 . S
C2059 C2060 1.415 . S
C2060 H2036 0.950 . S
C2060 C2055 1.363 . S
C2060 C2059 1.415 . S
C2061 H2037 0.951 . S
C2061 C2062 1.366 . S
C2061 C2063 1.388 . S
C2062 C2061 1.366 . S
C2062 C2066 1.385 . S
C2063 H2038 0.951 . S
C2063 C2061 1.388 . S
C2063 C2064 1.366 . S
C2064 C2063 1.366 . S
C2064 C2065 1.414 . S
C2064 C2067 1.499 . S
C2065 H2039 0.950 . S
C2065 C2064 1.414 . S
C2065 C2066 1.374 . S
C2066 H2040 0.950 . S
C2066 C2062 1.385 . S
C2066 C2065 1.374 . S
C2067 C2064 1.499 . S
C2067 C2068 1.373 . S
C2067 C2069 1.389 . S
C2068 H2041 0.950 . S
C2068 C2054 1.377 . S
C2068 C2067 1.373 . S
C2069 C2053 1.377 . S
C2069 C2067 1.389 . S
C2069 C2070 1.524 . S
C2070 C2069 1.524 . S
C2070 C2071 1.397 . S
C2070 C2075 1.363 . S
C2071 H2042 0.950 . S
C2071 C2070 1.397 . S
C2071 C2072 1.334 . S
C2072 H2043 0.950 . S
C2072 C2071 1.334 . S
C2072 C2073 1.287 . S
C2073 C2072 1.287 . S
C2073 C2074 1.524 . S
C2073 H2076 0.999 . S
C2074 H2044 0.950 . S
C2074 C2073 1.524 . S
C2074 C2075 1.415 . S
C2075 H2045 0.950 . S
C2075 C2070 1.363 . S
C2075 C2074 1.415 . S
H2076 C2073 0.999 . S
H2077 C2058 0.913 . S
H2078 C2096 0.951 . S
H2079 C2098 0.951 . S
H2080 C2100 0.950 . S
H2081 C2101 0.950 . S
H2082 C2103 0.950 . S
H2083 C2106 0.950 . S
H2084 C2107 0.950 . S
H2085 C2109 0.950 . S
H2086 C2110 0.950 . S
H2087 C2111 0.951 . S
H2088 C2113 0.951 . S
H2089 C2115 0.950 . S
H2090 C2116 0.950 . S
H2091 C2118 0.950 . S
H2092 C2121 0.950 . S
H2093 C2122 0.950 . S
H2094 C2124 0.950 . S
H2095 C2125 0.950 . S
C2096 H2078 0.951 . S
C2096 C2097 1.366 . S
C2096 C2098 1.388 . S
C2097 C2096 1.366 . S
C2097 C2101 1.385 . S
C2098 H2079 0.951 . S
C2098 C2096 1.388 . S
C2098 C2099 1.366 . S
C2099 C2098 1.366 . S
C2099 C2100 1.414 . S
C2099 C2102 1.499 . S
C2100 H2080 0.950 . S
C2100 C2099 1.414 . S
C2100 C2101 1.374 . S
C2101 H2081 0.950 . S
C2101 C2097 1.385 . S
C2101 C2100 1.374 . S
C2102 C2099 1.499 . S
C2102 C2103 1.373 . S
C2102 C2104 1.389 . S
C2103 H2082 0.950 . S
C2103 C2102 1.373 . S
C2103 C2119 1.377 . S
C2104 C2102 1.389 . S
C2104 C2105 1.524 . S
C2104 C2118 1.377 . S
C2105 C2104 1.524 . S
C2105 C2106 1.397 . S
C2105 C2110 1.363 . S
C2106 H2083 0.950 . S
C2106 C2105 1.397 . S
C2106 C2107 1.334 . S
C2107 H2084 0.950 . S
C2107 C2106 1.334 . S
C2107 C2108 1.287 . S
C2108 C2107 1.287 . S
C2108 C2109 1.524 . S
C2108 H2127 0.913 . S
C2109 H2085 0.950 . S
C2109 C2108 1.524 . S
C2109 C2110 1.415 . S
C2110 H2086 0.950 . S
C2110 C2105 1.363 . S
C2110 C2109 1.415 . S
C2111 H2087 0.951 . S
C2111 C2112 1.366 . S
C2111 C2113 1.388 . S
C2112 C2111 1.366 . S
C2112 C2116 1.385 . S
C2113 H2088 0.951 . S
C2113 C2111 1.388 . S
C2113 C2114 1.366 . S
C2114 C2113 1.366 . S
C2114 C2115 1.414 . S
C2114 C2117 1.499 . S
C2115 H2089 0.950 . S
C2115 C2114 1.414 . S
C2115 C2116 1.374 . S
C2116 H2090 0.950 . S
C2116 C2112 1.385 . S
C2116 C2115 1.374 . S
C2117 C2114 1.499 . S
C2117 C2118 1.373 . S
C2117 C2119 1.389 . S
C2118 H2091 0.950 . S
C2118 C2104 1.377 . S
C2118 C2117 1.373 . S
C2119 C2103 1.377 . S
C2119 C2117 1.389 . S
C2119 C2120 1.524 . S
C2120 C2119 1.524 . S
C2120 C2121 1.397 . S
C2120 C2125 1.363 . S
C2121 H2092 0.950 . S
C2121 C2120 1.397 . S
C2121 C2122 1.334 . S
C2122 H2093 0.950 . S
C2122 C2121 1.334 . S
C2122 C2123 1.287 . S
C2123 C2122 1.287 . S
C2123 C2124 1.524 . S
C2123 H2126 0.999 . S
C2124 H2094 0.950 . S
C2124 C2123 1.524 . S
C2124 C2125 1.415 . S
C2125 H2095 0.950 . S
C2125 C2120 1.363 . S
C2125 C2124 1.415 . S
H2126 C2123 0.999 . S
H2127 C2108 0.913 . S
H2128 C2146 0.951 . S
H2129 C2148 0.951 . S
H2130 C2150 0.950 . S
H2131 C2151 0.950 . S
H2132 C2153 0.950 . S
H2133 C2156 0.950 . S
H2134 C2157 0.950 . S
H2135 C2159 0.950 1_565 S
H2136 C2160 0.950 1_565 S
H2137 C2161 0.951 . S
H2138 C2163 0.951 . S
H2139 C2165 0.966 . S
H2140 C2166 0.985 . S
H2141 C2168 0.950 . S
H2142 C2171 0.950 . S
H2143 C2172 0.950 . S
H2144 C2174 0.950 . S
H2145 C2175 0.950 . S
C2146 H2128 0.951 . S
C2146 C2147 1.366 . S
C2146 C2148 1.388 . S
C2147 C2146 1.366 . S
C2147 C2151 1.385 . S
C2148 H2129 0.951 . S
C2148 C2146 1.388 . S
C2148 C2149 1.366 . S
C2149 C2148 1.366 . S
C2149 C2150 1.414 . S
C2149 C2152 1.499 . S
C2150 H2130 0.950 . S
C2150 C2149 1.414 . S
C2150 C2151 1.374 . S
C2151 H2131 0.950 . S
C2151 C2147 1.385 . S
C2151 C2150 1.374 . S
C2152 C2149 1.499 . S
C2152 C2153 1.373 . S
C2152 C2154 1.389 . S
C2153 H2132 0.950 . S
C2153 C2152 1.373 . S
C2153 C2169 1.377 1_556 S
C2154 C2152 1.389 . S
C2154 C2155 1.524 . S
C2154 C2168 1.377 1_556 S
C2155 C2154 1.524 . S
C2155 C2156 1.397 . S
C2155 C2160 1.363 . S
C2156 H2133 0.950 . S
C2156 C2155 1.397 . S
C2156 C2157 1.334 . S
C2157 H2134 0.950 . S
C2157 C2156 1.334 . S
C2157 C2158 1.287 . S
C2158 C2157 1.287 . S
C2158 C2159 1.524 . S
C2158 H2177 0.913 . S
C2159 H2135 0.950 1_545 S
C2159 C2158 1.524 . S
C2159 C2160 1.415 . S
C2160 H2136 0.950 1_545 S
C2160 C2155 1.363 . S
C2160 C2159 1.415 . S
C2161 H2137 0.951 . S
C2161 C2162 1.366 . S
C2161 C2163 1.388 . S
C2162 C2161 1.366 . S
C2162 C2166 1.385 . S
C2163 H2138 0.951 . S
C2163 C2161 1.388 . S
C2163 C2164 1.366 . S
C2164 C2163 1.366 . S
C2164 C2165 1.414 . S
C2164 C2167 1.499 . S
C2165 H2139 0.966 . S
C2165 C2164 1.414 . S
C2165 C2166 1.374 . S
C2166 H2140 0.985 . S
C2166 C2162 1.385 . S
C2166 C2165 1.374 . S
C2167 C2164 1.499 . S
C2167 C2168 1.373 . S
C2167 C2169 1.389 . S
C2168 H2141 0.950 . S
C2168 C2154 1.377 1_554 S
C2168 C2167 1.373 . S
C2169 C2153 1.377 1_554 S
C2169 C2167 1.389 . S
C2169 C2170 1.524 . S
C2170 C2169 1.524 . S
C2170 C2171 1.397 . S
C2170 C2175 1.363 . S
C2171 H2142 0.950 . S
C2171 C2170 1.397 . S
C2171 C2172 1.334 . S
C2172 H2143 0.950 . S
C2172 C2171 1.334 . S
C2172 C2173 1.287 . S
C2173 C2172 1.287 . S
C2173 C2174 1.524 . S
C2173 H2176 0.999 . S
C2174 H2144 0.950 . S
C2174 C2173 1.524 . S
C2174 C2175 1.415 . S
C2175 H2145 0.950 . S
C2175 C2170 1.363 . S
C2175 C2174 1.415 . S
H2176 C2173 0.999 . S
H2177 C2158 0.913 . S
H2178 C2196 0.951 . S
H2179 C2198 0.951 . S
H2180 C2200 0.950 . S
H2181 C2201 0.950 . S
H2182 C2203 0.950 . S
H2183 C2206 0.950 . S
H2184 C2207 0.950 . S
H2185 C2209 0.950 . S
H2186 C2210 0.950 . S
H2187 C2211 0.951 . S
H2188 C2213 0.951 . S
H2189 C2215 0.950 . S
H2190 C2216 0.950 . S
H2191 C2218 0.950 . S
H2192 C2221 0.950 . S
H2193 C2222 0.950 . S
H2194 C2224 0.950 . S
H2195 C2225 0.950 . S
C2196 H2178 0.951 . S
C2196 C2197 1.366 . S
C2196 C2198 1.388 . S
C2197 C2196 1.366 . S
C2197 C2201 1.385 . S
C2198 H2179 0.951 . S
C2198 C2196 1.388 . S
C2198 C2199 1.366 . S
C2199 C2198 1.366 . S
C2199 C2200 1.414 . S
C2199 C2202 1.499 . S
C2200 H2180 0.950 . S
C2200 C2199 1.414 . S
C2200 C2201 1.374 . S
C2201 H2181 0.950 . S
C2201 C2197 1.385 . S
C2201 C2200 1.374 . S
C2202 C2199 1.499 . S
C2202 C2203 1.373 . S
C2202 C2204 1.389 . S
C2203 H2182 0.950 . S
C2203 C2202 1.373 . S
C2203 C2219 1.377 . S
C2204 C2202 1.389 . S
C2204 C2205 1.524 . S
C2204 C2218 1.377 . S
C2205 C2204 1.524 . S
C2205 C2206 1.397 . S
C2205 C2210 1.363 . S
C2206 H2183 0.950 . S
C2206 C2205 1.397 . S
C2206 C2207 1.334 . S
C2207 H2184 0.950 . S
C2207 C2206 1.334 . S
C2207 C2208 1.287 . S
C2208 C2207 1.287 . S
C2208 C2209 1.524 . S
C2208 H2227 0.913 . S
C2209 H2185 0.950 . S
C2209 C2208 1.524 . S
C2209 C2210 1.415 . S
C2210 H2186 0.950 . S
C2210 C2205 1.363 . S
C2210 C2209 1.415 . S
C2211 H2187 0.951 . S
C2211 C2212 1.366 . S
C2211 C2213 1.388 . S
C2212 C2211 1.366 . S
C2212 C2216 1.385 . S
C2213 H2188 0.951 . S
C2213 C2211 1.388 . S
C2213 C2214 1.366 . S
C2214 C2213 1.366 . S
C2214 C2215 1.414 . S
C2214 C2217 1.499 . S
C2215 H2189 0.950 . S
C2215 C2214 1.414 . S
C2215 C2216 1.374 . S
C2216 H2190 0.950 . S
C2216 C2212 1.385 . S
C2216 C2215 1.374 . S
C2217 C2214 1.499 . S
C2217 C2218 1.373 . S
C2217 C2219 1.389 . S
C2218 H2191 0.950 . S
C2218 C2204 1.377 . S
C2218 C2217 1.373 . S
C2219 C2203 1.377 . S
C2219 C2217 1.389 . S
C2219 C2220 1.524 . S
C2220 C2219 1.524 . S
C2220 C2221 1.397 . S
C2220 C2225 1.363 . S
C2221 H2192 0.950 . S
C2221 C2220 1.397 . S
C2221 C2222 1.334 . S
C2222 H2193 0.950 . S
C2222 C2221 1.334 . S
C2222 C2223 1.287 . S
C2223 C2222 1.287 . S
C2223 C2224 1.524 . S
C2223 H2226 0.999 . S
C2224 H2194 0.950 . S
C2224 C2223 1.524 . S
C2224 C2225 1.415 . S
C2225 H2195 0.950 . S
C2225 C2220 1.363 . S
C2225 C2224 1.415 . S
H2226 C2223 0.999 . S
H2227 C2208 0.913 . S
H2228 C2246 0.951 . S
H2229 C2248 0.951 . S
H2230 C2250 0.950 . S
H2231 C2251 0.950 . S
H2232 C2253 0.950 . S
H2233 C2256 0.950 . S
H2234 C2257 0.950 . S
H2235 C2259 0.950 . S
H2236 C2260 0.950 . S
H2237 C2261 0.951 . S
H2238 C2263 0.951 . S
H2239 C2265 0.950 . S
H2240 C2266 0.950 . S
H2241 C2268 0.950 . S
H2242 C2271 0.950 . S
H2243 C2272 0.950 . S
H2244 C2274 0.950 . S
H2245 C2275 0.950 . S
C2246 H2228 0.951 . S
C2246 C2247 1.366 . S
C2246 C2248 1.388 . S
C2247 C2246 1.366 . S
C2247 C2251 1.385 . S
C2248 H2229 0.951 . S
C2248 C2246 1.388 . S
C2248 C2249 1.366 . S
C2249 C2248 1.366 . S
C2249 C2250 1.414 . S
C2249 C2252 1.499 . S
C2250 H2230 0.950 . S
C2250 C2249 1.414 . S
C2250 C2251 1.374 . S
C2251 H2231 0.950 . S
C2251 C2247 1.385 . S
C2251 C2250 1.374 . S
C2252 C2249 1.499 . S
C2252 C2253 1.373 . S
C2252 C2254 1.389 . S
C2253 H2232 0.950 . S
C2253 C2252 1.373 . S
C2253 C2269 1.377 1_554 S
C2254 C2252 1.389 . S
C2254 C2255 1.524 . S
C2254 C2268 1.377 1_554 S
C2255 C2254 1.524 . S
C2255 C2256 1.397 . S
C2255 C2260 1.363 . S
C2256 H2233 0.950 . S
C2256 C2255 1.397 . S
C2256 C2257 1.334 . S
C2257 H2234 0.950 . S
C2257 C2256 1.334 . S
C2257 C2258 1.287 . S
C2258 C2257 1.287 . S
C2258 C2259 1.524 . S
C2258 H2277 0.913 . S
C2259 H2235 0.950 . S
C2259 C2258 1.524 . S
C2259 C2260 1.415 . S
C2260 H2236 0.950 . S
C2260 C2255 1.363 . S
C2260 C2259 1.415 . S
C2261 H2237 0.951 . S
C2261 C2262 1.366 . S
C2261 C2263 1.388 . S
C2262 C2261 1.366 . S
C2262 C2266 1.385 . S
C2263 H2238 0.951 . S
C2263 C2261 1.388 . S
C2263 C2264 1.366 . S
C2264 C2263 1.366 . S
C2264 C2265 1.414 . S
C2264 C2267 1.499 . S
C2265 H2239 0.950 . S
C2265 C2264 1.414 . S
C2265 C2266 1.374 . S
C2266 H2240 0.950 . S
C2266 C2262 1.385 . S
C2266 C2265 1.374 . S
C2267 C2264 1.499 . S
C2267 C2268 1.373 . S
C2267 C2269 1.389 . S
C2268 H2241 0.950 . S
C2268 C2254 1.377 1_556 S
C2268 C2267 1.373 . S
C2269 C2253 1.377 1_556 S
C2269 C2267 1.389 . S
C2269 C2270 1.524 . S
C2270 C2269 1.524 . S
C2270 C2271 1.397 . S
C2270 C2275 1.363 . S
C2271 H2242 0.950 . S
C2271 C2270 1.397 . S
C2271 C2272 1.334 . S
C2272 H2243 0.950 . S
C2272 C2271 1.334 . S
C2272 C2273 1.287 . S
C2273 C2272 1.287 . S
C2273 C2274 1.524 . S
C2273 H2276 0.999 . S
C2274 H2244 0.950 . S
C2274 C2273 1.524 . S
C2274 C2275 1.415 . S
C2275 H2245 0.950 . S
C2275 C2270 1.363 . S
C2275 C2274 1.415 . S
H2276 C2273 0.999 . S
H2277 C2258 0.913 . S
H2278 C2296 0.951 . S
H2279 C2298 0.951 . S
H2280 C2300 0.950 1_655 S
H2281 C2301 0.950 1_655 S
H2282 C2303 0.950 . S
H2283 C2306 0.950 . S
H2284 C2307 0.950 . S
H2285 C2309 0.950 . S
H2286 C2310 0.950 . S
H2287 C2311 0.951 1_655 S
H2288 C2313 0.951 1_655 S
H2289 C2315 0.950 . S
H2290 C2316 0.950 . S
H2291 C2318 0.950 . S
H2292 C2321 0.950 . S
H2293 C2322 0.950 1_455 S
H2294 C2324 0.950 . S
H2295 C2325 0.950 . S
C2296 H2278 0.951 . S
C2296 C2297 1.366 . S
C2296 C2298 1.388 . S
C2297 C2296 1.366 . S
C2297 C2301 1.385 . S
C2298 H2279 0.951 . S
C2298 C2296 1.388 . S
C2298 C2299 1.366 . S
C2299 C2298 1.366 . S
C2299 C2300 1.414 . S
C2299 C2302 1.499 . S
C2300 H2280 0.950 1_455 S
C2300 C2299 1.414 . S
C2300 C2301 1.374 . S
C2301 H2281 0.950 1_455 S
C2301 C2297 1.385 . S
C2301 C2300 1.374 . S
C2302 C2299 1.499 . S
C2302 C2303 1.373 . S
C2302 C2304 1.389 . S
C2303 H2282 0.950 . S
C2303 C2302 1.373 . S
C2303 C2319 1.377 . S
C2304 C2302 1.389 . S
C2304 C2305 1.524 . S
C2304 C2318 1.377 . S
C2305 C2304 1.524 . S
C2305 C2306 1.397 . S
C2305 C2310 1.363 . S
C2306 H2283 0.950 . S
C2306 C2305 1.397 . S
C2306 C2307 1.334 . S
C2307 H2284 0.950 . S
C2307 C2306 1.334 . S
C2307 C2308 1.287 . S
C2308 C2307 1.287 . S
C2308 C2309 1.524 . S
C2308 H2327 0.913 . S
C2309 H2285 0.950 . S
C2309 C2308 1.524 . S
C2309 C2310 1.415 . S
C2310 H2286 0.950 . S
C2310 C2305 1.363 . S
C2310 C2309 1.415 . S
C2311 H2287 0.951 1_455 S
C2311 C2312 1.366 . S
C2311 C2313 1.388 . S
C2312 C2311 1.366 . S
C2312 C2316 1.385 . S
C2313 H2288 0.951 1_455 S
C2313 C2311 1.388 . S
C2313 C2314 1.366 . S
C2314 C2313 1.366 . S
C2314 C2315 1.414 . S
C2314 C2317 1.499 . S
C2315 H2289 0.950 . S
C2315 C2314 1.414 . S
C2315 C2316 1.374 . S
C2316 H2290 0.950 . S
C2316 C2312 1.385 . S
C2316 C2315 1.374 . S
C2317 C2314 1.499 . S
C2317 C2318 1.373 . S
C2317 C2319 1.389 . S
C2318 H2291 0.950 . S
C2318 C2304 1.377 . S
C2318 C2317 1.373 . S
C2319 C2303 1.377 . S
C2319 C2317 1.389 . S
C2319 C2320 1.502 1_455 S
C2320 C2319 1.502 1_655 S
C2320 C2321 1.383 1_655 S
C2320 C2325 1.397 . S
C2321 H2292 0.950 . S
C2321 C2320 1.383 1_455 S
C2321 C2322 1.334 1_455 S
C2322 H2293 0.950 1_655 S
C2322 C2321 1.334 1_655 S
C2322 C2323 1.287 . S
C2323 C2322 1.287 . S
C2323 C2324 1.524 . S
C2323 H2326 0.999 . S
C2324 H2294 0.950 . S
C2324 C2323 1.524 . S
C2324 C2325 1.415 . S
C2325 H2295 0.950 . S
C2325 C2320 1.397 . S
C2325 C2324 1.415 . S
H2326 C2323 0.999 . S
H2327 C2308 0.913 . S
H2328 C2346 0.951 . S
H2329 C2348 0.951 . S
H2330 C2350 0.966 . S
H2331 C2351 0.985 . S
H2332 C2353 0.950 . S
H2333 C2356 0.950 . S
H2334 C2357 0.950 . S
H2335 C2359 0.950 . S
H2336 C2360 0.950 . S
H2337 C2361 0.951 . S
H2338 C2363 0.951 . S
H2339 C2365 0.950 . S
H2340 C2366 0.950 . S
H2341 C2368 0.950 . S
H2342 C2371 0.950 . S
H2343 C2372 0.950 . S
H2344 C2374 0.950 1_545 S
H2345 C2375 0.950 1_545 S
C2346 H2328 0.951 . S
C2346 C2347 1.366 . S
C2346 C2348 1.388 . S
C2347 C2346 1.366 . S
C2347 C2351 1.385 . S
C2348 H2329 0.951 . S
C2348 C2346 1.388 . S
C2348 C2349 1.366 . S
C2349 C2348 1.366 . S
C2349 C2350 1.414 . S
C2349 C2352 1.499 . S
C2350 H2330 0.966 . S
C2350 C2349 1.414 . S
C2350 C2351 1.374 . S
C2351 H2331 0.985 . S
C2351 C2347 1.385 . S
C2351 C2350 1.374 . S
C2352 C2349 1.499 . S
C2352 C2353 1.373 . S
C2352 C2354 1.389 . S
C2353 H2332 0.950 . S
C2353 C2352 1.373 . S
C2353 C2369 1.377 1_554 S
C2354 C2352 1.389 . S
C2354 C2355 1.524 . S
C2354 C2368 1.377 1_554 S
C2355 C2354 1.524 . S
C2355 C2356 1.397 . S
C2355 C2360 1.363 . S
C2356 H2333 0.950 . S
C2356 C2355 1.397 . S
C2356 C2357 1.334 . S
C2357 H2334 0.950 . S
C2357 C2356 1.334 . S
C2357 C2358 1.287 . S
C2358 C2357 1.287 . S
C2358 C2359 1.524 . S
C2358 H2377 0.913 . S
C2359 H2335 0.950 . S
C2359 C2358 1.524 . S
C2359 C2360 1.415 . S
C2360 H2336 0.950 . S
C2360 C2355 1.363 . S
C2360 C2359 1.415 . S
C2361 H2337 0.951 . S
C2361 C2362 1.366 . S
C2361 C2363 1.388 . S
C2362 C2361 1.366 . S
C2362 C2366 1.385 . S
C2363 H2338 0.951 . S
C2363 C2361 1.388 . S
C2363 C2364 1.366 . S
C2364 C2363 1.366 . S
C2364 C2365 1.414 . S
C2364 C2367 1.499 . S
C2365 H2339 0.950 . S
C2365 C2364 1.414 . S
C2365 C2366 1.374 . S
C2366 H2340 0.950 . S
C2366 C2362 1.385 . S
C2366 C2365 1.374 . S
C2367 C2364 1.499 . S
C2367 C2368 1.373 . S
C2367 C2369 1.389 . S
C2368 H2341 0.950 . S
C2368 C2354 1.377 1_556 S
C2368 C2367 1.373 . S
C2369 C2353 1.377 1_556 S
C2369 C2367 1.389 . S
C2369 C2370 1.524 . S
C2370 C2369 1.524 . S
C2370 C2371 1.397 . S
C2370 C2375 1.363 . S
C2371 H2342 0.950 . S
C2371 C2370 1.397 . S
C2371 C2372 1.334 . S
C2372 H2343 0.950 . S
C2372 C2371 1.334 . S
C2372 C2373 1.287 . S
C2373 C2372 1.287 . S
C2373 C2374 1.524 . S
C2373 H2376 0.999 . S
C2374 H2344 0.950 1_565 S
C2374 C2373 1.524 . S
C2374 C2375 1.415 . S
C2375 H2345 0.950 1_565 S
C2375 C2370 1.363 . S
C2375 C2374 1.415 . S
H2376 C2373 0.999 . S
H2377 C2358 0.913 . S
H2378 C2396 0.951 . S
H2379 C2398 0.951 . S
H2380 C2400 0.950 . S
H2381 C2401 0.950 . S
H2382 C2403 0.950 . S
H2383 C2406 0.950 . S
H2384 C2407 0.950 . S
H2385 C2409 0.950 . S
H2386 C2410 0.950 . S
H2387 C2411 0.951 . S
H2388 C2413 0.951 . S
H2389 C2415 0.950 . S
H2390 C2416 0.950 . S
H2391 C2418 0.950 . S
H2392 C2421 0.950 . S
H2393 C2422 0.950 . S
H2394 C2424 0.950 . S
H2395 C2425 0.950 . S
C2396 H2378 0.951 . S
C2396 C2397 1.366 . S
C2396 C2398 1.388 . S
C2397 C2396 1.366 . S
C2397 C2401 1.385 . S
C2398 H2379 0.951 . S
C2398 C2396 1.388 . S
C2398 C2399 1.366 . S
C2399 C2398 1.366 . S
C2399 C2400 1.414 . S
C2399 C2402 1.499 . S
C2400 H2380 0.950 . S
C2400 C2399 1.414 . S
C2400 C2401 1.374 . S
C2401 H2381 0.950 . S
C2401 C2397 1.385 . S
C2401 C2400 1.374 . S
C2402 C2399 1.499 . S
C2402 C2403 1.373 . S
C2402 C2404 1.389 . S
C2403 H2382 0.950 . S
C2403 C2402 1.373 . S
C2403 C2419 1.377 . S
C2404 C2402 1.389 . S
C2404 C2405 1.524 . S
C2404 C2418 1.377 . S
C2405 C2404 1.524 . S
C2405 C2406 1.397 . S
C2405 C2410 1.363 . S
C2406 H2383 0.950 . S
C2406 C2405 1.397 . S
C2406 C2407 1.334 . S
C2407 H2384 0.950 . S
C2407 C2406 1.334 . S
C2407 C2408 1.287 . S
C2408 C2407 1.287 . S
C2408 C2409 1.524 . S
C2408 H2427 0.913 . S
C2409 H2385 0.950 . S
C2409 C2408 1.524 . S
C2409 C2410 1.415 . S
C2410 H2386 0.950 . S
C2410 C2405 1.363 . S
C2410 C2409 1.415 . S
C2411 H2387 0.951 . S
C2411 C2412 1.366 . S
C2411 C2413 1.388 . S
C2412 C2411 1.366 . S
C2412 C2416 1.385 . S
C2413 H2388 0.951 . S
C2413 C2411 1.388 . S
C2413 C2414 1.366 . S
C2414 C2413 1.366 . S
C2414 C2415 1.414 . S
C2414 C2417 1.499 . S
C2415 H2389 0.950 . S
C2415 C2414 1.414 . S
C2415 C2416 1.374 . S
C2416 H2390 0.950 . S
C2416 C2412 1.385 . S
C2416 C2415 1.374 . S
C2417 C2414 1.499 . S
C2417 C2418 1.373 . S
C2417 C2419 1.389 . S
C2418 H2391 0.950 . S
C2418 C2404 1.377 . S
C2418 C2417 1.373 . S
C2419 C2403 1.377 . S
C2419 C2417 1.389 . S
C2419 C2420 1.524 . S
C2420 C2419 1.524 . S
C2420 C2421 1.397 . S
C2420 C2425 1.363 . S
C2421 H2392 0.950 . S
C2421 C2420 1.397 . S
C2421 C2422 1.334 . S
C2422 H2393 0.950 . S
C2422 C2421 1.334 . S
C2422 C2423 1.287 . S
C2423 C2422 1.287 . S
C2423 C2424 1.524 . S
C2423 H2426 0.999 . S
C2424 H2394 0.950 . S
C2424 C2423 1.524 . S
C2424 C2425 1.415 . S
C2425 H2395 0.950 . S
C2425 C2420 1.363 . S
C2425 C2424 1.415 . S
H2426 C2423 0.999 . S
H2427 C2408 0.913 . S
H2428 C2446 0.951 . S
H2429 C2448 0.951 . S
H2430 C2450 0.950 . S
H2431 C2451 0.950 . S
H2432 C2453 0.950 . S
H2433 C2456 0.950 . S
H2434 C2457 0.950 . S
H2435 C2459 0.950 . S
H2436 C2460 0.950 . S
H2437 C2461 0.951 . S
H2438 C2463 0.951 . S
H2439 C2465 0.950 . S
H2440 C2466 0.950 . S
H2441 C2468 0.950 . S
H2442 C2471 0.950 . S
H2443 C2472 0.950 . S
H2444 C2474 0.950 . S
H2445 C2475 0.950 . S
C2446 H2428 0.951 . S
C2446 C2447 1.366 . S
C2446 C2448 1.388 . S
C2447 C2446 1.366 . S
C2447 C2451 1.385 . S
C2448 H2429 0.951 . S
C2448 C2446 1.388 . S
C2448 C2449 1.366 . S
C2449 C2448 1.366 . S
C2449 C2450 1.414 . S
C2449 C2452 1.499 . S
C2450 H2430 0.950 . S
C2450 C2449 1.414 . S
C2450 C2451 1.374 . S
C2451 H2431 0.950 . S
C2451 C2447 1.385 . S
C2451 C2450 1.374 . S
C2452 C2449 1.499 . S
C2452 C2453 1.373 . S
C2452 C2454 1.389 . S
C2453 H2432 0.950 . S
C2453 C2452 1.373 . S
C2453 C2469 1.377 1_554 S
C2454 C2452 1.389 . S
C2454 C2455 1.524 . S
C2454 C2468 1.377 1_554 S
C2455 C2454 1.524 . S
C2455 C2456 1.397 . S
C2455 C2460 1.363 . S
C2456 H2433 0.950 . S
C2456 C2455 1.397 . S
C2456 C2457 1.334 . S
C2457 H2434 0.950 . S
C2457 C2456 1.334 . S
C2457 C2458 1.287 . S
C2458 C2457 1.287 . S
C2458 C2459 1.524 . S
C2458 H2477 0.913 . S
C2459 H2435 0.950 . S
C2459 C2458 1.524 . S
C2459 C2460 1.415 . S
C2460 H2436 0.950 . S
C2460 C2455 1.363 . S
C2460 C2459 1.415 . S
C2461 H2437 0.951 . S
C2461 C2462 1.366 . S
C2461 C2463 1.388 . S
C2462 C2461 1.366 . S
C2462 C2466 1.385 . S
C2463 H2438 0.951 . S
C2463 C2461 1.388 . S
C2463 C2464 1.366 . S
C2464 C2463 1.366 . S
C2464 C2465 1.414 . S
C2464 C2467 1.499 . S
C2465 H2439 0.950 . S
C2465 C2464 1.414 . S
C2465 C2466 1.374 . S
C2466 H2440 0.950 . S
C2466 C2462 1.385 . S
C2466 C2465 1.374 . S
C2467 C2464 1.499 . S
C2467 C2468 1.373 . S
C2467 C2469 1.389 . S
C2468 H2441 0.950 . S
C2468 C2454 1.377 1_556 S
C2468 C2467 1.373 . S
C2469 C2453 1.377 1_556 S
C2469 C2467 1.389 . S
C2469 C2470 1.524 . S
C2470 C2469 1.524 . S
C2470 C2471 1.397 . S
C2470 C2475 1.363 . S
C2471 H2442 0.950 . S
C2471 C2470 1.397 . S
C2471 C2472 1.334 . S
C2472 H2443 0.950 . S
C2472 C2471 1.334 . S
C2472 C2473 1.287 . S
C2473 C2472 1.287 . S
C2473 C2474 1.524 . S
C2473 H2476 0.999 . S
C2474 H2444 0.950 . S
C2474 C2473 1.524 . S
C2474 C2475 1.415 . S
C2475 H2445 0.950 . S
C2475 C2470 1.363 . S
C2475 C2474 1.415 . S
H2476 C2473 0.999 . S
H2477 C2458 0.913 . S
H2478 C2496 0.951 1_455 S
H2479 C2498 0.951 1_455 S
H2480 C2500 0.950 . S
H2481 C2501 0.950 . S
H2482 C2503 0.950 . S
H2483 C2506 0.950 . S
H2484 C2507 0.950 . S
H2485 C2509 0.950 . S
H2486 C2510 0.950 . S
H2487 C2511 0.951 . S
H2488 C2513 0.951 . S
H2489 C2515 0.950 1_455 S
H2490 C2516 0.950 1_455 S
H2491 C2518 0.950 . S
H2492 C2521 0.950 . S
H2493 C2522 0.950 . S
H2494 C2524 0.950 . S
H2495 C2525 0.950 . S
C2496 H2478 0.951 1_655 S
C2496 C2497 1.366 . S
C2496 C2498 1.388 . S
C2497 C2496 1.366 . S
C2497 C2501 1.385 . S
C2498 H2479 0.951 1_655 S
C2498 C2496 1.388 . S
C2498 C2499 1.366 . S
C2499 C2498 1.366 . S
C2499 C2500 1.414 . S
C2499 C2502 1.499 . S
C2500 H2480 0.950 . S
C2500 C2499 1.414 . S
C2500 C2501 1.374 . S
C2501 H2481 0.950 . S
C2501 C2497 1.385 . S
C2501 C2500 1.374 . S
C2502 C2499 1.499 . S
C2502 C2503 1.373 . S
C2502 C2504 1.389 . S
C2503 H2482 0.950 . S
C2503 C2502 1.373 . S
C2503 C2519 1.377 . S
C2504 C2502 1.389 . S
C2504 C2505 1.524 . S
C2504 C2518 1.377 . S
C2505 C2504 1.524 . S
C2505 C2506 1.397 . S
C2505 C2510 1.363 1_655 S
C2506 H2483 0.950 . S
C2506 C2505 1.397 . S
C2506 C2507 1.334 . S
C2507 H2484 0.950 . S
C2507 C2506 1.334 . S
C2507 C2508 1.287 . S
C2508 C2507 1.287 . S
C2508 C2509 1.524 1_655 S
C2508 H2527 0.913 . S
C2509 H2485 0.950 . S
C2509 C2508 1.524 1_455 S
C2509 C2510 1.415 . S
C2510 H2486 0.950 . S
C2510 C2505 1.363 1_455 S
C2510 C2509 1.415 . S
C2511 H2487 0.951 . S
C2511 C2512 1.366 . S
C2511 C2513 1.388 . S
C2512 C2511 1.366 . S
C2512 C2516 1.385 . S
C2513 H2488 0.951 . S
C2513 C2511 1.388 . S
C2513 C2514 1.366 . S
C2514 C2513 1.366 . S
C2514 C2515 1.414 . S
C2514 C2517 1.499 . S
C2515 H2489 0.950 1_655 S
C2515 C2514 1.414 . S
C2515 C2516 1.374 . S
C2516 H2490 0.950 1_655 S
C2516 C2512 1.385 . S
C2516 C2515 1.374 . S
C2517 C2514 1.499 . S
C2517 C2518 1.373 . S
C2517 C2519 1.389 . S
C2518 H2491 0.950 . S
C2518 C2504 1.377 . S
C2518 C2517 1.373 . S
C2519 C2503 1.377 . S
C2519 C2517 1.389 . S
C2519 C2520 1.524 . S
C2520 C2519 1.524 . S
C2520 C2521 1.397 . S
C2520 C2525 1.363 . S
C2521 H2492 0.950 . S
C2521 C2520 1.397 . S
C2521 C2522 1.334 . S
C2522 H2493 0.950 . S
C2522 C2521 1.334 . S
C2522 C2523 1.287 . S
C2523 C2522 1.287 . S
C2523 C2524 1.524 . S
C2523 H2526 0.999 . S
C2524 H2494 0.950 . S
C2524 C2523 1.524 . S
C2524 C2525 1.415 . S
C2525 H2495 0.950 . S
C2525 C2520 1.363 . S
C2525 C2524 1.415 . S
H2526 C2523 0.999 . S
H2527 C2508 0.913 . S
C547 N2 2.042 . S
C562 N233 2.042 . S
C597 N134 2.042 . S
C612 N35 2.042 . S
C647 N167 2.042 . S
C662 N68 2.042 . S
C697 N101 2.042 . S
C712 N200 2.042 . S
C747 N266 2.042 . S
C762 N497 2.042 . S
C797 N299 2.042 . S
C812 N398 2.042 . S
C847 N431 2.042 . S
C862 N332 2.042 . S
C897 N365 2.042 . S
C912 N464 2.042 . S
C947 C7 0.409 . S
C962 C318 0.569 . S
C997 C351 0.567 . S
C1012 C40 0.410 . S
C1047 C384 0.570 . S
C1062 C73 0.409 . S
C1097 C285 0.566 . S
C1112 C106 0.410 . S
C1147 C516 0.566 . S
C1162 C139 0.410 . S
C1197 C417 0.567 . S
C1212 C172 0.410 . S
C1247 C450 0.570 . S
C1262 C205 0.408 . S
C1297 C483 0.570 . S
C1312 C238 0.409 . S
C1347 C54 0.568 . S
C1362 C271 0.410 . S
C1397 C87 0.566 . S
C1412 C304 0.410 . S
C1447 C120 0.568 . S
C1462 C337 0.410 . S
C1497 C370 0.410 . S
C1512 C21 0.568 . S
C1547 C252 0.569 . S
C1562 C403 0.408 . S
C1597 C153 0.567 . S
C1612 C436 0.410 . S
C1647 C186 0.567 . S
C1662 C469 0.410 . S
C1697 C219 0.570 . S
C1712 C502 0.408 . S
C1747 N79 0.802 . S
C1762 N13 0.805 . S
C1797 N46 0.803 . S
C1812 N112 0.801 . S
C1847 N211 0.805 . S
C1862 N145 0.803 . S
C1897 N244 0.802 . S
C1912 N178 0.804 . S
C1947 N343 0.804 . S
C1962 N277 0.804 . S
C1997 N376 0.801 . S
C2012 N310 0.803 . S
C2047 N409 0.805 . S
C2062 N475 0.803 . S
C2097 N508 0.804 . S
C2112 N442 0.802 . S
C2147 C216 1.195 . S
C2162 C18 1.195 . S
C2197 C249 1.195 . S
C2212 C51 1.194 . S
C2247 C84 1.195 . S
C2262 C150 1.194 . S
C2297 C183 1.194 . S
C2312 C117 1.194 . S
C2347 C480 1.195 . S
C2362 C282 1.195 . S
C2397 C513 1.195 . S
C2412 C315 1.194 . S
C2447 C414 1.195 . S
C2462 C348 1.195 . S
C2497 C381 1.194 . S
C2512 C447 1.194 . S
