# Generated by pormake.
# Topology ana, (4)-cn, num edge types: 1
# Building blocks:
#     Node 0, Type 0, BuildingBlock: NAHDIM_clean_sbu_0, # of connection points: 4
#     Node 1, Type 0, BuildingBlock: NAHDIM_clean_sbu_0, # of connection points: 4
#     Node 2, Type 0, BuildingBlock: NAHDIM_clean_sbu_0, # of connection points: 4
#     Node 3, Type 0, BuildingBlock: NAHDIM_clean_sbu_0, # of connection points: 4
#     Node 4, Type 0, BuildingBlock: NAHDIM_clean_sbu_0, # of connection points: 4
#     Node 5, Type 0, BuildingBlock: NAHDIM_clean_sbu_0, # of connection points: 4
#     Node 6, Type 0, BuildingBlock: NAHDIM_clean_sbu_0, # of connection points: 4
#     Node 7, Type 0, BuildingBlock: NAHDIM_clean_sbu_0, # of connection points: 4
#     Node 8, Type 0, BuildingBlock: NAHDIM_clean_sbu_0, # of connection points: 4
#     Node 9, Type 0, BuildingBlock: NAHDIM_clean_sbu_0, # of connection points: 4
#     Node 10, Type 0, BuildingBlock: NAHDIM_clean_sbu_0, # of connection points: 4
#     Node 11, Type 0, BuildingBlock: NAHDIM_clean_sbu_0, # of connection points: 4
#     Node 12, Type 0, BuildingBlock: NAHDIM_clean_sbu_0, # of connection points: 4
#     Node 13, Type 0, BuildingBlock: NAHDIM_clean_sbu_0, # of connection points: 4
#     Node 14, Type 0, BuildingBlock: NAHDIM_clean_sbu_0, # of connection points: 4
#     Node 15, Type 0, BuildingBlock: NAHDIM_clean_sbu_0, # of connection points: 4
#     Node 16, Type 0, BuildingBlock: NAHDIM_clean_sbu_0, # of connection points: 4
#     Node 17, Type 0, BuildingBlock: NAHDIM_clean_sbu_0, # of connection points: 4
#     Node 18, Type 0, BuildingBlock: NAHDIM_clean_sbu_0, # of connection points: 4
#     Node 19, Type 0, BuildingBlock: NAHDIM_clean_sbu_0, # of connection points: 4
#     Node 20, Type 0, BuildingBlock: NAHDIM_clean_sbu_0, # of connection points: 4
#     Node 21, Type 0, BuildingBlock: NAHDIM_clean_sbu_0, # of connection points: 4
#     Node 22, Type 0, BuildingBlock: NAHDIM_clean_sbu_0, # of connection points: 4
#     Node 23, Type 0, BuildingBlock: NAHDIM_clean_sbu_0, # of connection points: 4
#     Node 24, Type 0, BuildingBlock: NAHDIM_clean_sbu_0, # of connection points: 4
#     Node 25, Type 0, BuildingBlock: NAHDIM_clean_sbu_0, # of connection points: 4
#     Node 26, Type 0, BuildingBlock: NAHDIM_clean_sbu_0, # of connection points: 4
#     Node 27, Type 0, BuildingBlock: NAHDIM_clean_sbu_0, # of connection points: 4
#     Node 28, Type 0, BuildingBlock: NAHDIM_clean_sbu_0, # of connection points: 4
#     Node 29, Type 0, BuildingBlock: NAHDIM_clean_sbu_0, # of connection points: 4
#     Node 30, Type 0, BuildingBlock: NAHDIM_clean_sbu_0, # of connection points: 4
#     Node 31, Type 0, BuildingBlock: NAHDIM_clean_sbu_0, # of connection points: 4
#     Node 32, Type 0, BuildingBlock: NAHDIM_clean_sbu_0, # of connection points: 4
#     Node 33, Type 0, BuildingBlock: NAHDIM_clean_sbu_0, # of connection points: 4
#     Node 34, Type 0, BuildingBlock: NAHDIM_clean_sbu_0, # of connection points: 4
#     Node 35, Type 0, BuildingBlock: NAHDIM_clean_sbu_0, # of connection points: 4
#     Node 36, Type 0, BuildingBlock: NAHDIM_clean_sbu_0, # of connection points: 4
#     Node 37, Type 0, BuildingBlock: NAHDIM_clean_sbu_0, # of connection points: 4
#     Node 38, Type 0, BuildingBlock: NAHDIM_clean_sbu_0, # of connection points: 4
#     Node 39, Type 0, BuildingBlock: NAHDIM_clean_sbu_0, # of connection points: 4
#     Node 40, Type 0, BuildingBlock: NAHDIM_clean_sbu_0, # of connection points: 4
#     Node 41, Type 0, BuildingBlock: NAHDIM_clean_sbu_0, # of connection points: 4
#     Node 42, Type 0, BuildingBlock: NAHDIM_clean_sbu_0, # of connection points: 4
#     Node 43, Type 0, BuildingBlock: NAHDIM_clean_sbu_0, # of connection points: 4
#     Node 44, Type 0, BuildingBlock: NAHDIM_clean_sbu_0, # of connection points: 4
#     Node 45, Type 0, BuildingBlock: NAHDIM_clean_sbu_0, # of connection points: 4
#     Node 46, Type 0, BuildingBlock: NAHDIM_clean_sbu_0, # of connection points: 4
#     Node 47, Type 0, BuildingBlock: NAHDIM_clean_sbu_0, # of connection points: 4
#     Edge 48, Type (0, 0), None
#     Edge 49, Type (0, 0), None
#     Edge 50, Type (0, 0), None
#     Edge 51, Type (0, 0), None
#     Edge 52, Type (0, 0), None
#     Edge 53, Type (0, 0), None
#     Edge 54, Type (0, 0), None
#     Edge 55, Type (0, 0), None
#     Edge 56, Type (0, 0), None
#     Edge 57, Type (0, 0), None
#     Edge 58, Type (0, 0), None
#     Edge 59, Type (0, 0), None
#     Edge 60, Type (0, 0), None
#     Edge 61, Type (0, 0), None
#     Edge 62, Type (0, 0), None
#     Edge 63, Type (0, 0), None
#     Edge 64, Type (0, 0), None
#     Edge 65, Type (0, 0), None
#     Edge 66, Type (0, 0), None
#     Edge 67, Type (0, 0), None
#     Edge 68, Type (0, 0), None
#     Edge 69, Type (0, 0), None
#     Edge 70, Type (0, 0), None
#     Edge 71, Type (0, 0), None
#     Edge 72, Type (0, 0), None
#     Edge 73, Type (0, 0), None
#     Edge 74, Type (0, 0), None
#     Edge 75, Type (0, 0), None
#     Edge 76, Type (0, 0), None
#     Edge 77, Type (0, 0), None
#     Edge 78, Type (0, 0), None
#     Edge 79, Type (0, 0), None
#     Edge 80, Type (0, 0), None
#     Edge 81, Type (0, 0), None
#     Edge 82, Type (0, 0), None
#     Edge 83, Type (0, 0), None
#     Edge 84, Type (0, 0), None
#     Edge 85, Type (0, 0), None
#     Edge 86, Type (0, 0), None
#     Edge 87, Type (0, 0), None
#     Edge 88, Type (0, 0), None
#     Edge 89, Type (0, 0), None
#     Edge 90, Type (0, 0), None
#     Edge 91, Type (0, 0), None
#     Edge 92, Type (0, 0), None
#     Edge 93, Type (0, 0), None
#     Edge 94, Type (0, 0), None
#     Edge 95, Type (0, 0), None
#     Edge 96, Type (0, 0), None
#     Edge 97, Type (0, 0), None
#     Edge 98, Type (0, 0), None
#     Edge 99, Type (0, 0), None
#     Edge 100, Type (0, 0), None
#     Edge 101, Type (0, 0), None
#     Edge 102, Type (0, 0), None
#     Edge 103, Type (0, 0), None
#     Edge 104, Type (0, 0), None
#     Edge 105, Type (0, 0), None
#     Edge 106, Type (0, 0), None
#     Edge 107, Type (0, 0), None
#     Edge 108, Type (0, 0), None
#     Edge 109, Type (0, 0), None
#     Edge 110, Type (0, 0), None
#     Edge 111, Type (0, 0), None
#     Edge 112, Type (0, 0), None
#     Edge 113, Type (0, 0), None
#     Edge 114, Type (0, 0), None
#     Edge 115, Type (0, 0), None
#     Edge 116, Type (0, 0), None
#     Edge 117, Type (0, 0), None
#     Edge 118, Type (0, 0), None
#     Edge 119, Type (0, 0), None
#     Edge 120, Type (0, 0), None
#     Edge 121, Type (0, 0), None
#     Edge 122, Type (0, 0), None
#     Edge 123, Type (0, 0), None
#     Edge 124, Type (0, 0), None
#     Edge 125, Type (0, 0), None
#     Edge 126, Type (0, 0), None
#     Edge 127, Type (0, 0), None
#     Edge 128, Type (0, 0), None
#     Edge 129, Type (0, 0), None
#     Edge 130, Type (0, 0), None
#     Edge 131, Type (0, 0), None
#     Edge 132, Type (0, 0), None
#     Edge 133, Type (0, 0), None
#     Edge 134, Type (0, 0), None
#     Edge 135, Type (0, 0), None
#     Edge 136, Type (0, 0), None
#     Edge 137, Type (0, 0), None
#     Edge 138, Type (0, 0), None
#     Edge 139, Type (0, 0), None
#     Edge 140, Type (0, 0), None
#     Edge 141, Type (0, 0), None
#     Edge 142, Type (0, 0), None
#     Edge 143, Type (0, 0), None
# Relax obj value: 0.187
# Max RMSD: 0.218
# Mean RMSD: 0.197
data_MOF--net-ana--node1-NAHDIM_clean_sbu_0--edge1-none
_symmetry_space_group_name_H-M    P1
_symmetry_Int_Tables_number       1
_symmetry_cell_setting            triclinic
loop_
_symmetry_equiv_pos_as_xyz
'x, y, z'
_cell_length_a     30.706853
_cell_length_b     28.96092
_cell_length_c     29.020248
_cell_angle_alpha  89.643458
_cell_angle_beta   90.925289
_cell_angle_gamma 90.837864
loop_
_atom_site_label
_atom_site_type_symbol
_atom_site_fract_x
_atom_site_fract_y
_atom_site_fract_z
_atom_type_partial_charge
C0 C 0.14192 0.25255 0.37779 0.0
O1 O 0.18316 0.24125 0.37713 0.0
O2 O 0.1801 0.14284 0.34797 0.0
Zn3 Zn 0.1253 0.15348 0.38296 0.0
O4 O 0.07285 0.12151 0.35516 0.0
C5 C 0.12068 0.14574 0.48439 0.0
O6 O 0.09464 0.1813 0.48354 0.0
O7 O 0.11276 0.2213 0.38194 0.0
C8 C 0.05915 0.08219 0.3686 0.0
O9 O 0.08159 0.05892 0.39959 0.0
C10 C 0.20341 0.10799 0.35714 0.0
O11 O 0.18901 0.07613 0.3857 0.0
O12 O 0.13582 0.13022 0.44724 0.0
C13 C 0.09895 0.87453 0.70998 0.0
O14 O 0.13029 0.85592 0.68646 0.0
O15 O 0.0889 0.82732 0.597 0.0
Zn16 Zn 0.06104 0.88584 0.62015 0.0
O17 O 0.09005 0.94605 0.60069 0.0
C18 C 0.98244 0.89791 0.56277 0.0
O19 O 0.00844 0.91904 0.5337 0.0
O20 O 0.06457 0.8876 0.68918 0.0
C21 C 0.06735 0.98206 0.60551 0.0
O22 O 0.02668 0.97777 0.61828 0.0
C23 C 0.12689 0.82035 0.58193 0.0
O24 O 0.15515 0.85467 0.57915 0.0
O25 O -0.00237 0.88249 0.60075 0.0
C26 C 0.33732 0.70899 0.88863 0.0
O27 O 0.29604 0.71996 0.88557 0.0
O28 O 0.30119 0.81781 0.85483 0.0
Zn29 Zn 0.35426 0.8077 0.89346 0.0
O30 O 0.40595 0.83779 0.8636 0.0
C31 C 0.34852 0.82092 -0.00442 0.0
O32 O 0.36756 0.7811 0.00235 0.0
O33 O 0.3661 0.7402 0.89566 0.0
C34 C 0.43606 0.85561 0.88839 0.0
O35 O 0.43189 0.85677 0.93331 0.0
C36 C 0.2874 0.85879 0.85256 0.0
O37 O 0.31026 0.89232 0.87193 0.0
O38 O 0.34177 0.83598 0.95496 0.0
C39 C 0.38326 0.115 0.22333 0.0
O40 O 0.35605 0.14442 0.20447 0.0
O41 O 0.37426 0.14774 0.10673 0.0
Zn42 Zn 0.40211 0.08885 0.12868 0.0
O43 O 0.36904 0.03046 0.11031 0.0
C44 C 0.47588 0.07297 0.06702 0.0
O45 O 0.44769 0.05185 0.03962 0.0
O46 O 0.4058 0.08926 0.19794 0.0
C47 C 0.39073 -0.0066 0.11143 0.0
O48 O 0.43235 -0.00477 0.12242 0.0
C49 C 0.37281 0.15979 0.06458 0.0
O50 O 0.38578 0.13114 0.0329 0.0
O51 O 0.46354 0.08971 0.10495 0.0
C52 C 0.08531 0.85515 0.94654 0.0
O53 O 0.04446 0.85173 0.95897 0.0
O54 O 0.0539 0.86528 0.06276 0.0
Zn55 Zn 0.10579 0.83028 0.04171 0.0
O56 O 0.16065 0.84807 0.07687 0.0
C57 C 0.11225 0.73351 0.07193 0.0
O58 O 0.14958 0.74623 0.09095 0.0
O59 O 0.11567 0.84634 0.97538 0.0
C60 C 0.17573 0.88902 0.07301 0.0
O61 O 0.15381 0.91963 0.04886 0.0
C62 C 0.03496 0.85388 0.09978 0.0
O63 O 0.05225 0.82233 0.12684 0.0
O64 O 0.0902 0.76259 0.0488 0.0
C65 C 0.49963 0.88062 0.3345 0.0
O66 O 0.48896 0.90034 0.29514 0.0
O67 O 0.37158 0.91508 0.3677 0.0
Zn68 Zn 0.40593 0.86225 0.34318 0.0
O69 O 0.3825 0.80209 0.36681 0.0
C70 C 0.36264 0.8528 0.25544 0.0
O71 O 0.3292 0.84216 0.28128 0.0
O72 O 0.46997 0.86474 0.36055 0.0
C73 C 0.3468 0.79471 0.38727 0.0
O74 O 0.3203 0.82884 0.39513 0.0
C75 C 0.38755 0.95569 0.36649 0.0
O76 O 0.42756 0.96224 0.3523 0.0
O77 O 0.39925 0.86249 0.27424 0.0
C78 C 0.39118 0.15132 0.48264 0.0
O79 O 0.42866 0.14976 0.50499 0.0
O80 O 0.40358 0.10455 0.59133 0.0
Zn81 Zn 0.35598 0.14875 0.57444 0.0
O82 O 0.2966 0.12646 0.59398 0.0
C83 C 0.3633 0.24978 0.59778 0.0
O84 O 0.33789 0.26046 0.5626 0.0
O85 O 0.3561 0.1543 0.50511 0.0
C86 C 0.28473 0.12343 0.63563 0.0
O87 O 0.31242 0.1338 0.66905 0.0
C88 C 0.42635 0.11167 0.6276 0.0
O89 O 0.41323 0.14164 0.65796 0.0
O90 O 0.37253 0.20802 0.60615 0.0
C91 C 0.96247 0.10582 0.83356 0.0
O92 O 0.97013 0.0945 0.79075 0.0
O93 O 0.0873 0.06953 0.87046 0.0
Zn94 Zn 0.05612 0.12405 0.84222 0.0
O95 O 0.07728 0.1859 0.86607 0.0
C96 C 0.08989 0.13865 0.749 0.0
O97 O 0.12046 0.16352 0.76957 0.0
O98 O -0.00637 0.11837 0.86016 0.0
C99 C 0.11529 0.19789 0.87968 0.0
O100 O 0.1472 0.16825 0.87859 0.0
C101 C 0.11549 0.04874 0.84707 0.0
O102 O 0.12738 0.0658 0.80718 0.0
O103 O 0.05951 0.12058 0.7726 0.0
C104 C 0.25885 0.39691 0.10078 0.0
O105 O 0.24956 0.43888 0.08683 0.0
O106 O 0.14689 0.3782 0.18864 0.0
Zn107 Zn 0.16697 0.39266 0.12476 0.0
O108 O 0.13069 0.35843 0.07679 0.0
C109 C 0.12592 0.48142 0.11583 0.0
O110 O 0.09045 0.4556 0.11346 0.0
O111 O 0.22932 0.37166 0.11859 0.0
C112 C 0.12408 0.37743 0.03783 0.0
O113 O 0.1391 0.41946 0.03046 0.0
C114 C 0.108 0.36878 0.20012 0.0
O115 O 0.07719 0.36451 0.16848 0.0
O116 O 0.16288 0.4623 0.11864 0.0
C117 C 0.60709 0.00097 0.84279 0.0
O118 O 0.57671 0.03096 0.83254 0.0
O119 O 0.6329 0.11142 0.90167 0.0
Zn120 Zn 0.6585 0.08265 0.846 0.0
O121 O 0.63308 0.10581 0.78602 0.0
C122 C 0.74604 0.06542 0.8741 0.0
O123 O 0.72789 0.02817 0.8918 0.0
O124 O 0.64589 0.01491 0.85 0.0
C125 C 0.61934 0.14592 0.77634 0.0
O126 O 0.62221 0.17897 0.80704 0.0
C127 C 0.59546 0.12805 0.90799 0.0
O128 O 0.56659 0.12943 0.87417 0.0
O129 O 0.72298 0.09347 0.85071 0.0
C130 C 0.85796 0.95877 0.34984 0.0
O131 O 0.88901 0.92902 0.35814 0.0
O132 O 0.83348 0.84731 0.39713 0.0
Zn133 Zn 0.80969 0.87557 0.33844 0.0
O134 O 0.83942 0.85545 0.28054 0.0
C135 C 0.72812 0.82817 0.31536 0.0
O136 O 0.75268 0.8022 0.28986 0.0
O137 O 0.81946 0.94417 0.34152 0.0
C138 C 0.85806 0.81797 0.27074 0.0
O139 O 0.85841 0.78346 0.30028 0.0
C140 C 0.87029 0.83007 0.40712 0.0
O141 O 0.90067 0.82794 0.37593 0.0
O142 O 0.74513 0.862 0.33707 0.0
C143 C 0.84 0.9807 0.10636 0.0
O144 O 0.86823 0.00526 0.0827 0.0
O145 O 0.82667 0.09728 0.06502 0.0
Zn146 Zn 0.79796 0.06899 0.12057 0.0
O147 O 0.82124 0.0966 0.17971 0.0
C148 C 0.70979 0.09998 0.14202 0.0
O149 O 0.72587 0.11185 0.1825 0.0
O150 O 0.80751 0.00024 0.12401 0.0
C151 C 0.86066 0.09011 0.19168 0.0
O152 O 0.88647 0.06825 0.16384 0.0
C153 C 0.81778 0.13869 0.05401 0.0
O154 O 0.79289 0.16294 0.08082 0.0
O155 O 0.73393 0.08095 0.11273 0.0
C156 C 0.35639 0.502 0.63156 0.0
O157 O 0.38667 0.52986 0.64827 0.0
O158 O 0.34269 0.61776 0.56536 0.0
Zn159 Zn 0.31332 0.58826 0.62011 0.0
O160 O 0.33596 0.60777 0.68248 0.0
C161 C 0.23639 0.64236 0.63597 0.0
O162 O 0.26323 0.66528 0.66341 0.0
O163 O 0.32054 0.51857 0.61684 0.0
C164 C 0.37344 0.62148 0.69603 0.0
O165 O 0.40481 0.62796 0.66636 0.0
C166 C 0.38017 0.61 0.54939 0.0
O167 O 0.40709 0.5828 0.57174 0.0
O168 O 0.2498 0.60692 0.61491 0.0
C169 C 0.10689 0.49243 0.36781 0.0
O170 O 0.074 0.51935 0.35768 0.0
O171 O 0.1299 0.61339 0.41496 0.0
Zn172 Zn 0.15464 0.57811 0.36258 0.0
O173 O 0.12788 0.59645 0.30152 0.0
C174 C 0.24208 0.57073 0.3937 0.0
O175 O 0.22409 0.53889 0.41991 0.0
O176 O 0.14486 0.50988 0.37232 0.0
C177 C 0.14586 0.62633 0.27559 0.0
O178 O 0.18197 0.64725 0.28929 0.0
C179 C 0.13763 0.65641 0.41923 0.0
O180 O 0.15877 0.67885 0.3869 0.0
O181 O 0.21887 0.59194 0.36409 0.0
C182 C 0.22156 0.38458 0.86381 0.0
O183 O 0.22598 0.38819 0.819 0.0
O184 O 0.3252 0.38024 0.80924 0.0
Zn185 Zn 0.31716 0.39732 0.87573 0.0
O186 O 0.3479 0.35705 0.92252 0.0
C187 C 0.36747 0.48034 0.86355 0.0
O188 O 0.38778 0.454 0.83448 0.0
O189 O 0.25437 0.38891 0.89072 0.0
C190 C 0.38363 0.36759 0.94279 0.0
O191 O 0.40644 0.40347 0.92861 0.0
C192 C 0.35913 0.36248 0.79294 0.0
O193 O 0.39166 0.35159 0.82066 0.0
O194 O 0.33544 0.46394 0.88581 0.0
C195 C 0.78312 0.83828 0.61108 0.0
O196 O 0.79564 0.79987 0.6312 0.0
O197 O 0.86495 0.76147 0.57801 0.0
Zn198 Zn 0.85953 0.82648 0.55441 0.0
O199 O 0.85226 0.82852 0.48556 0.0
C200 C 0.93739 0.88661 0.54914 0.0
O201 O 0.92203 0.89992 0.50881 0.0
O202 O 0.80619 0.85647 0.57969 0.0
C203 C 0.87989 0.81823 0.45532 0.0
O204 O 0.91817 0.80241 0.46785 0.0
C205 C 0.84922 0.72479 0.56025 0.0
O206 O 0.82561 0.72687 0.52219 0.0
O207 O 0.91538 0.8588 0.57392 0.0
C208 C 0.01513 0.0668 0.3552 0.0
O209 O -0.00162 0.02902 0.37331 0.0
O210 O 0.90875 0.0205 0.34487 0.0
Zn211 Zn 0.92675 0.0831 0.32152 0.0
O212 O 0.8965 0.13368 0.35492 0.0
C213 C 0.87509 0.10001 0.23902 0.0
O214 O 0.84808 0.11855 0.26798 0.0
O215 O -0.00878 0.09343 0.33113 0.0
C216 C 0.90471 0.14168 0.39721 0.0
O217 O 0.93142 0.1148 0.42035 0.0
C218 C 0.86906 0.00762 0.34334 0.0
O219 O 0.83909 0.03673 0.32961 0.0
O220 O 0.91129 0.08457 0.25374 0.0
C221 C 0.66619 0.11463 0.12752 0.0
O222 O 0.64301 0.14065 0.1544 0.0
O223 O 0.60005 0.20304 0.07296 0.0
Zn224 Zn 0.60188 0.1366 0.05547 0.0
O225 O 0.60988 0.13019 -0.01241 0.0
C226 C 0.52048 0.08194 0.05196 0.0
O227 O 0.53324 0.06719 0.01177 0.0
O228 O 0.65364 0.10733 0.08626 0.0
C229 C 0.58394 0.14088 0.95484 0.0
O230 O 0.54616 0.15933 0.96353 0.0
C231 C 0.63249 0.23015 0.07894 0.0
O232 O 0.67212 0.21589 0.07141 0.0
O233 O 0.54504 0.10856 0.07577 0.0
C234 C 0.47751 0.86921 0.86783 0.0
O235 O 0.50949 0.88461 0.8944 0.0
O236 O 0.56189 0.93775 0.82245 0.0
Zn237 Zn 0.54674 0.87167 0.80776 0.0
O238 O 0.58063 0.82531 0.84596 0.0
C239 C 0.59182 0.87907 0.72424 0.0
O240 O 0.61856 0.90056 0.75284 0.0
O241 O 0.48458 0.86143 0.82555 0.0
C242 C 0.6204 0.81431 0.84317 0.0
O243 O 0.64564 0.83499 0.81318 0.0
C244 C 0.5972 0.95158 0.84133 0.0
O245 O 0.62655 0.92168 0.85475 0.0
O246 O 0.55628 0.86221 0.73927 0.0
C247 C 0.91781 0.11062 0.84931 0.0
O248 O 0.88511 0.11031 0.8196 0.0
O249 O 0.84868 0.13084 0.98035 0.0
Zn250 Zn 0.8553 0.14613 0.91292 0.0
O251 O 0.85715 0.21386 0.89895 0.0
C252 C 0.79007 0.0791 0.88876 0.0
O253 O 0.81162 0.05369 0.91874 0.0
O254 O 0.91168 0.12202 0.89082 0.0
C255 C 0.82406 0.23784 0.88857 0.0
O256 O 0.78476 0.21959 0.89097 0.0
C257 C 0.82953 0.15674 0.00849 0.0
O258 O 0.81514 0.19703 -0.00543 0.0
O259 O 0.80408 0.11926 0.87886 0.0
C260 C 0.472 0.09794 0.62824 0.0
O261 O 0.48671 0.07261 0.59466 0.0
O262 O 0.57761 0.0599 0.61131 0.0
Zn263 Zn 0.56292 0.11915 0.64231 0.0
O264 O 0.57457 0.17472 0.60179 0.0
C265 C 0.59721 0.15348 0.73188 0.0
O266 O 0.57643 0.19197 0.72335 0.0
O267 O 0.49878 0.11929 0.65458 0.0
C268 C 0.60579 0.20341 0.60753 0.0
O269 O 0.63522 0.19621 0.64 0.0
C270 C 0.61647 0.04588 0.60891 0.0
O271 O 0.64877 0.07215 0.62406 0.0
O272 O 0.59587 0.12088 0.70277 0.0
C273 C 0.54524 0.86915 0.34455 0.0
O274 O 0.57573 0.88011 0.31506 0.0
O275 O 0.62633 0.80987 0.45666 0.0
Zn276 Zn 0.61011 0.80789 0.38899 0.0
O277 O 0.59891 0.74212 0.36918 0.0
C278 C 0.6837 0.81288 0.32626 0.0
O279 O 0.6698 0.77213 0.31246 0.0
O280 O 0.5537 0.84178 0.37776 0.0
C281 C 0.57815 0.73591 0.33142 0.0
O282 O 0.56639 0.77173 0.30652 0.0
C283 C 0.6145 0.84356 0.4811 0.0
O284 O 0.58936 0.87527 0.46276 0.0
O285 O 0.66208 0.83507 0.35566 0.0
C286 C -0.01012 0.86795 0.10645 0.0
O287 O 0.96995 0.89189 0.07406 0.0
O288 O 0.88513 0.91487 0.10743 0.0
Zn289 Zn 0.90242 0.85306 0.1341 0.0
O290 O 0.88498 0.80011 0.09234 0.0
C291 C 0.87999 0.81451 0.22642 0.0
O292 O 0.90361 0.77847 0.21689 0.0
O293 O 0.96776 0.84979 0.13862 0.0
C294 C 0.85899 0.76765 0.10368 0.0
O295 O 0.8377 0.77011 0.1424 0.0
C296 C 0.84884 0.93229 0.11773 0.0
O297 O 0.82156 0.90861 0.1434 0.0
O298 O 0.8762 0.84727 0.19734 0.0
C299 C 0.73631 0.62117 0.85693 0.0
O300 O 0.76025 0.65875 0.85171 0.0
O301 O 0.83408 0.62849 0.79669 0.0
Zn302 Zn 0.81933 0.58742 0.85036 0.0
O303 O 0.84132 0.61106 0.91153 0.0
C304 C 0.83796 0.48798 0.8559 0.0
O305 O 0.81006 0.48515 0.88965 0.0
O306 O 0.75442 0.58213 0.85569 0.0
C307 C 0.8774 0.59989 0.93006 0.0
O308 O 0.90467 0.57449 0.90721 0.0
C309 C 0.87194 0.62542 0.78015 0.0
O310 O 0.90139 0.60096 0.80222 0.0
O311 O 0.84552 0.5264 0.83627 0.0
C312 C 0.2199 0.90026 0.08989 0.0
O313 O 0.23715 0.94119 0.08173 0.0
O314 O 0.31896 0.8557 0.18737 0.0
Zn315 Zn 0.30774 0.87527 0.12137 0.0
O316 O 0.33764 0.83445 0.07572 0.0
C317 C 0.36971 0.94816 0.1047 0.0
O318 O 0.39401 0.9126 0.09541 0.0
O319 O 0.24326 0.86867 0.10744 0.0
C320 C 0.33228 0.84768 0.03423 0.0
O321 O 0.31023 0.88539 0.02572 0.0
C322 C 0.35684 0.8582 0.20555 0.0
O323 O 0.3902 0.87028 0.18029 0.0
O324 O 0.32995 0.94156 0.11486 0.0
C325 C 0.23894 0.11319 0.64573 0.0
O326 O 0.22518 0.11461 0.68829 0.0
O327 O 0.13105 0.13159 0.68105 0.0
Zn328 Zn 0.14657 0.10336 0.61977 0.0
O329 O 0.12111 0.13896 0.56635 0.0
C330 C 0.08659 0.02844 0.60124 0.0
O331 O 0.06146 0.06304 0.58963 0.0
O332 O 0.21183 0.10729 0.61267 0.0
C333 C 0.13367 0.1238 0.5279 0.0
O334 O 0.15965 0.08818 0.52728 0.0
C335 C 0.09506 0.12428 0.70104 0.0
O336 O 0.06495 0.09835 0.68112 0.0
O337 O 0.12526 0.03665 0.61564 0.0
C338 C 0.2429 0.86698 0.83663 0.0
O339 O 0.21813 0.83223 0.82283 0.0
O340 O 0.14334 0.87917 0.77705 0.0
Zn341 Zn 0.16182 0.91076 0.83569 0.0
O342 O 0.13629 0.88115 0.89212 0.0
C343 C 0.12918 0.00228 0.86011 0.0
O344 O 0.11845 0.98426 0.90004 0.0
O345 O 0.22608 0.90605 0.84322 0.0
C346 C 0.09653 0.87315 0.90095 0.0
O347 O 0.06595 0.88442 0.87102 0.0
C348 C 0.107 0.88817 0.75784 0.0
O349 O 0.0801 0.91617 0.77801 0.0
O350 O 0.14712 0.97766 0.82999 0.0
C351 C 0.74775 0.35084 0.3567 0.0
O352 O 0.71728 0.3186 0.35836 0.0
O353 O 0.63977 0.3935 0.2994 0.0
Zn354 Zn 0.67326 0.40704 0.35783 0.0
O355 O 0.65026 0.37474 0.41421 0.0
C356 C 0.62703 0.48708 0.3712 0.0
O357 O 0.59728 0.45493 0.37829 0.0
O358 O 0.73687 0.39285 0.35367 0.0
C359 C 0.61323 0.35635 0.42186 0.0
O360 O 0.58285 0.35572 0.38951 0.0
C361 C 0.62158 0.3579 0.28205 0.0
O362 O 0.62408 0.31771 0.30303 0.0
O363 O 0.66607 0.47528 0.36471 0.0
C364 C 0.73732 0.4027 0.64097 0.0
O365 O 0.75182 0.4083 0.6834 0.0
O366 O 0.85129 0.37985 0.67061 0.0
Zn367 Zn 0.82911 0.41006 0.61205 0.0
O368 O 0.85333 0.38295 0.55405 0.0
C369 C 0.88983 0.48215 0.62041 0.0
O370 O 0.91466 0.44567 0.62338 0.0
O371 O 0.76372 0.40387 0.60764 0.0
C372 C 0.84691 0.34187 0.54006 0.0
O373 O 0.82538 0.31215 0.56571 0.0
C374 C 0.83676 0.34266 0.68846 0.0
O375 O 0.80631 0.3185 0.66687 0.0
O376 O 0.84897 0.47664 0.61462 0.0
C377 C 0.74318 0.56743 0.14089 0.0
O378 O 0.72677 0.57145 0.18214 0.0
O379 O 0.63358 0.58318 0.16851 0.0
Zn380 Zn 0.65305 0.55079 0.11116 0.0
O381 O 0.62912 0.57947 0.05326 0.0
C382 C 0.59944 0.47088 0.08986 0.0
O383 O 0.57909 0.50042 0.06298 0.0
O384 O 0.71842 0.55667 0.10699 0.0
C385 C 0.63594 0.62076 0.04005 0.0
O386 O 0.65786 0.64963 0.06668 0.0
C387 C 0.59649 0.57627 0.18629 0.0
O388 O 0.56783 0.5491 0.16555 0.0
O389 O 0.63263 0.48411 0.11341 0.0
C390 C 0.63585 0.77338 0.86786 0.0
O391 O 0.67473 0.75755 0.85948 0.0
O392 O 0.67672 0.66542 0.87835 0.0
Zn393 Zn 0.62152 0.68334 0.90887 0.0
O394 O 0.56942 0.64669 0.88595 0.0
C395 C 0.62448 0.63334 -0.00747 0.0
O396 O 0.61122 0.60091 0.96394 0.0
O397 O 0.60918 0.74921 0.89125 0.0
C398 C 0.53566 0.64834 0.91059 0.0
O399 O 0.53731 0.67103 0.94962 0.0
C400 C 0.69102 0.62534 0.87095 0.0
O401 O 0.66766 0.58866 0.88183 0.0
O402 O 0.63068 0.67415 0.97744 0.0
C403 C 0.59965 0.36277 0.2371 0.0
O404 O 0.59618 0.40406 0.21863 0.0
O405 O 0.58661 0.285 0.11112 0.0
Zn406 Zn 0.5684 0.33909 0.14786 0.0
O407 O 0.5982 0.39743 0.12589 0.0
C408 C 0.47704 0.31736 0.16115 0.0
O409 O 0.49238 0.29086 0.19432 0.0
O410 O 0.58701 0.32772 0.2142 0.0
C411 C 0.58064 0.42467 0.09697 0.0
O412 O 0.54302 0.41345 0.07769 0.0
C413 C 0.62511 0.27508 0.09989 0.0
O414 O 0.65789 0.30244 0.11152 0.0
O415 O 0.5031 0.34298 0.13858 0.0
C416 C 0.89005 0.18484 0.41752 0.0
O417 O 0.90416 0.19738 0.45858 0.0
O418 O 0.80197 0.29783 0.37851 0.0
Zn419 Zn 0.85848 0.27929 0.40852 0.0
O420 O 0.91021 0.31521 0.38399 0.0
C421 C 0.8582 0.3302 0.49263 0.0
O422 O 0.87095 0.36316 0.46443 0.0
O423 O 0.86882 0.21303 0.39251 0.0
C424 C 0.94478 0.31464 0.40864 0.0
O425 O 0.94445 0.29348 0.44877 0.0
C426 C 0.79312 0.33901 0.36695 0.0
O427 O 0.82292 0.3717 0.37157 0.0
O428 O 0.85177 0.28961 0.4772 0.0
C429 C 0.8791 0.63878 0.73212 0.0
O430 O 0.8471 0.65639 0.70746 0.0
O431 O 0.88617 0.67974 0.61595 0.0
Zn432 Zn 0.91544 0.62396 0.64317 0.0
O433 O 0.88663 0.56426 0.62289 0.0
C434 C 0.98467 0.628 0.5805 0.0
O435 O 0.95139 0.62453 0.55169 0.0
O436 O 0.91284 0.62468 0.71213 0.0
C437 C 0.90916 0.5281 0.62788 0.0
O438 O 0.9496 0.5318 0.64294 0.0
C439 C 0.86149 0.68023 0.58037 0.0
O440 O 0.85105 0.64148 0.55942 0.0
O441 O 0.978 0.62706 0.62354 0.0
C442 C 0.60321 0.34278 0.46924 0.0
O443 O 0.56275 0.33564 0.48171 0.0
O444 O 0.57051 0.37449 0.58372 0.0
Zn445 Zn 0.62755 0.3444 0.56802 0.0
O446 O 0.68042 0.37958 0.59062 0.0
C447 C 0.60554 0.24725 0.58198 0.0
O448 O 0.57549 0.25487 0.55025 0.0
O449 O 0.63353 0.34513 0.49944 0.0
C450 C 0.69223 0.38749 0.63196 0.0
O451 O 0.66688 0.3751 0.66602 0.0
C452 C 0.54671 0.35902 0.6159 0.0
O453 O 0.56048 0.32467 0.64174 0.0
O454 O 0.63119 0.27982 0.59424 0.0
C455 C 0.9592 0.36565 0.88373 0.0
O456 O 0.92799 0.3628 0.91408 0.0
O457 O 0.85249 0.40753 0.85671 0.0
Zn458 Zn 0.88538 0.35644 0.8274 0.0
O459 O 0.86836 0.29565 0.85547 0.0
C460 C 0.84914 0.33119 0.73617 0.0
O461 O 0.8307 0.29592 0.75719 0.0
O462 O 0.94931 0.36526 0.8411 0.0
C463 C 0.83071 0.28412 0.86929 0.0
O464 O 0.79798 0.31239 0.86374 0.0
C465 C 0.86036 0.44712 0.83966 0.0
O466 O 0.88849 0.45123 0.80621 0.0
O467 O 0.8736 0.359 0.75875 0.0
C468 C 0.88461 0.60821 0.97938 0.0
O469 O 0.91978 0.59263 0.00014 0.0
O470 O 0.91005 0.59642 0.09699 0.0
Zn471 Zn 0.85353 0.62352 0.07263 0.0
O472 O 0.80103 0.58578 0.09095 0.0
C473 C 0.85934 0.72408 0.0783 0.0
O474 O 0.88046 0.72125 0.03945 0.0
O475 O 0.85382 0.62418 0.00307 0.0
C476 C 0.78774 0.5838 0.13214 0.0
O477 O 0.81079 0.6037 0.16516 0.0
C478 C 0.93833 0.62072 0.11875 0.0
O479 O 0.92998 0.66384 0.12857 0.0
O480 O 0.84514 0.68754 0.09762 0.0
C481 C 0.4605 0.56739 0.35248 0.0
O482 O 0.47432 0.52471 0.35228 0.0
O483 O 0.57258 0.54088 0.3551 0.0
Zn484 Zn 0.54752 0.59466 0.32131 0.0
O485 O 0.57682 0.65425 0.33956 0.0
C486 C 0.58832 0.59337 0.23279 0.0
O487 O 0.61938 0.61551 0.25553 0.0
O488 O 0.48519 0.60029 0.33923 0.0
C489 C 0.56444 0.68957 0.31711 0.0
O490 O 0.53644 0.68455 0.28276 0.0
C491 C 0.61309 0.53377 0.35957 0.0
O492 O 0.64128 0.56467 0.34456 0.0
O493 O 0.55335 0.58222 0.25319 0.0
C494 C 0.74015 0.85703 0.62069 0.0
O495 O 0.71522 0.83688 0.6514 0.0
O496 O 0.63974 0.8937 0.66363 0.0
Zn497 Zn 0.66331 0.91135 0.60172 0.0
O498 O 0.62711 0.88858 0.5477 0.0
C499 C 0.62388 -0.00243 0.59729 0.0
O500 O 0.5903 0.96986 0.58979 0.0
O501 O 0.72521 0.8898 0.59603 0.0
C502 C 0.63453 0.85126 0.52666 0.0
O503 O 0.66494 0.82357 0.54226 0.0
C504 C 0.60248 0.87848 0.67522 0.0
O505 O 0.57277 0.8683 0.64371 0.0
O506 O 0.66165 0.9806 0.60152 0.0
C507 C 0.30164 0.37755 0.09088 0.0
O508 O 0.32972 0.40175 0.06667 0.0
O509 O 0.3607 0.23744 0.08471 0.0
Zn510 Zn 0.3637 0.30654 0.07544 0.0
O511 O 0.36398 0.3227 0.00755 0.0
C512 C 0.43183 0.31098 0.14478 0.0
O513 O 0.40639 0.28068 0.16531 0.0
O514 O 0.30997 0.33585 0.10132 0.0
C515 C 0.39327 0.34697 -0.01195 0.0
O516 O 0.42766 0.36093 0.01186 0.0
C517 C 0.36471 0.20821 0.05263 0.0
O518 O 0.36866 0.22249 0.00987 0.0
O519 O 0.4195 0.32898 0.10675 0.0
C520 C 0.49379 0.63021 0.89357 0.0
O521 O 0.46004 0.63009 0.92078 0.0
O522 O 0.40643 0.54616 0.83859 0.0
Zn523 Zn 0.42628 0.61205 0.8297 0.0
O524 O 0.39147 0.6597 0.86298 0.0
C525 C 0.38254 0.62158 0.74566 0.0
O526 O 0.35093 0.61108 0.77393 0.0
O527 O 0.48831 0.62079 0.85117 0.0
C528 C 0.35162 0.66381 0.87312 0.0
O529 O 0.32299 0.63156 0.8619 0.0
C530 C 0.38053 0.52892 0.86791 0.0
O531 O 0.36417 0.55484 0.90006 0.0
O532 O 0.42118 0.62526 0.76152 0.0
C533 C 0.19319 0.66123 0.62518 0.0
O534 O 0.18069 0.69938 0.64493 0.0
O535 O 0.11114 0.74056 0.57355 0.0
Zn536 Zn 0.11581 0.6713 0.564 0.0
O537 O 0.11828 0.65353 0.49726 0.0
C538 C 0.02795 0.63933 0.56287 0.0
O539 O 0.03194 0.6504 0.51921 0.0
O540 O 0.17022 0.64378 0.59278 0.0
C541 C 0.12968 0.67858 0.46342 0.0
O542 O 0.14022 0.72218 0.46981 0.0
C543 C 0.13922 0.77305 0.56991 0.0
O544 O 0.17908 0.76401 0.55739 0.0
O545 O 0.06065 0.64351 0.59007 0.0
C546 C 0.98584 0.33401 0.39166 0.0
O547 O 0.01979 0.3365 0.41967 0.0
O548 O 0.06579 0.42502 0.35079 0.0
Zn549 Zn 0.05237 0.35903 0.33189 0.0
O550 O 0.08832 0.30767 0.36085 0.0
C551 C 0.09763 0.36732 0.24914 0.0
O552 O 0.12739 0.38055 0.27935 0.0
O553 O -0.00953 0.34394 0.34928 0.0
C554 C 0.12875 0.29947 0.36539 0.0
O555 O 0.15801 0.3297 0.35159 0.0
C556 C 0.10093 0.44215 0.36735 0.0
O557 O 0.13368 0.4153 0.37779 0.0
O558 O 0.05987 0.35594 0.2629 0.0
C559 C 0.41845 0.57851 0.37232 0.0
O560 O 0.39134 0.54578 0.38559 0.0
O561 O 0.3586 0.64071 0.47744 0.0
Zn562 Zn 0.35825 0.64899 0.40858 0.0
O563 O 0.36287 0.71593 0.3931 0.0
C564 C 0.28685 0.58611 0.40332 0.0
O565 O 0.3094 0.56616 0.4365 0.0
O566 O 0.40999 0.62061 0.37937 0.0
C567 C 0.33609 0.74753 0.40176 0.0
O568 O 0.29985 0.73781 0.42342 0.0
C569 C 0.38928 0.624 0.50188 0.0
O570 O 0.42588 0.61238 0.48259 0.0
O571 O 0.30196 0.62223 0.38393 0.0
C572 C 0.98212 0.60277 0.12761 0.0
O573 O -0.00797 0.56115 0.11395 0.0
O574 O 0.08496 0.54961 0.12241 0.0
Zn575 Zn 0.07565 0.61336 0.14775 0.0
O576 O 0.10986 0.66367 0.11493 0.0
C577 C 0.12884 0.63402 0.22879 0.0
O578 O 0.15021 0.66121 0.20044 0.0
O579 O 0.01173 0.62945 0.14388 0.0
C580 C 0.09201 0.68901 0.08436 0.0
O581 O 0.05214 0.67933 0.0701 0.0
C582 C 0.12237 0.53144 0.12228 0.0
O583 O 0.15673 0.55603 0.13495 0.0
O584 O 0.0956 0.61137 0.21437 0.0
C585 C 0.00459 0.36203 0.89932 0.0
O586 O 0.01291 0.35155 0.94261 0.0
O587 O 0.10173 0.37104 0.96035 0.0
Zn588 Zn 0.09366 0.34349 0.89683 0.0
O589 O 0.0918 0.27362 0.89478 0.0
C590 C 0.18009 0.37055 0.88393 0.0
O591 O 0.17982 0.3589 0.92768 0.0
O592 O 0.03559 0.36334 0.8708 0.0
C593 C 0.12374 0.24635 0.89194 0.0
O594 O 0.16384 0.26254 0.89453 0.0
C595 C 0.1059 0.35084 -0.00095 0.0
O596 O 0.10137 0.30577 0.00196 0.0
O597 O 0.14518 0.36668 0.85995 0.0
C598 C 0.5024 0.3763 0.62151 0.0
O599 O 0.48751 0.40942 0.59476 0.0
O600 O 0.40027 0.43727 0.64748 0.0
Zn601 Zn 0.41378 0.37028 0.65951 0.0
O602 O 0.37776 0.32812 0.61866 0.0
C603 C 0.36468 0.36239 0.7429 0.0
O604 O 0.33237 0.3746 0.71547 0.0
O605 O 0.47735 0.35656 0.65017 0.0
C606 C 0.38371 0.28557 0.62669 0.0
O607 O 0.41051 0.27349 0.66024 0.0
C608 C 0.36383 0.45211 0.63259 0.0
O609 O 0.3324 0.42288 0.62137 0.0
O610 O 0.40226 0.35708 0.72642 0.0
C611 C 0.24933 0.10891 0.34432 0.0
O612 O 0.26525 0.14511 0.32252 0.0
O613 O 0.3526 0.12251 0.29739 0.0
Zn614 Zn 0.33948 0.0936 0.35946 0.0
O615 O 0.35154 0.13367 0.41466 0.0
C616 C 0.3595 -0.00459 0.37355 0.0
O617 O 0.31776 -0.01069 0.38114 0.0
O618 O 0.27522 0.07945 0.36164 0.0
C619 C 0.38874 0.13821 0.43388 0.0
O620 O 0.42304 0.12114 0.41401 0.0
C621 C 0.38264 0.10601 0.27302 0.0
O622 O 0.40853 0.07465 0.29065 0.0
O623 O 0.37457 0.03563 0.36571 0.0
loop_
_geom_bond_atom_site_label_1
_geom_bond_atom_site_label_2
_geom_bond_distance
_geom_bond_site_symmetry_2
_ccdc_geom_bond_type
C0 O1 1.160 . S
C0 O7 1.185 . S
O1 C0 1.160 . S
O2 Zn3 1.899 . S
O2 C10 1.284 . S
Zn3 O2 1.899 . S
Zn3 O4 2.032 . S
Zn3 O7 2.086 . S
Zn3 O12 1.977 . S
O4 Zn3 2.032 . S
O4 C8 1.278 . S
C5 O6 1.203 . S
C5 O12 1.267 . S
O6 C5 1.203 . S
O7 C0 1.185 . S
O7 Zn3 2.086 . S
C8 O4 1.278 . S
C8 O9 1.211 . S
O9 C8 1.211 . S
C10 O2 1.284 . S
C10 O11 1.273 . S
O11 C10 1.273 . S
O12 Zn3 1.977 . S
O12 C5 1.267 . S
C13 O14 1.160 . S
C13 O20 1.185 . S
O14 C13 1.160 . S
O15 Zn16 1.899 . S
O15 C23 1.284 . S
Zn16 O15 1.899 . S
Zn16 O17 2.032 . S
Zn16 O20 2.086 . S
Zn16 O25 1.977 . S
O17 Zn16 2.032 . S
O17 C21 1.278 . S
C18 O19 1.203 . S
C18 O25 1.267 . S
O19 C18 1.203 . S
O20 C13 1.185 . S
O20 Zn16 2.086 . S
C21 O17 1.278 . S
C21 O22 1.211 . S
O22 C21 1.211 . S
C23 O15 1.284 . S
C23 O24 1.273 . S
O24 C23 1.273 . S
O25 Zn16 1.977 . S
O25 C18 1.267 . S
C26 O27 1.160 . S
C26 O33 1.185 . S
O27 C26 1.160 . S
O28 Zn29 1.899 . S
O28 C36 1.284 . S
Zn29 O28 1.899 . S
Zn29 O30 2.032 . S
Zn29 O33 2.086 . S
Zn29 O38 1.977 . S
O30 Zn29 2.032 . S
O30 C34 1.278 . S
C31 O32 1.203 1_554 S
C31 O38 1.267 1_554 S
O32 C31 1.203 1_556 S
O33 C26 1.185 . S
O33 Zn29 2.086 . S
C34 O30 1.278 . S
C34 O35 1.211 . S
O35 C34 1.211 . S
C36 O28 1.284 . S
C36 O37 1.273 . S
O37 C36 1.273 . S
O38 Zn29 1.977 . S
O38 C31 1.267 1_556 S
C39 O40 1.160 . S
C39 O46 1.185 . S
O40 C39 1.160 . S
O41 Zn42 1.899 . S
O41 C49 1.284 . S
Zn42 O41 1.899 . S
Zn42 O43 2.032 . S
Zn42 O46 2.086 . S
Zn42 O51 1.977 . S
O43 Zn42 2.032 . S
O43 C47 1.278 . S
C44 O45 1.203 . S
C44 O51 1.267 . S
O45 C44 1.203 . S
O46 C39 1.185 . S
O46 Zn42 2.086 . S
C47 O43 1.278 . S
C47 O48 1.211 . S
O48 C47 1.211 . S
C49 O41 1.284 . S
C49 O50 1.273 . S
O50 C49 1.273 . S
O51 Zn42 1.977 . S
O51 C44 1.267 . S
C52 O53 1.160 1_556 S
C52 O59 1.185 1_556 S
O53 C52 1.160 1_554 S
O54 Zn55 1.899 . S
O54 C62 1.284 . S
Zn55 O54 1.899 . S
Zn55 O56 2.032 . S
Zn55 O59 2.086 . S
Zn55 O64 1.977 . S
O56 Zn55 2.032 . S
O56 C60 1.278 . S
C57 O58 1.203 . S
C57 O64 1.267 . S
O58 C57 1.203 . S
O59 C52 1.185 1_554 S
O59 Zn55 2.086 . S
C60 O56 1.278 . S
C60 O61 1.211 . S
O61 C60 1.211 . S
C62 O54 1.284 . S
C62 O63 1.273 . S
O63 C62 1.273 . S
O64 Zn55 1.977 . S
O64 C57 1.267 . S
C65 O66 1.160 . S
C65 O72 1.185 . S
O66 C65 1.160 . S
O67 Zn68 1.899 . S
O67 C75 1.284 . S
Zn68 O67 1.899 . S
Zn68 O69 2.032 . S
Zn68 O72 2.086 . S
Zn68 O77 1.977 . S
O69 Zn68 2.032 . S
O69 C73 1.278 . S
C70 O71 1.203 . S
C70 O77 1.267 . S
O71 C70 1.203 . S
O72 C65 1.185 . S
O72 Zn68 2.086 . S
C73 O69 1.278 . S
C73 O74 1.211 . S
O74 C73 1.211 . S
C75 O67 1.284 . S
C75 O76 1.273 . S
O76 C75 1.273 . S
O77 Zn68 1.977 . S
O77 C70 1.267 . S
C78 O79 1.160 . S
C78 O85 1.185 . S
O79 C78 1.160 . S
O80 Zn81 1.899 . S
O80 C88 1.284 . S
Zn81 O80 1.899 . S
Zn81 O82 2.032 . S
Zn81 O85 2.086 . S
Zn81 O90 1.977 . S
O82 Zn81 2.032 . S
O82 C86 1.278 . S
C83 O84 1.203 . S
C83 O90 1.267 . S
O84 C83 1.203 . S
O85 C78 1.185 . S
O85 Zn81 2.086 . S
C86 O82 1.278 . S
C86 O87 1.211 . S
O87 C86 1.211 . S
C88 O80 1.284 . S
C88 O89 1.273 . S
O89 C88 1.273 . S
O90 Zn81 1.977 . S
O90 C83 1.267 . S
C91 O92 1.160 . S
C91 O98 1.186 . S
O92 C91 1.160 . S
O93 Zn94 1.899 . S
O93 C101 1.284 . S
Zn94 O93 1.899 . S
Zn94 O95 2.032 . S
Zn94 O98 2.086 . S
Zn94 O103 1.977 . S
O95 Zn94 2.032 . S
O95 C99 1.278 . S
C96 O97 1.203 . S
C96 O103 1.267 . S
O97 C96 1.203 . S
O98 C91 1.186 . S
O98 Zn94 2.086 . S
C99 O95 1.278 . S
C99 O100 1.211 . S
O100 C99 1.211 . S
C101 O93 1.284 . S
C101 O102 1.273 . S
O102 C101 1.273 . S
O103 Zn94 1.977 . S
O103 C96 1.267 . S
C104 O105 1.160 . S
C104 O111 1.185 . S
O105 C104 1.160 . S
O106 Zn107 1.899 . S
O106 C114 1.284 . S
Zn107 O106 1.899 . S
Zn107 O108 2.032 . S
Zn107 O111 2.086 . S
Zn107 O116 1.977 . S
O108 Zn107 2.032 . S
O108 C112 1.278 . S
C109 O110 1.203 . S
C109 O116 1.267 . S
O110 C109 1.203 . S
O111 C104 1.185 . S
O111 Zn107 2.086 . S
C112 O108 1.278 . S
C112 O113 1.211 . S
O113 C112 1.211 . S
C114 O106 1.284 . S
C114 O115 1.273 . S
O115 C114 1.273 . S
O116 Zn107 1.977 . S
O116 C109 1.267 . S
C117 O118 1.160 1_565 S
C117 O124 1.185 1_565 S
O118 C117 1.160 1_545 S
O119 Zn120 1.899 . S
O119 C127 1.284 . S
Zn120 O119 1.899 . S
Zn120 O121 2.032 . S
Zn120 O124 2.086 . S
Zn120 O129 1.977 . S
O121 Zn120 2.032 . S
O121 C125 1.278 . S
C122 O123 1.203 . S
C122 O129 1.267 . S
O123 C122 1.203 . S
O124 C117 1.185 1_545 S
O124 Zn120 2.086 . S
C125 O121 1.278 . S
C125 O126 1.211 . S
O126 C125 1.211 . S
C127 O119 1.284 . S
C127 O128 1.273 . S
O128 C127 1.273 . S
O129 Zn120 1.977 . S
O129 C122 1.267 . S
C130 O131 1.160 1_545 S
C130 O137 1.185 1_545 S
O131 C130 1.160 1_565 S
O132 Zn133 1.899 . S
O132 C140 1.284 . S
Zn133 O132 1.899 . S
Zn133 O134 2.032 . S
Zn133 O137 2.086 . S
Zn133 O142 1.977 . S
O134 Zn133 2.032 . S
O134 C138 1.278 . S
C135 O136 1.203 . S
C135 O142 1.267 . S
O136 C135 1.203 . S
O137 C130 1.185 1_565 S
O137 Zn133 2.086 . S
C138 O134 1.278 . S
C138 O139 1.211 . S
O139 C138 1.211 . S
C140 O132 1.284 . S
C140 O141 1.273 . S
O141 C140 1.273 . S
O142 Zn133 1.977 . S
O142 C135 1.267 . S
C143 O144 1.160 1_565 S
C143 O150 1.185 1_565 S
O144 C143 1.160 1_545 S
O145 Zn146 1.899 . S
O145 C153 1.284 . S
Zn146 O145 1.899 . S
Zn146 O147 2.032 . S
Zn146 O150 2.086 . S
Zn146 O155 1.977 . S
O147 Zn146 2.032 . S
O147 C151 1.278 . S
C148 O149 1.203 . S
C148 O155 1.267 . S
O149 C148 1.203 . S
O150 C143 1.185 1_545 S
O150 Zn146 2.086 . S
C151 O147 1.278 . S
C151 O152 1.211 . S
O152 C151 1.211 . S
C153 O145 1.284 . S
C153 O154 1.273 . S
O154 C153 1.273 . S
O155 Zn146 1.977 . S
O155 C148 1.267 . S
C156 O157 1.160 . S
C156 O163 1.185 . S
O157 C156 1.160 . S
O158 Zn159 1.899 . S
O158 C166 1.284 . S
Zn159 O158 1.899 . S
Zn159 O160 2.032 . S
Zn159 O163 2.086 . S
Zn159 O168 1.977 . S
O160 Zn159 2.032 . S
O160 C164 1.278 . S
C161 O162 1.203 . S
C161 O168 1.267 . S
O162 C161 1.203 . S
O163 C156 1.185 . S
O163 Zn159 2.086 . S
C164 O160 1.278 . S
C164 O165 1.211 . S
O165 C164 1.211 . S
C166 O158 1.284 . S
C166 O167 1.273 . S
O167 C166 1.273 . S
O168 Zn159 1.977 . S
O168 C161 1.267 . S
C169 O170 1.160 . S
C169 O176 1.185 . S
O170 C169 1.160 . S
O171 Zn172 1.899 . S
O171 C179 1.284 . S
Zn172 O171 1.899 . S
Zn172 O173 2.032 . S
Zn172 O176 2.086 . S
Zn172 O181 1.977 . S
O173 Zn172 2.032 . S
O173 C177 1.278 . S
C174 O175 1.203 . S
C174 O181 1.267 . S
O175 C174 1.203 . S
O176 C169 1.185 . S
O176 Zn172 2.086 . S
C177 O173 1.278 . S
C177 O178 1.211 . S
O178 C177 1.211 . S
C179 O171 1.284 . S
C179 O180 1.273 . S
O180 C179 1.273 . S
O181 Zn172 1.977 . S
O181 C174 1.267 . S
C182 O183 1.160 . S
C182 O189 1.185 . S
O183 C182 1.160 . S
O184 Zn185 1.899 . S
O184 C192 1.284 . S
Zn185 O184 1.899 . S
Zn185 O186 2.032 . S
Zn185 O189 2.086 . S
Zn185 O194 1.977 . S
O186 Zn185 2.032 . S
O186 C190 1.278 . S
C187 O188 1.203 . S
C187 O194 1.267 . S
O188 C187 1.203 . S
O189 C182 1.185 . S
O189 Zn185 2.086 . S
C190 O186 1.278 . S
C190 O191 1.211 . S
O191 C190 1.211 . S
C192 O184 1.284 . S
C192 O193 1.273 . S
O193 C192 1.273 . S
O194 Zn185 1.977 . S
O194 C187 1.267 . S
C195 O196 1.160 . S
C195 O202 1.185 . S
O196 C195 1.160 . S
O197 Zn198 1.899 . S
O197 C205 1.284 . S
Zn198 O197 1.899 . S
Zn198 O199 2.032 . S
Zn198 O202 2.086 . S
Zn198 O207 1.977 . S
O199 Zn198 2.032 . S
O199 C203 1.278 . S
C200 O201 1.203 . S
C200 O207 1.267 . S
O201 C200 1.203 . S
O202 C195 1.185 . S
O202 Zn198 2.086 . S
C203 O199 1.278 . S
C203 O204 1.211 . S
O204 C203 1.211 . S
C205 O197 1.284 . S
C205 O206 1.273 . S
O206 C205 1.273 . S
O207 Zn198 1.977 . S
O207 C200 1.267 . S
C208 O209 1.160 1_455 S
C208 O215 1.185 1_455 S
O209 C208 1.160 1_655 S
O210 Zn211 1.899 . S
O210 C218 1.284 . S
Zn211 O210 1.899 . S
Zn211 O212 2.032 . S
Zn211 O215 2.086 . S
Zn211 O220 1.977 . S
O212 Zn211 2.032 . S
O212 C216 1.278 . S
C213 O214 1.203 . S
C213 O220 1.267 . S
O214 C213 1.203 . S
O215 C208 1.185 1_655 S
O215 Zn211 2.086 . S
C216 O212 1.278 . S
C216 O217 1.211 . S
O217 C216 1.211 . S
C218 O210 1.284 . S
C218 O219 1.273 . S
O219 C218 1.273 . S
O220 Zn211 1.977 . S
O220 C213 1.267 . S
C221 O222 1.160 . S
C221 O228 1.185 . S
O222 C221 1.160 . S
O223 Zn224 1.899 . S
O223 C231 1.284 . S
Zn224 O223 1.899 . S
Zn224 O225 2.032 . S
Zn224 O228 2.086 . S
Zn224 O233 1.977 . S
O225 Zn224 2.032 . S
O225 C229 1.278 . S
C226 O227 1.203 . S
C226 O233 1.267 . S
O227 C226 1.203 . S
O228 C221 1.185 . S
O228 Zn224 2.086 . S
C229 O225 1.278 . S
C229 O230 1.211 . S
O230 C229 1.211 . S
C231 O223 1.284 . S
C231 O232 1.273 . S
O232 C231 1.273 . S
O233 Zn224 1.977 . S
O233 C226 1.267 . S
C234 O235 1.160 . S
C234 O241 1.185 . S
O235 C234 1.160 . S
O236 Zn237 1.899 . S
O236 C244 1.284 . S
Zn237 O236 1.899 . S
Zn237 O238 2.032 . S
Zn237 O241 2.086 . S
Zn237 O246 1.977 . S
O238 Zn237 2.032 . S
O238 C242 1.278 . S
C239 O240 1.203 . S
C239 O246 1.267 . S
O240 C239 1.203 . S
O241 C234 1.185 . S
O241 Zn237 2.086 . S
C242 O238 1.278 . S
C242 O243 1.211 . S
O243 C242 1.211 . S
C244 O236 1.284 . S
C244 O245 1.273 . S
O245 C244 1.273 . S
O246 Zn237 1.977 . S
O246 C239 1.267 . S
C247 O248 1.160 . S
C247 O254 1.185 . S
O248 C247 1.160 . S
O249 Zn250 1.899 . S
O249 C257 1.270 1_556 S
Zn250 O249 1.899 . S
Zn250 O251 2.032 . S
Zn250 O254 2.086 . S
Zn250 O259 1.977 . S
O251 Zn250 2.032 . S
O251 C255 1.278 . S
C252 O253 1.203 . S
C252 O259 1.267 . S
O253 C252 1.203 . S
O254 C247 1.185 . S
O254 Zn250 2.086 . S
C255 O251 1.278 . S
C255 O256 1.211 . S
O256 C255 1.211 . S
C257 O249 1.270 1_554 S
C257 O258 1.271 1_554 S
O258 C257 1.271 1_556 S
O259 Zn250 1.977 . S
O259 C252 1.267 . S
C260 O261 1.160 . S
C260 O267 1.185 . S
O261 C260 1.160 . S
O262 Zn263 1.899 . S
O262 C270 1.284 . S
Zn263 O262 1.899 . S
Zn263 O264 2.032 . S
Zn263 O267 2.086 . S
Zn263 O272 1.977 . S
O264 Zn263 2.032 . S
O264 C268 1.278 . S
C265 O266 1.203 . S
C265 O272 1.267 . S
O266 C265 1.203 . S
O267 C260 1.185 . S
O267 Zn263 2.086 . S
C268 O264 1.278 . S
C268 O269 1.211 . S
O269 C268 1.211 . S
C270 O262 1.284 . S
C270 O271 1.273 . S
O271 C270 1.273 . S
O272 Zn263 1.977 . S
O272 C265 1.267 . S
C273 O274 1.160 . S
C273 O280 1.185 . S
O274 C273 1.160 . S
O275 Zn276 1.899 . S
O275 C283 1.284 . S
Zn276 O275 1.899 . S
Zn276 O277 2.032 . S
Zn276 O280 2.086 . S
Zn276 O285 1.977 . S
O277 Zn276 2.032 . S
O277 C281 1.278 . S
C278 O279 1.203 . S
C278 O285 1.267 . S
O279 C278 1.203 . S
O280 C273 1.185 . S
O280 Zn276 2.086 . S
C281 O277 1.278 . S
C281 O282 1.211 . S
O282 C281 1.211 . S
C283 O275 1.284 . S
C283 O284 1.273 . S
O284 C283 1.273 . S
O285 Zn276 1.977 . S
O285 C278 1.267 . S
C286 O287 1.160 1_455 S
C286 O293 1.185 1_455 S
O287 C286 1.160 1_655 S
O288 Zn289 1.899 . S
O288 C296 1.284 . S
Zn289 O288 1.899 . S
Zn289 O290 2.032 . S
Zn289 O293 2.086 . S
Zn289 O298 1.977 . S
O290 Zn289 2.032 . S
O290 C294 1.278 . S
C291 O292 1.203 . S
C291 O298 1.267 . S
O292 C291 1.203 . S
O293 C286 1.185 1_655 S
O293 Zn289 2.086 . S
C294 O290 1.278 . S
C294 O295 1.211 . S
O295 C294 1.211 . S
C296 O288 1.284 . S
C296 O297 1.273 . S
O297 C296 1.273 . S
O298 Zn289 1.977 . S
O298 C291 1.267 . S
C299 O300 1.160 . S
C299 O306 1.185 . S
O300 C299 1.160 . S
O301 Zn302 1.899 . S
O301 C309 1.284 . S
Zn302 O301 1.899 . S
Zn302 O303 2.032 . S
Zn302 O306 2.086 . S
Zn302 O311 1.977 . S
O303 Zn302 2.032 . S
O303 C307 1.278 . S
C304 O305 1.203 . S
C304 O311 1.267 . S
O305 C304 1.203 . S
O306 C299 1.185 . S
O306 Zn302 2.086 . S
C307 O303 1.278 . S
C307 O308 1.211 . S
O308 C307 1.211 . S
C309 O301 1.284 . S
C309 O310 1.273 . S
O310 C309 1.273 . S
O311 Zn302 1.977 . S
O311 C304 1.267 . S
C312 O313 1.160 . S
C312 O319 1.185 . S
O313 C312 1.160 . S
O314 Zn315 1.899 . S
O314 C322 1.284 . S
Zn315 O314 1.899 . S
Zn315 O316 2.032 . S
Zn315 O319 2.086 . S
Zn315 O324 1.977 . S
O316 Zn315 2.032 . S
O316 C320 1.278 . S
C317 O318 1.203 1_545 S
C317 O324 1.267 1_545 S
O318 C317 1.203 1_565 S
O319 C312 1.185 . S
O319 Zn315 2.086 . S
C320 O316 1.278 . S
C320 O321 1.211 . S
O321 C320 1.211 . S
C322 O314 1.284 . S
C322 O323 1.273 . S
O323 C322 1.273 . S
O324 Zn315 1.977 . S
O324 C317 1.267 1_565 S
C325 O326 1.160 . S
C325 O332 1.185 . S
O326 C325 1.160 . S
O327 Zn328 1.899 . S
O327 C335 1.284 . S
Zn328 O327 1.899 . S
Zn328 O329 2.032 . S
Zn328 O332 2.086 . S
Zn328 O337 1.977 . S
O329 Zn328 2.032 . S
O329 C333 1.278 . S
C330 O331 1.202 1_565 S
C330 O337 1.266 1_565 S
O331 C330 1.202 1_545 S
O332 C325 1.185 . S
O332 Zn328 2.086 . S
C333 O329 1.278 . S
C333 O334 1.211 . S
O334 C333 1.211 . S
C335 O327 1.284 . S
C335 O336 1.273 . S
O336 C335 1.273 . S
O337 Zn328 1.977 . S
O337 C330 1.266 1_545 S
C338 O339 1.160 . S
C338 O345 1.185 . S
O339 C338 1.160 . S
O340 Zn341 1.899 . S
O340 C348 1.284 . S
Zn341 O340 1.899 . S
Zn341 O342 2.032 . S
Zn341 O345 2.086 . S
Zn341 O350 1.977 . S
O342 Zn341 2.032 . S
O342 C346 1.278 . S
C343 O344 1.203 1_545 S
C343 O350 1.267 1_545 S
O344 C343 1.203 1_565 S
O345 C338 1.185 . S
O345 Zn341 2.086 . S
C346 O342 1.278 . S
C346 O347 1.211 . S
O347 C346 1.211 . S
C348 O340 1.284 . S
C348 O349 1.273 . S
O349 C348 1.273 . S
O350 Zn341 1.977 . S
O350 C343 1.267 1_565 S
C351 O352 1.160 . S
C351 O358 1.185 . S
O352 C351 1.160 . S
O353 Zn354 1.899 . S
O353 C361 1.284 . S
Zn354 O353 1.899 . S
Zn354 O355 2.032 . S
Zn354 O358 2.086 . S
Zn354 O363 1.977 . S
O355 Zn354 2.032 . S
O355 C359 1.278 . S
C356 O357 1.203 . S
C356 O363 1.267 . S
O357 C356 1.203 . S
O358 C351 1.185 . S
O358 Zn354 2.086 . S
C359 O355 1.278 . S
C359 O360 1.211 . S
O360 C359 1.211 . S
C361 O353 1.284 . S
C361 O362 1.273 . S
O362 C361 1.273 . S
O363 Zn354 1.977 . S
O363 C356 1.267 . S
C364 O365 1.160 . S
C364 O371 1.185 . S
O365 C364 1.160 . S
O366 Zn367 1.899 . S
O366 C374 1.284 . S
Zn367 O366 1.899 . S
Zn367 O368 2.032 . S
Zn367 O371 2.086 . S
Zn367 O376 1.977 . S
O368 Zn367 2.032 . S
O368 C372 1.278 . S
C369 O370 1.203 . S
C369 O376 1.267 . S
O370 C369 1.203 . S
O371 C364 1.185 . S
O371 Zn367 2.086 . S
C372 O368 1.278 . S
C372 O373 1.211 . S
O373 C372 1.211 . S
C374 O366 1.284 . S
C374 O375 1.273 . S
O375 C374 1.273 . S
O376 Zn367 1.977 . S
O376 C369 1.267 . S
C377 O378 1.160 . S
C377 O384 1.185 . S
O378 C377 1.160 . S
O379 Zn380 1.899 . S
O379 C387 1.284 . S
Zn380 O379 1.899 . S
Zn380 O381 2.032 . S
Zn380 O384 2.086 . S
Zn380 O389 1.977 . S
O381 Zn380 2.032 . S
O381 C385 1.278 . S
C382 O383 1.203 . S
C382 O389 1.267 . S
O383 C382 1.203 . S
O384 C377 1.185 . S
O384 Zn380 2.086 . S
C385 O381 1.278 . S
C385 O386 1.211 . S
O386 C385 1.211 . S
C387 O379 1.284 . S
C387 O388 1.273 . S
O388 C387 1.273 . S
O389 Zn380 1.977 . S
O389 C382 1.267 . S
C390 O391 1.160 . S
C390 O397 1.185 . S
O391 C390 1.160 . S
O392 Zn393 1.899 . S
O392 C400 1.284 . S
Zn393 O392 1.899 . S
Zn393 O394 2.032 . S
Zn393 O397 2.086 . S
Zn393 O402 1.977 . S
O394 Zn393 2.032 . S
O394 C398 1.278 . S
C395 O396 1.203 1_554 S
C395 O402 1.267 1_554 S
O396 C395 1.203 1_556 S
O397 C390 1.185 . S
O397 Zn393 2.086 . S
C398 O394 1.278 . S
C398 O399 1.211 . S
O399 C398 1.211 . S
C400 O392 1.284 . S
C400 O401 1.273 . S
O401 C400 1.273 . S
O402 Zn393 1.977 . S
O402 C395 1.267 1_556 S
C403 O404 1.160 . S
C403 O410 1.185 . S
O404 C403 1.160 . S
O405 Zn406 1.899 . S
O405 C413 1.284 . S
Zn406 O405 1.899 . S
Zn406 O407 2.032 . S
Zn406 O410 2.086 . S
Zn406 O415 1.977 . S
O407 Zn406 2.032 . S
O407 C411 1.278 . S
C408 O409 1.203 . S
C408 O415 1.267 . S
O409 C408 1.203 . S
O410 C403 1.185 . S
O410 Zn406 2.086 . S
C411 O407 1.278 . S
C411 O412 1.211 . S
O412 C411 1.211 . S
C413 O405 1.284 . S
C413 O414 1.273 . S
O414 C413 1.273 . S
O415 Zn406 1.977 . S
O415 C408 1.267 . S
C416 O417 1.160 . S
C416 O423 1.185 . S
O417 C416 1.160 . S
O418 Zn419 1.899 . S
O418 C426 1.284 . S
Zn419 O418 1.899 . S
Zn419 O420 2.032 . S
Zn419 O423 2.086 . S
Zn419 O428 1.977 . S
O420 Zn419 2.032 . S
O420 C424 1.278 . S
C421 O422 1.203 . S
C421 O428 1.267 . S
O422 C421 1.203 . S
O423 C416 1.185 . S
O423 Zn419 2.086 . S
C424 O420 1.278 . S
C424 O425 1.211 . S
O425 C424 1.211 . S
C426 O418 1.284 . S
C426 O427 1.273 . S
O427 C426 1.273 . S
O428 Zn419 1.977 . S
O428 C421 1.267 . S
C429 O430 1.160 . S
C429 O436 1.185 . S
O430 C429 1.160 . S
O431 Zn432 1.899 . S
O431 C439 1.284 . S
Zn432 O431 1.899 . S
Zn432 O433 2.032 . S
Zn432 O436 2.086 . S
Zn432 O441 1.977 . S
O433 Zn432 2.032 . S
O433 C437 1.278 . S
C434 O435 1.203 . S
C434 O441 1.267 . S
O435 C434 1.203 . S
O436 C429 1.185 . S
O436 Zn432 2.086 . S
C437 O433 1.278 . S
C437 O438 1.211 . S
O438 C437 1.211 . S
C439 O431 1.284 . S
C439 O440 1.273 . S
O440 C439 1.273 . S
O441 Zn432 1.977 . S
O441 C434 1.267 . S
C442 O443 1.160 . S
C442 O449 1.185 . S
O443 C442 1.160 . S
O444 Zn445 1.899 . S
O444 C452 1.284 . S
Zn445 O444 1.899 . S
Zn445 O446 2.032 . S
Zn445 O449 2.086 . S
Zn445 O454 1.977 . S
O446 Zn445 2.032 . S
O446 C450 1.278 . S
C447 O448 1.203 . S
C447 O454 1.267 . S
O448 C447 1.203 . S
O449 C442 1.185 . S
O449 Zn445 2.086 . S
C450 O446 1.278 . S
C450 O451 1.211 . S
O451 C450 1.211 . S
C452 O444 1.284 . S
C452 O453 1.273 . S
O453 C452 1.273 . S
O454 Zn445 1.977 . S
O454 C447 1.267 . S
C455 O456 1.160 . S
C455 O462 1.185 . S
O456 C455 1.160 . S
O457 Zn458 1.899 . S
O457 C465 1.284 . S
Zn458 O457 1.899 . S
Zn458 O459 2.032 . S
Zn458 O462 2.086 . S
Zn458 O467 1.977 . S
O459 Zn458 2.032 . S
O459 C463 1.278 . S
C460 O461 1.203 . S
C460 O467 1.267 . S
O461 C460 1.203 . S
O462 C455 1.185 . S
O462 Zn458 2.086 . S
C463 O459 1.278 . S
C463 O464 1.211 . S
O464 C463 1.211 . S
C465 O457 1.284 . S
C465 O466 1.273 . S
O466 C465 1.273 . S
O467 Zn458 1.977 . S
O467 C460 1.267 . S
C468 O469 1.160 1_556 S
C468 O475 1.185 1_556 S
O469 C468 1.160 1_554 S
O470 Zn471 1.899 . S
O470 C478 1.284 . S
Zn471 O470 1.899 . S
Zn471 O472 2.032 . S
Zn471 O475 2.086 . S
Zn471 O480 1.977 . S
O472 Zn471 2.032 . S
O472 C476 1.278 . S
C473 O474 1.203 . S
C473 O480 1.267 . S
O474 C473 1.203 . S
O475 C468 1.185 1_554 S
O475 Zn471 2.086 . S
C476 O472 1.278 . S
C476 O477 1.211 . S
O477 C476 1.211 . S
C478 O470 1.284 . S
C478 O479 1.273 . S
O479 C478 1.273 . S
O480 Zn471 1.977 . S
O480 C473 1.267 . S
C481 O482 1.160 . S
C481 O488 1.185 . S
O482 C481 1.160 . S
O483 Zn484 1.899 . S
O483 C491 1.284 . S
Zn484 O483 1.899 . S
Zn484 O485 2.032 . S
Zn484 O488 2.086 . S
Zn484 O493 1.977 . S
O485 Zn484 2.032 . S
O485 C489 1.278 . S
C486 O487 1.203 . S
C486 O493 1.267 . S
O487 C486 1.203 . S
O488 C481 1.185 . S
O488 Zn484 2.086 . S
C489 O485 1.278 . S
C489 O490 1.211 . S
O490 C489 1.211 . S
C491 O483 1.284 . S
C491 O492 1.273 . S
O492 C491 1.273 . S
O493 Zn484 1.977 . S
O493 C486 1.267 . S
C494 O495 1.160 . S
C494 O501 1.185 . S
O495 C494 1.160 . S
O496 Zn497 1.899 . S
O496 C504 1.284 . S
Zn497 O496 1.899 . S
Zn497 O498 2.032 . S
Zn497 O501 2.086 . S
Zn497 O506 1.977 . S
O498 Zn497 2.032 . S
O498 C502 1.278 . S
C499 O500 1.198 1_545 S
C499 O506 1.261 1_545 S
O500 C499 1.198 1_565 S
O501 C494 1.185 . S
O501 Zn497 2.086 . S
C502 O498 1.278 . S
C502 O503 1.211 . S
O503 C502 1.211 . S
C504 O496 1.284 . S
C504 O505 1.273 . S
O505 C504 1.273 . S
O506 Zn497 1.977 . S
O506 C499 1.261 1_565 S
C507 O508 1.160 . S
C507 O514 1.185 . S
O508 C507 1.160 . S
O509 Zn510 1.899 . S
O509 C517 1.284 . S
Zn510 O509 1.899 . S
Zn510 O511 2.032 . S
Zn510 O514 2.086 . S
Zn510 O519 1.977 . S
O511 Zn510 2.032 . S
O511 C515 1.278 1_554 S
C512 O513 1.203 . S
C512 O519 1.267 . S
O513 C512 1.203 . S
O514 C507 1.185 . S
O514 Zn510 2.086 . S
C515 O511 1.278 1_556 S
C515 O516 1.210 1_556 S
O516 C515 1.210 1_554 S
C517 O509 1.284 . S
C517 O518 1.273 . S
O518 C517 1.273 . S
O519 Zn510 1.977 . S
O519 C512 1.267 . S
C520 O521 1.160 . S
C520 O527 1.185 . S
O521 C520 1.160 . S
O522 Zn523 1.899 . S
O522 C530 1.284 . S
Zn523 O522 1.899 . S
Zn523 O524 2.032 . S
Zn523 O527 2.086 . S
Zn523 O532 1.977 . S
O524 Zn523 2.032 . S
O524 C528 1.278 . S
C525 O526 1.203 . S
C525 O532 1.267 . S
O526 C525 1.203 . S
O527 C520 1.185 . S
O527 Zn523 2.086 . S
C528 O524 1.278 . S
C528 O529 1.211 . S
O529 C528 1.211 . S
C530 O522 1.284 . S
C530 O531 1.273 . S
O531 C530 1.273 . S
O532 Zn523 1.977 . S
O532 C525 1.267 . S
C533 O534 1.160 . S
C533 O540 1.185 . S
O534 C533 1.160 . S
O535 Zn536 1.899 . S
O535 C543 1.284 . S
Zn536 O535 1.899 . S
Zn536 O537 2.032 . S
Zn536 O540 2.086 . S
Zn536 O545 1.977 . S
O537 Zn536 2.032 . S
O537 C541 1.278 . S
C538 O539 1.203 . S
C538 O545 1.267 . S
O539 C538 1.203 . S
O540 C533 1.185 . S
O540 Zn536 2.086 . S
C541 O537 1.278 . S
C541 O542 1.211 . S
O542 C541 1.211 . S
C543 O535 1.284 . S
C543 O544 1.273 . S
O544 C543 1.273 . S
O545 Zn536 1.977 . S
O545 C538 1.267 . S
C546 O547 1.155 1_655 S
C546 O553 1.185 1_655 S
O547 C546 1.155 1_455 S
O548 Zn549 1.899 . S
O548 C556 1.284 . S
Zn549 O548 1.899 . S
Zn549 O550 2.032 . S
Zn549 O553 2.086 . S
Zn549 O558 1.977 . S
O550 Zn549 2.032 . S
O550 C554 1.278 . S
C551 O552 1.203 . S
C551 O558 1.267 . S
O552 C551 1.203 . S
O553 C546 1.185 1_455 S
O553 Zn549 2.086 . S
C554 O550 1.278 . S
C554 O555 1.211 . S
O555 C554 1.211 . S
C556 O548 1.284 . S
C556 O557 1.273 . S
O557 C556 1.273 . S
O558 Zn549 1.977 . S
O558 C551 1.267 . S
C559 O560 1.160 . S
C559 O566 1.185 . S
O560 C559 1.160 . S
O561 Zn562 1.899 . S
O561 C569 1.284 . S
Zn562 O561 1.899 . S
Zn562 O563 2.032 . S
Zn562 O566 2.086 . S
Zn562 O571 1.977 . S
O563 Zn562 2.032 . S
O563 C567 1.278 . S
C564 O565 1.203 . S
C564 O571 1.267 . S
O565 C564 1.203 . S
O566 C559 1.185 . S
O566 Zn562 2.086 . S
C567 O563 1.278 . S
C567 O568 1.211 . S
O568 C567 1.211 . S
C569 O561 1.284 . S
C569 O570 1.273 . S
O570 C569 1.273 . S
O571 Zn562 1.977 . S
O571 C564 1.267 . S
C572 O573 1.160 1_655 S
C572 O579 1.185 1_655 S
O573 C572 1.160 1_455 S
O574 Zn575 1.899 . S
O574 C582 1.284 . S
Zn575 O574 1.899 . S
Zn575 O576 2.032 . S
Zn575 O579 2.086 . S
Zn575 O584 1.977 . S
O576 Zn575 2.032 . S
O576 C580 1.278 . S
C577 O578 1.203 . S
C577 O584 1.267 . S
O578 C577 1.203 . S
O579 C572 1.185 1_455 S
O579 Zn575 2.086 . S
C580 O576 1.278 . S
C580 O581 1.211 . S
O581 C580 1.211 . S
C582 O574 1.284 . S
C582 O583 1.273 . S
O583 C582 1.273 . S
O584 Zn575 1.977 . S
O584 C577 1.267 . S
C585 O586 1.160 . S
C585 O592 1.185 . S
O586 C585 1.160 . S
O587 Zn588 1.899 . S
O587 C595 1.284 1_556 S
Zn588 O587 1.899 . S
Zn588 O589 2.032 . S
Zn588 O592 2.086 . S
Zn588 O597 1.977 . S
O589 Zn588 2.032 . S
O589 C593 1.278 . S
C590 O591 1.203 . S
C590 O597 1.267 . S
O591 C590 1.203 . S
O592 C585 1.185 . S
O592 Zn588 2.086 . S
C593 O589 1.278 . S
C593 O594 1.211 . S
O594 C593 1.211 . S
C595 O587 1.284 1_554 S
C595 O596 1.271 1_554 S
O596 C595 1.271 1_556 S
O597 Zn588 1.977 . S
O597 C590 1.267 . S
C598 O599 1.160 . S
C598 O605 1.185 . S
O599 C598 1.160 . S
O600 Zn601 1.899 . S
O600 C608 1.284 . S
Zn601 O600 1.899 . S
Zn601 O602 2.032 . S
Zn601 O605 2.086 . S
Zn601 O610 1.977 . S
O602 Zn601 2.032 . S
O602 C606 1.278 . S
C603 O604 1.203 . S
C603 O610 1.267 . S
O604 C603 1.203 . S
O605 C598 1.185 . S
O605 Zn601 2.086 . S
C606 O602 1.278 . S
C606 O607 1.211 . S
O607 C606 1.211 . S
C608 O600 1.284 . S
C608 O609 1.273 . S
O609 C608 1.273 . S
O610 Zn601 1.977 . S
O610 C603 1.267 . S
C611 O612 1.160 . S
C611 O618 1.185 . S
O612 C611 1.160 . S
O613 Zn614 1.899 . S
O613 C621 1.284 . S
Zn614 O613 1.899 . S
Zn614 O615 2.032 . S
Zn614 O618 2.086 . S
Zn614 O623 1.977 . S
O615 Zn614 2.032 . S
O615 C619 1.278 . S
C616 O617 1.203 1_565 S
C616 O623 1.267 1_565 S
O617 C616 1.203 1_545 S
O618 C611 1.185 . S
O618 Zn614 2.086 . S
C619 O615 1.278 . S
C619 O620 1.211 . S
O620 C619 1.211 . S
C621 O613 1.284 . S
C621 O622 1.273 . S
O622 C621 1.273 . S
O623 Zn614 1.977 . S
O623 C616 1.267 1_545 S
C554 C0 1.132 . S
C18 C200 1.211 1_455 S
C26 C528 1.170 . S
C44 C226 1.239 . S
C580 C57 1.303 . S
C65 C273 1.269 . S
C83 C606 1.271 . S
C91 C247 1.263 1_455 S
C39 C621 1.282 . S
C5 C333 1.340 . S
C348 C13 1.283 . S
C31 C320 1.331 . S
C70 C322 1.541 . S
C78 C619 1.103 . S
C96 C335 1.545 . S
C52 C346 1.106 . S
C507 C104 1.205 . S
C122 C252 1.282 . S
C109 C582 1.524 . S
C278 C135 1.339 . S
C296 C143 1.359 . S
C533 C161 1.354 . S
C556 C169 1.292 . S
C530 C187 1.529 . S
C439 C205 1.476 . S
C208 C8 1.273 . S
C231 C413 1.493 . S
C34 C234 1.236 . S
C255 C463 1.306 . S
C88 C260 1.450 . S
C281 C489 1.332 . S
C62 C286 1.434 . S
C504 C239 1.588 . S
C203 C140 1.387 . S
C151 C213 1.502 . S
C127 C229 1.444 1_556 S
C125 C265 1.570 . S
C283 C502 1.581 . S
C138 C291 1.503 . S
C257 C153 1.557 . S
C299 C400 1.351 . S
C312 C60 1.314 . S
C304 C465 1.591 . S
C325 C86 1.319 . S
C343 C101 1.584 . S
C426 C351 1.323 . S
C369 C437 1.571 . S
C382 C411 1.578 . S
C390 C242 1.141 . S
C408 C512 1.191 . S
C216 C416 1.134 . S
C434 C538 1.238 1_655 S
C447 C268 1.305 . S
C585 C455 1.233 1_455 S
C473 C294 1.270 . S
C559 C481 1.269 . S
C309 C429 1.269 . S
C385 C395 1.328 . S
C403 C361 1.274 . S
C372 C421 1.337 . S
C460 C374 1.557 . S
C307 C468 1.102 . S
C486 C387 1.534 . S
C442 C359 1.101 . S
C494 C195 1.183 . S
C174 C564 1.283 . S
C270 C499 1.534 . S
C590 C182 1.230 . S
C608 C156 1.320 . S
C148 C221 1.349 . S
C117 C244 1.295 . S
C218 C130 1.349 . S
C517 C49 1.516 . S
C398 C520 1.274 . S
C543 C23 1.488 . S
C546 C424 1.237 . S
C73 C567 1.307 . S
C572 C478 1.453 . S
C593 C99 1.338 . S
C452 C598 1.405 . S
C551 C114 1.584 . S
C190 C515 1.276 . S
C164 C525 1.561 . S
C541 C179 1.447 . S
C577 C177 1.578 . S
C112 C595 1.547 . S
C192 C603 1.605 . S
C569 C166 1.545 . S
C10 C611 1.351 . S
C364 C450 1.297 . S
C75 C616 1.594 . S
C476 C377 1.305 . S
C491 C356 1.587 . S
C338 C36 1.326 . S
C317 C47 1.584 . S
C21 C330 1.584 . S
