# Generated by pormake.
# Topology una, (4)-cn, num edge types: 1
# Building blocks:
#     Node 0, Type 0, BuildingBlock: ICAMEG_clean_sbu_1, # of connection points: 4
#     Node 1, Type 0, BuildingBlock: ICAMEG_clean_sbu_1, # of connection points: 4
#     Node 2, Type 0, BuildingBlock: ICAMEG_clean_sbu_1, # of connection points: 4
#     Node 3, Type 0, BuildingBlock: ICAMEG_clean_sbu_1, # of connection points: 4
#     Node 4, Type 0, BuildingBlock: ICAMEG_clean_sbu_1, # of connection points: 4
#     Node 5, Type 0, BuildingBlock: ICAMEG_clean_sbu_1, # of connection points: 4
#     Node 6, Type 0, BuildingBlock: ICAMEG_clean_sbu_1, # of connection points: 4
#     Node 7, Type 0, BuildingBlock: ICAMEG_clean_sbu_1, # of connection points: 4
#     Node 8, Type 0, BuildingBlock: ICAMEG_clean_sbu_1, # of connection points: 4
#     Node 9, Type 0, BuildingBlock: ICAMEG_clean_sbu_1, # of connection points: 4
#     Node 10, Type 0, BuildingBlock: ICAMEG_clean_sbu_1, # of connection points: 4
#     Node 11, Type 0, BuildingBlock: ICAMEG_clean_sbu_1, # of connection points: 4
#     Edge 12, Type (0, 0), BuildingBlock: MIFKUJ_clean_linker_0, # of connection points: 2
#     Edge 13, Type (0, 0), BuildingBlock: MIFKUJ_clean_linker_0, # of connection points: 2
#     Edge 14, Type (0, 0), BuildingBlock: MIFKUJ_clean_linker_0, # of connection points: 2
#     Edge 15, Type (0, 0), BuildingBlock: MIFKUJ_clean_linker_0, # of connection points: 2
#     Edge 16, Type (0, 0), BuildingBlock: MIFKUJ_clean_linker_0, # of connection points: 2
#     Edge 17, Type (0, 0), BuildingBlock: MIFKUJ_clean_linker_0, # of connection points: 2
#     Edge 18, Type (0, 0), BuildingBlock: MIFKUJ_clean_linker_0, # of connection points: 2
#     Edge 19, Type (0, 0), BuildingBlock: MIFKUJ_clean_linker_0, # of connection points: 2
#     Edge 20, Type (0, 0), BuildingBlock: MIFKUJ_clean_linker_0, # of connection points: 2
#     Edge 21, Type (0, 0), BuildingBlock: MIFKUJ_clean_linker_0, # of connection points: 2
#     Edge 22, Type (0, 0), BuildingBlock: MIFKUJ_clean_linker_0, # of connection points: 2
#     Edge 23, Type (0, 0), BuildingBlock: MIFKUJ_clean_linker_0, # of connection points: 2
#     Edge 24, Type (0, 0), BuildingBlock: MIFKUJ_clean_linker_0, # of connection points: 2
#     Edge 25, Type (0, 0), BuildingBlock: MIFKUJ_clean_linker_0, # of connection points: 2
#     Edge 26, Type (0, 0), BuildingBlock: MIFKUJ_clean_linker_0, # of connection points: 2
#     Edge 27, Type (0, 0), BuildingBlock: MIFKUJ_clean_linker_0, # of connection points: 2
#     Edge 28, Type (0, 0), BuildingBlock: MIFKUJ_clean_linker_0, # of connection points: 2
#     Edge 29, Type (0, 0), BuildingBlock: MIFKUJ_clean_linker_0, # of connection points: 2
#     Edge 30, Type (0, 0), BuildingBlock: MIFKUJ_clean_linker_0, # of connection points: 2
#     Edge 31, Type (0, 0), BuildingBlock: MIFKUJ_clean_linker_0, # of connection points: 2
#     Edge 32, Type (0, 0), BuildingBlock: MIFKUJ_clean_linker_0, # of connection points: 2
#     Edge 33, Type (0, 0), BuildingBlock: MIFKUJ_clean_linker_0, # of connection points: 2
#     Edge 34, Type (0, 0), BuildingBlock: MIFKUJ_clean_linker_0, # of connection points: 2
#     Edge 35, Type (0, 0), BuildingBlock: MIFKUJ_clean_linker_0, # of connection points: 2
# Relax obj value: 0.052
# Max RMSD: 0.084
# Mean RMSD: 0.084
data_MOF--net-una--node1-ICAMEG_clean_sbu_1--edge1-MIFKUJ_clean_linker_0
_symmetry_space_group_name_H-M    P1
_symmetry_Int_Tables_number       1
_symmetry_cell_setting            triclinic
loop_
_symmetry_equiv_pos_as_xyz
'x, y, z'
_cell_length_a     80.593916
_cell_length_b     80.647288
_cell_length_c     28.349141
_cell_angle_alpha  90.05213
_cell_angle_beta   89.975187
_cell_angle_gamma 119.93734
loop_
_atom_site_label
_atom_site_type_symbol
_atom_site_fract_x
_atom_site_fract_y
_atom_site_fract_z
_atom_type_partial_charge
Co0 Co 0.16429 0.4685 0.04578 0.0
Co1 Co 0.13125 0.42173 0.0682 0.0
O2 O 0.13762 0.44805 0.05368 0.0
C3 C 0.14733 0.48634 0.1076 0.0
O4 O 0.13767 0.47016 0.13062 0.0
C5 C 0.10448 0.41639 0.98892 0.0
O6 O 0.11891 0.43019 0.96592 0.0
O7 O 0.14558 0.42128 0.01122 0.0
O8 O 0.1716 0.45036 0.01695 0.0
H9 H 0.14568 0.36832 0.08827 0.0
H10 H 0.13307 0.47387 0.00786 0.0
O11 O 0.15822 0.48774 0.07349 0.0
H12 H 0.17311 0.4796 0.87042 0.0
H13 H 0.21674 0.53521 0.00606 0.0
H14 H 0.20199 0.47158 0.06337 0.0
H15 H 0.18167 0.47388 0.94984 0.0
H16 H 0.18325 0.50921 0.01385 0.0
O17 O 0.10712 0.41146 0.0297 0.0
H18 H 0.15337 0.40144 0.07189 0.0
H19 H 0.09519 0.38586 0.09294 0.0
H20 H 0.23567 0.49714 0.05592 0.0
H21 H 0.1241 0.47982 0.92912 0.0
H22 H 0.24323 0.52924 0.02703 0.0
H23 H 0.14417 0.48265 0.85968 0.0
O24 O 0.17069 0.46307 0.10948 0.0
H25 H 0.08444 0.43458 0.1549 0.0
H26 H 0.13033 0.41129 0.16972 0.0
H27 H 0.11302 0.41249 0.24019 0.0
H28 H 0.08983 0.42414 0.23301 0.0
H29 H 0.10226 0.43339 0.08543 0.0
H30 H 0.08684 0.35254 0.10919 0.0
H31 H 0.1122 0.3436 0.10708 0.0
O32 O 0.15496 0.431 0.10836 0.0
C33 C 0.16272 0.4335 0.99973 0.0
C34 C 0.13451 0.37205 0.08942 0.0
C35 C 0.10148 0.36318 0.1011 0.0
N36 N 0.12477 0.3956 0.08174 0.0
C37 C 0.13878 0.39079 0.08028 0.0
C38 C 0.10629 0.38206 0.09175 0.0
C39 C 0.11572 0.35818 0.09993 0.0
C40 C 0.14197 0.47528 0.97789 0.0
N41 N 0.15791 0.47361 0.9835 0.0
C42 C 0.13678 0.47857 0.93336 0.0
C43 C 0.14803 0.48013 0.89441 0.0
C44 C 0.16426 0.4784 0.9004 0.0
C45 C 0.16901 0.47511 0.94545 0.0
C46 C 0.21363 0.52128 0.01858 0.0
C47 C 0.20515 0.48547 0.05054 0.0
C48 C 0.19469 0.5065 0.02313 0.0
N49 N 0.19066 0.48884 0.03872 0.0
C50 C 0.22426 0.4999 0.04649 0.0
C51 C 0.22849 0.51791 0.03034 0.0
C52 C 0.16755 0.44704 0.12586 0.0
C53 C 0.09448 0.42943 0.15846 0.0
C54 C 0.12038 0.41652 0.16635 0.0
C55 C 0.11056 0.41709 0.20635 0.0
C56 C 0.09753 0.42361 0.20229 0.0
N57 N 0.11731 0.42227 0.12348 0.0
C58 C 0.10455 0.42865 0.11922 0.0
Co59 Co 0.69871 0.15678 0.2146 0.0
Co60 Co 0.71893 0.12876 0.23338 0.0
O61 O 0.69665 0.13188 0.22398 0.0
C62 C 0.67029 0.15526 0.28362 0.0
O63 O 0.68431 0.17063 0.30329 0.0
C64 C 0.69819 0.10114 0.1555 0.0
O65 O 0.69914 0.11541 0.13102 0.0
O66 O 0.73107 0.14355 0.17463 0.0
O67 O 0.72323 0.16658 0.17859 0.0
H68 H 0.78918 0.15061 0.23959 0.0
H69 H 0.66323 0.12138 0.18695 0.0
O70 O 0.67381 0.1472 0.2494 0.0
H71 H 0.68652 0.15952 0.04117 0.0
H72 H 0.67322 0.201 0.17638 0.0
H73 H 0.72999 0.19698 0.22367 0.0
H74 H 0.70395 0.17182 0.11605 0.0
H75 H 0.67104 0.16963 0.18718 0.0
O76 O 0.70569 0.10413 0.19647 0.0
H77 H 0.76097 0.15461 0.22977 0.0
H78 H 0.72393 0.09527 0.25428 0.0
H79 H 0.73278 0.22864 0.21337 0.0
H80 H 0.64522 0.10864 0.11291 0.0
H81 H 0.70425 0.23079 0.18956 0.0
H82 H 0.65687 0.12773 0.03929 0.0
O83 O 0.71353 0.16619 0.27456 0.0
H84 H 0.66473 0.0793 0.33096 0.0
H85 H 0.73259 0.13004 0.3319 0.0
H86 H 0.7177 0.11256 0.40536 0.0
H87 H 0.68354 0.08693 0.40515 0.0
H88 H 0.68014 0.09729 0.25838 0.0
H89 H 0.75175 0.0906 0.26405 0.0
H90 H 0.78466 0.11842 0.25687 0.0
O91 O 0.73235 0.15301 0.27168 0.0
C92 C 0.73296 0.1595 0.16113 0.0
C93 C 0.77492 0.13839 0.24296 0.0
C94 C 0.7539 0.10471 0.25662 0.0
N95 N 0.74084 0.12522 0.24182 0.0
C96 C 0.75889 0.14058 0.23757 0.0
C97 C 0.73821 0.10743 0.25096 0.0
C98 C 0.77237 0.12032 0.25261 0.0
C99 C 0.66831 0.12986 0.15517 0.0
N100 N 0.68459 0.14738 0.15595 0.0
C101 C 0.65808 0.12253 0.1133 0.0
C102 C 0.66464 0.13324 0.072 0.0
C103 C 0.68128 0.15107 0.07302 0.0
C104 C 0.69114 0.15793 0.11552 0.0
C105 C 0.68575 0.20025 0.18681 0.0
C106 C 0.71751 0.1978 0.21327 0.0
C107 C 0.68461 0.18253 0.19295 0.0
N108 N 0.7004 0.18148 0.20591 0.0
C109 C 0.71918 0.21576 0.20752 0.0
C110 C 0.70317 0.21696 0.19418 0.0
C111 C 0.72784 0.16488 0.28909 0.0
C112 C 0.67964 0.09041 0.33147 0.0
C113 C 0.71769 0.11898 0.33155 0.0
C114 C 0.70935 0.10909 0.37324 0.0
C115 C 0.69019 0.09471 0.3731 0.0
N116 N 0.70726 0.11464 0.29082 0.0
C117 C 0.68845 0.10061 0.29045 0.0
Co118 Co 0.58633 0.70894 0.39761 0.0
Co119 Co 0.53816 0.69301 0.38066 0.0
O120 O 0.55975 0.68845 0.38828 0.0
C121 C 0.60598 0.7002 0.32044 0.0
O122 O 0.61246 0.71776 0.30528 0.0
C123 C 0.52362 0.65848 0.44497 0.0
O124 O 0.54095 0.66138 0.45168 0.0
O125 O 0.54579 0.70894 0.4389 0.0
O126 O 0.57795 0.72362 0.43945 0.0
H127 H 0.5074 0.73397 0.37732 0.0
H128 H 0.57733 0.669 0.41596 0.0
O129 O 0.59491 0.69418 0.35629 0.0
H130 H 0.60094 0.70285 0.56741 0.0
H131 H 0.65675 0.73504 0.42689 0.0
H132 H 0.60626 0.75129 0.39702 0.0
H133 H 0.59893 0.71985 0.49744 0.0
H134 H 0.62314 0.70959 0.41662 0.0
O135 O 0.52078 0.6698 0.41934 0.0
H136 H 0.53418 0.72757 0.38494 0.0
H137 H 0.49622 0.66824 0.36216 0.0
H138 H 0.63967 0.77719 0.40725 0.0
H139 H 0.57952 0.65156 0.48482 0.0
H140 H 0.66519 0.76912 0.42227 0.0
H141 H 0.59128 0.66847 0.56133 0.0
O142 O 0.58473 0.72297 0.34143 0.0
H143 H 0.52495 0.6354 0.28362 0.0
H144 H 0.52622 0.69713 0.28371 0.0
H145 H 0.51694 0.67763 0.2113 0.0
H146 H 0.51611 0.64643 0.21103 0.0
H147 H 0.53446 0.65552 0.35493 0.0
H148 H 0.46903 0.67399 0.35467 0.0
H149 H 0.47454 0.70707 0.36206 0.0
O150 O 0.55414 0.71614 0.34112 0.0
C151 C 0.56209 0.72143 0.45515 0.0
C152 C 0.50483 0.71951 0.37384 0.0
C153 C 0.48329 0.68584 0.36121 0.0
N154 N 0.51681 0.69759 0.37362 0.0
C155 C 0.51994 0.71581 0.37799 0.0
C156 C 0.49874 0.68268 0.3656 0.0
C157 C 0.48639 0.7044 0.36535 0.0
C158 C 0.58268 0.67654 0.44894 0.0
N159 N 0.58792 0.69543 0.45259 0.0
C160 C 0.58379 0.66655 0.48791 0.0
C161 C 0.59035 0.67603 0.53085 0.0
C162 C 0.59573 0.69531 0.5343 0.0
C163 C 0.59443 0.70483 0.49459 0.0
C164 C 0.64575 0.73874 0.42043 0.0
C165 C 0.61727 0.74767 0.40372 0.0
C166 C 0.6267 0.72439 0.41458 0.0
N167 N 0.61274 0.72896 0.40638 0.0
C168 C 0.63617 0.7624 0.40942 0.0
C169 C 0.65048 0.75786 0.41783 0.0
C170 C 0.57131 0.72551 0.32598 0.0
C171 C 0.52517 0.64893 0.28334 0.0
C172 C 0.52607 0.68368 0.28382 0.0
C173 C 0.52072 0.67264 0.24273 0.0
C174 C 0.52025 0.65514 0.24261 0.0
N175 N 0.53073 0.67744 0.3238 0.0
C176 C 0.53047 0.66037 0.32376 0.0
Co177 Co 0.84941 0.54205 0.5369 0.0
Co178 Co 0.88292 0.58855 0.55963 0.0
O179 O 0.87618 0.56223 0.54411 0.0
C180 C 0.8666 0.52389 0.59629 0.0
O181 O 0.87673 0.5401 0.61892 0.0
C182 C 0.90918 0.59504 0.47807 0.0
O183 O 0.89425 0.5836 0.4523 0.0
O184 O 0.86848 0.58937 0.50325 0.0
O185 O 0.8422 0.56051 0.50964 0.0
H186 H 0.86967 0.64264 0.58271 0.0
H187 H 0.88027 0.53674 0.49625 0.0
O188 O 0.85537 0.52255 0.56311 0.0
H189 H 0.83911 0.53137 0.36169 0.0
H190 H 0.79609 0.47566 0.49781 0.0
H191 H 0.81208 0.53944 0.5571 0.0
H192 H 0.83122 0.5369 0.4421 0.0
H193 H 0.82977 0.5014 0.50425 0.0
O194 O 0.90697 0.59841 0.52087 0.0
H195 H 0.86138 0.60941 0.56522 0.0
H196 H 0.91941 0.62404 0.58391 0.0
H197 H 0.77823 0.51416 0.55108 0.0
H198 H 0.88858 0.53099 0.41646 0.0
H199 H 0.77005 0.48199 0.5212 0.0
H200 H 0.86794 0.52832 0.34849 0.0
O201 O 0.84365 0.54742 0.60131 0.0
H202 H 0.92959 0.57497 0.6444 0.0
H203 H 0.88409 0.59865 0.66151 0.0
H204 H 0.90148 0.59713 0.73136 0.0
H205 H 0.92448 0.58528 0.72304 0.0
H206 H 0.91167 0.57644 0.57557 0.0
H207 H 0.92836 0.65746 0.60126 0.0
H208 H 0.90338 0.66692 0.6009 0.0
O209 O 0.8593 0.57948 0.60027 0.0
C210 C 0.85121 0.57732 0.4923 0.0
C211 C 0.88068 0.63868 0.58312 0.0
C212 C 0.91362 0.647 0.59347 0.0
N213 N 0.88986 0.61476 0.57389 0.0
C214 C 0.87606 0.61987 0.57335 0.0
C215 C 0.90847 0.62806 0.58351 0.0
C216 C 0.89959 0.6523 0.59328 0.0
C217 C 0.87114 0.53543 0.4669 0.0
N218 N 0.85523 0.53705 0.47387 0.0
C219 C 0.87595 0.53224 0.42178 0.0
C220 C 0.86438 0.53077 0.38365 0.0
C221 C 0.8482 0.53248 0.39103 0.0
C222 C 0.84383 0.53566 0.43664 0.0
C223 C 0.79947 0.48964 0.51075 0.0
C224 C 0.80865 0.52552 0.54381 0.0
C225 C 0.81852 0.50426 0.51453 0.0
N226 N 0.82289 0.52196 0.53067 0.0
C227 C 0.78945 0.51124 0.54058 0.0
C228 C 0.78487 0.4932 0.52388 0.0
C229 C 0.84686 0.56343 0.61804 0.0
C230 C 0.91964 0.58019 0.64846 0.0
C231 C 0.89394 0.59332 0.65763 0.0
C232 C 0.90382 0.59258 0.6973 0.0
C233 C 0.91674 0.58595 0.69259 0.0
N234 N 0.89685 0.58763 0.61446 0.0
C235 C 0.90951 0.58114 0.60957 0.0
Co236 Co 0.31275 0.84634 0.69744 0.0
Co237 Co 0.29884 0.87893 0.72395 0.0
O238 O 0.31871 0.87273 0.70735 0.0
C239 C 0.34707 0.86143 0.76072 0.0
O240 O 0.3393 0.86844 0.7894 0.0
C241 C 0.31874 0.90601 0.64403 0.0
O242 O 0.31563 0.89133 0.61767 0.0
O243 O 0.28351 0.86482 0.66714 0.0
O244 O 0.28718 0.8391 0.66979 0.0
H245 H 0.23127 0.8647 0.74899 0.0
H246 H 0.34866 0.8785 0.65964 0.0
O247 O 0.33832 0.8526 0.72343 0.0
H248 H 0.31461 0.83908 0.52121 0.0
H249 H 0.32762 0.79472 0.652 0.0
H250 H 0.27851 0.80836 0.71414 0.0
H251 H 0.30089 0.82948 0.60091 0.0
H252 H 0.3347 0.82801 0.66202 0.0
O253 O 0.3128 0.90337 0.68656 0.0
H254 H 0.25648 0.85694 0.72976 0.0
H255 H 0.29933 0.91494 0.75098 0.0
H256 H 0.27078 0.77487 0.70449 0.0
H257 H 0.36305 0.88853 0.58059 0.0
H258 H 0.29544 0.76787 0.67317 0.0
H259 H 0.34595 0.8688 0.51066 0.0
O260 O 0.30112 0.83927 0.76148 0.0
H261 H 0.35912 0.92424 0.81047 0.0
H262 H 0.28983 0.8793 0.82604 0.0
H263 H 0.30873 0.89581 0.89669 0.0
H264 H 0.34363 0.9185 0.88915 0.0
H265 H 0.33971 0.90729 0.74078 0.0
H266 H 0.27458 0.92336 0.77006 0.0
H267 H 0.24027 0.89813 0.76932 0.0
O268 O 0.28467 0.85495 0.76316 0.0
C269 C 0.27881 0.84786 0.65424 0.0
C270 C 0.24618 0.87581 0.74956 0.0
C271 C 0.27048 0.90874 0.76133 0.0
N272 N 0.27935 0.88544 0.73957 0.0
C273 C 0.26051 0.87149 0.73882 0.0
C274 C 0.28443 0.90389 0.75038 0.0
C275 C 0.25123 0.89458 0.76092 0.0
C276 C 0.34121 0.86975 0.62942 0.0
N277 N 0.32396 0.85341 0.63492 0.0
C278 C 0.3494 0.87554 0.58473 0.0
C279 C 0.33979 0.86447 0.5455 0.0
C280 C 0.3222 0.84781 0.55139 0.0
C281 C 0.31446 0.84247 0.59661 0.0
C282 C 0.31675 0.79759 0.66561 0.0
C283 C 0.28929 0.80545 0.70032 0.0
C284 C 0.3207 0.81641 0.67147 0.0
N285 N 0.30701 0.82014 0.68844 0.0
C286 C 0.28484 0.78645 0.695 0.0
C287 C 0.29869 0.78253 0.67748 0.0
C288 C 0.28829 0.84227 0.77926 0.0
C289 C 0.34391 0.91442 0.81419 0.0
C290 C 0.30502 0.88909 0.82247 0.0
C291 C 0.31564 0.89844 0.8626 0.0
C292 C 0.33522 0.91118 0.85833 0.0
N293 N 0.31364 0.89237 0.77927 0.0
C294 C 0.33284 0.90483 0.77483 0.0
Co295 Co 0.42674 0.29828 0.89652 0.0
Co296 Co 0.47346 0.3108 0.87347 0.0
O297 O 0.45333 0.3176 0.88125 0.0
C298 C 0.42408 0.3245 0.8242 0.0
O299 O 0.44198 0.33102 0.81225 0.0
C300 C 0.49147 0.34557 0.93495 0.0
O301 O 0.47511 0.33919 0.95716 0.0
O302 O 0.46786 0.2991 0.93718 0.0
O303 O 0.43578 0.28395 0.93812 0.0
H304 H 0.50073 0.26685 0.88319 0.0
H305 H 0.43953 0.3394 0.91167 0.0
O306 O 0.41626 0.31168 0.85602 0.0
H307 H 0.41787 0.30906 0.06749 0.0
H308 H 0.35777 0.27517 0.93756 0.0
H309 H 0.40583 0.25597 0.90331 0.0
H310 H 0.41628 0.28984 0.99819 0.0
H311 H 0.39122 0.29947 0.92016 0.0
O312 O 0.49304 0.33596 0.90135 0.0
H313 H 0.47565 0.2757 0.89087 0.0
H314 H 0.51426 0.33183 0.842 0.0
H315 H 0.37257 0.23119 0.92098 0.0
H316 H 0.44107 0.35908 0.97986 0.0
H317 H 0.34827 0.24075 0.93823 0.0
H318 H 0.43026 0.34393 0.05855 0.0
O319 O 0.42583 0.28279 0.84081 0.0
H320 H 0.48847 0.36322 0.75627 0.0
H321 H 0.47746 0.29782 0.77751 0.0
H322 H 0.48389 0.31194 0.69798 0.0
H323 H 0.48952 0.34491 0.68693 0.0
H324 H 0.48153 0.34836 0.83512 0.0
H325 H 0.53979 0.32363 0.83409 0.0
H326 H 0.53308 0.29091 0.85461 0.0
O327 O 0.45483 0.28545 0.84484 0.0
C328 C 0.45178 0.2868 0.95459 0.0
C329 C 0.50381 0.28114 0.87399 0.0
C330 C 0.52574 0.31301 0.84649 0.0
N331 N 0.49343 0.30421 0.86656 0.0
C332 C 0.48966 0.28622 0.87816 0.0
C333 C 0.51123 0.31758 0.85111 0.0
C334 C 0.52197 0.29465 0.858 0.0
C335 C 0.43453 0.33263 0.94557 0.0
N336 N 0.42768 0.31345 0.95074 0.0
C337 C 0.43556 0.34388 0.98416 0.0
C338 C 0.42953 0.33538 0.02832 0.0
C339 C 0.4226 0.31582 0.03337 0.0
C340 C 0.42179 0.30503 0.994 0.0
C341 C 0.36823 0.27082 0.93018 0.0
C342 C 0.39537 0.26024 0.91107 0.0
C343 C 0.38719 0.28452 0.92019 0.0
N344 N 0.4005 0.27915 0.91103 0.0
C345 C 0.37654 0.24615 0.92093 0.0
C346 C 0.36292 0.25152 0.93056 0.0
C347 C 0.43775 0.2775 0.82893 0.0
C348 C 0.48603 0.34884 0.76062 0.0
C349 C 0.47962 0.31206 0.77302 0.0
C350 C 0.48339 0.32004 0.72788 0.0
C351 C 0.48659 0.33855 0.72172 0.0
N352 N 0.47894 0.32219 0.81099 0.0
C353 C 0.48219 0.34039 0.80525 0.0
Co354 Co 0.54671 0.85352 0.90723 0.0
Co355 Co 0.59495 0.88162 0.88772 0.0
O356 O 0.56955 0.87845 0.89806 0.0
C357 C 0.51974 0.85499 0.83878 0.0
O358 O 0.5188 0.83984 0.81881 0.0
C359 C 0.60199 0.90872 0.96704 0.0
O360 O 0.58862 0.89435 0.99112 0.0
O361 O 0.59246 0.86638 0.94556 0.0
O362 O 0.5615 0.84362 0.94242 0.0
H363 H 0.64323 0.85968 0.87686 0.0
H364 H 0.54665 0.88883 0.9359 0.0
O365 O 0.53125 0.86313 0.8731 0.0
H366 H 0.5324 0.85046 0.08111 0.0
H367 H 0.47705 0.80919 0.94515 0.0
H368 H 0.53783 0.81334 0.89715 0.0
H369 H 0.5372 0.83825 0.00562 0.0
H370 H 0.50626 0.84058 0.93534 0.0
O371 O 0.60643 0.90595 0.92577 0.0
H372 H 0.6111 0.85569 0.88845 0.0
H373 H 0.63339 0.91523 0.86732 0.0
H374 H 0.50896 0.78165 0.90663 0.0
H375 H 0.54178 0.90152 0.0106 0.0
H376 H 0.47827 0.77944 0.9307 0.0
H377 H 0.53464 0.88231 0.08392 0.0
O378 O 0.55203 0.84425 0.84685 0.0
H379 H 0.59013 0.93196 0.79415 0.0
H380 H 0.60714 0.88113 0.78851 0.0
H381 H 0.60972 0.89929 0.71633 0.0
H382 H 0.60125 0.92497 0.7189 0.0
H383 H 0.58758 0.9133 0.86543 0.0
H384 H 0.66579 0.9199 0.85589 0.0
H385 H 0.67085 0.89197 0.86045 0.0
O386 O 0.58404 0.85768 0.84826 0.0
C387 C 0.57838 0.85044 0.95907 0.0
C388 C 0.6412 0.87195 0.87465 0.0
C389 C 0.65387 0.90575 0.86294 0.0
N390 N 0.62035 0.88518 0.87821 0.0
C391 C 0.62303 0.86977 0.88106 0.0
C392 C 0.6355 0.90303 0.86956 0.0
C393 C 0.65669 0.89007 0.86549 0.0
C394 C 0.54336 0.8803 0.96756 0.0
N395 N 0.5421 0.86277 0.96629 0.0
C396 C 0.5407 0.8876 0.00979 0.0
C397 C 0.53673 0.87682 0.05094 0.0
C398 C 0.53548 0.85896 0.04939 0.0
C399 C 0.53826 0.85214 0.00654 0.0
C400 C 0.49033 0.80996 0.93463 0.0
C401 C 0.52455 0.81249 0.90777 0.0
C402 C 0.50692 0.82769 0.92904 0.0
N403 N 0.52376 0.82879 0.91579 0.0
C404 C 0.50824 0.79451 0.91304 0.0
C405 C 0.49103 0.79328 0.92653 0.0
C406 C 0.56761 0.84577 0.83133 0.0
C407 C 0.5939 0.92083 0.79261 0.0
C408 C 0.60333 0.8922 0.78988 0.0
C409 C 0.60487 0.90248 0.74891 0.0
C410 C 0.60012 0.91689 0.75039 0.0
N411 N 0.59728 0.89619 0.83121 0.0
C412 C 0.59253 0.91025 0.83288 0.0
Co413 Co 0.70137 0.54363 0.07576 0.0
Co414 Co 0.71397 0.58974 0.04757 0.0
O415 O 0.69455 0.56356 0.06506 0.0
C416 C 0.66455 0.52412 0.02069 0.0
O417 O 0.66863 0.54044 1.00108 0.0
C418 C 0.69319 0.59594 0.12669 0.0
O419 O 0.69455 0.58275 0.15067 0.0
O420 O 0.72944 0.59163 0.10432 0.0
O421 O 0.72699 0.56274 0.10203 0.0
H422 H 0.78111 0.64333 0.01992 0.0
H423 H 0.66475 0.53815 0.11409 0.0
O424 O 0.676 0.52326 0.05025 0.0
H425 H 0.70142 0.53764 0.25268 0.0
H426 H 0.68924 0.47876 0.12751 0.0
H427 H 0.73642 0.54105 0.0599 0.0
H428 H 0.71475 0.54128 0.17254 0.0
H429 H 0.68067 0.50372 0.11335 0.0
O430 O 0.70017 0.60033 0.08523 0.0
H431 H 0.7563 0.61046 0.04067 0.0
H432 H 0.71281 0.6248 0.01932 0.0
H433 H 0.74564 0.51657 0.074 0.0
H434 H 0.65074 0.53409 0.19348 0.0
H435 H 0.72197 0.48516 0.10806 0.0
H436 H 0.66916 0.5339 0.26349 0.0
O437 O 0.71264 0.54788 0.01151 0.0
H438 H 0.6535 0.57553 0.96293 0.0
H439 H 0.72234 0.59787 0.94481 0.0
H440 H 0.70316 0.59541 0.87472 0.0
H441 H 0.66848 0.58423 0.88354 0.0
H442 H 0.67317 0.57789 0.03201 0.0
H443 H 0.73715 0.65788 0.99879 0.0
H444 H 0.77158 0.66731 0.99882 0.0
O445 O 0.72829 0.57997 0.00845 0.0
C446 C 0.73487 0.57993 0.11684 0.0
C447 C 0.76615 0.63939 0.01967 0.0
C448 C 0.74148 0.64756 0.00787 0.0
N449 N 0.73313 0.61569 0.03094 0.0
C450 C 0.75204 0.62078 0.03128 0.0
C451 C 0.72776 0.62882 0.01966 0.0
C452 C 0.76079 0.65284 0.00787 0.0
C453 C 0.67273 0.53778 0.14428 0.0
N454 N 0.69047 0.53978 0.13859 0.0
C455 C 0.66477 0.53559 0.18919 0.0
C456 C 0.67513 0.53552 0.22846 0.0
C457 C 0.69323 0.53761 0.22241 0.0
C458 C 0.70072 0.53973 0.17696 0.0
C459 C 0.69968 0.49239 0.11268 0.0
C460 C 0.72604 0.52745 0.07488 0.0
C461 C 0.6949 0.50657 0.10444 0.0
N462 N 0.70806 0.52388 0.08608 0.0
C463 C 0.73134 0.51362 0.08268 0.0
C464 C 0.71805 0.49599 0.10175 0.0
C465 C 0.72509 0.56369 0.9931 0.0
C466 C 0.6686 0.58043 0.95863 0.0
C467 C 0.70723 0.59279 0.94892 0.0
C468 C 0.69645 0.59153 0.90911 0.0
C469 C 0.67701 0.58529 0.91409 0.0
N470 N 0.69887 0.58795 0.99249 0.0
C471 C 0.67983 0.58188 0.99766 0.0
Co472 Co 0.12907 0.71275 0.21054 0.0
Co473 Co 0.15998 0.69626 0.23629 0.0
O474 O 0.13409 0.69194 0.22571 0.0
C475 C 0.10192 0.69288 0.29007 0.0
O476 O 0.11649 0.69503 0.31545 0.0
C477 C 0.13849 0.65812 0.18501 0.0
O478 O 0.12314 0.65967 0.18056 0.0
O479 O 0.16831 0.70929 0.17407 0.0
O480 O 0.1532 0.72631 0.17161 0.0
H481 H 0.23182 0.73573 0.23709 0.0
H482 H 0.09803 0.67291 0.19235 0.0
O483 O 0.10461 0.69945 0.24815 0.0
H484 H 0.11252 0.70501 0.0376 0.0
H485 H 0.08704 0.74025 0.16798 0.0
H486 H 0.15271 0.75503 0.20643 0.0
H487 H 0.12995 0.72266 0.10876 0.0
H488 H 0.09397 0.71432 0.18508 0.0
O489 O 0.15349 0.67123 0.20511 0.0
H490 H 0.19895 0.72985 0.22601 0.0
H491 H 0.1762 0.6718 0.26673 0.0
H492 H 0.14646 0.78139 0.18913 0.0
H493 H 0.08006 0.65479 0.12217 0.0
H494 H 0.11342 0.77406 0.16976 0.0
H495 H 0.08732 0.67082 0.04403 0.0
O496 O 0.14348 0.72727 0.26761 0.0
H497 H 0.11475 0.64544 0.34912 0.0
H498 H 0.17651 0.70522 0.33315 0.0
H499 H 0.16605 0.69049 0.41149 0.0
H500 H 0.13498 0.66031 0.41989 0.0
H501 H 0.12559 0.66083 0.2717 0.0
H502 H 0.2088 0.67701 0.27773 0.0
H503 H 0.2369 0.70919 0.2631 0.0
O504 O 0.16785 0.72134 0.26807 0.0
C505 C 0.16589 0.72249 0.15644 0.0
C506 C 0.21969 0.72167 0.24373 0.0
C507 C 0.20678 0.6887 0.26649 0.0
N508 N 0.18567 0.70055 0.24604 0.0
C509 C 0.20105 0.71826 0.23765 0.0
C510 C 0.18835 0.68583 0.26006 0.0
C511 C 0.22253 0.70676 0.25828 0.0
C512 C 0.10123 0.68003 0.15854 0.0
N513 N 0.11515 0.69879 0.15469 0.0
C514 C 0.09103 0.66967 0.11889 0.0
C515 C 0.09512 0.67867 0.07506 0.0
C516 C 0.10928 0.69784 0.07141 0.0
C517 C 0.11919 0.70773 0.11183 0.0
C518 C 0.10151 0.74362 0.17628 0.0
C519 C 0.13832 0.75173 0.19773 0.0
C520 C 0.10551 0.72901 0.1861 0.0
N521 N 0.12375 0.73316 0.1964 0.0
C522 C 0.13486 0.76671 0.1881 0.0
C523 C 0.11631 0.76259 0.17728 0.0
C524 C 0.15984 0.73067 0.28233 0.0
C525 C 0.12839 0.6585 0.34587 0.0
C526 C 0.16299 0.69209 0.33635 0.0
C527 C 0.15714 0.6838 0.38089 0.0
C528 C 0.13972 0.66688 0.38558 0.0
N529 N 0.15186 0.68376 0.29741 0.0
C530 C 0.1347 0.66722 0.30188 0.0
Co531 Co 0.46965 0.16057 0.41437 0.0
Co532 Co 0.42368 0.12784 0.38561 0.0
O533 O 0.44961 0.1341 0.40346 0.0
C534 C 0.4899 0.14595 0.35329 0.0
O535 O 0.47565 0.13932 0.32311 0.0
C536 C 0.41578 0.10007 0.46425 0.0
O537 O 0.42683 0.11457 0.49166 0.0
O538 O 0.42185 0.14123 0.4431 0.0
O539 O 0.45078 0.16756 0.43982 0.0
H540 H 0.37019 0.14176 0.35938 0.0
H541 H 0.47341 0.12866 0.45431 0.0
O542 O 0.48942 0.15451 0.39055 0.0
H543 H 0.47665 0.1681 0.59084 0.0
H544 H 0.53529 0.2124 0.46422 0.0
H545 H 0.47324 0.19849 0.39687 0.0
H546 H 0.47301 0.17733 0.51032 0.0
H547 H 0.50947 0.17907 0.45255 0.0
O548 O 0.41306 0.103 0.42147 0.0
H549 H 0.40301 0.14957 0.38029 0.0
H550 H 0.38867 0.09197 0.35563 0.0
H551 H 0.4986 0.23202 0.40831 0.0
H552 H 0.47703 0.11888 0.53435 0.0
H553 H 0.5299 0.23916 0.44221 0.0
H554 H 0.47861 0.13864 0.60332 0.0
O555 O 0.46573 0.16762 0.34971 0.0
H556 H 0.44009 0.08396 0.29685 0.0
H557 H 0.41528 0.12863 0.28328 0.0
H558 H 0.41867 0.1132 0.21171 0.0
H559 H 0.4311 0.09063 0.21825 0.0
H560 H 0.43668 0.0999 0.36749 0.0
H561 H 0.35564 0.0835 0.33485 0.0
H562 H 0.34624 0.10851 0.33645 0.0
O563 O 0.43363 0.15224 0.34796 0.0
C564 C 0.43371 0.15836 0.45568 0.0
C565 C 0.37412 0.13075 0.35842 0.0
C566 C 0.36595 0.09804 0.34471 0.0
N567 N 0.39778 0.12128 0.36887 0.0
C568 C 0.3927 0.1351 0.37012 0.0
C569 C 0.38466 0.10292 0.35664 0.0
C570 C 0.36069 0.11208 0.3456 0.0
C571 C 0.47421 0.13739 0.48414 0.0
N572 N 0.47308 0.15358 0.47761 0.0
C573 C 0.4762 0.13175 0.52938 0.0
C574 C 0.47706 0.14283 0.56807 0.0
C575 C 0.47592 0.15934 0.56111 0.0
C576 C 0.47385 0.16449 0.5154 0.0
C577 C 0.5217 0.20948 0.44947 0.0
C578 C 0.48678 0.20146 0.41185 0.0
C579 C 0.50705 0.19063 0.44265 0.0
N580 N 0.48982 0.18682 0.42428 0.0
C581 C 0.50111 0.22049 0.41815 0.0
C582 C 0.51867 0.22448 0.43713 0.0
C583 C 0.44999 0.1649 0.33205 0.0
C584 C 0.4346 0.09372 0.29357 0.0
C585 C 0.42077 0.1189 0.28643 0.0
C586 C 0.42261 0.11015 0.24577 0.0
C587 C 0.42958 0.09749 0.24946 0.0
N588 N 0.42572 0.11512 0.32958 0.0
C589 C 0.43257 0.10274 0.33346 0.0
Co590 Co 0.31152 0.46467 0.58324 0.0
Co591 Co 0.2992 0.41853 0.5562 0.0
O592 O 0.31849 0.44481 0.57336 0.0
C593 C 0.34677 0.48387 0.52373 0.0
O594 O 0.34086 0.46787 0.5002 0.0
C595 C 0.32098 0.41361 0.63494 0.0
O596 O 0.32074 0.42783 0.65686 0.0
O597 O 0.28362 0.41678 0.61261 0.0
O598 O 0.28592 0.44561 0.60961 0.0
H599 H 0.23227 0.36456 0.52831 0.0
H600 H 0.34847 0.4712 0.62186 0.0
O601 O 0.33683 0.48476 0.5575 0.0
H602 H 0.31145 0.47167 0.75987 0.0
H603 H 0.32353 0.52983 0.63204 0.0
H604 H 0.27641 0.46702 0.56658 0.0
H605 H 0.29794 0.4671 0.67973 0.0
H606 H 0.33214 0.50479 0.61949 0.0
O607 O 0.31299 0.40812 0.59472 0.0
H608 H 0.25689 0.39757 0.54876 0.0
H609 H 0.30067 0.38349 0.52922 0.0
H610 H 0.26714 0.49157 0.57904 0.0
H611 H 0.3627 0.47626 0.70126 0.0
H612 H 0.2908 0.52325 0.61196 0.0
H613 H 0.3441 0.47641 0.77098 0.0
O614 O 0.30033 0.4601 0.51899 0.0
H615 H 0.36017 0.43357 0.4729 0.0
H616 H 0.29109 0.4098 0.45353 0.0
H617 H 0.31058 0.41238 0.38393 0.0
H618 H 0.34538 0.42427 0.39339 0.0
H619 H 0.34018 0.43104 0.54147 0.0
H620 H 0.27652 0.35029 0.509 0.0
H621 H 0.24204 0.34066 0.50826 0.0
O622 O 0.28483 0.42802 0.51621 0.0
C623 C 0.2781 0.42847 0.6247 0.0
C624 C 0.24725 0.3686 0.52839 0.0
C625 C 0.27208 0.36058 0.5176 0.0
N626 N 0.2802 0.39248 0.53986 0.0
C627 C 0.26126 0.38727 0.53982 0.0
C628 C 0.28569 0.37939 0.5292 0.0
C629 C 0.25274 0.35519 0.51718 0.0
C630 C 0.3404 0.47154 0.65194 0.0
N631 N 0.32243 0.46895 0.64611 0.0
C632 C 0.34849 0.47429 0.69685 0.0
C633 C 0.33803 0.47434 0.73596 0.0
C634 C 0.31971 0.47168 0.72974 0.0
C635 C 0.3121 0.46901 0.6843 0.0
C636 C 0.3131 0.51608 0.61768 0.0
C637 C 0.28676 0.48074 0.58111 0.0
C638 C 0.3179 0.50186 0.61039 0.0
N639 N 0.30475 0.48441 0.59259 0.0
C640 C 0.28144 0.4946 0.58797 0.0
C641 C 0.29473 0.51238 0.6064 0.0
C642 C 0.288 0.44425 0.50056 0.0
C643 C 0.34501 0.42833 0.46833 0.0
C644 C 0.30624 0.41513 0.45791 0.0
C645 C 0.3172 0.41648 0.41838 0.0
C646 C 0.33671 0.42314 0.42373 0.0
N647 N 0.31449 0.42026 0.50156 0.0
C648 C 0.33361 0.42678 0.50707 0.0
Co649 Co 0.88364 0.30045 0.72263 0.0
Co650 Co 0.85212 0.3173 0.74054 0.0
O651 O 0.87797 0.32129 0.73107 0.0
C652 C 0.91277 0.30985 0.7983 0.0
O653 O 0.90182 0.29246 0.81462 0.0
C654 C 0.87152 0.35072 0.67279 0.0
O655 O 0.88597 0.34781 0.66655 0.0
O656 O 0.84266 0.30026 0.68425 0.0
O657 O 0.86012 0.28553 0.6825 0.0
H658 H 0.78056 0.27721 0.75376 0.0
H659 H 0.91474 0.33999 0.70092 0.0
O660 O 0.90742 0.3155 0.7623 0.0
H661 H 0.90208 0.30433 0.55147 0.0
H662 H 0.92709 0.27334 0.69277 0.0
H663 H 0.86088 0.25813 0.72591 0.0
H664 H 0.88398 0.28829 0.62328 0.0
H665 H 0.91936 0.29914 0.70234 0.0
O666 O 0.85757 0.33979 0.69945 0.0
H667 H 0.81338 0.28301 0.74251 0.0
H668 H 0.83572 0.34289 0.75723 0.0
H669 H 0.86796 0.23187 0.7164 0.0
H670 H 0.93353 0.35646 0.6302 0.0
H671 H 0.90128 0.23942 0.69974 0.0
H672 H 0.92716 0.33866 0.55467 0.0
O673 O 0.86851 0.2871 0.78012 0.0
H674 H 0.89862 0.37641 0.82989 0.0
H675 H 0.83765 0.31541 0.83847 0.0
H676 H 0.84919 0.33633 0.90837 0.0
H677 H 0.87982 0.36718 0.90425 0.0
H678 H 0.88672 0.35491 0.76119 0.0
H679 H 0.80313 0.33776 0.76793 0.0
H680 H 0.77527 0.30471 0.76651 0.0
O681 O 0.84544 0.29493 0.7824 0.0
C682 C 0.84621 0.28758 0.66796 0.0
C683 C 0.79258 0.29167 0.75457 0.0
C684 C 0.80525 0.32565 0.76246 0.0
N685 N 0.82647 0.31324 0.74957 0.0
C686 C 0.81121 0.29504 0.74839 0.0
C687 C 0.82367 0.32847 0.75621 0.0
C688 C 0.78962 0.30711 0.76168 0.0
C689 C 0.91204 0.33205 0.6684 0.0
N690 N 0.89819 0.3132 0.66633 0.0
C691 C 0.92266 0.3415 0.62836 0.0
C692 C 0.91905 0.33151 0.58598 0.0
C693 C 0.90496 0.31227 0.58414 0.0
C694 C 0.89465 0.30329 0.6249 0.0
C695 C 0.91251 0.26986 0.69997 0.0
C696 C 0.8754 0.26151 0.71851 0.0
C697 C 0.90805 0.28441 0.70544 0.0
N698 N 0.88967 0.28013 0.71457 0.0
C699 C 0.87933 0.24659 0.71322 0.0
C700 C 0.89802 0.25084 0.70389 0.0
C701 C 0.85303 0.28529 0.79706 0.0
C702 C 0.88521 0.36305 0.83207 0.0
C703 C 0.85107 0.32869 0.83647 0.0
C704 C 0.8575 0.34054 0.87614 0.0
C705 C 0.87467 0.35785 0.8738 0.0
N706 N 0.86137 0.33396 0.79547 0.0
C707 C 0.87833 0.35083 0.79312 0.0
H708 H 0.19794 0.47778 0.16869 0.0
H709 H 0.21823 0.47736 0.2322 0.0
H710 H 0.18505 0.41576 0.23653 0.0
H711 H 0.16459 0.41599 0.17329 0.0
H712 H 0.19296 0.43085 0.3249 0.0
H713 H 0.22812 0.43805 0.1825 0.0
H714 H 0.24282 0.45308 0.10655 0.0
H715 H 0.27991 0.50596 0.17749 0.0
H716 H 0.2652 0.49133 0.25385 0.0
H717 H 0.25802 0.41376 0.45595 0.0
H718 H 0.23792 0.41454 0.39245 0.0
H719 H 0.27086 0.47617 0.3908 0.0
H720 H 0.2911 0.47559 0.45428 0.0
H721 H 0.26317 0.46129 0.30122 0.0
H722 H 0.22815 0.4542 0.44344 0.0
H723 H 0.21319 0.43944 0.5194 0.0
H724 H 0.17575 0.38655 0.44885 0.0
H725 H 0.19072 0.40092 0.3725 0.0
C726 C 0.19486 0.46412 0.18322 0.0
C727 C 0.17958 0.44692 0.16562 0.0
C728 C 0.20655 0.46391 0.21948 0.0
C729 C 0.20332 0.44651 0.23891 0.0
C730 C 0.18786 0.42936 0.22215 0.0
C731 C 0.17618 0.42953 0.1858 0.0
C732 C 0.21621 0.44617 0.27617 0.0
C733 C 0.20827 0.43729 0.31947 0.0
C734 C 0.23628 0.45492 0.26958 0.0
C735 C 0.24543 0.46365 0.22385 0.0
C736 C 0.23933 0.45292 0.18188 0.0
C737 C 0.24766 0.46136 0.13875 0.0
C738 C 0.26225 0.48048 0.13718 0.0
C739 C 0.26859 0.49117 0.17876 0.0
C740 C 0.26026 0.4828 0.22199 0.0
C741 C 0.26108 0.42751 0.44207 0.0
C742 C 0.27619 0.44462 0.46057 0.0
C743 C 0.24951 0.42792 0.40577 0.0
C744 C 0.25274 0.44542 0.38708 0.0
C745 C 0.26807 0.46249 0.40463 0.0
C746 C 0.2796 0.46212 0.4411 0.0
C747 C 0.2399 0.44592 0.3499 0.0
C748 C 0.24785 0.45484 0.30663 0.0
C749 C 0.21985 0.43722 0.35652 0.0
C750 C 0.21069 0.42858 0.4023 0.0
C751 C 0.21683 0.43937 0.44416 0.0
C752 C 0.20834 0.43109 0.48728 0.0
C753 C 0.19356 0.41205 0.48897 0.0
C754 C 0.18722 0.40129 0.4475 0.0
C755 C 0.1957 0.4095 0.40428 0.0
H756 H 0.187 0.40566 0.52239 0.0
H757 H 0.26868 0.487 0.10374 0.0
H758 H 0.84936 0.25947 0.62071 0.0
H759 H 0.82909 0.23879 0.55726 0.0
H760 H 0.79411 0.26531 0.56523 0.0
H761 H 0.81421 0.286 0.62902 0.0
H762 H 0.77219 0.22678 0.55628 0.0
H763 H 0.82713 0.27713 0.47822 0.0
H764 H 0.86168 0.29794 0.46347 0.0
H765 H 0.86656 0.24886 0.42695 0.0
H766 H 0.83208 0.22771 0.44226 0.0
H767 H 0.72356 0.19219 0.33728 0.0
H768 H 0.7434 0.21289 0.4014 0.0
H769 H 0.77951 0.18763 0.39308 0.0
H770 H 0.75991 0.167 0.3288 0.0
H771 H 0.80084 0.22573 0.40214 0.0
H772 H 0.74645 0.17533 0.48069 0.0
H773 H 0.71212 0.15404 0.49703 0.0
H774 H 0.70631 0.20258 0.53355 0.0
H775 H 0.74058 0.22421 0.51673 0.0
C776 C 0.83738 0.26097 0.60907 0.0
C777 C 0.83361 0.27462 0.62992 0.0
C778 C 0.8258 0.24912 0.5726 0.0
C779 C 0.81018 0.25062 0.55592 0.0
C780 C 0.8061 0.2639 0.57732 0.0
C781 C 0.81769 0.27579 0.61375 0.0
C782 C 0.79824 0.23852 0.51585 0.0
C783 C 0.77842 0.22676 0.52237 0.0
C784 C 0.80638 0.2381 0.47184 0.0
C785 C 0.82705 0.25082 0.46182 0.0
C786 C 0.83559 0.27076 0.46734 0.0
C787 C 0.85516 0.28262 0.45886 0.0
C788 C 0.86632 0.27472 0.4444 0.0
C789 C 0.8579 0.25495 0.43823 0.0
C790 C 0.83835 0.24302 0.44677 0.0
C791 C 0.7357 0.19098 0.34904 0.0
C792 C 0.73998 0.17776 0.32784 0.0
C793 C 0.74703 0.20283 0.38589 0.0
C794 C 0.76288 0.20172 0.40257 0.0
C795 C 0.76737 0.18877 0.38098 0.0
C796 C 0.75605 0.17691 0.34422 0.0
C797 C 0.77475 0.21398 0.44253 0.0
C798 C 0.79458 0.22577 0.436 0.0
C799 C 0.76663 0.21437 0.48659 0.0
C800 C 0.74604 0.2014 0.49697 0.0
C801 C 0.73782 0.18148 0.49184 0.0
C802 C 0.71838 0.16935 0.50124 0.0
C803 C 0.70703 0.17696 0.51619 0.0
C804 C 0.71512 0.19671 0.52189 0.0
C805 C 0.73455 0.20892 0.51245 0.0
H806 H 0.69198 0.16754 0.52347 0.0
H807 H 0.88147 0.28393 0.43789 0.0
H808 H 0.53187 0.72272 0.49625 0.0
H809 H 0.53282 0.74376 0.55949 0.0
H810 H 0.59433 0.77031 0.56538 0.0
H811 H 0.59355 0.74921 0.50237 0.0
H812 H 0.57925 0.76328 0.65288 0.0
H813 H 0.57311 0.79284 0.51283 0.0
H814 H 0.55874 0.79398 0.43701 0.0
H815 H 0.50572 0.77861 0.50696 0.0
H816 H 0.5197 0.77709 0.58315 0.0
H817 H 0.59753 0.84461 0.78834 0.0
H818 H 0.59626 0.82371 0.72454 0.0
H819 H 0.53471 0.7969 0.72125 0.0
H820 H 0.53581 0.81792 0.785 0.0
H821 H 0.54965 0.80399 0.63244 0.0
H822 H 0.5565 0.77508 0.77325 0.0
H823 H 0.5714 0.77437 0.84848 0.0
H824 H 0.62377 0.78885 0.77634 0.0
H825 H 0.6093 0.79008 0.70069 0.0
C826 C 0.54564 0.733 0.51094 0.0
C827 C 0.56264 0.73419 0.49398 0.0
C828 C 0.54615 0.7451 0.54706 0.0
C829 C 0.56367 0.75879 0.56701 0.0
C830 C 0.58064 0.75988 0.55061 0.0
C831 C 0.58015 0.7478 0.51441 0.0
C832 C 0.56427 0.77193 0.60495 0.0
C833 C 0.573 0.77236 0.64815 0.0
C834 C 0.55578 0.78354 0.59929 0.0
C835 C 0.5474 0.78467 0.55364 0.0
C836 C 0.55834 0.78957 0.512 0.0
C837 C 0.55028 0.7903 0.46896 0.0
C838 C 0.53131 0.78632 0.46715 0.0
C839 C 0.5204 0.78166 0.50841 0.0
C840 C 0.52839 0.78088 0.55155 0.0
C841 C 0.58367 0.83431 0.77416 0.0
C842 C 0.56676 0.83301 0.79212 0.0
C843 C 0.58299 0.82229 0.73764 0.0
C844 C 0.56538 0.80855 0.71828 0.0
C845 C 0.54847 0.80737 0.73557 0.0
C846 C 0.54913 0.8194 0.77219 0.0
C847 C 0.56464 0.79533 0.68037 0.0
C848 C 0.55589 0.79489 0.63718 0.0
C849 C 0.57318 0.78377 0.68596 0.0
C850 C 0.58186 0.78285 0.73134 0.0
C851 C 0.57124 0.77826 0.77345 0.0
C852 C 0.57961 0.77775 0.81619 0.0
C853 C 0.59853 0.78156 0.81723 0.0
C854 C 0.60912 0.7859 0.7755 0.0
C855 C 0.60084 0.78652 0.73267 0.0
H856 H 0.60498 0.78113 0.85034 0.0
H857 H 0.52508 0.78688 0.43379 0.0
H858 H 0.81852 0.53246 0.66503 0.0
H859 H 0.79825 0.53241 0.72909 0.0
H860 H 0.82747 0.59407 0.72617 0.0
H861 H 0.8481 0.59432 0.66259 0.0
H862 H 0.82132 0.58129 0.81552 0.0
H863 H 0.78346 0.56698 0.67485 0.0
H864 H 0.76883 0.5492 0.60149 0.0
H865 H 0.73648 0.49744 0.68087 0.0
H866 H 0.75118 0.51485 0.75468 0.0
H867 H 0.75344 0.5942 0.94491 0.0
H868 H 0.77377 0.59373 0.88175 0.0
H869 H 0.74467 0.53212 0.88811 0.0
H870 H 0.72405 0.5324 0.95115 0.0
H871 H 0.75066 0.54454 0.79736 0.0
H872 H 0.7884 0.5588 0.93793 0.0
H873 H 0.80346 0.57639 0.0112 0.0
H874 H 0.83615 0.62814 0.93197 0.0
H875 H 0.82105 0.61091 0.85824 0.0
C876 C 0.82075 0.54606 0.67806 0.0
C877 C 0.83495 0.5634 0.65829 0.0
C878 C 0.80905 0.54598 0.71465 0.0
C879 C 0.8111 0.56322 0.73211 0.0
C880 C 0.82555 0.58057 0.71328 0.0
C881 C 0.83732 0.58068 0.67674 0.0
C882 C 0.79799 0.56315 0.76943 0.0
C883 C 0.80588 0.57346 0.81125 0.0
C884 C 0.77779 0.55259 0.76445 0.0
C885 C 0.76855 0.54219 0.72026 0.0
C886 C 0.7733 0.55178 0.67664 0.0
C887 C 0.765 0.54177 0.63498 0.0
C888 C 0.75177 0.52219 0.6365 0.0
C889 C 0.74675 0.5126 0.67974 0.0
C890 C 0.75505 0.52254 0.72151 0.0
C891 C 0.75125 0.5805 0.9329 0.0
C892 C 0.73706 0.56333 0.95344 0.0
C893 C 0.76298 0.58027 0.89679 0.0
C894 C 0.76094 0.5629 0.88046 0.0
C895 C 0.74655 0.54571 0.90011 0.0
C896 C 0.73478 0.54591 0.93629 0.0
C897 C 0.77401 0.56272 0.84339 0.0
C898 C 0.7661 0.55237 0.80162 0.0
C899 C 0.7942 0.57324 0.84839 0.0
C900 C 0.80346 0.5836 0.8926 0.0
C901 C 0.7987 0.57396 0.93615 0.0
C902 C 0.80726 0.58386 0.97777 0.0
C903 C 0.82072 0.60338 0.97626 0.0
C904 C 0.8257 0.61302 0.93309 0.0
C905 C 0.81716 0.6032 0.89137 0.0
H906 H 0.82733 0.61102 0.00851 0.0
H907 H 0.74539 0.51446 0.6042 0.0
H908 H 0.2906 0.81318 0.82386 0.0
H909 H 0.27075 0.79294 0.88854 0.0
H910 H 0.23922 0.82319 0.88981 0.0
H911 H 0.25917 0.84369 0.82587 0.0
H912 H 0.24653 0.81725 0.97763 0.0
H913 H 0.2212 0.77857 0.83844 0.0
H914 H 0.22322 0.76305 0.76538 0.0
H915 H 0.24255 0.73056 0.84475 0.0
H916 H 0.24095 0.74614 0.91824 0.0
H917 H 0.16529 0.75181 0.10868 0.0
H918 H 0.18653 0.77158 0.04559 0.0
H919 H 0.21695 0.74029 0.05207 0.0
H920 H 0.19557 0.72018 0.11496 0.0
H921 H 0.21112 0.74655 0.96157 0.0
H922 H 0.2357 0.78476 0.10106 0.0
H923 H 0.23396 0.80056 0.17388 0.0
H924 H 0.21603 0.83402 0.09374 0.0
H925 H 0.21739 0.81821 0.02047 0.0
C926 C 0.27949 0.8156 0.83794 0.0
C927 C 0.27652 0.8301 0.81934 0.0
C928 C 0.26806 0.80392 0.87487 0.0
C929 C 0.25327 0.80633 0.89383 0.0
C930 C 0.25049 0.821 0.87588 0.0
C931 C 0.26193 0.8327 0.83908 0.0
C932 C 0.24056 0.79353 0.93205 0.0
C933 C 0.23862 0.8018 0.97382 0.0
C934 C 0.23053 0.77332 0.92778 0.0
C935 C 0.23114 0.76366 0.88378 0.0
C936 C 0.226 0.7682 0.84028 0.0
C937 C 0.22706 0.75939 0.79879 0.0
C938 C 0.23306 0.74587 0.8004 0.0
C939 C 0.23793 0.74107 0.84355 0.0
C940 C 0.23694 0.74987 0.88513 0.0
C941 C 0.17645 0.74903 0.09675 0.0
C942 C 0.17867 0.73434 0.11723 0.0
C943 C 0.18867 0.76045 0.06067 0.0
C944 C 0.20355 0.75764 0.04432 0.0
C945 C 0.20562 0.74279 0.06405 0.0
C946 C 0.19338 0.73132 0.10017 0.0
C947 C 0.21699 0.77029 0.00697 0.0
C948 C 0.21906 0.76199 0.9654 0.0
C949 C 0.22714 0.7905 0.01138 0.0
C950 C 0.22649 0.80017 0.05532 0.0
C951 C 0.23126 0.79539 0.099 0.0
C952 C 0.23036 0.80436 0.14035 0.0
C953 C 0.22485 0.81825 0.13846 0.0
C954 C 0.22028 0.82324 0.09516 0.0
C955 C 0.22113 0.81429 0.0537 0.0
H956 H 0.22415 0.82518 0.17052 0.0
H957 H 0.2339 0.73908 0.76824 0.0
H958 H 0.41963 0.16494 0.28852 0.0
H959 H 0.42034 0.1858 0.22546 0.0
H960 H 0.48202 0.21417 0.22267 0.0
H961 H 0.48149 0.19359 0.2868 0.0
H962 H 0.47053 0.23982 0.21658 0.0
H963 H 0.45396 0.18097 0.13788 0.0
H964 H 0.43534 0.1461 0.125 0.0
H965 H 0.38446 0.14956 0.1027 0.0
H966 H 0.40272 0.18442 0.11627 0.0
H967 H 0.48253 0.28697 0.99678 0.0
H968 H 0.48229 0.2665 0.06043 0.0
H969 H 0.42068 0.23854 0.06676 0.0
H970 H 0.42074 0.2588 1.00253 0.0
H971 H 0.43241 0.21271 0.07067 0.0
H972 H 0.44899 0.27152 0.15034 0.0
H973 H 0.46762 0.30635 0.16378 0.0
H974 H 0.51863 0.30292 0.18388 0.0
H975 H 0.50035 0.26808 0.16989 0.0
C976 C 0.43339 0.17556 0.27455 0.0
C977 C 0.45051 0.17744 0.29277 0.0
C978 C 0.43376 0.18747 0.23822 0.0
C979 C 0.45122 0.20143 0.21864 0.0
C980 C 0.46835 0.2035 0.23701 0.0
C981 C 0.46801 0.19163 0.2736 0.0
C982 C 0.45155 0.21389 0.17922 0.0
C983 C 0.46241 0.23386 0.1844 0.0
C984 C 0.44063 0.20622 0.13751 0.0
C985 C 0.42968 0.1853 0.1285 0.0
C986 C 0.43878 0.17428 0.13051 0.0
C987 C 0.42829 0.15452 0.12308 0.0
C988 C 0.40872 0.14562 0.11313 0.0
C989 C 0.39962 0.15647 0.11046 0.0
C990 C 0.41003 0.17624 0.11799 0.0
C991 C 0.4689 0.27656 0.01177 0.0
C992 C 0.45165 0.27468 0.99448 0.0
C993 C 0.46879 0.26485 0.04837 0.0
C994 C 0.45148 0.25106 0.06892 0.0
C995 C 0.43424 0.24907 0.0516 0.0
C996 C 0.43431 0.26075 0.01493 0.0
C997 C 0.45136 0.23862 0.10809 0.0
C998 C 0.44055 0.21866 0.10284 0.0
C999 C 0.46235 0.2463 0.14968 0.0
C1000 C 0.47333 0.26721 0.15863 0.0
C1001 C 0.46421 0.27821 0.15731 0.0
C1002 C 0.4747 0.29795 0.16507 0.0
C1003 C 0.49431 0.30685 0.17455 0.0
C1004 C 0.50345 0.29601 0.17646 0.0
C1005 C 0.49302 0.27626 0.16867 0.0
H1006 H 0.50241 0.32214 0.18052 0.0
H1007 H 0.40062 0.13031 0.10742 0.0
H1008 H 0.11795 0.48735 0.15441 0.0
H1009 H 0.11474 0.51563 0.17002 0.0
H1010 H 0.16963 0.55166 0.10497 0.0
H1011 H 0.1728 0.52364 0.08861 0.0
H1012 H 0.16383 0.56575 0.19327 0.0
H1013 H 0.13244 0.5405 0.04268 0.0
H1014 H 0.10869 0.51505 0.99121 0.0
H1015 H 0.0631 0.51075 0.07832 0.0
H1016 H 0.08663 0.53599 0.13076 0.0
H1017 H 0.16819 0.65339 0.1573 0.0
H1018 H 0.16796 0.62335 0.14409 0.0
H1019 H 0.10745 0.59178 0.175 0.0
H1020 H 0.10745 0.62195 0.1853 0.0
H1021 H 0.11402 0.57368 0.11028 0.0
H1022 H 0.14369 0.59943 0.25862 0.0
H1023 H 0.16646 0.62443 0.31264 0.0
H1024 H 0.21363 0.62656 0.23687 0.0
H1025 H 0.19115 0.6018 0.18186 0.0
C1026 C 0.12937 0.50133 0.14379 0.0
C1027 C 0.14559 0.50326 0.12012 0.0
C1028 C 0.1275 0.51744 0.15258 0.0
C1029 C 0.14193 0.53572 0.13849 0.0
C1030 C 0.15834 0.5377 0.11615 0.0
C1031 C 0.16008 0.52164 0.10666 0.0
C1032 C 0.13989 0.55287 0.1456 0.0
C1033 C 0.15302 0.56757 0.17498 0.0
C1034 C 0.12544 0.55496 0.12277 0.0
C1035 C 0.1113 0.53997 0.09093 0.0
C1036 C 0.11736 0.53401 0.05108 0.0
C1037 C 0.10394 0.51965 0.0217 0.0
C1038 C 0.0844 0.51124 0.03157 0.0
C1039 C 0.07824 0.51724 0.07076 0.0
C1040 C 0.09161 0.53158 0.10032 0.0
C1041 C 0.15479 0.64003 0.16063 0.0
C1042 C 0.13786 0.63999 0.17254 0.0
C1043 C 0.15469 0.62283 0.15351 0.0
C1044 C 0.1378 0.60518 0.16001 0.0
C1045 C 0.1207 0.60515 0.17009 0.0
C1046 C 0.1207 0.62241 0.17596 0.0
C1047 C 0.13818 0.58687 0.15757 0.0
C1048 C 0.12474 0.57189 0.12911 0.0
C1049 C 0.15216 0.58438 0.18198 0.0
C1050 C 0.16572 0.59885 0.2159 0.0
C1051 C 0.15892 0.60527 0.25338 0.0
C1052 C 0.17178 0.61942 0.28415 0.0
C1053 C 0.19148 0.6271 0.27813 0.0
C1054 C 0.19836 0.6206 0.24146 0.0
C1055 C 0.18557 0.6065 0.21049 0.0
H1056 H 0.20141 0.63808 0.30192 0.0
H1057 H 0.07403 0.50012 0.00879 0.0
H1058 H 0.63802 0.13062 0.23443 0.0
H1059 H 0.60551 0.12484 0.24623 0.0
H1060 H 0.62429 0.16138 0.36883 0.0
H1061 H 0.65693 0.16733 0.35723 0.0
H1062 H 0.58813 0.12813 0.38055 0.0
H1063 H 0.62107 0.17977 0.26898 0.0
H1064 H 0.63964 0.19442 0.19666 0.0
H1065 H 0.59435 0.15119 0.11266 0.0
H1066 H 0.57557 0.13616 0.18466 0.0
H1067 H 0.52176 0.15919 0.40828 0.0
H1068 H 0.55007 0.15646 0.39507 0.0
H1069 H 0.52545 0.12513 0.26643 0.0
H1070 H 0.49689 0.12814 0.27902 0.0
H1071 H 0.56254 0.15164 0.25399 0.0
H1072 H 0.52778 0.1021 0.36538 0.0
H1073 H 0.5093 0.08753 0.43788 0.0
H1074 H 0.55762 0.12597 0.52219 0.0
H1075 H 0.57632 0.14097 0.45018 0.0
C1076 C 0.63521 0.13718 0.26443 0.0
C1077 C 0.65014 0.14954 0.29478 0.0
C1078 C 0.61661 0.13391 0.27097 0.0
C1079 C 0.61253 0.14285 0.30809 0.0
C1080 C 0.62714 0.15436 0.33991 0.0
C1081 C 0.6458 0.15778 0.33317 0.0
C1082 C 0.59338 0.14122 0.31201 0.0
C1083 C 0.58256 0.13336 0.35307 0.0
C1084 C 0.5859 0.14757 0.27554 0.0
C1085 C 0.59702 0.15673 0.2322 0.0
C1086 C 0.61513 0.17331 0.23511 0.0
C1087 C 0.62569 0.18169 0.19418 0.0
C1088 C 0.61823 0.17369 0.15009 0.0
C1089 C 0.60013 0.15734 0.14685 0.0
C1090 C 0.58951 0.1489 0.18769 0.0
C1091 C 0.52223 0.15165 0.37713 0.0
C1092 C 0.50695 0.14384 0.34474 0.0
C1093 C 0.53846 0.15001 0.36979 0.0
C1094 C 0.5398 0.1403 0.33019 0.0
C1095 C 0.52468 0.1326 0.29742 0.0
C1096 C 0.50836 0.13429 0.30469 0.0
C1097 C 0.5573 0.13878 0.32296 0.0
C1098 C 0.56789 0.1461 0.28127 0.0
C1099 C 0.56453 0.13186 0.35884 0.0
C1100 C 0.55341 0.12275 0.40232 0.0
C1101 C 0.53443 0.10753 0.39937 0.0
C1102 C 0.52392 0.09919 0.44039 0.0
C1103 C 0.53227 0.10585 0.48461 0.0
C1104 C 0.55117 0.12083 0.48791 0.0
C1105 C 0.56174 0.12924 0.44699 0.0
H1106 H 0.5241 0.09937 0.51633 0.0
H1107 H 0.62643 0.18019 0.11845 0.0
H1108 H 0.37875 0.48574 0.48427 0.0
H1109 H 0.40993 0.51466 0.47047 0.0
H1110 H 0.38732 0.54967 0.52237 0.0
H1111 H 0.35645 0.52096 0.53757 0.0
H1112 H 0.40993 0.56144 0.43069 0.0
H1113 H 0.41135 0.54386 0.59462 0.0
H1114 H 0.4086 0.52118 0.65658 0.0
H1115 H 0.45379 0.51568 0.59175 0.0
H1116 H 0.45656 0.5381 0.52889 0.0
H1117 H 0.48795 0.65246 0.46381 0.0
H1118 H 0.45896 0.62197 0.47889 0.0
H1119 H 0.49175 0.59301 0.47335 0.0
H1120 H 0.52106 0.62376 0.46054 0.0
H1121 H 0.46475 0.57622 0.5363 0.0
H1122 H 0.46607 0.59484 0.37664 0.0
H1123 H 0.46972 0.61696 0.31227 0.0
H1124 H 0.42039 0.6189 0.362 0.0
H1125 H 0.41665 0.59707 0.42726 0.0
C1126 C 0.38043 0.49962 0.49239 0.0
C1127 C 0.36521 0.50111 0.5121 0.0
C1128 C 0.39821 0.51609 0.48461 0.0
C1129 C 0.40087 0.53425 0.49547 0.0
C1130 C 0.38552 0.53577 0.51372 0.0
C1131 C 0.36794 0.51936 0.52253 0.0
C1132 C 0.41977 0.55175 0.48934 0.0
C1133 C 0.42191 0.56477 0.45388 0.0
C1134 C 0.43551 0.55574 0.51871 0.0
C1135 C 0.43399 0.54245 0.55675 0.0
C1136 C 0.42056 0.53766 0.59331 0.0
C1137 C 0.41902 0.52489 0.62865 0.0
C1138 C 0.43097 0.51695 0.62802 0.0
C1139 C 0.44452 0.52182 0.59213 0.0
C1140 C 0.44608 0.53455 0.55665 0.0
C1141 C 0.48904 0.63963 0.46662 0.0
C1142 C 0.50674 0.64046 0.46068 0.0
C1143 C 0.47243 0.62217 0.47488 0.0
C1144 C 0.47303 0.60505 0.47581 0.0
C1145 C 0.49087 0.60597 0.47241 0.0
C1146 C 0.50762 0.62355 0.46515 0.0
C1147 C 0.45492 0.58626 0.47808 0.0
C1148 C 0.45291 0.57292 0.51269 0.0
C1149 C 0.43938 0.58179 0.44723 0.0
C1150 C 0.44116 0.59441 0.40707 0.0
C1151 C 0.45603 0.60003 0.37396 0.0
C1152 C 0.45814 0.61253 0.33734 0.0
C1153 C 0.44532 0.61936 0.33311 0.0
C1154 C 0.43032 0.61361 0.36536 0.0
C1155 C 0.42819 0.60116 0.40216 0.0
H1156 H 0.44699 0.62907 0.3048 0.0
H1157 H 0.42976 0.50706 0.65541 0.0
H1158 H 0.89735 0.52272 0.63405 0.0
H1159 H 0.90025 0.49412 0.64758 0.0
H1160 H 0.84224 0.45825 0.59946 0.0
H1161 H 0.83942 0.48661 0.58467 0.0
H1162 H 0.85358 0.44646 0.68826 0.0
H1163 H 0.87274 0.46535 0.52513 0.0
H1164 H 0.89251 0.48857 0.46393 0.0
H1165 H 0.94341 0.49432 0.52793 0.0
H1166 H 0.92392 0.47136 0.59003 0.0
H1167 H 0.8418 0.35628 0.65143 0.0
H1168 H 0.84304 0.38666 0.63614 0.0
H1169 H 0.90472 0.41614 0.64453 0.0
H1170 H 0.90355 0.3855 0.65753 0.0
H1171 H 0.89441 0.43315 0.58146 0.0
H1172 H 0.87676 0.41313 0.74034 0.0
H1173 H 0.8582 0.39009 0.80304 0.0
H1174 H 0.80678 0.38783 0.7534 0.0
H1175 H 0.82497 0.41057 0.68975 0.0
C1176 C 0.88519 0.50871 0.62679 0.0
C1177 C 0.86819 0.50688 0.60817 0.0
C1178 C 0.88688 0.49244 0.6344 0.0
C1179 C 0.87145 0.47412 0.62444 0.0
C1180 C 0.85428 0.47226 0.60742 0.0
C1181 C 0.85273 0.48848 0.59883 0.0
C1182 C 0.87326 0.45681 0.62991 0.0
C1183 C 0.86241 0.44346 0.66484 0.0
C1184 C 0.88523 0.45324 0.60017 0.0
C1185 C 0.8969 0.46683 0.56254 0.0
C1186 C 0.88816 0.47171 0.52641 0.0
C1187 C 0.89931 0.48479 0.49151 0.0
C1188 C 0.91921 0.49296 0.49213 0.0
C1189 C 0.92799 0.48801 0.52756 0.0
C1190 C 0.9169 0.47496 0.5626 0.0
C1191 C 0.85564 0.36919 0.64904 0.0
C1192 C 0.87257 0.36856 0.65599 0.0
C1193 C 0.85634 0.38658 0.64065 0.0
C1194 C 0.87395 0.4038 0.64067 0.0
C1195 C 0.89096 0.40308 0.64475 0.0
C1196 C 0.89028 0.38557 0.65211 0.0
C1197 C 0.87439 0.42248 0.63933 0.0
C1198 C 0.8857 0.43615 0.60532 0.0
C1199 C 0.8631 0.42652 0.67057 0.0
C1200 C 0.85222 0.41347 0.71005 0.0
C1201 C 0.86148 0.40769 0.74271 0.0
C1202 C 0.85103 0.39466 0.77838 0.0
C1203 C 0.83132 0.38748 0.78215 0.0
C1204 C 0.82205 0.3934 0.75041 0.0
C1205 C 0.83243 0.40637 0.71453 0.0
H1206 H 0.82323 0.37734 0.8097 0.0
H1207 H 0.92782 0.50309 0.46508 0.0
H1208 H 0.37164 0.88024 0.83476 0.0
H1209 H 0.4024 0.88198 0.85159 0.0
H1210 H 0.3957 0.84825 0.72745 0.0
H1211 H 0.36529 0.84642 0.71051 0.0
H1212 H 0.40574 0.83497 0.80388 0.0
H1213 H 0.42617 0.89608 0.72835 0.0
H1214 H 0.42828 0.92752 0.72024 0.0
H1215 H 0.45449 0.94405 0.85692 0.0
H1216 H 0.45229 0.91259 0.8661 0.0
H1217 H 0.49448 0.84247 0.76522 0.0
H1218 H 0.46674 0.84669 0.75465 0.0
H1219 H 0.48278 0.88249 0.87853 0.0
H1220 H 0.51085 0.87867 0.88885 0.0
H1221 H 0.46804 0.89549 0.8117 0.0
H1222 H 0.44949 0.83582 0.8867 0.0
H1223 H 0.44748 0.80451 0.89699 0.0
H1224 H 0.41728 0.78512 0.76564 0.0
H1225 H 0.41935 0.81642 0.7542 0.0
C1226 C 0.37677 0.87325 0.81104 0.0
C1227 C 0.36592 0.86315 0.77136 0.0
C1228 C 0.39437 0.8743 0.82061 0.0
C1229 C 0.40138 0.86526 0.7907 0.0
C1230 C 0.39058 0.85528 0.75112 0.0
C1231 C 0.37315 0.85429 0.74146 0.0
C1232 C 0.41973 0.8657 0.80045 0.0
C1233 C 0.41937 0.84821 0.8052 0.0
C1234 C 0.43746 0.88298 0.80376 0.0
C1235 C 0.43886 0.90191 0.79814 0.0
C1236 C 0.43223 0.90636 0.75684 0.0
C1237 C 0.43347 0.9242 0.75202 0.0
C1238 C 0.44146 0.93776 0.7881 0.0
C1239 C 0.44828 0.93352 0.82903 0.0
C1240 C 0.44705 0.9157 0.83405 0.0
C1241 C 0.49231 0.85151 0.7898 0.0
C1242 C 0.5048 0.86007 0.82812 0.0
C1243 C 0.47638 0.85384 0.78384 0.0
C1244 C 0.47242 0.86455 0.81643 0.0
C1245 C 0.48548 0.87407 0.8531 0.0
C1246 C 0.50153 0.87187 0.85891 0.0
C1247 C 0.45406 0.86472 0.81373 0.0
C1248 C 0.4544 0.88227 0.81064 0.0
C1249 C 0.43622 0.84748 0.81238 0.0
C1250 C 0.43471 0.82853 0.81942 0.0
C1251 C 0.44252 0.82492 0.85986 0.0
C1252 C 0.44137 0.80718 0.86591 0.0
C1253 C 0.43231 0.79285 0.83193 0.0
C1254 C 0.42432 0.79623 0.7919 0.0
C1255 C 0.42546 0.81397 0.78564 0.0
H1256 H 0.43144 0.77913 0.83667 0.0
H1257 H 0.44241 0.95156 0.7843 0.0
H1258 H 0.52907 0.35707 0.9206 0.0
H1259 H 0.55696 0.38821 0.93877 0.0
H1260 H 0.51993 0.40782 0.99409 0.0
H1261 H 0.49182 0.37636 0.97726 0.0
H1262 H 0.55261 0.43226 0.91743 0.0
H1263 H 0.53914 0.40232 0.07223 0.0
H1264 H 0.53229 0.37564 0.12605 0.0
H1265 H 0.58538 0.37897 0.08724 0.0
H1266 H 0.59239 0.40548 0.03258 0.0
H1267 H 0.62998 0.52097 0.99936 0.0
H1268 H 0.59928 0.49152 0.98825 0.0
H1269 H 0.62739 0.45822 0.00558 0.0
H1270 H 0.65769 0.48753 0.02005 0.0
H1271 H 0.59683 0.44085 0.04883 0.0
H1272 H 0.61085 0.46775 0.89309 0.0
H1273 H 0.61872 0.49235 0.83204 0.0
H1274 H 0.56684 0.49292 0.86284 0.0
H1275 H 0.55877 0.46848 0.92449 0.0
C1276 C 0.52684 0.36796 0.93685 0.0
C1277 C 0.50825 0.36426 0.94762 0.0
C1278 C 0.54279 0.38573 0.94717 0.0
C1279 C 0.54047 0.40027 0.96764 0.0
C1280 C 0.52197 0.39674 0.97824 0.0
C1281 C 0.50597 0.37876 0.96887 0.0
C1282 C 0.55755 0.41913 0.97767 0.0
C1283 C 0.56216 0.43435 0.94663 0.0
C1284 C 0.57027 0.42151 0.01468 0.0
C1285 C 0.56619 0.40575 0.04798 0.0
C1286 C 0.54926 0.39724 0.07484 0.0
C1287 C 0.54537 0.38218 0.10557 0.0
C1288 C 0.55837 0.37558 0.10997 0.0
C1289 C 0.57532 0.38408 0.08376 0.0
C1290 C 0.57926 0.39914 0.05293 0.0
C1291 C 0.62956 0.50734 1.00047 0.0
C1292 C 0.64621 0.50652 0.01035 0.0
C1293 C 0.612 0.49047 0.99387 0.0
C1294 C 0.61089 0.47247 0.99524 0.0
C1295 C 0.62768 0.4718 0.0045 0.0
C1296 C 0.64507 0.48858 0.0125 0.0
C1297 C 0.59229 0.4543 0.9882 0.0
C1298 C 0.58733 0.43906 0.01975 0.0
C1299 C 0.57951 0.45177 0.9508 0.0
C1300 C 0.58432 0.46645 0.91375 0.0
C1301 C 0.60119 0.47322 0.88706 0.0
C1302 C 0.60568 0.48712 0.85232 0.0
C1303 C 0.59332 0.49424 0.84367 0.0
C1304 C 0.57641 0.48743 0.86964 0.0
C1305 C 0.57187 0.47354 0.90446 0.0
H1306 H 0.59682 0.505 0.81676 0.0
H1307 H 0.55533 0.36391 0.13376 0.0
H1308 H 0.2492 0.43635 0.62052 0.0
H1309 H 0.22649 0.43207 0.6829 0.0
H1310 H 0.24969 0.40461 0.76991 0.0
H1311 H 0.27186 0.40803 0.70614 0.0
H1312 H 0.21246 0.38938 0.78753 0.0
H1313 H 0.26627 0.45372 0.77909 0.0
H1314 H 0.28836 0.48427 0.73993 0.0
H1315 H 0.2412 0.49254 0.70488 0.0
H1316 H 0.21881 0.46209 0.74392 0.0
H1317 H 0.20123 0.45072 0.98704 0.0
H1318 H 0.21858 0.44532 0.92432 0.0
H1319 H 0.16533 0.40031 0.86766 0.0
H1320 H 0.14777 0.40537 0.93165 0.0
H1321 H 0.21758 0.45095 0.83549 0.0
H1322 H 0.17446 0.36923 0.80307 0.0
H1323 H 0.15473 0.33948 0.84782 0.0
H1324 H 0.18489 0.36704 0.97496 0.0
H1325 H 0.20497 0.39684 0.93086 0.0
C1326 C 0.24911 0.42897 0.65254 0.0
C1327 C 0.26231 0.42261 0.65877 0.0
C1328 C 0.23622 0.42663 0.68829 0.0
C1329 C 0.23674 0.41852 0.73171 0.0
C1330 C 0.24908 0.41101 0.73685 0.0
C1331 C 0.26172 0.41294 0.70046 0.0
C1332 C 0.22573 0.41954 0.77275 0.0
C1333 C 0.21353 0.40282 0.798 0.0
C1334 C 0.22736 0.43714 0.78712 0.0
C1335 C 0.24085 0.45557 0.76413 0.0
C1336 C 0.26061 0.46203 0.76288 0.0
C1337 C 0.27318 0.47931 0.74071 0.0
C1338 C 0.26618 0.49026 0.71973 0.0
C1339 C 0.2466 0.48402 0.72109 0.0
C1340 C 0.23397 0.46679 0.74337 0.0
C1341 C 0.19316 0.43949 0.96162 0.0
C1342 C 0.17307 0.42853 0.96426 0.0
C1343 C 0.20313 0.43645 0.92562 0.0
C1344 C 0.19333 0.42245 0.89102 0.0
C1345 C 0.17328 0.41106 0.8942 0.0
C1346 C 0.16324 0.41397 0.93075 0.0
C1347 C 0.20419 0.42078 0.85047 0.0
C1348 C 0.21639 0.43744 0.82512 0.0
C1349 C 0.20287 0.40324 0.83695 0.0
C1350 C 0.19106 0.38532 0.86371 0.0
C1351 C 0.17692 0.36891 0.84054 0.0
C1352 C 0.16567 0.35204 0.8658 0.0
C1353 C 0.16851 0.35139 0.91423 0.0
C1354 C 0.18266 0.36758 0.93748 0.0
C1355 C 0.19396 0.38447 0.91237 0.0
H1356 H 0.15978 0.33833 0.93373 0.0
H1357 H 0.27594 0.50364 0.70263 0.0
H1358 H 0.75784 0.15103 0.1139 0.0
H1359 H 0.77982 0.16929 0.04946 0.0
H1360 H 0.76132 0.21098 0.05788 0.0
H1361 H 0.73964 0.19317 0.12175 0.0
H1362 H 0.76145 0.1992 0.96674 0.0
H1363 H 0.80342 0.22021 0.10398 0.0
H1364 H 0.81892 0.21481 0.17261 0.0
H1365 H 0.84431 0.19086 0.08203 0.0
H1366 H 0.82872 0.19588 0.0129 0.0
H1367 H 0.82454 0.28269 0.854 0.0
H1368 H 0.80653 0.25886 0.9135 0.0
H1369 H 0.83924 0.23089 0.88533 0.0
H1370 H 0.85822 0.25554 0.82648 0.0
H1371 H 0.83218 0.23021 0.9784 0.0
H1372 H 0.79389 0.21297 0.83977 0.0
H1373 H 0.77885 0.21862 0.77058 0.0
H1374 H 0.74617 0.23412 0.86162 0.0
H1375 H 0.76123 0.22885 0.93138 0.0
C1376 C 0.75849 0.16411 0.10208 0.0
C1377 C 0.74682 0.17051 0.12299 0.0
C1378 C 0.77109 0.17454 0.06531 0.0
C1379 C 0.77218 0.19149 0.04878 0.0
C1380 C 0.76064 0.19789 0.06979 0.0
C1381 C 0.74823 0.18763 0.10652 0.0
C1382 C 0.78509 0.20273 0.00938 0.0
C1383 C 0.77692 0.20601 0.96932 0.0
C1384 C 0.80524 0.21104 0.01192 0.0
C1385 C 0.81473 0.20821 0.05339 0.0
C1386 C 0.81219 0.21365 0.09876 0.0
C1387 C 0.82101 0.21068 0.13773 0.0
C1388 C 0.83254 0.20243 0.13171 0.0
C1389 C 0.83533 0.1972 0.08666 0.0
C1390 C 0.82652 0.20012 0.04757 0.0
C1391 C 0.82817 0.27167 0.86054 0.0
C1392 C 0.84285 0.27107 0.83509 0.0
C1393 C 0.81768 0.25789 0.89452 0.0
C1394 C 0.82114 0.24274 0.90314 0.0
C1395 C 0.8362 0.24235 0.87905 0.0
C1396 C 0.84701 0.25644 0.84536 0.0
C1397 C 0.80854 0.22727 0.93655 0.0
C1398 C 0.81672 0.22312 0.97531 0.0
C1399 C 0.78832 0.21796 0.93269 0.0
C1400 C 0.77876 0.22058 0.89084 0.0
C1401 C 0.78354 0.21764 0.84505 0.0
C1402 C 0.77502 0.22078 0.80572 0.0
C1403 C 0.76158 0.22675 0.8117 0.0
C1404 C 0.75658 0.22949 0.85705 0.0
C1405 C 0.76507 0.22639 0.8965 0.0
H1406 H 0.75504 0.22923 0.78121 0.0
H1407 H 0.83935 0.20014 0.16192 0.0
H1408 H 0.60649 0.75315 0.29218 0.0
H1409 H 0.61277 0.77639 0.22888 0.0
H1410 H 0.55208 0.75326 0.21046 0.0
H1411 H 0.54565 0.73062 0.27404 0.0
H1412 H 0.57454 0.7575 0.12438 0.0
H1413 H 0.57273 0.79169 0.26414 0.0
H1414 H 0.58374 0.80575 0.34313 0.0
H1415 H 0.6405 0.84175 0.28917 0.0
H1416 H 0.62987 0.82765 0.20993 0.0
H1417 H 0.55154 0.81634 0.99674 0.0
H1418 H 0.5557 0.79738 0.05685 0.0
H1419 H 0.61592 0.83886 0.06537 0.0
H1420 H 0.61182 0.85843 0.00512 0.0
H1421 H 0.60058 0.82688 0.1528 0.0
H1422 H 0.60144 0.79652 0.01028 0.0
H1423 H 0.59095 0.7823 0.93133 0.0
H1424 H 0.53748 0.73888 0.98889 0.0
H1425 H 0.54751 0.75303 0.06813 0.0
C1426 C 0.59448 0.75302 0.27467 0.0
C1427 C 0.57554 0.73982 0.28804 0.0
C1428 C 0.59811 0.76633 0.2386 0.0
C1429 C 0.58287 0.76644 0.21489 0.0
C1430 C 0.56403 0.75331 0.22811 0.0
C1431 C 0.5604 0.74033 0.26456 0.0
C1432 C 0.58621 0.78005 0.17599 0.0
C1433 C 0.58022 0.77267 0.13048 0.0
C1434 C 0.59422 0.79992 0.18381 0.0
C1435 C 0.60058 0.80843 0.23131 0.0
C1436 C 0.58761 0.80245 0.26923 0.0
C1437 C 0.59377 0.81046 0.31402 0.0
C1438 C 0.61283 0.82458 0.3212 0.0
C1439 C 0.62575 0.83077 0.28357 0.0
C1440 C 0.61967 0.82278 0.23872 0.0
C1441 C 0.56574 0.82158 0.01116 0.0
C1442 C 0.58137 0.83899 0.99577 0.0
C1443 C 0.5681 0.81058 0.04553 0.0
C1444 C 0.58618 0.81648 0.06516 0.0
C1445 C 0.60184 0.83396 0.05054 0.0
C1446 C 0.59948 0.8451 0.01601 0.0
C1447 C 0.58831 0.80423 0.10118 0.0
C1448 C 0.59531 0.81181 0.14621 0.0
C1449 C 0.58135 0.7845 0.09286 0.0
C1450 C 0.57521 0.77591 0.04519 0.0
C1451 C 0.58739 0.78402 0.00608 0.0
C1452 C 0.58152 0.77596 0.96125 0.0
C1453 C 0.56356 0.75969 0.95508 0.0
C1454 C 0.55141 0.75147 0.99373 0.0
C1455 C 0.55718 0.7595 0.03863 0.0
H1456 H 0.55905 0.75342 0.92039 0.0
H1457 H 0.61757 0.83077 0.3559 0.0
H1458 H 0.86612 0.60468 0.42245 0.0
H1459 H 0.84837 0.6094 0.35842 0.0
H1460 H 0.79515 0.56607 0.41917 0.0
H1461 H 0.81267 0.56101 0.48201 0.0
H1462 H 0.79548 0.55895 0.33064 0.0
H1463 H 0.80964 0.61473 0.42138 0.0
H1464 H 0.83045 0.64507 0.46282 0.0
H1465 H 0.85989 0.67034 0.33333 0.0
H1466 H 0.83943 0.64004 0.29123 0.0
H1467 H 0.74161 0.60128 0.19702 0.0
H1468 H 0.76391 0.60515 0.26087 0.0
H1469 H 0.78616 0.57609 0.17642 0.0
H1470 H 0.76334 0.57139 0.114 0.0
H1471 H 0.80128 0.62023 0.27749 0.0
H1472 H 0.7937 0.5466 0.23994 0.0
H1473 H 0.77092 0.51584 0.20266 0.0
H1474 H 0.72433 0.52521 0.23635 0.0
H1475 H 0.74681 0.55607 0.27374 0.0
C1476 C 0.85062 0.59641 0.42248 0.0
C1477 C 0.84083 0.58239 0.45714 0.0
C1478 C 0.84048 0.59912 0.38589 0.0
C1479 C 0.82037 0.58805 0.3838 0.0
C1480 C 0.81063 0.57466 0.41962 0.0
C1481 C 0.8207 0.57182 0.45569 0.0
C1482 C 0.80936 0.58935 0.34311 0.0
C1483 C 0.79682 0.5724 0.31913 0.0
C1484 C 0.81088 0.60681 0.32809 0.0
C1485 C 0.82313 0.62506 0.35325 0.0
C1486 C 0.82065 0.62671 0.40181 0.0
C1487 C 0.83236 0.64391 0.42541 0.0
C1488 C 0.84652 0.65961 0.40075 0.0
C1489 C 0.84894 0.65816 0.3524 0.0
C1490 C 0.83728 0.64098 0.32864 0.0
C1491 C 0.75156 0.5961 0.1919 0.0
C1492 C 0.75067 0.58587 0.15095 0.0
C1493 C 0.76428 0.59829 0.22834 0.0
C1494 C 0.7764 0.59049 0.22398 0.0
C1495 C 0.77661 0.58177 0.18123 0.0
C1496 C 0.76364 0.57918 0.14546 0.0
C1497 C 0.78753 0.58985 0.26522 0.0
C1498 C 0.80006 0.60685 0.2891 0.0
C1499 C 0.78572 0.57235 0.28103 0.0
C1500 C 0.77197 0.5537 0.25934 0.0
C1501 C 0.77859 0.54207 0.2395 0.0
C1502 C 0.76573 0.52467 0.21821 0.0
C1503 C 0.7462 0.51865 0.21692 0.0
C1504 C 0.73947 0.53 0.23705 0.0
C1505 C 0.75227 0.54745 0.25824 0.0
H1506 H 0.73627 0.50516 0.20051 0.0
H1507 H 0.85557 0.67291 0.41908 0.0
H1508 H 0.19398 0.74045 0.32461 0.0
H1509 H 0.20983 0.76316 0.38832 0.0
H1510 H 0.16575 0.77854 0.3861 0.0
H1511 H 0.14928 0.7553 0.32233 0.0
H1512 H 0.21155 0.81069 0.39356 0.0
H1513 H 0.15799 0.75464 0.46641 0.0
H1514 H 0.13792 0.71962 0.47437 0.0
H1515 H 0.18722 0.71583 0.51513 0.0
H1516 H 0.20764 0.75081 0.50665 0.0
H1517 H 0.25562 0.85959 0.61052 0.0
H1518 H 0.23109 0.8422 0.55009 0.0
H1519 H 0.24305 0.79572 0.55706 0.0
H1520 H 0.26644 0.81225 0.61819 0.0
H1521 H 0.2074 0.78095 0.54948 0.0
H1522 H 0.26133 0.83248 0.46824 0.0
H1523 H 0.285 0.86625 0.45205 0.0
H1524 H 0.23961 0.87781 0.42089 0.0
H1525 H 0.21565 0.84412 0.43749 0.0
C1526 C 0.18755 0.74862 0.33728 0.0
C1527 C 0.17011 0.74576 0.3186 0.0
C1528 C 0.19676 0.76172 0.37362 0.0
C1529 C 0.18895 0.77248 0.39187 0.0
C1530 C 0.17201 0.77037 0.37226 0.0
C1531 C 0.16259 0.75702 0.33604 0.0
C1532 C 0.19797 0.78465 0.43391 0.0
C1533 C 0.2103 0.80437 0.42808 0.0
C1534 C 0.19674 0.77623 0.47839 0.0
C1535 C 0.18434 0.75533 0.48571 0.0
C1536 C 0.16455 0.74633 0.47693 0.0
C1537 C 0.15312 0.72649 0.48151 0.0
C1538 C 0.16129 0.71551 0.4952 0.0
C1539 C 0.18091 0.72436 0.50457 0.0
C1540 C 0.19241 0.7442 0.49996 0.0
C1541 C 0.25288 0.8456 0.59936 0.0
C1542 C 0.26325 0.8375 0.61905 0.0
C1543 C 0.23891 0.83569 0.56459 0.0
C1544 C 0.2353 0.81767 0.54835 0.0
C1545 C 0.2454 0.80952 0.56882 0.0
C1546 C 0.25901 0.81917 0.60377 0.0
C1547 C 0.2215 0.80717 0.50938 0.0
C1548 C 0.20829 0.78759 0.51561 0.0
C1549 C 0.22234 0.81569 0.46499 0.0
C1550 C 0.23671 0.83587 0.45469 0.0
C1551 C 0.2564 0.84226 0.45824 0.0
C1552 C 0.26987 0.86138 0.44896 0.0
C1553 C 0.26381 0.87419 0.43562 0.0
C1554 C 0.24428 0.86789 0.43135 0.0
C1555 C 0.23075 0.84879 0.44069 0.0
H1556 H 0.27426 0.88899 0.42846 0.0
H1557 H 0.15243 0.70014 0.49855 0.0
H1558 H 0.45687 0.25855 0.80673 0.0
H1559 H 0.44929 0.23474 0.74527 0.0
H1560 H 0.39806 0.23648 0.71087 0.0
H1561 H 0.40561 0.26056 0.77261 0.0
H1562 H 0.41987 0.19911 0.72601 0.0
H1563 H 0.39458 0.23407 0.58844 0.0
H1564 H 0.39785 0.26556 0.57108 0.0
H1565 H 0.45256 0.29361 0.6402 0.0
H1566 H 0.44974 0.26232 0.65728 0.0
H1567 H 0.40248 0.14321 0.5156 0.0
H1568 H 0.39606 0.16008 0.57904 0.0
H1569 H 0.4463 0.21285 0.53883 0.0
H1570 H 0.45254 0.19642 0.47567 0.0
H1571 H 0.41887 0.21991 0.5619 0.0
H1572 H 0.44705 0.18403 0.62806 0.0
H1573 H 0.44802 0.15456 0.64553 0.0
H1574 H 0.39449 0.13159 0.71919 0.0
H1575 H 0.39308 0.16084 0.7017 0.0
C1576 C 0.44387 0.2538 0.78651 0.0
C1577 C 0.43195 0.26167 0.79439 0.0
C1578 C 0.43949 0.24004 0.75151 0.0
C1579 C 0.42317 0.23388 0.72324 0.0
C1580 C 0.4108 0.24111 0.7321 0.0
C1581 C 0.41513 0.25486 0.76743 0.0
C1582 C 0.42018 0.22111 0.68234 0.0
C1583 C 0.41934 0.20351 0.69014 0.0
C1584 C 0.41978 0.22695 0.63548 0.0
C1585 C 0.4218 0.24585 0.62467 0.0
C1586 C 0.40732 0.24697 0.59979 0.0
C1587 C 0.4091 0.26478 0.59 0.0
C1588 C 0.42537 0.28157 0.60471 0.0
C1589 C 0.43994 0.28059 0.629 0.0
C1590 C 0.43824 0.26283 0.63876 0.0
C1591 C 0.41194 0.15846 0.51987 0.0
C1592 C 0.42812 0.16838 0.49076 0.0
C1593 C 0.40832 0.16807 0.55625 0.0
C1594 C 0.42082 0.18773 0.56406 0.0
C1595 C 0.43641 0.19772 0.5336 0.0
C1596 C 0.44003 0.18821 0.49753 0.0
C1597 C 0.41876 0.19795 0.60543 0.0
C1598 C 0.41874 0.21516 0.59777 0.0
C1599 C 0.4189 0.192 0.65235 0.0
C1600 C 0.41984 0.1745 0.6631 0.0
C1601 C 0.43542 0.17264 0.6477 0.0
C1602 C 0.43607 0.15599 0.65762 0.0
C1603 C 0.4213 0.14119 0.68327 0.0
C1604 C 0.40589 0.14304 0.69921 0.0
C1605 C 0.40516 0.15965 0.68933 0.0
H1606 H 0.42183 0.12832 0.6909 0.0
H1607 H 0.42671 0.29534 0.59716 0.0
H1608 H 0.09181 0.42522 0.90772 0.0
H1609 H 0.05946 0.4083 0.874 0.0
H1610 H 0.04066 0.36788 0.98875 0.0
H1611 H 0.07279 0.38458 0.02251 0.0
H1612 H 0.02816 0.34997 0.9041 0.0
H1613 H 0.02926 0.40288 0.98605 0.0
H1614 H 0.04194 0.43696 0.00499 0.0
H1615 H 0.03333 0.44797 0.86152 0.0
H1616 H 0.02085 0.41399 0.84155 0.0
H1617 H 0.928 0.30346 0.87791 0.0
H1618 H 0.96044 0.32269 0.90887 0.0
H1619 H 0.97419 0.36325 0.79579 0.0
H1620 H 0.94157 0.34428 0.76516 0.0
H1621 H 0.98995 0.38179 0.87558 0.0
H1622 H 0.98837 0.32933 0.79308 0.0
H1623 H 0.9761 0.29547 0.77244 0.0
H1624 H 0.98633 0.28389 0.91402 0.0
H1625 H 0.9984 0.31764 0.93571 0.0
C1626 C 0.08079 0.41272 0.92576 0.0
C1627 C 0.08495 0.4063 0.96789 0.0
C1628 C 0.06227 0.4031 0.90654 0.0
C1629 C 0.04755 0.38685 0.92897 0.0
C1630 C 0.05174 0.38035 0.97075 0.0
C1631 C 0.07016 0.39 0.99011 0.0
C1632 C 0.02779 0.37642 0.90898 0.0
C1633 C 0.01974 0.35689 0.89837 0.0
C1634 C 0.01694 0.38553 0.90017 0.0
C1635 C 0.02431 0.40593 0.91219 0.0
C1636 C 0.03021 0.4126 0.95845 0.0
C1637 C 0.03734 0.43189 0.96939 0.0
C1638 C 0.03849 0.44464 0.93445 0.0
C1639 C 0.03246 0.43809 0.88853 0.0
C1640 C 0.02535 0.41881 0.87738 0.0
C1641 C 0.93786 0.31653 0.85971 0.0
C1642 C 0.93214 0.32222 0.81882 0.0
C1643 C 0.95648 0.32749 0.87737 0.0
C1644 C 0.96997 0.34429 0.85423 0.0
C1645 C 0.96413 0.35034 0.81424 0.0
C1646 C 0.94544 0.33943 0.7967 0.0
C1647 C 0.99021 0.35524 0.87122 0.0
C1648 C 0.99838 0.37487 0.88116 0.0
C1649 C 1.00125 0.34626 0.87913 0.0
C1650 C 0.99413 0.32598 0.86612 0.0
C1651 C 0.98788 0.31953 0.8199 0.0
C1652 C 0.98098 0.30036 0.808 0.0
C1653 C 0.98039 0.28753 0.84192 0.0
C1654 C 0.98677 0.29385 0.88779 0.0
C1655 C 0.99366 0.313 0.8999 0.0
H1656 H 0.97504 0.27269 0.83264 0.0
H1657 H 0.04402 0.45957 0.94299 0.0
H1658 H 0.60294 0.91954 0.05924 0.0
H1659 H 0.61919 0.95199 0.09164 0.0
H1660 H 0.63858 0.9749 0.95211 0.0
H1661 H 0.62313 0.94249 0.92001 0.0
H1662 H 0.66613 0.99387 0.00845 0.0
H1663 H 0.59994 0.97575 0.0125 0.0
H1664 H 0.56572 0.95546 0.03182 0.0
H1665 H 0.57909 0.96257 0.17966 0.0
H1666 H 0.61345 0.98267 0.16121 0.0
H1667 H 0.68861 0.08995 0.06344 0.0
H1668 H 0.67217 0.05722 0.03199 0.0
H1669 H 0.6679 0.0349 0.17231 0.0
H1670 H 0.68467 0.06753 0.20392 0.0
H1671 H 0.63271 0.01616 0.11607 0.0
H1672 H 0.69974 0.03499 0.10771 0.0
H1673 H 0.73339 0.05617 0.08456 0.0
H1674 H 0.71701 0.04883 0.93858 0.0
H1675 H 0.6832 0.02782 0.96094 0.0
C1676 C 0.61067 0.9315 0.03549 0.0
C1677 C 0.6117 0.92839 0.98703 0.0
C1678 C 0.61988 0.9501 0.05401 0.0
C1679 C 0.62991 0.96608 0.02433 0.0
C1680 C 0.63099 0.96293 0.97593 0.0
C1681 C 0.62209 0.94434 0.95754 0.0
C1682 C 0.63946 0.98603 0.04357 0.0
C1683 C 0.65865 0.99874 0.03143 0.0
C1684 C 0.62995 0.99253 0.0742 0.0
C1685 C 0.60929 0.98056 0.08545 0.0
C1686 C 0.5956 0.97288 0.04913 0.0
C1687 C 0.57618 0.96143 0.05992 0.0
C1688 C 0.57024 0.95769 0.10693 0.0
C1689 C 0.58371 0.96545 0.14326 0.0
C1690 C 0.60316 0.97689 0.13265 0.0
C1691 C 0.68418 0.07808 0.08761 0.0
C1692 C 0.68804 0.08137 0.13616 0.0
C1693 C 0.6748 0.05939 0.06957 0.0
C1694 C 0.66884 0.04362 0.09981 0.0
C1695 C 0.67236 0.04685 0.14837 0.0
C1696 C 0.68203 0.06552 0.16631 0.0
C1697 C 0.65918 0.02378 0.08073 0.0
C1698 C 0.64004 0.01117 0.09297 0.0
C1699 C 0.66859 0.01747 0.04953 0.0
C1700 C 0.68892 0.03001 0.03603 0.0
C1701 C 0.70329 0.03804 0.0707 0.0
C1702 C 0.7224 0.04998 0.05772 0.0
C1703 C 0.72733 0.05389 0.01013 0.0
C1704 C 0.71317 0.04581 0.97543 0.0
C1705 C 0.69403 0.03388 0.98823 0.0
H1706 H 0.74213 0.06313 1.00015 0.0
H1707 H 0.55519 0.94881 0.11522 0.0
H1708 H 0.67251 0.58764 0.20905 0.0
H1709 H 0.6568 0.60433 0.24259 0.0
H1710 H 0.67646 0.64349 0.12515 0.0
H1711 H 0.69215 0.62698 0.09148 0.0
H1712 H 0.68229 0.66215 0.20946 0.0
H1713 H 0.63056 0.60807 0.1308 0.0
H1714 H 0.60959 0.57378 0.11345 0.0
H1715 H 0.59123 0.56343 0.25797 0.0
H1716 H 0.61232 0.59765 0.27633 0.0
H1717 H 0.62713 0.707 0.23978 0.0
H1718 H 0.64076 0.6883 0.20761 0.0
H1719 H 0.61535 0.64762 0.32103 0.0
H1720 H 0.60124 0.66602 0.3528 0.0
H1721 H 0.61251 0.62918 0.24178 0.0
H1722 H 0.66339 0.68257 0.32148 0.0
H1723 H 0.68457 0.71662 0.34105 0.0
H1724 H 0.70509 0.72798 0.1983 0.0
H1725 H 0.6838 0.69404 0.17769 0.0
C1726 C 0.6735 0.59981 0.19036 0.0
C1727 C 0.6836 0.60593 0.14751 0.0
C1728 C 0.66444 0.60929 0.2095 0.0
C1729 C 0.66534 0.62512 0.18626 0.0
C1730 C 0.67556 0.63134 0.14375 0.0
C1731 C 0.68448 0.62181 0.12446 0.0
C1732 C 0.6558 0.63536 0.2062 0.0
C1733 C 0.667 0.65499 0.216 0.0
C1734 C 0.63592 0.62593 0.21608 0.0
C1735 C 0.62317 0.60538 0.20504 0.0
C1736 C 0.62217 0.59846 0.15897 0.0
C1737 C 0.61025 0.57904 0.14893 0.0
C1738 C 0.59913 0.56643 0.18462 0.0
C1739 C 0.59988 0.57322 0.23038 0.0
C1740 C 0.6118 0.59262 0.24062 0.0
C1741 C 0.62431 0.69401 0.25778 0.0
C1742 C 0.61316 0.68811 0.29908 0.0
C1743 C 0.63222 0.68336 0.23944 0.0
C1744 C 0.62944 0.6667 0.26234 0.0
C1745 C 0.6178 0.66043 0.30275 0.0
C1746 C 0.60974 0.67101 0.32092 0.0
C1747 C 0.63898 0.65607 0.24463 0.0
C1748 C 0.62781 0.63637 0.23536 0.0
C1749 C 0.65894 0.66539 0.23561 0.0
C1750 C 0.67186 0.68579 0.24794 0.0
C1751 C 0.67232 0.69236 0.29418 0.0
C1752 C 0.68436 0.71163 0.30547 0.0
C1753 C 0.69614 0.72446 0.27091 0.0
C1754 C 0.69594 0.71803 0.22502 0.0
C1755 C 0.6839 0.69877 0.21352 0.0
H1756 H 0.70545 0.73938 0.27972 0.0
H1757 H 0.5899 0.5514 0.17678 0.0
H1758 H 0.0682 0.67914 0.24185 0.0
H1759 H 0.03567 0.66188 0.27305 0.0
H1760 H 0.05804 0.66601 0.4135 0.0
H1761 H 0.09072 0.68268 0.38205 0.0
H1762 H 0.02861 0.6323 0.40334 0.0
H1763 H 0.03952 0.69519 0.37214 0.0
H1764 H 0.04867 0.72415 0.32489 0.0
H1765 H 1.00338 0.69116 0.22681 0.0
H1766 H 0.99412 0.66193 0.27314 0.0
H1767 H 0.94327 0.61318 0.52543 0.0
H1768 H 0.97563 0.62886 0.49253 0.0
H1769 H 0.95223 0.61398 0.35211 0.0
H1770 H 0.91969 0.598 0.38483 0.0
H1771 H 0.98173 0.65281 0.36218 0.0
H1772 H 0.97079 0.58983 0.39778 0.0
H1773 H 0.96181 0.56186 0.44883 0.0
H1774 H 0.00763 0.59677 0.54387 0.0
H1775 H 0.01671 0.62502 0.49373 0.0
C1776 C 0.06624 0.67643 0.27943 0.0
C1777 C 0.08212 0.68246 0.30949 0.0
C1778 C 0.04756 0.6666 0.29733 0.0
C1779 C 0.04425 0.66291 0.34591 0.0
C1780 C 0.06011 0.66869 0.37593 0.0
C1781 C 0.07883 0.6783 0.35792 0.0
C1782 C 0.0243 0.65296 0.36524 0.0
C1783 C 0.01849 0.637 0.39477 0.0
C1784 C 0.01081 0.65876 0.35365 0.0
C1785 C 0.01625 0.67634 0.32588 0.0
C1786 C 0.03159 0.69409 0.34033 0.0
C1787 C 0.03679 0.71055 0.31373 0.0
C1788 C 0.02665 0.70949 0.2728 0.0
C1789 C 0.01124 0.69196 0.25848 0.0
C1790 C 1.006 0.67544 0.28492 0.0
C1791 C 0.94496 0.61318 0.48751 0.0
C1792 C 0.92883 0.60429 0.45777 0.0
C1793 C 0.9635 0.62212 0.46878 0.0
C1794 C 0.96639 0.62254 0.41985 0.0
C1795 C 0.95035 0.61382 0.38998 0.0
C1796 C 0.93176 0.60463 0.40875 0.0
C1797 C 0.98617 0.63225 0.40005 0.0
C1798 C 0.99191 0.64817 0.37056 0.0
C1799 C 0.99965 0.62658 0.41222 0.0
C1800 C 0.99432 0.60958 0.44221 0.0
C1801 C 0.97886 0.59158 0.42976 0.0
C1802 C 0.97377 0.57567 0.4585 0.0
C1803 C 0.98411 0.57755 0.49963 0.0
C1804 C 0.99961 0.59533 0.51203 0.0
C1805 C 1.00475 0.6113 0.48344 0.0
H1806 H 0.98015 0.56521 0.52184 0.0
H1807 H 0.0307 0.72225 0.25225 0.0
H1808 H 0.41241 0.08819 0.55631 0.0
H1809 H 0.39635 0.05537 0.58615 0.0
H1810 H 0.38221 0.03389 0.44374 0.0
H1811 H 0.3976 0.06665 0.41391 0.0
H1812 H 0.35288 0.01362 0.49547 0.0
H1813 H 0.41926 0.03348 0.51147 0.0
H1814 H 0.45272 0.05428 0.53665 0.0
H1815 H 0.43509 0.0454 0.68175 0.0
H1816 H 0.40147 0.02476 0.65741 0.0
H1817 H 0.32818 0.91734 0.55178 0.0
H1818 H 0.34508 0.95009 0.52081 0.0
H1819 H 0.35032 0.97231 0.66173 0.0
H1820 H 0.33335 0.9397 0.69291 0.0
H1821 H 0.38437 0.99169 0.60998 0.0
H1822 H 0.31745 0.97155 0.5907 0.0
H1823 H 0.28452 0.94999 0.5629 0.0
H1824 H 0.30438 0.9586 0.41959 0.0
H1825 H 0.33749 0.98001 0.44662 0.0
C1826 C 0.40592 0.07649 0.53132 0.0
C1827 C 0.40636 0.08012 0.48268 0.0
C1828 C 0.3968 0.05766 0.54843 0.0
C1829 C 0.38824 0.04198 0.51727 0.0
C1830 C 0.38864 0.04563 0.46868 0.0
C1831 C 0.39753 0.06443 0.45161 0.0
C1832 C 0.37866 0.02181 0.53518 0.0
C1833 C 0.35995 0.00883 0.51996 0.0
C1834 C 0.3876 0.0154 0.56779 0.0
C1835 C 0.40782 0.02772 0.58258 0.0
C1836 C 0.4225 0.03607 0.54874 0.0
C1837 C 0.4415 0.04782 0.56286 0.0
C1838 C 0.44602 0.0512 0.61077 0.0
C1839 C 0.43156 0.04279 0.64466 0.0
C1840 C 0.41253 0.03105 0.63072 0.0
C1841 C 0.33294 0.92918 0.57621 0.0
C1842 C 0.32929 0.92583 0.62484 0.0
C1843 C 0.34257 0.94792 0.55843 0.0
C1844 C 0.3489 0.96371 0.5889 0.0
C1845 C 0.3456 0.9604 0.63751 0.0
C1846 C 0.33579 0.9417 0.65525 0.0
C1847 C 0.35873 0.98367 0.5702 0.0
C1848 C 0.37743 0.99657 0.58533 0.0
C1849 C 0.34989 0.98993 0.53706 0.0
C1850 C 0.32997 0.97722 0.52073 0.0
C1851 C 0.31482 0.96873 0.55329 0.0
C1852 C 0.29612 0.95656 0.53767 0.0
C1853 C 0.29237 0.95289 0.48952 0.0
C1854 C 0.30731 0.96144 0.45688 0.0
C1855 C 0.32604 0.9736 0.47233 0.0
H1856 H 0.27788 0.94345 0.4775 0.0
H1857 H 0.46074 0.0603 0.62163 0.0
H1858 H 0.3499 0.42814 0.70028 0.0
H1859 H 0.36712 0.4127 0.73255 0.0
H1860 H 0.33144 0.36205 0.65102 0.0
H1861 H 0.31459 0.37756 0.6174 0.0
H1862 H 0.34014 0.36129 0.76536 0.0
H1863 H 0.36606 0.37904 0.60399 0.0
H1864 H 0.3808 0.40291 0.54045 0.0
H1865 H 0.42758 0.43891 0.63197 0.0
H1866 H 0.41291 0.41535 0.69632 0.0
H1867 H 0.38588 0.30708 0.80397 0.0
H1868 H 0.36814 0.32164 0.7708 0.0
H1869 H 0.42008 0.37662 0.7689 0.0
H1870 H 0.43801 0.36167 0.79826 0.0
H1871 H 0.40275 0.376 0.69736 0.0
H1872 H 0.38076 0.36054 0.8564 0.0
H1873 H 0.36729 0.34005 0.92661 0.0
H1874 H 0.31518 0.30419 0.85125 0.0
H1875 H 0.32845 0.32432 0.78037 0.0
C1876 C 0.34567 0.41369 0.68937 0.0
C1877 C 0.3309 0.40409 0.65621 0.0
C1878 C 0.35553 0.40491 0.7078 0.0
C1879 C 0.35054 0.38625 0.69414 0.0
C1880 C 0.3355 0.37646 0.66199 0.0
C1881 C 0.32594 0.38537 0.64272 0.0
C1882 C 0.36132 0.37712 0.71252 0.0
C1883 C 0.35373 0.36427 0.7503 0.0
C1884 C 0.37934 0.3816 0.69394 0.0
C1885 C 0.38828 0.39556 0.65506 0.0
C1886 C 0.37939 0.39213 0.61068 0.0
C1887 C 0.38775 0.40558 0.5745 0.0
C1888 C 0.40509 0.42244 0.58221 0.0
C1889 C 0.41413 0.42585 0.62607 0.0
C1890 C 0.40581 0.41246 0.66239 0.0
C1891 C 0.39348 0.32225 0.79616 0.0
C1892 C 0.41331 0.33324 0.8037 0.0
C1893 C 0.3833 0.33066 0.77764 0.0
C1894 C 0.39254 0.35046 0.76829 0.0
C1895 C 0.41245 0.36137 0.77561 0.0
C1896 C 0.42274 0.35282 0.79256 0.0
C1897 C 0.38161 0.35978 0.7506 0.0
C1898 C 0.38918 0.37282 0.71286 0.0
C1899 C 0.36377 0.35585 0.77023 0.0
C1900 C 0.35567 0.34384 0.81295 0.0
C1901 C 0.36647 0.34823 0.85473 0.0
C1902 C 0.35887 0.33668 0.89465 0.0
C1903 C 0.34041 0.3208 0.89335 0.0
C1904 C 0.32949 0.31648 0.85218 0.0
C1905 C 0.33703 0.32796 0.81214 0.0
H1906 H 0.33456 0.31187 0.92428 0.0
H1907 H 0.41154 0.43285 0.55417 0.0
loop_
_geom_bond_atom_site_label_1
_geom_bond_atom_site_label_2
_geom_bond_distance
_geom_bond_site_symmetry_2
_ccdc_geom_bond_type
Co0 O2 2.143 . S
Co0 O8 2.074 . S
Co0 O11 2.093 . S
Co0 O24 2.097 . S
Co0 N41 2.151 1_554 S
Co0 N49 2.214 . S
Co1 O2 2.160 . S
Co1 O7 2.058 1_554 S
Co1 O17 2.057 . S
Co1 O32 2.037 . S
Co1 N36 2.145 . S
Co1 N57 2.257 . S
O2 Co0 2.143 . S
O2 Co1 2.160 . S
C3 O4 1.278 . S
C3 O11 1.224 . S
O4 C3 1.278 . S
C5 O6 1.245 . S
C5 O17 1.232 1_556 S
O6 C5 1.245 . S
O7 Co1 2.058 1_556 S
O7 C33 1.269 . S
O8 Co0 2.074 . S
O8 C33 1.257 1_554 S
H9 C34 0.930 . S
H10 C40 0.930 1_554 S
O11 Co0 2.093 . S
O11 C3 1.224 . S
H12 C44 0.929 . S
H13 C46 0.930 . S
H14 C47 0.930 . S
H15 C45 0.929 . S
H16 C48 0.928 . S
O17 Co1 2.057 . S
O17 C5 1.232 1_554 S
H18 C37 0.929 . S
H19 C38 0.929 . S
H20 C50 0.931 . S
H21 C42 0.929 . S
H22 C51 0.930 . S
H23 C43 0.931 . S
O24 Co0 2.097 . S
O24 C52 1.214 . S
H25 C53 0.929 . S
H26 C54 0.929 . S
H27 C55 0.930 . S
H28 C56 0.929 . S
H29 C58 0.930 . S
H30 C35 0.930 . S
H31 C39 0.930 . S
O32 Co1 2.037 . S
O32 C52 1.234 . S
C33 O7 1.269 . S
C33 O8 1.257 1_556 S
C34 H9 0.930 . S
C34 C37 1.388 . S
C34 C39 1.418 . S
C35 H30 0.930 . S
C35 C38 1.404 . S
C35 C39 1.353 . S
N36 Co1 2.145 . S
N36 C37 1.397 . S
N36 C38 1.334 . S
C37 H18 0.929 . S
C37 C34 1.388 . S
C37 N36 1.397 . S
C38 H19 0.929 . S
C38 C35 1.404 . S
C38 N36 1.334 . S
C39 H31 0.930 . S
C39 C34 1.418 . S
C39 C35 1.353 . S
C40 H10 0.930 1_556 S
C40 N41 1.330 . S
C40 C42 1.446 . S
N41 Co0 2.151 1_556 S
N41 C40 1.330 . S
N41 C45 1.418 . S
C42 H21 0.929 . S
C42 C40 1.446 . S
C42 C43 1.332 . S
C43 H23 0.931 . S
C43 C42 1.332 . S
C43 C44 1.267 . S
C44 H12 0.929 . S
C44 C43 1.267 . S
C44 C45 1.251 . S
C45 H15 0.929 . S
C45 N41 1.418 . S
C45 C44 1.251 . S
C46 H13 0.930 . S
C46 C48 1.406 . S
C46 C51 1.261 . S
C47 H14 0.930 . S
C47 N49 1.325 . S
C47 C50 1.357 . S
C48 H16 0.928 . S
C48 C46 1.406 . S
C48 N49 1.261 . S
N49 Co0 2.214 . S
N49 C47 1.325 . S
N49 C48 1.261 . S
C50 H20 0.931 . S
C50 C47 1.357 . S
C50 C51 1.312 . S
C51 H22 0.930 . S
C51 C46 1.261 . S
C51 C50 1.312 . S
C52 O24 1.214 . S
C52 O32 1.234 . S
C53 H25 0.929 . S
C53 C56 1.391 . S
C53 C58 1.391 . S
C54 H26 0.929 . S
C54 C55 1.390 . S
C54 N57 1.391 . S
C55 H27 0.930 . S
C55 C54 1.390 . S
C55 C56 1.392 . S
C56 H28 0.929 . S
C56 C53 1.391 . S
C56 C55 1.392 . S
N57 Co1 2.257 . S
N57 C54 1.391 . S
N57 C58 1.388 . S
C58 H29 0.930 . S
C58 C53 1.391 . S
C58 N57 1.388 . S
Co59 O61 2.143 . S
Co59 O67 2.074 . S
Co59 O70 2.093 . S
Co59 O83 2.097 . S
Co59 N100 2.151 . S
Co59 N108 2.214 . S
Co60 O61 2.160 . S
Co60 O66 2.058 . S
Co60 O76 2.057 . S
Co60 O91 2.037 . S
Co60 N95 2.145 . S
Co60 N116 2.257 . S
O61 Co59 2.143 . S
O61 Co60 2.160 . S
C62 O63 1.278 . S
C62 O70 1.224 . S
O63 C62 1.278 . S
C64 O65 1.245 . S
C64 O76 1.232 . S
O65 C64 1.245 . S
O66 Co60 2.058 . S
O66 C92 1.269 . S
O67 Co59 2.074 . S
O67 C92 1.257 . S
H68 C93 0.930 . S
H69 C99 0.930 . S
O70 Co59 2.093 . S
O70 C62 1.224 . S
H71 C103 0.929 . S
H72 C105 0.930 . S
H73 C106 0.930 . S
H74 C104 0.929 . S
H75 C107 0.928 . S
O76 Co60 2.057 . S
O76 C64 1.232 . S
H77 C96 0.929 . S
H78 C97 0.929 . S
H79 C109 0.931 . S
H80 C101 0.929 . S
H81 C110 0.930 . S
H82 C102 0.931 . S
O83 Co59 2.097 . S
O83 C111 1.214 . S
H84 C112 0.929 . S
H85 C113 0.929 . S
H86 C114 0.930 . S
H87 C115 0.929 . S
H88 C117 0.930 . S
H89 C94 0.930 . S
H90 C98 0.930 . S
O91 Co60 2.037 . S
O91 C111 1.234 . S
C92 O66 1.269 . S
C92 O67 1.257 . S
C93 H68 0.930 . S
C93 C96 1.388 . S
C93 C98 1.418 . S
C94 H89 0.930 . S
C94 C97 1.404 . S
C94 C98 1.353 . S
N95 Co60 2.145 . S
N95 C96 1.397 . S
N95 C97 1.334 . S
C96 H77 0.929 . S
C96 C93 1.388 . S
C96 N95 1.397 . S
C97 H78 0.929 . S
C97 C94 1.404 . S
C97 N95 1.334 . S
C98 H90 0.930 . S
C98 C93 1.418 . S
C98 C94 1.353 . S
C99 H69 0.930 . S
C99 N100 1.330 . S
C99 C101 1.446 . S
N100 Co59 2.151 . S
N100 C99 1.330 . S
N100 C104 1.418 . S
C101 H80 0.929 . S
C101 C99 1.446 . S
C101 C102 1.332 . S
C102 H82 0.931 . S
C102 C101 1.332 . S
C102 C103 1.267 . S
C103 H71 0.929 . S
C103 C102 1.267 . S
C103 C104 1.251 . S
C104 H74 0.929 . S
C104 N100 1.418 . S
C104 C103 1.251 . S
C105 H72 0.930 . S
C105 C107 1.406 . S
C105 C110 1.261 . S
C106 H73 0.930 . S
C106 N108 1.325 . S
C106 C109 1.357 . S
C107 H75 0.928 . S
C107 C105 1.406 . S
C107 N108 1.261 . S
N108 Co59 2.214 . S
N108 C106 1.325 . S
N108 C107 1.261 . S
C109 H79 0.931 . S
C109 C106 1.357 . S
C109 C110 1.312 . S
C110 H81 0.930 . S
C110 C105 1.261 . S
C110 C109 1.312 . S
C111 O83 1.214 . S
C111 O91 1.234 . S
C112 H84 0.929 . S
C112 C115 1.391 . S
C112 C117 1.391 . S
C113 H85 0.929 . S
C113 C114 1.390 . S
C113 N116 1.391 . S
C114 H86 0.930 . S
C114 C113 1.390 . S
C114 C115 1.392 . S
C115 H87 0.929 . S
C115 C112 1.391 . S
C115 C114 1.392 . S
N116 Co60 2.257 . S
N116 C113 1.391 . S
N116 C117 1.388 . S
C117 H88 0.930 . S
C117 C112 1.391 . S
C117 N116 1.388 . S
Co118 O120 2.143 . S
Co118 O126 2.074 . S
Co118 O129 2.093 . S
Co118 O142 2.097 . S
Co118 N159 2.151 . S
Co118 N167 2.214 . S
Co119 O120 2.160 . S
Co119 O125 2.058 . S
Co119 O135 2.057 . S
Co119 O150 2.037 . S
Co119 N154 2.145 . S
Co119 N175 2.257 . S
O120 Co118 2.143 . S
O120 Co119 2.160 . S
C121 O122 1.278 . S
C121 O129 1.224 . S
O122 C121 1.278 . S
C123 O124 1.245 . S
C123 O135 1.232 . S
O124 C123 1.245 . S
O125 Co119 2.058 . S
O125 C151 1.269 . S
O126 Co118 2.074 . S
O126 C151 1.257 . S
H127 C152 0.930 . S
H128 C158 0.930 . S
O129 Co118 2.093 . S
O129 C121 1.224 . S
H130 C162 0.929 . S
H131 C164 0.930 . S
H132 C165 0.930 . S
H133 C163 0.929 . S
H134 C166 0.928 . S
O135 Co119 2.057 . S
O135 C123 1.232 . S
H136 C155 0.929 . S
H137 C156 0.929 . S
H138 C168 0.931 . S
H139 C160 0.929 . S
H140 C169 0.930 . S
H141 C161 0.931 . S
O142 Co118 2.097 . S
O142 C170 1.214 . S
H143 C171 0.929 . S
H144 C172 0.929 . S
H145 C173 0.930 . S
H146 C174 0.929 . S
H147 C176 0.930 . S
H148 C153 0.930 . S
H149 C157 0.930 . S
O150 Co119 2.037 . S
O150 C170 1.234 . S
C151 O125 1.269 . S
C151 O126 1.257 . S
C152 H127 0.930 . S
C152 C155 1.388 . S
C152 C157 1.418 . S
C153 H148 0.930 . S
C153 C156 1.404 . S
C153 C157 1.353 . S
N154 Co119 2.145 . S
N154 C155 1.397 . S
N154 C156 1.334 . S
C155 H136 0.929 . S
C155 C152 1.388 . S
C155 N154 1.397 . S
C156 H137 0.929 . S
C156 C153 1.404 . S
C156 N154 1.334 . S
C157 H149 0.930 . S
C157 C152 1.418 . S
C157 C153 1.353 . S
C158 H128 0.930 . S
C158 N159 1.330 . S
C158 C160 1.446 . S
N159 Co118 2.151 . S
N159 C158 1.330 . S
N159 C163 1.418 . S
C160 H139 0.929 . S
C160 C158 1.446 . S
C160 C161 1.332 . S
C161 H141 0.931 . S
C161 C160 1.332 . S
C161 C162 1.267 . S
C162 H130 0.929 . S
C162 C161 1.267 . S
C162 C163 1.251 . S
C163 H133 0.929 . S
C163 N159 1.418 . S
C163 C162 1.251 . S
C164 H131 0.930 . S
C164 C166 1.406 . S
C164 C169 1.261 . S
C165 H132 0.930 . S
C165 N167 1.325 . S
C165 C168 1.357 . S
C166 H134 0.928 . S
C166 C164 1.406 . S
C166 N167 1.261 . S
N167 Co118 2.214 . S
N167 C165 1.325 . S
N167 C166 1.261 . S
C168 H138 0.931 . S
C168 C165 1.357 . S
C168 C169 1.312 . S
C169 H140 0.930 . S
C169 C164 1.261 . S
C169 C168 1.312 . S
C170 O142 1.214 . S
C170 O150 1.234 . S
C171 H143 0.929 . S
C171 C174 1.391 . S
C171 C176 1.391 . S
C172 H144 0.929 . S
C172 C173 1.390 . S
C172 N175 1.391 . S
C173 H145 0.930 . S
C173 C172 1.390 . S
C173 C174 1.392 . S
C174 H146 0.929 . S
C174 C171 1.391 . S
C174 C173 1.392 . S
N175 Co119 2.257 . S
N175 C172 1.391 . S
N175 C176 1.388 . S
C176 H147 0.930 . S
C176 C171 1.391 . S
C176 N175 1.388 . S
Co177 O179 2.143 . S
Co177 O185 2.074 . S
Co177 O188 2.093 . S
Co177 O201 2.097 . S
Co177 N218 2.151 . S
Co177 N226 2.214 . S
Co178 O179 2.160 . S
Co178 O184 2.058 . S
Co178 O194 2.057 . S
Co178 O209 2.037 . S
Co178 N213 2.145 . S
Co178 N234 2.257 . S
O179 Co177 2.143 . S
O179 Co178 2.160 . S
C180 O181 1.278 . S
C180 O188 1.224 . S
O181 C180 1.278 . S
C182 O183 1.245 . S
C182 O194 1.232 . S
O183 C182 1.245 . S
O184 Co178 2.058 . S
O184 C210 1.269 . S
O185 Co177 2.074 . S
O185 C210 1.257 . S
H186 C211 0.930 . S
H187 C217 0.930 . S
O188 Co177 2.093 . S
O188 C180 1.224 . S
H189 C221 0.929 . S
H190 C223 0.930 . S
H191 C224 0.930 . S
H192 C222 0.929 . S
H193 C225 0.928 . S
O194 Co178 2.057 . S
O194 C182 1.232 . S
H195 C214 0.929 . S
H196 C215 0.929 . S
H197 C227 0.931 . S
H198 C219 0.929 . S
H199 C228 0.930 . S
H200 C220 0.931 . S
O201 Co177 2.097 . S
O201 C229 1.214 . S
H202 C230 0.929 . S
H203 C231 0.929 . S
H204 C232 0.930 . S
H205 C233 0.929 . S
H206 C235 0.930 . S
H207 C212 0.930 . S
H208 C216 0.930 . S
O209 Co178 2.037 . S
O209 C229 1.234 . S
C210 O184 1.269 . S
C210 O185 1.257 . S
C211 H186 0.930 . S
C211 C214 1.388 . S
C211 C216 1.418 . S
C212 H207 0.930 . S
C212 C215 1.404 . S
C212 C216 1.353 . S
N213 Co178 2.145 . S
N213 C214 1.397 . S
N213 C215 1.334 . S
C214 H195 0.929 . S
C214 C211 1.388 . S
C214 N213 1.397 . S
C215 H196 0.929 . S
C215 C212 1.404 . S
C215 N213 1.334 . S
C216 H208 0.930 . S
C216 C211 1.418 . S
C216 C212 1.353 . S
C217 H187 0.930 . S
C217 N218 1.330 . S
C217 C219 1.446 . S
N218 Co177 2.151 . S
N218 C217 1.330 . S
N218 C222 1.418 . S
C219 H198 0.929 . S
C219 C217 1.446 . S
C219 C220 1.332 . S
C220 H200 0.931 . S
C220 C219 1.332 . S
C220 C221 1.267 . S
C221 H189 0.929 . S
C221 C220 1.267 . S
C221 C222 1.251 . S
C222 H192 0.929 . S
C222 N218 1.418 . S
C222 C221 1.251 . S
C223 H190 0.930 . S
C223 C225 1.406 . S
C223 C228 1.261 . S
C224 H191 0.930 . S
C224 N226 1.325 . S
C224 C227 1.357 . S
C225 H193 0.928 . S
C225 C223 1.406 . S
C225 N226 1.261 . S
N226 Co177 2.214 . S
N226 C224 1.325 . S
N226 C225 1.261 . S
C227 H197 0.931 . S
C227 C224 1.357 . S
C227 C228 1.312 . S
C228 H199 0.930 . S
C228 C223 1.261 . S
C228 C227 1.312 . S
C229 O201 1.214 . S
C229 O209 1.234 . S
C230 H202 0.929 . S
C230 C233 1.391 . S
C230 C235 1.391 . S
C231 H203 0.929 . S
C231 C232 1.390 . S
C231 N234 1.391 . S
C232 H204 0.930 . S
C232 C231 1.390 . S
C232 C233 1.392 . S
C233 H205 0.929 . S
C233 C230 1.391 . S
C233 C232 1.392 . S
N234 Co178 2.257 . S
N234 C231 1.391 . S
N234 C235 1.388 . S
C235 H206 0.930 . S
C235 C230 1.391 . S
C235 N234 1.388 . S
Co236 O238 2.143 . S
Co236 O244 2.074 . S
Co236 O247 2.093 . S
Co236 O260 2.097 . S
Co236 N277 2.151 . S
Co236 N285 2.214 . S
Co237 O238 2.160 . S
Co237 O243 2.058 . S
Co237 O253 2.057 . S
Co237 O268 2.037 . S
Co237 N272 2.145 . S
Co237 N293 2.257 . S
O238 Co236 2.143 . S
O238 Co237 2.160 . S
C239 O240 1.278 . S
C239 O247 1.224 . S
O240 C239 1.278 . S
C241 O242 1.245 . S
C241 O253 1.232 . S
O242 C241 1.245 . S
O243 Co237 2.058 . S
O243 C269 1.269 . S
O244 Co236 2.074 . S
O244 C269 1.257 . S
H245 C270 0.930 . S
H246 C276 0.930 . S
O247 Co236 2.093 . S
O247 C239 1.224 . S
H248 C280 0.929 . S
H249 C282 0.930 . S
H250 C283 0.930 . S
H251 C281 0.929 . S
H252 C284 0.928 . S
O253 Co237 2.057 . S
O253 C241 1.232 . S
H254 C273 0.929 . S
H255 C274 0.929 . S
H256 C286 0.931 . S
H257 C278 0.929 . S
H258 C287 0.930 . S
H259 C279 0.931 . S
O260 Co236 2.097 . S
O260 C288 1.214 . S
H261 C289 0.929 . S
H262 C290 0.929 . S
H263 C291 0.930 . S
H264 C292 0.929 . S
H265 C294 0.930 . S
H266 C271 0.930 . S
H267 C275 0.930 . S
O268 Co237 2.037 . S
O268 C288 1.234 . S
C269 O243 1.269 . S
C269 O244 1.257 . S
C270 H245 0.930 . S
C270 C273 1.388 . S
C270 C275 1.418 . S
C271 H266 0.930 . S
C271 C274 1.404 . S
C271 C275 1.353 . S
N272 Co237 2.145 . S
N272 C273 1.397 . S
N272 C274 1.334 . S
C273 H254 0.929 . S
C273 C270 1.388 . S
C273 N272 1.397 . S
C274 H255 0.929 . S
C274 C271 1.404 . S
C274 N272 1.334 . S
C275 H267 0.930 . S
C275 C270 1.418 . S
C275 C271 1.353 . S
C276 H246 0.930 . S
C276 N277 1.330 . S
C276 C278 1.446 . S
N277 Co236 2.151 . S
N277 C276 1.330 . S
N277 C281 1.418 . S
C278 H257 0.929 . S
C278 C276 1.446 . S
C278 C279 1.332 . S
C279 H259 0.931 . S
C279 C278 1.332 . S
C279 C280 1.267 . S
C280 H248 0.929 . S
C280 C279 1.267 . S
C280 C281 1.251 . S
C281 H251 0.929 . S
C281 N277 1.418 . S
C281 C280 1.251 . S
C282 H249 0.930 . S
C282 C284 1.406 . S
C282 C287 1.261 . S
C283 H250 0.930 . S
C283 N285 1.325 . S
C283 C286 1.357 . S
C284 H252 0.928 . S
C284 C282 1.406 . S
C284 N285 1.261 . S
N285 Co236 2.214 . S
N285 C283 1.325 . S
N285 C284 1.261 . S
C286 H256 0.931 . S
C286 C283 1.357 . S
C286 C287 1.312 . S
C287 H258 0.930 . S
C287 C282 1.261 . S
C287 C286 1.312 . S
C288 O260 1.214 . S
C288 O268 1.234 . S
C289 H261 0.929 . S
C289 C292 1.391 . S
C289 C294 1.391 . S
C290 H262 0.929 . S
C290 C291 1.390 . S
C290 N293 1.391 . S
C291 H263 0.930 . S
C291 C290 1.390 . S
C291 C292 1.392 . S
C292 H264 0.929 . S
C292 C289 1.391 . S
C292 C291 1.392 . S
N293 Co237 2.257 . S
N293 C290 1.391 . S
N293 C294 1.388 . S
C294 H265 0.930 . S
C294 C289 1.391 . S
C294 N293 1.388 . S
Co295 O297 2.143 . S
Co295 O303 2.074 . S
Co295 O306 2.093 . S
Co295 O319 2.097 . S
Co295 N336 2.151 . S
Co295 N344 2.214 . S
Co296 O297 2.160 . S
Co296 O302 2.058 . S
Co296 O312 2.057 . S
Co296 O327 2.037 . S
Co296 N331 2.145 . S
Co296 N352 2.257 . S
O297 Co295 2.143 . S
O297 Co296 2.160 . S
C298 O299 1.278 . S
C298 O306 1.224 . S
O299 C298 1.278 . S
C300 O301 1.245 . S
C300 O312 1.232 . S
O301 C300 1.245 . S
O302 Co296 2.058 . S
O302 C328 1.269 . S
O303 Co295 2.074 . S
O303 C328 1.257 . S
H304 C329 0.930 . S
H305 C335 0.930 . S
O306 Co295 2.093 . S
O306 C298 1.224 . S
H307 C339 0.929 . S
H308 C341 0.930 . S
H309 C342 0.930 . S
H310 C340 0.929 . S
H311 C343 0.928 . S
O312 Co296 2.057 . S
O312 C300 1.232 . S
H313 C332 0.929 . S
H314 C333 0.929 . S
H315 C345 0.931 . S
H316 C337 0.929 . S
H317 C346 0.930 . S
H318 C338 0.931 . S
O319 Co295 2.097 . S
O319 C347 1.214 . S
H320 C348 0.929 . S
H321 C349 0.929 . S
H322 C350 0.930 . S
H323 C351 0.929 . S
H324 C353 0.930 . S
H325 C330 0.930 . S
H326 C334 0.930 . S
O327 Co296 2.037 . S
O327 C347 1.234 . S
C328 O302 1.269 . S
C328 O303 1.257 . S
C329 H304 0.930 . S
C329 C332 1.388 . S
C329 C334 1.418 . S
C330 H325 0.930 . S
C330 C333 1.404 . S
C330 C334 1.353 . S
N331 Co296 2.145 . S
N331 C332 1.397 . S
N331 C333 1.334 . S
C332 H313 0.929 . S
C332 C329 1.388 . S
C332 N331 1.397 . S
C333 H314 0.929 . S
C333 C330 1.404 . S
C333 N331 1.334 . S
C334 H326 0.930 . S
C334 C329 1.418 . S
C334 C330 1.353 . S
C335 H305 0.930 . S
C335 N336 1.330 . S
C335 C337 1.446 . S
N336 Co295 2.151 . S
N336 C335 1.330 . S
N336 C340 1.418 . S
C337 H316 0.929 . S
C337 C335 1.446 . S
C337 C338 1.332 1_556 S
C338 H318 0.931 . S
C338 C337 1.332 1_554 S
C338 C339 1.267 . S
C339 H307 0.929 . S
C339 C338 1.267 . S
C339 C340 1.251 1_554 S
C340 H310 0.929 . S
C340 N336 1.418 . S
C340 C339 1.251 1_556 S
C341 H308 0.930 . S
C341 C343 1.406 . S
C341 C346 1.261 . S
C342 H309 0.930 . S
C342 N344 1.325 . S
C342 C345 1.357 . S
C343 H311 0.928 . S
C343 C341 1.406 . S
C343 N344 1.261 . S
N344 Co295 2.214 . S
N344 C342 1.325 . S
N344 C343 1.261 . S
C345 H315 0.931 . S
C345 C342 1.357 . S
C345 C346 1.312 . S
C346 H317 0.930 . S
C346 C341 1.261 . S
C346 C345 1.312 . S
C347 O319 1.214 . S
C347 O327 1.234 . S
C348 H320 0.929 . S
C348 C351 1.391 . S
C348 C353 1.391 . S
C349 H321 0.929 . S
C349 C350 1.390 . S
C349 N352 1.391 . S
C350 H322 0.930 . S
C350 C349 1.390 . S
C350 C351 1.392 . S
C351 H323 0.929 . S
C351 C348 1.391 . S
C351 C350 1.392 . S
N352 Co296 2.257 . S
N352 C349 1.391 . S
N352 C353 1.388 . S
C353 H324 0.930 . S
C353 C348 1.391 . S
C353 N352 1.388 . S
Co354 O356 2.143 . S
Co354 O362 2.074 . S
Co354 O365 2.093 . S
Co354 O378 2.097 . S
Co354 N395 2.151 . S
Co354 N403 2.214 . S
Co355 O356 2.160 . S
Co355 O361 2.058 . S
Co355 O371 2.057 . S
Co355 O386 2.037 . S
Co355 N390 2.145 . S
Co355 N411 2.257 . S
O356 Co354 2.143 . S
O356 Co355 2.160 . S
C357 O358 1.278 . S
C357 O365 1.224 . S
O358 C357 1.278 . S
C359 O360 1.245 . S
C359 O371 1.232 . S
O360 C359 1.245 . S
O361 Co355 2.058 . S
O361 C387 1.269 . S
O362 Co354 2.074 . S
O362 C387 1.257 . S
H363 C388 0.930 . S
H364 C394 0.930 . S
O365 Co354 2.093 . S
O365 C357 1.224 . S
H366 C398 0.929 . S
H367 C400 0.930 . S
H368 C401 0.930 . S
H369 C399 0.929 . S
H370 C402 0.928 . S
O371 Co355 2.057 . S
O371 C359 1.232 . S
H372 C391 0.929 . S
H373 C392 0.929 . S
H374 C404 0.931 . S
H375 C396 0.929 . S
H376 C405 0.930 . S
H377 C397 0.931 . S
O378 Co354 2.097 . S
O378 C406 1.214 . S
H379 C407 0.929 . S
H380 C408 0.929 . S
H381 C409 0.930 . S
H382 C410 0.929 . S
H383 C412 0.930 . S
H384 C389 0.930 . S
H385 C393 0.930 . S
O386 Co355 2.037 . S
O386 C406 1.234 . S
C387 O361 1.269 . S
C387 O362 1.257 . S
C388 H363 0.930 . S
C388 C391 1.388 . S
C388 C393 1.418 . S
C389 H384 0.930 . S
C389 C392 1.404 . S
C389 C393 1.353 . S
N390 Co355 2.145 . S
N390 C391 1.397 . S
N390 C392 1.334 . S
C391 H372 0.929 . S
C391 C388 1.388 . S
C391 N390 1.397 . S
C392 H373 0.929 . S
C392 C389 1.404 . S
C392 N390 1.334 . S
C393 H385 0.930 . S
C393 C388 1.418 . S
C393 C389 1.353 . S
C394 H364 0.930 . S
C394 N395 1.330 . S
C394 C396 1.446 1_556 S
N395 Co354 2.151 . S
N395 C394 1.330 . S
N395 C399 1.418 . S
C396 H375 0.929 . S
C396 C394 1.446 1_554 S
C396 C397 1.332 . S
C397 H377 0.931 . S
C397 C396 1.332 . S
C397 C398 1.267 . S
C398 H366 0.929 . S
C398 C397 1.267 . S
C398 C399 1.251 1_554 S
C399 H369 0.929 . S
C399 N395 1.418 . S
C399 C398 1.251 1_556 S
C400 H367 0.930 . S
C400 C402 1.406 . S
C400 C405 1.261 . S
C401 H368 0.930 . S
C401 N403 1.325 . S
C401 C404 1.357 . S
C402 H370 0.928 . S
C402 C400 1.406 . S
C402 N403 1.261 . S
N403 Co354 2.214 . S
N403 C401 1.325 . S
N403 C402 1.261 . S
C404 H374 0.931 . S
C404 C401 1.357 . S
C404 C405 1.312 . S
C405 H376 0.930 . S
C405 C400 1.261 . S
C405 C404 1.312 . S
C406 O378 1.214 . S
C406 O386 1.234 . S
C407 H379 0.929 . S
C407 C410 1.391 . S
C407 C412 1.391 . S
C408 H380 0.929 . S
C408 C409 1.390 . S
C408 N411 1.391 . S
C409 H381 0.930 . S
C409 C408 1.390 . S
C409 C410 1.392 . S
C410 H382 0.929 . S
C410 C407 1.391 . S
C410 C409 1.392 . S
N411 Co355 2.257 . S
N411 C408 1.391 . S
N411 C412 1.388 . S
C412 H383 0.930 . S
C412 C407 1.391 . S
C412 N411 1.388 . S
Co413 O415 2.143 . S
Co413 O421 2.074 . S
Co413 O424 2.093 . S
Co413 O437 2.097 1_554 S
Co413 N454 2.151 . S
Co413 N462 2.214 . S
Co414 O415 2.160 . S
Co414 O420 2.058 . S
Co414 O430 2.057 . S
Co414 O445 2.037 . S
Co414 N449 2.145 . S
Co414 N470 2.257 1_554 S
O415 Co413 2.143 . S
O415 Co414 2.160 . S
C416 O417 1.278 . S
C416 O424 1.224 . S
O417 C416 1.278 . S
C418 O419 1.245 . S
C418 O430 1.232 . S
O419 C418 1.245 . S
O420 Co414 2.058 . S
O420 C446 1.269 . S
O421 Co413 2.074 . S
O421 C446 1.257 . S
H422 C447 0.930 . S
H423 C453 0.930 . S
O424 Co413 2.093 . S
O424 C416 1.224 . S
H425 C457 0.929 . S
H426 C459 0.930 . S
H427 C460 0.930 . S
H428 C458 0.929 . S
H429 C461 0.928 . S
O430 Co414 2.057 . S
O430 C418 1.232 . S
H431 C450 0.929 . S
H432 C451 0.929 . S
H433 C463 0.931 . S
H434 C455 0.929 . S
H435 C464 0.930 . S
H436 C456 0.931 . S
O437 Co413 2.097 1_556 S
O437 C465 1.214 . S
H438 C466 0.929 . S
H439 C467 0.929 . S
H440 C468 0.930 . S
H441 C469 0.929 . S
H442 C471 0.930 1_554 S
H443 C448 0.930 . S
H444 C452 0.930 . S
O445 Co414 2.037 . S
O445 C465 1.234 1_554 S
C446 O420 1.269 . S
C446 O421 1.257 . S
C447 H422 0.930 . S
C447 C450 1.388 . S
C447 C452 1.418 . S
C448 H443 0.930 . S
C448 C451 1.404 . S
C448 C452 1.353 . S
N449 Co414 2.145 . S
N449 C450 1.397 . S
N449 C451 1.334 . S
C450 H431 0.929 . S
C450 C447 1.388 . S
C450 N449 1.397 . S
C451 H432 0.929 . S
C451 C448 1.404 . S
C451 N449 1.334 . S
C452 H444 0.930 . S
C452 C447 1.418 . S
C452 C448 1.353 . S
C453 H423 0.930 . S
C453 N454 1.330 . S
C453 C455 1.446 . S
N454 Co413 2.151 . S
N454 C453 1.330 . S
N454 C458 1.418 . S
C455 H434 0.929 . S
C455 C453 1.446 . S
C455 C456 1.332 . S
C456 H436 0.931 . S
C456 C455 1.332 . S
C456 C457 1.267 . S
C457 H425 0.929 . S
C457 C456 1.267 . S
C457 C458 1.251 . S
C458 H428 0.929 . S
C458 N454 1.418 . S
C458 C457 1.251 . S
C459 H426 0.930 . S
C459 C461 1.406 . S
C459 C464 1.261 . S
C460 H427 0.930 . S
C460 N462 1.325 . S
C460 C463 1.357 . S
C461 H429 0.928 . S
C461 C459 1.406 . S
C461 N462 1.261 . S
N462 Co413 2.214 . S
N462 C460 1.325 . S
N462 C461 1.261 . S
C463 H433 0.931 . S
C463 C460 1.357 . S
C463 C464 1.312 . S
C464 H435 0.930 . S
C464 C459 1.261 . S
C464 C463 1.312 . S
C465 O437 1.214 . S
C465 O445 1.234 1_556 S
C466 H438 0.929 . S
C466 C469 1.391 . S
C466 C471 1.391 . S
C467 H439 0.929 . S
C467 C468 1.390 . S
C467 N470 1.391 . S
C468 H440 0.930 . S
C468 C467 1.390 . S
C468 C469 1.392 . S
C469 H441 0.929 . S
C469 C466 1.391 . S
C469 C468 1.392 . S
N470 Co414 2.257 1_556 S
N470 C467 1.391 . S
N470 C471 1.388 . S
C471 H442 0.930 1_556 S
C471 C466 1.391 . S
C471 N470 1.388 . S
Co472 O474 2.143 . S
Co472 O480 2.074 . S
Co472 O483 2.093 . S
Co472 O496 2.097 . S
Co472 N513 2.151 . S
Co472 N521 2.214 . S
Co473 O474 2.160 . S
Co473 O479 2.058 . S
Co473 O489 2.057 . S
Co473 O504 2.037 . S
Co473 N508 2.145 . S
Co473 N529 2.257 . S
O474 Co472 2.143 . S
O474 Co473 2.160 . S
C475 O476 1.278 . S
C475 O483 1.224 . S
O476 C475 1.278 . S
C477 O478 1.245 . S
C477 O489 1.232 . S
O478 C477 1.245 . S
O479 Co473 2.058 . S
O479 C505 1.269 . S
O480 Co472 2.074 . S
O480 C505 1.257 . S
H481 C506 0.930 . S
H482 C512 0.930 . S
O483 Co472 2.093 . S
O483 C475 1.224 . S
H484 C516 0.929 . S
H485 C518 0.930 . S
H486 C519 0.930 . S
H487 C517 0.929 . S
H488 C520 0.928 . S
O489 Co473 2.057 . S
O489 C477 1.232 . S
H490 C509 0.929 . S
H491 C510 0.929 . S
H492 C522 0.931 . S
H493 C514 0.929 . S
H494 C523 0.930 . S
H495 C515 0.931 . S
O496 Co472 2.097 . S
O496 C524 1.214 . S
H497 C525 0.929 . S
H498 C526 0.929 . S
H499 C527 0.930 . S
H500 C528 0.929 . S
H501 C530 0.930 . S
H502 C507 0.930 . S
H503 C511 0.930 . S
O504 Co473 2.037 . S
O504 C524 1.234 . S
C505 O479 1.269 . S
C505 O480 1.257 . S
C506 H481 0.930 . S
C506 C509 1.388 . S
C506 C511 1.418 . S
C507 H502 0.930 . S
C507 C510 1.404 . S
C507 C511 1.353 . S
N508 Co473 2.145 . S
N508 C509 1.397 . S
N508 C510 1.334 . S
C509 H490 0.929 . S
C509 C506 1.388 . S
C509 N508 1.397 . S
C510 H491 0.929 . S
C510 C507 1.404 . S
C510 N508 1.334 . S
C511 H503 0.930 . S
C511 C506 1.418 . S
C511 C507 1.353 . S
C512 H482 0.930 . S
C512 N513 1.330 . S
C512 C514 1.446 . S
N513 Co472 2.151 . S
N513 C512 1.330 . S
N513 C517 1.418 . S
C514 H493 0.929 . S
C514 C512 1.446 . S
C514 C515 1.332 . S
C515 H495 0.931 . S
C515 C514 1.332 . S
C515 C516 1.267 . S
C516 H484 0.929 . S
C516 C515 1.267 . S
C516 C517 1.251 . S
C517 H487 0.929 . S
C517 N513 1.418 . S
C517 C516 1.251 . S
C518 H485 0.930 . S
C518 C520 1.406 . S
C518 C523 1.261 . S
C519 H486 0.930 . S
C519 N521 1.325 . S
C519 C522 1.357 . S
C520 H488 0.928 . S
C520 C518 1.406 . S
C520 N521 1.261 . S
N521 Co472 2.214 . S
N521 C519 1.325 . S
N521 C520 1.261 . S
C522 H492 0.931 . S
C522 C519 1.357 . S
C522 C523 1.312 . S
C523 H494 0.930 . S
C523 C518 1.261 . S
C523 C522 1.312 . S
C524 O496 1.214 . S
C524 O504 1.234 . S
C525 H497 0.929 . S
C525 C528 1.391 . S
C525 C530 1.391 . S
C526 H498 0.929 . S
C526 C527 1.390 . S
C526 N529 1.391 . S
C527 H499 0.930 . S
C527 C526 1.390 . S
C527 C528 1.392 . S
C528 H500 0.929 . S
C528 C525 1.391 . S
C528 C527 1.392 . S
N529 Co473 2.257 . S
N529 C526 1.391 . S
N529 C530 1.388 . S
C530 H501 0.930 . S
C530 C525 1.391 . S
C530 N529 1.388 . S
Co531 O533 2.143 . S
Co531 O539 2.074 . S
Co531 O542 2.093 . S
Co531 O555 2.097 . S
Co531 N572 2.151 . S
Co531 N580 2.214 . S
Co532 O533 2.160 . S
Co532 O538 2.058 . S
Co532 O548 2.057 . S
Co532 O563 2.037 . S
Co532 N567 2.145 . S
Co532 N588 2.257 . S
O533 Co531 2.143 . S
O533 Co532 2.160 . S
C534 O535 1.278 . S
C534 O542 1.224 . S
O535 C534 1.278 . S
C536 O537 1.245 . S
C536 O548 1.232 . S
O537 C536 1.245 . S
O538 Co532 2.058 . S
O538 C564 1.269 . S
O539 Co531 2.074 . S
O539 C564 1.257 . S
H540 C565 0.930 . S
H541 C571 0.930 . S
O542 Co531 2.093 . S
O542 C534 1.224 . S
H543 C575 0.929 . S
H544 C577 0.930 . S
H545 C578 0.930 . S
H546 C576 0.929 . S
H547 C579 0.928 . S
O548 Co532 2.057 . S
O548 C536 1.232 . S
H549 C568 0.929 . S
H550 C569 0.929 . S
H551 C581 0.931 . S
H552 C573 0.929 . S
H553 C582 0.930 . S
H554 C574 0.931 . S
O555 Co531 2.097 . S
O555 C583 1.214 . S
H556 C584 0.929 . S
H557 C585 0.929 . S
H558 C586 0.930 . S
H559 C587 0.929 . S
H560 C589 0.930 . S
H561 C566 0.930 . S
H562 C570 0.930 . S
O563 Co532 2.037 . S
O563 C583 1.234 . S
C564 O538 1.269 . S
C564 O539 1.257 . S
C565 H540 0.930 . S
C565 C568 1.388 . S
C565 C570 1.418 . S
C566 H561 0.930 . S
C566 C569 1.404 . S
C566 C570 1.353 . S
N567 Co532 2.145 . S
N567 C568 1.397 . S
N567 C569 1.334 . S
C568 H549 0.929 . S
C568 C565 1.388 . S
C568 N567 1.397 . S
C569 H550 0.929 . S
C569 C566 1.404 . S
C569 N567 1.334 . S
C570 H562 0.930 . S
C570 C565 1.418 . S
C570 C566 1.353 . S
C571 H541 0.930 . S
C571 N572 1.330 . S
C571 C573 1.446 . S
N572 Co531 2.151 . S
N572 C571 1.330 . S
N572 C576 1.418 . S
C573 H552 0.929 . S
C573 C571 1.446 . S
C573 C574 1.332 . S
C574 H554 0.931 . S
C574 C573 1.332 . S
C574 C575 1.267 . S
C575 H543 0.929 . S
C575 C574 1.267 . S
C575 C576 1.251 . S
C576 H546 0.929 . S
C576 N572 1.418 . S
C576 C575 1.251 . S
C577 H544 0.930 . S
C577 C579 1.406 . S
C577 C582 1.261 . S
C578 H545 0.930 . S
C578 N580 1.325 . S
C578 C581 1.357 . S
C579 H547 0.928 . S
C579 C577 1.406 . S
C579 N580 1.261 . S
N580 Co531 2.214 . S
N580 C578 1.325 . S
N580 C579 1.261 . S
C581 H551 0.931 . S
C581 C578 1.357 . S
C581 C582 1.312 . S
C582 H553 0.930 . S
C582 C577 1.261 . S
C582 C581 1.312 . S
C583 O555 1.214 . S
C583 O563 1.234 . S
C584 H556 0.929 . S
C584 C587 1.391 . S
C584 C589 1.391 . S
C585 H557 0.929 . S
C585 C586 1.390 . S
C585 N588 1.391 . S
C586 H558 0.930 . S
C586 C585 1.390 . S
C586 C587 1.392 . S
C587 H559 0.929 . S
C587 C584 1.391 . S
C587 C586 1.392 . S
N588 Co532 2.257 . S
N588 C585 1.391 . S
N588 C589 1.388 . S
C589 H560 0.930 . S
C589 C584 1.391 . S
C589 N588 1.388 . S
Co590 O592 2.143 . S
Co590 O598 2.074 . S
Co590 O601 2.093 . S
Co590 O614 2.097 . S
Co590 N631 2.151 . S
Co590 N639 2.214 . S
Co591 O592 2.160 . S
Co591 O597 2.058 . S
Co591 O607 2.057 . S
Co591 O622 2.037 . S
Co591 N626 2.145 . S
Co591 N647 2.257 . S
O592 Co590 2.143 . S
O592 Co591 2.160 . S
C593 O594 1.278 . S
C593 O601 1.224 . S
O594 C593 1.278 . S
C595 O596 1.245 . S
C595 O607 1.232 . S
O596 C595 1.245 . S
O597 Co591 2.058 . S
O597 C623 1.269 . S
O598 Co590 2.074 . S
O598 C623 1.257 . S
H599 C624 0.930 . S
H600 C630 0.930 . S
O601 Co590 2.093 . S
O601 C593 1.224 . S
H602 C634 0.929 . S
H603 C636 0.930 . S
H604 C637 0.930 . S
H605 C635 0.929 . S
H606 C638 0.928 . S
O607 Co591 2.057 . S
O607 C595 1.232 . S
H608 C627 0.929 . S
H609 C628 0.929 . S
H610 C640 0.931 . S
H611 C632 0.929 . S
H612 C641 0.930 . S
H613 C633 0.931 . S
O614 Co590 2.097 . S
O614 C642 1.214 . S
H615 C643 0.929 . S
H616 C644 0.929 . S
H617 C645 0.930 . S
H618 C646 0.929 . S
H619 C648 0.930 . S
H620 C625 0.930 . S
H621 C629 0.930 . S
O622 Co591 2.037 . S
O622 C642 1.234 . S
C623 O597 1.269 . S
C623 O598 1.257 . S
C624 H599 0.930 . S
C624 C627 1.388 . S
C624 C629 1.418 . S
C625 H620 0.930 . S
C625 C628 1.404 . S
C625 C629 1.353 . S
N626 Co591 2.145 . S
N626 C627 1.397 . S
N626 C628 1.334 . S
C627 H608 0.929 . S
C627 C624 1.388 . S
C627 N626 1.397 . S
C628 H609 0.929 . S
C628 C625 1.404 . S
C628 N626 1.334 . S
C629 H621 0.930 . S
C629 C624 1.418 . S
C629 C625 1.353 . S
C630 H600 0.930 . S
C630 N631 1.330 . S
C630 C632 1.446 . S
N631 Co590 2.151 . S
N631 C630 1.330 . S
N631 C635 1.418 . S
C632 H611 0.929 . S
C632 C630 1.446 . S
C632 C633 1.332 . S
C633 H613 0.931 . S
C633 C632 1.332 . S
C633 C634 1.267 . S
C634 H602 0.929 . S
C634 C633 1.267 . S
C634 C635 1.251 . S
C635 H605 0.929 . S
C635 N631 1.418 . S
C635 C634 1.251 . S
C636 H603 0.930 . S
C636 C638 1.406 . S
C636 C641 1.261 . S
C637 H604 0.930 . S
C637 N639 1.325 . S
C637 C640 1.357 . S
C638 H606 0.928 . S
C638 C636 1.406 . S
C638 N639 1.261 . S
N639 Co590 2.214 . S
N639 C637 1.325 . S
N639 C638 1.261 . S
C640 H610 0.931 . S
C640 C637 1.357 . S
C640 C641 1.312 . S
C641 H612 0.930 . S
C641 C636 1.261 . S
C641 C640 1.312 . S
C642 O614 1.214 . S
C642 O622 1.234 . S
C643 H615 0.929 . S
C643 C646 1.391 . S
C643 C648 1.391 . S
C644 H616 0.929 . S
C644 C645 1.390 . S
C644 N647 1.391 . S
C645 H617 0.930 . S
C645 C644 1.390 . S
C645 C646 1.392 . S
C646 H618 0.929 . S
C646 C643 1.391 . S
C646 C645 1.392 . S
N647 Co591 2.257 . S
N647 C644 1.391 . S
N647 C648 1.388 . S
C648 H619 0.930 . S
C648 C643 1.391 . S
C648 N647 1.388 . S
Co649 O651 2.143 . S
Co649 O657 2.074 . S
Co649 O660 2.093 . S
Co649 O673 2.097 . S
Co649 N690 2.151 . S
Co649 N698 2.214 . S
Co650 O651 2.160 . S
Co650 O656 2.058 . S
Co650 O666 2.057 . S
Co650 O681 2.037 . S
Co650 N685 2.145 . S
Co650 N706 2.257 . S
O651 Co649 2.143 . S
O651 Co650 2.160 . S
C652 O653 1.278 . S
C652 O660 1.224 . S
O653 C652 1.278 . S
C654 O655 1.245 . S
C654 O666 1.232 . S
O655 C654 1.245 . S
O656 Co650 2.058 . S
O656 C682 1.269 . S
O657 Co649 2.074 . S
O657 C682 1.257 . S
H658 C683 0.930 . S
H659 C689 0.930 . S
O660 Co649 2.093 . S
O660 C652 1.224 . S
H661 C693 0.929 . S
H662 C695 0.930 . S
H663 C696 0.930 . S
H664 C694 0.929 . S
H665 C697 0.928 . S
O666 Co650 2.057 . S
O666 C654 1.232 . S
H667 C686 0.929 . S
H668 C687 0.929 . S
H669 C699 0.931 . S
H670 C691 0.929 . S
H671 C700 0.930 . S
H672 C692 0.931 . S
O673 Co649 2.097 . S
O673 C701 1.214 . S
H674 C702 0.929 . S
H675 C703 0.929 . S
H676 C704 0.930 . S
H677 C705 0.929 . S
H678 C707 0.930 . S
H679 C684 0.930 . S
H680 C688 0.930 . S
O681 Co650 2.037 . S
O681 C701 1.234 . S
C682 O656 1.269 . S
C682 O657 1.257 . S
C683 H658 0.930 . S
C683 C686 1.388 . S
C683 C688 1.418 . S
C684 H679 0.930 . S
C684 C687 1.404 . S
C684 C688 1.353 . S
N685 Co650 2.145 . S
N685 C686 1.397 . S
N685 C687 1.334 . S
C686 H667 0.929 . S
C686 C683 1.388 . S
C686 N685 1.397 . S
C687 H668 0.929 . S
C687 C684 1.404 . S
C687 N685 1.334 . S
C688 H680 0.930 . S
C688 C683 1.418 . S
C688 C684 1.353 . S
C689 H659 0.930 . S
C689 N690 1.330 . S
C689 C691 1.446 . S
N690 Co649 2.151 . S
N690 C689 1.330 . S
N690 C694 1.418 . S
C691 H670 0.929 . S
C691 C689 1.446 . S
C691 C692 1.332 . S
C692 H672 0.931 . S
C692 C691 1.332 . S
C692 C693 1.267 . S
C693 H661 0.929 . S
C693 C692 1.267 . S
C693 C694 1.251 . S
C694 H664 0.929 . S
C694 N690 1.418 . S
C694 C693 1.251 . S
C695 H662 0.930 . S
C695 C697 1.406 . S
C695 C700 1.261 . S
C696 H663 0.930 . S
C696 N698 1.325 . S
C696 C699 1.357 . S
C697 H665 0.928 . S
C697 C695 1.406 . S
C697 N698 1.261 . S
N698 Co649 2.214 . S
N698 C696 1.325 . S
N698 C697 1.261 . S
C699 H669 0.931 . S
C699 C696 1.357 . S
C699 C700 1.312 . S
C700 H671 0.930 . S
C700 C695 1.261 . S
C700 C699 1.312 . S
C701 O673 1.214 . S
C701 O681 1.234 . S
C702 H674 0.929 . S
C702 C705 1.391 . S
C702 C707 1.391 . S
C703 H675 0.929 . S
C703 C704 1.390 . S
C703 N706 1.391 . S
C704 H676 0.930 . S
C704 C703 1.390 . S
C704 C705 1.392 . S
C705 H677 0.929 . S
C705 C702 1.391 . S
C705 C704 1.392 . S
N706 Co650 2.257 . S
N706 C703 1.391 . S
N706 C707 1.388 . S
C707 H678 0.930 . S
C707 C702 1.391 . S
C707 N706 1.388 . S
H708 C726 0.951 . S
H709 C728 0.951 . S
H710 C730 0.950 . S
H711 C731 0.950 . S
H712 C733 0.950 . S
H713 C736 0.950 . S
H714 C737 0.950 . S
H715 C739 0.950 . S
H716 C740 0.950 . S
H717 C741 0.951 . S
H718 C743 0.951 . S
H719 C745 0.950 . S
H720 C746 0.950 . S
H721 C748 0.950 . S
H722 C751 0.950 . S
H723 C752 0.950 . S
H724 C754 0.950 . S
H725 C755 0.950 . S
C726 H708 0.951 . S
C726 C727 1.366 . S
C726 C728 1.388 . S
C727 C726 1.366 . S
C727 C731 1.385 . S
C728 H709 0.951 . S
C728 C726 1.388 . S
C728 C729 1.366 . S
C729 C728 1.366 . S
C729 C730 1.414 . S
C729 C732 1.499 . S
C730 H710 0.950 . S
C730 C729 1.414 . S
C730 C731 1.374 . S
C731 H711 0.950 . S
C731 C727 1.385 . S
C731 C730 1.374 . S
C732 C729 1.499 . S
C732 C733 1.373 . S
C732 C734 1.389 . S
C733 H712 0.950 . S
C733 C732 1.373 . S
C733 C749 1.377 . S
C734 C732 1.389 . S
C734 C735 1.524 . S
C734 C748 1.377 . S
C735 C734 1.524 . S
C735 C736 1.397 . S
C735 C740 1.363 . S
C736 H713 0.950 . S
C736 C735 1.397 . S
C736 C737 1.334 . S
C737 H714 0.950 . S
C737 C736 1.334 . S
C737 C738 1.287 . S
C738 C737 1.287 . S
C738 C739 1.524 . S
C738 H757 0.913 . S
C739 H715 0.950 . S
C739 C738 1.524 . S
C739 C740 1.415 . S
C740 H716 0.950 . S
C740 C735 1.363 . S
C740 C739 1.415 . S
C741 H717 0.951 . S
C741 C742 1.366 . S
C741 C743 1.388 . S
C742 C741 1.366 . S
C742 C746 1.385 . S
C743 H718 0.951 . S
C743 C741 1.388 . S
C743 C744 1.366 . S
C744 C743 1.366 . S
C744 C745 1.414 . S
C744 C747 1.499 . S
C745 H719 0.950 . S
C745 C744 1.414 . S
C745 C746 1.374 . S
C746 H720 0.950 . S
C746 C742 1.385 . S
C746 C745 1.374 . S
C747 C744 1.499 . S
C747 C748 1.373 . S
C747 C749 1.389 . S
C748 H721 0.950 . S
C748 C734 1.377 . S
C748 C747 1.373 . S
C749 C733 1.377 . S
C749 C747 1.389 . S
C749 C750 1.524 . S
C750 C749 1.524 . S
C750 C751 1.397 . S
C750 C755 1.363 . S
C751 H722 0.950 . S
C751 C750 1.397 . S
C751 C752 1.334 . S
C752 H723 0.950 . S
C752 C751 1.334 . S
C752 C753 1.287 . S
C753 C752 1.287 . S
C753 C754 1.524 . S
C753 H756 0.999 . S
C754 H724 0.950 . S
C754 C753 1.524 . S
C754 C755 1.415 . S
C755 H725 0.950 . S
C755 C750 1.363 . S
C755 C754 1.415 . S
H756 C753 0.999 . S
H757 C738 0.913 . S
H758 C776 0.951 . S
H759 C778 0.951 . S
H760 C780 0.950 . S
H761 C781 0.950 . S
H762 C783 0.950 . S
H763 C786 0.950 . S
H764 C787 0.950 . S
H765 C789 0.950 . S
H766 C790 0.950 . S
H767 C791 0.951 . S
H768 C793 0.951 . S
H769 C795 0.950 . S
H770 C796 0.950 . S
H771 C798 0.950 . S
H772 C801 0.950 . S
H773 C802 0.950 . S
H774 C804 0.950 . S
H775 C805 0.950 . S
C776 H758 0.951 . S
C776 C777 1.366 . S
C776 C778 1.388 . S
C777 C776 1.366 . S
C777 C781 1.385 . S
C778 H759 0.951 . S
C778 C776 1.388 . S
C778 C779 1.366 . S
C779 C778 1.366 . S
C779 C780 1.414 . S
C779 C782 1.499 . S
C780 H760 0.950 . S
C780 C779 1.414 . S
C780 C781 1.374 . S
C781 H761 0.950 . S
C781 C777 1.385 . S
C781 C780 1.374 . S
C782 C779 1.499 . S
C782 C783 1.373 . S
C782 C784 1.389 . S
C783 H762 0.950 . S
C783 C782 1.373 . S
C783 C799 1.377 . S
C784 C782 1.389 . S
C784 C785 1.524 . S
C784 C798 1.377 . S
C785 C784 1.524 . S
C785 C786 1.397 . S
C785 C790 1.363 . S
C786 H763 0.950 . S
C786 C785 1.397 . S
C786 C787 1.334 . S
C787 H764 0.950 . S
C787 C786 1.334 . S
C787 C788 1.287 . S
C788 C787 1.287 . S
C788 C789 1.524 . S
C788 H807 0.913 . S
C789 H765 0.950 . S
C789 C788 1.524 . S
C789 C790 1.415 . S
C790 H766 0.950 . S
C790 C785 1.363 . S
C790 C789 1.415 . S
C791 H767 0.951 . S
C791 C792 1.366 . S
C791 C793 1.388 . S
C792 C791 1.366 . S
C792 C796 1.385 . S
C793 H768 0.951 . S
C793 C791 1.388 . S
C793 C794 1.366 . S
C794 C793 1.366 . S
C794 C795 1.414 . S
C794 C797 1.499 . S
C795 H769 0.950 . S
C795 C794 1.414 . S
C795 C796 1.374 . S
C796 H770 0.950 . S
C796 C792 1.385 . S
C796 C795 1.374 . S
C797 C794 1.499 . S
C797 C798 1.373 . S
C797 C799 1.389 . S
C798 H771 0.950 . S
C798 C784 1.377 . S
C798 C797 1.373 . S
C799 C783 1.377 . S
C799 C797 1.389 . S
C799 C800 1.524 . S
C800 C799 1.524 . S
C800 C801 1.397 . S
C800 C805 1.363 . S
C801 H772 0.950 . S
C801 C800 1.397 . S
C801 C802 1.334 . S
C802 H773 0.950 . S
C802 C801 1.334 . S
C802 C803 1.287 . S
C803 C802 1.287 . S
C803 C804 1.524 . S
C803 H806 0.999 . S
C804 H774 0.950 . S
C804 C803 1.524 . S
C804 C805 1.415 . S
C805 H775 0.950 . S
C805 C800 1.363 . S
C805 C804 1.415 . S
H806 C803 0.999 . S
H807 C788 0.913 . S
H808 C826 0.951 . S
H809 C828 0.951 . S
H810 C830 0.950 . S
H811 C831 0.950 . S
H812 C833 0.950 . S
H813 C836 0.950 . S
H814 C837 0.950 . S
H815 C839 0.950 . S
H816 C840 0.950 . S
H817 C841 0.951 . S
H818 C843 0.951 . S
H819 C845 0.950 . S
H820 C846 0.950 . S
H821 C848 0.950 . S
H822 C851 0.950 . S
H823 C852 0.950 . S
H824 C854 0.950 . S
H825 C855 0.950 . S
C826 H808 0.951 . S
C826 C827 1.366 . S
C826 C828 1.388 . S
C827 C826 1.366 . S
C827 C831 1.385 . S
C828 H809 0.951 . S
C828 C826 1.388 . S
C828 C829 1.366 . S
C829 C828 1.366 . S
C829 C830 1.414 . S
C829 C832 1.499 . S
C830 H810 0.950 . S
C830 C829 1.414 . S
C830 C831 1.374 . S
C831 H811 0.950 . S
C831 C827 1.385 . S
C831 C830 1.374 . S
C832 C829 1.499 . S
C832 C833 1.373 . S
C832 C834 1.389 . S
C833 H812 0.950 . S
C833 C832 1.373 . S
C833 C849 1.377 . S
C834 C832 1.389 . S
C834 C835 1.524 . S
C834 C848 1.377 . S
C835 C834 1.524 . S
C835 C836 1.397 . S
C835 C840 1.363 . S
C836 H813 0.950 . S
C836 C835 1.397 . S
C836 C837 1.334 . S
C837 H814 0.950 . S
C837 C836 1.334 . S
C837 C838 1.287 . S
C838 C837 1.287 . S
C838 C839 1.524 . S
C838 H857 0.913 . S
C839 H815 0.950 . S
C839 C838 1.524 . S
C839 C840 1.415 . S
C840 H816 0.950 . S
C840 C835 1.363 . S
C840 C839 1.415 . S
C841 H817 0.951 . S
C841 C842 1.366 . S
C841 C843 1.388 . S
C842 C841 1.366 . S
C842 C846 1.385 . S
C843 H818 0.951 . S
C843 C841 1.388 . S
C843 C844 1.366 . S
C844 C843 1.366 . S
C844 C845 1.414 . S
C844 C847 1.499 . S
C845 H819 0.950 . S
C845 C844 1.414 . S
C845 C846 1.374 . S
C846 H820 0.950 . S
C846 C842 1.385 . S
C846 C845 1.374 . S
C847 C844 1.499 . S
C847 C848 1.373 . S
C847 C849 1.389 . S
C848 H821 0.950 . S
C848 C834 1.377 . S
C848 C847 1.373 . S
C849 C833 1.377 . S
C849 C847 1.389 . S
C849 C850 1.524 . S
C850 C849 1.524 . S
C850 C851 1.397 . S
C850 C855 1.363 . S
C851 H822 0.950 . S
C851 C850 1.397 . S
C851 C852 1.334 . S
C852 H823 0.950 . S
C852 C851 1.334 . S
C852 C853 1.287 . S
C853 C852 1.287 . S
C853 C854 1.524 . S
C853 H856 0.999 . S
C854 H824 0.950 . S
C854 C853 1.524 . S
C854 C855 1.415 . S
C855 H825 0.950 . S
C855 C850 1.363 . S
C855 C854 1.415 . S
H856 C853 0.999 . S
H857 C838 0.913 . S
H858 C876 0.951 . S
H859 C878 0.951 . S
H860 C880 0.950 . S
H861 C881 0.950 . S
H862 C883 0.950 . S
H863 C886 0.950 . S
H864 C887 0.950 . S
H865 C889 0.950 . S
H866 C890 0.950 . S
H867 C891 0.951 . S
H868 C893 0.951 . S
H869 C895 0.950 . S
H870 C896 0.950 . S
H871 C898 0.950 . S
H872 C901 0.950 . S
H873 C902 0.950 . S
H874 C904 0.950 . S
H875 C905 0.950 . S
C876 H858 0.951 . S
C876 C877 1.366 . S
C876 C878 1.388 . S
C877 C876 1.366 . S
C877 C881 1.385 . S
C878 H859 0.951 . S
C878 C876 1.388 . S
C878 C879 1.366 . S
C879 C878 1.366 . S
C879 C880 1.414 . S
C879 C882 1.499 . S
C880 H860 0.950 . S
C880 C879 1.414 . S
C880 C881 1.374 . S
C881 H861 0.950 . S
C881 C877 1.385 . S
C881 C880 1.374 . S
C882 C879 1.499 . S
C882 C883 1.373 . S
C882 C884 1.389 . S
C883 H862 0.950 . S
C883 C882 1.373 . S
C883 C899 1.377 . S
C884 C882 1.389 . S
C884 C885 1.524 . S
C884 C898 1.377 . S
C885 C884 1.524 . S
C885 C886 1.397 . S
C885 C890 1.363 . S
C886 H863 0.950 . S
C886 C885 1.397 . S
C886 C887 1.334 . S
C887 H864 0.950 . S
C887 C886 1.334 . S
C887 C888 1.287 . S
C888 C887 1.287 . S
C888 C889 1.524 . S
C888 H907 0.913 . S
C889 H865 0.950 . S
C889 C888 1.524 . S
C889 C890 1.415 . S
C890 H866 0.950 . S
C890 C885 1.363 . S
C890 C889 1.415 . S
C891 H867 0.951 . S
C891 C892 1.366 . S
C891 C893 1.388 . S
C892 C891 1.366 . S
C892 C896 1.385 . S
C893 H868 0.951 . S
C893 C891 1.388 . S
C893 C894 1.366 . S
C894 C893 1.366 . S
C894 C895 1.414 . S
C894 C897 1.499 . S
C895 H869 0.950 . S
C895 C894 1.414 . S
C895 C896 1.374 . S
C896 H870 0.950 . S
C896 C892 1.385 . S
C896 C895 1.374 . S
C897 C894 1.499 . S
C897 C898 1.373 . S
C897 C899 1.389 . S
C898 H871 0.950 . S
C898 C884 1.377 . S
C898 C897 1.373 . S
C899 C883 1.377 . S
C899 C897 1.389 . S
C899 C900 1.524 . S
C900 C899 1.524 . S
C900 C901 1.397 . S
C900 C905 1.363 . S
C901 H872 0.950 . S
C901 C900 1.397 . S
C901 C902 1.334 . S
C902 H873 0.950 . S
C902 C901 1.334 . S
C902 C903 1.287 . S
C903 C902 1.287 . S
C903 C904 1.524 . S
C903 H906 0.999 1_556 S
C904 H874 0.950 . S
C904 C903 1.524 . S
C904 C905 1.415 . S
C905 H875 0.950 . S
C905 C900 1.363 . S
C905 C904 1.415 . S
H906 C903 0.999 1_554 S
H907 C888 0.913 . S
H908 C926 0.951 . S
H909 C928 0.951 . S
H910 C930 0.950 . S
H911 C931 0.950 . S
H912 C933 0.950 . S
H913 C936 0.950 . S
H914 C937 0.950 . S
H915 C939 0.950 . S
H916 C940 0.950 . S
H917 C941 0.951 . S
H918 C943 0.951 . S
H919 C945 0.950 . S
H920 C946 0.950 . S
H921 C948 0.950 . S
H922 C951 0.950 . S
H923 C952 0.950 . S
H924 C954 0.950 . S
H925 C955 0.950 . S
C926 H908 0.951 . S
C926 C927 1.366 . S
C926 C928 1.388 . S
C927 C926 1.366 . S
C927 C931 1.385 . S
C928 H909 0.951 . S
C928 C926 1.388 . S
C928 C929 1.366 . S
C929 C928 1.366 . S
C929 C930 1.414 . S
C929 C932 1.499 . S
C930 H910 0.950 . S
C930 C929 1.414 . S
C930 C931 1.374 . S
C931 H911 0.950 . S
C931 C927 1.385 . S
C931 C930 1.374 . S
C932 C929 1.499 . S
C932 C933 1.373 . S
C932 C934 1.389 . S
C933 H912 0.950 . S
C933 C932 1.373 . S
C933 C949 1.377 1_556 S
C934 C932 1.389 . S
C934 C935 1.524 . S
C934 C948 1.377 . S
C935 C934 1.524 . S
C935 C936 1.397 . S
C935 C940 1.363 . S
C936 H913 0.950 . S
C936 C935 1.397 . S
C936 C937 1.334 . S
C937 H914 0.950 . S
C937 C936 1.334 . S
C937 C938 1.287 . S
C938 C937 1.287 . S
C938 C939 1.524 . S
C938 H957 0.913 . S
C939 H915 0.950 . S
C939 C938 1.524 . S
C939 C940 1.415 . S
C940 H916 0.950 . S
C940 C935 1.363 . S
C940 C939 1.415 . S
C941 H917 0.951 . S
C941 C942 1.366 . S
C941 C943 1.388 . S
C942 C941 1.366 . S
C942 C946 1.385 . S
C943 H918 0.951 . S
C943 C941 1.388 . S
C943 C944 1.366 . S
C944 C943 1.366 . S
C944 C945 1.414 . S
C944 C947 1.499 . S
C945 H919 0.950 . S
C945 C944 1.414 . S
C945 C946 1.374 . S
C946 H920 0.950 . S
C946 C942 1.385 . S
C946 C945 1.374 . S
C947 C944 1.499 . S
C947 C948 1.373 1_554 S
C947 C949 1.389 . S
C948 H921 0.950 . S
C948 C934 1.377 . S
C948 C947 1.373 1_556 S
C949 C933 1.377 1_554 S
C949 C947 1.389 . S
C949 C950 1.524 . S
C950 C949 1.524 . S
C950 C951 1.397 . S
C950 C955 1.363 . S
C951 H922 0.950 . S
C951 C950 1.397 . S
C951 C952 1.334 . S
C952 H923 0.950 . S
C952 C951 1.334 . S
C952 C953 1.287 . S
C953 C952 1.287 . S
C953 C954 1.524 . S
C953 H956 0.999 . S
C954 H924 0.950 . S
C954 C953 1.524 . S
C954 C955 1.415 . S
C955 H925 0.950 . S
C955 C950 1.363 . S
C955 C954 1.415 . S
H956 C953 0.999 . S
H957 C938 0.913 . S
H958 C976 0.951 . S
H959 C978 0.951 . S
H960 C980 0.950 . S
H961 C981 0.950 . S
H962 C983 0.950 . S
H963 C986 0.950 . S
H964 C987 0.950 . S
H965 C989 0.950 . S
H966 C990 0.950 . S
H967 C991 0.951 1_556 S
H968 C993 0.951 . S
H969 C995 0.950 . S
H970 C996 0.950 . S
H971 C998 0.950 . S
H972 C1001 0.950 . S
H973 C1002 0.950 . S
H974 C1004 0.950 . S
H975 C1005 0.950 . S
C976 H958 0.951 . S
C976 C977 1.366 . S
C976 C978 1.388 . S
C977 C976 1.366 . S
C977 C981 1.385 . S
C978 H959 0.951 . S
C978 C976 1.388 . S
C978 C979 1.366 . S
C979 C978 1.366 . S
C979 C980 1.414 . S
C979 C982 1.499 . S
C980 H960 0.950 . S
C980 C979 1.414 . S
C980 C981 1.374 . S
C981 H961 0.950 . S
C981 C977 1.385 . S
C981 C980 1.374 . S
C982 C979 1.499 . S
C982 C983 1.373 . S
C982 C984 1.389 . S
C983 H962 0.950 . S
C983 C982 1.373 . S
C983 C999 1.377 . S
C984 C982 1.389 . S
C984 C985 1.524 . S
C984 C998 1.377 . S
C985 C984 1.524 . S
C985 C986 1.397 . S
C985 C990 1.363 . S
C986 H963 0.950 . S
C986 C985 1.397 . S
C986 C987 1.334 . S
C987 H964 0.950 . S
C987 C986 1.334 . S
C987 C988 1.287 . S
C988 C987 1.287 . S
C988 C989 1.524 . S
C988 H1007 0.913 . S
C989 H965 0.950 . S
C989 C988 1.524 . S
C989 C990 1.415 . S
C990 H966 0.950 . S
C990 C985 1.363 . S
C990 C989 1.415 . S
C991 H967 0.951 1_554 S
C991 C992 1.366 1_554 S
C991 C993 1.388 . S
C992 C991 1.366 1_556 S
C992 C996 1.385 1_556 S
C993 H968 0.951 . S
C993 C991 1.388 . S
C993 C994 1.366 . S
C994 C993 1.366 . S
C994 C995 1.414 . S
C994 C997 1.499 . S
C995 H969 0.950 . S
C995 C994 1.414 . S
C995 C996 1.374 . S
C996 H970 0.950 . S
C996 C992 1.385 1_554 S
C996 C995 1.374 . S
C997 C994 1.499 . S
C997 C998 1.373 . S
C997 C999 1.389 . S
C998 H971 0.950 . S
C998 C984 1.377 . S
C998 C997 1.373 . S
C999 C983 1.377 . S
C999 C997 1.389 . S
C999 C1000 1.524 . S
C1000 C999 1.524 . S
C1000 C1001 1.397 . S
C1000 C1005 1.363 . S
C1001 H972 0.950 . S
C1001 C1000 1.397 . S
C1001 C1002 1.334 . S
C1002 H973 0.950 . S
C1002 C1001 1.334 . S
C1002 C1003 1.287 . S
C1003 C1002 1.287 . S
C1003 C1004 1.524 . S
C1003 H1006 0.999 . S
C1004 H974 0.950 . S
C1004 C1003 1.524 . S
C1004 C1005 1.415 . S
C1005 H975 0.950 . S
C1005 C1000 1.363 . S
C1005 C1004 1.415 . S
H1006 C1003 0.999 . S
H1007 C988 0.913 . S
H1008 C1026 0.951 . S
H1009 C1028 0.951 . S
H1010 C1030 0.950 . S
H1011 C1031 0.950 . S
H1012 C1033 0.950 . S
H1013 C1036 0.950 . S
H1014 C1037 0.950 . S
H1015 C1039 0.950 . S
H1016 C1040 0.950 . S
H1017 C1041 0.951 . S
H1018 C1043 0.951 . S
H1019 C1045 0.950 . S
H1020 C1046 0.950 . S
H1021 C1048 0.950 . S
H1022 C1051 0.950 . S
H1023 C1052 0.950 . S
H1024 C1054 0.950 . S
H1025 C1055 0.950 . S
C1026 H1008 0.951 . S
C1026 C1027 1.366 . S
C1026 C1028 1.388 . S
C1027 C1026 1.366 . S
C1027 C1031 1.385 . S
C1028 H1009 0.951 . S
C1028 C1026 1.388 . S
C1028 C1029 1.366 . S
C1029 C1028 1.366 . S
C1029 C1030 1.414 . S
C1029 C1032 1.499 . S
C1030 H1010 0.950 . S
C1030 C1029 1.414 . S
C1030 C1031 1.374 . S
C1031 H1011 0.950 . S
C1031 C1027 1.385 . S
C1031 C1030 1.374 . S
C1032 C1029 1.499 . S
C1032 C1033 1.373 . S
C1032 C1034 1.389 . S
C1033 H1012 0.950 . S
C1033 C1032 1.373 . S
C1033 C1049 1.377 . S
C1034 C1032 1.389 . S
C1034 C1035 1.524 . S
C1034 C1048 1.377 . S
C1035 C1034 1.524 . S
C1035 C1036 1.397 . S
C1035 C1040 1.363 . S
C1036 H1013 0.950 . S
C1036 C1035 1.397 . S
C1036 C1037 1.334 . S
C1037 H1014 0.950 . S
C1037 C1036 1.334 . S
C1037 C1038 1.287 . S
C1038 C1037 1.287 . S
C1038 C1039 1.524 . S
C1038 H1057 0.913 . S
C1039 H1015 0.950 . S
C1039 C1038 1.524 . S
C1039 C1040 1.415 . S
C1040 H1016 0.950 . S
C1040 C1035 1.363 . S
C1040 C1039 1.415 . S
C1041 H1017 0.951 . S
C1041 C1042 1.366 . S
C1041 C1043 1.388 . S
C1042 C1041 1.366 . S
C1042 C1046 1.385 . S
C1043 H1018 0.951 . S
C1043 C1041 1.388 . S
C1043 C1044 1.366 . S
C1044 C1043 1.366 . S
C1044 C1045 1.414 . S
C1044 C1047 1.499 . S
C1045 H1019 0.950 . S
C1045 C1044 1.414 . S
C1045 C1046 1.374 . S
C1046 H1020 0.950 . S
C1046 C1042 1.385 . S
C1046 C1045 1.374 . S
C1047 C1044 1.499 . S
C1047 C1048 1.373 . S
C1047 C1049 1.389 . S
C1048 H1021 0.950 . S
C1048 C1034 1.377 . S
C1048 C1047 1.373 . S
C1049 C1033 1.377 . S
C1049 C1047 1.389 . S
C1049 C1050 1.524 . S
C1050 C1049 1.524 . S
C1050 C1051 1.397 . S
C1050 C1055 1.363 . S
C1051 H1022 0.950 . S
C1051 C1050 1.397 . S
C1051 C1052 1.334 . S
C1052 H1023 0.950 . S
C1052 C1051 1.334 . S
C1052 C1053 1.287 . S
C1053 C1052 1.287 . S
C1053 C1054 1.524 . S
C1053 H1056 0.999 . S
C1054 H1024 0.950 . S
C1054 C1053 1.524 . S
C1054 C1055 1.415 . S
C1055 H1025 0.950 . S
C1055 C1050 1.363 . S
C1055 C1054 1.415 . S
H1056 C1053 0.999 . S
H1057 C1038 0.913 . S
H1058 C1076 0.951 . S
H1059 C1078 0.951 . S
H1060 C1080 0.950 . S
H1061 C1081 0.950 . S
H1062 C1083 0.950 . S
H1063 C1086 0.950 . S
H1064 C1087 0.950 . S
H1065 C1089 0.950 . S
H1066 C1090 0.950 . S
H1067 C1091 0.951 . S
H1068 C1093 0.951 . S
H1069 C1095 0.950 . S
H1070 C1096 0.950 . S
H1071 C1098 0.950 . S
H1072 C1101 0.950 . S
H1073 C1102 0.950 . S
H1074 C1104 0.950 . S
H1075 C1105 0.950 . S
C1076 H1058 0.951 . S
C1076 C1077 1.366 . S
C1076 C1078 1.388 . S
C1077 C1076 1.366 . S
C1077 C1081 1.385 . S
C1078 H1059 0.951 . S
C1078 C1076 1.388 . S
C1078 C1079 1.366 . S
C1079 C1078 1.366 . S
C1079 C1080 1.414 . S
C1079 C1082 1.499 . S
C1080 H1060 0.950 . S
C1080 C1079 1.414 . S
C1080 C1081 1.374 . S
C1081 H1061 0.950 . S
C1081 C1077 1.385 . S
C1081 C1080 1.374 . S
C1082 C1079 1.499 . S
C1082 C1083 1.373 . S
C1082 C1084 1.389 . S
C1083 H1062 0.950 . S
C1083 C1082 1.373 . S
C1083 C1099 1.377 . S
C1084 C1082 1.389 . S
C1084 C1085 1.524 . S
C1084 C1098 1.377 . S
C1085 C1084 1.524 . S
C1085 C1086 1.397 . S
C1085 C1090 1.363 . S
C1086 H1063 0.950 . S
C1086 C1085 1.397 . S
C1086 C1087 1.334 . S
C1087 H1064 0.950 . S
C1087 C1086 1.334 . S
C1087 C1088 1.287 . S
C1088 C1087 1.287 . S
C1088 C1089 1.524 . S
C1088 H1107 0.913 . S
C1089 H1065 0.950 . S
C1089 C1088 1.524 . S
C1089 C1090 1.415 . S
C1090 H1066 0.950 . S
C1090 C1085 1.363 . S
C1090 C1089 1.415 . S
C1091 H1067 0.951 . S
C1091 C1092 1.366 . S
C1091 C1093 1.388 . S
C1092 C1091 1.366 . S
C1092 C1096 1.385 . S
C1093 H1068 0.951 . S
C1093 C1091 1.388 . S
C1093 C1094 1.366 . S
C1094 C1093 1.366 . S
C1094 C1095 1.414 . S
C1094 C1097 1.499 . S
C1095 H1069 0.950 . S
C1095 C1094 1.414 . S
C1095 C1096 1.374 . S
C1096 H1070 0.950 . S
C1096 C1092 1.385 . S
C1096 C1095 1.374 . S
C1097 C1094 1.499 . S
C1097 C1098 1.373 . S
C1097 C1099 1.389 . S
C1098 H1071 0.950 . S
C1098 C1084 1.377 . S
C1098 C1097 1.373 . S
C1099 C1083 1.377 . S
C1099 C1097 1.389 . S
C1099 C1100 1.524 . S
C1100 C1099 1.524 . S
C1100 C1101 1.397 . S
C1100 C1105 1.363 . S
C1101 H1072 0.950 . S
C1101 C1100 1.397 . S
C1101 C1102 1.334 . S
C1102 H1073 0.950 . S
C1102 C1101 1.334 . S
C1102 C1103 1.287 . S
C1103 C1102 1.287 . S
C1103 C1104 1.524 . S
C1103 H1106 0.999 . S
C1104 H1074 0.950 . S
C1104 C1103 1.524 . S
C1104 C1105 1.415 . S
C1105 H1075 0.950 . S
C1105 C1100 1.363 . S
C1105 C1104 1.415 . S
H1106 C1103 0.999 . S
H1107 C1088 0.913 . S
H1108 C1126 0.951 . S
H1109 C1128 0.951 . S
H1110 C1130 0.950 . S
H1111 C1131 0.950 . S
H1112 C1133 0.950 . S
H1113 C1136 0.950 . S
H1114 C1137 0.950 . S
H1115 C1139 0.950 . S
H1116 C1140 0.950 . S
H1117 C1141 0.951 . S
H1118 C1143 0.951 . S
H1119 C1145 0.950 . S
H1120 C1146 0.950 . S
H1121 C1148 0.950 . S
H1122 C1151 0.950 . S
H1123 C1152 0.950 . S
H1124 C1154 0.950 . S
H1125 C1155 0.950 . S
C1126 H1108 0.951 . S
C1126 C1127 1.366 . S
C1126 C1128 1.388 . S
C1127 C1126 1.366 . S
C1127 C1131 1.385 . S
C1128 H1109 0.951 . S
C1128 C1126 1.388 . S
C1128 C1129 1.366 . S
C1129 C1128 1.366 . S
C1129 C1130 1.414 . S
C1129 C1132 1.499 . S
C1130 H1110 0.950 . S
C1130 C1129 1.414 . S
C1130 C1131 1.374 . S
C1131 H1111 0.950 . S
C1131 C1127 1.385 . S
C1131 C1130 1.374 . S
C1132 C1129 1.499 . S
C1132 C1133 1.373 . S
C1132 C1134 1.389 . S
C1133 H1112 0.950 . S
C1133 C1132 1.373 . S
C1133 C1149 1.377 . S
C1134 C1132 1.389 . S
C1134 C1135 1.524 . S
C1134 C1148 1.377 . S
C1135 C1134 1.524 . S
C1135 C1136 1.397 . S
C1135 C1140 1.363 . S
C1136 H1113 0.950 . S
C1136 C1135 1.397 . S
C1136 C1137 1.334 . S
C1137 H1114 0.950 . S
C1137 C1136 1.334 . S
C1137 C1138 1.287 . S
C1138 C1137 1.287 . S
C1138 C1139 1.524 . S
C1138 H1157 0.913 . S
C1139 H1115 0.950 . S
C1139 C1138 1.524 . S
C1139 C1140 1.415 . S
C1140 H1116 0.950 . S
C1140 C1135 1.363 . S
C1140 C1139 1.415 . S
C1141 H1117 0.951 . S
C1141 C1142 1.366 . S
C1141 C1143 1.388 . S
C1142 C1141 1.366 . S
C1142 C1146 1.385 . S
C1143 H1118 0.951 . S
C1143 C1141 1.388 . S
C1143 C1144 1.366 . S
C1144 C1143 1.366 . S
C1144 C1145 1.414 . S
C1144 C1147 1.499 . S
C1145 H1119 0.950 . S
C1145 C1144 1.414 . S
C1145 C1146 1.374 . S
C1146 H1120 0.950 . S
C1146 C1142 1.385 . S
C1146 C1145 1.374 . S
C1147 C1144 1.499 . S
C1147 C1148 1.373 . S
C1147 C1149 1.389 . S
C1148 H1121 0.950 . S
C1148 C1134 1.377 . S
C1148 C1147 1.373 . S
C1149 C1133 1.377 . S
C1149 C1147 1.389 . S
C1149 C1150 1.524 . S
C1150 C1149 1.524 . S
C1150 C1151 1.397 . S
C1150 C1155 1.363 . S
C1151 H1122 0.950 . S
C1151 C1150 1.397 . S
C1151 C1152 1.334 . S
C1152 H1123 0.950 . S
C1152 C1151 1.334 . S
C1152 C1153 1.287 . S
C1153 C1152 1.287 . S
C1153 C1154 1.524 . S
C1153 H1156 0.999 . S
C1154 H1124 0.950 . S
C1154 C1153 1.524 . S
C1154 C1155 1.415 . S
C1155 H1125 0.950 . S
C1155 C1150 1.363 . S
C1155 C1154 1.415 . S
H1156 C1153 0.999 . S
H1157 C1138 0.913 . S
H1158 C1176 0.951 . S
H1159 C1178 0.951 . S
H1160 C1180 0.950 . S
H1161 C1181 0.950 . S
H1162 C1183 0.950 . S
H1163 C1186 0.950 . S
H1164 C1187 0.950 . S
H1165 C1189 0.950 . S
H1166 C1190 0.950 . S
H1167 C1191 0.951 . S
H1168 C1193 0.951 . S
H1169 C1195 0.950 . S
H1170 C1196 0.950 . S
H1171 C1198 0.950 . S
H1172 C1201 0.950 . S
H1173 C1202 0.950 . S
H1174 C1204 0.950 . S
H1175 C1205 0.950 . S
C1176 H1158 0.951 . S
C1176 C1177 1.366 . S
C1176 C1178 1.388 . S
C1177 C1176 1.366 . S
C1177 C1181 1.385 . S
C1178 H1159 0.951 . S
C1178 C1176 1.388 . S
C1178 C1179 1.366 . S
C1179 C1178 1.366 . S
C1179 C1180 1.414 . S
C1179 C1182 1.499 . S
C1180 H1160 0.950 . S
C1180 C1179 1.414 . S
C1180 C1181 1.374 . S
C1181 H1161 0.950 . S
C1181 C1177 1.385 . S
C1181 C1180 1.374 . S
C1182 C1179 1.499 . S
C1182 C1183 1.373 . S
C1182 C1184 1.389 . S
C1183 H1162 0.950 . S
C1183 C1182 1.373 . S
C1183 C1199 1.377 . S
C1184 C1182 1.389 . S
C1184 C1185 1.524 . S
C1184 C1198 1.377 . S
C1185 C1184 1.524 . S
C1185 C1186 1.397 . S
C1185 C1190 1.363 . S
C1186 H1163 0.950 . S
C1186 C1185 1.397 . S
C1186 C1187 1.334 . S
C1187 H1164 0.950 . S
C1187 C1186 1.334 . S
C1187 C1188 1.287 . S
C1188 C1187 1.287 . S
C1188 C1189 1.524 . S
C1188 H1207 0.913 . S
C1189 H1165 0.950 . S
C1189 C1188 1.524 . S
C1189 C1190 1.415 . S
C1190 H1166 0.950 . S
C1190 C1185 1.363 . S
C1190 C1189 1.415 . S
C1191 H1167 0.951 . S
C1191 C1192 1.366 . S
C1191 C1193 1.388 . S
C1192 C1191 1.366 . S
C1192 C1196 1.385 . S
C1193 H1168 0.951 . S
C1193 C1191 1.388 . S
C1193 C1194 1.366 . S
C1194 C1193 1.366 . S
C1194 C1195 1.414 . S
C1194 C1197 1.499 . S
C1195 H1169 0.950 . S
C1195 C1194 1.414 . S
C1195 C1196 1.374 . S
C1196 H1170 0.950 . S
C1196 C1192 1.385 . S
C1196 C1195 1.374 . S
C1197 C1194 1.499 . S
C1197 C1198 1.373 . S
C1197 C1199 1.389 . S
C1198 H1171 0.950 . S
C1198 C1184 1.377 . S
C1198 C1197 1.373 . S
C1199 C1183 1.377 . S
C1199 C1197 1.389 . S
C1199 C1200 1.524 . S
C1200 C1199 1.524 . S
C1200 C1201 1.397 . S
C1200 C1205 1.363 . S
C1201 H1172 0.950 . S
C1201 C1200 1.397 . S
C1201 C1202 1.334 . S
C1202 H1173 0.950 . S
C1202 C1201 1.334 . S
C1202 C1203 1.287 . S
C1203 C1202 1.287 . S
C1203 C1204 1.524 . S
C1203 H1206 0.999 . S
C1204 H1174 0.950 . S
C1204 C1203 1.524 . S
C1204 C1205 1.415 . S
C1205 H1175 0.950 . S
C1205 C1200 1.363 . S
C1205 C1204 1.415 . S
H1206 C1203 0.999 . S
H1207 C1188 0.913 . S
H1208 C1226 0.951 . S
H1209 C1228 0.951 . S
H1210 C1230 0.950 . S
H1211 C1231 0.950 . S
H1212 C1233 0.950 . S
H1213 C1236 0.950 . S
H1214 C1237 0.950 . S
H1215 C1239 0.950 . S
H1216 C1240 0.950 . S
H1217 C1241 0.951 . S
H1218 C1243 0.951 . S
H1219 C1245 0.950 . S
H1220 C1246 0.950 . S
H1221 C1248 0.950 . S
H1222 C1251 0.950 . S
H1223 C1252 0.950 . S
H1224 C1254 0.950 . S
H1225 C1255 0.950 . S
C1226 H1208 0.951 . S
C1226 C1227 1.366 . S
C1226 C1228 1.388 . S
C1227 C1226 1.366 . S
C1227 C1231 1.385 . S
C1228 H1209 0.951 . S
C1228 C1226 1.388 . S
C1228 C1229 1.366 . S
C1229 C1228 1.366 . S
C1229 C1230 1.414 . S
C1229 C1232 1.499 . S
C1230 H1210 0.950 . S
C1230 C1229 1.414 . S
C1230 C1231 1.374 . S
C1231 H1211 0.950 . S
C1231 C1227 1.385 . S
C1231 C1230 1.374 . S
C1232 C1229 1.499 . S
C1232 C1233 1.373 . S
C1232 C1234 1.389 . S
C1233 H1212 0.950 . S
C1233 C1232 1.373 . S
C1233 C1249 1.377 . S
C1234 C1232 1.389 . S
C1234 C1235 1.524 . S
C1234 C1248 1.377 . S
C1235 C1234 1.524 . S
C1235 C1236 1.397 . S
C1235 C1240 1.363 . S
C1236 H1213 0.950 . S
C1236 C1235 1.397 . S
C1236 C1237 1.334 . S
C1237 H1214 0.950 . S
C1237 C1236 1.334 . S
C1237 C1238 1.287 . S
C1238 C1237 1.287 . S
C1238 C1239 1.524 . S
C1238 H1257 0.913 . S
C1239 H1215 0.950 . S
C1239 C1238 1.524 . S
C1239 C1240 1.415 . S
C1240 H1216 0.950 . S
C1240 C1235 1.363 . S
C1240 C1239 1.415 . S
C1241 H1217 0.951 . S
C1241 C1242 1.366 . S
C1241 C1243 1.388 . S
C1242 C1241 1.366 . S
C1242 C1246 1.385 . S
C1243 H1218 0.951 . S
C1243 C1241 1.388 . S
C1243 C1244 1.366 . S
C1244 C1243 1.366 . S
C1244 C1245 1.414 . S
C1244 C1247 1.499 . S
C1245 H1219 0.950 . S
C1245 C1244 1.414 . S
C1245 C1246 1.374 . S
C1246 H1220 0.950 . S
C1246 C1242 1.385 . S
C1246 C1245 1.374 . S
C1247 C1244 1.499 . S
C1247 C1248 1.373 . S
C1247 C1249 1.389 . S
C1248 H1221 0.950 . S
C1248 C1234 1.377 . S
C1248 C1247 1.373 . S
C1249 C1233 1.377 . S
C1249 C1247 1.389 . S
C1249 C1250 1.524 . S
C1250 C1249 1.524 . S
C1250 C1251 1.397 . S
C1250 C1255 1.363 . S
C1251 H1222 0.950 . S
C1251 C1250 1.397 . S
C1251 C1252 1.334 . S
C1252 H1223 0.950 . S
C1252 C1251 1.334 . S
C1252 C1253 1.287 . S
C1253 C1252 1.287 . S
C1253 C1254 1.524 . S
C1253 H1256 0.999 . S
C1254 H1224 0.950 . S
C1254 C1253 1.524 . S
C1254 C1255 1.415 . S
C1255 H1225 0.950 . S
C1255 C1250 1.363 . S
C1255 C1254 1.415 . S
H1256 C1253 0.999 . S
H1257 C1238 0.913 . S
H1258 C1276 0.951 . S
H1259 C1278 0.951 . S
H1260 C1280 0.950 . S
H1261 C1281 0.950 . S
H1262 C1283 0.950 . S
H1263 C1286 0.950 . S
H1264 C1287 0.950 . S
H1265 C1289 0.950 . S
H1266 C1290 0.950 . S
H1267 C1291 0.951 . S
H1268 C1293 0.951 . S
H1269 C1295 0.950 . S
H1270 C1296 0.950 . S
H1271 C1298 0.943 1_554 S
H1272 C1301 0.950 . S
H1273 C1302 0.950 . S
H1274 C1304 0.950 . S
H1275 C1305 0.950 . S
C1276 H1258 0.951 . S
C1276 C1277 1.366 . S
C1276 C1278 1.388 . S
C1277 C1276 1.366 . S
C1277 C1281 1.385 . S
C1278 H1259 0.951 . S
C1278 C1276 1.388 . S
C1278 C1279 1.366 . S
C1279 C1278 1.366 . S
C1279 C1280 1.414 . S
C1279 C1282 1.499 . S
C1280 H1260 0.950 . S
C1280 C1279 1.414 . S
C1280 C1281 1.374 . S
C1281 H1261 0.950 . S
C1281 C1277 1.385 . S
C1281 C1280 1.374 . S
C1282 C1279 1.499 . S
C1282 C1283 1.373 . S
C1282 C1284 1.389 . S
C1283 H1262 0.950 . S
C1283 C1282 1.373 . S
C1283 C1299 1.377 . S
C1284 C1282 1.389 . S
C1284 C1285 1.524 1_556 S
C1284 C1298 1.377 . S
C1285 C1284 1.524 1_554 S
C1285 C1286 1.397 . S
C1285 C1290 1.363 . S
C1286 H1263 0.950 . S
C1286 C1285 1.397 . S
C1286 C1287 1.334 . S
C1287 H1264 0.950 . S
C1287 C1286 1.334 . S
C1287 C1288 1.287 . S
C1288 C1287 1.287 . S
C1288 C1289 1.524 . S
C1288 H1307 0.913 . S
C1289 H1265 0.950 . S
C1289 C1288 1.524 . S
C1289 C1290 1.415 . S
C1290 H1266 0.950 . S
C1290 C1285 1.363 . S
C1290 C1289 1.415 . S
C1291 H1267 0.951 . S
C1291 C1292 1.366 1_554 S
C1291 C1293 1.388 1_554 S
C1292 C1291 1.366 1_556 S
C1292 C1296 1.385 . S
C1293 H1268 0.951 . S
C1293 C1291 1.388 1_556 S
C1293 C1294 1.366 . S
C1294 C1293 1.366 . S
C1294 C1295 1.414 . S
C1294 C1297 1.499 . S
C1295 H1269 0.950 . S
C1295 C1294 1.414 . S
C1295 C1296 1.374 . S
C1296 H1270 0.950 . S
C1296 C1292 1.385 . S
C1296 C1295 1.374 . S
C1297 C1294 1.499 . S
C1297 C1298 1.379 . S
C1297 C1299 1.389 . S
C1298 H1271 0.943 1_556 S
C1298 C1284 1.377 . S
C1298 C1297 1.379 . S
C1299 C1283 1.377 . S
C1299 C1297 1.389 . S
C1299 C1300 1.524 . S
C1300 C1299 1.524 . S
C1300 C1301 1.397 . S
C1300 C1305 1.363 . S
C1301 H1272 0.950 . S
C1301 C1300 1.397 . S
C1301 C1302 1.334 . S
C1302 H1273 0.950 . S
C1302 C1301 1.334 . S
C1302 C1303 1.287 . S
C1303 C1302 1.287 . S
C1303 C1304 1.524 . S
C1303 H1306 0.999 . S
C1304 H1274 0.950 . S
C1304 C1303 1.524 . S
C1304 C1305 1.415 . S
C1305 H1275 0.950 . S
C1305 C1300 1.363 . S
C1305 C1304 1.415 . S
H1306 C1303 0.999 . S
H1307 C1288 0.913 . S
H1308 C1326 0.951 . S
H1309 C1328 0.951 . S
H1310 C1330 0.950 . S
H1311 C1331 0.950 . S
H1312 C1333 0.950 . S
H1313 C1336 0.950 . S
H1314 C1337 0.950 . S
H1315 C1339 0.950 . S
H1316 C1340 0.950 . S
H1317 C1341 0.951 . S
H1318 C1343 0.951 . S
H1319 C1345 0.950 . S
H1320 C1346 0.950 . S
H1321 C1348 0.950 . S
H1322 C1351 0.950 . S
H1323 C1352 0.950 . S
H1324 C1354 0.950 . S
H1325 C1355 0.950 . S
C1326 H1308 0.951 . S
C1326 C1327 1.366 . S
C1326 C1328 1.388 . S
C1327 C1326 1.366 . S
C1327 C1331 1.385 . S
C1328 H1309 0.951 . S
C1328 C1326 1.388 . S
C1328 C1329 1.366 . S
C1329 C1328 1.366 . S
C1329 C1330 1.414 . S
C1329 C1332 1.499 . S
C1330 H1310 0.950 . S
C1330 C1329 1.414 . S
C1330 C1331 1.374 . S
C1331 H1311 0.950 . S
C1331 C1327 1.385 . S
C1331 C1330 1.374 . S
C1332 C1329 1.499 . S
C1332 C1333 1.373 . S
C1332 C1334 1.389 . S
C1333 H1312 0.950 . S
C1333 C1332 1.373 . S
C1333 C1349 1.377 . S
C1334 C1332 1.389 . S
C1334 C1335 1.524 . S
C1334 C1348 1.377 . S
C1335 C1334 1.524 . S
C1335 C1336 1.397 . S
C1335 C1340 1.363 . S
C1336 H1313 0.950 . S
C1336 C1335 1.397 . S
C1336 C1337 1.334 . S
C1337 H1314 0.950 . S
C1337 C1336 1.334 . S
C1337 C1338 1.287 . S
C1338 C1337 1.287 . S
C1338 C1339 1.524 . S
C1338 H1357 0.913 . S
C1339 H1315 0.950 . S
C1339 C1338 1.524 . S
C1339 C1340 1.415 . S
C1340 H1316 0.950 . S
C1340 C1335 1.363 . S
C1340 C1339 1.415 . S
C1341 H1317 0.951 . S
C1341 C1342 1.366 . S
C1341 C1343 1.388 . S
C1342 C1341 1.366 . S
C1342 C1346 1.385 . S
C1343 H1318 0.951 . S
C1343 C1341 1.388 . S
C1343 C1344 1.366 . S
C1344 C1343 1.366 . S
C1344 C1345 1.414 . S
C1344 C1347 1.499 . S
C1345 H1319 0.950 . S
C1345 C1344 1.414 . S
C1345 C1346 1.374 . S
C1346 H1320 0.950 . S
C1346 C1342 1.385 . S
C1346 C1345 1.374 . S
C1347 C1344 1.499 . S
C1347 C1348 1.373 . S
C1347 C1349 1.389 . S
C1348 H1321 0.950 . S
C1348 C1334 1.377 . S
C1348 C1347 1.373 . S
C1349 C1333 1.377 . S
C1349 C1347 1.389 . S
C1349 C1350 1.524 . S
C1350 C1349 1.524 . S
C1350 C1351 1.397 . S
C1350 C1355 1.363 . S
C1351 H1322 0.950 . S
C1351 C1350 1.397 . S
C1351 C1352 1.334 . S
C1352 H1323 0.950 . S
C1352 C1351 1.334 . S
C1352 C1353 1.287 . S
C1353 C1352 1.287 . S
C1353 C1354 1.524 . S
C1353 H1356 0.999 . S
C1354 H1324 0.950 . S
C1354 C1353 1.524 . S
C1354 C1355 1.415 . S
C1355 H1325 0.950 . S
C1355 C1350 1.363 . S
C1355 C1354 1.415 . S
H1356 C1353 0.999 . S
H1357 C1338 0.913 . S
H1358 C1376 0.951 . S
H1359 C1378 0.951 . S
H1360 C1380 0.950 . S
H1361 C1381 0.950 . S
H1362 C1383 0.950 . S
H1363 C1386 0.950 . S
H1364 C1387 0.950 . S
H1365 C1389 0.950 . S
H1366 C1390 0.950 1_556 S
H1367 C1391 0.951 . S
H1368 C1393 0.951 . S
H1369 C1395 0.950 . S
H1370 C1396 0.950 . S
H1371 C1398 0.950 . S
H1372 C1401 0.950 . S
H1373 C1402 0.950 . S
H1374 C1404 0.950 . S
H1375 C1405 0.950 . S
C1376 H1358 0.951 . S
C1376 C1377 1.366 . S
C1376 C1378 1.388 . S
C1377 C1376 1.366 . S
C1377 C1381 1.385 . S
C1378 H1359 0.951 . S
C1378 C1376 1.388 . S
C1378 C1379 1.366 . S
C1379 C1378 1.366 . S
C1379 C1380 1.414 . S
C1379 C1382 1.499 . S
C1380 H1360 0.950 . S
C1380 C1379 1.414 . S
C1380 C1381 1.374 . S
C1381 H1361 0.950 . S
C1381 C1377 1.385 . S
C1381 C1380 1.374 . S
C1382 C1379 1.499 . S
C1382 C1383 1.373 1_554 S
C1382 C1384 1.390 1_554 S
C1383 H1362 0.950 . S
C1383 C1382 1.373 1_556 S
C1383 C1399 1.377 . S
C1384 C1382 1.390 1_556 S
C1384 C1385 1.526 1_556 S
C1384 C1398 1.375 . S
C1385 C1384 1.526 1_554 S
C1385 C1386 1.397 . S
C1385 C1390 1.363 . S
C1386 H1363 0.950 . S
C1386 C1385 1.397 . S
C1386 C1387 1.334 . S
C1387 H1364 0.950 . S
C1387 C1386 1.334 . S
C1387 C1388 1.287 . S
C1388 C1387 1.287 . S
C1388 C1389 1.524 . S
C1388 H1407 0.913 . S
C1389 H1365 0.950 . S
C1389 C1388 1.524 . S
C1389 C1390 1.415 . S
C1390 H1366 0.950 1_554 S
C1390 C1385 1.363 . S
C1390 C1389 1.415 . S
C1391 H1367 0.951 . S
C1391 C1392 1.366 . S
C1391 C1393 1.388 . S
C1392 C1391 1.366 . S
C1392 C1396 1.385 . S
C1393 H1368 0.951 . S
C1393 C1391 1.388 . S
C1393 C1394 1.366 . S
C1394 C1393 1.366 . S
C1394 C1395 1.414 . S
C1394 C1397 1.499 . S
C1395 H1369 0.950 . S
C1395 C1394 1.414 . S
C1395 C1396 1.374 . S
C1396 H1370 0.950 . S
C1396 C1392 1.385 . S
C1396 C1395 1.374 . S
C1397 C1394 1.499 . S
C1397 C1398 1.373 . S
C1397 C1399 1.389 . S
C1398 H1371 0.950 . S
C1398 C1384 1.375 . S
C1398 C1397 1.373 . S
C1399 C1383 1.377 . S
C1399 C1397 1.389 . S
C1399 C1400 1.524 . S
C1400 C1399 1.524 . S
C1400 C1401 1.397 . S
C1400 C1405 1.363 . S
C1401 H1372 0.950 . S
C1401 C1400 1.397 . S
C1401 C1402 1.334 . S
C1402 H1373 0.950 . S
C1402 C1401 1.334 . S
C1402 C1403 1.287 . S
C1403 C1402 1.287 . S
C1403 C1404 1.524 . S
C1403 H1406 0.999 . S
C1404 H1374 0.950 . S
C1404 C1403 1.524 . S
C1404 C1405 1.415 . S
C1405 H1375 0.950 . S
C1405 C1400 1.363 . S
C1405 C1404 1.415 . S
H1406 C1403 0.999 . S
H1407 C1388 0.913 . S
H1408 C1426 0.951 . S
H1409 C1428 0.951 . S
H1410 C1430 0.950 . S
H1411 C1431 0.950 . S
H1412 C1433 0.950 . S
H1413 C1436 0.950 . S
H1414 C1437 0.950 . S
H1415 C1439 0.950 . S
H1416 C1440 0.950 . S
H1417 C1441 0.951 . S
H1418 C1443 0.951 . S
H1419 C1445 0.950 . S
H1420 C1446 0.950 . S
H1421 C1448 0.950 . S
H1422 C1451 0.950 . S
H1423 C1452 0.950 . S
H1424 C1454 0.950 . S
H1425 C1455 0.950 . S
C1426 H1408 0.951 . S
C1426 C1427 1.366 . S
C1426 C1428 1.388 . S
C1427 C1426 1.366 . S
C1427 C1431 1.385 . S
C1428 H1409 0.951 . S
C1428 C1426 1.388 . S
C1428 C1429 1.366 . S
C1429 C1428 1.366 . S
C1429 C1430 1.414 . S
C1429 C1432 1.499 . S
C1430 H1410 0.950 . S
C1430 C1429 1.414 . S
C1430 C1431 1.374 . S
C1431 H1411 0.950 . S
C1431 C1427 1.385 . S
C1431 C1430 1.374 . S
C1432 C1429 1.499 . S
C1432 C1433 1.373 . S
C1432 C1434 1.389 . S
C1433 H1412 0.950 . S
C1433 C1432 1.373 . S
C1433 C1449 1.377 . S
C1434 C1432 1.389 . S
C1434 C1435 1.524 . S
C1434 C1448 1.377 . S
C1435 C1434 1.524 . S
C1435 C1436 1.397 . S
C1435 C1440 1.363 . S
C1436 H1413 0.950 . S
C1436 C1435 1.397 . S
C1436 C1437 1.334 . S
C1437 H1414 0.950 . S
C1437 C1436 1.334 . S
C1437 C1438 1.287 . S
C1438 C1437 1.287 . S
C1438 C1439 1.524 . S
C1438 H1457 0.913 . S
C1439 H1415 0.950 . S
C1439 C1438 1.524 . S
C1439 C1440 1.415 . S
C1440 H1416 0.950 . S
C1440 C1435 1.363 . S
C1440 C1439 1.415 . S
C1441 H1417 0.951 . S
C1441 C1442 1.366 . S
C1441 C1443 1.388 1_556 S
C1442 C1441 1.366 . S
C1442 C1446 1.385 1_556 S
C1443 H1418 0.951 . S
C1443 C1441 1.388 1_554 S
C1443 C1444 1.366 . S
C1444 C1443 1.366 . S
C1444 C1445 1.414 . S
C1444 C1447 1.499 . S
C1445 H1419 0.950 . S
C1445 C1444 1.414 . S
C1445 C1446 1.374 . S
C1446 H1420 0.950 . S
C1446 C1442 1.385 1_554 S
C1446 C1445 1.374 . S
C1447 C1444 1.499 . S
C1447 C1448 1.373 . S
C1447 C1449 1.389 . S
C1448 H1421 0.950 . S
C1448 C1434 1.377 . S
C1448 C1447 1.373 . S
C1449 C1433 1.377 . S
C1449 C1447 1.389 . S
C1449 C1450 1.524 . S
C1450 C1449 1.524 . S
C1450 C1451 1.397 . S
C1450 C1455 1.363 . S
C1451 H1422 0.950 . S
C1451 C1450 1.397 . S
C1451 C1452 1.334 1_554 S
C1452 H1423 0.950 . S
C1452 C1451 1.334 1_556 S
C1452 C1453 1.287 . S
C1453 C1452 1.287 . S
C1453 C1454 1.524 . S
C1453 H1456 0.999 . S
C1454 H1424 0.950 . S
C1454 C1453 1.524 . S
C1454 C1455 1.415 1_556 S
C1455 H1425 0.950 . S
C1455 C1450 1.363 . S
C1455 C1454 1.415 1_554 S
H1456 C1453 0.999 . S
H1457 C1438 0.913 . S
H1458 C1476 0.951 . S
H1459 C1478 0.951 . S
H1460 C1480 0.950 . S
H1461 C1481 0.950 . S
H1462 C1483 0.950 . S
H1463 C1486 0.950 . S
H1464 C1487 0.950 . S
H1465 C1489 0.950 . S
H1466 C1490 0.950 . S
H1467 C1491 0.951 . S
H1468 C1493 0.951 . S
H1469 C1495 0.950 . S
H1470 C1496 0.950 . S
H1471 C1498 0.950 . S
H1472 C1501 0.950 . S
H1473 C1502 0.950 . S
H1474 C1504 0.950 . S
H1475 C1505 0.950 . S
C1476 H1458 0.951 . S
C1476 C1477 1.366 . S
C1476 C1478 1.388 . S
C1477 C1476 1.366 . S
C1477 C1481 1.385 . S
C1478 H1459 0.951 . S
C1478 C1476 1.388 . S
C1478 C1479 1.366 . S
C1479 C1478 1.366 . S
C1479 C1480 1.414 . S
C1479 C1482 1.499 . S
C1480 H1460 0.950 . S
C1480 C1479 1.414 . S
C1480 C1481 1.374 . S
C1481 H1461 0.950 . S
C1481 C1477 1.385 . S
C1481 C1480 1.374 . S
C1482 C1479 1.499 . S
C1482 C1483 1.373 . S
C1482 C1484 1.389 . S
C1483 H1462 0.950 . S
C1483 C1482 1.373 . S
C1483 C1499 1.377 . S
C1484 C1482 1.389 . S
C1484 C1485 1.524 . S
C1484 C1498 1.377 . S
C1485 C1484 1.524 . S
C1485 C1486 1.397 . S
C1485 C1490 1.363 . S
C1486 H1463 0.950 . S
C1486 C1485 1.397 . S
C1486 C1487 1.334 . S
C1487 H1464 0.950 . S
C1487 C1486 1.334 . S
C1487 C1488 1.287 . S
C1488 C1487 1.287 . S
C1488 C1489 1.524 . S
C1488 H1507 0.913 . S
C1489 H1465 0.950 . S
C1489 C1488 1.524 . S
C1489 C1490 1.415 . S
C1490 H1466 0.950 . S
C1490 C1485 1.363 . S
C1490 C1489 1.415 . S
C1491 H1467 0.951 . S
C1491 C1492 1.366 . S
C1491 C1493 1.388 . S
C1492 C1491 1.366 . S
C1492 C1496 1.385 . S
C1493 H1468 0.951 . S
C1493 C1491 1.388 . S
C1493 C1494 1.366 . S
C1494 C1493 1.366 . S
C1494 C1495 1.414 . S
C1494 C1497 1.499 . S
C1495 H1469 0.950 . S
C1495 C1494 1.414 . S
C1495 C1496 1.374 . S
C1496 H1470 0.950 . S
C1496 C1492 1.385 . S
C1496 C1495 1.374 . S
C1497 C1494 1.499 . S
C1497 C1498 1.373 . S
C1497 C1499 1.389 . S
C1498 H1471 0.950 . S
C1498 C1484 1.377 . S
C1498 C1497 1.373 . S
C1499 C1483 1.377 . S
C1499 C1497 1.389 . S
C1499 C1500 1.524 . S
C1500 C1499 1.524 . S
C1500 C1501 1.397 . S
C1500 C1505 1.363 . S
C1501 H1472 0.950 . S
C1501 C1500 1.397 . S
C1501 C1502 1.334 . S
C1502 H1473 0.950 . S
C1502 C1501 1.334 . S
C1502 C1503 1.287 . S
C1503 C1502 1.287 . S
C1503 C1504 1.524 . S
C1503 H1506 0.999 . S
C1504 H1474 0.950 . S
C1504 C1503 1.524 . S
C1504 C1505 1.415 . S
C1505 H1475 0.950 . S
C1505 C1500 1.363 . S
C1505 C1504 1.415 . S
H1506 C1503 0.999 . S
H1507 C1488 0.913 . S
H1508 C1526 0.951 . S
H1509 C1528 0.951 . S
H1510 C1530 0.950 . S
H1511 C1531 0.950 . S
H1512 C1533 0.950 . S
H1513 C1536 0.950 . S
H1514 C1537 0.950 . S
H1515 C1539 0.950 . S
H1516 C1540 0.950 . S
H1517 C1541 0.951 . S
H1518 C1543 0.951 . S
H1519 C1545 0.950 . S
H1520 C1546 0.950 . S
H1521 C1548 0.950 . S
H1522 C1551 0.950 . S
H1523 C1552 0.950 . S
H1524 C1554 0.950 . S
H1525 C1555 0.950 . S
C1526 H1508 0.951 . S
C1526 C1527 1.366 . S
C1526 C1528 1.388 . S
C1527 C1526 1.366 . S
C1527 C1531 1.385 . S
C1528 H1509 0.951 . S
C1528 C1526 1.388 . S
C1528 C1529 1.366 . S
C1529 C1528 1.366 . S
C1529 C1530 1.414 . S
C1529 C1532 1.499 . S
C1530 H1510 0.950 . S
C1530 C1529 1.414 . S
C1530 C1531 1.374 . S
C1531 H1511 0.950 . S
C1531 C1527 1.385 . S
C1531 C1530 1.374 . S
C1532 C1529 1.499 . S
C1532 C1533 1.373 . S
C1532 C1534 1.389 . S
C1533 H1512 0.950 . S
C1533 C1532 1.373 . S
C1533 C1549 1.377 . S
C1534 C1532 1.389 . S
C1534 C1535 1.524 . S
C1534 C1548 1.377 . S
C1535 C1534 1.524 . S
C1535 C1536 1.397 . S
C1535 C1540 1.363 . S
C1536 H1513 0.950 . S
C1536 C1535 1.397 . S
C1536 C1537 1.334 . S
C1537 H1514 0.950 . S
C1537 C1536 1.334 . S
C1537 C1538 1.287 . S
C1538 C1537 1.287 . S
C1538 C1539 1.524 . S
C1538 H1557 0.913 . S
C1539 H1515 0.950 . S
C1539 C1538 1.524 . S
C1539 C1540 1.415 . S
C1540 H1516 0.950 . S
C1540 C1535 1.363 . S
C1540 C1539 1.415 . S
C1541 H1517 0.951 . S
C1541 C1542 1.366 . S
C1541 C1543 1.388 . S
C1542 C1541 1.366 . S
C1542 C1546 1.385 . S
C1543 H1518 0.951 . S
C1543 C1541 1.388 . S
C1543 C1544 1.366 . S
C1544 C1543 1.366 . S
C1544 C1545 1.414 . S
C1544 C1547 1.499 . S
C1545 H1519 0.950 . S
C1545 C1544 1.414 . S
C1545 C1546 1.374 . S
C1546 H1520 0.950 . S
C1546 C1542 1.385 . S
C1546 C1545 1.374 . S
C1547 C1544 1.499 . S
C1547 C1548 1.373 . S
C1547 C1549 1.389 . S
C1548 H1521 0.950 . S
C1548 C1534 1.377 . S
C1548 C1547 1.373 . S
C1549 C1533 1.377 . S
C1549 C1547 1.389 . S
C1549 C1550 1.524 . S
C1550 C1549 1.524 . S
C1550 C1551 1.397 . S
C1550 C1555 1.363 . S
C1551 H1522 0.950 . S
C1551 C1550 1.397 . S
C1551 C1552 1.334 . S
C1552 H1523 0.950 . S
C1552 C1551 1.334 . S
C1552 C1553 1.287 . S
C1553 C1552 1.287 . S
C1553 C1554 1.524 . S
C1553 H1556 0.999 . S
C1554 H1524 0.950 . S
C1554 C1553 1.524 . S
C1554 C1555 1.415 . S
C1555 H1525 0.950 . S
C1555 C1550 1.363 . S
C1555 C1554 1.415 . S
H1556 C1553 0.999 . S
H1557 C1538 0.913 . S
H1558 C1576 0.951 . S
H1559 C1578 0.951 . S
H1560 C1580 0.950 . S
H1561 C1581 0.950 . S
H1562 C1583 0.950 . S
H1563 C1586 0.950 . S
H1564 C1587 0.950 . S
H1565 C1589 0.950 . S
H1566 C1590 0.950 . S
H1567 C1591 0.951 . S
H1568 C1593 0.951 . S
H1569 C1595 0.950 . S
H1570 C1596 0.950 . S
H1571 C1598 0.950 . S
H1572 C1601 0.950 . S
H1573 C1602 0.950 . S
H1574 C1604 0.950 . S
H1575 C1605 0.950 . S
C1576 H1558 0.951 . S
C1576 C1577 1.366 . S
C1576 C1578 1.388 . S
C1577 C1576 1.366 . S
C1577 C1581 1.385 . S
C1578 H1559 0.951 . S
C1578 C1576 1.388 . S
C1578 C1579 1.366 . S
C1579 C1578 1.366 . S
C1579 C1580 1.414 . S
C1579 C1582 1.499 . S
C1580 H1560 0.950 . S
C1580 C1579 1.414 . S
C1580 C1581 1.374 . S
C1581 H1561 0.950 . S
C1581 C1577 1.385 . S
C1581 C1580 1.374 . S
C1582 C1579 1.499 . S
C1582 C1583 1.373 . S
C1582 C1584 1.389 . S
C1583 H1562 0.950 . S
C1583 C1582 1.373 . S
C1583 C1599 1.377 . S
C1584 C1582 1.389 . S
C1584 C1585 1.524 . S
C1584 C1598 1.377 . S
C1585 C1584 1.524 . S
C1585 C1586 1.397 . S
C1585 C1590 1.363 . S
C1586 H1563 0.950 . S
C1586 C1585 1.397 . S
C1586 C1587 1.334 . S
C1587 H1564 0.950 . S
C1587 C1586 1.334 . S
C1587 C1588 1.287 . S
C1588 C1587 1.287 . S
C1588 C1589 1.524 . S
C1588 H1607 0.913 . S
C1589 H1565 0.950 . S
C1589 C1588 1.524 . S
C1589 C1590 1.415 . S
C1590 H1566 0.950 . S
C1590 C1585 1.363 . S
C1590 C1589 1.415 . S
C1591 H1567 0.951 . S
C1591 C1592 1.366 . S
C1591 C1593 1.388 . S
C1592 C1591 1.366 . S
C1592 C1596 1.385 . S
C1593 H1568 0.951 . S
C1593 C1591 1.388 . S
C1593 C1594 1.366 . S
C1594 C1593 1.366 . S
C1594 C1595 1.414 . S
C1594 C1597 1.499 . S
C1595 H1569 0.950 . S
C1595 C1594 1.414 . S
C1595 C1596 1.374 . S
C1596 H1570 0.950 . S
C1596 C1592 1.385 . S
C1596 C1595 1.374 . S
C1597 C1594 1.499 . S
C1597 C1598 1.373 . S
C1597 C1599 1.389 . S
C1598 H1571 0.950 . S
C1598 C1584 1.377 . S
C1598 C1597 1.373 . S
C1599 C1583 1.377 . S
C1599 C1597 1.389 . S
C1599 C1600 1.524 . S
C1600 C1599 1.524 . S
C1600 C1601 1.397 . S
C1600 C1605 1.363 . S
C1601 H1572 0.950 . S
C1601 C1600 1.397 . S
C1601 C1602 1.334 . S
C1602 H1573 0.950 . S
C1602 C1601 1.334 . S
C1602 C1603 1.287 . S
C1603 C1602 1.287 . S
C1603 C1604 1.524 . S
C1603 H1606 0.999 . S
C1604 H1574 0.950 . S
C1604 C1603 1.524 . S
C1604 C1605 1.415 . S
C1605 H1575 0.950 . S
C1605 C1600 1.363 . S
C1605 C1604 1.415 . S
H1606 C1603 0.999 . S
H1607 C1588 0.913 . S
H1608 C1626 0.951 . S
H1609 C1628 0.951 . S
H1610 C1630 0.950 . S
H1611 C1631 0.950 1_554 S
H1612 C1633 0.950 . S
H1613 C1636 0.950 . S
H1614 C1637 0.948 . S
H1615 C1639 0.950 . S
H1616 C1640 0.950 . S
H1617 C1641 0.951 . S
H1618 C1643 0.951 . S
H1619 C1645 0.950 . S
H1620 C1646 0.950 . S
H1621 C1648 0.950 . S
H1622 C1651 0.950 . S
H1623 C1652 0.950 . S
H1624 C1654 0.950 . S
H1625 C1655 0.950 . S
C1626 H1608 0.951 . S
C1626 C1627 1.366 . S
C1626 C1628 1.388 . S
C1627 C1626 1.366 . S
C1627 C1631 1.385 . S
C1628 H1609 0.951 . S
C1628 C1626 1.388 . S
C1628 C1629 1.366 . S
C1629 C1628 1.366 . S
C1629 C1630 1.414 . S
C1629 C1632 1.499 . S
C1630 H1610 0.950 . S
C1630 C1629 1.414 . S
C1630 C1631 1.374 . S
C1631 H1611 0.950 1_556 S
C1631 C1627 1.385 . S
C1631 C1630 1.374 . S
C1632 C1629 1.499 . S
C1632 C1633 1.373 . S
C1632 C1634 1.389 . S
C1633 H1612 0.950 . S
C1633 C1632 1.373 . S
C1633 C1649 1.377 1_455 S
C1634 C1632 1.389 . S
C1634 C1635 1.524 . S
C1634 C1648 1.377 1_455 S
C1635 C1634 1.524 . S
C1635 C1636 1.397 . S
C1635 C1640 1.363 . S
C1636 H1613 0.950 . S
C1636 C1635 1.397 . S
C1636 C1637 1.334 . S
C1637 H1614 0.948 . S
C1637 C1636 1.334 . S
C1637 C1638 1.287 . S
C1638 C1637 1.287 . S
C1638 C1639 1.524 . S
C1638 H1657 0.913 . S
C1639 H1615 0.950 . S
C1639 C1638 1.524 . S
C1639 C1640 1.415 . S
C1640 H1616 0.950 . S
C1640 C1635 1.363 . S
C1640 C1639 1.415 . S
C1641 H1617 0.951 . S
C1641 C1642 1.366 . S
C1641 C1643 1.388 . S
C1642 C1641 1.366 . S
C1642 C1646 1.385 . S
C1643 H1618 0.951 . S
C1643 C1641 1.388 . S
C1643 C1644 1.366 . S
C1644 C1643 1.366 . S
C1644 C1645 1.414 . S
C1644 C1647 1.499 . S
C1645 H1619 0.950 . S
C1645 C1644 1.414 . S
C1645 C1646 1.374 . S
C1646 H1620 0.950 . S
C1646 C1642 1.385 . S
C1646 C1645 1.374 . S
C1647 C1644 1.499 . S
C1647 C1648 1.373 . S
C1647 C1649 1.389 . S
C1648 H1621 0.950 . S
C1648 C1634 1.377 1_655 S
C1648 C1647 1.373 . S
C1649 C1633 1.377 1_655 S
C1649 C1647 1.389 . S
C1649 C1650 1.524 . S
C1650 C1649 1.524 . S
C1650 C1651 1.397 . S
C1650 C1655 1.363 . S
C1651 H1622 0.950 . S
C1651 C1650 1.397 . S
C1651 C1652 1.334 . S
C1652 H1623 0.950 . S
C1652 C1651 1.334 . S
C1652 C1653 1.287 . S
C1653 C1652 1.287 . S
C1653 C1654 1.524 . S
C1653 H1656 0.999 . S
C1654 H1624 0.950 . S
C1654 C1653 1.524 . S
C1654 C1655 1.415 . S
C1655 H1625 0.950 . S
C1655 C1650 1.363 . S
C1655 C1654 1.415 . S
H1656 C1653 0.999 . S
H1657 C1638 0.913 . S
H1658 C1676 0.951 . S
H1659 C1678 0.951 . S
H1660 C1680 0.950 . S
H1661 C1681 0.950 . S
H1662 C1683 0.950 . S
H1663 C1686 0.950 1_556 S
H1664 C1687 0.950 1_556 S
H1665 C1689 0.950 . S
H1666 C1690 0.950 . S
H1667 C1691 0.951 . S
H1668 C1693 0.951 . S
H1669 C1695 0.950 . S
H1670 C1696 0.950 . S
H1671 C1698 0.950 . S
H1672 C1701 0.950 . S
H1673 C1702 0.950 . S
H1674 C1704 0.950 . S
H1675 C1705 0.935 1_556 S
C1676 H1658 0.951 . S
C1676 C1677 1.366 1_554 S
C1676 C1678 1.388 . S
C1677 C1676 1.366 1_556 S
C1677 C1681 1.385 . S
C1678 H1659 0.951 . S
C1678 C1676 1.388 . S
C1678 C1679 1.366 . S
C1679 C1678 1.366 . S
C1679 C1680 1.414 1_554 S
C1679 C1682 1.499 . S
C1680 H1660 0.950 . S
C1680 C1679 1.414 1_556 S
C1680 C1681 1.374 . S
C1681 H1661 0.950 . S
C1681 C1677 1.385 . S
C1681 C1680 1.374 . S
C1682 C1679 1.499 . S
C1682 C1683 1.373 . S
C1682 C1684 1.389 . S
C1683 H1662 0.950 . S
C1683 C1682 1.373 . S
C1683 C1699 1.377 1_565 S
C1684 C1682 1.389 . S
C1684 C1685 1.524 . S
C1684 C1698 1.377 1_565 S
C1685 C1684 1.524 . S
C1685 C1686 1.397 . S
C1685 C1690 1.363 . S
C1686 H1663 0.950 1_554 S
C1686 C1685 1.397 . S
C1686 C1687 1.334 . S
C1687 H1664 0.950 1_554 S
C1687 C1686 1.334 . S
C1687 C1688 1.287 . S
C1688 C1687 1.287 . S
C1688 C1689 1.524 . S
C1688 H1707 0.913 . S
C1689 H1665 0.950 . S
C1689 C1688 1.524 . S
C1689 C1690 1.415 . S
C1690 H1666 0.950 . S
C1690 C1685 1.363 . S
C1690 C1689 1.415 . S
C1691 H1667 0.951 . S
C1691 C1692 1.366 . S
C1691 C1693 1.388 . S
C1692 C1691 1.366 . S
C1692 C1696 1.385 . S
C1693 H1668 0.951 . S
C1693 C1691 1.388 . S
C1693 C1694 1.366 . S
C1694 C1693 1.366 . S
C1694 C1695 1.414 . S
C1694 C1697 1.499 . S
C1695 H1669 0.950 . S
C1695 C1694 1.414 . S
C1695 C1696 1.374 . S
C1696 H1670 0.950 . S
C1696 C1692 1.385 . S
C1696 C1695 1.374 . S
C1697 C1694 1.499 . S
C1697 C1698 1.373 . S
C1697 C1699 1.389 . S
C1698 H1671 0.950 . S
C1698 C1684 1.377 1_545 S
C1698 C1697 1.373 . S
C1699 C1683 1.377 1_545 S
C1699 C1697 1.389 . S
C1699 C1700 1.524 . S
C1700 C1699 1.524 . S
C1700 C1701 1.397 . S
C1700 C1705 1.381 . S
C1701 H1672 0.950 . S
C1701 C1700 1.397 . S
C1701 C1702 1.334 . S
C1702 H1673 0.950 . S
C1702 C1701 1.334 . S
C1702 C1703 1.287 . S
C1703 C1702 1.287 . S
C1703 C1704 1.524 1_554 S
C1703 H1706 0.999 . S
C1704 H1674 0.950 . S
C1704 C1703 1.524 1_556 S
C1704 C1705 1.413 1_556 S
C1705 H1675 0.935 1_554 S
C1705 C1700 1.381 . S
C1705 C1704 1.413 1_554 S
H1706 C1703 0.999 . S
H1707 C1688 0.913 . S
H1708 C1726 0.951 . S
H1709 C1728 0.951 . S
H1710 C1730 0.950 . S
H1711 C1731 0.950 . S
H1712 C1733 0.950 . S
H1713 C1736 0.950 . S
H1714 C1737 0.950 . S
H1715 C1739 0.950 . S
H1716 C1740 0.950 . S
H1717 C1741 0.951 . S
H1718 C1743 0.951 . S
H1719 C1745 0.950 . S
H1720 C1746 0.950 . S
H1721 C1748 0.950 . S
H1722 C1751 0.950 . S
H1723 C1752 0.950 . S
H1724 C1754 0.950 . S
H1725 C1755 0.950 . S
C1726 H1708 0.951 . S
C1726 C1727 1.366 . S
C1726 C1728 1.388 . S
C1727 C1726 1.366 . S
C1727 C1731 1.385 . S
C1728 H1709 0.951 . S
C1728 C1726 1.388 . S
C1728 C1729 1.366 . S
C1729 C1728 1.366 . S
C1729 C1730 1.414 . S
C1729 C1732 1.499 . S
C1730 H1710 0.950 . S
C1730 C1729 1.414 . S
C1730 C1731 1.374 . S
C1731 H1711 0.950 . S
C1731 C1727 1.385 . S
C1731 C1730 1.374 . S
C1732 C1729 1.499 . S
C1732 C1733 1.373 . S
C1732 C1734 1.389 . S
C1733 H1712 0.950 . S
C1733 C1732 1.373 . S
C1733 C1749 1.377 . S
C1734 C1732 1.389 . S
C1734 C1735 1.524 . S
C1734 C1748 1.377 . S
C1735 C1734 1.524 . S
C1735 C1736 1.397 . S
C1735 C1740 1.363 . S
C1736 H1713 0.950 . S
C1736 C1735 1.397 . S
C1736 C1737 1.334 . S
C1737 H1714 0.950 . S
C1737 C1736 1.334 . S
C1737 C1738 1.287 . S
C1738 C1737 1.287 . S
C1738 C1739 1.524 . S
C1738 H1757 0.913 . S
C1739 H1715 0.950 . S
C1739 C1738 1.524 . S
C1739 C1740 1.415 . S
C1740 H1716 0.950 . S
C1740 C1735 1.363 . S
C1740 C1739 1.415 . S
C1741 H1717 0.951 . S
C1741 C1742 1.366 . S
C1741 C1743 1.388 . S
C1742 C1741 1.366 . S
C1742 C1746 1.385 . S
C1743 H1718 0.951 . S
C1743 C1741 1.388 . S
C1743 C1744 1.366 . S
C1744 C1743 1.366 . S
C1744 C1745 1.414 . S
C1744 C1747 1.499 . S
C1745 H1719 0.950 . S
C1745 C1744 1.414 . S
C1745 C1746 1.374 . S
C1746 H1720 0.950 . S
C1746 C1742 1.385 . S
C1746 C1745 1.374 . S
C1747 C1744 1.499 . S
C1747 C1748 1.373 . S
C1747 C1749 1.389 . S
C1748 H1721 0.950 . S
C1748 C1734 1.377 . S
C1748 C1747 1.373 . S
C1749 C1733 1.377 . S
C1749 C1747 1.389 . S
C1749 C1750 1.524 . S
C1750 C1749 1.524 . S
C1750 C1751 1.397 . S
C1750 C1755 1.363 . S
C1751 H1722 0.950 . S
C1751 C1750 1.397 . S
C1751 C1752 1.334 . S
C1752 H1723 0.950 . S
C1752 C1751 1.334 . S
C1752 C1753 1.287 . S
C1753 C1752 1.287 . S
C1753 C1754 1.524 . S
C1753 H1756 0.999 . S
C1754 H1724 0.950 . S
C1754 C1753 1.524 . S
C1754 C1755 1.415 . S
C1755 H1725 0.950 . S
C1755 C1750 1.363 . S
C1755 C1754 1.415 . S
H1756 C1753 0.999 . S
H1757 C1738 0.913 . S
H1758 C1776 0.951 . S
H1759 C1778 0.951 . S
H1760 C1780 0.950 . S
H1761 C1781 0.950 . S
H1762 C1783 0.950 . S
H1763 C1786 0.950 . S
H1764 C1787 0.950 . S
H1765 C1789 0.919 1_655 S
H1766 C1790 0.950 . S
H1767 C1791 0.951 . S
H1768 C1793 0.951 . S
H1769 C1795 0.950 . S
H1770 C1796 0.950 . S
H1771 C1798 0.950 . S
H1772 C1801 0.950 . S
H1773 C1802 0.950 . S
H1774 C1804 0.946 . S
H1775 C1805 0.950 . S
C1776 H1758 0.951 . S
C1776 C1777 1.366 . S
C1776 C1778 1.388 . S
C1777 C1776 1.366 . S
C1777 C1781 1.385 . S
C1778 H1759 0.951 . S
C1778 C1776 1.388 . S
C1778 C1779 1.366 . S
C1779 C1778 1.366 . S
C1779 C1780 1.414 . S
C1779 C1782 1.499 . S
C1780 H1760 0.950 . S
C1780 C1779 1.414 . S
C1780 C1781 1.374 . S
C1781 H1761 0.950 . S
C1781 C1777 1.385 . S
C1781 C1780 1.374 . S
C1782 C1779 1.499 . S
C1782 C1783 1.373 . S
C1782 C1784 1.389 . S
C1783 H1762 0.950 . S
C1783 C1782 1.373 . S
C1783 C1799 1.377 1_455 S
C1784 C1782 1.389 . S
C1784 C1785 1.524 . S
C1784 C1798 1.377 1_455 S
C1785 C1784 1.524 . S
C1785 C1786 1.397 . S
C1785 C1790 1.363 1_455 S
C1786 H1763 0.950 . S
C1786 C1785 1.397 . S
C1786 C1787 1.334 . S
C1787 H1764 0.950 . S
C1787 C1786 1.334 . S
C1787 C1788 1.287 . S
C1788 C1787 1.287 . S
C1788 C1789 1.548 . S
C1788 H1807 0.913 . S
C1789 H1765 0.919 1_455 S
C1789 C1788 1.548 . S
C1789 C1790 1.428 1_455 S
C1790 H1766 0.950 . S
C1790 C1785 1.363 1_655 S
C1790 C1789 1.428 1_655 S
C1791 H1767 0.951 . S
C1791 C1792 1.366 . S
C1791 C1793 1.388 . S
C1792 C1791 1.366 . S
C1792 C1796 1.385 . S
C1793 H1768 0.951 . S
C1793 C1791 1.388 . S
C1793 C1794 1.366 . S
C1794 C1793 1.366 . S
C1794 C1795 1.414 . S
C1794 C1797 1.499 . S
C1795 H1769 0.950 . S
C1795 C1794 1.414 . S
C1795 C1796 1.374 . S
C1796 H1770 0.950 . S
C1796 C1792 1.385 . S
C1796 C1795 1.374 . S
C1797 C1794 1.499 . S
C1797 C1798 1.373 . S
C1797 C1799 1.389 . S
C1798 H1771 0.950 . S
C1798 C1784 1.377 1_655 S
C1798 C1797 1.373 . S
C1799 C1783 1.377 1_655 S
C1799 C1797 1.389 . S
C1799 C1800 1.524 . S
C1800 C1799 1.524 . S
C1800 C1801 1.397 . S
C1800 C1805 1.363 1_655 S
C1801 H1772 0.950 . S
C1801 C1800 1.397 . S
C1801 C1802 1.334 . S
C1802 H1773 0.950 . S
C1802 C1801 1.334 . S
C1802 C1803 1.287 . S
C1803 C1802 1.287 . S
C1803 C1804 1.526 1_655 S
C1803 H1806 0.999 . S
C1804 H1774 0.946 . S
C1804 C1803 1.526 1_455 S
C1804 C1805 1.416 . S
C1805 H1775 0.950 . S
C1805 C1800 1.363 1_455 S
C1805 C1804 1.416 . S
H1806 C1803 0.999 . S
H1807 C1788 0.913 . S
H1808 C1826 0.951 . S
H1809 C1828 0.951 . S
H1810 C1830 0.950 . S
H1811 C1831 0.950 . S
H1812 C1833 0.950 . S
H1813 C1836 0.950 . S
H1814 C1837 0.950 . S
H1815 C1839 0.950 . S
H1816 C1840 0.950 . S
H1817 C1841 0.951 . S
H1818 C1843 0.951 . S
H1819 C1845 0.950 . S
H1820 C1846 0.950 . S
H1821 C1848 0.950 . S
H1822 C1851 0.950 . S
H1823 C1852 0.950 . S
H1824 C1854 0.950 . S
H1825 C1855 0.950 . S
C1826 H1808 0.951 . S
C1826 C1827 1.366 . S
C1826 C1828 1.388 . S
C1827 C1826 1.366 . S
C1827 C1831 1.385 . S
C1828 H1809 0.951 . S
C1828 C1826 1.388 . S
C1828 C1829 1.366 . S
C1829 C1828 1.366 . S
C1829 C1830 1.414 . S
C1829 C1832 1.499 . S
C1830 H1810 0.950 . S
C1830 C1829 1.414 . S
C1830 C1831 1.374 . S
C1831 H1811 0.950 . S
C1831 C1827 1.385 . S
C1831 C1830 1.374 . S
C1832 C1829 1.499 . S
C1832 C1833 1.373 . S
C1832 C1834 1.389 . S
C1833 H1812 0.950 . S
C1833 C1832 1.373 . S
C1833 C1849 1.377 1_545 S
C1834 C1832 1.389 . S
C1834 C1835 1.524 . S
C1834 C1848 1.377 1_545 S
C1835 C1834 1.524 . S
C1835 C1836 1.397 . S
C1835 C1840 1.363 . S
C1836 H1813 0.950 . S
C1836 C1835 1.397 . S
C1836 C1837 1.334 . S
C1837 H1814 0.950 . S
C1837 C1836 1.334 . S
C1837 C1838 1.287 . S
C1838 C1837 1.287 . S
C1838 C1839 1.524 . S
C1838 H1857 0.913 . S
C1839 H1815 0.950 . S
C1839 C1838 1.524 . S
C1839 C1840 1.415 . S
C1840 H1816 0.950 . S
C1840 C1835 1.363 . S
C1840 C1839 1.415 . S
C1841 H1817 0.951 . S
C1841 C1842 1.366 . S
C1841 C1843 1.388 . S
C1842 C1841 1.366 . S
C1842 C1846 1.385 . S
C1843 H1818 0.951 . S
C1843 C1841 1.388 . S
C1843 C1844 1.366 . S
C1844 C1843 1.366 . S
C1844 C1845 1.414 . S
C1844 C1847 1.499 . S
C1845 H1819 0.950 . S
C1845 C1844 1.414 . S
C1845 C1846 1.374 . S
C1846 H1820 0.950 . S
C1846 C1842 1.385 . S
C1846 C1845 1.374 . S
C1847 C1844 1.499 . S
C1847 C1848 1.373 . S
C1847 C1849 1.389 . S
C1848 H1821 0.950 . S
C1848 C1834 1.377 1_565 S
C1848 C1847 1.373 . S
C1849 C1833 1.377 1_565 S
C1849 C1847 1.389 . S
C1849 C1850 1.524 . S
C1850 C1849 1.524 . S
C1850 C1851 1.397 . S
C1850 C1855 1.363 . S
C1851 H1822 0.950 . S
C1851 C1850 1.397 . S
C1851 C1852 1.334 . S
C1852 H1823 0.950 . S
C1852 C1851 1.334 . S
C1852 C1853 1.287 . S
C1853 C1852 1.287 . S
C1853 C1854 1.524 . S
C1853 H1856 0.999 . S
C1854 H1824 0.950 . S
C1854 C1853 1.524 . S
C1854 C1855 1.415 . S
C1855 H1825 0.950 . S
C1855 C1850 1.363 . S
C1855 C1854 1.415 . S
H1856 C1853 0.999 . S
H1857 C1838 0.913 . S
H1858 C1876 0.951 . S
H1859 C1878 0.951 . S
H1860 C1880 0.950 . S
H1861 C1881 0.950 . S
H1862 C1883 0.950 . S
H1863 C1886 0.950 . S
H1864 C1887 0.950 . S
H1865 C1889 0.950 . S
H1866 C1890 0.950 . S
H1867 C1891 0.951 . S
H1868 C1893 0.951 . S
H1869 C1895 0.950 . S
H1870 C1896 0.950 . S
H1871 C1898 0.950 . S
H1872 C1901 0.950 . S
H1873 C1902 0.950 . S
H1874 C1904 0.950 . S
H1875 C1905 0.950 . S
C1876 H1858 0.951 . S
C1876 C1877 1.366 . S
C1876 C1878 1.388 . S
C1877 C1876 1.366 . S
C1877 C1881 1.385 . S
C1878 H1859 0.951 . S
C1878 C1876 1.388 . S
C1878 C1879 1.366 . S
C1879 C1878 1.366 . S
C1879 C1880 1.414 . S
C1879 C1882 1.499 . S
C1880 H1860 0.950 . S
C1880 C1879 1.414 . S
C1880 C1881 1.374 . S
C1881 H1861 0.950 . S
C1881 C1877 1.385 . S
C1881 C1880 1.374 . S
C1882 C1879 1.499 . S
C1882 C1883 1.373 . S
C1882 C1884 1.389 . S
C1883 H1862 0.950 . S
C1883 C1882 1.373 . S
C1883 C1899 1.377 . S
C1884 C1882 1.389 . S
C1884 C1885 1.524 . S
C1884 C1898 1.377 . S
C1885 C1884 1.524 . S
C1885 C1886 1.397 . S
C1885 C1890 1.363 . S
C1886 H1863 0.950 . S
C1886 C1885 1.397 . S
C1886 C1887 1.334 . S
C1887 H1864 0.950 . S
C1887 C1886 1.334 . S
C1887 C1888 1.287 . S
C1888 C1887 1.287 . S
C1888 C1889 1.524 . S
C1888 H1907 0.913 . S
C1889 H1865 0.950 . S
C1889 C1888 1.524 . S
C1889 C1890 1.415 . S
C1890 H1866 0.950 . S
C1890 C1885 1.363 . S
C1890 C1889 1.415 . S
C1891 H1867 0.951 . S
C1891 C1892 1.366 . S
C1891 C1893 1.388 . S
C1892 C1891 1.366 . S
C1892 C1896 1.385 . S
C1893 H1868 0.951 . S
C1893 C1891 1.388 . S
C1893 C1894 1.366 . S
C1894 C1893 1.366 . S
C1894 C1895 1.414 . S
C1894 C1897 1.499 . S
C1895 H1869 0.950 . S
C1895 C1894 1.414 . S
C1895 C1896 1.374 . S
C1896 H1870 0.950 . S
C1896 C1892 1.385 . S
C1896 C1895 1.374 . S
C1897 C1894 1.499 . S
C1897 C1898 1.373 . S
C1897 C1899 1.389 . S
C1898 H1871 0.950 . S
C1898 C1884 1.377 . S
C1898 C1897 1.373 . S
C1899 C1883 1.377 . S
C1899 C1897 1.389 . S
C1899 C1900 1.524 . S
C1900 C1899 1.524 . S
C1900 C1901 1.397 . S
C1900 C1905 1.363 . S
C1901 H1872 0.950 . S
C1901 C1900 1.397 . S
C1901 C1902 1.334 . S
C1902 H1873 0.950 . S
C1902 C1901 1.334 . S
C1902 C1903 1.287 . S
C1903 C1902 1.287 . S
C1903 C1904 1.524 . S
C1903 H1906 0.999 . S
C1904 H1874 0.950 . S
C1904 C1903 1.524 . S
C1904 C1905 1.415 . S
C1905 H1875 0.950 . S
C1905 C1900 1.363 . S
C1905 C1904 1.415 . S
H1906 C1903 0.999 . S
H1907 C1888 0.913 . S
C727 C52 1.738 . S
C742 C642 1.738 . S
C777 C682 1.737 . S
C792 C111 1.737 . S
C827 C151 1.737 . S
C842 C406 1.737 . S
C877 C229 1.738 . S
C892 C465 1.738 . S
C927 C288 1.737 . S
C942 C505 1.737 . S
C977 C583 1.737 . S
C992 C328 1.737 . S
C1027 C3 1.746 . S
C1042 C477 1.750 . S
C1077 C62 1.746 . S
C1092 C534 1.746 . S
C1127 C593 1.747 . S
C1142 C123 1.750 . S
C1177 C180 1.746 . S
C1192 C654 1.750 . S
C1227 C239 1.746 . S
C1242 C357 1.746 . S
C1277 C300 1.750 . S
C1292 C416 1.746 1_556 S
C1327 C623 1.669 . S
C1342 C33 1.669 . S
C1377 C92 1.668 . S
C1392 C701 1.662 . S
C1427 C170 1.662 . S
C1442 C387 1.668 . S
C1477 C210 1.669 . S
C1492 C446 1.669 . S
C1527 C524 1.663 . S
C1542 C269 1.669 . S
C1577 C347 1.663 . S
C1592 C564 1.669 . S
C1627 C5 1.236 . S
C1642 C652 1.233 . S
C1677 C359 1.237 . S
C1692 C64 1.237 . S
C1727 C418 1.236 . S
C1742 C121 1.233 . S
C1777 C475 1.233 . S
C1792 C182 1.237 . S
C1827 C536 1.237 . S
C1842 C241 1.237 . S
C1877 C595 1.236 . S
C1892 C298 1.233 . S
