# Generated by pormake.
# Topology sxb, (6)-cn, num edge types: 1
# Building blocks:
#     Node 0, Type 0, BuildingBlock: BETDAH_clean_sbu_0, # of connection points: 6
#     Node 1, Type 0, BuildingBlock: BETDAH_clean_sbu_0, # of connection points: 6
#     Node 2, Type 0, BuildingBlock: BETDAH_clean_sbu_0, # of connection points: 6
#     Node 3, Type 0, BuildingBlock: BETDAH_clean_sbu_0, # of connection points: 6
#     Edge 4, Type (0, 0), BuildingBlock: KIFKEQ_clean_linker_1, # of connection points: 2
#     Edge 5, Type (0, 0), BuildingBlock: KIFKEQ_clean_linker_1, # of connection points: 2
#     Edge 6, Type (0, 0), BuildingBlock: KIFKEQ_clean_linker_1, # of connection points: 2
#     Edge 7, Type (0, 0), BuildingBlock: KIFKEQ_clean_linker_1, # of connection points: 2
#     Edge 8, Type (0, 0), BuildingBlock: KIFKEQ_clean_linker_1, # of connection points: 2
#     Edge 9, Type (0, 0), BuildingBlock: KIFKEQ_clean_linker_1, # of connection points: 2
#     Edge 10, Type (0, 0), BuildingBlock: KIFKEQ_clean_linker_1, # of connection points: 2
#     Edge 11, Type (0, 0), BuildingBlock: KIFKEQ_clean_linker_1, # of connection points: 2
#     Edge 12, Type (0, 0), BuildingBlock: KIFKEQ_clean_linker_1, # of connection points: 2
#     Edge 13, Type (0, 0), BuildingBlock: KIFKEQ_clean_linker_1, # of connection points: 2
#     Edge 14, Type (0, 0), BuildingBlock: KIFKEQ_clean_linker_1, # of connection points: 2
#     Edge 15, Type (0, 0), BuildingBlock: KIFKEQ_clean_linker_1, # of connection points: 2
# Relax obj value: 0.408
# Max RMSD: 0.128
# Mean RMSD: 0.082
data_MOF--net-sxb--node1-BETDAH_clean_sbu_0--edge1-KIFKEQ_clean_linker_1
_symmetry_space_group_name_H-M    P1
_symmetry_Int_Tables_number       1
_symmetry_cell_setting            triclinic
loop_
_symmetry_equiv_pos_as_xyz
'x, y, z'
_cell_length_a     16.572341
_cell_length_b     35.074802
_cell_length_c     30.154993
_cell_angle_alpha  94.836601
_cell_angle_beta   93.064277
_cell_angle_gamma 67.599901
loop_
_atom_site_label
_atom_site_type_symbol
_atom_site_fract_x
_atom_site_fract_y
_atom_site_fract_z
_atom_type_partial_charge
Ho0 Ho 1.01557 0.09009 0.9785 0.0
Ho1 Ho 0.1723 0.10047 0.97915 0.0
C2 C 1.01055 0.18508 0.97375 0.0
C3 C 0.87217 0.09104 0.0081 0.0
C4 C 0.86574 1.06741 0.0447 0.0
C5 C 0.94253 1.04226 0.06634 0.0
C6 C 0.93895 1.01894 0.10088 0.0
C7 C 0.85814 1.02088 0.11478 0.0
C8 C 0.78097 1.04721 0.09396 0.0
C9 C 0.78481 1.0703 0.05911 0.0
C10 C 1.06711 0.08616 0.89312 0.0
C11 C 0.1803 1.00527 0.97549 0.0
C12 C 0.33506 0.08677 0.97738 0.0
C13 C 0.39693 1.05334 0.00268 0.0
C14 C 0.48664 1.03734 0.99545 0.0
C15 C 0.54211 1.00458 0.01969 0.0
C16 C 0.50832 0.98702 0.05101 0.0
C17 C 0.41796 1.00264 0.05701 0.0
C18 C 0.36322 1.0356 0.03345 0.0
C19 C 0.11457 0.10301 0.06314 0.0
O20 O 0.96892 0.16146 0.98447 0.0
O21 O 1.09389 0.16693 0.9633 0.0
O22 O 0.90374 0.11925 0.02032 0.0
O23 O 0.90803 1.06906 0.972 0.0
O24 O 1.02789 1.06399 0.90721 0.0
O25 O 1.07289 0.11153 0.92442 0.0
O26 O 0.2192 1.0298 0.96492 0.0
O27 O 1.0985 1.02258 0.98789 0.0
O28 O 0.28118 0.1174 0.00193 0.0
O29 O 0.29481 0.0742 0.94442 0.0
O30 O 0.14185 0.12968 0.04929 0.0
O31 O 0.11685 0.07689 0.03131 0.0
H32 H 1.00551 1.04029 0.05615 0.0
H33 H 0.9992 0.99882 0.1161 0.0
H34 H 0.71764 1.04855 0.10325 0.0
H35 H 0.72495 0.08978 0.04304 0.0
H36 H 0.51375 1.05039 0.97165 0.0
H37 H 0.61174 0.99402 0.01494 0.0
H38 H 0.38945 0.98983 0.08038 0.0
H39 H 0.29395 1.04734 0.03942 0.0
Ho40 Ho 0.13247 1.04677 0.48207 0.0
Ho41 Ho 1.05537 0.13464 0.47305 0.0
C42 C 0.91316 0.0925 0.47686 0.0
C43 C 0.1685 0.97359 0.50771 0.0
C44 C 1.10904 0.95332 0.51714 0.0
C45 C 0.11788 0.93437 0.5573 0.0
C46 C 1.05192 0.92227 0.57042 0.0
C47 C 0.97636 0.92956 0.54364 0.0
C48 C 0.96999 0.94638 0.50246 0.0
C49 C 1.03555 0.95828 0.48933 0.0
C50 C 0.12853 1.06647 0.39642 0.0
C51 C 0.27401 0.08894 0.47837 0.0
C52 C 1.01972 0.20667 0.44467 0.0
C53 C 1.07692 0.22089 0.42103 0.0
C54 C 0.14243 0.19246 0.39386 0.0
C55 C 0.20876 0.20305 0.37899 0.0
C56 C 0.21069 0.2422 0.39106 0.0
C57 C 0.14166 0.27158 0.41561 0.0
C58 C 1.0753 0.2609 0.43065 0.0
C59 C 1.05958 0.11546 0.55875 0.0
O60 O 0.98384 1.059 0.48549 0.0
O61 O 0.92425 0.12664 0.46808 0.0
O62 O 0.17162 0.98097 0.46621 0.0
O63 O 0.16291 1.00529 0.53512 0.0
O64 O 0.19269 1.03739 0.41473 0.0
O65 O 1.06785 0.08278 0.42412 0.0
O66 O 0.20379 0.12132 0.46654 0.0
O67 O 0.26233 1.05583 0.4903 0.0
O68 O 1.04409 0.19814 0.48579 0.0
O69 O 0.99744 0.17826 0.42288 0.0
O70 O 0.99585 0.14479 0.54045 0.0
O71 O 0.12034 0.09872 0.53107 0.0
H72 H 0.1738 0.93064 0.57934 0.0
H73 H 1.05817 0.90889 0.60213 0.0
H74 H 0.91291 0.95138 0.4809 0.0
H75 H 1.02659 0.97306 0.45833 0.0
H76 H 0.14525 0.16124 0.38617 0.0
H77 H 0.2608 0.17998 0.35987 0.0
H78 H 0.14209 0.30186 0.42583 0.0
H79 H 1.02573 0.28303 0.45189 0.0
Ho80 Ho 0.51524 0.59017 0.97714 0.0
Ho81 Ho 0.67337 0.60029 0.9787 0.0
C82 C 0.51135 0.68501 0.97293 0.0
C83 C 0.37196 0.59115 0.00685 0.0
C84 C 0.36598 0.56737 0.04341 0.0
C85 C 0.44299 0.54246 0.0651 0.0
C86 C 0.43993 0.51873 0.09935 0.0
C87 C 0.35942 0.52003 0.11292 0.0
C88 C 0.28199 0.54616 0.09213 0.0
C89 C 0.28531 0.56964 0.05755 0.0
C90 C 0.56841 0.58595 0.89207 0.0
C91 C 0.68016 0.5052 0.97471 0.0
C92 C 0.83626 0.58643 0.97739 0.0
C93 C 0.89824 0.55268 0.00225 0.0
C94 C 0.98778 0.53654 0.99455 0.0
C95 C 1.04345 0.50342 0.01824 0.0
C96 C 1.01004 0.48561 0.04947 0.0
C97 C 0.9198 0.50138 0.05594 0.0
C98 C 0.86484 0.53472 0.03294 0.0
C99 C 0.6132 0.60295 0.06209 0.0
O100 O 0.46916 0.66146 0.98309 0.0
O101 O 0.595 0.66686 0.96299 0.0
O102 O 0.40351 0.61939 0.01904 0.0
O103 O 0.40753 0.56926 0.97064 0.0
O104 O 0.52632 0.56483 0.90567 0.0
O105 O 0.57501 0.61103 0.92357 0.0
O106 O 0.71991 0.52962 0.96485 0.0
O107 O 0.59787 0.52257 0.98632 0.0
O108 O 0.7824 0.61678 0.00227 0.0
O109 O 0.79605 0.57425 0.94412 0.0
O110 O 0.64157 0.62947 0.04883 0.0
O111 O 0.61614 0.57688 0.03011 0.0
H112 H 0.50577 0.54093 0.05511 0.0
H113 H 0.50035 0.49877 0.11456 0.0
H114 H 0.21892 0.547 0.10119 0.0
H115 H 0.22529 0.58889 0.04142 0.0
H116 H 1.01463 0.54976 0.9708 0.0
H117 H 0.11298 0.49277 0.01314 0.0
H118 H 0.89154 0.48839 0.07925 0.0
H119 H 0.79566 0.54657 0.03925 0.0
Ho120 Ho 0.63596 0.54236 0.48114 0.0
Ho121 Ho 0.55508 0.64002 0.47205 0.0
C122 C 0.4192 0.58949 0.47456 0.0
C123 C 0.69347 0.46876 0.5077 0.0
C124 C 0.67475 0.43344 0.48784 0.0
C125 C 0.72149 0.39325 0.50062 0.0
C126 C 0.70191 0.36019 0.48049 0.0
C127 C 0.63586 0.36716 0.44722 0.0
C128 C 0.59037 0.40758 0.43442 0.0
C129 C 0.60973 0.44029 0.45445 0.0
C130 C 0.6038 0.56086 0.3932 0.0
C131 C 0.77222 0.59225 0.47803 0.0
C132 C 0.49201 0.71294 0.44338 0.0
C133 C 0.49217 0.75264 0.46315 0.0
C134 C 0.5201 0.77683 0.43792 0.0
C135 C 0.53797 0.80998 0.45849 0.0
C136 C 0.528 0.81947 0.50468 0.0
C137 C 0.49307 0.79726 0.52914 0.0
C138 C 0.47573 0.76396 0.50861 0.0
C139 C 0.58485 0.62286 0.56023 0.0
O140 O 0.48807 0.55536 0.48403 0.0
O141 O 0.43126 0.62367 0.46524 0.0
O142 O 0.73836 0.48169 0.48244 0.0
O143 O 0.62607 0.49904 0.52529 0.0
O144 O 0.63402 0.52367 0.4064 0.0
O145 O 0.59131 0.58457 0.42797 0.0
O146 O 0.70337 0.62611 0.46756 0.0
O147 O 0.76004 0.55842 0.48859 0.0
O148 O 0.44514 0.6971 0.46346 0.0
O149 O 0.56883 0.68551 0.43216 0.0
O150 O 0.55376 0.65977 0.54614 0.0
O151 O 0.59959 0.59815 0.52597 0.0
H152 H 0.77241 0.38753 0.52617 0.0
H153 H 0.73788 0.32935 0.49104 0.0
H154 H 0.53755 0.4143 0.40985 0.0
H155 H 0.57298 0.47117 0.44419 0.0
H156 H 0.53336 0.76849 0.40287 0.0
H157 H 0.5658 0.82611 0.43873 0.0
H158 H 0.48367 0.80419 0.56462 0.0
H159 H 0.45401 0.74582 0.5289 0.0
H160 H 0.56598 0.74378 0.94199 0.0
H161 H 0.34681 0.73414 0.00365 0.0
H162 H 0.48872 0.8185 0.94136 0.0
H163 H 0.27078 0.80876 0.00523 0.0
H164 H 0.11445 0.94378 0.97855 0.0
H165 H 0.19137 0.8691 0.97639 0.0
H166 H 0.43703 0.88459 0.97081 0.0
H167 H 0.35864 0.9592 0.97046 0.0
C168 C 0.50136 0.7575 0.95577 0.0
C169 C 0.46351 0.73194 0.97267 0.0
C170 C 0.45643 0.80107 0.9558 0.0
C171 C 0.37154 0.82151 0.97324 0.0
C172 C 0.33439 0.7956 0.99043 0.0
C173 C 0.37889 0.75207 0.98988 0.0
C174 C 0.18494 0.93134 0.97668 0.0
C175 C 0.22927 0.95842 0.9745 0.0
C176 C 0.2301 0.88783 0.97583 0.0
C177 C 0.32242 0.86895 0.97356 0.0
C178 C 0.36658 0.89641 0.97171 0.0
C179 C 0.32114 0.93992 0.97184 0.0
H180 H 0.61389 0.44383 0.97767 0.0
H181 H 0.85851 0.459 0.97025 0.0
H182 H 0.69052 0.36913 0.97592 0.0
H183 H 0.93652 0.38438 0.97097 0.0
H184 H 1.06482 0.24363 0.9422 0.0
H185 H 0.98768 0.3183 0.94117 0.0
H186 H 0.76993 0.30898 0.00561 0.0
H187 H 0.84595 0.23431 0.0045 0.0
C188 C 0.68432 0.43135 0.97601 0.0
C189 C 0.72892 0.45834 0.97392 0.0
C190 C 0.72936 0.38783 0.97541 0.0
C191 C 0.82168 0.3689 0.97343 0.0
C192 C 0.86607 0.39627 0.97165 0.0
C193 C 0.82079 0.43977 0.97157 0.0
C194 C 1.00035 0.25741 0.95602 0.0
C195 C 0.96255 0.23197 0.97326 0.0
C196 C 0.95543 0.30095 0.95583 0.0
C197 C 0.87066 0.32149 0.97333 0.0
C198 C 0.83349 0.29571 0.9908 0.0
C199 C 0.87802 0.25219 0.9905 0.0
H200 H 0.37951 0.19156 0.40552 0.0
H201 H 0.21997 0.3119 0.36138 0.0
H202 H 0.50753 0.21025 0.40886 0.0
H203 H 0.34806 0.33047 0.36447 0.0
H204 H 0.61352 0.30727 0.49161 0.0
H205 H 0.52867 0.26604 0.46537 0.0
H206 H 0.50375 0.31212 0.33498 0.0
H207 H 0.59128 0.35243 0.3607 0.0
C208 C 0.37238 0.22153 0.3953 0.0
C209 C 0.28975 0.25053 0.38376 0.0
C210 C 0.44552 0.23218 0.39735 0.0
C211 C 0.43739 0.27174 0.38711 0.0
C212 C 0.35616 0.29958 0.37215 0.0
C213 C 0.28279 0.28914 0.37074 0.0
C214 C 0.59337 0.30723 0.45685 0.0
C215 C 0.60718 0.33384 0.4285 0.0
C216 C 0.54461 0.28366 0.44183 0.0
C217 C 0.50857 0.28662 0.3984 0.0
C218 C 0.52994 0.30986 0.36878 0.0
C219 C 0.5796 0.33299 0.3836 0.0
H220 H 0.80877 0.98285 0.55233 0.0
H221 H 0.97854 0.85587 0.56653 0.0
H222 H 0.68105 0.96516 0.55916 0.0
H223 H 0.85176 0.83766 0.57286 0.0
H224 H 0.62479 0.80757 0.582 0.0
H225 H 0.72108 0.84256 0.60903 0.0
H226 H 0.62268 0.9272 0.50481 0.0
H227 H 0.52341 0.8934 0.47906 0.0
C228 C 0.8183 0.95129 0.55775 0.0
C229 C 0.90257 0.92045 0.558 0.0
C230 C 0.74557 0.94116 0.56173 0.0
C231 C 0.75618 0.89994 0.5659 0.0
C232 C 0.84119 0.86981 0.57012 0.0
C233 C 0.91393 0.88005 0.5663 0.0
C234 C 0.62085 0.83476 0.566 0.0
C235 C 0.56765 0.84728 0.52779 0.0
C236 C 0.67687 0.8545 0.58126 0.0
C237 C 0.68105 0.88695 0.55846 0.0
C238 C 0.62121 0.90225 0.52319 0.0
C239 C 0.56489 0.88262 0.50806 0.0
H240 H 0.66159 0.92218 0.03053 0.0
H241 H 0.48962 0.98041 0.14007 0.0
H242 H 0.78148 0.89451 0.0823 0.0
H243 H 0.60883 0.95049 0.19229 0.0
H244 H 0.95227 0.93737 0.11352 0.0
H245 H 0.88965 0.8892 0.13408 0.0
H246 H 0.69057 0.98915 0.20652 0.0
H247 H 0.75399 1.03666 0.18698 0.0
C248 C 0.64888 0.92808 0.06583 0.0
C249 C 0.5682 0.95648 0.08103 0.0
C250 C 0.71778 0.91161 0.09607 0.0
C251 C 0.70726 0.92482 0.14176 0.0
C252 C 0.62115 0.94303 0.15709 0.0
C253 C 0.55222 0.96023 0.12691 0.0
C254 C 0.89757 0.94866 0.13572 0.0
C255 C 0.85293 0.99127 0.14556 0.0
C256 C 0.8613 0.92097 0.14755 0.0
C257 C 0.7771 0.93672 0.16546 0.0
C258 C 0.75017 0.97642 0.18795 0.0
C259 C 0.78623 1.00418 0.17662 0.0
H260 H 0.43725 1.02493 0.48903 0.0
H261 H 0.32763 0.15445 0.46694 0.0
H262 H 0.58359 1.02518 0.488 0.0
H263 H 0.47366 0.15574 0.46786 0.0
H264 H 0.75133 0.15325 0.45453 0.0
H265 H 0.60513 0.15261 0.45423 0.0
H266 H 0.71153 1.02958 0.50046 0.0
H267 H 0.8575 1.0307 0.50011 0.0
C268 C 0.44374 1.05386 0.48413 0.0
C269 C 0.36745 0.08961 0.47796 0.0
C270 C 0.52982 1.0542 0.48373 0.0
C271 C 0.54603 0.09053 0.47765 0.0
C272 C 0.46885 0.1264 0.47185 0.0
C273 C 0.38277 0.12587 0.47164 0.0
C274 C 0.74414 0.12584 0.46469 0.0
C275 C 0.81959 0.09189 0.4771 0.0
C276 C 0.65806 0.12542 0.46475 0.0
C277 C 0.64092 0.09101 0.47744 0.0
C278 C 0.7172 1.05707 0.48993 0.0
C279 C 0.80326 1.05754 0.48977 0.0
H280 H 0.16301 0.42092 0.02793 0.0
H281 H 0.99274 0.4778 0.13842 0.0
H282 H 0.28386 0.39296 0.07909 0.0
H283 H 0.1129 0.4475 0.18999 0.0
H284 H 0.45432 0.43659 0.11048 0.0
H285 H 0.3927 0.3878 0.13036 0.0
H286 H 0.19366 0.48661 0.20417 0.0
H287 H 0.25604 0.5347 0.18521 0.0
C288 C 0.15087 0.42646 0.06329 0.0
C289 C 1.07036 0.45463 0.07897 0.0
C290 C 0.22034 0.40981 0.09318 0.0
C291 C 0.21051 0.42262 0.13898 0.0
C292 C 0.12465 0.44043 0.15471 0.0
C293 C 1.05515 0.45785 0.12489 0.0
C294 C 0.39986 0.44746 0.13283 0.0
C295 C 0.35492 0.48995 0.14327 0.0
C296 C 0.36415 0.41942 0.14424 0.0
C297 C 0.28025 0.43473 0.16249 0.0
C298 C 0.25305 0.47424 0.18542 0.0
C299 C 0.28852 0.50233 0.17446 0.0
H300 H 0.36148 0.52488 0.4851 0.0
H301 H 0.25641 0.65463 0.46429 0.0
H302 H 0.2142 0.52514 0.48535 0.0
H303 H 1.10876 0.65571 0.46577 0.0
H304 H 0.83175 0.65265 0.4533 0.0
H305 H 0.97917 0.65192 0.45154 0.0
H306 H 1.08102 0.53039 0.50156 0.0
H307 H 0.93345 0.53116 0.50189 0.0
C308 C 0.3072 0.55383 0.4807 0.0
C309 C 0.3245 0.58967 0.47457 0.0
C310 C 0.22028 0.55418 0.48108 0.0
C311 C 0.14379 0.59052 0.47569 0.0
C312 C 0.16188 0.62639 0.46963 0.0
C313 C 0.2488 0.62591 0.46895 0.0
C314 C 0.88525 0.62557 0.46399 0.0
C315 C 0.86698 0.59202 0.47777 0.0
C316 C 0.97222 0.62509 0.46322 0.0
C317 C 1.04779 0.59106 0.47642 0.0
C318 C 1.02875 0.55755 0.49036 0.0
C319 C 0.94181 0.55799 0.49086 0.0
H320 H 0.23859 1.01904 0.33138 0.0
H321 H 1.00193 0.12697 0.35005 0.0
H322 H 0.22896 1.02745 0.25143 0.0
H323 H 0.99323 0.13602 0.2698 0.0
H324 H 1.07873 0.16212 0.13216 0.0
H325 H 1.07644 0.15377 0.21189 0.0
H326 H 0.13615 1.02335 0.1836 0.0
H327 H 0.13802 1.03187 0.10377 0.0
C328 C 0.18436 1.04466 0.31847 0.0
C329 C 0.12112 1.07237 0.34745 0.0
C330 C 0.17859 1.04935 0.27242 0.0
C331 C 1.11019 0.08236 0.25378 0.0
C332 C 1.04713 0.11033 0.28282 0.0
C333 C 1.05204 0.10516 0.32892 0.0
C334 C 1.09056 0.13171 0.14293 0.0
C335 C 1.108 0.09774 0.11142 0.0
C336 C 1.08886 0.12695 0.18871 0.0
C337 C 1.10627 0.08786 0.20453 0.0
C338 C 0.12303 1.05389 0.17286 0.0
C339 C 0.12334 1.05881 0.12697 0.0
H340 H 1.06804 0.15306 0.85137 0.0
H341 H 1.08437 1.02765 0.82474 0.0
H342 H 1.07098 0.15976 0.77104 0.0
H343 H 1.08986 1.03392 0.74468 0.0
H344 H 0.18155 1.05354 0.60567 0.0
H345 H 0.1891 1.04571 0.68627 0.0
H346 H 0.96459 0.15946 0.70403 0.0
H347 H 0.95506 0.16647 0.62376 0.0
C348 C 1.07338 0.12675 0.82846 0.0
C349 C 1.07567 0.08984 0.84461 0.0
C350 C 1.0747 0.13063 0.78236 0.0
C351 C 1.08063 0.09737 0.75119 0.0
C352 C 1.08583 1.06007 0.76756 0.0
C353 C 1.08233 1.05654 0.81351 0.0
C354 C 0.13353 0.07672 0.62672 0.0
C355 C 1.06733 0.11048 0.60793 0.0
C356 C 0.13789 1.07227 0.67298 0.0
C357 C 1.07763 0.10206 0.70186 0.0
C358 C 1.01257 0.13613 0.68304 0.0
C359 C 1.00693 0.14002 0.63684 0.0
H360 H 0.6129 0.62843 0.35581 0.0
H361 H 0.57116 0.51549 0.32238 0.0
H362 H 0.61281 0.63896 0.2767 0.0
H363 H 0.56412 0.52699 0.24378 0.0
H364 H 0.64259 0.53157 0.10303 0.0
H365 H 0.63611 0.52328 0.18187 0.0
H366 H 0.5512 0.65576 0.20882 0.0
H367 H 0.56365 0.66307 0.13009 0.0
C368 C 0.60142 0.60639 0.3315 0.0
C369 C 0.59206 0.57114 0.34552 0.0
C370 C 0.60106 0.61237 0.28573 0.0
C371 C 0.58937 0.58369 0.2525 0.0
C372 C 0.5763 0.54936 0.26726 0.0
C373 C 0.57899 0.54293 0.31277 0.0
C374 C 0.62196 0.5589 0.12585 0.0
C375 C 0.60329 0.59799 0.11008 0.0
C376 C 0.61761 0.5543 0.17151 0.0
C377 C 0.59273 0.5888 0.20308 0.0
C378 C 0.5725 0.62805 0.18667 0.0
C379 C 0.57872 0.63245 0.14112 0.0
H380 H 0.55155 0.67892 0.63104 0.0
H381 H 0.63557 0.54763 0.59925 0.0
H382 H 0.55417 0.6685 0.70973 0.0
H383 H 0.63996 0.53673 0.679 0.0
H384 H 0.5376 0.53938 0.82066 0.0
H385 H 0.5492 0.54576 0.74149 0.0
H386 H 0.64052 0.64499 0.77413 0.0
H387 H 0.62682 0.63903 0.85344 0.0
C388 C 0.57159 0.64758 0.6409 0.0
C389 C 0.59315 0.61413 0.60848 0.0
C390 C 0.5737 0.64154 0.68643 0.0
C391 C 0.5975 0.60171 0.70153 0.0
C392 C 0.62027 0.56799 0.66903 0.0
C393 C 0.61832 0.57411 0.62315 0.0
C394 C 0.5604 0.56253 0.81098 0.0
C395 C 0.58049 0.58894 0.84367 0.0
C396 C 0.56778 0.56599 0.76533 0.0
C397 C 0.59546 0.59605 0.75066 0.0
C398 C 0.61746 0.62188 0.7836 0.0
C399 C 0.61014 0.61836 0.82933 0.0
loop_
_geom_bond_atom_site_label_1
_geom_bond_atom_site_label_2
_geom_bond_distance
_geom_bond_site_symmetry_2
_ccdc_geom_bond_type
Ho0 C3 2.811 . S
Ho0 O20 2.322 1_565 S
Ho0 O22 2.378 . S
Ho0 O23 2.524 1_566 S
Ho0 O24 2.381 . S
Ho0 O25 2.678 1_655 S
Ho0 O27 2.346 1_655 S
Ho0 O31 2.290 1_566 S
Ho1 C12 2.811 . S
Ho1 O21 2.346 1_455 S
Ho1 O25 2.297 1_544 S
Ho1 O26 2.322 1_545 S
Ho1 O28 2.378 . S
Ho1 O29 2.524 1_544 S
Ho1 O30 2.381 . S
Ho1 O31 2.685 1_455 S
C2 O20 1.259 . S
C2 O21 1.268 1_556 S
C3 Ho0 2.811 . S
C3 C4 1.488 1_565 S
C3 O22 1.215 . S
C3 O23 1.289 1_566 S
C4 C3 1.488 1_545 S
C4 C5 1.348 1_556 S
C4 C9 1.413 . S
C5 C4 1.348 1_554 S
C5 C6 1.442 . S
C5 H32 0.930 . S
C6 C5 1.442 . S
C6 C7 1.381 1_554 S
C6 H33 0.931 . S
C7 C6 1.381 1_556 S
C7 C8 1.321 . S
C8 C7 1.321 . S
C8 C9 1.403 . S
C8 H34 0.934 . S
C9 C4 1.413 . S
C9 C8 1.403 . S
C9 H35 0.930 . S
C10 O24 1.275 . S
C10 O25 1.260 1_655 S
C11 O26 1.259 . S
C11 O27 1.268 1_554 S
C12 Ho1 2.811 . S
C12 C13 1.487 1_545 S
C12 O28 1.219 . S
C12 O29 1.286 1_544 S
C13 C12 1.487 1_565 S
C13 C14 1.348 1_554 S
C13 C18 1.413 . S
C14 C13 1.348 1_556 S
C14 C15 1.442 . S
C14 H36 0.930 . S
C15 C14 1.442 . S
C15 C16 1.381 1_556 S
C15 H37 0.931 . S
C16 C15 1.381 1_554 S
C16 C17 1.321 . S
C17 C16 1.321 . S
C17 C18 1.403 . S
C17 H38 0.934 . S
C18 C13 1.413 . S
C18 C17 1.403 . S
C18 H39 0.930 . S
C19 O30 1.275 . S
C19 O31 1.264 1_455 S
O20 Ho0 2.322 1_545 S
O20 C2 1.259 . S
O21 Ho1 2.346 1_655 S
O21 C2 1.268 1_554 S
O22 Ho0 2.378 . S
O22 C3 1.215 . S
O23 Ho0 2.524 1_544 S
O23 C3 1.289 1_544 S
O24 Ho0 2.381 . S
O24 C10 1.275 . S
O25 Ho0 2.678 1_455 S
O25 Ho1 2.297 1_566 S
O25 C10 1.260 1_455 S
O26 Ho1 2.322 1_565 S
O26 C11 1.259 . S
O27 Ho0 2.346 1_455 S
O27 C11 1.268 1_556 S
O28 Ho1 2.378 . S
O28 C12 1.219 . S
O29 Ho1 2.524 1_566 S
O29 C12 1.286 1_566 S
O30 Ho1 2.381 . S
O30 C19 1.275 . S
O31 Ho0 2.290 1_544 S
O31 Ho1 2.685 1_655 S
O31 C19 1.264 1_655 S
H32 C5 0.930 . S
H33 C6 0.931 . S
H34 C8 0.934 . S
H35 C9 0.930 . S
H36 C14 0.930 . S
H37 C15 0.931 . S
H38 C17 0.934 . S
H39 C18 0.930 . S
Ho40 C43 2.811 1_455 S
Ho40 O60 2.322 1_455 S
Ho40 O62 2.378 1_455 S
Ho40 O63 2.524 1_455 S
Ho40 O64 2.381 . S
Ho40 O65 2.669 1_565 S
Ho40 O67 2.346 . S
Ho40 O71 2.305 1_455 S
Ho41 C52 2.811 1_655 S
Ho41 O61 2.346 . S
Ho41 O65 2.305 1_655 S
Ho41 O66 2.322 1_655 S
Ho41 O68 2.378 1_655 S
Ho41 O69 2.524 1_655 S
Ho41 O70 2.381 . S
Ho41 O71 2.669 1_545 S
C42 O60 1.259 1_545 S
C42 O61 1.268 . S
C43 Ho40 2.811 1_655 S
C43 C44 1.488 . S
C43 O62 1.215 . S
C43 O63 1.289 . S
C44 C43 1.488 . S
C44 C45 1.348 . S
C44 C49 1.413 . S
C45 C44 1.348 . S
C45 C46 1.442 . S
C45 H72 0.930 . S
C46 C45 1.442 . S
C46 C47 1.381 . S
C46 H73 0.931 . S
C47 C46 1.381 . S
C47 C48 1.321 . S
C48 C47 1.321 . S
C48 C49 1.403 . S
C48 H74 0.934 . S
C49 C44 1.413 . S
C49 C48 1.403 . S
C49 H75 0.930 . S
C50 O64 1.275 . S
C50 O65 1.256 1_565 S
C51 O66 1.259 1_565 S
C51 O67 1.268 . S
C52 Ho41 2.811 1_455 S
C52 C53 1.488 . S
C52 O68 1.215 . S
C52 O69 1.289 . S
C53 C52 1.488 . S
C53 C54 1.348 . S
C53 C58 1.413 . S
C54 C53 1.348 . S
C54 C55 1.442 . S
C54 H76 0.930 . S
C55 C54 1.442 . S
C55 C56 1.381 . S
C55 H77 0.931 . S
C56 C55 1.381 . S
C56 C57 1.321 . S
C57 C56 1.321 . S
C57 C58 1.403 . S
C57 H78 0.934 . S
C58 C53 1.413 . S
C58 C57 1.403 . S
C58 H79 0.930 . S
C59 O70 1.271 . S
C59 O71 1.258 1_545 S
O60 Ho40 2.322 1_655 S
O60 C42 1.259 1_565 S
O61 Ho41 2.346 . S
O61 C42 1.268 . S
O62 Ho40 2.378 1_655 S
O62 C43 1.215 . S
O63 Ho40 2.524 1_655 S
O63 C43 1.289 . S
O64 Ho40 2.381 . S
O64 C50 1.275 . S
O65 Ho40 2.669 1_545 S
O65 Ho41 2.305 1_455 S
O65 C50 1.256 1_545 S
O66 Ho41 2.322 1_455 S
O66 C51 1.259 1_545 S
O67 Ho40 2.346 . S
O67 C51 1.268 . S
O68 Ho41 2.378 1_455 S
O68 C52 1.215 . S
O69 Ho41 2.524 1_455 S
O69 C52 1.289 . S
O70 Ho41 2.381 . S
O70 C59 1.271 . S
O71 Ho40 2.305 1_655 S
O71 Ho41 2.669 1_565 S
O71 C59 1.258 1_565 S
H72 C45 0.930 . S
H73 C46 0.931 . S
H74 C48 0.934 . S
H75 C49 0.930 . S
H76 C54 0.930 . S
H77 C55 0.931 . S
H78 C57 0.934 . S
H79 C58 0.930 . S
Ho80 C83 2.811 . S
Ho80 O100 2.322 . S
Ho80 O102 2.378 . S
Ho80 O103 2.524 1_556 S
Ho80 O104 2.381 . S
Ho80 O105 2.669 . S
Ho80 O107 2.346 . S
Ho80 O111 2.305 1_556 S
Ho81 C92 2.811 . S
Ho81 O101 2.346 . S
Ho81 O105 2.305 1_554 S
Ho81 O106 2.322 . S
Ho81 O108 2.378 . S
Ho81 O109 2.524 1_554 S
Ho81 O110 2.381 . S
Ho81 O111 2.669 . S
C82 O100 1.259 . S
C82 O101 1.268 1_556 S
C83 Ho80 2.811 . S
C83 C84 1.488 . S
C83 O102 1.215 . S
C83 O103 1.289 1_556 S
C84 C83 1.488 . S
C84 C85 1.348 1_556 S
C84 C89 1.413 . S
C85 C84 1.348 1_554 S
C85 C86 1.442 . S
C85 H112 0.930 . S
C86 C85 1.442 . S
C86 C87 1.381 1_554 S
C86 H113 0.931 . S
C87 C86 1.381 1_556 S
C87 C88 1.321 . S
C88 C87 1.321 . S
C88 C89 1.403 . S
C88 H114 0.934 . S
C89 C84 1.413 . S
C89 C88 1.403 . S
C89 H115 0.930 . S
C90 O104 1.275 . S
C90 O105 1.256 . S
C91 O106 1.259 . S
C91 O107 1.268 1_554 S
C92 Ho81 2.811 . S
C92 C93 1.488 . S
C92 O108 1.215 . S
C92 O109 1.289 1_554 S
C93 C92 1.488 . S
C93 C94 1.348 1_554 S
C93 C98 1.413 . S
C94 C93 1.348 1_556 S
C94 C95 1.442 . S
C94 H116 0.930 . S
C95 C94 1.442 . S
C95 C96 1.381 1_556 S
C95 H117 0.931 . S
C96 C95 1.381 1_554 S
C96 C97 1.321 . S
C97 C96 1.321 . S
C97 C98 1.403 . S
C97 H118 0.934 . S
C98 C93 1.413 . S
C98 C97 1.403 . S
C98 H119 0.930 . S
C99 O110 1.275 . S
C99 O111 1.256 . S
O100 Ho80 2.322 . S
O100 C82 1.259 . S
O101 Ho81 2.346 . S
O101 C82 1.268 1_554 S
O102 Ho80 2.378 . S
O102 C83 1.215 . S
O103 Ho80 2.524 1_554 S
O103 C83 1.289 1_554 S
O104 Ho80 2.381 . S
O104 C90 1.275 . S
O105 Ho80 2.669 . S
O105 Ho81 2.305 1_556 S
O105 C90 1.256 . S
O106 Ho81 2.322 . S
O106 C91 1.259 . S
O107 Ho80 2.346 . S
O107 C91 1.268 1_556 S
O108 Ho81 2.378 . S
O108 C92 1.215 . S
O109 Ho81 2.524 1_556 S
O109 C92 1.289 1_556 S
O110 Ho81 2.381 . S
O110 C99 1.275 . S
O111 Ho80 2.305 1_554 S
O111 Ho81 2.669 . S
O111 C99 1.256 . S
H112 C85 0.930 . S
H113 C86 0.931 . S
H114 C88 0.934 . S
H115 C89 0.930 . S
H116 C94 0.930 . S
H117 C95 0.931 . S
H118 C97 0.934 . S
H119 C98 0.930 . S
Ho120 C123 2.811 . S
Ho120 O140 2.322 . S
Ho120 O142 2.378 . S
Ho120 O143 2.524 . S
Ho120 O144 2.381 . S
Ho120 O145 2.669 . S
Ho120 O147 2.346 . S
Ho120 O151 2.305 . S
Ho121 C132 2.811 . S
Ho121 O141 2.346 . S
Ho121 O145 2.305 . S
Ho121 O146 2.322 . S
Ho121 O148 2.378 . S
Ho121 O149 2.524 . S
Ho121 O150 2.381 . S
Ho121 O151 2.669 . S
C122 O140 1.259 . S
C122 O141 1.268 . S
C123 Ho120 2.811 . S
C123 C124 1.488 . S
C123 O142 1.215 . S
C123 O143 1.289 . S
C124 C123 1.488 . S
C124 C125 1.348 . S
C124 C129 1.413 . S
C125 C124 1.348 . S
C125 C126 1.442 . S
C125 H152 0.930 . S
C126 C125 1.442 . S
C126 C127 1.381 . S
C126 H153 0.931 . S
C127 C126 1.381 . S
C127 C128 1.321 . S
C128 C127 1.321 . S
C128 C129 1.403 . S
C128 H154 0.934 . S
C129 C124 1.413 . S
C129 C128 1.403 . S
C129 H155 0.930 . S
C130 O144 1.275 . S
C130 O145 1.256 . S
C131 O146 1.259 . S
C131 O147 1.268 . S
C132 Ho121 2.811 . S
C132 C133 1.488 . S
C132 O148 1.215 . S
C132 O149 1.289 . S
C133 C132 1.488 . S
C133 C134 1.348 . S
C133 C138 1.413 . S
C134 C133 1.348 . S
C134 C135 1.442 . S
C134 H156 0.930 . S
C135 C134 1.442 . S
C135 C136 1.381 . S
C135 H157 0.931 . S
C136 C135 1.381 . S
C136 C137 1.321 . S
C137 C136 1.321 . S
C137 C138 1.403 . S
C137 H158 0.934 . S
C138 C133 1.413 . S
C138 C137 1.403 . S
C138 H159 0.930 . S
C139 O150 1.275 . S
C139 O151 1.256 . S
O140 Ho120 2.322 . S
O140 C122 1.259 . S
O141 Ho121 2.346 . S
O141 C122 1.268 . S
O142 Ho120 2.378 . S
O142 C123 1.215 . S
O143 Ho120 2.524 . S
O143 C123 1.289 . S
O144 Ho120 2.381 . S
O144 C130 1.275 . S
O145 Ho120 2.669 . S
O145 Ho121 2.305 . S
O145 C130 1.256 . S
O146 Ho121 2.322 . S
O146 C131 1.259 . S
O147 Ho120 2.346 . S
O147 C131 1.268 . S
O148 Ho121 2.378 . S
O148 C132 1.215 . S
O149 Ho121 2.524 . S
O149 C132 1.289 . S
O150 Ho121 2.381 . S
O150 C139 1.275 . S
O151 Ho120 2.305 . S
O151 Ho121 2.669 . S
O151 C139 1.256 . S
H152 C125 0.930 . S
H153 C126 0.931 . S
H154 C128 0.934 . S
H155 C129 0.930 . S
H156 C134 0.930 . S
H157 C135 0.931 . S
H158 C137 0.934 . S
H159 C138 0.930 . S
H160 C168 0.950 . S
H161 C173 0.950 . S
H162 C170 0.950 . S
H163 C172 0.950 . S
H164 C174 0.950 . S
H165 C176 0.950 . S
H166 C178 0.950 . S
H167 C179 0.950 . S
C168 H160 0.950 . S
C168 C169 1.386 . S
C168 C170 1.391 . S
C169 C168 1.386 . S
C169 C173 1.393 1_556 S
C170 H162 0.950 . S
C170 C168 1.391 . S
C170 C171 1.403 . S
C171 C170 1.403 . S
C171 C172 1.396 1_556 S
C171 C177 1.490 1_556 S
C172 H163 0.950 . S
C172 C171 1.396 1_554 S
C172 C173 1.391 . S
C173 H161 0.950 . S
C173 C169 1.393 1_554 S
C173 C172 1.391 . S
C174 H164 0.950 . S
C174 C175 1.387 . S
C174 C176 1.391 . S
C175 C174 1.387 . S
C175 C179 1.391 1_554 S
C176 H165 0.950 . S
C176 C174 1.391 . S
C176 C177 1.404 . S
C177 C171 1.490 1_554 S
C177 C176 1.404 . S
C177 C178 1.395 1_554 S
C178 H166 0.950 . S
C178 C177 1.395 1_556 S
C178 C179 1.391 . S
C179 H167 0.950 . S
C179 C175 1.391 1_556 S
C179 C178 1.391 . S
H180 C188 0.950 . S
H181 C193 0.950 . S
H182 C190 0.950 . S
H183 C192 0.950 . S
H184 C194 0.950 . S
H185 C196 0.950 . S
H186 C198 0.950 . S
H187 C199 0.950 . S
C188 H180 0.950 . S
C188 C189 1.386 1_554 S
C188 C190 1.391 . S
C189 C188 1.386 1_556 S
C189 C193 1.393 . S
C190 H182 0.950 . S
C190 C188 1.391 . S
C190 C191 1.386 1_554 S
C191 C190 1.386 1_556 S
C191 C192 1.414 . S
C191 C197 1.490 1_556 S
C192 H183 0.950 . S
C192 C191 1.414 . S
C192 C193 1.391 . S
C193 H181 0.950 . S
C193 C189 1.393 . S
C193 C192 1.391 . S
C194 H184 0.950 . S
C194 C195 1.386 1_556 S
C194 C196 1.391 . S
C195 C194 1.386 1_554 S
C195 C199 1.393 . S
C196 H185 0.950 . S
C196 C194 1.391 . S
C196 C197 1.400 1_556 S
C197 C191 1.490 1_554 S
C197 C196 1.400 1_554 S
C197 C198 1.398 . S
C198 H186 0.950 . S
C198 C197 1.398 . S
C198 C199 1.391 . S
C199 H187 0.950 . S
C199 C195 1.393 . S
C199 C198 1.391 . S
H200 C208 0.950 . S
H201 C213 0.950 . S
H202 C210 0.950 . S
H203 C212 0.950 . S
H204 C214 0.950 . S
H205 C216 0.950 . S
H206 C218 0.950 . S
H207 C219 0.950 . S
C208 H200 0.950 . S
C208 C209 1.386 . S
C208 C210 1.391 . S
C209 C208 1.386 . S
C209 C213 1.393 . S
C210 H202 0.950 . S
C210 C208 1.391 . S
C210 C211 1.400 . S
C211 C210 1.400 . S
C211 C212 1.398 . S
C211 C217 1.491 . S
C212 H203 0.950 . S
C212 C211 1.398 . S
C212 C213 1.391 . S
C213 H201 0.950 . S
C213 C209 1.393 . S
C213 C212 1.391 . S
C214 H204 0.950 . S
C214 C215 1.386 . S
C214 C216 1.391 . S
C215 C214 1.386 . S
C215 C219 1.393 . S
C216 H205 0.950 . S
C216 C214 1.391 . S
C216 C217 1.400 . S
C217 C211 1.491 . S
C217 C216 1.400 . S
C217 C218 1.398 . S
C218 H206 0.950 . S
C218 C217 1.398 . S
C218 C219 1.391 . S
C219 H207 0.950 . S
C219 C215 1.393 . S
C219 C218 1.391 . S
H220 C228 0.950 . S
H221 C233 0.950 . S
H222 C230 0.950 . S
H223 C232 0.950 . S
H224 C234 0.950 . S
H225 C236 0.950 . S
H226 C238 0.950 . S
H227 C239 0.950 . S
C228 H220 0.950 . S
C228 C229 1.386 . S
C228 C230 1.391 . S
C229 C228 1.386 . S
C229 C233 1.393 . S
C230 H222 0.950 . S
C230 C228 1.391 . S
C230 C231 1.400 . S
C231 C230 1.400 . S
C231 C232 1.398 . S
C231 C237 1.491 . S
C232 H223 0.950 . S
C232 C231 1.398 . S
C232 C233 1.391 . S
C233 H221 0.950 . S
C233 C229 1.393 . S
C233 C232 1.391 . S
C234 H224 0.950 . S
C234 C235 1.386 . S
C234 C236 1.391 . S
C235 C234 1.386 . S
C235 C239 1.393 . S
C236 H225 0.950 . S
C236 C234 1.391 . S
C236 C237 1.400 . S
C237 C231 1.491 . S
C237 C236 1.400 . S
C237 C238 1.398 . S
C238 H226 0.950 . S
C238 C237 1.398 . S
C238 C239 1.391 . S
C239 H227 0.950 . S
C239 C235 1.393 . S
C239 C238 1.391 . S
H240 C248 0.950 . S
H241 C253 0.950 . S
H242 C250 0.950 . S
H243 C252 0.950 1_545 S
H244 C254 0.950 . S
H245 C256 0.950 . S
H246 C258 0.950 1_565 S
H247 C259 0.950 . S
C248 H240 0.950 . S
C248 C249 1.386 1_556 S
C248 C250 1.391 . S
C249 C248 1.386 1_554 S
C249 C253 1.393 . S
C250 H242 0.950 . S
C250 C248 1.391 . S
C250 C251 1.401 1_556 S
C251 C250 1.401 1_554 S
C251 C252 1.398 . S
C251 C257 1.491 1_565 S
C252 H243 0.950 1_565 S
C252 C251 1.398 . S
C252 C253 1.391 . S
C253 H241 0.950 . S
C253 C249 1.393 . S
C253 C252 1.391 . S
C254 H244 0.950 . S
C254 C255 1.386 1_554 S
C254 C256 1.391 . S
C255 C254 1.386 1_556 S
C255 C259 1.393 . S
C256 H245 0.950 . S
C256 C254 1.391 . S
C256 C257 1.401 . S
C257 C251 1.491 1_545 S
C257 C256 1.401 . S
C257 C258 1.398 1_554 S
C258 H246 0.950 1_545 S
C258 C257 1.398 1_556 S
C258 C259 1.391 . S
C259 H247 0.950 . S
C259 C255 1.393 . S
C259 C258 1.391 . S
H260 C268 0.950 . S
H261 C273 0.950 . S
H262 C270 0.950 . S
H263 C272 0.950 . S
H264 C274 0.950 . S
H265 C276 0.950 . S
H266 C278 0.950 . S
H267 C279 0.950 . S
C268 H260 0.950 . S
C268 C269 1.403 . S
C268 C270 1.391 . S
C269 C268 1.403 . S
C269 C273 1.369 1_565 S
C270 H262 0.950 . S
C270 C268 1.391 . S
C270 C271 1.398 1_565 S
C271 C270 1.398 1_545 S
C271 C272 1.400 . S
C271 C277 1.490 . S
C272 H263 0.950 . S
C272 C271 1.400 . S
C272 C273 1.391 . S
C273 H261 0.950 . S
C273 C269 1.369 1_545 S
C273 C272 1.391 . S
C274 H264 0.950 . S
C274 C275 1.386 . S
C274 C276 1.391 . S
C275 C274 1.386 . S
C275 C279 1.393 1_545 S
C276 H265 0.950 . S
C276 C274 1.391 . S
C276 C277 1.404 . S
C277 C271 1.490 . S
C277 C276 1.404 . S
C277 C278 1.395 1_545 S
C278 H266 0.950 . S
C278 C277 1.395 1_565 S
C278 C279 1.391 . S
C279 H267 0.950 . S
C279 C275 1.393 1_565 S
C279 C278 1.391 . S
H280 C288 0.950 . S
H281 C293 0.950 . S
H282 C290 0.950 . S
H283 C292 0.950 . S
H284 C294 0.950 . S
H285 C296 0.950 . S
H286 C298 0.950 . S
H287 C299 0.950 . S
C288 H280 0.950 . S
C288 C289 1.386 1_556 S
C288 C290 1.391 . S
C289 C288 1.386 1_554 S
C289 C293 1.393 . S
C290 H282 0.950 . S
C290 C288 1.391 . S
C290 C291 1.384 1_556 S
C291 C290 1.384 1_554 S
C291 C292 1.417 . S
C291 C297 1.487 1_654 S
C292 H283 0.950 . S
C292 C291 1.417 . S
C292 C293 1.391 . S
C293 H281 0.950 . S
C293 C289 1.393 . S
C293 C292 1.391 . S
C294 H284 0.950 . S
C294 C295 1.386 1_554 S
C294 C296 1.391 . S
C295 C294 1.386 1_556 S
C295 C299 1.393 . S
C296 H285 0.950 . S
C296 C294 1.391 . S
C296 C297 1.389 1_554 S
C297 C291 1.487 1_456 S
C297 C296 1.389 1_556 S
C297 C298 1.411 . S
C298 H286 0.950 . S
C298 C297 1.411 . S
C298 C299 1.391 . S
C299 H287 0.950 . S
C299 C295 1.393 . S
C299 C298 1.391 . S
H300 C308 0.950 . S
H301 C313 0.950 . S
H302 C310 0.950 . S
H303 C312 0.950 . S
H304 C314 0.950 . S
H305 C316 0.950 . S
H306 C318 0.950 . S
H307 C319 0.950 . S
C308 H300 0.950 . S
C308 C309 1.386 . S
C308 C310 1.391 . S
C309 C308 1.386 . S
C309 C313 1.393 . S
C310 H302 0.950 . S
C310 C308 1.391 . S
C310 C311 1.400 . S
C311 C310 1.400 . S
C311 C312 1.398 . S
C311 C317 1.491 1_455 S
C312 H303 0.950 . S
C312 C311 1.398 . S
C312 C313 1.391 . S
C313 H301 0.950 . S
C313 C309 1.393 . S
C313 C312 1.391 . S
C314 H304 0.950 . S
C314 C315 1.386 . S
C314 C316 1.391 . S
C315 C314 1.386 . S
C315 C319 1.393 . S
C316 H305 0.950 . S
C316 C314 1.391 . S
C316 C317 1.400 . S
C317 C311 1.491 1_655 S
C317 C316 1.400 . S
C317 C318 1.398 . S
C318 H306 0.950 . S
C318 C317 1.398 . S
C318 C319 1.391 . S
C319 H307 0.950 . S
C319 C315 1.393 . S
C319 C318 1.391 . S
H320 C328 0.950 . S
H321 C333 0.950 . S
H322 C330 0.950 . S
H323 C332 0.950 . S
H324 C334 0.950 . S
H325 C336 0.950 . S
H326 C338 0.950 . S
H327 C339 0.950 . S
C328 H320 0.950 . S
C328 C329 1.386 1_465 S
C328 C330 1.391 . S
C329 C328 1.386 1_645 S
C329 C333 1.393 . S
C330 H322 0.950 . S
C330 C328 1.391 . S
C330 C331 1.400 1_465 S
C331 C330 1.400 1_645 S
C331 C332 1.398 . S
C331 C337 1.491 . S
C332 H323 0.950 . S
C332 C331 1.398 . S
C332 C333 1.391 . S
C333 H321 0.950 . S
C333 C329 1.393 . S
C333 C332 1.391 . S
C334 H324 0.950 . S
C334 C335 1.386 1_655 S
C334 C336 1.391 . S
C335 C334 1.386 1_455 S
C335 C339 1.393 1_545 S
C336 H325 0.950 . S
C336 C334 1.391 . S
C336 C337 1.400 . S
C337 C331 1.491 . S
C337 C336 1.400 . S
C337 C338 1.398 1_645 S
C338 H326 0.950 . S
C338 C337 1.398 1_465 S
C338 C339 1.391 . S
C339 H327 0.950 . S
C339 C335 1.393 1_565 S
C339 C338 1.391 . S
H340 C348 0.950 . S
H341 C353 0.950 . S
H342 C350 0.950 . S
H343 C352 0.950 . S
H344 C354 0.950 . S
H345 C356 0.950 . S
H346 C358 0.950 . S
H347 C359 0.950 . S
C348 H340 0.950 . S
C348 C349 1.386 1_645 S
C348 C350 1.391 . S
C349 C348 1.386 1_465 S
C349 C353 1.393 . S
C350 H342 0.950 . S
C350 C348 1.391 . S
C350 C351 1.400 1_645 S
C351 C350 1.400 1_465 S
C351 C352 1.398 . S
C351 C357 1.490 . S
C352 H343 0.950 . S
C352 C351 1.398 . S
C352 C353 1.391 . S
C353 H341 0.950 . S
C353 C349 1.393 . S
C353 C352 1.391 . S
C354 H344 0.950 . S
C354 C355 1.385 1_455 S
C354 C356 1.391 . S
C355 C354 1.385 1_655 S
C355 C359 1.394 1_565 S
C356 H345 0.950 . S
C356 C354 1.391 . S
C356 C357 1.401 . S
C357 C351 1.490 . S
C357 C356 1.401 . S
C357 C358 1.398 1_465 S
C358 H346 0.950 . S
C358 C357 1.398 1_645 S
C358 C359 1.391 . S
C359 H347 0.950 . S
C359 C355 1.394 1_545 S
C359 C358 1.391 . S
H360 C368 0.950 . S
H361 C373 0.950 . S
H362 C370 0.950 . S
H363 C372 0.950 . S
H364 C374 0.950 . S
H365 C376 0.950 . S
H366 C378 0.950 . S
H367 C379 0.950 . S
C368 H360 0.950 . S
C368 C369 1.386 . S
C368 C370 1.391 . S
C369 C368 1.386 . S
C369 C373 1.393 . S
C370 H362 0.950 . S
C370 C368 1.391 . S
C370 C371 1.400 . S
C371 C370 1.400 . S
C371 C372 1.398 . S
C371 C377 1.491 . S
C372 H363 0.950 . S
C372 C371 1.398 . S
C372 C373 1.391 . S
C373 H361 0.950 . S
C373 C369 1.393 . S
C373 C372 1.391 . S
C374 H364 0.950 . S
C374 C375 1.386 . S
C374 C376 1.391 . S
C375 C374 1.386 . S
C375 C379 1.393 . S
C376 H365 0.950 . S
C376 C374 1.391 . S
C376 C377 1.400 . S
C377 C371 1.491 . S
C377 C376 1.400 . S
C377 C378 1.398 . S
C378 H366 0.950 . S
C378 C377 1.398 . S
C378 C379 1.391 . S
C379 H367 0.950 . S
C379 C375 1.393 . S
C379 C378 1.391 . S
H380 C388 0.950 . S
H381 C393 0.950 . S
H382 C390 0.950 . S
H383 C392 0.950 . S
H384 C394 0.950 . S
H385 C396 0.950 . S
H386 C398 0.950 . S
H387 C399 0.950 . S
C388 H380 0.950 . S
C388 C389 1.386 . S
C388 C390 1.391 . S
C389 C388 1.386 . S
C389 C393 1.393 . S
C390 H382 0.950 . S
C390 C388 1.391 . S
C390 C391 1.400 . S
C391 C390 1.400 . S
C391 C392 1.398 . S
C391 C397 1.491 . S
C392 H383 0.950 . S
C392 C391 1.398 . S
C392 C393 1.391 . S
C393 H381 0.950 . S
C393 C389 1.393 . S
C393 C392 1.391 . S
C394 H384 0.950 . S
C394 C395 1.386 . S
C394 C396 1.391 . S
C395 C394 1.386 . S
C395 C399 1.393 . S
C396 H385 0.950 . S
C396 C394 1.391 . S
C396 C397 1.400 . S
C397 C391 1.491 . S
C397 C396 1.400 . S
C397 C398 1.398 . S
C398 H386 0.950 . S
C398 C397 1.398 . S
C398 C399 1.391 . S
C399 H387 0.950 . S
C399 C395 1.393 . S
C399 C398 1.391 . S
C169 C82 3.581 . S
C175 C11 3.581 . S
C189 C91 3.581 1_556 S
C195 C2 3.582 1_554 S
C209 C56 0.197 . S
C215 C127 0.197 . S
C229 C47 0.168 . S
C235 C136 0.168 . S
C249 C16 0.879 . S
C255 C7 0.879 . S
C269 C51 4.895 . S
C275 C42 4.888 . S
C289 C96 0.871 . S
C295 C87 0.871 . S
C309 C122 4.887 . S
C315 C131 4.887 . S
C329 C50 1.458 1_645 S
C335 C19 1.450 . S
C349 C10 1.473 1_455 S
C355 C59 1.464 1_565 S
C369 C130 1.449 . S
C375 C99 1.460 . S
C389 C139 1.470 . S
C395 C90 1.472 . S
