# Generated by pormake.
# Topology atn, (4)-cn, num edge types: 1
# Building blocks:
#     Node 0, Type 0, BuildingBlock: GALJAG_clean_sbu_0, # of connection points: 4
#     Node 1, Type 0, BuildingBlock: GALJAG_clean_sbu_0, # of connection points: 4
#     Node 2, Type 0, BuildingBlock: GALJAG_clean_sbu_0, # of connection points: 4
#     Node 3, Type 0, BuildingBlock: GALJAG_clean_sbu_0, # of connection points: 4
#     Node 4, Type 0, BuildingBlock: GALJAG_clean_sbu_0, # of connection points: 4
#     Node 5, Type 0, BuildingBlock: GALJAG_clean_sbu_0, # of connection points: 4
#     Node 6, Type 0, BuildingBlock: GALJAG_clean_sbu_0, # of connection points: 4
#     Node 7, Type 0, BuildingBlock: GALJAG_clean_sbu_0, # of connection points: 4
#     Node 8, Type 0, BuildingBlock: GALJAG_clean_sbu_0, # of connection points: 4
#     Node 9, Type 0, BuildingBlock: GALJAG_clean_sbu_0, # of connection points: 4
#     Node 10, Type 0, BuildingBlock: GALJAG_clean_sbu_0, # of connection points: 4
#     Node 11, Type 0, BuildingBlock: GALJAG_clean_sbu_0, # of connection points: 4
#     Node 12, Type 0, BuildingBlock: GALJAG_clean_sbu_0, # of connection points: 4
#     Node 13, Type 0, BuildingBlock: GALJAG_clean_sbu_0, # of connection points: 4
#     Node 14, Type 0, BuildingBlock: GALJAG_clean_sbu_0, # of connection points: 4
#     Node 15, Type 0, BuildingBlock: GALJAG_clean_sbu_0, # of connection points: 4
#     Edge 16, Type (0, 0), BuildingBlock: AJUNOK_clean_linker_0, # of connection points: 2
#     Edge 17, Type (0, 0), BuildingBlock: AJUNOK_clean_linker_0, # of connection points: 2
#     Edge 18, Type (0, 0), BuildingBlock: AJUNOK_clean_linker_0, # of connection points: 2
#     Edge 19, Type (0, 0), BuildingBlock: AJUNOK_clean_linker_0, # of connection points: 2
#     Edge 20, Type (0, 0), BuildingBlock: AJUNOK_clean_linker_0, # of connection points: 2
#     Edge 21, Type (0, 0), BuildingBlock: AJUNOK_clean_linker_0, # of connection points: 2
#     Edge 22, Type (0, 0), BuildingBlock: AJUNOK_clean_linker_0, # of connection points: 2
#     Edge 23, Type (0, 0), BuildingBlock: AJUNOK_clean_linker_0, # of connection points: 2
#     Edge 24, Type (0, 0), BuildingBlock: AJUNOK_clean_linker_0, # of connection points: 2
#     Edge 25, Type (0, 0), BuildingBlock: AJUNOK_clean_linker_0, # of connection points: 2
#     Edge 26, Type (0, 0), BuildingBlock: AJUNOK_clean_linker_0, # of connection points: 2
#     Edge 27, Type (0, 0), BuildingBlock: AJUNOK_clean_linker_0, # of connection points: 2
#     Edge 28, Type (0, 0), BuildingBlock: AJUNOK_clean_linker_0, # of connection points: 2
#     Edge 29, Type (0, 0), BuildingBlock: AJUNOK_clean_linker_0, # of connection points: 2
#     Edge 30, Type (0, 0), BuildingBlock: AJUNOK_clean_linker_0, # of connection points: 2
#     Edge 31, Type (0, 0), BuildingBlock: AJUNOK_clean_linker_0, # of connection points: 2
#     Edge 32, Type (0, 0), BuildingBlock: AJUNOK_clean_linker_0, # of connection points: 2
#     Edge 33, Type (0, 0), BuildingBlock: AJUNOK_clean_linker_0, # of connection points: 2
#     Edge 34, Type (0, 0), BuildingBlock: AJUNOK_clean_linker_0, # of connection points: 2
#     Edge 35, Type (0, 0), BuildingBlock: AJUNOK_clean_linker_0, # of connection points: 2
#     Edge 36, Type (0, 0), BuildingBlock: AJUNOK_clean_linker_0, # of connection points: 2
#     Edge 37, Type (0, 0), BuildingBlock: AJUNOK_clean_linker_0, # of connection points: 2
#     Edge 38, Type (0, 0), BuildingBlock: AJUNOK_clean_linker_0, # of connection points: 2
#     Edge 39, Type (0, 0), BuildingBlock: AJUNOK_clean_linker_0, # of connection points: 2
#     Edge 40, Type (0, 0), BuildingBlock: AJUNOK_clean_linker_0, # of connection points: 2
#     Edge 41, Type (0, 0), BuildingBlock: AJUNOK_clean_linker_0, # of connection points: 2
#     Edge 42, Type (0, 0), BuildingBlock: AJUNOK_clean_linker_0, # of connection points: 2
#     Edge 43, Type (0, 0), BuildingBlock: AJUNOK_clean_linker_0, # of connection points: 2
#     Edge 44, Type (0, 0), BuildingBlock: AJUNOK_clean_linker_0, # of connection points: 2
#     Edge 45, Type (0, 0), BuildingBlock: AJUNOK_clean_linker_0, # of connection points: 2
#     Edge 46, Type (0, 0), BuildingBlock: AJUNOK_clean_linker_0, # of connection points: 2
#     Edge 47, Type (0, 0), BuildingBlock: AJUNOK_clean_linker_0, # of connection points: 2
# Relax obj value: 0.083
# Max RMSD: 0.111
# Mean RMSD: 0.111
data_MOF--net-atn--node1-GALJAG_clean_sbu_0--edge1-AJUNOK_clean_linker_0
_symmetry_space_group_name_H-M    P1
_symmetry_Int_Tables_number       1
_symmetry_cell_setting            triclinic
loop_
_symmetry_equiv_pos_as_xyz
'x, y, z'
_cell_length_a     43.633398
_cell_length_b     43.635996
_cell_length_c     20.855588
_cell_angle_alpha  90.044754
_cell_angle_beta   90.163119
_cell_angle_gamma 90.008255
loop_
_atom_site_label
_atom_site_type_symbol
_atom_site_fract_x
_atom_site_fract_y
_atom_site_fract_z
_atom_type_partial_charge
In0 In 0.1835 0.36275 1.00269 0.0
O1 O 0.14803 0.34456 0.07419 0.0
O2 O 0.18726 0.36786 0.11042 0.0
C3 C 0.161 0.35134 0.88441 0.0
C4 C 0.18153 0.42397 1.0012 0.0
C5 C 0.23053 0.32303 1.00455 0.0
O6 O 0.14715 0.343 0.93471 0.0
O7 O 0.18576 0.36553 0.89424 0.0
O8 O 0.23476 0.35166 1.0023 0.0
O9 O 0.20281 0.31488 0.00542 0.0
C10 C 0.16259 0.3541 0.12288 0.0
O11 O 0.20657 0.40936 1.00085 0.0
O12 O 0.15772 0.40751 1.0019 0.0
In13 In 0.62146 0.18364 1.00378 0.0
O14 O 0.64074 0.14745 0.07268 0.0
O15 O 0.61959 0.18708 0.11213 0.0
C16 C 0.62905 0.1617 0.88391 0.0
C17 C 0.56022 0.18282 0.00727 0.0
C18 C 0.66155 0.23031 0.99992 0.0
O19 O 0.63886 0.14746 0.93272 0.0
O20 O 0.61557 0.18657 0.89611 0.0
O21 O 0.63296 0.23469 1.00261 0.0
O22 O 0.66957 0.20255 0.99934 0.0
C23 C 0.63312 0.16205 0.12263 0.0
O24 O 0.5753 0.20758 0.00718 0.0
O25 O 0.57621 0.15871 0.00585 0.0
In26 In 0.79712 0.62171 0.01071 0.0
O27 O 0.77083 0.57688 0.01131 0.0
O28 O 0.81962 0.57517 0.01554 0.0
C29 C 0.75138 0.66281 0.0047 0.0
C30 C 0.8186 0.6325 0.1302 0.0
C31 C 0.82111 0.62964 0.89267 0.0
O32 O 0.74645 0.63432 0.00711 0.0
O33 O 0.77928 0.67031 0.00571 0.0
O34 O 0.8348 0.63852 0.94292 0.0
O35 O 0.79583 0.6165 0.9025 0.0
C36 C 0.79466 0.5605 0.01442 0.0
O37 O 0.83387 0.63909 0.0806 0.0
O38 O 0.79284 0.62051 0.1191 0.0
In39 In 0.36186 0.79738 0.01912 0.0
O40 O 0.34494 0.83505 0.08717 0.0
O41 O 0.36406 0.79457 0.12749 0.0
C42 C 0.35398 0.81915 0.89905 0.0
C43 C 0.42307 0.79561 0.02173 0.0
C44 C 0.32069 0.7516 0.01805 0.0
O45 O 0.34422 0.83341 0.94778 0.0
O46 O 0.36757 0.79436 0.91139 0.0
O47 O 0.34918 0.74664 0.02037 0.0
O48 O 0.31328 0.77952 0.01637 0.0
C49 C 0.35204 0.82041 0.13745 0.0
O50 O 0.40693 0.77156 0.02005 0.0
O51 O 0.40814 0.82042 0.02224 0.0
In52 In 0.17916 0.6182 0.01169 0.0
O53 O 0.14261 0.63633 0.94229 0.0
O54 O 0.18282 0.61616 0.90332 0.0
C55 C 0.15665 0.62804 0.13043 0.0
C56 C 0.17915 0.5569 0.00862 0.0
C57 C 0.22579 0.65838 0.01386 0.0
O58 O 0.14251 0.63643 0.08037 0.0
O59 O 0.18163 0.6144 0.12011 0.0
O60 O 0.23019 0.62977 0.01449 0.0
O61 O 0.19802 0.66636 0.01206 0.0
C62 C 0.15745 0.62901 0.89252 0.0
O63 O 0.20366 0.57234 0.00996 0.0
O64 O 0.15481 0.57255 0.00927 0.0
In65 In 0.36595 0.18346 0.01416 0.0
O66 O 0.41213 0.20756 0.01463 0.0
O67 O 0.41127 0.15873 0.012 0.0
C68 C 0.32542 0.22981 0.01305 0.0
C69 C 0.35506 0.16127 0.89543 0.0
C70 C 0.35675 0.16103 0.13324 0.0
O71 O 0.354 0.23452 0.0127 0.0
O72 O 0.31773 0.20196 0.01439 0.0
O73 O 0.34939 0.14625 0.08329 0.0
O74 O 0.36877 0.18681 0.12269 0.0
C75 C 0.42725 0.18284 0.01285 0.0
O76 O 0.34638 0.14741 0.94548 0.0
O77 O 0.3694 0.18588 0.90572 0.0
In78 In 0.79995 0.36653 0.01001 0.0
O79 O 0.83689 0.34722 0.94279 0.0
O80 O 0.8006 0.37336 0.90239 0.0
C81 C 0.81895 0.35467 0.13077 0.0
C82 C 0.79578 0.42767 0.01652 0.0
C83 C 0.75462 0.3254 1.00007 0.0
O84 O 0.83782 0.35815 0.08537 0.0
O85 O 0.79119 0.35685 0.11486 0.0
O86 O 0.74946 0.35383 0.00488 0.0
O87 O 0.78264 0.31803 0.99972 0.0
C88 C 0.82466 0.35811 0.89261 0.0
O89 O 0.77246 0.41078 0.0101 0.0
O90 O 0.82095 0.41355 0.02011 0.0
In91 In 0.61695 0.80271 0.00969 0.0
O92 O 0.63631 0.83961 0.94238 0.0
O93 O 0.60984 0.80356 0.90198 0.0
C94 C 0.63039 0.82095 0.13029 0.0
C95 C 0.55587 0.79826 0.01791 0.0
C96 C 0.6576 0.75704 0.99929 0.0
O97 O 0.62601 0.84018 0.08578 0.0
O98 O 0.62789 0.79332 0.11376 0.0
O99 O 0.62911 0.75216 1.00395 0.0
O100 O 0.66527 0.78497 0.99902 0.0
C101 C 0.62532 0.82747 0.89216 0.0
O102 O 0.57285 0.77508 0.01079 0.0
O103 O 0.56988 0.82352 0.02118 0.0
In104 In 0.68205 0.86619 0.51171 0.0
O105 O 0.64611 0.84715 0.58184 0.0
O106 O 0.68188 0.87515 0.61863 0.0
C107 C 0.66236 0.8521 0.39244 0.0
C108 C 0.68657 0.9272 0.50192 0.0
C109 C 0.7278 0.82555 0.52186 0.0
O110 O 0.64366 0.85715 0.4375 0.0
O111 O 0.6902 0.85419 0.40778 0.0
O112 O 0.73267 0.8539 0.51442 0.0
O113 O 0.69987 0.81804 0.52507 0.0
C114 C 0.65835 0.85948 0.6306 0.0
O115 O 0.70976 0.91024 0.5094 0.0
O116 O 0.66131 0.91319 0.49857 0.0
In117 In 0.11701 0.68422 0.51121 0.0
O118 O 0.07092 0.70828 0.51028 0.0
O119 O 0.07177 0.65938 0.5119 0.0
C120 C 0.1578 0.73033 0.51187 0.0
C121 C 0.12583 0.66257 0.63091 0.0
C122 C 0.12547 0.66232 0.3916 0.0
O123 O 0.12925 0.73516 0.51232 0.0
O124 O 0.16537 0.70244 0.5109 0.0
O125 O 0.1347 0.64789 0.44068 0.0
O126 O 0.11233 0.68741 0.40341 0.0
C127 C 0.05581 0.68353 0.51112 0.0
O128 O 0.13528 0.64824 0.58196 0.0
O129 O 0.11224 0.6874 0.61893 0.0
In130 In 0.30229 0.1186 0.51293 0.0
O131 O 0.27814 0.07262 0.51306 0.0
O132 O 0.327 0.07324 0.51791 0.0
C133 C 0.25559 0.15858 0.50808 0.0
C134 C 0.32236 0.12867 0.63357 0.0
C135 C 0.32527 0.12698 0.39423 0.0
O136 O 0.25124 0.12996 0.5091 0.0
O137 O 0.28334 0.16665 0.50955 0.0
O138 O 0.33841 0.1377 0.44361 0.0
O139 O 0.3011 0.11211 0.40534 0.0
C140 C 0.30276 0.0574 0.51663 0.0
O141 O 0.33803 0.13635 0.58512 0.0
O142 O 0.297 0.11629 0.62057 0.0
In143 In 0.86508 0.30397 0.51129 0.0
O144 O 0.8451 0.33887 0.58242 0.0
O145 O 0.87461 0.3041 0.61813 0.0
C146 C 0.85026 0.32451 0.3933 0.0
C147 C 0.92606 0.30162 0.49838 0.0
C148 C 0.82553 0.25731 0.52045 0.0
O149 O 0.85594 0.34283 0.43887 0.0
O150 O 0.8516 0.29654 0.40762 0.0
O151 O 0.85396 0.25304 0.5125 0.0
O152 O 0.81746 0.28506 0.52453 0.0
C153 C 0.85805 0.32695 0.63077 0.0
O154 O 0.91016 0.27774 0.50675 0.0
O155 O 0.91103 0.32628 0.49644 0.0
In156 In 0.68678 0.12122 0.50545 0.0
O157 O 0.71267 0.07621 0.50677 0.0
O158 O 0.66387 0.07489 0.50094 0.0
C159 C 0.73251 0.16234 0.51203 0.0
C160 C 0.66651 0.13072 0.38464 0.0
C161 C 0.66228 0.12945 0.62294 0.0
O162 O 0.73749 0.13386 0.50951 0.0
O163 O 0.70459 0.16979 0.51076 0.0
O164 O 0.64878 0.13827 0.57241 0.0
O165 O 0.68756 0.11622 0.61358 0.0
C166 C 0.68871 0.06002 0.50306 0.0
O167 O 0.65112 0.13887 0.43311 0.0
O168 O 0.6918 0.11819 0.39758 0.0
In169 In 0.86163 0.68456 0.51262 0.0
O170 O 0.84243 0.64934 0.44105 0.0
O171 O 0.86551 0.68862 0.40486 0.0
C172 C 0.85391 0.66203 0.63176 0.0
C173 C 0.92283 0.68363 0.51152 0.0
C174 C 0.82134 0.73102 0.51721 0.0
O175 O 0.84419 0.64793 0.58261 0.0
O176 O 0.86729 0.68702 0.62018 0.0
O177 O 0.84991 0.73553 0.51444 0.0
O178 O 0.81343 0.70322 0.51729 0.0
C179 C 0.85163 0.664 0.39236 0.0
O180 O 0.9078 0.70843 0.512 0.0
O181 O 0.90678 0.65953 0.51138 0.0
In182 In 0.29981 0.86328 0.51868 0.0
O183 O 0.33515 0.84446 0.44749 0.0
O184 O 0.2968 0.86904 0.41097 0.0
C185 C 0.3219 0.85226 0.63741 0.0
C186 C 0.30131 0.92449 0.52126 0.0
C187 C 0.25287 0.82345 0.51666 0.0
O188 O 0.33648 0.84473 0.5874 0.0
O189 O 0.29661 0.86534 0.627 0.0
O190 O 0.24862 0.85208 0.51908 0.0
O191 O 0.28059 0.81533 0.51543 0.0
C192 C 0.32112 0.85463 0.39871 0.0
O193 O 0.27639 0.90969 0.51953 0.0
O194 O 0.32526 0.90824 0.52175 0.0
In195 In 0.12 0.29778 0.50186 0.0
O196 O 0.07374 0.27387 0.49921 0.0
O197 O 0.07493 0.32275 0.49719 0.0
C198 C 0.16068 0.2517 0.50192 0.0
C199 C 0.13092 0.32041 0.38393 0.0
C200 C 0.1282 0.31843 0.62276 0.0
O201 O 0.13212 0.24686 0.50085 0.0
O202 O 0.16829 0.27958 0.50283 0.0
O203 O 0.13735 0.33339 0.57445 0.0
O204 O 0.11493 0.29355 0.60953 0.0
C205 C 0.05883 0.29871 0.49647 0.0
O206 O 0.13848 0.33479 0.43434 0.0
O207 O 0.11795 0.29501 0.39359 0.0
C208 C 0.20691 0.50693 0.00698 0.0
C209 C 0.17902 0.52307 0.00619 0.0
C210 C 0.20749 0.47488 0.00491 0.0
C211 C 0.1802 0.45779 1.00199 0.0
H212 H 0.22852 0.5191 0.00941 0.0
H213 H 0.22953 0.46346 0.00595 0.0
S214 S 0.10108 0.48909 0.99762 0.0
N215 N 0.12337 0.51959 1.00146 0.0
N216 N 0.12446 0.45937 0.99757 0.0
C217 C 0.15213 0.47364 1.00077 0.0
C218 C 0.15154 0.50628 1.00288 0.0
C219 C 0.47775 0.20969 0.01507 0.0
C220 C 0.46108 0.18216 0.0115 0.0
C221 C 0.50983 0.20968 0.0137 0.0
C222 C 0.52639 0.18214 0.00873 0.0
H223 H 0.46599 0.23146 0.019 0.0
H224 H 0.52168 0.23145 0.01664 0.0
S225 S 0.49357 0.1038 0.99707 0.0
N226 N 0.4635 0.12659 1.00222 0.0
N227 N 0.52374 0.12657 0.99966 0.0
C228 C 0.51 0.15443 0.00501 0.0
C229 C 0.47735 0.15444 0.00639 0.0
C230 C 0.82153 0.47835 0.02421 0.0
C231 C 0.79426 0.46144 0.0178 0.0
C232 C 0.82129 0.51034 0.02341 0.0
C233 C 0.79376 0.52672 0.01629 0.0
H234 H 0.84339 0.46683 0.02941 0.0
H235 H 0.84295 0.52227 0.02817 0.0
S236 S 0.71592 0.49334 0.99876 0.0
N237 N 0.73884 0.46339 0.00487 0.0
N238 N 0.73837 0.52373 1.00349 0.0
C239 C 0.76622 0.51017 0.01053 0.0
C240 C 0.76647 0.47747 0.01126 0.0
C241 C 0.50501 0.8235 0.0272 0.0
C242 C 0.52214 0.79641 0.02062 0.0
C243 C 0.47301 0.82287 0.02795 0.0
C244 C 0.45687 0.79512 0.0223 0.0
H245 H 0.51634 0.84551 0.03132 0.0
H246 H 0.46088 0.84441 0.03274 0.0
S247 S 0.49092 0.71761 0.00498 0.0
N248 N 0.52067 0.74091 0.0091 0.0
N249 N 0.46035 0.73972 0.01065 0.0
C250 C 0.47367 0.76776 0.01638 0.0
C251 C 0.50635 0.7684 0.0155 0.0
C252 C 0.66173 0.01003 0.49355 0.0
C253 C 0.68934 0.02623 0.50133 0.0
C254 C 0.66125 0.97804 0.49281 0.0
C255 C 0.68835 0.96095 0.49992 0.0
H256 H 0.64018 0.02212 0.48827 0.0
H257 H 0.63933 0.96666 0.4872 0.0
S258 S 0.76684 -0.00768 0.52065 0.0
N259 N 0.74464 0.02285 0.51535 0.0
N260 N 0.74372 0.96252 0.51408 0.0
C261 C 0.71623 0.97679 0.50702 0.0
C262 C 0.71673 0.00948 0.50771 0.0
C263 C 0.9733 0.71047 0.50883 0.0
C264 C 0.95666 0.6829 0.51138 0.0
C265 C 0.00537 0.71045 0.50874 0.0
C266 C 0.02198 0.68286 0.51125 0.0
H267 H 0.96151 0.73229 0.5068 0.0
H268 H 0.0172 0.73225 0.50666 0.0
S269 S 0.98926 0.60438 0.51917 0.0
N270 N 0.95915 0.62723 0.5169 0.0
N271 N 0.0194 0.62718 0.51677 0.0
C272 C 0.00562 0.6551 0.51393 0.0
C273 C 0.97297 0.65512 0.51399 0.0
C274 C 0.27546 0.00722 0.51322 0.0
C275 C 0.3031 0.0236 0.51891 0.0
C276 C 0.2751 0.97517 0.51452 0.0
C277 C 0.30235 0.9583 0.52152 0.0
H278 H 0.2539 0.01921 0.50735 0.0
H279 H 0.25327 0.96356 0.50951 0.0
S280 S 0.38074 0.99027 0.54046 0.0
N281 N 0.3584 0.02059 0.53332 0.0
N282 N 0.35772 0.96034 0.53573 0.0
C283 C 0.33014 0.97438 0.52791 0.0
C284 C 0.33052 0.00704 0.52661 0.0
C285 C 0.00794 0.27296 0.50531 0.0
C286 C 0.02506 0.29967 0.49362 0.0
C287 C 0.97585 0.27364 0.50556 0.0
C288 C 0.9598 0.30103 0.49398 0.0
H289 H 0.01936 0.25146 0.51548 0.0
H290 H 0.9636 0.25264 0.516 0.0
S291 S -0.00603 0.37676 0.45566 0.0
N292 N 0.02364 0.35391 0.46664 0.0
N293 N 0.96341 0.35518 0.46691 0.0
C294 C 0.97666 0.32772 0.4804 0.0
C295 C 0.00929 0.32704 0.4803 0.0
C296 C 0.24825 0.26898 0.00849 0.0
C297 C 0.25565 0.30032 0.00656 0.0
C298 C 0.27105 0.24659 0.01079 0.0
C299 C 0.30227 0.25452 0.01124 0.0
H300 H 0.22456 0.26153 0.00824 0.0
H301 H 0.264 0.22279 0.01211 0.0
S302 S 0.33401 0.33341 0.00709 0.0
N303 N 0.29648 0.33831 0.00546 0.0
N304 N 0.33956 0.29599 0.00975 0.0
C305 C 0.31014 0.28578 0.00941 0.0
C306 C 0.28678 0.30873 0.00706 0.0
C307 C 0.73802 0.27095 0.99412 0.0
C308 C 0.73005 0.30211 0.99764 0.0
C309 C 0.71563 0.24808 0.9944 0.0
C310 C 0.6843 0.25539 0.99815 0.0
H311 H 0.76184 0.26402 0.99174 0.0
H312 H 0.72307 0.22441 0.99208 0.0
S313 S 0.65114 0.3336 0.0066 0.0
N314 N 0.68854 0.33924 1.00376 0.0
N315 N 0.6463 0.29609 1.00421 0.0
C316 C 0.67588 0.28648 1.00083 0.0
C317 C 0.69878 0.30987 1.00057 0.0
C318 C 0.73448 0.71714 0.99786 0.0
C319 C 0.72669 0.68592 1.00133 0.0
C320 C 0.7119 0.73982 0.99608 0.0
C321 C 0.6806 0.73222 0.99775 0.0
H322 H 0.75826 0.72425 0.99699 0.0
H323 H 0.71916 0.76354 0.99413 0.0
S324 S 0.64797 0.65373 0.00493 0.0
N325 N 0.68544 0.64843 0.0049 0.0
N326 N 0.64286 0.69118 1.00164 0.0
C327 C 0.6724 0.70106 1.00027 0.0
C328 C 0.69547 0.67788 1.00204 0.0
C329 C 0.24344 0.71252 0.01275 0.0
C330 C 0.25082 0.68118 0.01505 0.0
C331 C 0.26626 0.73494 0.01378 0.0
C332 C 0.29744 0.72699 0.01718 0.0
H333 H 0.21978 0.71994 0.01006 0.0
H334 H 0.25928 0.75875 0.01185 0.0
S335 S 0.32906 0.64811 0.02454 0.0
N336 N 0.29156 0.64321 0.02108 0.0
N337 N 0.33464 0.68553 0.02305 0.0
C338 C 0.30526 0.69573 0.01958 0.0
C339 C 0.28191 0.67279 0.0185 0.0
C340 C 0.76736 0.74854 0.52756 0.0
C341 C 0.7985 0.75598 0.52012 0.0
C342 C 0.74486 0.7713 0.52919 0.0
C343 C 0.75255 0.80245 0.52332 0.0
H344 H 0.76014 0.72488 0.53184 0.0
H345 H 0.72119 0.76427 0.5344 0.0
S346 S 0.83091 0.83422 0.50405 0.0
N347 N 0.83604 0.79677 0.50787 0.0
N348 N 0.79362 0.83971 0.51077 0.0
C349 C 0.78366 0.81033 0.51664 0.0
C350 C 0.80666 0.78706 0.51508 0.0
C351 C 0.23508 0.76941 0.51222 0.0
C352 C 0.22774 0.80074 0.51528 0.0
C353 C 0.21223 0.74703 0.51098 0.0
C354 C 0.18103 0.75499 0.51273 0.0
H355 H 0.25875 0.76195 0.51081 0.0
H356 H 0.21922 0.72323 0.50869 0.0
S357 S 0.14945 0.83387 0.52073 0.0
N358 N 0.18698 0.83874 0.51992 0.0
N359 N 0.14383 0.79647 0.51758 0.0
C360 C 0.17322 0.78624 0.51566 0.0
C361 C 0.19662 0.80916 0.51695 0.0
C362 C 0.23792 0.21263 0.50391 0.0
C363 C 0.23052 0.1813 0.50569 0.0
C364 C 0.21509 0.23502 0.50239 0.0
C365 C 0.18388 0.22705 0.50258 0.0
H366 H 0.2616 0.22009 0.50385 0.0
H367 H 0.22211 0.25883 0.50124 0.0
S368 S 0.15219 0.14814 0.50636 0.0
N369 N 0.18972 0.14327 0.5071 0.0
N370 N 0.14661 0.18556 0.50423 0.0
C371 C 0.17603 0.19578 0.50398 0.0
C372 C 0.1994 0.17286 0.50554 0.0
C373 C 0.77157 0.23932 0.52706 0.0
C374 C 0.80286 0.23216 0.52128 0.0
C375 C 0.74917 0.2165 0.52446 0.0
C376 C 0.7571 0.18553 0.51617 0.0
H377 H 0.76417 0.26286 0.53285 0.0
H378 H 0.72538 0.22331 0.52863 0.0
S379 S 0.83588 0.1544 0.50042 0.0
N380 N 0.84078 0.19175 0.5082 0.0
N381 N 0.7985 0.14868 0.50355 0.0
C382 C 0.78833 0.17787 0.51142 0.0
C383 C 0.81124 0.20122 0.51392 0.0
C384 C 0.12399 0.31654 0.26527 0.0
C385 C 0.1375 0.33145 0.31821 0.0
C386 C 0.13133 0.32479 0.2022 0.0
C387 C 0.15278 0.34802 0.18961 0.0
H388 H 0.10789 0.29797 0.27248 0.0
H389 H 0.12084 0.31217 0.16313 0.0
S390 S 0.19317 0.39561 0.31104 0.0
N391 N 0.17208 0.37177 0.35369 0.0
N392 N 0.1862 0.38707 0.23525 0.0
C393 C 0.16577 0.36378 0.24203 0.0
C394 C 0.15804 0.35557 0.30629 0.0
C395 C 0.63444 0.159 0.3046 0.0
C396 C 0.65659 0.13648 0.31772 0.0
C397 C 0.62662 0.16663 0.24132 0.0
C398 C 0.64032 0.15173 0.18871 0.0
H399 H 0.6237 0.1715 0.34341 0.0
H400 H 0.60996 0.18466 0.23364 0.0
S401 S 0.6979 0.08932 0.19744 0.0
N402 N 0.69098 0.09816 0.27302 0.0
N403 N 0.67595 0.11223 0.15423 0.0
C404 C 0.66164 0.12834 0.20122 0.0
C405 C 0.66988 0.12081 0.26567 0.0
C406 C 0.82117 0.63396 0.31225 0.0
C407 C 0.84539 0.65422 0.32556 0.0
C408 C 0.81308 0.62669 0.24889 0.0
C409 C 0.82917 0.63906 0.19644 0.0
H410 H 0.80771 0.62438 0.35094 0.0
H411 H 0.79375 0.61154 0.24104 0.0
S412 S 0.89614 0.69129 0.2058 0.0
N413 N 0.88654 0.68525 0.28126 0.0
N414 N 0.87159 0.67125 0.16237 0.0
C415 C 0.85422 0.6584 0.20919 0.0
C416 C 0.86224 0.66609 0.27368 0.0
C417 C 0.35139 0.82429 0.31928 0.0
C418 C 0.331 0.84843 0.33203 0.0
C419 C 0.35854 0.81592 0.25615 0.0
C420 C 0.34588 0.8316 0.20331 0.0
H421 H 0.36114 0.81107 0.35825 0.0
H422 H 0.37376 0.79663 0.2488 0.0
S423 S 0.29329 0.89829 0.21101 0.0
N424 N 0.29961 0.88917 0.28672 0.0
N425 N 0.31336 0.87363 0.16817 0.0
C426 C 0.32647 0.85662 0.21543 0.0
C427 C 0.31893 0.86497 0.27975 0.0
C428 C 0.15512 0.63119 0.71053 0.0
C429 C 0.13153 0.65221 0.69751 0.0
C430 C 0.16284 0.62337 0.77376 0.0
C431 C 0.14701 0.63595 0.82638 0.0
H432 H 0.1684 0.62144 0.67174 0.0
H433 H 0.18173 0.60766 0.7814 0.0
S434 S 0.08158 0.69009 0.81773 0.0
N435 N 0.09116 0.68415 0.74222 0.0
N436 N 0.10545 0.66915 0.86087 0.0
C437 C 0.12255 0.65604 0.81389 0.0
C438 C 0.11489 0.66426 0.74952 0.0
C439 C 0.35511 0.15639 0.71356 0.0
C440 C 0.33205 0.13475 0.70057 0.0
C441 C 0.36278 0.16433 0.77681 0.0
C442 C 0.34799 0.15063 0.82949 0.0
H443 H 0.36673 0.16795 0.67464 0.0
H444 H 0.3802 0.18165 0.78438 0.0
S445 S 0.28747 0.09102 0.82134 0.0
N446 N 0.29547 0.09864 0.74569 0.0
N447 N 0.31017 0.11332 0.86432 0.0
C448 C 0.32567 0.12816 0.81718 0.0
C449 C 0.31761 0.12031 0.7528 0.0
C450 C 0.82045 0.36511 0.77393 0.0
C451 C 0.83595 0.35212 0.82669 0.0
C452 C 0.82852 0.35781 0.71071 0.0
C453 C 0.85235 0.33709 0.69763 0.0
H454 H 0.80135 0.38056 0.78136 0.0
H455 H 0.81529 0.36774 0.67191 0.0
S456 S 0.90203 0.29879 0.81837 0.0
N457 N 0.87767 0.31909 0.86141 0.0
N458 N 0.89286 0.30527 0.74273 0.0
C459 C 0.8689 0.32487 0.74985 0.0
C460 C 0.86071 0.33241 0.8143 0.0
C461 C 0.61845 0.82329 0.77331 0.0
C462 C 0.63167 0.83856 0.8262 0.0
C463 C 0.62625 0.83099 0.71013 0.0
C464 C 0.6477 0.85418 0.69724 0.0
H465 H 0.60247 0.80462 0.78065 0.0
H466 H 0.61613 0.81795 0.67125 0.0
S467 S 0.6869 0.90308 0.81826 0.0
N468 N 0.66572 0.87941 0.86112 0.0
N469 N 0.68046 0.8939 0.74261 0.0
C470 C 0.66015 0.87052 0.74956 0.0
C471 C 0.65211 0.86273 0.81393 0.0
C472 C 0.82512 0.63008 0.71085 0.0
C473 C 0.84839 0.65148 0.69823 0.0
C474 C 0.81714 0.62249 0.77397 0.0
C475 C 0.83235 0.63574 0.82687 0.0
H476 H 0.81218 0.61995 0.67182 0.0
H477 H 0.7984 0.6066 0.78127 0.0
S478 S 0.89709 0.69075 0.81938 0.0
N479 N 0.88807 0.68421 0.74367 0.0
N480 N 0.87325 0.6697 0.86212 0.0
C481 C 0.85666 0.65604 0.81482 0.0
C482 C 0.86461 0.66399 0.75056 0.0
C483 C 0.31715 0.85845 0.75612 0.0
C484 C 0.33255 0.8454 0.70344 0.0
C485 C 0.32501 0.85075 0.81934 0.0
C486 C 0.34831 0.8294 0.83234 0.0
H487 H 0.29849 0.87443 0.74856 0.0
H488 H 0.31202 0.86087 0.85817 0.0
S489 S 0.39712 0.79023 0.71186 0.0
N490 N 0.37342 0.8114 0.66878 0.0
N491 N 0.38796 0.79663 0.78745 0.0
C492 C 0.36455 0.81689 0.78023 0.0
C493 C 0.35675 0.82498 0.71584 0.0
C494 C 0.15535 0.3516 0.70272 0.0
C495 C 0.13411 0.32816 0.68983 0.0
C496 C 0.16336 0.35933 0.76587 0.0
C497 C 0.15017 0.34418 0.81865 0.0
H498 H 0.16656 0.36353 0.66376 0.0
H499 H 0.18037 0.37708 0.77329 0.0
S500 S 0.09192 0.28235 0.81104 0.0
N501 N 0.099 0.29069 0.73531 0.0
N502 N 0.11386 0.30549 0.85382 0.0
C503 C 0.1281 0.32143 0.80654 0.0
C504 C 0.12015 0.31334 0.7422 0.0
C505 C 0.65746 0.12949 0.80462 0.0
C506 C 0.63466 0.1514 0.81723 0.0
C507 C 0.66552 0.1219 0.74154 0.0
C508 C 0.65086 0.13565 0.68859 0.0
H509 H 0.66997 0.11889 0.84369 0.0
H510 H 0.68389 0.10556 0.73433 0.0
S511 S 0.58757 0.1923 0.69581 0.0
N512 N 0.59606 0.18529 0.77159 0.0
N513 N 0.61103 0.17077 0.65316 0.0
C514 C 0.62703 0.15653 0.70054 0.0
C515 C 0.619 0.16448 0.76481 0.0
C516 C 0.81631 0.32154 0.2981 0.0
C517 C 0.8422 0.33433 0.32792 0.0
C518 C 0.80898 0.32856 0.2344 0.0
C519 C 0.82791 0.34773 0.19752 0.0
H520 H 0.80155 0.30603 0.32434 0.0
H521 H 0.7886 0.31842 0.21348 0.0
S522 S 0.89885 0.38635 0.25316 0.0
N523 N 0.88682 0.36711 0.31654 0.0
N524 N 0.87377 0.37935 0.19541 0.0
C525 C 0.85411 0.36042 0.22657 0.0
C526 C 0.86105 0.35399 0.29224 0.0
C527 C 0.62384 0.85349 0.22872 0.0
C528 C 0.63878 0.8294 0.1966 0.0
C529 C 0.63061 0.86016 0.29332 0.0
C530 C 0.65316 0.8435 0.32676 0.0
H531 H 0.60646 0.86683 0.20419 0.0
H532 H 0.61875 0.87887 0.31669 0.0
S533 S 0.69904 0.77871 0.26372 0.0
N534 N 0.67678 0.78882 0.20317 0.0
N535 N 0.69039 0.80219 0.32311 0.0
C536 C 0.66839 0.81966 0.29481 0.0
C537 C 0.66096 0.81238 0.23005 0.0
C538 C 0.15386 0.62997 0.3124 0.0
C539 C 0.13093 0.65174 0.32506 0.0
C540 C 0.16142 0.6219 0.24927 0.0
C541 C 0.1461 0.635 0.1964 0.0
H542 H 0.16677 0.61982 0.3514 0.0
H543 H 0.17985 0.60565 0.24193 0.0
S544 S 0.08234 0.69112 0.20404 0.0
N545 N 0.09162 0.68489 0.27971 0.0
N546 N 0.10562 0.66946 0.16128 0.0
C547 C 0.12223 0.65582 0.20853 0.0
C548 C 0.11473 0.66427 0.27278 0.0
C549 C 0.35483 0.15834 0.31529 0.0
C550 C 0.33572 0.13315 0.32795 0.0
C551 C 0.36204 0.1667 0.25217 0.0
C552 C 0.35072 0.15 0.1993 0.0
H553 H 0.36339 0.17239 0.35427 0.0
H554 H 0.37616 0.18681 0.24482 0.0
S555 S 0.30221 0.08025 0.20707 0.0
N556 N 0.30728 0.09028 0.2827 0.0
N557 N 0.32111 0.1058 0.16427 0.0
C558 C 0.33272 0.12393 0.21146 0.0
C559 C 0.32514 0.11558 0.27572 0.0
loop_
_geom_bond_atom_site_label_1
_geom_bond_atom_site_label_2
_geom_bond_distance
_geom_bond_site_symmetry_2
_ccdc_geom_bond_type
In0 O1 2.294 . S
In0 O2 2.326 . S
In0 O6 2.266 1_554 S
In0 O7 2.326 1_554 S
In0 O8 2.266 1_554 S
In0 O9 2.325 1_554 S
In0 O11 2.294 . S
In0 O12 2.326 . S
O1 In0 2.294 . S
O1 C10 1.240 . S
O2 In0 2.326 . S
O2 C10 1.252 . S
C3 O6 1.252 . S
C3 O7 1.260 . S
C4 O11 1.240 . S
C4 O12 1.252 . S
C5 O8 1.252 . S
C5 O9 1.261 . S
O6 In0 2.266 1_556 S
O6 C3 1.252 . S
O7 In0 2.326 1_556 S
O7 C3 1.260 . S
O8 In0 2.266 1_556 S
O8 C5 1.252 . S
O9 In0 2.325 1_556 S
O9 C5 1.261 . S
C10 O1 1.240 . S
C10 O2 1.252 . S
O11 In0 2.294 . S
O11 C4 1.240 . S
O12 In0 2.326 . S
O12 C4 1.252 . S
In13 O14 2.294 . S
In13 O15 2.326 . S
In13 O19 2.266 1_554 S
In13 O20 2.326 1_554 S
In13 O21 2.266 1_554 S
In13 O22 2.325 1_554 S
In13 O24 2.294 . S
In13 O25 2.326 . S
O14 In13 2.294 . S
O14 C23 1.240 . S
O15 In13 2.326 . S
O15 C23 1.252 . S
C16 O19 1.252 . S
C16 O20 1.260 . S
C17 O24 1.240 . S
C17 O25 1.252 . S
C18 O21 1.252 . S
C18 O22 1.261 . S
O19 In13 2.266 1_556 S
O19 C16 1.252 . S
O20 In13 2.326 1_556 S
O20 C16 1.260 . S
O21 In13 2.266 1_556 S
O21 C18 1.252 . S
O22 In13 2.325 1_556 S
O22 C18 1.261 . S
C23 O14 1.240 . S
C23 O15 1.252 . S
O24 In13 2.294 . S
O24 C17 1.240 . S
O25 In13 2.326 . S
O25 C17 1.252 . S
In26 O27 2.294 . S
In26 O28 2.326 . S
In26 O32 2.266 1_554 S
In26 O33 2.325 1_554 S
In26 O34 2.266 1_554 S
In26 O35 2.326 1_554 S
In26 O37 2.294 . S
In26 O38 2.326 . S
O27 In26 2.294 . S
O27 C36 1.240 . S
O28 In26 2.326 . S
O28 C36 1.252 . S
C29 O32 1.252 . S
C29 O33 1.261 . S
C30 O37 1.240 . S
C30 O38 1.252 . S
C31 O34 1.252 . S
C31 O35 1.260 . S
O32 In26 2.266 1_556 S
O32 C29 1.252 . S
O33 In26 2.325 1_556 S
O33 C29 1.261 . S
O34 In26 2.266 1_556 S
O34 C31 1.252 . S
O35 In26 2.326 1_556 S
O35 C31 1.260 . S
C36 O27 1.240 . S
C36 O28 1.252 . S
O37 In26 2.294 . S
O37 C30 1.240 . S
O38 In26 2.326 . S
O38 C30 1.252 . S
In39 O40 2.294 . S
In39 O41 2.326 . S
In39 O45 2.266 1_554 S
In39 O46 2.326 1_554 S
In39 O47 2.266 1_554 S
In39 O48 2.325 1_554 S
In39 O50 2.294 . S
In39 O51 2.326 . S
O40 In39 2.294 . S
O40 C49 1.240 . S
O41 In39 2.326 . S
O41 C49 1.252 . S
C42 O45 1.252 . S
C42 O46 1.260 . S
C43 O50 1.240 . S
C43 O51 1.252 . S
C44 O47 1.252 . S
C44 O48 1.261 . S
O45 In39 2.266 1_556 S
O45 C42 1.252 . S
O46 In39 2.326 1_556 S
O46 C42 1.260 . S
O47 In39 2.266 1_556 S
O47 C44 1.252 . S
O48 In39 2.325 1_556 S
O48 C44 1.261 . S
C49 O40 1.240 . S
C49 O41 1.252 . S
O50 In39 2.294 . S
O50 C43 1.240 . S
O51 In39 2.326 . S
O51 C43 1.252 . S
In52 O53 2.294 1_554 S
In52 O54 2.326 1_554 S
In52 O58 2.266 . S
In52 O59 2.326 . S
In52 O60 2.266 . S
In52 O61 2.326 . S
In52 O63 2.294 1_554 S
In52 O64 2.326 1_554 S
O53 In52 2.294 1_556 S
O53 C62 1.240 . S
O54 In52 2.326 1_556 S
O54 C62 1.252 . S
C55 O58 1.252 . S
C55 O59 1.260 . S
C56 O63 1.240 . S
C56 O64 1.252 . S
C57 O60 1.252 . S
C57 O61 1.260 . S
O58 In52 2.266 . S
O58 C55 1.252 . S
O59 In52 2.326 . S
O59 C55 1.260 . S
O60 In52 2.266 . S
O60 C57 1.252 . S
O61 In52 2.326 . S
O61 C57 1.260 . S
C62 O53 1.240 . S
C62 O54 1.252 . S
O63 In52 2.294 1_556 S
O63 C56 1.240 . S
O64 In52 2.326 1_556 S
O64 C56 1.252 . S
In65 O66 2.294 1_554 S
In65 O67 2.326 1_554 S
In65 O71 2.266 . S
In65 O72 2.326 . S
In65 O73 2.266 . S
In65 O74 2.326 . S
In65 O76 2.294 1_554 S
In65 O77 2.326 1_554 S
O66 In65 2.294 1_556 S
O66 C75 1.240 . S
O67 In65 2.326 1_556 S
O67 C75 1.252 . S
C68 O71 1.252 . S
C68 O72 1.260 . S
C69 O76 1.240 . S
C69 O77 1.252 . S
C70 O73 1.252 . S
C70 O74 1.260 . S
O71 In65 2.266 . S
O71 C68 1.252 . S
O72 In65 2.326 . S
O72 C68 1.260 . S
O73 In65 2.266 . S
O73 C70 1.252 . S
O74 In65 2.326 . S
O74 C70 1.260 . S
C75 O66 1.240 . S
C75 O67 1.252 . S
O76 In65 2.294 1_556 S
O76 C69 1.240 . S
O77 In65 2.326 1_556 S
O77 C69 1.252 . S
In78 O79 2.294 1_554 S
In78 O80 2.326 1_554 S
In78 O84 2.266 . S
In78 O85 2.326 . S
In78 O86 2.266 . S
In78 O87 2.326 . S
In78 O89 2.294 1_554 S
In78 O90 2.326 1_554 S
O79 In78 2.294 1_556 S
O79 C88 1.240 . S
O80 In78 2.326 1_556 S
O80 C88 1.252 . S
C81 O84 1.252 . S
C81 O85 1.260 . S
C82 O89 1.240 . S
C82 O90 1.252 . S
C83 O86 1.252 . S
C83 O87 1.260 . S
O84 In78 2.266 . S
O84 C81 1.252 . S
O85 In78 2.326 . S
O85 C81 1.260 . S
O86 In78 2.266 . S
O86 C83 1.252 . S
O87 In78 2.326 . S
O87 C83 1.260 . S
C88 O79 1.240 . S
C88 O80 1.252 . S
O89 In78 2.294 1_556 S
O89 C82 1.240 . S
O90 In78 2.326 1_556 S
O90 C82 1.252 . S
In91 O92 2.294 1_554 S
In91 O93 2.326 1_554 S
In91 O97 2.266 . S
In91 O98 2.326 . S
In91 O99 2.266 . S
In91 O100 2.326 . S
In91 O102 2.294 1_554 S
In91 O103 2.326 1_554 S
O92 In91 2.294 1_556 S
O92 C101 1.240 . S
O93 In91 2.326 1_556 S
O93 C101 1.252 . S
C94 O97 1.252 . S
C94 O98 1.260 . S
C95 O102 1.240 . S
C95 O103 1.252 . S
C96 O99 1.252 . S
C96 O100 1.260 . S
O97 In91 2.266 . S
O97 C94 1.252 . S
O98 In91 2.326 . S
O98 C94 1.260 . S
O99 In91 2.266 . S
O99 C96 1.252 . S
O100 In91 2.326 . S
O100 C96 1.260 . S
C101 O92 1.240 . S
C101 O93 1.252 . S
O102 In91 2.294 1_556 S
O102 C95 1.240 . S
O103 In91 2.326 1_556 S
O103 C95 1.252 . S
In104 O105 2.294 . S
In104 O106 2.326 . S
In104 O110 2.266 . S
In104 O111 2.326 . S
In104 O112 2.266 . S
In104 O113 2.326 . S
In104 O115 2.294 . S
In104 O116 2.326 . S
O105 In104 2.294 . S
O105 C114 1.240 . S
O106 In104 2.326 . S
O106 C114 1.252 . S
C107 O110 1.252 . S
C107 O111 1.260 . S
C108 O115 1.240 . S
C108 O116 1.252 . S
C109 O112 1.252 . S
C109 O113 1.260 . S
O110 In104 2.266 . S
O110 C107 1.252 . S
O111 In104 2.326 . S
O111 C107 1.260 . S
O112 In104 2.266 . S
O112 C109 1.252 . S
O113 In104 2.326 . S
O113 C109 1.260 . S
C114 O105 1.240 . S
C114 O106 1.252 . S
O115 In104 2.294 . S
O115 C108 1.240 . S
O116 In104 2.326 . S
O116 C108 1.252 . S
In117 O118 2.294 . S
In117 O119 2.326 . S
In117 O123 2.266 . S
In117 O124 2.326 . S
In117 O125 2.266 . S
In117 O126 2.326 . S
In117 O128 2.294 . S
In117 O129 2.326 . S
O118 In117 2.294 . S
O118 C127 1.240 . S
O119 In117 2.326 . S
O119 C127 1.252 . S
C120 O123 1.252 . S
C120 O124 1.260 . S
C121 O128 1.240 . S
C121 O129 1.252 . S
C122 O125 1.252 . S
C122 O126 1.260 . S
O123 In117 2.266 . S
O123 C120 1.252 . S
O124 In117 2.326 . S
O124 C120 1.260 . S
O125 In117 2.266 . S
O125 C122 1.252 . S
O126 In117 2.326 . S
O126 C122 1.260 . S
C127 O118 1.240 . S
C127 O119 1.252 . S
O128 In117 2.294 . S
O128 C121 1.240 . S
O129 In117 2.326 . S
O129 C121 1.252 . S
In130 O131 2.294 . S
In130 O132 2.326 . S
In130 O136 2.266 . S
In130 O137 2.326 . S
In130 O138 2.266 . S
In130 O139 2.326 . S
In130 O141 2.294 . S
In130 O142 2.326 . S
O131 In130 2.294 . S
O131 C140 1.240 . S
O132 In130 2.326 . S
O132 C140 1.252 . S
C133 O136 1.252 . S
C133 O137 1.260 . S
C134 O141 1.240 . S
C134 O142 1.252 . S
C135 O138 1.252 . S
C135 O139 1.260 . S
O136 In130 2.266 . S
O136 C133 1.252 . S
O137 In130 2.326 . S
O137 C133 1.260 . S
O138 In130 2.266 . S
O138 C135 1.252 . S
O139 In130 2.326 . S
O139 C135 1.260 . S
C140 O131 1.240 . S
C140 O132 1.252 . S
O141 In130 2.294 . S
O141 C134 1.240 . S
O142 In130 2.326 . S
O142 C134 1.252 . S
In143 O144 2.294 . S
In143 O145 2.326 . S
In143 O149 2.266 . S
In143 O150 2.326 . S
In143 O151 2.266 . S
In143 O152 2.326 . S
In143 O154 2.294 . S
In143 O155 2.326 . S
O144 In143 2.294 . S
O144 C153 1.240 . S
O145 In143 2.326 . S
O145 C153 1.252 . S
C146 O149 1.252 . S
C146 O150 1.260 . S
C147 O154 1.240 . S
C147 O155 1.252 . S
C148 O151 1.252 . S
C148 O152 1.260 . S
O149 In143 2.266 . S
O149 C146 1.252 . S
O150 In143 2.326 . S
O150 C146 1.260 . S
O151 In143 2.266 . S
O151 C148 1.252 . S
O152 In143 2.326 . S
O152 C148 1.260 . S
C153 O144 1.240 . S
C153 O145 1.252 . S
O154 In143 2.294 . S
O154 C147 1.240 . S
O155 In143 2.326 . S
O155 C147 1.252 . S
In156 O157 2.294 . S
In156 O158 2.326 . S
In156 O162 2.266 . S
In156 O163 2.326 . S
In156 O164 2.266 . S
In156 O165 2.326 . S
In156 O167 2.294 . S
In156 O168 2.326 . S
O157 In156 2.294 . S
O157 C166 1.240 . S
O158 In156 2.326 . S
O158 C166 1.252 . S
C159 O162 1.252 . S
C159 O163 1.260 . S
C160 O167 1.240 . S
C160 O168 1.252 . S
C161 O164 1.252 . S
C161 O165 1.260 . S
O162 In156 2.266 . S
O162 C159 1.252 . S
O163 In156 2.326 . S
O163 C159 1.260 . S
O164 In156 2.266 . S
O164 C161 1.252 . S
O165 In156 2.326 . S
O165 C161 1.260 . S
C166 O157 1.240 . S
C166 O158 1.252 . S
O167 In156 2.294 . S
O167 C160 1.240 . S
O168 In156 2.326 . S
O168 C160 1.252 . S
In169 O170 2.294 . S
In169 O171 2.326 . S
In169 O175 2.266 . S
In169 O176 2.326 . S
In169 O177 2.266 . S
In169 O178 2.326 . S
In169 O180 2.294 . S
In169 O181 2.326 . S
O170 In169 2.294 . S
O170 C179 1.240 . S
O171 In169 2.326 . S
O171 C179 1.252 . S
C172 O175 1.252 . S
C172 O176 1.260 . S
C173 O180 1.240 . S
C173 O181 1.252 . S
C174 O177 1.252 . S
C174 O178 1.260 . S
O175 In169 2.266 . S
O175 C172 1.252 . S
O176 In169 2.326 . S
O176 C172 1.260 . S
O177 In169 2.266 . S
O177 C174 1.252 . S
O178 In169 2.326 . S
O178 C174 1.260 . S
C179 O170 1.240 . S
C179 O171 1.252 . S
O180 In169 2.294 . S
O180 C173 1.240 . S
O181 In169 2.326 . S
O181 C173 1.252 . S
In182 O183 2.294 . S
In182 O184 2.326 . S
In182 O188 2.266 . S
In182 O189 2.326 . S
In182 O190 2.266 . S
In182 O191 2.326 . S
In182 O193 2.294 . S
In182 O194 2.326 . S
O183 In182 2.294 . S
O183 C192 1.240 . S
O184 In182 2.326 . S
O184 C192 1.252 . S
C185 O188 1.252 . S
C185 O189 1.260 . S
C186 O193 1.240 . S
C186 O194 1.252 . S
C187 O190 1.252 . S
C187 O191 1.260 . S
O188 In182 2.266 . S
O188 C185 1.252 . S
O189 In182 2.326 . S
O189 C185 1.260 . S
O190 In182 2.266 . S
O190 C187 1.252 . S
O191 In182 2.326 . S
O191 C187 1.260 . S
C192 O183 1.240 . S
C192 O184 1.252 . S
O193 In182 2.294 . S
O193 C186 1.240 . S
O194 In182 2.326 . S
O194 C186 1.252 . S
In195 O196 2.294 . S
In195 O197 2.326 . S
In195 O201 2.266 . S
In195 O202 2.326 . S
In195 O203 2.266 . S
In195 O204 2.326 . S
In195 O206 2.294 . S
In195 O207 2.326 . S
O196 In195 2.294 . S
O196 C205 1.240 . S
O197 In195 2.326 . S
O197 C205 1.252 . S
C198 O201 1.252 . S
C198 O202 1.260 . S
C199 O206 1.240 . S
C199 O207 1.252 . S
C200 O203 1.252 . S
C200 O204 1.260 . S
O201 In195 2.266 . S
O201 C198 1.252 . S
O202 In195 2.326 . S
O202 C198 1.260 . S
O203 In195 2.266 . S
O203 C200 1.252 . S
O204 In195 2.326 . S
O204 C200 1.260 . S
C205 O196 1.240 . S
C205 O197 1.252 . S
O206 In195 2.294 . S
O206 C199 1.240 . S
O207 In195 2.326 . S
O207 C199 1.252 . S
C208 C209 1.369 1_554 S
C208 C210 1.419 . S
C208 H212 0.930 . S
C209 C208 1.369 1_556 S
C209 C218 1.429 . S
C210 C208 1.419 . S
C210 C211 1.363 . S
C210 H213 0.929 . S
C211 C210 1.363 . S
C211 C217 1.428 1_554 S
H212 C208 0.930 . S
H213 C210 0.929 . S
S214 N215 1.613 . S
S214 N216 1.610 . S
N215 S214 1.613 . S
N215 C218 1.350 . S
N216 S214 1.610 . S
N216 C217 1.351 . S
C217 C211 1.428 1_556 S
C217 N216 1.351 . S
C217 C218 1.434 . S
C218 C209 1.429 . S
C218 N215 1.350 . S
C218 C217 1.434 . S
C219 C220 1.369 1_554 S
C219 C221 1.419 . S
C219 H223 0.930 . S
C220 C219 1.369 1_556 S
C220 C229 1.429 . S
C221 C219 1.419 . S
C221 C222 1.363 . S
C221 H224 0.929 . S
C222 C221 1.363 . S
C222 C228 1.428 1_554 S
H223 C219 0.930 . S
H224 C221 0.929 . S
S225 N226 1.613 . S
S225 N227 1.610 . S
N226 S225 1.613 . S
N226 C229 1.350 . S
N227 S225 1.610 . S
N227 C228 1.351 . S
C228 C222 1.428 1_556 S
C228 N227 1.351 . S
C228 C229 1.434 . S
C229 C220 1.429 . S
C229 N226 1.350 . S
C229 C228 1.434 . S
C230 C231 1.369 1_554 S
C230 C232 1.419 . S
C230 H234 0.930 . S
C231 C230 1.369 1_556 S
C231 C240 1.429 . S
C232 C230 1.419 . S
C232 C233 1.363 . S
C232 H235 0.929 . S
C233 C232 1.363 . S
C233 C239 1.428 1_554 S
H234 C230 0.930 . S
H235 C232 0.929 . S
S236 N237 1.613 . S
S236 N238 1.610 . S
N237 S236 1.613 . S
N237 C240 1.350 . S
N238 S236 1.610 . S
N238 C239 1.351 . S
C239 C233 1.428 1_556 S
C239 N238 1.351 . S
C239 C240 1.434 . S
C240 C231 1.429 . S
C240 N237 1.350 . S
C240 C239 1.434 . S
C241 C242 1.369 1_554 S
C241 C243 1.419 . S
C241 H245 0.930 . S
C242 C241 1.369 1_556 S
C242 C251 1.429 . S
C243 C241 1.419 . S
C243 C244 1.363 . S
C243 H246 0.929 . S
C244 C243 1.363 . S
C244 C250 1.428 1_554 S
H245 C241 0.930 . S
H246 C243 0.929 . S
S247 N248 1.613 . S
S247 N249 1.610 . S
N248 S247 1.613 . S
N248 C251 1.350 . S
N249 S247 1.610 . S
N249 C250 1.351 . S
C250 C244 1.428 1_556 S
C250 N249 1.351 . S
C250 C251 1.434 . S
C251 C242 1.429 . S
C251 N248 1.350 . S
C251 C250 1.434 . S
C252 C253 1.369 . S
C252 C254 1.419 1_545 S
C252 H256 0.930 . S
C253 C252 1.369 . S
C253 C262 1.429 . S
C254 C252 1.419 1_565 S
C254 C255 1.363 . S
C254 H257 0.929 . S
C255 C254 1.363 . S
C255 C261 1.428 . S
H256 C252 0.930 . S
H257 C254 0.929 . S
S258 N259 1.613 . S
S258 N260 1.610 1_545 S
N259 S258 1.613 . S
N259 C262 1.350 . S
N260 S258 1.610 1_565 S
N260 C261 1.351 . S
C261 C255 1.428 . S
C261 N260 1.351 . S
C261 C262 1.434 1_565 S
C262 C253 1.429 . S
C262 N259 1.350 . S
C262 C261 1.434 1_545 S
C263 C264 1.369 . S
C263 C265 1.419 1_655 S
C263 H267 0.930 . S
C264 C263 1.369 . S
C264 C273 1.429 . S
C265 C263 1.419 1_455 S
C265 C266 1.363 . S
C265 H268 0.929 . S
C266 C265 1.363 . S
C266 C272 1.428 . S
H267 C263 0.930 . S
H268 C265 0.929 . S
S269 N270 1.613 . S
S269 N271 1.610 1_655 S
N270 S269 1.613 . S
N270 C273 1.350 . S
N271 S269 1.610 1_455 S
N271 C272 1.351 . S
C272 C266 1.428 . S
C272 N271 1.351 . S
C272 C273 1.434 1_455 S
C273 C264 1.429 . S
C273 N270 1.350 . S
C273 C272 1.434 1_655 S
C274 C275 1.369 . S
C274 C276 1.419 1_545 S
C274 H278 0.930 . S
C275 C274 1.369 . S
C275 C284 1.429 . S
C276 C274 1.419 1_565 S
C276 C277 1.363 . S
C276 H279 0.929 . S
C277 C276 1.363 . S
C277 C283 1.428 . S
H278 C274 0.930 . S
H279 C276 0.929 . S
S280 N281 1.613 1_565 S
S280 N282 1.610 . S
N281 S280 1.613 1_545 S
N281 C284 1.350 . S
N282 S280 1.610 . S
N282 C283 1.351 . S
C283 C277 1.428 . S
C283 N282 1.351 . S
C283 C284 1.434 1_565 S
C284 C275 1.429 . S
C284 N281 1.350 . S
C284 C283 1.434 1_545 S
C285 C286 1.369 . S
C285 C287 1.419 1_455 S
C285 H289 0.930 . S
C286 C285 1.369 . S
C286 C295 1.429 . S
C287 C285 1.419 1_655 S
C287 C288 1.363 . S
C287 H290 0.929 . S
C288 C287 1.363 . S
C288 C294 1.428 . S
H289 C285 0.930 . S
H290 C287 0.929 . S
S291 N292 1.613 1_655 S
S291 N293 1.610 . S
N292 S291 1.613 1_455 S
N292 C295 1.350 . S
N293 S291 1.610 . S
N293 C294 1.351 . S
C294 C288 1.428 . S
C294 N293 1.351 . S
C294 C295 1.434 1_655 S
C295 C286 1.429 . S
C295 N292 1.350 . S
C295 C294 1.434 1_455 S
C296 C297 1.369 . S
C296 C298 1.419 . S
C296 H300 0.930 . S
C297 C296 1.369 . S
C297 C306 1.429 1_556 S
C298 C296 1.419 . S
C298 C299 1.363 1_556 S
C298 H301 0.929 . S
C299 C298 1.363 1_554 S
C299 C305 1.428 . S
H300 C296 0.930 . S
H301 C298 0.929 . S
S302 N303 1.613 . S
S302 N304 1.610 . S
N303 S302 1.613 . S
N303 C306 1.350 . S
N304 S302 1.610 . S
N304 C305 1.351 . S
C305 C299 1.428 . S
C305 N304 1.351 . S
C305 C306 1.434 . S
C306 C297 1.429 1_554 S
C306 N303 1.350 . S
C306 C305 1.434 . S
C307 C308 1.369 . S
C307 C309 1.419 1_554 S
C307 H311 0.930 . S
C308 C307 1.369 . S
C308 C317 1.429 . S
C309 C307 1.419 1_556 S
C309 C310 1.363 . S
C309 H312 0.929 . S
C310 C309 1.363 . S
C310 C316 1.428 1_556 S
H311 C307 0.930 . S
H312 C309 0.929 . S
S313 N314 1.613 . S
S313 N315 1.610 . S
N314 S313 1.613 . S
N314 C317 1.350 . S
N315 S313 1.610 . S
N315 C316 1.351 . S
C316 C310 1.428 1_554 S
C316 N315 1.351 . S
C316 C317 1.434 . S
C317 C308 1.429 . S
C317 N314 1.350 . S
C317 C316 1.434 . S
C318 C319 1.369 . S
C318 C320 1.419 1_556 S
C318 H322 0.930 . S
C319 C318 1.369 . S
C319 C328 1.429 1_556 S
C320 C318 1.419 1_554 S
C320 C321 1.363 . S
C320 H323 0.929 . S
C321 C320 1.363 . S
C321 C327 1.428 . S
H322 C318 0.930 . S
H323 C320 0.929 . S
S324 N325 1.613 . S
S324 N326 1.610 . S
N325 S324 1.613 . S
N325 C328 1.350 . S
N326 S324 1.610 . S
N326 C327 1.351 . S
C327 C321 1.428 . S
C327 N326 1.351 . S
C327 C328 1.434 . S
C328 C319 1.429 1_554 S
C328 N325 1.350 . S
C328 C327 1.434 . S
C329 C330 1.369 1_556 S
C329 C331 1.419 . S
C329 H333 0.930 . S
C330 C329 1.369 1_554 S
C330 C339 1.429 . S
C331 C329 1.419 . S
C331 C332 1.363 . S
C331 H334 0.929 . S
C332 C331 1.363 . S
C332 C338 1.428 1_556 S
H333 C329 0.930 . S
H334 C331 0.929 . S
S335 N336 1.613 . S
S335 N337 1.610 . S
N336 S335 1.613 . S
N336 C339 1.350 . S
N337 S335 1.610 . S
N337 C338 1.351 . S
C338 C332 1.428 1_554 S
C338 N337 1.351 . S
C338 C339 1.434 . S
C339 C330 1.429 . S
C339 N336 1.350 . S
C339 C338 1.434 . S
C340 C341 1.369 . S
C340 C342 1.419 . S
C340 H344 0.930 . S
C341 C340 1.369 . S
C341 C350 1.429 . S
C342 C340 1.419 . S
C342 C343 1.363 . S
C342 H345 0.929 . S
C343 C342 1.363 . S
C343 C349 1.428 . S
H344 C340 0.930 . S
H345 C342 0.929 . S
S346 N347 1.613 . S
S346 N348 1.610 . S
N347 S346 1.613 . S
N347 C350 1.350 . S
N348 S346 1.610 . S
N348 C349 1.351 . S
C349 C343 1.428 . S
C349 N348 1.351 . S
C349 C350 1.434 . S
C350 C341 1.429 . S
C350 N347 1.350 . S
C350 C349 1.434 . S
C351 C352 1.369 . S
C351 C353 1.419 . S
C351 H355 0.930 . S
C352 C351 1.369 . S
C352 C361 1.429 . S
C353 C351 1.419 . S
C353 C354 1.363 . S
C353 H356 0.929 . S
C354 C353 1.363 . S
C354 C360 1.428 . S
H355 C351 0.930 . S
H356 C353 0.929 . S
S357 N358 1.613 . S
S357 N359 1.610 . S
N358 S357 1.613 . S
N358 C361 1.350 . S
N359 S357 1.610 . S
N359 C360 1.351 . S
C360 C354 1.428 . S
C360 N359 1.351 . S
C360 C361 1.434 . S
C361 C352 1.429 . S
C361 N358 1.350 . S
C361 C360 1.434 . S
C362 C363 1.369 . S
C362 C364 1.419 . S
C362 H366 0.930 . S
C363 C362 1.369 . S
C363 C372 1.429 . S
C364 C362 1.419 . S
C364 C365 1.363 . S
C364 H367 0.929 . S
C365 C364 1.363 . S
C365 C371 1.428 . S
H366 C362 0.930 . S
H367 C364 0.929 . S
S368 N369 1.613 . S
S368 N370 1.610 . S
N369 S368 1.613 . S
N369 C372 1.350 . S
N370 S368 1.610 . S
N370 C371 1.351 . S
C371 C365 1.428 . S
C371 N370 1.351 . S
C371 C372 1.434 . S
C372 C363 1.429 . S
C372 N369 1.350 . S
C372 C371 1.434 . S
C373 C374 1.369 . S
C373 C375 1.419 . S
C373 H377 0.930 . S
C374 C373 1.369 . S
C374 C383 1.429 . S
C375 C373 1.419 . S
C375 C376 1.363 . S
C375 H378 0.929 . S
C376 C375 1.363 . S
C376 C382 1.428 . S
H377 C373 0.930 . S
H378 C375 0.929 . S
S379 N380 1.613 . S
S379 N381 1.610 . S
N380 S379 1.613 . S
N380 C383 1.350 . S
N381 S379 1.610 . S
N381 C382 1.351 . S
C382 C376 1.428 . S
C382 N381 1.351 . S
C382 C383 1.434 . S
C383 C374 1.429 . S
C383 N380 1.350 . S
C383 C382 1.434 . S
C384 C385 1.369 . S
C384 C386 1.419 . S
C384 H388 0.930 . S
C385 C384 1.369 . S
C385 C394 1.429 . S
C386 C384 1.419 . S
C386 C387 1.363 . S
C386 H389 0.929 . S
C387 C386 1.363 . S
C387 C393 1.428 . S
H388 C384 0.930 . S
H389 C386 0.929 . S
S390 N391 1.613 . S
S390 N392 1.610 . S
N391 S390 1.613 . S
N391 C394 1.350 . S
N392 S390 1.610 . S
N392 C393 1.351 . S
C393 C387 1.428 . S
C393 N392 1.351 . S
C393 C394 1.434 . S
C394 C385 1.429 . S
C394 N391 1.350 . S
C394 C393 1.434 . S
C395 C396 1.369 . S
C395 C397 1.419 . S
C395 H399 0.930 . S
C396 C395 1.369 . S
C396 C405 1.429 . S
C397 C395 1.419 . S
C397 C398 1.363 . S
C397 H400 0.929 . S
C398 C397 1.363 . S
C398 C404 1.428 . S
H399 C395 0.930 . S
H400 C397 0.929 . S
S401 N402 1.613 . S
S401 N403 1.610 . S
N402 S401 1.613 . S
N402 C405 1.350 . S
N403 S401 1.610 . S
N403 C404 1.351 . S
C404 C398 1.428 . S
C404 N403 1.351 . S
C404 C405 1.434 . S
C405 C396 1.429 . S
C405 N402 1.350 . S
C405 C404 1.434 . S
C406 C407 1.369 . S
C406 C408 1.419 . S
C406 H410 0.930 . S
C407 C406 1.369 . S
C407 C416 1.429 . S
C408 C406 1.419 . S
C408 C409 1.363 . S
C408 H411 0.929 . S
C409 C408 1.363 . S
C409 C415 1.428 . S
H410 C406 0.930 . S
H411 C408 0.929 . S
S412 N413 1.613 . S
S412 N414 1.610 . S
N413 S412 1.613 . S
N413 C416 1.350 . S
N414 S412 1.610 . S
N414 C415 1.351 . S
C415 C409 1.428 . S
C415 N414 1.351 . S
C415 C416 1.434 . S
C416 C407 1.429 . S
C416 N413 1.350 . S
C416 C415 1.434 . S
C417 C418 1.369 . S
C417 C419 1.419 . S
C417 H421 0.930 . S
C418 C417 1.369 . S
C418 C427 1.429 . S
C419 C417 1.419 . S
C419 C420 1.363 . S
C419 H422 0.929 . S
C420 C419 1.363 . S
C420 C426 1.428 . S
H421 C417 0.930 . S
H422 C419 0.929 . S
S423 N424 1.613 . S
S423 N425 1.610 . S
N424 S423 1.613 . S
N424 C427 1.350 . S
N425 S423 1.610 . S
N425 C426 1.351 . S
C426 C420 1.428 . S
C426 N425 1.351 . S
C426 C427 1.434 . S
C427 C418 1.429 . S
C427 N424 1.350 . S
C427 C426 1.434 . S
C428 C429 1.369 . S
C428 C430 1.419 . S
C428 H432 0.930 . S
C429 C428 1.369 . S
C429 C438 1.429 . S
C430 C428 1.419 . S
C430 C431 1.363 . S
C430 H433 0.929 . S
C431 C430 1.363 . S
C431 C437 1.428 . S
H432 C428 0.930 . S
H433 C430 0.929 . S
S434 N435 1.613 . S
S434 N436 1.610 . S
N435 S434 1.613 . S
N435 C438 1.350 . S
N436 S434 1.610 . S
N436 C437 1.351 . S
C437 C431 1.428 . S
C437 N436 1.351 . S
C437 C438 1.434 . S
C438 C429 1.429 . S
C438 N435 1.350 . S
C438 C437 1.434 . S
C439 C440 1.369 . S
C439 C441 1.419 . S
C439 H443 0.930 . S
C440 C439 1.369 . S
C440 C449 1.429 . S
C441 C439 1.419 . S
C441 C442 1.363 . S
C441 H444 0.929 . S
C442 C441 1.363 . S
C442 C448 1.428 . S
H443 C439 0.930 . S
H444 C441 0.929 . S
S445 N446 1.613 . S
S445 N447 1.610 . S
N446 S445 1.613 . S
N446 C449 1.350 . S
N447 S445 1.610 . S
N447 C448 1.351 . S
C448 C442 1.428 . S
C448 N447 1.351 . S
C448 C449 1.434 . S
C449 C440 1.429 . S
C449 N446 1.350 . S
C449 C448 1.434 . S
C450 C451 1.369 . S
C450 C452 1.419 . S
C450 H454 0.930 . S
C451 C450 1.369 . S
C451 C460 1.429 . S
C452 C450 1.419 . S
C452 C453 1.363 . S
C452 H455 0.929 . S
C453 C452 1.363 . S
C453 C459 1.428 . S
H454 C450 0.930 . S
H455 C452 0.929 . S
S456 N457 1.613 . S
S456 N458 1.610 . S
N457 S456 1.613 . S
N457 C460 1.350 . S
N458 S456 1.610 . S
N458 C459 1.351 . S
C459 C453 1.428 . S
C459 N458 1.351 . S
C459 C460 1.434 . S
C460 C451 1.429 . S
C460 N457 1.350 . S
C460 C459 1.434 . S
C461 C462 1.369 . S
C461 C463 1.419 . S
C461 H465 0.930 . S
C462 C461 1.369 . S
C462 C471 1.429 . S
C463 C461 1.419 . S
C463 C464 1.363 . S
C463 H466 0.929 . S
C464 C463 1.363 . S
C464 C470 1.428 . S
H465 C461 0.930 . S
H466 C463 0.929 . S
S467 N468 1.613 . S
S467 N469 1.610 . S
N468 S467 1.613 . S
N468 C471 1.350 . S
N469 S467 1.610 . S
N469 C470 1.351 . S
C470 C464 1.428 . S
C470 N469 1.351 . S
C470 C471 1.434 . S
C471 C462 1.429 . S
C471 N468 1.350 . S
C471 C470 1.434 . S
C472 C473 1.369 . S
C472 C474 1.419 . S
C472 H476 0.930 . S
C473 C472 1.369 . S
C473 C482 1.429 . S
C474 C472 1.419 . S
C474 C475 1.363 . S
C474 H477 0.929 . S
C475 C474 1.363 . S
C475 C481 1.428 . S
H476 C472 0.930 . S
H477 C474 0.929 . S
S478 N479 1.613 . S
S478 N480 1.610 . S
N479 S478 1.613 . S
N479 C482 1.350 . S
N480 S478 1.610 . S
N480 C481 1.351 . S
C481 C475 1.428 . S
C481 N480 1.351 . S
C481 C482 1.434 . S
C482 C473 1.429 . S
C482 N479 1.350 . S
C482 C481 1.434 . S
C483 C484 1.369 . S
C483 C485 1.419 . S
C483 H487 0.930 . S
C484 C483 1.369 . S
C484 C493 1.429 . S
C485 C483 1.419 . S
C485 C486 1.363 . S
C485 H488 0.929 . S
C486 C485 1.363 . S
C486 C492 1.428 . S
H487 C483 0.930 . S
H488 C485 0.929 . S
S489 N490 1.613 . S
S489 N491 1.610 . S
N490 S489 1.613 . S
N490 C493 1.350 . S
N491 S489 1.610 . S
N491 C492 1.351 . S
C492 C486 1.428 . S
C492 N491 1.351 . S
C492 C493 1.434 . S
C493 C484 1.429 . S
C493 N490 1.350 . S
C493 C492 1.434 . S
C494 C495 1.369 . S
C494 C496 1.419 . S
C494 H498 0.930 . S
C495 C494 1.369 . S
C495 C504 1.429 . S
C496 C494 1.419 . S
C496 C497 1.363 . S
C496 H499 0.929 . S
C497 C496 1.363 . S
C497 C503 1.428 . S
H498 C494 0.930 . S
H499 C496 0.929 . S
S500 N501 1.613 . S
S500 N502 1.610 . S
N501 S500 1.613 . S
N501 C504 1.350 . S
N502 S500 1.610 . S
N502 C503 1.351 . S
C503 C497 1.428 . S
C503 N502 1.351 . S
C503 C504 1.434 . S
C504 C495 1.429 . S
C504 N501 1.350 . S
C504 C503 1.434 . S
C505 C506 1.369 . S
C505 C507 1.419 . S
C505 H509 0.930 . S
C506 C505 1.369 . S
C506 C515 1.429 . S
C507 C505 1.419 . S
C507 C508 1.363 . S
C507 H510 0.929 . S
C508 C507 1.363 . S
C508 C514 1.428 . S
H509 C505 0.930 . S
H510 C507 0.929 . S
S511 N512 1.613 . S
S511 N513 1.610 . S
N512 S511 1.613 . S
N512 C515 1.350 . S
N513 S511 1.610 . S
N513 C514 1.351 . S
C514 C508 1.428 . S
C514 N513 1.351 . S
C514 C515 1.434 . S
C515 C506 1.429 . S
C515 N512 1.350 . S
C515 C514 1.434 . S
C516 C517 1.369 . S
C516 C518 1.419 . S
C516 H520 0.930 . S
C517 C516 1.369 . S
C517 C526 1.429 . S
C518 C516 1.419 . S
C518 C519 1.363 . S
C518 H521 0.929 . S
C519 C518 1.363 . S
C519 C525 1.428 . S
H520 C516 0.930 . S
H521 C518 0.929 . S
S522 N523 1.613 . S
S522 N524 1.610 . S
N523 S522 1.613 . S
N523 C526 1.350 . S
N524 S522 1.610 . S
N524 C525 1.351 . S
C525 C519 1.428 . S
C525 N524 1.351 . S
C525 C526 1.434 . S
C526 C517 1.429 . S
C526 N523 1.350 . S
C526 C525 1.434 . S
C527 C528 1.369 . S
C527 C529 1.419 . S
C527 H531 0.930 . S
C528 C527 1.369 . S
C528 C537 1.429 . S
C529 C527 1.419 . S
C529 C530 1.363 . S
C529 H532 0.929 . S
C530 C529 1.363 . S
C530 C536 1.428 . S
H531 C527 0.930 . S
H532 C529 0.929 . S
S533 N534 1.613 . S
S533 N535 1.610 . S
N534 S533 1.613 . S
N534 C537 1.350 . S
N535 S533 1.610 . S
N535 C536 1.351 . S
C536 C530 1.428 . S
C536 N535 1.351 . S
C536 C537 1.434 . S
C537 C528 1.429 . S
C537 N534 1.350 . S
C537 C536 1.434 . S
C538 C539 1.369 . S
C538 C540 1.419 . S
C538 H542 0.930 . S
C539 C538 1.369 . S
C539 C548 1.429 . S
C540 C538 1.419 . S
C540 C541 1.363 . S
C540 H543 0.929 . S
C541 C540 1.363 . S
C541 C547 1.428 . S
H542 C538 0.930 . S
H543 C540 0.929 . S
S544 N545 1.613 . S
S544 N546 1.610 . S
N545 S544 1.613 . S
N545 C548 1.350 . S
N546 S544 1.610 . S
N546 C547 1.351 . S
C547 C541 1.428 . S
C547 N546 1.351 . S
C547 C548 1.434 . S
C548 C539 1.429 . S
C548 N545 1.350 . S
C548 C547 1.434 . S
C549 C550 1.369 . S
C549 C551 1.419 . S
C549 H553 0.930 . S
C550 C549 1.369 . S
C550 C559 1.429 . S
C551 C549 1.419 . S
C551 C552 1.363 . S
C551 H554 0.929 . S
C552 C551 1.363 . S
C552 C558 1.428 . S
H553 C549 0.930 . S
H554 C551 0.929 . S
S555 N556 1.613 . S
S555 N557 1.610 . S
N556 S555 1.613 . S
N556 C559 1.350 . S
N557 S555 1.610 . S
N557 C558 1.351 . S
C558 C552 1.428 . S
C558 N557 1.351 . S
C558 C559 1.434 . S
C559 C550 1.429 . S
C559 N556 1.350 . S
C559 C558 1.434 . S
C209 C56 1.513 . S
C211 C4 1.513 . S
C220 C75 1.514 . S
C222 C17 1.512 . S
C231 C82 1.514 . S
C233 C36 1.512 . S
C242 C95 1.514 . S
C244 C43 1.512 . S
C253 C166 1.511 . S
C255 C108 1.514 . S
C264 C173 1.511 . S
C266 C127 1.514 . S
C275 C140 1.514 . S
C277 C186 1.512 . S
C286 C205 1.514 . S
C288 C147 1.512 . S
C297 C5 1.546 . S
C299 C68 1.547 . S
C308 C83 1.548 . S
C310 C18 1.546 . S
C319 C29 1.547 . S
C321 C96 1.546 . S
C330 C57 1.548 . S
C332 C44 1.545 . S
C341 C174 1.545 . S
C343 C109 1.548 . S
C352 C187 1.548 . S
C354 C120 1.545 . S
C363 C133 1.546 . S
C365 C198 1.547 . S
C374 C148 1.548 . S
C376 C159 1.545 . S
C385 C199 1.465 . S
C387 C10 1.463 . S
C396 C160 1.462 . S
C398 C23 1.464 . S
C407 C179 1.461 . S
C409 C30 1.463 . S
C418 C192 1.461 . S
C420 C49 1.463 . S
C429 C121 1.462 . S
C431 C62 1.464 . S
C440 C134 1.461 . S
C442 C69 1.462 . S
C451 C88 1.465 . S
C453 C153 1.464 . S
C462 C101 1.464 . S
C464 C114 1.462 . S
C473 C172 1.428 . S
C475 C31 1.432 . S
C484 C185 1.433 . S
C486 C42 1.429 . S
C495 C200 1.429 . S
C497 C3 1.431 . S
C506 C16 1.428 . S
C508 C161 1.432 . S
C517 C146 1.432 . S
C519 C81 1.431 . S
C528 C94 1.429 . S
C530 C107 1.431 . S
C539 C122 1.428 . S
C541 C55 1.433 . S
C550 C135 1.430 . S
C552 C70 1.432 . S
