# Generated by pormake.
# Topology snz, (6)-cn, num edge types: 1
# Building blocks:
#     Node 0, Type 0, BuildingBlock: VOLQOD_clean_sbu_1, # of connection points: 6
#     Node 1, Type 0, BuildingBlock: VOLQOD_clean_sbu_1, # of connection points: 6
#     Node 2, Type 0, BuildingBlock: VOLQOD_clean_sbu_1, # of connection points: 6
#     Node 3, Type 0, BuildingBlock: VOLQOD_clean_sbu_1, # of connection points: 6
#     Node 4, Type 0, BuildingBlock: VOLQOD_clean_sbu_1, # of connection points: 6
#     Node 5, Type 0, BuildingBlock: VOLQOD_clean_sbu_1, # of connection points: 6
#     Node 6, Type 0, BuildingBlock: VOLQOD_clean_sbu_1, # of connection points: 6
#     Node 7, Type 0, BuildingBlock: VOLQOD_clean_sbu_1, # of connection points: 6
#     Node 8, Type 0, BuildingBlock: VOLQOD_clean_sbu_1, # of connection points: 6
#     Edge 9, Type (0, 0), BuildingBlock: UVAHIK_clean_linker_0, # of connection points: 2
#     Edge 10, Type (0, 0), BuildingBlock: UVAHIK_clean_linker_0, # of connection points: 2
#     Edge 11, Type (0, 0), BuildingBlock: UVAHIK_clean_linker_0, # of connection points: 2
#     Edge 12, Type (0, 0), BuildingBlock: UVAHIK_clean_linker_0, # of connection points: 2
#     Edge 13, Type (0, 0), BuildingBlock: UVAHIK_clean_linker_0, # of connection points: 2
#     Edge 14, Type (0, 0), BuildingBlock: UVAHIK_clean_linker_0, # of connection points: 2
#     Edge 15, Type (0, 0), BuildingBlock: UVAHIK_clean_linker_0, # of connection points: 2
#     Edge 16, Type (0, 0), BuildingBlock: UVAHIK_clean_linker_0, # of connection points: 2
#     Edge 17, Type (0, 0), BuildingBlock: UVAHIK_clean_linker_0, # of connection points: 2
#     Edge 18, Type (0, 0), BuildingBlock: UVAHIK_clean_linker_0, # of connection points: 2
#     Edge 19, Type (0, 0), BuildingBlock: UVAHIK_clean_linker_0, # of connection points: 2
#     Edge 20, Type (0, 0), BuildingBlock: UVAHIK_clean_linker_0, # of connection points: 2
#     Edge 21, Type (0, 0), BuildingBlock: UVAHIK_clean_linker_0, # of connection points: 2
#     Edge 22, Type (0, 0), BuildingBlock: UVAHIK_clean_linker_0, # of connection points: 2
#     Edge 23, Type (0, 0), BuildingBlock: UVAHIK_clean_linker_0, # of connection points: 2
#     Edge 24, Type (0, 0), BuildingBlock: UVAHIK_clean_linker_0, # of connection points: 2
#     Edge 25, Type (0, 0), BuildingBlock: UVAHIK_clean_linker_0, # of connection points: 2
#     Edge 26, Type (0, 0), BuildingBlock: UVAHIK_clean_linker_0, # of connection points: 2
#     Edge 27, Type (0, 0), BuildingBlock: UVAHIK_clean_linker_0, # of connection points: 2
#     Edge 28, Type (0, 0), BuildingBlock: UVAHIK_clean_linker_0, # of connection points: 2
#     Edge 29, Type (0, 0), BuildingBlock: UVAHIK_clean_linker_0, # of connection points: 2
#     Edge 30, Type (0, 0), BuildingBlock: UVAHIK_clean_linker_0, # of connection points: 2
#     Edge 31, Type (0, 0), BuildingBlock: UVAHIK_clean_linker_0, # of connection points: 2
#     Edge 32, Type (0, 0), BuildingBlock: UVAHIK_clean_linker_0, # of connection points: 2
#     Edge 33, Type (0, 0), BuildingBlock: UVAHIK_clean_linker_0, # of connection points: 2
#     Edge 34, Type (0, 0), BuildingBlock: UVAHIK_clean_linker_0, # of connection points: 2
#     Edge 35, Type (0, 0), BuildingBlock: UVAHIK_clean_linker_0, # of connection points: 2
# Relax obj value: 0.409
# Max RMSD: 0.302
# Mean RMSD: 0.293
data_MOF--net-snz--node1-VOLQOD_clean_sbu_1--edge1-UVAHIK_clean_linker_0
_symmetry_space_group_name_H-M    P1
_symmetry_Int_Tables_number       1
_symmetry_cell_setting            triclinic
loop_
_symmetry_equiv_pos_as_xyz
'x, y, z'
_cell_length_a     66.400512
_cell_length_b     66.438293
_cell_length_c     19.60492
_cell_angle_alpha  90.023276
_cell_angle_beta   89.885822
_cell_angle_gamma 120.04013
loop_
_atom_site_label
_atom_site_type_symbol
_atom_site_fract_x
_atom_site_fract_y
_atom_site_fract_z
_atom_type_partial_charge
O0 O 0.07556 0.53432 0.01058 0.0
Zn1 Zn 0.07148 0.55929 0.96549 0.0
O2 O 0.04052 0.55393 0.98108 0.0
Zn3 Zn 0.02085 0.54079 0.904 0.0
Zn4 Zn 0.02646 0.53401 0.05794 0.0
Zn5 Zn 0.04516 0.58441 -0.003 0.0
O6 O 0.00265 0.55704 0.88726 0.0
O7 O 0.02021 0.58836 0.95298 0.0
O8 O 0.07712 0.56103 0.86406 0.0
O9 O 0.04092 0.54488 0.82348 0.0
O10 O -0.00311 0.50755 0.9211 0.0
O11 O -0.00487 0.5066 0.03459 0.0
O12 O 0.0262 0.55255 0.13853 0.0
O13 O 0.0941 0.58996 0.00825 0.0
O14 O 0.04388 0.5886 0.09714 0.0
O15 O 0.07727 0.60917 0.96998 0.0
C16 C 0.06401 0.52066 0.05934 0.0
C17 C 0.00427 0.57565 0.91092 0.0
C18 C 0.98716 0.4973 0.97664 0.0
C19 C 0.06279 0.55384 0.81448 0.0
C20 C 0.03526 0.57444 0.14669 0.0
C21 C 0.09453 0.60908 -0.00213 0.0
O22 O 0.04574 0.51983 0.08297 0.0
O23 O 0.48935 0.56591 0.07298 0.0
Zn24 Zn 0.4686 0.53102 0.0625 0.0
O25 O 0.47109 0.51607 0.14303 0.0
Zn26 Zn 0.48228 0.49483 0.12905 0.0
Zn27 Zn 0.49064 0.5379 0.2083 0.0
Zn28 Zn 0.44094 0.49646 0.17813 0.0
O29 O 0.46036 0.463 0.16476 0.0
O30 O 0.42928 0.4649 0.13673 0.0
O31 O 0.47694 0.51765 0.98183 0.0
O32 O 0.48257 0.4904 0.03006 0.0
O33 O 0.5151 0.50747 0.16036 0.0
O34 O 0.52254 0.54139 0.20306 0.0
O35 O 0.47756 0.52551 0.30086 0.0
O36 O 0.4354 0.52478 0.0518 0.0
O37 O 0.44333 0.49419 0.27814 0.0
O38 O 0.4199 0.50827 0.15166 0.0
C39 C 0.49636 0.57821 0.12719 0.0
C40 C 0.43966 0.45323 0.14196 0.0
C41 C 0.52932 0.52731 0.18506 0.0
C42 C 0.48094 0.50076 0.97782 0.0
C43 C 0.45909 0.50723 0.32014 0.0
C44 C 0.41904 0.51755 0.09574 0.0
O45 O 0.49483 0.56903 0.18557 0.0
O46 O 0.4231 0.95367 0.90837 0.0
Zn47 Zn 0.45684 0.97148 0.88073 0.0
O48 O 0.47016 0.00323 0.91069 0.0
Zn49 Zn 0.49185 0.02389 0.84431 0.0
Zn50 Zn 0.44486 0.00963 0.92031 0.0
Zn51 Zn 0.4864 0.00693 -0.00543 0.0
O52 O 0.52485 0.03814 0.87513 0.0
O53 O 0.5204 0.03087 0.98638 0.0
O54 O 0.45808 0.97109 0.77859 0.0
O55 O 0.48609 0.00722 0.75575 0.0
O56 O 0.48633 0.0504 0.82685 0.0
O57 O 0.45032 0.03742 0.86459 0.0
O58 O 0.44205 0.01656 0.01842 0.0
O59 O 0.4734 0.9563 0.9241 0.0
O60 O 0.47187 0.01598 0.06827 0.0
O61 O 0.48545 0.97718 0.01955 0.0
C62 C 0.408 0.96014 0.90727 0.0
C63 C 0.53331 0.04073 0.93481 0.0
C64 C 0.46858 0.05274 0.83415 0.0
C65 C 0.47116 0.9868 0.73626 0.0
C66 C 0.45431 0.01884 0.07073 0.0
C67 C 0.48199 0.9597 0.98392 0.0
O68 O 0.414 0.98148 0.8998 0.0
O69 O 0.72932 0.92081 0.35864 0.0
Zn70 Zn 0.71518 0.89172 0.30122 0.0
O71 O 0.68119 0.87649 0.30577 0.0
Zn72 Zn 0.6688 0.8472 0.35224 0.0
Zn73 Zn 0.67238 0.89645 0.35363 0.0
Zn74 Zn 0.66718 0.86984 0.21713 0.0
O75 O 0.64378 0.82086 0.29997 0.0
O76 O 0.65004 0.83558 0.19547 0.0
O77 O 0.72688 0.87096 0.33819 0.0
O78 O 0.69366 0.83928 0.36524 0.0
O79 O 0.65896 0.84936 0.44664 0.0
O80 O 0.66207 0.88417 0.44802 0.0
O81 O 0.64722 0.8994 0.30543 0.0
O82 O 0.72602 0.90048 0.2035 0.0
O83 O 0.64337 0.87974 0.21004 0.0
O84 O 0.69215 0.88701 0.14911 0.0
C85 C 0.7214 0.93377 0.3786 0.0
C86 C 0.64013 0.81834 0.23602 0.0
C87 C 0.65801 0.86557 0.47832 0.0
C88 C 0.71569 0.85014 0.36025 0.0
C89 C 0.63735 0.89128 0.24835 0.0
C90 C 0.71429 0.89791 0.14959 0.0
O91 O 0.70009 0.9278 0.37073 0.0
O92 O 0.1118 0.86072 0.46562 0.0
Zn93 Zn 0.14257 0.87761 0.41546 0.0
O94 O 0.15802 0.85913 0.42085 0.0
Zn95 Zn 0.18993 0.87896 0.44871 0.0
Zn96 Zn 0.14278 0.83332 0.48354 0.0
Zn97 Zn 0.1572 0.84589 0.33405 0.0
O98 O 0.2126 0.87559 0.38767 0.0
O99 O 0.18932 0.85543 0.30222 0.0
O100 O 0.1633 0.91 0.45362 0.0
O101 O 0.19767 0.91202 0.44397 0.0
O102 O 0.19363 0.87378 0.54804 0.0
O103 O 0.16036 0.8415 0.57084 0.0
O104 O 0.13894 0.80305 0.44542 0.0
O105 O 0.1365 0.88238 0.31657 0.0
O106 O 0.14045 0.81159 0.3356 0.0
O107 O 0.14301 0.85637 0.26501 0.0
C108 C 0.10186 0.84153 0.49841 0.0
C109 C 0.20947 0.86636 0.32878 0.0
C110 C 0.17997 0.85819 0.58979 0.0
C111 C 0.18548 0.92166 0.45346 0.0
C112 C 0.13648 0.79702 0.38292 0.0
C113 C 0.13647 0.87134 0.26344 0.0
O114 O 0.11155 0.8293 0.50683 0.0
O115 O 0.13803 0.25356 0.21609 0.0
Zn116 Zn 0.12086 0.27105 0.19839 0.0
O117 O 0.142 0.30404 0.21295 0.0
Zn118 Zn 0.13443 0.3163 0.29083 0.0
Zn119 Zn 0.1722 0.30827 0.22829 0.0
Zn120 Zn 0.14276 0.32206 0.13627 0.0
O121 O 0.12948 0.34302 0.26767 0.0
O122 O 0.12538 0.33875 0.15532 0.0
O123 O 0.09292 0.25946 0.2627 0.0
O124 O 0.10466 0.291 0.32732 0.0
O125 O 0.15712 0.32412 0.36706 0.0
O126 O 0.17773 0.30855 0.32891 0.0
O127 O 0.19623 0.33877 0.18858 0.0
O128 O 0.11219 0.26522 0.09802 0.0
O129 O 0.17568 0.34699 0.11564 0.0
O130 O 0.12912 0.30132 0.05683 0.0
C131 C 0.15916 0.25991 0.20199 0.0
C132 C 0.12383 0.34792 0.21063 0.0
C133 C 0.17153 0.3171 0.37709 0.0
C134 C 0.09003 0.26993 0.31325 0.0
C135 C 0.19491 0.35174 0.1431 0.0
C136 C 0.11745 0.2794 0.04835 0.0
O137 O 0.17415 0.28123 0.19178 0.0
O138 O 0.40715 0.27841 0.62136 0.0
Zn139 Zn 0.40033 0.24895 0.57334 0.0
O140 O 0.36812 0.22673 0.58824 0.0
Zn141 Zn 0.36414 0.20665 0.66291 0.0
Zn142 Zn 0.35283 0.24432 0.60569 0.0
Zn143 Zn 0.35602 0.20772 0.50946 0.0
O144 O 0.34091 0.17329 0.63948 0.0
O145 O 0.34698 0.17459 0.52768 0.0
O146 O 0.42005 0.23625 0.61074 0.0
O147 O 0.3948 0.20869 0.6809 0.0
O148 O 0.35421 0.2169 0.74579 0.0
O149 O 0.34508 0.24258 0.70514 0.0
O150 O 0.32399 0.23258 0.5483 0.0
O151 O 0.4059 0.25533 0.47264 0.0
O152 O 0.32655 0.20682 0.48189 0.0
O153 O 0.37806 0.22159 0.43137 0.0
C154 C 0.39531 0.28869 0.61805 0.0
C155 C 0.33832 0.16309 0.58238 0.0
C156 C 0.34714 0.23135 0.75458 0.0
C157 C 0.41516 0.22052 0.65552 0.0
C158 C 0.31592 0.21733 0.50111 0.0
C159 C 0.39598 0.24157 0.42281 0.0
O160 O 0.37492 0.27847 0.59262 0.0
O161 O 0.78778 0.19215 0.85521 0.0
Zn162 Zn 0.81865 0.21035 0.80747 0.0
O163 O 0.83684 0.19477 0.81857 0.0
Zn164 Zn 0.86807 0.21681 0.85162 0.0
Zn165 Zn 0.82134 0.16821 0.87979 0.0
Zn166 Zn 0.83907 0.1829 0.73209 0.0
O167 O 0.89355 0.21824 0.78963 0.0
O168 O 0.87182 0.19736 0.70262 0.0
O169 O 0.83606 0.24298 0.84319 0.0
O170 O 0.87172 0.24869 0.85934 0.0
O171 O 0.87142 0.2093 0.94881 0.0
O172 O 0.83828 0.17643 0.96799 0.0
O173 O 0.81843 0.13835 0.84194 0.0
O174 O 0.81209 0.2131 0.7085 0.0
O175 O 0.82839 0.14938 0.73475 0.0
O176 O 0.82168 0.18876 0.66058 0.0
C177 C 0.77848 0.17327 0.8893 0.0
C178 C 0.89162 0.2099 0.72977 0.0
C179 C 0.85763 0.1931 0.98878 0.0
C180 C 0.85738 0.25613 0.85856 0.0
C181 C 0.82157 0.13395 0.78089 0.0
C182 C 0.81297 0.20194 0.65702 0.0
O183 O 0.78925 0.16227 0.90094 0.0
O184 O 0.81227 0.63129 0.84189 0.0
Zn185 Zn 0.79267 0.64501 0.81071 0.0
O186 O 0.81023 0.67907 0.81814 0.0
Zn187 Zn 0.79094 0.69006 0.86053 0.0
Zn188 Zn 0.83816 0.68897 0.87103 0.0
Zn189 Zn 0.81983 0.69272 0.72945 0.0
O190 O 0.78738 0.71306 0.80114 0.0
O191 O 0.80703 0.71339 0.70913 0.0
O192 O 0.76329 0.63182 0.86681 0.0
O193 O 0.75965 0.66292 0.88436 0.0
O194 O 0.80358 0.70381 0.95241 0.0
O195 O 0.83447 0.69947 0.96259 0.0
O196 O 0.86705 0.71392 0.82501 0.0
O197 O 0.78383 0.63483 0.71301 0.0
O198 O 0.85432 0.7127 0.71983 0.0
O199 O 0.80765 0.668 0.65943 0.0
C200 C 0.83208 0.64061 0.87079 0.0
C201 C 0.79493 0.72029 0.74109 0.0
C202 C 0.82022 0.705 0.98766 0.0
C203 C 0.75184 0.64112 0.88946 0.0
C204 C 0.87077 0.72051 0.76305 0.0
C205 C 0.79295 0.64635 0.6588 0.0
O206 O 0.84329 0.6622 0.88474 0.0
C207 C 0.05735 0.54563 0.69103 0.0
C208 C 0.07139 0.55975 0.74425 0.0
C209 C 0.0603 0.55457 0.62538 0.0
C210 C 0.0903 0.59296 0.49462 0.0
H211 H 0.0337 0.5959 0.47174 0.0
C212 C 0.06049 0.6043 0.23132 0.0
C213 C 0.03963 0.58369 0.21642 0.0
C214 C 0.06782 0.61 0.29879 0.0
C215 C 0.04982 0.59571 0.4778 0.0
H216 H 0.10115 0.59322 0.76987 0.0
H217 H 0.1062 0.60894 0.65381 0.0
H218 H 0.04382 0.58777 0.58414 0.0
H219 H 0.00902 0.55423 0.25953 0.0
H220 H 0.02145 0.56456 0.37745 0.0
H221 H 0.09539 0.59919 0.3871 0.0
C222 C 0.09305 0.59102 0.6634 0.0
C223 C 0.05558 0.59106 0.54174 0.0
C224 C 0.09022 0.58197 0.72939 0.0
C225 C 0.02516 0.57016 0.26988 0.0
C226 C 0.03225 0.57614 0.33722 0.0
C227 C 0.08457 0.59773 0.43039 0.0
C228 C 0.07726 0.57771 0.61228 0.0
C229 C 0.07521 0.58856 0.54967 0.0
C230 C 0.05409 0.59551 0.35197 0.0
C231 C 0.06366 0.59793 0.42109 0.0
H232 H 0.0428 0.52842 0.70135 0.0
H233 H 0.04808 0.54406 0.58606 0.0
H234 H 0.10545 0.59099 0.50013 0.0
H235 H 0.07206 0.61496 0.19085 0.0
H236 H 0.0847 0.62497 0.30925 0.0
C237 C 0.47177 0.46751 0.9014 0.0
C238 C 0.48209 0.49167 0.91106 0.0
C239 C 0.47058 0.45856 0.83627 0.0
C240 C 0.49326 0.47326 0.66319 0.0
H241 H 0.43006 0.45264 0.60479 0.0
C242 C 0.47591 0.51223 0.43606 0.0
C243 C 0.4582 0.4986 0.38974 0.0
C244 C 0.47832 0.50245 0.49587 0.0
C245 C 0.44763 0.45758 0.61983 0.0
H246 H 0.50057 0.52546 0.86282 0.0
H247 H 0.49906 0.50988 0.74901 0.0
H248 H 0.43784 0.44937 0.72445 0.0
H249 H 0.42814 0.46439 0.37181 0.0
H250 H 0.43221 0.44749 0.47781 0.0
H251 H 0.50334 0.4833 0.55971 0.0
C252 C 0.49185 0.49791 0.79155 0.0
C253 C 0.45206 0.45559 0.68819 0.0
C254 C 0.49246 0.50682 0.85611 0.0
C255 C 0.442 0.47537 0.40657 0.0
C256 C 0.44442 0.46558 0.46671 0.0
C257 C 0.48881 0.47502 0.59484 0.0
C258 C 0.48037 0.47375 0.78098 0.0
C259 C 0.4751 0.46525 0.71078 0.0
C260 C 0.46307 0.47888 0.5106 0.0
C261 C 0.46626 0.46904 0.57409 0.0
H262 H 0.46356 0.45554 0.94348 0.0
H263 H 0.4613 0.43991 0.82857 0.0
H264 H 0.51112 0.48065 0.67995 0.0
H265 H 0.48853 0.53021 0.42493 0.0
H266 H 0.4923 0.51335 0.53042 0.0
C267 C 0.48073 9e-05 0.61639 0.0
C268 C 0.46534 0.98351 0.66319 0.0
C269 C 0.47271 0.00251 0.55323 0.0
C270 C 0.42823 0.97722 0.42423 0.0
H271 H 0.4469 0.04195 0.39214 0.0
C272 C 0.42332 0.00663 0.15807 0.0
C273 C 0.44645 0.02158 0.13798 0.0
C274 C 0.41754 0.00351 0.22732 0.0
C275 C 0.44111 0.02375 0.40095 0.0
H276 H 0.43026 0.95451 0.67735 0.0
H277 H 0.41641 0.95855 0.56547 0.0
H278 H 0.45421 0.03011 0.50289 0.0
H279 H 0.48094 0.04709 0.17186 0.0
H280 H 0.47085 0.04226 0.2922 0.0
H281 H 0.41667 0.97115 0.32069 0.0
C282 C 0.4345 0.96992 0.57874 0.0
C283 C 0.44548 0.01702 0.46384 0.0
C284 C 0.44252 0.96751 0.64237 0.0
C285 C 0.46301 0.03547 0.18661 0.0
C286 C 0.45715 0.03274 0.25542 0.0
C287 C 0.42393 0.98398 0.36101 0.0
C288 C 0.44924 0.9883 0.53563 0.0
C289 C 0.44022 0.99399 0.47455 0.0
C290 C 0.43477 0.0157 0.27655 0.0
C291 C 0.43153 0.00754 0.3478 0.0
H292 H 0.4985 0.01243 0.63062 0.0
H293 H 0.48457 0.01635 0.51955 0.0
H294 H 0.42384 0.95933 0.43183 0.0
H295 H 0.41033 -0.00434 0.12106 0.0
H296 H 0.40017 0.99034 0.24252 0.0
C297 C 0.66367 0.84991 0.58738 0.0
C298 C 0.65888 0.86571 0.55355 0.0
C299 C 0.6731 0.8548 0.6528 0.0
C300 C 0.70809 0.90618 0.76037 0.0
H301 H 0.69735 0.86029 0.89894 0.0
C302 C 0.72147 0.92102 0.04568 0.0
C303 C 0.72579 0.90573 0.08365 0.0
C304 C 0.72189 0.9205 0.97471 0.0
C305 C 0.70101 0.87324 0.85994 0.0
H306 H 0.65693 0.89717 0.5656 0.0
H307 H 0.67239 0.9051 0.68107 0.0
H308 H 0.67538 0.84803 0.79338 0.0
H309 H 0.73683 0.88017 0.07935 0.0
H310 H 0.73747 0.87909 0.95466 0.0
H311 H 0.73288 0.93153 0.8292 0.0
C312 C 0.67002 0.88959 0.65556 0.0
C313 C 0.68824 0.86623 0.79969 0.0
C314 C 0.6608 0.88484 0.58983 0.0
C315 C 0.73369 0.89227 0.05066 0.0
C316 C 0.73383 0.8915 0.9795 0.0
C317 C 0.72071 0.91323 0.82106 0.0
C318 C 0.67751 0.87533 0.68606 0.0
C319 C 0.69131 0.88267 0.74977 0.0
C320 C 0.7262 0.90432 0.94133 0.0
C321 C 0.717 0.89685 0.87181 0.0
H322 H 0.66227 0.83491 0.56117 0.0
H323 H 0.6785 0.84333 0.67497 0.0
H324 H 0.71136 0.9192 0.72201 0.0
H325 H 0.71512 0.93135 0.07056 0.0
H326 H 0.71592 0.93056 0.94658 0.0
C327 C 0.17081 0.84378 0.70908 0.0
C328 C 0.18418 0.86203 0.66373 0.0
C329 C 0.16873 0.84841 0.77718 0.0
C330 C 0.16933 0.89497 0.87811 0.0
H331 H 0.15668 0.85139 0.02563 0.0
C332 C 0.15039 0.89968 0.16947 0.0
C333 C 0.13309 0.87821 0.19548 0.0
C334 C 0.15582 0.90194 0.09986 0.0
C335 C 0.16004 0.86362 0.98462 0.0
H336 H 0.20788 0.89921 0.65566 0.0
H337 H 0.20456 0.90726 0.77543 0.0
H338 H 0.17331 0.84717 0.9196 0.0
H339 H 0.10546 0.8437 0.16937 0.0
H340 H 0.11446 0.84783 0.04784 0.0
H341 H 0.15615 0.9115 0.9447 0.0
C342 C 0.19526 0.88943 0.75774 0.0
C343 C 0.16964 0.86127 0.92412 0.0
C344 C 0.19741 0.88476 0.68941 0.0
C345 C 0.11878 0.86044 0.15017 0.0
C346 C 0.12411 0.86271 0.08088 0.0
C347 C 0.15995 0.89751 0.93938 0.0
C348 C 0.18004 0.87141 0.80146 0.0
C349 C 0.17378 0.87648 0.86941 0.0
C350 C 0.1438 0.88276 0.0564 0.0
C351 C 0.1546 0.88139 -0.00785 0.0
H352 H 0.16049 0.82607 0.69083 0.0
H353 H 0.1568 0.8341 0.8093 0.0
H354 H 0.17211 0.90686 0.83664 0.0
H355 H 0.16182 0.91349 0.20379 0.0
H356 H 0.17104 0.91757 0.08182 0.0
C357 C 0.17916 0.29518 0.46667 0.0
C358 C 0.17695 0.31444 0.4481 0.0
C359 C 0.17701 0.28838 0.53498 0.0
C360 C 0.17328 0.30607 0.7116 0.0
H361 H 0.12084 0.24335 0.73063 0.0
C362 C 0.1112 0.28403 0.92689 0.0
C363 C 0.11451 0.27112 0.9777 0.0
C364 C 0.11824 0.28372 0.86024 0.0
C365 C 0.13574 0.2607 0.726 0.0
H366 H 0.17348 0.34315 0.48631 0.0
H367 H 0.17024 0.33164 0.60524 0.0
H368 H 0.14039 0.25655 0.61982 0.0
H369 H 0.12496 0.24557 -0.00229 0.0
H370 H 0.13721 0.24494 0.87989 0.0
H371 H 0.16764 0.31068 0.81647 0.0
C372 C 0.17337 0.32161 0.56745 0.0
C373 C 0.14704 0.26823 0.66304 0.0
C374 C 0.17516 0.3282 0.4993 0.0
C375 C 0.12202 0.25549 0.95914 0.0
C376 C 0.1292 0.25525 0.89208 0.0
C377 C 0.16196 0.29859 0.7741 0.0
C378 C 0.1731 0.301 0.58555 0.0
C379 C 0.16531 0.29131 0.65473 0.0
C380 C 0.12864 0.27047 0.84361 0.0
C381 C 0.1426 0.2762 0.78091 0.0
H382 H 0.18047 0.28421 0.42811 0.0
H383 H 0.17708 0.27255 0.54779 0.0
H384 H 0.18746 0.32382 0.70677 0.0
H385 H 0.10545 0.2962 0.94012 0.0
H386 H 0.11754 0.29543 0.8231 0.0
C387 C 0.39601 0.23414 0.29927 0.0
C388 C 0.40162 0.25021 0.35243 0.0
C389 C 0.39262 0.23977 0.2336 0.0
C390 C 0.39806 0.27747 0.10296 0.0
H391 H 0.33137 0.23712 0.08128 0.0
C392 C 0.35486 0.26179 0.8408 0.0
C393 C 0.34551 0.23814 0.82468 0.0
C394 C 0.35954 0.26915 0.90861 0.0
C395 C 0.3499 0.24883 0.08697 0.0
H396 H 0.41089 0.28563 0.37753 0.0
H397 H 0.40488 0.29543 0.26153 0.0
H398 H 0.34925 0.24059 0.19267 0.0
H399 H 0.33168 0.20348 0.86593 0.0
H400 H 0.33908 0.21615 0.98432 0.0
H401 H 0.39894 0.28442 -0.00404 0.0
C402 C 0.40313 0.27858 0.27122 0.0
C403 C 0.36009 0.25078 0.15037 0.0
C404 C 0.40668 0.27298 0.33724 0.0
C405 C 0.33883 0.22177 0.87731 0.0
C406 C 0.34302 0.22905 0.94496 0.0
C407 C 0.38783 0.27555 0.03922 0.0
C408 C 0.39483 0.26151 0.2203 0.0
C409 C 0.3843 0.26426 0.15789 0.0
C410 C 0.35437 0.25287 0.96093 0.0
C411 C 0.36382 0.26031 0.03021 0.0
H412 H 0.39213 0.21654 0.3097 0.0
H413 H 0.38635 0.22647 0.19447 0.0
H414 H 0.41678 0.28791 0.10815 0.0
H415 H 0.3604 0.27478 0.80085 0.0
H416 H 0.36829 0.28759 0.91984 0.0
C417 C 0.81948 0.2295 0.56356 0.0
C418 C 0.80748 0.2067 0.58891 0.0
C419 C 0.82244 0.23331 0.49323 0.0
C420 C 0.80777 0.20336 0.32495 0.0
H421 H 0.87481 0.2349 0.30092 0.0
C422 C 0.84618 0.17843 0.10696 0.0
C423 C 0.86061 0.19676 0.06304 0.0
C424 C 0.84129 0.18314 0.17218 0.0
C425 C 0.85608 0.2263 0.30671 0.0
H426 H 0.78648 0.17035 0.56261 0.0
H427 H 0.79101 0.17684 0.44042 0.0
H428 H 0.85847 0.23921 0.40797 0.0
H429 H 0.884 0.23408 0.05644 0.0
H430 H 0.87567 0.24217 0.1712 0.0
H431 H 0.80544 0.18949 0.22506 0.0
C432 C 0.79838 0.19186 0.47375 0.0
C433 C 0.84668 0.22897 0.36753 0.0
C434 C 0.79574 0.18807 0.54377 0.0
C435 C 0.8727 0.21957 0.08897 0.0
C436 C 0.8678 0.22427 0.15447 0.0
C437 C 0.81715 0.20059 0.2645 0.0
C438 C 0.81313 0.21433 0.44808 0.0
C439 C 0.82245 0.21679 0.37816 0.0
C440 C 0.85091 0.2062 0.19461 0.0
C441 C 0.84138 0.21129 0.25601 0.0
H442 H 0.8288 0.24409 0.59782 0.0
H443 H 0.83365 0.25081 0.47455 0.0
H444 H 0.78905 0.194 0.33152 0.0
H445 H 0.8369 0.16065 0.08875 0.0
H446 H 0.82876 0.16885 0.20334 0.0
C447 C 0.80223 0.6335 0.55267 0.0
C448 C 0.78574 0.63559 0.59195 0.0
C449 C 0.8025 0.63602 0.48212 0.0
C450 C 0.77569 0.64739 0.33359 0.0
H451 H 0.83739 0.70132 0.31281 0.0
C452 C 0.79904 0.70352 0.09433 0.0
C453 C 0.81948 0.70684 0.06247 0.0
C454 C 0.79456 0.69647 0.16237 0.0
C455 C 0.82018 0.68621 0.31747 0.0
H456 H 0.75473 0.63847 0.58955 0.0
H457 H 0.75507 0.64279 0.46589 0.0
H458 H 0.82751 0.67827 0.41649 0.0
H459 H 0.85273 0.70887 0.07946 0.0
H460 H 0.84491 0.6965 0.19732 0.0
H461 H 0.76847 0.65522 0.23394 0.0
C462 C 0.76771 0.63914 0.48902 0.0
C463 C 0.81457 0.67288 0.37654 0.0
C464 C 0.7674 0.63651 0.5597 0.0
C465 C 0.83666 0.70611 0.10226 0.0
C466 C 0.83216 0.699 0.17006 0.0
C467 C 0.78139 0.66061 0.27388 0.0
C468 C 0.78642 0.64089 0.45076 0.0
C469 C 0.79236 0.65327 0.38495 0.0
C470 C 0.8105 0.6928 0.19951 0.0
C471 C 0.80375 0.68013 0.2652 0.0
H472 H 0.81663 0.63301 0.57697 0.0
H473 H 0.81686 0.63692 0.45322 0.0
H474 H 0.75838 0.63251 0.33946 0.0
H475 H 0.78554 0.70424 0.06533 0.0
H476 H 0.77802 0.69252 0.18454 0.0
C477 C 0.1036 0.36577 0.15064 0.0
C478 C 0.11601 0.3651 0.20765 0.0
C479 C 0.09722 0.38273 0.14552 0.0
C480 C 0.1152 0.4416 0.19508 0.0
H481 H 0.05308 0.42575 0.13786 0.0
C482 C 0.05691 0.48775 0.13594 0.0
C483 C 0.07124 0.50472 0.08811 0.0
C484 C 0.06276 0.47167 0.16037 0.0
C485 C 0.07042 0.43043 0.15456 0.0
H486 H 0.13127 0.38143 0.30443 0.0
H487 H 0.12038 0.41151 0.29464 0.0
H488 H 0.06154 0.39483 0.16394 0.0
H489 H 0.10343 0.51869 0.03054 0.0
H490 H 0.11364 0.49042 0.07349 0.0
H491 H 0.12422 0.47725 0.18375 0.0
C492 C 0.11554 0.39875 0.25434 0.0
C493 C 0.07527 0.41277 0.16906 0.0
C494 C 0.12164 0.38152 0.26001 0.0
C495 C 0.09198 0.50576 0.06707 0.0
C496 C 0.09792 0.48971 0.09198 0.0
C497 C 0.11041 0.45931 0.1798 0.0
C498 C 0.10337 0.39951 0.19687 0.0
C499 C 0.09775 0.41821 0.18852 0.0
C500 C 0.08312 0.47229 0.13789 0.0
C501 C 0.08804 0.45384 0.15869 0.0
H502 H 0.09895 0.35329 0.10963 0.0
H503 H 0.088 0.38312 0.10043 0.0
H504 H 0.13272 0.44617 0.20956 0.0
H505 H 0.04085 0.4865 0.15359 0.0
H506 H 0.0512 0.45853 0.19625 0.0
C507 C 0.51802 0.61722 0.18168 0.0
C508 C 0.50856 0.60386 0.12245 0.0
C509 C 0.5322 0.64121 0.17742 0.0
C510 C 0.54789 0.69358 0.08837 0.0
H511 H 0.60775 0.71464 0.17451 0.0
C512 C 0.618 0.79103 0.14001 0.0
C513 C 0.62502 0.79471 0.20878 0.0
C514 C 0.60438 0.7684 0.11479 0.0
C515 C 0.5912 0.70903 0.14974 0.0
H516 H 0.50539 0.60547 0.0126 0.0
H517 H 0.53018 0.64795 0.00568 0.0
H518 H 0.58156 0.67321 0.15615 0.0
H519 H 0.623 0.77757 0.30499 0.0
H520 H 0.59956 0.73847 0.26104 0.0
H521 H 0.55716 0.72954 0.08565 0.0
C522 C 0.52664 0.63949 0.055 0.0
C523 C 0.57629 0.68541 0.13916 0.0
C524 C 0.51253 0.61527 0.05911 0.0
C525 C 0.61797 0.77542 0.25179 0.0
C526 C 0.60467 0.75298 0.22653 0.0
C527 C 0.56288 0.71739 0.09921 0.0
C528 C 0.53708 0.65244 0.11404 0.0
C529 C 0.55419 0.67746 0.11099 0.0
C530 C 0.59795 0.74923 0.15779 0.0
C531 C 0.58422 0.72513 0.13265 0.0
H532 H 0.51521 0.60913 0.23141 0.0
H533 H 0.53985 0.65099 0.2237 0.0
H534 H 0.53086 0.6877 0.06656 0.0
H535 H 0.6231 0.80558 0.1057 0.0
H536 H 0.59929 0.76587 0.06162 0.0
C537 C 0.37813 0.92268 0.96044 0.0
C538 C 0.38373 0.94367 0.92753 0.0
C539 C 0.35708 0.91017 -0.00431 0.0
C540 C 0.31835 0.92372 0.08988 0.0
H541 H 0.27909 0.85703 0.11137 0.0
C542 C 0.25242 0.8862 0.30759 0.0
C543 C 0.22966 0.87 0.28737 0.0
C544 C 0.27111 0.89218 0.26341 0.0
C545 C 0.28995 0.87569 0.10575 0.0
H546 H 0.37052 0.96644 0.89869 0.0
H547 H 0.33378 0.94447 0.95941 0.0
H548 H 0.31003 0.87248 0.02491 0.0
H549 H 0.20888 0.8461 0.20698 0.0
H550 H 0.24151 0.85665 0.13009 0.0
H551 H 0.29845 0.92711 0.17007 0.0
C552 C 0.34591 0.93806 0.95955 0.0
C553 C 0.30761 0.88449 0.05649 0.0
C554 C 0.3669 0.95056 0.92452 0.0
C555 C 0.22619 0.85881 0.22394 0.0
C556 C 0.24488 0.86472 0.17994 0.0
C557 C 0.3009 0.91497 0.13921 0.0
C558 C 0.34133 0.91844 -0.00169 0.0
C559 C 0.32188 0.90862 0.0479 0.0
C560 C 0.26741 0.88199 0.19839 0.0
C561 C 0.28653 0.89089 0.14776 0.0
H562 H 0.39067 0.91683 0.96346 0.0
H563 H 0.35397 0.89506 0.02501 0.0
H564 H 0.32935 0.9424 0.08536 0.0
H565 H 0.25572 0.89503 0.35622 0.0
H566 H 0.28839 0.90531 0.27929 0.0
C567 C 0.49095 0.09467 0.80121 0.0
C568 C 0.46948 0.07395 0.80789 0.0
C569 C 0.49179 0.11501 0.77861 0.0
C570 C 0.46116 0.1368 0.67822 0.0
H571 H 0.48331 0.18838 0.80515 0.0
C572 C 0.43162 0.20443 0.73861 0.0
C573 C 0.43249 0.21385 0.67388 0.0
C574 C 0.44433 0.19338 0.75188 0.0
C575 C 0.47755 0.17431 0.76868 0.0
H576 H 0.43219 0.05804 0.7946 0.0
H577 H 0.43376 0.09353 0.75316 0.0
H578 H 0.48883 0.15533 0.83114 0.0
H579 H 0.44846 0.22063 0.57373 0.0
H580 H 0.47022 0.20051 0.59643 0.0
H581 H 0.44905 0.1552 0.617 0.0
C582 C 0.44984 0.09399 0.76611 0.0
C583 C 0.48069 0.15549 0.78346 0.0
C584 C 0.44894 0.07379 0.79016 0.0
C585 C 0.44759 0.21356 0.62414 0.0
C586 C 0.45995 0.20203 0.63698 0.0
C587 C 0.45841 0.15577 0.66282 0.0
C588 C 0.47124 0.11476 0.76075 0.0
C589 C 0.47174 0.13626 0.73948 0.0
C590 C 0.45776 0.19117 0.7002 0.0
C591 C 0.46583 0.17429 0.70909 0.0
H592 H 0.50705 0.09529 0.81489 0.0
H593 H 0.50844 0.13091 0.77497 0.0
H594 H 0.45421 0.12212 0.6436 0.0
H595 H 0.42016 0.20455 0.77785 0.0
H596 H 0.44219 0.18496 0.80084 0.0
C597 C 0.85496 0.29238 0.84876 0.0
C598 C 0.86566 0.28058 0.87651 0.0
C599 C 0.86346 0.31582 0.8639 0.0
C600 C 0.89508 0.36122 0.98754 0.0
H601 H 0.92182 0.4036 0.83487 0.0
C602 C 0.96422 0.4572 0.0239 0.0
C603 C 0.96725 0.47344 0.97344 0.0
C604 C 0.94742 0.4338 0.01597 0.0
C605 C 0.91392 0.39217 0.87813 0.0
H606 H 0.89293 0.28361 0.94378 0.0
H607 H 0.90736 0.32449 0.97165 0.0
H608 H 0.89987 0.36196 0.81435 0.0
H609 H 0.95406 0.47853 0.87795 0.0
H610 H 0.92382 0.43798 0.8658 0.0
H611 H 0.90877 0.39122 0.0516 0.0
C612 C 0.89262 0.31562 0.93768 0.0
C613 C 0.90148 0.36828 0.86616 0.0
C614 C 0.8845 0.29237 0.9213 0.0
C615 C 0.95224 0.46622 0.91712 0.0
C616 C 0.93505 0.44294 0.91 0.0
C617 C 0.90708 0.38516 -0.00047 0.0
C618 C 0.88235 0.32757 0.90841 0.0
C619 C 0.89252 0.35266 0.92087 0.0
C620 C 0.93294 0.42625 0.95809 0.0
C621 C 0.91727 0.40097 0.94512 0.0
H622 H 0.84042 0.28366 0.81401 0.0
H623 H 0.85539 0.32482 0.84067 0.0
H624 H 0.88812 0.34937 0.03038 0.0
H625 H 0.97569 0.46233 0.06763 0.0
H626 H 0.94668 0.42156 0.05368 0.0
C627 C 0.71934 0.63744 0.96292 0.0
C628 C 0.72986 0.62674 0.92721 0.0
C629 C 0.69945 0.62422 0.00223 0.0
C630 C 0.64924 0.56604 0.01945 0.0
H631 H 0.64298 0.58888 0.19586 0.0
C632 C 0.56235 0.52028 0.16119 0.0
C633 C 0.55451 0.53539 0.18269 0.0
C634 C 0.58572 0.52896 0.14434 0.0
C635 C 0.64445 0.58226 0.14671 0.0
H636 H 0.72752 0.59366 0.9044 0.0
H637 H 0.69246 0.57051 0.97262 0.0
H638 H 0.68002 0.60903 0.13489 0.0
H639 H 0.56546 0.57114 0.20914 0.0
H640 H 0.60597 0.58628 0.17875 0.0
H641 H 0.61349 0.53994 0.02943 0.0
C642 C 0.69976 0.58918 0.97013 0.0
C643 C 0.66564 0.5938 0.11184 0.0
C644 C 0.71982 0.60244 0.9311 0.0
C645 C 0.57087 0.55902 0.19248 0.0
C646 C 0.5942 0.56771 0.17529 0.0
C647 C 0.62802 0.55458 0.0541 0.0
C648 C 0.68951 0.59999 0.00651 0.0
C649 C 0.66805 0.58614 0.0471 0.0
C650 C 0.6017 0.55292 0.14841 0.0
C651 C 0.62521 0.5629 0.11738 0.0
H652 H 0.72661 0.65611 0.96132 0.0
H653 H 0.69169 0.63299 0.02871 0.0
H654 H 0.65054 0.55986 0.96941 0.0
H655 H 0.55025 0.50192 0.15394 0.0
H656 H 0.59106 0.51704 0.1253 0.0
C657 C 0.83778 0.60678 0.84558 0.0
C658 C 0.84355 0.62687 0.88372 0.0
C659 C 0.85146 0.59625 0.85018 0.0
C660 C 0.89772 0.59518 0.95331 0.0
H661 H 0.92029 0.58635 0.7795 0.0
C662 C 0.98512 0.59928 0.93095 0.0
C663 C 0.98557 0.58096 0.89648 0.0
C664 C 0.96568 0.602 0.9268 0.0
C665 C 0.9139 0.58844 0.82835 0.0
H666 H 0.86702 0.65069 0.95999 0.0
H667 H 0.89069 0.63246 0.96801 0.0
H668 H 0.88788 0.59399 0.78221 0.0
H669 H 0.96653 0.55205 0.82696 0.0
H670 H 0.93259 0.55712 0.81914 0.0
H671 H 0.92433 0.5906 -0.00074 0.0
C672 C 0.87571 0.62474 0.9346 0.0
C673 C 0.89528 0.59266 0.83 0.0
C674 C 0.86223 0.63532 0.92962 0.0
C675 C 0.9667 0.56629 0.85437 0.0
C676 C 0.94727 0.56915 0.84985 0.0
C677 C 0.91636 0.59112 0.95161 0.0
C678 C 0.87088 0.60549 0.89363 0.0
C679 C 0.88749 0.59676 0.89244 0.0
C680 C 0.94634 0.58659 0.88775 0.0
C681 C 0.92505 0.5884 0.88905 0.0
H682 H 0.82348 0.59992 0.80971 0.0
H683 H 0.84725 0.5813 0.81847 0.0
H684 H 0.8918 0.59784 0.00222 0.0
H685 H -0.00062 0.61099 0.96348 0.0
H686 H 0.96557 0.61592 0.95533 0.0
C687 C 0.41095 0.42346 0.06175 0.0
C688 C 0.431 0.43154 0.10222 0.0
C689 C 0.40626 0.40717 0.01029 0.0
C690 C 0.43829 0.38968 0.89651 0.0
H691 H 0.37739 0.33916 0.84606 0.0
C692 C 0.42311 0.31937 0.69788 0.0
C693 C 0.4029 0.31024 0.65773 0.0
C694 C 0.42734 0.336 0.74787 0.0
C695 C 0.39445 0.35346 0.85888 0.0
H696 H 0.4605 0.42701 0.12495 0.0
H697 H 0.45208 0.3984 0.03574 0.0
H698 H 0.38159 0.36195 0.94819 0.0
H699 H 0.37242 0.31303 0.63438 0.0
H700 H 0.38006 0.34228 0.72091 0.0
H701 H 0.45117 0.38127 0.80721 0.0
C702 C 0.44036 0.40514 0.04275 0.0
C703 C 0.39685 0.36638 0.91757 0.0
C704 C 0.44503 0.42136 0.09431 0.0
C705 C 0.38806 0.31953 0.66478 0.0
C706 C 0.39229 0.33613 0.71481 0.0
C707 C 0.43589 0.37682 0.83774 0.0
C708 C 0.4215 0.39863 -0.0015 0.0
C709 C 0.41882 0.38451 0.93719 0.0
C710 C 0.41148 0.34386 0.75855 0.0
C711 C 0.41396 0.35852 0.81844 0.0
H712 H 0.39973 0.43087 0.0666 0.0
H713 H 0.39154 0.4024 0.97702 0.0
H714 H 0.45537 0.40391 0.90963 0.0
H715 H 0.43494 0.31266 0.69374 0.0
H716 H 0.44228 0.3416 0.78084 0.0
C717 C 0.74543 0.14604 0.96406 0.0
C718 C 0.75421 0.16318 0.91295 0.0
C719 C 0.72194 0.13498 0.98211 0.0
C720 C 0.66737 0.13737 0.95771 0.0
H721 H 0.63793 0.07051 0.98012 0.0
C722 C 0.57164 0.07324 0.89596 0.0
C723 C 0.55856 0.05597 0.9444 0.0
C724 C 0.59551 0.08781 0.90471 0.0
C725 C 0.64598 0.08921 0.97504 0.0
H726 H 0.74547 0.18271 0.84221 0.0
H727 H 0.70443 0.16287 0.8716 0.0
H728 H 0.68015 0.09379 0.97336 0.0
H729 H 0.56013 0.04036 0.03997 0.0
H730 H 0.60223 0.06555 0.05408 0.0
H731 H 0.63288 0.13234 0.95512 0.0
C732 C 0.71569 0.15832 0.89926 0.0
C733 C 0.67018 0.10261 0.97145 0.0
C734 C 0.73924 0.16962 0.88197 0.0
C735 C 0.56981 0.05356 0.00189 0.0
C736 C 0.59381 0.06789 0.00997 0.0
C737 C 0.64316 0.1239 0.96023 0.0
C738 C 0.70665 0.14057 0.9487 0.0
C739 C 0.68117 0.12681 0.96123 0.0
C740 C 0.6068 0.08515 0.96147 0.0
C741 C 0.63229 0.09967 0.96755 0.0
H742 H 0.75665 0.14093 -0.0105 0.0
H743 H 0.71571 0.12176 0.02144 0.0
H744 H 0.67523 0.156 0.95143 0.0
H745 H 0.56343 0.0756 0.85139 0.0
H746 H 0.60524 0.10084 0.86625 0.0
C747 C 0.50305 0.93784 0.96872 0.0
C748 C 0.49045 0.94466 0.01083 0.0
C749 C 0.51506 0.92761 -0.00302 0.0
C750 C 0.53942 0.92402 0.16414 0.0
H751 H 0.55807 0.88672 0.05889 0.0
C752 C 0.61775 0.91498 0.24383 0.0
C753 C 0.61812 0.89472 0.2263 0.0
C754 C 0.59986 0.91846 0.22047 0.0
C755 C 0.55276 0.89676 0.08984 0.0
H756 H 0.47866 0.94443 0.11397 0.0
H757 H 0.49814 0.92503 0.16286 0.0
H758 H 0.52877 0.89456 0.01384 0.0
H759 H 0.59975 0.86175 0.17333 0.0
H760 H 0.56786 0.86709 0.13589 0.0
H761 H 0.56246 0.92521 0.24167 0.0
C762 C 0.49994 0.92864 0.10867 0.0
C763 C 0.53617 0.90163 0.06327 0.0
C764 C 0.48852 0.9395 0.08068 0.0
C765 C 0.60001 0.8777 0.18673 0.0
C766 C 0.5818 0.88087 0.1649 0.0
C767 C 0.55555 0.91866 0.19143 0.0
C768 C 0.51421 0.92347 0.06774 0.0
C769 C 0.52967 0.91581 0.09928 0.0
C770 C 0.58162 0.90144 0.18061 0.0
C771 C 0.56291 0.90544 0.154 0.0
H772 H 0.50493 0.94187 0.91473 0.0
H773 H 0.52603 0.92422 0.96362 0.0
H774 H 0.53526 0.93529 0.19335 0.0
H775 H 0.63163 0.92843 0.27396 0.0
H776 H 0.60071 0.93477 0.23251 0.0
C777 C 0.12279 0.7657 0.29684 0.0
C778 C 0.13197 0.77381 0.36209 0.0
C779 C 0.12396 0.74725 0.26776 0.0
C780 C 0.12744 0.69614 0.28746 0.0
H781 H 0.15934 0.71484 0.11283 0.0
C782 C 0.12095 0.62798 0.09679 0.0
C783 C 0.11141 0.6301 0.03502 0.0
C784 C 0.13114 0.64664 0.14233 0.0
C785 C 0.15065 0.70939 0.16178 0.0
H786 H 0.1477 0.76767 0.45059 0.0
H787 H 0.14924 0.73459 0.39938 0.0
H788 H 0.15958 0.74408 0.18877 0.0
H789 H 0.10721 0.65393 0.96928 0.0
H790 H 0.12527 0.68651 0.04783 0.0
H791 H 0.11706 0.66123 0.25833 0.0
C792 C 0.14149 0.74297 0.37098 0.0
C793 C 0.15081 0.72608 0.20515 0.0
C794 C 0.14042 0.76169 0.40029 0.0
C795 C 0.11438 0.65181 0.01656 0.0
C796 C 0.12481 0.6705 0.0616 0.0
C797 C 0.12717 0.67935 0.24376 0.0
C798 C 0.13418 0.7364 0.30339 0.0
C799 C 0.13835 0.71945 0.26681 0.0
C800 C 0.13229 0.66778 0.12626 0.0
C801 C 0.13787 0.68574 0.17913 0.0
H802 H 0.1159 0.77452 0.26653 0.0
H803 H 0.11775 0.74208 0.21606 0.0
H804 H 0.11771 0.69071 0.33481 0.0
H805 H 0.11883 0.6114 0.11257 0.0
H806 H 0.13695 0.64414 0.19156 0.0
C807 C 0.3849 0.52065 0.13013 0.0
C808 C 0.39685 0.51613 0.07888 0.0
C809 C 0.36086 0.51095 0.12629 0.0
C810 C 0.31738 0.46547 0.14314 0.0
H811 H 0.27233 0.44794 -0.00259 0.0
C812 C 0.22439 0.38118 0.06346 0.0
C813 C 0.21547 0.37441 0.12957 0.0
C814 C 0.24461 0.40265 0.05274 0.0
C815 C 0.28475 0.45257 0.03846 0.0
H816 H 0.39391 0.50074 0.97943 0.0
H817 H 0.35163 0.48307 0.9736 0.0
H818 H 0.31172 0.4812 0.98204 0.0
H819 H 0.21898 0.38497 0.23523 0.0
H820 H 0.25316 0.42284 0.21651 0.0
H821 H 0.29179 0.43626 0.1978 0.0
C822 C 0.36078 0.49439 0.01611 0.0
C823 C 0.30718 0.47173 0.02981 0.0
C824 C 0.38498 0.50449 0.01944 0.0
C825 C 0.22604 0.38971 0.18408 0.0
C826 C 0.24567 0.41136 0.17319 0.0
C827 C 0.29533 0.44627 0.15129 0.0
C828 C 0.34842 0.49611 0.07201 0.0
C829 C 0.32371 0.47826 0.08214 0.0
C830 C 0.25574 0.41784 0.10784 0.0
C831 C 0.27869 0.4394 0.09911 0.0
H832 H 0.39381 0.52974 0.17621 0.0
H833 H 0.35174 0.51291 0.16941 0.0
H834 H 0.32994 0.46954 0.18361 0.0
H835 H 0.21622 0.36958 0.02071 0.0
H836 H 0.25189 0.4069 0.00183 0.0
C837 C 0.77599 0.74493 0.7382 0.0
C838 C 0.78966 0.7369 0.70655 0.0
C839 C 0.77057 0.76 0.70355 0.0
C840 C 0.78718 0.79934 0.55328 0.0
H841 H 0.72272 0.78404 0.56042 0.0
C842 C 0.71626 0.8145 0.3952 0.0
C843 C 0.72814 0.83878 0.38794 0.0
C844 C 0.72593 0.8037 0.43288 0.0
C845 C 0.74077 0.78845 0.55757 0.0
H846 H 0.80879 0.7389 0.61424 0.0
H847 H 0.79899 0.76465 0.55404 0.0
H848 H 0.73569 0.76299 0.63248 0.0
H849 H 0.76009 0.87073 0.41076 0.0
H850 H 0.77704 0.85175 0.47746 0.0
H851 H 0.79195 0.82428 0.47634 0.0
C852 C 0.79276 0.75966 0.60582 0.0
C853 C 0.74828 0.77663 0.59969 0.0
C854 C 0.79818 0.74467 0.64029 0.0
C855 C 0.75059 0.85196 0.41537 0.0
C856 C 0.76025 0.84111 0.45366 0.0
C857 C 0.77964 0.81118 0.51098 0.0
C858 C 0.77871 0.76733 0.63671 0.0
C859 C 0.77147 0.78166 0.59724 0.0
C860 C 0.74762 0.81694 0.46466 0.0
C861 C 0.75623 0.80551 0.51179 0.0
H862 H 0.76929 0.73939 0.78931 0.0
H863 H 0.75988 0.76581 0.72893 0.0
H864 H 0.80525 0.80381 0.55089 0.0
H865 H 0.69905 0.80385 0.37381 0.0
H866 H 0.71609 0.78497 0.43874 0.0
C867 C 0.30524 0.12554 0.6253 0.0
C868 C 0.32307 0.13767 0.57739 0.0
C869 C 0.28868 0.10215 0.6147 0.0
C870 C 0.26415 0.05923 0.47405 0.0
H871 H 0.23772 0.01392 0.62012 0.0
C872 C 0.21956 0.9609 0.43411 0.0
C873 C 0.19778 0.94694 0.46495 0.0
C874 C 0.23236 0.9846 0.44797 0.0
C875 C 0.24474 0.02653 0.57912 0.0
H876 H 0.33854 0.13453 0.48343 0.0
H877 H 0.31039 0.09363 0.46642 0.0
H878 H 0.26642 0.0543 0.6468 0.0
H879 H 0.17214 0.94671 0.53398 0.0
H880 H 0.1951 0.9885 0.55998 0.0
H881 H 0.24327 0.03116 0.40624 0.0
C882 C 0.30851 0.1023 0.51072 0.0
C883 C 0.26117 0.04962 0.59425 0.0
C884 C 0.32481 0.12569 0.52079 0.0
C885 C 0.18883 0.95718 0.5093 0.0
C886 C 0.20195 0.98094 0.52442 0.0
C887 C 0.24803 0.03616 0.45896 0.0
C888 C 0.28984 0.09042 0.5564 0.0
C889 C 0.2714 0.06614 0.54166 0.0
C890 C 0.22384 0.99475 0.49393 0.0
C891 C 0.23848 0.01957 0.5112 0.0
H892 H 0.3034 0.13438 0.66924 0.0
H893 H 0.2745 0.09358 0.65078 0.0
H894 H 0.27111 0.0716 0.43246 0.0
H895 H 0.22681 0.95344 0.39955 0.0
H896 H 0.24927 0.9949 0.42426 0.0
C897 C 0.93505 0.22838 0.71421 0.0
C898 C 0.91231 0.21387 0.69022 0.0
C899 C 0.95419 0.23172 0.67519 0.0
C900 C 0.97038 0.22738 0.49769 0.0
H901 H 0.02451 0.22979 0.58044 0.0
C902 C 0.04823 0.23975 0.33517 0.0
C903 C 0.06962 0.2579 0.35857 0.0
C904 C 0.02854 0.23075 0.37735 0.0
C905 C 0.00947 0.22913 0.55667 0.0
H906 H 0.89195 0.19112 0.60696 0.0
H907 H 0.92502 0.19675 0.54039 0.0
H908 H 0.99135 0.2226 0.65189 0.0
H909 H 0.08763 0.27973 0.44565 0.0
H910 H 0.05357 0.26417 0.5184 0.0
H911 H 0.98858 0.23428 0.40275 0.0
C912 C 0.92818 0.20591 0.58842 0.0
C913 C 0.99058 0.22517 0.59761 0.0
C914 C 0.90918 0.20263 0.627 0.0
C915 C 0.07129 0.26592 0.42584 0.0
C916 C 0.0518 0.25684 0.46791 0.0
C917 C 0.98922 0.23129 0.45681 0.0
C918 C 0.9509 0.2206 0.61165 0.0
C919 C 0.97092 0.22447 0.56861 0.0
C920 C 0.0301 0.23957 0.4437 0.0
C921 C 0.00908 0.23249 0.48595 0.0
H922 H 0.93804 0.23725 0.76267 0.0
H923 H 0.97156 0.24332 0.69416 0.0
H924 H 0.95561 0.22725 0.47387 0.0
H925 H 0.04651 0.23323 0.28361 0.0
H926 H 0.012 0.21728 0.35765 0.0
C927 C 0.28133 0.22257 0.48815 0.0
C928 C 0.2939 0.21183 0.46705 0.0
C929 C 0.26115 0.21818 0.45387 0.0
C930 C 0.21395 0.19973 0.38949 0.0
H931 H 0.22112 0.20789 0.19339 0.0
C932 C 0.15424 0.22195 0.24241 0.0
C933 C 0.16743 0.24307 0.20736 0.0
C934 C 0.16437 0.20876 0.26166 0.0
C935 C 0.21868 0.20524 0.24796 0.0
H936 H 0.29464 0.18737 0.39482 0.0
H937 H 0.25939 0.17985 0.33497 0.0
H938 H 0.24956 0.20307 0.25897 0.0
H939 H 0.20053 0.26547 0.15783 0.0
H940 H 0.21819 0.24279 0.19185 0.0
H941 H 0.1842 0.20379 0.37941 0.0
C942 C 0.26528 0.19174 0.37776 0.0
C943 C 0.23487 0.20231 0.28552 0.0
C944 C 0.28545 0.19608 0.41216 0.0
C945 C 0.19003 0.24946 0.18572 0.0
C946 C 0.20009 0.23627 0.20469 0.0
C947 C 0.19781 0.20271 0.352 0.0
C948 C 0.25308 0.20297 0.39776 0.0
C949 C 0.23327 0.20066 0.35701 0.0
C950 C 0.18777 0.21642 0.24578 0.0
C951 C 0.20066 0.20664 0.28126 0.0
H952 H 0.28729 0.23471 0.53027 0.0
H953 H 0.25236 0.22743 0.46982 0.0
H954 H 0.21204 0.19802 0.4444 0.0
H955 H 0.13668 0.21643 0.25924 0.0
H956 H 0.15435 0.19333 0.29242 0.0
C957 C 0.72854 0.97019 0.43663 0.0
C958 C 0.7361 0.95441 0.42088 0.0
C959 C 0.74012 0.98739 0.4856 0.0
C960 C 0.79498 0.01954 0.58114 0.0
H961 H 0.75638 0.03369 0.6975 0.0
C962 C 0.80071 0.09056 0.79631 0.0
C963 C 0.81678 0.11057 0.76072 0.0
C964 C 0.79352 0.06849 0.769 0.0
C965 C 0.76746 0.02965 0.66675 0.0
H966 H 0.76233 0.94491 0.44225 0.0
H967 H 0.78249 0.97496 0.52824 0.0
H968 H 0.7382 0.00117 0.61879 0.0
H969 H 0.8396 0.12324 0.67245 0.0
H970 H 0.82696 0.08524 0.62482 0.0
H971 H 0.82425 0.04811 0.62911 0.0
C972 C 0.76767 0.97407 0.50238 0.0
C973 C 0.75702 0.01126 0.62062 0.0
C974 C 0.75616 0.95691 0.4529 0.0
C975 C 0.8269 0.10813 0.70058 0.0
C976 C 0.81984 0.08624 0.67362 0.0
C977 C 0.80544 0.03785 0.62772 0.0
C978 C 0.75941 0.98913 0.52043 0.0
C979 C 0.77064 0.0066 0.57543 0.0
C980 C 0.80247 0.06618 0.7061 0.0
C981 C 0.79178 0.04369 0.66909 0.0
H982 H 0.71326 0.96885 0.41249 0.0
H983 H 0.73374 -0.00081 0.49677 0.0
H984 H 0.80599 0.01633 0.54735 0.0
H985 H 0.79275 0.09196 0.843 0.0
H986 H 0.78031 0.05331 0.79565 0.0
C987 C 0.91393 0.73992 0.77725 0.0
C988 C 0.89464 0.7371 0.74009 0.0
C989 C 0.93647 0.75449 0.75297 0.0
C990 C 0.96818 0.78187 0.59278 0.0
H991 H 0.02036 0.81406 0.71616 0.0
C992 C 0.06342 0.84011 0.50142 0.0
C993 C 0.07861 0.8332 0.5284 0.0
C994 C 0.04105 0.83125 0.52854 0.0
C995 C 0.00589 0.80521 0.68124 0.0
H996 H 0.88379 0.74811 0.65004 0.0
H997 H 0.92307 0.77418 0.609 0.0
H998 H 0.98083 0.79375 0.76181 0.0
H999 H 0.08267 0.81228 0.60624 0.0
H1000 H 0.04384 0.79723 0.65424 0.0
H1001 H -0.00656 0.79358 0.5123 0.0
C1002 C 0.92087 0.76457 0.65568 0.0
C1003 C 0.98327 0.79344 0.70728 0.0
C1004 C 0.89833 0.74972 0.67939 0.0
C1005 C 0.07129 0.8178 0.58408 0.0
C1006 C 0.04916 0.80933 0.61192 0.0
C1007 C 0.99078 0.79396 0.56673 0.0
C1008 C 0.94023 0.76686 0.69153 0.0
C1009 C 0.96414 0.78119 0.66352 0.0
C1010 C 0.03377 0.81576 0.58395 0.0
C1011 C 0.00983 0.80532 0.61086 0.0
H1012 H 0.91161 0.7303 0.82401 0.0
H1013 H 0.95088 0.75545 0.78144 0.0
H1014 H 0.95398 0.77235 0.55752 0.0
H1015 H 0.06861 0.85193 0.45844 0.0
H1016 H 0.02943 0.83644 0.50626 0.0
loop_
_geom_bond_atom_site_label_1
_geom_bond_atom_site_label_2
_geom_bond_distance
_geom_bond_site_symmetry_2
_ccdc_geom_bond_type
O0 Zn1 1.953 . S
O0 C16 1.225 1_556 S
Zn1 O0 1.953 . S
Zn1 O2 1.949 1_556 S
Zn1 O8 1.919 . S
Zn1 O13 1.924 1_556 S
O2 Zn1 1.949 1_554 S
O2 Zn3 1.923 1_454 S
O2 Zn4 1.950 . S
O2 Zn5 1.945 . S
Zn3 O2 1.923 1_656 S
Zn3 O6 1.933 . S
Zn3 O9 1.936 1_655 S
Zn3 O10 1.965 . S
Zn4 O2 1.950 . S
Zn4 O11 1.938 1_455 S
Zn4 O12 1.906 1_455 S
Zn4 O22 1.953 . S
Zn5 O2 1.945 . S
Zn5 O7 1.932 1_455 S
Zn5 O14 1.977 . S
Zn5 O15 1.910 . S
O6 Zn3 1.933 . S
O6 C17 1.226 . S
O7 Zn5 1.932 1_655 S
O7 C17 1.307 1_554 S
O8 Zn1 1.919 . S
O8 C19 1.253 . S
O9 Zn3 1.936 1_455 S
O9 C19 1.292 . S
O10 Zn3 1.965 . S
O10 C18 1.303 . S
O11 Zn4 1.938 1_655 S
O11 C18 1.247 1_554 S
O12 Zn4 1.906 1_655 S
O12 C20 1.304 . S
O13 Zn1 1.924 1_554 S
O13 C21 1.311 . S
O14 Zn5 1.977 . S
O14 C20 1.272 1_455 S
O15 Zn5 1.910 . S
O15 C21 1.231 . S
C16 O0 1.225 1_554 S
C16 O22 1.298 . S
C17 O6 1.226 . S
C17 O7 1.307 1_556 S
C18 O10 1.303 . S
C18 O11 1.247 1_556 S
C19 O8 1.253 . S
C19 O9 1.292 . S
C20 O12 1.304 . S
C20 O14 1.272 1_655 S
C21 O13 1.311 . S
C21 O15 1.231 . S
O22 Zn4 1.953 . S
O22 C16 1.298 . S
O23 Zn24 1.953 . S
O23 C39 1.225 1_556 S
Zn24 O23 1.953 . S
Zn24 O25 1.949 1_556 S
Zn24 O31 1.919 . S
Zn24 O36 1.924 1_556 S
O25 Zn24 1.949 1_554 S
O25 Zn26 1.923 1_554 S
O25 Zn27 1.950 . S
O25 Zn28 1.945 . S
Zn26 O25 1.923 1_556 S
Zn26 O29 1.933 . S
Zn26 O32 1.941 . S
Zn26 O33 1.965 . S
Zn27 O25 1.950 . S
Zn27 O34 1.938 . S
Zn27 O35 1.906 . S
Zn27 O45 1.953 . S
Zn28 O25 1.945 . S
Zn28 O30 1.932 . S
Zn28 O37 1.977 . S
Zn28 O38 1.910 . S
O29 Zn26 1.933 . S
O29 C40 1.226 . S
O30 Zn28 1.932 . S
O30 C40 1.307 1_554 S
O31 Zn24 1.919 . S
O31 C42 1.253 . S
O32 Zn26 1.941 . S
O32 C42 1.283 . S
O33 Zn26 1.965 . S
O33 C41 1.303 . S
O34 Zn27 1.938 . S
O34 C41 1.247 1_554 S
O35 Zn27 1.906 . S
O35 C43 1.304 . S
O36 Zn24 1.924 1_554 S
O36 C44 1.311 . S
O37 Zn28 1.977 . S
O37 C43 1.272 . S
O38 Zn28 1.910 . S
O38 C44 1.231 . S
C39 O23 1.225 1_554 S
C39 O45 1.298 . S
C40 O29 1.226 . S
C40 O30 1.307 1_556 S
C41 O33 1.303 . S
C41 O34 1.247 1_556 S
C42 O31 1.253 . S
C42 O32 1.283 . S
C43 O35 1.304 . S
C43 O37 1.272 . S
C44 O36 1.311 . S
C44 O38 1.231 . S
O45 Zn27 1.953 . S
O45 C39 1.298 . S
O46 Zn47 1.958 . S
O46 C62 1.212 1_556 S
Zn47 O46 1.958 . S
Zn47 O48 1.949 1_566 S
Zn47 O54 1.919 . S
Zn47 O59 1.924 1_556 S
O48 Zn47 1.949 1_544 S
O48 Zn49 1.923 1_554 S
O48 Zn50 1.950 . S
O48 Zn51 1.945 . S
Zn49 O48 1.923 1_556 S
Zn49 O52 1.933 . S
Zn49 O55 1.941 . S
Zn49 O56 1.965 . S
Zn50 O48 1.950 . S
Zn50 O57 1.938 . S
Zn50 O58 1.906 . S
Zn50 O68 1.953 1_545 S
Zn51 O48 1.945 . S
Zn51 O53 1.932 . S
Zn51 O60 1.977 . S
Zn51 O61 1.910 1_545 S
O52 Zn49 1.933 . S
O52 C63 1.226 . S
O53 Zn51 1.932 . S
O53 C63 1.307 1_554 S
O54 Zn47 1.919 . S
O54 C65 1.253 1_565 S
O55 Zn49 1.941 . S
O55 C65 1.283 . S
O56 Zn49 1.965 . S
O56 C64 1.303 . S
O57 Zn50 1.938 . S
O57 C64 1.247 1_554 S
O58 Zn50 1.906 . S
O58 C66 1.304 . S
O59 Zn47 1.924 1_554 S
O59 C67 1.311 . S
O60 Zn51 1.977 . S
O60 C66 1.272 . S
O61 Zn51 1.910 1_565 S
O61 C67 1.231 . S
C62 O46 1.212 1_554 S
C62 O68 1.298 . S
C63 O52 1.226 . S
C63 O53 1.307 1_556 S
C64 O56 1.303 . S
C64 O57 1.247 1_556 S
C65 O54 1.253 1_545 S
C65 O55 1.283 . S
C66 O58 1.304 . S
C66 O60 1.272 . S
C67 O59 1.311 . S
C67 O61 1.231 . S
O68 Zn50 1.953 1_565 S
O68 C62 1.298 . S
O69 Zn70 1.953 . S
O69 C85 1.225 . S
Zn70 O69 1.953 . S
Zn70 O71 1.949 . S
Zn70 O77 1.919 . S
Zn70 O82 1.924 . S
O71 Zn70 1.949 . S
O71 Zn72 1.923 . S
O71 Zn73 1.950 . S
O71 Zn74 1.945 . S
Zn72 O71 1.923 . S
Zn72 O75 1.933 . S
Zn72 O78 1.941 . S
Zn72 O79 1.965 . S
Zn73 O71 1.950 . S
Zn73 O80 1.938 . S
Zn73 O81 1.906 . S
Zn73 O91 1.953 . S
Zn74 O71 1.945 . S
Zn74 O76 1.932 . S
Zn74 O83 1.977 . S
Zn74 O84 1.910 . S
O75 Zn72 1.933 . S
O75 C86 1.226 . S
O76 Zn74 1.932 . S
O76 C86 1.307 . S
O77 Zn70 1.919 . S
O77 C88 1.253 . S
O78 Zn72 1.941 . S
O78 C88 1.283 . S
O79 Zn72 1.965 . S
O79 C87 1.303 . S
O80 Zn73 1.938 . S
O80 C87 1.247 . S
O81 Zn73 1.906 . S
O81 C89 1.304 . S
O82 Zn70 1.924 . S
O82 C90 1.311 . S
O83 Zn74 1.977 . S
O83 C89 1.272 . S
O84 Zn74 1.910 . S
O84 C90 1.231 . S
C85 O69 1.225 . S
C85 O91 1.298 . S
C86 O75 1.226 . S
C86 O76 1.307 . S
C87 O79 1.303 . S
C87 O80 1.247 . S
C88 O77 1.253 . S
C88 O78 1.283 . S
C89 O81 1.304 . S
C89 O83 1.272 . S
C90 O82 1.311 . S
C90 O84 1.231 . S
O91 Zn73 1.953 . S
O91 C85 1.298 . S
O92 Zn93 1.953 . S
O92 C108 1.225 . S
Zn93 O92 1.953 . S
Zn93 O94 1.949 . S
Zn93 O100 1.919 . S
Zn93 O105 1.924 . S
O94 Zn93 1.949 . S
O94 Zn95 1.923 . S
O94 Zn96 1.950 . S
O94 Zn97 1.945 . S
Zn95 O94 1.923 . S
Zn95 O98 1.933 . S
Zn95 O101 1.941 . S
Zn95 O102 1.965 . S
Zn96 O94 1.950 . S
Zn96 O103 1.938 . S
Zn96 O104 1.906 . S
Zn96 O114 1.953 . S
Zn97 O94 1.945 . S
Zn97 O99 1.932 . S
Zn97 O106 1.977 . S
Zn97 O107 1.910 . S
O98 Zn95 1.933 . S
O98 C109 1.226 . S
O99 Zn97 1.932 . S
O99 C109 1.307 . S
O100 Zn93 1.919 . S
O100 C111 1.253 . S
O101 Zn95 1.941 . S
O101 C111 1.283 . S
O102 Zn95 1.965 . S
O102 C110 1.303 . S
O103 Zn96 1.938 . S
O103 C110 1.247 . S
O104 Zn96 1.906 . S
O104 C112 1.304 . S
O105 Zn93 1.924 . S
O105 C113 1.311 . S
O106 Zn97 1.977 . S
O106 C112 1.272 . S
O107 Zn97 1.910 . S
O107 C113 1.231 . S
C108 O92 1.225 . S
C108 O114 1.298 . S
C109 O98 1.226 . S
C109 O99 1.307 . S
C110 O102 1.303 . S
C110 O103 1.247 . S
C111 O100 1.253 . S
C111 O101 1.283 . S
C112 O104 1.304 . S
C112 O106 1.272 . S
C113 O105 1.311 . S
C113 O107 1.231 . S
O114 Zn96 1.953 . S
O114 C108 1.298 . S
O115 Zn116 1.953 . S
O115 C131 1.225 . S
Zn116 O115 1.953 . S
Zn116 O117 1.949 . S
Zn116 O123 1.919 . S
Zn116 O128 1.924 . S
O117 Zn116 1.949 . S
O117 Zn118 1.923 . S
O117 Zn119 1.950 . S
O117 Zn120 1.945 . S
Zn118 O117 1.923 . S
Zn118 O121 1.933 . S
Zn118 O124 1.941 . S
Zn118 O125 1.965 . S
Zn119 O117 1.950 . S
Zn119 O126 1.938 . S
Zn119 O127 1.906 . S
Zn119 O137 1.953 . S
Zn120 O117 1.945 . S
Zn120 O122 1.932 . S
Zn120 O129 1.977 . S
Zn120 O130 1.910 . S
O121 Zn118 1.933 . S
O121 C132 1.226 . S
O122 Zn120 1.932 . S
O122 C132 1.307 . S
O123 Zn116 1.919 . S
O123 C134 1.253 . S
O124 Zn118 1.941 . S
O124 C134 1.283 . S
O125 Zn118 1.965 . S
O125 C133 1.303 . S
O126 Zn119 1.938 . S
O126 C133 1.247 . S
O127 Zn119 1.906 . S
O127 C135 1.304 . S
O128 Zn116 1.924 . S
O128 C136 1.311 . S
O129 Zn120 1.977 . S
O129 C135 1.272 . S
O130 Zn120 1.910 . S
O130 C136 1.231 . S
C131 O115 1.225 . S
C131 O137 1.298 . S
C132 O121 1.226 . S
C132 O122 1.307 . S
C133 O125 1.303 . S
C133 O126 1.247 . S
C134 O123 1.253 . S
C134 O124 1.283 . S
C135 O127 1.304 . S
C135 O129 1.272 . S
C136 O128 1.311 . S
C136 O130 1.231 . S
O137 Zn119 1.953 . S
O137 C131 1.298 . S
O138 Zn139 1.953 . S
O138 C154 1.225 . S
Zn139 O138 1.953 . S
Zn139 O140 1.949 . S
Zn139 O146 1.919 . S
Zn139 O151 1.924 . S
O140 Zn139 1.949 . S
O140 Zn141 1.923 . S
O140 Zn142 1.950 . S
O140 Zn143 1.945 . S
Zn141 O140 1.923 . S
Zn141 O144 1.933 . S
Zn141 O147 1.941 . S
Zn141 O148 1.965 . S
Zn142 O140 1.950 . S
Zn142 O149 1.938 . S
Zn142 O150 1.906 . S
Zn142 O160 1.953 . S
Zn143 O140 1.945 . S
Zn143 O145 1.932 . S
Zn143 O152 1.977 . S
Zn143 O153 1.910 . S
O144 Zn141 1.933 . S
O144 C155 1.226 . S
O145 Zn143 1.932 . S
O145 C155 1.307 . S
O146 Zn139 1.919 . S
O146 C157 1.253 . S
O147 Zn141 1.941 . S
O147 C157 1.283 . S
O148 Zn141 1.965 . S
O148 C156 1.303 . S
O149 Zn142 1.938 . S
O149 C156 1.247 . S
O150 Zn142 1.906 . S
O150 C158 1.304 . S
O151 Zn139 1.924 . S
O151 C159 1.311 . S
O152 Zn143 1.977 . S
O152 C158 1.272 . S
O153 Zn143 1.910 . S
O153 C159 1.231 . S
C154 O138 1.225 . S
C154 O160 1.298 . S
C155 O144 1.226 . S
C155 O145 1.307 . S
C156 O148 1.303 . S
C156 O149 1.247 . S
C157 O146 1.253 . S
C157 O147 1.283 . S
C158 O150 1.304 . S
C158 O152 1.272 . S
C159 O151 1.311 . S
C159 O153 1.231 . S
O160 Zn142 1.953 . S
O160 C154 1.298 . S
O161 Zn162 1.953 . S
O161 C177 1.225 . S
Zn162 O161 1.953 . S
Zn162 O163 1.949 . S
Zn162 O169 1.919 . S
Zn162 O174 1.924 . S
O163 Zn162 1.949 . S
O163 Zn164 1.923 . S
O163 Zn165 1.950 . S
O163 Zn166 1.945 . S
Zn164 O163 1.923 . S
Zn164 O167 1.933 . S
Zn164 O170 1.941 . S
Zn164 O171 1.965 . S
Zn165 O163 1.950 . S
Zn165 O172 1.938 . S
Zn165 O173 1.906 . S
Zn165 O183 1.953 . S
Zn166 O163 1.945 . S
Zn166 O168 1.932 . S
Zn166 O175 1.977 . S
Zn166 O176 1.910 . S
O167 Zn164 1.933 . S
O167 C178 1.226 . S
O168 Zn166 1.932 . S
O168 C178 1.307 . S
O169 Zn162 1.919 . S
O169 C180 1.253 . S
O170 Zn164 1.941 . S
O170 C180 1.283 . S
O171 Zn164 1.965 . S
O171 C179 1.303 . S
O172 Zn165 1.938 . S
O172 C179 1.247 . S
O173 Zn165 1.906 . S
O173 C181 1.304 . S
O174 Zn162 1.924 . S
O174 C182 1.311 . S
O175 Zn166 1.977 . S
O175 C181 1.272 . S
O176 Zn166 1.910 . S
O176 C182 1.231 . S
C177 O161 1.225 . S
C177 O183 1.298 . S
C178 O167 1.226 . S
C178 O168 1.307 . S
C179 O171 1.303 . S
C179 O172 1.247 . S
C180 O169 1.253 . S
C180 O170 1.283 . S
C181 O173 1.304 . S
C181 O175 1.272 . S
C182 O174 1.311 . S
C182 O176 1.231 . S
O183 Zn165 1.953 . S
O183 C177 1.298 . S
O184 Zn185 1.953 . S
O184 C200 1.225 . S
Zn185 O184 1.953 . S
Zn185 O186 1.949 . S
Zn185 O192 1.919 . S
Zn185 O197 1.924 . S
O186 Zn185 1.949 . S
O186 Zn187 1.923 . S
O186 Zn188 1.950 . S
O186 Zn189 1.945 . S
Zn187 O186 1.923 . S
Zn187 O190 1.933 . S
Zn187 O193 1.941 . S
Zn187 O194 1.965 . S
Zn188 O186 1.950 . S
Zn188 O195 1.938 . S
Zn188 O196 1.906 . S
Zn188 O206 1.953 . S
Zn189 O186 1.945 . S
Zn189 O191 1.932 . S
Zn189 O198 1.977 . S
Zn189 O199 1.910 . S
O190 Zn187 1.933 . S
O190 C201 1.226 . S
O191 Zn189 1.932 . S
O191 C201 1.307 . S
O192 Zn185 1.919 . S
O192 C203 1.253 . S
O193 Zn187 1.941 . S
O193 C203 1.283 . S
O194 Zn187 1.965 . S
O194 C202 1.303 . S
O195 Zn188 1.938 . S
O195 C202 1.247 . S
O196 Zn188 1.906 . S
O196 C204 1.304 . S
O197 Zn185 1.924 . S
O197 C205 1.311 . S
O198 Zn189 1.977 . S
O198 C204 1.272 . S
O199 Zn189 1.910 . S
O199 C205 1.231 . S
C200 O184 1.225 . S
C200 O206 1.298 . S
C201 O190 1.226 . S
C201 O191 1.307 . S
C202 O194 1.303 . S
C202 O195 1.247 . S
C203 O192 1.253 . S
C203 O193 1.283 . S
C204 O196 1.304 . S
C204 O198 1.272 . S
C205 O197 1.311 . S
C205 O199 1.231 . S
O206 Zn188 1.953 . S
O206 C200 1.298 . S
C207 C208 1.349 . S
C207 C209 1.327 1_455 S
C207 H232 0.950 1_455 S
C208 C207 1.349 . S
C208 C224 1.349 . S
C209 C207 1.327 1_655 S
C209 C228 1.429 1_655 S
C209 H233 0.950 . S
C210 C227 1.574 . S
C210 C229 1.368 . S
C210 H234 0.949 . S
H211 C215 0.949 . S
C212 C213 1.349 1_455 S
C212 C214 1.327 . S
C212 H235 0.950 . S
C213 C212 1.349 1_655 S
C213 C225 1.349 . S
C214 C212 1.327 . S
C214 C230 1.429 1_455 S
C214 H236 0.950 . S
C215 H211 0.949 . S
C215 C223 1.574 . S
C215 C231 1.368 . S
H216 C224 0.950 . S
H217 C222 0.950 . S
H218 C223 0.949 . S
H219 C225 0.950 . S
H220 C226 0.950 . S
H221 C227 0.949 . S
C222 H217 0.950 . S
C222 C224 1.327 . S
C222 C228 1.429 . S
C223 C215 1.574 . S
C223 H218 0.949 . S
C223 C229 1.368 1_655 S
C224 C208 1.349 . S
C224 H216 0.950 . S
C224 C222 1.327 . S
C225 C213 1.349 . S
C225 H219 0.950 . S
C225 C226 1.327 . S
C226 H220 0.950 . S
C226 C225 1.327 . S
C226 C230 1.429 . S
C227 C210 1.574 . S
C227 H221 0.949 . S
C227 C231 1.368 1_455 S
C228 C209 1.429 1_455 S
C228 C222 1.429 . S
C228 C229 1.523 . S
C229 C210 1.368 . S
C229 C223 1.368 1_455 S
C229 C228 1.523 . S
C230 C214 1.429 1_655 S
C230 C226 1.429 . S
C230 C231 1.523 . S
C231 C215 1.368 . S
C231 C227 1.368 1_655 S
C231 C230 1.523 . S
H232 C207 0.950 1_655 S
H233 C209 0.950 . S
H234 C210 0.949 . S
H235 C212 0.950 . S
H236 C214 0.950 . S
C237 C238 1.349 . S
C237 C239 1.327 . S
C237 H262 0.950 . S
C238 C237 1.349 . S
C238 C254 1.349 . S
C239 C237 1.327 . S
C239 C258 1.429 . S
C239 H263 0.950 . S
C240 C257 1.574 . S
C240 C259 1.368 . S
C240 H264 0.949 . S
H241 C245 0.949 . S
C242 C243 1.349 . S
C242 C244 1.327 . S
C242 H265 0.950 . S
C243 C242 1.349 . S
C243 C255 1.349 . S
C244 C242 1.327 . S
C244 C260 1.429 . S
C244 H266 0.950 . S
C245 H241 0.949 . S
C245 C253 1.574 . S
C245 C261 1.368 . S
H246 C254 0.950 . S
H247 C252 0.950 . S
H248 C253 0.949 . S
H249 C255 0.950 . S
H250 C256 0.950 . S
H251 C257 0.949 . S
C252 H247 0.950 . S
C252 C254 1.327 . S
C252 C258 1.429 . S
C253 C245 1.574 . S
C253 H248 0.949 . S
C253 C259 1.368 . S
C254 C238 1.349 . S
C254 H246 0.950 . S
C254 C252 1.327 . S
C255 C243 1.349 . S
C255 H249 0.950 . S
C255 C256 1.327 . S
C256 H250 0.950 . S
C256 C255 1.327 . S
C256 C260 1.429 . S
C257 C240 1.574 . S
C257 H251 0.949 . S
C257 C261 1.368 . S
C258 C239 1.429 . S
C258 C252 1.429 . S
C258 C259 1.523 . S
C259 C240 1.368 . S
C259 C253 1.368 . S
C259 C258 1.523 . S
C260 C244 1.429 . S
C260 C256 1.429 . S
C260 C261 1.523 . S
C261 C245 1.368 . S
C261 C257 1.368 . S
C261 C260 1.523 . S
H262 C237 0.950 . S
H263 C239 0.950 . S
H264 C240 0.949 . S
H265 C242 0.950 . S
H266 C244 0.950 . S
C267 C268 1.349 . S
C267 C269 1.327 . S
C267 H292 0.950 . S
C268 C267 1.349 . S
C268 C284 1.349 1_545 S
C269 C267 1.327 . S
C269 C288 1.429 . S
C269 H293 0.950 . S
C270 C287 1.574 . S
C270 C289 1.368 . S
C270 H294 0.949 1_545 S
H271 C275 0.949 . S
C272 C273 1.349 . S
C272 C274 1.327 . S
C272 H295 0.950 . S
C273 C272 1.349 . S
C273 C285 1.349 . S
C274 C272 1.327 . S
C274 C290 1.429 . S
C274 H296 0.950 . S
C275 H271 0.949 . S
C275 C283 1.574 . S
C275 C291 1.368 . S
H276 C284 0.950 . S
H277 C282 0.950 1_565 S
H278 C283 0.949 . S
H279 C285 0.950 . S
H280 C286 0.950 . S
H281 C287 0.949 . S
C282 H277 0.950 1_545 S
C282 C284 1.327 1_545 S
C282 C288 1.429 . S
C283 C275 1.574 . S
C283 H278 0.949 . S
C283 C289 1.368 . S
C284 C268 1.349 1_565 S
C284 H276 0.950 . S
C284 C282 1.327 1_565 S
C285 C273 1.349 . S
C285 H279 0.950 . S
C285 C286 1.327 . S
C286 H280 0.950 . S
C286 C285 1.327 . S
C286 C290 1.429 . S
C287 C270 1.574 . S
C287 H281 0.949 . S
C287 C291 1.368 . S
C288 C269 1.429 . S
C288 C282 1.429 . S
C288 C289 1.523 . S
C289 C270 1.368 . S
C289 C283 1.368 . S
C289 C288 1.523 . S
C290 C274 1.429 . S
C290 C286 1.429 . S
C290 C291 1.523 . S
C291 C275 1.368 . S
C291 C287 1.368 . S
C291 C290 1.523 . S
H292 C267 0.950 . S
H293 C269 0.950 . S
H294 C270 0.949 1_565 S
H295 C272 0.950 . S
H296 C274 0.950 . S
C297 C298 1.349 . S
C297 C299 1.327 . S
C297 H322 0.950 . S
C298 C297 1.349 . S
C298 C314 1.349 . S
C299 C297 1.327 . S
C299 C318 1.429 . S
C299 H323 0.950 . S
C300 C317 1.574 . S
C300 C319 1.368 . S
C300 H324 0.949 . S
H301 C305 0.949 . S
C302 C303 1.349 . S
C302 C304 1.327 . S
C302 H325 0.950 . S
C303 C302 1.349 . S
C303 C315 1.349 . S
C304 C302 1.327 . S
C304 C320 1.429 . S
C304 H326 0.950 . S
C305 H301 0.949 . S
C305 C313 1.574 . S
C305 C321 1.368 . S
H306 C314 0.950 . S
H307 C312 0.950 . S
H308 C313 0.949 . S
H309 C315 0.950 . S
H310 C316 0.950 . S
H311 C317 0.949 . S
C312 H307 0.950 . S
C312 C314 1.327 . S
C312 C318 1.429 . S
C313 C305 1.574 . S
C313 H308 0.949 . S
C313 C319 1.368 . S
C314 C298 1.349 . S
C314 H306 0.950 . S
C314 C312 1.327 . S
C315 C303 1.349 . S
C315 H309 0.950 . S
C315 C316 1.327 . S
C316 H310 0.950 . S
C316 C315 1.327 . S
C316 C320 1.429 . S
C317 C300 1.574 . S
C317 H311 0.949 . S
C317 C321 1.368 . S
C318 C299 1.429 . S
C318 C312 1.429 . S
C318 C319 1.523 . S
C319 C300 1.368 . S
C319 C313 1.368 . S
C319 C318 1.523 . S
C320 C304 1.429 . S
C320 C316 1.429 . S
C320 C321 1.523 1_554 S
C321 C305 1.368 . S
C321 C317 1.368 . S
C321 C320 1.523 1_556 S
H322 C297 0.950 . S
H323 C299 0.950 . S
H324 C300 0.949 . S
H325 C302 0.950 . S
H326 C304 0.950 . S
C327 C328 1.349 . S
C327 C329 1.327 . S
C327 H352 0.950 . S
C328 C327 1.349 . S
C328 C344 1.349 . S
C329 C327 1.327 . S
C329 C348 1.429 . S
C329 H353 0.950 . S
C330 C347 1.574 . S
C330 C349 1.368 . S
C330 H354 0.949 . S
H331 C335 0.949 . S
C332 C333 1.349 . S
C332 C334 1.327 . S
C332 H355 0.950 . S
C333 C332 1.349 . S
C333 C345 1.349 . S
C334 C332 1.327 . S
C334 C350 1.429 . S
C334 H356 0.950 . S
C335 H331 0.949 . S
C335 C343 1.574 . S
C335 C351 1.368 . S
H336 C344 0.950 . S
H337 C342 0.950 . S
H338 C343 0.949 . S
H339 C345 0.950 . S
H340 C346 0.950 . S
H341 C347 0.949 . S
C342 H337 0.950 . S
C342 C344 1.327 . S
C342 C348 1.429 . S
C343 C335 1.574 . S
C343 H338 0.949 . S
C343 C349 1.368 . S
C344 C328 1.349 . S
C344 H336 0.950 . S
C344 C342 1.327 . S
C345 C333 1.349 . S
C345 H339 0.950 . S
C345 C346 1.327 . S
C346 H340 0.950 . S
C346 C345 1.327 . S
C346 C350 1.429 . S
C347 C330 1.574 . S
C347 H341 0.949 . S
C347 C351 1.368 . S
C348 C329 1.429 . S
C348 C342 1.429 . S
C348 C349 1.523 . S
C349 C330 1.368 . S
C349 C343 1.368 . S
C349 C348 1.523 . S
C350 C334 1.429 . S
C350 C346 1.429 . S
C350 C351 1.523 1_554 S
C351 C335 1.368 . S
C351 C347 1.368 . S
C351 C350 1.523 1_556 S
H352 C327 0.950 . S
H353 C329 0.950 . S
H354 C330 0.949 . S
H355 C332 0.950 . S
H356 C334 0.950 . S
C357 C358 1.349 . S
C357 C359 1.327 . S
C357 H382 0.950 . S
C358 C357 1.349 . S
C358 C374 1.349 . S
C359 C357 1.327 . S
C359 C378 1.429 . S
C359 H383 0.950 . S
C360 C377 1.574 . S
C360 C379 1.368 . S
C360 H384 0.949 . S
H361 C365 0.949 . S
C362 C363 1.349 . S
C362 C364 1.327 . S
C362 H385 0.950 . S
C363 C362 1.349 . S
C363 C375 1.349 . S
C364 C362 1.327 . S
C364 C380 1.429 . S
C364 H386 0.950 . S
C365 H361 0.949 . S
C365 C373 1.574 . S
C365 C381 1.368 . S
H366 C374 0.950 . S
H367 C372 0.950 . S
H368 C373 0.949 . S
H369 C375 0.950 . S
H370 C376 0.950 . S
H371 C377 0.949 . S
C372 H367 0.950 . S
C372 C374 1.327 . S
C372 C378 1.429 . S
C373 C365 1.574 . S
C373 H368 0.949 . S
C373 C379 1.368 . S
C374 C358 1.349 . S
C374 H366 0.950 . S
C374 C372 1.327 . S
C375 C363 1.349 . S
C375 H369 0.950 . S
C375 C376 1.327 . S
C376 H370 0.950 . S
C376 C375 1.327 . S
C376 C380 1.429 . S
C377 C360 1.574 . S
C377 H371 0.949 . S
C377 C381 1.368 . S
C378 C359 1.429 . S
C378 C372 1.429 . S
C378 C379 1.523 . S
C379 C360 1.368 . S
C379 C373 1.368 . S
C379 C378 1.523 . S
C380 C364 1.429 . S
C380 C376 1.429 . S
C380 C381 1.523 1_554 S
C381 C365 1.368 . S
C381 C377 1.368 . S
C381 C380 1.523 1_556 S
H382 C357 0.950 . S
H383 C359 0.950 . S
H384 C360 0.949 . S
H385 C362 0.950 . S
H386 C364 0.950 . S
C387 C388 1.349 . S
C387 C389 1.327 . S
C387 H412 0.950 . S
C388 C387 1.349 . S
C388 C404 1.349 . S
C389 C387 1.327 . S
C389 C408 1.429 . S
C389 H413 0.950 . S
C390 C407 1.574 . S
C390 C409 1.368 . S
C390 H414 0.949 . S
H391 C395 0.949 . S
C392 C393 1.349 . S
C392 C394 1.327 1_556 S
C392 H415 0.950 . S
C393 C392 1.349 . S
C393 C405 1.349 . S
C394 C392 1.327 1_554 S
C394 C410 1.429 . S
C394 H416 0.950 . S
C395 H391 0.949 . S
C395 C403 1.574 . S
C395 C411 1.368 . S
H396 C404 0.950 . S
H397 C402 0.950 . S
H398 C403 0.949 . S
H399 C405 0.950 . S
H400 C406 0.950 . S
H401 C407 0.949 . S
C402 H397 0.950 . S
C402 C404 1.327 . S
C402 C408 1.429 . S
C403 C395 1.574 . S
C403 H398 0.949 . S
C403 C409 1.368 . S
C404 C388 1.349 . S
C404 H396 0.950 . S
C404 C402 1.327 . S
C405 C393 1.349 . S
C405 H399 0.950 . S
C405 C406 1.327 1_556 S
C406 H400 0.950 . S
C406 C405 1.327 1_554 S
C406 C410 1.429 . S
C407 C390 1.574 . S
C407 H401 0.949 . S
C407 C411 1.368 . S
C408 C389 1.429 . S
C408 C402 1.429 . S
C408 C409 1.523 . S
C409 C390 1.368 . S
C409 C403 1.368 . S
C409 C408 1.523 . S
C410 C394 1.429 . S
C410 C406 1.429 . S
C410 C411 1.523 . S
C411 C395 1.368 . S
C411 C407 1.368 . S
C411 C410 1.523 . S
H412 C387 0.950 . S
H413 C389 0.950 . S
H414 C390 0.949 . S
H415 C392 0.950 . S
H416 C394 0.950 . S
C417 C418 1.349 . S
C417 C419 1.327 . S
C417 H442 0.950 . S
C418 C417 1.349 . S
C418 C434 1.349 . S
C419 C417 1.327 . S
C419 C438 1.429 . S
C419 H443 0.950 . S
C420 C437 1.574 . S
C420 C439 1.368 . S
C420 H444 0.949 . S
H421 C425 0.949 . S
C422 C423 1.349 . S
C422 C424 1.327 1_556 S
C422 H445 0.950 . S
C423 C422 1.349 . S
C423 C435 1.349 . S
C424 C422 1.327 1_554 S
C424 C440 1.429 . S
C424 H446 0.950 . S
C425 H421 0.949 . S
C425 C433 1.574 . S
C425 C441 1.368 . S
H426 C434 0.950 . S
H427 C432 0.950 . S
H428 C433 0.949 . S
H429 C435 0.950 . S
H430 C436 0.950 . S
H431 C437 0.949 . S
C432 H427 0.950 . S
C432 C434 1.327 . S
C432 C438 1.429 . S
C433 C425 1.574 . S
C433 H428 0.949 . S
C433 C439 1.368 . S
C434 C418 1.349 . S
C434 H426 0.950 . S
C434 C432 1.327 . S
C435 C423 1.349 . S
C435 H429 0.950 . S
C435 C436 1.327 1_556 S
C436 H430 0.950 . S
C436 C435 1.327 1_554 S
C436 C440 1.429 . S
C437 C420 1.574 . S
C437 H431 0.949 . S
C437 C441 1.368 . S
C438 C419 1.429 . S
C438 C432 1.429 . S
C438 C439 1.523 . S
C439 C420 1.368 . S
C439 C433 1.368 . S
C439 C438 1.523 . S
C440 C424 1.429 . S
C440 C436 1.429 . S
C440 C441 1.523 . S
C441 C425 1.368 . S
C441 C437 1.368 . S
C441 C440 1.523 . S
H442 C417 0.950 . S
H443 C419 0.950 . S
H444 C420 0.949 . S
H445 C422 0.950 . S
H446 C424 0.950 . S
C447 C448 1.349 . S
C447 C449 1.327 . S
C447 H472 0.950 . S
C448 C447 1.349 . S
C448 C464 1.349 . S
C449 C447 1.327 . S
C449 C468 1.429 . S
C449 H473 0.950 . S
C450 C467 1.574 . S
C450 C469 1.368 . S
C450 H474 0.949 . S
H451 C455 0.949 . S
C452 C453 1.349 . S
C452 C454 1.327 1_556 S
C452 H475 0.950 . S
C453 C452 1.349 . S
C453 C465 1.349 . S
C454 C452 1.327 1_554 S
C454 C470 1.429 . S
C454 H476 0.950 . S
C455 H451 0.949 . S
C455 C463 1.574 . S
C455 C471 1.368 . S
H456 C464 0.950 . S
H457 C462 0.950 . S
H458 C463 0.949 . S
H459 C465 0.950 . S
H460 C466 0.950 . S
H461 C467 0.949 . S
C462 H457 0.950 . S
C462 C464 1.327 . S
C462 C468 1.429 . S
C463 C455 1.574 . S
C463 H458 0.949 . S
C463 C469 1.368 . S
C464 C448 1.349 . S
C464 H456 0.950 . S
C464 C462 1.327 . S
C465 C453 1.349 . S
C465 H459 0.950 . S
C465 C466 1.327 1_556 S
C466 H460 0.950 . S
C466 C465 1.327 1_554 S
C466 C470 1.429 . S
C467 C450 1.574 . S
C467 H461 0.949 . S
C467 C471 1.368 . S
C468 C449 1.429 . S
C468 C462 1.429 . S
C468 C469 1.523 . S
C469 C450 1.368 . S
C469 C463 1.368 . S
C469 C468 1.523 . S
C470 C454 1.429 . S
C470 C466 1.429 . S
C470 C471 1.523 . S
C471 C455 1.368 . S
C471 C467 1.368 . S
C471 C470 1.523 . S
H472 C447 0.950 . S
H473 C449 0.950 . S
H474 C450 0.949 . S
H475 C452 0.950 . S
H476 C454 0.950 . S
C477 C478 1.349 . S
C477 C479 1.327 . S
C477 H502 0.950 . S
C478 C477 1.349 . S
C478 C494 1.349 . S
C479 C477 1.327 . S
C479 C498 1.429 . S
C479 H503 0.950 . S
C480 C497 1.574 . S
C480 C499 1.368 . S
C480 H504 0.949 . S
H481 C485 0.949 . S
C482 C483 1.349 . S
C482 C484 1.327 . S
C482 H505 0.950 . S
C483 C482 1.349 . S
C483 C495 1.349 . S
C484 C482 1.327 . S
C484 C500 1.429 . S
C484 H506 0.950 . S
C485 H481 0.949 . S
C485 C493 1.574 . S
C485 C501 1.368 . S
H486 C494 0.950 . S
H487 C492 0.950 . S
H488 C493 0.949 . S
H489 C495 0.950 . S
H490 C496 0.950 . S
H491 C497 0.949 . S
C492 H487 0.950 . S
C492 C494 1.327 . S
C492 C498 1.429 . S
C493 C485 1.574 . S
C493 H488 0.949 . S
C493 C499 1.368 . S
C494 C478 1.349 . S
C494 H486 0.950 . S
C494 C492 1.327 . S
C495 C483 1.349 . S
C495 H489 0.950 . S
C495 C496 1.327 . S
C496 H490 0.950 . S
C496 C495 1.327 . S
C496 C500 1.429 . S
C497 C480 1.574 . S
C497 H491 0.949 . S
C497 C501 1.368 . S
C498 C479 1.429 . S
C498 C492 1.429 . S
C498 C499 1.523 . S
C499 C480 1.368 . S
C499 C493 1.368 . S
C499 C498 1.523 . S
C500 C484 1.429 . S
C500 C496 1.429 . S
C500 C501 1.523 . S
C501 C485 1.368 . S
C501 C497 1.368 . S
C501 C500 1.523 . S
H502 C477 0.950 . S
H503 C479 0.950 . S
H504 C480 0.949 . S
H505 C482 0.950 . S
H506 C484 0.950 . S
C507 C508 1.349 . S
C507 C509 1.327 . S
C507 H532 0.950 . S
C508 C507 1.349 . S
C508 C524 1.349 . S
C509 C507 1.327 . S
C509 C528 1.429 . S
C509 H533 0.950 . S
C510 C527 1.574 . S
C510 C529 1.368 . S
C510 H534 0.949 . S
H511 C515 0.949 . S
C512 C513 1.349 . S
C512 C514 1.327 . S
C512 H535 0.950 . S
C513 C512 1.349 . S
C513 C525 1.349 . S
C514 C512 1.327 . S
C514 C530 1.429 . S
C514 H536 0.950 . S
C515 H511 0.949 . S
C515 C523 1.574 . S
C515 C531 1.368 . S
H516 C524 0.950 1_556 S
H517 C522 0.950 . S
H518 C523 0.949 . S
H519 C525 0.950 . S
H520 C526 0.950 . S
H521 C527 0.949 . S
C522 H517 0.950 . S
C522 C524 1.327 . S
C522 C528 1.429 . S
C523 C515 1.574 . S
C523 H518 0.949 . S
C523 C529 1.368 . S
C524 C508 1.349 . S
C524 H516 0.950 1_554 S
C524 C522 1.327 . S
C525 C513 1.349 . S
C525 H519 0.950 . S
C525 C526 1.327 . S
C526 H520 0.950 . S
C526 C525 1.327 . S
C526 C530 1.429 . S
C527 C510 1.574 . S
C527 H521 0.949 . S
C527 C531 1.368 . S
C528 C509 1.429 . S
C528 C522 1.429 . S
C528 C529 1.523 . S
C529 C510 1.368 . S
C529 C523 1.368 . S
C529 C528 1.523 . S
C530 C514 1.429 . S
C530 C526 1.429 . S
C530 C531 1.523 . S
C531 C515 1.368 . S
C531 C527 1.368 . S
C531 C530 1.523 . S
H532 C507 0.950 . S
H533 C509 0.950 . S
H534 C510 0.949 . S
H535 C512 0.950 . S
H536 C514 0.950 . S
C537 C538 1.349 . S
C537 C539 1.327 . S
C537 H562 0.950 . S
C538 C537 1.349 . S
C538 C554 1.349 . S
C539 C537 1.327 . S
C539 C558 1.429 . S
C539 H563 0.950 . S
C540 C557 1.574 . S
C540 C559 1.368 . S
C540 H564 0.949 . S
H541 C545 0.949 . S
C542 C543 1.349 . S
C542 C544 1.327 . S
C542 H565 0.950 . S
C543 C542 1.349 . S
C543 C555 1.349 . S
C544 C542 1.327 . S
C544 C560 1.429 . S
C544 H566 0.950 . S
C545 H541 0.949 . S
C545 C553 1.574 . S
C545 C561 1.368 . S
H546 C554 0.950 . S
H547 C552 0.950 . S
H548 C553 0.949 . S
H549 C555 0.950 . S
H550 C556 0.950 . S
H551 C557 0.949 . S
C552 H547 0.950 . S
C552 C554 1.327 . S
C552 C558 1.429 . S
C553 C545 1.574 . S
C553 H548 0.949 . S
C553 C559 1.368 . S
C554 C538 1.349 . S
C554 H546 0.950 . S
C554 C552 1.327 . S
C555 C543 1.349 . S
C555 H549 0.950 . S
C555 C556 1.327 . S
C556 H550 0.950 . S
C556 C555 1.327 . S
C556 C560 1.429 . S
C557 C540 1.574 . S
C557 H551 0.949 . S
C557 C561 1.368 . S
C558 C539 1.429 . S
C558 C552 1.429 . S
C558 C559 1.523 . S
C559 C540 1.368 . S
C559 C553 1.368 . S
C559 C558 1.523 . S
C560 C544 1.429 . S
C560 C556 1.429 . S
C560 C561 1.523 . S
C561 C545 1.368 . S
C561 C557 1.368 . S
C561 C560 1.523 . S
H562 C537 0.950 . S
H563 C539 0.950 . S
H564 C540 0.949 . S
H565 C542 0.950 . S
H566 C544 0.950 . S
C567 C568 1.349 . S
C567 C569 1.327 . S
C567 H592 0.950 1_556 S
C568 C567 1.349 . S
C568 C584 1.349 . S
C569 C567 1.327 . S
C569 C588 1.429 . S
C569 H593 0.950 . S
C570 C587 1.574 . S
C570 C589 1.368 . S
C570 H594 0.949 . S
H571 C575 0.949 . S
C572 C573 1.349 . S
C572 C574 1.327 . S
C572 H595 0.950 . S
C573 C572 1.349 . S
C573 C585 1.349 . S
C574 C572 1.327 . S
C574 C590 1.429 . S
C574 H596 0.950 . S
C575 H571 0.949 . S
C575 C583 1.574 . S
C575 C591 1.368 . S
H576 C584 0.950 . S
H577 C582 0.950 . S
H578 C583 0.949 . S
H579 C585 0.950 . S
H580 C586 0.950 . S
H581 C587 0.949 . S
C582 H577 0.950 . S
C582 C584 1.327 . S
C582 C588 1.429 . S
C583 C575 1.574 . S
C583 H578 0.949 . S
C583 C589 1.368 . S
C584 C568 1.349 . S
C584 H576 0.950 . S
C584 C582 1.327 . S
C585 C573 1.349 . S
C585 H579 0.950 . S
C585 C586 1.327 . S
C586 H580 0.950 . S
C586 C585 1.327 . S
C586 C590 1.429 . S
C587 C570 1.574 . S
C587 H581 0.949 . S
C587 C591 1.368 . S
C588 C569 1.429 . S
C588 C582 1.429 . S
C588 C589 1.523 . S
C589 C570 1.368 . S
C589 C583 1.368 . S
C589 C588 1.523 . S
C590 C574 1.429 . S
C590 C586 1.429 . S
C590 C591 1.523 . S
C591 C575 1.368 . S
C591 C587 1.368 . S
C591 C590 1.523 . S
H592 C567 0.950 1_554 S
H593 C569 0.950 . S
H594 C570 0.949 . S
H595 C572 0.950 . S
H596 C574 0.950 . S
C597 C598 1.349 . S
C597 C599 1.327 . S
C597 H622 0.950 . S
C598 C597 1.349 . S
C598 C614 1.349 . S
C599 C597 1.327 . S
C599 C618 1.429 . S
C599 H623 0.950 . S
C600 C617 1.574 . S
C600 C619 1.368 . S
C600 H624 0.949 . S
H601 C605 0.949 . S
C602 C603 1.353 . S
C602 C604 1.331 . S
C602 H625 0.942 1_556 S
C603 C602 1.353 . S
C603 C615 1.349 . S
C604 C602 1.331 . S
C604 C620 1.429 . S
C604 H626 0.950 . S
C605 H601 0.949 . S
C605 C613 1.574 . S
C605 C621 1.368 . S
H606 C614 0.950 . S
H607 C612 0.950 . S
H608 C613 0.949 . S
H609 C615 0.950 . S
H610 C616 0.950 . S
H611 C617 0.949 . S
C612 H607 0.950 . S
C612 C614 1.327 . S
C612 C618 1.429 . S
C613 C605 1.574 . S
C613 H608 0.949 . S
C613 C619 1.368 . S
C614 C598 1.349 . S
C614 H606 0.950 . S
C614 C612 1.327 . S
C615 C603 1.349 . S
C615 H609 0.950 . S
C615 C616 1.327 . S
C616 H610 0.950 . S
C616 C615 1.327 . S
C616 C620 1.429 . S
C617 C600 1.574 . S
C617 H611 0.949 . S
C617 C621 1.368 . S
C618 C599 1.429 . S
C618 C612 1.429 . S
C618 C619 1.523 . S
C619 C600 1.368 . S
C619 C613 1.368 . S
C619 C618 1.523 . S
C620 C604 1.429 . S
C620 C616 1.429 . S
C620 C621 1.523 . S
C621 C605 1.368 . S
C621 C617 1.368 . S
C621 C620 1.523 . S
H622 C597 0.950 . S
H623 C599 0.950 . S
H624 C600 0.949 . S
H625 C602 0.942 1_554 S
H626 C604 0.950 . S
C627 C628 1.349 . S
C627 C629 1.327 . S
C627 H652 0.950 . S
C628 C627 1.349 . S
C628 C644 1.349 . S
C629 C627 1.327 . S
C629 C648 1.429 . S
C629 H653 0.950 . S
C630 C647 1.574 . S
C630 C649 1.368 . S
C630 H654 0.949 . S
H631 C635 0.949 . S
C632 C633 1.349 . S
C632 C634 1.327 . S
C632 H655 0.950 . S
C633 C632 1.349 . S
C633 C645 1.349 . S
C634 C632 1.327 . S
C634 C650 1.429 . S
C634 H656 0.950 . S
C635 H631 0.949 . S
C635 C643 1.574 . S
C635 C651 1.368 . S
H636 C644 0.950 . S
H637 C642 0.950 . S
H638 C643 0.949 . S
H639 C645 0.950 1_554 S
H640 C646 0.950 . S
H641 C647 0.949 . S
C642 H637 0.950 . S
C642 C644 1.327 . S
C642 C648 1.429 . S
C643 C635 1.574 . S
C643 H638 0.949 . S
C643 C649 1.368 . S
C644 C628 1.349 . S
C644 H636 0.950 . S
C644 C642 1.327 . S
C645 C633 1.349 . S
C645 H639 0.950 1_556 S
C645 C646 1.327 . S
C646 H640 0.950 . S
C646 C645 1.327 . S
C646 C650 1.429 . S
C647 C630 1.574 . S
C647 H641 0.949 . S
C647 C651 1.368 . S
C648 C629 1.429 . S
C648 C642 1.429 . S
C648 C649 1.523 . S
C649 C630 1.368 . S
C649 C643 1.368 . S
C649 C648 1.523 . S
C650 C634 1.429 . S
C650 C646 1.429 . S
C650 C651 1.523 . S
C651 C635 1.368 . S
C651 C647 1.368 . S
C651 C650 1.523 . S
H652 C627 0.950 . S
H653 C629 0.950 . S
H654 C630 0.949 . S
H655 C632 0.950 . S
H656 C634 0.950 . S
C657 C658 1.349 . S
C657 C659 1.327 . S
C657 H682 0.950 . S
C658 C657 1.349 . S
C658 C674 1.349 . S
C659 C657 1.327 . S
C659 C678 1.429 . S
C659 H683 0.950 . S
C660 C677 1.574 . S
C660 C679 1.368 . S
C660 H684 0.949 . S
H661 C665 0.949 . S
C662 C663 1.349 1_554 S
C662 C664 1.327 1_554 S
C662 H685 0.950 . S
C663 C662 1.349 1_556 S
C663 C675 1.349 . S
C664 C662 1.327 1_556 S
C664 C680 1.429 . S
C664 H686 0.950 1_556 S
C665 H661 0.949 . S
C665 C673 1.574 . S
C665 C681 1.368 . S
H666 C674 0.950 . S
H667 C672 0.950 . S
H668 C673 0.949 . S
H669 C675 0.950 . S
H670 C676 0.950 . S
H671 C677 0.949 . S
C672 H667 0.950 . S
C672 C674 1.327 . S
C672 C678 1.429 . S
C673 C665 1.574 . S
C673 H668 0.949 . S
C673 C679 1.368 . S
C674 C658 1.349 . S
C674 H666 0.950 . S
C674 C672 1.327 . S
C675 C663 1.349 . S
C675 H669 0.950 . S
C675 C676 1.327 . S
C676 H670 0.950 . S
C676 C675 1.327 . S
C676 C680 1.429 . S
C677 C660 1.574 . S
C677 H671 0.949 . S
C677 C681 1.368 . S
C678 C659 1.429 . S
C678 C672 1.429 . S
C678 C679 1.523 . S
C679 C660 1.368 . S
C679 C673 1.368 . S
C679 C678 1.523 . S
C680 C664 1.429 . S
C680 C676 1.429 . S
C680 C681 1.523 . S
C681 C665 1.368 . S
C681 C677 1.368 . S
C681 C680 1.523 . S
H682 C657 0.950 . S
H683 C659 0.950 . S
H684 C660 0.949 . S
H685 C662 0.950 . S
H686 C664 0.950 1_554 S
C687 C688 1.349 . S
C687 C689 1.327 . S
C687 H712 0.950 . S
C688 C687 1.349 . S
C688 C704 1.349 . S
C689 C687 1.327 . S
C689 C708 1.429 . S
C689 H713 0.950 . S
C690 C707 1.574 . S
C690 C709 1.368 . S
C690 H714 0.949 . S
H691 C695 0.949 . S
C692 C693 1.349 . S
C692 C694 1.327 . S
C692 H715 0.950 . S
C693 C692 1.349 . S
C693 C705 1.349 . S
C694 C692 1.327 . S
C694 C710 1.429 . S
C694 H716 0.950 . S
C695 H691 0.949 . S
C695 C703 1.574 . S
C695 C711 1.368 . S
H696 C704 0.950 1_554 S
H697 C702 0.950 . S
H698 C703 0.949 . S
H699 C705 0.950 . S
H700 C706 0.950 . S
H701 C707 0.949 . S
C702 H697 0.950 . S
C702 C704 1.327 . S
C702 C708 1.429 . S
C703 C695 1.574 . S
C703 H698 0.949 . S
C703 C709 1.368 . S
C704 C688 1.349 . S
C704 H696 0.950 1_556 S
C704 C702 1.327 . S
C705 C693 1.349 . S
C705 H699 0.950 . S
C705 C706 1.327 . S
C706 H700 0.950 . S
C706 C705 1.327 . S
C706 C710 1.429 . S
C707 C690 1.574 . S
C707 H701 0.949 . S
C707 C711 1.368 . S
C708 C689 1.429 . S
C708 C702 1.429 . S
C708 C709 1.523 . S
C709 C690 1.368 . S
C709 C703 1.368 . S
C709 C708 1.523 . S
C710 C694 1.429 . S
C710 C706 1.429 . S
C710 C711 1.523 . S
C711 C695 1.368 . S
C711 C707 1.368 . S
C711 C710 1.523 . S
H712 C687 0.950 . S
H713 C689 0.950 . S
H714 C690 0.949 . S
H715 C692 0.950 . S
H716 C694 0.950 . S
C717 C718 1.349 . S
C717 C719 1.327 . S
C717 H742 0.950 . S
C718 C717 1.349 . S
C718 C734 1.349 . S
C719 C717 1.327 . S
C719 C738 1.429 . S
C719 H743 0.950 . S
C720 C737 1.574 . S
C720 C739 1.368 . S
C720 H744 0.949 . S
H721 C725 0.949 . S
C722 C723 1.349 1_554 S
C722 C724 1.327 1_554 S
C722 H745 0.950 . S
C723 C722 1.349 1_556 S
C723 C735 1.349 . S
C724 C722 1.327 1_556 S
C724 C740 1.429 . S
C724 H746 0.950 1_556 S
C725 H721 0.949 . S
C725 C733 1.574 . S
C725 C741 1.368 . S
H726 C734 0.950 . S
H727 C732 0.950 . S
H728 C733 0.949 . S
H729 C735 0.950 . S
H730 C736 0.950 . S
H731 C737 0.949 . S
C732 H727 0.950 . S
C732 C734 1.327 . S
C732 C738 1.429 . S
C733 C725 1.574 . S
C733 H728 0.949 . S
C733 C739 1.368 . S
C734 C718 1.349 . S
C734 H726 0.950 . S
C734 C732 1.327 . S
C735 C723 1.349 . S
C735 H729 0.950 . S
C735 C736 1.327 . S
C736 H730 0.950 . S
C736 C735 1.327 . S
C736 C740 1.429 . S
C737 C720 1.574 . S
C737 H731 0.949 . S
C737 C741 1.368 . S
C738 C719 1.429 . S
C738 C732 1.429 . S
C738 C739 1.523 . S
C739 C720 1.368 . S
C739 C733 1.368 . S
C739 C738 1.523 . S
C740 C724 1.429 . S
C740 C736 1.429 . S
C740 C741 1.523 . S
C741 C725 1.368 . S
C741 C737 1.368 . S
C741 C740 1.523 . S
H742 C717 0.950 . S
H743 C719 0.950 . S
H744 C720 0.949 . S
H745 C722 0.950 . S
H746 C724 0.950 1_554 S
C747 C748 1.349 . S
C747 C749 1.327 . S
C747 H772 0.950 1_554 S
C748 C747 1.349 . S
C748 C764 1.349 . S
C749 C747 1.327 . S
C749 C768 1.429 . S
C749 H773 0.950 . S
C750 C767 1.574 . S
C750 C769 1.368 . S
C750 H774 0.949 . S
H751 C755 0.949 . S
C752 C753 1.349 . S
C752 C754 1.327 . S
C752 H775 0.950 . S
C753 C752 1.349 . S
C753 C765 1.349 . S
C754 C752 1.327 . S
C754 C770 1.429 . S
C754 H776 0.950 . S
C755 H751 0.949 . S
C755 C763 1.574 . S
C755 C771 1.368 . S
H756 C764 0.950 . S
H757 C762 0.950 . S
H758 C763 0.949 . S
H759 C765 0.950 . S
H760 C766 0.950 . S
H761 C767 0.949 . S
C762 H757 0.950 . S
C762 C764 1.327 . S
C762 C768 1.429 . S
C763 C755 1.574 . S
C763 H758 0.949 . S
C763 C769 1.368 . S
C764 C748 1.349 . S
C764 H756 0.950 . S
C764 C762 1.327 . S
C765 C753 1.349 . S
C765 H759 0.950 . S
C765 C766 1.327 . S
C766 H760 0.950 . S
C766 C765 1.327 . S
C766 C770 1.429 . S
C767 C750 1.574 . S
C767 H761 0.949 . S
C767 C771 1.368 . S
C768 C749 1.429 . S
C768 C762 1.429 . S
C768 C769 1.523 . S
C769 C750 1.368 . S
C769 C763 1.368 . S
C769 C768 1.523 . S
C770 C754 1.429 . S
C770 C766 1.429 . S
C770 C771 1.523 . S
C771 C755 1.368 . S
C771 C767 1.368 . S
C771 C770 1.523 . S
H772 C747 0.950 1_556 S
H773 C749 0.950 . S
H774 C750 0.949 . S
H775 C752 0.950 . S
H776 C754 0.950 . S
C777 C778 1.349 . S
C777 C779 1.327 . S
C777 H802 0.950 . S
C778 C777 1.349 . S
C778 C794 1.349 . S
C779 C777 1.327 . S
C779 C798 1.429 . S
C779 H803 0.950 . S
C780 C797 1.574 . S
C780 C799 1.368 . S
C780 H804 0.949 . S
H781 C785 0.949 . S
C782 C783 1.349 . S
C782 C784 1.327 . S
C782 H805 0.950 . S
C783 C782 1.349 . S
C783 C795 1.349 . S
C784 C782 1.327 . S
C784 C800 1.429 . S
C784 H806 0.950 . S
C785 H781 0.949 . S
C785 C793 1.574 . S
C785 C801 1.368 . S
H786 C794 0.950 . S
H787 C792 0.950 . S
H788 C793 0.949 . S
H789 C795 0.950 . S
H790 C796 0.950 . S
H791 C797 0.949 . S
C792 H787 0.950 . S
C792 C794 1.327 . S
C792 C798 1.429 . S
C793 C785 1.574 . S
C793 H788 0.949 . S
C793 C799 1.368 . S
C794 C778 1.349 . S
C794 H786 0.950 . S
C794 C792 1.327 . S
C795 C783 1.349 . S
C795 H789 0.950 . S
C795 C796 1.327 . S
C796 H790 0.950 . S
C796 C795 1.327 . S
C796 C800 1.429 . S
C797 C780 1.574 . S
C797 H791 0.949 . S
C797 C801 1.368 . S
C798 C779 1.429 . S
C798 C792 1.429 . S
C798 C799 1.523 . S
C799 C780 1.368 . S
C799 C793 1.368 . S
C799 C798 1.523 . S
C800 C784 1.429 . S
C800 C796 1.429 . S
C800 C801 1.523 . S
C801 C785 1.368 . S
C801 C797 1.368 . S
C801 C800 1.523 . S
H802 C777 0.950 . S
H803 C779 0.950 . S
H804 C780 0.949 . S
H805 C782 0.950 . S
H806 C784 0.950 . S
C807 C808 1.349 . S
C807 C809 1.327 . S
C807 H832 0.950 . S
C808 C807 1.349 . S
C808 C824 1.349 . S
C809 C807 1.327 . S
C809 C828 1.429 . S
C809 H833 0.950 . S
C810 C827 1.574 . S
C810 C829 1.368 . S
C810 H834 0.949 . S
H811 C815 0.949 . S
C812 C813 1.349 . S
C812 C814 1.327 . S
C812 H835 0.950 . S
C813 C812 1.349 . S
C813 C825 1.349 . S
C814 C812 1.327 . S
C814 C830 1.429 . S
C814 H836 0.950 . S
C815 H811 0.949 . S
C815 C823 1.574 . S
C815 C831 1.368 . S
H816 C824 0.950 . S
H817 C822 0.950 . S
H818 C823 0.949 . S
H819 C825 0.950 . S
H820 C826 0.950 . S
H821 C827 0.949 . S
C822 H817 0.950 . S
C822 C824 1.327 . S
C822 C828 1.429 . S
C823 C815 1.574 . S
C823 H818 0.949 . S
C823 C829 1.368 . S
C824 C808 1.349 . S
C824 H816 0.950 . S
C824 C822 1.327 . S
C825 C813 1.349 . S
C825 H819 0.950 . S
C825 C826 1.327 . S
C826 H820 0.950 . S
C826 C825 1.327 . S
C826 C830 1.429 . S
C827 C810 1.574 . S
C827 H821 0.949 . S
C827 C831 1.368 . S
C828 C809 1.429 . S
C828 C822 1.429 . S
C828 C829 1.523 . S
C829 C810 1.368 . S
C829 C823 1.368 . S
C829 C828 1.523 . S
C830 C814 1.429 . S
C830 C826 1.429 . S
C830 C831 1.523 . S
C831 C815 1.368 . S
C831 C827 1.368 . S
C831 C830 1.523 . S
H832 C807 0.950 . S
H833 C809 0.950 . S
H834 C810 0.949 . S
H835 C812 0.950 . S
H836 C814 0.950 . S
C837 C838 1.349 . S
C837 C839 1.327 . S
C837 H862 0.950 . S
C838 C837 1.349 . S
C838 C854 1.349 . S
C839 C837 1.327 . S
C839 C858 1.429 . S
C839 H863 0.950 . S
C840 C857 1.574 . S
C840 C859 1.368 . S
C840 H864 0.949 . S
H841 C845 0.949 . S
C842 C843 1.349 . S
C842 C844 1.327 . S
C842 H865 0.950 . S
C843 C842 1.349 . S
C843 C855 1.349 . S
C844 C842 1.327 . S
C844 C860 1.429 . S
C844 H866 0.950 . S
C845 H841 0.949 . S
C845 C853 1.574 . S
C845 C861 1.368 . S
H846 C854 0.950 . S
H847 C852 0.950 . S
H848 C853 0.949 . S
H849 C855 0.950 . S
H850 C856 0.950 . S
H851 C857 0.949 . S
C852 H847 0.950 . S
C852 C854 1.327 . S
C852 C858 1.429 . S
C853 C845 1.574 . S
C853 H848 0.949 . S
C853 C859 1.368 . S
C854 C838 1.349 . S
C854 H846 0.950 . S
C854 C852 1.327 . S
C855 C843 1.349 . S
C855 H849 0.950 . S
C855 C856 1.327 . S
C856 H850 0.950 . S
C856 C855 1.327 . S
C856 C860 1.429 . S
C857 C840 1.574 . S
C857 H851 0.949 . S
C857 C861 1.368 . S
C858 C839 1.429 . S
C858 C852 1.429 . S
C858 C859 1.523 . S
C859 C840 1.368 . S
C859 C853 1.368 . S
C859 C858 1.523 . S
C860 C844 1.429 . S
C860 C856 1.429 . S
C860 C861 1.523 . S
C861 C845 1.368 . S
C861 C857 1.368 . S
C861 C860 1.523 . S
H862 C837 0.950 . S
H863 C839 0.950 . S
H864 C840 0.949 . S
H865 C842 0.950 . S
H866 C844 0.950 . S
C867 C868 1.349 . S
C867 C869 1.327 . S
C867 H892 0.950 . S
C868 C867 1.349 . S
C868 C884 1.349 . S
C869 C867 1.327 . S
C869 C888 1.429 . S
C869 H893 0.950 . S
C870 C887 1.574 . S
C870 C889 1.368 . S
C870 H894 0.949 . S
H871 C875 0.949 . S
C872 C873 1.349 . S
C872 C874 1.327 . S
C872 H895 0.950 . S
C873 C872 1.349 . S
C873 C885 1.349 . S
C874 C872 1.327 . S
C874 C890 1.429 . S
C874 H896 0.950 . S
C875 H871 0.949 . S
C875 C883 1.574 . S
C875 C891 1.368 . S
H876 C884 0.950 . S
H877 C882 0.950 . S
H878 C883 0.949 . S
H879 C885 0.950 . S
H880 C886 0.950 . S
H881 C887 0.949 . S
C882 H877 0.950 . S
C882 C884 1.327 . S
C882 C888 1.429 . S
C883 C875 1.574 . S
C883 H878 0.949 . S
C883 C889 1.368 . S
C884 C868 1.349 . S
C884 H876 0.950 . S
C884 C882 1.327 . S
C885 C873 1.349 . S
C885 H879 0.950 . S
C885 C886 1.327 . S
C886 H880 0.950 . S
C886 C885 1.327 . S
C886 C890 1.429 . S
C887 C870 1.574 . S
C887 H881 0.949 . S
C887 C891 1.368 . S
C888 C869 1.429 . S
C888 C882 1.429 . S
C888 C889 1.523 . S
C889 C870 1.368 . S
C889 C883 1.368 . S
C889 C888 1.523 . S
C890 C874 1.429 . S
C890 C886 1.429 . S
C890 C891 1.523 1_565 S
C891 C875 1.368 . S
C891 C887 1.368 . S
C891 C890 1.523 1_545 S
H892 C867 0.950 . S
H893 C869 0.950 . S
H894 C870 0.949 . S
H895 C872 0.950 . S
H896 C874 0.950 . S
C897 C898 1.349 . S
C897 C899 1.327 . S
C897 H922 0.950 . S
C898 C897 1.349 . S
C898 C914 1.349 . S
C899 C897 1.327 . S
C899 C918 1.429 . S
C899 H923 0.950 . S
C900 C917 1.574 1_655 S
C900 C919 1.368 . S
C900 H924 0.949 . S
H901 C905 0.949 . S
C902 C903 1.349 . S
C902 C904 1.327 . S
C902 H925 0.950 . S
C903 C902 1.349 . S
C903 C915 1.349 . S
C904 C902 1.327 . S
C904 C920 1.429 . S
C904 H926 0.950 . S
C905 H901 0.949 . S
C905 C913 1.602 . S
C905 C921 1.368 . S
H906 C914 0.950 . S
H907 C912 0.950 . S
H908 C913 0.948 1_655 S
H909 C915 0.950 . S
H910 C916 0.950 . S
H911 C917 0.949 . S
C912 H907 0.950 . S
C912 C914 1.327 . S
C912 C918 1.429 . S
C913 C905 1.602 . S
C913 H908 0.948 1_455 S
C913 C919 1.343 1_455 S
C914 C898 1.349 . S
C914 H906 0.950 . S
C914 C912 1.327 . S
C915 C903 1.349 . S
C915 H909 0.950 . S
C915 C916 1.327 . S
C916 H910 0.950 . S
C916 C915 1.327 . S
C916 C920 1.429 . S
C917 C900 1.574 1_455 S
C917 H911 0.949 . S
C917 C921 1.368 . S
C918 C899 1.429 . S
C918 C912 1.429 . S
C918 C919 1.523 . S
C919 C900 1.368 . S
C919 C913 1.343 1_655 S
C919 C918 1.523 . S
C920 C904 1.429 . S
C920 C916 1.429 . S
C920 C921 1.523 . S
C921 C905 1.368 . S
C921 C917 1.368 . S
C921 C920 1.523 . S
H922 C897 0.950 . S
H923 C899 0.950 . S
H924 C900 0.949 . S
H925 C902 0.950 . S
H926 C904 0.950 . S
C927 C928 1.349 . S
C927 C929 1.327 . S
C927 H952 0.950 . S
C928 C927 1.349 . S
C928 C944 1.349 . S
C929 C927 1.327 . S
C929 C948 1.429 . S
C929 H953 0.950 . S
C930 C947 1.574 . S
C930 C949 1.368 . S
C930 H954 0.949 . S
H931 C935 0.949 . S
C932 C933 1.349 . S
C932 C934 1.327 . S
C932 H955 0.950 . S
C933 C932 1.349 . S
C933 C945 1.349 . S
C934 C932 1.327 . S
C934 C950 1.429 . S
C934 H956 0.950 . S
C935 H931 0.949 . S
C935 C943 1.574 . S
C935 C951 1.368 . S
H936 C944 0.950 . S
H937 C942 0.950 . S
H938 C943 0.949 . S
H939 C945 0.950 . S
H940 C946 0.950 . S
H941 C947 0.949 . S
C942 H937 0.950 . S
C942 C944 1.327 . S
C942 C948 1.429 . S
C943 C935 1.574 . S
C943 H938 0.949 . S
C943 C949 1.368 . S
C944 C928 1.349 . S
C944 H936 0.950 . S
C944 C942 1.327 . S
C945 C933 1.349 . S
C945 H939 0.950 . S
C945 C946 1.327 . S
C946 H940 0.950 . S
C946 C945 1.327 . S
C946 C950 1.429 . S
C947 C930 1.574 . S
C947 H941 0.949 . S
C947 C951 1.368 . S
C948 C929 1.429 . S
C948 C942 1.429 . S
C948 C949 1.523 . S
C949 C930 1.368 . S
C949 C943 1.368 . S
C949 C948 1.523 . S
C950 C934 1.429 . S
C950 C946 1.429 . S
C950 C951 1.523 . S
C951 C935 1.368 . S
C951 C947 1.368 . S
C951 C950 1.523 . S
H952 C927 0.950 . S
H953 C929 0.950 . S
H954 C930 0.949 . S
H955 C932 0.950 . S
H956 C934 0.950 . S
C957 C958 1.349 . S
C957 C959 1.327 . S
C957 H982 0.950 . S
C958 C957 1.349 . S
C958 C974 1.349 . S
C959 C957 1.327 . S
C959 C978 1.429 . S
C959 H983 0.950 . S
C960 C977 1.574 . S
C960 C979 1.368 . S
C960 H984 0.949 . S
H961 C965 0.949 . S
C962 C963 1.349 . S
C962 C964 1.327 . S
C962 H985 0.950 . S
C963 C962 1.349 . S
C963 C975 1.349 . S
C964 C962 1.327 . S
C964 C980 1.429 . S
C964 H986 0.950 . S
C965 H961 0.949 . S
C965 C973 1.574 . S
C965 C981 1.368 . S
H966 C974 0.950 . S
H967 C972 0.950 . S
H968 C973 0.949 . S
H969 C975 0.950 . S
H970 C976 0.950 . S
H971 C977 0.949 . S
C972 H967 0.950 . S
C972 C974 1.327 . S
C972 C978 1.429 . S
C973 C965 1.574 . S
C973 H968 0.949 . S
C973 C979 1.368 . S
C974 C958 1.349 . S
C974 H966 0.950 . S
C974 C972 1.327 . S
C975 C963 1.349 . S
C975 H969 0.950 . S
C975 C976 1.327 . S
C976 H970 0.950 . S
C976 C975 1.327 . S
C976 C980 1.429 . S
C977 C960 1.574 . S
C977 H971 0.949 . S
C977 C981 1.368 . S
C978 C959 1.429 . S
C978 C972 1.429 . S
C978 C979 1.523 1_565 S
C979 C960 1.368 . S
C979 C973 1.368 . S
C979 C978 1.523 1_545 S
C980 C964 1.429 . S
C980 C976 1.429 . S
C980 C981 1.523 . S
C981 C965 1.368 . S
C981 C977 1.368 . S
C981 C980 1.523 . S
H982 C957 0.950 . S
H983 C959 0.950 . S
H984 C960 0.949 . S
H985 C962 0.950 . S
H986 C964 0.950 . S
C987 C988 1.349 . S
C987 C989 1.327 . S
C987 H1012 0.950 . S
C988 C987 1.349 . S
C988 C1004 1.349 . S
C989 C987 1.327 . S
C989 C1008 1.429 . S
C989 H1013 0.950 . S
C990 C1007 1.605 . S
C990 C1009 1.368 . S
C990 H1014 0.949 . S
H991 C995 0.949 . S
C992 C993 1.349 . S
C992 C994 1.327 . S
C992 H1015 0.950 . S
C993 C992 1.349 . S
C993 C1005 1.349 . S
C994 C992 1.327 . S
C994 C1010 1.429 . S
C994 H1016 0.950 . S
C995 H991 0.949 . S
C995 C1003 1.574 1_455 S
C995 C1011 1.368 . S
H996 C1004 0.950 . S
H997 C1002 0.950 . S
H998 C1003 0.949 . S
H999 C1005 0.950 . S
H1000 C1006 0.950 . S
H1001 C1007 0.941 1_455 S
C1002 H997 0.950 . S
C1002 C1004 1.327 . S
C1002 C1008 1.429 . S
C1003 C995 1.574 1_655 S
C1003 H998 0.949 . S
C1003 C1009 1.368 . S
C1004 C988 1.349 . S
C1004 H996 0.950 . S
C1004 C1002 1.327 . S
C1005 C993 1.349 . S
C1005 H999 0.950 . S
C1005 C1006 1.327 . S
C1006 H1000 0.950 . S
C1006 C1005 1.327 . S
C1006 C1010 1.429 . S
C1007 C990 1.605 . S
C1007 H1001 0.941 1_655 S
C1007 C1011 1.347 1_655 S
C1008 C989 1.429 . S
C1008 C1002 1.429 . S
C1008 C1009 1.523 . S
C1009 C990 1.368 . S
C1009 C1003 1.368 . S
C1009 C1008 1.523 . S
C1010 C994 1.429 . S
C1010 C1006 1.429 . S
C1010 C1011 1.523 . S
C1011 C995 1.368 . S
C1011 C1007 1.347 1_455 S
C1011 C1010 1.523 . S
H1012 C987 0.950 . S
H1013 C989 0.950 . S
H1014 C990 0.949 . S
H1015 C992 0.950 . S
H1016 C994 0.950 . S
C208 C19 0.790 . S
C213 C20 0.780 . S
C238 C42 0.790 . S
C243 C43 0.780 . S
C268 C65 0.790 . S
C273 C66 0.780 . S
C298 C87 0.831 . S
C303 C90 0.810 . S
C328 C110 0.831 . S
C333 C113 0.810 . S
C358 C133 0.831 . S
C363 C136 0.810 . S
C388 C159 0.787 . S
C393 C156 0.799 . S
C418 C182 0.787 . S
C423 C179 0.799 . S
C448 C205 0.787 . S
C453 C202 0.799 . S
C478 C132 1.386 . S
C483 C16 1.375 . S
C508 C39 1.374 . S
C513 C86 1.385 . S
C538 C62 1.374 . S
C543 C109 1.385 . S
C568 C64 1.102 . S
C573 C157 1.087 . S
C598 C180 1.086 . S
C603 C18 1.101 . S
C628 C203 1.087 . S
C633 C41 1.102 . S
C658 C200 0.837 . S
C663 C17 0.840 . S
C688 C40 0.840 . S
C693 C154 0.837 . S
C718 C177 0.837 . S
C723 C63 0.840 . S
C748 C67 1.030 . S
C753 C89 1.036 . S
C778 C112 1.035 . S
C783 C21 1.030 . S
C808 C44 1.030 . S
C813 C135 1.035 . S
C838 C201 1.218 . S
C843 C88 1.193 . S
C868 C155 1.218 . S
C873 C111 1.193 . S
C898 C178 1.218 . S
C903 C134 1.193 . S
C928 C158 0.891 . S
C933 C131 0.923 . S
C958 C85 0.923 . S
C963 C181 0.891 . S
C988 C204 0.891 . S
C993 C108 0.923 . S
