# Generated by pormake.
# Topology fcp, (5)-cn, num edge types: 1
# Building blocks:
#     Node 0, Type 0, BuildingBlock: XOMCOT_clean_sbu_0, # of connection points: 5
#     Node 1, Type 0, BuildingBlock: XOMCOT_clean_sbu_0, # of connection points: 5
#     Node 2, Type 0, BuildingBlock: XOMCOT_clean_sbu_0, # of connection points: 5
#     Node 3, Type 0, BuildingBlock: XOMCOT_clean_sbu_0, # of connection points: 5
#     Node 4, Type 0, BuildingBlock: XOMCOT_clean_sbu_0, # of connection points: 5
#     Node 5, Type 0, BuildingBlock: XOMCOT_clean_sbu_0, # of connection points: 5
#     Node 6, Type 0, BuildingBlock: XOMCOT_clean_sbu_0, # of connection points: 5
#     Node 7, Type 0, BuildingBlock: XOMCOT_clean_sbu_0, # of connection points: 5
#     Node 8, Type 0, BuildingBlock: XOMCOT_clean_sbu_0, # of connection points: 5
#     Node 9, Type 0, BuildingBlock: XOMCOT_clean_sbu_0, # of connection points: 5
#     Node 10, Type 0, BuildingBlock: XOMCOT_clean_sbu_0, # of connection points: 5
#     Node 11, Type 0, BuildingBlock: XOMCOT_clean_sbu_0, # of connection points: 5
#     Node 12, Type 0, BuildingBlock: XOMCOT_clean_sbu_0, # of connection points: 5
#     Node 13, Type 0, BuildingBlock: XOMCOT_clean_sbu_0, # of connection points: 5
#     Node 14, Type 0, BuildingBlock: XOMCOT_clean_sbu_0, # of connection points: 5
#     Node 15, Type 0, BuildingBlock: XOMCOT_clean_sbu_0, # of connection points: 5
#     Node 16, Type 0, BuildingBlock: XOMCOT_clean_sbu_0, # of connection points: 5
#     Node 17, Type 0, BuildingBlock: XOMCOT_clean_sbu_0, # of connection points: 5
#     Node 18, Type 0, BuildingBlock: XOMCOT_clean_sbu_0, # of connection points: 5
#     Node 19, Type 0, BuildingBlock: XOMCOT_clean_sbu_0, # of connection points: 5
#     Node 20, Type 0, BuildingBlock: XOMCOT_clean_sbu_0, # of connection points: 5
#     Node 21, Type 0, BuildingBlock: XOMCOT_clean_sbu_0, # of connection points: 5
#     Node 22, Type 0, BuildingBlock: XOMCOT_clean_sbu_0, # of connection points: 5
#     Node 23, Type 0, BuildingBlock: XOMCOT_clean_sbu_0, # of connection points: 5
#     Edge 24, Type (0, 0), BuildingBlock: ZUJKAS_clean_linker_0, # of connection points: 2
#     Edge 25, Type (0, 0), BuildingBlock: ZUJKAS_clean_linker_0, # of connection points: 2
#     Edge 26, Type (0, 0), BuildingBlock: ZUJKAS_clean_linker_0, # of connection points: 2
#     Edge 27, Type (0, 0), BuildingBlock: ZUJKAS_clean_linker_0, # of connection points: 2
#     Edge 28, Type (0, 0), BuildingBlock: ZUJKAS_clean_linker_0, # of connection points: 2
#     Edge 29, Type (0, 0), BuildingBlock: ZUJKAS_clean_linker_0, # of connection points: 2
#     Edge 30, Type (0, 0), BuildingBlock: ZUJKAS_clean_linker_0, # of connection points: 2
#     Edge 31, Type (0, 0), BuildingBlock: ZUJKAS_clean_linker_0, # of connection points: 2
#     Edge 32, Type (0, 0), BuildingBlock: ZUJKAS_clean_linker_0, # of connection points: 2
#     Edge 33, Type (0, 0), BuildingBlock: ZUJKAS_clean_linker_0, # of connection points: 2
#     Edge 34, Type (0, 0), BuildingBlock: ZUJKAS_clean_linker_0, # of connection points: 2
#     Edge 35, Type (0, 0), BuildingBlock: ZUJKAS_clean_linker_0, # of connection points: 2
#     Edge 36, Type (0, 0), BuildingBlock: ZUJKAS_clean_linker_0, # of connection points: 2
#     Edge 37, Type (0, 0), BuildingBlock: ZUJKAS_clean_linker_0, # of connection points: 2
#     Edge 38, Type (0, 0), BuildingBlock: ZUJKAS_clean_linker_0, # of connection points: 2
#     Edge 39, Type (0, 0), BuildingBlock: ZUJKAS_clean_linker_0, # of connection points: 2
#     Edge 40, Type (0, 0), BuildingBlock: ZUJKAS_clean_linker_0, # of connection points: 2
#     Edge 41, Type (0, 0), BuildingBlock: ZUJKAS_clean_linker_0, # of connection points: 2
#     Edge 42, Type (0, 0), BuildingBlock: ZUJKAS_clean_linker_0, # of connection points: 2
#     Edge 43, Type (0, 0), BuildingBlock: ZUJKAS_clean_linker_0, # of connection points: 2
#     Edge 44, Type (0, 0), BuildingBlock: ZUJKAS_clean_linker_0, # of connection points: 2
#     Edge 45, Type (0, 0), BuildingBlock: ZUJKAS_clean_linker_0, # of connection points: 2
#     Edge 46, Type (0, 0), BuildingBlock: ZUJKAS_clean_linker_0, # of connection points: 2
#     Edge 47, Type (0, 0), BuildingBlock: ZUJKAS_clean_linker_0, # of connection points: 2
#     Edge 48, Type (0, 0), BuildingBlock: ZUJKAS_clean_linker_0, # of connection points: 2
#     Edge 49, Type (0, 0), BuildingBlock: ZUJKAS_clean_linker_0, # of connection points: 2
#     Edge 50, Type (0, 0), BuildingBlock: ZUJKAS_clean_linker_0, # of connection points: 2
#     Edge 51, Type (0, 0), BuildingBlock: ZUJKAS_clean_linker_0, # of connection points: 2
#     Edge 52, Type (0, 0), BuildingBlock: ZUJKAS_clean_linker_0, # of connection points: 2
#     Edge 53, Type (0, 0), BuildingBlock: ZUJKAS_clean_linker_0, # of connection points: 2
#     Edge 54, Type (0, 0), BuildingBlock: ZUJKAS_clean_linker_0, # of connection points: 2
#     Edge 55, Type (0, 0), BuildingBlock: ZUJKAS_clean_linker_0, # of connection points: 2
#     Edge 56, Type (0, 0), BuildingBlock: ZUJKAS_clean_linker_0, # of connection points: 2
#     Edge 57, Type (0, 0), BuildingBlock: ZUJKAS_clean_linker_0, # of connection points: 2
#     Edge 58, Type (0, 0), BuildingBlock: ZUJKAS_clean_linker_0, # of connection points: 2
#     Edge 59, Type (0, 0), BuildingBlock: ZUJKAS_clean_linker_0, # of connection points: 2
#     Edge 60, Type (0, 0), BuildingBlock: ZUJKAS_clean_linker_0, # of connection points: 2
#     Edge 61, Type (0, 0), BuildingBlock: ZUJKAS_clean_linker_0, # of connection points: 2
#     Edge 62, Type (0, 0), BuildingBlock: ZUJKAS_clean_linker_0, # of connection points: 2
#     Edge 63, Type (0, 0), BuildingBlock: ZUJKAS_clean_linker_0, # of connection points: 2
#     Edge 64, Type (0, 0), BuildingBlock: ZUJKAS_clean_linker_0, # of connection points: 2
#     Edge 65, Type (0, 0), BuildingBlock: ZUJKAS_clean_linker_0, # of connection points: 2
#     Edge 66, Type (0, 0), BuildingBlock: ZUJKAS_clean_linker_0, # of connection points: 2
#     Edge 67, Type (0, 0), BuildingBlock: ZUJKAS_clean_linker_0, # of connection points: 2
#     Edge 68, Type (0, 0), BuildingBlock: ZUJKAS_clean_linker_0, # of connection points: 2
#     Edge 69, Type (0, 0), BuildingBlock: ZUJKAS_clean_linker_0, # of connection points: 2
#     Edge 70, Type (0, 0), BuildingBlock: ZUJKAS_clean_linker_0, # of connection points: 2
#     Edge 71, Type (0, 0), BuildingBlock: ZUJKAS_clean_linker_0, # of connection points: 2
#     Edge 72, Type (0, 0), BuildingBlock: ZUJKAS_clean_linker_0, # of connection points: 2
#     Edge 73, Type (0, 0), BuildingBlock: ZUJKAS_clean_linker_0, # of connection points: 2
#     Edge 74, Type (0, 0), BuildingBlock: ZUJKAS_clean_linker_0, # of connection points: 2
#     Edge 75, Type (0, 0), BuildingBlock: ZUJKAS_clean_linker_0, # of connection points: 2
#     Edge 76, Type (0, 0), BuildingBlock: ZUJKAS_clean_linker_0, # of connection points: 2
#     Edge 77, Type (0, 0), BuildingBlock: ZUJKAS_clean_linker_0, # of connection points: 2
#     Edge 78, Type (0, 0), BuildingBlock: ZUJKAS_clean_linker_0, # of connection points: 2
#     Edge 79, Type (0, 0), BuildingBlock: ZUJKAS_clean_linker_0, # of connection points: 2
#     Edge 80, Type (0, 0), BuildingBlock: ZUJKAS_clean_linker_0, # of connection points: 2
#     Edge 81, Type (0, 0), BuildingBlock: ZUJKAS_clean_linker_0, # of connection points: 2
#     Edge 82, Type (0, 0), BuildingBlock: ZUJKAS_clean_linker_0, # of connection points: 2
#     Edge 83, Type (0, 0), BuildingBlock: ZUJKAS_clean_linker_0, # of connection points: 2
# Relax obj value: 0.057
# Max RMSD: 0.111
# Mean RMSD: 0.111
data_MOF--net-fcp--node1-XOMCOT_clean_sbu_0--edge1-ZUJKAS_clean_linker_0
_symmetry_space_group_name_H-M    P1
_symmetry_Int_Tables_number       1
_symmetry_cell_setting            triclinic
loop_
_symmetry_equiv_pos_as_xyz
'x, y, z'
_cell_length_a     65.180412
_cell_length_b     65.218702
_cell_length_c     65.229253
_cell_angle_alpha  89.983104
_cell_angle_beta   90.036284
_cell_angle_gamma 89.978053
loop_
_atom_site_label
_atom_site_type_symbol
_atom_site_fract_x
_atom_site_fract_y
_atom_site_fract_z
_atom_type_partial_charge
Co0 Co 0.07589 0.32943 0.17539 0.0
C1 C 0.1139 0.31368 0.15519 0.0
C2 C 0.12018 0.33701 0.17736 0.0
C3 C 0.13853 0.32923 0.17055 0.0
N4 N 0.10462 0.32767 0.16739 0.0
N5 N 0.13456 0.31449 0.15665 0.0
H6 H 0.10594 0.30182 0.14688 0.0
H7 H 0.11838 0.34784 0.18978 0.0
C8 C 0.08931 0.37352 0.17397 0.0
O9 O 0.09703 0.37049 0.15561 0.0
N10 N 0.04773 0.33104 0.18416 0.0
C11 C 0.03148 0.32128 0.17603 0.0
C12 C 0.0143 0.32641 0.18722 0.0
C13 C 0.04039 0.3418 0.20019 0.0
N14 N 0.01992 0.33932 0.20243 0.0
C15 C 0.06886 0.32142 0.13264 0.0
C16 C 0.04847 0.35752 0.1239 0.0
C17 C 0.05108 0.34305 0.1082 0.0
C18 C 0.06138 0.32477 0.11286 0.0
C19 C 0.05633 0.35358 0.1435 0.0
N20 N 0.06706 0.336 0.14753 0.0
H21 H 0.07515 0.30659 0.13615 0.0
H22 H 0.05316 0.36444 0.15557 0.0
H23 H 0.03212 0.31108 0.16297 0.0
H24 H 0.04988 0.35131 0.20991 0.0
O25 O 0.07389 0.29979 0.17443 0.0
O26 O 0.0833 0.31796 0.20157 0.0
O27 O 0.07966 0.35912 0.18308 0.0
C28 C 0.08 0.30006 0.19344 0.0
H29 H 0.15359 0.33353 0.17605 0.0
H30 H 0.99894 0.32071 0.18455 0.0
H31 H 0.04024 0.37169 0.12115 0.0
H32 H 0.06291 0.31272 0.10154 0.0
Co33 Co 0.8289 0.43659 0.33784 0.0
C34 C 0.81269 0.39892 0.35846 0.0
C35 C 0.83554 0.39226 0.33588 0.0
C36 C 0.82775 0.37405 0.34301 0.0
N37 N 0.82652 0.40795 0.34591 0.0
N38 N 0.8133 0.37825 0.35716 0.0
H39 H 0.80118 0.40707 0.36706 0.0
H40 H 0.84629 0.3939 0.32338 0.0
C41 C 0.87253 0.42218 0.34069 0.0
O42 O 0.86843 0.4141 0.35869 0.0
N43 N 0.83121 0.46465 0.32895 0.0
C44 C 0.823 0.48143 0.33767 0.0
C45 C 0.82869 0.49831 0.32631 0.0
C46 C 0.84152 0.47139 0.31239 0.0
N47 N 0.84035 0.492 0.31035 0.0
C48 C 0.81957 0.44429 0.38024 0.0
C49 C 0.85615 0.46319 0.39023 0.0
C50 C 0.84106 0.46118 0.40542 0.0
C51 C 0.82253 0.45165 0.40013 0.0
C52 C 0.85258 0.45548 0.37052 0.0
N53 N 0.83475 0.44543 0.36589 0.0
H54 H 0.80462 0.43859 0.3762 0.0
H55 H 0.86397 0.45826 0.35884 0.0
H56 H 0.81369 0.4814 0.35139 0.0
H57 H 0.84948 0.46123 0.30198 0.0
O58 O 0.79923 0.43896 0.33785 0.0
O59 O 0.81816 0.42921 0.31137 0.0
O60 O 0.85881 0.43241 0.33115 0.0
C61 C 0.80003 0.4327 0.3189 0.0
H62 H 0.83194 0.35892 0.33764 0.0
H63 H 0.82467 0.51401 0.32981 0.0
H64 H 0.87054 0.47083 0.39346 0.0
H65 H 0.81004 0.45062 0.41103 0.0
Co66 Co 0.93677 0.68394 0.1758 0.0
C67 C 0.89874 0.69872 0.15466 0.0
C68 C 0.89272 0.67519 0.17672 0.0
C69 C 0.8743 0.68221 0.1693 0.0
N70 N 0.90818 0.68508 0.16717 0.0
N71 N 0.87807 0.69707 0.15546 0.0
H72 H 0.90657 0.71044 0.14609 0.0
H73 H 0.8946 0.66451 0.18926 0.0
C74 C 0.92447 0.63957 0.17335 0.0
O75 O 0.91694 0.64275 0.15493 0.0
N76 N 0.96477 0.68288 0.18518 0.0
C77 C 0.98087 0.69348 0.17781 0.0
C78 C 0.99799 0.68841 0.18916 0.0
C79 C 0.97216 0.67163 0.20086 0.0
N80 N 0.99247 0.67465 0.20362 0.0
C81 C 0.94504 0.69336 0.13367 0.0
C82 C 0.96594 0.65772 0.12427 0.0
C83 C 0.96407 0.67294 0.10919 0.0
C84 C 0.95342 0.69093 0.11415 0.0
C85 C 0.95735 0.66083 0.14371 0.0
N86 N 0.9464 0.6782 0.14803 0.0
H87 H 0.93836 0.70795 0.13745 0.0
H88 H 0.96027 0.64957 0.15548 0.0
H89 H 0.9802 0.70408 0.16507 0.0
H90 H 0.96275 0.6617 0.21025 0.0
O91 O 0.93801 0.7136 0.17535 0.0
O92 O 0.92852 0.69477 0.202 0.0
O93 O 0.93363 0.65402 0.18287 0.0
C94 C 0.93154 0.71288 0.19421 0.0
H95 H 0.85929 0.67769 0.17474 0.0
H96 H 0.01336 0.6942 0.18673 0.0
H97 H 0.97466 0.64388 0.12136 0.0
H98 H 0.95184 0.70326 0.10314 0.0
Co99 Co 0.18359 0.57685 0.33981 0.0
C100 C 0.19904 0.61517 0.35977 0.0
C101 C 0.17574 0.62097 0.33739 0.0
C102 C 0.18327 0.63946 0.34406 0.0
N103 N 0.18519 0.60563 0.34759 0.0
N104 N 0.198 0.6358 0.35808 0.0
H105 H 0.21091 0.60743 0.36827 0.0
H106 H 0.16495 0.61891 0.32497 0.0
C107 C 0.13952 0.59011 0.34192 0.0
O108 O 0.14313 0.59856 0.35985 0.0
N109 N 0.18204 0.54866 0.33116 0.0
C110 C 0.19099 0.53225 0.33984 0.0
C111 C 0.18567 0.51511 0.3287 0.0
C112 C 0.17164 0.54145 0.31485 0.0
N113 N 0.17345 0.52086 0.31291 0.0
C114 C 0.1927 0.56985 0.38228 0.0
C115 C 0.15701 0.54919 0.39199 0.0
C116 C 0.17216 0.55139 0.40714 0.0
C117 C 0.19012 0.56203 0.40202 0.0
C118 C 0.16018 0.5574 0.37239 0.0
N119 N 0.17764 0.56812 0.36785 0.0
H120 H 0.20734 0.57635 0.37841 0.0
H121 H 0.14893 0.55428 0.36064 0.0
H122 H 0.20059 0.5327 0.35337 0.0
H123 H 0.16303 0.55129 0.30466 0.0
O124 O 0.21324 0.57511 0.34036 0.0
O125 O 0.19462 0.58423 0.31341 0.0
O126 O 0.15367 0.58021 0.33268 0.0
C127 C 0.21267 0.58117 0.32135 0.0
H128 H 0.17877 0.6544 0.33841 0.0
H129 H 0.19044 0.49964 0.33225 0.0
H130 H 0.14319 0.54048 0.39494 0.0
H131 H 0.20238 0.56402 0.41305 0.0
Co132 Co 0.07802 0.68238 0.83962 0.0
C133 C 0.11601 0.70058 0.85745 0.0
C134 C 0.11786 0.66782 0.8556 0.0
C135 C 0.13577 0.67505 0.86402 0.0
N136 N 0.10545 0.68381 0.85131 0.0
N137 N 0.13466 0.69566 0.86513 0.0
H138 H 0.11032 0.7161 0.85621 0.0
H139 H 0.11423 0.65186 0.8532 0.0
C140 C 0.07133 0.63672 0.83238 0.0
O141 O 0.05219 0.63756 0.83864 0.0
N142 N 0.05066 0.681 0.82777 0.0
C143 C 0.03361 0.69069 0.83434 0.0
C144 C 0.01758 0.68583 0.82157 0.0
C145 C 0.04484 0.67103 0.81053 0.0
N146 N 0.02455 0.67327 0.8067 0.0
C147 C 0.05866 0.6931 0.87749 0.0
C148 C 0.06335 0.65597 0.89726 0.0
C149 C 0.05345 0.67202 0.9076 0.0
C150 C 0.05129 0.69081 0.89742 0.0
C151 C 0.07053 0.65894 0.87722 0.0
N152 N 0.06739 0.6771 0.86719 0.0
H153 H 0.05735 0.70798 0.87042 0.0
H154 H 0.07915 0.64672 0.87025 0.0
H155 H 0.03267 0.70094 0.84723 0.0
H156 H 0.05516 0.66191 0.8013 0.0
O157 O 0.07628 0.71209 0.83908 0.0
O158 O 0.08832 0.69279 0.81393 0.0
O159 O 0.08278 0.65257 0.8331 0.0
C160 C 0.08426 0.71102 0.82083 0.0
H161 H 0.14846 0.66573 0.86929 0.0
H162 H 1.00201 0.6914 0.82304 0.0
H163 H 0.06606 0.64141 0.90477 0.0
H164 H 0.04387 0.70374 0.90473 0.0
Co165 Co 0.18221 0.43603 0.67564 0.0
C166 C 0.19824 0.39831 0.65464 0.0
C167 C 0.17659 0.39176 0.67843 0.0
C168 C 0.184 0.37352 0.67103 0.0
N169 N 0.18504 0.40738 0.66783 0.0
N170 N 0.19766 0.37763 0.65609 0.0
H171 H 0.20879 0.40643 0.6449 0.0
H172 H 0.16647 0.39351 0.69144 0.0
C173 C 0.13892 0.42061 0.67287 0.0
O174 O 0.14324 0.41218 0.65508 0.0
N175 N 0.1793 0.46408 0.68438 0.0
C176 C 0.18853 0.48085 0.67671 0.0
C177 C 0.18165 0.49774 0.68743 0.0
C178 C 0.16716 0.47082 0.69965 0.0
N179 N 0.16819 0.49138 0.70186 0.0
C180 C 0.1916 0.44402 0.63334 0.0
C181 C 0.15461 0.46206 0.62318 0.0
C182 C 0.16989 0.46057 0.60811 0.0
C183 C 0.18861 0.45145 0.61348 0.0
C184 C 0.15821 0.45429 0.64286 0.0
N185 N 0.17627 0.44467 0.64757 0.0
H186 H 0.20666 0.43865 0.63748 0.0
H187 H 0.14668 0.45672 0.65446 0.0
H188 H 0.19938 0.4808 0.66417 0.0
H189 H 0.15753 0.46083 0.70872 0.0
O190 O 0.2118 0.4389 0.67562 0.0
O191 O 0.1931 0.42903 0.70221 0.0
O192 O 0.15237 0.43132 0.68223 0.0
C193 C 0.21115 0.4328 0.69462 0.0
H194 H 0.18052 0.35846 0.67706 0.0
H195 H 0.18637 0.51344 0.68488 0.0
H196 H 0.14006 0.46938 0.61988 0.0
H197 H 0.2012 0.45083 0.60267 0.0
Co198 Co 0.93604 0.32878 0.8392 0.0
C199 C 0.89763 0.3146 0.85996 0.0
C200 C 0.89204 0.33742 0.83704 0.0
C201 C 0.87348 0.33069 0.84434 0.0
N202 N 0.9073 0.32779 0.8472 0.0
N203 N 0.87699 0.31628 0.85871 0.0
H204 H 0.90527 0.30319 0.8691 0.0
H205 H 0.8942 0.34778 0.82428 0.0
C206 C 0.92354 0.37299 0.84171 0.0
O207 O 0.91542 0.36935 0.85978 0.0
N208 N 0.96419 0.32969 0.8304 0.0
C209 C 0.98014 0.3191 0.83812 0.0
C210 C 0.99735 0.32366 0.82671 0.0
C211 C 0.97172 0.34043 0.81446 0.0
N212 N 0.992 0.33708 0.81186 0.0
C213 C 0.94358 0.31919 0.8815 0.0
C214 C 0.96419 0.35483 0.8914 0.0
C215 C 0.96189 0.33969 0.90652 0.0
C216 C 0.95138 0.32169 0.90127 0.0
C217 C 0.95605 0.35172 0.87177 0.0
N218 N 0.94519 0.33436 0.86719 0.0
H219 H 0.9371 0.30456 0.87753 0.0
H220 H 0.95923 0.36298 0.86007 0.0
H221 H 0.97929 0.30873 0.85104 0.0
H222 H 0.96242 0.3501 0.80468 0.0
O223 O 0.9371 0.29909 0.83952 0.0
O224 O 0.92824 0.3181 0.81277 0.0
O225 O 0.93318 0.35879 0.83225 0.0
C226 C 0.93104 0.29993 0.82052 0.0
H227 H 0.85856 0.3351 0.83851 0.0
H228 H 0.01262 0.31766 0.82926 0.0
H229 H 0.97288 0.36865 0.89444 0.0
H230 H 0.94942 0.30939 0.91225 0.0
Co231 Co 0.83221 0.57615 0.67496 0.0
C232 C 0.81708 0.61417 0.654 0.0
C233 C 0.84045 0.62024 0.67624 0.0
C234 C 0.83339 0.63864 0.66882 0.0
N235 N 0.83068 0.60477 0.66658 0.0
N236 N 0.81864 0.63483 0.65486 0.0
H237 H 0.80549 0.60633 0.64526 0.0
H238 H 0.85117 0.61835 0.68875 0.0
C239 C 0.87623 0.58899 0.67114 0.0
O240 O 0.87199 0.59662 0.65297 0.0
N241 N 0.83367 0.54812 0.68414 0.0
C242 C 0.82328 0.53195 0.67665 0.0
C243 C 0.82847 0.51486 0.68796 0.0
C244 C 0.84487 0.54081 0.6999 0.0
N245 N 0.84205 0.52045 0.70259 0.0
C246 C 0.82186 0.56807 0.63297 0.0
C247 C 0.85734 0.54736 0.62263 0.0
C248 C 0.84182 0.54937 0.60783 0.0
C249 C 0.82393 0.55997 0.61329 0.0
C250 C 0.85465 0.55582 0.6422 0.0
N251 N 0.83735 0.5667 0.64699 0.0
H252 H 0.80728 0.57455 0.63714 0.0
H253 H 0.86618 0.55286 0.6537 0.0
H254 H 0.81258 0.53259 0.66399 0.0
H255 H 0.85492 0.55026 0.70912 0.0
O256 O 0.80255 0.5747 0.67513 0.0
O257 O 0.82179 0.58419 0.70148 0.0
O258 O 0.86237 0.5795 0.68125 0.0
C259 C 0.80353 0.58109 0.694 0.0
H260 H 0.83787 0.65366 0.67426 0.0
H261 H 0.82234 0.4996 0.68579 0.0
H262 H 0.87111 0.53864 0.61942 0.0
H263 H 0.81137 0.56174 0.60256 0.0
Co264 Co 0.17498 0.07545 0.32816 0.0
C265 C 0.15346 0.11313 0.31311 0.0
C266 C 0.17746 0.1198 0.3345 0.0
C267 C 0.1697 0.13802 0.32731 0.0
N268 N 0.16695 0.10411 0.32605 0.0
N269 N 0.15465 0.13382 0.3138 0.0
H270 H 0.14366 0.10497 0.30265 0.0
H271 H 0.19062 0.11811 0.34447 0.0
C272 C 0.17291 0.08998 0.37176 0.0
O273 O 0.15511 0.0986 0.36783 0.0
N274 N 0.18377 0.04734 0.33016 0.0
C275 C 0.17576 0.03097 0.3205 0.0
C276 C 0.18704 0.0139 0.32585 0.0
C277 C 0.19979 0.04019 0.34107 0.0
N278 N 0.20216 0.01973 0.33879 0.0
C279 C 0.13268 0.06727 0.31887 0.0
C280 C 0.12262 0.04915 0.3558 0.0
C281 C 0.10748 0.05076 0.34059 0.0
C282 C 0.11282 0.05987 0.32188 0.0
C283 C 0.14232 0.05689 0.35217 0.0
N284 N 0.14697 0.0666 0.33416 0.0
H285 H 0.13676 0.07264 0.30381 0.0
H286 H 0.15397 0.05438 0.36365 0.0
H287 H 0.16278 0.03145 0.31018 0.0
H288 H 0.20943 0.04982 0.35052 0.0
O289 O 0.17463 0.07332 0.29852 0.0
O290 O 0.20142 0.0828 0.31719 0.0
O291 O 0.18201 0.07943 0.358 0.0
C292 C 0.19364 0.07942 0.29914 0.0
H293 H 0.17554 0.15315 0.33085 0.0
H294 H 0.18452 0.99849 0.32026 0.0
H295 H 0.11936 0.0418 0.37032 0.0
H296 H 0.10197 0.06054 0.30931 0.0
Co297 Co 0.57533 0.33766 0.18334 0.0
C298 C 0.61352 0.3584 0.19823 0.0
C299 C 0.61957 0.33481 0.17625 0.0
C300 C 0.63799 0.34212 0.18337 0.0
N301 N 0.60413 0.34536 0.18509 0.0
N302 N 0.63419 0.35693 0.19725 0.0
H303 H 0.60562 0.36796 0.2091 0.0
H304 H 0.6176 0.32181 0.16615 0.0
C305 C 0.58926 0.33918 0.13958 0.0
O306 O 0.5975 0.35722 0.14317 0.0
N307 N 0.54709 0.32917 0.1817 0.0
C308 C 0.53087 0.33745 0.19141 0.0
C309 C 0.51358 0.32652 0.18606 0.0
C310 C 0.53962 0.31332 0.17077 0.0
N311 N 0.51911 0.31135 0.17308 0.0
C312 C 0.56793 0.38029 0.19167 0.0
C313 C 0.5487 0.38942 0.15503 0.0
C314 C 0.55071 0.40493 0.16979 0.0
C315 C 0.5604 0.40006 0.18836 0.0
C316 C 0.55646 0.36981 0.159 0.0
N317 N 0.56671 0.3656 0.17682 0.0
H318 H 0.57377 0.3766 0.20665 0.0
H319 H 0.55355 0.35786 0.14793 0.0
H320 H 0.5316 0.35044 0.20168 0.0
H321 H 0.54903 0.30359 0.1612 0.0
O322 O 0.57349 0.33869 0.21296 0.0
O323 O 0.58239 0.31135 0.19477 0.0
O324 O 0.57906 0.33007 0.1536 0.0
C325 C 0.57931 0.31959 0.21265 0.0
H326 H 0.65298 0.33607 0.17958 0.0
H327 H 0.4982 0.32937 0.19159 0.0
H328 H 0.54098 0.39229 0.14061 0.0
H329 H 0.56142 0.41119 0.20064 0.0
Co330 Co 0.83724 0.9382 0.32805 0.0
C331 C 0.85679 0.89945 0.31313 0.0
C332 C 0.83397 0.89419 0.3361 0.0
C333 C 0.84049 0.87554 0.32885 0.0
N334 N 0.84452 0.90929 0.32667 0.0
N335 N 0.85479 0.87886 0.31433 0.0
H336 H 0.86562 0.90696 0.30138 0.0
H337 H 0.82147 0.89655 0.34673 0.0
C338 C 0.83963 0.92504 0.37202 0.0
O339 O 0.85748 0.91649 0.36817 0.0
N340 N 0.82911 0.96653 0.32935 0.0
C341 C 0.83712 0.98242 0.3189 0.0
C342 C 0.82625 0.99986 0.32389 0.0
C343 C 0.81354 0.97434 0.34043 0.0
N344 N 0.81145 0.99472 0.33744 0.0
C345 C 0.87975 0.94464 0.31855 0.0
C346 C 0.89001 0.96522 0.35411 0.0
C347 C 0.90503 0.96277 0.3389 0.0
C348 C 0.89963 0.9522 0.32098 0.0
C349 C 0.87026 0.9573 0.35108 0.0
N350 N 0.86546 0.94656 0.33371 0.0
H351 H 0.87566 0.93818 0.30395 0.0
H352 H 0.85864 0.96063 0.36237 0.0
H353 H 0.84989 0.98137 0.30837 0.0
H354 H 0.80366 0.96518 0.35011 0.0
O355 O 0.83756 0.93961 0.2984 0.0
O356 O 0.81059 0.9312 0.3173 0.0
O357 O 0.83034 0.93514 0.35803 0.0
C358 C 0.81842 0.93396 0.29916 0.0
H359 H 0.83459 0.86072 0.33342 0.0
H360 H 0.82914 0.01514 0.31811 0.0
H361 H 0.89319 0.97392 0.36788 0.0
H362 H 0.91055 0.95007 0.30866 0.0
Co363 Co 0.43703 0.67395 0.18379 0.0
C364 C 0.39931 0.65614 0.20255 0.0
C365 C 0.3973 0.65745 0.16977 0.0
C366 C 0.37951 0.64898 0.17721 0.0
N367 N 0.40973 0.6621 0.18563 0.0
N368 N 0.38073 0.6482 0.19783 0.0
H369 H 0.40505 0.65768 0.21801 0.0
H370 H 0.40084 0.65966 0.15375 0.0
C371 C 0.44282 0.68301 0.13844 0.0
O372 O 0.4622 0.67747 0.13897 0.0
N373 N 0.46423 0.68596 0.18192 0.0
C374 C 0.48216 0.67826 0.18877 0.0
C375 C 0.49763 0.69175 0.18409 0.0
C376 C 0.46904 0.70439 0.17374 0.0
N377 N 0.48944 0.70818 0.17453 0.0
C378 C 0.45647 0.63578 0.19328 0.0
C379 C 0.45245 0.61746 0.15535 0.0
C380 C 0.46278 0.60684 0.17095 0.0
C381 C 0.46441 0.61617 0.19021 0.0
C382 C 0.44477 0.63719 0.15907 0.0
N383 N 0.44766 0.64656 0.17762 0.0
H384 H 0.45775 0.64237 0.20838 0.0
H385 H 0.4362 0.64453 0.14704 0.0
H386 H 0.4842 0.6639 0.19666 0.0
H387 H 0.45779 0.71464 0.16711 0.0
O388 O 0.43957 0.6738 0.21345 0.0
O389 O 0.42693 0.69937 0.19505 0.0
O390 O 0.43148 0.68117 0.15428 0.0
C391 C 0.43157 0.69208 0.213 0.0
H392 H 0.36684 0.64344 0.16803 0.0
H393 H 0.51377 0.68927 0.18708 0.0
H394 H 0.4504 0.61067 0.14034 0.0
H395 H 0.47155 0.60827 0.20297 0.0
Co396 Co 0.17471 0.93577 0.68311 0.0
C397 C 0.15419 0.89826 0.69937 0.0
C398 C 0.1721 0.89178 0.67269 0.0
C399 C 0.16438 0.87361 0.68008 0.0
N400 N 0.16514 0.90745 0.68431 0.0
N401 N 0.15319 0.87773 0.69691 0.0
H402 H 0.14814 0.90608 0.71261 0.0
H403 H 0.18325 0.8931 0.66052 0.0
C404 C 0.17192 0.92502 0.63811 0.0
O405 O 0.15297 0.91859 0.64051 0.0
N406 N 0.18496 0.96346 0.68203 0.0
C407 C 0.17707 0.98021 0.69108 0.0
C408 C 0.18898 0.99685 0.68583 0.0
C409 C 0.20159 0.96996 0.67167 0.0
N410 N 0.20445 0.99042 0.67358 0.0
C411 C 0.1323 0.94367 0.69182 0.0
C412 C 0.12402 0.96699 0.65742 0.0
C413 C 0.10842 0.96411 0.67197 0.0
C414 C 0.11282 0.95217 0.68929 0.0
C415 C 0.14336 0.95811 0.66054 0.0
N416 N 0.14717 0.9461 0.67732 0.0
H417 H 0.13558 0.93591 0.70596 0.0
H418 H 0.15547 0.96154 0.64979 0.0
H419 H 0.16347 0.98035 0.70057 0.0
H420 H 0.21139 0.95976 0.66303 0.0
O421 O 0.17435 0.93712 0.71279 0.0
O422 O 0.20064 0.92672 0.69389 0.0
O423 O 0.18176 0.93264 0.65322 0.0
C424 C 0.19302 0.93005 0.71202 0.0
H425 H 0.1679 0.85843 0.67437 0.0
H426 H 0.18612 0.01251 0.69047 0.0
H427 H 0.12157 0.97663 0.64413 0.0
H428 H 0.1014 0.9496 0.70106 0.0
Co429 Co 0.43651 0.33815 0.82874 0.0
C430 C 0.39868 0.35989 0.81424 0.0
C431 C 0.39228 0.33618 0.83601 0.0
C432 C 0.37396 0.3439 0.82901 0.0
N433 N 0.40788 0.3465 0.82716 0.0
N434 N 0.37798 0.35878 0.81525 0.0
H435 H 0.40673 0.36952 0.80355 0.0
H436 H 0.39409 0.32312 0.84607 0.0
C437 C 0.42294 0.34118 0.87263 0.0
O438 O 0.41424 0.35891 0.86859 0.0
N439 N 0.46456 0.32901 0.83024 0.0
C440 C 0.48082 0.33658 0.82005 0.0
C441 C 0.49786 0.32515 0.8252 0.0
C442 C 0.47176 0.31309 0.84127 0.0
N443 N 0.49213 0.31037 0.83855 0.0
C444 C 0.44525 0.3799 0.81796 0.0
C445 C 0.46432 0.39087 0.85415 0.0
C446 C 0.46303 0.40542 0.83834 0.0
C447 C 0.45328 0.39963 0.82007 0.0
C448 C 0.45595 0.37127 0.85143 0.0
N449 N 0.44588 0.36617 0.83374 0.0
H450 H 0.43933 0.37548 0.80321 0.0
H451 H 0.45841 0.36 0.86328 0.0
H452 H 0.48028 0.34935 0.80949 0.0
H453 H 0.46221 0.30377 0.85112 0.0
O454 O 0.43782 0.33765 0.79904 0.0
O455 O 0.42852 0.31154 0.8187 0.0
O456 O 0.43326 0.33189 0.85883 0.0
C457 C 0.43149 0.31876 0.80035 0.0
H458 H 0.35889 0.33811 0.83283 0.0
H459 H 0.51318 0.32733 0.8192 0.0
H460 H 0.4724 0.39429 0.86825 0.0
H461 H 0.45206 0.41015 0.80728 0.0
Co462 Co 0.8379 0.07506 0.68437 0.0
C463 C 0.8587 0.11306 0.69971 0.0
C464 C 0.83452 0.11937 0.67839 0.0
C465 C 0.84185 0.13769 0.68571 0.0
N466 N 0.8454 0.10385 0.68671 0.0
N467 N 0.85702 0.13373 0.69918 0.0
H468 H 0.86867 0.10503 0.71011 0.0
H469 H 0.82137 0.11748 0.66845 0.0
C470 C 0.83969 0.09005 0.64097 0.0
O471 O 0.85754 0.09855 0.64494 0.0
N472 N 0.82959 0.04683 0.68213 0.0
C473 C 0.83792 0.03049 0.69159 0.0
C474 C 0.82696 0.01328 0.68606 0.0
C475 C 0.81369 0.0395 0.67115 0.0
N476 N 0.81171 0.01898 0.6732 0.0
C477 C 0.88042 0.06762 0.69333 0.0
C478 C 0.89052 0.04983 0.65626 0.0
C479 C 0.90576 0.05163 0.67136 0.0
C480 C 0.90039 0.06058 0.69014 0.0
C481 C 0.87071 0.05717 0.66009 0.0
N482 N 0.86603 0.06675 0.67815 0.0
H483 H 0.87636 0.07288 0.70843 0.0
H484 H 0.85901 0.0545 0.64869 0.0
H485 H 0.85091 0.03108 0.7019 0.0
H486 H 0.80387 0.04907 0.6618 0.0
O487 O 0.83844 0.07264 0.71399 0.0
O488 O 0.8114 0.08185 0.69553 0.0
O489 O 0.83067 0.07928 0.65462 0.0
C490 C 0.81933 0.07846 0.71351 0.0
H491 H 0.83562 0.1527 0.68232 0.0
H492 H 0.82978 0.99785 0.69147 0.0
H493 H 0.89379 0.04261 0.64168 0.0
H494 H 0.91132 0.06138 0.70263 0.0
Co495 Co 0.57764 0.67446 0.82852 0.0
C496 C 0.61634 0.65519 0.8129 0.0
C497 C 0.62179 0.67786 0.83598 0.0
C498 C 0.64039 0.67153 0.8284 0.0
N499 N 0.60661 0.66729 0.82668 0.0
N500 N 0.63695 0.65732 0.81383 0.0
H501 H 0.60873 0.64639 0.80118 0.0
H502 H 0.61951 0.69028 0.84672 0.0
C503 C 0.5913 0.67216 0.87233 0.0
O504 O 0.59962 0.65422 0.8684 0.0
N505 N 0.54927 0.68254 0.83027 0.0
C506 C 0.53314 0.67433 0.82035 0.0
C507 C 0.51581 0.68532 0.8255 0.0
C508 C 0.54171 0.69835 0.84119 0.0
N509 N 0.52125 0.70041 0.83862 0.0
C510 C 0.57155 0.63164 0.81977 0.0
C511 C 0.55098 0.6221 0.85554 0.0
C512 C 0.55374 0.6067 0.8408 0.0
C513 C 0.56419 0.61173 0.82271 0.0
C514 C 0.55871 0.64181 0.85202 0.0
N515 N 0.56949 0.64627 0.83458 0.0
H516 H 0.57787 0.63547 0.80504 0.0
H517 H 0.55531 0.65366 0.86306 0.0
H518 H 0.53395 0.66135 0.81007 0.0
H519 H 0.55111 0.70842 0.85044 0.0
O520 O 0.57578 0.67389 0.79888 0.0
O521 O 0.58421 0.70108 0.81754 0.0
O522 O 0.58121 0.68157 0.85841 0.0
C523 C 0.58117 0.69311 0.79952 0.0
H524 H 0.65524 0.67752 0.83278 0.0
H525 H 0.50039 0.68229 0.82014 0.0
H526 H 0.54267 0.61906 0.86959 0.0
H527 H 0.56587 0.60064 0.81047 0.0
Co528 Co 0.32818 0.17513 0.07473 0.0
C529 C 0.31328 0.15351 0.1124 0.0
C530 C 0.33531 0.17691 0.119 0.0
C531 C 0.32816 0.1692 0.13724 0.0
N532 N 0.32644 0.16674 0.10333 0.0
N533 N 0.31424 0.15451 0.13309 0.0
H534 H 0.30239 0.14416 0.10428 0.0
H535 H 0.34545 0.18992 0.11734 0.0
C536 C 0.37199 0.17308 0.0886 0.0
O537 O 0.36835 0.15488 0.09645 0.0
N538 N 0.3298 0.18431 0.04672 0.0
C539 C 0.31969 0.17667 0.03043 0.0
C540 C 0.32493 0.18802 0.01339 0.0
C541 C 0.34094 0.20015 0.03952 0.0
N542 N 0.33831 0.20276 0.01914 0.0
C543 C 0.31968 0.13264 0.06655 0.0
C544 C 0.35627 0.12372 0.04714 0.0
C545 C 0.34159 0.10814 0.04923 0.0
C546 C 0.32304 0.11289 0.05899 0.0
C547 C 0.35232 0.14327 0.0551 0.0
N548 N 0.33453 0.14735 0.06545 0.0
H549 H 0.30469 0.13628 0.07239 0.0
H550 H 0.36338 0.15526 0.05231 0.0
H551 H 0.30928 0.16377 0.03093 0.0
H552 H 0.35048 0.20977 0.0491 0.0
O553 O 0.29851 0.17439 0.07282 0.0
O554 O 0.31689 0.2013 0.08251 0.0
O555 O 0.35798 0.18246 0.07861 0.0
C556 C 0.29891 0.19332 0.07918 0.0
H557 H 0.33198 0.17489 0.15235 0.0
H558 H 0.31951 0.18541 0.99792 0.0
H559 H 0.37062 0.12091 0.03928 0.0
H560 H 0.31085 0.10166 0.06006 0.0
Co561 Co 0.33179 0.8383 0.93623 0.0
C562 C 0.31585 0.85908 0.89846 0.0
C563 C 0.33803 0.83576 0.89197 0.0
C564 C 0.33041 0.84296 0.87371 0.0
N565 N 0.32935 0.8462 0.90757 0.0
N566 N 0.31639 0.85758 0.87779 0.0
H567 H 0.30504 0.86854 0.90658 0.0
H568 H 0.34836 0.82291 0.89375 0.0
C569 C 0.37541 0.84105 0.92146 0.0
O570 O 0.37126 0.85872 0.91269 0.0
N571 N 0.33428 0.82954 0.96431 0.0
C572 C 0.32438 0.83692 0.98084 0.0
C573 C 0.33091 0.82618 0.99787 0.0
C574 C 0.34654 0.81448 0.97134 0.0
N575 N 0.3449 0.81213 0.99183 0.0
C576 C 0.3215 0.88023 0.94438 0.0
C577 C 0.35805 0.89132 0.96271 0.0
C578 C 0.34223 0.90588 0.9615 0.0
C579 C 0.3238 0.90005 0.95208 0.0
C580 C 0.35513 0.8716 0.95466 0.0
N581 N 0.33722 0.86642 0.945 0.0
H582 H 0.30663 0.87581 0.93877 0.0
H583 H 0.367 0.86031 0.95704 0.0
H584 H 0.31333 0.84929 0.98053 0.0
H585 H 0.35626 0.80523 0.96158 0.0
O586 O 0.30218 0.83811 0.93857 0.0
O587 O 0.3212 0.81166 0.92894 0.0
O588 O 0.36176 0.83187 0.93208 0.0
C589 C 0.30303 0.81917 0.93236 0.0
H590 H 0.33395 0.83691 0.85867 0.0
H591 H 0.326 0.82876 0.0135 0.0
H592 H 0.3723 0.89482 0.97051 0.0
H593 H 0.31102 0.91059 0.95091 0.0
Co594 Co 0.33761 0.18239 0.57619 0.0
C595 C 0.35848 0.19684 0.61439 0.0
C596 C 0.3371 0.17262 0.62007 0.0
C597 C 0.34445 0.17948 0.63857 0.0
N598 N 0.34631 0.18305 0.60476 0.0
N599 N 0.35786 0.19478 0.63501 0.0
H600 H 0.36661 0.20899 0.60676 0.0
H601 H 0.3248 0.16169 0.61808 0.0
C602 C 0.34036 0.13778 0.58754 0.0
O603 O 0.35891 0.14086 0.59482 0.0
N604 N 0.32817 0.18183 0.54822 0.0
C605 C 0.33551 0.19272 0.53231 0.0
C606 C 0.32418 0.18791 0.51512 0.0
C607 C 0.31253 0.17065 0.54065 0.0
N608 N 0.30976 0.17401 0.5204 0.0
C609 C 0.3799 0.19178 0.5684 0.0
C610 C 0.38906 0.15688 0.54625 0.0
C611 C 0.40437 0.17177 0.54887 0.0
C612 C 0.39951 0.18939 0.56019 0.0
C613 C 0.36959 0.15987 0.55484 0.0
N614 N 0.36539 0.17686 0.56641 0.0
H615 H 0.37621 0.20618 0.57551 0.0
H616 H 0.35771 0.14884 0.5515 0.0
H617 H 0.34823 0.20334 0.53316 0.0
H618 H 0.30318 0.16052 0.54988 0.0
O619 O 0.33797 0.21209 0.57545 0.0
O620 O 0.31139 0.19301 0.58468 0.0
O621 O 0.33064 0.1524 0.57884 0.0
C622 C 0.31911 0.21119 0.58195 0.0
H623 H 0.33921 0.17453 0.65352 0.0
H624 H 0.32662 0.19395 0.49986 0.0
H625 H 0.39181 0.14337 0.53699 0.0
H626 H 0.41067 0.20147 0.56247 0.0
Co627 Co 0.68217 0.1742 0.93567 0.0
C628 C 0.69798 0.15405 0.89764 0.0
C629 C 0.67513 0.17678 0.89141 0.0
C630 C 0.68287 0.16995 0.87306 0.0
N631 N 0.68423 0.1665 0.90691 0.0
N632 N 0.69731 0.1557 0.877 0.0
H633 H 0.70951 0.14529 0.90558 0.0
H634 H 0.66439 0.18927 0.89331 0.0
C635 C 0.63844 0.17098 0.92166 0.0
O636 O 0.64269 0.15315 0.91328 0.0
N637 N 0.68024 0.18265 0.96387 0.0
C638 C 0.69026 0.17467 0.98005 0.0
C639 C 0.68479 0.18553 0.99731 0.0
C640 C 0.66899 0.19827 0.97134 0.0
N641 N 0.67141 0.20039 0.9918 0.0
C642 C 0.69268 0.13212 0.94318 0.0
C643 C 0.65658 0.12106 0.96238 0.0
C644 C 0.67227 0.10642 0.96061 0.0
C645 C 0.69049 0.11224 0.95078 0.0
C646 C 0.6594 0.14082 0.95445 0.0
N647 N 0.67703 0.14598 0.94432 0.0
H648 H 0.70742 0.13656 0.93728 0.0
H649 H 0.64767 0.15215 0.95727 0.0
H650 H 0.7009 0.16196 0.9793 0.0
H651 H 0.65917 0.2078 0.96194 0.0
O652 O 0.71184 0.17463 0.93756 0.0
O653 O 0.69234 0.20096 0.92845 0.0
O654 O 0.6521 0.18048 0.932 0.0
C655 C 0.71064 0.19365 0.9316 0.0
H656 H 0.6787 0.17561 0.85802 0.0
H657 H 0.69056 0.18292 0.01265 0.0
H658 H 0.64254 0.11756 0.97053 0.0
H659 H 0.70318 0.10164 0.94924 0.0
Co660 Co 0.67624 0.82839 0.57523 0.0
C661 C 0.65595 0.81377 0.61388 0.0
C662 C 0.68115 0.83419 0.61917 0.0
C663 C 0.67482 0.82657 0.63773 0.0
N664 N 0.66923 0.82641 0.60414 0.0
N665 N 0.65901 0.81375 0.63435 0.0
H666 H 0.64544 0.80349 0.60638 0.0
H667 H 0.69442 0.84383 0.61668 0.0
C668 C 0.67345 0.87176 0.58986 0.0
O669 O 0.65593 0.86721 0.59872 0.0
N670 N 0.68418 0.83036 0.54688 0.0
C671 C 0.67633 0.82 0.53085 0.0
C672 C 0.68714 0.82536 0.5135 0.0
C673 C 0.69958 0.84179 0.53922 0.0
N674 N 0.70173 0.83908 0.51882 0.0
C675 C 0.63403 0.81799 0.56813 0.0
C676 C 0.62277 0.85427 0.54937 0.0
C677 C 0.60817 0.83854 0.551 0.0
C678 C 0.61409 0.82024 0.56063 0.0
C679 C 0.64258 0.8514 0.5572 0.0
N680 N 0.64786 0.83366 0.56708 0.0
H681 H 0.63855 0.8032 0.57391 0.0
H682 H 0.65387 0.86317 0.55444 0.0
H683 H 0.66377 0.80921 0.53176 0.0
H684 H 0.70934 0.85147 0.54852 0.0
O685 O 0.67654 0.79872 0.5734 0.0
O686 O 0.70314 0.81809 0.58189 0.0
O687 O 0.68265 0.85841 0.57888 0.0
C688 C 0.69568 0.79983 0.57902 0.0
H689 H 0.68181 0.82954 0.6525 0.0
H690 H 0.68439 0.8197 0.49815 0.0
H691 H 0.61923 0.86838 0.54136 0.0
H692 H 0.60352 0.80751 0.56208 0.0
Co693 Co 0.68228 0.83779 0.07644 0.0
C694 C 0.69767 0.85832 0.11439 0.0
C695 C 0.67293 0.83764 0.12043 0.0
C696 C 0.68037 0.84466 0.13884 0.0
N697 N 0.68338 0.84657 0.10496 0.0
N698 N 0.69597 0.85763 0.13502 0.0
H699 H 0.7103 0.86566 0.10667 0.0
H700 H 0.66156 0.82572 0.11862 0.0
C701 C 0.63783 0.84125 0.08803 0.0
O702 O 0.6413 0.85989 0.09485 0.0
N703 N 0.68131 0.82826 0.04851 0.0
C704 C 0.69194 0.83566 0.03245 0.0
C705 C 0.68695 0.82432 0.01534 0.0
C706 C 0.67017 0.81251 0.04112 0.0
N707 N 0.67325 0.80976 0.02081 0.0
C708 C 0.69114 0.88038 0.06898 0.0
C709 C 0.65619 0.88891 0.04655 0.0
C710 C 0.67051 0.90463 0.04978 0.0
C711 C 0.68823 0.90007 0.06107 0.0
C712 C 0.65967 0.86942 0.05483 0.0
N713 N 0.6766 0.86552 0.06661 0.0
H714 H 0.70558 0.87692 0.07613 0.0
H715 H 0.64893 0.85732 0.05129 0.0
H716 H 0.7026 0.84834 0.03318 0.0
H717 H 0.65992 0.80339 0.05044 0.0
O718 O 0.71201 0.83803 0.07529 0.0
O719 O 0.69295 0.81158 0.0849 0.0
O720 O 0.65224 0.83103 0.07956 0.0
C721 C 0.71114 0.8192 0.0819 0.0
H722 H 0.67521 0.83991 0.15388 0.0
H723 H 0.69325 0.82644 1.00015 0.0
H724 H 0.64245 0.89157 0.03758 0.0
H725 H 0.7002 0.91141 0.06313 0.0
Co726 Co 0.33854 0.83004 0.43687 0.0
C727 C 0.35837 0.81318 0.39904 0.0
C728 C 0.33639 0.8367 0.39259 0.0
C729 C 0.34292 0.82856 0.37432 0.0
N730 N 0.34642 0.82749 0.40819 0.0
N731 N 0.35668 0.8137 0.37839 0.0
H732 H 0.36668 0.80139 0.40709 0.0
H733 H 0.32414 0.84774 0.39434 0.0
C734 C 0.34135 0.87364 0.42246 0.0
O735 O 0.35942 0.86956 0.41451 0.0
N736 N 0.32971 0.83256 0.46492 0.0
C737 C 0.33839 0.82451 0.48181 0.0
C738 C 0.32688 0.83026 0.49858 0.0
C739 C 0.31305 0.84285 0.47148 0.0
N740 N 0.3109 0.84181 0.49207 0.0
C741 C 0.38111 0.821 0.44401 0.0
C742 C 0.39087 0.85719 0.46373 0.0
C743 C 0.40614 0.8422 0.46146 0.0
C744 C 0.40098 0.8239 0.45147 0.0
C745 C 0.37117 0.85371 0.45589 0.0
N746 N 0.36662 0.83604 0.44554 0.0
H747 H 0.37718 0.80618 0.43798 0.0
H748 H 0.3594 0.86499 0.45883 0.0
H749 H 0.35215 0.81523 0.48193 0.0
H750 H 0.30261 0.85065 0.46122 0.0
O751 O 0.3388 0.80046 0.43953 0.0
O752 O 0.31207 0.81907 0.42969 0.0
O753 O 0.33172 0.85988 0.43254 0.0
C754 C 0.3198 0.80104 0.43335 0.0
H755 H 0.33734 0.83275 0.35926 0.0
H756 H 0.33026 0.82638 0.51435 0.0
H757 H 0.39402 0.87141 0.47171 0.0
H758 H 0.41195 0.81149 0.45019 0.0
Co759 Co 0.67439 0.18511 0.43858 0.0
C760 C 0.65477 0.2008 0.40002 0.0
C761 C 0.68063 0.18124 0.39461 0.0
C762 C 0.6747 0.1896 0.37623 0.0
N763 N 0.66804 0.18802 0.40959 0.0
N764 N 0.65847 0.20185 0.37969 0.0
H765 H 0.64386 0.21056 0.40765 0.0
H766 H 0.69411 0.17188 0.3971 0.0
C767 C 0.67345 0.14233 0.4222 0.0
O768 O 0.65608 0.14674 0.41294 0.0
N769 N 0.68172 0.18228 0.46701 0.0
C770 C 0.67272 0.1911 0.48334 0.0
C771 C 0.68335 0.18537 0.5007 0.0
C772 C 0.69768 0.17152 0.47449 0.0
N773 N 0.69907 0.17307 0.49509 0.0
C774 C 0.63156 0.19352 0.44474 0.0
C775 C 0.62148 0.15612 0.46188 0.0
C776 C 0.60621 0.17119 0.46019 0.0
C777 C 0.61152 0.1901 0.45147 0.0
C778 C 0.64134 0.16016 0.45483 0.0
N779 N 0.64607 0.17845 0.44571 0.0
H780 H 0.6356 0.20873 0.43974 0.0
H781 H 0.65306 0.14879 0.45752 0.0
H782 H 0.65951 0.20111 0.48263 0.0
H783 H 0.70801 0.16269 0.46497 0.0
O784 O 0.67351 0.21467 0.44158 0.0
O785 O 0.70103 0.19663 0.43304 0.0
O786 O 0.68196 0.15551 0.43393 0.0
C787 C 0.6928 0.21448 0.43639 0.0
H788 H 0.68229 0.18762 0.3616 0.0
H789 H 0.67999 0.19026 0.51619 0.0
H790 H 0.61822 0.14143 0.46889 0.0
H791 H 0.60052 0.20253 0.45071 0.0
H792 H 0.14637 0.53194 0.28263 0.0
H793 H 0.13111 0.50995 0.25681 0.0
H794 H 0.16319 0.45785 0.28182 0.0
H795 H 0.17926 0.47968 0.30726 0.0
H796 H 0.16534 0.45848 0.24068 0.0
H797 H 0.08459 0.47003 0.26502 0.0
H798 H 0.09775 0.49336 0.25872 0.0
H799 H 0.10607 0.47836 0.28033 0.0
C800 C 0.1504 0.51588 0.2828 0.0
C801 C 0.16419 0.50782 0.29743 0.0
C802 C 0.14139 0.50323 0.268 0.0
C803 C 0.14568 0.48217 0.26758 0.0
C804 C 0.15954 0.47406 0.2819 0.0
H805 H 0.08058 0.38179 0.21405 0.0
H806 H 0.0937 0.40983 0.2349 0.0
C807 C 0.16868 0.48668 0.29661 0.0
C808 C 0.13603 0.46851 0.2521 0.0
H809 H 0.08988 0.45067 0.2348 0.0
C810 C 0.14883 0.45681 0.23935 0.0
C811 C 0.11449 0.46621 0.2505 0.0
C812 C 0.0999 0.4775 0.26448 0.0
C813 C 0.14075 0.44265 0.22528 0.0
C814 C 0.11919 0.44055 0.22347 0.0
C815 C 0.10638 0.45247 0.23602 0.0
C816 C 0.10971 0.4248 0.21 0.0
C817 C 0.15543 0.42948 0.21316 0.0
C818 C 0.11372 0.42421 0.18884 0.0
C819 C 0.1064 0.40798 0.17683 0.0
C820 C 0.09468 0.39222 0.18573 0.0
C821 C 0.08965 0.39358 0.20666 0.0
C822 C 0.09713 0.40965 0.21865 0.0
H823 H 0.17106 0.42946 0.21996 0.0
H824 H 0.14991 0.4134 0.21228 0.0
H825 H 0.15665 0.43557 0.19732 0.0
H826 H 0.12292 0.43605 0.1817 0.0
H827 H 0.11039 0.40751 0.16072 0.0
H828 H 0.03127 0.35382 0.2399 0.0
H829 H 0.00899 0.36892 0.26597 0.0
H830 H 0.95667 0.36046 0.22644 0.0
H831 H 0.97879 0.34565 0.20015 0.0
H832 H 0.98254 0.40375 0.26305 0.0
H833 H 0.93984 0.33231 0.28069 0.0
H834 H 0.96389 0.33232 0.26697 0.0
H835 H 0.94045 0.33875 0.25392 0.0
C836 C 0.01507 0.35529 0.23662 0.0
C837 C 0.00686 0.34836 0.21787 0.0
C838 C 1.00234 0.36386 0.25161 0.0
C839 C 0.98116 0.36553 0.24825 0.0
C840 C 0.97293 0.35892 0.22951 0.0
H841 H 0.88622 0.43707 0.304 0.0
H842 H 0.91482 0.4243 0.28355 0.0
C843 C 0.98563 0.3504 0.21449 0.0
C844 C 0.9676 0.37433 0.26423 0.0
H845 H 0.92606 0.36334 0.29408 0.0
C846 C 0.97029 0.3949 0.26999 0.0
C847 C 0.95185 0.36265 0.27347 0.0
C848 C 0.94889 0.34022 0.26863 0.0
C849 C 0.95712 0.40431 0.28421 0.0
C850 C 0.94075 0.39289 0.2927 0.0
C851 C 0.93855 0.37212 0.28749 0.0
C852 C 0.92506 0.40232 0.30622 0.0
C853 C 0.96082 0.42639 0.28999 0.0
C854 C 0.92132 0.39427 0.32583 0.0
C855 C 0.90488 0.4015 0.33758 0.0
C856 C 0.89174 0.41676 0.32981 0.0
C857 C 0.89603 0.42532 0.31047 0.0
C858 C 0.91248 0.41812 0.29878 0.0
H859 H 0.97699 0.43098 0.28712 0.0
H860 H 0.95079 0.4364 0.28054 0.0
H861 H 0.95717 0.42915 0.30638 0.0
H862 H 0.93079 0.382 0.33181 0.0
H863 H 0.90198 0.39453 0.35237 0.0
H864 H 0.83169 0.53191 0.3012 0.0
H865 H 0.84779 0.55314 0.2752 0.0
H866 H 0.8856 0.50221 0.25657 0.0
H867 H 0.87048 0.48107 0.28334 0.0
H868 H 0.90779 0.53588 0.25884 0.0
H869 H 0.83761 0.55359 0.21477 0.0
H870 H 0.83477 0.5608 0.24113 0.0
H871 H 0.83816 0.53419 0.23449 0.0
C872 C 0.84349 0.5251 0.29176 0.0
C873 C 0.84959 0.50457 0.29453 0.0
C874 C 0.8525 0.53727 0.2766 0.0
C875 C 0.86756 0.52916 0.26355 0.0
C876 C 0.87383 0.50876 0.2663 0.0
H877 H 0.90488 0.60518 0.15895 0.0
H878 H 0.89325 0.57561 0.17898 0.0
C879 C 0.86499 0.49661 0.28161 0.0
C880 C 0.87733 0.54225 0.24764 0.0
H881 H 0.86649 0.57579 0.20894 0.0
C882 C 0.89877 0.5444 0.24774 0.0
C883 C 0.86568 0.55301 0.2328 0.0
C884 C 0.84281 0.5501 0.23062 0.0
C885 C 0.90875 0.55775 0.23411 0.0
C886 C 0.89693 0.56974 0.22038 0.0
C887 C 0.87559 0.56683 0.21961 0.0
C888 C 0.90609 0.58631 0.20767 0.0
C889 C 0.93188 0.5588 0.23459 0.0
C890 C 0.91739 0.60205 0.21702 0.0
C891 C 0.92427 0.61878 0.20559 0.0
C892 C 0.91963 0.6204 0.18458 0.0
C893 C 0.90874 0.6044 0.17509 0.0
C894 C 0.90203 0.58751 0.18653 0.0
H895 H 0.9386 0.54403 0.2398 0.0
H896 H 0.93829 0.56261 0.21929 0.0
H897 H 0.93671 0.57079 0.24565 0.0
H898 H 0.92024 0.60184 0.23338 0.0
H899 H 0.93249 0.63086 0.21348 0.0
H900 H 0.11136 0.62013 0.35032 0.0
H901 H 0.08346 0.63182 0.32815 0.0
H902 H 0.09673 0.58304 0.28552 0.0
H903 H 0.12494 0.57154 0.30736 0.0
H904 H 0.09578 0.61948 0.26681 0.0
H905 H 0.02637 0.61165 0.31507 0.0
H906 H 0.04631 0.62608 0.32737 0.0
H907 H 0.0504 0.59943 0.32147 0.0
C908 C 0.10803 0.61158 0.33648 0.0
C909 C 0.12043 0.59495 0.33056 0.0
C910 C 0.092 0.61825 0.32383 0.0
C911 C 0.08787 0.60823 0.30522 0.0
C912 C 0.09962 0.59102 0.29981 0.0
H913 H 0.9873 0.63739 0.22148 0.0
H914 H 0.0101 0.62082 0.24628 0.0
C915 C 0.11573 0.58444 0.31233 0.0
C916 C 0.07283 0.61687 0.29042 0.0
H917 H 0.02311 0.63262 0.28507 0.0
C918 C 0.07985 0.62218 0.27077 0.0
C919 C 0.05199 0.62025 0.2955 0.0
C920 C 0.04325 0.61387 0.31593 0.0
C921 C 0.06676 0.63113 0.25622 0.0
C922 C 0.04617 0.63536 0.2616 0.0
C923 C 0.03897 0.62961 0.28106 0.0
C924 C 0.03194 0.64577 0.24718 0.0
C925 C 0.07509 0.63576 0.23513 0.0
C926 C 0.03643 0.66547 0.23975 0.0
C927 C 0.02345 0.67496 0.22557 0.0
C928 C 1.00557 0.66505 0.21867 0.0
C929 C 1.00084 0.64553 0.22656 0.0
C930 C 0.01389 0.636 0.2407 0.0
H931 H 0.08896 0.62647 0.23168 0.0
H932 H 0.0634 0.63278 0.22311 0.0
H933 H 0.07949 0.65218 0.23434 0.0
H934 H 0.05002 0.67351 0.24493 0.0
H935 H 0.02734 0.69015 0.22014 0.0
H936 H 0.15166 0.47927 0.73818 0.0
H937 H 0.13191 0.50015 0.76214 0.0
H938 H 0.14001 0.55286 0.72308 0.0
H939 H 0.15908 0.53194 0.69862 0.0
H940 H 0.14369 0.53368 0.78366 0.0
H941 H 0.07859 0.55379 0.73299 0.0
H942 H 0.09663 0.53373 0.72679 0.0
H943 H 0.10291 0.56014 0.72181 0.0
C944 C 0.149 0.49521 0.73446 0.0
C945 C 0.15689 0.50383 0.7163 0.0
C946 C 0.13778 0.50716 0.74828 0.0
C947 C 0.13414 0.52797 0.74423 0.0
C948 C 0.14221 0.53672 0.7263 0.0
H949 H 0.11104 0.6292 0.82186 0.0
H950 H 0.12459 0.60033 0.80264 0.0
C951 C 0.15339 0.52477 0.71244 0.0
C952 C 0.12266 0.54077 0.75916 0.0
H953 H 0.08267 0.57436 0.76326 0.0
C954 C 0.13019 0.54237 0.77927 0.0
C955 C 0.10479 0.55178 0.75359 0.0
C956 C 0.09511 0.54963 0.73268 0.0
C957 C 0.12096 0.55549 0.79362 0.0
C958 C 0.10398 0.56761 0.78759 0.0
C959 C 0.0958 0.56521 0.76782 0.0
C960 C 0.09568 0.58414 0.80085 0.0
C961 C 0.12964 0.55641 0.81504 0.0
C962 C 0.07479 0.58481 0.80611 0.0
C963 C 0.06687 0.60149 0.81715 0.0
C964 C 0.07971 0.61785 0.82286 0.0
C965 C 0.10069 0.61685 0.81786 0.0
C966 C 0.10854 0.60024 0.80694 0.0
H967 H 0.13747 0.54185 0.81919 0.0
H968 H 0.14118 0.56889 0.81587 0.0
H969 H 0.11748 0.55956 0.82653 0.0
H970 H 0.06456 0.5726 0.80139 0.0
H971 H 0.05062 0.60186 0.8206 0.0
H972 H 0.98757 0.37393 0.79309 0.0
H973 H 0.01021 0.389 0.76728 0.0
H974 H 0.04877 0.33529 0.76963 0.0
H975 H 0.02626 0.32019 0.79551 0.0
H976 H 0.07071 0.37044 0.77221 0.0
H977 H 0.01642 0.37521 0.70687 0.0
H978 H 0.0073 0.3875 0.72974 0.0
H979 H 0.01118 0.3602 0.72953 0.0
C980 C 1.00071 0.3652 0.78791 0.0
C981 C 1.00509 0.34583 0.79635 0.0
C982 C 0.01361 0.37382 0.77311 0.0
C983 C 0.031 0.36314 0.76628 0.0
C984 C 0.03539 0.34379 0.77463 0.0
H985 H 0.1124 0.38916 0.66431 0.0
H986 H 0.0849 0.37621 0.68636 0.0
C987 C 0.02257 0.33522 0.78951 0.0
C988 C 0.04527 0.37251 0.75124 0.0
H989 H 0.04841 0.39241 0.70285 0.0
C990 C 0.06583 0.37519 0.75703 0.0
C991 C 0.03894 0.37851 0.73136 0.0
C992 C 0.0173 0.37505 0.72388 0.0
C993 C 0.0802 0.38386 0.74359 0.0
C994 C 0.07373 0.39049 0.72396 0.0
C995 C 0.05324 0.38758 0.71802 0.0
C996 C 0.0883 0.39994 0.70929 0.0
C997 C 0.10228 0.38545 0.75042 0.0
C998 C 0.09866 0.41807 0.71443 0.0
C999 C 0.11442 0.42544 0.70195 0.0
C1000 C 0.11995 0.41493 0.68395 0.0
C1001 C 0.10853 0.3976 0.67807 0.0
C1002 C 0.09284 0.39016 0.69067 0.0
H1003 H 0.10564 0.37503 0.76348 0.0
H1004 H 0.11291 0.38172 0.73765 0.0
H1005 H 0.10545 0.40137 0.75549 0.0
H1006 H 0.09506 0.42613 0.7285 0.0
H1007 H 0.12274 0.43897 0.70679 0.0
H1008 H 0.93835 0.38565 0.8046 0.0
H1009 H 0.92617 0.41432 0.78386 0.0
H1010 H 0.88524 0.43243 0.83251 0.0
H1011 H 0.89715 0.40356 0.85334 0.0
H1012 H 0.86573 0.42767 0.7953 0.0
H1013 H 0.93481 0.47623 0.78599 0.0
H1014 H 0.93926 0.44979 0.77979 0.0
H1015 H 0.93279 0.45682 0.80565 0.0
C1016 C 0.92705 0.39594 0.81109 0.0
C1017 C 0.91866 0.39224 0.83063 0.0
C1018 C 0.92019 0.41243 0.79923 0.0
C1019 C 0.90492 0.42563 0.80669 0.0
C1020 C 0.8971 0.42247 0.82649 0.0
H1021 H 0.85803 0.53206 0.73939 0.0
H1022 H 0.87325 0.50984 0.76549 0.0
C1023 C 0.90398 0.40599 0.83841 0.0
C1024 C 0.89571 0.44136 0.79304 0.0
H1025 H 0.90724 0.48224 0.76236 0.0
C1026 C 0.87476 0.43974 0.78829 0.0
C1027 C 0.90746 0.45719 0.78399 0.0
C1028 C 0.92978 0.46028 0.78925 0.0
C1029 C 0.86541 0.45308 0.77422 0.0
C1030 C 0.87738 0.46829 0.76443 0.0
C1031 C 0.89815 0.47041 0.76972 0.0
C1032 C 0.86863 0.48182 0.74838 0.0
C1033 C 0.84278 0.45077 0.7699 0.0
C1034 C 0.86132 0.47348 0.72996 0.0
C1035 C 0.85273 0.48613 0.71494 0.0
C1036 C 0.85131 0.50745 0.71798 0.0
C1037 C 0.859 0.51578 0.73637 0.0
C1038 C 0.86764 0.50309 0.75138 0.0
H1039 H 0.83485 0.44219 0.7823 0.0
H1040 H 0.83531 0.46598 0.76812 0.0
H1041 H 0.8407 0.44213 0.7554 0.0
H1042 H 0.86233 0.45714 0.72716 0.0
H1043 H 0.8474 0.47918 0.70086 0.0
H1044 H 0.98377 0.66531 0.80786 0.0
H1045 H 0.96291 0.64955 0.78126 0.0
H1046 H 0.01642 0.64257 0.74309 0.0
H1047 H 0.03758 0.65871 0.76972 0.0
H1048 H 0.95789 0.66376 0.74051 0.0
H1049 H 0.98967 0.58458 0.74379 0.0
H1050 H 0.99347 0.60292 0.76418 0.0
H1051 H 0.00776 0.6052 0.74079 0.0
C1052 C 0.99119 0.66066 0.79378 0.0
C1053 C 0.0124 0.66351 0.79093 0.0
C1054 C 0.97921 0.65149 0.77862 0.0
C1055 C 0.98811 0.64478 0.76026 0.0
C1056 C 0.00929 0.64739 0.75729 0.0
H1057 H 0.90698 0.61401 0.6571 0.0
H1058 H 0.93662 0.62661 0.67642 0.0
C1059 C 0.02135 0.65663 0.77252 0.0
C1060 C 0.97481 0.63567 0.74418 0.0
H1061 H 0.96281 0.5906 0.7203 0.0
C1062 C 0.9591 0.64783 0.73588 0.0
C1063 C 0.97635 0.61484 0.73837 0.0
C1064 C 0.99261 0.60099 0.74728 0.0
C1065 C 0.94458 0.63963 0.72228 0.0
C1066 C 0.94597 0.61874 0.71657 0.0
C1067 C 0.96192 0.60665 0.72456 0.0
C1068 C 0.92997 0.60895 0.70368 0.0
C1069 C 0.92731 0.65317 0.71485 0.0
C1070 C 0.91696 0.59414 0.71227 0.0
C1071 C 0.90005 0.58684 0.70128 0.0
C1072 C 0.89586 0.59419 0.68142 0.0
C1073 C 0.90967 0.6081 0.67239 0.0
C1074 C 0.92658 0.6154 0.68343 0.0
H1075 H 0.92624 0.66766 0.72375 0.0
H1076 H 0.92993 0.65718 0.69853 0.0
H1077 H 0.91238 0.64503 0.71592 0.0
H1078 H 0.91934 0.58889 0.72786 0.0
H1079 H 0.88983 0.57603 0.70867 0.0
H1080 H 0.20734 0.07146 0.38681 0.0
H1081 H 0.22886 0.08303 0.41521 0.0
H1082 H 0.18618 0.13203 0.42764 0.0
H1083 H 0.16433 0.12029 0.39952 0.0
H1084 H 0.24762 0.11959 0.41627 0.0
H1085 H 0.19835 0.11169 0.48497 0.0
H1086 H 0.19235 0.09943 0.46089 0.0
H1087 H 0.18636 0.12608 0.46479 0.0
C1088 C 0.20229 0.08444 0.39586 0.0
C1089 C 0.18413 0.09499 0.39087 0.0
C1090 C 0.21463 0.09105 0.41208 0.0
C1091 C 0.2091 0.10832 0.42366 0.0
C1092 C 0.19057 0.11841 0.41923 0.0
H1093 H 0.29336 0.18991 0.48566 0.0
H1094 H 0.26877 0.17347 0.46265 0.0
C1095 C 0.17812 0.11172 0.40307 0.0
C1096 C 0.2237 0.11694 0.43889 0.0
H1097 H 0.22842 0.13245 0.4887 0.0
C1098 C 0.24345 0.12224 0.43215 0.0
C1099 C 0.21834 0.12024 0.45965 0.0
C1100 C 0.19776 0.11388 0.46808 0.0
C1101 C 0.25785 0.13112 0.44544 0.0
C1102 C 0.2522 0.13525 0.46596 0.0
C1103 C 0.23263 0.12951 0.47289 0.0
C1104 C 0.26647 0.14553 0.4804 0.0
C1105 C 0.27905 0.13579 0.43741 0.0
C1106 C 0.27286 0.13556 0.49837 0.0
C1107 C 0.2869 0.14496 0.5116 0.0
C1108 C 0.29478 0.16455 0.50713 0.0
C1109 C 0.28795 0.17467 0.48934 0.0
C1110 C 0.27387 0.16529 0.47618 0.0
H1111 H 0.28265 0.12665 0.42349 0.0
H1112 H 0.27994 0.15225 0.43322 0.0
H1113 H 0.29093 0.13264 0.44921 0.0
H1114 H 0.2673 0.12032 0.50194 0.0
H1115 H 0.29194 0.13666 0.52506 0.0
H1116 H 0.5746 0.30192 0.1272 0.0
H1117 H 0.58731 0.28072 0.09908 0.0
H1118 H 0.62855 0.3291 0.08096 0.0
H1119 H 0.6161 0.35042 0.10924 0.0
H1120 H 0.59039 0.2864 0.0558 0.0
H1121 H 0.6665 0.27987 0.09388 0.0
H1122 H 0.64413 0.28962 0.10692 0.0
H1123 H 0.65775 0.30556 0.08908 0.0
C1124 C 0.58618 0.30821 0.11709 0.0
C1125 C 0.59453 0.32779 0.12064 0.0
C1126 C 0.5934 0.29606 0.101 0.0
C1127 C 0.60912 0.3032 0.0882 0.0
C1128 C 0.61664 0.32319 0.09091 0.0
H1129 H 0.65668 0.23789 0.98096 0.0
H1130 H 0.64096 0.26339 1.00348 0.0
C1131 C 0.60941 0.33539 0.10701 0.0
C1132 C 0.61847 0.2892 0.07294 0.0
H1133 H 0.66263 0.2632 0.06207 0.0
C1134 C 0.60622 0.28141 0.05705 0.0
C1135 C 0.63903 0.28249 0.07486 0.0
C1136 C 0.65263 0.28964 0.09218 0.0
C1137 C 0.61401 0.26706 0.04298 0.0
C1138 C 0.63463 0.26052 0.0448 0.0
C1139 C 0.64687 0.26836 0.06066 0.0
C1140 C 0.64364 0.24494 0.03092 0.0
C1141 C 0.59996 0.25856 0.02667 0.0
C1142 C 0.65064 0.22623 0.03891 0.0
C1143 C 0.65962 0.21161 0.02609 0.0
C1144 C 0.6619 0.21543 1.00498 0.0
C1145 C 0.65488 0.23425 0.99704 0.0
C1146 C 0.64588 0.24888 0.0099 0.0
H1147 H 0.58357 0.2617 0.0301 0.0
H1148 H 0.60371 0.26579 0.01174 0.0
H1149 H 0.60209 0.24174 0.02505 0.0
H1150 H 0.64907 0.22291 0.05511 0.0
H1151 H 0.66458 0.19723 0.03272 0.0
H1152 H 0.71796 0.82338 0.48396 0.0
H1153 H 0.74315 0.83958 0.46143 0.0
H1154 H 0.74448 0.89263 0.50088 0.0
H1155 H 0.71941 0.87641 0.52357 0.0
H1156 H 0.7399 0.87471 0.43997 0.0
H1157 H 0.8051 0.8806 0.49433 0.0
H1158 H 0.78275 0.86511 0.49949 0.0
H1159 H 0.78196 0.89238 0.50349 0.0
C1160 C 0.72358 0.8385 0.48783 0.0
C1161 C 0.71671 0.84857 0.5056 0.0
C1162 C 0.73806 0.84771 0.475 0.0
C1163 C 0.74597 0.86719 0.47962 0.0
C1164 C 0.73903 0.87737 0.49727 0.0
H1165 H 0.80498 0.94322 0.38702 0.0
H1166 H 0.78298 0.93071 0.41465 0.0
C1167 C 0.72465 0.8681 0.5102 0.0
C1168 C 0.76077 0.87712 0.46545 0.0
H1169 H 0.80881 0.89795 0.46245 0.0
C1170 C 0.75497 0.87977 0.44489 0.0
C1171 C 0.78053 0.88351 0.47183 0.0
C1172 C 0.78808 0.8801 0.49343 0.0
C1173 C 0.7683 0.88869 0.43056 0.0
C1174 C 0.78782 0.89566 0.43706 0.0
C1175 C 0.79373 0.89287 0.45758 0.0
C1176 C 0.80255 0.90506 0.42248 0.0
C1177 C 0.76152 0.89005 0.40846 0.0
C1178 C 0.82148 0.89556 0.41857 0.0
C1179 C 0.83426 0.90286 0.40296 0.0
C1180 C 0.82826 0.91974 0.39095 0.0
C1181 C 0.80993 0.93003 0.39582 0.0
C1182 C 0.79726 0.92282 0.41153 0.0
H1183 H 0.74866 0.87938 0.40511 0.0
H1184 H 0.75615 0.90586 0.4052 0.0
H1185 H 0.7744 0.8865 0.3979 0.0
H1186 H 0.82593 0.88192 0.42695 0.0
H1187 H 0.84827 0.89459 0.39961 0.0
H1188 H 0.33231 0.79546 0.02776 0.0
H1189 H 0.35127 0.7713 0.04938 0.0
H1190 H 0.40139 0.77175 0.0063 0.0
H1191 H 0.38269 0.79616 0.98475 0.0
H1192 H 0.36766 0.73096 0.03688 0.0
H1193 H 0.4277 0.78567 0.06332 0.0
H1194 H 0.40352 0.79418 0.05278 0.0
H1195 H 0.42303 0.7842 0.03617 0.0
C1196 C 0.34743 0.79057 0.02297 0.0
C1197 C 0.35598 0.79779 1.00455 0.0
C1198 C 0.35818 0.77667 0.03527 0.0
C1199 C 0.37778 0.76989 0.0295 0.0
C1200 C 0.38636 0.77695 0.0111 0.0
H1201 H 0.4626 0.69504 0.10315 0.0
H1202 H 0.44783 0.714 0.07415 0.0
C1203 C 0.37556 0.79077 0.99873 0.0
C1204 C 0.38911 0.75533 0.04277 0.0
H1205 H 0.42975 0.75184 0.07564 0.0
C1206 C 0.38131 0.73545 0.04527 0.0
C1207 C 0.40704 0.7612 0.05348 0.0
C1208 C 0.41585 0.7825 0.05149 0.0
C1209 C 0.39077 0.72134 0.05851 0.0
C1210 C 0.4082 0.72748 0.06993 0.0
C1211 C 0.41641 0.74715 0.06688 0.0
C1212 C 0.41699 0.71447 0.08644 0.0
C1213 C 0.38196 0.70002 0.06015 0.0
C1214 C 0.4046 0.70844 0.10293 0.0
C1215 C 0.41292 0.6976 0.11938 0.0
C1216 C 0.43394 0.69268 0.11987 0.0
C1217 C 0.44634 0.69843 0.10319 0.0
C1218 C 0.43794 0.70933 0.08665 0.0
H1219 H 0.37378 0.6956 0.04587 0.0
H1220 H 0.39411 0.68849 0.06329 0.0
H1221 H 0.37069 0.69958 0.07288 0.0
H1222 H 0.38853 0.71268 0.10341 0.0
H1223 H 0.40289 0.69356 0.13198 0.0
H1224 H 0.3005 0.83235 0.53143 0.0
H1225 H 0.27407 0.84838 0.55228 0.0
H1226 H 0.25764 0.88778 0.50179 0.0
H1227 H 0.28482 0.87269 0.48111 0.0
H1228 H 0.25936 0.90906 0.5361 0.0
H1229 H 0.21335 0.83946 0.55056 0.0
H1230 H 0.23945 0.83588 0.55846 0.0
H1231 H 0.23364 0.84011 0.53178 0.0
C1232 C 0.29143 0.84449 0.52468 0.0
C1233 C 0.29491 0.85104 0.5044 0.0
C1234 C 0.27604 0.85346 0.5366 0.0
C1235 C 0.26349 0.86895 0.52847 0.0
C1236 C 0.26696 0.87568 0.50834 0.0
H1237 H 0.15766 0.90675 0.60287 0.0
H1238 H 0.178 0.89541 0.57338 0.0
C1239 C 0.28249 0.86686 0.49645 0.0
C1240 C 0.24736 0.87872 0.54131 0.0
H1241 H 0.20741 0.86788 0.57334 0.0
C1242 C 0.24783 0.90008 0.54402 0.0
C1243 C 0.23195 0.86713 0.55128 0.0
C1244 C 0.2294 0.84441 0.54769 0.0
C1245 C 0.23399 0.91 0.55721 0.0
C1246 C 0.21967 0.89818 0.56847 0.0
C1247 C 0.21853 0.87696 0.56495 0.0
C1248 C 0.20681 0.90716 0.58502 0.0
C1249 C 0.23493 0.93305 0.55891 0.0
C1250 C 0.21613 0.91774 0.60127 0.0
C1251 C 0.20454 0.92444 0.61794 0.0
C1252 C 0.18337 0.92035 0.61902 0.0
C1253 C 0.17391 0.91019 0.60252 0.0
C1254 C 0.18553 0.90364 0.58568 0.0
H1255 H 0.24061 0.94004 0.54445 0.0
H1256 H 0.21968 0.93971 0.56255 0.0
H1257 H 0.24584 0.93731 0.57127 0.0
H1258 H 0.23256 0.92015 0.60148 0.0
H1259 H 0.21242 0.93213 0.63039 0.0
H1260 H 0.39225 0.34942 0.90009 0.0
H1261 H 0.38048 0.3274 0.92805 0.0
H1262 H 0.43047 0.28565 0.91641 0.0
H1263 H 0.44205 0.30732 0.88815 0.0
H1264 H 0.39441 0.26619 0.91672 0.0
H1265 H 0.39966 0.31536 0.98572 0.0
H1266 H 0.38542 0.32713 0.96531 0.0
H1267 H 0.41228 0.32175 0.96193 0.0
C1268 C 0.40104 0.33582 0.90381 0.0
C1269 C 0.41804 0.33008 0.89183 0.0
C1270 C 0.39433 0.32327 0.91987 0.0
C1271 C 0.40467 0.30492 0.92446 0.0
C1272 C 0.42225 0.29972 0.91316 0.0
H1273 H 0.37509 0.22141 0.02505 0.0
H1274 H 0.39165 0.2464 1.00247 0.0
C1275 C 0.42886 0.31215 0.89703 0.0
C1276 C 0.39601 0.29011 0.93945 0.0
H1277 H 0.3793 0.28493 0.98883 0.0
C1278 C 0.39128 0.27027 0.93253 0.0
C1279 C 0.39207 0.29533 0.96014 0.0
C1280 C 0.39781 0.31599 0.96879 0.0
C1281 C 0.38236 0.25567 0.94556 0.0
C1282 C 0.37757 0.26117 0.96598 0.0
C1283 C 0.38274 0.28082 0.97309 0.0
C1284 C 0.36713 0.24667 0.9801 0.0
C1285 C 0.37836 0.2344 0.93736 0.0
C1286 C 0.34768 0.23884 0.97523 0.0
C1287 C 0.3382 0.22454 0.98807 0.0
C1288 C 0.34788 0.21794 0.00619 0.0
C1289 C 0.36714 0.22626 0.01131 0.0
C1290 C 0.37666 0.2405 0.99839 0.0
H1291 H 0.38802 0.231 0.92374 0.0
H1292 H 0.38136 0.22256 0.94923 0.0
H1293 H 0.36205 0.23321 0.93261 0.0
H1294 H 0.33982 0.24376 0.96144 0.0
H1295 H 0.3232 0.21879 0.98388 0.0
H1296 H 0.85001 0.11872 0.61201 0.0
H1297 H 0.8283 0.13163 0.5842 0.0
H1298 H 0.78162 0.08753 0.59988 0.0
H1299 H 0.80321 0.07437 0.62753 0.0
H1300 H 0.78755 0.09305 0.55677 0.0
H1301 H 0.77719 0.16662 0.59866 0.0
H1302 H 0.80331 0.15926 0.59376 0.0
H1303 H 0.7878 0.14404 0.61066 0.0
C1304 C 0.83529 0.1115 0.60932 0.0
C1305 C 0.82825 0.09566 0.62215 0.0
C1306 C 0.82286 0.119 0.5935 0.0
C1307 C 0.80322 0.11078 0.59026 0.0
C1308 C 0.79669 0.09415 0.60222 0.0
H1309 H 0.69538 0.16426 0.53561 0.0
H1310 H 0.72129 0.14886 0.55788 0.0
C1311 C 0.80906 0.08668 0.61804 0.0
C1312 C 0.78889 0.12026 0.57538 0.0
H1313 H 0.76098 0.1637 0.56649 0.0
C1314 C 0.78181 0.10854 0.55878 0.0
C1315 C 0.78121 0.14035 0.57829 0.0
C1316 C 0.78758 0.1533 0.59638 0.0
C1317 C 0.76725 0.11641 0.54496 0.0
C1318 C 0.75976 0.13658 0.54775 0.0
C1319 C 0.76685 0.14828 0.56434 0.0
C1320 C 0.74408 0.14566 0.53401 0.0
C1321 C 0.75958 0.1029 0.52782 0.0
C1322 C 0.74839 0.14917 0.51324 0.0
C1323 C 0.73363 0.1581 0.50047 0.0
C1324 C 0.7143 0.16379 0.50825 0.0
C1325 C 0.71013 0.16032 0.52912 0.0
C1326 C 0.7249 0.1514 0.54187 0.0
H1327 H 0.76334 0.0865 0.53049 0.0
H1328 H 0.74271 0.10443 0.52599 0.0
H1329 H 0.7669 0.10768 0.51323 0.0
H1330 H 0.76326 0.14525 0.50696 0.0
H1331 H 0.73756 0.16087 0.4846 0.0
H1332 H 0.65709 0.77299 0.0322 0.0
H1333 H 0.64186 0.74706 0.0098 0.0
H1334 H 0.65318 0.78559 0.95731 0.0
H1335 H 0.66814 0.8117 0.97954 0.0
H1336 H 0.60803 0.75045 0.98216 0.0
H1337 H 0.68039 0.73044 0.94213 0.0
H1338 H 0.67995 0.74453 0.96595 0.0
H1339 H 0.67466 0.75738 0.94214 0.0
C1340 C 0.65621 0.77607 0.01593 0.0
C1341 C 0.66402 0.79446 0.0077 0.0
C1342 C 0.64757 0.76117 1.00314 0.0
C1343 C 0.64668 0.76428 0.98188 0.0
C1344 C 0.65411 0.7827 0.97364 0.0
H1345 H 0.57667 0.70924 0.88532 0.0
H1346 H 0.58898 0.72967 0.91413 0.0
C1347 C 0.66272 0.79761 0.9864 0.0
C1348 C 0.6379 0.74836 0.96823 0.0
H1349 H 0.64947 0.71782 0.92736 0.0
C1350 C 0.6171 0.74316 0.97028 0.0
C1351 C 0.64985 0.73865 0.95297 0.0
C1352 C 0.6725 0.74285 0.95073 0.0
C1353 C 0.60775 0.72906 0.95694 0.0
C1354 C 0.61948 0.72011 0.94103 0.0
C1355 C 0.64045 0.72477 0.93949 0.0
C1356 C 0.61023 0.70667 0.92517 0.0
C1357 C 0.58541 0.72388 0.95997 0.0
C1358 C 0.61802 0.68688 0.9218 0.0
C1359 C 0.61107 0.67515 0.90523 0.0
C1360 C 0.59635 0.6831 0.8916 0.0
C1361 C 0.58801 0.70262 0.89551 0.0
C1362 C 0.59494 0.7143 0.91208 0.0
H1363 H 0.5804 0.72696 0.97596 0.0
H1364 H 0.57596 0.73353 0.9496 0.0
H1365 H 0.58233 0.70753 0.95631 0.0
H1366 H 0.62989 0.68073 0.93167 0.0
H1367 H 0.61786 0.66021 0.90265 0.0
H1368 H 0.52991 0.27363 0.15891 0.0
H1369 H 0.50748 0.2482 0.14296 0.0
H1370 H 0.45591 0.28897 0.15008 0.0
H1371 H 0.47822 0.31459 0.16582 0.0
H1372 H 0.44849 0.24861 0.16345 0.0
H1373 H 0.48191 0.25021 0.08508 0.0
H1374 H 0.49991 0.246 0.10555 0.0
H1375 H 0.4867 0.2701 0.10373 0.0
C1376 C 0.51387 0.27735 0.15686 0.0
C1377 C 0.50593 0.29625 0.16364 0.0
C1378 C 0.50106 0.26276 0.14774 0.0
C1379 C 0.48009 0.2668 0.14512 0.0
C1380 C 0.47207 0.28556 0.15194 0.0
H1381 H 0.38477 0.21031 0.07421 0.0
H1382 H 0.41275 0.23139 0.08747 0.0
C1383 C 0.48485 0.30016 0.16104 0.0
C1384 C 0.46629 0.25131 0.13581 0.0
H1385 H 0.45602 0.22557 0.09135 0.0
C1386 C 0.45017 0.24349 0.14772 0.0
C1387 C 0.46846 0.24481 0.11523 0.0
C1388 C 0.48506 0.2533 0.10154 0.0
C1389 C 0.43607 0.22941 0.13958 0.0
C1390 C 0.43835 0.22274 0.11906 0.0
C1391 C 0.45449 0.23052 0.10715 0.0
C1392 C 0.42322 0.2088 0.10939 0.0
C1393 C 0.41848 0.22227 0.15282 0.0
C1394 C 0.42033 0.18879 0.11679 0.0
C1395 C 0.40431 0.17666 0.10925 0.0
C1396 C 0.39093 0.18435 0.09416 0.0
C1397 C 0.39468 0.20395 0.08594 0.0
C1398 C 0.41069 0.21603 0.09347 0.0
H1399 H 0.41656 0.23199 0.16667 0.0
H1400 H 0.40388 0.22237 0.14404 0.0
H1401 H 0.42143 0.20631 0.15794 0.0
H1402 H 0.43007 0.18281 0.12886 0.0
H1403 H 0.40192 0.16161 0.11585 0.0
H1404 H 0.39155 0.80781 0.9411 0.0
H1405 H 0.41946 0.78578 0.92934 0.0
H1406 H 0.42956 0.82596 0.8778 0.0
H1407 H 0.40191 0.84834 0.88972 0.0
H1408 H 0.41874 0.76523 0.89376 0.0
H1409 H 0.48783 0.81464 0.89591 0.0
H1410 H 0.46435 0.82132 0.90897 0.0
H1411 H 0.46696 0.82589 0.8819 0.0
C1412 C 0.40001 0.81222 0.92751 0.0
C1413 C 0.39447 0.82981 0.91631 0.0
C1414 C 0.41595 0.79958 0.92079 0.0
C1415 C 0.4267 0.80423 0.90274 0.0
C1416 C 0.42179 0.82225 0.89199 0.0
H1417 H 0.48549 0.71532 0.82341 0.0
H1418 H 0.46291 0.74065 0.83932 0.0
C1419 C 0.40592 0.83502 0.8988 0.0
C1420 C 0.4415 0.78918 0.89415 0.0
H1421 H 0.49062 0.78346 0.87678 0.0
C1422 C 0.43451 0.7692 0.8902 0.0
C1423 C 0.46211 0.79428 0.88964 0.0
C1424 C 0.47085 0.81514 0.8945 0.0
C1425 C 0.4474 0.7543 0.88156 0.0
C1426 C 0.46776 0.75963 0.87627 0.0
C1427 C 0.47493 0.77947 0.88061 0.0
C1428 C 0.48181 0.74474 0.86631 0.0
C1429 C 0.43915 0.73291 0.87842 0.0
C1430 C 0.50023 0.73905 0.87589 0.0
C1431 C 0.5132 0.72459 0.86679 0.0
C1432 C 0.50804 0.71559 0.84786 0.0
C1433 C 0.48973 0.72162 0.83815 0.0
C1434 C 0.47682 0.73612 0.84723 0.0
H1435 H 0.4256 0.72988 0.8883 0.0
H1436 H 0.43427 0.73112 0.86222 0.0
H1437 H 0.45105 0.72119 0.88174 0.0
H1438 H 0.50439 0.74554 0.8906 0.0
H1439 H 0.52708 0.72019 0.87478 0.0
H1440 H 0.23041 0.97956 0.64249 0.0
H1441 H 0.2571 1.00048 0.62697 0.0
H1442 H 0.24082 0.05088 0.66648 0.0
H1443 H 0.21493 0.02983 0.68297 0.0
H1444 H 0.25463 0.03451 0.60556 0.0
H1445 H 0.30158 0.05033 0.67423 0.0
H1446 H 0.28153 0.03127 0.67414 0.0
H1447 H 0.27547 0.05793 0.67824 0.0
C1448 C 0.23266 0.99492 0.64828 0.0
C1449 C 0.22038 1.00279 0.66425 0.0
C1450 C 0.24793 0.00695 0.6392 0.0
C1451 C 0.2513 0.02715 0.6458 0.0
C1452 C 0.23895 0.03516 0.66149 0.0
H1453 H 0.29991 0.12942 0.58071 0.0
H1454 H 0.28026 0.10033 0.59318 0.0
C1455 C 0.22384 0.0231 0.67073 0.0
C1456 C 0.26703 0.04019 0.63567 0.0
H1457 H 0.3065 0.07312 0.6456 0.0
C1458 C 0.26616 0.04273 0.6143 0.0
C1459 C 0.28244 0.05057 0.64692 0.0
C1460 C 0.28547 0.0472 0.66961 0.0
C1461 C 0.27956 0.05611 0.60404 0.0
C1462 C 0.29384 0.06776 0.61554 0.0
C1463 C 0.29539 0.06444 0.63676 0.0
C1464 C 0.30636 0.0844 0.6062 0.0
C1465 C 0.27824 0.05757 0.58099 0.0
C1466 C 0.32764 0.08541 0.60954 0.0
C1467 C 0.33896 0.10234 0.60272 0.0
C1468 C 0.32919 0.11858 0.5924 0.0
C1469 C 0.30801 0.11715 0.58845 0.0
C1470 C 0.29671 0.10038 0.59546 0.0
H1471 H 0.2727 0.04294 0.57424 0.0
H1472 H 0.26706 0.0697 0.57677 0.0
H1473 H 0.29332 0.06139 0.57408 0.0
H1474 H 0.33543 0.07332 0.61787 0.0
H1475 H 0.35523 0.10297 0.60604 0.0
H1476 H 0.53338 0.31186 0.8443 0.0
H1477 H 0.55518 0.28532 0.85922 0.0
H1478 H 0.5022 0.24704 0.86902 0.0
H1479 H 0.48024 0.27338 0.85384 0.0
H1480 H 0.52897 0.24958 0.9033 0.0
H1481 H 0.57079 0.23056 0.83174 0.0
H1482 H 0.57088 0.25739 0.83792 0.0
H1483 H 0.54708 0.24488 0.83181 0.0
C1484 C 0.52633 0.29774 0.84938 0.0
C1485 C 0.50501 0.29479 0.84769 0.0
C1486 C 0.53884 0.28258 0.85795 0.0
C1487 C 0.53034 0.2641 0.86495 0.0
C1488 C 0.50906 0.26118 0.86364 0.0
H1489 H 0.60884 0.15933 0.89413 0.0
H1490 H 0.58006 0.17998 0.88163 0.0
C1491 C 0.49652 0.27633 0.85503 0.0
C1492 C 0.5437 0.24795 0.8738 0.0
H1493 H 0.58474 0.21735 0.86282 0.0
C1494 C 0.54106 0.24238 0.89443 0.0
C1495 C 0.55923 0.23834 0.86211 0.0
C1496 C 0.5621 0.24292 0.83961 0.0
C1497 C 0.55407 0.22801 0.90388 0.0
C1498 C 0.57026 0.21919 0.89244 0.0
C1499 C 0.57239 0.2242 0.87162 0.0
C1500 C 0.58588 0.20557 0.90191 0.0
C1501 C 0.55039 0.22245 0.92602 0.0
C1502 C 0.5985 0.21296 0.9177 0.0
C1503 C 0.61492 0.2012 0.9249 0.0
C1504 C 0.61916 0.18185 0.91634 0.0
C1505 C 0.60599 0.17412 0.90111 0.0
C1506 C 0.58956 0.18593 0.89389 0.0
H1507 H 0.53423 0.22541 0.93057 0.0
H1508 H 0.554 0.20606 0.92894 0.0
H1509 H 0.56043 0.23197 0.93592 0.0
H1510 H 0.59622 0.22821 0.92386 0.0
H1511 H 0.62476 0.20766 0.93662 0.0
H1512 H 0.77405 0.03016 0.65896 0.0
H1513 H 0.74813 0.00787 0.64358 0.0
H1514 H 0.78833 0.9559 0.65094 0.0
H1515 H 0.81447 0.97804 0.66603 0.0
H1516 H 0.75094 0.98198 0.60835 0.0
H1517 H 0.73453 0.93811 0.67937 0.0
H1518 H 0.74803 0.96228 0.67956 0.0
H1519 H 0.76123 0.93908 0.67265 0.0
C1520 C 0.77752 0.01404 0.65717 0.0
C1521 C 0.7964 1.00593 0.6639 0.0
C1522 C 0.76261 1.00131 0.64845 0.0
C1523 C 0.7662 0.98021 0.6464 0.0
C1524 C 0.78509 0.97209 0.65277 0.0
H1525 H 0.70971 0.88594 0.57427 0.0
H1526 H 0.73029 0.91448 0.58698 0.0
C1527 C 0.80002 0.98479 0.66145 0.0
C1528 C 0.75025 0.96662 0.63756 0.0
H1529 H 0.7208 0.92473 0.64834 0.0
C1530 C 0.74421 0.96955 0.61711 0.0
C1531 C 0.74127 0.95063 0.64913 0.0
C1532 C 0.74642 0.94739 0.67146 0.0
C1533 C 0.72993 0.95643 0.60769 0.0
C1534 C 0.72168 0.93985 0.61899 0.0
C1535 C 0.72721 0.93738 0.63965 0.0
C1536 C 0.70803 0.92427 0.60956 0.0
C1537 C 0.72381 0.96042 0.58575 0.0
C1538 C 0.68859 0.92031 0.61794 0.0
C1539 C 0.67678 0.9039 0.61075 0.0
C1540 C 0.6843 0.89102 0.59518 0.0
C1541 C 0.70342 0.89556 0.58626 0.0
C1542 C 0.71519 0.91197 0.59343 0.0
H1543 H 0.72654 0.97666 0.58135 0.0
H1544 H 0.73316 0.9506 0.57548 0.0
H1545 H 0.70738 0.95673 0.58316 0.0
H1546 H 0.68282 0.92957 0.63046 0.0
H1547 H 0.66216 0.90083 0.61801 0.0
H1548 H 0.47668 0.73422 0.14431 0.0
H1549 H 0.49673 0.76142 0.1281 0.0
H1550 H 0.54789 0.74737 0.16765 0.0
H1551 H 0.52766 0.7212 0.18474 0.0
H1552 H 0.54392 0.78739 0.16352 0.0
H1553 H 0.54076 0.75135 0.08639 0.0
H1554 H 0.5162 0.75784 0.09699 0.0
H1555 H 0.53169 0.73848 0.1091 0.0
C1556 C 0.49206 0.73712 0.14983 0.0
C1557 C 0.50058 0.72522 0.16574 0.0
C1558 C 0.50363 0.75252 0.14031 0.0
C1559 C 0.52402 0.75613 0.14628 0.0
C1560 C 0.53226 0.74479 0.16261 0.0
H1561 H 0.6292 0.80048 0.08436 0.0
H1562 H 0.59925 0.78229 0.09722 0.0
C1563 C 0.52068 0.72962 0.17227 0.0
C1564 C 0.53718 0.77132 0.1355 0.0
H1565 H 0.55937 0.78209 0.08929 0.0
C1566 C 0.54718 0.78635 0.14724 0.0
C1567 C 0.54155 0.76984 0.11428 0.0
C1568 C 0.53215 0.75342 0.10095 0.0
C1569 C 0.56201 0.79936 0.13861 0.0
C1570 C 0.56644 0.79784 0.11741 0.0
C1571 C 0.55586 0.78335 0.10549 0.0
C1572 C 0.5835 0.80954 0.10779 0.0
C1573 C 0.57358 0.81375 0.15259 0.0
C1574 C 0.5844 0.83105 0.10879 0.0
C1575 C 0.60176 0.84154 0.1017 0.0
C1576 C 0.61833 0.83073 0.0931 0.0
C1577 C 0.61677 0.80932 0.09095 0.0
C1578 C 0.5996 0.79886 0.09829 0.0
H1579 H 0.57179 0.8095 0.16899 0.0
H1580 H 0.59019 0.81386 0.14886 0.0
H1581 H 0.56754 0.82954 0.15062 0.0
H1582 H 0.57192 0.83969 0.11549 0.0
H1583 H 0.60238 0.85805 0.10337 0.0
H1584 H 0.23957 0.03144 0.35324 0.0
H1585 H 0.26585 0.00948 0.3685 0.0
H1586 H 0.22671 0.95685 0.36042 0.0
H1587 H 0.2002 0.97866 0.34545 0.0
H1588 H 0.26323 0.98326 0.40349 0.0
H1589 H 0.28109 0.94026 0.33231 0.0
H1590 H 0.26714 0.96419 0.33218 0.0
H1591 H 0.2543 0.94071 0.33877 0.0
C1592 C 0.23641 0.01524 0.35484 0.0
C1593 C 0.21772 0.00685 0.34796 0.0
C1594 C 0.25153 1.0027 0.36349 0.0
C1595 C 0.24834 0.98152 0.3653 0.0
C1596 C 0.22964 0.97311 0.35877 0.0
H1597 H 0.30465 0.88738 0.43732 0.0
H1598 H 0.28412 0.91588 0.42441 0.0
C1599 C 0.2145 0.98563 0.35016 0.0
C1600 C 0.26446 0.96814 0.37417 0.0
H1601 H 0.29462 0.92674 0.36342 0.0
C1602 C 0.27025 0.97101 0.39471 0.0
C1603 C 0.27381 0.95239 0.36258 0.0
C1604 C 0.26895 0.94926 0.34018 0.0
C1605 C 0.28459 0.95799 0.40419 0.0
C1606 C 0.29318 0.94161 0.39286 0.0
C1607 C 0.28794 0.93925 0.37212 0.0
C1608 C 0.30677 0.92603 0.40239 0.0
C1609 C 0.29039 0.96187 0.42624 0.0
C1610 C 0.3264 0.92228 0.39437 0.0
C1611 C 0.3382 0.90589 0.40168 0.0
C1612 C 0.33045 0.89283 0.41698 0.0
C1613 C 0.3111 0.89713 0.42552 0.0
C1614 C 0.29937 0.91352 0.41825 0.0
H1615 H 0.28746 0.97805 0.4307 0.0
H1616 H 0.28098 0.95189 0.43631 0.0
H1617 H 0.30681 0.95828 0.42902 0.0
H1618 H 0.33235 0.93169 0.38206 0.0
H1619 H 0.35299 0.90298 0.39471 0.0
H1620 H 0.79322 0.99025 0.37453 0.0
H1621 H 0.76811 0.01323 0.39029 0.0
H1622 H 0.77052 0.05249 0.33714 0.0
H1623 H 0.79571 0.02966 0.32136 0.0
H1624 H 0.77365 0.07392 0.37258 0.0
H1625 H 0.70767 0.02041 0.37701 0.0
H1626 H 0.73054 0.01089 0.38905 0.0
H1627 H 0.73017 0.01508 0.36181 0.0
C1628 C 0.78821 1.00364 0.36609 0.0
C1629 C 0.79644 0.0081 0.34665 0.0
C1630 C 0.77381 0.01673 0.3751 0.0
C1631 C 0.76718 0.0344 0.36475 0.0
C1632 C 0.77538 0.0389 0.34537 0.0
H1633 H 0.66548 0.1157 0.39075 0.0
H1634 H 0.68784 0.08837 0.37806 0.0
C1635 C 0.78985 0.02589 0.33641 0.0
C1636 C 0.75239 0.04874 0.37444 0.0
H1637 H 0.70402 0.05229 0.39434 0.0
C1638 C 0.75842 0.06919 0.37731 0.0
C1639 C 0.73244 0.04259 0.38041 0.0
C1640 C 0.7247 0.0211 0.37676 0.0
C1641 C 0.74512 0.08365 0.38608 0.0
C1642 C 0.72539 0.07738 0.39261 0.0
C1643 C 0.71925 0.05697 0.38958 0.0
C1644 C 0.7107 0.09209 0.40184 0.0
C1645 C 0.75218 0.10564 0.38777 0.0
C1646 C 0.71572 0.10265 0.4199 0.0
C1647 C 0.70305 0.11834 0.42713 0.0
C1648 C 0.68498 0.12361 0.41655 0.0
C1649 C 0.6793 0.11206 0.39925 0.0
C1650 C 0.69207 0.09644 0.39195 0.0
H1651 H 0.76534 0.10888 0.37745 0.0
H1652 H 0.73953 0.11642 0.384 0.0
H1653 H 0.7572 0.10869 0.40374 0.0
H1654 H 0.72978 0.09918 0.42805 0.0
H1655 H 0.70777 0.12678 0.44064 0.0
H1656 H 0.98112 0.31048 0.92991 0.0
H1657 H 0.99524 0.31411 0.96437 0.0
H1658 H 0.97857 0.37806 0.9647 0.0
H1659 H 0.96394 0.37452 0.93023 0.0
H1660 H 0.01968 0.3692 0.97884 0.0
H1661 H 0.96089 0.3213 0.01747 0.0
H1662 H 0.9727 0.30941 0.99561 0.0
H1663 H 0.95719 0.33194 0.99217 0.0
C1664 C 0.98015 0.32529 0.93735 0.0
C1665 C 0.9711 0.34215 0.92733 0.0
C1666 C 0.98832 0.32734 0.95706 0.0
C1667 C 0.98766 0.34627 0.96721 0.0
C1668 C 0.97913 0.36328 0.95715 0.0
H1669 H 0.01333 0.35884 0.09827 0.0
H1670 H 0.99798 0.36202 0.06413 0.0
C1671 C 0.97086 0.36124 0.93741 0.0
C1672 C 0.99603 0.3482 0.9883 0.0
H1673 H 0.99056 0.32972 0.03699 0.0
C1674 C 0.01324 0.36071 0.99161 0.0
C1675 C 0.98745 0.3373 1.00497 0.0
C1676 C 0.96842 0.32436 1.0025 0.0
C1677 C 0.02251 0.36206 0.01104 0.0
C1678 C 0.01445 0.35045 0.02751 0.0
C1679 C 0.99683 0.33849 0.02433 0.0
C1680 C 0.02436 0.34997 0.04802 0.0
C1681 C 0.04083 0.37591 0.01379 0.0
C1682 C 0.0443 0.34216 0.05032 0.0
C1683 C 0.05313 0.34037 0.06978 0.0
C1684 C 0.04218 0.3463 0.08741 0.0
C1685 C 0.02231 0.35441 0.08502 0.0
C1686 C 0.01345 0.35612 0.06553 0.0
H1687 H 0.0416 0.38778 1.00159 0.0
H1688 H 0.04043 0.38364 0.02895 0.0
H1689 H 0.05506 0.3666 0.01297 0.0
H1690 H 0.05287 0.33699 0.03707 0.0
H1691 H 0.0685 0.33418 0.07106 0.0
H1692 H 0.8304 0.44403 0.44222 0.0
H1693 H 0.83306 0.45933 0.4764 0.0
H1694 H 0.86124 0.51311 0.45029 0.0
H1695 H 0.85828 0.49811 0.41599 0.0
H1696 H 0.86846 0.47441 0.49841 0.0
H1697 H 0.81073 0.53515 0.48232 0.0
H1698 H 0.81352 0.5127 0.46637 0.0
H1699 H 0.8316 0.53337 0.4644 0.0
C1700 C 0.83714 0.45913 0.44374 0.0
C1701 C 0.84401 0.46989 0.42634 0.0
C1702 C 0.83876 0.46779 0.46329 0.0
C1703 C 0.84714 0.48744 0.46585 0.0
C1704 C 0.85452 0.49802 0.44862 0.0
H1705 H 0.87598 0.54694 0.58316 0.0
H1706 H 0.87854 0.53174 0.54887 0.0
C1707 C 0.85298 0.48933 0.42905 0.0
C1708 C 0.84757 0.49703 0.48649 0.0
H1709 H 0.82686 0.536 0.51469 0.0
C1710 C 0.85947 0.48794 0.50198 0.0
C1711 C 0.83563 0.51454 0.49112 0.0
C1712 C 0.82199 0.52449 0.47528 0.0
C1713 C 0.85974 0.49593 0.52201 0.0
C1714 C 0.84791 0.51352 0.52659 0.0
C1715 C 0.83603 0.5226 0.51109 0.0
C1716 C 0.84678 0.52219 0.54761 0.0
C1717 C 0.87224 0.4852 0.53826 0.0
C1718 C 0.82808 0.52197 0.55821 0.0
C1719 C 0.82658 0.53052 0.57779 0.0
C1720 C 0.84373 0.53972 0.58717 0.0
C1721 C 0.86253 0.5398 0.57652 0.0
C1722 C 0.86402 0.53115 0.55691 0.0
H1723 H 0.87737 0.46976 0.53323 0.0
H1724 H 0.88605 0.4945 0.54178 0.0
H1725 H 0.86324 0.48359 0.55262 0.0
H1726 H 0.81461 0.51508 0.55134 0.0
H1727 H 0.81197 0.52977 0.58563 0.0
H1728 H 0.05536 0.69964 0.93916 0.0
H1729 H 0.04033 0.69665 0.9733 0.0
H1730 H 0.01907 0.63576 0.95887 0.0
H1731 H 0.03382 0.63873 0.92442 0.0
H1732 H 0.9976 0.68923 0.98109 0.0
H1733 H 0.04785 0.62945 0.0156 0.0
H1734 H 0.05535 0.64407 0.9933 0.0
H1735 H 0.03694 0.62377 0.9909 0.0
C1736 C 0.04746 0.6856 0.94317 0.0
C1737 C 0.04566 0.66948 0.92894 0.0
C1738 C 0.03899 0.68388 0.96276 0.0
C1739 C 0.0287 0.66595 0.96867 0.0
C1740 C 0.02723 0.64962 0.95473 0.0
H1741 H 0.96508 0.63895 0.08432 0.0
H1742 H 0.9802 0.6361 0.04996 0.0
C1743 C 0.03568 0.65134 0.93505 0.0
C1744 C 0.01857 0.665 0.98902 0.0
H1745 H 0.02047 0.64166 0.0359 0.0
C1746 C 1.00256 0.6788 0.99306 0.0
C1747 C 0.02494 0.65123 1.00452 0.0
C1748 C 0.0423 0.63634 1.00104 0.0
C1749 C 0.99286 0.67936 0.01225 0.0
C1750 C 0.99968 0.66609 0.02802 0.0
C1751 C 0.01533 0.65189 0.02383 0.0
C1752 C 0.99124 0.66738 0.04914 0.0
C1753 C 0.97528 0.69411 0.01539 0.0
C1754 C 0.9929 0.6857 0.06028 0.0
C1755 C 0.98429 0.68737 0.07981 0.0
C1756 C 0.97396 0.67068 0.08874 0.0
C1757 C 0.97294 0.65208 0.07786 0.0
C1758 C 0.98152 0.65044 0.05823 0.0
H1759 H 0.96806 0.6985 1.00059 0.0
H1760 H 0.96334 0.68739 0.0255 0.0
H1761 H 0.98114 0.7083 0.02273 0.0
H1762 H 1.00084 0.69879 0.05383 0.0
H1763 H 0.98582 0.70176 0.08796 0.0
H1764 H 0.15213 0.49732 0.5979 0.0
H1765 H 0.14897 0.51266 0.56377 0.0
H1766 H 0.17837 0.45975 0.53719 0.0
H1767 H 0.18124 0.44413 0.57119 0.0
H1768 H 0.18186 0.52208 0.53736 0.0
H1769 H 0.1273 0.46803 0.50071 0.0
H1770 H 0.13065 0.46955 0.52816 0.0
H1771 H 0.14896 0.45591 0.51272 0.0
C1772 C 0.15757 0.48876 0.58475 0.0
C1773 C 0.16689 0.46945 0.58728 0.0
C1774 C 0.15586 0.49761 0.56527 0.0
C1775 C 0.16321 0.48725 0.54791 0.0
C1776 C 0.17228 0.46788 0.55032 0.0
H1777 H 0.20165 0.53228 0.43028 0.0
H1778 H 0.19826 0.51771 0.46455 0.0
C1779 C 0.17409 0.45906 0.5698 0.0
C1780 C 0.16255 0.49721 0.52743 0.0
H1781 H 0.14465 0.49138 0.4785 0.0
C1782 C 0.17358 0.51546 0.52454 0.0
C1783 C 0.1516 0.48865 0.51076 0.0
C1784 C 0.13879 0.46955 0.51321 0.0
C1785 C 0.1745 0.52502 0.50527 0.0
C1786 C 0.16422 0.51603 0.48842 0.0
C1787 C 0.15264 0.49815 0.49143 0.0
C1788 C 0.16596 0.52466 0.46745 0.0
C1789 C 0.18651 0.54466 0.50304 0.0
C1790 C 0.1488 0.53306 0.45751 0.0
C1791 C 0.15071 0.54165 0.4379 0.0
C1792 C 0.16981 0.54186 0.42782 0.0
C1793 C 0.18682 0.53293 0.43772 0.0
C1794 C 0.18491 0.52447 0.4573 0.0
H1795 H 0.18942 0.55206 0.51811 0.0
H1796 H 0.20156 0.54124 0.49586 0.0
H1797 H 0.17827 0.55569 0.493 0.0
H1798 H 0.13401 0.53327 0.46507 0.0
H1799 H 0.13731 0.54847 0.43082 0.0
H1800 H 0.92913 0.96504 0.37349 0.0
H1801 H 0.96349 0.98001 0.37667 0.0
H1802 H 0.96248 0.99617 0.3126 0.0
H1803 H 0.92812 0.98172 0.30933 0.0
H1804 H 0.99886 0.97527 0.32597 0.0
H1805 H 0.97912 0.04203 0.37525 0.0
H1806 H 0.97036 0.01736 0.38394 0.0
H1807 H 0.96006 0.02808 0.36078 0.0
C1808 C 0.93611 0.972 0.36013 0.0
C1809 C 0.92584 0.97204 0.34112 0.0
C1810 C 0.95576 0.98052 0.36198 0.0
C1811 C 0.96547 0.9893 0.34489 0.0
C1812 C 0.95528 0.98942 0.32596 0.0
H1813 H 0.07067 0.06758 0.32937 0.0
H1814 H 0.03655 0.05211 0.33188 0.0
C1815 C 0.93566 0.981 0.32411 0.0
C1816 C 0.98647 0.99797 0.34645 0.0
H1817 H 0.01413 0.0374 0.3671 0.0
C1818 C 1.00225 0.98878 0.33505 0.0
C1819 C 0.99076 0.0157 0.35816 0.0
C1820 C 0.97421 0.02654 0.37015 0.0
C1821 C 0.02221 0.99689 0.33498 0.0
C1822 C 0.02654 0.01457 0.34678 0.0
C1823 C 0.01078 0.02375 0.35822 0.0
C1824 C 0.04713 0.0243 0.34654 0.0
C1825 C 0.03836 0.98684 0.32181 0.0
C1826 C 0.06434 0.01396 0.35433 0.0
C1827 C 0.08389 0.02274 0.35287 0.0
C1828 C 0.08658 0.04203 0.34358 0.0
C1829 C 0.06918 0.05258 0.33635 0.0
C1830 C 0.04965 0.04383 0.33789 0.0
H1831 H 0.03158 0.97596 0.3106 0.0
H1832 H 0.04734 0.99855 0.31332 0.0
H1833 H 0.04914 0.97819 0.33175 0.0
H1834 H 0.06269 0.99896 0.36127 0.0
H1835 H 0.09696 0.01413 0.35846 0.0
H1836 H 0.51409 0.41504 0.15151 0.0
H1837 H 0.49904 0.44917 0.14745 0.0
H1838 H 0.55158 0.47593 0.17743 0.0
H1839 H 0.56709 0.44201 0.18084 0.0
H1840 H 0.48821 0.47588 0.1779 0.0
H1841 H 0.54589 0.51223 0.12732 0.0
H1842 H 0.5448 0.48486 0.13133 0.0
H1843 H 0.55704 0.50117 0.14992 0.0
C1844 C 0.52267 0.42821 0.15683 0.0
C1845 C 0.54187 0.42575 0.16643 0.0
C1846 C 0.51396 0.44771 0.15464 0.0
C1847 C 0.5243 0.46516 0.16186 0.0
C1848 C 0.5435 0.46276 0.17133 0.0
H1849 H 0.4998 0.59228 0.18416 0.0
H1850 H 0.51366 0.55767 0.18039 0.0
C1851 C 0.55223 0.4433 0.17351 0.0
C1852 C 0.51454 0.48572 0.16059 0.0
H1853 H 0.52245 0.53486 0.14425 0.0
C1854 C 0.49555 0.48872 0.17031 0.0
C1855 C 0.52414 0.50247 0.15067 0.0
C1856 C 0.54399 0.50001 0.13904 0.0
C1857 C 0.4863 0.50817 0.17108 0.0
C1858 C 0.49618 0.52501 0.16163 0.0
C1859 C 0.51493 0.52193 0.15151 0.0
C1860 C 0.48784 0.54614 0.16303 0.0
C1861 C 0.46644 0.51071 0.18268 0.0
C1862 C 0.46886 0.55126 0.1542 0.0
C1863 C 0.46082 0.57106 0.1564 0.0
C1864 C 0.47165 0.58609 0.16749 0.0
C1865 C 0.4909 0.58099 0.17583 0.0
C1866 C 0.49892 0.56125 0.17357 0.0
H1867 H 0.46302 0.49722 0.19251 0.0
H1868 H 0.46694 0.52462 0.19248 0.0
H1869 H 0.45365 0.51256 0.1716 0.0
H1870 H 0.4602 0.5399 0.14574 0.0
H1871 H 0.44593 0.57446 0.14986 0.0
H1872 H 0.08535 0.96885 0.63694 0.0
H1873 H 0.05113 0.98422 0.63382 0.0
H1874 H 0.05091 0.99704 0.69864 0.0
H1875 H 0.08508 0.98211 0.70187 0.0
H1876 H 0.01512 0.97686 0.68405 0.0
H1877 H 0.03466 0.0457 0.63765 0.0
H1878 H 0.04359 0.02151 0.62788 0.0
H1879 H 0.05375 0.03119 0.65155 0.0
C1880 C 0.07814 0.9752 0.65048 0.0
C1881 C 0.08795 0.97409 0.66968 0.0
C1882 C 0.05857 0.98396 0.64866 0.0
C1883 C 0.04853 0.99186 0.66599 0.0
C1884 C 0.05836 0.99097 0.68509 0.0
H1885 H 0.94237 0.06878 0.68276 0.0
H1886 H 0.9767 0.05382 0.67996 0.0
C1887 C 0.07787 0.98229 0.68691 0.0
C1888 C 0.02747 1.00043 0.66454 0.0
H1889 H 0.99958 0.04033 0.64508 0.0
C1890 C 0.01168 0.99067 0.67544 0.0
C1891 C 0.0231 0.01856 0.65346 0.0
C1892 C 0.03964 0.03001 0.64206 0.0
C1893 C 0.99164 0.9986 0.67564 0.0
C1894 C 0.98721 0.01665 0.66444 0.0
C1895 C 1.00299 0.0264 0.65349 0.0
C1896 C 0.9665 0.02614 0.66481 0.0
C1897 C 0.97551 0.98792 0.68835 0.0
C1898 C 0.94942 0.01573 0.65684 0.0
C1899 C 0.92975 0.02419 0.65851 0.0
C1900 C 0.92679 0.04327 0.66816 0.0
C1901 C 0.94406 0.05393 0.67552 0.0
C1902 C 0.96371 0.04548 0.6738 0.0
H1903 H 0.98237 0.97691 0.6994 0.0
H1904 H 0.96617 0.99923 0.69699 0.0
H1905 H 0.96508 0.97927 0.67806 0.0
H1906 H 0.95128 1.0009 0.64961 0.0
H1907 H 0.91681 0.01549 0.6528 0.0
H1908 H 0.51585 0.59665 0.85605 0.0
H1909 H 0.50046 0.56252 0.85882 0.0
H1910 H 0.55544 0.53558 0.83387 0.0
H1911 H 0.57111 0.56959 0.83142 0.0
H1912 H 0.49341 0.53531 0.82606 0.0
H1913 H 0.54385 0.50021 0.88499 0.0
H1914 H 0.54245 0.52758 0.88089 0.0
H1915 H 0.55733 0.51176 0.86392 0.0
C1916 C 0.52484 0.58344 0.85152 0.0
C1917 C 0.54476 0.58587 0.84358 0.0
C1918 C 0.51596 0.56395 0.853 0.0
C1919 C 0.52688 0.54648 0.84678 0.0
C1920 C 0.54685 0.5488 0.83908 0.0
H1921 H 0.48367 0.42753 0.80909 0.0
H1922 H 0.49821 0.46187 0.8121 0.0
C1923 C 0.55571 0.56828 0.8375 0.0
C1924 C 0.51698 0.52596 0.84722 0.0
H1925 H 0.52163 0.47755 0.86681 0.0
C1926 C 0.49949 0.52272 0.83508 0.0
C1927 C 0.52482 0.5096 0.85915 0.0
C1928 C 0.54304 0.51243 0.87314 0.0
C1929 C 0.48999 0.50342 0.83408 0.0
C1930 C 0.49829 0.48687 0.8454 0.0
C1931 C 0.5154 0.49023 0.85802 0.0
C1932 C 0.48965 0.46587 0.84386 0.0
C1933 C 0.47113 0.50085 0.82091 0.0
C1934 C 0.48035 0.45653 0.86086 0.0
C1935 C 0.47179 0.43689 0.85916 0.0
C1936 C 0.47251 0.42616 0.84044 0.0
C1937 C 0.48231 0.43547 0.8236 0.0
C1938 C 0.49075 0.4551 0.82529 0.0
H1939 H 0.46395 0.51584 0.81712 0.0
H1940 H 0.47548 0.49324 0.80634 0.0
H1941 H 0.45958 0.49107 0.82871 0.0
H1942 H 0.47941 0.46458 0.87536 0.0
H1943 H 0.46427 0.43029 0.87241 0.0
H1944 H 0.33253 0.07102 0.06657 0.0
H1945 H 0.33605 0.03695 0.05123 0.0
H1946 H 0.36175 0.06403 0.99669 0.0
H1947 H 0.358 0.09822 0.01181 0.0
H1948 H 0.32913 0.036 0.98947 0.0
H1949 H 0.38848 1.00266 0.04064 0.0
H1950 H 0.36716 0.01417 0.05378 0.0
H1951 H 0.38399 0.02994 0.03872 0.0
C1952 C 0.33901 0.06973 0.05134 0.0
C1953 C 0.345 0.08735 0.04043 0.0
C1954 C 0.3412 0.05023 0.04267 0.0
C1955 C 0.34941 0.04793 0.02292 0.0
C1956 C 0.35554 0.06545 0.01203 0.0
H1957 H 0.37624 0.93092 0.96189 0.0
H1958 H 0.37917 0.96553 0.97634 0.0
C1959 C 0.35349 0.08497 0.02074 0.0
C1960 C 0.35041 0.02736 0.01321 0.0
H1961 H 0.37077 0.97936 0.01869 0.0
C1962 C 0.33837 0.02367 0.99575 0.0
C1963 C 0.3626 0.01134 0.02132 0.0
C1964 C 0.37645 0.01469 0.03954 0.0
C1965 C 0.33768 1.00419 0.98659 0.0
C1966 C 0.34923 0.98796 0.99519 0.0
C1967 C 0.36181 0.9918 0.01223 0.0
C1968 C 0.34781 0.96675 0.98707 0.0
C1969 C 0.32451 1.00107 0.96782 0.0
C1970 C 0.32936 0.95584 0.98872 0.0
C1971 C 0.32768 0.93606 0.98069 0.0
C1972 C 0.34443 0.92672 0.97073 0.0
C1973 C 0.36307 0.93756 0.96952 0.0
C1974 C 0.36476 0.95737 0.97768 0.0
H1975 H 0.32047 0.01586 0.96037 0.0
H1976 H 0.33243 0.99117 0.95646 0.0
H1977 H 0.31004 0.99333 0.97235 0.0
H1978 H 0.31621 0.96266 0.99626 0.0
H1979 H 0.31325 0.92803 0.98243 0.0
H1980 H 0.42777 0.13685 0.54498 0.0
H1981 H 0.4621 0.13372 0.52991 0.0
H1982 H 0.46199 0.19832 0.51599 0.0
H1983 H 0.42765 0.20156 0.5305 0.0
H1984 H 0.4761 0.14512 0.48862 0.0
H1985 H 0.51511 0.18852 0.55064 0.0
H1986 H 0.48986 0.17753 0.55368 0.0
H1987 H 0.49309 0.20107 0.53975 0.0
C1988 C 0.43496 0.15036 0.53854 0.0
C1989 C 0.42499 0.16951 0.53922 0.0
C1990 C 0.45461 0.14855 0.53001 0.0
C1991 C 0.46469 0.16585 0.52214 0.0
C1992 C 0.45464 0.18485 0.52236 0.0
H1993 H 0.56942 0.18235 0.44319 0.0
H1994 H 0.53518 0.17905 0.45822 0.0
C1995 C 0.43502 0.18667 0.53076 0.0
C1996 C 0.48576 0.16423 0.51373 0.0
H1997 H 0.53468 0.18163 0.5207 0.0
C1998 C 0.48897 0.15296 0.49569 0.0
C1999 C 0.50254 0.17428 0.52312 0.0
C2000 C 0.50012 0.1859 0.54297 0.0
C2001 C 0.50842 0.15204 0.48641 0.0
C2002 C 0.52501 0.1628 0.49537 0.0
C2003 C 0.52192 0.17351 0.51377 0.0
C2004 C 0.54561 0.16362 0.48569 0.0
C2005 C 0.51108 0.13954 0.46715 0.0
C2006 C 0.56289 0.15625 0.49623 0.0
C2007 C 0.5825 0.15822 0.48773 0.0
C2008 C 0.58524 0.16781 0.4686 0.0
C2009 C 0.56785 0.175 0.458 0.0
C2010 C 0.54825 0.17293 0.46647 0.0
H2011 H 0.49863 0.12806 0.46533 0.0
H2012 H 0.51066 0.14992 0.45366 0.0
H2013 H 0.52607 0.13145 0.46715 0.0
H2014 H 0.56121 0.14918 0.51116 0.0
H2015 H 0.59556 0.1528 0.49645 0.0
H2016 H 0.70151 0.08399 0.98088 0.0
H2017 H 0.69847 0.04943 0.99491 0.0
H2018 H 0.63517 0.04705 0.9759 0.0
H2019 H 0.63815 0.08161 0.96136 0.0
H2020 H 0.64306 0.03332 0.01737 0.0
H2021 H 0.69415 0.99606 0.96041 0.0
H2022 H 0.70491 0.01833 0.97255 0.0
H2023 H 0.68282 0.021 0.95626 0.0
C2024 C 0.68699 0.07607 0.97938 0.0
C2025 C 0.67015 0.08554 0.96971 0.0
C2026 C 0.68527 0.05632 0.98749 0.0
C2027 C 0.6667 0.04557 0.98616 0.0
C2028 C 0.64968 0.05507 0.97699 0.0
H2029 H 0.65637 0.91432 0.01135 0.0
H2030 H 0.65325 0.94841 0.9959 0.0
C2031 C 0.6514 0.07485 0.96878 0.0
C2032 C 0.66513 0.02445 0.9945 0.0
H2033 H 0.68521 0.97631 0.98973 0.0
C2034 C 0.65214 0.0208 0.01125 0.0
C2035 C 0.67682 0.0081 0.98633 0.0
C2036 C 0.69034 0.01094 0.96778 0.0
C2037 C 0.65103 1.00134 0.02049 0.0
C2038 C 0.66339 0.98521 0.01285 0.0
C2039 C 0.67587 0.98872 0.99567 0.0
C2040 C 0.66401 0.96469 0.02271 0.0
C2041 C 0.63663 0.9982 0.0383 0.0
C2042 C 0.67113 0.96252 0.04291 0.0
C2043 C 0.67288 0.94308 0.0518 0.0
C2044 C 0.6676 0.92537 0.04065 0.0
C2045 C 0.66027 0.92763 0.02047 0.0
C2046 C 0.6586 0.94709 0.01157 0.0
H2047 H 0.62443 0.0101 0.0387 0.0
H2048 H 0.62929 0.98285 0.03759 0.0
H2049 H 0.64543 0.99919 0.05283 0.0
H2050 H 0.67574 0.97585 0.05168 0.0
H2051 H 0.67845 0.9419 0.0674 0.0
H2052 H 0.44313 0.83212 0.44432 0.0
H2053 H 0.47715 0.83401 0.46014 0.0
H2054 H 0.45054 0.86046 0.51453 0.0
H2055 H 0.41638 0.85828 0.49898 0.0
H2056 H 0.49928 0.86859 0.47685 0.0
H2057 H 0.48185 0.80878 0.5351 0.0
H2058 H 0.46624 0.81257 0.51253 0.0
H2059 H 0.46413 0.82988 0.53382 0.0
C2060 C 0.4445 0.83834 0.45966 0.0
C2061 C 0.427 0.84493 0.47043 0.0
C2062 C 0.46397 0.83951 0.46862 0.0
C2063 C 0.46633 0.84714 0.48859 0.0
C2064 C 0.44901 0.8543 0.49918 0.0
H2065 H 0.58332 0.87266 0.55027 0.0
H2066 H 0.54903 0.8759 0.53515 0.0
C2067 C 0.42952 0.85322 0.4902 0.0
C2068 C 0.48686 0.84699 0.49847 0.0
H2069 H 0.51442 0.82444 0.53695 0.0
C2070 C 0.50259 0.85904 0.49005 0.0
C2071 C 0.49117 0.83433 0.51556 0.0
C2072 C 0.47505 0.8205 0.52475 0.0
C2073 C 0.52254 0.85877 0.4983 0.0
C2074 C 0.5268 0.84621 0.51547 0.0
C2075 C 0.51106 0.83417 0.52388 0.0
C2076 C 0.54771 0.84457 0.52437 0.0
C2077 C 0.53906 0.87148 0.48827 0.0
C2078 C 0.55824 0.82584 0.52351 0.0
C2079 C 0.57784 0.82395 0.53202 0.0
C2080 C 0.5873 0.84072 0.5418 0.0
C2081 C 0.57665 0.8595 0.54265 0.0
C2082 C 0.55703 0.86138 0.53404 0.0
H2083 H 0.53427 0.87721 0.47295 0.0
H2084 H 0.54256 0.88491 0.49811 0.0
H2085 H 0.55338 0.86241 0.48653 0.0
H2086 H 0.55135 0.81268 0.51608 0.0
H2087 H 0.58567 0.80937 0.53068 0.0
H2088 H 0.0916 0.29674 0.23341 0.0
H2089 H 0.10067 0.26561 0.25215 0.0
H2090 H 0.08674 0.22918 0.19877 0.0
H2091 H 0.0778 0.2604 0.17975 0.0
H2092 H 0.07717 0.22991 0.26048 0.0
H2093 H 0.14626 0.21299 0.21327 0.0
H2094 H 0.13356 0.23758 0.21267 0.0
H2095 H 0.12254 0.21605 0.19952 0.0
C2096 C 0.09037 0.28211 0.22565 0.0
C2097 C 0.08409 0.28103 0.20506 0.0
C2098 C 0.09553 0.26434 0.2364 0.0
C2099 C 0.09463 0.24514 0.22677 0.0
C2100 C 0.08785 0.2439 0.20638 0.0
H2101 H 0.1392 0.12796 0.27549 0.0
H2102 H 0.12213 0.15351 0.2539 0.0
C2103 C 0.08264 0.26172 0.19558 0.0
C2104 C 0.10124 0.2266 0.23814 0.0
H2105 H 0.13897 0.19032 0.24036 0.0
C2106 C 0.09059 0.22114 0.25601 0.0
C2107 C 0.11872 0.21518 0.23222 0.0
C2108 C 0.13108 0.22075 0.21347 0.0
C2109 C 0.09713 0.20473 0.26833 0.0
C2110 C 0.115 0.19375 0.26279 0.0
C2111 C 0.12527 0.19878 0.24456 0.0
C2112 C 0.12406 0.17787 0.27631 0.0
C2113 C 0.08487 0.19934 0.28718 0.0
C2114 C 0.13085 0.18311 0.29604 0.0
C2115 C 0.14051 0.16855 0.30843 0.0
C2116 C 0.1437 0.14845 0.30132 0.0
C2117 C 0.13671 0.14318 0.28159 0.0
C2118 C 0.12707 0.1578 0.26917 0.0
H2119 H 0.06874 0.20473 0.2859 0.0
H2120 H 0.08482 0.18253 0.2899 0.0
H2121 H 0.09184 0.20691 0.30073 0.0
H2122 H 0.12905 0.19861 0.30172 0.0
H2123 H 0.14557 0.17306 0.32358 0.0
H2124 H 0.79791 0.42129 0.27884 0.0
H2125 H 0.76754 0.41108 0.25947 0.0
H2126 H 0.72953 0.42332 0.31217 0.0
H2127 H 0.75996 0.43382 0.33168 0.0
H2128 H 0.74182 0.37853 0.27054 0.0
H2129 H 0.69837 0.45175 0.26499 0.0
H2130 H 0.72531 0.45087 0.27145 0.0
H2131 H 0.70637 0.44432 0.29031 0.0
C2132 C 0.78308 0.42209 0.28626 0.0
C2133 C 0.78133 0.42836 0.3068 0.0
C2134 C 0.76573 0.41623 0.27516 0.0
C2135 C 0.74627 0.41659 0.28431 0.0
C2136 C 0.74437 0.42327 0.30469 0.0
H2137 H 0.62906 0.3718 0.23594 0.0
H2138 H 0.65551 0.38699 0.2579 0.0
C2139 C 0.76177 0.42918 0.31584 0.0
C2140 C 0.72834 0.40858 0.27283 0.0
H2141 H 0.68235 0.42209 0.25155 0.0
C2142 C 0.72881 0.38805 0.2664 0.0
C2143 C 0.71131 0.421 0.26764 0.0
C2144 C 0.71025 0.44326 0.27379 0.0
C2145 C 0.71284 0.37964 0.25473 0.0
C2146 C 0.69608 0.39218 0.24903 0.0
C2147 C 0.69528 0.41257 0.25589 0.0
C2148 C 0.67967 0.38445 0.23534 0.0
C2149 C 0.71399 0.35734 0.24865 0.0
C2150 C 0.68439 0.37853 0.21523 0.0
C2151 C 0.66935 0.36995 0.20264 0.0
C2152 C 0.64921 0.36719 0.20986 0.0
C2153 C 0.64434 0.37384 0.22981 0.0
C2154 C 0.65945 0.38244 0.24242 0.0
H2155 H 0.72482 0.34865 0.25854 0.0
H2156 H 0.69865 0.34998 0.24952 0.0
H2157 H 0.7195 0.3562 0.2326 0.0
H2158 H 0.69983 0.38032 0.20934 0.0
H2159 H 0.67351 0.36538 0.18724 0.0
H2160 H 0.83918 0.84193 0.30337 0.0
H2161 H 0.85535 0.81609 0.28171 0.0
H2162 H 0.90769 0.85559 0.27325 0.0
H2163 H 0.89177 0.88146 0.29543 0.0
H2164 H 0.86844 0.8202 0.24035 0.0
H2165 H 0.93257 0.80051 0.29321 0.0
H2166 H 0.91009 0.81434 0.3016 0.0
H2167 H 0.92955 0.82721 0.28701 0.0
C2168 C 0.85423 0.84507 0.29716 0.0
C2169 C 0.86426 0.86371 0.30131 0.0
C2170 C 0.86338 0.83034 0.28463 0.0
C2171 C 0.88278 0.83385 0.27607 0.0
C2172 C 0.8928 0.85249 0.27994 0.0
H2173 H 0.93294 0.75265 0.18089 0.0
H2174 H 0.92283 0.78345 0.19993 0.0
C2175 C 0.88362 0.86731 0.29246 0.0
C2176 C 0.89231 0.81788 0.26305 0.0
H2177 H 0.93133 0.78296 0.26165 0.0
C2178 C 0.8823 0.81216 0.24488 0.0
C2179 C 0.91027 0.80735 0.26915 0.0
C2180 C 0.92124 0.81248 0.28887 0.0
C2181 C 0.88959 0.79593 0.23278 0.0
C2182 C 0.90749 0.78533 0.23893 0.0
C2183 C 0.91769 0.79125 0.25693 0.0
C2184 C 0.91496 0.76707 0.22769 0.0
C2185 C 0.87764 0.78973 0.21394 0.0
C2186 C 0.91443 0.74779 0.2372 0.0
C2187 C 0.92023 0.73024 0.22642 0.0
C2188 C 0.92678 0.73166 0.20595 0.0
C2189 C 0.9279 0.75107 0.19663 0.0
C2190 C 0.92205 0.76865 0.20744 0.0
H2191 H 0.86217 0.7969 0.21351 0.0
H2192 H 0.88613 0.79464 0.20005 0.0
H2193 H 0.87583 0.77281 0.21327 0.0
H2194 H 0.90905 0.74628 0.25284 0.0
H2195 H 0.91925 0.71551 0.23404 0.0
H2196 H 0.38637 0.63326 0.23644 0.0
H2197 H 0.35997 0.61955 0.25939 0.0
H2198 H 0.31374 0.63185 0.21373 0.0
H2199 H 0.33979 0.64582 0.19091 0.0
H2200 H 0.32347 0.6392 0.27443 0.0
H2201 H 0.3057 0.57054 0.22756 0.0
H2202 H 0.32887 0.58534 0.2242 0.0
H2203 H 0.30506 0.59413 0.21338 0.0
C2204 C 0.37059 0.6332 0.23132 0.0
C2205 C 0.36529 0.64048 0.21169 0.0
C2206 C 0.35554 0.62525 0.24442 0.0
C2207 C 0.33499 0.62432 0.23807 0.0
C2208 C 0.3296 0.63196 0.21872 0.0
H2209 H 0.2156 0.59372 0.28161 0.0
H2210 H 0.24663 0.60304 0.26279 0.0
C2211 C 0.34456 0.63992 0.20567 0.0
C2212 C 0.31895 0.61575 0.25168 0.0
H2213 H 0.28156 0.57917 0.25369 0.0
C2214 C 0.31447 0.6259 0.2701 0.0
C2215 C 0.3073 0.59839 0.24593 0.0
C2216 C 0.31206 0.58633 0.22678 0.0
C2217 C 0.29794 0.61973 0.28247 0.0
C2218 C 0.28587 0.60275 0.27637 0.0
C2219 C 0.2908 0.59222 0.25828 0.0
C2220 C 0.26733 0.59641 0.28787 0.0
C2221 C 0.29297 0.63196 0.30147 0.0
C2222 C 0.26873 0.58923 0.30811 0.0
C2223 C 0.25098 0.58388 0.31894 0.0
C2224 C 0.23158 0.58555 0.30965 0.0
C2225 C 0.23031 0.59229 0.28922 0.0
C2226 C 0.24802 0.59761 0.27843 0.0
H2227 H 0.30108 0.64693 0.30173 0.0
H2228 H 0.2762 0.6348 0.30258 0.0
H2229 H 0.29773 0.62313 0.31521 0.0
H2230 H 0.28352 0.58784 0.31555 0.0
H2231 H 0.25245 0.57869 0.33465 0.0
H2232 H 0.10501 0.7129 0.78463 0.0
H2233 H 0.11521 0.74356 0.76561 0.0
H2234 H 0.08578 0.78173 0.81081 0.0
H2235 H 0.0756 0.75105 0.83014 0.0
H2236 H 0.07758 0.78997 0.76495 0.0
H2237 H 0.15966 0.78651 0.78821 0.0
H2238 H 0.14825 0.76286 0.77969 0.0
H2239 H 0.13945 0.77458 0.80296 0.0
C2240 C 0.10063 0.7278 0.79052 0.0
C2241 C 0.08954 0.72957 0.80892 0.0
C2242 C 0.10652 0.74528 0.77966 0.0
C2243 C 0.10137 0.76484 0.78693 0.0
C2244 C 0.08994 0.76672 0.80504 0.0
H2245 H 0.15055 0.87992 0.73836 0.0
H2246 H 0.1365 0.85375 0.76146 0.0
C2247 C 0.08415 0.74921 0.81603 0.0
C2248 C 0.10813 0.78325 0.77554 0.0
H2249 H 0.15095 0.8101 0.76192 0.0
C2250 C 0.09357 0.79452 0.7644 0.0
C2251 C 0.12898 0.78915 0.77503 0.0
C2252 C 0.14505 0.77778 0.7872 0.0
C2253 C 0.0995 0.81121 0.75213 0.0
C2254 C 0.12046 0.81664 0.75104 0.0
C2255 C 0.1349 0.80581 0.76275 0.0
C2256 C 0.12787 0.83295 0.73712 0.0
C2257 C 0.0834 0.82283 0.74027 0.0
C2258 C 0.12769 0.82983 0.71585 0.0
C2259 C 0.13579 0.84465 0.70268 0.0
C2260 C 0.14409 0.86292 0.71053 0.0
C2261 C 0.14399 0.86613 0.73185 0.0
C2262 C 0.13608 0.85118 0.74505 0.0
H2263 H 0.06767 0.81943 0.74587 0.0
H2264 H 0.08613 0.83961 0.74133 0.0
H2265 H 0.08428 0.81845 0.72385 0.0
H2266 H 0.12161 0.81574 0.70948 0.0
H2267 H 0.13559 0.84184 0.68632 0.0
H2268 H 0.33847 0.36709 0.82495 0.0
H2269 H 0.31258 0.38299 0.80301 0.0
H2270 H 0.35781 0.39145 0.75556 0.0
H2271 H 0.38366 0.37489 0.77712 0.0
H2272 H 0.3111 0.42181 0.78494 0.0
H2273 H 0.31213 0.36016 0.72604 0.0
H2274 H 0.32393 0.35712 0.75089 0.0
H2275 H 0.33652 0.37184 0.7313 0.0
C2276 C 0.34291 0.37219 0.8098 0.0
C2277 C 0.36313 0.3695 0.80277 0.0
C2278 C 0.32812 0.38142 0.79734 0.0
C2279 C 0.33319 0.38811 0.77754 0.0
C2280 C 0.35348 0.38606 0.77066 0.0
H2281 H 0.25104 0.43466 0.68157 0.0
H2282 H 0.28195 0.42615 0.70129 0.0
C2283 C 0.36832 0.3768 0.78312 0.0
C2284 C 0.31703 0.39689 0.76411 0.0
H2285 H 0.29009 0.38816 0.72004 0.0
C2286 C 0.30657 0.41452 0.77069 0.0
C2287 C 0.31119 0.38738 0.7455 0.0
C2288 C 0.32137 0.36799 0.73802 0.0
C2289 C 0.29027 0.42278 0.75927 0.0
C2290 C 0.28409 0.41296 0.74095 0.0
C2291 C 0.29491 0.39567 0.73407 0.0
C2292 C 0.26562 0.41953 0.72939 0.0
C2293 C 0.27979 0.44193 0.76692 0.0
C2294 C 0.24622 0.41858 0.73864 0.0
C2295 C 0.22858 0.42337 0.72744 0.0
C2296 C 0.23 0.42916 0.70673 0.0
C2297 C 0.24947 0.43037 0.69754 0.0
C2298 C 0.26713 0.42548 0.70876 0.0
H2299 H 0.28986 0.45078 0.77743 0.0
H2300 H 0.27515 0.45199 0.75398 0.0
H2301 H 0.26578 0.43757 0.77553 0.0
H2302 H 0.24465 0.4136 0.75441 0.0
H2303 H 0.21381 0.42219 0.73494 0.0
H2304 H 0.93225 0.26005 0.83353 0.0
H2305 H 0.92345 0.2293 0.81376 0.0
H2306 H 0.91085 0.2669 0.76083 0.0
H2307 H 0.91976 0.29758 0.78035 0.0
H2308 H 0.88562 0.22104 0.79499 0.0
H2309 H 0.94826 0.2221 0.7376 0.0
H2310 H 0.94933 0.23671 0.7611 0.0
H2311 H 0.93483 0.24606 0.73956 0.0
C2312 C 0.92784 0.26172 0.81761 0.0
C2313 C 0.92677 0.28122 0.80847 0.0
C2314 C 0.92279 0.24416 0.80636 0.0
C2315 C 0.9168 0.2458 0.78575 0.0
C2316 C 0.91586 0.26524 0.77658 0.0
H2317 H 0.86457 0.17345 0.68994 0.0
H2318 H 0.88025 0.19926 0.71208 0.0
C2319 C 0.92084 0.28278 0.78781 0.0
C2320 C 0.91034 0.22739 0.77407 0.0
H2321 H 0.91942 0.20074 0.72995 0.0
C2322 C 0.89317 0.21639 0.78092 0.0
C2323 C 0.92023 0.2214 0.75573 0.0
C2324 C 0.93931 0.23206 0.74814 0.0
C2325 C 0.88502 0.20011 0.76942 0.0
C2326 C 0.89457 0.19448 0.75077 0.0
C2327 C 0.91211 0.20512 0.74423 0.0
C2328 C 0.88591 0.1784 0.73724 0.0
C2329 C 0.86576 0.18966 0.77686 0.0
C2330 C 0.88423 0.158 0.74389 0.0
C2331 C 0.8751 0.14321 0.7313 0.0
C2332 C 0.86757 0.14855 0.71179 0.0
C2333 C 0.86987 0.16889 0.70499 0.0
C2334 C 0.87897 0.18364 0.71757 0.0
H2335 H 0.85792 0.19865 0.78902 0.0
H2336 H 0.85484 0.18722 0.76402 0.0
H2337 H 0.86978 0.17445 0.78333 0.0
H2338 H 0.88979 0.15356 0.7589 0.0
H2339 H 0.87348 0.12775 0.73711 0.0
H2340 H 0.67326 0.67364 0.80185 0.0
H2341 H 0.69911 0.65773 0.77998 0.0
H2342 H 0.66089 0.6042 0.7734 0.0
H2343 H 0.63493 0.61997 0.79569 0.0
H2344 H 0.70323 0.59602 0.78338 0.0
H2345 H 0.69518 0.64882 0.71718 0.0
H2346 H 0.69839 0.66158 0.74138 0.0
H2347 H 0.6758 0.64645 0.73683 0.0
C2348 C 0.67035 0.65844 0.79589 0.0
C2349 C 0.65204 0.64804 0.80057 0.0
C2350 C 0.68506 0.64946 0.78319 0.0
C2351 C 0.68179 0.62991 0.77488 0.0
C2352 C 0.66361 0.61938 0.77957 0.0
H2353 H 0.76367 0.57973 0.68102 0.0
H2354 H 0.73294 0.58931 0.70039 0.0
C2355 C 0.64878 0.62843 0.7922 0.0
C2356 C 0.69773 0.62037 0.76178 0.0
H2357 H 0.72512 0.62774 0.7178 0.0
C2358 C 0.70789 0.60279 0.76893 0.0
C2359 C 0.7036 0.62911 0.74283 0.0
C2360 C 0.69256 0.64742 0.73396 0.0
C2361 C 0.72436 0.59421 0.758 0.0
C2362 C 0.73092 0.6036 0.73958 0.0
C2363 C 0.72019 0.62067 0.73202 0.0
C2364 C 0.74936 0.5965 0.72831 0.0
C2365 C 0.73467 0.57523 0.7663 0.0
C2366 C 0.76878 0.5974 0.73757 0.0
C2367 C 0.78635 0.59199 0.72655 0.0
C2368 C 0.78483 0.58561 0.70602 0.0
C2369 C 0.76534 0.58448 0.69684 0.0
C2370 C 0.74777 0.58998 0.70786 0.0
H2371 H 0.7245 0.56677 0.77704 0.0
H2372 H 0.73926 0.56475 0.7537 0.0
H2373 H 0.74869 0.57974 0.77483 0.0
H2374 H 0.77041 0.60278 0.7532 0.0
H2375 H 0.80115 0.59312 0.73402 0.0
H2376 H 0.18028 0.07825 0.25935 0.0
H2377 H 0.19985 0.08706 0.22847 0.0
H2378 H 0.2533 0.09884 0.26562 0.0
H2379 H 0.23398 0.08997 0.29643 0.0
H2380 H 0.21885 0.12504 0.2207 0.0
H2381 H 0.27576 0.06191 0.21995 0.0
H2382 H 0.25235 0.06074 0.23471 0.0
H2383 H 0.27409 0.07485 0.24418 0.0
C2384 C 0.19628 0.08245 0.26089 0.0
C2385 C 0.20562 0.08336 0.28031 0.0
C2386 C 0.20741 0.08751 0.24325 0.0
C2387 C 0.2281 0.09332 0.24473 0.0
C2388 C 0.23748 0.09399 0.26408 0.0
H2389 H 0.32387 0.14576 0.1725 0.0
H2390 H 0.30179 0.1298 0.19818 0.0
C2391 C 0.22637 0.08903 0.28169 0.0
C2392 C 0.23961 0.09999 0.22631 0.0
H2393 H 0.28343 0.09109 0.19908 0.0
C2394 C 0.23281 0.11747 0.21574 0.0
C2395 C 0.25782 0.09008 0.21995 0.0
C2396 C 0.26536 0.07074 0.23016 0.0
C2397 C 0.24425 0.12587 0.19955 0.0
C2398 C 0.26277 0.11627 0.19354 0.0
C2399 C 0.26925 0.09844 0.20374 0.0
C2400 C 0.27624 0.12515 0.17752 0.0
C2401 C 0.23689 0.14546 0.18964 0.0
C2402 C 0.26935 0.12751 0.15727 0.0
C2403 C 0.28189 0.13681 0.14256 0.0
C2404 C 0.30162 0.14384 0.14782 0.0
C2405 C 0.30865 0.14087 0.168 0.0
C2406 C 0.29611 0.1316 0.18267 0.0
H2407 H 0.22496 0.15325 0.19898 0.0
H2408 H 0.24983 0.15625 0.18723 0.0
H2409 H 0.23012 0.14186 0.17445 0.0
H2410 H 0.25419 0.12231 0.15288 0.0
H2411 H 0.27589 0.13894 0.12724 0.0
H2412 H 0.67796 0.22626 0.35285 0.0
H2413 H 0.66231 0.24825 0.3268 0.0
H2414 H 0.60215 0.22907 0.34682 0.0
H2415 H 0.618 0.20791 0.37369 0.0
H2416 H 0.64134 0.23769 0.29555 0.0
H2417 H 0.59204 0.28881 0.34197 0.0
H2418 H 0.61097 0.27218 0.35339 0.0
H2419 H 0.58618 0.26229 0.34619 0.0
C2420 C 0.6614 0.22698 0.35177 0.0
C2421 C 0.64911 0.21545 0.36513 0.0
C2422 C 0.65244 0.23953 0.33693 0.0
C2423 C 0.631 0.24055 0.3349 0.0
C2424 C 0.61868 0.22906 0.34839 0.0
H2425 H 0.57834 0.27829 0.21808 0.0
H2426 H 0.58894 0.25902 0.24846 0.0
C2427 C 0.62769 0.21686 0.3636 0.0
C2428 C 0.62183 0.25248 0.31774 0.0
H2429 H 0.58613 0.28898 0.3058 0.0
C2430 C 0.62936 0.249 0.29787 0.0
C2431 C 0.60635 0.26744 0.3207 0.0
C2432 C 0.59857 0.27307 0.34174 0.0
C2433 C 0.62194 0.25998 0.28095 0.0
C2434 C 0.60577 0.27422 0.28373 0.0
C2435 C 0.59828 0.27783 0.3036 0.0
C2436 C 0.59693 0.28589 0.26626 0.0
C2437 C 0.63204 0.2566 0.26039 0.0
C2438 C 0.59656 0.30744 0.26662 0.0
C2439 C 0.5899 0.31848 0.24946 0.0
C2440 C 0.58375 0.30813 0.23161 0.0
C2441 C 0.58328 0.28661 0.23157 0.0
C2442 C 0.58949 0.2756 0.24886 0.0
H2443 H 0.64785 0.25045 0.26212 0.0
H2444 H 0.62304 0.24522 0.25151 0.0
H2445 H 0.63285 0.27105 0.25142 0.0
H2446 H 0.60209 0.31573 0.27991 0.0
H2447 H 0.59045 0.33507 0.24985 0.0
H2448 H 0.83206 0.93342 0.25952 0.0
H2449 H 0.81258 0.92388 0.22881 0.0
H2450 H 0.75851 0.91485 0.26579 0.0
H2451 H 0.77779 0.92443 0.29647 0.0
H2452 H 0.79283 0.88587 0.22262 0.0
H2453 H 0.73769 0.95046 0.21786 0.0
H2454 H 0.76103 0.95176 0.23276 0.0
H2455 H 0.7389 0.9387 0.24274 0.0
C2456 C 0.81595 0.92968 0.26106 0.0
C2457 C 0.80644 0.92971 0.2804 0.0
C2458 C 0.80486 0.9242 0.24352 0.0
C2459 C 0.78405 0.91892 0.245 0.0
C2460 C 0.77445 0.91926 0.26425 0.0
H2461 H 0.70599 0.8429 0.17258 0.0
H2462 H 0.72865 0.8588 0.1978 0.0
C2463 C 0.78553 0.92462 0.28178 0.0
C2464 C 0.77263 0.91168 0.22674 0.0
H2465 H 0.72961 0.92055 0.19816 0.0
C2466 C 0.77915 0.89358 0.2171 0.0
C2467 C 0.75492 0.92188 0.21944 0.0
C2468 C 0.74779 0.94189 0.22859 0.0
C2469 C 0.76791 0.88493 0.20092 0.0
C2470 C 0.7496 0.89455 0.19436 0.0
C2471 C 0.74356 0.91312 0.20337 0.0
C2472 C 0.73601 0.88501 0.17887 0.0
C2473 C 0.77558 0.86544 0.1911 0.0
C2474 C 0.73235 0.89469 0.16 0.0
C2475 C 0.7193 0.88566 0.14554 0.0
C2476 C 0.70948 0.86694 0.14984 0.0
C2477 C 0.7131 0.85742 0.16886 0.0
C2478 C 0.72622 0.86637 0.18321 0.0
H2479 H 0.79219 0.86299 0.19408 0.0
H2480 H 0.76707 0.8522 0.19755 0.0
H2481 H 0.77299 0.86569 0.17427 0.0
H2482 H 0.73966 0.90918 0.15645 0.0
H2483 H 0.71665 0.89344 0.13113 0.0
H2484 H 0.43501 0.67901 0.25277 0.0
H2485 H 0.42533 0.69783 0.28387 0.0
H2486 H 0.40783 0.74988 0.24701 0.0
H2487 H 0.41753 0.7313 0.21596 0.0
H2488 H 0.4318 0.75954 0.28286 0.0
H2489 H 0.36456 0.70966 0.29967 0.0
H2490 H 0.38883 0.69699 0.2962 0.0
H2491 H 0.37701 0.7099 0.27495 0.0
C2492 C 0.42923 0.69452 0.25132 0.0
C2493 C 0.42693 0.70365 0.23192 0.0
C2494 C 0.42363 0.7052 0.26908 0.0
C2495 C 0.41567 0.72515 0.26768 0.0
C2496 C 0.41391 0.73448 0.24839 0.0
H2497 H 0.34071 0.80135 0.34208 0.0
H2498 H 0.3567 0.77884 0.31686 0.0
C2499 C 0.41941 0.72382 0.23067 0.0
C2500 C 0.40862 0.73629 0.28617 0.0
H2501 H 0.37055 0.73727 0.3221 0.0
C2502 C 0.41856 0.75459 0.29162 0.0
C2503 C 0.39122 0.72982 0.29739 0.0
C2504 C 0.37962 0.71061 0.29177 0.0
C2505 C 0.41132 0.76682 0.30779 0.0
C2506 C 0.39378 0.76047 0.31885 0.0
C2507 C 0.38409 0.74198 0.31366 0.0
C2508 C 0.38422 0.77367 0.33466 0.0
C2509 C 0.42193 0.78685 0.31239 0.0
C2510 C 0.39432 0.77804 0.35316 0.0
C2511 C 0.38522 0.79102 0.36764 0.0
C2512 C 0.36591 0.79988 0.3638 0.0
C2513 C 0.35575 0.79514 0.34537 0.0
C2514 C 0.36479 0.78213 0.331 0.0
H2515 H 0.43318 0.79108 0.30032 0.0
H2516 H 0.41054 0.79942 0.3139 0.0
H2517 H 0.43025 0.78554 0.32719 0.0
H2518 H 0.40924 0.77146 0.35636 0.0
H2519 H 0.39342 0.79442 0.38166 0.0
H2520 H 0.32506 0.86545 0.83804 0.0
H2521 H 0.30196 0.87975 0.81224 0.0
H2522 H 0.25481 0.88686 0.858 0.0
H2523 H 0.27772 0.87222 0.88392 0.0
H2524 H 0.2622 0.86212 0.80251 0.0
H2525 H 0.25734 0.94356 0.82775 0.0
H2526 H 0.27816 0.92691 0.83539 0.0
H2527 H 0.25334 0.92407 0.84689 0.0
C2528 C 0.3098 0.87006 0.84266 0.0
C2529 C 0.30325 0.86759 0.86305 0.0
C2530 C 0.29666 0.87834 0.82792 0.0
C2531 C 0.27676 0.88448 0.83326 0.0
C2532 C 0.27025 0.8825 0.85366 0.0
H2533 H 0.18003 0.93151 0.75196 0.0
H2534 H 0.19914 0.92058 0.78253 0.0
C2535 C 0.28339 0.87416 0.86846 0.0
C2536 C 0.26257 0.89172 0.81709 0.0
H2537 H 0.23791 0.93414 0.7987 0.0
C2538 C 0.25682 0.87784 0.80171 0.0
C2539 C 0.25541 0.91217 0.81627 0.0
C2540 C 0.26141 0.92766 0.83235 0.0
C2541 C 0.24436 0.88394 0.78529 0.0
C2542 C 0.23786 0.9046 0.78399 0.0
C2543 C 0.24303 0.91835 0.79972 0.0
C2544 C 0.22658 0.9123 0.76584 0.0
C2545 C 0.23826 0.86821 0.76944 0.0
C2546 C 0.23589 0.91172 0.74647 0.0
C2547 C 0.22508 0.9179 0.72907 0.0
C2548 C 0.20476 0.92493 0.73071 0.0
C2549 C 0.19566 0.92614 0.75022 0.0
C2550 C 0.20653 0.91991 0.76768 0.0
H2551 H 0.23946 0.85236 0.77557 0.0
H2552 H 0.22231 0.87081 0.76403 0.0
H2553 H 0.24869 0.86944 0.75606 0.0
H2554 H 0.2515 0.90626 0.74478 0.0
H2555 H 0.23258 0.91691 0.71429 0.0
H2556 H 0.42062 0.27848 0.79911 0.0
H2557 H 0.4104 0.25842 0.7692 0.0
H2558 H 0.42061 0.31091 0.73029 0.0
H2559 H 0.43121 0.33106 0.7602 0.0
H2560 H 0.37759 0.26709 0.74386 0.0
H2561 H 0.45023 0.26512 0.69931 0.0
H2562 H 0.44938 0.27232 0.72602 0.0
H2563 H 0.44166 0.29027 0.70659 0.0
C2564 C 0.42094 0.28571 0.78416 0.0
C2565 C 0.42675 0.30634 0.782 0.0
C2566 C 0.41508 0.27422 0.76709 0.0
C2567 C 0.41493 0.2831 0.74749 0.0
C2568 C 0.421 0.30363 0.74521 0.0
H2569 H 0.36978 0.23463 0.63093 0.0
H2570 H 0.38424 0.25665 0.65765 0.0
C2571 C 0.42696 0.31515 0.76232 0.0
C2572 C 0.4072 0.2711 0.72978 0.0
H2573 H 0.42076 0.25102 0.68333 0.0
C2574 C 0.38705 0.26356 0.73064 0.0
C2575 C 0.41952 0.26665 0.71249 0.0
C2576 C 0.44146 0.27384 0.71102 0.0
C2577 C 0.3789 0.25161 0.71474 0.0
C2578 C 0.39132 0.24683 0.69764 0.0
C2579 C 0.41133 0.25469 0.69652 0.0
C2580 C 0.38385 0.2332 0.68109 0.0
C2581 C 0.35699 0.24429 0.71629 0.0
C2582 C 0.37934 0.21261 0.68532 0.0
C2583 C 0.37122 0.19996 0.67009 0.0
C2584 C 0.36747 0.20761 0.65027 0.0
C2585 C 0.37262 0.22813 0.64592 0.0
C2586 C 0.3808 0.24079 0.6612 0.0
H2587 H 0.3481 0.25329 0.72771 0.0
H2588 H 0.34914 0.24533 0.70121 0.0
H2589 H 0.35688 0.228 0.72119 0.0
H2590 H 0.38194 0.20638 0.7005 0.0
H2591 H 0.36782 0.18416 0.67385 0.0
H2592 H 0.8331 0.07782 0.75317 0.0
H2593 H 0.81378 0.08694 0.78412 0.0
H2594 H 0.75976 0.09747 0.74739 0.0
H2595 H 0.77882 0.08827 0.71653 0.0
H2596 H 0.79502 0.12475 0.79138 0.0
H2597 H 0.73793 0.06193 0.79438 0.0
H2598 H 0.76109 0.06035 0.77926 0.0
H2599 H 0.73918 0.07419 0.76977 0.0
C2600 C 0.81702 0.08177 0.75175 0.0
C2601 C 0.80746 0.08228 0.73243 0.0
C2602 C 0.80603 0.08701 0.76942 0.0
C2603 C 0.78527 0.0926 0.76808 0.0
C2604 C 0.77564 0.09278 0.74884 0.0
H2605 H 0.70958 0.17079 0.84026 0.0
H2606 H 0.73219 0.15426 0.81547 0.0
C2607 C 0.7866 0.08764 0.73119 0.0
C2608 C 0.77398 0.09977 0.78645 0.0
H2609 H 0.73015 0.09206 0.81405 0.0
C2610 C 0.78099 0.11744 0.79653 0.0
C2611 C 0.75581 0.09009 0.79329 0.0
C2612 C 0.74815 0.07047 0.78375 0.0
C2613 C 0.76979 0.12625 0.81265 0.0
C2614 C 0.75098 0.11727 0.81865 0.0
C2615 C 0.74447 0.09904 0.80926 0.0
C2616 C 0.73735 0.12716 0.83389 0.0
C2617 C 0.77805 0.14523 0.82297 0.0
C2618 C 0.73237 0.11718 0.85229 0.0
C2619 C 0.71929 0.12656 0.86649 0.0
C2620 C 0.71076 0.14596 0.86239 0.0
C2621 C 0.71567 0.15577 0.84382 0.0
C2622 C 0.7288 0.14645 0.82973 0.0
H2623 H 0.79487 0.14679 0.82069 0.0
H2624 H 0.77055 0.15895 0.81625 0.0
H2625 H 0.77478 0.14503 0.83967 0.0
H2626 H 0.73869 0.1022 0.8557 0.0
H2627 H 0.71562 0.11853 0.88053 0.0
H2628 H 0.57658 0.73419 0.79465 0.0
H2629 H 0.58523 0.75473 0.76451 0.0
H2630 H 0.60439 0.69989 0.73275 0.0
H2631 H 0.59448 0.67923 0.76246 0.0
H2632 H 0.62014 0.76118 0.7494 0.0
H2633 H 0.57424 0.72624 0.68745 0.0
H2634 H 0.57003 0.7201 0.71407 0.0
H2635 H 0.5899 0.70729 0.69972 0.0
C2636 C 0.58224 0.72652 0.78104 0.0
C2637 C 0.58477 0.70516 0.78077 0.0
C2638 C 0.58722 0.73825 0.76383 0.0
C2639 C 0.59524 0.72892 0.74614 0.0
C2640 C 0.59761 0.70748 0.74585 0.0
H2641 H 0.67765 0.79265 0.66452 0.0
H2642 H 0.66125 0.77174 0.69094 0.0
C2643 C 0.5921 0.69567 0.7629 0.0
C2644 C 0.60286 0.74181 0.7289 0.0
H2645 H 0.60303 0.7468 0.67674 0.0
C2646 C 0.61613 0.75814 0.73354 0.0
C2647 C 0.59747 0.73818 0.70816 0.0
C2648 C 0.58195 0.72214 0.70209 0.0
C2649 C 0.62449 0.77057 0.71814 0.0
C2650 C 0.62031 0.76601 0.69733 0.0
C2651 C 0.60658 0.75008 0.69265 0.0
C2652 C 0.63027 0.77745 0.68031 0.0
C2653 C 0.63745 0.78869 0.72448 0.0
C2654 C 0.61846 0.78661 0.66475 0.0
C2655 C 0.62793 0.79811 0.64928 0.0
C2656 C 0.64929 0.80084 0.64932 0.0
C2657 C 0.66111 0.79114 0.66448 0.0
C2658 C 0.65173 0.7793 0.67962 0.0
H2659 H 0.63325 0.79415 0.74007 0.0
H2660 H 0.65381 0.78402 0.72495 0.0
H2661 H 0.63577 0.80168 0.71361 0.0
H2662 H 0.6019 0.78523 0.66482 0.0
H2663 H 0.61857 0.80542 0.63767 0.0
H2664 H 0.25933 0.17927 0.07884 0.0
H2665 H 0.22828 0.19826 0.08841 0.0
H2666 H 0.26472 0.25233 0.0994 0.0
H2667 H 0.29569 0.23358 0.08979 0.0
H2668 H 0.22098 0.21695 0.12656 0.0
H2669 H 0.21752 0.2739 0.0636 0.0
H2670 H 0.23267 0.25075 0.062 0.0
H2671 H 0.24218 0.27264 0.07582 0.0
C2672 C 0.26066 0.19529 0.08302 0.0
C2673 C 0.27994 0.20496 0.0835 0.0
C2674 C 0.24293 0.20609 0.08851 0.0
C2675 C 0.24417 0.22677 0.09433 0.0
C2676 C 0.26336 0.2365 0.09456 0.0
H2677 H 0.17134 0.30247 0.17194 0.0
H2678 H 0.19626 0.27977 0.1557 0.0
C2679 C 0.28107 0.22572 0.08917 0.0
C2680 C 0.2257 0.23793 0.1015 0.0
H2681 H 0.19764 0.28145 0.09358 0.0
C2682 C 0.21569 0.2309 0.1192 0.0
C2683 C 0.21868 0.256 0.09175 0.0
C2684 C 0.22818 0.26369 0.07212 0.0
C2685 C 0.19944 0.24199 0.12795 0.0
C2686 C 0.19323 0.26069 0.11887 0.0
C2687 C 0.20258 0.26721 0.10063 0.0
C2688 C 0.17783 0.27421 0.12868 0.0
C2689 C 0.18921 0.23373 0.14698 0.0
C2690 C 0.15936 0.27895 0.11867 0.0
C2691 C 0.14509 0.29207 0.12789 0.0
C2692 C 0.14918 0.30088 0.14715 0.0
C2693 C 0.16779 0.29616 0.15702 0.0
C2694 C 0.18196 0.28299 0.14786 0.0
H2695 H 0.19171 0.21696 0.14867 0.0
H2696 H 0.19581 0.24142 0.16065 0.0
H2697 H 0.17245 0.2368 0.14673 0.0
H2698 H 0.15599 0.27246 0.10376 0.0
H2699 H 0.131 0.29558 0.11983 0.0
H2700 H 0.3006 0.77955 0.91923 0.0
H2701 H 0.26976 0.7604 0.90985 0.0
H2702 H 0.23223 0.81229 0.92635 0.0
H2703 H 0.26308 0.83169 0.93557 0.0
H2704 H 0.23514 0.7502 0.93362 0.0
H2705 H 0.21434 0.79956 0.86719 0.0
H2706 H 0.23928 0.80053 0.8792 0.0
H2707 H 0.21765 0.81261 0.89123 0.0
C2708 C 0.28579 0.78688 0.92095 0.0
C2709 C 0.28427 0.80716 0.92806 0.0
C2710 C 0.26818 0.77591 0.91558 0.0
C2711 C 0.24874 0.78503 0.91711 0.0
C2712 C 0.24711 0.8051 0.9247 0.0
H2713 H 0.12939 0.73401 0.88083 0.0
H2714 H 0.15608 0.75664 0.89455 0.0
C2715 C 0.26474 0.8161 0.93009 0.0
C2716 C 0.23029 0.77341 0.91065 0.0
H2717 H 0.19211 0.77205 0.87475 0.0
C2718 C 0.22567 0.75502 0.92081 0.0
C2719 C 0.21792 0.77979 0.89398 0.0
C2720 C 0.22256 0.79911 0.88211 0.0
C2721 C 0.20915 0.7427 0.91462 0.0
C2722 C 0.19714 0.74878 0.8976 0.0
C2723 C 0.20137 0.76745 0.88779 0.0
C2724 C 0.18092 0.73534 0.88905 0.0
C2725 C 0.20469 0.72326 0.92634 0.0
C2726 C 0.18612 0.7161 0.88101 0.0
C2727 C 0.17098 0.70324 0.87305 0.0
C2728 C 0.15027 0.70933 0.87289 0.0
C2729 C 0.14516 0.72885 0.88058 0.0
C2730 C 0.16037 0.74176 0.88853 0.0
H2731 H 0.21132 0.72372 0.94203 0.0
H2732 H 0.18791 0.72056 0.92755 0.0
H2733 H 0.21162 0.71007 0.91813 0.0
H2734 H 0.20196 0.71107 0.88079 0.0
H2735 H 0.1756 0.68857 0.86683 0.0
H2736 H 0.33215 0.25112 0.58114 0.0
H2737 H 0.31296 0.28158 0.59212 0.0
H2738 H 0.26029 0.24378 0.60513 0.0
H2739 H 0.27932 0.21336 0.59444 0.0
H2740 H 0.27456 0.29815 0.57825 0.0
H2741 H 0.27166 0.27367 0.65962 0.0
H2742 H 0.28894 0.26227 0.64125 0.0
H2743 H 0.26246 0.25459 0.64204 0.0
C2744 C 0.31644 0.24934 0.58623 0.0
C2745 C 0.30728 0.22983 0.58708 0.0
C2746 C 0.30552 0.26674 0.59248 0.0
C2747 C 0.28535 0.26486 0.59975 0.0
C2748 C 0.27598 0.2455 0.59994 0.0
H2749 H 0.18811 0.33818 0.64783 0.0
H2750 H 0.21052 0.31212 0.63298 0.0
C2751 C 0.28686 0.22814 0.59374 0.0
C2752 C 0.27407 0.28296 0.60755 0.0
H2753 H 0.24969 0.30126 0.65006 0.0
C2754 C 0.26929 0.29899 0.59399 0.0
C2755 C 0.26737 0.28403 0.62814 0.0
C2756 C 0.27302 0.26783 0.64368 0.0
C2757 C 0.25716 0.31567 0.6003 0.0
C2758 C 0.24988 0.31634 0.6207 0.0
C2759 C 0.25518 0.3006 0.63438 0.0
C2760 C 0.23604 0.33273 0.62812 0.0
C2761 C 0.2516 0.33209 0.58498 0.0
C2762 C 0.24293 0.35301 0.63017 0.0
C2763 C 0.23017 0.36797 0.6388 0.0
C2764 C 0.21034 0.36282 0.64563 0.0
C2765 C 0.20338 0.34258 0.64303 0.0
C2766 C 0.21612 0.32769 0.63445 0.0
H2767 H 0.2554 0.3275 0.56903 0.0
H2768 H 0.23496 0.33568 0.58584 0.0
H2769 H 0.26019 0.34631 0.58863 0.0
H2770 H 0.25839 0.35713 0.62567 0.0
H2771 H 0.23611 0.38332 0.64081 0.0
H2772 H 0.88128 0.27711 0.8726 0.0
H2773 H 0.85441 0.25541 0.88731 0.0
H2774 H 0.81114 0.30512 0.88194 0.0
H2775 H 0.83791 0.327 0.8675 0.0
H2776 H 0.82772 0.26181 0.92272 0.0
H2777 H 0.78528 0.25699 0.84903 0.0
H2778 H 0.81164 0.26535 0.85058 0.0
H2779 H 0.79121 0.28263 0.85717 0.0
C2780 C 0.86615 0.28356 0.87483 0.0
C2781 C 0.8617 0.30378 0.86869 0.0
C2782 C 0.8508 0.27109 0.88316 0.0
C2783 C 0.83076 0.27859 0.88539 0.0
C2784 C 0.82644 0.29894 0.87997 0.0
H2785 H 0.7121 0.2339 0.92059 0.0
H2786 H 0.74225 0.25387 0.91087 0.0
C2787 C 0.84174 0.3114 0.87168 0.0
C2788 C 0.81411 0.26506 0.89282 0.0
H2789 H 0.76833 0.24415 0.87851 0.0
C2790 C 0.81478 0.25779 0.91306 0.0
C2791 C 0.79735 0.25981 0.8801 0.0
C2792 C 0.79633 0.26642 0.85795 0.0
C2793 C 0.79868 0.24597 0.92117 0.0
C2794 C 0.7817 0.24109 0.90855 0.0
C2795 C 0.7813 0.24803 0.88819 0.0
C2796 C 0.76386 0.22924 0.91615 0.0
C2797 C 0.79963 0.23934 0.94331 0.0
C2798 C 0.76604 0.20878 0.92248 0.0
C2799 C 0.74879 0.1973 0.92812 0.0
C2800 C 0.7291 0.20609 0.92735 0.0
C2801 C 0.72705 0.22668 0.92135 0.0
C2802 C 0.74426 0.23812 0.91578 0.0
H2803 H 0.81124 0.24819 0.95209 0.0
H2804 H 0.78446 0.24121 0.95082 0.0
H2805 H 0.80388 0.22289 0.94405 0.0
H2806 H 0.78098 0.20151 0.92251 0.0
H2807 H 0.75083 0.18142 0.93255 0.0
H2808 H 0.73606 0.79822 0.5896 0.0
H2809 H 0.75587 0.76815 0.59992 0.0
H2810 H 0.70311 0.72964 0.58952 0.0
H2811 H 0.68317 0.75972 0.57889 0.0
H2812 H 0.746 0.74302 0.63305 0.0
H2813 H 0.7495 0.69817 0.56064 0.0
H2814 H 0.74278 0.72504 0.56119 0.0
H2815 H 0.72428 0.70602 0.56857 0.0
C2816 C 0.72872 0.78332 0.58921 0.0
C2817 C 0.70805 0.78133 0.58341 0.0
C2818 C 0.74007 0.76616 0.59514 0.0
C2819 C 0.73103 0.74664 0.59532 0.0
C2820 C 0.7105 0.74451 0.58913 0.0
H2821 H 0.77928 0.63015 0.64152 0.0
H2822 H 0.7573 0.65662 0.62643 0.0
C2823 C 0.69911 0.76171 0.58315 0.0
C2824 C 0.74278 0.72891 0.60338 0.0
H2825 H 0.76331 0.68248 0.59037 0.0
C2826 C 0.74979 0.72979 0.62371 0.0
C2827 C 0.74753 0.7116 0.59121 0.0
C2828 C 0.7408 0.71011 0.56913 0.0
C2829 C 0.76156 0.71391 0.63217 0.0
C2830 C 0.76674 0.69682 0.61988 0.0
C2831 C 0.75935 0.69566 0.5997 0.0
C2832 C 0.78038 0.6804 0.62766 0.0
C2833 C 0.76828 0.71548 0.65427 0.0
C2834 C 0.80077 0.68489 0.63283 0.0
C2835 C 0.81339 0.66982 0.64133 0.0
C2836 C 0.80591 0.64989 0.64479 0.0
C2837 C 0.78563 0.64525 0.63893 0.0
C2838 C 0.773 0.66038 0.63039 0.0
H2839 H 0.75885 0.72671 0.66294 0.0
H2840 H 0.76729 0.70035 0.66202 0.0
H2841 H 0.78449 0.72066 0.65484 0.0
H2842 H 0.80687 0.70016 0.63047 0.0
H2843 H 0.82902 0.6738 0.64526 0.0
H2844 H 0.8826 0.73661 0.14264 0.0
H2845 H 0.85592 0.7588 0.1282 0.0
H2846 H 0.81246 0.70915 0.13184 0.0
H2847 H 0.83903 0.68679 0.14593 0.0
H2848 H 0.8292 0.75295 0.09213 0.0
H2849 H 0.78665 0.75696 0.16574 0.0
H2850 H 0.81308 0.74878 0.16419 0.0
H2851 H 0.79278 0.73144 0.15737 0.0
C2852 C 0.86748 0.73029 0.14008 0.0
C2853 C 0.86292 0.70992 0.14563 0.0
C2854 C 0.85222 0.74304 0.13191 0.0
C2855 C 0.83218 0.73568 0.12927 0.0
C2856 C 0.82777 0.71521 0.13412 0.0
H2857 H 0.71329 0.77926 0.09389 0.0
H2858 H 0.74373 0.75998 0.10415 0.0
C2859 C 0.84296 0.70247 0.14222 0.0
C2860 C 0.8156 0.74942 0.12197 0.0
H2861 H 0.76966 0.76999 0.13632 0.0
C2862 C 0.81625 0.75686 0.10179 0.0
C2863 C 0.79881 0.75453 0.13469 0.0
C2864 C 0.79778 0.74769 0.15677 0.0
C2865 C 0.80005 0.76864 0.09372 0.0
C2866 C 0.78301 0.77332 0.10631 0.0
C2867 C 0.78268 0.76628 0.12665 0.0
C2868 C 0.76495 0.78488 0.09866 0.0
C2869 C 0.80096 0.77534 0.0716 0.0
C2870 C 0.76677 0.8053 0.09206 0.0
C2871 C 0.74934 0.81639 0.08609 0.0
C2872 C 0.72981 0.80726 0.0868 0.0
C2873 C 0.72811 0.78674 0.09317 0.0
C2874 C 0.74549 0.7757 0.09906 0.0
H2875 H 0.81268 0.76664 0.06282 0.0
H2876 H 0.78583 0.77335 0.06404 0.0
H2877 H 0.80505 0.79184 0.07092 0.0
H2878 H 0.78158 0.81283 0.092 0.0
H2879 H 0.75112 0.83222 0.08139 0.0
H2880 H 0.21741 0.6326 0.39476 0.0
H2881 H 0.24001 0.65811 0.4107 0.0
H2882 H 0.23126 0.69825 0.3589 0.0
H2883 H 0.20917 0.67277 0.34271 0.0
H2884 H 0.2728 0.6937 0.3716 0.0
H2885 H 0.22062 0.71311 0.43628 0.0
H2886 H 0.22662 0.6864 0.43289 0.0
H2887 H 0.2119 0.69961 0.41374 0.0
C2888 C 0.22041 0.64681 0.38673 0.0
C2889 C 0.21134 0.6507 0.36754 0.0
C2890 C 0.23317 0.66142 0.39593 0.0
C2891 C 0.23709 0.68015 0.38607 0.0
C2892 C 0.22833 0.68393 0.3668 0.0
H2893 H 0.27966 0.79822 0.42203 0.0
H2894 H 0.26072 0.76736 0.41241 0.0
C2895 C 0.21555 0.66941 0.35765 0.0
C2896 C 0.25031 0.69595 0.39564 0.0
H2897 H 0.25218 0.73065 0.4348 0.0
C2898 C 0.26843 0.70166 0.38553 0.0
C2899 C 0.24442 0.70637 0.41371 0.0
C2900 C 0.22477 0.70125 0.42479 0.0
C2901 C 0.28066 0.71781 0.39281 0.0
C2902 C 0.2747 0.72834 0.4108 0.0
C2903 C 0.25676 0.7224 0.42111 0.0
C2904 C 0.28599 0.74663 0.41816 0.0
C2905 C 0.29941 0.72403 0.38074 0.0
C2906 C 0.30635 0.74512 0.42502 0.0
C2907 C 0.31725 0.76277 0.43055 0.0
C2908 C 0.30791 0.78217 0.42932 0.0
C2909 C 0.28731 0.78351 0.42308 0.0
C2910 C 0.27644 0.76589 0.41762 0.0
H2911 H 0.29974 0.71686 0.36529 0.0
H2912 H 0.30003 0.74095 0.37892 0.0
H2913 H 0.31339 0.71914 0.38914 0.0
H2914 H 0.31389 0.73034 0.42581 0.0
H2915 H 0.33309 0.76125 0.43533 0.0
H2916 H 0.67867 0.25404 0.43754 0.0
H2917 H 0.69745 0.28516 0.42783 0.0
H2918 H 0.75174 0.24903 0.41677 0.0
H2919 H 0.73325 0.218 0.42662 0.0
H2920 H 0.75932 0.28642 0.43764 0.0
H2921 H 0.71204 0.29706 0.36734 0.0
H2922 H 0.69822 0.29555 0.39113 0.0
H2923 H 0.71189 0.27352 0.38188 0.0
C2924 C 0.69468 0.25278 0.43328 0.0
C2925 C 0.70445 0.23356 0.43271 0.0
C2926 C 0.70534 0.27054 0.42764 0.0
C2927 C 0.72589 0.26932 0.42131 0.0
C2928 C 0.73588 0.25028 0.42156 0.0
H2929 H 0.80171 0.34086 0.34312 0.0
H2930 H 0.77971 0.31605 0.36036 0.0
C2931 C 0.72526 0.23256 0.42716 0.0
C2932 C 0.73689 0.28759 0.41345 0.0
H2933 H 0.73863 0.32076 0.37298 0.0
C2934 C 0.7547 0.29412 0.42364 0.0
C2935 C 0.7309 0.29739 0.39504 0.0
C2936 C 0.71232 0.2905 0.38306 0.0
C2937 C 0.76695 0.30995 0.41567 0.0
C2938 C 0.76105 0.31962 0.39717 0.0
C2939 C 0.743 0.31338 0.38723 0.0
C2940 C 0.77425 0.33505 0.38697 0.0
C2941 C 0.78654 0.31561 0.42663 0.0
C2942 C 0.77835 0.35408 0.39615 0.0
C2943 C 0.7911 0.36831 0.38636 0.0
C2944 C 0.79994 0.36375 0.36721 0.0
C2945 C 0.79552 0.34476 0.358 0.0
C2946 C 0.78278 0.3306 0.36776 0.0
H2947 H 0.79079 0.30415 0.4385 0.0
H2948 H 0.79941 0.31702 0.41557 0.0
H2949 H 0.78453 0.33067 0.43427 0.0
H2950 H 0.77168 0.35792 0.41086 0.0
H2951 H 0.79426 0.38275 0.3939 0.0
loop_
_geom_bond_atom_site_label_1
_geom_bond_atom_site_label_2
_geom_bond_distance
_geom_bond_site_symmetry_2
_ccdc_geom_bond_type
Co0 N4 2.148 . S
Co0 N10 2.128 . S
Co0 N20 2.194 . S
Co0 O25 2.351 . S
Co0 O26 2.155 . S
Co0 O27 2.096 . S
C1 N4 1.301 . S
C1 N5 1.328 . S
C1 H6 0.930 . S
C2 C3 1.333 . S
C2 N4 1.317 . S
C2 H7 0.930 . S
C3 C2 1.333 . S
C3 N5 1.350 . S
C3 H29 0.931 . S
N4 Co0 2.148 . S
N4 C1 1.301 . S
N4 C2 1.317 . S
N5 C1 1.328 . S
N5 C3 1.350 . S
H6 C1 0.930 . S
H7 C2 0.930 . S
C8 O9 1.224 . S
C8 O27 1.247 . S
O9 C8 1.224 . S
N10 Co0 2.128 . S
N10 C11 1.355 . S
N10 C13 1.311 . S
C11 N10 1.355 . S
C11 C12 1.363 . S
C11 H23 0.929 . S
C12 C11 1.363 . S
C12 N14 1.375 . S
C12 H30 0.892 1_455 S
C13 N10 1.311 . S
C13 N14 1.347 . S
C13 H24 0.929 . S
N14 C12 1.375 . S
N14 C13 1.347 . S
C15 C18 1.365 . S
C15 N20 1.328 . S
C15 H21 0.929 . S
C16 C17 1.362 . S
C16 C19 1.378 . S
C16 H31 0.929 . S
C17 C16 1.362 . S
C17 C18 1.366 . S
C18 C15 1.365 . S
C18 C17 1.366 . S
C18 H32 0.930 . S
C19 C16 1.378 . S
C19 N20 1.315 . S
C19 H22 0.930 . S
N20 Co0 2.194 . S
N20 C15 1.328 . S
N20 C19 1.315 . S
H21 C15 0.929 . S
H22 C19 0.930 . S
H23 C11 0.929 . S
H24 C13 0.929 . S
O25 Co0 2.351 . S
O25 C28 1.244 . S
O26 Co0 2.155 . S
O26 C28 1.240 . S
O27 Co0 2.096 . S
O27 C8 1.247 . S
C28 O25 1.244 . S
C28 O26 1.240 . S
H29 C3 0.931 . S
H30 C12 0.892 1_655 S
H31 C16 0.929 . S
H32 C18 0.930 . S
Co33 N37 2.148 . S
Co33 N43 2.128 . S
Co33 N53 2.194 . S
Co33 O58 2.351 . S
Co33 O59 2.155 . S
Co33 O60 2.096 . S
C34 N37 1.301 . S
C34 N38 1.328 . S
C34 H39 0.930 . S
C35 C36 1.333 . S
C35 N37 1.317 . S
C35 H40 0.930 . S
C36 C35 1.333 . S
C36 N38 1.350 . S
C36 H62 0.931 . S
N37 Co33 2.148 . S
N37 C34 1.301 . S
N37 C35 1.317 . S
N38 C34 1.328 . S
N38 C36 1.350 . S
H39 C34 0.930 . S
H40 C35 0.930 . S
C41 O42 1.224 . S
C41 O60 1.247 . S
O42 C41 1.224 . S
N43 Co33 2.128 . S
N43 C44 1.355 . S
N43 C46 1.311 . S
C44 N43 1.355 . S
C44 C45 1.363 . S
C44 H56 0.929 . S
C45 C44 1.363 . S
C45 N47 1.375 . S
C45 H63 0.931 . S
C46 N43 1.311 . S
C46 N47 1.347 . S
C46 H57 0.929 . S
N47 C45 1.375 . S
N47 C46 1.347 . S
C48 C51 1.365 . S
C48 N53 1.328 . S
C48 H54 0.929 . S
C49 C50 1.362 . S
C49 C52 1.378 . S
C49 H64 0.929 . S
C50 C49 1.362 . S
C50 C51 1.366 . S
C51 C48 1.365 . S
C51 C50 1.366 . S
C51 H65 0.930 . S
C52 C49 1.378 . S
C52 N53 1.315 . S
C52 H55 0.930 . S
N53 Co33 2.194 . S
N53 C48 1.328 . S
N53 C52 1.315 . S
H54 C48 0.929 . S
H55 C52 0.930 . S
H56 C44 0.929 . S
H57 C46 0.929 . S
O58 Co33 2.351 . S
O58 C61 1.244 . S
O59 Co33 2.155 . S
O59 C61 1.240 . S
O60 Co33 2.096 . S
O60 C41 1.247 . S
C61 O58 1.244 . S
C61 O59 1.240 . S
H62 C36 0.931 . S
H63 C45 0.931 . S
H64 C49 0.929 . S
H65 C51 0.930 . S
Co66 N70 2.148 . S
Co66 N76 2.128 . S
Co66 N86 2.194 . S
Co66 O91 2.351 . S
Co66 O92 2.155 . S
Co66 O93 2.096 . S
C67 N70 1.301 . S
C67 N71 1.328 . S
C67 H72 0.930 . S
C68 C69 1.333 . S
C68 N70 1.317 . S
C68 H73 0.930 . S
C69 C68 1.333 . S
C69 N71 1.350 . S
C69 H95 0.931 . S
N70 Co66 2.148 . S
N70 C67 1.301 . S
N70 C68 1.317 . S
N71 C67 1.328 . S
N71 C69 1.350 . S
H72 C67 0.930 . S
H73 C68 0.930 . S
C74 O75 1.224 . S
C74 O93 1.247 . S
O75 C74 1.224 . S
N76 Co66 2.128 . S
N76 C77 1.355 . S
N76 C79 1.311 . S
C77 N76 1.355 . S
C77 C78 1.363 . S
C77 H89 0.929 . S
C78 C77 1.363 . S
C78 N80 1.375 . S
C78 H96 0.892 1_655 S
C79 N76 1.311 . S
C79 N80 1.347 . S
C79 H90 0.929 . S
N80 C78 1.375 . S
N80 C79 1.347 . S
C81 C84 1.365 . S
C81 N86 1.328 . S
C81 H87 0.929 . S
C82 C83 1.362 . S
C82 C85 1.378 . S
C82 H97 0.929 . S
C83 C82 1.362 . S
C83 C84 1.366 . S
C84 C81 1.365 . S
C84 C83 1.366 . S
C84 H98 0.930 . S
C85 C82 1.378 . S
C85 N86 1.315 . S
C85 H88 0.930 . S
N86 Co66 2.194 . S
N86 C81 1.328 . S
N86 C85 1.315 . S
H87 C81 0.929 . S
H88 C85 0.930 . S
H89 C77 0.929 . S
H90 C79 0.929 . S
O91 Co66 2.351 . S
O91 C94 1.244 . S
O92 Co66 2.155 . S
O92 C94 1.240 . S
O93 Co66 2.096 . S
O93 C74 1.247 . S
C94 O91 1.244 . S
C94 O92 1.240 . S
H95 C69 0.931 . S
H96 C78 0.892 1_455 S
H97 C82 0.929 . S
H98 C84 0.930 . S
Co99 N103 2.148 . S
Co99 N109 2.128 . S
Co99 N119 2.194 . S
Co99 O124 2.351 . S
Co99 O125 2.155 . S
Co99 O126 2.096 . S
C100 N103 1.301 . S
C100 N104 1.328 . S
C100 H105 0.930 . S
C101 C102 1.333 . S
C101 N103 1.317 . S
C101 H106 0.930 . S
C102 C101 1.333 . S
C102 N104 1.350 . S
C102 H128 0.931 . S
N103 Co99 2.148 . S
N103 C100 1.301 . S
N103 C101 1.317 . S
N104 C100 1.328 . S
N104 C102 1.350 . S
H105 C100 0.930 . S
H106 C101 0.930 . S
C107 O108 1.224 . S
C107 O126 1.247 . S
O108 C107 1.224 . S
N109 Co99 2.128 . S
N109 C110 1.355 . S
N109 C112 1.311 . S
C110 N109 1.355 . S
C110 C111 1.363 . S
C110 H122 0.929 . S
C111 C110 1.363 . S
C111 N113 1.375 . S
C111 H129 0.931 . S
C112 N109 1.311 . S
C112 N113 1.347 . S
C112 H123 0.929 . S
N113 C111 1.375 . S
N113 C112 1.347 . S
C114 C117 1.365 . S
C114 N119 1.328 . S
C114 H120 0.929 . S
C115 C116 1.362 . S
C115 C118 1.378 . S
C115 H130 0.929 . S
C116 C115 1.362 . S
C116 C117 1.366 . S
C117 C114 1.365 . S
C117 C116 1.366 . S
C117 H131 0.930 . S
C118 C115 1.378 . S
C118 N119 1.315 . S
C118 H121 0.930 . S
N119 Co99 2.194 . S
N119 C114 1.328 . S
N119 C118 1.315 . S
H120 C114 0.929 . S
H121 C118 0.930 . S
H122 C110 0.929 . S
H123 C112 0.929 . S
O124 Co99 2.351 . S
O124 C127 1.244 . S
O125 Co99 2.155 . S
O125 C127 1.240 . S
O126 Co99 2.096 . S
O126 C107 1.247 . S
C127 O124 1.244 . S
C127 O125 1.240 . S
H128 C102 0.931 . S
H129 C111 0.931 . S
H130 C115 0.929 . S
H131 C117 0.930 . S
Co132 N136 2.148 . S
Co132 N142 2.128 . S
Co132 N152 2.194 . S
Co132 O157 2.351 . S
Co132 O158 2.155 . S
Co132 O159 2.096 . S
C133 N136 1.301 . S
C133 N137 1.328 . S
C133 H138 0.930 . S
C134 C135 1.333 . S
C134 N136 1.317 . S
C134 H139 0.930 . S
C135 C134 1.333 . S
C135 N137 1.350 . S
C135 H161 0.931 . S
N136 Co132 2.148 . S
N136 C133 1.301 . S
N136 C134 1.317 . S
N137 C133 1.328 . S
N137 C135 1.350 . S
H138 C133 0.930 . S
H139 C134 0.930 . S
C140 O141 1.224 . S
C140 O159 1.247 . S
O141 C140 1.224 . S
N142 Co132 2.128 . S
N142 C143 1.355 . S
N142 C145 1.311 . S
C143 N142 1.355 . S
C143 C144 1.363 . S
C143 H155 0.929 . S
C144 C143 1.363 . S
C144 N146 1.375 . S
C144 H162 0.892 1_455 S
C145 N142 1.311 . S
C145 N146 1.347 . S
C145 H156 0.929 . S
N146 C144 1.375 . S
N146 C145 1.347 . S
C147 C150 1.365 . S
C147 N152 1.328 . S
C147 H153 0.929 . S
C148 C149 1.362 . S
C148 C151 1.378 . S
C148 H163 0.929 . S
C149 C148 1.362 . S
C149 C150 1.366 . S
C150 C147 1.365 . S
C150 C149 1.366 . S
C150 H164 0.930 . S
C151 C148 1.378 . S
C151 N152 1.315 . S
C151 H154 0.930 . S
N152 Co132 2.194 . S
N152 C147 1.328 . S
N152 C151 1.315 . S
H153 C147 0.929 . S
H154 C151 0.930 . S
H155 C143 0.929 . S
H156 C145 0.929 . S
O157 Co132 2.351 . S
O157 C160 1.244 . S
O158 Co132 2.155 . S
O158 C160 1.240 . S
O159 Co132 2.096 . S
O159 C140 1.247 . S
C160 O157 1.244 . S
C160 O158 1.240 . S
H161 C135 0.931 . S
H162 C144 0.892 1_655 S
H163 C148 0.929 . S
H164 C150 0.930 . S
Co165 N169 2.148 . S
Co165 N175 2.128 . S
Co165 N185 2.194 . S
Co165 O190 2.351 . S
Co165 O191 2.155 . S
Co165 O192 2.096 . S
C166 N169 1.301 . S
C166 N170 1.328 . S
C166 H171 0.930 . S
C167 C168 1.333 . S
C167 N169 1.317 . S
C167 H172 0.930 . S
C168 C167 1.333 . S
C168 N170 1.350 . S
C168 H194 0.931 . S
N169 Co165 2.148 . S
N169 C166 1.301 . S
N169 C167 1.317 . S
N170 C166 1.328 . S
N170 C168 1.350 . S
H171 C166 0.930 . S
H172 C167 0.930 . S
C173 O174 1.224 . S
C173 O192 1.247 . S
O174 C173 1.224 . S
N175 Co165 2.128 . S
N175 C176 1.355 . S
N175 C178 1.311 . S
C176 N175 1.355 . S
C176 C177 1.363 . S
C176 H188 0.929 . S
C177 C176 1.363 . S
C177 N179 1.375 . S
C177 H195 0.931 . S
C178 N175 1.311 . S
C178 N179 1.347 . S
C178 H189 0.929 . S
N179 C177 1.375 . S
N179 C178 1.347 . S
C180 C183 1.365 . S
C180 N185 1.328 . S
C180 H186 0.929 . S
C181 C182 1.362 . S
C181 C184 1.378 . S
C181 H196 0.929 . S
C182 C181 1.362 . S
C182 C183 1.366 . S
C183 C180 1.365 . S
C183 C182 1.366 . S
C183 H197 0.930 . S
C184 C181 1.378 . S
C184 N185 1.315 . S
C184 H187 0.930 . S
N185 Co165 2.194 . S
N185 C180 1.328 . S
N185 C184 1.315 . S
H186 C180 0.929 . S
H187 C184 0.930 . S
H188 C176 0.929 . S
H189 C178 0.929 . S
O190 Co165 2.351 . S
O190 C193 1.244 . S
O191 Co165 2.155 . S
O191 C193 1.240 . S
O192 Co165 2.096 . S
O192 C173 1.247 . S
C193 O190 1.244 . S
C193 O191 1.240 . S
H194 C168 0.931 . S
H195 C177 0.931 . S
H196 C181 0.929 . S
H197 C183 0.930 . S
Co198 N202 2.148 . S
Co198 N208 2.128 . S
Co198 N218 2.194 . S
Co198 O223 2.351 . S
Co198 O224 2.155 . S
Co198 O225 2.096 . S
C199 N202 1.301 . S
C199 N203 1.328 . S
C199 H204 0.930 . S
C200 C201 1.333 . S
C200 N202 1.317 . S
C200 H205 0.930 . S
C201 C200 1.333 . S
C201 N203 1.350 . S
C201 H227 0.931 . S
N202 Co198 2.148 . S
N202 C199 1.301 . S
N202 C200 1.317 . S
N203 C199 1.328 . S
N203 C201 1.350 . S
H204 C199 0.930 . S
H205 C200 0.930 . S
C206 O207 1.224 . S
C206 O225 1.247 . S
O207 C206 1.224 . S
N208 Co198 2.128 . S
N208 C209 1.355 . S
N208 C211 1.311 . S
C209 N208 1.355 . S
C209 C210 1.363 . S
C209 H221 0.929 . S
C210 C209 1.363 . S
C210 N212 1.375 . S
C210 H228 0.892 1_655 S
C211 N208 1.311 . S
C211 N212 1.347 . S
C211 H222 0.929 . S
N212 C210 1.375 . S
N212 C211 1.347 . S
C213 C216 1.365 . S
C213 N218 1.328 . S
C213 H219 0.929 . S
C214 C215 1.362 . S
C214 C217 1.378 . S
C214 H229 0.929 . S
C215 C214 1.362 . S
C215 C216 1.366 . S
C216 C213 1.365 . S
C216 C215 1.366 . S
C216 H230 0.930 . S
C217 C214 1.378 . S
C217 N218 1.315 . S
C217 H220 0.930 . S
N218 Co198 2.194 . S
N218 C213 1.328 . S
N218 C217 1.315 . S
H219 C213 0.929 . S
H220 C217 0.930 . S
H221 C209 0.929 . S
H222 C211 0.929 . S
O223 Co198 2.351 . S
O223 C226 1.244 . S
O224 Co198 2.155 . S
O224 C226 1.240 . S
O225 Co198 2.096 . S
O225 C206 1.247 . S
C226 O223 1.244 . S
C226 O224 1.240 . S
H227 C201 0.931 . S
H228 C210 0.892 1_455 S
H229 C214 0.929 . S
H230 C216 0.930 . S
Co231 N235 2.148 . S
Co231 N241 2.128 . S
Co231 N251 2.194 . S
Co231 O256 2.351 . S
Co231 O257 2.155 . S
Co231 O258 2.096 . S
C232 N235 1.301 . S
C232 N236 1.328 . S
C232 H237 0.930 . S
C233 C234 1.333 . S
C233 N235 1.317 . S
C233 H238 0.930 . S
C234 C233 1.333 . S
C234 N236 1.350 . S
C234 H260 0.931 . S
N235 Co231 2.148 . S
N235 C232 1.301 . S
N235 C233 1.317 . S
N236 C232 1.328 . S
N236 C234 1.350 . S
H237 C232 0.930 . S
H238 C233 0.930 . S
C239 O240 1.224 . S
C239 O258 1.247 . S
O240 C239 1.224 . S
N241 Co231 2.128 . S
N241 C242 1.355 . S
N241 C244 1.311 . S
C242 N241 1.355 . S
C242 C243 1.363 . S
C242 H254 0.929 . S
C243 C242 1.363 . S
C243 N245 1.375 . S
C243 H261 0.931 . S
C244 N241 1.311 . S
C244 N245 1.347 . S
C244 H255 0.929 . S
N245 C243 1.375 . S
N245 C244 1.347 . S
C246 C249 1.365 . S
C246 N251 1.328 . S
C246 H252 0.929 . S
C247 C248 1.362 . S
C247 C250 1.378 . S
C247 H262 0.929 . S
C248 C247 1.362 . S
C248 C249 1.366 . S
C249 C246 1.365 . S
C249 C248 1.366 . S
C249 H263 0.930 . S
C250 C247 1.378 . S
C250 N251 1.315 . S
C250 H253 0.930 . S
N251 Co231 2.194 . S
N251 C246 1.328 . S
N251 C250 1.315 . S
H252 C246 0.929 . S
H253 C250 0.930 . S
H254 C242 0.929 . S
H255 C244 0.929 . S
O256 Co231 2.351 . S
O256 C259 1.244 . S
O257 Co231 2.155 . S
O257 C259 1.240 . S
O258 Co231 2.096 . S
O258 C239 1.247 . S
C259 O256 1.244 . S
C259 O257 1.240 . S
H260 C234 0.931 . S
H261 C243 0.931 . S
H262 C247 0.929 . S
H263 C249 0.930 . S
Co264 N268 2.148 . S
Co264 N274 2.128 . S
Co264 N284 2.194 . S
Co264 O289 2.351 . S
Co264 O290 2.155 . S
Co264 O291 2.096 . S
C265 N268 1.301 . S
C265 N269 1.328 . S
C265 H270 0.930 . S
C266 C267 1.333 . S
C266 N268 1.317 . S
C266 H271 0.930 . S
C267 C266 1.333 . S
C267 N269 1.350 . S
C267 H293 0.931 . S
N268 Co264 2.148 . S
N268 C265 1.301 . S
N268 C266 1.317 . S
N269 C265 1.328 . S
N269 C267 1.350 . S
H270 C265 0.930 . S
H271 C266 0.930 . S
C272 O273 1.224 . S
C272 O291 1.247 . S
O273 C272 1.224 . S
N274 Co264 2.128 . S
N274 C275 1.355 . S
N274 C277 1.311 . S
C275 N274 1.355 . S
C275 C276 1.363 . S
C275 H287 0.929 . S
C276 C275 1.363 . S
C276 N278 1.375 . S
C276 H294 0.892 1_545 S
C277 N274 1.311 . S
C277 N278 1.347 . S
C277 H288 0.929 . S
N278 C276 1.375 . S
N278 C277 1.347 . S
C279 C282 1.365 . S
C279 N284 1.328 . S
C279 H285 0.929 . S
C280 C281 1.362 . S
C280 C283 1.378 . S
C280 H295 0.929 . S
C281 C280 1.362 . S
C281 C282 1.366 . S
C282 C279 1.365 . S
C282 C281 1.366 . S
C282 H296 0.930 . S
C283 C280 1.378 . S
C283 N284 1.315 . S
C283 H286 0.930 . S
N284 Co264 2.194 . S
N284 C279 1.328 . S
N284 C283 1.315 . S
H285 C279 0.929 . S
H286 C283 0.930 . S
H287 C275 0.929 . S
H288 C277 0.929 . S
O289 Co264 2.351 . S
O289 C292 1.244 . S
O290 Co264 2.155 . S
O290 C292 1.240 . S
O291 Co264 2.096 . S
O291 C272 1.247 . S
C292 O289 1.244 . S
C292 O290 1.240 . S
H293 C267 0.931 . S
H294 C276 0.892 1_565 S
H295 C280 0.929 . S
H296 C282 0.930 . S
Co297 N301 2.148 . S
Co297 N307 2.128 . S
Co297 N317 2.194 . S
Co297 O322 2.351 . S
Co297 O323 2.155 . S
Co297 O324 2.096 . S
C298 N301 1.301 . S
C298 N302 1.328 . S
C298 H303 0.930 . S
C299 C300 1.333 . S
C299 N301 1.317 . S
C299 H304 0.930 . S
C300 C299 1.333 . S
C300 N302 1.350 . S
C300 H326 0.931 . S
N301 Co297 2.148 . S
N301 C298 1.301 . S
N301 C299 1.317 . S
N302 C298 1.328 . S
N302 C300 1.350 . S
H303 C298 0.930 . S
H304 C299 0.930 . S
C305 O306 1.224 . S
C305 O324 1.247 . S
O306 C305 1.224 . S
N307 Co297 2.128 . S
N307 C308 1.355 . S
N307 C310 1.311 . S
C308 N307 1.355 . S
C308 C309 1.363 . S
C308 H320 0.929 . S
C309 C308 1.363 . S
C309 N311 1.375 . S
C309 H327 0.931 . S
C310 N307 1.311 . S
C310 N311 1.347 . S
C310 H321 0.929 . S
N311 C309 1.375 . S
N311 C310 1.347 . S
C312 C315 1.365 . S
C312 N317 1.328 . S
C312 H318 0.929 . S
C313 C314 1.362 . S
C313 C316 1.378 . S
C313 H328 0.929 . S
C314 C313 1.362 . S
C314 C315 1.366 . S
C315 C312 1.365 . S
C315 C314 1.366 . S
C315 H329 0.930 . S
C316 C313 1.378 . S
C316 N317 1.315 . S
C316 H319 0.930 . S
N317 Co297 2.194 . S
N317 C312 1.328 . S
N317 C316 1.315 . S
H318 C312 0.929 . S
H319 C316 0.930 . S
H320 C308 0.929 . S
H321 C310 0.929 . S
O322 Co297 2.351 . S
O322 C325 1.244 . S
O323 Co297 2.155 . S
O323 C325 1.240 . S
O324 Co297 2.096 . S
O324 C305 1.247 . S
C325 O322 1.244 . S
C325 O323 1.240 . S
H326 C300 0.931 . S
H327 C309 0.931 . S
H328 C313 0.929 . S
H329 C315 0.930 . S
Co330 N334 2.148 . S
Co330 N340 2.128 . S
Co330 N350 2.194 . S
Co330 O355 2.351 . S
Co330 O356 2.155 . S
Co330 O357 2.096 . S
C331 N334 1.301 . S
C331 N335 1.328 . S
C331 H336 0.930 . S
C332 C333 1.333 . S
C332 N334 1.317 . S
C332 H337 0.930 . S
C333 C332 1.333 . S
C333 N335 1.350 . S
C333 H359 0.931 . S
N334 Co330 2.148 . S
N334 C331 1.301 . S
N334 C332 1.317 . S
N335 C331 1.328 . S
N335 C333 1.350 . S
H336 C331 0.930 . S
H337 C332 0.930 . S
C338 O339 1.224 . S
C338 O357 1.247 . S
O339 C338 1.224 . S
N340 Co330 2.128 . S
N340 C341 1.355 . S
N340 C343 1.311 . S
C341 N340 1.355 . S
C341 C342 1.363 . S
C341 H353 0.929 . S
C342 C341 1.363 . S
C342 N344 1.375 . S
C342 H360 0.892 1_565 S
C343 N340 1.311 . S
C343 N344 1.347 . S
C343 H354 0.929 . S
N344 C342 1.375 . S
N344 C343 1.347 . S
C345 C348 1.365 . S
C345 N350 1.328 . S
C345 H351 0.929 . S
C346 C347 1.362 . S
C346 C349 1.378 . S
C346 H361 0.929 . S
C347 C346 1.362 . S
C347 C348 1.366 . S
C348 C345 1.365 . S
C348 C347 1.366 . S
C348 H362 0.930 . S
C349 C346 1.378 . S
C349 N350 1.315 . S
C349 H352 0.930 . S
N350 Co330 2.194 . S
N350 C345 1.328 . S
N350 C349 1.315 . S
H351 C345 0.929 . S
H352 C349 0.930 . S
H353 C341 0.929 . S
H354 C343 0.929 . S
O355 Co330 2.351 . S
O355 C358 1.244 . S
O356 Co330 2.155 . S
O356 C358 1.240 . S
O357 Co330 2.096 . S
O357 C338 1.247 . S
C358 O355 1.244 . S
C358 O356 1.240 . S
H359 C333 0.931 . S
H360 C342 0.892 1_545 S
H361 C346 0.929 . S
H362 C348 0.930 . S
Co363 N367 2.148 . S
Co363 N373 2.128 . S
Co363 N383 2.194 . S
Co363 O388 2.351 . S
Co363 O389 2.155 . S
Co363 O390 2.096 . S
C364 N367 1.301 . S
C364 N368 1.328 . S
C364 H369 0.930 . S
C365 C366 1.333 . S
C365 N367 1.317 . S
C365 H370 0.930 . S
C366 C365 1.333 . S
C366 N368 1.350 . S
C366 H392 0.931 . S
N367 Co363 2.148 . S
N367 C364 1.301 . S
N367 C365 1.317 . S
N368 C364 1.328 . S
N368 C366 1.350 . S
H369 C364 0.930 . S
H370 C365 0.930 . S
C371 O372 1.224 . S
C371 O390 1.247 . S
O372 C371 1.224 . S
N373 Co363 2.128 . S
N373 C374 1.355 . S
N373 C376 1.311 . S
C374 N373 1.355 . S
C374 C375 1.363 . S
C374 H386 0.929 . S
C375 C374 1.363 . S
C375 N377 1.375 . S
C375 H393 0.931 . S
C376 N373 1.311 . S
C376 N377 1.347 . S
C376 H387 0.929 . S
N377 C375 1.375 . S
N377 C376 1.347 . S
C378 C381 1.365 . S
C378 N383 1.328 . S
C378 H384 0.929 . S
C379 C380 1.362 . S
C379 C382 1.378 . S
C379 H394 0.929 . S
C380 C379 1.362 . S
C380 C381 1.366 . S
C381 C378 1.365 . S
C381 C380 1.366 . S
C381 H395 0.930 . S
C382 C379 1.378 . S
C382 N383 1.315 . S
C382 H385 0.930 . S
N383 Co363 2.194 . S
N383 C378 1.328 . S
N383 C382 1.315 . S
H384 C378 0.929 . S
H385 C382 0.930 . S
H386 C374 0.929 . S
H387 C376 0.929 . S
O388 Co363 2.351 . S
O388 C391 1.244 . S
O389 Co363 2.155 . S
O389 C391 1.240 . S
O390 Co363 2.096 . S
O390 C371 1.247 . S
C391 O388 1.244 . S
C391 O389 1.240 . S
H392 C366 0.931 . S
H393 C375 0.931 . S
H394 C379 0.929 . S
H395 C381 0.930 . S
Co396 N400 2.148 . S
Co396 N406 2.128 . S
Co396 N416 2.194 . S
Co396 O421 2.351 . S
Co396 O422 2.155 . S
Co396 O423 2.096 . S
C397 N400 1.301 . S
C397 N401 1.328 . S
C397 H402 0.930 . S
C398 C399 1.333 . S
C398 N400 1.317 . S
C398 H403 0.930 . S
C399 C398 1.333 . S
C399 N401 1.350 . S
C399 H425 0.931 . S
N400 Co396 2.148 . S
N400 C397 1.301 . S
N400 C398 1.317 . S
N401 C397 1.328 . S
N401 C399 1.350 . S
H402 C397 0.930 . S
H403 C398 0.930 . S
C404 O405 1.224 . S
C404 O423 1.247 . S
O405 C404 1.224 . S
N406 Co396 2.128 . S
N406 C407 1.355 . S
N406 C409 1.311 . S
C407 N406 1.355 . S
C407 C408 1.363 . S
C407 H419 0.929 . S
C408 C407 1.363 . S
C408 N410 1.375 . S
C408 H426 0.892 1_565 S
C409 N406 1.311 . S
C409 N410 1.347 . S
C409 H420 0.929 . S
N410 C408 1.375 . S
N410 C409 1.347 . S
C411 C414 1.365 . S
C411 N416 1.328 . S
C411 H417 0.929 . S
C412 C413 1.362 . S
C412 C415 1.378 . S
C412 H427 0.929 . S
C413 C412 1.362 . S
C413 C414 1.366 . S
C414 C411 1.365 . S
C414 C413 1.366 . S
C414 H428 0.930 . S
C415 C412 1.378 . S
C415 N416 1.315 . S
C415 H418 0.930 . S
N416 Co396 2.194 . S
N416 C411 1.328 . S
N416 C415 1.315 . S
H417 C411 0.929 . S
H418 C415 0.930 . S
H419 C407 0.929 . S
H420 C409 0.929 . S
O421 Co396 2.351 . S
O421 C424 1.244 . S
O422 Co396 2.155 . S
O422 C424 1.240 . S
O423 Co396 2.096 . S
O423 C404 1.247 . S
C424 O421 1.244 . S
C424 O422 1.240 . S
H425 C399 0.931 . S
H426 C408 0.892 1_545 S
H427 C412 0.929 . S
H428 C414 0.930 . S
Co429 N433 2.148 . S
Co429 N439 2.128 . S
Co429 N449 2.194 . S
Co429 O454 2.351 . S
Co429 O455 2.155 . S
Co429 O456 2.096 . S
C430 N433 1.301 . S
C430 N434 1.328 . S
C430 H435 0.930 . S
C431 C432 1.333 . S
C431 N433 1.317 . S
C431 H436 0.930 . S
C432 C431 1.333 . S
C432 N434 1.350 . S
C432 H458 0.931 . S
N433 Co429 2.148 . S
N433 C430 1.301 . S
N433 C431 1.317 . S
N434 C430 1.328 . S
N434 C432 1.350 . S
H435 C430 0.930 . S
H436 C431 0.930 . S
C437 O438 1.224 . S
C437 O456 1.247 . S
O438 C437 1.224 . S
N439 Co429 2.128 . S
N439 C440 1.355 . S
N439 C442 1.311 . S
C440 N439 1.355 . S
C440 C441 1.363 . S
C440 H452 0.929 . S
C441 C440 1.363 . S
C441 N443 1.375 . S
C441 H459 0.931 . S
C442 N439 1.311 . S
C442 N443 1.347 . S
C442 H453 0.929 . S
N443 C441 1.375 . S
N443 C442 1.347 . S
C444 C447 1.365 . S
C444 N449 1.328 . S
C444 H450 0.929 . S
C445 C446 1.362 . S
C445 C448 1.378 . S
C445 H460 0.929 . S
C446 C445 1.362 . S
C446 C447 1.366 . S
C447 C444 1.365 . S
C447 C446 1.366 . S
C447 H461 0.930 . S
C448 C445 1.378 . S
C448 N449 1.315 . S
C448 H451 0.930 . S
N449 Co429 2.194 . S
N449 C444 1.328 . S
N449 C448 1.315 . S
H450 C444 0.929 . S
H451 C448 0.930 . S
H452 C440 0.929 . S
H453 C442 0.929 . S
O454 Co429 2.351 . S
O454 C457 1.244 . S
O455 Co429 2.155 . S
O455 C457 1.240 . S
O456 Co429 2.096 . S
O456 C437 1.247 . S
C457 O454 1.244 . S
C457 O455 1.240 . S
H458 C432 0.931 . S
H459 C441 0.931 . S
H460 C445 0.929 . S
H461 C447 0.930 . S
Co462 N466 2.148 . S
Co462 N472 2.128 . S
Co462 N482 2.194 . S
Co462 O487 2.351 . S
Co462 O488 2.155 . S
Co462 O489 2.096 . S
C463 N466 1.301 . S
C463 N467 1.328 . S
C463 H468 0.930 . S
C464 C465 1.333 . S
C464 N466 1.317 . S
C464 H469 0.930 . S
C465 C464 1.333 . S
C465 N467 1.350 . S
C465 H491 0.931 . S
N466 Co462 2.148 . S
N466 C463 1.301 . S
N466 C464 1.317 . S
N467 C463 1.328 . S
N467 C465 1.350 . S
H468 C463 0.930 . S
H469 C464 0.930 . S
C470 O471 1.224 . S
C470 O489 1.247 . S
O471 C470 1.224 . S
N472 Co462 2.128 . S
N472 C473 1.355 . S
N472 C475 1.311 . S
C473 N472 1.355 . S
C473 C474 1.363 . S
C473 H485 0.929 . S
C474 C473 1.363 . S
C474 N476 1.375 . S
C474 H492 0.892 1_545 S
C475 N472 1.311 . S
C475 N476 1.347 . S
C475 H486 0.929 . S
N476 C474 1.375 . S
N476 C475 1.347 . S
C477 C480 1.365 . S
C477 N482 1.328 . S
C477 H483 0.929 . S
C478 C479 1.362 . S
C478 C481 1.378 . S
C478 H493 0.929 . S
C479 C478 1.362 . S
C479 C480 1.366 . S
C480 C477 1.365 . S
C480 C479 1.366 . S
C480 H494 0.930 . S
C481 C478 1.378 . S
C481 N482 1.315 . S
C481 H484 0.930 . S
N482 Co462 2.194 . S
N482 C477 1.328 . S
N482 C481 1.315 . S
H483 C477 0.929 . S
H484 C481 0.930 . S
H485 C473 0.929 . S
H486 C475 0.929 . S
O487 Co462 2.351 . S
O487 C490 1.244 . S
O488 Co462 2.155 . S
O488 C490 1.240 . S
O489 Co462 2.096 . S
O489 C470 1.247 . S
C490 O487 1.244 . S
C490 O488 1.240 . S
H491 C465 0.931 . S
H492 C474 0.892 1_565 S
H493 C478 0.929 . S
H494 C480 0.930 . S
Co495 N499 2.148 . S
Co495 N505 2.128 . S
Co495 N515 2.194 . S
Co495 O520 2.351 . S
Co495 O521 2.155 . S
Co495 O522 2.096 . S
C496 N499 1.301 . S
C496 N500 1.328 . S
C496 H501 0.930 . S
C497 C498 1.333 . S
C497 N499 1.317 . S
C497 H502 0.930 . S
C498 C497 1.333 . S
C498 N500 1.350 . S
C498 H524 0.931 . S
N499 Co495 2.148 . S
N499 C496 1.301 . S
N499 C497 1.317 . S
N500 C496 1.328 . S
N500 C498 1.350 . S
H501 C496 0.930 . S
H502 C497 0.930 . S
C503 O504 1.224 . S
C503 O522 1.247 . S
O504 C503 1.224 . S
N505 Co495 2.128 . S
N505 C506 1.355 . S
N505 C508 1.311 . S
C506 N505 1.355 . S
C506 C507 1.363 . S
C506 H518 0.929 . S
C507 C506 1.363 . S
C507 N509 1.375 . S
C507 H525 0.931 . S
C508 N505 1.311 . S
C508 N509 1.347 . S
C508 H519 0.929 . S
N509 C507 1.375 . S
N509 C508 1.347 . S
C510 C513 1.365 . S
C510 N515 1.328 . S
C510 H516 0.929 . S
C511 C512 1.362 . S
C511 C514 1.378 . S
C511 H526 0.929 . S
C512 C511 1.362 . S
C512 C513 1.366 . S
C513 C510 1.365 . S
C513 C512 1.366 . S
C513 H527 0.930 . S
C514 C511 1.378 . S
C514 N515 1.315 . S
C514 H517 0.930 . S
N515 Co495 2.194 . S
N515 C510 1.328 . S
N515 C514 1.315 . S
H516 C510 0.929 . S
H517 C514 0.930 . S
H518 C506 0.929 . S
H519 C508 0.929 . S
O520 Co495 2.351 . S
O520 C523 1.244 . S
O521 Co495 2.155 . S
O521 C523 1.240 . S
O522 Co495 2.096 . S
O522 C503 1.247 . S
C523 O520 1.244 . S
C523 O521 1.240 . S
H524 C498 0.931 . S
H525 C507 0.931 . S
H526 C511 0.929 . S
H527 C513 0.930 . S
Co528 N532 2.148 . S
Co528 N538 2.128 . S
Co528 N548 2.194 . S
Co528 O553 2.351 . S
Co528 O554 2.155 . S
Co528 O555 2.096 . S
C529 N532 1.301 . S
C529 N533 1.328 . S
C529 H534 0.930 . S
C530 C531 1.333 . S
C530 N532 1.317 . S
C530 H535 0.930 . S
C531 C530 1.333 . S
C531 N533 1.350 . S
C531 H557 0.931 . S
N532 Co528 2.148 . S
N532 C529 1.301 . S
N532 C530 1.317 . S
N533 C529 1.328 . S
N533 C531 1.350 . S
H534 C529 0.930 . S
H535 C530 0.930 . S
C536 O537 1.224 . S
C536 O555 1.247 . S
O537 C536 1.224 . S
N538 Co528 2.128 . S
N538 C539 1.355 . S
N538 C541 1.311 . S
C539 N538 1.355 . S
C539 C540 1.363 . S
C539 H551 0.929 . S
C540 C539 1.363 . S
C540 N542 1.375 . S
C540 H558 0.892 1_554 S
C541 N538 1.311 . S
C541 N542 1.347 . S
C541 H552 0.929 . S
N542 C540 1.375 . S
N542 C541 1.347 . S
C543 C546 1.365 . S
C543 N548 1.328 . S
C543 H549 0.929 . S
C544 C545 1.362 . S
C544 C547 1.378 . S
C544 H559 0.929 . S
C545 C544 1.362 . S
C545 C546 1.366 . S
C546 C543 1.365 . S
C546 C545 1.366 . S
C546 H560 0.930 . S
C547 C544 1.378 . S
C547 N548 1.315 . S
C547 H550 0.930 . S
N548 Co528 2.194 . S
N548 C543 1.328 . S
N548 C547 1.315 . S
H549 C543 0.929 . S
H550 C547 0.930 . S
H551 C539 0.929 . S
H552 C541 0.929 . S
O553 Co528 2.351 . S
O553 C556 1.244 . S
O554 Co528 2.155 . S
O554 C556 1.240 . S
O555 Co528 2.096 . S
O555 C536 1.247 . S
C556 O553 1.244 . S
C556 O554 1.240 . S
H557 C531 0.931 . S
H558 C540 0.892 1_556 S
H559 C544 0.929 . S
H560 C546 0.930 . S
Co561 N565 2.148 . S
Co561 N571 2.128 . S
Co561 N581 2.194 . S
Co561 O586 2.351 . S
Co561 O587 2.155 . S
Co561 O588 2.096 . S
C562 N565 1.301 . S
C562 N566 1.328 . S
C562 H567 0.930 . S
C563 C564 1.333 . S
C563 N565 1.317 . S
C563 H568 0.930 . S
C564 C563 1.333 . S
C564 N566 1.350 . S
C564 H590 0.931 . S
N565 Co561 2.148 . S
N565 C562 1.301 . S
N565 C563 1.317 . S
N566 C562 1.328 . S
N566 C564 1.350 . S
H567 C562 0.930 . S
H568 C563 0.930 . S
C569 O570 1.224 . S
C569 O588 1.247 . S
O570 C569 1.224 . S
N571 Co561 2.128 . S
N571 C572 1.355 . S
N571 C574 1.311 . S
C572 N571 1.355 . S
C572 C573 1.363 . S
C572 H584 0.929 . S
C573 C572 1.363 . S
C573 N575 1.375 . S
C573 H591 0.892 1_556 S
C574 N571 1.311 . S
C574 N575 1.347 . S
C574 H585 0.929 . S
N575 C573 1.375 . S
N575 C574 1.347 . S
C576 C579 1.365 . S
C576 N581 1.328 . S
C576 H582 0.929 . S
C577 C578 1.362 . S
C577 C580 1.378 . S
C577 H592 0.929 . S
C578 C577 1.362 . S
C578 C579 1.366 . S
C579 C576 1.365 . S
C579 C578 1.366 . S
C579 H593 0.930 . S
C580 C577 1.378 . S
C580 N581 1.315 . S
C580 H583 0.930 . S
N581 Co561 2.194 . S
N581 C576 1.328 . S
N581 C580 1.315 . S
H582 C576 0.929 . S
H583 C580 0.930 . S
H584 C572 0.929 . S
H585 C574 0.929 . S
O586 Co561 2.351 . S
O586 C589 1.244 . S
O587 Co561 2.155 . S
O587 C589 1.240 . S
O588 Co561 2.096 . S
O588 C569 1.247 . S
C589 O586 1.244 . S
C589 O587 1.240 . S
H590 C564 0.931 . S
H591 C573 0.892 1_554 S
H592 C577 0.929 . S
H593 C579 0.930 . S
Co594 N598 2.148 . S
Co594 N604 2.128 . S
Co594 N614 2.194 . S
Co594 O619 2.351 . S
Co594 O620 2.155 . S
Co594 O621 2.096 . S
C595 N598 1.301 . S
C595 N599 1.328 . S
C595 H600 0.930 . S
C596 C597 1.333 . S
C596 N598 1.317 . S
C596 H601 0.930 . S
C597 C596 1.333 . S
C597 N599 1.350 . S
C597 H623 0.931 . S
N598 Co594 2.148 . S
N598 C595 1.301 . S
N598 C596 1.317 . S
N599 C595 1.328 . S
N599 C597 1.350 . S
H600 C595 0.930 . S
H601 C596 0.930 . S
C602 O603 1.224 . S
C602 O621 1.247 . S
O603 C602 1.224 . S
N604 Co594 2.128 . S
N604 C605 1.355 . S
N604 C607 1.311 . S
C605 N604 1.355 . S
C605 C606 1.363 . S
C605 H617 0.929 . S
C606 C605 1.363 . S
C606 N608 1.375 . S
C606 H624 0.931 . S
C607 N604 1.311 . S
C607 N608 1.347 . S
C607 H618 0.929 . S
N608 C606 1.375 . S
N608 C607 1.347 . S
C609 C612 1.365 . S
C609 N614 1.328 . S
C609 H615 0.929 . S
C610 C611 1.362 . S
C610 C613 1.378 . S
C610 H625 0.929 . S
C611 C610 1.362 . S
C611 C612 1.366 . S
C612 C609 1.365 . S
C612 C611 1.366 . S
C612 H626 0.930 . S
C613 C610 1.378 . S
C613 N614 1.315 . S
C613 H616 0.930 . S
N614 Co594 2.194 . S
N614 C609 1.328 . S
N614 C613 1.315 . S
H615 C609 0.929 . S
H616 C613 0.930 . S
H617 C605 0.929 . S
H618 C607 0.929 . S
O619 Co594 2.351 . S
O619 C622 1.244 . S
O620 Co594 2.155 . S
O620 C622 1.240 . S
O621 Co594 2.096 . S
O621 C602 1.247 . S
C622 O619 1.244 . S
C622 O620 1.240 . S
H623 C597 0.931 . S
H624 C606 0.931 . S
H625 C610 0.929 . S
H626 C612 0.930 . S
Co627 N631 2.148 . S
Co627 N637 2.128 . S
Co627 N647 2.194 . S
Co627 O652 2.351 . S
Co627 O653 2.155 . S
Co627 O654 2.096 . S
C628 N631 1.301 . S
C628 N632 1.328 . S
C628 H633 0.930 . S
C629 C630 1.333 . S
C629 N631 1.317 . S
C629 H634 0.930 . S
C630 C629 1.333 . S
C630 N632 1.350 . S
C630 H656 0.931 . S
N631 Co627 2.148 . S
N631 C628 1.301 . S
N631 C629 1.317 . S
N632 C628 1.328 . S
N632 C630 1.350 . S
H633 C628 0.930 . S
H634 C629 0.930 . S
C635 O636 1.224 . S
C635 O654 1.247 . S
O636 C635 1.224 . S
N637 Co627 2.128 . S
N637 C638 1.355 . S
N637 C640 1.311 . S
C638 N637 1.355 . S
C638 C639 1.363 . S
C638 H650 0.929 . S
C639 C638 1.363 . S
C639 N641 1.375 . S
C639 H657 0.892 1_556 S
C640 N637 1.311 . S
C640 N641 1.347 . S
C640 H651 0.929 . S
N641 C639 1.375 . S
N641 C640 1.347 . S
C642 C645 1.365 . S
C642 N647 1.328 . S
C642 H648 0.929 . S
C643 C644 1.362 . S
C643 C646 1.378 . S
C643 H658 0.929 . S
C644 C643 1.362 . S
C644 C645 1.366 . S
C645 C642 1.365 . S
C645 C644 1.366 . S
C645 H659 0.930 . S
C646 C643 1.378 . S
C646 N647 1.315 . S
C646 H649 0.930 . S
N647 Co627 2.194 . S
N647 C642 1.328 . S
N647 C646 1.315 . S
H648 C642 0.929 . S
H649 C646 0.930 . S
H650 C638 0.929 . S
H651 C640 0.929 . S
O652 Co627 2.351 . S
O652 C655 1.244 . S
O653 Co627 2.155 . S
O653 C655 1.240 . S
O654 Co627 2.096 . S
O654 C635 1.247 . S
C655 O652 1.244 . S
C655 O653 1.240 . S
H656 C630 0.931 . S
H657 C639 0.892 1_554 S
H658 C643 0.929 . S
H659 C645 0.930 . S
Co660 N664 2.148 . S
Co660 N670 2.128 . S
Co660 N680 2.194 . S
Co660 O685 2.351 . S
Co660 O686 2.155 . S
Co660 O687 2.096 . S
C661 N664 1.301 . S
C661 N665 1.328 . S
C661 H666 0.930 . S
C662 C663 1.333 . S
C662 N664 1.317 . S
C662 H667 0.930 . S
C663 C662 1.333 . S
C663 N665 1.350 . S
C663 H689 0.931 . S
N664 Co660 2.148 . S
N664 C661 1.301 . S
N664 C662 1.317 . S
N665 C661 1.328 . S
N665 C663 1.350 . S
H666 C661 0.930 . S
H667 C662 0.930 . S
C668 O669 1.224 . S
C668 O687 1.247 . S
O669 C668 1.224 . S
N670 Co660 2.128 . S
N670 C671 1.355 . S
N670 C673 1.311 . S
C671 N670 1.355 . S
C671 C672 1.363 . S
C671 H683 0.929 . S
C672 C671 1.363 . S
C672 N674 1.375 . S
C672 H690 0.931 . S
C673 N670 1.311 . S
C673 N674 1.347 . S
C673 H684 0.929 . S
N674 C672 1.375 . S
N674 C673 1.347 . S
C675 C678 1.365 . S
C675 N680 1.328 . S
C675 H681 0.929 . S
C676 C677 1.362 . S
C676 C679 1.378 . S
C676 H691 0.929 . S
C677 C676 1.362 . S
C677 C678 1.366 . S
C678 C675 1.365 . S
C678 C677 1.366 . S
C678 H692 0.930 . S
C679 C676 1.378 . S
C679 N680 1.315 . S
C679 H682 0.930 . S
N680 Co660 2.194 . S
N680 C675 1.328 . S
N680 C679 1.315 . S
H681 C675 0.929 . S
H682 C679 0.930 . S
H683 C671 0.929 . S
H684 C673 0.929 . S
O685 Co660 2.351 . S
O685 C688 1.244 . S
O686 Co660 2.155 . S
O686 C688 1.240 . S
O687 Co660 2.096 . S
O687 C668 1.247 . S
C688 O685 1.244 . S
C688 O686 1.240 . S
H689 C663 0.931 . S
H690 C672 0.931 . S
H691 C676 0.929 . S
H692 C678 0.930 . S
Co693 N697 2.148 . S
Co693 N703 2.128 . S
Co693 N713 2.194 . S
Co693 O718 2.351 . S
Co693 O719 2.155 . S
Co693 O720 2.096 . S
C694 N697 1.301 . S
C694 N698 1.328 . S
C694 H699 0.930 . S
C695 C696 1.333 . S
C695 N697 1.317 . S
C695 H700 0.930 . S
C696 C695 1.333 . S
C696 N698 1.350 . S
C696 H722 0.931 . S
N697 Co693 2.148 . S
N697 C694 1.301 . S
N697 C695 1.317 . S
N698 C694 1.328 . S
N698 C696 1.350 . S
H699 C694 0.930 . S
H700 C695 0.930 . S
C701 O702 1.224 . S
C701 O720 1.247 . S
O702 C701 1.224 . S
N703 Co693 2.128 . S
N703 C704 1.355 . S
N703 C706 1.311 . S
C704 N703 1.355 . S
C704 C705 1.363 . S
C704 H716 0.929 . S
C705 C704 1.363 . S
C705 N707 1.375 . S
C705 H723 0.892 1_554 S
C706 N703 1.311 . S
C706 N707 1.347 . S
C706 H717 0.929 . S
N707 C705 1.375 . S
N707 C706 1.347 . S
C708 C711 1.365 . S
C708 N713 1.328 . S
C708 H714 0.929 . S
C709 C710 1.362 . S
C709 C712 1.378 . S
C709 H724 0.929 . S
C710 C709 1.362 . S
C710 C711 1.366 . S
C711 C708 1.365 . S
C711 C710 1.366 . S
C711 H725 0.930 . S
C712 C709 1.378 . S
C712 N713 1.315 . S
C712 H715 0.930 . S
N713 Co693 2.194 . S
N713 C708 1.328 . S
N713 C712 1.315 . S
H714 C708 0.929 . S
H715 C712 0.930 . S
H716 C704 0.929 . S
H717 C706 0.929 . S
O718 Co693 2.351 . S
O718 C721 1.244 . S
O719 Co693 2.155 . S
O719 C721 1.240 . S
O720 Co693 2.096 . S
O720 C701 1.247 . S
C721 O718 1.244 . S
C721 O719 1.240 . S
H722 C696 0.931 . S
H723 C705 0.892 1_556 S
H724 C709 0.929 . S
H725 C711 0.930 . S
Co726 N730 2.148 . S
Co726 N736 2.128 . S
Co726 N746 2.194 . S
Co726 O751 2.351 . S
Co726 O752 2.155 . S
Co726 O753 2.096 . S
C727 N730 1.301 . S
C727 N731 1.328 . S
C727 H732 0.930 . S
C728 C729 1.333 . S
C728 N730 1.317 . S
C728 H733 0.930 . S
C729 C728 1.333 . S
C729 N731 1.350 . S
C729 H755 0.931 . S
N730 Co726 2.148 . S
N730 C727 1.301 . S
N730 C728 1.317 . S
N731 C727 1.328 . S
N731 C729 1.350 . S
H732 C727 0.930 . S
H733 C728 0.930 . S
C734 O735 1.224 . S
C734 O753 1.247 . S
O735 C734 1.224 . S
N736 Co726 2.128 . S
N736 C737 1.355 . S
N736 C739 1.311 . S
C737 N736 1.355 . S
C737 C738 1.363 . S
C737 H749 0.929 . S
C738 C737 1.363 . S
C738 N740 1.375 . S
C738 H756 0.931 . S
C739 N736 1.311 . S
C739 N740 1.347 . S
C739 H750 0.929 . S
N740 C738 1.375 . S
N740 C739 1.347 . S
C741 C744 1.365 . S
C741 N746 1.328 . S
C741 H747 0.929 . S
C742 C743 1.362 . S
C742 C745 1.378 . S
C742 H757 0.929 . S
C743 C742 1.362 . S
C743 C744 1.366 . S
C744 C741 1.365 . S
C744 C743 1.366 . S
C744 H758 0.930 . S
C745 C742 1.378 . S
C745 N746 1.315 . S
C745 H748 0.930 . S
N746 Co726 2.194 . S
N746 C741 1.328 . S
N746 C745 1.315 . S
H747 C741 0.929 . S
H748 C745 0.930 . S
H749 C737 0.929 . S
H750 C739 0.929 . S
O751 Co726 2.351 . S
O751 C754 1.244 . S
O752 Co726 2.155 . S
O752 C754 1.240 . S
O753 Co726 2.096 . S
O753 C734 1.247 . S
C754 O751 1.244 . S
C754 O752 1.240 . S
H755 C729 0.931 . S
H756 C738 0.931 . S
H757 C742 0.929 . S
H758 C744 0.930 . S
Co759 N763 2.148 . S
Co759 N769 2.128 . S
Co759 N779 2.194 . S
Co759 O784 2.351 . S
Co759 O785 2.155 . S
Co759 O786 2.096 . S
C760 N763 1.301 . S
C760 N764 1.328 . S
C760 H765 0.930 . S
C761 C762 1.333 . S
C761 N763 1.317 . S
C761 H766 0.930 . S
C762 C761 1.333 . S
C762 N764 1.350 . S
C762 H788 0.931 . S
N763 Co759 2.148 . S
N763 C760 1.301 . S
N763 C761 1.317 . S
N764 C760 1.328 . S
N764 C762 1.350 . S
H765 C760 0.930 . S
H766 C761 0.930 . S
C767 O768 1.224 . S
C767 O786 1.247 . S
O768 C767 1.224 . S
N769 Co759 2.128 . S
N769 C770 1.355 . S
N769 C772 1.311 . S
C770 N769 1.355 . S
C770 C771 1.363 . S
C770 H782 0.929 . S
C771 C770 1.363 . S
C771 N773 1.375 . S
C771 H789 0.931 . S
C772 N769 1.311 . S
C772 N773 1.347 . S
C772 H783 0.929 . S
N773 C771 1.375 . S
N773 C772 1.347 . S
C774 C777 1.365 . S
C774 N779 1.328 . S
C774 H780 0.929 . S
C775 C776 1.362 . S
C775 C778 1.378 . S
C775 H790 0.929 . S
C776 C775 1.362 . S
C776 C777 1.366 . S
C777 C774 1.365 . S
C777 C776 1.366 . S
C777 H791 0.930 . S
C778 C775 1.378 . S
C778 N779 1.315 . S
C778 H781 0.930 . S
N779 Co759 2.194 . S
N779 C774 1.328 . S
N779 C778 1.315 . S
H780 C774 0.929 . S
H781 C778 0.930 . S
H782 C770 0.929 . S
H783 C772 0.929 . S
O784 Co759 2.351 . S
O784 C787 1.244 . S
O785 Co759 2.155 . S
O785 C787 1.240 . S
O786 Co759 2.096 . S
O786 C767 1.247 . S
C787 O784 1.244 . S
C787 O785 1.240 . S
H788 C762 0.931 . S
H789 C771 0.931 . S
H790 C775 0.929 . S
H791 C777 0.930 . S
H792 C800 0.929 . S
H793 C802 0.930 . S
H794 C804 0.930 . S
H795 C807 0.929 . S
H796 C810 0.930 . S
H797 C812 0.960 . S
H798 C812 0.960 . S
H799 C812 0.960 . S
C800 H792 0.929 . S
C800 C801 1.377 . S
C800 C802 1.384 . S
C801 C800 1.377 . S
C801 C807 1.390 . S
C802 H793 0.930 . S
C802 C800 1.384 . S
C802 C803 1.372 . S
C803 C802 1.372 . S
C803 C804 1.400 . S
C803 C808 1.490 . S
C804 H794 0.930 . S
C804 C803 1.400 . S
C804 C807 1.386 . S
H805 C821 0.930 . S
H806 C822 0.931 . S
C807 H795 0.929 . S
C807 C801 1.390 . S
C807 C804 1.386 . S
C808 C803 1.490 . S
C808 C810 1.395 . S
C808 C811 1.403 . S
H809 C815 0.930 . S
C810 H796 0.930 . S
C810 C808 1.395 . S
C810 C813 1.403 . S
C811 C808 1.403 . S
C811 C812 1.524 . S
C811 C815 1.400 . S
C812 H797 0.960 . S
C812 H798 0.960 . S
C812 H799 0.960 . S
C812 C811 1.524 . S
C813 C810 1.403 . S
C813 C814 1.392 . S
C813 C817 1.495 . S
C814 C813 1.392 . S
C814 C815 1.385 . S
C814 C816 1.478 . S
C815 H809 0.930 . S
C815 C811 1.400 . S
C815 C814 1.385 . S
C816 C814 1.478 . S
C816 C818 1.381 . S
C816 C822 1.383 . S
C817 C813 1.495 . S
C817 H823 0.959 . S
C817 H824 0.961 . S
C817 H825 0.960 . S
C818 C816 1.381 . S
C818 C819 1.394 . S
C818 H826 0.930 . S
C819 C818 1.394 . S
C819 C820 1.383 . S
C819 H827 0.929 . S
C820 C819 1.383 . S
C820 C821 1.377 . S
C821 H805 0.930 . S
C821 C820 1.377 . S
C821 C822 1.379 . S
C822 H806 0.931 . S
C822 C816 1.383 . S
C822 C821 1.379 . S
H823 C817 0.959 . S
H824 C817 0.961 . S
H825 C817 0.960 . S
H826 C818 0.930 . S
H827 C819 0.929 . S
H828 C836 0.929 . S
H829 C838 0.930 . S
H830 C840 0.930 . S
H831 C843 0.929 . S
H832 C846 0.930 . S
H833 C848 0.960 . S
H834 C848 0.960 . S
H835 C848 0.960 . S
C836 H828 0.929 . S
C836 C837 1.377 . S
C836 C838 1.384 1_455 S
C837 C836 1.377 . S
C837 C843 1.390 1_455 S
C838 H829 0.930 . S
C838 C836 1.384 1_655 S
C838 C839 1.372 . S
C839 C838 1.372 . S
C839 C840 1.400 . S
C839 C844 1.490 . S
C840 H830 0.930 . S
C840 C839 1.400 . S
C840 C843 1.386 . S
H841 C857 0.930 . S
H842 C858 0.931 . S
C843 H831 0.929 . S
C843 C837 1.390 1_655 S
C843 C840 1.386 . S
C844 C839 1.490 . S
C844 C846 1.395 . S
C844 C847 1.403 . S
H845 C851 0.930 . S
C846 H832 0.930 . S
C846 C844 1.395 . S
C846 C849 1.403 . S
C847 C844 1.403 . S
C847 C848 1.524 . S
C847 C851 1.400 . S
C848 H833 0.960 . S
C848 H834 0.960 . S
C848 H835 0.960 . S
C848 C847 1.524 . S
C849 C846 1.403 . S
C849 C850 1.392 . S
C849 C853 1.495 . S
C850 C849 1.392 . S
C850 C851 1.385 . S
C850 C852 1.478 . S
C851 H845 0.930 . S
C851 C847 1.400 . S
C851 C850 1.385 . S
C852 C850 1.478 . S
C852 C854 1.381 . S
C852 C858 1.383 . S
C853 C849 1.495 . S
C853 H859 0.959 . S
C853 H860 0.961 . S
C853 H861 0.960 . S
C854 C852 1.381 . S
C854 C855 1.394 . S
C854 H862 0.930 . S
C855 C854 1.394 . S
C855 C856 1.383 . S
C855 H863 0.929 . S
C856 C855 1.383 . S
C856 C857 1.377 . S
C857 H841 0.930 . S
C857 C856 1.377 . S
C857 C858 1.379 . S
C858 H842 0.931 . S
C858 C852 1.383 . S
C858 C857 1.379 . S
H859 C853 0.959 . S
H860 C853 0.961 . S
H861 C853 0.960 . S
H862 C854 0.930 . S
H863 C855 0.929 . S
H864 C872 0.929 . S
H865 C874 0.930 . S
H866 C876 0.930 . S
H867 C879 0.929 . S
H868 C882 0.930 . S
H869 C884 0.960 . S
H870 C884 0.960 . S
H871 C884 0.960 . S
C872 H864 0.929 . S
C872 C873 1.377 . S
C872 C874 1.384 . S
C873 C872 1.377 . S
C873 C879 1.390 . S
C874 H865 0.930 . S
C874 C872 1.384 . S
C874 C875 1.372 . S
C875 C874 1.372 . S
C875 C876 1.400 . S
C875 C880 1.490 . S
C876 H866 0.930 . S
C876 C875 1.400 . S
C876 C879 1.386 . S
H877 C893 0.930 . S
H878 C894 0.931 . S
C879 H867 0.929 . S
C879 C873 1.390 . S
C879 C876 1.386 . S
C880 C875 1.490 . S
C880 C882 1.395 . S
C880 C883 1.403 . S
H881 C887 0.930 . S
C882 H868 0.930 . S
C882 C880 1.395 . S
C882 C885 1.403 . S
C883 C880 1.403 . S
C883 C884 1.524 . S
C883 C887 1.400 . S
C884 H869 0.960 . S
C884 H870 0.960 . S
C884 H871 0.960 . S
C884 C883 1.524 . S
C885 C882 1.403 . S
C885 C886 1.392 . S
C885 C889 1.495 . S
C886 C885 1.392 . S
C886 C887 1.385 . S
C886 C888 1.478 . S
C887 H881 0.930 . S
C887 C883 1.400 . S
C887 C886 1.385 . S
C888 C886 1.478 . S
C888 C890 1.381 . S
C888 C894 1.383 . S
C889 C885 1.495 . S
C889 H895 0.959 . S
C889 H896 0.961 . S
C889 H897 0.960 . S
C890 C888 1.381 . S
C890 C891 1.394 . S
C890 H898 0.930 . S
C891 C890 1.394 . S
C891 C892 1.383 . S
C891 H899 0.929 . S
C892 C891 1.383 . S
C892 C893 1.377 . S
C893 H877 0.930 . S
C893 C892 1.377 . S
C893 C894 1.379 . S
C894 H878 0.931 . S
C894 C888 1.383 . S
C894 C893 1.379 . S
H895 C889 0.959 . S
H896 C889 0.961 . S
H897 C889 0.960 . S
H898 C890 0.930 . S
H899 C891 0.929 . S
H900 C908 0.929 . S
H901 C910 0.930 . S
H902 C912 0.930 . S
H903 C915 0.929 . S
H904 C918 0.930 . S
H905 C920 0.960 . S
H906 C920 0.960 . S
H907 C920 0.960 . S
C908 H900 0.929 . S
C908 C909 1.377 . S
C908 C910 1.384 . S
C909 C908 1.377 . S
C909 C915 1.390 . S
C910 H901 0.930 . S
C910 C908 1.384 . S
C910 C911 1.372 . S
C911 C910 1.372 . S
C911 C912 1.400 . S
C911 C916 1.490 . S
C912 H902 0.930 . S
C912 C911 1.400 . S
C912 C915 1.386 . S
H913 C929 0.904 1_655 S
H914 C930 0.931 . S
C915 H903 0.929 . S
C915 C909 1.390 . S
C915 C912 1.386 . S
C916 C911 1.490 . S
C916 C918 1.395 . S
C916 C919 1.403 . S
H917 C923 0.930 . S
C918 H904 0.930 . S
C918 C916 1.395 . S
C918 C921 1.403 . S
C919 C916 1.403 . S
C919 C920 1.524 . S
C919 C923 1.400 . S
C920 H905 0.960 . S
C920 H906 0.960 . S
C920 H907 0.960 . S
C920 C919 1.524 . S
C921 C918 1.403 . S
C921 C922 1.392 . S
C921 C925 1.495 . S
C922 C921 1.392 . S
C922 C923 1.385 . S
C922 C924 1.478 . S
C923 H917 0.930 . S
C923 C919 1.400 . S
C923 C922 1.385 . S
C924 C922 1.478 . S
C924 C926 1.381 . S
C924 C930 1.383 . S
C925 C921 1.495 . S
C925 H931 0.959 . S
C925 H932 0.961 . S
C925 H933 0.960 . S
C926 C924 1.381 . S
C926 C927 1.394 . S
C926 H934 0.930 . S
C927 C926 1.394 . S
C927 C928 1.383 1_455 S
C927 H935 0.929 1_455 S
C928 C927 1.383 1_655 S
C928 C929 1.358 1_655 S
C929 H913 0.904 1_455 S
C929 C928 1.358 1_455 S
C929 C930 1.426 . S
C930 H914 0.931 . S
C930 C924 1.383 . S
C930 C929 1.426 . S
H931 C925 0.959 . S
H932 C925 0.961 . S
H933 C925 0.960 . S
H934 C926 0.930 . S
H935 C927 0.929 1_655 S
H936 C944 0.929 . S
H937 C946 0.930 . S
H938 C948 0.930 . S
H939 C951 0.929 . S
H940 C954 0.930 . S
H941 C956 0.960 . S
H942 C956 0.960 . S
H943 C956 0.960 . S
C944 H936 0.929 . S
C944 C945 1.377 . S
C944 C946 1.384 . S
C945 C944 1.377 . S
C945 C951 1.390 . S
C946 H937 0.930 . S
C946 C944 1.384 . S
C946 C947 1.372 . S
C947 C946 1.372 . S
C947 C948 1.400 . S
C947 C952 1.490 . S
C948 H938 0.930 . S
C948 C947 1.400 . S
C948 C951 1.386 . S
H949 C965 0.930 . S
H950 C966 0.931 . S
C951 H939 0.929 . S
C951 C945 1.390 . S
C951 C948 1.386 . S
C952 C947 1.490 . S
C952 C954 1.395 . S
C952 C955 1.403 . S
H953 C959 0.930 . S
C954 H940 0.930 . S
C954 C952 1.395 . S
C954 C957 1.403 . S
C955 C952 1.403 . S
C955 C956 1.524 . S
C955 C959 1.400 . S
C956 H941 0.960 . S
C956 H942 0.960 . S
C956 H943 0.960 . S
C956 C955 1.524 . S
C957 C954 1.403 . S
C957 C958 1.392 . S
C957 C961 1.495 . S
C958 C957 1.392 . S
C958 C959 1.385 . S
C958 C960 1.478 . S
C959 H953 0.930 . S
C959 C955 1.400 . S
C959 C958 1.385 . S
C960 C958 1.478 . S
C960 C962 1.381 . S
C960 C966 1.383 . S
C961 C957 1.495 . S
C961 H967 0.959 . S
C961 H968 0.961 . S
C961 H969 0.960 . S
C962 C960 1.381 . S
C962 C963 1.394 . S
C962 H970 0.930 . S
C963 C962 1.394 . S
C963 C964 1.383 . S
C963 H971 0.929 . S
C964 C963 1.383 . S
C964 C965 1.377 . S
C965 H949 0.930 . S
C965 C964 1.377 . S
C965 C966 1.379 . S
C966 H950 0.931 . S
C966 C960 1.383 . S
C966 C965 1.379 . S
H967 C961 0.959 . S
H968 C961 0.961 . S
H969 C961 0.960 . S
H970 C962 0.930 . S
H971 C963 0.929 . S
H972 C980 0.929 . S
H973 C982 0.930 . S
H974 C984 0.930 . S
H975 C987 0.929 . S
H976 C990 0.930 . S
H977 C992 0.960 . S
H978 C992 0.960 . S
H979 C992 0.960 . S
C980 H972 0.929 . S
C980 C981 1.377 . S
C980 C982 1.384 1_655 S
C981 C980 1.377 . S
C981 C987 1.390 1_655 S
C982 H973 0.930 . S
C982 C980 1.384 1_455 S
C982 C983 1.372 . S
C983 C982 1.372 . S
C983 C984 1.400 . S
C983 C988 1.490 . S
C984 H974 0.930 . S
C984 C983 1.400 . S
C984 C987 1.386 . S
H985 C1001 0.930 . S
H986 C1002 0.931 . S
C987 H975 0.929 . S
C987 C981 1.390 1_455 S
C987 C984 1.386 . S
C988 C983 1.490 . S
C988 C990 1.395 . S
C988 C991 1.403 . S
H989 C995 0.930 . S
C990 H976 0.930 . S
C990 C988 1.395 . S
C990 C993 1.403 . S
C991 C988 1.403 . S
C991 C992 1.524 . S
C991 C995 1.400 . S
C992 H977 0.960 . S
C992 H978 0.960 . S
C992 H979 0.960 . S
C992 C991 1.524 . S
C993 C990 1.403 . S
C993 C994 1.392 . S
C993 C997 1.495 . S
C994 C993 1.392 . S
C994 C995 1.385 . S
C994 C996 1.478 . S
C995 H989 0.930 . S
C995 C991 1.400 . S
C995 C994 1.385 . S
C996 C994 1.478 . S
C996 C998 1.381 . S
C996 C1002 1.383 . S
C997 C993 1.495 . S
C997 H1003 0.959 . S
C997 H1004 0.961 . S
C997 H1005 0.960 . S
C998 C996 1.381 . S
C998 C999 1.394 . S
C998 H1006 0.930 . S
C999 C998 1.394 . S
C999 C1000 1.383 . S
C999 H1007 0.929 . S
C1000 C999 1.383 . S
C1000 C1001 1.377 . S
C1001 H985 0.930 . S
C1001 C1000 1.377 . S
C1001 C1002 1.379 . S
C1002 H986 0.931 . S
C1002 C996 1.383 . S
C1002 C1001 1.379 . S
H1003 C997 0.959 . S
H1004 C997 0.961 . S
H1005 C997 0.960 . S
H1006 C998 0.930 . S
H1007 C999 0.929 . S
H1008 C1016 0.929 . S
H1009 C1018 0.930 . S
H1010 C1020 0.930 . S
H1011 C1023 0.929 . S
H1012 C1026 0.930 . S
H1013 C1028 0.960 . S
H1014 C1028 0.960 . S
H1015 C1028 0.960 . S
C1016 H1008 0.929 . S
C1016 C1017 1.377 . S
C1016 C1018 1.384 . S
C1017 C1016 1.377 . S
C1017 C1023 1.390 . S
C1018 H1009 0.930 . S
C1018 C1016 1.384 . S
C1018 C1019 1.372 . S
C1019 C1018 1.372 . S
C1019 C1020 1.400 . S
C1019 C1024 1.490 . S
C1020 H1010 0.930 . S
C1020 C1019 1.400 . S
C1020 C1023 1.386 . S
H1021 C1037 0.930 . S
H1022 C1038 0.931 . S
C1023 H1011 0.929 . S
C1023 C1017 1.390 . S
C1023 C1020 1.386 . S
C1024 C1019 1.490 . S
C1024 C1026 1.395 . S
C1024 C1027 1.403 . S
H1025 C1031 0.930 . S
C1026 H1012 0.930 . S
C1026 C1024 1.395 . S
C1026 C1029 1.403 . S
C1027 C1024 1.403 . S
C1027 C1028 1.524 . S
C1027 C1031 1.400 . S
C1028 H1013 0.960 . S
C1028 H1014 0.960 . S
C1028 H1015 0.960 . S
C1028 C1027 1.524 . S
C1029 C1026 1.403 . S
C1029 C1030 1.392 . S
C1029 C1033 1.495 . S
C1030 C1029 1.392 . S
C1030 C1031 1.385 . S
C1030 C1032 1.478 . S
C1031 H1025 0.930 . S
C1031 C1027 1.400 . S
C1031 C1030 1.385 . S
C1032 C1030 1.478 . S
C1032 C1034 1.381 . S
C1032 C1038 1.383 . S
C1033 C1029 1.495 . S
C1033 H1039 0.959 . S
C1033 H1040 0.961 . S
C1033 H1041 0.960 . S
C1034 C1032 1.381 . S
C1034 C1035 1.394 . S
C1034 H1042 0.930 . S
C1035 C1034 1.394 . S
C1035 C1036 1.383 . S
C1035 H1043 0.929 . S
C1036 C1035 1.383 . S
C1036 C1037 1.377 . S
C1037 H1021 0.930 . S
C1037 C1036 1.377 . S
C1037 C1038 1.379 . S
C1038 H1022 0.931 . S
C1038 C1032 1.383 . S
C1038 C1037 1.379 . S
H1039 C1033 0.959 . S
H1040 C1033 0.961 . S
H1041 C1033 0.960 . S
H1042 C1034 0.930 . S
H1043 C1035 0.929 . S
H1044 C1052 0.929 1_455 S
H1045 C1054 0.930 . S
H1046 C1056 0.930 . S
H1047 C1059 0.940 . S
H1048 C1062 0.930 . S
H1049 C1064 0.960 . S
H1050 C1064 0.960 . S
H1051 C1064 0.960 . S
C1052 H1044 0.929 1_655 S
C1052 C1053 1.377 1_655 S
C1052 C1054 1.384 . S
C1053 C1052 1.377 1_455 S
C1053 C1059 1.398 . S
C1054 H1045 0.930 . S
C1054 C1052 1.384 . S
C1054 C1055 1.372 . S
C1055 C1054 1.372 . S
C1055 C1056 1.400 . S
C1055 C1060 1.490 . S
C1056 H1046 0.930 . S
C1056 C1055 1.400 . S
C1056 C1059 1.367 1_655 S
H1057 C1073 0.930 . S
H1058 C1074 0.931 . S
C1059 H1047 0.940 . S
C1059 C1053 1.398 . S
C1059 C1056 1.367 1_455 S
C1060 C1055 1.490 . S
C1060 C1062 1.395 . S
C1060 C1063 1.403 . S
H1061 C1067 0.930 . S
C1062 H1048 0.930 . S
C1062 C1060 1.395 . S
C1062 C1065 1.403 . S
C1063 C1060 1.403 . S
C1063 C1064 1.524 . S
C1063 C1067 1.400 . S
C1064 H1049 0.960 . S
C1064 H1050 0.960 . S
C1064 H1051 0.960 . S
C1064 C1063 1.524 . S
C1065 C1062 1.403 . S
C1065 C1066 1.392 . S
C1065 C1069 1.495 . S
C1066 C1065 1.392 . S
C1066 C1067 1.385 . S
C1066 C1068 1.478 . S
C1067 H1061 0.930 . S
C1067 C1063 1.400 . S
C1067 C1066 1.385 . S
C1068 C1066 1.478 . S
C1068 C1070 1.381 . S
C1068 C1074 1.383 . S
C1069 C1065 1.495 . S
C1069 H1075 0.959 . S
C1069 H1076 0.961 . S
C1069 H1077 0.960 . S
C1070 C1068 1.381 . S
C1070 C1071 1.394 . S
C1070 H1078 0.930 . S
C1071 C1070 1.394 . S
C1071 C1072 1.383 . S
C1071 H1079 0.929 . S
C1072 C1071 1.383 . S
C1072 C1073 1.377 . S
C1073 H1057 0.930 . S
C1073 C1072 1.377 . S
C1073 C1074 1.379 . S
C1074 H1058 0.931 . S
C1074 C1068 1.383 . S
C1074 C1073 1.379 . S
H1075 C1069 0.959 . S
H1076 C1069 0.961 . S
H1077 C1069 0.960 . S
H1078 C1070 0.930 . S
H1079 C1071 0.929 . S
H1080 C1088 0.929 . S
H1081 C1090 0.930 . S
H1082 C1092 0.930 . S
H1083 C1095 0.929 . S
H1084 C1098 0.930 . S
H1085 C1100 0.960 . S
H1086 C1100 0.960 . S
H1087 C1100 0.960 . S
C1088 H1080 0.929 . S
C1088 C1089 1.377 . S
C1088 C1090 1.384 . S
C1089 C1088 1.377 . S
C1089 C1095 1.390 . S
C1090 H1081 0.930 . S
C1090 C1088 1.384 . S
C1090 C1091 1.372 . S
C1091 C1090 1.372 . S
C1091 C1092 1.400 . S
C1091 C1096 1.490 . S
C1092 H1082 0.930 . S
C1092 C1091 1.400 . S
C1092 C1095 1.386 . S
H1093 C1109 0.930 . S
H1094 C1110 0.931 . S
C1095 H1083 0.929 . S
C1095 C1089 1.390 . S
C1095 C1092 1.386 . S
C1096 C1091 1.490 . S
C1096 C1098 1.395 . S
C1096 C1099 1.403 . S
H1097 C1103 0.930 . S
C1098 H1084 0.930 . S
C1098 C1096 1.395 . S
C1098 C1101 1.403 . S
C1099 C1096 1.403 . S
C1099 C1100 1.524 . S
C1099 C1103 1.400 . S
C1100 H1085 0.960 . S
C1100 H1086 0.960 . S
C1100 H1087 0.960 . S
C1100 C1099 1.524 . S
C1101 C1098 1.403 . S
C1101 C1102 1.392 . S
C1101 C1105 1.495 . S
C1102 C1101 1.392 . S
C1102 C1103 1.385 . S
C1102 C1104 1.478 . S
C1103 H1097 0.930 . S
C1103 C1099 1.400 . S
C1103 C1102 1.385 . S
C1104 C1102 1.478 . S
C1104 C1106 1.381 . S
C1104 C1110 1.383 . S
C1105 C1101 1.495 . S
C1105 H1111 0.959 . S
C1105 H1112 0.961 . S
C1105 H1113 0.960 . S
C1106 C1104 1.381 . S
C1106 C1107 1.394 . S
C1106 H1114 0.930 . S
C1107 C1106 1.394 . S
C1107 C1108 1.383 . S
C1107 H1115 0.929 . S
C1108 C1107 1.383 . S
C1108 C1109 1.377 . S
C1109 H1093 0.930 . S
C1109 C1108 1.377 . S
C1109 C1110 1.379 . S
C1110 H1094 0.931 . S
C1110 C1104 1.383 . S
C1110 C1109 1.379 . S
H1111 C1105 0.959 . S
H1112 C1105 0.961 . S
H1113 C1105 0.960 . S
H1114 C1106 0.930 . S
H1115 C1107 0.929 . S
H1116 C1124 0.929 . S
H1117 C1126 0.930 . S
H1118 C1128 0.930 . S
H1119 C1131 0.929 . S
H1120 C1134 0.930 . S
H1121 C1136 0.960 . S
H1122 C1136 0.960 . S
H1123 C1136 0.960 . S
C1124 H1116 0.929 . S
C1124 C1125 1.377 . S
C1124 C1126 1.384 . S
C1125 C1124 1.377 . S
C1125 C1131 1.390 . S
C1126 H1117 0.930 . S
C1126 C1124 1.384 . S
C1126 C1127 1.372 . S
C1127 C1126 1.372 . S
C1127 C1128 1.400 . S
C1127 C1132 1.490 . S
C1128 H1118 0.930 . S
C1128 C1127 1.400 . S
C1128 C1131 1.386 . S
H1129 C1145 0.930 . S
H1130 C1146 0.931 . S
C1131 H1119 0.929 . S
C1131 C1125 1.390 . S
C1131 C1128 1.386 . S
C1132 C1127 1.490 . S
C1132 C1134 1.395 . S
C1132 C1135 1.403 . S
H1133 C1139 0.930 . S
C1134 H1120 0.930 . S
C1134 C1132 1.395 . S
C1134 C1137 1.403 . S
C1135 C1132 1.403 . S
C1135 C1136 1.524 . S
C1135 C1139 1.400 . S
C1136 H1121 0.960 . S
C1136 H1122 0.960 . S
C1136 H1123 0.960 . S
C1136 C1135 1.524 . S
C1137 C1134 1.403 . S
C1137 C1138 1.392 . S
C1137 C1141 1.495 . S
C1138 C1137 1.392 . S
C1138 C1139 1.385 . S
C1138 C1140 1.478 . S
C1139 H1133 0.930 . S
C1139 C1135 1.400 . S
C1139 C1138 1.385 . S
C1140 C1138 1.478 . S
C1140 C1142 1.381 . S
C1140 C1146 1.383 . S
C1141 C1137 1.495 . S
C1141 H1147 0.959 . S
C1141 H1148 0.961 . S
C1141 H1149 0.960 . S
C1142 C1140 1.381 . S
C1142 C1143 1.394 . S
C1142 H1150 0.930 . S
C1143 C1142 1.394 . S
C1143 C1144 1.383 1_554 S
C1143 H1151 0.929 . S
C1144 C1143 1.383 1_556 S
C1144 C1145 1.377 . S
C1145 H1129 0.930 . S
C1145 C1144 1.377 . S
C1145 C1146 1.379 1_556 S
C1146 H1130 0.931 . S
C1146 C1140 1.383 . S
C1146 C1145 1.379 1_554 S
H1147 C1141 0.959 . S
H1148 C1141 0.961 . S
H1149 C1141 0.960 . S
H1150 C1142 0.930 . S
H1151 C1143 0.929 . S
H1152 C1160 0.929 . S
H1153 C1162 0.930 . S
H1154 C1164 0.930 . S
H1155 C1167 0.929 . S
H1156 C1170 0.930 . S
H1157 C1172 0.960 . S
H1158 C1172 0.960 . S
H1159 C1172 0.960 . S
C1160 H1152 0.929 . S
C1160 C1161 1.377 . S
C1160 C1162 1.384 . S
C1161 C1160 1.377 . S
C1161 C1167 1.390 . S
C1162 H1153 0.930 . S
C1162 C1160 1.384 . S
C1162 C1163 1.372 . S
C1163 C1162 1.372 . S
C1163 C1164 1.400 . S
C1163 C1168 1.490 . S
C1164 H1154 0.930 . S
C1164 C1163 1.400 . S
C1164 C1167 1.386 . S
H1165 C1181 0.930 . S
H1166 C1182 0.931 . S
C1167 H1155 0.929 . S
C1167 C1161 1.390 . S
C1167 C1164 1.386 . S
C1168 C1163 1.490 . S
C1168 C1170 1.395 . S
C1168 C1171 1.403 . S
H1169 C1175 0.930 . S
C1170 H1156 0.930 . S
C1170 C1168 1.395 . S
C1170 C1173 1.403 . S
C1171 C1168 1.403 . S
C1171 C1172 1.524 . S
C1171 C1175 1.400 . S
C1172 H1157 0.960 . S
C1172 H1158 0.960 . S
C1172 H1159 0.960 . S
C1172 C1171 1.524 . S
C1173 C1170 1.403 . S
C1173 C1174 1.392 . S
C1173 C1177 1.495 . S
C1174 C1173 1.392 . S
C1174 C1175 1.385 . S
C1174 C1176 1.478 . S
C1175 H1169 0.930 . S
C1175 C1171 1.400 . S
C1175 C1174 1.385 . S
C1176 C1174 1.478 . S
C1176 C1178 1.381 . S
C1176 C1182 1.383 . S
C1177 C1173 1.495 . S
C1177 H1183 0.959 . S
C1177 H1184 0.961 . S
C1177 H1185 0.960 . S
C1178 C1176 1.381 . S
C1178 C1179 1.394 . S
C1178 H1186 0.930 . S
C1179 C1178 1.394 . S
C1179 C1180 1.383 . S
C1179 H1187 0.929 . S
C1180 C1179 1.383 . S
C1180 C1181 1.377 . S
C1181 H1165 0.930 . S
C1181 C1180 1.377 . S
C1181 C1182 1.379 . S
C1182 H1166 0.931 . S
C1182 C1176 1.383 . S
C1182 C1181 1.379 . S
H1183 C1177 0.959 . S
H1184 C1177 0.961 . S
H1185 C1177 0.960 . S
H1186 C1178 0.930 . S
H1187 C1179 0.929 . S
H1188 C1196 0.929 . S
H1189 C1198 0.930 . S
H1190 C1200 0.930 . S
H1191 C1203 0.929 . S
H1192 C1206 0.930 . S
H1193 C1208 0.960 . S
H1194 C1208 0.960 . S
H1195 C1208 0.960 . S
C1196 H1188 0.929 . S
C1196 C1197 1.377 1_554 S
C1196 C1198 1.384 . S
C1197 C1196 1.377 1_556 S
C1197 C1203 1.390 . S
C1198 H1189 0.930 . S
C1198 C1196 1.384 . S
C1198 C1199 1.372 . S
C1199 C1198 1.372 . S
C1199 C1200 1.400 . S
C1199 C1204 1.490 . S
C1200 H1190 0.930 . S
C1200 C1199 1.400 . S
C1200 C1203 1.386 1_554 S
H1201 C1217 0.930 . S
H1202 C1218 0.931 . S
C1203 H1191 0.929 . S
C1203 C1197 1.390 . S
C1203 C1200 1.386 1_556 S
C1204 C1199 1.490 . S
C1204 C1206 1.395 . S
C1204 C1207 1.403 . S
H1205 C1211 0.930 . S
C1206 H1192 0.930 . S
C1206 C1204 1.395 . S
C1206 C1209 1.403 . S
C1207 C1204 1.403 . S
C1207 C1208 1.524 . S
C1207 C1211 1.400 . S
C1208 H1193 0.960 . S
C1208 H1194 0.960 . S
C1208 H1195 0.960 . S
C1208 C1207 1.524 . S
C1209 C1206 1.403 . S
C1209 C1210 1.392 . S
C1209 C1213 1.495 . S
C1210 C1209 1.392 . S
C1210 C1211 1.385 . S
C1210 C1212 1.478 . S
C1211 H1205 0.930 . S
C1211 C1207 1.400 . S
C1211 C1210 1.385 . S
C1212 C1210 1.478 . S
C1212 C1214 1.381 . S
C1212 C1218 1.383 . S
C1213 C1209 1.495 . S
C1213 H1219 0.959 . S
C1213 H1220 0.961 . S
C1213 H1221 0.960 . S
C1214 C1212 1.381 . S
C1214 C1215 1.394 . S
C1214 H1222 0.930 . S
C1215 C1214 1.394 . S
C1215 C1216 1.383 . S
C1215 H1223 0.929 . S
C1216 C1215 1.383 . S
C1216 C1217 1.377 . S
C1217 H1201 0.930 . S
C1217 C1216 1.377 . S
C1217 C1218 1.379 . S
C1218 H1202 0.931 . S
C1218 C1212 1.383 . S
C1218 C1217 1.379 . S
H1219 C1213 0.959 . S
H1220 C1213 0.961 . S
H1221 C1213 0.960 . S
H1222 C1214 0.930 . S
H1223 C1215 0.929 . S
H1224 C1232 0.929 . S
H1225 C1234 0.930 . S
H1226 C1236 0.930 . S
H1227 C1239 0.929 . S
H1228 C1242 0.930 . S
H1229 C1244 0.960 . S
H1230 C1244 0.960 . S
H1231 C1244 0.960 . S
C1232 H1224 0.929 . S
C1232 C1233 1.377 . S
C1232 C1234 1.384 . S
C1233 C1232 1.377 . S
C1233 C1239 1.390 . S
C1234 H1225 0.930 . S
C1234 C1232 1.384 . S
C1234 C1235 1.372 . S
C1235 C1234 1.372 . S
C1235 C1236 1.400 . S
C1235 C1240 1.490 . S
C1236 H1226 0.930 . S
C1236 C1235 1.400 . S
C1236 C1239 1.386 . S
H1237 C1253 0.930 . S
H1238 C1254 0.931 . S
C1239 H1227 0.929 . S
C1239 C1233 1.390 . S
C1239 C1236 1.386 . S
C1240 C1235 1.490 . S
C1240 C1242 1.395 . S
C1240 C1243 1.403 . S
H1241 C1247 0.930 . S
C1242 H1228 0.930 . S
C1242 C1240 1.395 . S
C1242 C1245 1.403 . S
C1243 C1240 1.403 . S
C1243 C1244 1.524 . S
C1243 C1247 1.400 . S
C1244 H1229 0.960 . S
C1244 H1230 0.960 . S
C1244 H1231 0.960 . S
C1244 C1243 1.524 . S
C1245 C1242 1.403 . S
C1245 C1246 1.392 . S
C1245 C1249 1.495 . S
C1246 C1245 1.392 . S
C1246 C1247 1.385 . S
C1246 C1248 1.478 . S
C1247 H1241 0.930 . S
C1247 C1243 1.400 . S
C1247 C1246 1.385 . S
C1248 C1246 1.478 . S
C1248 C1250 1.381 . S
C1248 C1254 1.383 . S
C1249 C1245 1.495 . S
C1249 H1255 0.959 . S
C1249 H1256 0.961 . S
C1249 H1257 0.960 . S
C1250 C1248 1.381 . S
C1250 C1251 1.394 . S
C1250 H1258 0.930 . S
C1251 C1250 1.394 . S
C1251 C1252 1.383 . S
C1251 H1259 0.929 . S
C1252 C1251 1.383 . S
C1252 C1253 1.377 . S
C1253 H1237 0.930 . S
C1253 C1252 1.377 . S
C1253 C1254 1.379 . S
C1254 H1238 0.931 . S
C1254 C1248 1.383 . S
C1254 C1253 1.379 . S
H1255 C1249 0.959 . S
H1256 C1249 0.961 . S
H1257 C1249 0.960 . S
H1258 C1250 0.930 . S
H1259 C1251 0.929 . S
H1260 C1268 0.929 . S
H1261 C1270 0.930 . S
H1262 C1272 0.930 . S
H1263 C1275 0.929 . S
H1264 C1278 0.930 . S
H1265 C1280 0.960 . S
H1266 C1280 0.960 . S
H1267 C1280 0.960 . S
C1268 H1260 0.929 . S
C1268 C1269 1.377 . S
C1268 C1270 1.384 . S
C1269 C1268 1.377 . S
C1269 C1275 1.390 . S
C1270 H1261 0.930 . S
C1270 C1268 1.384 . S
C1270 C1271 1.372 . S
C1271 C1270 1.372 . S
C1271 C1272 1.400 . S
C1271 C1276 1.490 . S
C1272 H1262 0.930 . S
C1272 C1271 1.400 . S
C1272 C1275 1.386 . S
H1273 C1289 0.930 1_554 S
H1274 C1290 0.931 . S
C1275 H1263 0.929 . S
C1275 C1269 1.390 . S
C1275 C1272 1.386 . S
C1276 C1271 1.490 . S
C1276 C1278 1.395 . S
C1276 C1279 1.403 . S
H1277 C1283 0.930 . S
C1278 H1264 0.930 . S
C1278 C1276 1.395 . S
C1278 C1281 1.403 . S
C1279 C1276 1.403 . S
C1279 C1280 1.524 . S
C1279 C1283 1.400 . S
C1280 H1265 0.960 . S
C1280 H1266 0.960 . S
C1280 H1267 0.960 . S
C1280 C1279 1.524 . S
C1281 C1278 1.403 . S
C1281 C1282 1.392 . S
C1281 C1285 1.495 . S
C1282 C1281 1.392 . S
C1282 C1283 1.385 . S
C1282 C1284 1.478 . S
C1283 H1277 0.930 . S
C1283 C1279 1.400 . S
C1283 C1282 1.385 . S
C1284 C1282 1.478 . S
C1284 C1286 1.381 . S
C1284 C1290 1.383 . S
C1285 C1281 1.495 . S
C1285 H1291 0.959 . S
C1285 H1292 0.961 . S
C1285 H1293 0.960 . S
C1286 C1284 1.381 . S
C1286 C1287 1.394 . S
C1286 H1294 0.930 . S
C1287 C1286 1.394 . S
C1287 C1288 1.383 1_556 S
C1287 H1295 0.929 1_556 S
C1288 C1287 1.383 1_554 S
C1288 C1289 1.377 1_554 S
C1289 H1273 0.930 1_556 S
C1289 C1288 1.377 1_556 S
C1289 C1290 1.379 . S
C1290 H1274 0.931 . S
C1290 C1284 1.383 . S
C1290 C1289 1.379 . S
H1291 C1285 0.959 . S
H1292 C1285 0.961 . S
H1293 C1285 0.960 . S
H1294 C1286 0.930 . S
H1295 C1287 0.929 1_554 S
H1296 C1304 0.929 . S
H1297 C1306 0.930 . S
H1298 C1308 0.930 . S
H1299 C1311 0.929 . S
H1300 C1314 0.930 . S
H1301 C1316 0.960 . S
H1302 C1316 0.960 . S
H1303 C1316 0.960 . S
C1304 H1296 0.929 . S
C1304 C1305 1.377 . S
C1304 C1306 1.384 . S
C1305 C1304 1.377 . S
C1305 C1311 1.390 . S
C1306 H1297 0.930 . S
C1306 C1304 1.384 . S
C1306 C1307 1.372 . S
C1307 C1306 1.372 . S
C1307 C1308 1.400 . S
C1307 C1312 1.490 . S
C1308 H1298 0.930 . S
C1308 C1307 1.400 . S
C1308 C1311 1.386 . S
H1309 C1325 0.930 . S
H1310 C1326 0.931 . S
C1311 H1299 0.929 . S
C1311 C1305 1.390 . S
C1311 C1308 1.386 . S
C1312 C1307 1.490 . S
C1312 C1314 1.395 . S
C1312 C1315 1.403 . S
H1313 C1319 0.930 . S
C1314 H1300 0.930 . S
C1314 C1312 1.395 . S
C1314 C1317 1.403 . S
C1315 C1312 1.403 . S
C1315 C1316 1.524 . S
C1315 C1319 1.400 . S
C1316 H1301 0.960 . S
C1316 H1302 0.960 . S
C1316 H1303 0.960 . S
C1316 C1315 1.524 . S
C1317 C1314 1.403 . S
C1317 C1318 1.392 . S
C1317 C1321 1.495 . S
C1318 C1317 1.392 . S
C1318 C1319 1.385 . S
C1318 C1320 1.478 . S
C1319 H1313 0.930 . S
C1319 C1315 1.400 . S
C1319 C1318 1.385 . S
C1320 C1318 1.478 . S
C1320 C1322 1.381 . S
C1320 C1326 1.383 . S
C1321 C1317 1.495 . S
C1321 H1327 0.959 . S
C1321 H1328 0.961 . S
C1321 H1329 0.960 . S
C1322 C1320 1.381 . S
C1322 C1323 1.394 . S
C1322 H1330 0.930 . S
C1323 C1322 1.394 . S
C1323 C1324 1.383 . S
C1323 H1331 0.929 . S
C1324 C1323 1.383 . S
C1324 C1325 1.377 . S
C1325 H1309 0.930 . S
C1325 C1324 1.377 . S
C1325 C1326 1.379 . S
C1326 H1310 0.931 . S
C1326 C1320 1.383 . S
C1326 C1325 1.379 . S
H1327 C1321 0.959 . S
H1328 C1321 0.961 . S
H1329 C1321 0.960 . S
H1330 C1322 0.930 . S
H1331 C1323 0.929 . S
H1332 C1340 0.929 . S
H1333 C1342 0.930 . S
H1334 C1344 0.930 . S
H1335 C1347 0.929 . S
H1336 C1350 0.930 . S
H1337 C1352 0.960 . S
H1338 C1352 0.960 . S
H1339 C1352 0.960 . S
C1340 H1332 0.929 . S
C1340 C1341 1.377 . S
C1340 C1342 1.384 1_554 S
C1341 C1340 1.377 . S
C1341 C1347 1.390 1_554 S
C1342 H1333 0.930 . S
C1342 C1340 1.384 1_556 S
C1342 C1343 1.372 . S
C1343 C1342 1.372 . S
C1343 C1344 1.400 . S
C1343 C1348 1.490 . S
C1344 H1334 0.930 . S
C1344 C1343 1.400 . S
C1344 C1347 1.386 . S
H1345 C1361 0.930 . S
H1346 C1362 0.931 . S
C1347 H1335 0.929 . S
C1347 C1341 1.390 1_556 S
C1347 C1344 1.386 . S
C1348 C1343 1.490 . S
C1348 C1350 1.395 . S
C1348 C1351 1.403 . S
H1349 C1355 0.930 . S
C1350 H1336 0.930 . S
C1350 C1348 1.395 . S
C1350 C1353 1.403 . S
C1351 C1348 1.403 . S
C1351 C1352 1.524 . S
C1351 C1355 1.400 . S
C1352 H1337 0.960 . S
C1352 H1338 0.960 . S
C1352 H1339 0.960 . S
C1352 C1351 1.524 . S
C1353 C1350 1.403 . S
C1353 C1354 1.392 . S
C1353 C1357 1.495 . S
C1354 C1353 1.392 . S
C1354 C1355 1.385 . S
C1354 C1356 1.478 . S
C1355 H1349 0.930 . S
C1355 C1351 1.400 . S
C1355 C1354 1.385 . S
C1356 C1354 1.478 . S
C1356 C1358 1.381 . S
C1356 C1362 1.383 . S
C1357 C1353 1.495 . S
C1357 H1363 0.959 . S
C1357 H1364 0.961 . S
C1357 H1365 0.960 . S
C1358 C1356 1.381 . S
C1358 C1359 1.394 . S
C1358 H1366 0.930 . S
C1359 C1358 1.394 . S
C1359 C1360 1.383 . S
C1359 H1367 0.929 . S
C1360 C1359 1.383 . S
C1360 C1361 1.377 . S
C1361 H1345 0.930 . S
C1361 C1360 1.377 . S
C1361 C1362 1.379 . S
C1362 H1346 0.931 . S
C1362 C1356 1.383 . S
C1362 C1361 1.379 . S
H1363 C1357 0.959 . S
H1364 C1357 0.961 . S
H1365 C1357 0.960 . S
H1366 C1358 0.930 . S
H1367 C1359 0.929 . S
H1368 C1376 0.929 . S
H1369 C1378 0.930 . S
H1370 C1380 0.930 . S
H1371 C1383 0.929 . S
H1372 C1386 0.930 . S
H1373 C1388 0.960 . S
H1374 C1388 0.960 . S
H1375 C1388 0.960 . S
C1376 H1368 0.929 . S
C1376 C1377 1.377 . S
C1376 C1378 1.384 . S
C1377 C1376 1.377 . S
C1377 C1383 1.390 . S
C1378 H1369 0.930 . S
C1378 C1376 1.384 . S
C1378 C1379 1.372 . S
C1379 C1378 1.372 . S
C1379 C1380 1.400 . S
C1379 C1384 1.490 . S
C1380 H1370 0.930 . S
C1380 C1379 1.400 . S
C1380 C1383 1.386 . S
H1381 C1397 0.930 . S
H1382 C1398 0.931 . S
C1383 H1371 0.929 . S
C1383 C1377 1.390 . S
C1383 C1380 1.386 . S
C1384 C1379 1.490 . S
C1384 C1386 1.395 . S
C1384 C1387 1.403 . S
H1385 C1391 0.930 . S
C1386 H1372 0.930 . S
C1386 C1384 1.395 . S
C1386 C1389 1.403 . S
C1387 C1384 1.403 . S
C1387 C1388 1.524 . S
C1387 C1391 1.400 . S
C1388 H1373 0.960 . S
C1388 H1374 0.960 . S
C1388 H1375 0.960 . S
C1388 C1387 1.524 . S
C1389 C1386 1.403 . S
C1389 C1390 1.392 . S
C1389 C1393 1.495 . S
C1390 C1389 1.392 . S
C1390 C1391 1.385 . S
C1390 C1392 1.478 . S
C1391 H1385 0.930 . S
C1391 C1387 1.400 . S
C1391 C1390 1.385 . S
C1392 C1390 1.478 . S
C1392 C1394 1.381 . S
C1392 C1398 1.383 . S
C1393 C1389 1.495 . S
C1393 H1399 0.959 . S
C1393 H1400 0.961 . S
C1393 H1401 0.960 . S
C1394 C1392 1.381 . S
C1394 C1395 1.394 . S
C1394 H1402 0.930 . S
C1395 C1394 1.394 . S
C1395 C1396 1.383 . S
C1395 H1403 0.929 . S
C1396 C1395 1.383 . S
C1396 C1397 1.377 . S
C1397 H1381 0.930 . S
C1397 C1396 1.377 . S
C1397 C1398 1.379 . S
C1398 H1382 0.931 . S
C1398 C1392 1.383 . S
C1398 C1397 1.379 . S
H1399 C1393 0.959 . S
H1400 C1393 0.961 . S
H1401 C1393 0.960 . S
H1402 C1394 0.930 . S
H1403 C1395 0.929 . S
H1404 C1412 0.929 . S
H1405 C1414 0.930 . S
H1406 C1416 0.930 . S
H1407 C1419 0.929 . S
H1408 C1422 0.930 . S
H1409 C1424 0.960 . S
H1410 C1424 0.960 . S
H1411 C1424 0.960 . S
C1412 H1404 0.929 . S
C1412 C1413 1.377 . S
C1412 C1414 1.384 . S
C1413 C1412 1.377 . S
C1413 C1419 1.390 . S
C1414 H1405 0.930 . S
C1414 C1412 1.384 . S
C1414 C1415 1.372 . S
C1415 C1414 1.372 . S
C1415 C1416 1.400 . S
C1415 C1420 1.490 . S
C1416 H1406 0.930 . S
C1416 C1415 1.400 . S
C1416 C1419 1.386 . S
H1417 C1433 0.930 . S
H1418 C1434 0.931 . S
C1419 H1407 0.929 . S
C1419 C1413 1.390 . S
C1419 C1416 1.386 . S
C1420 C1415 1.490 . S
C1420 C1422 1.395 . S
C1420 C1423 1.403 . S
H1421 C1427 0.930 . S
C1422 H1408 0.930 . S
C1422 C1420 1.395 . S
C1422 C1425 1.403 . S
C1423 C1420 1.403 . S
C1423 C1424 1.524 . S
C1423 C1427 1.400 . S
C1424 H1409 0.960 . S
C1424 H1410 0.960 . S
C1424 H1411 0.960 . S
C1424 C1423 1.524 . S
C1425 C1422 1.403 . S
C1425 C1426 1.392 . S
C1425 C1429 1.495 . S
C1426 C1425 1.392 . S
C1426 C1427 1.385 . S
C1426 C1428 1.478 . S
C1427 H1421 0.930 . S
C1427 C1423 1.400 . S
C1427 C1426 1.385 . S
C1428 C1426 1.478 . S
C1428 C1430 1.381 . S
C1428 C1434 1.383 . S
C1429 C1425 1.495 . S
C1429 H1435 0.959 . S
C1429 H1436 0.961 . S
C1429 H1437 0.960 . S
C1430 C1428 1.381 . S
C1430 C1431 1.394 . S
C1430 H1438 0.930 . S
C1431 C1430 1.394 . S
C1431 C1432 1.383 . S
C1431 H1439 0.929 . S
C1432 C1431 1.383 . S
C1432 C1433 1.377 . S
C1433 H1417 0.930 . S
C1433 C1432 1.377 . S
C1433 C1434 1.379 . S
C1434 H1418 0.931 . S
C1434 C1428 1.383 . S
C1434 C1433 1.379 . S
H1435 C1429 0.959 . S
H1436 C1429 0.961 . S
H1437 C1429 0.960 . S
H1438 C1430 0.930 . S
H1439 C1431 0.929 . S
H1440 C1448 0.929 . S
H1441 C1450 0.930 . S
H1442 C1452 0.930 . S
H1443 C1455 0.929 . S
H1444 C1458 0.930 . S
H1445 C1460 0.960 . S
H1446 C1460 0.960 . S
H1447 C1460 0.960 . S
C1448 H1440 0.929 . S
C1448 C1449 1.377 . S
C1448 C1450 1.384 1_565 S
C1449 C1448 1.377 . S
C1449 C1455 1.390 1_565 S
C1450 H1441 0.930 . S
C1450 C1448 1.384 1_545 S
C1450 C1451 1.372 . S
C1451 C1450 1.372 . S
C1451 C1452 1.400 . S
C1451 C1456 1.490 . S
C1452 H1442 0.930 . S
C1452 C1451 1.400 . S
C1452 C1455 1.386 . S
H1453 C1469 0.930 . S
H1454 C1470 0.931 . S
C1455 H1443 0.929 . S
C1455 C1449 1.390 1_545 S
C1455 C1452 1.386 . S
C1456 C1451 1.490 . S
C1456 C1458 1.395 . S
C1456 C1459 1.403 . S
H1457 C1463 0.930 . S
C1458 H1444 0.930 . S
C1458 C1456 1.395 . S
C1458 C1461 1.403 . S
C1459 C1456 1.403 . S
C1459 C1460 1.524 . S
C1459 C1463 1.400 . S
C1460 H1445 0.960 . S
C1460 H1446 0.960 . S
C1460 H1447 0.960 . S
C1460 C1459 1.524 . S
C1461 C1458 1.403 . S
C1461 C1462 1.392 . S
C1461 C1465 1.495 . S
C1462 C1461 1.392 . S
C1462 C1463 1.385 . S
C1462 C1464 1.478 . S
C1463 H1457 0.930 . S
C1463 C1459 1.400 . S
C1463 C1462 1.385 . S
C1464 C1462 1.478 . S
C1464 C1466 1.381 . S
C1464 C1470 1.383 . S
C1465 C1461 1.495 . S
C1465 H1471 0.959 . S
C1465 H1472 0.961 . S
C1465 H1473 0.960 . S
C1466 C1464 1.381 . S
C1466 C1467 1.394 . S
C1466 H1474 0.930 . S
C1467 C1466 1.394 . S
C1467 C1468 1.383 . S
C1467 H1475 0.929 . S
C1468 C1467 1.383 . S
C1468 C1469 1.377 . S
C1469 H1453 0.930 . S
C1469 C1468 1.377 . S
C1469 C1470 1.379 . S
C1470 H1454 0.931 . S
C1470 C1464 1.383 . S
C1470 C1469 1.379 . S
H1471 C1465 0.959 . S
H1472 C1465 0.961 . S
H1473 C1465 0.960 . S
H1474 C1466 0.930 . S
H1475 C1467 0.929 . S
H1476 C1484 0.929 . S
H1477 C1486 0.930 . S
H1478 C1488 0.930 . S
H1479 C1491 0.929 . S
H1480 C1494 0.930 . S
H1481 C1496 0.960 . S
H1482 C1496 0.960 . S
H1483 C1496 0.960 . S
C1484 H1476 0.929 . S
C1484 C1485 1.377 . S
C1484 C1486 1.384 . S
C1485 C1484 1.377 . S
C1485 C1491 1.390 . S
C1486 H1477 0.930 . S
C1486 C1484 1.384 . S
C1486 C1487 1.372 . S
C1487 C1486 1.372 . S
C1487 C1488 1.400 . S
C1487 C1492 1.490 . S
C1488 H1478 0.930 . S
C1488 C1487 1.400 . S
C1488 C1491 1.386 . S
H1489 C1505 0.930 . S
H1490 C1506 0.931 . S
C1491 H1479 0.929 . S
C1491 C1485 1.390 . S
C1491 C1488 1.386 . S
C1492 C1487 1.490 . S
C1492 C1494 1.395 . S
C1492 C1495 1.403 . S
H1493 C1499 0.930 . S
C1494 H1480 0.930 . S
C1494 C1492 1.395 . S
C1494 C1497 1.403 . S
C1495 C1492 1.403 . S
C1495 C1496 1.524 . S
C1495 C1499 1.400 . S
C1496 H1481 0.960 . S
C1496 H1482 0.960 . S
C1496 H1483 0.960 . S
C1496 C1495 1.524 . S
C1497 C1494 1.403 . S
C1497 C1498 1.392 . S
C1497 C1501 1.495 . S
C1498 C1497 1.392 . S
C1498 C1499 1.385 . S
C1498 C1500 1.478 . S
C1499 H1493 0.930 . S
C1499 C1495 1.400 . S
C1499 C1498 1.385 . S
C1500 C1498 1.478 . S
C1500 C1502 1.381 . S
C1500 C1506 1.383 . S
C1501 C1497 1.495 . S
C1501 H1507 0.959 . S
C1501 H1508 0.961 . S
C1501 H1509 0.960 . S
C1502 C1500 1.381 . S
C1502 C1503 1.394 . S
C1502 H1510 0.930 . S
C1503 C1502 1.394 . S
C1503 C1504 1.383 . S
C1503 H1511 0.929 . S
C1504 C1503 1.383 . S
C1504 C1505 1.377 . S
C1505 H1489 0.930 . S
C1505 C1504 1.377 . S
C1505 C1506 1.379 . S
C1506 H1490 0.931 . S
C1506 C1500 1.383 . S
C1506 C1505 1.379 . S
H1507 C1501 0.959 . S
H1508 C1501 0.961 . S
H1509 C1501 0.960 . S
H1510 C1502 0.930 . S
H1511 C1503 0.929 . S
H1512 C1520 0.929 . S
H1513 C1522 0.930 . S
H1514 C1524 0.930 . S
H1515 C1527 0.929 . S
H1516 C1530 0.930 . S
H1517 C1532 0.960 . S
H1518 C1532 0.960 . S
H1519 C1532 0.960 . S
C1520 H1512 0.929 . S
C1520 C1521 1.377 . S
C1520 C1522 1.384 1_545 S
C1521 C1520 1.377 . S
C1521 C1527 1.390 1_545 S
C1522 H1513 0.930 . S
C1522 C1520 1.384 1_565 S
C1522 C1523 1.372 . S
C1523 C1522 1.372 . S
C1523 C1524 1.400 . S
C1523 C1528 1.490 . S
C1524 H1514 0.930 . S
C1524 C1523 1.400 . S
C1524 C1527 1.386 . S
H1525 C1541 0.930 . S
H1526 C1542 0.931 . S
C1527 H1515 0.929 . S
C1527 C1521 1.390 1_565 S
C1527 C1524 1.386 . S
C1528 C1523 1.490 . S
C1528 C1530 1.395 . S
C1528 C1531 1.403 . S
H1529 C1535 0.930 . S
C1530 H1516 0.930 . S
C1530 C1528 1.395 . S
C1530 C1533 1.403 . S
C1531 C1528 1.403 . S
C1531 C1532 1.524 . S
C1531 C1535 1.400 . S
C1532 H1517 0.960 . S
C1532 H1518 0.960 . S
C1532 H1519 0.960 . S
C1532 C1531 1.524 . S
C1533 C1530 1.403 . S
C1533 C1534 1.392 . S
C1533 C1537 1.495 . S
C1534 C1533 1.392 . S
C1534 C1535 1.385 . S
C1534 C1536 1.478 . S
C1535 H1529 0.930 . S
C1535 C1531 1.400 . S
C1535 C1534 1.385 . S
C1536 C1534 1.478 . S
C1536 C1538 1.381 . S
C1536 C1542 1.383 . S
C1537 C1533 1.495 . S
C1537 H1543 0.959 . S
C1537 H1544 0.961 . S
C1537 H1545 0.960 . S
C1538 C1536 1.381 . S
C1538 C1539 1.394 . S
C1538 H1546 0.930 . S
C1539 C1538 1.394 . S
C1539 C1540 1.383 . S
C1539 H1547 0.929 . S
C1540 C1539 1.383 . S
C1540 C1541 1.377 . S
C1541 H1525 0.930 . S
C1541 C1540 1.377 . S
C1541 C1542 1.379 . S
C1542 H1526 0.931 . S
C1542 C1536 1.383 . S
C1542 C1541 1.379 . S
H1543 C1537 0.959 . S
H1544 C1537 0.961 . S
H1545 C1537 0.960 . S
H1546 C1538 0.930 . S
H1547 C1539 0.929 . S
H1548 C1556 0.929 . S
H1549 C1558 0.930 . S
H1550 C1560 0.930 . S
H1551 C1563 0.929 . S
H1552 C1566 0.930 . S
H1553 C1568 0.960 . S
H1554 C1568 0.960 . S
H1555 C1568 0.960 . S
C1556 H1548 0.929 . S
C1556 C1557 1.377 . S
C1556 C1558 1.384 . S
C1557 C1556 1.377 . S
C1557 C1563 1.390 . S
C1558 H1549 0.930 . S
C1558 C1556 1.384 . S
C1558 C1559 1.372 . S
C1559 C1558 1.372 . S
C1559 C1560 1.400 . S
C1559 C1564 1.490 . S
C1560 H1550 0.930 . S
C1560 C1559 1.400 . S
C1560 C1563 1.386 . S
H1561 C1577 0.930 . S
H1562 C1578 0.931 . S
C1563 H1551 0.929 . S
C1563 C1557 1.390 . S
C1563 C1560 1.386 . S
C1564 C1559 1.490 . S
C1564 C1566 1.395 . S
C1564 C1567 1.403 . S
H1565 C1571 0.930 . S
C1566 H1552 0.930 . S
C1566 C1564 1.395 . S
C1566 C1569 1.403 . S
C1567 C1564 1.403 . S
C1567 C1568 1.524 . S
C1567 C1571 1.400 . S
C1568 H1553 0.960 . S
C1568 H1554 0.960 . S
C1568 H1555 0.960 . S
C1568 C1567 1.524 . S
C1569 C1566 1.403 . S
C1569 C1570 1.392 . S
C1569 C1573 1.495 . S
C1570 C1569 1.392 . S
C1570 C1571 1.385 . S
C1570 C1572 1.478 . S
C1571 H1565 0.930 . S
C1571 C1567 1.400 . S
C1571 C1570 1.385 . S
C1572 C1570 1.478 . S
C1572 C1574 1.381 . S
C1572 C1578 1.383 . S
C1573 C1569 1.495 . S
C1573 H1579 0.959 . S
C1573 H1580 0.961 . S
C1573 H1581 0.960 . S
C1574 C1572 1.381 . S
C1574 C1575 1.394 . S
C1574 H1582 0.930 . S
C1575 C1574 1.394 . S
C1575 C1576 1.383 . S
C1575 H1583 0.929 . S
C1576 C1575 1.383 . S
C1576 C1577 1.377 . S
C1577 H1561 0.930 . S
C1577 C1576 1.377 . S
C1577 C1578 1.379 . S
C1578 H1562 0.931 . S
C1578 C1572 1.383 . S
C1578 C1577 1.379 . S
H1579 C1573 0.959 . S
H1580 C1573 0.961 . S
H1581 C1573 0.960 . S
H1582 C1574 0.930 . S
H1583 C1575 0.929 . S
H1584 C1592 0.929 . S
H1585 C1594 0.930 . S
H1586 C1596 0.930 . S
H1587 C1599 0.929 . S
H1588 C1602 0.930 . S
H1589 C1604 0.960 . S
H1590 C1604 0.960 . S
H1591 C1604 0.960 . S
C1592 H1584 0.929 . S
C1592 C1593 1.377 . S
C1592 C1594 1.384 1_545 S
C1593 C1592 1.377 . S
C1593 C1599 1.390 1_545 S
C1594 H1585 0.930 . S
C1594 C1592 1.384 1_565 S
C1594 C1595 1.372 . S
C1595 C1594 1.372 . S
C1595 C1596 1.400 . S
C1595 C1600 1.490 . S
C1596 H1586 0.930 . S
C1596 C1595 1.400 . S
C1596 C1599 1.386 . S
H1597 C1613 0.930 . S
H1598 C1614 0.931 . S
C1599 H1587 0.929 . S
C1599 C1593 1.390 1_565 S
C1599 C1596 1.386 . S
C1600 C1595 1.490 . S
C1600 C1602 1.395 . S
C1600 C1603 1.403 . S
H1601 C1607 0.930 . S
C1602 H1588 0.930 . S
C1602 C1600 1.395 . S
C1602 C1605 1.403 . S
C1603 C1600 1.403 . S
C1603 C1604 1.524 . S
C1603 C1607 1.400 . S
C1604 H1589 0.960 . S
C1604 H1590 0.960 . S
C1604 H1591 0.960 . S
C1604 C1603 1.524 . S
C1605 C1602 1.403 . S
C1605 C1606 1.392 . S
C1605 C1609 1.495 . S
C1606 C1605 1.392 . S
C1606 C1607 1.385 . S
C1606 C1608 1.478 . S
C1607 H1601 0.930 . S
C1607 C1603 1.400 . S
C1607 C1606 1.385 . S
C1608 C1606 1.478 . S
C1608 C1610 1.381 . S
C1608 C1614 1.383 . S
C1609 C1605 1.495 . S
C1609 H1615 0.959 . S
C1609 H1616 0.961 . S
C1609 H1617 0.960 . S
C1610 C1608 1.381 . S
C1610 C1611 1.394 . S
C1610 H1618 0.930 . S
C1611 C1610 1.394 . S
C1611 C1612 1.383 . S
C1611 H1619 0.929 . S
C1612 C1611 1.383 . S
C1612 C1613 1.377 . S
C1613 H1597 0.930 . S
C1613 C1612 1.377 . S
C1613 C1614 1.379 . S
C1614 H1598 0.931 . S
C1614 C1608 1.383 . S
C1614 C1613 1.379 . S
H1615 C1609 0.959 . S
H1616 C1609 0.961 . S
H1617 C1609 0.960 . S
H1618 C1610 0.930 . S
H1619 C1611 0.929 . S
H1620 C1628 0.929 1_565 S
H1621 C1630 0.930 . S
H1622 C1632 0.930 . S
H1623 C1635 0.920 1_565 S
H1624 C1638 0.930 . S
H1625 C1640 0.960 . S
H1626 C1640 0.960 . S
H1627 C1640 0.960 . S
C1628 H1620 0.929 1_545 S
C1628 C1629 1.377 1_545 S
C1628 C1630 1.384 . S
C1629 C1628 1.377 1_565 S
C1629 C1635 1.381 1_565 S
C1630 H1621 0.930 . S
C1630 C1628 1.384 . S
C1630 C1631 1.372 . S
C1631 C1630 1.372 . S
C1631 C1632 1.400 . S
C1631 C1636 1.490 . S
C1632 H1622 0.930 . S
C1632 C1631 1.400 . S
C1632 C1635 1.404 . S
H1633 C1649 0.930 . S
H1634 C1650 0.931 . S
C1635 H1623 0.920 1_545 S
C1635 C1629 1.381 1_545 S
C1635 C1632 1.404 . S
C1636 C1631 1.490 . S
C1636 C1638 1.395 . S
C1636 C1639 1.403 . S
H1637 C1643 0.930 . S
C1638 H1624 0.930 . S
C1638 C1636 1.395 . S
C1638 C1641 1.403 . S
C1639 C1636 1.403 . S
C1639 C1640 1.524 . S
C1639 C1643 1.400 . S
C1640 H1625 0.960 . S
C1640 H1626 0.960 . S
C1640 H1627 0.960 . S
C1640 C1639 1.524 . S
C1641 C1638 1.403 . S
C1641 C1642 1.392 . S
C1641 C1645 1.495 . S
C1642 C1641 1.392 . S
C1642 C1643 1.385 . S
C1642 C1644 1.478 . S
C1643 H1637 0.930 . S
C1643 C1639 1.400 . S
C1643 C1642 1.385 . S
C1644 C1642 1.478 . S
C1644 C1646 1.381 . S
C1644 C1650 1.383 . S
C1645 C1641 1.495 . S
C1645 H1651 0.959 . S
C1645 H1652 0.961 . S
C1645 H1653 0.960 . S
C1646 C1644 1.381 . S
C1646 C1647 1.394 . S
C1646 H1654 0.930 . S
C1647 C1646 1.394 . S
C1647 C1648 1.383 . S
C1647 H1655 0.929 . S
C1648 C1647 1.383 . S
C1648 C1649 1.377 . S
C1649 H1633 0.930 . S
C1649 C1648 1.377 . S
C1649 C1650 1.379 . S
C1650 H1634 0.931 . S
C1650 C1644 1.383 . S
C1650 C1649 1.379 . S
H1651 C1645 0.959 . S
H1652 C1645 0.961 . S
H1653 C1645 0.960 . S
H1654 C1646 0.930 . S
H1655 C1647 0.929 . S
H1656 C1664 0.929 . S
H1657 C1666 0.930 1_455 S
H1658 C1668 0.930 . S
H1659 C1671 0.929 . S
H1660 C1674 0.930 . S
H1661 C1676 0.960 1_554 S
H1662 C1676 0.960 . S
H1663 C1676 0.960 . S
C1664 H1656 0.929 . S
C1664 C1665 1.377 . S
C1664 C1666 1.384 . S
C1665 C1664 1.377 . S
C1665 C1671 1.390 . S
C1666 H1657 0.930 1_655 S
C1666 C1664 1.384 . S
C1666 C1667 1.372 . S
C1667 C1666 1.372 . S
C1667 C1668 1.400 . S
C1667 C1672 1.490 . S
C1668 H1658 0.930 . S
C1668 C1667 1.400 . S
C1668 C1671 1.386 . S
H1669 C1685 0.930 . S
H1670 C1686 0.931 1_655 S
C1671 H1659 0.929 . S
C1671 C1665 1.390 . S
C1671 C1668 1.386 . S
C1672 C1667 1.490 . S
C1672 C1674 1.395 1_655 S
C1672 C1675 1.403 . S
H1673 C1679 0.930 . S
C1674 H1660 0.930 . S
C1674 C1672 1.395 1_455 S
C1674 C1677 1.403 1_556 S
C1675 C1672 1.403 . S
C1675 C1676 1.524 . S
C1675 C1679 1.400 1_556 S
C1676 H1661 0.960 1_556 S
C1676 H1662 0.960 . S
C1676 H1663 0.960 . S
C1676 C1675 1.524 . S
C1677 C1674 1.403 1_554 S
C1677 C1678 1.392 . S
C1677 C1681 1.495 . S
C1678 C1677 1.392 . S
C1678 C1679 1.385 1_455 S
C1678 C1680 1.478 . S
C1679 H1673 0.930 . S
C1679 C1675 1.400 1_554 S
C1679 C1678 1.385 1_655 S
C1680 C1678 1.478 . S
C1680 C1682 1.381 . S
C1680 C1686 1.383 . S
C1681 C1677 1.495 . S
C1681 H1687 0.959 1_554 S
C1681 H1688 0.961 . S
C1681 H1689 0.960 . S
C1682 C1680 1.381 . S
C1682 C1683 1.394 . S
C1682 H1690 0.930 . S
C1683 C1682 1.394 . S
C1683 C1684 1.383 . S
C1683 H1691 0.929 . S
C1684 C1683 1.383 . S
C1684 C1685 1.377 . S
C1685 H1669 0.930 . S
C1685 C1684 1.377 . S
C1685 C1686 1.379 . S
C1686 H1670 0.931 1_455 S
C1686 C1680 1.383 . S
C1686 C1685 1.379 . S
H1687 C1681 0.959 1_556 S
H1688 C1681 0.961 . S
H1689 C1681 0.960 . S
H1690 C1682 0.930 . S
H1691 C1683 0.929 . S
H1692 C1700 0.929 . S
H1693 C1702 0.930 . S
H1694 C1704 0.930 . S
H1695 C1707 0.929 . S
H1696 C1710 0.930 . S
H1697 C1712 0.960 . S
H1698 C1712 0.960 . S
H1699 C1712 0.960 . S
C1700 H1692 0.929 . S
C1700 C1701 1.377 . S
C1700 C1702 1.384 . S
C1701 C1700 1.377 . S
C1701 C1707 1.390 . S
C1702 H1693 0.930 . S
C1702 C1700 1.384 . S
C1702 C1703 1.372 . S
C1703 C1702 1.372 . S
C1703 C1704 1.400 . S
C1703 C1708 1.490 . S
C1704 H1694 0.930 . S
C1704 C1703 1.400 . S
C1704 C1707 1.386 . S
H1705 C1721 0.930 . S
H1706 C1722 0.931 . S
C1707 H1695 0.929 . S
C1707 C1701 1.390 . S
C1707 C1704 1.386 . S
C1708 C1703 1.490 . S
C1708 C1710 1.395 . S
C1708 C1711 1.403 . S
H1709 C1715 0.930 . S
C1710 H1696 0.930 . S
C1710 C1708 1.395 . S
C1710 C1713 1.403 . S
C1711 C1708 1.403 . S
C1711 C1712 1.524 . S
C1711 C1715 1.400 . S
C1712 H1697 0.960 . S
C1712 H1698 0.960 . S
C1712 H1699 0.960 . S
C1712 C1711 1.524 . S
C1713 C1710 1.403 . S
C1713 C1714 1.392 . S
C1713 C1717 1.495 . S
C1714 C1713 1.392 . S
C1714 C1715 1.385 . S
C1714 C1716 1.478 . S
C1715 H1709 0.930 . S
C1715 C1711 1.400 . S
C1715 C1714 1.385 . S
C1716 C1714 1.478 . S
C1716 C1718 1.381 . S
C1716 C1722 1.383 . S
C1717 C1713 1.495 . S
C1717 H1723 0.959 . S
C1717 H1724 0.961 . S
C1717 H1725 0.960 . S
C1718 C1716 1.381 . S
C1718 C1719 1.394 . S
C1718 H1726 0.930 . S
C1719 C1718 1.394 . S
C1719 C1720 1.383 . S
C1719 H1727 0.929 . S
C1720 C1719 1.383 . S
C1720 C1721 1.377 . S
C1721 H1705 0.930 . S
C1721 C1720 1.377 . S
C1721 C1722 1.379 . S
C1722 H1706 0.931 . S
C1722 C1716 1.383 . S
C1722 C1721 1.379 . S
H1723 C1717 0.959 . S
H1724 C1717 0.961 . S
H1725 C1717 0.960 . S
H1726 C1718 0.930 . S
H1727 C1719 0.929 . S
H1728 C1736 0.929 . S
H1729 C1738 0.930 . S
H1730 C1740 0.930 1_655 S
H1731 C1743 0.929 . S
H1732 C1746 0.930 . S
H1733 C1748 0.960 . S
H1734 C1748 0.960 . S
H1735 C1748 0.960 . S
C1736 H1728 0.929 . S
C1736 C1737 1.377 . S
C1736 C1738 1.384 . S
C1737 C1736 1.377 . S
C1737 C1743 1.390 . S
C1738 H1729 0.930 . S
C1738 C1736 1.384 . S
C1738 C1739 1.372 . S
C1739 C1738 1.372 . S
C1739 C1740 1.400 . S
C1739 C1744 1.490 . S
C1740 H1730 0.930 1_455 S
C1740 C1739 1.400 . S
C1740 C1743 1.386 . S
H1741 C1757 0.930 . S
H1742 C1758 0.931 . S
C1743 H1731 0.929 . S
C1743 C1737 1.390 . S
C1743 C1740 1.386 . S
C1744 C1739 1.490 . S
C1744 C1746 1.395 . S
C1744 C1747 1.403 . S
H1745 C1751 0.930 . S
C1746 H1732 0.930 . S
C1746 C1744 1.395 . S
C1746 C1749 1.403 1_456 S
C1747 C1744 1.403 . S
C1747 C1748 1.524 . S
C1747 C1751 1.400 1_456 S
C1748 H1733 0.960 . S
C1748 H1734 0.960 . S
C1748 H1735 0.960 . S
C1748 C1747 1.524 . S
C1749 C1746 1.403 1_654 S
C1749 C1750 1.392 . S
C1749 C1753 1.495 . S
C1750 C1749 1.392 . S
C1750 C1751 1.385 . S
C1750 C1752 1.478 . S
C1751 H1745 0.930 . S
C1751 C1747 1.400 1_654 S
C1751 C1750 1.385 . S
C1752 C1750 1.478 . S
C1752 C1754 1.381 . S
C1752 C1758 1.383 . S
C1753 C1749 1.495 . S
C1753 H1759 0.959 . S
C1753 H1760 0.961 . S
C1753 H1761 0.960 . S
C1754 C1752 1.381 . S
C1754 C1755 1.394 . S
C1754 H1762 0.930 1_655 S
C1755 C1754 1.394 . S
C1755 C1756 1.383 . S
C1755 H1763 0.929 . S
C1756 C1755 1.383 . S
C1756 C1757 1.377 . S
C1757 H1741 0.930 . S
C1757 C1756 1.377 . S
C1757 C1758 1.379 . S
C1758 H1742 0.931 . S
C1758 C1752 1.383 . S
C1758 C1757 1.379 . S
H1759 C1753 0.959 . S
H1760 C1753 0.961 . S
H1761 C1753 0.960 . S
H1762 C1754 0.930 1_455 S
H1763 C1755 0.929 . S
H1764 C1772 0.929 . S
H1765 C1774 0.930 . S
H1766 C1776 0.930 . S
H1767 C1779 0.929 . S
H1768 C1782 0.930 . S
H1769 C1784 0.960 . S
H1770 C1784 0.960 . S
H1771 C1784 0.960 . S
C1772 H1764 0.929 . S
C1772 C1773 1.377 . S
C1772 C1774 1.384 . S
C1773 C1772 1.377 . S
C1773 C1779 1.390 . S
C1774 H1765 0.930 . S
C1774 C1772 1.384 . S
C1774 C1775 1.372 . S
C1775 C1774 1.372 . S
C1775 C1776 1.400 . S
C1775 C1780 1.490 . S
C1776 H1766 0.930 . S
C1776 C1775 1.400 . S
C1776 C1779 1.386 . S
H1777 C1793 0.930 . S
H1778 C1794 0.931 . S
C1779 H1767 0.929 . S
C1779 C1773 1.390 . S
C1779 C1776 1.386 . S
C1780 C1775 1.490 . S
C1780 C1782 1.395 . S
C1780 C1783 1.403 . S
H1781 C1787 0.930 . S
C1782 H1768 0.930 . S
C1782 C1780 1.395 . S
C1782 C1785 1.403 . S
C1783 C1780 1.403 . S
C1783 C1784 1.524 . S
C1783 C1787 1.400 . S
C1784 H1769 0.960 . S
C1784 H1770 0.960 . S
C1784 H1771 0.960 . S
C1784 C1783 1.524 . S
C1785 C1782 1.403 . S
C1785 C1786 1.392 . S
C1785 C1789 1.495 . S
C1786 C1785 1.392 . S
C1786 C1787 1.385 . S
C1786 C1788 1.478 . S
C1787 H1781 0.930 . S
C1787 C1783 1.400 . S
C1787 C1786 1.385 . S
C1788 C1786 1.478 . S
C1788 C1790 1.381 . S
C1788 C1794 1.383 . S
C1789 C1785 1.495 . S
C1789 H1795 0.959 . S
C1789 H1796 0.961 . S
C1789 H1797 0.960 . S
C1790 C1788 1.381 . S
C1790 C1791 1.394 . S
C1790 H1798 0.930 . S
C1791 C1790 1.394 . S
C1791 C1792 1.383 . S
C1791 H1799 0.929 . S
C1792 C1791 1.383 . S
C1792 C1793 1.377 . S
C1793 H1777 0.930 . S
C1793 C1792 1.377 . S
C1793 C1794 1.379 . S
C1794 H1778 0.931 . S
C1794 C1788 1.383 . S
C1794 C1793 1.379 . S
H1795 C1789 0.959 . S
H1796 C1789 0.961 . S
H1797 C1789 0.960 . S
H1798 C1790 0.930 . S
H1799 C1791 0.929 . S
H1800 C1808 0.929 . S
H1801 C1810 0.930 . S
H1802 C1812 0.930 . S
H1803 C1815 0.929 . S
H1804 C1818 0.930 . S
H1805 C1820 0.960 . S
H1806 C1820 0.960 . S
H1807 C1820 0.960 . S
C1808 H1800 0.929 . S
C1808 C1809 1.377 . S
C1808 C1810 1.384 . S
C1809 C1808 1.377 . S
C1809 C1815 1.390 . S
C1810 H1801 0.930 . S
C1810 C1808 1.384 . S
C1810 C1811 1.372 . S
C1811 C1810 1.372 . S
C1811 C1812 1.400 . S
C1811 C1816 1.490 . S
C1812 H1802 0.930 . S
C1812 C1811 1.400 . S
C1812 C1815 1.386 . S
H1813 C1829 0.930 . S
H1814 C1830 0.931 . S
C1815 H1803 0.929 . S
C1815 C1809 1.390 . S
C1815 C1812 1.386 . S
C1816 C1811 1.490 . S
C1816 C1818 1.395 . S
C1816 C1819 1.403 1_565 S
H1817 C1823 0.930 . S
C1818 H1804 0.930 . S
C1818 C1816 1.395 . S
C1818 C1821 1.403 1_655 S
C1819 C1816 1.403 1_545 S
C1819 C1820 1.524 . S
C1819 C1823 1.400 1_655 S
C1820 H1805 0.960 . S
C1820 H1806 0.960 . S
C1820 H1807 0.960 . S
C1820 C1819 1.524 . S
C1821 C1818 1.403 1_455 S
C1821 C1822 1.392 1_565 S
C1821 C1825 1.495 . S
C1822 C1821 1.392 1_545 S
C1822 C1823 1.385 . S
C1822 C1824 1.478 . S
C1823 H1817 0.930 . S
C1823 C1819 1.400 1_455 S
C1823 C1822 1.385 . S
C1824 C1822 1.478 . S
C1824 C1826 1.381 . S
C1824 C1830 1.383 . S
C1825 C1821 1.495 . S
C1825 H1831 0.959 . S
C1825 H1832 0.961 . S
C1825 H1833 0.960 . S
C1826 C1824 1.381 . S
C1826 C1827 1.394 . S
C1826 H1834 0.955 . S
C1827 C1826 1.394 . S
C1827 C1828 1.383 . S
C1827 H1835 0.929 . S
C1828 C1827 1.383 . S
C1828 C1829 1.377 . S
C1829 H1813 0.930 . S
C1829 C1828 1.377 . S
C1829 C1830 1.379 . S
C1830 H1814 0.931 . S
C1830 C1824 1.383 . S
C1830 C1829 1.379 . S
H1831 C1825 0.959 . S
H1832 C1825 0.961 . S
H1833 C1825 0.960 . S
H1834 C1826 0.955 . S
H1835 C1827 0.929 . S
H1836 C1844 0.929 . S
H1837 C1846 0.930 . S
H1838 C1848 0.930 . S
H1839 C1851 0.929 . S
H1840 C1854 0.930 . S
H1841 C1856 0.960 . S
H1842 C1856 0.960 . S
H1843 C1856 0.960 . S
C1844 H1836 0.929 . S
C1844 C1845 1.377 . S
C1844 C1846 1.384 . S
C1845 C1844 1.377 . S
C1845 C1851 1.390 . S
C1846 H1837 0.930 . S
C1846 C1844 1.384 . S
C1846 C1847 1.372 . S
C1847 C1846 1.372 . S
C1847 C1848 1.400 . S
C1847 C1852 1.490 . S
C1848 H1838 0.930 . S
C1848 C1847 1.400 . S
C1848 C1851 1.386 . S
H1849 C1865 0.930 . S
H1850 C1866 0.931 . S
C1851 H1839 0.929 . S
C1851 C1845 1.390 . S
C1851 C1848 1.386 . S
C1852 C1847 1.490 . S
C1852 C1854 1.395 . S
C1852 C1855 1.403 . S
H1853 C1859 0.930 . S
C1854 H1840 0.930 . S
C1854 C1852 1.395 . S
C1854 C1857 1.403 . S
C1855 C1852 1.403 . S
C1855 C1856 1.524 . S
C1855 C1859 1.400 . S
C1856 H1841 0.960 . S
C1856 H1842 0.960 . S
C1856 H1843 0.960 . S
C1856 C1855 1.524 . S
C1857 C1854 1.403 . S
C1857 C1858 1.392 . S
C1857 C1861 1.495 . S
C1858 C1857 1.392 . S
C1858 C1859 1.385 . S
C1858 C1860 1.478 . S
C1859 H1853 0.930 . S
C1859 C1855 1.400 . S
C1859 C1858 1.385 . S
C1860 C1858 1.478 . S
C1860 C1862 1.381 . S
C1860 C1866 1.383 . S
C1861 C1857 1.495 . S
C1861 H1867 0.959 . S
C1861 H1868 0.961 . S
C1861 H1869 0.960 . S
C1862 C1860 1.381 . S
C1862 C1863 1.394 . S
C1862 H1870 0.930 . S
C1863 C1862 1.394 . S
C1863 C1864 1.383 . S
C1863 H1871 0.929 . S
C1864 C1863 1.383 . S
C1864 C1865 1.377 . S
C1865 H1849 0.930 . S
C1865 C1864 1.377 . S
C1865 C1866 1.379 . S
C1866 H1850 0.931 . S
C1866 C1860 1.383 . S
C1866 C1865 1.379 . S
H1867 C1861 0.959 . S
H1868 C1861 0.961 . S
H1869 C1861 0.960 . S
H1870 C1862 0.930 . S
H1871 C1863 0.929 . S
H1872 C1880 0.929 . S
H1873 C1882 0.930 . S
H1874 C1884 0.930 . S
H1875 C1887 0.929 . S
H1876 C1890 0.930 . S
H1877 C1892 0.960 . S
H1878 C1892 0.960 . S
H1879 C1892 0.960 . S
C1880 H1872 0.929 . S
C1880 C1881 1.377 . S
C1880 C1882 1.384 . S
C1881 C1880 1.377 . S
C1881 C1887 1.390 . S
C1882 H1873 0.930 . S
C1882 C1880 1.384 . S
C1882 C1883 1.372 . S
C1883 C1882 1.372 . S
C1883 C1884 1.400 . S
C1883 C1888 1.490 . S
C1884 H1874 0.930 . S
C1884 C1883 1.400 . S
C1884 C1887 1.386 . S
H1885 C1901 0.930 . S
H1886 C1902 0.931 . S
C1887 H1875 0.929 . S
C1887 C1881 1.390 . S
C1887 C1884 1.386 . S
C1888 C1883 1.490 . S
C1888 C1890 1.395 . S
C1888 C1891 1.403 1_565 S
H1889 C1895 0.930 . S
C1890 H1876 0.930 . S
C1890 C1888 1.395 . S
C1890 C1893 1.403 1_455 S
C1891 C1888 1.403 1_545 S
C1891 C1892 1.524 . S
C1891 C1895 1.400 1_455 S
C1892 H1877 0.960 . S
C1892 H1878 0.960 . S
C1892 H1879 0.960 . S
C1892 C1891 1.524 . S
C1893 C1890 1.403 1_655 S
C1893 C1894 1.392 1_565 S
C1893 C1897 1.495 . S
C1894 C1893 1.392 1_545 S
C1894 C1895 1.385 . S
C1894 C1896 1.478 . S
C1895 H1889 0.930 . S
C1895 C1891 1.400 1_655 S
C1895 C1894 1.385 . S
C1896 C1894 1.478 . S
C1896 C1898 1.381 . S
C1896 C1902 1.383 . S
C1897 C1893 1.495 . S
C1897 H1903 0.959 . S
C1897 H1904 0.961 . S
C1897 H1905 0.960 . S
C1898 C1896 1.381 . S
C1898 C1899 1.394 . S
C1898 H1906 0.930 . S
C1899 C1898 1.394 . S
C1899 C1900 1.383 . S
C1899 H1907 0.929 . S
C1900 C1899 1.383 . S
C1900 C1901 1.377 . S
C1901 H1885 0.930 . S
C1901 C1900 1.377 . S
C1901 C1902 1.379 . S
C1902 H1886 0.931 . S
C1902 C1896 1.383 . S
C1902 C1901 1.379 . S
H1903 C1897 0.959 . S
H1904 C1897 0.961 . S
H1905 C1897 0.960 . S
H1906 C1898 0.930 . S
H1907 C1899 0.929 . S
H1908 C1916 0.929 . S
H1909 C1918 0.930 . S
H1910 C1920 0.930 . S
H1911 C1923 0.929 . S
H1912 C1926 0.930 . S
H1913 C1928 0.960 . S
H1914 C1928 0.960 . S
H1915 C1928 0.960 . S
C1916 H1908 0.929 . S
C1916 C1917 1.377 . S
C1916 C1918 1.384 . S
C1917 C1916 1.377 . S
C1917 C1923 1.390 . S
C1918 H1909 0.930 . S
C1918 C1916 1.384 . S
C1918 C1919 1.372 . S
C1919 C1918 1.372 . S
C1919 C1920 1.400 . S
C1919 C1924 1.490 . S
C1920 H1910 0.930 . S
C1920 C1919 1.400 . S
C1920 C1923 1.386 . S
H1921 C1937 0.930 . S
H1922 C1938 0.931 . S
C1923 H1911 0.929 . S
C1923 C1917 1.390 . S
C1923 C1920 1.386 . S
C1924 C1919 1.490 . S
C1924 C1926 1.395 . S
C1924 C1927 1.403 . S
H1925 C1931 0.930 . S
C1926 H1912 0.930 . S
C1926 C1924 1.395 . S
C1926 C1929 1.403 . S
C1927 C1924 1.403 . S
C1927 C1928 1.524 . S
C1927 C1931 1.400 . S
C1928 H1913 0.960 . S
C1928 H1914 0.960 . S
C1928 H1915 0.960 . S
C1928 C1927 1.524 . S
C1929 C1926 1.403 . S
C1929 C1930 1.392 . S
C1929 C1933 1.495 . S
C1930 C1929 1.392 . S
C1930 C1931 1.385 . S
C1930 C1932 1.478 . S
C1931 H1925 0.930 . S
C1931 C1927 1.400 . S
C1931 C1930 1.385 . S
C1932 C1930 1.478 . S
C1932 C1934 1.381 . S
C1932 C1938 1.383 . S
C1933 C1929 1.495 . S
C1933 H1939 0.959 . S
C1933 H1940 0.961 . S
C1933 H1941 0.960 . S
C1934 C1932 1.381 . S
C1934 C1935 1.394 . S
C1934 H1942 0.930 . S
C1935 C1934 1.394 . S
C1935 C1936 1.383 . S
C1935 H1943 0.929 . S
C1936 C1935 1.383 . S
C1936 C1937 1.377 . S
C1937 H1921 0.930 . S
C1937 C1936 1.377 . S
C1937 C1938 1.379 . S
C1938 H1922 0.931 . S
C1938 C1932 1.383 . S
C1938 C1937 1.379 . S
H1939 C1933 0.959 . S
H1940 C1933 0.961 . S
H1941 C1933 0.960 . S
H1942 C1934 0.930 . S
H1943 C1935 0.929 . S
H1944 C1952 0.929 . S
H1945 C1954 0.930 . S
H1946 C1956 0.930 1_556 S
H1947 C1959 0.929 . S
H1948 C1962 0.930 . S
H1949 C1964 0.960 . S
H1950 C1964 0.960 . S
H1951 C1964 0.960 . S
C1952 H1944 0.929 . S
C1952 C1953 1.377 . S
C1952 C1954 1.384 . S
C1953 C1952 1.377 . S
C1953 C1959 1.390 . S
C1954 H1945 0.930 . S
C1954 C1952 1.384 . S
C1954 C1955 1.372 . S
C1955 C1954 1.372 . S
C1955 C1956 1.400 . S
C1955 C1960 1.490 . S
C1956 H1946 0.930 1_554 S
C1956 C1955 1.400 . S
C1956 C1959 1.386 . S
H1957 C1973 0.930 . S
H1958 C1974 0.931 . S
C1959 H1947 0.929 . S
C1959 C1953 1.390 . S
C1959 C1956 1.386 . S
C1960 C1955 1.490 . S
C1960 C1962 1.395 . S
C1960 C1963 1.403 . S
H1961 C1967 0.930 . S
C1962 H1948 0.930 . S
C1962 C1960 1.395 . S
C1962 C1965 1.403 1_544 S
C1963 C1960 1.403 . S
C1963 C1964 1.524 . S
C1963 C1967 1.400 1_544 S
C1964 H1949 0.960 . S
C1964 H1950 0.960 . S
C1964 H1951 0.960 . S
C1964 C1963 1.524 . S
C1965 C1962 1.403 1_566 S
C1965 C1966 1.392 . S
C1965 C1969 1.495 . S
C1966 C1965 1.392 . S
C1966 C1967 1.385 . S
C1966 C1968 1.478 . S
C1967 H1961 0.930 . S
C1967 C1963 1.400 1_566 S
C1967 C1966 1.385 . S
C1968 C1966 1.478 . S
C1968 C1970 1.381 . S
C1968 C1974 1.383 . S
C1969 C1965 1.495 . S
C1969 H1975 0.959 . S
C1969 H1976 0.961 . S
C1969 H1977 0.960 . S
C1970 C1968 1.381 . S
C1970 C1971 1.394 . S
C1970 H1978 0.930 1_556 S
C1971 C1970 1.394 . S
C1971 C1972 1.383 . S
C1971 H1979 0.929 . S
C1972 C1971 1.383 . S
C1972 C1973 1.377 . S
C1973 H1957 0.930 . S
C1973 C1972 1.377 . S
C1973 C1974 1.379 . S
C1974 H1958 0.931 . S
C1974 C1968 1.383 . S
C1974 C1973 1.379 . S
H1975 C1969 0.959 . S
H1976 C1969 0.961 . S
H1977 C1969 0.960 . S
H1978 C1970 0.930 1_554 S
H1979 C1971 0.929 . S
H1980 C1988 0.929 . S
H1981 C1990 0.930 . S
H1982 C1992 0.930 . S
H1983 C1995 0.929 . S
H1984 C1998 0.930 . S
H1985 C2000 0.960 . S
H1986 C2000 0.960 . S
H1987 C2000 0.960 . S
C1988 H1980 0.929 . S
C1988 C1989 1.377 . S
C1988 C1990 1.384 . S
C1989 C1988 1.377 . S
C1989 C1995 1.390 . S
C1990 H1981 0.930 . S
C1990 C1988 1.384 . S
C1990 C1991 1.372 . S
C1991 C1990 1.372 . S
C1991 C1992 1.400 . S
C1991 C1996 1.490 . S
C1992 H1982 0.930 . S
C1992 C1991 1.400 . S
C1992 C1995 1.386 . S
H1993 C2009 0.930 . S
H1994 C2010 0.931 . S
C1995 H1983 0.929 . S
C1995 C1989 1.390 . S
C1995 C1992 1.386 . S
C1996 C1991 1.490 . S
C1996 C1998 1.395 . S
C1996 C1999 1.403 . S
H1997 C2003 0.930 . S
C1998 H1984 0.930 . S
C1998 C1996 1.395 . S
C1998 C2001 1.403 . S
C1999 C1996 1.403 . S
C1999 C2000 1.524 . S
C1999 C2003 1.400 . S
C2000 H1985 0.960 . S
C2000 H1986 0.960 . S
C2000 H1987 0.960 . S
C2000 C1999 1.524 . S
C2001 C1998 1.403 . S
C2001 C2002 1.392 . S
C2001 C2005 1.495 . S
C2002 C2001 1.392 . S
C2002 C2003 1.385 . S
C2002 C2004 1.478 . S
C2003 H1997 0.930 . S
C2003 C1999 1.400 . S
C2003 C2002 1.385 . S
C2004 C2002 1.478 . S
C2004 C2006 1.381 . S
C2004 C2010 1.383 . S
C2005 C2001 1.495 . S
C2005 H2011 0.959 . S
C2005 H2012 0.961 . S
C2005 H2013 0.960 . S
C2006 C2004 1.381 . S
C2006 C2007 1.394 . S
C2006 H2014 0.930 . S
C2007 C2006 1.394 . S
C2007 C2008 1.383 . S
C2007 H2015 0.929 . S
C2008 C2007 1.383 . S
C2008 C2009 1.377 . S
C2009 H1993 0.930 . S
C2009 C2008 1.377 . S
C2009 C2010 1.379 . S
C2010 H1994 0.931 . S
C2010 C2004 1.383 . S
C2010 C2009 1.379 . S
H2011 C2005 0.959 . S
H2012 C2005 0.961 . S
H2013 C2005 0.960 . S
H2014 C2006 0.930 . S
H2015 C2007 0.929 . S
H2016 C2024 0.929 . S
H2017 C2026 0.930 . S
H2018 C2028 0.930 . S
H2019 C2031 0.929 . S
H2020 C2034 0.930 . S
H2021 C2036 0.960 1_565 S
H2022 C2036 0.960 . S
H2023 C2036 0.960 . S
C2024 H2016 0.929 . S
C2024 C2025 1.377 . S
C2024 C2026 1.384 . S
C2025 C2024 1.377 . S
C2025 C2031 1.390 . S
C2026 H2017 0.930 . S
C2026 C2024 1.384 . S
C2026 C2027 1.372 . S
C2027 C2026 1.372 . S
C2027 C2028 1.400 . S
C2027 C2032 1.490 . S
C2028 H2018 0.930 . S
C2028 C2027 1.400 . S
C2028 C2031 1.386 . S
H2029 C2045 0.930 . S
H2030 C2046 0.931 . S
C2031 H2019 0.929 . S
C2031 C2025 1.390 . S
C2031 C2028 1.386 . S
C2032 C2027 1.490 . S
C2032 C2034 1.395 1_556 S
C2032 C2035 1.403 . S
H2033 C2039 0.930 . S
C2034 H2020 0.930 . S
C2034 C2032 1.395 1_554 S
C2034 C2037 1.361 1_545 S
C2035 C2032 1.403 . S
C2035 C2036 1.524 . S
C2035 C2039 1.400 1_545 S
C2036 H2021 0.960 1_545 S
C2036 H2022 0.960 . S
C2036 H2023 0.960 . S
C2036 C2035 1.524 . S
C2037 C2034 1.361 1_565 S
C2037 C2038 1.432 . S
C2037 C2041 1.498 . S
C2038 C2037 1.432 . S
C2038 C2039 1.385 1_554 S
C2038 C2040 1.478 . S
C2039 H2033 0.930 . S
C2039 C2035 1.400 1_565 S
C2039 C2038 1.385 1_556 S
C2040 C2038 1.478 . S
C2040 C2042 1.381 . S
C2040 C2046 1.383 . S
C2041 C2037 1.498 . S
C2041 H2047 0.959 1_565 S
C2041 H2048 0.961 . S
C2041 H2049 0.960 . S
C2042 C2040 1.381 . S
C2042 C2043 1.394 . S
C2042 H2050 0.930 . S
C2043 C2042 1.394 . S
C2043 C2044 1.383 . S
C2043 H2051 0.929 . S
C2044 C2043 1.383 . S
C2044 C2045 1.377 . S
C2045 H2029 0.930 . S
C2045 C2044 1.377 . S
C2045 C2046 1.379 . S
C2046 H2030 0.931 . S
C2046 C2040 1.383 . S
C2046 C2045 1.379 . S
H2047 C2041 0.959 1_545 S
H2048 C2041 0.961 . S
H2049 C2041 0.960 . S
H2050 C2042 0.930 . S
H2051 C2043 0.929 . S
H2052 C2060 0.929 . S
H2053 C2062 0.930 . S
H2054 C2064 0.930 . S
H2055 C2067 0.929 . S
H2056 C2070 0.930 . S
H2057 C2072 0.960 . S
H2058 C2072 0.960 . S
H2059 C2072 0.960 . S
C2060 H2052 0.929 . S
C2060 C2061 1.377 . S
C2060 C2062 1.384 . S
C2061 C2060 1.377 . S
C2061 C2067 1.390 . S
C2062 H2053 0.930 . S
C2062 C2060 1.384 . S
C2062 C2063 1.372 . S
C2063 C2062 1.372 . S
C2063 C2064 1.400 . S
C2063 C2068 1.490 . S
C2064 H2054 0.930 . S
C2064 C2063 1.400 . S
C2064 C2067 1.386 . S
H2065 C2081 0.930 . S
H2066 C2082 0.931 . S
C2067 H2055 0.929 . S
C2067 C2061 1.390 . S
C2067 C2064 1.386 . S
C2068 C2063 1.490 . S
C2068 C2070 1.395 . S
C2068 C2071 1.403 . S
H2069 C2075 0.930 . S
C2070 H2056 0.930 . S
C2070 C2068 1.395 . S
C2070 C2073 1.403 . S
C2071 C2068 1.403 . S
C2071 C2072 1.524 . S
C2071 C2075 1.400 . S
C2072 H2057 0.960 . S
C2072 H2058 0.960 . S
C2072 H2059 0.960 . S
C2072 C2071 1.524 . S
C2073 C2070 1.403 . S
C2073 C2074 1.392 . S
C2073 C2077 1.495 . S
C2074 C2073 1.392 . S
C2074 C2075 1.385 . S
C2074 C2076 1.478 . S
C2075 H2069 0.930 . S
C2075 C2071 1.400 . S
C2075 C2074 1.385 . S
C2076 C2074 1.478 . S
C2076 C2078 1.381 . S
C2076 C2082 1.383 . S
C2077 C2073 1.495 . S
C2077 H2083 0.959 . S
C2077 H2084 0.961 . S
C2077 H2085 0.960 . S
C2078 C2076 1.381 . S
C2078 C2079 1.394 . S
C2078 H2086 0.930 . S
C2079 C2078 1.394 . S
C2079 C2080 1.383 . S
C2079 H2087 0.929 . S
C2080 C2079 1.383 . S
C2080 C2081 1.377 . S
C2081 H2065 0.930 . S
C2081 C2080 1.377 . S
C2081 C2082 1.379 . S
C2082 H2066 0.931 . S
C2082 C2076 1.383 . S
C2082 C2081 1.379 . S
H2083 C2077 0.959 . S
H2084 C2077 0.961 . S
H2085 C2077 0.960 . S
H2086 C2078 0.930 . S
H2087 C2079 0.929 . S
H2088 C2096 0.929 . S
H2089 C2098 0.930 . S
H2090 C2100 0.930 . S
H2091 C2103 0.929 . S
H2092 C2106 0.930 . S
H2093 C2108 0.960 . S
H2094 C2108 0.960 . S
H2095 C2108 0.960 . S
C2096 H2088 0.929 . S
C2096 C2097 1.377 . S
C2096 C2098 1.384 . S
C2097 C2096 1.377 . S
C2097 C2103 1.390 . S
C2098 H2089 0.930 . S
C2098 C2096 1.384 . S
C2098 C2099 1.372 . S
C2099 C2098 1.372 . S
C2099 C2100 1.400 . S
C2099 C2104 1.490 . S
C2100 H2090 0.930 . S
C2100 C2099 1.400 . S
C2100 C2103 1.386 . S
H2101 C2117 0.930 . S
H2102 C2118 0.931 . S
C2103 H2091 0.929 . S
C2103 C2097 1.390 . S
C2103 C2100 1.386 . S
C2104 C2099 1.490 . S
C2104 C2106 1.395 . S
C2104 C2107 1.403 . S
H2105 C2111 0.930 . S
C2106 H2092 0.930 . S
C2106 C2104 1.395 . S
C2106 C2109 1.403 . S
C2107 C2104 1.403 . S
C2107 C2108 1.524 . S
C2107 C2111 1.400 . S
C2108 H2093 0.960 . S
C2108 H2094 0.960 . S
C2108 H2095 0.960 . S
C2108 C2107 1.524 . S
C2109 C2106 1.403 . S
C2109 C2110 1.392 . S
C2109 C2113 1.495 . S
C2110 C2109 1.392 . S
C2110 C2111 1.385 . S
C2110 C2112 1.478 . S
C2111 H2105 0.930 . S
C2111 C2107 1.400 . S
C2111 C2110 1.385 . S
C2112 C2110 1.478 . S
C2112 C2114 1.381 . S
C2112 C2118 1.383 . S
C2113 C2109 1.495 . S
C2113 H2119 0.959 . S
C2113 H2120 0.961 . S
C2113 H2121 0.960 . S
C2114 C2112 1.381 . S
C2114 C2115 1.394 . S
C2114 H2122 0.930 . S
C2115 C2114 1.394 . S
C2115 C2116 1.383 . S
C2115 H2123 0.929 . S
C2116 C2115 1.383 . S
C2116 C2117 1.377 . S
C2117 H2101 0.930 . S
C2117 C2116 1.377 . S
C2117 C2118 1.379 . S
C2118 H2102 0.931 . S
C2118 C2112 1.383 . S
C2118 C2117 1.379 . S
H2119 C2113 0.959 . S
H2120 C2113 0.961 . S
H2121 C2113 0.960 . S
H2122 C2114 0.930 . S
H2123 C2115 0.929 . S
H2124 C2132 0.929 . S
H2125 C2134 0.930 . S
H2126 C2136 0.930 . S
H2127 C2139 0.929 . S
H2128 C2142 0.930 . S
H2129 C2144 0.960 . S
H2130 C2144 0.960 . S
H2131 C2144 0.960 . S
C2132 H2124 0.929 . S
C2132 C2133 1.377 . S
C2132 C2134 1.384 . S
C2133 C2132 1.377 . S
C2133 C2139 1.390 . S
C2134 H2125 0.930 . S
C2134 C2132 1.384 . S
C2134 C2135 1.372 . S
C2135 C2134 1.372 . S
C2135 C2136 1.400 . S
C2135 C2140 1.490 . S
C2136 H2126 0.930 . S
C2136 C2135 1.400 . S
C2136 C2139 1.386 . S
H2137 C2153 0.930 . S
H2138 C2154 0.931 . S
C2139 H2127 0.929 . S
C2139 C2133 1.390 . S
C2139 C2136 1.386 . S
C2140 C2135 1.490 . S
C2140 C2142 1.395 . S
C2140 C2143 1.403 . S
H2141 C2147 0.930 . S
C2142 H2128 0.930 . S
C2142 C2140 1.395 . S
C2142 C2145 1.403 . S
C2143 C2140 1.403 . S
C2143 C2144 1.524 . S
C2143 C2147 1.400 . S
C2144 H2129 0.960 . S
C2144 H2130 0.960 . S
C2144 H2131 0.960 . S
C2144 C2143 1.524 . S
C2145 C2142 1.403 . S
C2145 C2146 1.392 . S
C2145 C2149 1.495 . S
C2146 C2145 1.392 . S
C2146 C2147 1.385 . S
C2146 C2148 1.478 . S
C2147 H2141 0.930 . S
C2147 C2143 1.400 . S
C2147 C2146 1.385 . S
C2148 C2146 1.478 . S
C2148 C2150 1.381 . S
C2148 C2154 1.383 . S
C2149 C2145 1.495 . S
C2149 H2155 0.959 . S
C2149 H2156 0.961 . S
C2149 H2157 0.960 . S
C2150 C2148 1.381 . S
C2150 C2151 1.394 . S
C2150 H2158 0.930 . S
C2151 C2150 1.394 . S
C2151 C2152 1.383 . S
C2151 H2159 0.929 . S
C2152 C2151 1.383 . S
C2152 C2153 1.377 . S
C2153 H2137 0.930 . S
C2153 C2152 1.377 . S
C2153 C2154 1.379 . S
C2154 H2138 0.931 . S
C2154 C2148 1.383 . S
C2154 C2153 1.379 . S
H2155 C2149 0.959 . S
H2156 C2149 0.961 . S
H2157 C2149 0.960 . S
H2158 C2150 0.930 . S
H2159 C2151 0.929 . S
H2160 C2168 0.929 . S
H2161 C2170 0.930 . S
H2162 C2172 0.930 . S
H2163 C2175 0.929 . S
H2164 C2178 0.930 . S
H2165 C2180 0.960 . S
H2166 C2180 0.960 . S
H2167 C2180 0.960 . S
C2168 H2160 0.929 . S
C2168 C2169 1.377 . S
C2168 C2170 1.384 . S
C2169 C2168 1.377 . S
C2169 C2175 1.390 . S
C2170 H2161 0.930 . S
C2170 C2168 1.384 . S
C2170 C2171 1.372 . S
C2171 C2170 1.372 . S
C2171 C2172 1.400 . S
C2171 C2176 1.490 . S
C2172 H2162 0.930 . S
C2172 C2171 1.400 . S
C2172 C2175 1.386 . S
H2173 C2189 0.930 . S
H2174 C2190 0.931 . S
C2175 H2163 0.929 . S
C2175 C2169 1.390 . S
C2175 C2172 1.386 . S
C2176 C2171 1.490 . S
C2176 C2178 1.395 . S
C2176 C2179 1.403 . S
H2177 C2183 0.930 . S
C2178 H2164 0.930 . S
C2178 C2176 1.395 . S
C2178 C2181 1.403 . S
C2179 C2176 1.403 . S
C2179 C2180 1.524 . S
C2179 C2183 1.400 . S
C2180 H2165 0.960 . S
C2180 H2166 0.960 . S
C2180 H2167 0.960 . S
C2180 C2179 1.524 . S
C2181 C2178 1.403 . S
C2181 C2182 1.392 . S
C2181 C2185 1.495 . S
C2182 C2181 1.392 . S
C2182 C2183 1.385 . S
C2182 C2184 1.478 . S
C2183 H2177 0.930 . S
C2183 C2179 1.400 . S
C2183 C2182 1.385 . S
C2184 C2182 1.478 . S
C2184 C2186 1.381 . S
C2184 C2190 1.383 . S
C2185 C2181 1.495 . S
C2185 H2191 0.959 . S
C2185 H2192 0.961 . S
C2185 H2193 0.960 . S
C2186 C2184 1.381 . S
C2186 C2187 1.394 . S
C2186 H2194 0.930 . S
C2187 C2186 1.394 . S
C2187 C2188 1.383 . S
C2187 H2195 0.929 . S
C2188 C2187 1.383 . S
C2188 C2189 1.377 . S
C2189 H2173 0.930 . S
C2189 C2188 1.377 . S
C2189 C2190 1.379 . S
C2190 H2174 0.931 . S
C2190 C2184 1.383 . S
C2190 C2189 1.379 . S
H2191 C2185 0.959 . S
H2192 C2185 0.961 . S
H2193 C2185 0.960 . S
H2194 C2186 0.930 . S
H2195 C2187 0.929 . S
H2196 C2204 0.929 . S
H2197 C2206 0.930 . S
H2198 C2208 0.930 . S
H2199 C2211 0.929 . S
H2200 C2214 0.930 . S
H2201 C2216 0.960 . S
H2202 C2216 0.960 . S
H2203 C2216 0.960 . S
C2204 H2196 0.929 . S
C2204 C2205 1.377 . S
C2204 C2206 1.384 . S
C2205 C2204 1.377 . S
C2205 C2211 1.390 . S
C2206 H2197 0.930 . S
C2206 C2204 1.384 . S
C2206 C2207 1.372 . S
C2207 C2206 1.372 . S
C2207 C2208 1.400 . S
C2207 C2212 1.490 . S
C2208 H2198 0.930 . S
C2208 C2207 1.400 . S
C2208 C2211 1.386 . S
H2209 C2225 0.930 . S
H2210 C2226 0.931 . S
C2211 H2199 0.929 . S
C2211 C2205 1.390 . S
C2211 C2208 1.386 . S
C2212 C2207 1.490 . S
C2212 C2214 1.395 . S
C2212 C2215 1.403 . S
H2213 C2219 0.930 . S
C2214 H2200 0.930 . S
C2214 C2212 1.395 . S
C2214 C2217 1.403 . S
C2215 C2212 1.403 . S
C2215 C2216 1.524 . S
C2215 C2219 1.400 . S
C2216 H2201 0.960 . S
C2216 H2202 0.960 . S
C2216 H2203 0.960 . S
C2216 C2215 1.524 . S
C2217 C2214 1.403 . S
C2217 C2218 1.392 . S
C2217 C2221 1.495 . S
C2218 C2217 1.392 . S
C2218 C2219 1.385 . S
C2218 C2220 1.478 . S
C2219 H2213 0.930 . S
C2219 C2215 1.400 . S
C2219 C2218 1.385 . S
C2220 C2218 1.478 . S
C2220 C2222 1.381 . S
C2220 C2226 1.383 . S
C2221 C2217 1.495 . S
C2221 H2227 0.959 . S
C2221 H2228 0.961 . S
C2221 H2229 0.960 . S
C2222 C2220 1.381 . S
C2222 C2223 1.394 . S
C2222 H2230 0.930 . S
C2223 C2222 1.394 . S
C2223 C2224 1.383 . S
C2223 H2231 0.929 . S
C2224 C2223 1.383 . S
C2224 C2225 1.377 . S
C2225 H2209 0.930 . S
C2225 C2224 1.377 . S
C2225 C2226 1.379 . S
C2226 H2210 0.931 . S
C2226 C2220 1.383 . S
C2226 C2225 1.379 . S
H2227 C2221 0.959 . S
H2228 C2221 0.961 . S
H2229 C2221 0.960 . S
H2230 C2222 0.930 . S
H2231 C2223 0.929 . S
H2232 C2240 0.929 . S
H2233 C2242 0.930 . S
H2234 C2244 0.930 . S
H2235 C2247 0.929 . S
H2236 C2250 0.930 . S
H2237 C2252 0.960 . S
H2238 C2252 0.960 . S
H2239 C2252 0.960 . S
C2240 H2232 0.929 . S
C2240 C2241 1.377 . S
C2240 C2242 1.384 . S
C2241 C2240 1.377 . S
C2241 C2247 1.390 . S
C2242 H2233 0.930 . S
C2242 C2240 1.384 . S
C2242 C2243 1.372 . S
C2243 C2242 1.372 . S
C2243 C2244 1.400 . S
C2243 C2248 1.490 . S
C2244 H2234 0.930 . S
C2244 C2243 1.400 . S
C2244 C2247 1.386 . S
H2245 C2261 0.930 . S
H2246 C2262 0.931 . S
C2247 H2235 0.929 . S
C2247 C2241 1.390 . S
C2247 C2244 1.386 . S
C2248 C2243 1.490 . S
C2248 C2250 1.395 . S
C2248 C2251 1.403 . S
H2249 C2255 0.930 . S
C2250 H2236 0.930 . S
C2250 C2248 1.395 . S
C2250 C2253 1.403 . S
C2251 C2248 1.403 . S
C2251 C2252 1.524 . S
C2251 C2255 1.400 . S
C2252 H2237 0.960 . S
C2252 H2238 0.960 . S
C2252 H2239 0.960 . S
C2252 C2251 1.524 . S
C2253 C2250 1.403 . S
C2253 C2254 1.392 . S
C2253 C2257 1.495 . S
C2254 C2253 1.392 . S
C2254 C2255 1.385 . S
C2254 C2256 1.478 . S
C2255 H2249 0.930 . S
C2255 C2251 1.400 . S
C2255 C2254 1.385 . S
C2256 C2254 1.478 . S
C2256 C2258 1.381 . S
C2256 C2262 1.383 . S
C2257 C2253 1.495 . S
C2257 H2263 0.959 . S
C2257 H2264 0.961 . S
C2257 H2265 0.960 . S
C2258 C2256 1.381 . S
C2258 C2259 1.394 . S
C2258 H2266 0.930 . S
C2259 C2258 1.394 . S
C2259 C2260 1.383 . S
C2259 H2267 0.929 . S
C2260 C2259 1.383 . S
C2260 C2261 1.377 . S
C2261 H2245 0.930 . S
C2261 C2260 1.377 . S
C2261 C2262 1.379 . S
C2262 H2246 0.931 . S
C2262 C2256 1.383 . S
C2262 C2261 1.379 . S
H2263 C2257 0.959 . S
H2264 C2257 0.961 . S
H2265 C2257 0.960 . S
H2266 C2258 0.930 . S
H2267 C2259 0.929 . S
H2268 C2276 0.929 . S
H2269 C2278 0.930 . S
H2270 C2280 0.930 . S
H2271 C2283 0.929 . S
H2272 C2286 0.930 . S
H2273 C2288 0.960 . S
H2274 C2288 0.960 . S
H2275 C2288 0.960 . S
C2276 H2268 0.929 . S
C2276 C2277 1.377 . S
C2276 C2278 1.384 . S
C2277 C2276 1.377 . S
C2277 C2283 1.390 . S
C2278 H2269 0.930 . S
C2278 C2276 1.384 . S
C2278 C2279 1.372 . S
C2279 C2278 1.372 . S
C2279 C2280 1.400 . S
C2279 C2284 1.490 . S
C2280 H2270 0.930 . S
C2280 C2279 1.400 . S
C2280 C2283 1.386 . S
H2281 C2297 0.930 . S
H2282 C2298 0.931 . S
C2283 H2271 0.929 . S
C2283 C2277 1.390 . S
C2283 C2280 1.386 . S
C2284 C2279 1.490 . S
C2284 C2286 1.395 . S
C2284 C2287 1.403 . S
H2285 C2291 0.930 . S
C2286 H2272 0.930 . S
C2286 C2284 1.395 . S
C2286 C2289 1.403 . S
C2287 C2284 1.403 . S
C2287 C2288 1.524 . S
C2287 C2291 1.400 . S
C2288 H2273 0.960 . S
C2288 H2274 0.960 . S
C2288 H2275 0.960 . S
C2288 C2287 1.524 . S
C2289 C2286 1.403 . S
C2289 C2290 1.392 . S
C2289 C2293 1.495 . S
C2290 C2289 1.392 . S
C2290 C2291 1.385 . S
C2290 C2292 1.478 . S
C2291 H2285 0.930 . S
C2291 C2287 1.400 . S
C2291 C2290 1.385 . S
C2292 C2290 1.478 . S
C2292 C2294 1.381 . S
C2292 C2298 1.383 . S
C2293 C2289 1.495 . S
C2293 H2299 0.959 . S
C2293 H2300 0.961 . S
C2293 H2301 0.960 . S
C2294 C2292 1.381 . S
C2294 C2295 1.394 . S
C2294 H2302 0.930 . S
C2295 C2294 1.394 . S
C2295 C2296 1.383 . S
C2295 H2303 0.929 . S
C2296 C2295 1.383 . S
C2296 C2297 1.377 . S
C2297 H2281 0.930 . S
C2297 C2296 1.377 . S
C2297 C2298 1.379 . S
C2298 H2282 0.931 . S
C2298 C2292 1.383 . S
C2298 C2297 1.379 . S
H2299 C2293 0.959 . S
H2300 C2293 0.961 . S
H2301 C2293 0.960 . S
H2302 C2294 0.930 . S
H2303 C2295 0.929 . S
H2304 C2312 0.929 . S
H2305 C2314 0.930 . S
H2306 C2316 0.930 . S
H2307 C2319 0.929 . S
H2308 C2322 0.930 . S
H2309 C2324 0.960 . S
H2310 C2324 0.960 . S
H2311 C2324 0.960 . S
C2312 H2304 0.929 . S
C2312 C2313 1.377 . S
C2312 C2314 1.384 . S
C2313 C2312 1.377 . S
C2313 C2319 1.390 . S
C2314 H2305 0.930 . S
C2314 C2312 1.384 . S
C2314 C2315 1.372 . S
C2315 C2314 1.372 . S
C2315 C2316 1.400 . S
C2315 C2320 1.490 . S
C2316 H2306 0.930 . S
C2316 C2315 1.400 . S
C2316 C2319 1.386 . S
H2317 C2333 0.930 . S
H2318 C2334 0.931 . S
C2319 H2307 0.929 . S
C2319 C2313 1.390 . S
C2319 C2316 1.386 . S
C2320 C2315 1.490 . S
C2320 C2322 1.395 . S
C2320 C2323 1.403 . S
H2321 C2327 0.930 . S
C2322 H2308 0.930 . S
C2322 C2320 1.395 . S
C2322 C2325 1.403 . S
C2323 C2320 1.403 . S
C2323 C2324 1.524 . S
C2323 C2327 1.400 . S
C2324 H2309 0.960 . S
C2324 H2310 0.960 . S
C2324 H2311 0.960 . S
C2324 C2323 1.524 . S
C2325 C2322 1.403 . S
C2325 C2326 1.392 . S
C2325 C2329 1.495 . S
C2326 C2325 1.392 . S
C2326 C2327 1.385 . S
C2326 C2328 1.478 . S
C2327 H2321 0.930 . S
C2327 C2323 1.400 . S
C2327 C2326 1.385 . S
C2328 C2326 1.478 . S
C2328 C2330 1.381 . S
C2328 C2334 1.383 . S
C2329 C2325 1.495 . S
C2329 H2335 0.959 . S
C2329 H2336 0.961 . S
C2329 H2337 0.960 . S
C2330 C2328 1.381 . S
C2330 C2331 1.394 . S
C2330 H2338 0.930 . S
C2331 C2330 1.394 . S
C2331 C2332 1.383 . S
C2331 H2339 0.929 . S
C2332 C2331 1.383 . S
C2332 C2333 1.377 . S
C2333 H2317 0.930 . S
C2333 C2332 1.377 . S
C2333 C2334 1.379 . S
C2334 H2318 0.931 . S
C2334 C2328 1.383 . S
C2334 C2333 1.379 . S
H2335 C2329 0.959 . S
H2336 C2329 0.961 . S
H2337 C2329 0.960 . S
H2338 C2330 0.930 . S
H2339 C2331 0.929 . S
H2340 C2348 0.929 . S
H2341 C2350 0.930 . S
H2342 C2352 0.930 . S
H2343 C2355 0.929 . S
H2344 C2358 0.930 . S
H2345 C2360 0.960 . S
H2346 C2360 0.960 . S
H2347 C2360 0.960 . S
C2348 H2340 0.929 . S
C2348 C2349 1.377 . S
C2348 C2350 1.384 . S
C2349 C2348 1.377 . S
C2349 C2355 1.390 . S
C2350 H2341 0.930 . S
C2350 C2348 1.384 . S
C2350 C2351 1.372 . S
C2351 C2350 1.372 . S
C2351 C2352 1.400 . S
C2351 C2356 1.490 . S
C2352 H2342 0.930 . S
C2352 C2351 1.400 . S
C2352 C2355 1.386 . S
H2353 C2369 0.930 . S
H2354 C2370 0.931 . S
C2355 H2343 0.929 . S
C2355 C2349 1.390 . S
C2355 C2352 1.386 . S
C2356 C2351 1.490 . S
C2356 C2358 1.395 . S
C2356 C2359 1.403 . S
H2357 C2363 0.930 . S
C2358 H2344 0.930 . S
C2358 C2356 1.395 . S
C2358 C2361 1.403 . S
C2359 C2356 1.403 . S
C2359 C2360 1.524 . S
C2359 C2363 1.400 . S
C2360 H2345 0.960 . S
C2360 H2346 0.960 . S
C2360 H2347 0.960 . S
C2360 C2359 1.524 . S
C2361 C2358 1.403 . S
C2361 C2362 1.392 . S
C2361 C2365 1.495 . S
C2362 C2361 1.392 . S
C2362 C2363 1.385 . S
C2362 C2364 1.478 . S
C2363 H2357 0.930 . S
C2363 C2359 1.400 . S
C2363 C2362 1.385 . S
C2364 C2362 1.478 . S
C2364 C2366 1.381 . S
C2364 C2370 1.383 . S
C2365 C2361 1.495 . S
C2365 H2371 0.959 . S
C2365 H2372 0.961 . S
C2365 H2373 0.960 . S
C2366 C2364 1.381 . S
C2366 C2367 1.394 . S
C2366 H2374 0.930 . S
C2367 C2366 1.394 . S
C2367 C2368 1.383 . S
C2367 H2375 0.929 . S
C2368 C2367 1.383 . S
C2368 C2369 1.377 . S
C2369 H2353 0.930 . S
C2369 C2368 1.377 . S
C2369 C2370 1.379 . S
C2370 H2354 0.931 . S
C2370 C2364 1.383 . S
C2370 C2369 1.379 . S
H2371 C2365 0.959 . S
H2372 C2365 0.961 . S
H2373 C2365 0.960 . S
H2374 C2366 0.930 . S
H2375 C2367 0.929 . S
H2376 C2384 0.929 . S
H2377 C2386 0.930 . S
H2378 C2388 0.930 . S
H2379 C2391 0.929 . S
H2380 C2394 0.930 . S
H2381 C2396 0.960 . S
H2382 C2396 0.960 . S
H2383 C2396 0.960 . S
C2384 H2376 0.929 . S
C2384 C2385 1.377 . S
C2384 C2386 1.384 . S
C2385 C2384 1.377 . S
C2385 C2391 1.390 . S
C2386 H2377 0.930 . S
C2386 C2384 1.384 . S
C2386 C2387 1.372 . S
C2387 C2386 1.372 . S
C2387 C2388 1.400 . S
C2387 C2392 1.490 . S
C2388 H2378 0.930 . S
C2388 C2387 1.400 . S
C2388 C2391 1.386 . S
H2389 C2405 0.930 . S
H2390 C2406 0.931 . S
C2391 H2379 0.929 . S
C2391 C2385 1.390 . S
C2391 C2388 1.386 . S
C2392 C2387 1.490 . S
C2392 C2394 1.395 . S
C2392 C2395 1.403 . S
H2393 C2399 0.930 . S
C2394 H2380 0.930 . S
C2394 C2392 1.395 . S
C2394 C2397 1.403 . S
C2395 C2392 1.403 . S
C2395 C2396 1.524 . S
C2395 C2399 1.400 . S
C2396 H2381 0.960 . S
C2396 H2382 0.960 . S
C2396 H2383 0.960 . S
C2396 C2395 1.524 . S
C2397 C2394 1.403 . S
C2397 C2398 1.392 . S
C2397 C2401 1.495 . S
C2398 C2397 1.392 . S
C2398 C2399 1.385 . S
C2398 C2400 1.478 . S
C2399 H2393 0.930 . S
C2399 C2395 1.400 . S
C2399 C2398 1.385 . S
C2400 C2398 1.478 . S
C2400 C2402 1.381 . S
C2400 C2406 1.383 . S
C2401 C2397 1.495 . S
C2401 H2407 0.959 . S
C2401 H2408 0.961 . S
C2401 H2409 0.960 . S
C2402 C2400 1.381 . S
C2402 C2403 1.394 . S
C2402 H2410 0.930 . S
C2403 C2402 1.394 . S
C2403 C2404 1.383 . S
C2403 H2411 0.929 . S
C2404 C2403 1.383 . S
C2404 C2405 1.377 . S
C2405 H2389 0.930 . S
C2405 C2404 1.377 . S
C2405 C2406 1.379 . S
C2406 H2390 0.931 . S
C2406 C2400 1.383 . S
C2406 C2405 1.379 . S
H2407 C2401 0.959 . S
H2408 C2401 0.961 . S
H2409 C2401 0.960 . S
H2410 C2402 0.930 . S
H2411 C2403 0.929 . S
H2412 C2420 0.929 . S
H2413 C2422 0.930 . S
H2414 C2424 0.930 . S
H2415 C2427 0.929 . S
H2416 C2430 0.930 . S
H2417 C2432 0.960 . S
H2418 C2432 0.960 . S
H2419 C2432 0.960 . S
C2420 H2412 0.929 . S
C2420 C2421 1.377 . S
C2420 C2422 1.384 . S
C2421 C2420 1.377 . S
C2421 C2427 1.390 . S
C2422 H2413 0.930 . S
C2422 C2420 1.384 . S
C2422 C2423 1.372 . S
C2423 C2422 1.372 . S
C2423 C2424 1.400 . S
C2423 C2428 1.490 . S
C2424 H2414 0.930 . S
C2424 C2423 1.400 . S
C2424 C2427 1.386 . S
H2425 C2441 0.930 . S
H2426 C2442 0.931 . S
C2427 H2415 0.929 . S
C2427 C2421 1.390 . S
C2427 C2424 1.386 . S
C2428 C2423 1.490 . S
C2428 C2430 1.395 . S
C2428 C2431 1.403 . S
H2429 C2435 0.930 . S
C2430 H2416 0.930 . S
C2430 C2428 1.395 . S
C2430 C2433 1.403 . S
C2431 C2428 1.403 . S
C2431 C2432 1.524 . S
C2431 C2435 1.400 . S
C2432 H2417 0.960 . S
C2432 H2418 0.960 . S
C2432 H2419 0.960 . S
C2432 C2431 1.524 . S
C2433 C2430 1.403 . S
C2433 C2434 1.392 . S
C2433 C2437 1.495 . S
C2434 C2433 1.392 . S
C2434 C2435 1.385 . S
C2434 C2436 1.478 . S
C2435 H2429 0.930 . S
C2435 C2431 1.400 . S
C2435 C2434 1.385 . S
C2436 C2434 1.478 . S
C2436 C2438 1.381 . S
C2436 C2442 1.383 . S
C2437 C2433 1.495 . S
C2437 H2443 0.959 . S
C2437 H2444 0.961 . S
C2437 H2445 0.960 . S
C2438 C2436 1.381 . S
C2438 C2439 1.394 . S
C2438 H2446 0.930 . S
C2439 C2438 1.394 . S
C2439 C2440 1.383 . S
C2439 H2447 0.929 . S
C2440 C2439 1.383 . S
C2440 C2441 1.377 . S
C2441 H2425 0.930 . S
C2441 C2440 1.377 . S
C2441 C2442 1.379 . S
C2442 H2426 0.931 . S
C2442 C2436 1.383 . S
C2442 C2441 1.379 . S
H2443 C2437 0.959 . S
H2444 C2437 0.961 . S
H2445 C2437 0.960 . S
H2446 C2438 0.930 . S
H2447 C2439 0.929 . S
H2448 C2456 0.929 . S
H2449 C2458 0.930 . S
H2450 C2460 0.930 . S
H2451 C2463 0.929 . S
H2452 C2466 0.930 . S
H2453 C2468 0.960 . S
H2454 C2468 0.960 . S
H2455 C2468 0.960 . S
C2456 H2448 0.929 . S
C2456 C2457 1.377 . S
C2456 C2458 1.384 . S
C2457 C2456 1.377 . S
C2457 C2463 1.390 . S
C2458 H2449 0.930 . S
C2458 C2456 1.384 . S
C2458 C2459 1.372 . S
C2459 C2458 1.372 . S
C2459 C2460 1.400 . S
C2459 C2464 1.490 . S
C2460 H2450 0.930 . S
C2460 C2459 1.400 . S
C2460 C2463 1.386 . S
H2461 C2477 0.930 . S
H2462 C2478 0.931 . S
C2463 H2451 0.929 . S
C2463 C2457 1.390 . S
C2463 C2460 1.386 . S
C2464 C2459 1.490 . S
C2464 C2466 1.395 . S
C2464 C2467 1.403 . S
H2465 C2471 0.930 . S
C2466 H2452 0.930 . S
C2466 C2464 1.395 . S
C2466 C2469 1.403 . S
C2467 C2464 1.403 . S
C2467 C2468 1.524 . S
C2467 C2471 1.400 . S
C2468 H2453 0.960 . S
C2468 H2454 0.960 . S
C2468 H2455 0.960 . S
C2468 C2467 1.524 . S
C2469 C2466 1.403 . S
C2469 C2470 1.392 . S
C2469 C2473 1.495 . S
C2470 C2469 1.392 . S
C2470 C2471 1.385 . S
C2470 C2472 1.478 . S
C2471 H2465 0.930 . S
C2471 C2467 1.400 . S
C2471 C2470 1.385 . S
C2472 C2470 1.478 . S
C2472 C2474 1.381 . S
C2472 C2478 1.383 . S
C2473 C2469 1.495 . S
C2473 H2479 0.959 . S
C2473 H2480 0.961 . S
C2473 H2481 0.960 . S
C2474 C2472 1.381 . S
C2474 C2475 1.394 . S
C2474 H2482 0.930 . S
C2475 C2474 1.394 . S
C2475 C2476 1.383 . S
C2475 H2483 0.929 . S
C2476 C2475 1.383 . S
C2476 C2477 1.377 . S
C2477 H2461 0.930 . S
C2477 C2476 1.377 . S
C2477 C2478 1.379 . S
C2478 H2462 0.931 . S
C2478 C2472 1.383 . S
C2478 C2477 1.379 . S
H2479 C2473 0.959 . S
H2480 C2473 0.961 . S
H2481 C2473 0.960 . S
H2482 C2474 0.930 . S
H2483 C2475 0.929 . S
H2484 C2492 0.929 . S
H2485 C2494 0.930 . S
H2486 C2496 0.930 . S
H2487 C2499 0.929 . S
H2488 C2502 0.930 . S
H2489 C2504 0.960 . S
H2490 C2504 0.960 . S
H2491 C2504 0.960 . S
C2492 H2484 0.929 . S
C2492 C2493 1.377 . S
C2492 C2494 1.384 . S
C2493 C2492 1.377 . S
C2493 C2499 1.390 . S
C2494 H2485 0.930 . S
C2494 C2492 1.384 . S
C2494 C2495 1.372 . S
C2495 C2494 1.372 . S
C2495 C2496 1.400 . S
C2495 C2500 1.490 . S
C2496 H2486 0.930 . S
C2496 C2495 1.400 . S
C2496 C2499 1.386 . S
H2497 C2513 0.930 . S
H2498 C2514 0.931 . S
C2499 H2487 0.929 . S
C2499 C2493 1.390 . S
C2499 C2496 1.386 . S
C2500 C2495 1.490 . S
C2500 C2502 1.395 . S
C2500 C2503 1.403 . S
H2501 C2507 0.930 . S
C2502 H2488 0.930 . S
C2502 C2500 1.395 . S
C2502 C2505 1.403 . S
C2503 C2500 1.403 . S
C2503 C2504 1.524 . S
C2503 C2507 1.400 . S
C2504 H2489 0.960 . S
C2504 H2490 0.960 . S
C2504 H2491 0.960 . S
C2504 C2503 1.524 . S
C2505 C2502 1.403 . S
C2505 C2506 1.392 . S
C2505 C2509 1.495 . S
C2506 C2505 1.392 . S
C2506 C2507 1.385 . S
C2506 C2508 1.478 . S
C2507 H2501 0.930 . S
C2507 C2503 1.400 . S
C2507 C2506 1.385 . S
C2508 C2506 1.478 . S
C2508 C2510 1.381 . S
C2508 C2514 1.383 . S
C2509 C2505 1.495 . S
C2509 H2515 0.959 . S
C2509 H2516 0.961 . S
C2509 H2517 0.960 . S
C2510 C2508 1.381 . S
C2510 C2511 1.394 . S
C2510 H2518 0.930 . S
C2511 C2510 1.394 . S
C2511 C2512 1.383 . S
C2511 H2519 0.929 . S
C2512 C2511 1.383 . S
C2512 C2513 1.377 . S
C2513 H2497 0.930 . S
C2513 C2512 1.377 . S
C2513 C2514 1.379 . S
C2514 H2498 0.931 . S
C2514 C2508 1.383 . S
C2514 C2513 1.379 . S
H2515 C2509 0.959 . S
H2516 C2509 0.961 . S
H2517 C2509 0.960 . S
H2518 C2510 0.930 . S
H2519 C2511 0.929 . S
H2520 C2528 0.929 . S
H2521 C2530 0.930 . S
H2522 C2532 0.930 . S
H2523 C2535 0.929 . S
H2524 C2538 0.930 . S
H2525 C2540 0.960 . S
H2526 C2540 0.960 . S
H2527 C2540 0.960 . S
C2528 H2520 0.929 . S
C2528 C2529 1.377 . S
C2528 C2530 1.384 . S
C2529 C2528 1.377 . S
C2529 C2535 1.390 . S
C2530 H2521 0.930 . S
C2530 C2528 1.384 . S
C2530 C2531 1.372 . S
C2531 C2530 1.372 . S
C2531 C2532 1.400 . S
C2531 C2536 1.490 . S
C2532 H2522 0.930 . S
C2532 C2531 1.400 . S
C2532 C2535 1.386 . S
H2533 C2549 0.930 . S
H2534 C2550 0.931 . S
C2535 H2523 0.929 . S
C2535 C2529 1.390 . S
C2535 C2532 1.386 . S
C2536 C2531 1.490 . S
C2536 C2538 1.395 . S
C2536 C2539 1.403 . S
H2537 C2543 0.930 . S
C2538 H2524 0.930 . S
C2538 C2536 1.395 . S
C2538 C2541 1.403 . S
C2539 C2536 1.403 . S
C2539 C2540 1.524 . S
C2539 C2543 1.400 . S
C2540 H2525 0.960 . S
C2540 H2526 0.960 . S
C2540 H2527 0.960 . S
C2540 C2539 1.524 . S
C2541 C2538 1.403 . S
C2541 C2542 1.392 . S
C2541 C2545 1.495 . S
C2542 C2541 1.392 . S
C2542 C2543 1.385 . S
C2542 C2544 1.478 . S
C2543 H2537 0.930 . S
C2543 C2539 1.400 . S
C2543 C2542 1.385 . S
C2544 C2542 1.478 . S
C2544 C2546 1.381 . S
C2544 C2550 1.383 . S
C2545 C2541 1.495 . S
C2545 H2551 0.959 . S
C2545 H2552 0.961 . S
C2545 H2553 0.960 . S
C2546 C2544 1.381 . S
C2546 C2547 1.394 . S
C2546 H2554 0.930 . S
C2547 C2546 1.394 . S
C2547 C2548 1.383 . S
C2547 H2555 0.929 . S
C2548 C2547 1.383 . S
C2548 C2549 1.377 . S
C2549 H2533 0.930 . S
C2549 C2548 1.377 . S
C2549 C2550 1.379 . S
C2550 H2534 0.931 . S
C2550 C2544 1.383 . S
C2550 C2549 1.379 . S
H2551 C2545 0.959 . S
H2552 C2545 0.961 . S
H2553 C2545 0.960 . S
H2554 C2546 0.930 . S
H2555 C2547 0.929 . S
H2556 C2564 0.929 . S
H2557 C2566 0.930 . S
H2558 C2568 0.930 . S
H2559 C2571 0.929 . S
H2560 C2574 0.930 . S
H2561 C2576 0.960 . S
H2562 C2576 0.960 . S
H2563 C2576 0.960 . S
C2564 H2556 0.929 . S
C2564 C2565 1.377 . S
C2564 C2566 1.384 . S
C2565 C2564 1.377 . S
C2565 C2571 1.390 . S
C2566 H2557 0.930 . S
C2566 C2564 1.384 . S
C2566 C2567 1.372 . S
C2567 C2566 1.372 . S
C2567 C2568 1.400 . S
C2567 C2572 1.490 . S
C2568 H2558 0.930 . S
C2568 C2567 1.400 . S
C2568 C2571 1.386 . S
H2569 C2585 0.930 . S
H2570 C2586 0.931 . S
C2571 H2559 0.929 . S
C2571 C2565 1.390 . S
C2571 C2568 1.386 . S
C2572 C2567 1.490 . S
C2572 C2574 1.395 . S
C2572 C2575 1.403 . S
H2573 C2579 0.930 . S
C2574 H2560 0.930 . S
C2574 C2572 1.395 . S
C2574 C2577 1.403 . S
C2575 C2572 1.403 . S
C2575 C2576 1.524 . S
C2575 C2579 1.400 . S
C2576 H2561 0.960 . S
C2576 H2562 0.960 . S
C2576 H2563 0.960 . S
C2576 C2575 1.524 . S
C2577 C2574 1.403 . S
C2577 C2578 1.392 . S
C2577 C2581 1.495 . S
C2578 C2577 1.392 . S
C2578 C2579 1.385 . S
C2578 C2580 1.478 . S
C2579 H2573 0.930 . S
C2579 C2575 1.400 . S
C2579 C2578 1.385 . S
C2580 C2578 1.478 . S
C2580 C2582 1.381 . S
C2580 C2586 1.383 . S
C2581 C2577 1.495 . S
C2581 H2587 0.959 . S
C2581 H2588 0.961 . S
C2581 H2589 0.960 . S
C2582 C2580 1.381 . S
C2582 C2583 1.394 . S
C2582 H2590 0.930 . S
C2583 C2582 1.394 . S
C2583 C2584 1.383 . S
C2583 H2591 0.929 . S
C2584 C2583 1.383 . S
C2584 C2585 1.377 . S
C2585 H2569 0.930 . S
C2585 C2584 1.377 . S
C2585 C2586 1.379 . S
C2586 H2570 0.931 . S
C2586 C2580 1.383 . S
C2586 C2585 1.379 . S
H2587 C2581 0.959 . S
H2588 C2581 0.961 . S
H2589 C2581 0.960 . S
H2590 C2582 0.930 . S
H2591 C2583 0.929 . S
H2592 C2600 0.929 . S
H2593 C2602 0.930 . S
H2594 C2604 0.930 . S
H2595 C2607 0.929 . S
H2596 C2610 0.930 . S
H2597 C2612 0.960 . S
H2598 C2612 0.960 . S
H2599 C2612 0.960 . S
C2600 H2592 0.929 . S
C2600 C2601 1.377 . S
C2600 C2602 1.384 . S
C2601 C2600 1.377 . S
C2601 C2607 1.390 . S
C2602 H2593 0.930 . S
C2602 C2600 1.384 . S
C2602 C2603 1.372 . S
C2603 C2602 1.372 . S
C2603 C2604 1.400 . S
C2603 C2608 1.490 . S
C2604 H2594 0.930 . S
C2604 C2603 1.400 . S
C2604 C2607 1.386 . S
H2605 C2621 0.930 . S
H2606 C2622 0.931 . S
C2607 H2595 0.929 . S
C2607 C2601 1.390 . S
C2607 C2604 1.386 . S
C2608 C2603 1.490 . S
C2608 C2610 1.395 . S
C2608 C2611 1.403 . S
H2609 C2615 0.930 . S
C2610 H2596 0.930 . S
C2610 C2608 1.395 . S
C2610 C2613 1.403 . S
C2611 C2608 1.403 . S
C2611 C2612 1.524 . S
C2611 C2615 1.400 . S
C2612 H2597 0.960 . S
C2612 H2598 0.960 . S
C2612 H2599 0.960 . S
C2612 C2611 1.524 . S
C2613 C2610 1.403 . S
C2613 C2614 1.392 . S
C2613 C2617 1.495 . S
C2614 C2613 1.392 . S
C2614 C2615 1.385 . S
C2614 C2616 1.478 . S
C2615 H2609 0.930 . S
C2615 C2611 1.400 . S
C2615 C2614 1.385 . S
C2616 C2614 1.478 . S
C2616 C2618 1.381 . S
C2616 C2622 1.383 . S
C2617 C2613 1.495 . S
C2617 H2623 0.959 . S
C2617 H2624 0.961 . S
C2617 H2625 0.960 . S
C2618 C2616 1.381 . S
C2618 C2619 1.394 . S
C2618 H2626 0.930 . S
C2619 C2618 1.394 . S
C2619 C2620 1.383 . S
C2619 H2627 0.929 . S
C2620 C2619 1.383 . S
C2620 C2621 1.377 . S
C2621 H2605 0.930 . S
C2621 C2620 1.377 . S
C2621 C2622 1.379 . S
C2622 H2606 0.931 . S
C2622 C2616 1.383 . S
C2622 C2621 1.379 . S
H2623 C2617 0.959 . S
H2624 C2617 0.961 . S
H2625 C2617 0.960 . S
H2626 C2618 0.930 . S
H2627 C2619 0.929 . S
H2628 C2636 0.929 . S
H2629 C2638 0.930 . S
H2630 C2640 0.930 . S
H2631 C2643 0.929 . S
H2632 C2646 0.930 . S
H2633 C2648 0.960 . S
H2634 C2648 0.960 . S
H2635 C2648 0.960 . S
C2636 H2628 0.929 . S
C2636 C2637 1.377 . S
C2636 C2638 1.384 . S
C2637 C2636 1.377 . S
C2637 C2643 1.390 . S
C2638 H2629 0.930 . S
C2638 C2636 1.384 . S
C2638 C2639 1.372 . S
C2639 C2638 1.372 . S
C2639 C2640 1.400 . S
C2639 C2644 1.490 . S
C2640 H2630 0.930 . S
C2640 C2639 1.400 . S
C2640 C2643 1.386 . S
H2641 C2657 0.930 . S
H2642 C2658 0.931 . S
C2643 H2631 0.929 . S
C2643 C2637 1.390 . S
C2643 C2640 1.386 . S
C2644 C2639 1.490 . S
C2644 C2646 1.395 . S
C2644 C2647 1.403 . S
H2645 C2651 0.930 . S
C2646 H2632 0.930 . S
C2646 C2644 1.395 . S
C2646 C2649 1.403 . S
C2647 C2644 1.403 . S
C2647 C2648 1.524 . S
C2647 C2651 1.400 . S
C2648 H2633 0.960 . S
C2648 H2634 0.960 . S
C2648 H2635 0.960 . S
C2648 C2647 1.524 . S
C2649 C2646 1.403 . S
C2649 C2650 1.392 . S
C2649 C2653 1.495 . S
C2650 C2649 1.392 . S
C2650 C2651 1.385 . S
C2650 C2652 1.478 . S
C2651 H2645 0.930 . S
C2651 C2647 1.400 . S
C2651 C2650 1.385 . S
C2652 C2650 1.478 . S
C2652 C2654 1.381 . S
C2652 C2658 1.383 . S
C2653 C2649 1.495 . S
C2653 H2659 0.959 . S
C2653 H2660 0.961 . S
C2653 H2661 0.960 . S
C2654 C2652 1.381 . S
C2654 C2655 1.394 . S
C2654 H2662 0.930 . S
C2655 C2654 1.394 . S
C2655 C2656 1.383 . S
C2655 H2663 0.929 . S
C2656 C2655 1.383 . S
C2656 C2657 1.377 . S
C2657 H2641 0.930 . S
C2657 C2656 1.377 . S
C2657 C2658 1.379 . S
C2658 H2642 0.931 . S
C2658 C2652 1.383 . S
C2658 C2657 1.379 . S
H2659 C2653 0.959 . S
H2660 C2653 0.961 . S
H2661 C2653 0.960 . S
H2662 C2654 0.930 . S
H2663 C2655 0.929 . S
H2664 C2672 0.929 . S
H2665 C2674 0.930 . S
H2666 C2676 0.930 . S
H2667 C2679 0.929 . S
H2668 C2682 0.930 . S
H2669 C2684 0.960 . S
H2670 C2684 0.960 . S
H2671 C2684 0.960 . S
C2672 H2664 0.929 . S
C2672 C2673 1.377 . S
C2672 C2674 1.384 . S
C2673 C2672 1.377 . S
C2673 C2679 1.390 . S
C2674 H2665 0.930 . S
C2674 C2672 1.384 . S
C2674 C2675 1.372 . S
C2675 C2674 1.372 . S
C2675 C2676 1.400 . S
C2675 C2680 1.490 . S
C2676 H2666 0.930 . S
C2676 C2675 1.400 . S
C2676 C2679 1.386 . S
H2677 C2693 0.930 . S
H2678 C2694 0.931 . S
C2679 H2667 0.929 . S
C2679 C2673 1.390 . S
C2679 C2676 1.386 . S
C2680 C2675 1.490 . S
C2680 C2682 1.395 . S
C2680 C2683 1.403 . S
H2681 C2687 0.930 . S
C2682 H2668 0.930 . S
C2682 C2680 1.395 . S
C2682 C2685 1.403 . S
C2683 C2680 1.403 . S
C2683 C2684 1.524 . S
C2683 C2687 1.400 . S
C2684 H2669 0.960 . S
C2684 H2670 0.960 . S
C2684 H2671 0.960 . S
C2684 C2683 1.524 . S
C2685 C2682 1.403 . S
C2685 C2686 1.392 . S
C2685 C2689 1.495 . S
C2686 C2685 1.392 . S
C2686 C2687 1.385 . S
C2686 C2688 1.478 . S
C2687 H2681 0.930 . S
C2687 C2683 1.400 . S
C2687 C2686 1.385 . S
C2688 C2686 1.478 . S
C2688 C2690 1.381 . S
C2688 C2694 1.383 . S
C2689 C2685 1.495 . S
C2689 H2695 0.959 . S
C2689 H2696 0.961 . S
C2689 H2697 0.960 . S
C2690 C2688 1.381 . S
C2690 C2691 1.394 . S
C2690 H2698 0.930 . S
C2691 C2690 1.394 . S
C2691 C2692 1.383 . S
C2691 H2699 0.929 . S
C2692 C2691 1.383 . S
C2692 C2693 1.377 . S
C2693 H2677 0.930 . S
C2693 C2692 1.377 . S
C2693 C2694 1.379 . S
C2694 H2678 0.931 . S
C2694 C2688 1.383 . S
C2694 C2693 1.379 . S
H2695 C2689 0.959 . S
H2696 C2689 0.961 . S
H2697 C2689 0.960 . S
H2698 C2690 0.930 . S
H2699 C2691 0.929 . S
H2700 C2708 0.929 . S
H2701 C2710 0.930 . S
H2702 C2712 0.930 . S
H2703 C2715 0.929 . S
H2704 C2718 0.930 . S
H2705 C2720 0.960 . S
H2706 C2720 0.960 . S
H2707 C2720 0.960 . S
C2708 H2700 0.929 . S
C2708 C2709 1.377 . S
C2708 C2710 1.384 . S
C2709 C2708 1.377 . S
C2709 C2715 1.390 . S
C2710 H2701 0.930 . S
C2710 C2708 1.384 . S
C2710 C2711 1.372 . S
C2711 C2710 1.372 . S
C2711 C2712 1.400 . S
C2711 C2716 1.490 . S
C2712 H2702 0.930 . S
C2712 C2711 1.400 . S
C2712 C2715 1.386 . S
H2713 C2729 0.930 . S
H2714 C2730 0.931 . S
C2715 H2703 0.929 . S
C2715 C2709 1.390 . S
C2715 C2712 1.386 . S
C2716 C2711 1.490 . S
C2716 C2718 1.395 . S
C2716 C2719 1.403 . S
H2717 C2723 0.930 . S
C2718 H2704 0.930 . S
C2718 C2716 1.395 . S
C2718 C2721 1.403 . S
C2719 C2716 1.403 . S
C2719 C2720 1.524 . S
C2719 C2723 1.400 . S
C2720 H2705 0.960 . S
C2720 H2706 0.960 . S
C2720 H2707 0.960 . S
C2720 C2719 1.524 . S
C2721 C2718 1.403 . S
C2721 C2722 1.392 . S
C2721 C2725 1.495 . S
C2722 C2721 1.392 . S
C2722 C2723 1.385 . S
C2722 C2724 1.478 . S
C2723 H2717 0.930 . S
C2723 C2719 1.400 . S
C2723 C2722 1.385 . S
C2724 C2722 1.478 . S
C2724 C2726 1.381 . S
C2724 C2730 1.383 . S
C2725 C2721 1.495 . S
C2725 H2731 0.959 . S
C2725 H2732 0.961 . S
C2725 H2733 0.960 . S
C2726 C2724 1.381 . S
C2726 C2727 1.394 . S
C2726 H2734 0.930 . S
C2727 C2726 1.394 . S
C2727 C2728 1.383 . S
C2727 H2735 0.929 . S
C2728 C2727 1.383 . S
C2728 C2729 1.377 . S
C2729 H2713 0.930 . S
C2729 C2728 1.377 . S
C2729 C2730 1.379 . S
C2730 H2714 0.931 . S
C2730 C2724 1.383 . S
C2730 C2729 1.379 . S
H2731 C2725 0.959 . S
H2732 C2725 0.961 . S
H2733 C2725 0.960 . S
H2734 C2726 0.930 . S
H2735 C2727 0.929 . S
H2736 C2744 0.929 . S
H2737 C2746 0.930 . S
H2738 C2748 0.930 . S
H2739 C2751 0.929 . S
H2740 C2754 0.930 . S
H2741 C2756 0.960 . S
H2742 C2756 0.960 . S
H2743 C2756 0.960 . S
C2744 H2736 0.929 . S
C2744 C2745 1.377 . S
C2744 C2746 1.384 . S
C2745 C2744 1.377 . S
C2745 C2751 1.390 . S
C2746 H2737 0.930 . S
C2746 C2744 1.384 . S
C2746 C2747 1.372 . S
C2747 C2746 1.372 . S
C2747 C2748 1.400 . S
C2747 C2752 1.490 . S
C2748 H2738 0.930 . S
C2748 C2747 1.400 . S
C2748 C2751 1.386 . S
H2749 C2765 0.930 . S
H2750 C2766 0.931 . S
C2751 H2739 0.929 . S
C2751 C2745 1.390 . S
C2751 C2748 1.386 . S
C2752 C2747 1.490 . S
C2752 C2754 1.395 . S
C2752 C2755 1.403 . S
H2753 C2759 0.930 . S
C2754 H2740 0.930 . S
C2754 C2752 1.395 . S
C2754 C2757 1.403 . S
C2755 C2752 1.403 . S
C2755 C2756 1.524 . S
C2755 C2759 1.400 . S
C2756 H2741 0.960 . S
C2756 H2742 0.960 . S
C2756 H2743 0.960 . S
C2756 C2755 1.524 . S
C2757 C2754 1.403 . S
C2757 C2758 1.392 . S
C2757 C2761 1.495 . S
C2758 C2757 1.392 . S
C2758 C2759 1.385 . S
C2758 C2760 1.478 . S
C2759 H2753 0.930 . S
C2759 C2755 1.400 . S
C2759 C2758 1.385 . S
C2760 C2758 1.478 . S
C2760 C2762 1.381 . S
C2760 C2766 1.383 . S
C2761 C2757 1.495 . S
C2761 H2767 0.959 . S
C2761 H2768 0.961 . S
C2761 H2769 0.960 . S
C2762 C2760 1.381 . S
C2762 C2763 1.394 . S
C2762 H2770 0.930 . S
C2763 C2762 1.394 . S
C2763 C2764 1.383 . S
C2763 H2771 0.929 . S
C2764 C2763 1.383 . S
C2764 C2765 1.377 . S
C2765 H2749 0.930 . S
C2765 C2764 1.377 . S
C2765 C2766 1.379 . S
C2766 H2750 0.931 . S
C2766 C2760 1.383 . S
C2766 C2765 1.379 . S
H2767 C2761 0.959 . S
H2768 C2761 0.961 . S
H2769 C2761 0.960 . S
H2770 C2762 0.930 . S
H2771 C2763 0.929 . S
H2772 C2780 0.929 . S
H2773 C2782 0.930 . S
H2774 C2784 0.930 . S
H2775 C2787 0.929 . S
H2776 C2790 0.930 . S
H2777 C2792 0.960 . S
H2778 C2792 0.960 . S
H2779 C2792 0.960 . S
C2780 H2772 0.929 . S
C2780 C2781 1.377 . S
C2780 C2782 1.384 . S
C2781 C2780 1.377 . S
C2781 C2787 1.390 . S
C2782 H2773 0.930 . S
C2782 C2780 1.384 . S
C2782 C2783 1.372 . S
C2783 C2782 1.372 . S
C2783 C2784 1.400 . S
C2783 C2788 1.490 . S
C2784 H2774 0.930 . S
C2784 C2783 1.400 . S
C2784 C2787 1.386 . S
H2785 C2801 0.930 . S
H2786 C2802 0.931 . S
C2787 H2775 0.929 . S
C2787 C2781 1.390 . S
C2787 C2784 1.386 . S
C2788 C2783 1.490 . S
C2788 C2790 1.395 . S
C2788 C2791 1.403 . S
H2789 C2795 0.930 . S
C2790 H2776 0.930 . S
C2790 C2788 1.395 . S
C2790 C2793 1.403 . S
C2791 C2788 1.403 . S
C2791 C2792 1.524 . S
C2791 C2795 1.400 . S
C2792 H2777 0.960 . S
C2792 H2778 0.960 . S
C2792 H2779 0.960 . S
C2792 C2791 1.524 . S
C2793 C2790 1.403 . S
C2793 C2794 1.392 . S
C2793 C2797 1.495 . S
C2794 C2793 1.392 . S
C2794 C2795 1.385 . S
C2794 C2796 1.478 . S
C2795 H2789 0.930 . S
C2795 C2791 1.400 . S
C2795 C2794 1.385 . S
C2796 C2794 1.478 . S
C2796 C2798 1.381 . S
C2796 C2802 1.383 . S
C2797 C2793 1.495 . S
C2797 H2803 0.959 . S
C2797 H2804 0.961 . S
C2797 H2805 0.960 . S
C2798 C2796 1.381 . S
C2798 C2799 1.394 . S
C2798 H2806 0.930 . S
C2799 C2798 1.394 . S
C2799 C2800 1.383 . S
C2799 H2807 0.929 . S
C2800 C2799 1.383 . S
C2800 C2801 1.377 . S
C2801 H2785 0.930 . S
C2801 C2800 1.377 . S
C2801 C2802 1.379 . S
C2802 H2786 0.931 . S
C2802 C2796 1.383 . S
C2802 C2801 1.379 . S
H2803 C2797 0.959 . S
H2804 C2797 0.961 . S
H2805 C2797 0.960 . S
H2806 C2798 0.930 . S
H2807 C2799 0.929 . S
H2808 C2816 0.929 . S
H2809 C2818 0.930 . S
H2810 C2820 0.930 . S
H2811 C2823 0.929 . S
H2812 C2826 0.930 . S
H2813 C2828 0.960 . S
H2814 C2828 0.960 . S
H2815 C2828 0.960 . S
C2816 H2808 0.929 . S
C2816 C2817 1.377 . S
C2816 C2818 1.384 . S
C2817 C2816 1.377 . S
C2817 C2823 1.390 . S
C2818 H2809 0.930 . S
C2818 C2816 1.384 . S
C2818 C2819 1.372 . S
C2819 C2818 1.372 . S
C2819 C2820 1.400 . S
C2819 C2824 1.490 . S
C2820 H2810 0.930 . S
C2820 C2819 1.400 . S
C2820 C2823 1.386 . S
H2821 C2837 0.930 . S
H2822 C2838 0.931 . S
C2823 H2811 0.929 . S
C2823 C2817 1.390 . S
C2823 C2820 1.386 . S
C2824 C2819 1.490 . S
C2824 C2826 1.395 . S
C2824 C2827 1.403 . S
H2825 C2831 0.930 . S
C2826 H2812 0.930 . S
C2826 C2824 1.395 . S
C2826 C2829 1.403 . S
C2827 C2824 1.403 . S
C2827 C2828 1.524 . S
C2827 C2831 1.400 . S
C2828 H2813 0.960 . S
C2828 H2814 0.960 . S
C2828 H2815 0.960 . S
C2828 C2827 1.524 . S
C2829 C2826 1.403 . S
C2829 C2830 1.392 . S
C2829 C2833 1.495 . S
C2830 C2829 1.392 . S
C2830 C2831 1.385 . S
C2830 C2832 1.478 . S
C2831 H2825 0.930 . S
C2831 C2827 1.400 . S
C2831 C2830 1.385 . S
C2832 C2830 1.478 . S
C2832 C2834 1.381 . S
C2832 C2838 1.383 . S
C2833 C2829 1.495 . S
C2833 H2839 0.959 . S
C2833 H2840 0.961 . S
C2833 H2841 0.960 . S
C2834 C2832 1.381 . S
C2834 C2835 1.394 . S
C2834 H2842 0.930 . S
C2835 C2834 1.394 . S
C2835 C2836 1.383 . S
C2835 H2843 0.929 . S
C2836 C2835 1.383 . S
C2836 C2837 1.377 . S
C2837 H2821 0.930 . S
C2837 C2836 1.377 . S
C2837 C2838 1.379 . S
C2838 H2822 0.931 . S
C2838 C2832 1.383 . S
C2838 C2837 1.379 . S
H2839 C2833 0.959 . S
H2840 C2833 0.961 . S
H2841 C2833 0.960 . S
H2842 C2834 0.930 . S
H2843 C2835 0.929 . S
H2844 C2852 0.929 . S
H2845 C2854 0.930 . S
H2846 C2856 0.930 . S
H2847 C2859 0.929 . S
H2848 C2862 0.930 . S
H2849 C2864 0.960 . S
H2850 C2864 0.960 . S
H2851 C2864 0.960 . S
C2852 H2844 0.929 . S
C2852 C2853 1.377 . S
C2852 C2854 1.384 . S
C2853 C2852 1.377 . S
C2853 C2859 1.390 . S
C2854 H2845 0.930 . S
C2854 C2852 1.384 . S
C2854 C2855 1.372 . S
C2855 C2854 1.372 . S
C2855 C2856 1.400 . S
C2855 C2860 1.490 . S
C2856 H2846 0.930 . S
C2856 C2855 1.400 . S
C2856 C2859 1.386 . S
H2857 C2873 0.930 . S
H2858 C2874 0.931 . S
C2859 H2847 0.929 . S
C2859 C2853 1.390 . S
C2859 C2856 1.386 . S
C2860 C2855 1.490 . S
C2860 C2862 1.395 . S
C2860 C2863 1.403 . S
H2861 C2867 0.930 . S
C2862 H2848 0.930 . S
C2862 C2860 1.395 . S
C2862 C2865 1.403 . S
C2863 C2860 1.403 . S
C2863 C2864 1.524 . S
C2863 C2867 1.400 . S
C2864 H2849 0.960 . S
C2864 H2850 0.960 . S
C2864 H2851 0.960 . S
C2864 C2863 1.524 . S
C2865 C2862 1.403 . S
C2865 C2866 1.392 . S
C2865 C2869 1.495 . S
C2866 C2865 1.392 . S
C2866 C2867 1.385 . S
C2866 C2868 1.478 . S
C2867 H2861 0.930 . S
C2867 C2863 1.400 . S
C2867 C2866 1.385 . S
C2868 C2866 1.478 . S
C2868 C2870 1.381 . S
C2868 C2874 1.383 . S
C2869 C2865 1.495 . S
C2869 H2875 0.959 . S
C2869 H2876 0.961 . S
C2869 H2877 0.960 . S
C2870 C2868 1.381 . S
C2870 C2871 1.394 . S
C2870 H2878 0.930 . S
C2871 C2870 1.394 . S
C2871 C2872 1.383 . S
C2871 H2879 0.929 . S
C2872 C2871 1.383 . S
C2872 C2873 1.377 . S
C2873 H2857 0.930 . S
C2873 C2872 1.377 . S
C2873 C2874 1.379 . S
C2874 H2858 0.931 . S
C2874 C2868 1.383 . S
C2874 C2873 1.379 . S
H2875 C2869 0.959 . S
H2876 C2869 0.961 . S
H2877 C2869 0.960 . S
H2878 C2870 0.930 . S
H2879 C2871 0.929 . S
H2880 C2888 0.929 . S
H2881 C2890 0.930 . S
H2882 C2892 0.930 . S
H2883 C2895 0.929 . S
H2884 C2898 0.930 . S
H2885 C2900 0.960 . S
H2886 C2900 0.960 . S
H2887 C2900 0.960 . S
C2888 H2880 0.929 . S
C2888 C2889 1.377 . S
C2888 C2890 1.384 . S
C2889 C2888 1.377 . S
C2889 C2895 1.390 . S
C2890 H2881 0.930 . S
C2890 C2888 1.384 . S
C2890 C2891 1.372 . S
C2891 C2890 1.372 . S
C2891 C2892 1.400 . S
C2891 C2896 1.490 . S
C2892 H2882 0.930 . S
C2892 C2891 1.400 . S
C2892 C2895 1.386 . S
H2893 C2909 0.930 . S
H2894 C2910 0.931 . S
C2895 H2883 0.929 . S
C2895 C2889 1.390 . S
C2895 C2892 1.386 . S
C2896 C2891 1.490 . S
C2896 C2898 1.395 . S
C2896 C2899 1.403 . S
H2897 C2903 0.930 . S
C2898 H2884 0.930 . S
C2898 C2896 1.395 . S
C2898 C2901 1.403 . S
C2899 C2896 1.403 . S
C2899 C2900 1.524 . S
C2899 C2903 1.400 . S
C2900 H2885 0.960 . S
C2900 H2886 0.960 . S
C2900 H2887 0.960 . S
C2900 C2899 1.524 . S
C2901 C2898 1.403 . S
C2901 C2902 1.392 . S
C2901 C2905 1.495 . S
C2902 C2901 1.392 . S
C2902 C2903 1.385 . S
C2902 C2904 1.478 . S
C2903 H2897 0.930 . S
C2903 C2899 1.400 . S
C2903 C2902 1.385 . S
C2904 C2902 1.478 . S
C2904 C2906 1.381 . S
C2904 C2910 1.383 . S
C2905 C2901 1.495 . S
C2905 H2911 0.959 . S
C2905 H2912 0.961 . S
C2905 H2913 0.960 . S
C2906 C2904 1.381 . S
C2906 C2907 1.394 . S
C2906 H2914 0.930 . S
C2907 C2906 1.394 . S
C2907 C2908 1.383 . S
C2907 H2915 0.929 . S
C2908 C2907 1.383 . S
C2908 C2909 1.377 . S
C2909 H2893 0.930 . S
C2909 C2908 1.377 . S
C2909 C2910 1.379 . S
C2910 H2894 0.931 . S
C2910 C2904 1.383 . S
C2910 C2909 1.379 . S
H2911 C2905 0.959 . S
H2912 C2905 0.961 . S
H2913 C2905 0.960 . S
H2914 C2906 0.930 . S
H2915 C2907 0.929 . S
H2916 C2924 0.929 . S
H2917 C2926 0.930 . S
H2918 C2928 0.930 . S
H2919 C2931 0.929 . S
H2920 C2934 0.930 . S
H2921 C2936 0.960 . S
H2922 C2936 0.960 . S
H2923 C2936 0.960 . S
C2924 H2916 0.929 . S
C2924 C2925 1.377 . S
C2924 C2926 1.384 . S
C2925 C2924 1.377 . S
C2925 C2931 1.390 . S
C2926 H2917 0.930 . S
C2926 C2924 1.384 . S
C2926 C2927 1.372 . S
C2927 C2926 1.372 . S
C2927 C2928 1.400 . S
C2927 C2932 1.490 . S
C2928 H2918 0.930 . S
C2928 C2927 1.400 . S
C2928 C2931 1.386 . S
H2929 C2945 0.930 . S
H2930 C2946 0.931 . S
C2931 H2919 0.929 . S
C2931 C2925 1.390 . S
C2931 C2928 1.386 . S
C2932 C2927 1.490 . S
C2932 C2934 1.395 . S
C2932 C2935 1.403 . S
H2933 C2939 0.930 . S
C2934 H2920 0.930 . S
C2934 C2932 1.395 . S
C2934 C2937 1.403 . S
C2935 C2932 1.403 . S
C2935 C2936 1.524 . S
C2935 C2939 1.400 . S
C2936 H2921 0.960 . S
C2936 H2922 0.960 . S
C2936 H2923 0.960 . S
C2936 C2935 1.524 . S
C2937 C2934 1.403 . S
C2937 C2938 1.392 . S
C2937 C2941 1.495 . S
C2938 C2937 1.392 . S
C2938 C2939 1.385 . S
C2938 C2940 1.478 . S
C2939 H2933 0.930 . S
C2939 C2935 1.400 . S
C2939 C2938 1.385 . S
C2940 C2938 1.478 . S
C2940 C2942 1.381 . S
C2940 C2946 1.383 . S
C2941 C2937 1.495 . S
C2941 H2947 0.959 . S
C2941 H2948 0.961 . S
C2941 H2949 0.960 . S
C2942 C2940 1.381 . S
C2942 C2943 1.394 . S
C2942 H2950 0.930 . S
C2943 C2942 1.394 . S
C2943 C2944 1.383 . S
C2943 H2951 0.929 . S
C2944 C2943 1.383 . S
C2944 C2945 1.377 . S
C2945 H2929 0.930 . S
C2945 C2944 1.377 . S
C2945 C2946 1.379 . S
C2946 H2930 0.931 . S
C2946 C2940 1.383 . S
C2946 C2945 1.379 . S
H2947 C2941 0.959 . S
H2948 C2941 0.961 . S
H2949 C2941 0.960 . S
H2950 C2942 0.930 . S
H2951 C2943 0.929 . S
C801 N113 1.371 . S
C820 C8 1.395 . S
C837 N14 1.363 . S
C856 C41 1.392 . S
C873 N47 1.364 . S
C892 C74 1.376 . S
C909 C107 1.391 . S
C928 N80 1.349 . S
C945 N179 1.371 . S
C964 C140 1.391 . S
C981 N212 1.371 . S
C1000 C173 1.376 . S
C1017 C206 1.388 . S
C1036 N245 1.352 . S
C1053 N146 1.372 . S
C1072 C239 1.377 . S
C1089 C272 1.390 . S
C1108 N608 1.367 . S
C1125 C305 1.387 . S
C1144 N641 1.385 . S
C1161 N674 1.365 . S
C1180 C338 1.378 . S
C1197 N575 1.366 . S
C1216 C371 1.393 . S
C1233 N740 1.364 . S
C1252 C404 1.376 . S
C1269 C437 1.391 . S
C1288 N542 1.349 . S
C1305 C470 1.389 . S
C1324 N773 1.379 . S
C1341 N707 1.365 . S
C1360 C503 1.386 . S
C1377 N311 1.369 . S
C1396 C536 1.385 . S
C1413 C569 1.390 . S
C1432 N509 1.377 . S
C1449 N410 1.369 . S
C1468 C602 1.378 . S
C1485 N443 1.365 . S
C1504 C635 1.384 . S
C1521 N476 1.363 . S
C1540 C668 1.393 . S
C1557 N377 1.371 . S
C1576 C701 1.395 . S
C1593 N278 1.363 . S
C1612 C734 1.391 . S
C1629 N344 1.372 . S
C1648 C767 1.377 . S
C1665 C215 1.718 . S
C1684 C17 1.710 . S
C1701 C50 1.718 . S
C1720 C248 1.721 . S
C1737 C149 1.717 . S
C1756 C83 1.710 . S
C1773 C182 1.718 . S
C1792 C116 1.707 . S
C1809 C347 1.719 . S
C1828 C281 1.721 . S
C1845 C314 1.719 . S
C1864 C380 1.707 . S
C1881 C413 1.719 . S
C1900 C479 1.722 . S
C1917 C512 1.718 . S
C1936 C446 1.707 . S
C1953 C545 1.717 . S
C1972 C578 1.710 . S
C1989 C611 1.717 . S
C2008 C776 1.710 . S
C2025 C644 1.717 . S
C2044 C710 1.708 . S
C2061 C743 1.718 . S
C2080 C677 1.721 . S
C2097 C28 1.091 . S
C2116 N269 1.094 . S
C2133 C61 1.095 . S
C2152 N302 1.076 . S
C2169 N335 1.092 . S
C2188 C94 1.107 . S
C2205 N368 1.096 . S
C2224 C127 1.112 . S
C2241 C160 1.092 . S
C2260 N401 1.112 . S
C2277 N434 1.093 . S
C2296 C193 1.086 . S
C2313 C226 1.098 . S
C2332 N467 1.085 . S
C2349 N500 1.095 . S
C2368 C259 1.075 . S
C2385 C292 1.098 . S
C2404 N533 1.090 . S
C2421 N764 1.097 . S
C2440 C325 1.072 . S
C2457 C358 1.097 . S
C2476 N698 1.093 . S
C2493 C391 1.098 . S
C2512 N731 1.101 . S
C2529 N566 1.097 . S
C2548 C424 1.074 . S
C2565 C457 1.098 . S
C2584 N599 1.084 . S
C2601 C490 1.096 . S
C2620 N632 1.101 . S
C2637 C523 1.098 . S
C2656 N665 1.085 . S
C2673 C556 1.093 . S
C2692 N5 1.110 . S
C2709 C589 1.093 . S
C2728 N137 1.084 . S
C2745 C622 1.096 . S
C2764 N170 1.110 . S
C2781 N203 1.097 . S
C2800 C655 1.103 . S
C2817 C688 1.092 . S
C2836 N236 1.080 . S
C2853 N71 1.095 . S
C2872 C721 1.111 . S
C2889 N104 1.097 . S
C2908 C754 1.110 . S
C2925 C787 1.098 . S
C2944 N38 1.100 . S
