# Generated by pormake.
# Topology cdt, (3)-cn, num edge types: 1
# Building blocks:
#     Node 0, Type 0, BuildingBlock: WUSLED_clean_sbu_0, # of connection points: 3
#     Node 1, Type 0, BuildingBlock: WUSLED_clean_sbu_0, # of connection points: 3
#     Node 2, Type 0, BuildingBlock: WUSLED_clean_sbu_0, # of connection points: 3
#     Node 3, Type 0, BuildingBlock: WUSLED_clean_sbu_0, # of connection points: 3
#     Node 4, Type 0, BuildingBlock: WUSLED_clean_sbu_0, # of connection points: 3
#     Node 5, Type 0, BuildingBlock: WUSLED_clean_sbu_0, # of connection points: 3
#     Node 6, Type 0, BuildingBlock: WUSLED_clean_sbu_0, # of connection points: 3
#     Node 7, Type 0, BuildingBlock: WUSLED_clean_sbu_0, # of connection points: 3
#     Edge 8, Type (0, 0), BuildingBlock: FUNLAD_clean_linker_0, # of connection points: 2
#     Edge 9, Type (0, 0), BuildingBlock: FUNLAD_clean_linker_0, # of connection points: 2
#     Edge 10, Type (0, 0), BuildingBlock: FUNLAD_clean_linker_0, # of connection points: 2
#     Edge 11, Type (0, 0), BuildingBlock: FUNLAD_clean_linker_0, # of connection points: 2
#     Edge 12, Type (0, 0), BuildingBlock: FUNLAD_clean_linker_0, # of connection points: 2
#     Edge 13, Type (0, 0), BuildingBlock: FUNLAD_clean_linker_0, # of connection points: 2
#     Edge 14, Type (0, 0), BuildingBlock: FUNLAD_clean_linker_0, # of connection points: 2
#     Edge 15, Type (0, 0), BuildingBlock: FUNLAD_clean_linker_0, # of connection points: 2
#     Edge 16, Type (0, 0), BuildingBlock: FUNLAD_clean_linker_0, # of connection points: 2
#     Edge 17, Type (0, 0), BuildingBlock: FUNLAD_clean_linker_0, # of connection points: 2
#     Edge 18, Type (0, 0), BuildingBlock: FUNLAD_clean_linker_0, # of connection points: 2
#     Edge 19, Type (0, 0), BuildingBlock: FUNLAD_clean_linker_0, # of connection points: 2
# Relax obj value: 0.076
# Max RMSD: 0.067
# Mean RMSD: 0.067
data_MOF--net-cdt--node1-WUSLED_clean_sbu_0--edge1-FUNLAD_clean_linker_0
_symmetry_space_group_name_H-M    P1
_symmetry_Int_Tables_number       1
_symmetry_cell_setting            triclinic
loop_
_symmetry_equiv_pos_as_xyz
'x, y, z'
_cell_length_a     50.032064
_cell_length_b     33.826696
_cell_length_c     79.605749
_cell_angle_alpha  90.058598
_cell_angle_beta   90.283412
_cell_angle_gamma 90.364396
loop_
_atom_site_label
_atom_site_type_symbol
_atom_site_fract_x
_atom_site_fract_y
_atom_site_fract_z
_atom_type_partial_charge
C0 C 0.4098 0.19436 0.09348 0.0
C1 C 0.40204 0.17209 0.10751 0.0
C2 C 0.36677 0.14049 0.09102 0.0
C3 C 0.38069 0.1454 0.10629 0.0
C4 C 0.37502 0.16237 0.07692 0.0
C5 C 0.39635 0.18917 0.07817 0.0
U6 U 0.46256 0.24633 0.11977 0.0
O7 O 0.50261 0.26873 0.11334 0.0
O8 O 0.47192 0.30959 0.12233 0.0
C9 C 0.49581 0.30578 0.11576 0.0
C10 C 0.4311 0.22417 0.095 0.0
C11 C 0.50153 0.33269 0.10179 0.0
C12 C 0.49251 0.35552 0.07343 0.0
C13 C 0.48769 0.3289 0.0865 0.0
C14 C 0.52524 0.38974 0.09078 0.0
C15 C 0.51124 0.3864 0.07545 0.0
C16 C 0.5204 0.36308 0.10384 0.0
C17 C 0.47198 0.2153 0.16536 0.0
C18 C 0.49676 0.25566 0.18539 0.0
C19 C 0.47774 0.19289 0.19407 0.0
C20 C 0.46782 0.18681 0.17783 0.0
C21 C 0.49191 0.22772 0.19811 0.0
C22 C 0.48691 0.24946 0.16912 0.0
C23 C 0.45938 0.21015 0.14882 0.0
O24 O 0.42561 0.25366 0.10514 0.0
O25 O 0.45536 0.21025 0.09713 0.0
O26 O 0.47522 0.1984 0.1367 0.0
O27 O 0.44334 0.23888 0.14428 0.0
H28 H 0.41228 0.17576 0.11944 0.0
H29 H 0.37507 0.12861 0.11732 0.0
H30 H 0.36454 0.15956 0.06503 0.0
H31 H 0.40205 0.2063 0.06725 0.0
H32 H 0.48116 0.35241 0.06188 0.0
H33 H 0.47294 0.30563 0.08477 0.0
H34 H 0.54003 0.41286 0.09265 0.0
H35 H 0.53125 0.36634 0.11557 0.0
H36 H 0.50784 0.28257 0.18807 0.0
H37 H 0.47338 0.17104 0.20363 0.0
H38 H 0.45627 0.16033 0.17512 0.0
H39 H 0.49038 0.27171 0.15958 0.0
C40 C 0.12915 0.85692 0.09578 0.0
C41 C 0.13274 0.88162 0.10979 0.0
C42 C 0.17084 0.91333 0.09633 0.0
C43 C 0.15337 0.90963 0.11005 0.0
C44 C 0.16678 0.88897 0.08219 0.0
C45 C 0.14611 0.86094 0.08194 0.0
U46 U 0.0771 0.7984 0.11953 0.0
O47 O 0.03826 0.77338 0.11174 0.0
O48 O 0.07007 0.73432 0.12081 0.0
C49 C 0.04631 0.73676 0.11381 0.0
C50 C 0.10886 0.82544 0.09603 0.0
C51 C 0.04204 0.71036 0.09941 0.0
C52 C 0.05218 0.69066 0.07083 0.0
C53 C 0.05534 0.71709 0.08421 0.0
C54 C 0.02216 0.65078 0.0877 0.0
C55 C 0.03569 0.65702 0.07246 0.0
C56 C 0.02534 0.67725 0.10106 0.0
C57 C 0.06483 0.82288 0.1654 0.0
C58 C 0.0357 0.78162 0.18238 0.0
C59 C 0.06289 0.83263 0.19554 0.0
C60 C 0.07296 0.84334 0.17985 0.0
C61 C 0.0445 0.80116 0.19704 0.0
C62 C 0.04584 0.79236 0.16668 0.0
C63 C 0.07786 0.83145 0.14934 0.0
O64 O 0.1149 0.7953 0.10569 0.0
O65 O 0.08403 0.83722 0.09778 0.0
O66 O 0.06207 0.84327 0.13711 0.0
O67 O 0.09519 0.80474 0.14457 0.0
H68 H 0.11982 0.87877 0.12061 0.0
H69 H 0.1557 0.9283 0.12103 0.0
H70 H 0.18005 0.89077 0.0715 0.0
H71 H 0.14371 0.84185 0.07109 0.0
H72 H 0.06261 0.6966 0.0592 0.0
H73 H 0.06836 0.74258 0.08277 0.0
H74 H 1.0096 0.62493 0.08944 0.0
H75 H 1.01506 0.67155 0.11277 0.0
H76 H 0.02136 0.75757 0.18307 0.0
H77 H 0.07042 0.8479 0.20657 0.0
H78 H 0.08777 0.86678 0.17906 0.0
H79 H 0.03942 0.77618 0.1556 0.0
C80 C 0.40783 0.34866 0.45162 0.0
C81 C 0.39932 0.36979 0.43744 0.0
C82 C 0.36546 0.4028 0.45414 0.0
C83 C 0.37829 0.3966 0.43868 0.0
C84 C 0.37444 0.38204 0.46838 0.0
C85 C 0.39544 0.35511 0.46711 0.0
U86 U 0.46012 0.2969 0.42552 0.0
O87 O 0.50012 0.27493 0.43211 0.0
O88 O 0.4692 0.23371 0.42305 0.0
C89 C 0.49319 0.23781 0.42964 0.0
C90 C 0.42892 0.31893 0.45016 0.0
C91 C 0.49912 0.21085 0.44357 0.0
C92 C 0.49012 0.18678 0.47172 0.0
C93 C 0.48497 0.2134 0.45869 0.0
C94 C 0.5238 0.15509 0.45465 0.0
C95 C 0.50951 0.15716 0.46981 0.0
C96 C 0.51862 0.18173 0.44164 0.0
C97 C 0.4697 0.32783 0.37999 0.0
C98 C 0.49462 0.28773 0.36027 0.0
C99 C 0.4759 0.35024 0.35134 0.0
C100 C 0.46577 0.35623 0.36746 0.0
C101 C 0.49005 0.3156 0.34748 0.0
C102 C 0.48457 0.29384 0.37642 0.0
C103 C 0.45705 0.33297 0.39643 0.0
O104 O 0.42319 0.2894 0.44 0.0
O105 O 0.45325 0.33298 0.44812 0.0
O106 O 0.47292 0.34494 0.40865 0.0
O107 O 0.44089 0.3041 0.40089 0.0
H108 H 0.40876 0.36519 0.42537 0.0
H109 H 0.37208 0.41252 0.42754 0.0
H110 H 0.36481 0.38588 0.48043 0.0
H111 H 0.40174 0.3389 0.47815 0.0
H112 H 0.47855 0.1889 0.48314 0.0
H113 H 0.46974 0.2357 0.46034 0.0
H114 H 0.53911 0.133 0.45287 0.0
H115 H 0.52974 0.17946 0.43004 0.0
H116 H 0.50568 0.26097 0.35773 0.0
H117 H 0.47175 0.37203 0.34173 0.0
H118 H 0.45428 0.38258 0.37003 0.0
H119 H 0.48787 0.27167 0.38601 0.0
C120 C 0.13181 0.68944 0.44917 0.0
C121 C 0.13366 0.66241 0.43587 0.0
C122 C 0.1724 0.63205 0.44909 0.0
C123 C 0.15374 0.63392 0.43584 0.0
C124 C 0.17004 0.65868 0.4626 0.0
C125 C 0.14992 0.68722 0.46261 0.0
U126 U 0.08001 0.74574 0.42457 0.0
O127 O 0.04207 0.77325 0.4318 0.0
O128 O 0.07445 0.80975 0.42141 0.0
C129 C 0.05085 0.80918 0.42857 0.0
C130 C 0.11228 0.7216 0.44843 0.0
C131 C 0.04727 0.8384 0.44201 0.0
C132 C 0.05178 0.8585 0.47119 0.0
C133 C 0.05473 0.82994 0.45863 0.0
C134 C 0.03414 0.9043 0.45058 0.0
C135 C 0.04156 0.89606 0.46727 0.0
C136 C 0.03694 0.87565 0.43807 0.0
C137 C 0.06508 0.7128 0.37971 0.0
C138 C 0.04453 0.75568 0.35896 0.0
C139 C 0.0534 0.68717 0.35215 0.0
C140 C 0.06382 0.68137 0.36827 0.0
C141 C 0.04421 0.72465 0.34716 0.0
C142 C 0.05482 0.74977 0.37511 0.0
C143 C 0.07856 0.70731 0.39595 0.0
O144 O 0.11849 0.74994 0.43786 0.0
O145 O 0.08707 0.71053 0.4474 0.0
O146 O 0.06304 0.69834 0.40867 0.0
O147 O 0.09673 0.73421 0.39964 0.0
H148 H 0.11987 0.66386 0.42535 0.0
H149 H 0.15476 0.6135 0.42538 0.0
H150 H 0.18425 0.6583 0.4729 0.0
H151 H 0.14887 0.70812 0.4729 0.0
H152 H 0.05795 0.85147 0.48389 0.0
H153 H 0.06301 0.8014 0.46186 0.0
H154 H 0.02596 0.9328 0.44722 0.0
H155 H 0.03116 0.88265 0.42528 0.0
H156 H 0.03789 0.785 0.35552 0.0
H157 H 0.05302 0.66248 0.34348 0.0
H158 H 0.07151 0.65258 0.37167 0.0
H159 H 0.05558 0.77437 0.38384 0.0
C160 C 0.63254 0.84675 0.94827 0.0
C161 C 0.63615 0.87302 0.93484 0.0
C162 C 0.6737 0.90395 0.94944 0.0
C163 C 0.65652 0.90142 0.93543 0.0
C164 C 0.66981 0.87772 0.96294 0.0
C165 C 0.64936 0.84933 0.96234 0.0
U166 U 0.58 0.79211 0.92303 0.0
O167 O 0.57182 0.72848 0.92053 0.0
O168 O 0.54066 0.76794 0.92999 0.0
C169 C 0.54809 0.73123 0.92741 0.0
C170 C 0.61207 0.81558 0.94726 0.0
C171 C 0.5433 0.70396 0.94141 0.0
C172 C 0.55353 0.68121 0.96961 0.0
C173 C 0.55761 0.70801 0.95651 0.0
C174 C 0.52064 0.64625 0.95266 0.0
C175 C 0.53509 0.64989 0.96781 0.0
C176 C 0.52474 0.67309 0.93957 0.0
C177 C 0.56825 0.8237 0.87766 0.0
C178 C 0.53722 0.78861 0.85934 0.0
C179 C 0.56673 0.8388 0.84791 0.0
C180 C 0.57734 0.84564 0.86392 0.0
C181 C 0.5468 0.80981 0.84537 0.0
C182 C 0.54792 0.79544 0.87536 0.0
C183 C 0.58136 0.82885 0.89404 0.0
O184 O 0.58733 0.82801 0.94568 0.0
O185 O 0.6178 0.78651 0.93696 0.0
O186 O 0.59798 0.80054 0.89817 0.0
O187 O 0.56583 0.83973 0.90647 0.0
H188 H 0.62344 0.87114 0.9238 0.0
H189 H 0.65921 0.92075 0.92473 0.0
H190 H 0.68252 0.87918 0.97397 0.0
H191 H 0.64686 0.82916 0.97279 0.0
H192 H 0.5652 0.68457 0.98102 0.0
H193 H 0.57212 0.73167 0.95808 0.0
H194 H 0.50605 0.62279 0.95096 0.0
H195 H 0.51352 0.66964 0.92798 0.0
H196 H 0.5217 0.76639 0.85786 0.0
H197 H 0.57492 0.85521 0.83743 0.0
H198 H 0.59317 0.86737 0.86548 0.0
H199 H 0.54073 0.77817 0.88589 0.0
C200 C 0.91047 0.18835 0.94918 0.0
C201 C 0.90552 0.16234 0.93578 0.0
C202 C 0.8705 0.12968 0.95187 0.0
C203 C 0.88571 0.13323 0.93711 0.0
C204 C 0.87593 0.15545 0.96537 0.0
C205 C 0.89575 0.1846 0.96401 0.0
U206 U 0.96042 0.24476 0.9227 0.0
O207 O 0.96621 0.30874 0.91951 0.0
O208 O 0.99903 0.27243 0.92921 0.0
C209 C 0.99018 0.30832 0.92633 0.0
C210 C 0.93004 0.22054 0.94745 0.0
C211 C 0.99416 0.3367 0.94007 0.0
C212 C 0.98422 0.35917 0.96831 0.0
C213 C 0.9813 0.33116 0.95551 0.0
C214 C 1.01309 0.39835 0.95039 0.0
C215 C 1.00002 0.39324 0.96586 0.0
C216 C 1.01015 0.37029 0.9376 0.0
C217 C 0.97207 0.21252 0.87757 0.0
C218 C 1.00216 0.24899 0.85933 0.0
C219 C 0.97298 0.1983 0.84772 0.0
C220 C 0.96289 0.19071 0.86374 0.0
C221 C 0.99248 0.2279 0.84528 0.0
C222 C 0.99197 0.24142 0.87535 0.0
C223 C 0.9595 0.20665 0.89399 0.0
O224 O 0.95503 0.20952 0.94568 0.0
O225 O 0.92299 0.24846 0.93689 0.0
O226 O 0.94191 0.23365 0.89806 0.0
O227 O 0.97572 0.19748 0.90642 0.0
H228 H 0.91674 0.16492 0.92422 0.0
H229 H 0.88228 0.11352 0.92658 0.0
H230 H 0.86439 0.15379 0.97683 0.0
H231 H 0.89926 0.20463 0.97443 0.0
H232 H 0.97419 0.35408 0.98014 0.0
H233 H 0.96885 0.30532 0.95759 0.0
H234 H 0.02513 0.42446 0.94803 0.0
H235 H 1.02007 0.37506 0.9257 0.0
H236 H 1.01736 0.27165 0.85793 0.0
H237 H 0.96475 0.18195 0.83718 0.0
H238 H 0.94738 0.16851 0.86524 0.0
H239 H 0.99921 0.25863 0.88594 0.0
C240 C 0.63542 0.69389 0.59405 0.0
C241 C 0.63891 0.66732 0.60737 0.0
C242 C 0.67527 0.63551 0.59242 0.0
C243 C 0.65864 0.63836 0.60657 0.0
C244 C 0.6715 0.66207 0.57903 0.0
C245 C 0.65171 0.69105 0.57985 0.0
U246 U 0.58416 0.7479 0.61974 0.0
O247 O 0.57703 0.81148 0.62302 0.0
O248 O 0.54512 0.77314 0.61308 0.0
C249 C 0.55314 0.80954 0.61611 0.0
C250 C 0.61559 0.72552 0.5953 0.0
C251 C 0.54846 0.83777 0.60244 0.0
C252 C 0.5586 0.86246 0.57456 0.0
C253 C 0.56294 0.83519 0.58745 0.0
C254 C 0.52519 0.89503 0.59153 0.0
C255 C 0.5397 0.89277 0.57646 0.0
C256 C 0.52956 0.86773 0.60441 0.0
C257 C 0.57246 0.71162 0.6647 0.0
C258 C 0.55497 0.75099 0.68765 0.0
C259 C 0.56037 0.6803 0.69101 0.0
C260 C 0.56989 0.67762 0.67459 0.0
C261 C 0.5534 0.71715 0.69789 0.0
C262 C 0.56437 0.74823 0.67117 0.0
C263 C 0.58507 0.7086 0.64812 0.0
O264 O 0.59062 0.71361 0.59662 0.0
O265 O 0.62193 0.75376 0.60597 0.0
O266 O 0.60218 0.73693 0.64445 0.0
O267 O 0.56917 0.69914 0.63554 0.0
H268 H 0.62661 0.66937 0.61851 0.0
H269 H 0.66126 0.61881 0.61721 0.0
H270 H 0.6838 0.6604 0.56789 0.0
H271 H 0.64928 0.71144 0.56947 0.0
H272 H 0.57033 0.86017 0.5632 0.0
H273 H 0.57769 0.81221 0.58577 0.0
H274 H 0.51025 0.91766 0.59331 0.0
H275 H 0.51817 0.87001 0.61591 0.0
H276 H 0.55 0.77987 0.69256 0.0
H277 H 0.55892 0.65356 0.69843 0.0
H278 H 0.57587 0.64908 0.66974 0.0
H279 H 0.56609 0.77483 0.66367 0.0
C280 C 0.90699 0.3464 0.59266 0.0
C281 C 0.90284 0.37343 0.60575 0.0
C282 C 0.86754 0.40508 0.58957 0.0
C283 C 0.8833 0.40254 0.60421 0.0
C284 C 0.87216 0.3783 0.57636 0.0
C285 C 0.89171 0.34913 0.57793 0.0
U286 U 0.95683 0.29266 0.61991 0.0
O287 O 0.96255 0.22922 0.62435 0.0
O288 O 0.99535 0.26489 0.61399 0.0
C289 C 0.98647 0.22925 0.61758 0.0
C290 C 0.92631 0.3143 0.59472 0.0
C291 C 0.99062 0.19927 0.60452 0.0
C292 C 0.97609 0.16558 0.57909 0.0
C293 C 0.9723 0.19484 0.59124 0.0
C294 C 1.01685 0.14547 0.59317 0.0
C295 C 0.99837 0.14049 0.57995 0.0
C296 C 1.01295 0.17459 0.60538 0.0
C297 C 0.96845 0.33109 0.66454 0.0
C298 C 0.98587 0.29154 0.68752 0.0
C299 C 0.97926 0.36191 0.69127 0.0
C300 C 0.97018 0.36483 0.67469 0.0
C301 C 0.9866 0.32506 0.69801 0.0
C302 C 0.97692 0.29456 0.6709 0.0
C303 C 0.95624 0.33409 0.64777 0.0
O304 O 0.95142 0.32548 0.59628 0.0
O305 O 0.91927 0.28718 0.60567 0.0
O306 O 0.93848 0.30654 0.64415 0.0
O307 O 0.97265 0.34177 0.63533 0.0
H308 H 0.91449 0.37167 0.61723 0.0
H309 H 0.88052 0.42304 0.61451 0.0
H310 H 0.86018 0.37922 0.565 0.0
H311 H 0.8946 0.32831 0.56776 0.0
H312 H 0.9617 0.16279 0.56893 0.0
H313 H 0.95503 0.21389 0.59032 0.0
H314 H 0.03407 0.12637 0.59425 0.0
H315 H 0.02728 0.17767 0.61556 0.0
H316 H 0.99113 0.26267 0.69232 0.0
H317 H 0.98006 0.38842 0.69889 0.0
H318 H 0.96388 0.3933 0.66993 0.0
H319 H 0.9758 0.26817 0.66319 0.0
C320 C 0.32434 0.11257 0.10291 0.0
C321 C 0.34333 0.11341 0.08996 0.0
C322 C 0.30212 0.08745 0.10192 0.0
C323 C 0.29849 0.06222 0.088 0.0
C324 C 0.3173 0.06348 0.07497 0.0
C325 C 0.3395 0.08871 0.07594 0.0
C326 C 0.27506 0.03511 0.08642 0.0
C327 C 0.261 0.02184 0.0997 0.0
C328 C 0.23783 0.99424 0.0983 0.0
C329 C 0.2305 0.97212 0.11248 0.0
C330 C 0.20878 0.94602 0.11184 0.0
C331 C 0.19369 0.9416 0.09701 0.0
H332 H 0.22688 1.00769 0.07245 0.0
C333 C 0.20077 0.96409 0.08285 0.0
C334 C 0.22252 0.99025 0.08349 0.0
H335 H 0.18924 0.96191 0.07133 0.0
H336 H 0.32637 0.13194 0.11368 0.0
H337 H 0.28764 0.08862 0.11195 0.0
H338 H 0.31493 0.04463 0.06404 0.0
H339 H 0.35384 0.08853 0.06579 0.0
H340 H 0.27021 0.02431 0.07392 0.0
H341 H 0.26744 0.02979 0.1123 0.0
H342 H 0.24179 0.97473 0.12408 0.0
H343 H 0.20408 0.92882 0.12292 0.0
C344 C 0.32253 0.43007 0.44278 0.0
C345 C 0.34243 0.43016 0.4553 0.0
C346 C 0.30072 0.45552 0.44384 0.0
C347 C 0.29844 0.48205 0.4574 0.0
C348 C 0.31815 0.48171 0.47002 0.0
C349 C 0.33994 0.45614 0.46898 0.0
C350 C 0.27554 0.50967 0.45904 0.0
C351 C 0.26062 0.52176 0.44588 0.0
C352 C 0.238 0.54992 0.44728 0.0
C353 C 0.22967 0.57009 0.43279 0.0
C354 C 0.20841 0.59659 0.43339 0.0
C355 C 0.19478 0.60339 0.4485 0.0
H356 H 0.22929 0.54046 0.47374 0.0
C357 C 0.20288 0.58291 0.463 0.0
C358 C 0.22417 0.55632 0.4624 0.0
H359 H 0.19248 0.58697 0.47477 0.0
H360 H 0.32354 0.40974 0.43228 0.0
H361 H 0.28552 0.45362 0.43416 0.0
H362 H 0.31684 0.50157 0.48067 0.0
H363 H 0.355 0.45705 0.4788 0.0
H364 H 0.27185 0.52184 0.47143 0.0
H365 H 0.26591 0.51233 0.4333 0.0
H366 H 0.23981 0.56563 0.42095 0.0
H367 H 0.20292 0.61223 0.42203 0.0
C368 C 0.83129 0.09357 0.93925 0.0
C369 C 0.84854 0.10001 0.95298 0.0
C370 C 0.81029 0.06629 0.94033 0.0
C371 C 0.80593 0.04497 0.95526 0.0
C372 C 0.82348 0.05087 0.96886 0.0
C373 C 0.84446 0.07824 0.96779 0.0
C374 C 0.78385 1.0156 0.95689 0.0
C375 C 0.76107 1.01739 0.94781 0.0
C376 C 0.73887 0.98809 0.94912 0.0
C377 C 0.71338 0.99881 0.94333 0.0
C378 C 0.69216 0.97179 0.94368 0.0
C379 C 0.69598 0.93322 0.94974 0.0
H380 H 0.76218 0.9395 0.95932 0.0
C381 C 0.72146 0.92245 0.9556 0.0
C382 C 0.74271 0.94948 0.95524 0.0
H383 H 0.7252 0.89272 0.96003 0.0
H384 H 0.83379 0.10999 0.92768 0.0
H385 H 0.7978 0.06173 0.92936 0.0
H386 H 0.82082 0.03447 0.98043 0.0
H387 H 0.85764 0.08207 0.97851 0.0
H388 H 0.78608 0.99299 0.96645 0.0
H389 H 0.75792 0.04224 0.93942 0.0
H390 H 0.70984 0.02824 0.93847 0.0
H391 H 0.67272 0.98115 0.93922 0.0
C392 C 0.72234 0.61546 0.58579 0.0
C393 C 0.69685 0.60552 0.59189 0.0
C394 C 0.74298 0.58777 0.58599 0.0
C395 C 0.7385 0.54933 0.5922 0.0
C396 C 0.71298 0.53942 0.5982 0.0
C397 C 0.69237 0.56709 0.598 0.0
C398 C 0.7601 0.51944 0.59345 0.0
C399 C 0.78256 0.52035 0.58416 0.0
C400 C 0.80413 0.49052 0.58584 0.0
C401 C 0.82099 0.48348 0.57212 0.0
C402 C 0.84156 0.45577 0.57328 0.0
C403 C 0.8459 0.43484 0.58829 0.0
H404 H 0.79675 0.47538 0.61197 0.0
C405 C 0.82929 0.44236 0.6021 0.0
C406 C 0.80871 0.46994 0.60093 0.0
H407 H 0.83201 0.4266 0.61382 0.0
H408 H 0.7266 0.64505 0.58131 0.0
H409 H 0.76252 0.5971 0.58174 0.0
H410 H 0.70896 0.51014 0.60312 0.0
H411 H 0.6729 0.55833 0.60263 0.0
H412 H 0.75676 0.49492 0.60199 0.0
H413 H 0.78489 0.54259 0.57445 0.0
H414 H 0.81815 0.49927 0.56042 0.0
H415 H 0.85425 0.45108 0.56249 0.0
C416 C 0.5186 0.4559 0.06532 0.0
C417 C 0.51578 0.41539 0.06173 0.0
C418 C 0.52234 0.4833 0.0524 0.0
C419 C 0.52316 0.47079 0.03553 0.0
C420 C 0.52086 0.43023 0.032 0.0
C421 C 0.51708 0.40285 0.04491 0.0
C422 C 0.52702 0.49879 1.02134 0.0
C423 C 0.52088 0.53752 0.02211 0.0
C424 C 0.52458 0.56547 1.00788 0.0
C425 C 0.52675 0.60606 1.01137 0.0
C426 C 0.53015 0.63344 0.99841 0.0
C427 C 0.53119 0.62086 0.9816 0.0
H428 H 0.52277 0.52211 0.98766 0.0
C429 C 0.52858 0.5803 0.97805 0.0
C430 C 0.52523 0.5529 0.99101 0.0
H431 H 0.52941 0.56961 0.96524 0.0
H432 H 0.5176 0.46656 0.07814 0.0
H433 H 0.52489 0.51406 0.05579 0.0
H434 H 0.52175 0.41968 1.01916 0.0
H435 H 0.51542 0.37179 0.04174 0.0
H436 H 0.53485 0.48653 1.00978 0.0
H437 H 0.51306 0.54978 0.03367 0.0
H438 H 0.52599 0.61666 0.02421 0.0
H439 H 0.53166 0.66454 1.00156 0.0
C440 C 0.02717 0.44208 0.98268 0.0
C441 C 1.00247 0.42365 0.97928 0.0
C442 C 0.0294 0.47097 0.99519 0.0
C443 C 1.00685 0.48229 1.00452 0.0
C444 C 0.98229 0.46344 1.00127 0.0
C445 C 0.98007 0.43459 0.98876 0.0
C446 C 1.00818 0.51263 1.01805 0.0
C447 C 0.02717 0.54102 1.01895 0.0
C448 C 0.02854 0.57103 0.0326 0.0
C449 C 0.05326 0.58904 0.03624 0.0
C450 C 0.05556 0.61707 0.04908 0.0
C451 C 0.03309 0.62804 0.05849 0.0
H452 H 0.98628 0.57066 0.03899 0.0
C453 C 1.00821 0.61068 0.05461 0.0
C454 C 1.00591 0.58261 0.04179 0.0
H455 H 0.9904 0.61914 0.06138 0.0
H456 H 0.04493 0.43372 0.97584 0.0
H457 H 0.04892 0.48361 0.99767 0.0
H458 H 0.96463 0.47135 1.00832 0.0
H459 H 0.96068 0.42128 0.98636 0.0
H460 H 0.9926 0.51148 0.02747 0.0
H461 H 0.0428 0.54219 1.00957 0.0
H462 H 0.07098 0.58093 0.0293 0.0
H463 H 0.07507 0.62959 0.05183 0.0
C464 C 0.51841 0.08803 0.47977 0.0
C465 C 0.51452 0.12821 0.48349 0.0
C466 C 0.52276 0.06066 0.49262 0.0
C467 C 0.52313 0.07285 0.50955 0.0
C468 C 0.51969 0.1131 0.51321 0.0
C469 C 0.51531 0.14046 0.50036 0.0
C470 C 0.52771 0.04487 0.52367 0.0
C471 C 0.52271 1.0057 0.52268 0.0
C472 C 0.5272 0.97765 0.53679 0.0
C473 C 0.53027 0.93734 0.5331 0.0
C474 C 0.53437 0.90984 0.54593 0.0
C475 C 0.53525 0.92199 0.56281 0.0
H476 H 0.52464 0.02028 0.55723 0.0
C477 C 0.53181 0.96225 0.56656 0.0
C478 C 0.52775 0.98978 0.55372 0.0
H479 H 0.53248 0.97261 0.57943 0.0
H480 H 0.51782 0.07758 0.46691 0.0
H481 H 0.52617 0.03021 0.48914 0.0
H482 H 0.5202 0.12343 0.5261 0.0
H483 H 0.51282 0.17129 0.50364 0.0
H484 H 0.53513 0.05749 0.53534 0.0
H485 H 0.51525 0.99312 0.51101 0.0
H486 H 0.52963 0.92706 0.5202 0.0
H487 H 0.5365 0.87896 0.54262 0.0
C488 C 0.02745 0.10214 0.56024 0.0
C489 C 1.00214 0.10898 0.56721 0.0
C490 C 0.03097 0.07241 0.54825 0.0
C491 C 1.00919 0.04886 0.54298 0.0
C492 C 0.98402 0.05533 0.55015 0.0
C493 C 0.98046 0.08523 0.56204 0.0
C494 C 1.01213 1.01664 0.53044 0.0
C495 C 0.03085 1.01708 0.51833 0.0
C496 C 0.03328 0.98542 0.50549 0.0
C497 C 0.04426 0.99486 0.4898 0.0
C498 C 0.04685 0.96592 0.47739 0.0
C499 C 0.03886 0.92672 0.4805 0.0
H500 H 1.01773 0.93738 0.5208 0.0
C501 C 0.02834 0.91704 0.49632 0.0
C502 C 0.02556 0.94606 0.5087 0.0
H503 H 0.02199 0.88707 0.49907 0.0
H504 H 0.04453 0.12 0.56396 0.0
H505 H 0.05084 0.06761 0.54339 0.0
H506 H 0.96697 0.03735 0.54645 0.0
H507 H 0.9608 0.08938 0.56737 0.0
H508 H 0.99735 0.99299 0.53064 0.0
H509 H 0.04393 0.04265 0.51709 0.0
H510 H 0.05065 0.02483 0.48708 0.0
H511 H 0.05542 0.97416 0.46542 0.0
C512 C 0.49382 0.27 0.3228 0.0
C513 C 0.49831 0.30748 0.32992 0.0
C514 C 0.49888 0.26322 0.3058 0.0
C515 C 0.50886 0.29377 0.29553 0.0
C516 C 0.51413 0.33088 0.30281 0.0
C517 C 0.50894 0.33769 0.31981 0.0
C518 C 0.5115 0.2894 0.27698 0.0
C519 C 0.5116 0.25429 0.26893 0.0
C520 C 0.50948 0.24988 0.25035 0.0
C521 C 0.51488 0.21285 0.24315 0.0
C522 C 0.51013 0.20596 0.22607 0.0
C523 C 0.49981 0.236 0.21578 0.0
H524 H 0.49458 0.30893 0.24487 0.0
C525 C 0.4952 0.27342 0.22283 0.0
C526 C 0.49983 0.28028 0.2399 0.0
H527 H 0.48679 0.29697 0.2153 0.0
H528 H 0.48518 0.24631 0.33018 0.0
H529 H 0.49372 0.2345 0.30075 0.0
H530 H 0.5217 0.35504 0.29524 0.0
H531 H 0.51284 0.36681 0.32497 0.0
H532 H 0.51285 0.31651 0.26977 0.0
H533 H 0.51271 0.2272 0.27617 0.0
H534 H 0.5222 0.18881 0.25086 0.0
H535 H 0.51411 0.17689 0.22098 0.0
C536 C 0.05122 0.7156 0.31626 0.0
C537 C 0.03633 0.73212 0.32941 0.0
C538 C 0.04553 0.72505 0.29957 0.0
C539 C 0.02466 0.75118 0.29557 0.0
C540 C 1.0095 0.76725 0.30868 0.0
C541 C 1.01516 0.75769 0.32542 0.0
C542 C 1.02003 0.76501 0.27808 0.0
C543 C 0.02726 0.74388 0.26449 0.0
C544 C 0.02759 0.75954 0.24703 0.0
C545 C 0.03109 0.73275 0.23375 0.0
C546 C 0.03536 0.74623 0.2174 0.0
C547 C 0.03632 0.78694 0.21393 0.0
H548 H 0.02528 0.82217 0.25325 0.0
C549 C 0.03164 0.81379 0.22706 0.0
C550 C 0.02741 0.80032 0.24344 0.0
H551 H 0.03197 0.84535 0.22477 0.0
H552 H 0.06808 0.69662 0.31886 0.0
H553 H 0.05839 0.71314 0.28995 0.0
H554 H 0.99347 0.7877 0.30598 0.0
H555 H 1.00316 0.7707 0.33524 0.0
H556 H 1.01079 0.7937 0.27651 0.0
H557 H 0.03408 0.71373 0.2662 0.0
H558 H 0.03151 0.70122 0.23611 0.0
H559 H 0.03923 0.7247 0.20764 0.0
C560 C 0.52664 0.74707 0.7214 0.0
C561 C 0.54644 0.7207 0.71597 0.0
C562 C 0.52174 0.75243 0.73855 0.0
C563 C 0.53672 0.73162 0.75063 0.0
C564 C 0.55571 0.70418 0.74516 0.0
C565 C 0.56063 0.69892 0.72807 0.0
C566 C 0.53393 0.73819 0.76902 0.0
C567 C 0.52467 0.77192 0.77583 0.0
C568 C 0.52689 0.78083 0.7941 0.0
C569 C 0.52884 0.82047 0.79923 0.0
C570 C 0.53419 0.83002 0.816 0.0
C571 C 0.53756 0.80008 0.82806 0.0
H572 H 0.526 0.7201 0.80306 0.0
C573 C 0.53388 0.76049 0.82312 0.0
C574 C 0.52845 0.75095 0.80636 0.0
H575 H 0.53628 0.73665 0.83206 0.0
H576 H 0.51497 0.7637 0.71238 0.0
H577 H 0.50628 0.77286 0.74221 0.0
H578 H 0.56746 0.6876 0.75415 0.0
H579 H 0.57626 0.67871 0.7244 0.0
H580 H 0.54262 0.71593 0.77715 0.0
H581 H 0.51812 0.79571 0.76769 0.0
H582 H 0.52728 0.84414 0.79012 0.0
H583 H 0.53629 0.86087 0.81945 0.0
C584 C 1.01312 0.29515 0.72177 0.0
C585 C 0.9931 0.3211 0.71619 0.0
C586 C 1.01758 0.28928 0.73896 0.0
C587 C 1.00196 0.30914 0.75093 0.0
C588 C 0.98275 0.33619 0.74532 0.0
C589 C 0.97824 0.34196 0.72819 0.0
C590 C 1.00437 0.30199 0.7693 0.0
C591 C 1.01381 0.26822 0.77601 0.0
C592 C 1.01152 0.25874 0.7942 0.0
C593 C 1.00995 0.21894 0.79908 0.0
C594 C 1.00478 0.2088 0.81578 0.0
C595 C 1.00124 0.23832 0.828 0.0
H596 H 1.01178 0.31923 0.80351 0.0
C597 C 1.00442 0.27813 0.8233 0.0
C598 C 1.00966 0.28825 0.80662 0.0
H599 H 1.00185 0.30167 0.83237 0.0
H600 H 0.02529 0.27924 0.71284 0.0
H601 H 0.03323 0.26919 0.74274 0.0
H602 H 0.97051 0.35207 0.75424 0.0
H603 H 0.96244 0.36182 0.7244 0.0
H604 H 0.99534 0.32381 0.77746 0.0
H605 H 0.02069 0.24482 0.76778 0.0
H606 H 1.01173 0.19556 0.78985 0.0
H607 H 1.00306 0.17782 0.81904 0.0
loop_
_geom_bond_atom_site_label_1
_geom_bond_atom_site_label_2
_geom_bond_distance
_geom_bond_site_symmetry_2
_ccdc_geom_bond_type
C0 C1 1.264 . S
C0 C5 1.479 . S
C0 C10 1.465 . S
C1 C0 1.264 . S
C1 C3 1.339 . S
C1 H28 0.931 . S
C2 C3 1.395 . S
C2 C4 1.320 . S
C3 C1 1.339 . S
C3 C2 1.395 . S
C3 H29 0.929 . S
C4 C2 1.320 . S
C4 C5 1.405 . S
C4 H30 0.930 . S
C5 C0 1.479 . S
C5 C4 1.405 . S
C5 H31 0.931 . S
U6 O7 2.454 . S
U6 O8 2.458 . S
U6 C9 2.984 . S
U6 C10 2.847 . S
U6 C23 2.882 . S
U6 O24 2.441 . S
U6 O25 2.420 . S
U6 O26 2.455 . S
U6 O27 2.449 . S
O7 U6 2.454 . S
O7 C9 1.353 . S
O8 U6 2.458 . S
O8 C9 1.286 . S
C9 U6 2.984 . S
C9 O7 1.353 . S
C9 O8 1.286 . S
C9 C11 1.363 . S
C10 C0 1.465 . S
C10 U6 2.847 . S
C10 O24 1.249 . S
C10 O25 1.202 . S
C11 C9 1.363 . S
C11 C13 1.408 . S
C11 C16 1.342 . S
C12 C13 1.310 . S
C12 C15 1.461 . S
C12 H32 0.932 . S
C13 C11 1.408 . S
C13 C12 1.310 . S
C13 H33 0.930 . S
C14 C15 1.474 . S
C14 C16 1.285 . S
C14 H34 0.929 . S
C15 C12 1.461 . S
C15 C14 1.474 . S
C16 C11 1.342 . S
C16 C14 1.285 . S
C16 H35 0.930 . S
C17 C20 1.424 . S
C17 C22 1.245 . S
C17 C23 1.428 . S
C18 C21 1.260 . S
C18 C22 1.477 . S
C18 H36 0.932 . S
C19 C20 1.384 . S
C19 C21 1.479 . S
C19 H37 0.929 . S
C20 C17 1.424 . S
C20 C19 1.384 . S
C20 H38 0.928 . S
C21 C18 1.260 . S
C21 C19 1.479 . S
C22 C17 1.245 . S
C22 C18 1.477 . S
C22 H39 0.932 . S
C23 U6 2.882 . S
C23 C17 1.428 . S
C23 O26 1.301 . S
C23 O27 1.282 . S
O24 U6 2.441 . S
O24 C10 1.249 . S
O25 U6 2.420 . S
O25 C10 1.202 . S
O26 U6 2.455 . S
O26 C23 1.301 . S
O27 U6 2.449 . S
O27 C23 1.282 . S
H28 C1 0.931 . S
H29 C3 0.929 . S
H30 C4 0.930 . S
H31 C5 0.931 . S
H32 C12 0.932 . S
H33 C13 0.930 . S
H34 C14 0.929 . S
H35 C16 0.930 . S
H36 C18 0.932 . S
H37 C19 0.929 . S
H38 C20 0.928 . S
H39 C22 0.932 . S
C40 C41 1.264 . S
C40 C45 1.479 . S
C40 C50 1.465 . S
C41 C40 1.264 . S
C41 C43 1.339 . S
C41 H68 0.931 . S
C42 C43 1.395 . S
C42 C44 1.320 . S
C43 C41 1.339 . S
C43 C42 1.395 . S
C43 H69 0.929 . S
C44 C42 1.320 . S
C44 C45 1.405 . S
C44 H70 0.930 . S
C45 C40 1.479 . S
C45 C44 1.405 . S
C45 H71 0.931 . S
U46 O47 2.454 . S
U46 O48 2.458 1_455 S
U46 C49 2.984 . S
U46 C50 2.847 . S
U46 C63 2.884 . S
U46 O64 2.441 . S
U46 O65 2.420 . S
U46 O66 2.455 1_455 S
U46 O67 2.449 . S
O47 U46 2.454 . S
O47 C49 1.353 . S
O48 U46 2.458 1_655 S
O48 C49 1.286 1_655 S
C49 U46 2.984 . S
C49 O47 1.353 . S
C49 O48 1.286 1_455 S
C49 C51 1.363 1_455 S
C50 C40 1.465 . S
C50 U46 2.847 . S
C50 O64 1.249 . S
C50 O65 1.202 . S
C51 C49 1.363 1_655 S
C51 C53 1.408 1_655 S
C51 C56 1.342 . S
C52 C53 1.311 . S
C52 C55 1.460 1_455 S
C52 H72 0.932 . S
C53 C51 1.408 1_455 S
C53 C52 1.311 . S
C53 H73 0.930 . S
C54 C55 1.474 . S
C54 C56 1.285 . S
C54 H74 0.929 . S
C55 C52 1.460 1_655 S
C55 C54 1.474 . S
C56 C51 1.342 . S
C56 C54 1.285 . S
C56 H75 0.930 . S
C57 C60 1.424 1_655 S
C57 C62 1.245 . S
C57 C63 1.426 1_655 S
C58 C61 1.260 . S
C58 C62 1.477 . S
C58 H76 0.932 . S
C59 C60 1.384 . S
C59 C61 1.479 1_455 S
C59 H77 0.929 . S
C60 C57 1.424 1_455 S
C60 C59 1.384 . S
C60 H78 0.928 . S
C61 C58 1.260 . S
C61 C59 1.479 1_655 S
C62 C57 1.245 . S
C62 C58 1.477 . S
C62 H79 0.932 . S
C63 U46 2.884 . S
C63 C57 1.426 1_455 S
C63 O66 1.299 1_455 S
C63 O67 1.285 . S
O64 U46 2.441 . S
O64 C50 1.249 . S
O65 U46 2.420 . S
O65 C50 1.202 . S
O66 U46 2.455 1_655 S
O66 C63 1.299 1_655 S
O67 U46 2.449 . S
O67 C63 1.285 . S
H68 C41 0.931 . S
H69 C43 0.929 . S
H70 C44 0.930 . S
H71 C45 0.931 . S
H72 C52 0.932 . S
H73 C53 0.930 . S
H74 C54 0.929 . S
H75 C56 0.930 . S
H76 C58 0.932 . S
H77 C59 0.929 . S
H78 C60 0.928 . S
H79 C62 0.932 . S
C80 C81 1.264 . S
C80 C85 1.479 . S
C80 C90 1.465 . S
C81 C80 1.264 . S
C81 C83 1.339 . S
C81 H108 0.931 . S
C82 C83 1.395 . S
C82 C84 1.320 . S
C83 C81 1.339 . S
C83 C82 1.395 . S
C83 H109 0.929 . S
C84 C82 1.320 . S
C84 C85 1.405 . S
C84 H110 0.930 . S
C85 C80 1.479 . S
C85 C84 1.405 . S
C85 H111 0.931 . S
U86 O87 2.454 . S
U86 O88 2.458 . S
U86 C89 2.984 . S
U86 C90 2.847 . S
U86 C103 2.882 . S
U86 O104 2.441 . S
U86 O105 2.420 . S
U86 O106 2.455 . S
U86 O107 2.449 . S
O87 U86 2.454 . S
O87 C89 1.353 . S
O88 U86 2.458 . S
O88 C89 1.286 . S
C89 U86 2.984 . S
C89 O87 1.353 . S
C89 O88 1.286 . S
C89 C91 1.363 . S
C90 C80 1.465 . S
C90 U86 2.847 . S
C90 O104 1.249 . S
C90 O105 1.202 . S
C91 C89 1.363 . S
C91 C93 1.408 . S
C91 C96 1.342 . S
C92 C93 1.310 . S
C92 C95 1.461 . S
C92 H112 0.932 . S
C93 C91 1.408 . S
C93 C92 1.310 . S
C93 H113 0.930 . S
C94 C95 1.474 . S
C94 C96 1.285 . S
C94 H114 0.929 . S
C95 C92 1.461 . S
C95 C94 1.474 . S
C96 C91 1.342 . S
C96 C94 1.285 . S
C96 H115 0.930 . S
C97 C100 1.424 . S
C97 C102 1.245 . S
C97 C103 1.428 . S
C98 C101 1.260 . S
C98 C102 1.477 . S
C98 H116 0.932 . S
C99 C100 1.384 . S
C99 C101 1.479 . S
C99 H117 0.929 . S
C100 C97 1.424 . S
C100 C99 1.384 . S
C100 H118 0.928 . S
C101 C98 1.260 . S
C101 C99 1.479 . S
C102 C97 1.245 . S
C102 C98 1.477 . S
C102 H119 0.932 . S
C103 U86 2.882 . S
C103 C97 1.428 . S
C103 O106 1.301 . S
C103 O107 1.282 . S
O104 U86 2.441 . S
O104 C90 1.249 . S
O105 U86 2.420 . S
O105 C90 1.202 . S
O106 U86 2.455 . S
O106 C103 1.301 . S
O107 U86 2.449 . S
O107 C103 1.282 . S
H108 C81 0.931 . S
H109 C83 0.929 . S
H110 C84 0.930 . S
H111 C85 0.931 . S
H112 C92 0.932 . S
H113 C93 0.930 . S
H114 C94 0.929 . S
H115 C96 0.930 . S
H116 C98 0.932 . S
H117 C99 0.929 . S
H118 C100 0.928 . S
H119 C102 0.932 . S
C120 C121 1.264 . S
C120 C125 1.479 . S
C120 C130 1.465 . S
C121 C120 1.264 . S
C121 C123 1.339 . S
C121 H148 0.931 . S
C122 C123 1.395 . S
C122 C124 1.320 . S
C123 C121 1.339 . S
C123 C122 1.395 . S
C123 H149 0.929 . S
C124 C122 1.320 . S
C124 C125 1.405 . S
C124 H150 0.930 . S
C125 C120 1.479 . S
C125 C124 1.405 . S
C125 H151 0.931 . S
U126 O127 2.454 . S
U126 O128 2.458 1_455 S
U126 C129 2.984 . S
U126 C130 2.847 . S
U126 C143 2.884 . S
U126 O144 2.441 . S
U126 O145 2.420 . S
U126 O146 2.455 1_455 S
U126 O147 2.449 . S
O127 U126 2.454 . S
O127 C129 1.353 . S
O128 U126 2.458 1_655 S
O128 C129 1.286 1_655 S
C129 U126 2.984 . S
C129 O127 1.353 . S
C129 O128 1.286 1_455 S
C129 C131 1.363 1_455 S
C130 C120 1.465 . S
C130 U126 2.847 . S
C130 O144 1.249 . S
C130 O145 1.202 . S
C131 C129 1.363 1_655 S
C131 C133 1.408 1_655 S
C131 C136 1.342 . S
C132 C133 1.311 . S
C132 C135 1.460 1_455 S
C132 H152 0.932 . S
C133 C131 1.408 1_455 S
C133 C132 1.311 . S
C133 H153 0.930 . S
C134 C135 1.474 . S
C134 C136 1.285 . S
C134 H154 0.929 . S
C135 C132 1.460 1_655 S
C135 C134 1.474 . S
C136 C131 1.342 . S
C136 C134 1.285 . S
C136 H155 0.930 . S
C137 C140 1.424 1_655 S
C137 C142 1.245 . S
C137 C143 1.426 1_655 S
C138 C141 1.260 . S
C138 C142 1.477 . S
C138 H156 0.932 . S
C139 C140 1.384 . S
C139 C141 1.479 1_455 S
C139 H157 0.929 . S
C140 C137 1.424 1_455 S
C140 C139 1.384 . S
C140 H158 0.928 . S
C141 C138 1.260 . S
C141 C139 1.479 1_655 S
C142 C137 1.245 . S
C142 C138 1.477 . S
C142 H159 0.932 . S
C143 U126 2.884 . S
C143 C137 1.426 1_455 S
C143 O146 1.300 1_455 S
C143 O147 1.285 . S
O144 U126 2.441 . S
O144 C130 1.249 . S
O145 U126 2.420 . S
O145 C130 1.202 . S
O146 U126 2.455 1_655 S
O146 C143 1.300 1_655 S
O147 U126 2.449 . S
O147 C143 1.285 . S
H148 C121 0.931 . S
H149 C123 0.929 . S
H150 C124 0.930 . S
H151 C125 0.931 . S
H152 C132 0.932 . S
H153 C133 0.930 . S
H154 C134 0.929 . S
H155 C136 0.930 . S
H156 C138 0.932 . S
H157 C139 0.929 . S
H158 C140 0.928 . S
H159 C142 0.932 . S
C160 C161 1.264 . S
C160 C165 1.479 . S
C160 C170 1.465 . S
C161 C160 1.264 . S
C161 C163 1.339 . S
C161 H188 0.931 . S
C162 C163 1.395 . S
C162 C164 1.320 . S
C163 C161 1.339 . S
C163 C162 1.395 . S
C163 H189 0.929 . S
C164 C162 1.320 . S
C164 C165 1.405 . S
C164 H190 0.930 . S
C165 C160 1.479 . S
C165 C164 1.405 . S
C165 H191 0.931 . S
U166 O167 2.454 . S
U166 O168 2.458 . S
U166 C169 2.984 . S
U166 C170 2.847 . S
U166 C183 2.882 . S
U166 O184 2.441 . S
U166 O185 2.420 . S
U166 O186 2.455 . S
U166 O187 2.449 . S
O167 U166 2.454 . S
O167 C169 1.353 . S
O168 U166 2.458 . S
O168 C169 1.286 . S
C169 U166 2.984 . S
C169 O167 1.353 . S
C169 O168 1.286 . S
C169 C171 1.363 . S
C170 C160 1.465 . S
C170 U166 2.847 . S
C170 O184 1.249 . S
C170 O185 1.202 . S
C171 C169 1.363 . S
C171 C173 1.408 . S
C171 C176 1.342 . S
C172 C173 1.310 . S
C172 C175 1.461 . S
C172 H192 0.932 . S
C173 C171 1.408 . S
C173 C172 1.310 . S
C173 H193 0.930 . S
C174 C175 1.474 . S
C174 C176 1.285 . S
C174 H194 0.929 . S
C175 C172 1.461 . S
C175 C174 1.474 . S
C176 C171 1.342 . S
C176 C174 1.285 . S
C176 H195 0.930 . S
C177 C180 1.424 . S
C177 C182 1.245 . S
C177 C183 1.428 . S
C178 C181 1.260 . S
C178 C182 1.477 . S
C178 H196 0.932 . S
C179 C180 1.384 . S
C179 C181 1.479 . S
C179 H197 0.929 . S
C180 C177 1.424 . S
C180 C179 1.384 . S
C180 H198 0.928 . S
C181 C178 1.260 . S
C181 C179 1.479 . S
C182 C177 1.245 . S
C182 C178 1.477 . S
C182 H199 0.932 . S
C183 U166 2.882 . S
C183 C177 1.428 . S
C183 O186 1.301 . S
C183 O187 1.282 . S
O184 U166 2.441 . S
O184 C170 1.249 . S
O185 U166 2.420 . S
O185 C170 1.202 . S
O186 U166 2.455 . S
O186 C183 1.301 . S
O187 U166 2.449 . S
O187 C183 1.282 . S
H188 C161 0.931 . S
H189 C163 0.929 . S
H190 C164 0.930 . S
H191 C165 0.931 . S
H192 C172 0.932 . S
H193 C173 0.930 . S
H194 C174 0.929 . S
H195 C176 0.930 . S
H196 C178 0.932 . S
H197 C179 0.929 . S
H198 C180 0.928 . S
H199 C182 0.932 . S
C200 C201 1.264 . S
C200 C205 1.479 . S
C200 C210 1.465 . S
C201 C200 1.264 . S
C201 C203 1.339 . S
C201 H228 0.931 . S
C202 C203 1.395 . S
C202 C204 1.320 . S
C203 C201 1.339 . S
C203 C202 1.395 . S
C203 H229 0.929 . S
C204 C202 1.320 . S
C204 C205 1.405 . S
C204 H230 0.930 . S
C205 C200 1.479 . S
C205 C204 1.405 . S
C205 H231 0.931 . S
U206 O207 2.454 . S
U206 O208 2.458 . S
U206 C209 2.984 . S
U206 C210 2.847 . S
U206 C223 2.882 . S
U206 O224 2.441 . S
U206 O225 2.420 . S
U206 O226 2.455 . S
U206 O227 2.449 . S
O207 U206 2.454 . S
O207 C209 1.353 . S
O208 U206 2.458 . S
O208 C209 1.286 . S
C209 U206 2.984 . S
C209 O207 1.353 . S
C209 O208 1.286 . S
C209 C211 1.363 . S
C210 C200 1.465 . S
C210 U206 2.847 . S
C210 O224 1.249 . S
C210 O225 1.202 . S
C211 C209 1.363 . S
C211 C213 1.408 . S
C211 C216 1.342 1_655 S
C212 C213 1.310 . S
C212 C215 1.461 1_655 S
C212 H232 0.932 . S
C213 C211 1.408 . S
C213 C212 1.310 . S
C213 H233 0.930 . S
C214 C215 1.474 . S
C214 C216 1.285 . S
C214 H234 0.929 . S
C215 C212 1.461 1_455 S
C215 C214 1.474 . S
C216 C211 1.342 1_455 S
C216 C214 1.285 . S
C216 H235 0.930 . S
C217 C220 1.424 . S
C217 C222 1.245 1_655 S
C217 C223 1.428 . S
C218 C221 1.260 . S
C218 C222 1.477 . S
C218 H236 0.932 . S
C219 C220 1.384 . S
C219 C221 1.479 1_655 S
C219 H237 0.929 . S
C220 C217 1.424 . S
C220 C219 1.384 . S
C220 H238 0.928 . S
C221 C218 1.260 . S
C221 C219 1.479 1_455 S
C222 C217 1.245 1_455 S
C222 C218 1.477 . S
C222 H239 0.932 . S
C223 U206 2.882 . S
C223 C217 1.428 . S
C223 O226 1.301 . S
C223 O227 1.282 . S
O224 U206 2.441 . S
O224 C210 1.249 . S
O225 U206 2.420 . S
O225 C210 1.202 . S
O226 U206 2.455 . S
O226 C223 1.301 . S
O227 U206 2.449 . S
O227 C223 1.282 . S
H228 C201 0.931 . S
H229 C203 0.929 . S
H230 C204 0.930 . S
H231 C205 0.931 . S
H232 C212 0.932 . S
H233 C213 0.930 . S
H234 C214 0.929 . S
H235 C216 0.930 . S
H236 C218 0.932 . S
H237 C219 0.929 . S
H238 C220 0.928 . S
H239 C222 0.932 . S
C240 C241 1.264 . S
C240 C245 1.479 . S
C240 C250 1.465 . S
C241 C240 1.264 . S
C241 C243 1.339 . S
C241 H268 0.931 . S
C242 C243 1.395 . S
C242 C244 1.320 . S
C243 C241 1.339 . S
C243 C242 1.395 . S
C243 H269 0.929 . S
C244 C242 1.320 . S
C244 C245 1.405 . S
C244 H270 0.930 . S
C245 C240 1.479 . S
C245 C244 1.405 . S
C245 H271 0.931 . S
U246 O247 2.454 . S
U246 O248 2.458 . S
U246 C249 2.984 . S
U246 C250 2.847 . S
U246 C263 2.882 . S
U246 O264 2.441 . S
U246 O265 2.420 . S
U246 O266 2.455 . S
U246 O267 2.449 . S
O247 U246 2.454 . S
O247 C249 1.353 . S
O248 U246 2.458 . S
O248 C249 1.286 . S
C249 U246 2.984 . S
C249 O247 1.353 . S
C249 O248 1.286 . S
C249 C251 1.363 . S
C250 C240 1.465 . S
C250 U246 2.847 . S
C250 O264 1.249 . S
C250 O265 1.202 . S
C251 C249 1.363 . S
C251 C253 1.408 . S
C251 C256 1.342 . S
C252 C253 1.310 . S
C252 C255 1.461 . S
C252 H272 0.932 . S
C253 C251 1.408 . S
C253 C252 1.310 . S
C253 H273 0.930 . S
C254 C255 1.474 . S
C254 C256 1.285 . S
C254 H274 0.929 . S
C255 C252 1.461 . S
C255 C254 1.474 . S
C256 C251 1.342 . S
C256 C254 1.285 . S
C256 H275 0.930 . S
C257 C260 1.424 . S
C257 C262 1.245 . S
C257 C263 1.428 . S
C258 C261 1.260 . S
C258 C262 1.477 . S
C258 H276 0.932 . S
C259 C260 1.384 . S
C259 C261 1.479 . S
C259 H277 0.929 . S
C260 C257 1.424 . S
C260 C259 1.384 . S
C260 H278 0.928 . S
C261 C258 1.260 . S
C261 C259 1.479 . S
C262 C257 1.245 . S
C262 C258 1.477 . S
C262 H279 0.932 . S
C263 U246 2.882 . S
C263 C257 1.428 . S
C263 O266 1.301 . S
C263 O267 1.282 . S
O264 U246 2.441 . S
O264 C250 1.249 . S
O265 U246 2.420 . S
O265 C250 1.202 . S
O266 U246 2.455 . S
O266 C263 1.301 . S
O267 U246 2.449 . S
O267 C263 1.282 . S
H268 C241 0.931 . S
H269 C243 0.929 . S
H270 C244 0.930 . S
H271 C245 0.931 . S
H272 C252 0.932 . S
H273 C253 0.930 . S
H274 C254 0.929 . S
H275 C256 0.930 . S
H276 C258 0.932 . S
H277 C259 0.929 . S
H278 C260 0.928 . S
H279 C262 0.932 . S
C280 C281 1.264 . S
C280 C285 1.479 . S
C280 C290 1.465 . S
C281 C280 1.264 . S
C281 C283 1.339 . S
C281 H308 0.931 . S
C282 C283 1.395 . S
C282 C284 1.320 . S
C283 C281 1.339 . S
C283 C282 1.395 . S
C283 H309 0.929 . S
C284 C282 1.320 . S
C284 C285 1.405 . S
C284 H310 0.930 . S
C285 C280 1.479 . S
C285 C284 1.405 . S
C285 H311 0.931 . S
U286 O287 2.454 . S
U286 O288 2.458 . S
U286 C289 2.984 . S
U286 C290 2.847 . S
U286 C303 2.882 . S
U286 O304 2.441 . S
U286 O305 2.420 . S
U286 O306 2.455 . S
U286 O307 2.449 . S
O287 U286 2.454 . S
O287 C289 1.353 . S
O288 U286 2.458 . S
O288 C289 1.286 . S
C289 U286 2.984 . S
C289 O287 1.353 . S
C289 O288 1.286 . S
C289 C291 1.363 . S
C290 C280 1.465 . S
C290 U286 2.847 . S
C290 O304 1.249 . S
C290 O305 1.202 . S
C291 C289 1.363 . S
C291 C293 1.408 . S
C291 C296 1.342 1_655 S
C292 C293 1.310 . S
C292 C295 1.461 1_655 S
C292 H312 0.932 . S
C293 C291 1.408 . S
C293 C292 1.310 . S
C293 H313 0.930 . S
C294 C295 1.474 . S
C294 C296 1.285 . S
C294 H314 0.929 . S
C295 C292 1.461 1_455 S
C295 C294 1.474 . S
C296 C291 1.342 1_455 S
C296 C294 1.285 . S
C296 H315 0.930 . S
C297 C300 1.424 . S
C297 C302 1.245 1_655 S
C297 C303 1.428 . S
C298 C301 1.260 . S
C298 C302 1.477 . S
C298 H316 0.932 . S
C299 C300 1.384 . S
C299 C301 1.479 1_655 S
C299 H317 0.929 . S
C300 C297 1.424 . S
C300 C299 1.384 . S
C300 H318 0.928 . S
C301 C298 1.260 . S
C301 C299 1.479 1_455 S
C302 C297 1.245 1_455 S
C302 C298 1.477 . S
C302 H319 0.932 . S
C303 U286 2.882 . S
C303 C297 1.428 . S
C303 O306 1.301 . S
C303 O307 1.282 . S
O304 U286 2.441 . S
O304 C290 1.249 . S
O305 U286 2.420 . S
O305 C290 1.202 . S
O306 U286 2.455 . S
O306 C303 1.301 . S
O307 U286 2.449 . S
O307 C303 1.282 . S
H308 C281 0.931 . S
H309 C283 0.929 . S
H310 C284 0.930 . S
H311 C285 0.931 . S
H312 C292 0.932 . S
H313 C293 0.930 . S
H314 C294 0.929 . S
H315 C296 0.930 . S
H316 C298 0.932 . S
H317 C299 0.929 . S
H318 C300 0.928 . S
H319 C302 0.932 . S
C320 C321 1.386 . S
C320 C322 1.383 . S
C320 H336 0.951 . S
C321 C320 1.386 . S
C321 C325 1.383 . S
C322 C320 1.383 . S
C322 C323 1.402 . S
C322 H337 0.951 . S
C323 C322 1.402 . S
C323 C324 1.375 . S
C323 C326 1.481 . S
C324 C323 1.375 . S
C324 C325 1.367 . S
C324 H338 0.951 . S
C325 C321 1.383 . S
C325 C324 1.367 . S
C325 H339 0.950 . S
C326 C323 1.481 . S
C326 C327 1.297 . S
C326 H340 0.950 . S
C327 C326 1.297 . S
C327 C328 1.479 . S
C327 H341 0.950 . S
C328 C327 1.479 . S
C328 C329 1.371 1_545 S
C328 C334 1.404 . S
C329 C328 1.371 1_565 S
C329 C330 1.376 . S
C329 H342 0.947 1_565 S
C330 C329 1.376 . S
C330 C331 1.392 . S
C330 H343 0.951 . S
C331 C330 1.392 . S
C331 C333 1.384 . S
H332 C334 0.949 . S
C333 C331 1.384 . S
C333 C334 1.385 1_565 S
C333 H335 0.950 . S
C334 C328 1.404 . S
C334 H332 0.949 . S
C334 C333 1.385 1_545 S
H335 C333 0.950 . S
H336 C320 0.951 . S
H337 C322 0.951 . S
H338 C324 0.951 . S
H339 C325 0.950 . S
H340 C326 0.950 . S
H341 C327 0.950 . S
H342 C329 0.947 1_545 S
H343 C330 0.951 . S
C344 C345 1.386 . S
C344 C346 1.383 . S
C344 H360 0.951 . S
C345 C344 1.386 . S
C345 C349 1.383 . S
C346 C344 1.383 . S
C346 C347 1.402 . S
C346 H361 0.951 . S
C347 C346 1.402 . S
C347 C348 1.375 . S
C347 C350 1.481 . S
C348 C347 1.375 . S
C348 C349 1.367 . S
C348 H362 0.951 . S
C349 C345 1.383 . S
C349 C348 1.367 . S
C349 H363 0.950 . S
C350 C347 1.481 . S
C350 C351 1.297 . S
C350 H364 0.950 . S
C351 C350 1.297 . S
C351 C352 1.479 . S
C351 H365 0.950 . S
C352 C351 1.479 . S
C352 C353 1.375 . S
C352 C358 1.404 . S
C353 C352 1.375 . S
C353 C354 1.369 . S
C353 H366 0.950 . S
C354 C353 1.369 . S
C354 C355 1.392 . S
C354 H367 0.951 . S
C355 C354 1.392 . S
C355 C357 1.384 . S
H356 C358 0.949 . S
C357 C355 1.384 . S
C357 C358 1.385 . S
C357 H359 0.950 . S
C358 C352 1.404 . S
C358 H356 0.949 . S
C358 C357 1.385 . S
H359 C357 0.950 . S
H360 C344 0.951 . S
H361 C346 0.951 . S
H362 C348 0.951 . S
H363 C349 0.950 . S
H364 C350 0.950 . S
H365 C351 0.950 . S
H366 C353 0.950 . S
H367 C354 0.951 . S
C368 C369 1.386 . S
C368 C370 1.383 . S
C368 H384 0.951 . S
C369 C368 1.386 . S
C369 C373 1.383 . S
C370 C368 1.383 . S
C370 C371 1.402 1_545 S
C370 H385 0.951 . S
C371 C370 1.402 1_565 S
C371 C372 1.375 1_565 S
C371 C374 1.480 . S
C372 C371 1.375 1_545 S
C372 C373 1.367 . S
C372 H386 0.953 . S
C373 C369 1.383 . S
C373 C372 1.367 . S
C373 H387 0.950 . S
C374 C371 1.480 . S
C374 C375 1.297 . S
C374 H388 0.950 . S
C375 C374 1.297 . S
C375 C376 1.479 . S
C375 H389 0.950 . S
C376 C375 1.479 . S
C376 C377 1.375 . S
C376 C382 1.404 . S
C377 C376 1.375 . S
C377 C378 1.369 . S
C377 H390 0.950 . S
C378 C377 1.369 . S
C378 C379 1.392 . S
C378 H391 0.951 . S
C379 C378 1.392 . S
C379 C381 1.384 . S
H380 C382 0.949 . S
C381 C379 1.384 . S
C381 C382 1.385 . S
C381 H383 0.950 . S
C382 C376 1.404 . S
C382 H380 0.949 . S
C382 C381 1.385 . S
H383 C381 0.950 . S
H384 C368 0.951 . S
H385 C370 0.951 . S
H386 C372 0.953 . S
H387 C373 0.950 . S
H388 C374 0.950 . S
H389 C375 0.950 . S
H390 C377 0.950 . S
H391 C378 0.951 . S
C392 C393 1.386 . S
C392 C394 1.383 . S
C392 H408 0.951 . S
C393 C392 1.386 . S
C393 C397 1.383 . S
C394 C392 1.383 . S
C394 C395 1.402 . S
C394 H409 0.951 . S
C395 C394 1.402 . S
C395 C396 1.375 . S
C395 C398 1.481 . S
C396 C395 1.375 . S
C396 C397 1.367 . S
C396 H410 0.951 . S
C397 C393 1.383 . S
C397 C396 1.367 . S
C397 H411 0.950 . S
C398 C395 1.481 . S
C398 C399 1.297 . S
C398 H412 0.950 . S
C399 C398 1.297 . S
C399 C400 1.479 . S
C399 H413 0.950 . S
C400 C399 1.479 . S
C400 C401 1.375 . S
C400 C406 1.404 . S
C401 C400 1.375 . S
C401 C402 1.369 . S
C401 H414 0.950 . S
C402 C401 1.369 . S
C402 C403 1.392 . S
C402 H415 0.951 . S
C403 C402 1.392 . S
C403 C405 1.384 . S
H404 C406 0.949 . S
C405 C403 1.384 . S
C405 C406 1.385 . S
C405 H407 0.950 . S
C406 C400 1.404 . S
C406 H404 0.949 . S
C406 C405 1.385 . S
H407 C405 0.950 . S
H408 C392 0.951 . S
H409 C394 0.951 . S
H410 C396 0.951 . S
H411 C397 0.950 . S
H412 C398 0.950 . S
H413 C399 0.950 . S
H414 C401 0.950 . S
H415 C402 0.951 . S
C416 C417 1.386 . S
C416 C418 1.383 . S
C416 H432 0.951 . S
C417 C416 1.386 . S
C417 C421 1.383 . S
C418 C416 1.383 . S
C418 C419 1.402 . S
C418 H433 0.951 . S
C419 C418 1.402 . S
C419 C420 1.375 1_554 S
C419 C422 1.481 1_554 S
C420 C419 1.375 1_556 S
C420 C421 1.367 1_556 S
C420 H434 0.951 . S
C421 C417 1.383 . S
C421 C420 1.367 1_554 S
C421 H435 0.950 1_554 S
C422 C419 1.481 1_556 S
C422 C423 1.297 1_556 S
C422 H436 0.950 . S
C423 C422 1.297 1_554 S
C423 C424 1.479 1_554 S
C423 H437 0.950 . S
C424 C423 1.479 1_556 S
C424 C425 1.375 1_556 S
C424 C430 1.404 . S
C425 C424 1.375 1_554 S
C425 C426 1.369 1_554 S
C425 H438 0.950 . S
C426 C425 1.369 1_556 S
C426 C427 1.392 . S
C426 H439 0.951 1_556 S
C427 C426 1.392 . S
C427 C429 1.384 . S
H428 C430 0.949 . S
C429 C427 1.384 . S
C429 C430 1.385 . S
C429 H431 0.950 . S
C430 C424 1.404 . S
C430 H428 0.949 . S
C430 C429 1.385 . S
H431 C429 0.950 . S
H432 C416 0.951 . S
H433 C418 0.951 . S
H434 C420 0.951 . S
H435 C421 0.950 1_556 S
H436 C422 0.950 . S
H437 C423 0.950 . S
H438 C425 0.950 . S
H439 C426 0.951 1_554 S
C440 C441 1.386 . S
C440 C442 1.383 . S
C440 H456 0.951 . S
C441 C440 1.386 . S
C441 C445 1.383 1_455 S
C442 C440 1.383 . S
C442 C443 1.402 1_455 S
C442 H457 0.951 . S
C443 C442 1.402 1_655 S
C443 C444 1.375 . S
C443 C446 1.481 . S
C444 C443 1.375 . S
C444 C445 1.367 . S
C444 H458 0.951 . S
C445 C441 1.383 1_655 S
C445 C444 1.367 . S
C445 H459 0.950 . S
C446 C443 1.481 . S
C446 C447 1.297 . S
C446 H460 0.950 1_556 S
C447 C446 1.297 . S
C447 C448 1.479 1_556 S
C447 H461 0.950 1_655 S
C448 C447 1.479 1_554 S
C448 C449 1.375 1_655 S
C448 C454 1.404 . S
C449 C448 1.375 1_455 S
C449 C450 1.369 . S
C449 H462 0.950 1_554 S
C450 C449 1.369 . S
C450 C451 1.392 1_455 S
C450 H463 0.951 . S
C451 C450 1.392 1_655 S
C451 C453 1.384 . S
H452 C454 0.949 . S
C453 C451 1.384 . S
C453 C454 1.385 . S
C453 H455 0.950 . S
C454 C448 1.404 . S
C454 H452 0.949 . S
C454 C453 1.385 . S
H455 C453 0.950 . S
H456 C440 0.951 . S
H457 C442 0.951 . S
H458 C444 0.951 . S
H459 C445 0.950 . S
H460 C446 0.950 1_554 S
H461 C447 0.950 1_455 S
H462 C449 0.950 1_556 S
H463 C450 0.951 . S
C464 C465 1.386 . S
C464 C466 1.383 . S
C464 H480 0.951 . S
C465 C464 1.386 . S
C465 C469 1.383 . S
C466 C464 1.383 . S
C466 C467 1.402 . S
C466 H481 0.951 . S
C467 C466 1.402 . S
C467 C468 1.375 . S
C467 C470 1.481 . S
C468 C467 1.375 . S
C468 C469 1.367 . S
C468 H482 0.951 . S
C469 C465 1.383 . S
C469 C468 1.367 . S
C469 H483 0.950 . S
C470 C467 1.481 . S
C470 C471 1.297 1_545 S
C470 H484 0.950 . S
C471 C470 1.297 1_565 S
C471 C472 1.479 . S
C471 H485 0.950 . S
C472 C471 1.479 . S
C472 C473 1.375 . S
C472 C478 1.404 . S
C473 C472 1.375 . S
C473 C474 1.369 . S
C473 H486 0.950 . S
C474 C473 1.369 . S
C474 C475 1.392 . S
C474 H487 0.951 . S
C475 C474 1.392 . S
C475 C477 1.384 . S
H476 C478 0.949 . S
C477 C475 1.384 . S
C477 C478 1.385 . S
C477 H479 0.950 . S
C478 C472 1.404 . S
C478 H476 0.949 . S
C478 C477 1.385 . S
H479 C477 0.950 . S
H480 C464 0.951 . S
H481 C466 0.951 . S
H482 C468 0.951 . S
H483 C469 0.950 . S
H484 C470 0.950 . S
H485 C471 0.950 . S
H486 C473 0.950 . S
H487 C474 0.951 . S
C488 C489 1.386 . S
C488 C490 1.383 . S
C488 H504 0.951 . S
C489 C488 1.386 . S
C489 C493 1.371 1_455 S
C490 C488 1.383 . S
C490 C491 1.402 . S
C490 H505 0.951 . S
C491 C490 1.402 . S
C491 C492 1.375 1_455 S
C491 C494 1.480 . S
C492 C491 1.375 1_655 S
C492 C493 1.371 . S
C492 H506 0.951 . S
C493 C489 1.371 1_655 S
C493 C492 1.371 . S
C493 H507 0.958 . S
C494 C491 1.480 . S
C494 C495 1.296 1_545 S
C494 H508 0.952 1_445 S
C495 C494 1.296 1_565 S
C495 C496 1.479 . S
C495 H509 0.950 . S
C496 C495 1.479 . S
C496 C497 1.375 . S
C496 C502 1.404 1_455 S
C497 C496 1.375 . S
C497 C498 1.369 . S
C497 H510 0.950 . S
C498 C497 1.369 . S
C498 C499 1.392 1_455 S
C498 H511 0.951 . S
C499 C498 1.392 1_655 S
C499 C501 1.384 . S
H500 C502 0.949 . S
C501 C499 1.384 . S
C501 C502 1.385 . S
C501 H503 0.950 . S
C502 C496 1.404 1_655 S
C502 H500 0.949 . S
C502 C501 1.385 . S
H503 C501 0.950 . S
H504 C488 0.951 . S
H505 C490 0.951 . S
H506 C492 0.951 . S
H507 C493 0.958 . S
H508 C494 0.952 1_665 S
H509 C495 0.950 . S
H510 C497 0.950 . S
H511 C498 0.951 . S
C512 C513 1.386 . S
C512 C514 1.383 . S
C512 H528 0.951 . S
C513 C512 1.386 . S
C513 C517 1.383 . S
C514 C512 1.383 . S
C514 C515 1.402 . S
C514 H529 0.951 . S
C515 C514 1.402 . S
C515 C516 1.375 . S
C515 C518 1.481 . S
C516 C515 1.375 . S
C516 C517 1.367 . S
C516 H530 0.951 . S
C517 C513 1.383 . S
C517 C516 1.367 . S
C517 H531 0.950 . S
C518 C515 1.481 . S
C518 C519 1.297 . S
C518 H532 0.950 . S
C519 C518 1.297 . S
C519 C520 1.479 . S
C519 H533 0.950 . S
C520 C519 1.479 . S
C520 C521 1.375 . S
C520 C526 1.404 . S
C521 C520 1.375 . S
C521 C522 1.369 . S
C521 H534 0.950 . S
C522 C521 1.369 . S
C522 C523 1.392 . S
C522 H535 0.951 . S
C523 C522 1.392 . S
C523 C525 1.384 . S
H524 C526 0.949 . S
C525 C523 1.384 . S
C525 C526 1.385 . S
C525 H527 0.950 . S
C526 C520 1.404 . S
C526 H524 0.949 . S
C526 C525 1.385 . S
H527 C525 0.950 . S
H528 C512 0.951 . S
H529 C514 0.951 . S
H530 C516 0.951 . S
H531 C517 0.950 . S
H532 C518 0.950 . S
H533 C519 0.950 . S
H534 C521 0.950 . S
H535 C522 0.951 . S
C536 C537 1.386 1_455 S
C536 C538 1.383 1_455 S
C536 H552 0.951 . S
C537 C536 1.386 1_655 S
C537 C541 1.383 . S
C538 C536 1.383 1_655 S
C538 C539 1.402 . S
C538 H553 0.951 1_655 S
C539 C538 1.402 . S
C539 C540 1.375 . S
C539 C542 1.481 . S
C540 C539 1.375 . S
C540 C541 1.367 . S
C540 H554 0.951 . S
C541 C537 1.383 . S
C541 C540 1.367 . S
C541 H555 0.950 . S
C542 C539 1.481 . S
C542 C543 1.297 . S
C542 H556 0.950 . S
C543 C542 1.297 . S
C543 C544 1.479 . S
C543 H557 0.950 . S
C544 C543 1.479 . S
C544 C545 1.375 1_655 S
C544 C550 1.404 . S
C545 C544 1.375 1_455 S
C545 C546 1.369 . S
C545 H558 0.950 . S
C546 C545 1.369 . S
C546 C547 1.392 1_455 S
C546 H559 0.951 . S
C547 C546 1.392 1_655 S
C547 C549 1.384 . S
H548 C550 0.949 . S
C549 C547 1.384 . S
C549 C550 1.385 . S
C549 H551 0.950 . S
C550 C544 1.404 . S
C550 H548 0.949 . S
C550 C549 1.385 . S
H551 C549 0.950 . S
H552 C536 0.951 . S
H553 C538 0.951 1_455 S
H554 C540 0.951 . S
H555 C541 0.950 . S
H556 C542 0.950 . S
H557 C543 0.950 . S
H558 C545 0.950 . S
H559 C546 0.951 . S
C560 C561 1.386 . S
C560 C562 1.383 . S
C560 H576 0.951 . S
C561 C560 1.386 . S
C561 C565 1.383 . S
C562 C560 1.383 . S
C562 C563 1.402 . S
C562 H577 0.951 . S
C563 C562 1.402 . S
C563 C564 1.375 . S
C563 C566 1.481 . S
C564 C563 1.375 . S
C564 C565 1.367 . S
C564 H578 0.951 . S
C565 C561 1.383 . S
C565 C564 1.367 . S
C565 H579 0.950 . S
C566 C563 1.481 . S
C566 C567 1.297 . S
C566 H580 0.950 . S
C567 C566 1.297 . S
C567 C568 1.479 . S
C567 H581 0.950 . S
C568 C567 1.479 . S
C568 C569 1.375 . S
C568 C574 1.404 . S
C569 C568 1.375 . S
C569 C570 1.369 . S
C569 H582 0.950 . S
C570 C569 1.369 . S
C570 C571 1.392 . S
C570 H583 0.951 . S
C571 C570 1.392 . S
C571 C573 1.384 . S
H572 C574 0.949 . S
C573 C571 1.384 . S
C573 C574 1.385 . S
C573 H575 0.950 . S
C574 C568 1.404 . S
C574 H572 0.949 . S
C574 C573 1.385 . S
H575 C573 0.950 . S
H576 C560 0.951 . S
H577 C562 0.951 . S
H578 C564 0.951 . S
H579 C565 0.950 . S
H580 C566 0.950 . S
H581 C567 0.950 . S
H582 C569 0.950 . S
H583 C570 0.951 . S
C584 C585 1.386 . S
C584 C586 1.383 . S
C584 H600 0.951 . S
C585 C584 1.386 . S
C585 C589 1.383 1_455 S
C586 C584 1.383 . S
C586 C587 1.402 . S
C586 H601 0.951 . S
C587 C586 1.402 . S
C587 C588 1.375 1_455 S
C587 C590 1.481 . S
C588 C587 1.375 1_655 S
C588 C589 1.367 . S
C588 H602 0.951 . S
C589 C585 1.383 1_655 S
C589 C588 1.367 . S
C589 H603 0.950 . S
C590 C587 1.481 . S
C590 C591 1.297 . S
C590 H604 0.950 1_455 S
C591 C590 1.297 . S
C591 C592 1.479 . S
C591 H605 0.950 . S
C592 C591 1.479 . S
C592 C593 1.375 . S
C592 C598 1.404 . S
C593 C592 1.375 . S
C593 C594 1.369 . S
C593 H606 0.950 . S
C594 C593 1.369 . S
C594 C595 1.392 . S
C594 H607 0.951 . S
C595 C594 1.392 . S
C595 C597 1.401 . S
H596 C598 0.949 1_655 S
C597 C595 1.401 . S
C597 C598 1.387 . S
C597 H599 0.932 1_455 S
C598 C592 1.404 . S
C598 H596 0.949 1_455 S
C598 C597 1.387 . S
H599 C597 0.932 1_655 S
H600 C584 0.951 . S
H601 C586 0.951 . S
H602 C588 0.951 . S
H603 C589 0.950 . S
H604 C590 0.950 1_655 S
H605 C591 0.950 . S
H606 C593 0.950 . S
H607 C594 0.951 . S
C321 C2 2.295 . S
C331 C42 2.317 . S
C345 C82 2.296 . S
C355 C122 2.318 . S
C369 C202 2.179 . S
C379 C162 2.095 . S
C393 C242 2.134 . S
C403 C282 2.195 . S
C417 C15 2.521 . S
C427 C175 2.463 . S
C441 C215 2.466 . S
C451 C55 2.520 . S
C465 C95 2.518 . S
C475 C255 2.441 . S
C489 C295 2.472 . S
C499 C135 2.481 . S
C513 C101 2.093 . S
C523 C21 2.072 . S
C537 C141 2.100 . S
C547 C61 2.083 . S
C561 C261 2.012 . S
C571 C181 2.008 . S
C585 C301 2.002 . S
C595 C221 1.990 . S
