# Generated by pormake.
# Topology snl, (6)-cn, num edge types: 1
# Building blocks:
#     Node 0, Type 0, BuildingBlock: BETDAH_clean_sbu_0, # of connection points: 6
#     Node 1, Type 0, BuildingBlock: BETDAH_clean_sbu_0, # of connection points: 6
#     Node 2, Type 0, BuildingBlock: BETDAH_clean_sbu_0, # of connection points: 6
#     Node 3, Type 0, BuildingBlock: BETDAH_clean_sbu_0, # of connection points: 6
#     Node 4, Type 0, BuildingBlock: BETDAH_clean_sbu_0, # of connection points: 6
#     Node 5, Type 0, BuildingBlock: BETDAH_clean_sbu_0, # of connection points: 6
#     Node 6, Type 0, BuildingBlock: BETDAH_clean_sbu_0, # of connection points: 6
#     Node 7, Type 0, BuildingBlock: BETDAH_clean_sbu_0, # of connection points: 6
#     Node 8, Type 0, BuildingBlock: BETDAH_clean_sbu_0, # of connection points: 6
#     Node 9, Type 0, BuildingBlock: BETDAH_clean_sbu_0, # of connection points: 6
#     Node 10, Type 0, BuildingBlock: BETDAH_clean_sbu_0, # of connection points: 6
#     Node 11, Type 0, BuildingBlock: BETDAH_clean_sbu_0, # of connection points: 6
#     Node 12, Type 0, BuildingBlock: BETDAH_clean_sbu_0, # of connection points: 6
#     Node 13, Type 0, BuildingBlock: BETDAH_clean_sbu_0, # of connection points: 6
#     Node 14, Type 0, BuildingBlock: BETDAH_clean_sbu_0, # of connection points: 6
#     Node 15, Type 0, BuildingBlock: BETDAH_clean_sbu_0, # of connection points: 6
#     Edge 16, Type (0, 0), BuildingBlock: UVAHIK_clean_linker_0, # of connection points: 2
#     Edge 17, Type (0, 0), BuildingBlock: UVAHIK_clean_linker_0, # of connection points: 2
#     Edge 18, Type (0, 0), BuildingBlock: UVAHIK_clean_linker_0, # of connection points: 2
#     Edge 19, Type (0, 0), BuildingBlock: UVAHIK_clean_linker_0, # of connection points: 2
#     Edge 20, Type (0, 0), BuildingBlock: UVAHIK_clean_linker_0, # of connection points: 2
#     Edge 21, Type (0, 0), BuildingBlock: UVAHIK_clean_linker_0, # of connection points: 2
#     Edge 22, Type (0, 0), BuildingBlock: UVAHIK_clean_linker_0, # of connection points: 2
#     Edge 23, Type (0, 0), BuildingBlock: UVAHIK_clean_linker_0, # of connection points: 2
#     Edge 24, Type (0, 0), BuildingBlock: UVAHIK_clean_linker_0, # of connection points: 2
#     Edge 25, Type (0, 0), BuildingBlock: UVAHIK_clean_linker_0, # of connection points: 2
#     Edge 26, Type (0, 0), BuildingBlock: UVAHIK_clean_linker_0, # of connection points: 2
#     Edge 27, Type (0, 0), BuildingBlock: UVAHIK_clean_linker_0, # of connection points: 2
#     Edge 28, Type (0, 0), BuildingBlock: UVAHIK_clean_linker_0, # of connection points: 2
#     Edge 29, Type (0, 0), BuildingBlock: UVAHIK_clean_linker_0, # of connection points: 2
#     Edge 30, Type (0, 0), BuildingBlock: UVAHIK_clean_linker_0, # of connection points: 2
#     Edge 31, Type (0, 0), BuildingBlock: UVAHIK_clean_linker_0, # of connection points: 2
#     Edge 32, Type (0, 0), BuildingBlock: UVAHIK_clean_linker_0, # of connection points: 2
#     Edge 33, Type (0, 0), BuildingBlock: UVAHIK_clean_linker_0, # of connection points: 2
#     Edge 34, Type (0, 0), BuildingBlock: UVAHIK_clean_linker_0, # of connection points: 2
#     Edge 35, Type (0, 0), BuildingBlock: UVAHIK_clean_linker_0, # of connection points: 2
#     Edge 36, Type (0, 0), BuildingBlock: UVAHIK_clean_linker_0, # of connection points: 2
#     Edge 37, Type (0, 0), BuildingBlock: UVAHIK_clean_linker_0, # of connection points: 2
#     Edge 38, Type (0, 0), BuildingBlock: UVAHIK_clean_linker_0, # of connection points: 2
#     Edge 39, Type (0, 0), BuildingBlock: UVAHIK_clean_linker_0, # of connection points: 2
#     Edge 40, Type (0, 0), BuildingBlock: UVAHIK_clean_linker_0, # of connection points: 2
#     Edge 41, Type (0, 0), BuildingBlock: UVAHIK_clean_linker_0, # of connection points: 2
#     Edge 42, Type (0, 0), BuildingBlock: UVAHIK_clean_linker_0, # of connection points: 2
#     Edge 43, Type (0, 0), BuildingBlock: UVAHIK_clean_linker_0, # of connection points: 2
#     Edge 44, Type (0, 0), BuildingBlock: UVAHIK_clean_linker_0, # of connection points: 2
#     Edge 45, Type (0, 0), BuildingBlock: UVAHIK_clean_linker_0, # of connection points: 2
#     Edge 46, Type (0, 0), BuildingBlock: UVAHIK_clean_linker_0, # of connection points: 2
#     Edge 47, Type (0, 0), BuildingBlock: UVAHIK_clean_linker_0, # of connection points: 2
#     Edge 48, Type (0, 0), BuildingBlock: UVAHIK_clean_linker_0, # of connection points: 2
#     Edge 49, Type (0, 0), BuildingBlock: UVAHIK_clean_linker_0, # of connection points: 2
#     Edge 50, Type (0, 0), BuildingBlock: UVAHIK_clean_linker_0, # of connection points: 2
#     Edge 51, Type (0, 0), BuildingBlock: UVAHIK_clean_linker_0, # of connection points: 2
#     Edge 52, Type (0, 0), BuildingBlock: UVAHIK_clean_linker_0, # of connection points: 2
#     Edge 53, Type (0, 0), BuildingBlock: UVAHIK_clean_linker_0, # of connection points: 2
#     Edge 54, Type (0, 0), BuildingBlock: UVAHIK_clean_linker_0, # of connection points: 2
#     Edge 55, Type (0, 0), BuildingBlock: UVAHIK_clean_linker_0, # of connection points: 2
#     Edge 56, Type (0, 0), BuildingBlock: UVAHIK_clean_linker_0, # of connection points: 2
#     Edge 57, Type (0, 0), BuildingBlock: UVAHIK_clean_linker_0, # of connection points: 2
#     Edge 58, Type (0, 0), BuildingBlock: UVAHIK_clean_linker_0, # of connection points: 2
#     Edge 59, Type (0, 0), BuildingBlock: UVAHIK_clean_linker_0, # of connection points: 2
#     Edge 60, Type (0, 0), BuildingBlock: UVAHIK_clean_linker_0, # of connection points: 2
#     Edge 61, Type (0, 0), BuildingBlock: UVAHIK_clean_linker_0, # of connection points: 2
#     Edge 62, Type (0, 0), BuildingBlock: UVAHIK_clean_linker_0, # of connection points: 2
#     Edge 63, Type (0, 0), BuildingBlock: UVAHIK_clean_linker_0, # of connection points: 2
# Relax obj value: 0.193
# Max RMSD: 0.266
# Mean RMSD: 0.222
data_MOF--net-snl--node1-BETDAH_clean_sbu_0--edge1-UVAHIK_clean_linker_0
_symmetry_space_group_name_H-M    P1
_symmetry_Int_Tables_number       1
_symmetry_cell_setting            triclinic
loop_
_symmetry_equiv_pos_as_xyz
'x, y, z'
_cell_length_a     73.93968
_cell_length_b     74.21458
_cell_length_c     30.270471
_cell_angle_alpha  101.06826
_cell_angle_beta   91.57907
_cell_angle_gamma 89.921159
loop_
_atom_site_label
_atom_site_type_symbol
_atom_site_fract_x
_atom_site_fract_y
_atom_site_fract_z
_atom_type_partial_charge
Ho0 Ho 0.1444 0.6293 0.13234 0.0
Ho1 Ho 0.12809 0.63626 0.22382 0.0
C2 C 0.10107 0.63668 0.14235 0.0
C3 C 0.15308 0.6171 0.04945 0.0
C4 C 0.14829 0.6193 1.00308 0.0
C5 C 0.14989 0.60418 0.96771 0.0
C6 C 0.14692 0.6061 0.92301 0.0
C7 C 0.14232 0.62326 0.91263 0.0
C8 C 0.14033 0.63834 0.94832 0.0
C9 C 0.14325 0.63638 0.99313 0.0
C10 C 0.14377 0.66529 0.17292 0.0
C11 C 0.17141 0.63051 0.21603 0.0
C12 C 0.11882 0.64681 0.30687 0.0
C13 C 0.1227 0.64318 0.35269 0.0
C14 C 0.13964 0.64707 0.37476 0.0
C15 C 0.14237 0.64469 0.41934 0.0
C16 C 0.12825 0.63833 0.44273 0.0
C17 C 0.11143 0.63423 0.42026 0.0
C18 C 0.10868 0.63668 0.37592 0.0
C19 C 0.12881 0.60055 0.18095 0.0
O20 O 0.1139 0.62799 0.11676 0.0
O21 O 0.10476 0.6447 0.1844 0.0
O22 O 0.16102 0.63103 0.07574 0.0
O23 O 0.1412 0.60905 0.07041 0.0
O24 O 0.15661 0.65765 0.1478 0.0
O25 O 0.13135 0.65372 0.1732 0.0
O26 O 0.15806 0.63848 0.24065 0.0
O27 O 0.16853 0.62266 0.17333 0.0
O28 O 0.1105 0.63381 0.27837 0.0
O29 O 0.13124 0.65505 0.28789 0.0
O30 O 0.11562 0.60782 0.20531 0.0
O31 O 0.1412 0.6122 0.18262 0.0
H32 H 0.15386 0.59091 0.97462 0.0
H33 H 0.14879 0.59424 0.89648 0.0
H34 H 0.13656 0.65168 0.94162 0.0
H35 H 0.14186 0.64825 0.01989 0.0
H36 H 0.15073 0.65214 0.35785 0.0
H37 H 0.15555 0.64782 0.43548 0.0
H38 H 0.10017 0.62958 0.43736 0.0
H39 H 0.09543 0.63379 0.35997 0.0
Ho40 Ho 0.64613 0.89251 0.41166 0.0
Ho41 Ho 0.62856 0.88653 0.31871 0.0
C42 C 0.60236 0.88611 0.39859 0.0
C43 C 0.65568 0.90395 0.49557 0.0
C44 C 0.65076 0.90188 0.54141 0.0
C45 C 0.65219 0.91714 0.57674 0.0
C46 C 0.64912 0.91536 0.62113 0.0
C47 C 0.6446 0.89822 0.63129 0.0
C48 C 0.64277 0.883 0.59557 0.0
C49 C 0.64579 0.88481 0.55108 0.0
C50 C 0.64434 0.85688 0.36902 0.0
C51 C 0.67222 0.89113 0.32974 0.0
C52 C 0.61859 0.87633 0.23467 0.0
C53 C 0.62363 0.87847 0.18895 0.0
C54 C 0.62223 0.86325 0.15348 0.0
C55 C 0.62542 0.86508 0.10918 0.0
C56 C 0.63004 0.88224 0.09924 0.0
C57 C 0.63182 0.89742 0.13506 0.0
C58 C 0.62869 0.89555 0.17947 0.0
C59 C 0.63033 0.9219 0.36367 0.0
O60 O 0.6158 0.89397 0.42543 0.0
O61 O 0.60513 0.87877 0.35604 0.0
O62 O 0.66271 0.88966 0.46975 0.0
O63 O 0.64436 0.9128 0.4736 0.0
O64 O 0.65761 0.864 0.39535 0.0
O65 O 0.63211 0.8687 0.36875 0.0
O66 O 0.65833 0.88386 0.30404 0.0
O67 O 0.67014 0.8987 0.3726 0.0
O68 O 0.61223 0.89077 0.26131 0.0
O69 O 0.62943 0.86669 0.25584 0.0
O70 O 0.61671 0.91501 0.33827 0.0
O71 O 0.64256 0.91005 0.36203 0.0
H72 H 0.65609 0.93042 0.57011 0.0
H73 H 0.65086 0.92734 0.64768 0.0
H74 H 0.63906 0.86965 0.60201 0.0
H75 H 0.64452 0.87282 0.5244 0.0
H76 H 0.61824 0.84997 0.15993 0.0
H77 H 0.6237 0.85314 0.08254 0.0
H78 H 0.6356 0.91077 0.12878 0.0
H79 H 0.62994 0.90752 0.20623 0.0
Ho80 Ho 0.37119 0.3845 0.57983 0.0
Ho81 Ho 0.38731 0.39552 0.67261 0.0
C82 C 0.41477 0.38369 0.59558 0.0
C83 C 0.36116 0.38034 0.49578 0.0
C84 C 0.36741 0.38242 0.45101 0.0
C85 C 0.36847 0.39976 0.43891 0.0
C86 C 0.37186 0.40121 0.39446 0.0
C87 C 0.37417 0.38537 0.36119 0.0
C88 C 0.37383 0.36811 0.37384 0.0
C89 C 0.3704 0.36666 0.41816 0.0
C90 C 0.37083 0.35725 0.62793 0.0
C91 C 0.34391 0.39366 0.66016 0.0
C92 C 0.39765 0.40131 0.7567 0.0
C93 C 0.39155 0.39997 0.8021 0.0
C94 C 0.39015 0.38293 0.81561 0.0
C95 C 0.38676 0.38213 0.86044 0.0
C96 C 0.38476 0.39833 0.89274 0.0
C97 C 0.38551 0.41531 0.87875 0.0
C98 C 0.38894 0.41611 0.83401 0.0
C99 C 0.3872 0.42227 0.62233 0.0
O100 O 0.40142 0.38661 0.56762 0.0
O101 O 0.41181 0.38371 0.63821 0.0
O102 O 0.36844 0.36725 0.51365 0.0
O103 O 0.35828 0.39526 0.52554 0.0
O104 O 0.35804 0.36031 0.60028 0.0
O105 O 0.38369 0.36845 0.62761 0.0
O106 O 0.35802 0.3921 0.68684 0.0
O107 O 0.34574 0.39337 0.6167 0.0
O108 O 0.39011 0.41384 0.73738 0.0
O109 O 0.40063 0.38603 0.72828 0.0
O110 O 0.40037 0.41952 0.64931 0.0
O111 O 0.37457 0.41117 0.62458 0.0
H112 H 0.36608 0.41219 0.46332 0.0
H113 H 0.37189 0.41471 0.38581 0.0
H114 H 0.37586 0.35566 0.34924 0.0
H115 H 0.36953 0.35312 0.42641 0.0
H116 H 0.39225 0.37021 0.79197 0.0
H117 H 0.38645 0.36882 0.87011 0.0
H118 H 0.38374 0.42804 0.90257 0.0
H119 H 0.39007 0.42944 0.82464 0.0
Ho120 Ho 0.87769 0.11678 0.84577 0.0
Ho121 Ho 0.88399 0.13595 0.94997 0.0
C122 C 0.8843 0.16081 0.87655 0.0
C123 C 0.86278 0.10604 0.76673 0.0
C124 C 0.8656 0.10815 0.71981 0.0
C125 C 0.85076 0.10655 0.68948 0.0
C126 C 0.85299 0.10845 0.64481 0.0
C127 C 0.87018 0.11199 0.62933 0.0
C128 C 0.88505 0.11371 0.66007 0.0
C129 C 0.88278 0.11184 0.70485 0.0
C130 C 0.9136 0.12354 0.8657 0.0
C131 C 0.8784 0.09141 0.92285 0.0
C132 C 0.89527 0.14573 0.03299 0.0
C133 C 0.89297 0.14084 0.07772 0.0
C134 C 0.90805 0.14156 0.10715 0.0
C135 C 0.90621 0.13824 0.15079 0.0
C136 C 0.88917 0.13417 0.16624 0.0
C137 C 0.87412 0.13302 0.1362 0.0
C138 C 0.87599 0.13631 0.0924 0.0
C139 C 0.84957 0.13402 0.91546 0.0
O140 O 0.87532 0.14754 0.84886 0.0
O141 O 0.8923 0.15819 0.91444 0.0
O142 O 0.87476 0.09632 0.78466 0.0
O143 O 0.85783 0.12085 0.79472 0.0
O144 O 0.90716 0.11595 0.82624 0.0
O145 O 0.9004 0.12685 0.89128 0.0
O146 O 0.88226 0.10615 0.95402 0.0
O147 O 0.87523 0.09212 0.87965 0.0
O148 O 0.88147 0.15328 0.01557 0.0
O149 O 0.90379 0.1339 1.00302 0.0
O150 O 0.85547 0.14725 0.94711 0.0
O151 O 0.86175 0.12217 0.90667 0.0
H152 H 0.83736 0.10385 0.70042 0.0
H153 H 0.84116 0.10736 0.62254 0.0
H154 H 0.89851 0.11626 0.64939 0.0
H155 H 0.89444 0.11321 0.72773 0.0
H156 H 0.92129 0.14495 0.09653 0.0
H157 H 0.91818 0.13889 0.17247 0.0
H158 H 0.86077 0.13006 0.14688 0.0
H159 H 0.86413 0.13562 0.07034 0.0
Ho160 Ho 0.1435 0.39039 0.94263 0.0
Ho161 Ho 0.12566 0.38512 0.84998 0.0
C162 C 0.10022 0.38238 0.92975 0.0
C163 C 0.15327 0.40118 0.02657 0.0
C164 C 0.14815 0.39935 0.07235 0.0
C165 C 0.15035 0.4145 0.10772 0.0
C166 C 0.14704 0.41288 0.15208 0.0
C167 C 0.14151 0.39601 0.1621 0.0
C168 C 0.13894 0.38091 0.12638 0.0
C169 C 0.14219 0.38257 0.08191 0.0
C170 C 0.14307 0.35518 0.89673 0.0
C171 C 0.16908 0.39191 0.86068 0.0
C172 C 0.11523 0.37554 0.76623 0.0
C173 C 0.11894 0.37898 0.72067 0.0
C174 C 0.1356 0.37452 0.7 0.0
C175 C 0.13802 0.37641 0.6553 0.0
C176 C 0.12384 0.38275 0.63029 0.0
C177 C 0.10738 0.38764 0.6516 0.0
C178 C 0.10496 0.38571 0.69609 0.0
C179 C 0.12631 0.42006 0.89758 0.0
O180 O 0.11328 0.39081 0.95688 0.0
O181 O 0.10324 0.37541 0.88717 0.0
O182 O 0.15967 0.38658 1.00061 0.0
O183 O 0.14244 0.41059 1.00482 0.0
O184 O 0.15617 0.36249 0.9234 0.0
O185 O 0.13035 0.36655 0.89781 0.0
O186 O 0.15531 0.38492 0.83411 0.0
O187 O 0.16711 0.39783 0.9044 0.0
O188 O 0.1079 0.38893 0.79443 0.0
O189 O 0.12731 0.36651 0.78572 0.0
O190 O 0.11284 0.41306 0.87181 0.0
O191 O 0.13894 0.40862 0.89489 0.0
H192 H 0.15502 0.42754 0.10114 0.0
H193 H 0.14936 0.42473 0.1787 0.0
H194 H 0.13446 0.3678 0.1328 0.0
H195 H 0.14031 0.37068 0.05515 0.0
H196 H 0.14664 0.36923 0.71796 0.0
H197 H 0.15082 0.37237 0.63995 0.0
H198 H 0.09627 0.39291 0.63382 0.0
H199 H 0.09197 0.38919 0.71112 0.0
Ho200 Ho 0.87631 0.89873 0.17275 0.0
Ho201 Ho 0.87826 0.87833 0.07559 0.0
C202 C 0.88192 0.8541 0.15023 0.0
C203 C 0.86815 0.91024 0.25636 0.0
C204 C 0.86951 0.90494 0.30112 0.0
C205 C 0.85418 0.90659 0.32791 0.0
C206 C 0.85526 0.90313 0.37177 0.0
C207 C 0.87175 0.89798 0.39004 0.0
C208 C 0.88704 0.89597 0.36276 0.0
C209 C 0.88593 0.89939 0.31875 0.0
C210 C 0.90976 0.89704 0.13856 0.0
C211 C 0.87371 0.92281 0.0961 0.0
C212 C 0.88592 0.86663 0.9918 0.0
C213 C 0.88423 0.87186 0.94701 0.0
C214 C 0.89932 0.86999 0.91941 0.0
C215 C 0.89796 0.87353 0.87566 0.0
C216 C 0.88142 0.87897 0.85829 0.0
C217 C 0.86635 0.88115 0.88633 0.0
C218 C 0.86774 0.87768 0.93027 0.0
C219 C 0.84485 0.88103 0.11137 0.0
O220 O 0.87587 0.86855 0.1788 0.0
O221 O 0.88665 0.85534 0.1092 0.0
O222 O 0.88311 0.91459 0.2388 0.0
O223 O 0.85709 0.90067 0.22641 0.0
O224 O 0.90354 0.91094 0.16656 0.0
O225 O 0.8983 0.88411 0.13197 0.0
O226 O 0.879 0.90793 0.06809 0.0
O227 O 0.86937 0.92229 0.13807 0.0
O228 O 0.87113 0.86223 1.01001 0.0
O229 O 0.89715 0.87628 0.02124 0.0
O230 O 0.85043 0.86673 0.08349 0.0
O231 O 0.85679 0.89335 0.11656 0.0
H232 H 0.84139 0.91096 0.3152 0.0
H233 H 0.84326 0.90504 0.39183 0.0
H234 H 0.8999 0.89178 0.37544 0.0
H235 H 0.89798 0.89793 0.29883 0.0
H236 H 0.91214 0.86542 0.93143 0.0
H237 H 0.90979 0.87147 0.85499 0.0
H238 H 0.85346 0.88555 0.87431 0.0
H239 H 0.85588 0.87931 0.95085 0.0
Ho240 Ho 0.37567 0.61583 0.37179 0.0
Ho241 Ho 0.38212 0.63343 0.46982 0.0
C242 C 0.38169 0.66023 0.40096 0.0
C243 C 0.36392 0.60641 0.28885 0.0
C244 C 0.36618 0.61113 0.24399 0.0
C245 C 0.35118 0.60991 0.2142 0.0
C246 C 0.35307 0.61294 0.17032 0.0
C247 C 0.37006 0.61725 0.15512 0.0
C248 C 0.38505 0.61883 0.18545 0.0
C249 C 0.38313 0.61583 0.22946 0.0
C250 C 0.41092 0.61745 0.39914 0.0
C251 C 0.37773 0.58911 0.4422 0.0
C252 C 0.3928 0.64329 0.55345 0.0
C253 C 0.39045 0.63847 0.59819 0.0
C254 C 0.4054 0.63972 0.62819 0.0
C255 C 0.40344 0.63664 0.67201 0.0
C256 C 0.38642 0.63227 0.68697 0.0
C257 C 0.3715 0.63066 0.65647 0.0
C258 C 0.37349 0.63369 0.6125 0.0
C259 C 0.34695 0.63095 0.44006 0.0
O260 O 0.37376 0.64661 0.37214 0.0
O261 O 0.38935 0.65739 0.43892 0.0
O262 O 0.37762 0.59864 0.30585 0.0
O263 O 0.35585 0.61847 0.31906 0.0
O264 O 0.40369 0.6043 0.36969 0.0
O265 O 0.39941 0.62994 0.41043 0.0
O266 O 0.38504 0.60318 0.47049 0.0
O267 O 0.36993 0.59133 0.40364 0.0
O268 O 0.37891 0.65045 0.53555 0.0
O269 O 0.40164 0.63167 0.52381 0.0
O270 O 0.35352 0.64462 0.46913 0.0
O271 O 0.35897 0.61899 0.43073 0.0
H272 H 0.338 0.60621 0.22461 0.0
H273 H 0.34127 0.61138 0.1479 0.0
H274 H 0.39828 0.62237 0.17516 0.0
H275 H 0.39492 0.61695 0.25188 0.0
H276 H 0.41859 0.64348 0.618 0.0
H277 H 0.41519 0.63822 0.69458 0.0
H278 H 0.35825 0.62708 0.66658 0.0
H279 H 0.36174 0.63256 0.58996 0.0
Ho280 Ho 0.64611 0.12852 0.60746 0.0
Ho281 Ho 0.63076 0.13602 0.69997 0.0
C282 C 0.60285 0.13582 0.62007 0.0
C283 C 0.65411 0.11566 0.52444 0.0
C284 C 0.64926 0.1177 0.47797 0.0
C285 C 0.64891 0.10206 0.44361 0.0
C286 C 0.64618 0.10366 0.39861 0.0
C287 C 0.64381 0.121 0.38692 0.0
C288 C 0.6436 0.13663 0.42168 0.0
C289 C 0.64629 0.135 0.46676 0.0
C290 C 0.6455 0.16468 0.64647 0.0
C291 C 0.67401 0.13071 0.68991 0.0
C292 C 0.62215 0.14738 0.78318 0.0
C293 C 0.62678 0.14484 0.8294 0.0
C294 C 0.62722 0.16024 0.86444 0.0
C295 C 0.62979 0.15822 0.90917 0.0
C296 C 0.6319 0.14069 0.91995 0.0
C297 C 0.63202 0.12529 0.88455 0.0
C298 C 0.62948 0.12734 0.8397 0.0
C299 C 0.63165 0.10011 0.65833 0.0
O300 O 0.61539 0.12692 0.59383 0.0
O301 O 0.60702 0.14413 0.66159 0.0
O302 O 0.66252 0.12944 0.55009 0.0
O303 O 0.64211 0.10807 0.54613 0.0
O304 O 0.65805 0.15699 0.62048 0.0
O305 O 0.63325 0.15308 0.64818 0.0
O306 O 0.66083 0.13873 0.71502 0.0
O307 O 0.67077 0.12245 0.64764 0.0
O308 O 0.61413 0.13371 0.75613 0.0
O309 O 0.6341 0.15565 0.76289 0.0
O310 O 0.61852 0.10738 0.68292 0.0
O311 O 0.64381 0.1119 0.65897 0.0
H312 H 0.65114 0.08857 0.4515 0.0
H313 H 0.64608 0.0913 0.37292 0.0
H314 H 0.64195 0.15021 0.41399 0.0
H315 H 0.6465 0.1473 0.49268 0.0
H316 H 0.6252 0.17386 0.85727 0.0
H317 H 0.62997 0.17041 0.93539 0.0
H318 H 0.63347 0.11158 0.89155 0.0
H319 H 0.62919 0.11521 0.81326 0.0
Ho320 Ho 0.88299 0.38288 0.83684 0.0
Ho321 Ho 0.86593 0.38953 0.92797 0.0
C322 C 0.83957 0.38801 0.84314 0.0
C323 C 0.89248 0.3722 0.75399 0.0
C324 C 0.88775 0.37479 0.70778 0.0
C325 C 0.88738 0.35945 0.67251 0.0
C326 C 0.88439 0.36152 0.6279 0.0
C327 C 0.88176 0.37903 0.61743 0.0
C328 C 0.88176 0.39438 0.65301 0.0
C329 C 0.88469 0.39228 0.69772 0.0
C330 C 0.88206 0.41845 0.88032 0.0
C331 C 0.90933 0.38224 0.91947 0.0
C332 C 0.85692 0.40136 1.01078 0.0
C333 C 0.86177 0.39905 0.05714 0.0
C334 C 0.86201 0.41449 0.09209 0.0
C335 C 0.86502 0.41262 0.13685 0.0
C336 C 0.86781 0.3952 0.14774 0.0
C337 C 0.86797 0.37975 0.11245 0.0
C338 C 0.86502 0.38166 0.06761 0.0
C339 C 0.86706 0.35367 0.88637 0.0
O340 O 0.8532 0.38033 0.8192 0.0
O341 O 0.84196 0.39591 0.88598 0.0
O342 O 0.89984 0.38611 0.78166 0.0
O343 O 0.88088 0.36326 0.77363 0.0
O344 O 0.89541 0.41124 0.85641 0.0
O345 O 0.86959 0.40681 0.87813 0.0
O346 O 0.89637 0.39084 0.94474 0.0
O347 O 0.90602 0.37448 0.87706 0.0
O348 O 0.84917 0.38742 0.98407 0.0
O349 O 0.86865 0.40974 0.99013 0.0
O350 O 0.85404 0.36097 0.91136 0.0
O351 O 0.87935 0.36544 0.88719 0.0
H352 H 0.8898 0.34584 0.6794 0.0
H353 H 0.8847 0.34942 0.60147 0.0
H354 H 0.87954 0.40804 0.64629 0.0
H355 H 0.88483 0.40436 0.72428 0.0
H356 H 0.85944 0.42803 0.08486 0.0
H357 H 0.8646 0.42479 0.16307 0.0
H358 H 0.87033 0.36616 0.11949 0.0
H359 H 0.86499 0.3695 0.04127 0.0
Ho360 Ho 0.38301 0.13768 0.69311 0.0
Ho361 Ho 0.36671 0.13035 0.60002 0.0
C362 C 0.33969 0.13218 0.6803 0.0
C363 C 0.39208 0.14871 0.77746 0.0
C364 C 0.38734 0.14612 0.82308 0.0
C365 C 0.38459 0.16164 0.85681 0.0
C366 C 0.3818 0.15981 0.90128 0.0
C367 C 0.38177 0.14239 0.91322 0.0
C368 C 0.38401 0.1268 0.87906 0.0
C369 C 0.38677 0.12863 0.83448 0.0
C370 C 0.38208 0.10175 0.65115 0.0
C371 C 0.41015 0.13771 0.6158 0.0
C372 C 0.35813 0.11803 0.51586 0.0
C373 C 0.36276 0.12051 0.4701 0.0
C374 C 0.36521 0.10496 0.43631 0.0
C375 C 0.36788 0.10674 0.39175 0.0
C376 C 0.3681 0.12417 0.37982 0.0
C377 C 0.36615 0.13979 0.41406 0.0
C378 C 0.36352 0.13799 0.4587 0.0
C379 C 0.36746 0.16653 0.63944 0.0
O380 O 0.35317 0.1403 0.70604 0.0
O381 O 0.34241 0.12394 0.63819 0.0
O382 O 0.39978 0.135 0.75108 0.0
O383 O 0.38039 0.1573 0.75583 0.0
O384 O 0.3954 0.10929 0.67662 0.0
O385 O 0.36968 0.1133 0.65085 0.0
O386 O 0.39729 0.12882 0.58871 0.0
O387 O 0.40646 0.14598 0.65706 0.0
O388 O 0.34981 0.13154 0.54133 0.0
O389 O 0.37022 0.11027 0.53835 0.0
O390 O 0.35464 0.15863 0.61278 0.0
O391 O 0.37992 0.1551 0.64178 0.0
H392 H 0.38497 0.17526 0.84891 0.0
H393 H 0.37978 0.1721 0.9264 0.0
H394 H 0.38423 0.11317 0.88696 0.0
H395 H 0.38888 0.1164 0.80923 0.0
H396 H 0.36468 0.09134 0.44425 0.0
H397 H 0.36968 0.09442 0.36657 0.0
H398 H 0.36607 0.15342 0.40619 0.0
H399 H 0.36166 0.15025 0.48404 0.0
Ho400 Ho 0.63468 0.63956 0.43693 0.0
Ho401 Ho 0.63788 0.62033 0.33873 0.0
C402 C 0.64033 0.59521 0.4132 0.0
C403 C 0.62574 0.65045 0.52 0.0
C404 C 0.6277 0.6454 0.56478 0.0
C405 C 0.61291 0.64785 0.59331 0.0
C406 C 0.61454 0.64437 0.63704 0.0
C407 C 0.63105 0.6384 0.65335 0.0
C408 C 0.6458 0.63564 0.62436 0.0
C409 C 0.64414 0.63905 0.58043 0.0
C410 C 0.6685 0.63756 0.40376 0.0
C411 C 0.6319 0.6647 0.36421 0.0
C412 C 0.64693 0.60956 0.25559 0.0
C413 C 0.6454 0.61479 0.21091 0.0
C414 C 0.66048 0.61259 0.18333 0.0
C415 C 0.65921 0.61601 0.13951 0.0
C416 C 0.64277 0.62169 0.12215 0.0
C417 C 0.62773 0.62427 0.15027 0.0
C418 C 0.62904 0.62088 0.19425 0.0
C419 C 0.60407 0.62133 0.3709 0.0
O420 O 0.63447 0.6096 0.44205 0.0
O421 O 0.64511 0.59653 0.37204 0.0
O422 O 0.64025 0.6561 0.50282 0.0
O423 O 0.61549 0.63982 0.48996 0.0
O424 O 0.66267 0.6515 0.43241 0.0
O425 O 0.65659 0.62523 0.39652 0.0
O426 O 0.63876 0.65076 0.33551 0.0
O427 O 0.62615 0.6627 0.40387 0.0
O428 O 0.63216 0.6043 0.27232 0.0
O429 O 0.65729 0.6198 0.28602 0.0
O430 O 0.61046 0.60786 0.34191 0.0
O431 O 0.61546 0.63426 0.37897 0.0
H432 H 0.60014 0.6528 0.58202 0.0
H433 H 0.60297 0.64688 0.65851 0.0
H434 H 0.65864 0.63083 0.63562 0.0
H435 H 0.65574 0.63696 0.55897 0.0
H436 H 0.67321 0.60781 0.19541 0.0
H437 H 0.671 0.61366 0.11875 0.0
H438 H 0.61493 0.62886 0.13823 0.0
H439 H 0.6172 0.62277 0.21492 0.0
Ho440 Ho 0.13418 0.87956 0.07376 0.0
Ho441 Ho 0.1377 0.89976 0.17106 0.0
C442 C 0.13992 0.92395 0.09502 0.0
C443 C 0.12537 0.86822 0.98937 0.0
C444 C 0.12738 0.87325 0.94463 0.0
C445 C 0.11216 0.8724 0.91557 0.0
C446 C 0.11373 0.87579 0.87189 0.0
C447 C 0.13062 0.88005 0.85605 0.0
C448 C 0.14584 0.8812 0.88555 0.0
C449 C 0.14424 0.87787 0.92939 0.0
C450 C 0.16815 0.88183 0.11088 0.0
C451 C 0.13168 0.85523 0.14761 0.0
C452 C 0.14655 0.91095 0.2556 0.0
C453 C 0.14481 0.90578 0.30028 0.0
C454 C 0.16021 0.9064 0.32869 0.0
C455 C 0.15887 0.90304 0.37246 0.0
C456 C 0.14203 0.89903 0.38904 0.0
C457 C 0.12664 0.89807 0.36014 0.0
C458 C 0.12801 0.90138 0.31623 0.0
C459 C 0.10363 0.89809 0.13521 0.0
O460 O 0.13378 0.90925 0.06677 0.0
O461 O 0.14495 0.9232 0.13703 0.0
O462 O 0.13983 0.8628 1.00893 0.0
O463 O 0.11499 0.87869 0.0178 0.0
O464 O 0.16201 0.86767 0.08251 0.0
O465 O 0.15643 0.89429 0.1159 0.0
O466 O 0.13867 0.8695 0.17616 0.0
O467 O 0.12572 0.85672 0.10699 0.0
O468 O 0.13192 0.9161 0.23631 0.0
O469 O 0.15702 0.90078 0.2269 0.0
O470 O 0.11036 0.912 0.16332 0.0
O471 O 0.115 0.8852 0.12936 0.0
H472 H 0.09904 0.86876 0.92639 0.0
H473 H 0.10175 0.87455 0.8501 0.0
H474 H 0.15901 0.88468 0.87475 0.0
H475 H 0.15622 0.8787 0.9511 0.0
H476 H 0.1733 0.90988 0.31732 0.0
H477 H 0.17098 0.90413 0.39377 0.0
H478 H 0.1135 0.89477 0.37146 0.0
H479 H 0.11589 0.90075 0.29508 0.0
Ho480 Ho 0.88342 0.63581 0.20174 0.0
Ho481 Ho 0.86742 0.62649 0.09983 0.0
C482 C 0.83985 0.63054 0.18301 0.0
C483 C 0.8915 0.6487 0.28576 0.0
C484 C 0.88704 0.64584 0.33125 0.0
C485 C 0.88785 0.66081 0.36738 0.0
C486 C 0.88509 0.65835 0.4114 0.0
C487 C 0.8815 0.64079 0.42039 0.0
C488 C 0.88022 0.62585 0.38383 0.0
C489 C 0.88296 0.62834 0.3397 0.0
C490 C 0.88272 0.60006 0.15896 0.0
C491 C 0.9101 0.63583 0.12221 0.0
C492 C 0.85897 0.60947 0.01911 0.0
C493 C 0.86178 0.61198 0.97253 0.0
C494 C 0.86007 0.59687 0.9369 0.0
C495 C 0.86201 0.59906 0.89233 0.0
C496 C 0.86569 0.61645 0.88236 0.0
C497 C 0.86765 0.63153 0.91841 0.0
C498 C 0.86573 0.62931 0.96302 0.0
C499 C 0.8717 0.66343 0.12906 0.0
O500 O 0.85344 0.63604 0.21197 0.0
O501 O 0.84213 0.6244 0.13923 0.0
O502 O 0.90057 0.63565 0.26055 0.0
O503 O 0.87887 0.6557 0.26305 0.0
O504 O 0.89503 0.60694 0.18875 0.0
O505 O 0.87101 0.61203 0.15606 0.0
O506 O 0.89811 0.6256 0.09472 0.0
O507 O 0.90586 0.64459 0.1629 0.0
O508 O 0.8484 0.62144 0.04342 0.0
O509 O 0.87334 0.6055 0.04173 0.0
O510 O 0.86486 0.65605 0.08982 0.0
O511 O 0.87571 0.65053 0.14886 0.0
H512 H 0.89092 0.67444 0.36163 0.0
H513 H 0.88584 0.67024 0.43846 0.0
H514 H 0.87762 0.61211 0.38939 0.0
H515 H 0.88225 0.61655 0.31234 0.0
H516 H 0.85711 0.58336 0.94354 0.0
H517 H 0.86074 0.58706 0.86567 0.0
H518 H 0.87029 0.64516 0.91215 0.0
H519 H 0.86713 0.64118 0.99004 0.0
Ho520 Ho 0.13673 0.13692 0.9461 0.0
Ho521 Ho 0.14071 0.11732 0.8424 0.0
C522 C 0.1411 0.09231 0.92024 0.0
C523 C 0.1272 0.14727 0.02886 0.0
C524 C 0.12945 0.14204 0.07343 0.0
C525 C 0.11463 0.14365 0.10182 0.0
C526 C 0.11644 0.13977 0.14515 0.0
C527 C 0.13317 0.13422 0.16122 0.0
C528 C 0.14799 0.13234 0.13238 0.0
C529 C 0.14614 0.13616 0.08885 0.0
C530 C 0.17033 0.13483 0.91143 0.0
C531 C 0.13411 0.16136 0.87163 0.0
C532 C 0.15467 0.1061 0.76454 0.0
C533 C 0.15204 0.10827 0.71735 0.0
C534 C 0.16687 0.10589 0.68899 0.0
C535 C 0.16495 0.10811 0.64424 0.0
C536 C 0.1481 0.11277 0.6268 0.0
C537 C 0.13321 0.1151 0.65541 0.0
C538 C 0.13517 0.11293 0.70033 0.0
C539 C 0.10526 0.12411 0.86215 0.0
O540 O 0.13826 0.10722 0.95117 0.0
O541 O 0.14328 0.09278 0.87691 0.0
O542 O 0.14142 0.15373 1.01212 0.0
O543 O 0.11747 0.13622 0.99845 0.0
O544 O 0.16501 0.14835 0.94217 0.0
O545 O 0.15805 0.12287 0.9032 0.0
O546 O 0.14248 0.14806 0.84391 0.0
O547 O 0.12739 0.15893 0.91012 0.0
O548 O 0.14225 0.0969 0.78116 0.0
O549 O 0.16032 0.12073 0.79297 0.0
O550 O 0.11079 0.11643 0.82266 0.0
O551 O 0.11905 0.12754 0.88761 0.0
H552 H 0.10165 0.14822 0.09068 0.0
H553 H 0.1048 0.14159 0.1665 0.0
H554 H 0.16101 0.12788 0.14343 0.0
H555 H 0.15777 0.13469 0.06749 0.0
H556 H 0.18 0.10232 0.70151 0.0
H557 H 0.17665 0.10595 0.62315 0.0
H558 H 0.1201 0.11889 0.6433 0.0
H559 H 0.12357 0.11498 0.7218 0.0
Ho560 Ho 0.63695 0.37919 0.55024 0.0
Ho561 Ho 0.63886 0.39945 0.64795 0.0
C562 C 0.64229 0.42374 0.57257 0.0
C563 C 0.6292 0.36765 0.46547 0.0
C564 C 0.63165 0.37271 0.42087 0.0
C565 C 0.61682 0.37918 0.39848 0.0
C566 C 0.61832 0.38231 0.3546 0.0
C567 C 0.63467 0.37891 0.3318 0.0
C568 C 0.64964 0.37282 0.35459 0.0
C569 C 0.64814 0.36971 0.39855 0.0
C570 C 0.67023 0.38164 0.59073 0.0
C571 C 0.63333 0.35494 0.62413 0.0
C572 C 0.64622 0.41095 0.73307 0.0
C573 C 0.6449 0.40518 0.77722 0.0
C574 C 0.66027 0.3986 0.79739 0.0
C575 C 0.65967 0.39488 0.84095 0.0
C576 C 0.64371 0.39776 0.86559 0.0
C577 C 0.62825 0.40403 0.84506 0.0
C578 C 0.62885 0.40774 0.8015 0.0
C579 C 0.60566 0.39787 0.60768 0.0
O580 O 0.63705 0.40895 0.54317 0.0
O581 O 0.6463 0.42305 0.61515 0.0
O582 O 0.64347 0.36238 0.4861 0.0
O583 O 0.61837 0.37791 0.49316 0.0
O584 O 0.66459 0.36745 0.56166 0.0
O585 O 0.65845 0.39403 0.59464 0.0
O586 O 0.63991 0.36924 0.65328 0.0
O587 O 0.62798 0.35638 0.58302 0.0
O588 O 0.63117 0.41463 0.71299 0.0
O589 O 0.65784 0.40235 0.70475 0.0
O590 O 0.61181 0.41179 0.63674 0.0
O591 O 0.61697 0.38495 0.60355 0.0
H592 H 0.60389 0.38147 0.41459 0.0
H593 H 0.60659 0.38726 0.3384 0.0
H594 H 0.66237 0.36986 0.33794 0.0
H595 H 0.6598 0.36453 0.41454 0.0
H596 H 0.67291 0.39667 0.77984 0.0
H597 H 0.67177 0.38985 0.85544 0.0
H598 H 0.61581 0.40666 0.8632 0.0
H599 H 0.61682 0.41306 0.78736 0.0
Ho600 Ho 0.38446 0.88196 0.33925 0.0
Ho601 Ho 0.369 0.88896 0.43059 0.0
C602 C 0.34123 0.88689 0.34824 0.0
C603 C 0.39308 0.87102 0.25588 0.0
C604 C 0.3883 0.87372 0.20981 0.0
C605 C 0.38528 0.85826 0.17566 0.0
C606 C 0.38255 0.86017 0.13089 0.0
C607 C 0.38286 0.87761 0.11913 0.0
C608 C 0.38534 0.89316 0.15365 0.0
C609 C 0.38804 0.89124 0.19853 0.0
C610 C 0.38339 0.91791 0.38094 0.0
C611 C 0.41237 0.88218 0.41863 0.0
C612 C 0.36085 0.90122 0.5138 0.0
C613 C 0.36571 0.8989 0.5601 0.0
C614 C 0.36842 0.91455 0.59384 0.0
C615 C 0.37121 0.91294 0.63881 0.0
C616 C 0.37125 0.89559 0.65114 0.0
C617 C 0.36908 0.87986 0.617 0.0
C618 C 0.36635 0.88149 0.57195 0.0
C619 C 0.36978 0.85278 0.39115 0.0
O620 O 0.35449 0.87887 0.32354 0.0
O621 O 0.34437 0.8952 0.3905 0.0
O622 O 0.40107 0.88462 0.28326 0.0
O623 O 0.38127 0.86252 0.27601 0.0
O624 O 0.39662 0.9106 0.35678 0.0
O625 O 0.37118 0.90612 0.38013 0.0
O626 O 0.39968 0.89091 0.44467 0.0
O627 O 0.40829 0.87385 0.37712 0.0
O628 O 0.35249 0.88756 0.48754 0.0
O629 O 0.37278 0.90909 0.49257 0.0
O630 O 0.35699 0.8605 0.41628 0.0
O631 O 0.3821 0.86441 0.39022 0.0
H632 H 0.38543 0.84462 0.1835 0.0
H633 H 0.38034 0.84792 0.1054 0.0
H634 H 0.38582 0.90679 0.14586 0.0
H635 H 0.39036 0.90344 0.22414 0.0
H636 H 0.368 0.92812 0.58552 0.0
H637 H 0.37318 0.92532 0.66399 0.0
H638 H 0.36887 0.86629 0.6252 0.0
H639 H 0.36429 0.86916 0.54664 0.0
C640 C 0.14731 0.64088 0.85058 0.0
C641 C 0.14018 0.62543 0.86473 0.0
C642 C 0.14605 0.6425 0.80524 0.0
C643 C 0.12075 0.62499 0.69805 0.0
H644 H 0.1623 0.64268 0.64332 0.0
C645 C 0.12325 0.62138 0.50596 0.0
C646 C 0.13077 0.63641 0.49071 0.0
C647 C 0.12473 0.62005 0.55141 0.0
C648 C 0.15048 0.63792 0.65813 0.0
H649 H 0.12571 0.59977 0.84215 0.0
H650 H 0.1237 0.60248 0.76316 0.0
H651 H 0.16383 0.6407 0.72284 0.0
H652 H 0.14585 0.66178 0.51162 0.0
H653 H 0.14838 0.65951 0.5909 0.0
H654 H 0.10736 0.62226 0.63351 0.0
C655 C 0.1302 0.61342 0.78715 0.0
C656 C 0.15136 0.63679 0.70382 0.0
C657 C 0.13151 0.61177 0.83244 0.0
C658 C 0.1401 0.6499 0.52203 0.0
C659 C 0.14154 0.64859 0.56757 0.0
C660 C 0.11985 0.62616 0.65243 0.0
C661 C 0.13755 0.62875 0.77287 0.0
C662 C 0.13652 0.63026 0.72437 0.0
C663 C 0.13373 0.63372 0.58298 0.0
C664 C 0.13472 0.63258 0.63176 0.0
H665 H 0.15423 0.65158 0.87439 0.0
H666 H 0.15169 0.65459 0.79557 0.0
H667 H 0.10895 0.62018 0.71287 0.0
H668 H 0.11624 0.61058 0.48267 0.0
H669 H 0.11888 0.6082 0.56176 0.0
C670 C 0.64104 0.87063 0.0207 0.0
C671 C 0.63238 0.88431 0.05156 0.0
C672 C 0.64251 0.87219 0.97554 0.0
C673 C 0.63994 0.90587 0.89902 0.0
H674 H 0.63278 0.86239 0.80619 0.0
C675 C 0.63376 0.90987 0.70996 0.0
C676 C 0.64238 0.89619 0.67904 0.0
C677 C 0.63236 0.90833 0.75515 0.0
C678 C 0.63502 0.87465 0.83164 0.0
H679 H 0.61842 0.91038 0.05864 0.0
H680 H 0.62097 0.9131 0.98006 0.0
H681 H 0.63108 0.86005 0.88519 0.0
H682 H 0.65638 0.87013 0.67191 0.0
H683 H 0.65396 0.86744 0.75053 0.0
H684 H 0.64388 0.92047 0.84547 0.0
C685 C 0.62688 0.90126 0.9909 0.0
C686 C 0.63405 0.8733 0.87706 0.0
C687 C 0.62543 0.89971 0.03608 0.0
C688 C 0.64939 0.8808 0.6945 0.0
C689 C 0.64801 0.87927 0.73971 0.0
C690 C 0.6409 0.90722 0.8536 0.0
C691 C 0.63534 0.88746 0.9599 0.0
C692 C 0.6365 0.8889 0.91143 0.0
C693 C 0.63957 0.89306 0.77076 0.0
C694 C 0.63845 0.89163 0.81924 0.0
H695 H 0.6468 0.85871 0.03151 0.0
H696 H 0.64941 0.86145 0.95293 0.0
H697 H 0.64217 0.91813 0.92447 0.0
H698 H 0.62795 0.92177 0.69917 0.0
H699 H 0.62547 0.91907 0.7778 0.0
C700 C 0.38632 0.40065 0.30057 0.0
C701 C 0.37587 0.38672 0.31307 0.0
C702 C 0.38742 0.40207 0.25527 0.0
C703 C 0.38033 0.37531 0.13953 0.0
H704 H 0.3779 0.42324 0.10654 0.0
C705 C 0.37225 0.38396 0.95443 0.0
C706 C 0.3829 0.39758 0.94118 0.0
C707 C 0.37119 0.38286 0.99991 0.0
C708 C 0.37877 0.40976 0.11523 0.0
H709 H 0.35808 0.3636 0.28768 0.0
H710 H 0.36003 0.36604 0.20899 0.0
H711 H 0.37695 0.42082 0.1857 0.0
H712 H 0.4009 0.42063 0.96556 0.0
H713 H 0.39895 0.41878 0.04469 0.0
H714 H 0.38213 0.36424 0.0691 0.0
C715 C 0.36767 0.37567 0.23403 0.0
C716 C 0.37826 0.40838 0.16061 0.0
C717 C 0.36657 0.37425 0.27921 0.0
C718 C 0.39229 0.41018 0.97457 0.0
C719 C 0.39121 0.4091 0.02 0.0
C720 C 0.38083 0.37669 0.09418 0.0
C721 C 0.37808 0.38959 0.22147 0.0
C722 C 0.379 0.39113 0.1733 0.0
C723 C 0.38073 0.39537 0.03321 0.0
C724 C 0.38003 0.39393 0.08147 0.0
H725 H 0.39379 0.41036 0.32576 0.0
H726 H 0.39574 0.41282 0.24668 0.0
H727 H 0.38122 0.36183 0.14817 0.0
H728 H 0.36466 0.37418 0.92966 0.0
H729 H 0.36277 0.37229 1.00902 0.0
C730 C 0.86263 0.10269 0.54614 0.0
C731 C 0.87249 0.11391 0.58144 0.0
C732 C 0.86451 0.10467 0.50138 0.0
C733 C 0.87984 0.13779 0.43218 0.0
H734 H 0.87988 0.09489 0.33617 0.0
C735 C 0.89706 0.14259 0.24932 0.0
C736 C 0.88715 0.1316 0.21374 0.0
C737 C 0.89522 0.1403 0.29384 0.0
C738 C 0.87968 0.10705 0.36246 0.0
H739 H 0.8921 0.1361 0.59673 0.0
H740 H 0.89566 0.13928 0.51876 0.0
H741 H 0.87702 0.09111 0.41394 0.0
H742 H 0.86755 0.10943 0.19768 0.0
H743 H 0.86408 0.10569 0.27538 0.0
H744 H 0.88249 0.15373 0.38076 0.0
C745 C 0.88627 0.12907 0.52576 0.0
C746 C 0.87805 0.10488 0.40719 0.0
C747 C 0.8844 0.12708 0.57055 0.0
C748 C 0.8753 0.11826 0.22411 0.0
C749 C 0.87346 0.11597 0.26871 0.0
C750 C 0.88148 0.13996 0.38749 0.0
C751 C 0.87631 0.11793 0.49051 0.0
C752 C 0.87812 0.12022 0.44273 0.0
C753 C 0.88339 0.12697 0.30425 0.0
C754 C 0.88145 0.12462 0.35194 0.0
H755 H 0.8535 0.09223 0.553 0.0
H756 H 0.85647 0.09596 0.47533 0.0
H757 H 0.87963 0.14996 0.45844 0.0
H758 H 0.90613 0.15317 0.24291 0.0
H759 H 0.90326 0.1489 0.3201 0.0
C760 C 0.1453 0.37851 0.22534 0.0
C761 C 0.13898 0.39413 0.20976 0.0
C762 C 0.14365 0.37711 0.27055 0.0
C763 C 0.11819 0.3956 0.37303 0.0
H764 H 0.15821 0.37633 0.43507 0.0
C765 C 0.11144 0.37894 0.55067 0.0
C766 C 0.12591 0.38382 0.58188 0.0
C767 C 0.11317 0.3801 0.5054 0.0
C768 C 0.14695 0.38186 0.41835 0.0
H769 H 0.12559 0.42033 0.22958 0.0
H770 H 0.12286 0.41797 0.30838 0.0
H771 H 0.16083 0.37865 0.35611 0.0
H772 H 0.15361 0.39376 0.58943 0.0
H773 H 0.15664 0.39568 0.5103 0.0
H774 H 0.1044 0.39904 0.43536 0.0
C775 C 0.12903 0.40675 0.2856 0.0
C776 C 0.14837 0.38299 0.3729 0.0
C777 C 0.13075 0.40819 0.24046 0.0
C778 C 0.14224 0.38969 0.56635 0.0
C779 C 0.14399 0.3908 0.52094 0.0
C780 C 0.11674 0.39439 0.41838 0.0
C781 C 0.13556 0.39124 0.30132 0.0
C782 C 0.13401 0.38989 0.34965 0.0
C783 C 0.12943 0.3861 0.48992 0.0
C784 C 0.1311 0.3875 0.44166 0.0
H785 H 0.15187 0.3675 0.20279 0.0
H786 H 0.14864 0.36488 0.28134 0.0
H787 H 0.1068 0.40083 0.35614 0.0
H788 H 0.09879 0.37396 0.56105 0.0
H789 H 0.10179 0.37603 0.48234 0.0
C790 C 0.89389 0.89038 0.79185 0.0
C791 C 0.87987 0.88181 0.81075 0.0
C792 C 0.89282 0.8923 0.74671 0.0
C793 C 0.86989 0.87279 0.63741 0.0
H794 H 0.88709 0.91717 0.60224 0.0
C795 C 0.85895 0.8867 0.45636 0.0
C796 C 0.87304 0.8953 0.43775 0.0
C797 C 0.85983 0.88488 0.5016 0.0
C798 C 0.88243 0.90458 0.61134 0.0
H799 H 0.85365 0.8686 0.79656 0.0
H800 H 0.85164 0.8722 0.71812 0.0
H801 H 0.88824 0.91471 0.68143 0.0
H802 H 0.89915 0.9087 0.45263 0.0
H803 H 0.90083 0.90523 0.53112 0.0
H804 H 0.86411 0.86265 0.5673 0.0
C805 C 0.86358 0.87729 0.73814 0.0
C806 C 0.88307 0.90317 0.65686 0.0
C807 C 0.86463 0.87542 0.78335 0.0
C808 C 0.88812 0.90184 0.46556 0.0
C809 C 0.88898 0.90006 0.51083 0.0
C810 C 0.86926 0.87419 0.59187 0.0
C811 C 0.87771 0.88566 0.71909 0.0
C812 C 0.87683 0.88725 0.67056 0.0
C813 C 0.8748 0.89164 0.52958 0.0
C814 C 0.87553 0.8901 0.57816 0.0
H815 H 0.90575 0.89564 0.812 0.0
H816 H 0.90404 0.89868 0.73322 0.0
H817 H 0.86524 0.8602 0.64651 0.0
H818 H 0.84721 0.88133 0.43591 0.0
H819 H 0.84858 0.87846 0.51484 0.0
C820 C 0.39755 0.62093 0.75632 0.0
C821 C 0.38426 0.62995 0.73454 0.0
C822 C 0.39591 0.61944 0.80149 0.0
C823 C 0.37294 0.64072 0.90617 0.0
H824 H 0.38713 0.59605 0.94624 0.0
C825 C 0.35884 0.62855 0.08579 0.0
C826 C 0.37215 0.61953 0.1075 0.0
C827 C 0.36043 0.63003 0.0406 0.0
C828 C 0.38332 0.60872 0.93579 0.0
H829 H 0.35874 0.64444 0.74363 0.0
H830 H 0.35571 0.64157 0.82202 0.0
H831 H 0.38939 0.59788 0.86702 0.0
H832 H 0.39765 0.605 0.09823 0.0
H833 H 0.40059 0.60786 0.01981 0.0
H834 H 0.36687 0.65156 0.97495 0.0
C835 C 0.36754 0.6358 0.80429 0.0
C836 C 0.38459 0.60976 0.89025 0.0
C837 C 0.36916 0.63725 0.75907 0.0
C838 C 0.38722 0.61221 0.08285 0.0
C839 C 0.38879 0.61364 0.03762 0.0
C840 C 0.37166 0.63967 0.95172 0.0
C841 C 0.38094 0.62697 0.82623 0.0
C842 C 0.37943 0.62578 0.87477 0.0
C843 C 0.37537 0.62248 0.01576 0.0
C844 C 0.37684 0.62366 0.9672 0.0
H845 H 0.40927 0.61497 0.73843 0.0
H846 H 0.40658 0.61268 0.81725 0.0
H847 H 0.36912 0.65339 0.89572 0.0
H848 H 0.34714 0.63453 0.10376 0.0
H849 H 0.34974 0.6368 0.0249 0.0
C850 C 0.62264 0.1493 1.00067 0.0
C851 C 0.63332 0.13853 0.96795 0.0
C852 C 0.62375 0.14723 0.04564 0.0
C853 C 0.65341 0.12947 0.1281 0.0
H854 H 0.60957 0.13143 0.19628 0.0
C855 C 0.65291 0.11188 0.30615 0.0
C856 C 0.64223 0.12277 0.33865 0.0
C857 C 0.65174 0.11368 0.26099 0.0
C858 C 0.62198 0.13106 0.17793 0.0
H859 H 0.65366 0.11717 0.95733 0.0
H860 H 0.65537 0.11335 0.03567 0.0
H861 H 0.60777 0.13465 0.11765 0.0
H862 H 0.62176 0.14401 0.34864 0.0
H863 H 0.61994 0.14738 0.27002 0.0
H864 H 0.66762 0.1259 0.1884 0.0
C865 C 0.64626 0.12355 0.02655 0.0
C866 C 0.62095 0.1329 0.13276 0.0
C867 C 0.64514 0.1256 0.98149 0.0
C868 C 0.6303 0.1355 0.32467 0.0
C869 C 0.62911 0.13729 0.27944 0.0
C870 C 0.65444 0.12763 0.17328 0.0
C871 C 0.63555 0.13433 0.05922 0.0
C872 C 0.63665 0.13216 0.10724 0.0
C873 C 0.63985 0.12643 0.247 0.0
C874 C 0.63874 0.12841 0.19883 0.0
H875 H 0.6132 0.15921 0.99147 0.0
H876 H 0.61544 0.15592 0.06988 0.0
H877 H 0.66581 0.12911 0.10975 0.0
H878 H 0.66244 0.10211 0.31567 0.0
H879 H 0.66007 0.10493 0.23694 0.0
C880 C 0.88008 0.40594 0.22706 0.0
C881 C 0.86992 0.39315 0.19577 0.0
C882 C 0.88147 0.40441 0.27245 0.0
C883 C 0.87542 0.37145 0.34935 0.0
H884 H 0.87343 0.41561 0.4413 0.0
C885 C 0.86934 0.36857 0.53816 0.0
C886 C 0.8796 0.38125 0.56953 0.0
C887 C 0.86798 0.37018 0.49284 0.0
C888 C 0.87421 0.40314 0.41611 0.0
H889 H 0.85316 0.36873 0.18814 0.0
H890 H 0.85554 0.36607 0.2671 0.0
H891 H 0.87175 0.41793 0.36205 0.0
H892 H 0.8965 0.40557 0.57737 0.0
H893 H 0.89413 0.40838 0.49848 0.0
H894 H 0.87787 0.35666 0.4034 0.0
C895 C 0.8627 0.37715 0.25646 0.0
C896 C 0.87326 0.40447 0.37055 0.0
C897 C 0.86134 0.37867 0.21106 0.0
C898 C 0.88826 0.39572 0.55439 0.0
C899 C 0.88691 0.39732 0.50904 0.0
C900 C 0.87636 0.37012 0.3949 0.0
C901 C 0.87271 0.39006 0.28787 0.0
C902 C 0.87385 0.38864 0.3365 0.0
C903 C 0.87684 0.38451 0.47755 0.0
C904 C 0.87576 0.38595 0.42894 0.0
H905 H 0.8871 0.41711 0.21642 0.0
H906 H 0.88956 0.41442 0.29541 0.0
H907 H 0.87621 0.35897 0.32417 0.0
H908 H 0.86225 0.35742 0.54869 0.0
H909 H 0.85983 0.36025 0.46981 0.0
C910 C 0.37994 0.14031 0.3201 0.0
C911 C 0.36978 0.12597 0.33173 0.0
C912 C 0.38122 0.14208 0.27502 0.0
C913 C 0.35849 0.12807 0.16253 0.0
H914 H 0.40406 0.14224 0.11861 0.0
C915 C 0.36991 0.12617 0.97278 0.0
C916 C 0.38001 0.14058 0.96126 0.0
C917 C 0.36856 0.12441 0.01786 0.0
C918 C 0.39116 0.13847 0.13039 0.0
H919 H 0.35281 0.10239 0.30455 0.0
H920 H 0.35541 0.10522 0.2262 0.0
H921 H 0.402 0.13921 0.19707 0.0
H922 H 0.39677 0.16429 0.9886 0.0
H923 H 0.39408 0.16145 0.06693 0.0
H924 H 0.34766 0.12731 0.09582 0.0
C925 C 0.36225 0.11524 0.25196 0.0
C926 C 0.38998 0.13674 0.17549 0.0
C927 C 0.36096 0.11346 0.29698 0.0
C928 C 0.38868 0.15316 0.9961 0.0
C929 C 0.38734 0.15139 0.0411 0.0
C930 C 0.35968 0.12979 0.11742 0.0
C931 C 0.37236 0.12959 0.24031 0.0
C932 C 0.37362 0.13151 0.19222 0.0
C933 C 0.3773 0.13697 0.05264 0.0
C934 C 0.37603 0.13503 0.10071 0.0
H935 H 0.38704 0.15011 0.34581 0.0
H936 H 0.38898 0.15342 0.26745 0.0
H937 H 0.34559 0.1243 0.17431 0.0
H938 H 0.36292 0.11631 0.94698 0.0
H939 H 0.36085 0.11302 0.02537 0.0
C940 C 0.62588 0.618 0.04748 0.0
C941 C 0.64124 0.62427 0.07448 0.0
C942 C 0.62484 0.61956 1.00211 0.0
C943 C 0.64467 0.64434 0.91929 0.0
H944 H 0.62481 0.60365 0.83167 0.0
C945 C 0.64844 0.64174 0.7273 0.0
C946 C 0.6329 0.63564 0.70082 0.0
C947 C 0.64973 0.64006 0.77259 0.0
C948 C 0.63023 0.61522 0.85571 0.0
H949 H 0.66737 0.63756 0.07493 0.0
H950 H 0.66568 0.64004 0.99577 0.0
H951 H 0.62622 0.60173 0.91119 0.0
H952 H 0.60674 0.62249 0.70114 0.0
H953 H 0.60887 0.61979 0.7801 0.0
H954 H 0.64867 0.65783 0.86379 0.0
C955 C 0.65436 0.634 1.00972 0.0
C956 C 0.63102 0.61413 0.90139 0.0
C957 C 0.65541 0.63241 0.05506 0.0
C958 C 0.61883 0.62751 0.72062 0.0
C959 C 0.62013 0.62579 0.76584 0.0
C960 C 0.64389 0.64543 0.8736 0.0
C961 C 0.63912 0.62747 0.98252 0.0
C962 C 0.63822 0.62869 0.93383 0.0
C963 C 0.63553 0.63219 0.79256 0.0
C964 C 0.63664 0.63089 0.84119 0.0
H965 H 0.61478 0.61149 0.06112 0.0
H966 H 0.61279 0.61459 0.98238 0.0
H967 H 0.65007 0.65593 0.94334 0.0
H968 H 0.65947 0.64821 0.71332 0.0
H969 H 0.66188 0.64494 0.79197 0.0
C970 C 0.12592 0.9039 0.46286 0.0
C971 C 0.14053 0.89643 0.43662 0.0
C972 C 0.12488 0.90211 0.50799 0.0
C973 C 0.14261 0.87484 0.59081 0.0
H974 H 0.12629 0.91629 0.67879 0.0
C975 C 0.14707 0.87541 0.78272 0.0
C976 C 0.13233 0.88276 0.80861 0.0
C977 C 0.14826 0.87725 0.73765 0.0
C978 C 0.1307 0.9045 0.65465 0.0
H979 H 0.1653 0.8808 0.4375 0.0
H980 H 0.16363 0.87791 0.51617 0.0
H981 H 0.12774 0.91885 0.59986 0.0
H982 H 0.1075 0.89825 0.80726 0.0
H983 H 0.10944 0.90125 0.72872 0.0
H984 H 0.14557 0.8605 0.64562 0.0
C985 C 0.15288 0.88508 0.50179 0.0
C986 C 0.13151 0.90596 0.60926 0.0
C987 C 0.15394 0.88691 0.45669 0.0
C988 C 0.11895 0.89224 0.78831 0.0
C989 C 0.12017 0.89413 0.7433 0.0
C990 C 0.1418 0.87338 0.63621 0.0
C991 C 0.13839 0.89275 0.5282 0.0
C992 C 0.13747 0.89115 0.57665 0.0
C993 C 0.13477 0.88655 0.7172 0.0
C994 C 0.13582 0.88819 0.6688 0.0
H995 H 0.11542 0.91149 0.4488 0.0
H996 H 0.1134 0.90801 0.527 0.0
H997 H 0.147 0.86305 0.56667 0.0
H998 H 0.15755 0.86787 0.797 0.0
H999 H 0.15982 0.87142 0.71886 0.0
C1000 C 0.85583 0.60911 0.80032 0.0
C1001 C 0.86729 0.61883 0.83463 0.0
C1002 C 0.85727 0.61133 0.75562 0.0
C1003 C 0.88882 0.62751 0.67782 0.0
H1004 H 0.84547 0.62895 0.60358 0.0
C1005 C 0.89085 0.64776 0.50267 0.0
C1006 C 0.87962 0.63809 0.46778 0.0
C1007 C 0.88926 0.64523 0.54706 0.0
C1008 C 0.85773 0.62836 0.62363 0.0
H1009 H 0.88941 0.63846 0.8482 0.0
H1010 H 0.89166 0.64262 0.7706 0.0
H1011 H 0.84288 0.62502 0.68132 0.0
H1012 H 0.85776 0.61821 0.4528 0.0
H1013 H 0.85519 0.61357 0.53009 0.0
H1014 H 0.90367 0.63089 0.6202 0.0
C1015 C 0.88167 0.63308 0.77817 0.0
C1016 C 0.85625 0.62611 0.66832 0.0
C1017 C 0.88022 0.63087 0.82289 0.0
C1018 C 0.86675 0.62579 0.47863 0.0
C1019 C 0.86513 0.62328 0.52311 0.0
C1020 C 0.8903 0.62978 0.63317 0.0
C1021 C 0.87022 0.62334 0.74387 0.0
C1022 C 0.87178 0.62568 0.6961 0.0
C1023 C 0.87639 0.63295 0.55796 0.0
C1024 C 0.87478 0.63028 0.60544 0.0
H1025 H 0.84555 0.5999 0.80803 0.0
H1026 H 0.84834 0.60344 0.73017 0.0
H1027 H 0.9011 0.62693 0.69783 0.0
H1028 H 0.90109 0.65716 0.49565 0.0
H1029 H 0.89803 0.65308 0.57297 0.0
C1030 C 0.13092 0.10847 0.55224 0.0
C1031 C 0.14621 0.11519 0.57903 0.0
C1032 C 0.12944 0.11036 0.50709 0.0
C1033 C 0.14746 0.13716 0.42599 0.0
H1034 H 0.12853 0.09676 0.33602 0.0
C1035 C 0.15056 0.13728 0.23515 0.0
C1036 C 0.13518 0.13094 0.20827 0.0
C1037 C 0.15201 0.13504 0.28003 0.0
C1038 C 0.13367 0.10826 0.36075 0.0
H1039 H 0.17173 0.12959 0.57926 0.0
H1040 H 0.16929 0.13262 0.50062 0.0
H1041 H 0.13053 0.09378 0.41488 0.0
H1042 H 0.10951 0.11676 0.20742 0.0
H1043 H 0.11194 0.11305 0.28569 0.0
H1044 H 0.15061 0.15163 0.3719 0.0
C1045 C 0.15836 0.12597 0.51452 0.0
C1046 C 0.1348 0.10655 0.40605 0.0
C1047 C 0.15986 0.12404 0.55957 0.0
C1048 C 0.12145 0.122 0.22724 0.0
C1049 C 0.12293 0.1197 0.27205 0.0
C1050 C 0.14634 0.13886 0.38072 0.0
C1051 C 0.14317 0.1191 0.48757 0.0
C1052 C 0.14173 0.12098 0.43931 0.0
C1053 C 0.13816 0.12633 0.2992 0.0
C1054 C 0.13945 0.12442 0.34744 0.0
H1055 H 0.12021 0.10145 0.56595 0.0
H1056 H 0.11744 0.10507 0.48756 0.0
H1057 H 0.15258 0.14867 0.45069 0.0
H1058 H 0.16132 0.14437 0.22184 0.0
H1059 H 0.16403 0.14012 0.2997 0.0
C1060 C 0.65149 0.38841 0.26848 0.0
C1061 C 0.63588 0.38105 0.28394 0.0
C1062 C 0.65267 0.39004 0.2233 0.0
C1063 C 0.63274 0.37185 0.10966 0.0
H1064 H 0.65418 0.41532 0.079 0.0
C1065 C 0.62809 0.38721 0.92922 0.0
C1066 C 0.64335 0.39491 0.91306 0.0
C1067 C 0.62754 0.38517 0.9742 0.0
C1068 C 0.64836 0.40298 0.0869 0.0
H1069 H 0.60933 0.36945 0.26353 0.0
H1070 H 0.61124 0.37265 0.18526 0.0
H1071 H 0.65256 0.4126 0.1578 0.0
H1072 H 0.67 0.40655 0.93193 0.0
H1073 H 0.66918 0.40263 1.00994 0.0
H1074 H 0.62849 0.36224 0.03879 0.0
C1075 C 0.62266 0.37701 0.20792 0.0
C1076 C 0.64742 0.40142 0.13215 0.0
C1077 C 0.62148 0.3754 0.25304 0.0
C1078 C 0.65811 0.40036 0.94299 0.0
C1079 C 0.65754 0.39834 0.98795 0.0
C1080 C 0.63368 0.37341 0.06442 0.0
C1081 C 0.63829 0.3843 0.19239 0.0
C1082 C 0.63954 0.38587 0.14415 0.0
C1083 C 0.64222 0.3908 1.00424 0.0
C1084 C 0.64145 0.38901 0.05243 0.0
H1085 H 0.66278 0.39304 0.29136 0.0
H1086 H 0.66498 0.39557 0.21247 0.0
H1087 H 0.62686 0.35953 0.11756 0.0
H1088 H 0.61655 0.38269 0.90708 0.0
H1089 H 0.61544 0.37946 0.98561 0.0
C1090 C 0.37144 0.89394 0.05801 0.0
C1091 C 0.38128 0.87947 0.07093 0.0
C1092 C 0.37027 0.89575 1.01279 0.0
C1093 C 0.37582 0.86951 0.89653 0.0
H1094 H 0.37934 0.9178 0.86623 0.0
C1095 C 0.38289 0.87967 0.71281 0.0
C1096 C 0.37289 0.89397 0.69951 0.0
C1097 C 0.38401 0.87798 0.7581 0.0
C1098 C 0.37814 0.90423 0.8741 0.0
H1099 H 0.39792 0.85576 0.04615 0.0
H1100 H 0.39583 0.85888 0.96761 0.0
H1101 H 0.3808 0.9147 0.94502 0.0
H1102 H 0.35601 0.91755 0.72378 0.0
H1103 H 0.35807 0.91466 0.80251 0.0
H1104 H 0.37318 0.85904 0.82562 0.0
C1105 C 0.38874 0.86866 0.99228 0.0
C1106 C 0.37896 0.90245 0.91933 0.0
C1107 C 0.38991 0.86687 0.03743 0.0
C1108 C 0.36413 0.90657 0.73277 0.0
C1109 C 0.36528 0.9049 0.77802 0.0
C1110 C 0.37501 0.87129 0.85132 0.0
C1111 C 0.37892 0.88313 0.97933 0.0
C1112 C 0.37782 0.88507 0.93116 0.0
C1113 C 0.37519 0.89056 0.79129 0.0
C1114 C 0.37617 0.88867 0.83949 0.0
H1115 H 0.36443 0.90377 0.08277 0.0
H1116 H 0.36238 0.90691 1.00398 0.0
H1117 H 0.3746 0.85594 0.90437 0.0
H1118 H 0.39002 0.86986 0.68828 0.0
H1119 H 0.39198 0.86692 0.76719 0.0
C1120 C 0.12369 0.69294 0.18314 0.0
C1121 C 0.14115 0.68539 0.18269 0.0
C1122 C 0.1214 0.71187 0.18614 0.0
C1123 C 0.14186 0.75706 0.22217 0.0
H1124 H 0.11747 0.77019 0.11798 0.0
C1125 C 0.14468 0.83112 0.18675 0.0
C1126 C 0.13075 0.83705 0.16063 0.0
C1127 C 0.14484 0.81306 0.19428 0.0
C1128 C 0.12393 0.76698 0.14801 0.0
H1129 H 0.1698 0.6917 0.1874 0.0
H1130 H 0.16574 0.72492 0.19442 0.0
H1131 H 0.11928 0.73816 0.12478 0.0
H1132 H 0.10549 0.82924 0.12424 0.0
H1133 H 0.105 0.79831 0.13976 0.0
H1134 H 0.14611 0.78579 0.24635 0.0
C1135 C 0.1539 0.71616 0.1918 0.0
C1136 C 0.12506 0.74851 0.15162 0.0
C1137 C 0.15621 0.69719 0.18768 0.0
C1138 C 0.11652 0.82493 0.14408 0.0
C1139 C 0.11639 0.80708 0.15263 0.0
C1140 C 0.14035 0.77562 0.21918 0.0
C1141 C 0.13649 0.72362 0.18994 0.0
C1142 C 0.1342 0.74335 0.18841 0.0
C1143 C 0.1308 0.80063 0.17676 0.0
C1144 C 0.13156 0.78089 0.18171 0.0
H1145 H 0.11184 0.68414 0.17909 0.0
H1146 H 0.10784 0.71732 0.18467 0.0
H1147 H 0.14894 0.75339 0.25096 0.0
H1148 H 0.15591 0.84016 0.19956 0.0
H1149 H 0.15634 0.80873 0.21245 0.0
C1150 C 0.57176 0.87153 0.39354 0.0
C1151 C 0.58385 0.88511 0.41577 0.0
C1152 C 0.55381 0.87122 0.40653 0.0
C1153 C 0.51759 0.90106 0.45675 0.0
H1154 H 0.49333 0.85481 0.45722 0.0
C1155 C 0.43919 0.89585 0.46704 0.0
C1156 C 0.4315 0.88166 0.43448 0.0
C1157 C 0.45799 0.89643 0.47599 0.0
C1158 C 0.49986 0.86786 0.4572 0.0
H1159 H 0.58658 0.9089 0.46964 0.0
H1160 H 0.55487 0.90854 0.49201 0.0
H1161 H 0.52614 0.8556 0.4518 0.0
H1162 H 0.43732 0.85647 0.38767 0.0
H1163 H 0.46965 0.85741 0.40316 0.0
H1164 H 0.49118 0.91318 0.46 0.0
C1165 C 0.55945 0.89807 0.46463 0.0
C1166 C 0.51869 0.86831 0.45417 0.0
C1167 C 0.57761 0.8982 0.45204 0.0
C1168 C 0.44279 0.86763 0.41288 0.0
C1169 C 0.4614 0.86811 0.42204 0.0
C1170 C 0.49867 0.9006 0.45952 0.0
C1171 C 0.54732 0.88461 0.44178 0.0
C1172 C 0.52774 0.88479 0.4525 0.0
C1173 C 0.46936 0.88268 0.45301 0.0
C1174 C 0.48952 0.88387 0.45828 0.0
H1175 H 0.57612 0.86121 0.36554 0.0
H1176 H 0.54481 0.86079 0.38784 0.0
H1177 H 0.52414 0.91397 0.45533 0.0
H1178 H 0.43085 0.90692 0.48401 0.0
H1179 H 0.46365 0.90779 0.50029 0.0
C1180 C 0.35671 0.32853 0.64197 0.0
C1181 C 0.37224 0.33952 0.64349 0.0
C1182 C 0.35783 0.31086 0.65143 0.0
C1183 C 0.38964 0.2725 0.6497 0.0
H1184 H 0.35033 0.25226 0.70726 0.0
C1185 C 0.38636 0.19521 0.66382 0.0
C1186 C 0.36948 0.18678 0.65119 0.0
C1187 C 0.38817 0.21441 0.67061 0.0
C1188 C 0.36142 0.25766 0.69101 0.0
H1189 H 0.40113 0.34083 0.65765 0.0
H1190 H 0.40316 0.30974 0.67434 0.0
H1191 H 0.351 0.28501 0.7063 0.0
H1192 H 0.34124 0.19184 0.63725 0.0
H1193 H 0.34432 0.22508 0.6493 0.0
H1194 H 0.39981 0.24498 0.63356 0.0
C1195 C 0.39009 0.31482 0.66545 0.0
C1196 C 0.3618 0.27647 0.69044 0.0
C1197 C 0.38892 0.33267 0.65625 0.0
C1198 C 0.35442 0.19792 0.64696 0.0
C1199 C 0.35618 0.21702 0.65414 0.0
C1200 C 0.38928 0.25363 0.65036 0.0
C1201 C 0.37456 0.3036 0.6626 0.0
C1202 C 0.37564 0.28408 0.6687 0.0
C1203 C 0.3731 0.22555 0.66552 0.0
C1204 C 0.37489 0.24589 0.66997 0.0
H1205 H 0.34366 0.33343 0.63227 0.0
H1206 H 0.34562 0.30262 0.64825 0.0
H1207 H 0.40044 0.27782 0.63236 0.0
H1208 H 0.39822 0.18696 0.66725 0.0
H1209 H 0.40138 0.22052 0.67966 0.0
C1210 C 0.94025 0.13293 0.91986 0.0
C1211 C 0.93303 0.12779 0.87578 0.0
C1212 C 0.95899 0.13599 0.92732 0.0
C1213 C 0.99987 0.14689 0.86911 0.0
H1214 H 0.0273 0.12079 0.9478 0.0
C1215 C 0.07331 0.12649 0.83675 0.0
C1216 C 0.08604 0.12825 0.87261 0.0
C1217 C 0.05498 0.12963 0.84469 0.0
C1218 C 0.01982 0.12847 0.92635 0.0
H1219 H 0.93967 0.12209 0.80515 0.0
H1220 H 0.97186 0.12759 0.81795 0.0
H1221 H 0.99409 0.12075 0.9487 0.0
H1222 H 0.08948 0.13469 0.94511 0.0
H1223 H 0.05707 0.13994 0.95935 0.0
H1224 H 0.02538 0.15404 0.8454 0.0
C1225 C 0.96326 0.12934 0.84687 0.0
C1226 C 1.00081 0.12845 0.92689 0.0
C1227 C 0.94477 0.12607 0.83955 0.0
C1228 C 0.07999 0.1333 0.91688 0.0
C1229 C 0.06145 0.13622 0.92497 0.0
C1230 C 0.01875 0.1469 0.86856 0.0
C1231 C 0.97068 0.1343 0.89074 0.0
C1232 C 0.99063 0.13711 0.89702 0.0
C1233 C 0.04875 0.13448 0.88882 0.0
C1234 C 0.02896 0.13714 0.89593 0.0
H1235 H 0.93152 0.13432 0.94839 0.0
H1236 H 0.96432 0.13979 0.96153 0.0
H1237 H 0.99245 0.15401 0.84633 0.0
H1238 H 0.0775 0.12258 0.80222 0.0
H1239 H 0.04558 0.12787 0.81608 0.0
C1240 C 0.12372 0.32697 0.87526 0.0
C1241 C 0.14098 0.3351 0.88177 0.0
C1242 C 0.12185 0.30782 0.86661 0.0
C1243 C 0.14447 0.26414 0.82538 0.0
H1244 H 0.11648 0.24522 0.91286 0.0
C1245 C 0.14778 0.18764 0.843 0.0
C1246 C 0.13305 0.18 0.86124 0.0
C1247 C 0.14772 0.20624 0.83965 0.0
C1248 C 0.124 0.25008 0.88727 0.0
H1249 H 0.16977 0.32972 0.88207 0.0
H1250 H 0.16649 0.29622 0.86547 0.0
H1251 H 0.11789 0.27809 0.91558 0.0
H1252 H 0.10622 0.18532 0.88738 0.0
H1253 H 0.10549 0.21722 0.8788 0.0
H1254 H 0.15031 0.23621 0.79623 0.0
C1255 C 0.15445 0.30464 0.86761 0.0
C1256 C 0.12488 0.26903 0.88915 0.0
C1257 C 0.15631 0.32377 0.87725 0.0
C1258 C 0.11785 0.19095 0.87365 0.0
C1259 C 0.11756 0.20935 0.86919 0.0
C1260 C 0.14329 0.24511 0.82281 0.0
C1261 C 0.1372 0.29648 0.86325 0.0
C1262 C 0.13528 0.27627 0.8586 0.0
C1263 C 0.13272 0.2175 0.85353 0.0
C1264 C 0.13319 0.23776 0.8541 0.0
H1265 H 0.11166 0.33537 0.87868 0.0
H1266 H 0.1084 0.30185 0.86324 0.0
H1267 H 0.15254 0.2694 0.80128 0.0
H1268 H 0.15975 0.17952 0.83361 0.0
H1269 H 0.15977 0.21188 0.82793 0.0
C1270 C 0.07571 0.87895 0.10941 0.0
C1271 C 0.08397 0.89616 0.12476 0.0
C1272 C 0.05675 0.87743 0.10532 0.0
C1273 C 0.01637 0.90227 0.15323 0.0
H1274 H 0.98908 0.87196 0.05533 0.0
C1275 C 0.94012 0.91109 0.13658 0.0
C1276 C 0.92917 0.89531 0.12771 0.0
C1277 C 0.95881 0.9098 0.13178 0.0
C1278 C 0.99654 0.88034 0.08311 0.0
H1279 H 0.079 0.92532 0.14494 0.0
H1280 H 0.04626 0.92274 0.13726 0.0
H1281 H 0.02232 0.87215 0.05463 0.0
H1282 H 0.92909 0.86582 0.10458 0.0
H1283 H 0.96208 0.86348 0.09645 0.0
H1284 H 0.9909 0.91051 0.1819 0.0
C1285 C 0.05423 0.91034 0.12947 0.0
C1286 C 0.01556 0.88045 0.0827 0.0
C1287 C 0.07303 0.91184 0.13363 0.0
C1288 C 0.93724 0.87821 0.11177 0.0
C1289 C 0.9561 0.87689 0.10705 0.0
C1290 C 0.99751 0.90216 0.15364 0.0
C1291 C 0.04579 0.8931 0.11653 0.0
C1292 C 0.02567 0.89173 0.11739 0.0
C1293 C 0.96714 0.89266 0.1182 0.0
C1294 C 0.9873 0.89151 0.11822 0.0
H1295 H 0.08384 0.86663 0.10227 0.0
H1296 H 0.05067 0.86395 0.09521 0.0
H1297 H 0.02369 0.91071 0.18117 0.0
H1298 H 0.93428 0.92449 0.14832 0.0
H1299 H 0.96681 0.92228 0.1395 0.0
C1300 C 0.36775 0.68565 0.36748 0.0
C1301 C 0.38212 0.67904 0.39104 0.0
C1302 C 0.36739 0.70406 0.3624 0.0
C1303 C 0.38923 0.74971 0.41053 0.0
H1304 H 0.36268 0.76513 0.31207 0.0
C1305 C 0.38966 0.82485 0.38105 0.0
C1306 C 0.3723 0.83261 0.38146 0.0
C1307 C 0.39175 0.80584 0.3776 0.0
C1308 C 0.37018 0.76098 0.33967 0.0
H1309 H 0.40788 0.68622 0.4256 0.0
H1310 H 0.40794 0.71777 0.41441 0.0
H1311 H 0.36517 0.73247 0.31393 0.0
H1312 H 0.34359 0.82657 0.3765 0.0
H1313 H 0.34727 0.79328 0.36866 0.0
H1314 H 0.39462 0.77832 0.43527 0.0
C1315 C 0.39639 0.70922 0.40166 0.0
C1316 C 0.3715 0.74223 0.34109 0.0
C1317 C 0.3965 0.69098 0.40772 0.0
C1318 C 0.35713 0.82093 0.37624 0.0
C1319 C 0.35922 0.80191 0.37167 0.0
C1320 C 0.38826 0.76838 0.40847 0.0
C1321 C 0.38163 0.71625 0.37987 0.0
C1322 C 0.38088 0.73625 0.37686 0.0
C1323 C 0.37653 0.79419 0.3733 0.0
C1324 C 0.37857 0.77424 0.37333 0.0
H1325 H 0.35639 0.67679 0.3546 0.0
H1326 H 0.35561 0.70879 0.34602 0.0
H1327 H 0.39618 0.74598 0.43935 0.0
H1328 H 0.40159 0.83353 0.38528 0.0
H1329 H 0.40525 0.80023 0.37884 0.0
C1330 C 0.57313 0.15167 0.6243 0.0
C1331 C 0.58376 0.13677 0.60431 0.0
C1332 C 0.55444 0.15154 0.61682 0.0
C1333 C 0.51547 0.12953 0.54775 0.0
H1334 H 0.49066 0.14509 0.6598 0.0
C1335 C 0.43681 0.12382 0.57106 0.0
C1336 C 0.42913 0.13836 0.60145 0.0
C1337 C 0.45561 0.12326 0.56465 0.0
C1338 C 0.4973 0.14091 0.62802 0.0
H1339 H 0.58321 0.11049 0.5585 0.0
H1340 H 0.55016 0.11015 0.54557 0.0
H1341 H 0.52342 0.14474 0.6602 0.0
H1342 H 0.43485 0.16441 0.6459 0.0
H1343 H 0.46719 0.16368 0.634 0.0
H1344 H 0.489 0.1257 0.51581 0.0
C1345 C 0.55645 0.122 0.56691 0.0
C1346 C 0.51615 0.1407 0.62827 0.0
C1347 C 0.57536 0.12219 0.57422 0.0
C1348 C 0.44037 0.15287 0.62279 0.0
C1349 C 0.45897 0.15239 0.61617 0.0
C1350 C 0.49642 0.12977 0.54749 0.0
C1351 C 0.54573 0.13641 0.5895 0.0
C1352 C 0.52554 0.13538 0.58813 0.0
C1353 C 0.46697 0.13727 0.58843 0.0
C1354 C 0.48713 0.13583 0.58762 0.0
H1355 H 0.57922 0.16325 0.64714 0.0
H1356 H 0.5467 0.16311 0.63376 0.0
H1357 H 0.5223 0.12529 0.51627 0.0
H1358 H 0.42848 0.11241 0.55428 0.0
H1359 H 0.46133 0.11144 0.54298 0.0
C1360 C 0.89899 0.19148 0.88154 0.0
C1361 C 0.88435 0.17962 0.86693 0.0
C1362 C 0.89838 0.20983 0.8766 0.0
C1363 C 0.87108 0.24346 0.82358 0.0
H1364 H 0.89507 0.27871 0.91813 0.0
C1365 C 0.85491 0.32162 0.86967 0.0
C1366 C 0.86982 0.33361 0.87437 0.0
C1367 C 0.85748 0.30259 0.8625 0.0
C1368 C 0.88845 0.269 0.89125 0.0
H1369 H 0.85765 0.17755 0.83518 0.0
H1370 H 0.85607 0.20972 0.8286 0.0
H1371 H 0.8979 0.2461 0.91821 0.0
H1372 H 0.89909 0.33516 0.87437 0.0
H1373 H 0.90358 0.30187 0.86333 0.0
H1374 H 0.86077 0.26679 0.79861 0.0
C1375 C 0.86839 0.20486 0.84241 0.0
C1376 C 0.89016 0.25022 0.89099 0.0
C1377 C 0.86922 0.18636 0.84633 0.0
C1378 C 0.88735 0.32623 0.87072 0.0
C1379 C 0.88993 0.30722 0.8646 0.0
C1380 C 0.86906 0.26231 0.82451 0.0
C1381 C 0.88286 0.21699 0.8581 0.0
C1382 C 0.88149 0.23709 0.85718 0.0
C1383 C 0.87502 0.29524 0.8609 0.0
C1384 C 0.87772 0.27524 0.85837 0.0
H1385 H 0.91092 0.18659 0.89713 0.0
H1386 H 0.91007 0.21842 0.88782 0.0
H1387 H 0.86447 0.23393 0.79643 0.0
H1388 H 0.84126 0.32697 0.87232 0.0
H1389 H 0.84577 0.29366 0.86001 0.0
C1390 C 0.624 0.82926 0.35196 0.0
C1391 C 0.64151 0.83683 0.35592 0.0
C1392 C 0.62155 0.81021 0.34541 0.0
C1393 C 0.642 0.76549 0.30527 0.0
H1394 H 0.61688 0.74928 0.40135 0.0
C1395 C 0.64485 0.68989 0.3301 0.0
C1396 C 0.6308 0.68314 0.35263 0.0
C1397 C 0.64492 0.70827 0.32493 0.0
C1398 C 0.62354 0.75337 0.37345 0.0
H1399 H 0.67011 0.83052 0.35379 0.0
H1400 H 0.6658 0.79716 0.34067 0.0
H1401 H 0.61877 0.78183 0.4001 0.0
H1402 H 0.60522 0.68982 0.38475 0.0
H1403 H 0.60459 0.72132 0.3731 0.0
H1404 H 0.64645 0.73713 0.27772 0.0
C1405 C 0.65402 0.80596 0.34326 0.0
C1406 C 0.62471 0.77214 0.37304 0.0
C1407 C 0.65648 0.82501 0.35089 0.0
C1408 C 0.61634 0.69476 0.36768 0.0
C1409 C 0.61613 0.71293 0.36141 0.0
C1410 C 0.64048 0.74664 0.305 0.0
C1411 C 0.63656 0.7984 0.34154 0.0
C1412 C 0.63414 0.7784 0.33932 0.0
C1413 C 0.63069 0.7202 0.34124 0.0
C1414 C 0.63142 0.74026 0.33947 0.0
H1415 H 0.61223 0.83808 0.3559 0.0
H1416 H 0.60795 0.80469 0.34414 0.0
H1417 H 0.64931 0.77001 0.27879 0.0
H1418 H 0.65626 0.68123 0.31856 0.0
H1419 H 0.65653 0.71322 0.30974 0.0
C1420 C 0.86204 0.69509 0.12551 0.0
C1421 C 0.87265 0.6834 0.1468 0.0
C1422 C 0.86338 0.7141 0.13895 0.0
C1423 C 0.86264 0.75375 0.18847 0.0
H1424 H 0.91038 0.7748 0.18445 0.0
C1425 C 0.87311 0.83182 0.19913 0.0
C1426 C 0.88327 0.83593 0.16371 0.0
C1427 C 0.87298 0.81396 0.20814 0.0
C1428 C 0.89698 0.76914 0.18612 0.0
H1429 H 0.8929 0.68233 0.19927 0.0
H1430 H 0.8957 0.71598 0.22221 0.0
H1431 H 0.90711 0.74171 0.18092 0.0
H1432 H 0.90201 0.82475 0.11163 0.0
H1433 H 0.90189 0.79385 0.12758 0.0
H1434 H 0.8524 0.78097 0.19174 0.0
C1435 C 0.88615 0.71027 0.19542 0.0
C1436 C 0.89513 0.75023 0.18449 0.0
C1437 C 0.88452 0.69109 0.18247 0.0
C1438 C 0.89394 0.82205 0.13899 0.0
C1439 C 0.894 0.80433 0.14838 0.0
C1440 C 0.8645 0.77266 0.1906 0.0
C1441 C 0.8756 0.72196 0.17358 0.0
C1442 C 0.87788 0.74226 0.18414 0.0
C1443 C 0.88323 0.79995 0.18241 0.0
C1444 C 0.88164 0.7805 0.18798 0.0
H1445 H 0.85278 0.68954 0.09789 0.0
H1446 H 0.85526 0.72269 0.12104 0.0
H1447 H 0.84918 0.748 0.18852 0.0
H1448 H 0.86473 0.8422 0.21876 0.0
H1449 H 0.86461 0.81103 0.23475 0.0
C1450 C 0.62539 0.19232 0.65753 0.0
C1451 C 0.64285 0.18478 0.65626 0.0
C1452 C 0.62305 0.21127 0.66076 0.0
C1453 C 0.64323 0.25641 0.69707 0.0
H1454 H 0.61929 0.26981 0.59264 0.0
C1455 C 0.64603 0.33078 0.66356 0.0
C1456 C 0.63229 0.33672 0.6369 0.0
C1457 C 0.64616 0.31266 0.67074 0.0
C1458 C 0.62561 0.26653 0.62275 0.0
H1459 H 0.6715 0.19109 0.65969 0.0
H1460 H 0.66738 0.22433 0.66719 0.0
H1461 H 0.62114 0.23771 0.59885 0.0
H1462 H 0.60733 0.32886 0.59919 0.0
H1463 H 0.60675 0.29784 0.61415 0.0
H1464 H 0.64729 0.28513 0.72196 0.0
C1465 C 0.65556 0.21556 0.665 0.0
C1466 C 0.62676 0.24802 0.62601 0.0
C1467 C 0.6579 0.19658 0.6606 0.0
C1468 C 0.61821 0.32455 0.61948 0.0
C1469 C 0.61803 0.30664 0.62769 0.0
C1470 C 0.64169 0.27502 0.69445 0.0
C1471 C 0.63812 0.22302 0.66403 0.0
C1472 C 0.63577 0.24277 0.66287 0.0
C1473 C 0.63228 0.30018 0.65234 0.0
C1474 C 0.63305 0.28039 0.6569 0.0
H1475 H 0.61355 0.18352 0.65398 0.0
H1476 H 0.60947 0.21672 0.65993 0.0
H1477 H 0.6502 0.25267 0.72592 0.0
H1478 H 0.65715 0.33985 0.67703 0.0
H1479 H 0.65755 0.30835 0.68932 0.0
C1480 C 0.93829 0.3654 0.92014 0.0
C1481 C 0.92792 0.38083 0.9377 0.0
C1482 C 0.95681 0.36511 0.92962 0.0
C1483 C 0.99548 0.38756 0.99912 0.0
H1484 H 0.02095 0.37059 0.88866 0.0
C1485 C 0.07367 0.3951 0.97573 0.0
C1486 C 0.08173 0.38069 0.94582 0.0
C1487 C 0.05497 0.39486 0.9828 0.0
C1488 C 0.01412 0.37512 0.92004 0.0
H1489 H 0.92851 0.40761 0.98139 0.0
H1490 H 0.9613 0.40726 0.99756 0.0
H1491 H 0.98822 0.37069 0.88707 0.0
H1492 H 0.07708 0.35401 0.90336 0.0
H1493 H 0.04486 0.35326 0.91675 0.0
H1494 H 0.02175 0.39212 0.0318 0.0
C1495 C 0.95497 0.39531 0.97676 0.0
C1496 C 0.99529 0.37519 0.91911 0.0
C1497 C 0.93623 0.39552 0.96758 0.0
C1498 C 0.07116 0.36543 0.92608 0.0
C1499 C 0.05267 0.36507 0.93354 0.0
C1500 C 0.01451 0.38747 1.00008 0.0
C1501 C 0.96554 0.38037 0.95636 0.0
C1502 C 0.98569 0.38111 0.95864 0.0
C1503 C 0.04416 0.38012 0.96028 0.0
C1504 C 0.02402 0.38094 0.96056 0.0
H1505 H 0.93218 0.35377 0.89753 0.0
H1506 H 0.96447 0.35317 0.91438 0.0
H1507 H 0.98844 0.39229 0.0301 0.0
H1508 H 0.08154 0.40707 0.99118 0.0
H1509 H 0.04884 0.40665 1.00365 0.0
C1510 C 0.43892 0.63644 0.42479 0.0
C1511 C 0.43074 0.61948 0.40622 0.0
C1512 C 0.45787 0.63828 0.42616 0.0
C1513 C 0.49733 0.61647 0.36612 0.0
H1514 H 0.52651 0.64236 0.4668 0.0
C1515 C 0.57372 0.60701 0.37059 0.0
C1516 C 0.58477 0.62263 0.38277 0.0
C1517 C 0.55515 0.60807 0.37745 0.0
C1518 C 0.5185 0.63526 0.43826 0.0
H1519 H 0.43589 0.59097 0.37728 0.0
H1520 H 0.46863 0.59407 0.38014 0.0
H1521 H 0.49341 0.64167 0.47205 0.0
H1522 H 0.5852 0.65149 0.41367 0.0
H1523 H 0.5524 0.65342 0.42552 0.0
H1524 H 0.52212 0.60995 0.33225 0.0
C1525 C 0.46057 0.60608 0.39261 0.0
C1526 C 0.49957 0.63487 0.44127 0.0
C1527 C 0.44179 0.60427 0.39119 0.0
C1528 C 0.57695 0.63925 0.4038 0.0
C1529 C 0.55822 0.64033 0.41068 0.0
C1530 C 0.5161 0.61686 0.36313 0.0
C1531 C 0.46886 0.62318 0.40893 0.0
C1532 C 0.48882 0.6251 0.40552 0.0
C1533 C 0.54706 0.62481 0.39654 0.0
C1534 C 0.52698 0.6259 0.39944 0.0
H1535 H 0.4307 0.64839 0.43671 0.0
H1536 H 0.46385 0.65163 0.43901 0.0
H1537 H 0.48944 0.60926 0.33746 0.0
H1538 H 0.57938 0.59395 0.35488 0.0
H1539 H 0.54705 0.59575 0.3672 0.0
C1540 C 0.4401 0.38844 0.54434 0.0
C1541 C 0.4338 0.38151 0.58126 0.0
C1542 C 0.45878 0.38906 0.53693 0.0
C1543 C 0.49981 0.39643 0.60341 0.0
H1544 H 0.5278 0.37485 0.50016 0.0
C1545 C 0.57528 0.41164 0.60087 0.0
C1546 C 0.58655 0.39621 0.59167 0.0
C1547 C 0.55674 0.41005 0.59093 0.0
C1548 C 0.52011 0.38098 0.52912 0.0
H1549 H 0.44201 0.36834 0.63678 0.0
H1550 H 0.4742 0.36967 0.62412 0.0
H1551 H 0.49465 0.37086 0.4976 0.0
H1552 H 0.58749 0.36722 0.56224 0.0
H1553 H 0.55481 0.36439 0.54504 0.0
H1554 H 0.5249 0.40636 0.63545 0.0
C1555 C 0.46484 0.37477 0.60126 0.0
C1556 C 0.5012 0.37881 0.52749 0.0
C1557 C 0.44637 0.37407 0.60848 0.0
C1558 C 0.57907 0.37932 0.56991 0.0
C1559 C 0.56041 0.37773 0.55986 0.0
C1560 C 0.51852 0.3988 0.60483 0.0
C1561 C 0.47128 0.3828 0.56643 0.0
C1562 C 0.49097 0.3863 0.565 0.0
C1563 C 0.54899 0.39299 0.57153 0.0
C1564 C 0.52895 0.39097 0.56796 0.0
H1565 H 0.43074 0.39426 0.52281 0.0
H1566 H 0.46349 0.39533 0.50985 0.0
H1567 H 0.49221 0.40234 0.63276 0.0
H1568 H 0.58069 0.42489 0.61707 0.0
H1569 H 0.54836 0.42213 0.59964 0.0
C1570 C 0.07521 0.62426 0.08913 0.0
C1571 C 0.08224 0.63764 0.12472 0.0
C1572 C 0.05672 0.62416 0.07691 0.0
C1573 C 0.01539 0.65327 0.08972 0.0
H1574 H 0.98936 0.60746 0.08268 0.0
C1575 C 0.94053 0.6509 0.13239 0.0
C1576 C 0.92919 0.63691 0.10882 0.0
C1577 C 0.95899 0.65109 0.12386 0.0
C1578 C 0.99641 0.62031 0.08363 0.0
H1579 H 0.0756 0.66188 0.17391 0.0
H1580 H 0.04371 0.66182 0.15255 0.0
H1581 H 0.02243 0.60762 0.08589 0.0
H1582 H 0.92833 0.61237 0.05675 0.0
H1583 H 0.96077 0.61267 0.04185 0.0
H1584 H 0.98946 0.66607 0.08893 0.0
C1585 C 0.05231 0.65137 0.13394 0.0
C1586 C 0.0154 0.6204 0.08547 0.0
C1587 C 0.07062 0.65133 0.14643 0.0
C1588 C 0.93668 0.62339 0.07537 0.0
C1589 C 0.95529 0.62348 0.06709 0.0
C1590 C 0.99647 0.65318 0.08785 0.0
C1591 C 0.04502 0.63763 0.09958 0.0
C1592 C 0.0251 0.63698 0.08998 0.0
C1593 C 0.9667 0.63724 0.09166 0.0
C1594 C 0.98672 0.6368 0.08622 0.0
H1595 H 0.08381 0.61347 0.07193 0.0
H1596 H 0.05154 0.61344 0.05013 0.0
H1597 H 0.02244 0.66623 0.09226 0.0
H1598 H 0.93524 0.66158 0.1583 0.0
H1599 H 0.96734 0.66177 0.14388 0.0
C1600 C 0.14475 0.57422 0.13362 0.0
C1601 C 0.12875 0.58192 0.15271 0.0
C1602 C 0.14464 0.55663 0.1066 0.0
C1603 C 0.11619 0.514 0.07579 0.0
H1604 H 0.14913 0.50282 0.97684 0.0
C1605 C 0.11063 0.44849 0.93586 0.0
C1606 C 0.12669 0.43852 0.92666 0.0
C1607 C 0.11095 0.46585 0.96397 0.0
C1608 C 0.13993 0.50573 1.00453 0.0
H1609 H 0.10002 0.5775 0.15787 0.0
H1610 H 0.09959 0.54722 0.10941 0.0
H1611 H 0.14934 0.53342 0.02393 0.0
H1612 H 0.15568 0.43885 0.93937 0.0
H1613 H 0.1563 0.46944 0.98757 0.0
H1614 H 0.10642 0.48638 0.05498 0.0
C1615 C 0.11241 0.55434 0.11634 0.0
C1616 C 0.14009 0.52326 0.03181 0.0
C1617 C 0.1126 0.5718 0.14396 0.0
C1618 C 0.1431 0.44627 0.94583 0.0
C1619 C 0.14346 0.46377 0.97326 0.0
C1620 C 0.11583 0.49658 0.04799 0.0
C1621 C 0.12845 0.54642 0.09734 0.0
C1622 C 0.12826 0.52768 0.06801 0.0
C1623 C 0.12738 0.47371 0.98277 0.0
C1624 C 0.12773 0.49224 1.01217 0.0
H1625 H 0.15741 0.58173 0.13993 0.0
H1626 H 0.15735 0.551 0.09347 0.0
H1627 H 0.10713 0.51661 0.10375 0.0
H1628 H 0.09779 0.4428 0.92167 0.0
H1629 H 0.09836 0.47324 0.97054 0.0
C1630 C 0.6937 0.87784 0.26975 0.0
C1631 C 0.6903 0.89069 0.30916 0.0
C1632 C 0.7105 0.87724 0.24942 0.0
C1633 C 0.75852 0.8938 0.26919 0.0
H1634 H 0.75987 0.87839 0.13943 0.0
C1635 C 0.8226 0.89882 0.1639 0.0
C1636 C 0.82713 0.8827 0.13365 0.0
C1637 C 0.80611 0.90018 0.18607 0.0
C1638 C 0.75972 0.88263 0.17572 0.0
H1639 H 0.70197 0.91307 0.35811 0.0
H1640 H 0.73112 0.91261 0.32166 0.0
H1641 H 0.73093 0.88069 0.17643 0.0
H1642 H 0.8177 0.85555 0.10199 0.0
H1643 H 0.78862 0.85814 0.13958 0.0
H1644 H 0.78743 0.89632 0.26768 0.0
C1645 C 0.72097 0.90258 0.30699 0.0
C1646 C 0.7431 0.88385 0.19716 0.0
C1647 C 0.70419 0.90295 0.32786 0.0
C1648 C 0.81462 0.86813 0.12519 0.0
C1649 C 0.79797 0.86962 0.14666 0.0
C1650 C 0.77513 0.8929 0.24755 0.0
C1651 C 0.72438 0.88972 0.26728 0.0
C1652 C 0.7422 0.88922 0.24436 0.0
C1653 C 0.79358 0.88561 0.1776 0.0
C1654 C 0.77593 0.88711 0.20062 0.0
H1655 H 0.68341 0.868 0.25473 0.0
H1656 H 0.71259 0.86676 0.21981 0.0
H1657 H 0.75857 0.89773 0.30552 0.0
H1658 H 0.83183 0.91041 0.17057 0.0
H1659 H 0.80303 0.91274 0.20932 0.0
C1660 C 0.39993 0.45126 0.6046 0.0
C1661 C 0.38602 0.43809 0.59883 0.0
C1662 C 0.39872 0.46654 0.58378 0.0
C1663 C 0.36552 0.49398 0.52833 0.0
H1664 H 0.40936 0.51566 0.49387 0.0
C1665 C 0.36638 0.55647 0.43554 0.0
C1666 C 0.37825 0.57075 0.45526 0.0
C1667 C 0.36687 0.53946 0.44956 0.0
C1668 C 0.39698 0.50979 0.50338 0.0
H1669 H 0.35994 0.43058 0.5663 0.0
H1670 H 0.35809 0.45678 0.52837 0.0
H1671 H 0.41114 0.48746 0.52364 0.0
H1672 H 0.40018 0.57812 0.50458 0.0
H1673 H 0.40123 0.54856 0.52808 0.0
H1674 H 0.35144 0.51635 0.50715 0.0
C1675 C 0.3698 0.45563 0.54989 0.0
C1676 C 0.39799 0.49363 0.52081 0.0
C1677 C 0.37093 0.44044 0.57126 0.0
C1678 C 0.39077 0.5675 0.4887 0.0
C1679 C 0.39147 0.55048 0.50205 0.0
C1680 C 0.36451 0.51004 0.51026 0.0
C1681 C 0.38364 0.46901 0.55601 0.0
C1682 C 0.38233 0.48561 0.53441 0.0
C1683 C 0.3795 0.53625 0.48287 0.0
C1684 C 0.38027 0.51831 0.49831 0.0
H1685 H 0.41169 0.44992 0.62585 0.0
H1686 H 0.40951 0.47662 0.59033 0.0
H1687 H 0.35315 0.48848 0.53881 0.0
H1688 H 0.35655 0.55853 0.4098 0.0
H1689 H 0.35751 0.52874 0.43403 0.0
C1690 C 0.82671 0.1181 0.8585 0.0
C1691 C 0.83168 0.13334 0.89179 0.0
C1692 C 0.81006 0.11765 0.83505 0.0
C1693 C 0.77199 0.14812 0.81097 0.0
H1694 H 0.74675 0.10183 0.77125 0.0
C1695 C 0.69696 0.14334 0.75033 0.0
C1696 C 0.6925 0.13074 0.71054 0.0
C1697 C 0.71425 0.14355 0.7704 0.0
C1698 C 0.75372 0.11483 0.78176 0.0
H1699 H 0.82284 0.1598 0.92776 0.0
H1700 H 0.7935 0.15876 0.88851 0.0
H1701 H 0.77586 0.10236 0.81141 0.0
H1702 H 0.70279 0.10838 0.66082 0.0
H1703 H 0.733 0.10851 0.69659 0.0
H1704 H 0.74944 0.16058 0.78255 0.0
C1705 C 0.80267 0.14738 0.87903 0.0
C1706 C 0.77049 0.11517 0.80472 0.0
C1707 C 0.81945 0.14793 0.90198 0.0
C1708 C 0.70579 0.11829 0.69138 0.0
C1709 C 0.72305 0.11829 0.71197 0.0
C1710 C 0.75512 0.14779 0.78862 0.0
C1711 C 0.79775 0.13229 0.84489 0.0
C1712 C 0.77989 0.13184 0.81984 0.0
C1713 C 0.72749 0.13099 0.75164 0.0
C1714 C 0.74576 0.13116 0.77386 0.0
H1715 H 0.83578 0.10655 0.85022 0.0
H1716 H 0.80701 0.10589 0.80872 0.0
H1717 H 0.77888 0.16118 0.82093 0.0
H1718 H 0.6871 0.15317 0.76598 0.0
H1719 H 0.71718 0.15338 0.80113 0.0
C1720 C 0.86698 0.57407 0.10743 0.0
C1721 C 0.88281 0.5814 0.13082 0.0
C1722 C 0.86693 0.55639 0.08092 0.0
C1723 C 0.89565 0.52222 0.01465 0.0
H1724 H 0.85976 0.48664 0.03352 0.0
C1725 C 0.89836 0.4468 0.91957 0.0
C1726 C 0.88209 0.43704 0.90881 0.0
C1727 C 0.89852 0.46426 0.94717 0.0
C1728 C 0.8697 0.49642 0.02702 0.0
H1729 H 0.91106 0.57618 0.14425 0.0
H1730 H 0.91111 0.5454 0.09673 0.0
H1731 H 0.85974 0.51743 0.07952 0.0
H1732 H 0.85316 0.43791 0.91805 0.0
H1733 H 0.85318 0.46869 0.96421 0.0
H1734 H 0.90524 0.50171 0.96107 0.0
C1735 C 0.8987 0.55327 0.09944 0.0
C1736 C 0.86973 0.51407 0.05375 0.0
C1737 C 0.89865 0.57082 0.12673 0.0
C1738 C 0.86593 0.44512 0.92593 0.0
C1739 C 0.86601 0.46275 0.95282 0.0
C1740 C 0.8954 0.5047 0.98727 0.0
C1741 C 0.88281 0.54583 0.0765 0.0
C1742 C 0.88275 0.52712 0.04799 0.0
C1743 C 0.88232 0.47261 0.96406 0.0
C1744 C 0.88247 0.49145 0.99311 0.0
H1745 H 0.85458 0.58195 0.10991 0.0
H1746 H 0.85453 0.55105 0.06335 0.0
H1747 H 0.90572 0.53208 1.00916 0.0
H1748 H 0.91106 0.4408 0.90724 0.0
H1749 H 0.91144 0.47105 0.95568 0.0
C1750 C 0.19974 0.14898 0.89567 0.0
C1751 C 0.18767 0.13403 0.88749 0.0
C1752 C 0.21595 0.1483 0.87244 0.0
C1753 C 0.23792 0.12597 0.76839 0.0
H1754 H 0.28253 0.14115 0.83519 0.0
C1755 C 0.30828 0.11898 0.68335 0.0
C1756 C 0.32156 0.13221 0.7005 0.0
C1757 C 0.2917 0.11873 0.705 0.0
C1758 C 0.27021 0.13716 0.81565 0.0
H1759 H 0.18337 0.10646 0.84934 0.0
H1760 H 0.21142 0.10548 0.80784 0.0
H1761 H 0.25431 0.14203 0.8749 0.0
H1762 H 0.32744 0.15605 0.75262 0.0
H1763 H 0.29864 0.15612 0.78882 0.0
H1764 H 0.25368 0.12156 0.70892 0.0
C1765 C 0.20831 0.11776 0.83207 0.0
C1766 C 0.254 0.13758 0.83864 0.0
C1767 C 0.19226 0.11832 0.85588 0.0
C1768 C 0.31766 0.14547 0.73881 0.0
C1769 C 0.30109 0.14541 0.75992 0.0
C1770 C 0.25414 0.1258 0.7452 0.0
C1771 C 0.22039 0.13273 0.84012 0.0
C1772 C 0.23764 0.13206 0.81535 0.0
C1773 C 0.28793 0.13186 0.74397 0.0
C1774 C 0.27055 0.1315 0.76844 0.0
H1775 H 0.19661 0.16126 0.91989 0.0
H1776 H 0.22492 0.1601 0.87927 0.0
H1777 H 0.22551 0.12174 0.74941 0.0
H1778 H 0.31088 0.10853 0.65398 0.0
H1779 H 0.28206 0.10796 0.69173 0.0
C1780 C 0.64477 0.56092 0.39792 0.0
C1781 C 0.64217 0.57745 0.42864 0.0
C1782 C 0.64587 0.54419 0.41288 0.0
C1783 C 0.65551 0.5242 0.51383 0.0
H1784 H 0.627 0.48297 0.45062 0.0
C1785 C 0.64529 0.4582 0.58679 0.0
C1786 C 0.64395 0.44133 0.55644 0.0
C1787 C 0.64593 0.47475 0.57099 0.0
C1788 C 0.63531 0.4942 0.46835 0.0
H1789 H 0.63904 0.58932 0.49939 0.0
H1790 H 0.64109 0.56026 0.52525 0.0
H1791 H 0.62704 0.51162 0.42269 0.0
H1792 H 0.64283 0.42864 0.48556 0.0
H1793 H 0.6445 0.45726 0.4582 0.0
H1794 H 0.66397 0.50679 0.55924 0.0
C1795 C 0.64229 0.56022 0.48964 0.0
C1796 C 0.63528 0.51067 0.45229 0.0
C1797 C 0.64099 0.57687 0.47469 0.0
C1798 C 0.64367 0.44138 0.50998 0.0
C1799 C 0.6445 0.45786 0.49422 0.0
C1800 C 0.65569 0.50766 0.52967 0.0
C1801 C 0.64461 0.54366 0.45893 0.0
C1802 C 0.64529 0.5259 0.47498 0.0
C1803 C 0.64542 0.47482 0.52443 0.0
C1804 C 0.64552 0.49243 0.50728 0.0
H1805 H 0.64572 0.56087 0.36226 0.0
H1806 H 0.64779 0.53167 0.38843 0.0
H1807 H 0.66353 0.53563 0.53179 0.0
H1808 H 0.64544 0.45866 0.62278 0.0
H1809 H 0.6464 0.4875 0.59536 0.0
C1810 C 0.30965 0.89966 0.34458 0.0
C1811 C 0.32282 0.88673 0.32715 0.0
C1812 C 0.29255 0.8996 0.3231 0.0
C1813 C 0.2604 0.86962 0.24822 0.0
H1814 H 0.24155 0.91428 0.21618 0.0
C1815 C 0.19771 0.8679 0.12895 0.0
C1816 C 0.18584 0.88288 0.13562 0.0
C1817 C 0.2142 0.86871 0.15328 0.0
C1818 C 0.24637 0.90171 0.22547 0.0
H1819 H 0.32818 0.86338 0.27404 0.0
H1820 H 0.29837 0.86304 0.23749 0.0
H1821 H 0.27011 0.91511 0.25888 0.0
H1822 H 0.18207 0.91062 0.17235 0.0
H1823 H 0.21028 0.91179 0.21631 0.0
H1824 H 0.23664 0.8562 0.21605 0.0
C1825 C 0.30127 0.87331 0.26746 0.0
C1826 C 0.26282 0.90222 0.24989 0.0
C1827 C 0.3184 0.87358 0.28833 0.0
C1828 C 0.19087 0.89877 0.16676 0.0
C1829 C 0.20721 0.8995 0.19165 0.0
C1830 C 0.24383 0.86915 0.22447 0.0
C1831 C 0.28817 0.88636 0.28437 0.0
C1832 C 0.27013 0.88614 0.26106 0.0
C1833 C 0.21915 0.88445 0.18541 0.0
C1834 C 0.23663 0.88514 0.21216 0.0
H1835 H 0.31265 0.91 0.37433 0.0
H1836 H 0.2827 0.90978 0.337 0.0
H1837 H 0.26558 0.85704 0.2568 0.0
H1838 H 0.19427 0.85551 0.10491 0.0
H1839 H 0.2231 0.85697 0.14649 0.0
C1840 C 0.64688 0.94771 0.41424 0.0
C1841 C 0.63062 0.94016 0.39379 0.0
C1842 C 0.64707 0.96496 0.44292 0.0
C1843 C 0.61867 1.00712 0.47676 0.0
H1844 H 0.65349 0.01731 0.57661 0.0
C1845 C 0.61542 0.07144 0.62024 0.0
C1846 C 0.63158 0.08155 0.62965 0.0
C1847 C 0.61528 0.05417 0.59164 0.0
C1848 C 0.64374 0.01467 0.54872 0.0
H1849 H 0.60177 0.94447 0.388 0.0
H1850 H 0.60188 0.97408 0.43928 0.0
H1851 H 0.6531 0.98721 0.52719 0.0
H1852 H 0.66027 0.0815 0.61701 0.0
H1853 H 0.66013 0.05109 0.56807 0.0
H1854 H 0.60899 0.0345 0.49964 0.0
C1855 C 0.61466 0.96715 0.43218 0.0
C1856 C 0.64357 0.99742 0.52008 0.0
C1857 C 0.61454 0.95006 0.40292 0.0
C1858 C 0.64763 0.07397 0.61043 0.0
C1859 C 0.64756 0.05657 0.58255 0.0
C1860 C 0.61865 0.02423 0.50591 0.0
C1861 C 0.63095 0.97495 0.45252 0.0
C1862 C 0.63108 0.99337 0.48346 0.0
C1863 C 0.63136 0.04653 0.57259 0.0
C1864 C 0.63123 0.02823 0.54208 0.0
H1865 H 0.65949 0.94037 0.4077 0.0
H1866 H 0.65996 0.97051 0.45705 0.0
H1867 H 0.60909 1.00482 0.44855 0.0
H1868 H 0.60283 0.07699 0.63442 0.0
H1869 H 0.60262 0.04671 0.58472 0.0
C1870 C 0.20251 0.39855 0.86744 0.0
C1871 C 0.18691 0.39351 0.84031 0.0
C1872 C 0.21937 0.39942 0.84791 0.0
C1873 C 0.24099 0.40359 0.74153 0.0
H1874 H 0.28228 0.38168 0.79237 0.0
C1875 C 0.30988 0.39273 0.65246 0.0
C1876 C 0.32568 0.39505 0.67987 0.0
C1877 C 0.29281 0.39319 0.67172 0.0
C1878 C 0.27098 0.38812 0.77805 0.0
H1879 H 0.1768 0.38573 0.77122 0.0
H1880 H 0.20612 0.3873 0.7374 0.0
H1881 H 0.25298 0.38173 0.82714 0.0
H1882 H 0.33587 0.40027 0.74912 0.0
H1883 H 0.30631 0.40148 0.78244 0.0
H1884 H 0.25901 0.41011 0.6926 0.0
C1885 C 0.20533 0.39065 0.77374 0.0
C1886 C 0.25415 0.38811 0.79802 0.0
C1887 C 0.18852 0.38964 0.79322 0.0
C1888 C 0.32401 0.39823 0.72689 0.0
C1889 C 0.307 0.39881 0.74608 0.0
C1890 C 0.25787 0.4037 0.72167 0.0
C1891 C 0.22098 0.39542 0.80083 0.0
C1892 C 0.23895 0.39582 0.78 0.0
C1893 C 0.29116 0.39607 0.71882 0.0
C1894 C 0.2731 0.39596 0.73967 0.0
H1895 H 0.20177 0.40163 0.90379 0.0
H1896 H 0.23114 0.40332 0.86971 0.0
H1897 H 0.22957 0.40981 0.72708 0.0
H1898 H 0.31069 0.39019 0.61612 0.0
H1899 H 0.28093 0.39084 0.64961 0.0
C1900 C 0.87048 0.95728 0.10771 0.0
C1901 C 0.87239 0.94021 0.07868 0.0
C1902 C 0.87021 0.97358 0.09063 0.0
C1903 C 0.8626 0.9918 0.98557 0.0
H1904 H 0.8919 0.0327 0.04716 0.0
C1905 C 0.87585 0.05671 0.90865 0.0
C1906 C 0.87674 0.0737 0.9387 0.0
C1907 C 0.87481 0.04023 0.92493 0.0
C1908 C 0.88342 0.02154 0.02975 0.0
H1909 H 0.87502 0.92695 1.00863 0.0
H1910 H 0.87448 0.9552 0.97923 0.0
H1911 H 0.89023 1.00484 0.07814 0.0
H1912 H 0.87661 0.08656 1.00957 0.0
H1913 H 0.8744 0.05824 0.03736 0.0
H1914 H 0.85567 1.00855 0.93732 0.0
C1915 C 0.87316 0.95605 0.01512 0.0
C1916 C 0.88248 1.00553 0.04763 0.0
C1917 C 0.8736 0.93983 0.03215 0.0
C1918 C 0.87621 0.07379 0.98521 0.0
C1919 C 0.87504 0.05745 1.00134 0.0
C1920 C 0.86344 1.00788 0.96781 0.0
C1921 C 0.87163 0.97316 0.04411 0.0
C1922 C 0.87208 0.99044 0.02578 0.0
C1923 C 0.87454 0.04039 0.9716 0.0
C1924 C 0.87385 0.02301 0.9897 0.0
H1925 H 0.86952 0.95808 0.14367 0.0
H1926 H 0.86885 0.98654 0.11386 0.0
H1927 H 0.85432 0.98048 0.96806 0.0
H1928 H 0.87625 0.05612 0.87267 0.0
H1929 H 0.87458 0.02737 0.90095 0.0
C1930 C 0.19385 0.64206 0.27861 0.0
C1931 C 0.18968 0.63013 0.23757 0.0
C1932 C 0.211 0.64193 0.29925 0.0
C1933 C 0.2505 0.61301 0.3086 0.0
H1934 H 0.27558 0.65911 0.35194 0.0
C1935 C 0.32373 0.6154 0.38359 0.0
C1936 C 0.32878 0.63027 0.41783 0.0
C1937 C 0.30692 0.61517 0.36095 0.0
C1938 C 0.26871 0.6461 0.34083 0.0
H1939 H 0.20031 0.60854 0.18632 0.0
H1940 H 0.23025 0.60807 0.22304 0.0
H1941 H 0.24614 0.65905 0.31381 0.0
H1942 H 0.31996 0.65628 0.45632 0.0
H1943 H 0.29036 0.65559 0.41847 0.0
H1944 H 0.27267 0.60003 0.33676 0.0
C1945 C 0.22019 0.6176 0.23895 0.0
C1946 C 0.25184 0.64609 0.31864 0.0
C1947 C 0.20308 0.61794 0.21783 0.0
C1948 C 0.31649 0.64469 0.42982 0.0
C1949 C 0.29956 0.64435 0.40769 0.0
C1950 C 0.26727 0.61302 0.33142 0.0
C1951 C 0.22436 0.62968 0.27979 0.0
C1952 C 0.24252 0.62955 0.30232 0.0
C1953 C 0.29456 0.62968 0.37252 0.0
C1954 C 0.27665 0.62958 0.34797 0.0
H1955 H 0.18389 0.65166 0.29476 0.0
H1956 H 0.21374 0.65128 0.33087 0.0
H1957 H 0.24356 0.60006 0.29684 0.0
H1958 H 0.33289 0.60403 0.37375 0.0
H1959 H 0.30381 0.60374 0.33378 0.0
C1960 C 0.3669 0.94456 0.42596 0.0
C1961 C 0.38312 0.93686 0.4079 0.0
C1962 C 0.36666 0.96242 0.4517 0.0
C1963 C 0.39505 0.99687 0.52464 0.0
H1964 H 0.36004 0.03226 0.49686 0.0
C1965 C 0.39819 0.07291 0.61677 0.0
C1966 C 0.38203 0.08288 0.6237 0.0
C1967 C 0.39827 0.05523 0.59013 0.0
C1968 C 0.36973 0.02254 0.50584 0.0
H1969 H 0.41181 0.94169 0.40322 0.0
H1970 H 0.41147 0.97272 0.44919 0.0
H1971 H 0.36003 1.00123 0.45211 0.0
H1972 H 0.35325 0.08212 0.60849 0.0
H1973 H 0.35313 0.05104 0.56392 0.0
H1974 H 0.40439 0.01773 0.57928 0.0
C1975 C 0.39893 0.96502 0.443 0.0
C1976 C 0.36977 1.00473 0.47984 0.0
C1977 C 0.39911 0.9473 0.41651 0.0
C1978 C 0.36592 0.07477 0.60365 0.0
C1979 C 0.36593 0.05694 0.57766 0.0
C1980 C 0.3948 0.01456 0.5512 0.0
C1981 C 0.38269 0.97283 0.46075 0.0
C1982 C 0.38249 0.99171 0.48876 0.0
C1983 C 0.38213 0.04686 0.57028 0.0
C1984 C 0.38221 0.02778 0.54215 0.0
H1985 H 0.35438 0.93681 0.41999 0.0
H1986 H 0.35397 0.968 0.46517 0.0
H1987 H 0.40488 0.98708 0.5327 0.0
H1988 H 0.41086 0.07889 0.63137 0.0
H1989 H 0.41112 0.04828 0.58467 0.0
C1990 C 0.8177 0.64386 0.24109 0.0
C1991 C 0.82143 0.6312 0.20151 0.0
C1992 C 0.80062 0.64451 0.25994 0.0
C1993 C 0.76154 0.61665 0.27185 0.0
H1994 H 0.73666 0.66308 0.30555 0.0
C1995 C 0.69061 0.62069 0.34978 0.0
C1996 C 0.68601 0.63654 0.38079 0.0
C1997 C 0.70669 0.61992 0.3262 0.0
C1998 C 0.7435 0.65002 0.29716 0.0
H1999 H 0.81009 0.60925 0.1507 0.0
H2000 H 0.78018 0.61002 0.18466 0.0
H2001 H 0.76524 0.66194 0.2669 0.0
H2002 H 0.69502 0.66376 0.41283 0.0
H2003 H 0.72353 0.66219 0.37362 0.0
H2004 H 0.7404 0.60476 0.30374 0.0
C2005 C 0.79056 0.61957 0.20062 0.0
C2006 C 0.75983 0.64937 0.27457 0.0
C2007 C 0.80761 0.61919 0.18111 0.0
C2008 C 0.69813 0.65142 0.38882 0.0
C2009 C 0.71441 0.65055 0.36585 0.0
C2010 C 0.74536 0.61733 0.29519 0.0
C2011 C 0.78691 0.63228 0.24021 0.0
C2012 C 0.76904 0.6327 0.26179 0.0
C2013 C 0.71888 0.63485 0.33377 0.0
C2014 C 0.7361 0.63405 0.30838 0.0
H2015 H 0.828 0.65339 0.25756 0.0
H2016 H 0.79825 0.65435 0.29059 0.0
H2017 H 0.76848 0.60365 0.26291 0.0
H2018 H 0.68163 0.60891 0.34322 0.0
H2019 H 0.70937 0.60768 0.30148 0.0
C2020 C 0.14166 0.05756 0.90665 0.0
C2021 C 0.1425 0.07462 0.93639 0.0
C2022 C 0.14218 0.04111 0.92325 0.0
C2023 C 0.13497 0.02333 0.02887 0.0
H2024 H 0.15966 0.98019 0.96641 0.0
C2025 C 0.14519 0.9582 0.10665 0.0
C2026 C 0.14162 0.94131 0.07767 0.0
C2027 C 0.14608 0.97448 0.08957 0.0
C2028 C 0.15261 0.99209 0.98414 0.0
H2029 H 0.14527 0.08762 1.007 0.0
H2030 H 0.14659 0.05932 0.03536 0.0
H2031 H 0.15955 1.00824 0.93543 0.0
H2032 H 0.13657 0.92834 1.00773 0.0
H2033 H 0.13815 0.95651 0.97836 0.0
H2034 H 0.12812 1.00722 0.07768 0.0
C2035 C 0.14497 0.05848 0.99936 0.0
C2036 C 0.15248 1.00818 0.96625 0.0
C2037 C 0.14432 0.0748 0.98291 0.0
C2038 C 0.13929 0.94107 0.03122 0.0
C2039 C 0.14033 0.95724 0.0142 0.0
C2040 C 0.13519 1.00731 0.04686 0.0
C2041 C 0.14366 0.04138 0.96994 0.0
C2042 C 0.14366 0.02405 0.98838 0.0
C2043 C 0.14361 0.97419 0.0431 0.0
C2044 C 0.14398 0.99146 0.02471 0.0
H2045 H 0.14022 0.0569 0.87067 0.0
H2046 H 0.141 0.02822 0.89952 0.0
H2047 H 0.1277 0.0351 0.04649 0.0
H2048 H 0.14706 0.9589 0.14255 0.0
H2049 H 0.14879 0.98729 0.11274 0.0
C2050 C 0.6923 0.39905 0.64747 0.0
C2051 C 0.68759 0.38293 0.61671 0.0
C2052 C 0.7084 0.40005 0.67332 0.0
C2053 C 0.75393 0.38107 0.6736 0.0
H2054 H 0.75374 0.39706 0.80332 0.0
C2055 C 0.81774 0.37438 0.78157 0.0
C2056 C 0.82154 0.38775 0.82029 0.0
C2057 C 0.80116 0.37414 0.75829 0.0
C2058 C 0.75414 0.39286 0.76708 0.0
H2059 H 0.69626 0.35538 0.58798 0.0
H2060 H 0.7247 0.35732 0.63212 0.0
H2061 H 0.72545 0.39628 0.75922 0.0
H2062 H 0.81078 0.41132 0.86527 0.0
H2063 H 0.78193 0.41141 0.82361 0.0
H2064 H 0.78252 0.37817 0.68063 0.0
C2065 C 0.71578 0.36909 0.63669 0.0
C2066 C 0.73789 0.39233 0.74187 0.0
C2067 C 0.69952 0.36797 0.61147 0.0
C2068 C 0.80822 0.4008 0.8356 0.0
C2069 C 0.79164 0.40077 0.81175 0.0
C2070 C 0.77019 0.38188 0.6986 0.0
C2071 C 0.72034 0.3851 0.66812 0.0
C2072 C 0.7376 0.38622 0.69493 0.0
C2073 C 0.78794 0.38751 0.77245 0.0
C2074 C 0.77055 0.38753 0.74583 0.0
H2075 H 0.68351 0.41091 0.6517 0.0
H2076 H 0.71166 0.41263 0.69687 0.0
H2077 H 0.75416 0.3766 0.63738 0.0
H2078 H 0.82759 0.36392 0.76923 0.0
H2079 H 0.79873 0.36334 0.72918 0.0
loop_
_geom_bond_atom_site_label_1
_geom_bond_atom_site_label_2
_geom_bond_distance
_geom_bond_site_symmetry_2
_ccdc_geom_bond_type
Ho0 C3 2.811 . S
Ho0 O20 2.322 . S
Ho0 O22 2.378 . S
Ho0 O23 2.524 . S
Ho0 O24 2.381 . S
Ho0 O25 2.669 . S
Ho0 O27 2.346 . S
Ho0 O31 2.305 . S
Ho1 C12 2.811 . S
Ho1 O21 2.346 . S
Ho1 O25 2.305 . S
Ho1 O26 2.322 . S
Ho1 O28 2.378 . S
Ho1 O29 2.524 . S
Ho1 O30 2.381 . S
Ho1 O31 2.669 . S
C2 O20 1.259 . S
C2 O21 1.268 . S
C3 Ho0 2.811 . S
C3 C4 1.488 1_554 S
C3 O22 1.215 . S
C3 O23 1.289 . S
C4 C3 1.488 1_556 S
C4 C5 1.348 . S
C4 C9 1.413 . S
C5 C4 1.348 . S
C5 C6 1.442 . S
C5 H32 0.930 . S
C6 C5 1.442 . S
C6 C7 1.381 . S
C6 H33 0.931 . S
C7 C6 1.381 . S
C7 C8 1.321 . S
C8 C7 1.321 . S
C8 C9 1.403 . S
C8 H34 0.934 . S
C9 C4 1.413 . S
C9 C8 1.403 . S
C9 H35 0.930 . S
C10 O24 1.275 . S
C10 O25 1.256 . S
C11 O26 1.259 . S
C11 O27 1.268 . S
C12 Ho1 2.811 . S
C12 C13 1.488 . S
C12 O28 1.215 . S
C12 O29 1.289 . S
C13 C12 1.488 . S
C13 C14 1.348 . S
C13 C18 1.413 . S
C14 C13 1.348 . S
C14 C15 1.442 . S
C14 H36 0.930 . S
C15 C14 1.442 . S
C15 C16 1.381 . S
C15 H37 0.931 . S
C16 C15 1.381 . S
C16 C17 1.321 . S
C17 C16 1.321 . S
C17 C18 1.403 . S
C17 H38 0.934 . S
C18 C13 1.413 . S
C18 C17 1.403 . S
C18 H39 0.930 . S
C19 O30 1.275 . S
C19 O31 1.256 . S
O20 Ho0 2.322 . S
O20 C2 1.259 . S
O21 Ho1 2.346 . S
O21 C2 1.268 . S
O22 Ho0 2.378 . S
O22 C3 1.215 . S
O23 Ho0 2.524 . S
O23 C3 1.289 . S
O24 Ho0 2.381 . S
O24 C10 1.275 . S
O25 Ho0 2.669 . S
O25 Ho1 2.305 . S
O25 C10 1.256 . S
O26 Ho1 2.322 . S
O26 C11 1.259 . S
O27 Ho0 2.346 . S
O27 C11 1.268 . S
O28 Ho1 2.378 . S
O28 C12 1.215 . S
O29 Ho1 2.524 . S
O29 C12 1.289 . S
O30 Ho1 2.381 . S
O30 C19 1.275 . S
O31 Ho0 2.305 . S
O31 Ho1 2.669 . S
O31 C19 1.256 . S
H32 C5 0.930 . S
H33 C6 0.931 . S
H34 C8 0.934 . S
H35 C9 0.930 . S
H36 C14 0.930 . S
H37 C15 0.931 . S
H38 C17 0.934 . S
H39 C18 0.930 . S
Ho40 C43 2.811 . S
Ho40 O60 2.322 . S
Ho40 O62 2.378 . S
Ho40 O63 2.524 . S
Ho40 O64 2.381 . S
Ho40 O65 2.669 . S
Ho40 O67 2.346 . S
Ho40 O71 2.305 . S
Ho41 C52 2.811 . S
Ho41 O61 2.346 . S
Ho41 O65 2.305 . S
Ho41 O66 2.322 . S
Ho41 O68 2.378 . S
Ho41 O69 2.524 . S
Ho41 O70 2.381 . S
Ho41 O71 2.669 . S
C42 O60 1.259 . S
C42 O61 1.268 . S
C43 Ho40 2.811 . S
C43 C44 1.488 . S
C43 O62 1.215 . S
C43 O63 1.289 . S
C44 C43 1.488 . S
C44 C45 1.348 . S
C44 C49 1.413 . S
C45 C44 1.348 . S
C45 C46 1.442 . S
C45 H72 0.930 . S
C46 C45 1.442 . S
C46 C47 1.381 . S
C46 H73 0.931 . S
C47 C46 1.381 . S
C47 C48 1.321 . S
C48 C47 1.321 . S
C48 C49 1.403 . S
C48 H74 0.934 . S
C49 C44 1.413 . S
C49 C48 1.403 . S
C49 H75 0.930 . S
C50 O64 1.275 . S
C50 O65 1.256 . S
C51 O66 1.259 . S
C51 O67 1.268 . S
C52 Ho41 2.811 . S
C52 C53 1.488 . S
C52 O68 1.215 . S
C52 O69 1.289 . S
C53 C52 1.488 . S
C53 C54 1.348 . S
C53 C58 1.413 . S
C54 C53 1.348 . S
C54 C55 1.442 . S
C54 H76 0.930 . S
C55 C54 1.442 . S
C55 C56 1.381 . S
C55 H77 0.931 . S
C56 C55 1.381 . S
C56 C57 1.321 . S
C57 C56 1.321 . S
C57 C58 1.403 . S
C57 H78 0.934 . S
C58 C53 1.413 . S
C58 C57 1.403 . S
C58 H79 0.930 . S
C59 O70 1.275 . S
C59 O71 1.256 . S
O60 Ho40 2.322 . S
O60 C42 1.259 . S
O61 Ho41 2.346 . S
O61 C42 1.268 . S
O62 Ho40 2.378 . S
O62 C43 1.215 . S
O63 Ho40 2.524 . S
O63 C43 1.289 . S
O64 Ho40 2.381 . S
O64 C50 1.275 . S
O65 Ho40 2.669 . S
O65 Ho41 2.305 . S
O65 C50 1.256 . S
O66 Ho41 2.322 . S
O66 C51 1.259 . S
O67 Ho40 2.346 . S
O67 C51 1.268 . S
O68 Ho41 2.378 . S
O68 C52 1.215 . S
O69 Ho41 2.524 . S
O69 C52 1.289 . S
O70 Ho41 2.381 . S
O70 C59 1.275 . S
O71 Ho40 2.305 . S
O71 Ho41 2.669 . S
O71 C59 1.256 . S
H72 C45 0.930 . S
H73 C46 0.931 . S
H74 C48 0.934 . S
H75 C49 0.930 . S
H76 C54 0.930 . S
H77 C55 0.931 . S
H78 C57 0.934 . S
H79 C58 0.930 . S
Ho80 C83 2.811 . S
Ho80 O100 2.322 . S
Ho80 O102 2.378 . S
Ho80 O103 2.524 . S
Ho80 O104 2.381 . S
Ho80 O105 2.669 . S
Ho80 O107 2.346 . S
Ho80 O111 2.305 . S
Ho81 C92 2.811 . S
Ho81 O101 2.346 . S
Ho81 O105 2.305 . S
Ho81 O106 2.322 . S
Ho81 O108 2.378 . S
Ho81 O109 2.524 . S
Ho81 O110 2.381 . S
Ho81 O111 2.669 . S
C82 O100 1.259 . S
C82 O101 1.268 . S
C83 Ho80 2.811 . S
C83 C84 1.488 . S
C83 O102 1.215 . S
C83 O103 1.289 . S
C84 C83 1.488 . S
C84 C85 1.348 . S
C84 C89 1.413 . S
C85 C84 1.348 . S
C85 C86 1.442 . S
C85 H112 0.930 . S
C86 C85 1.442 . S
C86 C87 1.381 . S
C86 H113 0.931 . S
C87 C86 1.381 . S
C87 C88 1.321 . S
C88 C87 1.321 . S
C88 C89 1.403 . S
C88 H114 0.934 . S
C89 C84 1.413 . S
C89 C88 1.403 . S
C89 H115 0.930 . S
C90 O104 1.275 . S
C90 O105 1.256 . S
C91 O106 1.259 . S
C91 O107 1.268 . S
C92 Ho81 2.811 . S
C92 C93 1.488 . S
C92 O108 1.215 . S
C92 O109 1.289 . S
C93 C92 1.488 . S
C93 C94 1.348 . S
C93 C98 1.413 . S
C94 C93 1.348 . S
C94 C95 1.442 . S
C94 H116 0.930 . S
C95 C94 1.442 . S
C95 C96 1.381 . S
C95 H117 0.931 . S
C96 C95 1.381 . S
C96 C97 1.321 . S
C97 C96 1.321 . S
C97 C98 1.403 . S
C97 H118 0.934 . S
C98 C93 1.413 . S
C98 C97 1.403 . S
C98 H119 0.930 . S
C99 O110 1.275 . S
C99 O111 1.256 . S
O100 Ho80 2.322 . S
O100 C82 1.259 . S
O101 Ho81 2.346 . S
O101 C82 1.268 . S
O102 Ho80 2.378 . S
O102 C83 1.215 . S
O103 Ho80 2.524 . S
O103 C83 1.289 . S
O104 Ho80 2.381 . S
O104 C90 1.275 . S
O105 Ho80 2.669 . S
O105 Ho81 2.305 . S
O105 C90 1.256 . S
O106 Ho81 2.322 . S
O106 C91 1.259 . S
O107 Ho80 2.346 . S
O107 C91 1.268 . S
O108 Ho81 2.378 . S
O108 C92 1.215 . S
O109 Ho81 2.524 . S
O109 C92 1.289 . S
O110 Ho81 2.381 . S
O110 C99 1.275 . S
O111 Ho80 2.305 . S
O111 Ho81 2.669 . S
O111 C99 1.256 . S
H112 C85 0.930 . S
H113 C86 0.931 . S
H114 C88 0.934 . S
H115 C89 0.930 . S
H116 C94 0.930 . S
H117 C95 0.931 . S
H118 C97 0.934 . S
H119 C98 0.930 . S
Ho120 C123 2.811 . S
Ho120 O140 2.322 . S
Ho120 O142 2.378 . S
Ho120 O143 2.524 . S
Ho120 O144 2.381 . S
Ho120 O145 2.669 . S
Ho120 O147 2.346 . S
Ho120 O151 2.305 . S
Ho121 C132 2.811 1_556 S
Ho121 O141 2.346 . S
Ho121 O145 2.305 . S
Ho121 O146 2.322 . S
Ho121 O148 2.378 . S
Ho121 O149 2.524 . S
Ho121 O150 2.381 . S
Ho121 O151 2.669 . S
C122 O140 1.259 . S
C122 O141 1.268 . S
C123 Ho120 2.811 . S
C123 C124 1.488 . S
C123 O142 1.215 . S
C123 O143 1.289 . S
C124 C123 1.488 . S
C124 C125 1.348 . S
C124 C129 1.413 . S
C125 C124 1.348 . S
C125 C126 1.442 . S
C125 H152 0.930 . S
C126 C125 1.442 . S
C126 C127 1.381 . S
C126 H153 0.931 . S
C127 C126 1.381 . S
C127 C128 1.321 . S
C128 C127 1.321 . S
C128 C129 1.403 . S
C128 H154 0.934 . S
C129 C124 1.413 . S
C129 C128 1.403 . S
C129 H155 0.930 . S
C130 O144 1.275 . S
C130 O145 1.256 . S
C131 O146 1.259 . S
C131 O147 1.268 . S
C132 Ho121 2.811 1_554 S
C132 C133 1.488 . S
C132 O148 1.215 1_554 S
C132 O149 1.289 1_554 S
C133 C132 1.488 . S
C133 C134 1.348 . S
C133 C138 1.413 . S
C134 C133 1.348 . S
C134 C135 1.442 . S
C134 H156 0.930 . S
C135 C134 1.442 . S
C135 C136 1.381 . S
C135 H157 0.931 . S
C136 C135 1.381 . S
C136 C137 1.321 . S
C137 C136 1.321 . S
C137 C138 1.403 . S
C137 H158 0.934 . S
C138 C133 1.413 . S
C138 C137 1.403 . S
C138 H159 0.930 . S
C139 O150 1.275 . S
C139 O151 1.256 . S
O140 Ho120 2.322 . S
O140 C122 1.259 . S
O141 Ho121 2.346 . S
O141 C122 1.268 . S
O142 Ho120 2.378 . S
O142 C123 1.215 . S
O143 Ho120 2.524 . S
O143 C123 1.289 . S
O144 Ho120 2.381 . S
O144 C130 1.275 . S
O145 Ho120 2.669 . S
O145 Ho121 2.305 . S
O145 C130 1.256 . S
O146 Ho121 2.322 . S
O146 C131 1.259 . S
O147 Ho120 2.346 . S
O147 C131 1.268 . S
O148 Ho121 2.378 . S
O148 C132 1.215 1_556 S
O149 Ho121 2.524 . S
O149 C132 1.289 1_556 S
O150 Ho121 2.381 . S
O150 C139 1.275 . S
O151 Ho120 2.305 . S
O151 Ho121 2.669 . S
O151 C139 1.256 . S
H152 C125 0.930 . S
H153 C126 0.931 . S
H154 C128 0.934 . S
H155 C129 0.930 . S
H156 C134 0.930 . S
H157 C135 0.931 . S
H158 C137 0.934 . S
H159 C138 0.930 . S
Ho160 C163 2.811 1_556 S
Ho160 O180 2.322 . S
Ho160 O182 2.378 1_556 S
Ho160 O183 2.524 1_556 S
Ho160 O184 2.381 . S
Ho160 O185 2.669 . S
Ho160 O187 2.346 . S
Ho160 O191 2.305 . S
Ho161 C172 2.811 . S
Ho161 O181 2.346 . S
Ho161 O185 2.305 . S
Ho161 O186 2.322 . S
Ho161 O188 2.378 . S
Ho161 O189 2.524 . S
Ho161 O190 2.381 . S
Ho161 O191 2.669 . S
C162 O180 1.259 . S
C162 O181 1.268 . S
C163 Ho160 2.811 1_554 S
C163 C164 1.488 . S
C163 O182 1.215 . S
C163 O183 1.289 . S
C164 C163 1.488 . S
C164 C165 1.348 . S
C164 C169 1.413 . S
C165 C164 1.348 . S
C165 C166 1.442 . S
C165 H192 0.930 . S
C166 C165 1.442 . S
C166 C167 1.381 . S
C166 H193 0.931 . S
C167 C166 1.381 . S
C167 C168 1.321 . S
C168 C167 1.321 . S
C168 C169 1.403 . S
C168 H194 0.934 . S
C169 C164 1.413 . S
C169 C168 1.403 . S
C169 H195 0.930 . S
C170 O184 1.275 . S
C170 O185 1.256 . S
C171 O186 1.259 . S
C171 O187 1.268 . S
C172 Ho161 2.811 . S
C172 C173 1.488 . S
C172 O188 1.215 . S
C172 O189 1.289 . S
C173 C172 1.488 . S
C173 C174 1.348 . S
C173 C178 1.413 . S
C174 C173 1.348 . S
C174 C175 1.442 . S
C174 H196 0.930 . S
C175 C174 1.442 . S
C175 C176 1.381 . S
C175 H197 0.931 . S
C176 C175 1.381 . S
C176 C177 1.321 . S
C177 C176 1.321 . S
C177 C178 1.403 . S
C177 H198 0.934 . S
C178 C173 1.413 . S
C178 C177 1.403 . S
C178 H199 0.930 . S
C179 O190 1.275 . S
C179 O191 1.256 . S
O180 Ho160 2.322 . S
O180 C162 1.259 . S
O181 Ho161 2.346 . S
O181 C162 1.268 . S
O182 Ho160 2.378 1_554 S
O182 C163 1.215 . S
O183 Ho160 2.524 1_554 S
O183 C163 1.289 . S
O184 Ho160 2.381 . S
O184 C170 1.275 . S
O185 Ho160 2.669 . S
O185 Ho161 2.305 . S
O185 C170 1.256 . S
O186 Ho161 2.322 . S
O186 C171 1.259 . S
O187 Ho160 2.346 . S
O187 C171 1.268 . S
O188 Ho161 2.378 . S
O188 C172 1.215 . S
O189 Ho161 2.524 . S
O189 C172 1.289 . S
O190 Ho161 2.381 . S
O190 C179 1.275 . S
O191 Ho160 2.305 . S
O191 Ho161 2.669 . S
O191 C179 1.256 . S
H192 C165 0.930 . S
H193 C166 0.931 . S
H194 C168 0.934 . S
H195 C169 0.930 . S
H196 C174 0.930 . S
H197 C175 0.931 . S
H198 C177 0.934 . S
H199 C178 0.930 . S
Ho200 C203 2.811 . S
Ho200 O220 2.322 . S
Ho200 O222 2.378 . S
Ho200 O223 2.524 . S
Ho200 O224 2.381 . S
Ho200 O225 2.669 . S
Ho200 O227 2.346 . S
Ho200 O231 2.305 . S
Ho201 C212 2.811 1_554 S
Ho201 O221 2.346 . S
Ho201 O225 2.305 . S
Ho201 O226 2.322 . S
Ho201 O228 2.378 1_554 S
Ho201 O229 2.524 . S
Ho201 O230 2.381 . S
Ho201 O231 2.669 . S
C202 O220 1.259 . S
C202 O221 1.268 . S
C203 Ho200 2.811 . S
C203 C204 1.488 . S
C203 O222 1.215 . S
C203 O223 1.289 . S
C204 C203 1.488 . S
C204 C205 1.348 . S
C204 C209 1.413 . S
C205 C204 1.348 . S
C205 C206 1.442 . S
C205 H232 0.930 . S
C206 C205 1.442 . S
C206 C207 1.381 . S
C206 H233 0.931 . S
C207 C206 1.381 . S
C207 C208 1.321 . S
C208 C207 1.321 . S
C208 C209 1.403 . S
C208 H234 0.934 . S
C209 C204 1.413 . S
C209 C208 1.403 . S
C209 H235 0.930 . S
C210 O224 1.275 . S
C210 O225 1.256 . S
C211 O226 1.259 . S
C211 O227 1.268 . S
C212 Ho201 2.811 1_556 S
C212 C213 1.488 . S
C212 O228 1.215 . S
C212 O229 1.289 1_556 S
C213 C212 1.488 . S
C213 C214 1.348 . S
C213 C218 1.413 . S
C214 C213 1.348 . S
C214 C215 1.442 . S
C214 H236 0.930 . S
C215 C214 1.442 . S
C215 C216 1.381 . S
C215 H237 0.931 . S
C216 C215 1.381 . S
C216 C217 1.321 . S
C217 C216 1.321 . S
C217 C218 1.403 . S
C217 H238 0.934 . S
C218 C213 1.413 . S
C218 C217 1.403 . S
C218 H239 0.930 . S
C219 O230 1.275 . S
C219 O231 1.256 . S
O220 Ho200 2.322 . S
O220 C202 1.259 . S
O221 Ho201 2.346 . S
O221 C202 1.268 . S
O222 Ho200 2.378 . S
O222 C203 1.215 . S
O223 Ho200 2.524 . S
O223 C203 1.289 . S
O224 Ho200 2.381 . S
O224 C210 1.275 . S
O225 Ho200 2.669 . S
O225 Ho201 2.305 . S
O225 C210 1.256 . S
O226 Ho201 2.322 . S
O226 C211 1.259 . S
O227 Ho200 2.346 . S
O227 C211 1.268 . S
O228 Ho201 2.378 1_556 S
O228 C212 1.215 . S
O229 Ho201 2.524 . S
O229 C212 1.289 1_554 S
O230 Ho201 2.381 . S
O230 C219 1.275 . S
O231 Ho200 2.305 . S
O231 Ho201 2.669 . S
O231 C219 1.256 . S
H232 C205 0.930 . S
H233 C206 0.931 . S
H234 C208 0.934 . S
H235 C209 0.930 . S
H236 C214 0.930 . S
H237 C215 0.931 . S
H238 C217 0.934 . S
H239 C218 0.930 . S
Ho240 C243 2.811 . S
Ho240 O260 2.322 . S
Ho240 O262 2.378 . S
Ho240 O263 2.524 . S
Ho240 O264 2.381 . S
Ho240 O265 2.669 . S
Ho240 O267 2.346 . S
Ho240 O271 2.305 . S
Ho241 C252 2.811 . S
Ho241 O261 2.346 . S
Ho241 O265 2.305 . S
Ho241 O266 2.322 . S
Ho241 O268 2.378 . S
Ho241 O269 2.524 . S
Ho241 O270 2.381 . S
Ho241 O271 2.669 . S
C242 O260 1.259 . S
C242 O261 1.268 . S
C243 Ho240 2.811 . S
C243 C244 1.488 . S
C243 O262 1.215 . S
C243 O263 1.289 . S
C244 C243 1.488 . S
C244 C245 1.348 . S
C244 C249 1.413 . S
C245 C244 1.348 . S
C245 C246 1.442 . S
C245 H272 0.930 . S
C246 C245 1.442 . S
C246 C247 1.381 . S
C246 H273 0.931 . S
C247 C246 1.381 . S
C247 C248 1.321 . S
C248 C247 1.321 . S
C248 C249 1.403 . S
C248 H274 0.934 . S
C249 C244 1.413 . S
C249 C248 1.403 . S
C249 H275 0.930 . S
C250 O264 1.275 . S
C250 O265 1.256 . S
C251 O266 1.259 . S
C251 O267 1.268 . S
C252 Ho241 2.811 . S
C252 C253 1.488 . S
C252 O268 1.215 . S
C252 O269 1.289 . S
C253 C252 1.488 . S
C253 C254 1.348 . S
C253 C258 1.413 . S
C254 C253 1.348 . S
C254 C255 1.442 . S
C254 H276 0.930 . S
C255 C254 1.442 . S
C255 C256 1.381 . S
C255 H277 0.931 . S
C256 C255 1.381 . S
C256 C257 1.321 . S
C257 C256 1.321 . S
C257 C258 1.403 . S
C257 H278 0.934 . S
C258 C253 1.413 . S
C258 C257 1.403 . S
C258 H279 0.930 . S
C259 O270 1.275 . S
C259 O271 1.256 . S
O260 Ho240 2.322 . S
O260 C242 1.259 . S
O261 Ho241 2.346 . S
O261 C242 1.268 . S
O262 Ho240 2.378 . S
O262 C243 1.215 . S
O263 Ho240 2.524 . S
O263 C243 1.289 . S
O264 Ho240 2.381 . S
O264 C250 1.275 . S
O265 Ho240 2.669 . S
O265 Ho241 2.305 . S
O265 C250 1.256 . S
O266 Ho241 2.322 . S
O266 C251 1.259 . S
O267 Ho240 2.346 . S
O267 C251 1.268 . S
O268 Ho241 2.378 . S
O268 C252 1.215 . S
O269 Ho241 2.524 . S
O269 C252 1.289 . S
O270 Ho241 2.381 . S
O270 C259 1.275 . S
O271 Ho240 2.305 . S
O271 Ho241 2.669 . S
O271 C259 1.256 . S
H272 C245 0.930 . S
H273 C246 0.931 . S
H274 C248 0.934 . S
H275 C249 0.930 . S
H276 C254 0.930 . S
H277 C255 0.931 . S
H278 C257 0.934 . S
H279 C258 0.930 . S
Ho280 C283 2.811 . S
Ho280 O300 2.322 . S
Ho280 O302 2.378 . S
Ho280 O303 2.524 . S
Ho280 O304 2.381 . S
Ho280 O305 2.669 . S
Ho280 O307 2.346 . S
Ho280 O311 2.305 . S
Ho281 C292 2.811 . S
Ho281 O301 2.346 . S
Ho281 O305 2.305 . S
Ho281 O306 2.322 . S
Ho281 O308 2.378 . S
Ho281 O309 2.524 . S
Ho281 O310 2.381 . S
Ho281 O311 2.669 . S
C282 O300 1.259 . S
C282 O301 1.268 . S
C283 Ho280 2.811 . S
C283 C284 1.488 . S
C283 O302 1.215 . S
C283 O303 1.289 . S
C284 C283 1.488 . S
C284 C285 1.348 . S
C284 C289 1.413 . S
C285 C284 1.348 . S
C285 C286 1.442 . S
C285 H312 0.930 . S
C286 C285 1.442 . S
C286 C287 1.381 . S
C286 H313 0.931 . S
C287 C286 1.381 . S
C287 C288 1.321 . S
C288 C287 1.321 . S
C288 C289 1.403 . S
C288 H314 0.934 . S
C289 C284 1.413 . S
C289 C288 1.403 . S
C289 H315 0.930 . S
C290 O304 1.275 . S
C290 O305 1.256 . S
C291 O306 1.259 . S
C291 O307 1.268 . S
C292 Ho281 2.811 . S
C292 C293 1.488 . S
C292 O308 1.215 . S
C292 O309 1.289 . S
C293 C292 1.488 . S
C293 C294 1.348 . S
C293 C298 1.413 . S
C294 C293 1.348 . S
C294 C295 1.442 . S
C294 H316 0.930 . S
C295 C294 1.442 . S
C295 C296 1.381 . S
C295 H317 0.931 . S
C296 C295 1.381 . S
C296 C297 1.321 . S
C297 C296 1.321 . S
C297 C298 1.403 . S
C297 H318 0.934 . S
C298 C293 1.413 . S
C298 C297 1.403 . S
C298 H319 0.930 . S
C299 O310 1.275 . S
C299 O311 1.256 . S
O300 Ho280 2.322 . S
O300 C282 1.259 . S
O301 Ho281 2.346 . S
O301 C282 1.268 . S
O302 Ho280 2.378 . S
O302 C283 1.215 . S
O303 Ho280 2.524 . S
O303 C283 1.289 . S
O304 Ho280 2.381 . S
O304 C290 1.275 . S
O305 Ho280 2.669 . S
O305 Ho281 2.305 . S
O305 C290 1.256 . S
O306 Ho281 2.322 . S
O306 C291 1.259 . S
O307 Ho280 2.346 . S
O307 C291 1.268 . S
O308 Ho281 2.378 . S
O308 C292 1.215 . S
O309 Ho281 2.524 . S
O309 C292 1.289 . S
O310 Ho281 2.381 . S
O310 C299 1.275 . S
O311 Ho280 2.305 . S
O311 Ho281 2.669 . S
O311 C299 1.256 . S
H312 C285 0.930 . S
H313 C286 0.931 . S
H314 C288 0.934 . S
H315 C289 0.930 . S
H316 C294 0.930 . S
H317 C295 0.931 . S
H318 C297 0.934 . S
H319 C298 0.930 . S
Ho320 C323 2.811 . S
Ho320 O340 2.322 . S
Ho320 O342 2.378 . S
Ho320 O343 2.524 . S
Ho320 O344 2.381 . S
Ho320 O345 2.669 . S
Ho320 O347 2.346 . S
Ho320 O351 2.305 . S
Ho321 C332 2.811 1_556 S
Ho321 O341 2.346 . S
Ho321 O345 2.305 . S
Ho321 O346 2.322 . S
Ho321 O348 2.378 . S
Ho321 O349 2.544 . S
Ho321 O350 2.381 . S
Ho321 O351 2.669 . S
C322 O340 1.259 . S
C322 O341 1.268 . S
C323 Ho320 2.811 . S
C323 C324 1.488 . S
C323 O342 1.215 . S
C323 O343 1.289 . S
C324 C323 1.488 . S
C324 C325 1.348 . S
C324 C329 1.413 . S
C325 C324 1.348 . S
C325 C326 1.442 . S
C325 H352 0.930 . S
C326 C325 1.442 . S
C326 C327 1.381 . S
C326 H353 0.931 . S
C327 C326 1.381 . S
C327 C328 1.321 . S
C328 C327 1.321 . S
C328 C329 1.403 . S
C328 H354 0.934 . S
C329 C324 1.413 . S
C329 C328 1.403 . S
C329 H355 0.930 . S
C330 O344 1.275 . S
C330 O345 1.256 . S
C331 O346 1.259 . S
C331 O347 1.268 . S
C332 Ho321 2.811 1_554 S
C332 C333 1.488 . S
C332 O348 1.215 1_554 S
C332 O349 1.272 1_554 S
C333 C332 1.488 . S
C333 C334 1.348 . S
C333 C338 1.413 . S
C334 C333 1.348 . S
C334 C335 1.442 . S
C334 H356 0.930 . S
C335 C334 1.442 . S
C335 C336 1.381 . S
C335 H357 0.931 . S
C336 C335 1.381 . S
C336 C337 1.321 . S
C337 C336 1.321 . S
C337 C338 1.403 . S
C337 H358 0.934 . S
C338 C333 1.413 . S
C338 C337 1.403 . S
C338 H359 0.930 . S
C339 O350 1.275 . S
C339 O351 1.256 . S
O340 Ho320 2.322 . S
O340 C322 1.259 . S
O341 Ho321 2.346 . S
O341 C322 1.268 . S
O342 Ho320 2.378 . S
O342 C323 1.215 . S
O343 Ho320 2.524 . S
O343 C323 1.289 . S
O344 Ho320 2.381 . S
O344 C330 1.275 . S
O345 Ho320 2.669 . S
O345 Ho321 2.305 . S
O345 C330 1.256 . S
O346 Ho321 2.322 . S
O346 C331 1.259 . S
O347 Ho320 2.346 . S
O347 C331 1.268 . S
O348 Ho321 2.378 . S
O348 C332 1.215 1_556 S
O349 Ho321 2.544 . S
O349 C332 1.272 1_556 S
O350 Ho321 2.381 . S
O350 C339 1.275 . S
O351 Ho320 2.305 . S
O351 Ho321 2.669 . S
O351 C339 1.256 . S
H352 C325 0.930 . S
H353 C326 0.931 . S
H354 C328 0.934 . S
H355 C329 0.930 . S
H356 C334 0.930 . S
H357 C335 0.931 . S
H358 C337 0.934 . S
H359 C338 0.930 . S
Ho360 C363 2.811 . S
Ho360 O380 2.322 . S
Ho360 O382 2.378 . S
Ho360 O383 2.524 . S
Ho360 O384 2.381 . S
Ho360 O385 2.669 . S
Ho360 O387 2.346 . S
Ho360 O391 2.305 . S
Ho361 C372 2.811 . S
Ho361 O381 2.346 . S
Ho361 O385 2.305 . S
Ho361 O386 2.322 . S
Ho361 O388 2.378 . S
Ho361 O389 2.524 . S
Ho361 O390 2.381 . S
Ho361 O391 2.669 . S
C362 O380 1.259 . S
C362 O381 1.268 . S
C363 Ho360 2.811 . S
C363 C364 1.488 . S
C363 O382 1.215 . S
C363 O383 1.289 . S
C364 C363 1.488 . S
C364 C365 1.348 . S
C364 C369 1.413 . S
C365 C364 1.348 . S
C365 C366 1.442 . S
C365 H392 0.930 . S
C366 C365 1.442 . S
C366 C367 1.381 . S
C366 H393 0.931 . S
C367 C366 1.381 . S
C367 C368 1.321 . S
C368 C367 1.321 . S
C368 C369 1.403 . S
C368 H394 0.934 . S
C369 C364 1.413 . S
C369 C368 1.403 . S
C369 H395 0.930 . S
C370 O384 1.275 . S
C370 O385 1.256 . S
C371 O386 1.259 . S
C371 O387 1.268 . S
C372 Ho361 2.811 . S
C372 C373 1.488 . S
C372 O388 1.215 . S
C372 O389 1.289 . S
C373 C372 1.488 . S
C373 C374 1.348 . S
C373 C378 1.413 . S
C374 C373 1.348 . S
C374 C375 1.442 . S
C374 H396 0.930 . S
C375 C374 1.442 . S
C375 C376 1.381 . S
C375 H397 0.931 . S
C376 C375 1.381 . S
C376 C377 1.321 . S
C377 C376 1.321 . S
C377 C378 1.403 . S
C377 H398 0.934 . S
C378 C373 1.413 . S
C378 C377 1.403 . S
C378 H399 0.930 . S
C379 O390 1.275 . S
C379 O391 1.256 . S
O380 Ho360 2.322 . S
O380 C362 1.259 . S
O381 Ho361 2.346 . S
O381 C362 1.268 . S
O382 Ho360 2.378 . S
O382 C363 1.215 . S
O383 Ho360 2.524 . S
O383 C363 1.289 . S
O384 Ho360 2.381 . S
O384 C370 1.275 . S
O385 Ho360 2.669 . S
O385 Ho361 2.305 . S
O385 C370 1.256 . S
O386 Ho361 2.322 . S
O386 C371 1.259 . S
O387 Ho360 2.346 . S
O387 C371 1.268 . S
O388 Ho361 2.378 . S
O388 C372 1.215 . S
O389 Ho361 2.524 . S
O389 C372 1.289 . S
O390 Ho361 2.381 . S
O390 C379 1.275 . S
O391 Ho360 2.305 . S
O391 Ho361 2.669 . S
O391 C379 1.256 . S
H392 C365 0.930 . S
H393 C366 0.931 . S
H394 C368 0.934 . S
H395 C369 0.930 . S
H396 C374 0.930 . S
H397 C375 0.931 . S
H398 C377 0.934 . S
H399 C378 0.930 . S
Ho400 C403 2.811 . S
Ho400 O420 2.322 . S
Ho400 O422 2.378 . S
Ho400 O423 2.524 . S
Ho400 O424 2.381 . S
Ho400 O425 2.669 . S
Ho400 O427 2.346 . S
Ho400 O431 2.305 . S
Ho401 C412 2.811 . S
Ho401 O421 2.346 . S
Ho401 O425 2.305 . S
Ho401 O426 2.322 . S
Ho401 O428 2.378 . S
Ho401 O429 2.524 . S
Ho401 O430 2.381 . S
Ho401 O431 2.669 . S
C402 O420 1.259 . S
C402 O421 1.268 . S
C403 Ho400 2.811 . S
C403 C404 1.488 . S
C403 O422 1.215 . S
C403 O423 1.289 . S
C404 C403 1.488 . S
C404 C405 1.348 . S
C404 C409 1.413 . S
C405 C404 1.348 . S
C405 C406 1.442 . S
C405 H432 0.930 . S
C406 C405 1.442 . S
C406 C407 1.381 . S
C406 H433 0.931 . S
C407 C406 1.381 . S
C407 C408 1.321 . S
C408 C407 1.321 . S
C408 C409 1.403 . S
C408 H434 0.934 . S
C409 C404 1.413 . S
C409 C408 1.403 . S
C409 H435 0.930 . S
C410 O424 1.275 . S
C410 O425 1.256 . S
C411 O426 1.259 . S
C411 O427 1.268 . S
C412 Ho401 2.811 . S
C412 C413 1.488 . S
C412 O428 1.215 . S
C412 O429 1.289 . S
C413 C412 1.488 . S
C413 C414 1.348 . S
C413 C418 1.413 . S
C414 C413 1.348 . S
C414 C415 1.442 . S
C414 H436 0.930 . S
C415 C414 1.442 . S
C415 C416 1.381 . S
C415 H437 0.931 . S
C416 C415 1.381 . S
C416 C417 1.321 . S
C417 C416 1.321 . S
C417 C418 1.403 . S
C417 H438 0.934 . S
C418 C413 1.413 . S
C418 C417 1.403 . S
C418 H439 0.930 . S
C419 O430 1.275 . S
C419 O431 1.256 . S
O420 Ho400 2.322 . S
O420 C402 1.259 . S
O421 Ho401 2.346 . S
O421 C402 1.268 . S
O422 Ho400 2.378 . S
O422 C403 1.215 . S
O423 Ho400 2.524 . S
O423 C403 1.289 . S
O424 Ho400 2.381 . S
O424 C410 1.275 . S
O425 Ho400 2.669 . S
O425 Ho401 2.305 . S
O425 C410 1.256 . S
O426 Ho401 2.322 . S
O426 C411 1.259 . S
O427 Ho400 2.346 . S
O427 C411 1.268 . S
O428 Ho401 2.378 . S
O428 C412 1.215 . S
O429 Ho401 2.524 . S
O429 C412 1.289 . S
O430 Ho401 2.381 . S
O430 C419 1.275 . S
O431 Ho400 2.305 . S
O431 Ho401 2.669 . S
O431 C419 1.256 . S
H432 C405 0.930 . S
H433 C406 0.931 . S
H434 C408 0.934 . S
H435 C409 0.930 . S
H436 C414 0.930 . S
H437 C415 0.931 . S
H438 C417 0.934 . S
H439 C418 0.930 . S
Ho440 C443 2.811 1_554 S
Ho440 O460 2.322 . S
Ho440 O462 2.378 . S
Ho440 O463 2.524 . S
Ho440 O464 2.381 . S
Ho440 O465 2.669 . S
Ho440 O467 2.346 . S
Ho440 O471 2.305 . S
Ho441 C452 2.811 . S
Ho441 O461 2.346 . S
Ho441 O465 2.305 . S
Ho441 O466 2.322 . S
Ho441 O468 2.378 . S
Ho441 O469 2.524 . S
Ho441 O470 2.381 . S
Ho441 O471 2.669 . S
C442 O460 1.259 . S
C442 O461 1.268 . S
C443 Ho440 2.811 1_556 S
C443 C444 1.488 . S
C443 O462 1.215 1_556 S
C443 O463 1.289 1_556 S
C444 C443 1.488 . S
C444 C445 1.348 . S
C444 C449 1.413 . S
C445 C444 1.348 . S
C445 C446 1.442 . S
C445 H472 0.930 . S
C446 C445 1.442 . S
C446 C447 1.381 . S
C446 H473 0.931 . S
C447 C446 1.381 . S
C447 C448 1.321 . S
C448 C447 1.321 . S
C448 C449 1.403 . S
C448 H474 0.934 . S
C449 C444 1.413 . S
C449 C448 1.403 . S
C449 H475 0.930 . S
C450 O464 1.275 . S
C450 O465 1.256 . S
C451 O466 1.259 . S
C451 O467 1.268 . S
C452 Ho441 2.811 . S
C452 C453 1.488 . S
C452 O468 1.215 . S
C452 O469 1.289 . S
C453 C452 1.488 . S
C453 C454 1.348 . S
C453 C458 1.413 . S
C454 C453 1.348 . S
C454 C455 1.442 . S
C454 H476 0.930 . S
C455 C454 1.442 . S
C455 C456 1.381 . S
C455 H477 0.931 . S
C456 C455 1.381 . S
C456 C457 1.321 . S
C457 C456 1.321 . S
C457 C458 1.403 . S
C457 H478 0.934 . S
C458 C453 1.413 . S
C458 C457 1.403 . S
C458 H479 0.930 . S
C459 O470 1.275 . S
C459 O471 1.256 . S
O460 Ho440 2.322 . S
O460 C442 1.259 . S
O461 Ho441 2.346 . S
O461 C442 1.268 . S
O462 Ho440 2.378 . S
O462 C443 1.215 1_554 S
O463 Ho440 2.524 . S
O463 C443 1.289 1_554 S
O464 Ho440 2.381 . S
O464 C450 1.275 . S
O465 Ho440 2.669 . S
O465 Ho441 2.305 . S
O465 C450 1.256 . S
O466 Ho441 2.322 . S
O466 C451 1.259 . S
O467 Ho440 2.346 . S
O467 C451 1.268 . S
O468 Ho441 2.378 . S
O468 C452 1.215 . S
O469 Ho441 2.524 . S
O469 C452 1.289 . S
O470 Ho441 2.381 . S
O470 C459 1.275 . S
O471 Ho440 2.305 . S
O471 Ho441 2.669 . S
O471 C459 1.256 . S
H472 C445 0.930 . S
H473 C446 0.931 . S
H474 C448 0.934 . S
H475 C449 0.930 . S
H476 C454 0.930 . S
H477 C455 0.931 . S
H478 C457 0.934 . S
H479 C458 0.930 . S
Ho480 C483 2.811 . S
Ho480 O500 2.322 . S
Ho480 O502 2.378 . S
Ho480 O503 2.524 . S
Ho480 O504 2.381 . S
Ho480 O505 2.669 . S
Ho480 O507 2.346 . S
Ho480 O511 2.305 . S
Ho481 C492 2.811 1_554 S
Ho481 O501 2.346 . S
Ho481 O505 2.305 . S
Ho481 O506 2.322 . S
Ho481 O508 2.378 . S
Ho481 O509 2.524 . S
Ho481 O510 2.381 . S
Ho481 O511 2.669 . S
C482 O500 1.259 . S
C482 O501 1.268 . S
C483 Ho480 2.811 . S
C483 C484 1.488 . S
C483 O502 1.215 . S
C483 O503 1.289 . S
C484 C483 1.488 . S
C484 C485 1.348 . S
C484 C489 1.413 . S
C485 C484 1.348 . S
C485 C486 1.442 . S
C485 H512 0.930 . S
C486 C485 1.442 . S
C486 C487 1.381 . S
C486 H513 0.931 . S
C487 C486 1.381 . S
C487 C488 1.321 . S
C488 C487 1.321 . S
C488 C489 1.403 . S
C488 H514 0.934 . S
C489 C484 1.413 . S
C489 C488 1.403 . S
C489 H515 0.930 . S
C490 O504 1.275 . S
C490 O505 1.256 . S
C491 O506 1.259 . S
C491 O507 1.268 . S
C492 Ho481 2.811 1_556 S
C492 C493 1.488 . S
C492 O508 1.215 1_556 S
C492 O509 1.289 1_556 S
C493 C492 1.488 . S
C493 C494 1.348 . S
C493 C498 1.413 . S
C494 C493 1.348 . S
C494 C495 1.442 . S
C494 H516 0.930 . S
C495 C494 1.442 . S
C495 C496 1.381 . S
C495 H517 0.931 . S
C496 C495 1.381 . S
C496 C497 1.321 . S
C497 C496 1.321 . S
C497 C498 1.403 . S
C497 H518 0.934 . S
C498 C493 1.413 . S
C498 C497 1.403 . S
C498 H519 0.930 . S
C499 O510 1.275 . S
C499 O511 1.256 . S
O500 Ho480 2.322 . S
O500 C482 1.259 . S
O501 Ho481 2.346 . S
O501 C482 1.268 . S
O502 Ho480 2.378 . S
O502 C483 1.215 . S
O503 Ho480 2.524 . S
O503 C483 1.289 . S
O504 Ho480 2.381 . S
O504 C490 1.275 . S
O505 Ho480 2.669 . S
O505 Ho481 2.305 . S
O505 C490 1.256 . S
O506 Ho481 2.322 . S
O506 C491 1.259 . S
O507 Ho480 2.346 . S
O507 C491 1.268 . S
O508 Ho481 2.378 . S
O508 C492 1.215 1_554 S
O509 Ho481 2.524 . S
O509 C492 1.289 1_554 S
O510 Ho481 2.381 . S
O510 C499 1.275 . S
O511 Ho480 2.305 . S
O511 Ho481 2.669 . S
O511 C499 1.256 . S
H512 C485 0.930 . S
H513 C486 0.931 . S
H514 C488 0.934 . S
H515 C489 0.930 . S
H516 C494 0.930 . S
H517 C495 0.931 . S
H518 C497 0.934 . S
H519 C498 0.930 . S
Ho520 C523 2.811 1_556 S
Ho520 O540 2.322 . S
Ho520 O542 2.375 1_556 S
Ho520 O543 2.524 . S
Ho520 O544 2.381 . S
Ho520 O545 2.669 . S
Ho520 O547 2.346 . S
Ho520 O551 2.305 . S
Ho521 C532 2.811 . S
Ho521 O541 2.346 . S
Ho521 O545 2.305 . S
Ho521 O546 2.322 . S
Ho521 O548 2.378 . S
Ho521 O549 2.524 . S
Ho521 O550 2.381 . S
Ho521 O551 2.669 . S
C522 O540 1.259 . S
C522 O541 1.268 . S
C523 Ho520 2.811 1_554 S
C523 C524 1.488 . S
C523 O542 1.217 . S
C523 O543 1.289 1_554 S
C524 C523 1.488 . S
C524 C525 1.348 . S
C524 C529 1.413 . S
C525 C524 1.348 . S
C525 C526 1.442 . S
C525 H552 0.930 . S
C526 C525 1.442 . S
C526 C527 1.381 . S
C526 H553 0.931 . S
C527 C526 1.381 . S
C527 C528 1.321 . S
C528 C527 1.321 . S
C528 C529 1.403 . S
C528 H554 0.934 . S
C529 C524 1.413 . S
C529 C528 1.403 . S
C529 H555 0.930 . S
C530 O544 1.275 . S
C530 O545 1.256 . S
C531 O546 1.259 . S
C531 O547 1.268 . S
C532 Ho521 2.811 . S
C532 C533 1.488 . S
C532 O548 1.215 . S
C532 O549 1.289 . S
C533 C532 1.488 . S
C533 C534 1.348 . S
C533 C538 1.413 . S
C534 C533 1.348 . S
C534 C535 1.442 . S
C534 H556 0.930 . S
C535 C534 1.442 . S
C535 C536 1.381 . S
C535 H557 0.931 . S
C536 C535 1.381 . S
C536 C537 1.321 . S
C537 C536 1.321 . S
C537 C538 1.403 . S
C537 H558 0.934 . S
C538 C533 1.413 . S
C538 C537 1.403 . S
C538 H559 0.930 . S
C539 O550 1.275 . S
C539 O551 1.256 . S
O540 Ho520 2.322 . S
O540 C522 1.259 . S
O541 Ho521 2.346 . S
O541 C522 1.268 . S
O542 Ho520 2.375 1_554 S
O542 C523 1.217 . S
O543 Ho520 2.524 . S
O543 C523 1.289 1_556 S
O544 Ho520 2.381 . S
O544 C530 1.275 . S
O545 Ho520 2.669 . S
O545 Ho521 2.305 . S
O545 C530 1.256 . S
O546 Ho521 2.322 . S
O546 C531 1.259 . S
O547 Ho520 2.346 . S
O547 C531 1.268 . S
O548 Ho521 2.378 . S
O548 C532 1.215 . S
O549 Ho521 2.524 . S
O549 C532 1.289 . S
O550 Ho521 2.381 . S
O550 C539 1.275 . S
O551 Ho520 2.305 . S
O551 Ho521 2.669 . S
O551 C539 1.256 . S
H552 C525 0.930 . S
H553 C526 0.931 . S
H554 C528 0.934 . S
H555 C529 0.930 . S
H556 C534 0.930 . S
H557 C535 0.931 . S
H558 C537 0.934 . S
H559 C538 0.930 . S
Ho560 C563 2.811 . S
Ho560 O580 2.322 . S
Ho560 O582 2.378 . S
Ho560 O583 2.524 . S
Ho560 O584 2.381 . S
Ho560 O585 2.669 . S
Ho560 O587 2.346 . S
Ho560 O591 2.305 . S
Ho561 C572 2.811 . S
Ho561 O581 2.346 . S
Ho561 O585 2.305 . S
Ho561 O586 2.322 . S
Ho561 O588 2.378 . S
Ho561 O589 2.524 . S
Ho561 O590 2.381 . S
Ho561 O591 2.669 . S
C562 O580 1.259 . S
C562 O581 1.268 . S
C563 Ho560 2.811 . S
C563 C564 1.488 . S
C563 O582 1.215 . S
C563 O583 1.289 . S
C564 C563 1.488 . S
C564 C565 1.348 . S
C564 C569 1.413 . S
C565 C564 1.348 . S
C565 C566 1.442 . S
C565 H592 0.930 . S
C566 C565 1.442 . S
C566 C567 1.381 . S
C566 H593 0.931 . S
C567 C566 1.381 . S
C567 C568 1.321 . S
C568 C567 1.321 . S
C568 C569 1.403 . S
C568 H594 0.934 . S
C569 C564 1.413 . S
C569 C568 1.403 . S
C569 H595 0.930 . S
C570 O584 1.275 . S
C570 O585 1.256 . S
C571 O586 1.259 . S
C571 O587 1.268 . S
C572 Ho561 2.811 . S
C572 C573 1.488 . S
C572 O588 1.215 . S
C572 O589 1.289 . S
C573 C572 1.488 . S
C573 C574 1.348 . S
C573 C578 1.413 . S
C574 C573 1.348 . S
C574 C575 1.442 . S
C574 H596 0.930 . S
C575 C574 1.442 . S
C575 C576 1.381 . S
C575 H597 0.931 . S
C576 C575 1.381 . S
C576 C577 1.321 . S
C577 C576 1.321 . S
C577 C578 1.403 . S
C577 H598 0.934 . S
C578 C573 1.413 . S
C578 C577 1.403 . S
C578 H599 0.930 . S
C579 O590 1.275 . S
C579 O591 1.256 . S
O580 Ho560 2.322 . S
O580 C562 1.259 . S
O581 Ho561 2.346 . S
O581 C562 1.268 . S
O582 Ho560 2.378 . S
O582 C563 1.215 . S
O583 Ho560 2.524 . S
O583 C563 1.289 . S
O584 Ho560 2.381 . S
O584 C570 1.275 . S
O585 Ho560 2.669 . S
O585 Ho561 2.305 . S
O585 C570 1.256 . S
O586 Ho561 2.322 . S
O586 C571 1.259 . S
O587 Ho560 2.346 . S
O587 C571 1.268 . S
O588 Ho561 2.378 . S
O588 C572 1.215 . S
O589 Ho561 2.524 . S
O589 C572 1.289 . S
O590 Ho561 2.381 . S
O590 C579 1.275 . S
O591 Ho560 2.305 . S
O591 Ho561 2.669 . S
O591 C579 1.256 . S
H592 C565 0.930 . S
H593 C566 0.931 . S
H594 C568 0.934 . S
H595 C569 0.930 . S
H596 C574 0.930 . S
H597 C575 0.931 . S
H598 C577 0.934 . S
H599 C578 0.930 . S
Ho600 C603 2.811 . S
Ho600 O620 2.322 . S
Ho600 O622 2.378 . S
Ho600 O623 2.524 . S
Ho600 O624 2.381 . S
Ho600 O625 2.669 . S
Ho600 O627 2.346 . S
Ho600 O631 2.305 . S
Ho601 C612 2.811 . S
Ho601 O621 2.346 . S
Ho601 O625 2.305 . S
Ho601 O626 2.322 . S
Ho601 O628 2.378 . S
Ho601 O629 2.524 . S
Ho601 O630 2.381 . S
Ho601 O631 2.669 . S
C602 O620 1.259 . S
C602 O621 1.268 . S
C603 Ho600 2.811 . S
C603 C604 1.488 . S
C603 O622 1.215 . S
C603 O623 1.289 . S
C604 C603 1.488 . S
C604 C605 1.348 . S
C604 C609 1.413 . S
C605 C604 1.348 . S
C605 C606 1.442 . S
C605 H632 0.930 . S
C606 C605 1.442 . S
C606 C607 1.381 . S
C606 H633 0.931 . S
C607 C606 1.381 . S
C607 C608 1.321 . S
C608 C607 1.321 . S
C608 C609 1.403 . S
C608 H634 0.934 . S
C609 C604 1.413 . S
C609 C608 1.403 . S
C609 H635 0.930 . S
C610 O624 1.275 . S
C610 O625 1.256 . S
C611 O626 1.259 . S
C611 O627 1.268 . S
C612 Ho601 2.811 . S
C612 C613 1.488 . S
C612 O628 1.215 . S
C612 O629 1.289 . S
C613 C612 1.488 . S
C613 C614 1.348 . S
C613 C618 1.413 . S
C614 C613 1.348 . S
C614 C615 1.442 . S
C614 H636 0.930 . S
C615 C614 1.442 . S
C615 C616 1.381 . S
C615 H637 0.931 . S
C616 C615 1.381 . S
C616 C617 1.321 . S
C617 C616 1.321 . S
C617 C618 1.403 . S
C617 H638 0.934 . S
C618 C613 1.413 . S
C618 C617 1.403 . S
C618 H639 0.930 . S
C619 O630 1.275 . S
C619 O631 1.256 . S
O620 Ho600 2.322 . S
O620 C602 1.259 . S
O621 Ho601 2.346 . S
O621 C602 1.268 . S
O622 Ho600 2.378 . S
O622 C603 1.215 . S
O623 Ho600 2.524 . S
O623 C603 1.289 . S
O624 Ho600 2.381 . S
O624 C610 1.275 . S
O625 Ho600 2.669 . S
O625 Ho601 2.305 . S
O625 C610 1.256 . S
O626 Ho601 2.322 . S
O626 C611 1.259 . S
O627 Ho600 2.346 . S
O627 C611 1.268 . S
O628 Ho601 2.378 . S
O628 C612 1.215 . S
O629 Ho601 2.524 . S
O629 C612 1.289 . S
O630 Ho601 2.381 . S
O630 C619 1.275 . S
O631 Ho600 2.305 . S
O631 Ho601 2.669 . S
O631 C619 1.256 . S
H632 C605 0.930 . S
H633 C606 0.931 . S
H634 C608 0.934 . S
H635 C609 0.930 . S
H636 C614 0.930 . S
H637 C615 0.931 . S
H638 C617 0.934 . S
H639 C618 0.930 . S
C640 C641 1.349 . S
C640 C642 1.327 . S
C640 H665 0.950 . S
C641 C640 1.349 . S
C641 C657 1.349 . S
C642 C640 1.327 . S
C642 C661 1.429 . S
C642 H666 0.950 . S
C643 C660 1.574 . S
C643 C662 1.368 . S
C643 H667 0.949 . S
H644 C648 0.949 . S
C645 C646 1.349 . S
C645 C647 1.327 . S
C645 H668 0.950 . S
C646 C645 1.349 . S
C646 C658 1.349 . S
C647 C645 1.327 . S
C647 C663 1.429 . S
C647 H669 0.950 . S
C648 H644 0.949 . S
C648 C656 1.574 . S
C648 C664 1.368 . S
H649 C657 0.950 . S
H650 C655 0.950 . S
H651 C656 0.949 . S
H652 C658 0.950 . S
H653 C659 0.950 . S
H654 C660 0.949 . S
C655 H650 0.950 . S
C655 C657 1.327 . S
C655 C661 1.429 . S
C656 C648 1.574 . S
C656 H651 0.949 . S
C656 C662 1.368 . S
C657 C641 1.349 . S
C657 H649 0.950 . S
C657 C655 1.327 . S
C658 C646 1.349 . S
C658 H652 0.950 . S
C658 C659 1.327 . S
C659 H653 0.950 . S
C659 C658 1.327 . S
C659 C663 1.429 . S
C660 C643 1.574 . S
C660 H654 0.949 . S
C660 C664 1.368 . S
C661 C642 1.429 . S
C661 C655 1.429 . S
C661 C662 1.523 . S
C662 C643 1.368 . S
C662 C656 1.368 . S
C662 C661 1.523 . S
C663 C647 1.429 . S
C663 C659 1.429 . S
C663 C664 1.523 . S
C664 C648 1.368 . S
C664 C660 1.368 . S
C664 C663 1.523 . S
H665 C640 0.950 . S
H666 C642 0.950 . S
H667 C643 0.949 . S
H668 C645 0.950 . S
H669 C647 0.950 . S
C670 C671 1.349 . S
C670 C672 1.327 1_554 S
C670 H695 0.950 . S
C671 C670 1.349 . S
C671 C687 1.349 . S
C672 C670 1.327 1_556 S
C672 C691 1.429 . S
C672 H696 0.950 . S
C673 C690 1.574 . S
C673 C692 1.368 . S
C673 H697 0.949 . S
H674 C678 0.949 . S
C675 C676 1.349 . S
C675 C677 1.327 . S
C675 H698 0.950 . S
C676 C675 1.349 . S
C676 C688 1.349 . S
C677 C675 1.327 . S
C677 C693 1.429 . S
C677 H699 0.950 . S
C678 H674 0.949 . S
C678 C686 1.574 . S
C678 C694 1.368 . S
H679 C687 0.950 . S
H680 C685 0.950 . S
H681 C686 0.949 . S
H682 C688 0.950 . S
H683 C689 0.950 . S
H684 C690 0.949 . S
C685 H680 0.950 . S
C685 C687 1.327 1_556 S
C685 C691 1.429 . S
C686 C678 1.574 . S
C686 H681 0.949 . S
C686 C692 1.368 . S
C687 C671 1.349 . S
C687 H679 0.950 . S
C687 C685 1.327 1_554 S
C688 C676 1.349 . S
C688 H682 0.950 . S
C688 C689 1.327 . S
C689 H683 0.950 . S
C689 C688 1.327 . S
C689 C693 1.429 . S
C690 C673 1.574 . S
C690 H684 0.949 . S
C690 C694 1.368 . S
C691 C672 1.429 . S
C691 C685 1.429 . S
C691 C692 1.523 . S
C692 C673 1.368 . S
C692 C686 1.368 . S
C692 C691 1.523 . S
C693 C677 1.429 . S
C693 C689 1.429 . S
C693 C694 1.523 . S
C694 C678 1.368 . S
C694 C690 1.368 . S
C694 C693 1.523 . S
H695 C670 0.950 . S
H696 C672 0.950 . S
H697 C673 0.949 . S
H698 C675 0.950 . S
H699 C677 0.950 . S
C700 C701 1.349 . S
C700 C702 1.327 . S
C700 H725 0.950 . S
C701 C700 1.349 . S
C701 C717 1.349 . S
C702 C700 1.327 . S
C702 C721 1.429 . S
C702 H726 0.950 . S
C703 C720 1.574 . S
C703 C722 1.368 . S
C703 H727 0.949 . S
H704 C708 0.949 . S
C705 C706 1.349 . S
C705 C707 1.327 1_556 S
C705 H728 0.950 . S
C706 C705 1.349 . S
C706 C718 1.349 . S
C707 C705 1.327 1_554 S
C707 C723 1.429 . S
C707 H729 0.950 . S
C708 H704 0.949 . S
C708 C716 1.574 . S
C708 C724 1.368 . S
H709 C717 0.950 . S
H710 C715 0.950 . S
H711 C716 0.949 . S
H712 C718 0.950 . S
H713 C719 0.950 . S
H714 C720 0.949 . S
C715 H710 0.950 . S
C715 C717 1.327 . S
C715 C721 1.429 . S
C716 C708 1.574 . S
C716 H711 0.949 . S
C716 C722 1.368 . S
C717 C701 1.349 . S
C717 H709 0.950 . S
C717 C715 1.327 . S
C718 C706 1.349 . S
C718 H712 0.950 . S
C718 C719 1.327 1_556 S
C719 H713 0.950 . S
C719 C718 1.327 1_554 S
C719 C723 1.429 . S
C720 C703 1.574 . S
C720 H714 0.949 . S
C720 C724 1.368 . S
C721 C702 1.429 . S
C721 C715 1.429 . S
C721 C722 1.523 . S
C722 C703 1.368 . S
C722 C716 1.368 . S
C722 C721 1.523 . S
C723 C707 1.429 . S
C723 C719 1.429 . S
C723 C724 1.523 . S
C724 C708 1.368 . S
C724 C720 1.368 . S
C724 C723 1.523 . S
H725 C700 0.950 . S
H726 C702 0.950 . S
H727 C703 0.949 . S
H728 C705 0.950 . S
H729 C707 0.950 . S
C730 C731 1.349 . S
C730 C732 1.327 . S
C730 H755 0.950 . S
C731 C730 1.349 . S
C731 C747 1.349 . S
C732 C730 1.327 . S
C732 C751 1.429 . S
C732 H756 0.950 . S
C733 C750 1.574 . S
C733 C752 1.368 . S
C733 H757 0.949 . S
H734 C738 0.949 . S
C735 C736 1.349 . S
C735 C737 1.327 . S
C735 H758 0.950 . S
C736 C735 1.349 . S
C736 C748 1.349 . S
C737 C735 1.327 . S
C737 C753 1.429 . S
C737 H759 0.950 . S
C738 H734 0.949 . S
C738 C746 1.574 . S
C738 C754 1.368 . S
H739 C747 0.950 . S
H740 C745 0.950 . S
H741 C746 0.949 . S
H742 C748 0.950 . S
H743 C749 0.950 . S
H744 C750 0.949 . S
C745 H740 0.950 . S
C745 C747 1.327 . S
C745 C751 1.429 . S
C746 C738 1.574 . S
C746 H741 0.949 . S
C746 C752 1.368 . S
C747 C731 1.349 . S
C747 H739 0.950 . S
C747 C745 1.327 . S
C748 C736 1.349 . S
C748 H742 0.950 . S
C748 C749 1.327 . S
C749 H743 0.950 . S
C749 C748 1.327 . S
C749 C753 1.429 . S
C750 C733 1.574 . S
C750 H744 0.949 . S
C750 C754 1.368 . S
C751 C732 1.429 . S
C751 C745 1.429 . S
C751 C752 1.523 . S
C752 C733 1.368 . S
C752 C746 1.368 . S
C752 C751 1.523 . S
C753 C737 1.429 . S
C753 C749 1.429 . S
C753 C754 1.523 . S
C754 C738 1.368 . S
C754 C750 1.368 . S
C754 C753 1.523 . S
H755 C730 0.950 . S
H756 C732 0.950 . S
H757 C733 0.949 . S
H758 C735 0.950 . S
H759 C737 0.950 . S
C760 C761 1.349 . S
C760 C762 1.327 . S
C760 H785 0.950 . S
C761 C760 1.349 . S
C761 C777 1.349 . S
C762 C760 1.327 . S
C762 C781 1.429 . S
C762 H786 0.950 . S
C763 C780 1.574 . S
C763 C782 1.368 . S
C763 H787 0.949 . S
H764 C768 0.949 . S
C765 C766 1.349 . S
C765 C767 1.327 . S
C765 H788 0.950 . S
C766 C765 1.349 . S
C766 C778 1.349 . S
C767 C765 1.327 . S
C767 C783 1.429 . S
C767 H789 0.950 . S
C768 H764 0.949 . S
C768 C776 1.574 . S
C768 C784 1.368 . S
H769 C777 0.950 . S
H770 C775 0.950 . S
H771 C776 0.949 . S
H772 C778 0.950 . S
H773 C779 0.950 . S
H774 C780 0.949 . S
C775 H770 0.950 . S
C775 C777 1.327 . S
C775 C781 1.429 . S
C776 C768 1.574 . S
C776 H771 0.949 . S
C776 C782 1.368 . S
C777 C761 1.349 . S
C777 H769 0.950 . S
C777 C775 1.327 . S
C778 C766 1.349 . S
C778 H772 0.950 . S
C778 C779 1.327 . S
C779 H773 0.950 . S
C779 C778 1.327 . S
C779 C783 1.429 . S
C780 C763 1.574 . S
C780 H774 0.949 . S
C780 C784 1.368 . S
C781 C762 1.429 . S
C781 C775 1.429 . S
C781 C782 1.523 . S
C782 C763 1.368 . S
C782 C776 1.368 . S
C782 C781 1.523 . S
C783 C767 1.429 . S
C783 C779 1.429 . S
C783 C784 1.523 . S
C784 C768 1.368 . S
C784 C780 1.368 . S
C784 C783 1.523 . S
H785 C760 0.950 . S
H786 C762 0.950 . S
H787 C763 0.949 . S
H788 C765 0.950 . S
H789 C767 0.950 . S
C790 C791 1.349 . S
C790 C792 1.327 . S
C790 H815 0.950 . S
C791 C790 1.349 . S
C791 C807 1.349 . S
C792 C790 1.327 . S
C792 C811 1.429 . S
C792 H816 0.950 . S
C793 C810 1.574 . S
C793 C812 1.368 . S
C793 H817 0.949 . S
H794 C798 0.949 . S
C795 C796 1.349 . S
C795 C797 1.327 . S
C795 H818 0.950 . S
C796 C795 1.349 . S
C796 C808 1.349 . S
C797 C795 1.327 . S
C797 C813 1.429 . S
C797 H819 0.950 . S
C798 H794 0.949 . S
C798 C806 1.574 . S
C798 C814 1.368 . S
H799 C807 0.950 . S
H800 C805 0.950 . S
H801 C806 0.949 . S
H802 C808 0.950 . S
H803 C809 0.950 . S
H804 C810 0.949 . S
C805 H800 0.950 . S
C805 C807 1.327 . S
C805 C811 1.429 . S
C806 C798 1.574 . S
C806 H801 0.949 . S
C806 C812 1.368 . S
C807 C791 1.349 . S
C807 H799 0.950 . S
C807 C805 1.327 . S
C808 C796 1.349 . S
C808 H802 0.950 . S
C808 C809 1.327 . S
C809 H803 0.950 . S
C809 C808 1.327 . S
C809 C813 1.429 . S
C810 C793 1.574 . S
C810 H804 0.949 . S
C810 C814 1.368 . S
C811 C792 1.429 . S
C811 C805 1.429 . S
C811 C812 1.523 . S
C812 C793 1.368 . S
C812 C806 1.368 . S
C812 C811 1.523 . S
C813 C797 1.429 . S
C813 C809 1.429 . S
C813 C814 1.523 . S
C814 C798 1.368 . S
C814 C810 1.368 . S
C814 C813 1.523 . S
H815 C790 0.950 . S
H816 C792 0.950 . S
H817 C793 0.949 . S
H818 C795 0.950 . S
H819 C797 0.950 . S
C820 C821 1.349 . S
C820 C822 1.327 . S
C820 H845 0.950 . S
C821 C820 1.349 . S
C821 C837 1.349 . S
C822 C820 1.327 . S
C822 C841 1.429 . S
C822 H846 0.950 . S
C823 C840 1.574 . S
C823 C842 1.368 . S
C823 H847 0.949 . S
H824 C828 0.949 . S
C825 C826 1.349 . S
C825 C827 1.327 . S
C825 H848 0.950 . S
C826 C825 1.349 . S
C826 C838 1.349 . S
C827 C825 1.327 . S
C827 C843 1.429 . S
C827 H849 0.950 . S
C828 H824 0.949 . S
C828 C836 1.574 . S
C828 C844 1.368 . S
H829 C837 0.950 . S
H830 C835 0.950 . S
H831 C836 0.949 . S
H832 C838 0.950 . S
H833 C839 0.950 . S
H834 C840 0.949 . S
C835 H830 0.950 . S
C835 C837 1.327 . S
C835 C841 1.429 . S
C836 C828 1.574 . S
C836 H831 0.949 . S
C836 C842 1.368 . S
C837 C821 1.349 . S
C837 H829 0.950 . S
C837 C835 1.327 . S
C838 C826 1.349 . S
C838 H832 0.950 . S
C838 C839 1.327 . S
C839 H833 0.950 . S
C839 C838 1.327 . S
C839 C843 1.429 . S
C840 C823 1.574 . S
C840 H834 0.949 . S
C840 C844 1.368 . S
C841 C822 1.429 . S
C841 C835 1.429 . S
C841 C842 1.523 . S
C842 C823 1.368 . S
C842 C836 1.368 . S
C842 C841 1.523 . S
C843 C827 1.429 . S
C843 C839 1.429 . S
C843 C844 1.523 1_554 S
C844 C828 1.368 . S
C844 C840 1.368 . S
C844 C843 1.523 1_556 S
H845 C820 0.950 . S
H846 C822 0.950 . S
H847 C823 0.949 . S
H848 C825 0.950 . S
H849 C827 0.950 . S
C850 C851 1.349 . S
C850 C852 1.327 . S
C850 H875 0.950 . S
C851 C850 1.349 . S
C851 C867 1.349 . S
C852 C850 1.327 . S
C852 C871 1.429 1_556 S
C852 H876 0.950 . S
C853 C870 1.574 . S
C853 C872 1.368 . S
C853 H877 0.949 . S
H854 C858 0.949 . S
C855 C856 1.349 . S
C855 C857 1.327 . S
C855 H878 0.950 . S
C856 C855 1.349 . S
C856 C868 1.349 . S
C857 C855 1.327 . S
C857 C873 1.429 . S
C857 H879 0.950 . S
C858 H854 0.949 . S
C858 C866 1.574 . S
C858 C874 1.368 . S
H859 C867 0.950 . S
H860 C865 0.950 . S
H861 C866 0.949 . S
H862 C868 0.950 . S
H863 C869 0.950 . S
H864 C870 0.949 . S
C865 H860 0.950 . S
C865 C867 1.327 1_554 S
C865 C871 1.429 . S
C866 C858 1.574 . S
C866 H861 0.949 . S
C866 C872 1.368 . S
C867 C851 1.349 . S
C867 H859 0.950 . S
C867 C865 1.327 1_556 S
C868 C856 1.349 . S
C868 H862 0.950 . S
C868 C869 1.327 . S
C869 H863 0.950 . S
C869 C868 1.327 . S
C869 C873 1.429 . S
C870 C853 1.574 . S
C870 H864 0.949 . S
C870 C874 1.368 . S
C871 C852 1.429 1_554 S
C871 C865 1.429 . S
C871 C872 1.523 . S
C872 C853 1.368 . S
C872 C866 1.368 . S
C872 C871 1.523 . S
C873 C857 1.429 . S
C873 C869 1.429 . S
C873 C874 1.523 . S
C874 C858 1.368 . S
C874 C870 1.368 . S
C874 C873 1.523 . S
H875 C850 0.950 . S
H876 C852 0.950 . S
H877 C853 0.949 . S
H878 C855 0.950 . S
H879 C857 0.950 . S
C880 C881 1.349 . S
C880 C882 1.327 . S
C880 H905 0.950 . S
C881 C880 1.349 . S
C881 C897 1.349 . S
C882 C880 1.327 . S
C882 C901 1.429 . S
C882 H906 0.950 . S
C883 C900 1.574 . S
C883 C902 1.368 . S
C883 H907 0.949 . S
H884 C888 0.949 . S
C885 C886 1.349 . S
C885 C887 1.327 . S
C885 H908 0.950 . S
C886 C885 1.349 . S
C886 C898 1.349 . S
C887 C885 1.327 . S
C887 C903 1.429 . S
C887 H909 0.950 . S
C888 H884 0.949 . S
C888 C896 1.574 . S
C888 C904 1.368 . S
H889 C897 0.950 . S
H890 C895 0.950 . S
H891 C896 0.949 . S
H892 C898 0.950 . S
H893 C899 0.950 . S
H894 C900 0.949 . S
C895 H890 0.950 . S
C895 C897 1.327 . S
C895 C901 1.429 . S
C896 C888 1.574 . S
C896 H891 0.949 . S
C896 C902 1.368 . S
C897 C881 1.349 . S
C897 H889 0.950 . S
C897 C895 1.327 . S
C898 C886 1.349 . S
C898 H892 0.950 . S
C898 C899 1.327 . S
C899 H893 0.950 . S
C899 C898 1.327 . S
C899 C903 1.429 . S
C900 C883 1.574 . S
C900 H894 0.949 . S
C900 C904 1.368 . S
C901 C882 1.429 . S
C901 C895 1.429 . S
C901 C902 1.523 . S
C902 C883 1.368 . S
C902 C896 1.368 . S
C902 C901 1.523 . S
C903 C887 1.429 . S
C903 C899 1.429 . S
C903 C904 1.523 . S
C904 C888 1.368 . S
C904 C900 1.368 . S
C904 C903 1.523 . S
H905 C880 0.950 . S
H906 C882 0.950 . S
H907 C883 0.949 . S
H908 C885 0.950 . S
H909 C887 0.950 . S
C910 C911 1.349 . S
C910 C912 1.327 . S
C910 H935 0.950 . S
C911 C910 1.349 . S
C911 C927 1.349 . S
C912 C910 1.327 . S
C912 C931 1.429 . S
C912 H936 0.950 . S
C913 C930 1.574 . S
C913 C932 1.368 . S
C913 H937 0.949 . S
H914 C918 0.949 . S
C915 C916 1.349 . S
C915 C917 1.327 . S
C915 H938 0.950 . S
C916 C915 1.349 . S
C916 C928 1.349 . S
C917 C915 1.327 . S
C917 C933 1.429 . S
C917 H939 0.950 . S
C918 H914 0.949 . S
C918 C926 1.574 . S
C918 C934 1.368 . S
H919 C927 0.950 . S
H920 C925 0.950 . S
H921 C926 0.949 . S
H922 C928 0.950 . S
H923 C929 0.950 . S
H924 C930 0.949 . S
C925 H920 0.950 . S
C925 C927 1.327 . S
C925 C931 1.429 . S
C926 C918 1.574 . S
C926 H921 0.949 . S
C926 C932 1.368 . S
C927 C911 1.349 . S
C927 H919 0.950 . S
C927 C925 1.327 . S
C928 C916 1.349 . S
C928 H922 0.950 . S
C928 C929 1.327 . S
C929 H923 0.950 . S
C929 C928 1.327 . S
C929 C933 1.429 . S
C930 C913 1.574 . S
C930 H924 0.949 . S
C930 C934 1.368 . S
C931 C912 1.429 . S
C931 C925 1.429 . S
C931 C932 1.523 . S
C932 C913 1.368 . S
C932 C926 1.368 . S
C932 C931 1.523 . S
C933 C917 1.429 . S
C933 C929 1.429 . S
C933 C934 1.523 1_556 S
C934 C918 1.368 . S
C934 C930 1.368 . S
C934 C933 1.523 1_554 S
H935 C910 0.950 . S
H936 C912 0.950 . S
H937 C913 0.949 . S
H938 C915 0.950 . S
H939 C917 0.950 . S
C940 C941 1.349 . S
C940 C942 1.327 1_554 S
C940 H965 0.950 . S
C941 C940 1.349 . S
C941 C957 1.349 . S
C942 C940 1.327 1_556 S
C942 C961 1.429 . S
C942 H966 0.950 . S
C943 C960 1.574 . S
C943 C962 1.368 . S
C943 H967 0.949 . S
H944 C948 0.949 . S
C945 C946 1.349 . S
C945 C947 1.327 . S
C945 H968 0.950 . S
C946 C945 1.349 . S
C946 C958 1.349 . S
C947 C945 1.327 . S
C947 C963 1.429 . S
C947 H969 0.950 . S
C948 H944 0.949 . S
C948 C956 1.574 . S
C948 C964 1.368 . S
H949 C957 0.950 . S
H950 C955 0.950 . S
H951 C956 0.949 . S
H952 C958 0.950 . S
H953 C959 0.950 . S
H954 C960 0.949 . S
C955 H950 0.950 . S
C955 C957 1.327 1_556 S
C955 C961 1.429 . S
C956 C948 1.574 . S
C956 H951 0.949 . S
C956 C962 1.368 . S
C957 C941 1.349 . S
C957 H949 0.950 . S
C957 C955 1.327 1_554 S
C958 C946 1.349 . S
C958 H952 0.950 . S
C958 C959 1.327 . S
C959 H953 0.950 . S
C959 C958 1.327 . S
C959 C963 1.429 . S
C960 C943 1.574 . S
C960 H954 0.949 . S
C960 C964 1.368 . S
C961 C942 1.429 . S
C961 C955 1.429 . S
C961 C962 1.523 . S
C962 C943 1.368 . S
C962 C956 1.368 . S
C962 C961 1.523 . S
C963 C947 1.429 . S
C963 C959 1.429 . S
C963 C964 1.523 . S
C964 C948 1.368 . S
C964 C960 1.368 . S
C964 C963 1.523 . S
H965 C940 0.950 . S
H966 C942 0.950 . S
H967 C943 0.949 . S
H968 C945 0.950 . S
H969 C947 0.950 . S
C970 C971 1.349 . S
C970 C972 1.327 . S
C970 H995 0.950 . S
C971 C970 1.349 . S
C971 C987 1.349 . S
C972 C970 1.327 . S
C972 C991 1.429 . S
C972 H996 0.950 . S
C973 C990 1.574 . S
C973 C992 1.368 . S
C973 H997 0.949 . S
H974 C978 0.949 . S
C975 C976 1.349 . S
C975 C977 1.327 . S
C975 H998 0.950 . S
C976 C975 1.349 . S
C976 C988 1.349 . S
C977 C975 1.327 . S
C977 C993 1.429 . S
C977 H999 0.950 . S
C978 H974 0.949 . S
C978 C986 1.574 . S
C978 C994 1.368 . S
H979 C987 0.950 . S
H980 C985 0.950 . S
H981 C986 0.949 . S
H982 C988 0.950 . S
H983 C989 0.950 . S
H984 C990 0.949 . S
C985 H980 0.950 . S
C985 C987 1.327 . S
C985 C991 1.429 . S
C986 C978 1.574 . S
C986 H981 0.949 . S
C986 C992 1.368 . S
C987 C971 1.349 . S
C987 H979 0.950 . S
C987 C985 1.327 . S
C988 C976 1.349 . S
C988 H982 0.950 . S
C988 C989 1.327 . S
C989 H983 0.950 . S
C989 C988 1.327 . S
C989 C993 1.429 . S
C990 C973 1.574 . S
C990 H984 0.949 . S
C990 C994 1.368 . S
C991 C972 1.429 . S
C991 C985 1.429 . S
C991 C992 1.523 . S
C992 C973 1.368 . S
C992 C986 1.368 . S
C992 C991 1.523 . S
C993 C977 1.429 . S
C993 C989 1.429 . S
C993 C994 1.523 . S
C994 C978 1.368 . S
C994 C990 1.368 . S
C994 C993 1.523 . S
H995 C970 0.950 . S
H996 C972 0.950 . S
H997 C973 0.949 . S
H998 C975 0.950 . S
H999 C977 0.950 . S
C1000 C1001 1.349 . S
C1000 C1002 1.327 . S
C1000 H1025 0.950 . S
C1001 C1000 1.349 . S
C1001 C1017 1.349 . S
C1002 C1000 1.327 . S
C1002 C1021 1.429 . S
C1002 H1026 0.950 . S
C1003 C1020 1.574 . S
C1003 C1022 1.368 . S
C1003 H1027 0.949 . S
H1004 C1008 0.949 . S
C1005 C1006 1.349 . S
C1005 C1007 1.327 . S
C1005 H1028 0.950 . S
C1006 C1005 1.349 . S
C1006 C1018 1.349 . S
C1007 C1005 1.327 . S
C1007 C1023 1.429 . S
C1007 H1029 0.950 . S
C1008 H1004 0.949 . S
C1008 C1016 1.574 . S
C1008 C1024 1.368 . S
H1009 C1017 0.950 . S
H1010 C1015 0.950 . S
H1011 C1016 0.949 . S
H1012 C1018 0.950 . S
H1013 C1019 0.950 . S
H1014 C1020 0.949 . S
C1015 H1010 0.950 . S
C1015 C1017 1.327 . S
C1015 C1021 1.429 . S
C1016 C1008 1.574 . S
C1016 H1011 0.949 . S
C1016 C1022 1.368 . S
C1017 C1001 1.349 . S
C1017 H1009 0.950 . S
C1017 C1015 1.327 . S
C1018 C1006 1.349 . S
C1018 H1012 0.950 . S
C1018 C1019 1.327 . S
C1019 H1013 0.950 . S
C1019 C1018 1.327 . S
C1019 C1023 1.429 . S
C1020 C1003 1.574 . S
C1020 H1014 0.949 . S
C1020 C1024 1.368 . S
C1021 C1002 1.429 . S
C1021 C1015 1.429 . S
C1021 C1022 1.523 . S
C1022 C1003 1.368 . S
C1022 C1016 1.368 . S
C1022 C1021 1.523 . S
C1023 C1007 1.429 . S
C1023 C1019 1.429 . S
C1023 C1024 1.523 . S
C1024 C1008 1.368 . S
C1024 C1020 1.368 . S
C1024 C1023 1.523 . S
H1025 C1000 0.950 . S
H1026 C1002 0.950 . S
H1027 C1003 0.949 . S
H1028 C1005 0.950 . S
H1029 C1007 0.950 . S
C1030 C1031 1.349 . S
C1030 C1032 1.327 . S
C1030 H1055 0.950 . S
C1031 C1030 1.349 . S
C1031 C1047 1.349 . S
C1032 C1030 1.327 . S
C1032 C1051 1.429 . S
C1032 H1056 0.950 . S
C1033 C1050 1.574 . S
C1033 C1052 1.368 . S
C1033 H1057 0.949 . S
H1034 C1038 0.949 . S
C1035 C1036 1.349 . S
C1035 C1037 1.327 . S
C1035 H1058 0.950 . S
C1036 C1035 1.349 . S
C1036 C1048 1.349 . S
C1037 C1035 1.327 . S
C1037 C1053 1.429 . S
C1037 H1059 0.950 . S
C1038 H1034 0.949 . S
C1038 C1046 1.574 . S
C1038 C1054 1.368 . S
H1039 C1047 0.950 . S
H1040 C1045 0.950 . S
H1041 C1046 0.949 . S
H1042 C1048 0.950 . S
H1043 C1049 0.950 . S
H1044 C1050 0.949 . S
C1045 H1040 0.950 . S
C1045 C1047 1.327 . S
C1045 C1051 1.429 . S
C1046 C1038 1.574 . S
C1046 H1041 0.949 . S
C1046 C1052 1.368 . S
C1047 C1031 1.349 . S
C1047 H1039 0.950 . S
C1047 C1045 1.327 . S
C1048 C1036 1.349 . S
C1048 H1042 0.950 . S
C1048 C1049 1.327 . S
C1049 H1043 0.950 . S
C1049 C1048 1.327 . S
C1049 C1053 1.429 . S
C1050 C1033 1.574 . S
C1050 H1044 0.949 . S
C1050 C1054 1.368 . S
C1051 C1032 1.429 . S
C1051 C1045 1.429 . S
C1051 C1052 1.523 . S
C1052 C1033 1.368 . S
C1052 C1046 1.368 . S
C1052 C1051 1.523 . S
C1053 C1037 1.429 . S
C1053 C1049 1.429 . S
C1053 C1054 1.523 . S
C1054 C1038 1.368 . S
C1054 C1050 1.368 . S
C1054 C1053 1.523 . S
H1055 C1030 0.950 . S
H1056 C1032 0.950 . S
H1057 C1033 0.949 . S
H1058 C1035 0.950 . S
H1059 C1037 0.950 . S
C1060 C1061 1.349 . S
C1060 C1062 1.327 . S
C1060 H1085 0.950 . S
C1061 C1060 1.349 . S
C1061 C1077 1.349 . S
C1062 C1060 1.327 . S
C1062 C1081 1.429 . S
C1062 H1086 0.950 . S
C1063 C1080 1.574 . S
C1063 C1082 1.368 . S
C1063 H1087 0.949 . S
H1064 C1068 0.949 . S
C1065 C1066 1.349 . S
C1065 C1067 1.327 . S
C1065 H1088 0.950 . S
C1066 C1065 1.349 . S
C1066 C1078 1.349 . S
C1067 C1065 1.327 . S
C1067 C1083 1.429 . S
C1067 H1089 0.950 . S
C1068 H1064 0.949 . S
C1068 C1076 1.574 . S
C1068 C1084 1.368 . S
H1069 C1077 0.950 . S
H1070 C1075 0.950 . S
H1071 C1076 0.949 . S
H1072 C1078 0.950 . S
H1073 C1079 0.950 . S
H1074 C1080 0.949 . S
C1075 H1070 0.950 . S
C1075 C1077 1.327 . S
C1075 C1081 1.429 . S
C1076 C1068 1.574 . S
C1076 H1071 0.949 . S
C1076 C1082 1.368 . S
C1077 C1061 1.349 . S
C1077 H1069 0.950 . S
C1077 C1075 1.327 . S
C1078 C1066 1.349 . S
C1078 H1072 0.950 . S
C1078 C1079 1.327 . S
C1079 H1073 0.950 . S
C1079 C1078 1.327 . S
C1079 C1083 1.429 . S
C1080 C1063 1.574 . S
C1080 H1074 0.949 . S
C1080 C1084 1.368 . S
C1081 C1062 1.429 . S
C1081 C1075 1.429 . S
C1081 C1082 1.523 . S
C1082 C1063 1.368 . S
C1082 C1076 1.368 . S
C1082 C1081 1.523 . S
C1083 C1067 1.429 . S
C1083 C1079 1.429 . S
C1083 C1084 1.523 1_556 S
C1084 C1068 1.368 . S
C1084 C1080 1.368 . S
C1084 C1083 1.523 1_554 S
H1085 C1060 0.950 . S
H1086 C1062 0.950 . S
H1087 C1063 0.949 . S
H1088 C1065 0.950 . S
H1089 C1067 0.950 . S
C1090 C1091 1.349 . S
C1090 C1092 1.327 1_554 S
C1090 H1115 0.950 . S
C1091 C1090 1.349 . S
C1091 C1107 1.349 . S
C1092 C1090 1.327 1_556 S
C1092 C1111 1.429 . S
C1092 H1116 0.950 . S
C1093 C1110 1.574 . S
C1093 C1112 1.368 . S
C1093 H1117 0.949 . S
H1094 C1098 0.949 . S
C1095 C1096 1.349 . S
C1095 C1097 1.327 . S
C1095 H1118 0.950 . S
C1096 C1095 1.349 . S
C1096 C1108 1.349 . S
C1097 C1095 1.327 . S
C1097 C1113 1.429 . S
C1097 H1119 0.950 . S
C1098 H1094 0.949 . S
C1098 C1106 1.574 . S
C1098 C1114 1.368 . S
H1099 C1107 0.950 . S
H1100 C1105 0.950 . S
H1101 C1106 0.949 . S
H1102 C1108 0.950 . S
H1103 C1109 0.950 . S
H1104 C1110 0.949 . S
C1105 H1100 0.950 . S
C1105 C1107 1.327 1_556 S
C1105 C1111 1.429 . S
C1106 C1098 1.574 . S
C1106 H1101 0.949 . S
C1106 C1112 1.368 . S
C1107 C1091 1.349 . S
C1107 H1099 0.950 . S
C1107 C1105 1.327 1_554 S
C1108 C1096 1.349 . S
C1108 H1102 0.950 . S
C1108 C1109 1.327 . S
C1109 H1103 0.950 . S
C1109 C1108 1.327 . S
C1109 C1113 1.429 . S
C1110 C1093 1.574 . S
C1110 H1104 0.949 . S
C1110 C1114 1.368 . S
C1111 C1092 1.429 . S
C1111 C1105 1.429 . S
C1111 C1112 1.523 . S
C1112 C1093 1.368 . S
C1112 C1106 1.368 . S
C1112 C1111 1.523 . S
C1113 C1097 1.429 . S
C1113 C1109 1.429 . S
C1113 C1114 1.523 . S
C1114 C1098 1.368 . S
C1114 C1110 1.368 . S
C1114 C1113 1.523 . S
H1115 C1090 0.950 . S
H1116 C1092 0.950 . S
H1117 C1093 0.949 . S
H1118 C1095 0.950 . S
H1119 C1097 0.950 . S
C1120 C1121 1.349 . S
C1120 C1122 1.327 . S
C1120 H1145 0.950 . S
C1121 C1120 1.349 . S
C1121 C1137 1.349 . S
C1122 C1120 1.327 . S
C1122 C1141 1.429 . S
C1122 H1146 0.950 . S
C1123 C1140 1.574 . S
C1123 C1142 1.368 . S
C1123 H1147 0.949 . S
H1124 C1128 0.949 . S
C1125 C1126 1.349 . S
C1125 C1127 1.327 . S
C1125 H1148 0.950 . S
C1126 C1125 1.349 . S
C1126 C1138 1.349 . S
C1127 C1125 1.327 . S
C1127 C1143 1.429 . S
C1127 H1149 0.950 . S
C1128 H1124 0.949 . S
C1128 C1136 1.574 . S
C1128 C1144 1.368 . S
H1129 C1137 0.950 . S
H1130 C1135 0.950 . S
H1131 C1136 0.949 . S
H1132 C1138 0.950 . S
H1133 C1139 0.950 . S
H1134 C1140 0.949 . S
C1135 H1130 0.950 . S
C1135 C1137 1.327 . S
C1135 C1141 1.429 . S
C1136 C1128 1.574 . S
C1136 H1131 0.949 . S
C1136 C1142 1.368 . S
C1137 C1121 1.349 . S
C1137 H1129 0.950 . S
C1137 C1135 1.327 . S
C1138 C1126 1.349 . S
C1138 H1132 0.950 . S
C1138 C1139 1.327 . S
C1139 H1133 0.950 . S
C1139 C1138 1.327 . S
C1139 C1143 1.429 . S
C1140 C1123 1.574 . S
C1140 H1134 0.949 . S
C1140 C1144 1.368 . S
C1141 C1122 1.429 . S
C1141 C1135 1.429 . S
C1141 C1142 1.523 . S
C1142 C1123 1.368 . S
C1142 C1136 1.368 . S
C1142 C1141 1.523 . S
C1143 C1127 1.429 . S
C1143 C1139 1.429 . S
C1143 C1144 1.523 . S
C1144 C1128 1.368 . S
C1144 C1140 1.368 . S
C1144 C1143 1.523 . S
H1145 C1120 0.950 . S
H1146 C1122 0.950 . S
H1147 C1123 0.949 . S
H1148 C1125 0.950 . S
H1149 C1127 0.950 . S
C1150 C1151 1.349 . S
C1150 C1152 1.327 . S
C1150 H1175 0.950 . S
C1151 C1150 1.349 . S
C1151 C1167 1.349 . S
C1152 C1150 1.327 . S
C1152 C1171 1.429 . S
C1152 H1176 0.950 . S
C1153 C1170 1.574 . S
C1153 C1172 1.368 . S
C1153 H1177 0.949 . S
H1154 C1158 0.949 . S
C1155 C1156 1.349 . S
C1155 C1157 1.327 . S
C1155 H1178 0.950 . S
C1156 C1155 1.349 . S
C1156 C1168 1.349 . S
C1157 C1155 1.327 . S
C1157 C1173 1.429 . S
C1157 H1179 0.950 . S
C1158 H1154 0.949 . S
C1158 C1166 1.574 . S
C1158 C1174 1.368 . S
H1159 C1167 0.950 . S
H1160 C1165 0.950 . S
H1161 C1166 0.949 . S
H1162 C1168 0.950 . S
H1163 C1169 0.950 . S
H1164 C1170 0.949 . S
C1165 H1160 0.950 . S
C1165 C1167 1.327 . S
C1165 C1171 1.429 . S
C1166 C1158 1.574 . S
C1166 H1161 0.949 . S
C1166 C1172 1.368 . S
C1167 C1151 1.349 . S
C1167 H1159 0.950 . S
C1167 C1165 1.327 . S
C1168 C1156 1.349 . S
C1168 H1162 0.950 . S
C1168 C1169 1.327 . S
C1169 H1163 0.950 . S
C1169 C1168 1.327 . S
C1169 C1173 1.429 . S
C1170 C1153 1.574 . S
C1170 H1164 0.949 . S
C1170 C1174 1.368 . S
C1171 C1152 1.429 . S
C1171 C1165 1.429 . S
C1171 C1172 1.523 . S
C1172 C1153 1.368 . S
C1172 C1166 1.368 . S
C1172 C1171 1.523 . S
C1173 C1157 1.429 . S
C1173 C1169 1.429 . S
C1173 C1174 1.523 . S
C1174 C1158 1.368 . S
C1174 C1170 1.368 . S
C1174 C1173 1.523 . S
H1175 C1150 0.950 . S
H1176 C1152 0.950 . S
H1177 C1153 0.949 . S
H1178 C1155 0.950 . S
H1179 C1157 0.950 . S
C1180 C1181 1.349 . S
C1180 C1182 1.327 . S
C1180 H1205 0.950 . S
C1181 C1180 1.349 . S
C1181 C1197 1.349 . S
C1182 C1180 1.327 . S
C1182 C1201 1.429 . S
C1182 H1206 0.950 . S
C1183 C1200 1.574 . S
C1183 C1202 1.368 . S
C1183 H1207 0.949 . S
H1184 C1188 0.949 . S
C1185 C1186 1.349 . S
C1185 C1187 1.327 . S
C1185 H1208 0.950 . S
C1186 C1185 1.349 . S
C1186 C1198 1.349 . S
C1187 C1185 1.327 . S
C1187 C1203 1.429 . S
C1187 H1209 0.950 . S
C1188 H1184 0.949 . S
C1188 C1196 1.574 . S
C1188 C1204 1.368 . S
H1189 C1197 0.950 . S
H1190 C1195 0.950 . S
H1191 C1196 0.949 . S
H1192 C1198 0.950 . S
H1193 C1199 0.950 . S
H1194 C1200 0.949 . S
C1195 H1190 0.950 . S
C1195 C1197 1.327 . S
C1195 C1201 1.429 . S
C1196 C1188 1.574 . S
C1196 H1191 0.949 . S
C1196 C1202 1.368 . S
C1197 C1181 1.349 . S
C1197 H1189 0.950 . S
C1197 C1195 1.327 . S
C1198 C1186 1.349 . S
C1198 H1192 0.950 . S
C1198 C1199 1.327 . S
C1199 H1193 0.950 . S
C1199 C1198 1.327 . S
C1199 C1203 1.429 . S
C1200 C1183 1.574 . S
C1200 H1194 0.949 . S
C1200 C1204 1.368 . S
C1201 C1182 1.429 . S
C1201 C1195 1.429 . S
C1201 C1202 1.523 . S
C1202 C1183 1.368 . S
C1202 C1196 1.368 . S
C1202 C1201 1.523 . S
C1203 C1187 1.429 . S
C1203 C1199 1.429 . S
C1203 C1204 1.523 . S
C1204 C1188 1.368 . S
C1204 C1200 1.368 . S
C1204 C1203 1.523 . S
H1205 C1180 0.950 . S
H1206 C1182 0.950 . S
H1207 C1183 0.949 . S
H1208 C1185 0.950 . S
H1209 C1187 0.950 . S
C1210 C1211 1.349 . S
C1210 C1212 1.327 . S
C1210 H1235 0.950 . S
C1211 C1210 1.349 . S
C1211 C1227 1.349 . S
C1212 C1210 1.327 . S
C1212 C1231 1.429 . S
C1212 H1236 0.950 . S
C1213 C1230 1.574 1_655 S
C1213 C1232 1.368 . S
C1213 H1237 0.949 . S
H1214 C1218 0.949 . S
C1215 C1216 1.349 . S
C1215 C1217 1.327 . S
C1215 H1238 0.950 . S
C1216 C1215 1.349 . S
C1216 C1228 1.349 . S
C1217 C1215 1.327 . S
C1217 C1233 1.429 . S
C1217 H1239 0.950 . S
C1218 H1214 0.949 . S
C1218 C1226 1.574 1_455 S
C1218 C1234 1.368 . S
H1219 C1227 0.950 . S
H1220 C1225 0.950 . S
H1221 C1226 0.949 . S
H1222 C1228 0.950 . S
H1223 C1229 0.950 . S
H1224 C1230 0.949 . S
C1225 H1220 0.950 . S
C1225 C1227 1.327 . S
C1225 C1231 1.429 . S
C1226 C1218 1.574 1_655 S
C1226 H1221 0.949 . S
C1226 C1232 1.368 . S
C1227 C1211 1.349 . S
C1227 H1219 0.950 . S
C1227 C1225 1.327 . S
C1228 C1216 1.349 . S
C1228 H1222 0.950 . S
C1228 C1229 1.327 . S
C1229 H1223 0.950 . S
C1229 C1228 1.327 . S
C1229 C1233 1.429 . S
C1230 C1213 1.574 1_455 S
C1230 H1224 0.949 . S
C1230 C1234 1.368 . S
C1231 C1212 1.429 . S
C1231 C1225 1.429 . S
C1231 C1232 1.523 . S
C1232 C1213 1.368 . S
C1232 C1226 1.368 . S
C1232 C1231 1.523 . S
C1233 C1217 1.429 . S
C1233 C1229 1.429 . S
C1233 C1234 1.523 . S
C1234 C1218 1.368 . S
C1234 C1230 1.368 . S
C1234 C1233 1.523 . S
H1235 C1210 0.950 . S
H1236 C1212 0.950 . S
H1237 C1213 0.949 . S
H1238 C1215 0.950 . S
H1239 C1217 0.950 . S
C1240 C1241 1.349 . S
C1240 C1242 1.327 . S
C1240 H1265 0.950 . S
C1241 C1240 1.349 . S
C1241 C1257 1.349 . S
C1242 C1240 1.327 . S
C1242 C1261 1.429 . S
C1242 H1266 0.950 . S
C1243 C1260 1.574 . S
C1243 C1262 1.368 . S
C1243 H1267 0.949 . S
H1244 C1248 0.949 . S
C1245 C1246 1.349 . S
C1245 C1247 1.327 . S
C1245 H1268 0.950 . S
C1246 C1245 1.349 . S
C1246 C1258 1.349 . S
C1247 C1245 1.327 . S
C1247 C1263 1.429 . S
C1247 H1269 0.950 . S
C1248 H1244 0.949 . S
C1248 C1256 1.574 . S
C1248 C1264 1.368 . S
H1249 C1257 0.950 . S
H1250 C1255 0.950 . S
H1251 C1256 0.949 . S
H1252 C1258 0.950 . S
H1253 C1259 0.950 . S
H1254 C1260 0.949 . S
C1255 H1250 0.950 . S
C1255 C1257 1.327 . S
C1255 C1261 1.429 . S
C1256 C1248 1.574 . S
C1256 H1251 0.949 . S
C1256 C1262 1.368 . S
C1257 C1241 1.349 . S
C1257 H1249 0.950 . S
C1257 C1255 1.327 . S
C1258 C1246 1.349 . S
C1258 H1252 0.950 . S
C1258 C1259 1.327 . S
C1259 H1253 0.950 . S
C1259 C1258 1.327 . S
C1259 C1263 1.429 . S
C1260 C1243 1.574 . S
C1260 H1254 0.949 . S
C1260 C1264 1.368 . S
C1261 C1242 1.429 . S
C1261 C1255 1.429 . S
C1261 C1262 1.523 . S
C1262 C1243 1.368 . S
C1262 C1256 1.368 . S
C1262 C1261 1.523 . S
C1263 C1247 1.429 . S
C1263 C1259 1.429 . S
C1263 C1264 1.523 . S
C1264 C1248 1.368 . S
C1264 C1260 1.368 . S
C1264 C1263 1.523 . S
H1265 C1240 0.950 . S
H1266 C1242 0.950 . S
H1267 C1243 0.949 . S
H1268 C1245 0.950 . S
H1269 C1247 0.950 . S
C1270 C1271 1.349 . S
C1270 C1272 1.327 . S
C1270 H1295 0.950 . S
C1271 C1270 1.349 . S
C1271 C1287 1.349 . S
C1272 C1270 1.327 . S
C1272 C1291 1.429 . S
C1272 H1296 0.950 . S
C1273 C1290 1.574 1_455 S
C1273 C1292 1.368 . S
C1273 H1297 0.949 . S
H1274 C1278 0.949 . S
C1275 C1276 1.349 . S
C1275 C1277 1.327 . S
C1275 H1298 0.950 . S
C1276 C1275 1.349 . S
C1276 C1288 1.349 . S
C1277 C1275 1.327 . S
C1277 C1293 1.429 . S
C1277 H1299 0.950 . S
C1278 H1274 0.949 . S
C1278 C1286 1.574 1_655 S
C1278 C1294 1.368 . S
H1279 C1287 0.950 . S
H1280 C1285 0.950 . S
H1281 C1286 0.949 . S
H1282 C1288 0.950 . S
H1283 C1289 0.950 . S
H1284 C1290 0.949 . S
C1285 H1280 0.950 . S
C1285 C1287 1.327 . S
C1285 C1291 1.429 . S
C1286 C1278 1.574 1_455 S
C1286 H1281 0.949 . S
C1286 C1292 1.368 . S
C1287 C1271 1.349 . S
C1287 H1279 0.950 . S
C1287 C1285 1.327 . S
C1288 C1276 1.349 . S
C1288 H1282 0.950 . S
C1288 C1289 1.327 . S
C1289 H1283 0.950 . S
C1289 C1288 1.327 . S
C1289 C1293 1.429 . S
C1290 C1273 1.574 1_655 S
C1290 H1284 0.949 . S
C1290 C1294 1.368 . S
C1291 C1272 1.429 . S
C1291 C1285 1.429 . S
C1291 C1292 1.523 . S
C1292 C1273 1.368 . S
C1292 C1286 1.368 . S
C1292 C1291 1.523 . S
C1293 C1277 1.429 . S
C1293 C1289 1.429 . S
C1293 C1294 1.523 . S
C1294 C1278 1.368 . S
C1294 C1290 1.368 . S
C1294 C1293 1.523 . S
H1295 C1270 0.950 . S
H1296 C1272 0.950 . S
H1297 C1273 0.949 . S
H1298 C1275 0.950 . S
H1299 C1277 0.950 . S
C1300 C1301 1.349 . S
C1300 C1302 1.327 . S
C1300 H1325 0.950 . S
C1301 C1300 1.349 . S
C1301 C1317 1.349 . S
C1302 C1300 1.327 . S
C1302 C1321 1.429 . S
C1302 H1326 0.950 . S
C1303 C1320 1.574 . S
C1303 C1322 1.368 . S
C1303 H1327 0.949 . S
H1304 C1308 0.949 . S
C1305 C1306 1.349 . S
C1305 C1307 1.327 . S
C1305 H1328 0.950 . S
C1306 C1305 1.349 . S
C1306 C1318 1.349 . S
C1307 C1305 1.327 . S
C1307 C1323 1.429 . S
C1307 H1329 0.950 . S
C1308 H1304 0.949 . S
C1308 C1316 1.574 . S
C1308 C1324 1.368 . S
H1309 C1317 0.950 . S
H1310 C1315 0.950 . S
H1311 C1316 0.949 . S
H1312 C1318 0.950 . S
H1313 C1319 0.950 . S
H1314 C1320 0.949 . S
C1315 H1310 0.950 . S
C1315 C1317 1.327 . S
C1315 C1321 1.429 . S
C1316 C1308 1.574 . S
C1316 H1311 0.949 . S
C1316 C1322 1.368 . S
C1317 C1301 1.349 . S
C1317 H1309 0.950 . S
C1317 C1315 1.327 . S
C1318 C1306 1.349 . S
C1318 H1312 0.950 . S
C1318 C1319 1.327 . S
C1319 H1313 0.950 . S
C1319 C1318 1.327 . S
C1319 C1323 1.429 . S
C1320 C1303 1.574 . S
C1320 H1314 0.949 . S
C1320 C1324 1.368 . S
C1321 C1302 1.429 . S
C1321 C1315 1.429 . S
C1321 C1322 1.523 . S
C1322 C1303 1.368 . S
C1322 C1316 1.368 . S
C1322 C1321 1.523 . S
C1323 C1307 1.429 . S
C1323 C1319 1.429 . S
C1323 C1324 1.523 . S
C1324 C1308 1.368 . S
C1324 C1320 1.368 . S
C1324 C1323 1.523 . S
H1325 C1300 0.950 . S
H1326 C1302 0.950 . S
H1327 C1303 0.949 . S
H1328 C1305 0.950 . S
H1329 C1307 0.950 . S
C1330 C1331 1.349 . S
C1330 C1332 1.327 . S
C1330 H1355 0.950 . S
C1331 C1330 1.349 . S
C1331 C1347 1.349 . S
C1332 C1330 1.327 . S
C1332 C1351 1.429 . S
C1332 H1356 0.950 . S
C1333 C1350 1.574 . S
C1333 C1352 1.368 . S
C1333 H1357 0.949 . S
H1334 C1338 0.949 . S
C1335 C1336 1.349 . S
C1335 C1337 1.327 . S
C1335 H1358 0.950 . S
C1336 C1335 1.349 . S
C1336 C1348 1.349 . S
C1337 C1335 1.327 . S
C1337 C1353 1.429 . S
C1337 H1359 0.950 . S
C1338 H1334 0.949 . S
C1338 C1346 1.574 . S
C1338 C1354 1.368 . S
H1339 C1347 0.950 . S
H1340 C1345 0.950 . S
H1341 C1346 0.949 . S
H1342 C1348 0.950 . S
H1343 C1349 0.950 . S
H1344 C1350 0.949 . S
C1345 H1340 0.950 . S
C1345 C1347 1.327 . S
C1345 C1351 1.429 . S
C1346 C1338 1.574 . S
C1346 H1341 0.949 . S
C1346 C1352 1.368 . S
C1347 C1331 1.349 . S
C1347 H1339 0.950 . S
C1347 C1345 1.327 . S
C1348 C1336 1.349 . S
C1348 H1342 0.950 . S
C1348 C1349 1.327 . S
C1349 H1343 0.950 . S
C1349 C1348 1.327 . S
C1349 C1353 1.429 . S
C1350 C1333 1.574 . S
C1350 H1344 0.949 . S
C1350 C1354 1.368 . S
C1351 C1332 1.429 . S
C1351 C1345 1.429 . S
C1351 C1352 1.523 . S
C1352 C1333 1.368 . S
C1352 C1346 1.368 . S
C1352 C1351 1.523 . S
C1353 C1337 1.429 . S
C1353 C1349 1.429 . S
C1353 C1354 1.523 . S
C1354 C1338 1.368 . S
C1354 C1350 1.368 . S
C1354 C1353 1.523 . S
H1355 C1330 0.950 . S
H1356 C1332 0.950 . S
H1357 C1333 0.949 . S
H1358 C1335 0.950 . S
H1359 C1337 0.950 . S
C1360 C1361 1.349 . S
C1360 C1362 1.327 . S
C1360 H1385 0.950 . S
C1361 C1360 1.349 . S
C1361 C1377 1.349 . S
C1362 C1360 1.327 . S
C1362 C1381 1.429 . S
C1362 H1386 0.950 . S
C1363 C1380 1.574 . S
C1363 C1382 1.368 . S
C1363 H1387 0.949 . S
H1364 C1368 0.949 . S
C1365 C1366 1.349 . S
C1365 C1367 1.327 . S
C1365 H1388 0.950 . S
C1366 C1365 1.349 . S
C1366 C1378 1.349 . S
C1367 C1365 1.327 . S
C1367 C1383 1.429 . S
C1367 H1389 0.950 . S
C1368 H1364 0.949 . S
C1368 C1376 1.574 . S
C1368 C1384 1.368 . S
H1369 C1377 0.950 . S
H1370 C1375 0.950 . S
H1371 C1376 0.949 . S
H1372 C1378 0.950 . S
H1373 C1379 0.950 . S
H1374 C1380 0.949 . S
C1375 H1370 0.950 . S
C1375 C1377 1.327 . S
C1375 C1381 1.429 . S
C1376 C1368 1.574 . S
C1376 H1371 0.949 . S
C1376 C1382 1.368 . S
C1377 C1361 1.349 . S
C1377 H1369 0.950 . S
C1377 C1375 1.327 . S
C1378 C1366 1.349 . S
C1378 H1372 0.950 . S
C1378 C1379 1.327 . S
C1379 H1373 0.950 . S
C1379 C1378 1.327 . S
C1379 C1383 1.429 . S
C1380 C1363 1.574 . S
C1380 H1374 0.949 . S
C1380 C1384 1.368 . S
C1381 C1362 1.429 . S
C1381 C1375 1.429 . S
C1381 C1382 1.523 . S
C1382 C1363 1.368 . S
C1382 C1376 1.368 . S
C1382 C1381 1.523 . S
C1383 C1367 1.429 . S
C1383 C1379 1.429 . S
C1383 C1384 1.523 . S
C1384 C1368 1.368 . S
C1384 C1380 1.368 . S
C1384 C1383 1.523 . S
H1385 C1360 0.950 . S
H1386 C1362 0.950 . S
H1387 C1363 0.949 . S
H1388 C1365 0.950 . S
H1389 C1367 0.950 . S
C1390 C1391 1.349 . S
C1390 C1392 1.327 . S
C1390 H1415 0.950 . S
C1391 C1390 1.349 . S
C1391 C1407 1.349 . S
C1392 C1390 1.327 . S
C1392 C1411 1.429 . S
C1392 H1416 0.950 . S
C1393 C1410 1.574 . S
C1393 C1412 1.368 . S
C1393 H1417 0.949 . S
H1394 C1398 0.949 . S
C1395 C1396 1.349 . S
C1395 C1397 1.327 . S
C1395 H1418 0.950 . S
C1396 C1395 1.349 . S
C1396 C1408 1.349 . S
C1397 C1395 1.327 . S
C1397 C1413 1.429 . S
C1397 H1419 0.950 . S
C1398 H1394 0.949 . S
C1398 C1406 1.574 . S
C1398 C1414 1.368 . S
H1399 C1407 0.950 . S
H1400 C1405 0.950 . S
H1401 C1406 0.949 . S
H1402 C1408 0.950 . S
H1403 C1409 0.950 . S
H1404 C1410 0.949 . S
C1405 H1400 0.950 . S
C1405 C1407 1.327 . S
C1405 C1411 1.429 . S
C1406 C1398 1.574 . S
C1406 H1401 0.949 . S
C1406 C1412 1.368 . S
C1407 C1391 1.349 . S
C1407 H1399 0.950 . S
C1407 C1405 1.327 . S
C1408 C1396 1.349 . S
C1408 H1402 0.950 . S
C1408 C1409 1.327 . S
C1409 H1403 0.950 . S
C1409 C1408 1.327 . S
C1409 C1413 1.429 . S
C1410 C1393 1.574 . S
C1410 H1404 0.949 . S
C1410 C1414 1.368 . S
C1411 C1392 1.429 . S
C1411 C1405 1.429 . S
C1411 C1412 1.523 . S
C1412 C1393 1.368 . S
C1412 C1406 1.368 . S
C1412 C1411 1.523 . S
C1413 C1397 1.429 . S
C1413 C1409 1.429 . S
C1413 C1414 1.523 . S
C1414 C1398 1.368 . S
C1414 C1410 1.368 . S
C1414 C1413 1.523 . S
H1415 C1390 0.950 . S
H1416 C1392 0.950 . S
H1417 C1393 0.949 . S
H1418 C1395 0.950 . S
H1419 C1397 0.950 . S
C1420 C1421 1.349 . S
C1420 C1422 1.327 . S
C1420 H1445 0.950 . S
C1421 C1420 1.349 . S
C1421 C1437 1.349 . S
C1422 C1420 1.327 . S
C1422 C1441 1.429 . S
C1422 H1446 0.950 . S
C1423 C1440 1.574 . S
C1423 C1442 1.368 . S
C1423 H1447 0.949 . S
H1424 C1428 0.949 . S
C1425 C1426 1.349 . S
C1425 C1427 1.327 . S
C1425 H1448 0.950 . S
C1426 C1425 1.349 . S
C1426 C1438 1.349 . S
C1427 C1425 1.327 . S
C1427 C1443 1.429 . S
C1427 H1449 0.950 . S
C1428 H1424 0.949 . S
C1428 C1436 1.574 . S
C1428 C1444 1.368 . S
H1429 C1437 0.950 . S
H1430 C1435 0.950 . S
H1431 C1436 0.949 . S
H1432 C1438 0.950 . S
H1433 C1439 0.950 . S
H1434 C1440 0.949 . S
C1435 H1430 0.950 . S
C1435 C1437 1.327 . S
C1435 C1441 1.429 . S
C1436 C1428 1.574 . S
C1436 H1431 0.949 . S
C1436 C1442 1.368 . S
C1437 C1421 1.349 . S
C1437 H1429 0.950 . S
C1437 C1435 1.327 . S
C1438 C1426 1.349 . S
C1438 H1432 0.950 . S
C1438 C1439 1.327 . S
C1439 H1433 0.950 . S
C1439 C1438 1.327 . S
C1439 C1443 1.429 . S
C1440 C1423 1.574 . S
C1440 H1434 0.949 . S
C1440 C1444 1.368 . S
C1441 C1422 1.429 . S
C1441 C1435 1.429 . S
C1441 C1442 1.523 . S
C1442 C1423 1.368 . S
C1442 C1436 1.368 . S
C1442 C1441 1.523 . S
C1443 C1427 1.429 . S
C1443 C1439 1.429 . S
C1443 C1444 1.523 . S
C1444 C1428 1.368 . S
C1444 C1440 1.368 . S
C1444 C1443 1.523 . S
H1445 C1420 0.950 . S
H1446 C1422 0.950 . S
H1447 C1423 0.949 . S
H1448 C1425 0.950 . S
H1449 C1427 0.950 . S
C1450 C1451 1.349 . S
C1450 C1452 1.327 . S
C1450 H1475 0.950 . S
C1451 C1450 1.349 . S
C1451 C1467 1.349 . S
C1452 C1450 1.327 . S
C1452 C1471 1.429 . S
C1452 H1476 0.950 . S
C1453 C1470 1.574 . S
C1453 C1472 1.368 . S
C1453 H1477 0.949 . S
H1454 C1458 0.949 . S
C1455 C1456 1.349 . S
C1455 C1457 1.327 . S
C1455 H1478 0.950 . S
C1456 C1455 1.349 . S
C1456 C1468 1.349 . S
C1457 C1455 1.327 . S
C1457 C1473 1.429 . S
C1457 H1479 0.950 . S
C1458 H1454 0.949 . S
C1458 C1466 1.574 . S
C1458 C1474 1.368 . S
H1459 C1467 0.950 . S
H1460 C1465 0.950 . S
H1461 C1466 0.949 . S
H1462 C1468 0.950 . S
H1463 C1469 0.950 . S
H1464 C1470 0.949 . S
C1465 H1460 0.950 . S
C1465 C1467 1.327 . S
C1465 C1471 1.429 . S
C1466 C1458 1.574 . S
C1466 H1461 0.949 . S
C1466 C1472 1.368 . S
C1467 C1451 1.349 . S
C1467 H1459 0.950 . S
C1467 C1465 1.327 . S
C1468 C1456 1.349 . S
C1468 H1462 0.950 . S
C1468 C1469 1.327 . S
C1469 H1463 0.950 . S
C1469 C1468 1.327 . S
C1469 C1473 1.429 . S
C1470 C1453 1.574 . S
C1470 H1464 0.949 . S
C1470 C1474 1.368 . S
C1471 C1452 1.429 . S
C1471 C1465 1.429 . S
C1471 C1472 1.523 . S
C1472 C1453 1.368 . S
C1472 C1466 1.368 . S
C1472 C1471 1.523 . S
C1473 C1457 1.429 . S
C1473 C1469 1.429 . S
C1473 C1474 1.523 . S
C1474 C1458 1.368 . S
C1474 C1470 1.368 . S
C1474 C1473 1.523 . S
H1475 C1450 0.950 . S
H1476 C1452 0.950 . S
H1477 C1453 0.949 . S
H1478 C1455 0.950 . S
H1479 C1457 0.950 . S
C1480 C1481 1.349 . S
C1480 C1482 1.327 . S
C1480 H1505 0.950 . S
C1481 C1480 1.349 . S
C1481 C1497 1.349 . S
C1482 C1480 1.327 . S
C1482 C1501 1.429 . S
C1482 H1506 0.950 . S
C1483 C1500 1.574 1_655 S
C1483 C1502 1.368 . S
C1483 H1507 0.949 . S
H1484 C1488 0.949 . S
C1485 C1486 1.349 . S
C1485 C1487 1.327 . S
C1485 H1508 0.950 . S
C1486 C1485 1.349 . S
C1486 C1498 1.349 . S
C1487 C1485 1.327 . S
C1487 C1503 1.429 . S
C1487 H1509 0.950 . S
C1488 H1484 0.949 . S
C1488 C1496 1.574 1_455 S
C1488 C1504 1.368 . S
H1489 C1497 0.950 . S
H1490 C1495 0.950 . S
H1491 C1496 0.949 . S
H1492 C1498 0.950 . S
H1493 C1499 0.950 . S
H1494 C1500 0.949 . S
C1495 H1490 0.950 . S
C1495 C1497 1.327 . S
C1495 C1501 1.429 . S
C1496 C1488 1.574 1_655 S
C1496 H1491 0.949 . S
C1496 C1502 1.368 . S
C1497 C1481 1.349 . S
C1497 H1489 0.950 . S
C1497 C1495 1.327 . S
C1498 C1486 1.349 . S
C1498 H1492 0.950 . S
C1498 C1499 1.327 . S
C1499 H1493 0.950 . S
C1499 C1498 1.327 . S
C1499 C1503 1.429 . S
C1500 C1483 1.574 1_455 S
C1500 H1494 0.949 . S
C1500 C1504 1.368 . S
C1501 C1482 1.429 . S
C1501 C1495 1.429 . S
C1501 C1502 1.523 . S
C1502 C1483 1.368 . S
C1502 C1496 1.368 . S
C1502 C1501 1.523 . S
C1503 C1487 1.429 . S
C1503 C1499 1.429 . S
C1503 C1504 1.523 . S
C1504 C1488 1.368 . S
C1504 C1500 1.368 . S
C1504 C1503 1.523 . S
H1505 C1480 0.950 . S
H1506 C1482 0.950 . S
H1507 C1483 0.949 . S
H1508 C1485 0.950 . S
H1509 C1487 0.950 . S
C1510 C1511 1.349 . S
C1510 C1512 1.327 . S
C1510 H1535 0.950 . S
C1511 C1510 1.349 . S
C1511 C1527 1.349 . S
C1512 C1510 1.327 . S
C1512 C1531 1.429 . S
C1512 H1536 0.950 . S
C1513 C1530 1.574 . S
C1513 C1532 1.368 . S
C1513 H1537 0.949 . S
H1514 C1518 0.949 . S
C1515 C1516 1.349 . S
C1515 C1517 1.327 . S
C1515 H1538 0.950 . S
C1516 C1515 1.349 . S
C1516 C1528 1.349 . S
C1517 C1515 1.327 . S
C1517 C1533 1.429 . S
C1517 H1539 0.950 . S
C1518 H1514 0.949 . S
C1518 C1526 1.574 . S
C1518 C1534 1.368 . S
H1519 C1527 0.950 . S
H1520 C1525 0.950 . S
H1521 C1526 0.949 . S
H1522 C1528 0.950 . S
H1523 C1529 0.950 . S
H1524 C1530 0.949 . S
C1525 H1520 0.950 . S
C1525 C1527 1.327 . S
C1525 C1531 1.429 . S
C1526 C1518 1.574 . S
C1526 H1521 0.949 . S
C1526 C1532 1.368 . S
C1527 C1511 1.349 . S
C1527 H1519 0.950 . S
C1527 C1525 1.327 . S
C1528 C1516 1.349 . S
C1528 H1522 0.950 . S
C1528 C1529 1.327 . S
C1529 H1523 0.950 . S
C1529 C1528 1.327 . S
C1529 C1533 1.429 . S
C1530 C1513 1.574 . S
C1530 H1524 0.949 . S
C1530 C1534 1.368 . S
C1531 C1512 1.429 . S
C1531 C1525 1.429 . S
C1531 C1532 1.523 . S
C1532 C1513 1.368 . S
C1532 C1526 1.368 . S
C1532 C1531 1.523 . S
C1533 C1517 1.429 . S
C1533 C1529 1.429 . S
C1533 C1534 1.523 . S
C1534 C1518 1.368 . S
C1534 C1530 1.368 . S
C1534 C1533 1.523 . S
H1535 C1510 0.950 . S
H1536 C1512 0.950 . S
H1537 C1513 0.949 . S
H1538 C1515 0.950 . S
H1539 C1517 0.950 . S
C1540 C1541 1.349 . S
C1540 C1542 1.327 . S
C1540 H1565 0.950 . S
C1541 C1540 1.349 . S
C1541 C1557 1.349 . S
C1542 C1540 1.327 . S
C1542 C1561 1.429 . S
C1542 H1566 0.950 . S
C1543 C1560 1.574 . S
C1543 C1562 1.368 . S
C1543 H1567 0.949 . S
H1544 C1548 0.949 . S
C1545 C1546 1.349 . S
C1545 C1547 1.327 . S
C1545 H1568 0.950 . S
C1546 C1545 1.349 . S
C1546 C1558 1.349 . S
C1547 C1545 1.327 . S
C1547 C1563 1.429 . S
C1547 H1569 0.950 . S
C1548 H1544 0.949 . S
C1548 C1556 1.574 . S
C1548 C1564 1.368 . S
H1549 C1557 0.950 . S
H1550 C1555 0.950 . S
H1551 C1556 0.949 . S
H1552 C1558 0.950 . S
H1553 C1559 0.950 . S
H1554 C1560 0.949 . S
C1555 H1550 0.950 . S
C1555 C1557 1.327 . S
C1555 C1561 1.429 . S
C1556 C1548 1.574 . S
C1556 H1551 0.949 . S
C1556 C1562 1.368 . S
C1557 C1541 1.349 . S
C1557 H1549 0.950 . S
C1557 C1555 1.327 . S
C1558 C1546 1.349 . S
C1558 H1552 0.950 . S
C1558 C1559 1.327 . S
C1559 H1553 0.950 . S
C1559 C1558 1.327 . S
C1559 C1563 1.429 . S
C1560 C1543 1.574 . S
C1560 H1554 0.949 . S
C1560 C1564 1.368 . S
C1561 C1542 1.429 . S
C1561 C1555 1.429 . S
C1561 C1562 1.523 . S
C1562 C1543 1.368 . S
C1562 C1556 1.368 . S
C1562 C1561 1.523 . S
C1563 C1547 1.429 . S
C1563 C1559 1.429 . S
C1563 C1564 1.523 . S
C1564 C1548 1.368 . S
C1564 C1560 1.368 . S
C1564 C1563 1.523 . S
H1565 C1540 0.950 . S
H1566 C1542 0.950 . S
H1567 C1543 0.949 . S
H1568 C1545 0.950 . S
H1569 C1547 0.950 . S
C1570 C1571 1.349 . S
C1570 C1572 1.327 . S
C1570 H1595 0.950 . S
C1571 C1570 1.349 . S
C1571 C1587 1.349 . S
C1572 C1570 1.327 . S
C1572 C1591 1.429 . S
C1572 H1596 0.950 . S
C1573 C1590 1.574 1_455 S
C1573 C1592 1.368 . S
C1573 H1597 0.949 . S
H1574 C1578 0.949 . S
C1575 C1576 1.349 . S
C1575 C1577 1.327 . S
C1575 H1598 0.950 . S
C1576 C1575 1.349 . S
C1576 C1588 1.349 . S
C1577 C1575 1.327 . S
C1577 C1593 1.429 . S
C1577 H1599 0.950 . S
C1578 H1574 0.949 . S
C1578 C1586 1.574 1_655 S
C1578 C1594 1.368 . S
H1579 C1587 0.950 . S
H1580 C1585 0.950 . S
H1581 C1586 0.949 . S
H1582 C1588 0.950 . S
H1583 C1589 0.950 . S
H1584 C1590 0.949 . S
C1585 H1580 0.950 . S
C1585 C1587 1.327 . S
C1585 C1591 1.429 . S
C1586 C1578 1.574 1_455 S
C1586 H1581 0.949 . S
C1586 C1592 1.368 . S
C1587 C1571 1.349 . S
C1587 H1579 0.950 . S
C1587 C1585 1.327 . S
C1588 C1576 1.349 . S
C1588 H1582 0.950 . S
C1588 C1589 1.327 . S
C1589 H1583 0.950 . S
C1589 C1588 1.327 . S
C1589 C1593 1.429 . S
C1590 C1573 1.574 1_655 S
C1590 H1584 0.949 . S
C1590 C1594 1.368 . S
C1591 C1572 1.429 . S
C1591 C1585 1.429 . S
C1591 C1592 1.523 . S
C1592 C1573 1.368 . S
C1592 C1586 1.368 . S
C1592 C1591 1.523 . S
C1593 C1577 1.429 . S
C1593 C1589 1.429 . S
C1593 C1594 1.523 . S
C1594 C1578 1.368 . S
C1594 C1590 1.368 . S
C1594 C1593 1.523 . S
H1595 C1570 0.950 . S
H1596 C1572 0.950 . S
H1597 C1573 0.949 . S
H1598 C1575 0.950 . S
H1599 C1577 0.950 . S
C1600 C1601 1.349 . S
C1600 C1602 1.327 . S
C1600 H1625 0.950 . S
C1601 C1600 1.349 . S
C1601 C1617 1.349 . S
C1602 C1600 1.327 . S
C1602 C1621 1.429 . S
C1602 H1626 0.950 . S
C1603 C1620 1.574 . S
C1603 C1622 1.368 . S
C1603 H1627 0.949 . S
H1604 C1608 0.949 . S
C1605 C1606 1.349 . S
C1605 C1607 1.327 1_556 S
C1605 H1628 0.944 1_556 S
C1606 C1605 1.349 . S
C1606 C1618 1.349 . S
C1607 C1605 1.327 1_554 S
C1607 C1623 1.429 1_554 S
C1607 H1629 0.950 . S
C1608 H1604 0.949 . S
C1608 C1616 1.574 1_556 S
C1608 C1624 1.368 1_556 S
H1609 C1617 0.950 . S
H1610 C1615 0.950 . S
H1611 C1616 0.949 . S
H1612 C1618 0.950 . S
H1613 C1619 0.950 . S
H1614 C1620 0.949 . S
C1615 H1610 0.950 . S
C1615 C1617 1.327 . S
C1615 C1621 1.429 . S
C1616 C1608 1.574 1_554 S
C1616 H1611 0.949 . S
C1616 C1622 1.368 . S
C1617 C1601 1.349 . S
C1617 H1609 0.950 . S
C1617 C1615 1.327 . S
C1618 C1606 1.349 . S
C1618 H1612 0.950 . S
C1618 C1619 1.327 . S
C1619 H1613 0.950 . S
C1619 C1618 1.327 . S
C1619 C1623 1.429 . S
C1620 C1603 1.574 . S
C1620 H1614 0.949 . S
C1620 C1624 1.368 . S
C1621 C1602 1.429 . S
C1621 C1615 1.429 . S
C1621 C1622 1.523 . S
C1622 C1603 1.368 . S
C1622 C1616 1.368 . S
C1622 C1621 1.523 . S
C1623 C1607 1.429 1_556 S
C1623 C1619 1.429 . S
C1623 C1624 1.523 1_556 S
C1624 C1608 1.368 1_554 S
C1624 C1620 1.368 . S
C1624 C1623 1.523 1_554 S
H1625 C1600 0.950 . S
H1626 C1602 0.950 . S
H1627 C1603 0.949 . S
H1628 C1605 0.944 1_554 S
H1629 C1607 0.950 . S
C1630 C1631 1.349 . S
C1630 C1632 1.327 . S
C1630 H1655 0.950 . S
C1631 C1630 1.349 . S
C1631 C1647 1.349 . S
C1632 C1630 1.327 . S
C1632 C1651 1.429 . S
C1632 H1656 0.950 . S
C1633 C1650 1.574 . S
C1633 C1652 1.368 . S
C1633 H1657 0.949 . S
H1634 C1638 0.949 . S
C1635 C1636 1.349 . S
C1635 C1637 1.327 . S
C1635 H1658 0.950 . S
C1636 C1635 1.349 . S
C1636 C1648 1.349 . S
C1637 C1635 1.327 . S
C1637 C1653 1.429 . S
C1637 H1659 0.950 . S
C1638 H1634 0.949 . S
C1638 C1646 1.574 . S
C1638 C1654 1.368 . S
H1639 C1647 0.950 . S
H1640 C1645 0.950 . S
H1641 C1646 0.949 . S
H1642 C1648 0.950 . S
H1643 C1649 0.950 . S
H1644 C1650 0.949 . S
C1645 H1640 0.950 . S
C1645 C1647 1.327 . S
C1645 C1651 1.429 . S
C1646 C1638 1.574 . S
C1646 H1641 0.949 . S
C1646 C1652 1.368 . S
C1647 C1631 1.349 . S
C1647 H1639 0.950 . S
C1647 C1645 1.327 . S
C1648 C1636 1.349 . S
C1648 H1642 0.950 . S
C1648 C1649 1.327 . S
C1649 H1643 0.950 . S
C1649 C1648 1.327 . S
C1649 C1653 1.429 . S
C1650 C1633 1.574 . S
C1650 H1644 0.949 . S
C1650 C1654 1.368 . S
C1651 C1632 1.429 . S
C1651 C1645 1.429 . S
C1651 C1652 1.523 . S
C1652 C1633 1.368 . S
C1652 C1646 1.368 . S
C1652 C1651 1.523 . S
C1653 C1637 1.429 . S
C1653 C1649 1.429 . S
C1653 C1654 1.523 . S
C1654 C1638 1.368 . S
C1654 C1650 1.368 . S
C1654 C1653 1.523 . S
H1655 C1630 0.950 . S
H1656 C1632 0.950 . S
H1657 C1633 0.949 . S
H1658 C1635 0.950 . S
H1659 C1637 0.950 . S
C1660 C1661 1.349 . S
C1660 C1662 1.327 . S
C1660 H1685 0.950 . S
C1661 C1660 1.349 . S
C1661 C1677 1.349 . S
C1662 C1660 1.327 . S
C1662 C1681 1.429 . S
C1662 H1686 0.950 . S
C1663 C1680 1.574 . S
C1663 C1682 1.368 . S
C1663 H1687 0.949 . S
H1664 C1668 0.949 . S
C1665 C1666 1.349 . S
C1665 C1667 1.327 . S
C1665 H1688 0.950 . S
C1666 C1665 1.349 . S
C1666 C1678 1.349 . S
C1667 C1665 1.327 . S
C1667 C1683 1.429 . S
C1667 H1689 0.950 . S
C1668 H1664 0.949 . S
C1668 C1676 1.574 . S
C1668 C1684 1.368 . S
H1669 C1677 0.950 . S
H1670 C1675 0.950 . S
H1671 C1676 0.949 . S
H1672 C1678 0.950 . S
H1673 C1679 0.950 . S
H1674 C1680 0.949 . S
C1675 H1670 0.950 . S
C1675 C1677 1.327 . S
C1675 C1681 1.429 . S
C1676 C1668 1.574 . S
C1676 H1671 0.949 . S
C1676 C1682 1.368 . S
C1677 C1661 1.349 . S
C1677 H1669 0.950 . S
C1677 C1675 1.327 . S
C1678 C1666 1.349 . S
C1678 H1672 0.950 . S
C1678 C1679 1.327 . S
C1679 H1673 0.950 . S
C1679 C1678 1.327 . S
C1679 C1683 1.429 . S
C1680 C1663 1.574 . S
C1680 H1674 0.949 . S
C1680 C1684 1.368 . S
C1681 C1662 1.429 . S
C1681 C1675 1.429 . S
C1681 C1682 1.523 . S
C1682 C1663 1.368 . S
C1682 C1676 1.368 . S
C1682 C1681 1.523 . S
C1683 C1667 1.429 . S
C1683 C1679 1.429 . S
C1683 C1684 1.523 . S
C1684 C1668 1.368 . S
C1684 C1680 1.368 . S
C1684 C1683 1.523 . S
H1685 C1660 0.950 . S
H1686 C1662 0.950 . S
H1687 C1663 0.949 . S
H1688 C1665 0.950 . S
H1689 C1667 0.950 . S
C1690 C1691 1.349 . S
C1690 C1692 1.327 . S
C1690 H1715 0.950 . S
C1691 C1690 1.349 . S
C1691 C1707 1.349 . S
C1692 C1690 1.327 . S
C1692 C1711 1.429 . S
C1692 H1716 0.950 . S
C1693 C1710 1.574 . S
C1693 C1712 1.368 . S
C1693 H1717 0.949 . S
H1694 C1698 0.949 . S
C1695 C1696 1.349 . S
C1695 C1697 1.327 . S
C1695 H1718 0.950 . S
C1696 C1695 1.349 . S
C1696 C1708 1.349 . S
C1697 C1695 1.327 . S
C1697 C1713 1.429 . S
C1697 H1719 0.950 . S
C1698 H1694 0.949 . S
C1698 C1706 1.574 . S
C1698 C1714 1.368 . S
H1699 C1707 0.950 . S
H1700 C1705 0.950 . S
H1701 C1706 0.949 . S
H1702 C1708 0.950 . S
H1703 C1709 0.950 . S
H1704 C1710 0.949 . S
C1705 H1700 0.950 . S
C1705 C1707 1.327 . S
C1705 C1711 1.429 . S
C1706 C1698 1.574 . S
C1706 H1701 0.949 . S
C1706 C1712 1.368 . S
C1707 C1691 1.349 . S
C1707 H1699 0.950 . S
C1707 C1705 1.327 . S
C1708 C1696 1.349 . S
C1708 H1702 0.950 . S
C1708 C1709 1.327 . S
C1709 H1703 0.950 . S
C1709 C1708 1.327 . S
C1709 C1713 1.429 . S
C1710 C1693 1.574 . S
C1710 H1704 0.949 . S
C1710 C1714 1.368 . S
C1711 C1692 1.429 . S
C1711 C1705 1.429 . S
C1711 C1712 1.523 . S
C1712 C1693 1.368 . S
C1712 C1706 1.368 . S
C1712 C1711 1.523 . S
C1713 C1697 1.429 . S
C1713 C1709 1.429 . S
C1713 C1714 1.523 . S
C1714 C1698 1.368 . S
C1714 C1710 1.368 . S
C1714 C1713 1.523 . S
H1715 C1690 0.950 . S
H1716 C1692 0.950 . S
H1717 C1693 0.949 . S
H1718 C1695 0.950 . S
H1719 C1697 0.950 . S
C1720 C1721 1.349 . S
C1720 C1722 1.327 . S
C1720 H1745 0.950 . S
C1721 C1720 1.349 . S
C1721 C1737 1.349 . S
C1722 C1720 1.327 . S
C1722 C1741 1.429 . S
C1722 H1746 0.950 . S
C1723 C1740 1.574 . S
C1723 C1742 1.368 1_556 S
C1723 H1747 0.949 . S
H1724 C1728 0.949 . S
C1725 C1726 1.349 . S
C1725 C1727 1.327 . S
C1725 H1748 0.950 . S
C1726 C1725 1.349 . S
C1726 C1738 1.349 . S
C1727 C1725 1.327 . S
C1727 C1743 1.429 . S
C1727 H1749 0.950 . S
C1728 H1724 0.949 . S
C1728 C1736 1.574 . S
C1728 C1744 1.368 1_554 S
H1729 C1737 0.950 . S
H1730 C1735 0.950 . S
H1731 C1736 0.949 . S
H1732 C1738 0.950 . S
H1733 C1739 0.950 . S
H1734 C1740 0.949 . S
C1735 H1730 0.950 . S
C1735 C1737 1.327 . S
C1735 C1741 1.429 . S
C1736 C1728 1.574 . S
C1736 H1731 0.949 . S
C1736 C1742 1.368 . S
C1737 C1721 1.349 . S
C1737 H1729 0.950 . S
C1737 C1735 1.327 . S
C1738 C1726 1.349 . S
C1738 H1732 0.950 . S
C1738 C1739 1.327 . S
C1739 H1733 0.950 . S
C1739 C1738 1.327 . S
C1739 C1743 1.429 . S
C1740 C1723 1.574 . S
C1740 H1734 0.949 . S
C1740 C1744 1.368 . S
C1741 C1722 1.429 . S
C1741 C1735 1.429 . S
C1741 C1742 1.523 . S
C1742 C1723 1.368 1_554 S
C1742 C1736 1.368 . S
C1742 C1741 1.523 . S
C1743 C1727 1.429 . S
C1743 C1739 1.429 . S
C1743 C1744 1.523 . S
C1744 C1728 1.368 1_556 S
C1744 C1740 1.368 . S
C1744 C1743 1.523 . S
H1745 C1720 0.950 . S
H1746 C1722 0.950 . S
H1747 C1723 0.949 . S
H1748 C1725 0.950 . S
H1749 C1727 0.950 . S
C1750 C1751 1.349 . S
C1750 C1752 1.327 . S
C1750 H1775 0.950 . S
C1751 C1750 1.349 . S
C1751 C1767 1.349 . S
C1752 C1750 1.327 . S
C1752 C1771 1.429 . S
C1752 H1776 0.950 . S
C1753 C1770 1.574 . S
C1753 C1772 1.368 . S
C1753 H1777 0.949 . S
H1754 C1758 0.949 . S
C1755 C1756 1.349 . S
C1755 C1757 1.327 . S
C1755 H1778 0.950 . S
C1756 C1755 1.349 . S
C1756 C1768 1.349 . S
C1757 C1755 1.327 . S
C1757 C1773 1.429 . S
C1757 H1779 0.950 . S
C1758 H1754 0.949 . S
C1758 C1766 1.574 . S
C1758 C1774 1.368 . S
H1759 C1767 0.950 . S
H1760 C1765 0.950 . S
H1761 C1766 0.949 . S
H1762 C1768 0.950 . S
H1763 C1769 0.950 . S
H1764 C1770 0.949 . S
C1765 H1760 0.950 . S
C1765 C1767 1.327 . S
C1765 C1771 1.429 . S
C1766 C1758 1.574 . S
C1766 H1761 0.949 . S
C1766 C1772 1.368 . S
C1767 C1751 1.349 . S
C1767 H1759 0.950 . S
C1767 C1765 1.327 . S
C1768 C1756 1.349 . S
C1768 H1762 0.950 . S
C1768 C1769 1.327 . S
C1769 H1763 0.950 . S
C1769 C1768 1.327 . S
C1769 C1773 1.429 . S
C1770 C1753 1.574 . S
C1770 H1764 0.949 . S
C1770 C1774 1.368 . S
C1771 C1752 1.429 . S
C1771 C1765 1.429 . S
C1771 C1772 1.523 . S
C1772 C1753 1.368 . S
C1772 C1766 1.368 . S
C1772 C1771 1.523 . S
C1773 C1757 1.429 . S
C1773 C1769 1.429 . S
C1773 C1774 1.523 . S
C1774 C1758 1.368 . S
C1774 C1770 1.368 . S
C1774 C1773 1.523 . S
H1775 C1750 0.950 . S
H1776 C1752 0.950 . S
H1777 C1753 0.949 . S
H1778 C1755 0.950 . S
H1779 C1757 0.950 . S
C1780 C1781 1.349 . S
C1780 C1782 1.327 . S
C1780 H1805 0.950 . S
C1781 C1780 1.349 . S
C1781 C1797 1.349 . S
C1782 C1780 1.327 . S
C1782 C1801 1.429 . S
C1782 H1806 0.950 . S
C1783 C1800 1.574 . S
C1783 C1802 1.368 . S
C1783 H1807 0.949 . S
H1784 C1788 0.949 . S
C1785 C1786 1.349 . S
C1785 C1787 1.327 . S
C1785 H1808 0.950 . S
C1786 C1785 1.349 . S
C1786 C1798 1.349 . S
C1787 C1785 1.327 . S
C1787 C1803 1.429 . S
C1787 H1809 0.950 . S
C1788 H1784 0.949 . S
C1788 C1796 1.574 . S
C1788 C1804 1.368 . S
H1789 C1797 0.950 . S
H1790 C1795 0.950 . S
H1791 C1796 0.949 . S
H1792 C1798 0.950 . S
H1793 C1799 0.950 . S
H1794 C1800 0.949 . S
C1795 H1790 0.950 . S
C1795 C1797 1.327 . S
C1795 C1801 1.429 . S
C1796 C1788 1.574 . S
C1796 H1791 0.949 . S
C1796 C1802 1.368 . S
C1797 C1781 1.349 . S
C1797 H1789 0.950 . S
C1797 C1795 1.327 . S
C1798 C1786 1.349 . S
C1798 H1792 0.950 . S
C1798 C1799 1.327 . S
C1799 H1793 0.950 . S
C1799 C1798 1.327 . S
C1799 C1803 1.429 . S
C1800 C1783 1.574 . S
C1800 H1794 0.949 . S
C1800 C1804 1.368 . S
C1801 C1782 1.429 . S
C1801 C1795 1.429 . S
C1801 C1802 1.523 . S
C1802 C1783 1.368 . S
C1802 C1796 1.368 . S
C1802 C1801 1.523 . S
C1803 C1787 1.429 . S
C1803 C1799 1.429 . S
C1803 C1804 1.523 . S
C1804 C1788 1.368 . S
C1804 C1800 1.368 . S
C1804 C1803 1.523 . S
H1805 C1780 0.950 . S
H1806 C1782 0.950 . S
H1807 C1783 0.949 . S
H1808 C1785 0.950 . S
H1809 C1787 0.950 . S
C1810 C1811 1.349 . S
C1810 C1812 1.327 . S
C1810 H1835 0.950 . S
C1811 C1810 1.349 . S
C1811 C1827 1.349 . S
C1812 C1810 1.327 . S
C1812 C1831 1.429 . S
C1812 H1836 0.950 . S
C1813 C1830 1.574 . S
C1813 C1832 1.368 . S
C1813 H1837 0.949 . S
H1814 C1818 0.949 . S
C1815 C1816 1.349 . S
C1815 C1817 1.327 . S
C1815 H1838 0.950 . S
C1816 C1815 1.349 . S
C1816 C1828 1.349 . S
C1817 C1815 1.327 . S
C1817 C1833 1.429 . S
C1817 H1839 0.950 . S
C1818 H1814 0.949 . S
C1818 C1826 1.574 . S
C1818 C1834 1.368 . S
H1819 C1827 0.950 . S
H1820 C1825 0.950 . S
H1821 C1826 0.949 . S
H1822 C1828 0.950 . S
H1823 C1829 0.950 . S
H1824 C1830 0.949 . S
C1825 H1820 0.950 . S
C1825 C1827 1.327 . S
C1825 C1831 1.429 . S
C1826 C1818 1.574 . S
C1826 H1821 0.949 . S
C1826 C1832 1.368 . S
C1827 C1811 1.349 . S
C1827 H1819 0.950 . S
C1827 C1825 1.327 . S
C1828 C1816 1.349 . S
C1828 H1822 0.950 . S
C1828 C1829 1.327 . S
C1829 H1823 0.950 . S
C1829 C1828 1.327 . S
C1829 C1833 1.429 . S
C1830 C1813 1.574 . S
C1830 H1824 0.949 . S
C1830 C1834 1.368 . S
C1831 C1812 1.429 . S
C1831 C1825 1.429 . S
C1831 C1832 1.523 . S
C1832 C1813 1.368 . S
C1832 C1826 1.368 . S
C1832 C1831 1.523 . S
C1833 C1817 1.429 . S
C1833 C1829 1.429 . S
C1833 C1834 1.523 . S
C1834 C1818 1.368 . S
C1834 C1830 1.368 . S
C1834 C1833 1.523 . S
H1835 C1810 0.950 . S
H1836 C1812 0.950 . S
H1837 C1813 0.949 . S
H1838 C1815 0.950 . S
H1839 C1817 0.950 . S
C1840 C1841 1.349 . S
C1840 C1842 1.327 . S
C1840 H1865 0.950 . S
C1841 C1840 1.349 . S
C1841 C1857 1.349 . S
C1842 C1840 1.327 . S
C1842 C1861 1.429 . S
C1842 H1866 0.950 . S
C1843 C1860 1.574 1_565 S
C1843 C1862 1.368 . S
C1843 H1867 0.949 . S
H1844 C1848 0.949 . S
C1845 C1846 1.349 . S
C1845 C1847 1.327 . S
C1845 H1868 0.950 . S
C1846 C1845 1.349 . S
C1846 C1858 1.349 . S
C1847 C1845 1.327 . S
C1847 C1863 1.429 . S
C1847 H1869 0.950 . S
C1848 H1844 0.949 . S
C1848 C1856 1.574 1_545 S
C1848 C1864 1.368 . S
H1849 C1857 0.950 . S
H1850 C1855 0.950 . S
H1851 C1856 0.949 . S
H1852 C1858 0.950 . S
H1853 C1859 0.950 . S
H1854 C1860 0.949 . S
C1855 H1850 0.950 . S
C1855 C1857 1.327 . S
C1855 C1861 1.429 . S
C1856 C1848 1.574 1_565 S
C1856 H1851 0.949 . S
C1856 C1862 1.368 . S
C1857 C1841 1.349 . S
C1857 H1849 0.950 . S
C1857 C1855 1.327 . S
C1858 C1846 1.349 . S
C1858 H1852 0.950 . S
C1858 C1859 1.327 . S
C1859 H1853 0.950 . S
C1859 C1858 1.327 . S
C1859 C1863 1.429 . S
C1860 C1843 1.574 1_545 S
C1860 H1854 0.949 . S
C1860 C1864 1.368 . S
C1861 C1842 1.429 . S
C1861 C1855 1.429 . S
C1861 C1862 1.523 . S
C1862 C1843 1.368 . S
C1862 C1856 1.368 . S
C1862 C1861 1.523 . S
C1863 C1847 1.429 . S
C1863 C1859 1.429 . S
C1863 C1864 1.523 . S
C1864 C1848 1.368 . S
C1864 C1860 1.368 . S
C1864 C1863 1.523 . S
H1865 C1840 0.950 . S
H1866 C1842 0.950 . S
H1867 C1843 0.949 . S
H1868 C1845 0.950 . S
H1869 C1847 0.950 . S
C1870 C1871 1.349 . S
C1870 C1872 1.327 . S
C1870 H1895 0.950 . S
C1871 C1870 1.349 . S
C1871 C1887 1.349 . S
C1872 C1870 1.327 . S
C1872 C1891 1.429 . S
C1872 H1896 0.950 . S
C1873 C1890 1.574 . S
C1873 C1892 1.368 . S
C1873 H1897 0.949 . S
H1874 C1878 0.949 . S
C1875 C1876 1.349 . S
C1875 C1877 1.327 . S
C1875 H1898 0.950 . S
C1876 C1875 1.349 . S
C1876 C1888 1.349 . S
C1877 C1875 1.327 . S
C1877 C1893 1.429 . S
C1877 H1899 0.950 . S
C1878 H1874 0.949 . S
C1878 C1886 1.574 . S
C1878 C1894 1.368 . S
H1879 C1887 0.950 . S
H1880 C1885 0.950 . S
H1881 C1886 0.949 . S
H1882 C1888 0.950 . S
H1883 C1889 0.950 . S
H1884 C1890 0.949 . S
C1885 H1880 0.950 . S
C1885 C1887 1.327 . S
C1885 C1891 1.429 . S
C1886 C1878 1.574 . S
C1886 H1881 0.949 . S
C1886 C1892 1.368 . S
C1887 C1871 1.349 . S
C1887 H1879 0.950 . S
C1887 C1885 1.327 . S
C1888 C1876 1.349 . S
C1888 H1882 0.950 . S
C1888 C1889 1.327 . S
C1889 H1883 0.950 . S
C1889 C1888 1.327 . S
C1889 C1893 1.429 . S
C1890 C1873 1.574 . S
C1890 H1884 0.949 . S
C1890 C1894 1.368 . S
C1891 C1872 1.429 . S
C1891 C1885 1.429 . S
C1891 C1892 1.523 . S
C1892 C1873 1.368 . S
C1892 C1886 1.368 . S
C1892 C1891 1.523 . S
C1893 C1877 1.429 . S
C1893 C1889 1.429 . S
C1893 C1894 1.523 . S
C1894 C1878 1.368 . S
C1894 C1890 1.368 . S
C1894 C1893 1.523 . S
H1895 C1870 0.950 . S
H1896 C1872 0.950 . S
H1897 C1873 0.949 . S
H1898 C1875 0.950 . S
H1899 C1877 0.950 . S
C1900 C1901 1.349 . S
C1900 C1902 1.327 . S
C1900 H1925 0.950 . S
C1901 C1900 1.349 . S
C1901 C1917 1.349 . S
C1902 C1900 1.327 . S
C1902 C1921 1.429 . S
C1902 H1926 0.950 . S
C1903 C1920 1.574 . S
C1903 C1922 1.368 1_556 S
C1903 H1927 0.949 . S
H1904 C1908 0.949 . S
C1905 C1906 1.349 . S
C1905 C1907 1.327 . S
C1905 H1928 0.950 . S
C1906 C1905 1.349 . S
C1906 C1918 1.349 . S
C1907 C1905 1.327 . S
C1907 C1923 1.429 . S
C1907 H1929 0.950 . S
C1908 H1904 0.949 . S
C1908 C1916 1.574 . S
C1908 C1924 1.368 1_554 S
H1909 C1917 0.950 . S
H1910 C1915 0.950 1_556 S
H1911 C1916 0.949 . S
H1912 C1918 0.950 . S
H1913 C1919 0.950 1_554 S
H1914 C1920 0.949 . S
C1915 H1910 0.950 1_554 S
C1915 C1917 1.327 . S
C1915 C1921 1.429 . S
C1916 C1908 1.574 . S
C1916 H1911 0.949 . S
C1916 C1922 1.368 1_545 S
C1917 C1901 1.349 . S
C1917 H1909 0.950 . S
C1917 C1915 1.327 . S
C1918 C1906 1.349 . S
C1918 H1912 0.950 . S
C1918 C1919 1.327 . S
C1919 H1913 0.950 1_556 S
C1919 C1918 1.327 . S
C1919 C1923 1.429 . S
C1920 C1903 1.574 . S
C1920 H1914 0.949 . S
C1920 C1924 1.368 1_565 S
C1921 C1902 1.429 . S
C1921 C1915 1.429 . S
C1921 C1922 1.523 . S
C1922 C1903 1.368 1_554 S
C1922 C1916 1.368 1_565 S
C1922 C1921 1.523 . S
C1923 C1907 1.429 . S
C1923 C1919 1.429 . S
C1923 C1924 1.523 . S
C1924 C1908 1.368 1_556 S
C1924 C1920 1.368 1_545 S
C1924 C1923 1.523 . S
H1925 C1900 0.950 . S
H1926 C1902 0.950 . S
H1927 C1903 0.949 . S
H1928 C1905 0.950 . S
H1929 C1907 0.950 . S
C1930 C1931 1.349 . S
C1930 C1932 1.327 . S
C1930 H1955 0.950 . S
C1931 C1930 1.349 . S
C1931 C1947 1.349 . S
C1932 C1930 1.327 . S
C1932 C1951 1.429 . S
C1932 H1956 0.950 . S
C1933 C1950 1.574 . S
C1933 C1952 1.368 . S
C1933 H1957 0.949 . S
H1934 C1938 0.949 . S
C1935 C1936 1.349 . S
C1935 C1937 1.327 . S
C1935 H1958 0.950 . S
C1936 C1935 1.349 . S
C1936 C1948 1.349 . S
C1937 C1935 1.327 . S
C1937 C1953 1.429 . S
C1937 H1959 0.950 . S
C1938 H1934 0.949 . S
C1938 C1946 1.574 . S
C1938 C1954 1.368 . S
H1939 C1947 0.950 . S
H1940 C1945 0.950 . S
H1941 C1946 0.949 . S
H1942 C1948 0.950 . S
H1943 C1949 0.950 . S
H1944 C1950 0.949 . S
C1945 H1940 0.950 . S
C1945 C1947 1.327 . S
C1945 C1951 1.429 . S
C1946 C1938 1.574 . S
C1946 H1941 0.949 . S
C1946 C1952 1.368 . S
C1947 C1931 1.349 . S
C1947 H1939 0.950 . S
C1947 C1945 1.327 . S
C1948 C1936 1.349 . S
C1948 H1942 0.950 . S
C1948 C1949 1.327 . S
C1949 H1943 0.950 . S
C1949 C1948 1.327 . S
C1949 C1953 1.429 . S
C1950 C1933 1.574 . S
C1950 H1944 0.949 . S
C1950 C1954 1.368 . S
C1951 C1932 1.429 . S
C1951 C1945 1.429 . S
C1951 C1952 1.523 . S
C1952 C1933 1.368 . S
C1952 C1946 1.368 . S
C1952 C1951 1.523 . S
C1953 C1937 1.429 . S
C1953 C1949 1.429 . S
C1953 C1954 1.523 . S
C1954 C1938 1.368 . S
C1954 C1950 1.368 . S
C1954 C1953 1.523 . S
H1955 C1930 0.950 . S
H1956 C1932 0.950 . S
H1957 C1933 0.949 . S
H1958 C1935 0.950 . S
H1959 C1937 0.950 . S
C1960 C1961 1.349 . S
C1960 C1962 1.327 . S
C1960 H1985 0.950 . S
C1961 C1960 1.349 . S
C1961 C1977 1.349 . S
C1962 C1960 1.327 . S
C1962 C1981 1.429 . S
C1962 H1986 0.950 . S
C1963 C1980 1.574 1_565 S
C1963 C1982 1.368 . S
C1963 H1987 0.949 . S
H1964 C1968 0.949 . S
C1965 C1966 1.349 . S
C1965 C1967 1.327 . S
C1965 H1988 0.950 . S
C1966 C1965 1.349 . S
C1966 C1978 1.349 . S
C1967 C1965 1.327 . S
C1967 C1983 1.429 . S
C1967 H1989 0.950 . S
C1968 H1964 0.949 . S
C1968 C1976 1.574 1_545 S
C1968 C1984 1.368 . S
H1969 C1977 0.950 . S
H1970 C1975 0.950 . S
H1971 C1976 0.949 . S
H1972 C1978 0.950 . S
H1973 C1979 0.950 . S
H1974 C1980 0.949 . S
C1975 H1970 0.950 . S
C1975 C1977 1.327 . S
C1975 C1981 1.429 . S
C1976 C1968 1.574 1_565 S
C1976 H1971 0.949 . S
C1976 C1982 1.368 . S
C1977 C1961 1.349 . S
C1977 H1969 0.950 . S
C1977 C1975 1.327 . S
C1978 C1966 1.349 . S
C1978 H1972 0.950 . S
C1978 C1979 1.327 . S
C1979 H1973 0.950 . S
C1979 C1978 1.327 . S
C1979 C1983 1.429 . S
C1980 C1963 1.574 1_545 S
C1980 H1974 0.949 . S
C1980 C1984 1.368 . S
C1981 C1962 1.429 . S
C1981 C1975 1.429 . S
C1981 C1982 1.523 . S
C1982 C1963 1.368 . S
C1982 C1976 1.368 . S
C1982 C1981 1.523 . S
C1983 C1967 1.429 . S
C1983 C1979 1.429 . S
C1983 C1984 1.523 . S
C1984 C1968 1.368 . S
C1984 C1980 1.368 . S
C1984 C1983 1.523 . S
H1985 C1960 0.950 . S
H1986 C1962 0.950 . S
H1987 C1963 0.949 . S
H1988 C1965 0.950 . S
H1989 C1967 0.950 . S
C1990 C1991 1.349 . S
C1990 C1992 1.327 . S
C1990 H2015 0.950 . S
C1991 C1990 1.349 . S
C1991 C2007 1.349 . S
C1992 C1990 1.327 . S
C1992 C2011 1.429 . S
C1992 H2016 0.950 . S
C1993 C2010 1.574 . S
C1993 C2012 1.368 . S
C1993 H2017 0.949 . S
H1994 C1998 0.949 . S
C1995 C1996 1.349 . S
C1995 C1997 1.327 . S
C1995 H2018 0.950 . S
C1996 C1995 1.349 . S
C1996 C2008 1.349 . S
C1997 C1995 1.327 . S
C1997 C2013 1.429 . S
C1997 H2019 0.950 . S
C1998 H1994 0.949 . S
C1998 C2006 1.574 . S
C1998 C2014 1.368 . S
H1999 C2007 0.950 . S
H2000 C2005 0.950 . S
H2001 C2006 0.949 . S
H2002 C2008 0.950 . S
H2003 C2009 0.950 . S
H2004 C2010 0.949 . S
C2005 H2000 0.950 . S
C2005 C2007 1.327 . S
C2005 C2011 1.429 . S
C2006 C1998 1.574 . S
C2006 H2001 0.949 . S
C2006 C2012 1.368 . S
C2007 C1991 1.349 . S
C2007 H1999 0.950 . S
C2007 C2005 1.327 . S
C2008 C1996 1.349 . S
C2008 H2002 0.950 . S
C2008 C2009 1.327 . S
C2009 H2003 0.950 . S
C2009 C2008 1.327 . S
C2009 C2013 1.429 . S
C2010 C1993 1.574 . S
C2010 H2004 0.949 . S
C2010 C2014 1.368 . S
C2011 C1992 1.429 . S
C2011 C2005 1.429 . S
C2011 C2012 1.523 . S
C2012 C1993 1.368 . S
C2012 C2006 1.368 . S
C2012 C2011 1.523 . S
C2013 C1997 1.429 . S
C2013 C2009 1.429 . S
C2013 C2014 1.523 . S
C2014 C1998 1.368 . S
C2014 C2010 1.368 . S
C2014 C2013 1.523 . S
H2015 C1990 0.950 . S
H2016 C1992 0.950 . S
H2017 C1993 0.949 . S
H2018 C1995 0.950 . S
H2019 C1997 0.950 . S
C2020 C2021 1.349 . S
C2020 C2022 1.327 . S
C2020 H2045 0.950 . S
C2021 C2020 1.349 . S
C2021 C2037 1.349 . S
C2022 C2020 1.327 . S
C2022 C2041 1.429 . S
C2022 H2046 0.950 . S
C2023 C2040 1.575 1_545 S
C2023 C2042 1.368 1_554 S
C2023 H2047 0.949 . S
H2024 C2028 0.949 . S
C2025 C2026 1.349 . S
C2025 C2027 1.327 . S
C2025 H2048 0.950 . S
C2026 C2025 1.349 . S
C2026 C2038 1.349 . S
C2027 C2025 1.327 . S
C2027 C2043 1.429 . S
C2027 H2049 0.950 . S
C2028 H2024 0.949 . S
C2028 C2036 1.574 . S
C2028 C2044 1.368 1_556 S
H2029 C2037 0.950 . S
H2030 C2035 0.950 1_554 S
H2031 C2036 0.949 . S
H2032 C2038 0.950 . S
H2033 C2039 0.950 1_556 S
H2034 C2040 0.953 1_545 S
C2035 H2030 0.950 1_556 S
C2035 C2037 1.327 . S
C2035 C2041 1.429 . S
C2036 C2028 1.574 . S
C2036 H2031 0.949 . S
C2036 C2042 1.368 1_565 S
C2037 C2021 1.349 . S
C2037 H2029 0.950 . S
C2037 C2035 1.327 . S
C2038 C2026 1.349 . S
C2038 H2032 0.950 . S
C2038 C2039 1.327 . S
C2039 H2033 0.950 1_554 S
C2039 C2038 1.327 . S
C2039 C2043 1.429 . S
C2040 C2023 1.575 1_565 S
C2040 H2034 0.953 1_565 S
C2040 C2044 1.367 . S
C2041 C2022 1.429 . S
C2041 C2035 1.429 . S
C2041 C2042 1.523 . S
C2042 C2023 1.368 1_556 S
C2042 C2036 1.368 1_545 S
C2042 C2041 1.523 . S
C2043 C2027 1.429 . S
C2043 C2039 1.429 . S
C2043 C2044 1.523 . S
C2044 C2028 1.368 1_554 S
C2044 C2040 1.367 . S
C2044 C2043 1.523 . S
H2045 C2020 0.950 . S
H2046 C2022 0.950 . S
H2047 C2023 0.949 . S
H2048 C2025 0.950 . S
H2049 C2027 0.950 . S
C2050 C2051 1.349 . S
C2050 C2052 1.327 . S
C2050 H2075 0.950 . S
C2051 C2050 1.349 . S
C2051 C2067 1.349 . S
C2052 C2050 1.327 . S
C2052 C2071 1.429 . S
C2052 H2076 0.950 . S
C2053 C2070 1.574 . S
C2053 C2072 1.368 . S
C2053 H2077 0.949 . S
H2054 C2058 0.949 . S
C2055 C2056 1.349 . S
C2055 C2057 1.327 . S
C2055 H2078 0.950 . S
C2056 C2055 1.349 . S
C2056 C2068 1.349 . S
C2057 C2055 1.327 . S
C2057 C2073 1.429 . S
C2057 H2079 0.950 . S
C2058 H2054 0.949 . S
C2058 C2066 1.574 . S
C2058 C2074 1.368 . S
H2059 C2067 0.950 . S
H2060 C2065 0.950 . S
H2061 C2066 0.949 . S
H2062 C2068 0.950 . S
H2063 C2069 0.950 . S
H2064 C2070 0.949 . S
C2065 H2060 0.950 . S
C2065 C2067 1.327 . S
C2065 C2071 1.429 . S
C2066 C2058 1.574 . S
C2066 H2061 0.949 . S
C2066 C2072 1.368 . S
C2067 C2051 1.349 . S
C2067 H2059 0.950 . S
C2067 C2065 1.327 . S
C2068 C2056 1.349 . S
C2068 H2062 0.950 . S
C2068 C2069 1.327 . S
C2069 H2063 0.950 . S
C2069 C2068 1.327 . S
C2069 C2073 1.429 . S
C2070 C2053 1.574 . S
C2070 H2064 0.949 . S
C2070 C2074 1.368 . S
C2071 C2052 1.429 . S
C2071 C2065 1.429 . S
C2071 C2072 1.523 . S
C2072 C2053 1.368 . S
C2072 C2066 1.368 . S
C2072 C2071 1.523 . S
C2073 C2057 1.429 . S
C2073 C2069 1.429 . S
C2073 C2074 1.523 . S
C2074 C2058 1.368 . S
C2074 C2070 1.368 . S
C2074 C2073 1.523 . S
H2075 C2050 0.950 . S
H2076 C2052 0.950 . S
H2077 C2053 0.949 . S
H2078 C2055 0.950 . S
H2079 C2057 0.950 . S
C641 C7 1.868 . S
C646 C16 1.868 . S
C671 C56 1.812 . S
C676 C47 1.812 . S
C701 C87 1.811 . S
C706 C96 1.811 . S
C731 C127 1.567 . S
C736 C136 1.567 . S
C761 C167 1.798 . S
C766 C176 1.798 . S
C791 C216 1.571 . S
C796 C207 1.571 . S
C821 C256 1.551 . S
C826 C247 1.551 . S
C851 C296 1.872 . S
C856 C287 1.872 . S
C881 C336 1.784 . S
C886 C327 1.784 . S
C911 C376 1.774 . S
C916 C367 1.774 . S
C941 C416 1.642 . S
C946 C407 1.642 . S
C971 C456 1.537 . S
C976 C447 1.537 . S
C1001 C496 1.841 . S
C1006 C487 1.841 . S
C1031 C536 1.642 . S
C1036 C527 1.642 . S
C1061 C567 1.579 . S
C1066 C576 1.579 . S
C1091 C607 1.967 . S
C1096 C616 1.967 . S
C1121 C10 1.630 . S
C1126 C451 1.694 . S
C1151 C42 1.651 . S
C1156 C611 1.635 . S
C1181 C90 1.628 . S
C1186 C379 1.594 . S
C1211 C130 1.778 . S
C1216 C539 1.780 . S
C1241 C170 1.692 . S
C1246 C531 1.703 . S
C1271 C459 1.740 . S
C1276 C210 1.747 . S
C1301 C242 1.655 . S
C1306 C619 1.572 . S
C1331 C282 1.768 . S
C1336 C371 1.762 . S
C1361 C122 1.719 . S
C1366 C339 1.673 . S
C1391 C50 1.639 . S
C1396 C411 1.695 . S
C1421 C499 1.684 . S
C1426 C202 1.739 . S
C1451 C290 1.567 . S
C1456 C571 1.632 . S
C1481 C331 1.788 . S
C1486 C162 1.764 . S
C1511 C250 1.774 . S
C1516 C419 1.828 . S
C1541 C82 1.906 . S
C1546 C579 1.887 . S
C1571 C2 1.685 . S
C1576 C491 1.684 . S
C1601 C19 1.254 . S
C1606 C179 1.250 . S
C1631 C51 1.711 . S
C1636 C219 1.712 . S
C1661 C99 2.082 . S
C1666 C251 2.082 . S
C1691 C139 1.695 . S
C1696 C291 1.693 . S
C1721 C490 1.356 . S
C1726 C330 1.357 . S
C1751 C530 1.959 . S
C1756 C362 1.955 . S
C1781 C402 1.909 . S
C1786 C562 1.912 . S
C1811 C602 1.556 . S
C1816 C450 1.558 . S
C1841 C59 1.226 . S
C1846 C299 1.227 . S
C1871 C171 1.797 . S
C1876 C91 1.806 . S
C1901 C211 2.108 . S
C1906 C131 2.107 . S
C1931 C11 1.684 . S
C1936 C259 1.688 . S
C1961 C610 1.173 . S
C1966 C370 1.168 . S
C1991 C482 1.695 . S
C1996 C410 1.695 . S
C2021 C522 2.122 . S
C2026 C442 2.121 . S
C2051 C570 1.793 . S
C2056 C322 1.788 . S
