# Generated by pormake.
# Topology wli, (5)-cn, num edge types: 1
# Building blocks:
#     Node 0, Type 0, BuildingBlock: XOMCOT_clean_sbu_1, # of connection points: 5
#     Node 1, Type 0, BuildingBlock: XOMCOT_clean_sbu_1, # of connection points: 5
#     Node 2, Type 0, BuildingBlock: XOMCOT_clean_sbu_1, # of connection points: 5
#     Node 3, Type 0, BuildingBlock: XOMCOT_clean_sbu_1, # of connection points: 5
#     Node 4, Type 0, BuildingBlock: XOMCOT_clean_sbu_1, # of connection points: 5
#     Node 5, Type 0, BuildingBlock: XOMCOT_clean_sbu_1, # of connection points: 5
#     Edge 6, Type (0, 0), BuildingBlock: TEMPAE_clean_linker_10, # of connection points: 2
#     Edge 7, Type (0, 0), BuildingBlock: TEMPAE_clean_linker_10, # of connection points: 2
#     Edge 8, Type (0, 0), BuildingBlock: TEMPAE_clean_linker_10, # of connection points: 2
#     Edge 9, Type (0, 0), BuildingBlock: TEMPAE_clean_linker_10, # of connection points: 2
#     Edge 10, Type (0, 0), BuildingBlock: TEMPAE_clean_linker_10, # of connection points: 2
#     Edge 11, Type (0, 0), BuildingBlock: TEMPAE_clean_linker_10, # of connection points: 2
#     Edge 12, Type (0, 0), BuildingBlock: TEMPAE_clean_linker_10, # of connection points: 2
#     Edge 13, Type (0, 0), BuildingBlock: TEMPAE_clean_linker_10, # of connection points: 2
#     Edge 14, Type (0, 0), BuildingBlock: TEMPAE_clean_linker_10, # of connection points: 2
#     Edge 15, Type (0, 0), BuildingBlock: TEMPAE_clean_linker_10, # of connection points: 2
#     Edge 16, Type (0, 0), BuildingBlock: TEMPAE_clean_linker_10, # of connection points: 2
#     Edge 17, Type (0, 0), BuildingBlock: TEMPAE_clean_linker_10, # of connection points: 2
#     Edge 18, Type (0, 0), BuildingBlock: TEMPAE_clean_linker_10, # of connection points: 2
#     Edge 19, Type (0, 0), BuildingBlock: TEMPAE_clean_linker_10, # of connection points: 2
#     Edge 20, Type (0, 0), BuildingBlock: TEMPAE_clean_linker_10, # of connection points: 2
# Relax obj value: 0.114
# Max RMSD: 0.138
# Mean RMSD: 0.138
data_MOF--net-wli--node1-XOMCOT_clean_sbu_1--edge1-TEMPAE_clean_linker_10
_symmetry_space_group_name_H-M    P1
_symmetry_Int_Tables_number       1
_symmetry_cell_setting            triclinic
loop_
_symmetry_equiv_pos_as_xyz
'x, y, z'
_cell_length_a     35.86456
_cell_length_b     35.845371
_cell_length_c     27.40398
_cell_angle_alpha  90.333885
_cell_angle_beta   89.597239
_cell_angle_gamma 119.97796
loop_
_atom_site_label
_atom_site_type_symbol
_atom_site_fract_x
_atom_site_fract_y
_atom_site_fract_z
_atom_type_partial_charge
C0 C 0.21166 0.48752 0.00766 0.0
C1 C 0.23912 0.52185 0.97901 0.0
N2 N 0.2798 0.53512 0.99306 0.0
N3 N 0.23488 0.47874 0.03926 0.0
C4 C 0.27629 0.50848 0.02975 0.0
H5 H 0.17688 0.47046 0.00617 0.0
Co6 Co 0.21215 0.43728 0.08849 0.0
C7 C 0.29426 0.43198 0.09136 0.0
O8 O 0.31282 0.4607 0.12616 0.0
N9 N 0.18876 0.39628 0.1382 0.0
C10 C 0.16814 0.3395 0.18627 0.0
C11 C 0.1939 0.36218 0.14731 0.0
C12 C 0.15972 0.39356 0.17177 0.0
N13 N 0.14646 0.35919 0.20151 0.0
O14 O 0.24552 0.48085 0.13573 0.0
H15 H 0.21396 0.35342 0.12622 0.0
H16 H 0.14801 0.41609 0.17374 0.0
O17 O 0.25692 0.42254 0.07644 0.0
C18 C 0.22663 0.50256 0.14297 0.0
O19 O 0.19042 0.49099 0.1199 0.0
N20 N 0.17681 0.39598 0.04275 0.0
C21 C 0.11973 0.34467 0.97067 0.0
C22 C 0.16381 0.3596 0.96564 0.0
C23 C 0.19205 0.38602 1.00181 0.0
C24 C 0.13383 0.38081 0.04862 0.0
C25 C 0.10464 0.3551 0.01288 0.0
H26 H 0.22619 0.40075 0.99522 0.0
H27 H 0.12235 0.39057 0.08003 0.0
H28 H 0.30332 0.51069 0.04953 0.0
H29 H 0.22979 0.53653 0.95077 0.0
H30 H 0.16441 0.30984 0.20092 0.0
H31 H 0.17655 0.35322 0.93266 0.0
H32 H 0.07079 0.3447 0.01734 0.0
C33 C 0.57176 0.74322 0.68647 0.0
C34 C 0.53796 0.7356 0.65662 0.0
N35 N 0.52338 0.76239 0.66986 0.0
N36 N 0.57892 0.7751 0.71794 0.0
C37 C 0.54891 0.78595 0.7072 0.0
H38 H 0.58963 0.72627 0.6858 0.0
Co39 Co 0.61737 0.79442 0.76969 0.0
C40 C 0.66441 0.88869 0.7563 0.0
O41 O 0.69979 0.88746 0.76501 0.0
N42 N 0.6541 0.81155 0.8247 0.0
C43 C 0.68735 0.84103 0.89488 0.0
C44 C 0.66662 0.84556 0.8552 0.0
C45 C 0.66473 0.78542 0.84898 0.0
N46 N 0.68603 0.803 0.89083 0.0
O47 O 0.57014 0.77969 0.81343 0.0
H48 H 0.65907 0.87098 0.85084 0.0
H49 H 0.6551 0.75298 0.83751 0.0
O50 O 0.62784 0.85387 0.75927 0.0
C51 C 0.55462 0.73991 0.82355 0.0
O52 O 0.57322 0.71975 0.80394 0.0
N53 N 0.66287 0.80481 0.72526 0.0
C54 C 0.71787 0.80424 0.65233 0.0
C55 C 0.69482 0.8259 0.64524 0.0
C56 C 0.66745 0.82564 0.68196 0.0
C57 C 0.68549 0.78405 0.73263 0.0
C58 C 0.71398 0.78449 0.69752 0.0
H59 H 0.64777 0.83988 0.67412 0.0
H60 H 0.6798 0.76438 0.7641 0.0
H61 H 0.54496 0.80961 0.72777 0.0
H62 H 0.52527 0.7121 0.62744 0.0
H63 H 0.70023 0.86285 0.92562 0.0
H64 H 0.69565 0.84059 0.61055 0.0
H65 H 0.73111 0.76742 0.70499 0.0
C66 C 0.30398 0.8271 0.35763 0.0
C67 C 0.31092 0.80039 0.32744 0.0
N68 N 0.28406 0.7593 0.34099 0.0
N69 N 0.27255 0.80304 0.38979 0.0
C70 C 0.26105 0.76188 0.37888 0.0
H71 H 0.32132 0.86193 0.35692 0.0
Co72 Co 0.2559 0.82456 0.44249 0.0
C73 C 0.16114 0.77782 0.43682 0.0
O74 O 0.16338 0.81488 0.44633 0.0
N75 N 0.24174 0.84679 0.4982 0.0
C76 C 0.2159 0.85095 0.57113 0.0
C77 C 0.21062 0.82478 0.53182 0.0
C78 C 0.26735 0.88527 0.52013 0.0
N79 N 0.25174 0.88911 0.56376 0.0
O80 O 0.2719 0.79333 0.4857 0.0
H81 H 0.18695 0.79093 0.52969 0.0
H82 H 0.29839 0.90909 0.50608 0.0
O83 O 0.19582 0.77565 0.43627 0.0
C84 C 0.31269 0.81489 0.4903 0.0
O85 O 0.3341 0.85206 0.46772 0.0
N86 N 0.24377 0.85786 0.39807 0.0
C87 C 0.24214 0.90875 0.3221 0.0
C88 C 0.21822 0.86384 0.31903 0.0
C89 C 0.2197 0.83901 0.35716 0.0
C90 C 0.26701 0.9017 0.40137 0.0
C91 C 0.26587 0.92771 0.36439 0.0
H92 H 0.20395 0.80457 0.35188 0.0
H93 H 0.2895 0.91709 0.43042 0.0
H94 H 0.23751 0.73451 0.39964 0.0
H95 H 0.33404 0.81056 0.29782 0.0
H96 H 0.19638 0.84166 0.60396 0.0
H97 H 0.20037 0.84806 0.28631 0.0
H98 H 0.28619 0.96236 0.36714 0.0
C99 C 0.49975 0.19829 0.99593 0.0
C100 C 0.53399 0.22544 0.02483 0.0
N101 N 0.54545 0.26636 0.01357 0.0
N102 N 0.48925 0.22196 0.96711 0.0
C103 C 0.51785 0.2633 0.97834 0.0
H104 H 0.48378 0.16349 0.99542 0.0
Co105 Co 0.44751 0.2004 0.91839 0.0
C106 C 0.39904 0.24547 0.93904 0.0
O107 O 0.36378 0.20784 0.93495 0.0
N108 N 0.40754 0.17827 0.8666 0.0
C109 C 0.37021 0.17196 0.7993 0.0
C110 C 0.39139 0.19777 0.83865 0.0
C111 C 0.39781 0.14187 0.84149 0.0
N112 N 0.37426 0.13663 0.80106 0.0
O113 O 0.49164 0.23269 0.87126 0.0
H114 H 0.39676 0.22992 0.84426 0.0
H115 H 0.41038 0.12103 0.85094 0.0
O116 O 0.4358 0.24869 0.93049 0.0
C117 C 0.51084 0.21151 0.86248 0.0
O118 O 0.49667 0.1741 0.884 0.0
N119 N 0.40532 0.16584 0.96614 0.0
C120 C 0.35357 0.11333 0.04204 0.0
C121 C 0.37861 0.15786 0.04854 0.0
C122 C 0.4044 0.18347 0.01035 0.0
C123 C 0.38112 0.12231 0.95962 0.0
C124 C 0.35435 0.09559 0.99671 0.0
H125 H 0.42507 0.21749 0.01715 0.0
H126 H 0.38396 0.10734 0.92689 0.0
H127 H 0.51844 0.2906 0.96089 0.0
H128 H 0.54981 0.21581 0.05129 0.0
H129 H 0.35418 0.17944 0.77091 0.0
H130 H 0.37935 0.17262 0.08341 0.0
H131 H 0.3365 0.06106 0.99098 0.0
C132 C 0.8403 0.29411 0.6522 0.0
C133 C 0.81313 0.29952 0.6833 0.0
N134 N 0.77223 0.27287 0.66911 0.0
N135 N 0.81676 0.26373 0.61884 0.0
C136 C 0.77544 0.25148 0.62993 0.0
H137 H 0.87506 0.31214 0.65311 0.0
Co138 Co 0.83798 0.24869 0.56463 0.0
C139 C 0.78796 0.15282 0.5613 0.0
O140 O 0.82233 0.15322 0.54366 0.0
N141 N 0.85978 0.2355 0.50787 0.0
C142 C 0.8615 0.21707 0.4304 0.0
C143 C 0.83541 0.2133 0.46924 0.0
C144 C 0.90074 0.25351 0.49077 0.0
N145 N 0.90274 0.24267 0.4438 0.0
O146 O 0.80608 0.26544 0.52352 0.0
H147 H 0.80063 0.19726 0.46848 0.0
H148 H 0.92864 0.27601 0.51114 0.0
O149 O 0.78929 0.18869 0.56978 0.0
C150 C 0.83108 0.3051 0.51364 0.0
O151 O 0.87029 0.32399 0.53149 0.0
N152 N 0.87245 0.23693 0.6064 0.0
C153 C 0.92791 0.2389 0.67918 0.0
C154 C 0.8853 0.20474 0.67634 0.0
C155 C 0.85776 0.20508 0.64076 0.0
C156 C 0.91378 0.27014 0.60849 0.0
C157 C 0.94206 0.27163 0.64408 0.0
H158 H 0.82415 0.18137 0.64372 0.0
H159 H 0.92384 0.29777 0.58518 0.0
H160 H 0.74841 0.22866 0.60829 0.0
H161 H 0.82295 0.32164 0.71385 0.0
H162 H 0.85071 0.20428 0.39411 0.0
H163 H 0.87251 0.17897 0.70287 0.0
H164 H 0.97378 0.29989 0.64595 0.0
C165 C 0.74782 0.56027 0.32434 0.0
C166 C 0.74027 0.52698 0.35514 0.0
N167 N 0.76699 0.51226 0.34239 0.0
N168 N 0.77962 0.56691 0.29291 0.0
C169 C 0.79046 0.53705 0.30456 0.0
H170 H 0.73069 0.57798 0.32415 0.0
Co171 Co 0.79887 0.60464 0.24039 0.0
C172 C 0.89332 0.65113 0.25199 0.0
O173 O 0.89252 0.68666 0.24264 0.0
N174 N 0.81591 0.64073 0.18475 0.0
C175 C 0.84507 0.67298 0.11396 0.0
C176 C 0.84921 0.65185 0.15353 0.0
C177 C 0.79052 0.6526 0.16105 0.0
N178 N 0.80803 0.67359 0.11891 0.0
O179 O 0.78386 0.55686 0.19765 0.0
H180 H 0.87401 0.64341 0.1576 0.0
H181 H 0.75805 0.64298 0.17239 0.0
O182 O 0.85816 0.61478 0.2504 0.0
C183 C 0.74403 0.54075 0.18774 0.0
O184 O 0.72359 0.55937 0.20656 0.0
N185 N 0.80973 0.65075 0.28393 0.0
C186 C 0.8099 0.70678 0.35594 0.0
C187 C 0.8322 0.68435 0.36293 0.0
C188 C 0.8315 0.65639 0.32671 0.0
C189 C 0.7881 0.67255 0.2768 0.0
C190 C 0.78892 0.70158 0.31137 0.0
H191 H 0.84614 0.6371 0.33464 0.0
H192 H 0.76736 0.66564 0.24611 0.0
H193 H 0.81481 0.5333 0.28522 0.0
H194 H 0.71615 0.51383 0.38372 0.0
H195 H 0.86722 0.68592 0.08349 0.0
H196 H 0.84776 0.6861 0.39726 0.0
H197 H 0.77119 0.71806 0.30407 0.0
C198 C 0.31646 0.72293 0.29491 0.0
C199 C 0.28101 0.721 0.31941 0.0
C200 C 0.31295 0.68699 0.26994 0.0
C201 C 0.27302 0.64805 0.26951 0.0
C202 C 0.23777 0.64518 0.29638 0.0
C203 C 0.24216 0.68168 0.32091 0.0
C204 C 0.35132 0.69145 0.24184 0.0
C205 C 0.19464 0.60421 0.29699 0.0
C206 C 0.24019 0.57627 0.15777 0.0
C207 C 0.24492 0.54174 0.17342 0.0
C208 C 0.25101 0.61176 0.18805 0.0
C209 C 0.26627 0.61249 0.23572 0.0
C210 C 0.27276 0.57844 0.25118 0.0
C211 C 0.2623 0.54343 0.21952 0.0
C212 C 0.24445 0.6477 0.16956 0.0
C213 C 0.2887 0.57798 0.30183 0.0
H214 H 0.34692 0.75283 0.29453 0.0
H215 H 0.21457 0.67986 0.33953 0.0
H216 H 0.35637 0.66395 0.24956 0.0
H217 H 0.34529 0.69101 0.20212 0.0
H218 H 0.38131 0.72189 0.25072 0.0
H219 H 0.1721 0.60561 0.32398 0.0
H220 H 0.17983 0.59851 0.2603 0.0
H221 H 0.19867 0.57623 0.30564 0.0
H222 H 0.22705 0.57506 0.12188 0.0
H223 H 0.26555 0.51648 0.23172 0.0
H224 H 0.27438 0.67919 0.17399 0.0
H225 H 0.21888 0.64896 0.19131 0.0
H226 H 0.23504 0.64351 0.13051 0.0
H227 H 0.31782 0.60925 0.31019 0.0
H228 H 0.29638 0.55178 0.30646 0.0
H229 H 0.26363 0.57334 0.32894 0.0
C230 C 0.49162 0.73337 0.87239 0.0
C231 C 0.51558 0.71514 0.85413 0.0
C232 C 0.45319 0.70819 0.89883 0.0
C233 C 0.43846 0.66388 0.90673 0.0
C234 C 0.46318 0.64578 0.88938 0.0
C235 C 0.50134 0.67158 0.8636 0.0
C236 C 0.42788 0.72868 0.91734 0.0
C237 C 0.44869 0.59868 0.89672 0.0
C238 C 0.35539 0.5936 1.0015 0.0
C239 C 0.31871 0.57009 0.97258 0.0
C240 C 0.39404 0.62628 0.98121 0.0
C241 C 0.39618 0.63528 0.93067 0.0
C242 C 0.3588 0.61268 0.90171 0.0
C243 C 0.32055 0.58051 0.92304 0.0
C244 C 0.43301 0.64997 0.01345 0.0
C245 C 0.35978 0.62079 0.84757 0.0
H246 H 0.50247 0.767 0.86537 0.0
H247 H 0.51967 0.65712 0.85002 0.0
H248 H 0.39662 0.71455 0.89805 0.0
H249 H 0.42066 0.72189 0.95679 0.0
H250 H 0.44536 0.76411 0.91179 0.0
H251 H 0.47226 0.5899 0.88206 0.0
H252 H 0.44375 0.59063 0.93611 0.0
H253 H 0.41739 0.57843 0.87829 0.0
H254 H 0.35393 0.58627 0.03999 0.0
H255 H 0.29246 0.56228 0.90041 0.0
H256 H 0.44858 0.68521 0.00744 0.0
H257 H 0.457 0.64013 1.00395 0.0
H258 H 0.42474 0.64321 0.05277 0.0
H259 H 0.37409 0.65573 0.84035 0.0
H260 H 0.32717 0.60349 0.83114 0.0
H261 H 0.38033 0.60998 0.82895 0.0
C262 C 0.32266 0.77765 0.5621 0.0
C263 C 0.33705 0.79861 0.51719 0.0
C264 C 0.34934 0.76782 0.59028 0.0
C265 C 0.39069 0.77845 0.57234 0.0
C266 C 0.40414 0.79755 0.52577 0.0
C267 C 0.37737 0.8078 0.49909 0.0
C268 C 0.33416 0.74798 0.64004 0.0
C269 C 0.44749 0.80852 0.5047 0.0
C270 C 0.48524 0.80261 0.65382 0.0
C271 C 0.48787 0.76498 0.64883 0.0
C272 C 0.45222 0.8064 0.63143 0.0
C273 C 0.42127 0.77199 0.60272 0.0
C274 C 0.4228 0.73341 0.5988 0.0
C275 C 0.45589 0.73028 0.62209 0.0
C276 C 0.4516 0.84806 0.63676 0.0
C277 C 0.39064 0.69612 0.5682 0.0
H278 H 0.29158 0.77089 0.57618 0.0
H279 H 0.3883 0.82366 0.46407 0.0
H280 H 0.33796 0.71929 0.64403 0.0
H281 H 0.35428 0.7715 0.66848 0.0
H282 H 0.29995 0.73835 0.64693 0.0
H283 H 0.45169 0.82035 0.46655 0.0
H284 H 0.47349 0.83382 0.52727 0.0
H285 H 0.45159 0.77983 0.50531 0.0
H286 H 0.5098 0.82979 0.67391 0.0
H287 H 0.45687 0.7007 0.61879 0.0
H288 H 0.4189 0.84145 0.64715 0.0
H289 H 0.45986 0.86517 0.60128 0.0
H290 H 0.47487 0.86977 0.66454 0.0
H291 H 0.35732 0.68784 0.57801 0.0
H292 H 0.39371 0.66698 0.57254 0.0
H293 H 0.39556 0.70545 0.52913 0.0
C294 C 0.5549 0.24966 0.78837 0.0
C295 C 0.55049 0.22878 0.83285 0.0
C296 C 0.59055 0.26037 0.75765 0.0
C297 C 0.6226 0.25069 0.77252 0.0
C298 C 0.61903 0.2315 0.81858 0.0
C299 C 0.58286 0.22042 0.84783 0.0
C300 C 0.59303 0.28033 0.70856 0.0
C301 C 0.65284 0.22151 0.83651 0.0
C302 C 0.69389 0.23076 0.68583 0.0
C303 C 0.73356 0.26891 0.69089 0.0
C304 C 0.65677 0.22546 0.70976 0.0
C305 C 0.65937 0.25893 0.7399 0.0
C306 C 0.6988 0.29818 0.74347 0.0
C307 C 0.73529 0.30276 0.71879 0.0
C308 C 0.61526 0.18315 0.70472 0.0
C309 C 0.70305 0.33457 0.7754 0.0
H310 H 0.52961 0.25574 0.77666 0.0
H311 H 0.57959 0.20459 0.8825 0.0
H312 H 0.62487 0.30972 0.70352 0.0
H313 H 0.58963 0.25734 0.67927 0.0
H314 H 0.56746 0.28889 0.70399 0.0
H315 H 0.64644 0.20889 0.8744 0.0
H316 H 0.65399 0.1972 0.81229 0.0
H317 H 0.68509 0.2509 0.83531 0.0
H318 H 0.6921 0.20433 0.66465 0.0
H319 H 0.7654 0.33278 0.72203 0.0
H320 H 0.58825 0.18883 0.6965 0.0
H321 H 0.60759 0.16533 0.73971 0.0
H322 H 0.61718 0.1625 0.67555 0.0
H323 H 0.67686 0.34159 0.76769 0.0
H324 H 0.73449 0.36453 0.77022 0.0
H325 H 0.7 0.32496 0.81429 0.0
C326 C 0.78167 0.45201 0.33621 0.0
C327 C 0.76961 0.47716 0.36426 0.0
C328 C 0.78672 0.41934 0.35768 0.0
C329 C 0.77995 0.41194 0.40851 0.0
C330 C 0.76615 0.43611 0.43665 0.0
C331 C 0.76102 0.46833 0.41414 0.0
C332 C 0.80107 0.39401 0.32633 0.0
C333 C 0.75903 0.42957 0.49103 0.0
C334 C 0.77506 0.31339 0.46751 0.0
C335 C 0.81732 0.33081 0.48458 0.0
C336 C 0.76236 0.33912 0.44179 0.0
C337 C 0.79263 0.38313 0.43329 0.0
C338 C 0.83542 0.40051 0.44977 0.0
C339 C 0.8472 0.37419 0.475 0.0
C340 C 0.71653 0.31947 0.42436 0.0
C341 C 0.86876 0.44727 0.44157 0.0
H342 H 0.78745 0.45808 0.29745 0.0
H343 H 0.75193 0.4878 0.43602 0.0
H344 H 0.83463 0.40316 0.33569 0.0
H345 H 0.78063 0.35901 0.33341 0.0
H346 H 0.79984 0.39995 0.28678 0.0
H347 H 0.74429 0.44784 0.50677 0.0
H348 H 0.73796 0.39492 0.49948 0.0
H349 H 0.79031 0.44034 0.50932 0.0
H350 H 0.75184 0.27991 0.47471 0.0
H351 H 0.88001 0.38801 0.48779 0.0
H352 H 0.71603 0.32492 0.38462 0.0
H353 H 0.70052 0.33534 0.44292 0.0
H354 H 0.69756 0.28432 0.43158 0.0
H355 H 0.87219 0.45471 0.40201 0.0
H356 H 0.90084 0.45558 0.45613 0.0
H357 H 0.85825 0.46834 0.4595 0.0
C358 C 0.59093 0.30539 0.08412 0.0
C359 C 0.57962 0.3051 0.03518 0.0
C360 C 0.62212 0.34344 0.1067 0.0
C361 C 0.64276 0.38219 0.0796 0.0
C362 C 0.63294 0.3817 0.02954 0.0
C363 C 0.60132 0.34321 0.008 0.0
C364 C 0.63121 0.34262 0.16029 0.0
C365 C 0.65453 0.42221 0.99925 0.0
C366 C 0.67536 0.4845 0.15119 0.0
C367 C 0.71965 0.50109 0.1581 0.0
C368 C 0.65038 0.44626 0.12527 0.0
C369 C 0.67005 0.42388 0.1052 0.0
C370 C 0.71492 0.44073 0.11107 0.0
C371 C 0.73926 0.47917 0.13769 0.0
C372 C 0.60262 0.42941 0.12018 0.0
C373 C 0.73701 0.41788 0.08975 0.0
H374 H 0.5741 0.27616 0.10541 0.0
H375 H 0.59334 0.343 0.96992 0.0
H376 H 0.66638 0.35852 0.16668 0.0
H377 H 0.61892 0.36087 0.18125 0.0
H378 H 0.61578 0.30931 0.17489 0.0
H379 H 0.64738 0.41547 0.95976 0.0
H380 H 0.64328 0.44452 0.01144 0.0
H381 H 0.68992 0.43906 1.00433 0.0
H382 H 0.65978 0.50113 0.16667 0.0
H383 H 0.77345 0.49182 0.14279 0.0
H384 H 0.58422 0.39712 0.1372 0.0
H385 H 0.59371 0.42569 0.08105 0.0
H386 H 0.59241 0.45097 0.13754 0.0
H387 H 0.72394 0.38573 0.10684 0.0
H388 H 0.7724 0.43625 0.09533 0.0
H389 H 0.73047 0.41257 0.05005 0.0
C390 C 0.93787 0.23143 0.76864 0.0
C391 C 0.95577 0.24368 0.72166 0.0
C392 C 0.96413 0.24179 0.80996 0.0
C393 C 1.00938 0.26602 0.80441 0.0
C394 C 1.02774 0.27639 0.7571 0.0
C395 C 1.00072 0.26453 0.71629 0.0
C396 C 0.94332 0.22921 0.85978 0.0
C397 C 0.07586 0.30269 0.74965 0.0
C398 C 0.07041 0.34351 0.90709 0.0
C399 C 0.09045 0.3232 0.92941 0.0
C400 C 0.0442 0.32526 0.86619 0.0
C401 C 0.03708 0.28516 0.84797 0.0
C402 C 0.05664 0.26406 0.87107 0.0
C403 C 0.08376 0.28374 0.91125 0.0
C404 C 1.02469 0.34927 0.84205 0.0
C405 C 0.0488 0.22076 0.85346 0.0
H406 H 0.90333 0.21579 0.77372 0.0
H407 H 1.01495 0.27319 0.68018 0.0
H408 H 0.95976 0.21635 0.8826 0.0
H409 H 0.94632 0.25805 0.87861 0.0
H410 H 0.90861 0.20463 0.85752 0.0
H411 H 0.08517 0.3045 0.71061 0.0
H412 H 0.08771 0.33592 0.76337 0.0
H413 H 0.09241 0.28894 0.77072 0.0
H414 H 0.07616 0.37432 0.92103 0.0
H415 H 0.09942 0.26821 0.92879 0.0
H416 H 0.98906 0.32951 0.84295 0.0
H417 H 0.03468 0.35528 0.80314 0.0
H418 H 0.0344 0.38065 0.86005 0.0
H419 H 1.01376 0.19726 0.85348 0.0
H420 H 0.06523 0.20798 0.8765 0.0
H421 H 0.06039 0.22331 0.81534 0.0
C422 C 0.83651 0.7536 0.43116 0.0
C423 C 0.80385 0.73085 0.39686 0.0
C424 C 0.8289 0.77185 0.47291 0.0
C425 C 0.78784 0.76759 0.4802 0.0
C426 C 0.75556 0.74676 0.44447 0.0
C427 C 0.76378 0.7283 0.40364 0.0
C428 C 0.86402 0.79365 0.51039 0.0
C429 C 0.71135 0.7417 0.45067 0.0
C430 C 0.7392 0.75759 0.60542 0.0
C431 C 0.74127 0.79756 0.61112 0.0
C432 C 0.75689 0.74863 0.56441 0.0
C433 C 0.77642 0.78001 0.52741 0.0
C434 C 0.78025 0.82102 0.53357 0.0
C435 C 0.76281 0.82941 0.57552 0.0
C436 C 0.75233 0.70453 0.55942 0.0
C437 C 0.80066 0.85519 0.49472 0.0
H438 H 0.86776 0.75632 0.42598 0.0
H439 H 0.73787 0.71008 0.37821 0.0
H440 H 0.8675 0.82503 0.52153 0.0
H441 H 0.85529 0.77328 0.54353 0.0
H442 H 0.89557 0.7991 0.49663 0.0
H443 H 0.69159 0.72905 0.41716 0.0
H444 H 0.69413 0.7191 0.48104 0.0
H445 H 0.71398 0.77303 0.46025 0.0
H446 H 0.72191 0.73228 0.63189 0.0
H447 H 0.76518 0.86059 0.57984 0.0
H448 H 0.78358 0.70735 0.54899 0.0
H449 H 0.72902 0.68626 0.53006 0.0
H450 H 0.74083 0.68565 0.59371 0.0
H451 H 0.8319 0.85879 0.48273 0.0
H452 H 0.80604 0.88695 0.50758 0.0
H453 H 0.7794 0.84534 0.46232 0.0
C454 C 0.35411 0.08845 0.12633 0.0
C455 C 0.33102 0.085 0.08394 0.0
C456 C 0.3349 0.05934 0.16482 0.0
C457 C 0.29124 0.02651 0.16117 0.0
C458 C 0.26721 0.02401 0.11925 0.0
C459 C 0.28763 0.053 0.08069 0.0
C460 C 0.36194 0.06255 0.2084 0.0
C461 C 0.22036 0.9901 0.11464 0.0
C462 C 0.26317 0.92702 0.23518 0.0
C463 C 0.24817 0.93558 0.27876 0.0
C464 C 0.27563 0.95554 0.19576 0.0
C465 C 0.27216 0.99309 0.19977 0.0
C466 C 0.25457 1.00055 0.24267 0.0
C467 C 0.24335 0.97195 0.28207 0.0
C468 C 0.2951 0.94686 0.1511 0.0
C469 C 0.24938 0.03966 0.24775 0.0
H470 H 0.38784 0.11291 0.12848 0.0
H471 H 0.26983 0.05054 0.04786 0.0
H472 H 0.34659 0.06519 0.24251 0.0
H473 H 0.36422 0.03287 0.2111 0.0
H474 H 0.39504 0.09071 0.20614 0.0
H475 H 0.20512 0.9954 0.08226 0.0
H476 H 0.21728 0.95782 0.11138 0.0
H477 H 0.20232 0.9898 0.14785 0.0
H478 H 0.26747 0.89918 0.23293 0.0
H479 H 0.23163 0.97843 0.31582 0.0
H480 H 0.32951 0.97205 0.14791 0.0
H481 H 0.27874 0.94838 0.11762 0.0
H482 H 0.29298 0.91489 0.15252 0.0
H483 H 0.2815 0.06897 0.25111 0.0
H484 H 0.22986 0.03766 0.28033 0.0
H485 H 0.23387 0.04356 0.21478 0.0
C486 C 0.37327 0.27054 0.00895 0.0
C487 C 0.39552 0.28012 0.96439 0.0
C488 C 0.36309 0.29964 0.03132 0.0
C489 C 0.37437 0.33903 0.00792 0.0
C490 C 0.39861 0.34976 0.96383 0.0
C491 C 0.40929 0.32023 0.94273 0.0
C492 C 0.33801 0.28697 0.07867 0.0
C493 C 0.41082 0.39111 0.93737 0.0
C494 C 0.29457 0.37715 0.03422 0.0
C495 C 0.31616 0.40984 0.06901 0.0
C496 C 0.31404 0.35555 0.01252 0.0
C497 C 0.35601 0.36584 0.0267 0.0
C498 C 0.37825 0.39888 0.06169 0.0
C499 C 0.35818 0.42065 0.08222 0.0
C500 C 0.28901 0.32073 0.97528 0.0
C501 C 0.42271 0.41033 0.07847 0.0
H502 H 0.36267 0.23949 0.02577 0.0
H503 H 0.42617 0.32745 0.90804 0.0
H504 H 0.35264 0.31384 0.10537 0.0
H505 H 0.30461 0.27986 0.07198 0.0
H506 H 0.33657 0.25804 0.09519 0.0
H507 H 0.43397 0.39725 0.90713 0.0
H508 H 0.38146 0.38936 0.92194 0.0
H509 H 0.42519 0.41882 0.96298 0.0
H510 H 0.2619 0.36765 0.02433 0.0
H511 H 0.37524 0.44573 0.10911 0.0
H512 H 0.28119 0.28894 0.99026 0.0
H513 H 0.3087 0.32616 0.94186 0.0
H514 H 0.25845 0.31937 0.96489 0.0
H515 H 0.42116 0.38255 0.09798 0.0
H516 H 0.43695 0.4387 0.10325 0.0
H517 H 0.44444 0.41724 0.04663 0.0
C518 C 0.72734 0.11242 0.62138 0.0
C519 C 0.75371 0.11207 0.58343 0.0
C520 C 0.70261 0.07547 0.65015 0.0
C521 C 0.70451 0.03747 0.64087 0.0
C522 C 0.72795 0.03597 0.59979 0.0
C523 C 0.75206 0.07314 0.57162 0.0
C524 C 0.67725 0.07828 0.69273 0.0
C525 C 0.73081 0.99624 0.58807 0.0
C526 C 0.70745 0.96764 0.74211 0.0
C527 C 0.66895 0.92875 0.73488 0.0
C528 C 0.7178 1.00424 0.71417 0.0
C529 C 0.68888 1.00216 0.67787 0.0
C530 C 0.64824 0.9641 0.67324 0.0
C531 C 0.63874 0.9277 0.70179 0.0
C532 C 0.76135 0.04405 0.72091 0.0
C533 C 0.61603 0.9607 0.63585 0.0
H534 H 0.72816 0.14224 0.63077 0.0
H535 H 0.7718 0.07232 0.54194 0.0
H536 H 0.64606 0.04791 0.69682 0.0
H537 H 0.69571 0.08338 0.72682 0.0
H538 H 0.67099 0.10549 0.68863 0.0
H539 H 0.74626 0.99859 0.55206 0.0
H540 H 0.75002 0.99166 0.61654 0.0
H541 H 0.69833 0.96719 0.58806 0.0
H542 H 0.73074 0.96887 0.76805 0.0
H543 H 0.6089 0.89776 0.69591 0.0
H544 H 0.75798 0.07305 0.72456 0.0
H545 H 0.78174 0.04864 0.68831 0.0
H546 H 0.77835 0.04189 0.75357 0.0
H547 H 0.61485 0.99101 0.63411 0.0
H548 H 0.58322 0.93355 0.64392 0.0
H549 H 0.62587 0.95514 0.59929 0.0
C550 C 0.11925 0.71444 0.38091 0.0
C551 C 0.11997 0.74257 0.41721 0.0
C552 C 0.08167 0.68899 0.35345 0.0
C553 C 0.04421 0.69194 0.36256 0.0
C554 C 0.04387 0.71722 0.40231 0.0
C555 C 0.08166 0.74213 0.42901 0.0
C556 C 0.08326 0.66176 0.31224 0.0
C557 C 1.00478 0.72125 0.41389 0.0
C558 C 0.97272 0.69297 0.26245 0.0
C559 C 0.93359 0.65535 0.27211 0.0
C560 C 1.00997 0.70335 0.28901 0.0
C561 C 1.00825 0.67544 0.32645 0.0
C562 C 0.96982 0.63549 0.33348 0.0
C563 C 0.93281 0.62589 0.30621 0.0
C564 C 0.05016 0.7461 0.27968 0.0
C565 C 0.96675 0.60436 0.37222 0.0
H566 H 0.14875 0.7146 0.37151 0.0
H567 H 0.08187 0.76343 0.45742 0.0
H568 H 0.05245 0.63084 0.30946 0.0
H569 H 0.08838 0.67916 0.27727 0.0
H570 H 0.10999 0.65488 0.31691 0.0
H571 H 1.00806 0.73817 0.44907 0.0
H572 H 1.00001 0.73959 0.38446 0.0
H573 H 0.97544 0.68901 0.41563 0.0
H574 H 0.97372 0.71562 0.23569 0.0
H575 H 0.90268 0.59672 0.31392 0.0
H576 H 0.07863 0.74183 0.27617 0.0
H577 H 0.0559 0.76801 0.31107 0.0
H578 H 0.04767 0.76191 0.24609 0.0
H579 H 0.99672 0.60255 0.37357 0.0
H580 H 0.939 0.57154 0.36591 0.0
H581 H 0.96241 0.61574 0.40842 0.0
C582 C 0.97649 0.29979 0.42076 0.0
C583 C 0.94018 0.2592 0.41223 0.0
C584 C 1.01187 0.31716 0.38849 0.0
C585 C 1.011 0.29353 0.34648 0.0
C586 C 0.97488 0.25223 0.33817 0.0
C587 C 0.94008 0.23559 0.37111 0.0
C588 C 0.0498 0.36125 0.39879 0.0
C589 C 0.97265 0.22585 0.29395 0.0
C590 C 0.07949 0.35293 0.23574 0.0
C591 C 0.11366 0.34455 0.2391 0.0
C592 C 0.04628 0.33707 0.27077 0.0
C593 C 0.04723 0.31235 0.3104 0.0
C594 C 0.08207 0.30451 0.31457 0.0
C595 C 0.11473 0.32057 0.27884 0.0
C596 C 1.00962 0.34596 0.26474 0.0
C597 C 0.08457 0.27871 0.35648 0.0
H598 H 0.97686 0.31866 0.45191 0.0
H599 H 0.91257 0.20398 0.36454 0.0
H600 H 0.07999 0.35983 0.39912 0.0
H601 H 0.05301 0.38381 0.36937 0.0
H602 H 0.04654 0.37455 0.43426 0.0
H603 H 0.9427 0.19395 0.29325 0.0
H604 H 0.97414 0.24353 0.26021 0.0
H605 H 1.00069 0.22072 0.29324 0.0
H606 H 0.07803 0.37089 0.20491 0.0
H607 H 0.14127 0.31444 0.2821 0.0
H608 H 1.00613 0.36175 0.29801 0.0
H609 H 0.97898 0.31515 0.25998 0.0
H610 H 1.01432 0.36688 0.23283 0.0
H611 H 0.08305 0.29329 0.39173 0.0
H612 H 0.11456 0.27683 0.35549 0.0
H613 H 0.05659 0.24551 0.35546 0.0
C614 C 0.68209 0.73943 0.93069 0.0
C615 C 0.70256 0.78425 0.92476 0.0
C616 C 0.69866 0.72074 0.96246 0.0
C617 C 0.73679 0.74749 0.98878 0.0
C618 C 0.75746 0.79277 0.9832 0.0
C619 C 0.73999 0.81058 0.95142 0.0
C620 C 0.67536 0.67236 0.96787 0.0
C621 C 0.79831 0.82236 0.01038 0.0
C622 C 0.76032 0.70352 0.10319 0.0
C623 C 0.78994 0.69166 0.08596 0.0
C624 C 0.7426 0.72143 0.07195 0.0
C625 C 0.75503 0.7281 0.02222 0.0
C626 C 0.78494 0.71636 1.0045 0.0
C627 C 0.80193 0.6982 0.03651 0.0
C628 C 0.71072 0.73342 0.09227 0.0
C629 C 0.79903 0.72303 0.95169 0.0
H630 H 0.65278 0.71892 0.91085 0.0
H631 H 0.75616 0.84517 0.94655 0.0
H632 H 0.69701 0.65986 0.95731 0.0
H633 H 0.66609 0.66347 0.00659 0.0
H634 H 0.64591 0.65613 0.94511 0.0
H635 H 0.81031 0.85685 1.00219 0.0
H636 H 0.79273 0.81742 0.05028 0.0
H637 H 0.82378 0.81465 1.0006 0.0
H638 H 0.75137 0.69941 0.14141 0.0
H639 H 0.82433 0.68877 0.02258 0.0
H640 H 0.68006 0.71638 0.07176 0.0
H641 H 0.72338 0.76846 0.08771 0.0
H642 H 0.70375 0.72535 0.13158 0.0
H643 H 0.77072 0.70475 0.92773 0.0
H644 H 0.82284 0.71257 0.94372 0.0
H645 H 0.81355 0.75757 0.94206 0.0
C646 C 0.34932 0.10737 0.7179 0.0
C647 C 0.35858 0.10161 0.76609 0.0
C648 C 0.33294 0.07328 0.68403 0.0
C649 C 0.32578 0.03233 0.69842 0.0
C650 C 0.33562 0.02639 0.74671 0.0
C651 C 0.35172 0.06097 0.77992 0.0
C652 C 0.32286 0.08099 0.63292 0.0
C653 C 0.32855 0.98328 0.76352 0.0
C654 C 0.2441 0.93346 0.62798 0.0
C655 C 0.27057 0.92518 0.59718 0.0
C656 C 0.26163 0.96825 0.66086 0.0
C657 C 0.30685 0.99541 0.66338 0.0
C658 C 0.33381 0.98723 0.63246 0.0
C659 C 0.31535 0.95234 0.59963 0.0
C660 C 0.23168 0.97605 0.69279 0.0
C661 C 0.38217 1.01517 0.63431 0.0
H662 H 0.35506 0.13864 0.7064 0.0
H663 H 0.35816 0.05587 0.81708 0.0
H664 H 0.34115 0.07316 0.60594 0.0
H665 H 0.28814 0.05944 0.62529 0.0
H666 H 0.33079 0.11485 0.62723 0.0
H667 H 0.33945 0.98436 0.80162 0.0
H668 H 0.29384 0.95885 0.7613 0.0
H669 H 0.34608 0.97232 0.73923 0.0
H670 H 0.20949 0.91298 0.62584 0.0
H671 H 0.33608 0.94585 0.57651 0.0
H672 H 0.23667 1.00871 0.68591 0.0
H673 H 0.23897 0.97472 0.73181 0.0
H674 H 0.19729 0.95206 0.6863 0.0
H675 H 0.39168 0.0491 0.62637 0.0
H676 H 0.39865 1.00459 0.60783 0.0
H677 H 0.39378 1.01448 0.67153 0.0
loop_
_geom_bond_atom_site_label_1
_geom_bond_atom_site_label_2
_geom_bond_distance
_geom_bond_site_symmetry_2
_ccdc_geom_bond_type
C0 C1 1.351 1_554 S
C0 N3 1.368 . S
C0 H5 0.931 . S
C1 C0 1.351 1_556 S
C1 N2 1.373 . S
C1 H29 0.930 . S
N2 C1 1.373 . S
N2 C4 1.340 . S
N3 C0 1.368 . S
N3 C4 1.321 1_554 S
N3 Co6 2.135 . S
C4 N2 1.340 . S
C4 N3 1.321 1_556 S
C4 H28 0.930 . S
H5 C0 0.931 . S
Co6 N3 2.135 . S
Co6 N9 2.121 . S
Co6 O14 2.055 . S
Co6 O17 2.039 . S
Co6 N20 2.140 . S
C7 O8 1.227 . S
C7 O17 1.265 . S
O8 C7 1.227 . S
N9 Co6 2.121 . S
N9 C11 1.375 . S
N9 C12 1.313 . S
C10 C11 1.338 . S
C10 N13 1.377 . S
C10 H30 0.930 . S
C11 N9 1.375 . S
C11 C10 1.338 . S
C11 H15 0.931 . S
C12 N9 1.313 . S
C12 N13 1.344 . S
C12 H16 0.930 . S
N13 C10 1.377 . S
N13 C12 1.344 . S
O14 Co6 2.055 . S
O14 C18 1.253 . S
H15 C11 0.931 . S
H16 C12 0.930 . S
O17 Co6 2.039 . S
O17 C7 1.265 . S
C18 O14 1.253 . S
C18 O19 1.227 . S
O19 C18 1.227 . S
N20 Co6 2.140 . S
N20 C23 1.346 1_554 S
N20 C24 1.345 . S
C21 C22 1.387 . S
C21 C25 1.391 . S
C22 C21 1.387 . S
C22 C23 1.369 . S
C22 H31 0.929 . S
C23 N20 1.346 1_556 S
C23 C22 1.369 . S
C23 H26 0.928 . S
C24 N20 1.345 . S
C24 C25 1.371 1_554 S
C24 H27 0.931 . S
C25 C21 1.391 . S
C25 C24 1.371 1_556 S
C25 H32 0.925 1_556 S
H26 C23 0.928 . S
H27 C24 0.931 . S
H28 C4 0.930 . S
H29 C1 0.930 . S
H30 C10 0.930 . S
H31 C22 0.929 . S
H32 C25 0.925 1_554 S
C33 C34 1.351 . S
C33 N36 1.368 . S
C33 H38 0.931 . S
C34 C33 1.351 . S
C34 N35 1.373 . S
C34 H62 0.930 . S
N35 C34 1.373 . S
N35 C37 1.340 . S
N36 C33 1.368 . S
N36 C37 1.321 . S
N36 Co39 2.135 . S
C37 N35 1.340 . S
C37 N36 1.321 . S
C37 H61 0.930 . S
H38 C33 0.931 . S
Co39 N36 2.135 . S
Co39 N42 2.121 . S
Co39 O47 2.055 . S
Co39 O50 2.039 . S
Co39 N53 2.140 . S
C40 O41 1.227 . S
C40 O50 1.265 . S
O41 C40 1.227 . S
N42 Co39 2.121 . S
N42 C44 1.375 . S
N42 C45 1.313 . S
C43 C44 1.338 . S
C43 N46 1.377 . S
C43 H63 0.930 . S
C44 N42 1.375 . S
C44 C43 1.338 . S
C44 H48 0.931 . S
C45 N42 1.313 . S
C45 N46 1.344 . S
C45 H49 0.930 . S
N46 C43 1.377 . S
N46 C45 1.344 . S
O47 Co39 2.055 . S
O47 C51 1.253 . S
H48 C44 0.931 . S
H49 C45 0.930 . S
O50 Co39 2.039 . S
O50 C40 1.265 . S
C51 O47 1.253 . S
C51 O52 1.227 . S
O52 C51 1.227 . S
N53 Co39 2.140 . S
N53 C56 1.346 . S
N53 C57 1.345 . S
C54 C55 1.387 . S
C54 C58 1.391 . S
C55 C54 1.387 . S
C55 C56 1.369 . S
C55 H64 0.929 . S
C56 N53 1.346 . S
C56 C55 1.369 . S
C56 H59 0.928 . S
C57 N53 1.345 . S
C57 C58 1.371 . S
C57 H60 0.931 . S
C58 C54 1.391 . S
C58 C57 1.371 . S
C58 H65 0.930 . S
H59 C56 0.928 . S
H60 C57 0.931 . S
H61 C37 0.930 . S
H62 C34 0.930 . S
H63 C43 0.930 . S
H64 C55 0.929 . S
H65 C58 0.930 . S
C66 C67 1.351 . S
C66 N69 1.368 . S
C66 H71 0.931 . S
C67 C66 1.351 . S
C67 N68 1.373 . S
C67 H95 0.930 . S
N68 C67 1.373 . S
N68 C70 1.340 . S
N69 C66 1.368 . S
N69 C70 1.321 . S
N69 Co72 2.135 . S
C70 N68 1.340 . S
C70 N69 1.321 . S
C70 H94 0.930 . S
H71 C66 0.931 . S
Co72 N69 2.135 . S
Co72 N75 2.121 . S
Co72 O80 2.055 . S
Co72 O83 2.039 . S
Co72 N86 2.140 . S
C73 O74 1.227 . S
C73 O83 1.265 . S
O74 C73 1.227 . S
N75 Co72 2.121 . S
N75 C77 1.375 . S
N75 C78 1.313 . S
C76 C77 1.338 . S
C76 N79 1.377 . S
C76 H96 0.930 . S
C77 N75 1.375 . S
C77 C76 1.338 . S
C77 H81 0.931 . S
C78 N75 1.313 . S
C78 N79 1.344 . S
C78 H82 0.930 . S
N79 C76 1.377 . S
N79 C78 1.344 . S
O80 Co72 2.055 . S
O80 C84 1.253 . S
H81 C77 0.931 . S
H82 C78 0.930 . S
O83 Co72 2.039 . S
O83 C73 1.265 . S
C84 O80 1.253 . S
C84 O85 1.227 . S
O85 C84 1.227 . S
N86 Co72 2.140 . S
N86 C89 1.346 . S
N86 C90 1.345 . S
C87 C88 1.387 . S
C87 C91 1.391 . S
C88 C87 1.387 . S
C88 C89 1.369 . S
C88 H97 0.929 . S
C89 N86 1.346 . S
C89 C88 1.369 . S
C89 H92 0.928 . S
C90 N86 1.345 . S
C90 C91 1.371 . S
C90 H93 0.931 . S
C91 C87 1.391 . S
C91 C90 1.371 . S
C91 H98 0.930 . S
H92 C89 0.928 . S
H93 C90 0.931 . S
H94 C70 0.930 . S
H95 C67 0.930 . S
H96 C76 0.930 . S
H97 C88 0.929 . S
H98 C91 0.930 . S
C99 C100 1.351 1_556 S
C99 N102 1.368 . S
C99 H104 0.931 . S
C100 C99 1.351 1_554 S
C100 N101 1.373 . S
C100 H128 0.930 . S
N101 C100 1.373 . S
N101 C103 1.340 . S
N102 C99 1.368 . S
N102 C103 1.321 1_556 S
N102 Co105 2.135 . S
C103 N101 1.340 . S
C103 N102 1.321 1_554 S
C103 H127 0.930 . S
H104 C99 0.931 . S
Co105 N102 2.135 . S
Co105 N108 2.121 . S
Co105 O113 2.055 . S
Co105 O116 2.039 . S
Co105 N119 2.140 . S
C106 O107 1.227 . S
C106 O116 1.265 . S
O107 C106 1.227 . S
N108 Co105 2.121 . S
N108 C110 1.375 . S
N108 C111 1.313 . S
C109 C110 1.338 . S
C109 N112 1.377 . S
C109 H129 0.930 . S
C110 N108 1.375 . S
C110 C109 1.338 . S
C110 H114 0.931 . S
C111 N108 1.313 . S
C111 N112 1.344 . S
C111 H115 0.930 . S
N112 C109 1.377 . S
N112 C111 1.344 . S
O113 Co105 2.055 . S
O113 C117 1.253 . S
H114 C110 0.931 . S
H115 C111 0.930 . S
O116 Co105 2.039 . S
O116 C106 1.265 . S
C117 O113 1.253 . S
C117 O118 1.227 . S
O118 C117 1.227 . S
N119 Co105 2.140 . S
N119 C122 1.346 1_556 S
N119 C123 1.345 . S
C120 C121 1.387 . S
C120 C124 1.391 . S
C121 C120 1.387 . S
C121 C122 1.369 . S
C121 H130 0.929 . S
C122 N119 1.346 1_554 S
C122 C121 1.369 . S
C122 H125 0.928 . S
C123 N119 1.345 . S
C123 C124 1.371 1_556 S
C123 H126 0.931 . S
C124 C120 1.391 . S
C124 C123 1.371 1_554 S
C124 H131 0.925 1_554 S
H125 C122 0.928 . S
H126 C123 0.931 . S
H127 C103 0.930 . S
H128 C100 0.930 . S
H129 C109 0.930 . S
H130 C121 0.929 . S
H131 C124 0.925 1_556 S
C132 C133 1.351 . S
C132 N135 1.368 . S
C132 H137 0.931 . S
C133 C132 1.351 . S
C133 N134 1.373 . S
C133 H161 0.930 . S
N134 C133 1.373 . S
N134 C136 1.340 . S
N135 C132 1.368 . S
N135 C136 1.321 . S
N135 Co138 2.135 . S
C136 N134 1.340 . S
C136 N135 1.321 . S
C136 H160 0.930 . S
H137 C132 0.931 . S
Co138 N135 2.135 . S
Co138 N141 2.121 . S
Co138 O146 2.055 . S
Co138 O149 2.039 . S
Co138 N152 2.140 . S
C139 O140 1.227 . S
C139 O149 1.265 . S
O140 C139 1.227 . S
N141 Co138 2.121 . S
N141 C143 1.375 . S
N141 C144 1.313 . S
C142 C143 1.338 . S
C142 N145 1.377 . S
C142 H162 0.930 . S
C143 N141 1.375 . S
C143 C142 1.338 . S
C143 H147 0.931 . S
C144 N141 1.313 . S
C144 N145 1.344 . S
C144 H148 0.930 . S
N145 C142 1.377 . S
N145 C144 1.344 . S
O146 Co138 2.055 . S
O146 C150 1.253 . S
H147 C143 0.931 . S
H148 C144 0.930 . S
O149 Co138 2.039 . S
O149 C139 1.265 . S
C150 O146 1.253 . S
C150 O151 1.227 . S
O151 C150 1.227 . S
N152 Co138 2.140 . S
N152 C155 1.346 . S
N152 C156 1.345 . S
C153 C154 1.387 . S
C153 C157 1.391 . S
C154 C153 1.387 . S
C154 C155 1.369 . S
C154 H163 0.929 . S
C155 N152 1.346 . S
C155 C154 1.369 . S
C155 H158 0.928 . S
C156 N152 1.345 . S
C156 C157 1.371 . S
C156 H159 0.931 . S
C157 C153 1.391 . S
C157 C156 1.371 . S
C157 H164 0.930 . S
H158 C155 0.928 . S
H159 C156 0.931 . S
H160 C136 0.930 . S
H161 C133 0.930 . S
H162 C142 0.930 . S
H163 C154 0.929 . S
H164 C157 0.930 . S
C165 C166 1.351 . S
C165 N168 1.368 . S
C165 H170 0.931 . S
C166 C165 1.351 . S
C166 N167 1.373 . S
C166 H194 0.930 . S
N167 C166 1.373 . S
N167 C169 1.340 . S
N168 C165 1.368 . S
N168 C169 1.321 . S
N168 Co171 2.135 . S
C169 N167 1.340 . S
C169 N168 1.321 . S
C169 H193 0.930 . S
H170 C165 0.931 . S
Co171 N168 2.135 . S
Co171 N174 2.121 . S
Co171 O179 2.055 . S
Co171 O182 2.039 . S
Co171 N185 2.140 . S
C172 O173 1.227 . S
C172 O182 1.265 . S
O173 C172 1.227 . S
N174 Co171 2.121 . S
N174 C176 1.375 . S
N174 C177 1.313 . S
C175 C176 1.338 . S
C175 N178 1.377 . S
C175 H195 0.930 . S
C176 N174 1.375 . S
C176 C175 1.338 . S
C176 H180 0.931 . S
C177 N174 1.313 . S
C177 N178 1.344 . S
C177 H181 0.930 . S
N178 C175 1.377 . S
N178 C177 1.344 . S
O179 Co171 2.055 . S
O179 C183 1.253 . S
H180 C176 0.931 . S
H181 C177 0.930 . S
O182 Co171 2.039 . S
O182 C172 1.265 . S
C183 O179 1.253 . S
C183 O184 1.227 . S
O184 C183 1.227 . S
N185 Co171 2.140 . S
N185 C188 1.346 . S
N185 C189 1.345 . S
C186 C187 1.387 . S
C186 C190 1.391 . S
C187 C186 1.387 . S
C187 C188 1.369 . S
C187 H196 0.929 . S
C188 N185 1.346 . S
C188 C187 1.369 . S
C188 H191 0.928 . S
C189 N185 1.345 . S
C189 C190 1.371 . S
C189 H192 0.931 . S
C190 C186 1.391 . S
C190 C189 1.371 . S
C190 H197 0.930 . S
H191 C188 0.928 . S
H192 C189 0.931 . S
H193 C169 0.930 . S
H194 C166 0.930 . S
H195 C175 0.930 . S
H196 C187 0.929 . S
H197 C190 0.930 . S
C198 C199 1.391 . S
C198 C200 1.394 . S
C198 H214 0.931 . S
C199 C198 1.391 . S
C199 C203 1.376 . S
C200 C198 1.394 . S
C200 C201 1.369 . S
C200 C204 1.531 . S
C201 C200 1.369 . S
C201 C202 1.410 . S
C201 C209 1.503 . S
C202 C201 1.410 . S
C202 C203 1.392 . S
C202 C205 1.511 . S
C203 C199 1.376 . S
C203 C202 1.392 . S
C203 H215 0.929 . S
C204 C200 1.531 . S
C204 H216 0.960 . S
C204 H217 0.962 . S
C204 H218 0.960 . S
C205 C202 1.511 . S
C205 H219 0.961 . S
C205 H220 0.961 . S
C205 H221 0.961 . S
C206 C207 1.370 . S
C206 C208 1.363 . S
C206 H222 0.931 . S
C207 C206 1.370 . S
C207 C211 1.408 . S
C208 C206 1.363 . S
C208 C209 1.370 . S
C208 C212 1.524 . S
C209 C201 1.503 . S
C209 C208 1.370 . S
C209 C210 1.403 . S
C210 C209 1.403 . S
C210 C211 1.404 . S
C210 C213 1.539 . S
C211 C207 1.408 . S
C211 C210 1.404 . S
C211 H223 0.930 . S
C212 C208 1.524 . S
C212 H224 0.956 . S
C212 H225 0.961 . S
C212 H226 0.961 . S
C213 C210 1.539 . S
C213 H227 0.958 . S
C213 H228 0.961 . S
C213 H229 0.960 . S
H214 C198 0.931 . S
H215 C203 0.929 . S
H216 C204 0.960 . S
H217 C204 0.962 . S
H218 C204 0.960 . S
H219 C205 0.961 . S
H220 C205 0.961 . S
H221 C205 0.961 . S
H222 C206 0.931 . S
H223 C211 0.930 . S
H224 C212 0.956 . S
H225 C212 0.961 . S
H226 C212 0.961 . S
H227 C213 0.958 . S
H228 C213 0.961 . S
H229 C213 0.960 . S
C230 C231 1.391 . S
C230 C232 1.394 . S
C230 H246 0.931 . S
C231 C230 1.391 . S
C231 C235 1.376 . S
C232 C230 1.394 . S
C232 C233 1.369 . S
C232 C236 1.531 . S
C233 C232 1.369 . S
C233 C234 1.410 . S
C233 C241 1.503 . S
C234 C233 1.410 . S
C234 C235 1.392 . S
C234 C237 1.511 . S
C235 C231 1.376 . S
C235 C234 1.392 . S
C235 H247 0.929 . S
C236 C232 1.531 . S
C236 H248 0.960 . S
C236 H249 0.962 . S
C236 H250 0.960 . S
C237 C234 1.511 . S
C237 H251 0.961 . S
C237 H252 0.961 . S
C237 H253 0.961 . S
C238 C239 1.370 . S
C238 C240 1.363 . S
C238 H254 0.931 . S
C239 C238 1.370 . S
C239 C243 1.408 . S
C240 C238 1.363 . S
C240 C241 1.370 . S
C240 C244 1.524 . S
C241 C233 1.503 . S
C241 C240 1.370 . S
C241 C242 1.403 . S
C242 C241 1.403 . S
C242 C243 1.404 . S
C242 C245 1.539 . S
C243 C239 1.408 . S
C243 C242 1.404 . S
C243 H255 0.930 . S
C244 C240 1.524 . S
C244 H256 0.956 . S
C244 H257 0.961 . S
C244 H258 0.961 . S
C245 C242 1.539 . S
C245 H259 0.958 . S
C245 H260 0.961 . S
C245 H261 0.960 . S
H246 C230 0.931 . S
H247 C235 0.929 . S
H248 C236 0.960 . S
H249 C236 0.962 . S
H250 C236 0.960 . S
H251 C237 0.961 . S
H252 C237 0.961 . S
H253 C237 0.961 . S
H254 C238 0.931 . S
H255 C243 0.930 . S
H256 C244 0.956 . S
H257 C244 0.961 . S
H258 C244 0.961 . S
H259 C245 0.958 . S
H260 C245 0.961 . S
H261 C245 0.960 . S
C262 C263 1.391 . S
C262 C264 1.394 . S
C262 H278 0.931 . S
C263 C262 1.391 . S
C263 C267 1.376 . S
C264 C262 1.394 . S
C264 C265 1.369 . S
C264 C268 1.531 . S
C265 C264 1.369 . S
C265 C266 1.410 . S
C265 C273 1.503 . S
C266 C265 1.410 . S
C266 C267 1.392 . S
C266 C269 1.511 . S
C267 C263 1.376 . S
C267 C266 1.392 . S
C267 H279 0.929 . S
C268 C264 1.531 . S
C268 H280 0.960 . S
C268 H281 0.962 . S
C268 H282 0.960 . S
C269 C266 1.511 . S
C269 H283 0.961 . S
C269 H284 0.961 . S
C269 H285 0.961 . S
C270 C271 1.370 . S
C270 C272 1.363 . S
C270 H286 0.931 . S
C271 C270 1.370 . S
C271 C275 1.408 . S
C272 C270 1.363 . S
C272 C273 1.370 . S
C272 C276 1.524 . S
C273 C265 1.503 . S
C273 C272 1.370 . S
C273 C274 1.403 . S
C274 C273 1.403 . S
C274 C275 1.404 . S
C274 C277 1.539 . S
C275 C271 1.408 . S
C275 C274 1.404 . S
C275 H287 0.930 . S
C276 C272 1.524 . S
C276 H288 0.956 . S
C276 H289 0.961 . S
C276 H290 0.961 . S
C277 C274 1.539 . S
C277 H291 0.958 . S
C277 H292 0.961 . S
C277 H293 0.960 . S
H278 C262 0.931 . S
H279 C267 0.929 . S
H280 C268 0.960 . S
H281 C268 0.962 . S
H282 C268 0.960 . S
H283 C269 0.961 . S
H284 C269 0.961 . S
H285 C269 0.961 . S
H286 C270 0.931 . S
H287 C275 0.930 . S
H288 C276 0.956 . S
H289 C276 0.961 . S
H290 C276 0.961 . S
H291 C277 0.958 . S
H292 C277 0.961 . S
H293 C277 0.960 . S
C294 C295 1.391 . S
C294 C296 1.394 . S
C294 H310 0.931 . S
C295 C294 1.391 . S
C295 C299 1.376 . S
C296 C294 1.394 . S
C296 C297 1.369 . S
C296 C300 1.531 . S
C297 C296 1.369 . S
C297 C298 1.410 . S
C297 C305 1.503 . S
C298 C297 1.410 . S
C298 C299 1.392 . S
C298 C301 1.511 . S
C299 C295 1.376 . S
C299 C298 1.392 . S
C299 H311 0.929 . S
C300 C296 1.531 . S
C300 H312 0.960 . S
C300 H313 0.962 . S
C300 H314 0.960 . S
C301 C298 1.511 . S
C301 H315 0.961 . S
C301 H316 0.961 . S
C301 H317 0.961 . S
C302 C303 1.370 . S
C302 C304 1.363 . S
C302 H318 0.931 . S
C303 C302 1.370 . S
C303 C307 1.408 . S
C304 C302 1.363 . S
C304 C305 1.370 . S
C304 C308 1.524 . S
C305 C297 1.503 . S
C305 C304 1.370 . S
C305 C306 1.403 . S
C306 C305 1.403 . S
C306 C307 1.404 . S
C306 C309 1.539 . S
C307 C303 1.408 . S
C307 C306 1.404 . S
C307 H319 0.930 . S
C308 C304 1.524 . S
C308 H320 0.956 . S
C308 H321 0.961 . S
C308 H322 0.961 . S
C309 C306 1.539 . S
C309 H323 0.958 . S
C309 H324 0.961 . S
C309 H325 0.960 . S
H310 C294 0.931 . S
H311 C299 0.929 . S
H312 C300 0.960 . S
H313 C300 0.962 . S
H314 C300 0.960 . S
H315 C301 0.961 . S
H316 C301 0.961 . S
H317 C301 0.961 . S
H318 C302 0.931 . S
H319 C307 0.930 . S
H320 C308 0.956 . S
H321 C308 0.961 . S
H322 C308 0.961 . S
H323 C309 0.958 . S
H324 C309 0.961 . S
H325 C309 0.960 . S
C326 C327 1.391 . S
C326 C328 1.394 . S
C326 H342 0.931 . S
C327 C326 1.391 . S
C327 C331 1.376 . S
C328 C326 1.394 . S
C328 C329 1.369 . S
C328 C332 1.531 . S
C329 C328 1.369 . S
C329 C330 1.410 . S
C329 C337 1.503 . S
C330 C329 1.410 . S
C330 C331 1.392 . S
C330 C333 1.511 . S
C331 C327 1.376 . S
C331 C330 1.392 . S
C331 H343 0.929 . S
C332 C328 1.531 . S
C332 H344 0.960 . S
C332 H345 0.962 . S
C332 H346 0.960 . S
C333 C330 1.511 . S
C333 H347 0.961 . S
C333 H348 0.961 . S
C333 H349 0.961 . S
C334 C335 1.370 . S
C334 C336 1.363 . S
C334 H350 0.931 . S
C335 C334 1.370 . S
C335 C339 1.408 . S
C336 C334 1.363 . S
C336 C337 1.370 . S
C336 C340 1.524 . S
C337 C329 1.503 . S
C337 C336 1.370 . S
C337 C338 1.403 . S
C338 C337 1.403 . S
C338 C339 1.404 . S
C338 C341 1.539 . S
C339 C335 1.408 . S
C339 C338 1.404 . S
C339 H351 0.930 . S
C340 C336 1.524 . S
C340 H352 0.956 . S
C340 H353 0.961 . S
C340 H354 0.961 . S
C341 C338 1.539 . S
C341 H355 0.958 . S
C341 H356 0.961 . S
C341 H357 0.960 . S
H342 C326 0.931 . S
H343 C331 0.929 . S
H344 C332 0.960 . S
H345 C332 0.962 . S
H346 C332 0.960 . S
H347 C333 0.961 . S
H348 C333 0.961 . S
H349 C333 0.961 . S
H350 C334 0.931 . S
H351 C339 0.930 . S
H352 C340 0.956 . S
H353 C340 0.961 . S
H354 C340 0.961 . S
H355 C341 0.958 . S
H356 C341 0.961 . S
H357 C341 0.960 . S
C358 C359 1.391 . S
C358 C360 1.394 . S
C358 H374 0.931 . S
C359 C358 1.391 . S
C359 C363 1.376 . S
C360 C358 1.394 . S
C360 C361 1.369 . S
C360 C364 1.531 . S
C361 C360 1.369 . S
C361 C362 1.410 . S
C361 C369 1.503 . S
C362 C361 1.410 . S
C362 C363 1.392 . S
C362 C365 1.511 . S
C363 C359 1.376 . S
C363 C362 1.392 . S
C363 H375 0.929 . S
C364 C360 1.531 . S
C364 H376 0.960 . S
C364 H377 0.962 . S
C364 H378 0.960 . S
C365 C362 1.511 . S
C365 H379 0.961 . S
C365 H380 0.961 . S
C365 H381 0.961 . S
C366 C367 1.370 . S
C366 C368 1.363 . S
C366 H382 0.931 . S
C367 C366 1.370 . S
C367 C371 1.408 . S
C368 C366 1.363 . S
C368 C369 1.370 . S
C368 C372 1.524 . S
C369 C361 1.503 . S
C369 C368 1.370 . S
C369 C370 1.403 . S
C370 C369 1.403 . S
C370 C371 1.404 . S
C370 C373 1.539 . S
C371 C367 1.408 . S
C371 C370 1.404 . S
C371 H383 0.930 . S
C372 C368 1.524 . S
C372 H384 0.956 . S
C372 H385 0.961 . S
C372 H386 0.961 . S
C373 C370 1.539 . S
C373 H387 0.958 . S
C373 H388 0.961 . S
C373 H389 0.960 . S
H374 C358 0.931 . S
H375 C363 0.929 . S
H376 C364 0.960 . S
H377 C364 0.962 . S
H378 C364 0.960 . S
H379 C365 0.961 . S
H380 C365 0.961 . S
H381 C365 0.961 . S
H382 C366 0.931 . S
H383 C371 0.930 . S
H384 C372 0.956 . S
H385 C372 0.961 . S
H386 C372 0.961 . S
H387 C373 0.958 . S
H388 C373 0.961 . S
H389 C373 0.960 . S
C390 C391 1.391 . S
C390 C392 1.394 . S
C390 H406 0.931 . S
C391 C390 1.391 . S
C391 C395 1.376 . S
C392 C390 1.394 . S
C392 C393 1.369 . S
C392 C396 1.531 . S
C393 C392 1.369 . S
C393 C394 1.412 . S
C393 C401 1.503 1_655 S
C394 C393 1.412 . S
C394 C395 1.402 . S
C394 C397 1.499 1_655 S
C395 C391 1.376 . S
C395 C394 1.402 . S
C395 H407 0.929 . S
C396 C392 1.531 . S
C396 H408 0.960 . S
C396 H409 0.962 . S
C396 H410 0.960 . S
C397 C394 1.499 1_455 S
C397 H411 0.961 . S
C397 H412 0.961 . S
C397 H413 0.961 . S
C398 C399 1.370 . S
C398 C400 1.363 . S
C398 H414 0.931 . S
C399 C398 1.370 . S
C399 C403 1.408 . S
C400 C398 1.363 . S
C400 C401 1.370 . S
C400 C404 1.549 . S
C401 C393 1.503 1_455 S
C401 C400 1.370 . S
C401 C402 1.403 . S
C402 C401 1.403 . S
C402 C403 1.404 . S
C402 C405 1.539 . S
C403 C399 1.408 . S
C403 C402 1.404 . S
C403 H415 0.930 . S
C404 C400 1.549 . S
C404 H416 0.932 1_455 S
C404 H417 0.963 . S
C404 H418 0.959 . S
C405 C402 1.539 . S
C405 H419 0.958 . S
C405 H420 0.961 . S
C405 H421 0.960 . S
H406 C390 0.931 . S
H407 C395 0.929 . S
H408 C396 0.960 . S
H409 C396 0.962 . S
H410 C396 0.960 . S
H411 C397 0.961 . S
H412 C397 0.961 . S
H413 C397 0.961 . S
H414 C398 0.931 . S
H415 C403 0.930 . S
H416 C404 0.932 1_655 S
H417 C404 0.963 . S
H418 C404 0.959 . S
H419 C405 0.958 . S
H420 C405 0.961 . S
H421 C405 0.960 . S
C422 C423 1.391 . S
C422 C424 1.394 . S
C422 H438 0.931 . S
C423 C422 1.391 . S
C423 C427 1.376 . S
C424 C422 1.394 . S
C424 C425 1.369 . S
C424 C428 1.531 . S
C425 C424 1.369 . S
C425 C426 1.410 . S
C425 C433 1.503 . S
C426 C425 1.410 . S
C426 C427 1.392 . S
C426 C429 1.511 . S
C427 C423 1.376 . S
C427 C426 1.392 . S
C427 H439 0.929 . S
C428 C424 1.531 . S
C428 H440 0.960 . S
C428 H441 0.962 . S
C428 H442 0.960 . S
C429 C426 1.511 . S
C429 H443 0.961 . S
C429 H444 0.961 . S
C429 H445 0.961 . S
C430 C431 1.370 . S
C430 C432 1.363 . S
C430 H446 0.931 . S
C431 C430 1.370 . S
C431 C435 1.408 . S
C432 C430 1.363 . S
C432 C433 1.370 . S
C432 C436 1.524 . S
C433 C425 1.503 . S
C433 C432 1.370 . S
C433 C434 1.403 . S
C434 C433 1.403 . S
C434 C435 1.404 . S
C434 C437 1.539 . S
C435 C431 1.408 . S
C435 C434 1.404 . S
C435 H447 0.930 . S
C436 C432 1.524 . S
C436 H448 0.956 . S
C436 H449 0.961 . S
C436 H450 0.961 . S
C437 C434 1.539 . S
C437 H451 0.958 . S
C437 H452 0.961 . S
C437 H453 0.960 . S
H438 C422 0.931 . S
H439 C427 0.929 . S
H440 C428 0.960 . S
H441 C428 0.962 . S
H442 C428 0.960 . S
H443 C429 0.961 . S
H444 C429 0.961 . S
H445 C429 0.961 . S
H446 C430 0.931 . S
H447 C435 0.930 . S
H448 C436 0.956 . S
H449 C436 0.961 . S
H450 C436 0.961 . S
H451 C437 0.958 . S
H452 C437 0.961 . S
H453 C437 0.960 . S
C454 C455 1.391 . S
C454 C456 1.394 . S
C454 H470 0.931 . S
C455 C454 1.391 . S
C455 C459 1.376 . S
C456 C454 1.394 . S
C456 C457 1.369 . S
C456 C460 1.531 . S
C457 C456 1.369 . S
C457 C458 1.410 . S
C457 C465 1.503 1_545 S
C458 C457 1.410 . S
C458 C459 1.392 . S
C458 C461 1.511 1_545 S
C459 C455 1.376 . S
C459 C458 1.392 . S
C459 H471 0.929 . S
C460 C456 1.531 . S
C460 H472 0.960 . S
C460 H473 0.962 . S
C460 H474 0.960 . S
C461 C458 1.511 1_565 S
C461 H475 0.961 . S
C461 H476 0.961 . S
C461 H477 0.961 . S
C462 C463 1.370 . S
C462 C464 1.363 . S
C462 H478 0.931 . S
C463 C462 1.370 . S
C463 C467 1.408 . S
C464 C462 1.363 . S
C464 C465 1.370 . S
C464 C468 1.524 . S
C465 C457 1.503 1_565 S
C465 C464 1.370 . S
C465 C466 1.403 . S
C466 C465 1.403 . S
C466 C467 1.404 . S
C466 C469 1.539 1_565 S
C467 C463 1.408 . S
C467 C466 1.404 . S
C467 H479 0.930 . S
C468 C464 1.524 . S
C468 H480 0.956 . S
C468 H481 0.961 . S
C468 H482 0.961 . S
C469 C466 1.539 1_545 S
C469 H483 0.958 . S
C469 H484 0.961 . S
C469 H485 0.960 . S
H470 C454 0.931 . S
H471 C459 0.929 . S
H472 C460 0.960 . S
H473 C460 0.962 . S
H474 C460 0.960 . S
H475 C461 0.961 . S
H476 C461 0.961 . S
H477 C461 0.961 . S
H478 C462 0.931 . S
H479 C467 0.930 . S
H480 C468 0.956 . S
H481 C468 0.961 . S
H482 C468 0.961 . S
H483 C469 0.958 . S
H484 C469 0.961 . S
H485 C469 0.960 . S
C486 C487 1.379 1_554 S
C486 C488 1.399 . S
C486 H502 0.938 . S
C487 C486 1.379 1_556 S
C487 C491 1.376 . S
C488 C486 1.399 . S
C488 C489 1.369 1_554 S
C488 C492 1.531 . S
C489 C488 1.369 1_556 S
C489 C490 1.410 . S
C489 C497 1.503 1_556 S
C490 C489 1.410 . S
C490 C491 1.392 . S
C490 C493 1.511 . S
C491 C487 1.376 . S
C491 C490 1.392 . S
C491 H503 0.929 . S
C492 C488 1.531 . S
C492 H504 0.960 . S
C492 H505 0.962 . S
C492 H506 0.960 . S
C493 C490 1.511 . S
C493 H507 0.961 . S
C493 H508 0.961 . S
C493 H509 0.961 . S
C494 C495 1.370 . S
C494 C496 1.363 . S
C494 H510 0.931 . S
C495 C494 1.370 . S
C495 C499 1.408 . S
C496 C494 1.363 . S
C496 C497 1.370 . S
C496 C500 1.524 1_554 S
C497 C489 1.503 1_554 S
C497 C496 1.370 . S
C497 C498 1.403 . S
C498 C497 1.403 . S
C498 C499 1.404 . S
C498 C501 1.539 . S
C499 C495 1.408 . S
C499 C498 1.404 . S
C499 H511 0.930 . S
C500 C496 1.524 1_556 S
C500 H512 0.956 . S
C500 H513 0.961 . S
C500 H514 0.961 . S
C501 C498 1.539 . S
C501 H515 0.958 . S
C501 H516 0.961 . S
C501 H517 0.960 . S
H502 C486 0.938 . S
H503 C491 0.929 . S
H504 C492 0.960 . S
H505 C492 0.962 . S
H506 C492 0.960 . S
H507 C493 0.961 . S
H508 C493 0.961 . S
H509 C493 0.961 . S
H510 C494 0.931 . S
H511 C499 0.930 . S
H512 C500 0.956 . S
H513 C500 0.961 . S
H514 C500 0.961 . S
H515 C501 0.958 . S
H516 C501 0.961 . S
H517 C501 0.960 . S
C518 C519 1.391 . S
C518 C520 1.394 . S
C518 H534 0.931 . S
C519 C518 1.391 . S
C519 C523 1.376 . S
C520 C518 1.394 . S
C520 C521 1.369 . S
C520 C524 1.531 . S
C521 C520 1.369 . S
C521 C522 1.410 . S
C521 C529 1.503 1_545 S
C522 C521 1.410 . S
C522 C523 1.392 . S
C522 C525 1.511 . S
C523 C519 1.376 . S
C523 C522 1.392 . S
C523 H535 0.929 . S
C524 C520 1.531 . S
C524 H536 0.960 1_545 S
C524 H537 0.962 . S
C524 H538 0.960 . S
C525 C522 1.511 . S
C525 H539 0.961 . S
C525 H540 0.961 1_545 S
C525 H541 0.961 1_545 S
C526 C527 1.370 . S
C526 C528 1.363 . S
C526 H542 0.931 . S
C527 C526 1.370 . S
C527 C531 1.408 . S
C528 C526 1.363 . S
C528 C529 1.370 . S
C528 C532 1.524 1_565 S
C529 C521 1.503 1_565 S
C529 C528 1.370 . S
C529 C530 1.403 . S
C530 C529 1.403 . S
C530 C531 1.404 . S
C530 C533 1.539 . S
C531 C527 1.408 . S
C531 C530 1.404 . S
C531 H543 0.930 . S
C532 C528 1.524 1_545 S
C532 H544 0.956 . S
C532 H545 0.961 . S
C532 H546 0.961 . S
C533 C530 1.539 . S
C533 H547 0.958 . S
C533 H548 0.961 . S
C533 H549 0.960 . S
H534 C518 0.931 . S
H535 C523 0.929 . S
H536 C524 0.960 1_565 S
H537 C524 0.962 . S
H538 C524 0.960 . S
H539 C525 0.961 . S
H540 C525 0.961 1_565 S
H541 C525 0.961 1_565 S
H542 C526 0.931 . S
H543 C531 0.930 . S
H544 C532 0.956 . S
H545 C532 0.961 . S
H546 C532 0.961 . S
H547 C533 0.958 . S
H548 C533 0.961 . S
H549 C533 0.960 . S
C550 C551 1.391 . S
C550 C552 1.394 . S
C550 H566 0.931 . S
C551 C550 1.391 . S
C551 C555 1.376 . S
C552 C550 1.394 . S
C552 C553 1.369 . S
C552 C556 1.531 . S
C553 C552 1.369 . S
C553 C554 1.410 . S
C553 C561 1.503 1_455 S
C554 C553 1.410 . S
C554 C555 1.392 . S
C554 C557 1.511 1_455 S
C555 C551 1.376 . S
C555 C554 1.392 . S
C555 H567 0.929 . S
C556 C552 1.531 . S
C556 H568 0.960 . S
C556 H569 0.962 . S
C556 H570 0.960 . S
C557 C554 1.511 1_655 S
C557 H571 0.959 1_655 S
C557 H572 0.961 . S
C557 H573 0.961 . S
C558 C559 1.370 . S
C558 C560 1.363 . S
C558 H574 0.931 . S
C559 C558 1.370 . S
C559 C563 1.408 . S
C560 C558 1.363 . S
C560 C561 1.370 . S
C560 C564 1.524 . S
C561 C553 1.503 1_655 S
C561 C560 1.370 . S
C561 C562 1.403 . S
C562 C561 1.403 . S
C562 C563 1.404 . S
C562 C565 1.539 . S
C563 C559 1.408 . S
C563 C562 1.404 . S
C563 H575 0.930 . S
C564 C560 1.524 . S
C564 H576 0.956 . S
C564 H577 0.961 . S
C564 H578 0.961 . S
C565 C562 1.539 . S
C565 H579 0.958 1_655 S
C565 H580 0.961 . S
C565 H581 0.960 1_655 S
H566 C550 0.931 . S
H567 C555 0.929 . S
H568 C556 0.960 . S
H569 C556 0.962 . S
H570 C556 0.960 . S
H571 C557 0.959 1_455 S
H572 C557 0.961 . S
H573 C557 0.961 . S
H574 C558 0.931 . S
H575 C563 0.930 . S
H576 C564 0.956 . S
H577 C564 0.961 . S
H578 C564 0.961 . S
H579 C565 0.958 1_455 S
H580 C565 0.961 . S
H581 C565 0.960 1_455 S
C582 C583 1.391 . S
C582 C584 1.394 . S
C582 H598 0.931 . S
C583 C582 1.391 . S
C583 C587 1.376 . S
C584 C582 1.394 . S
C584 C585 1.369 . S
C584 C588 1.531 1_655 S
C585 C584 1.369 . S
C585 C586 1.410 . S
C585 C593 1.503 1_655 S
C586 C585 1.410 . S
C586 C587 1.392 . S
C586 C589 1.511 . S
C587 C583 1.376 . S
C587 C586 1.392 . S
C587 H599 0.929 . S
C588 C584 1.531 1_455 S
C588 H600 0.960 . S
C588 H601 0.962 1_455 S
C588 H602 0.960 . S
C589 C586 1.511 . S
C589 H603 0.961 . S
C589 H604 0.961 . S
C589 H605 0.963 . S
C590 C591 1.370 . S
C590 C592 1.363 . S
C590 H606 0.931 . S
C591 C590 1.370 . S
C591 C595 1.408 . S
C592 C590 1.363 . S
C592 C593 1.370 . S
C592 C596 1.524 1_455 S
C593 C585 1.503 1_455 S
C593 C592 1.370 . S
C593 C594 1.403 . S
C594 C593 1.403 . S
C594 C595 1.404 . S
C594 C597 1.539 . S
C595 C591 1.408 . S
C595 C594 1.404 . S
C595 H607 0.930 . S
C596 C592 1.524 1_655 S
C596 H608 0.956 . S
C596 H609 0.961 . S
C596 H610 0.961 . S
C597 C594 1.539 . S
C597 H611 0.958 . S
C597 H612 0.961 . S
C597 H613 0.960 . S
H598 C582 0.931 . S
H599 C587 0.929 . S
H600 C588 0.960 . S
H601 C588 0.962 1_655 S
H602 C588 0.960 . S
H603 C589 0.961 . S
H604 C589 0.961 . S
H605 C589 0.963 . S
H606 C590 0.931 . S
H607 C595 0.930 . S
H608 C596 0.956 . S
H609 C596 0.961 . S
H610 C596 0.961 . S
H611 C597 0.958 . S
H612 C597 0.961 . S
H613 C597 0.960 . S
C614 C615 1.391 . S
C614 C616 1.394 . S
C614 H630 0.931 . S
C615 C614 1.391 . S
C615 C619 1.376 . S
C616 C614 1.394 . S
C616 C617 1.369 . S
C616 C620 1.531 1_556 S
C617 C616 1.369 . S
C617 C618 1.410 . S
C617 C625 1.503 1_556 S
C618 C617 1.410 . S
C618 C619 1.392 . S
C618 C621 1.511 . S
C619 C615 1.376 . S
C619 C618 1.392 . S
C619 H631 0.929 . S
C620 C616 1.531 1_554 S
C620 H632 0.960 . S
C620 H633 0.962 . S
C620 H634 0.960 . S
C621 C618 1.511 . S
C621 H635 0.961 . S
C621 H636 0.961 . S
C621 H637 0.961 . S
C622 C623 1.370 . S
C622 C624 1.363 . S
C622 H638 0.931 . S
C623 C622 1.370 . S
C623 C627 1.408 . S
C624 C622 1.363 . S
C624 C625 1.370 . S
C624 C628 1.524 . S
C625 C617 1.503 1_554 S
C625 C624 1.370 . S
C625 C626 1.403 . S
C626 C625 1.403 . S
C626 C627 1.404 . S
C626 C629 1.539 1_554 S
C627 C623 1.408 . S
C627 C626 1.404 . S
C627 H639 0.930 . S
C628 C624 1.524 . S
C628 H640 0.956 . S
C628 H641 0.961 . S
C628 H642 0.961 . S
C629 C626 1.539 1_556 S
C629 H643 0.958 . S
C629 H644 0.961 . S
C629 H645 0.960 . S
H630 C614 0.931 . S
H631 C619 0.929 . S
H632 C620 0.960 . S
H633 C620 0.962 . S
H634 C620 0.960 . S
H635 C621 0.961 . S
H636 C621 0.961 . S
H637 C621 0.961 . S
H638 C622 0.931 . S
H639 C627 0.930 . S
H640 C628 0.956 . S
H641 C628 0.961 . S
H642 C628 0.961 . S
H643 C629 0.958 . S
H644 C629 0.961 . S
H645 C629 0.960 . S
C646 C647 1.391 . S
C646 C648 1.394 . S
C646 H662 0.931 . S
C647 C646 1.391 . S
C647 C651 1.376 . S
C648 C646 1.394 . S
C648 C649 1.369 . S
C648 C652 1.531 . S
C649 C648 1.369 . S
C649 C650 1.410 1_545 S
C649 C657 1.503 1_545 S
C650 C649 1.410 1_565 S
C650 C651 1.392 1_565 S
C650 C653 1.511 . S
C651 C647 1.376 . S
C651 C650 1.392 1_545 S
C651 H663 0.929 . S
C652 C648 1.531 . S
C652 H664 0.960 . S
C652 H665 0.962 . S
C652 H666 0.960 . S
C653 C650 1.511 . S
C653 H667 0.961 . S
C653 H668 0.961 . S
C653 H669 0.961 . S
C654 C655 1.370 . S
C654 C656 1.363 . S
C654 H670 0.931 . S
C655 C654 1.370 . S
C655 C659 1.408 . S
C656 C654 1.363 . S
C656 C657 1.370 . S
C656 C660 1.524 1_565 S
C657 C649 1.503 1_565 S
C657 C656 1.370 . S
C657 C658 1.403 . S
C658 C657 1.403 . S
C658 C659 1.404 . S
C658 C661 1.539 . S
C659 C655 1.408 . S
C659 C658 1.404 . S
C659 H671 0.930 . S
C660 C656 1.524 1_545 S
C660 H672 0.956 . S
C660 H673 0.961 1_545 S
C660 H674 0.961 1_545 S
C661 C658 1.539 . S
C661 H675 0.958 . S
C661 H676 0.961 . S
C661 H677 0.960 . S
H662 C646 0.931 . S
H663 C651 0.929 . S
H664 C652 0.960 . S
H665 C652 0.962 . S
H666 C652 0.960 . S
H667 C653 0.961 . S
H668 C653 0.961 . S
H669 C653 0.961 . S
H670 C654 0.931 . S
H671 C659 0.930 . S
H672 C660 0.956 . S
H673 C660 0.961 1_565 S
H674 C660 0.961 1_565 S
H675 C661 0.958 . S
H676 C661 0.961 . S
H677 C661 0.960 . S
C199 N68 1.184 . S
C207 C18 1.257 . S
C231 C51 1.259 . S
C239 N2 1.186 . S
C263 C84 1.269 . S
C271 N35 1.170 . S
C295 C117 1.268 . S
C303 N134 1.171 . S
C327 N167 1.194 . S
C335 C150 1.255 . S
C359 N101 1.136 . S
C367 C183 1.264 . S
C391 C153 0.672 . S
C399 C21 0.671 . S
C423 C186 0.680 . S
C431 C54 0.670 . S
C455 C120 0.666 . S
C463 C87 0.674 . S
C487 C106 1.532 . S
C495 C7 1.555 . S
C519 C139 1.580 . S
C527 C40 1.538 . S
C551 C73 1.533 . S
C559 C172 1.554 . S
C583 N145 1.984 . S
C591 N13 1.988 . S
C615 N46 1.992 . S
C623 N178 1.992 . S
C647 N112 1.995 . S
C655 N79 1.994 . S
