# Generated by pormake.
# Topology zfn, (5)-cn, num edge types: 1
# Building blocks:
#     Node 0, Type 0, BuildingBlock: XOMCOT_clean_sbu_0, # of connection points: 5
#     Node 1, Type 0, BuildingBlock: XOMCOT_clean_sbu_0, # of connection points: 5
#     Node 2, Type 0, BuildingBlock: XOMCOT_clean_sbu_0, # of connection points: 5
#     Node 3, Type 0, BuildingBlock: XOMCOT_clean_sbu_0, # of connection points: 5
#     Node 4, Type 0, BuildingBlock: XOMCOT_clean_sbu_0, # of connection points: 5
#     Node 5, Type 0, BuildingBlock: XOMCOT_clean_sbu_0, # of connection points: 5
#     Node 6, Type 0, BuildingBlock: XOMCOT_clean_sbu_0, # of connection points: 5
#     Node 7, Type 0, BuildingBlock: XOMCOT_clean_sbu_0, # of connection points: 5
#     Node 8, Type 0, BuildingBlock: XOMCOT_clean_sbu_0, # of connection points: 5
#     Node 9, Type 0, BuildingBlock: XOMCOT_clean_sbu_0, # of connection points: 5
#     Node 10, Type 0, BuildingBlock: XOMCOT_clean_sbu_0, # of connection points: 5
#     Node 11, Type 0, BuildingBlock: XOMCOT_clean_sbu_0, # of connection points: 5
#     Node 12, Type 0, BuildingBlock: XOMCOT_clean_sbu_0, # of connection points: 5
#     Node 13, Type 0, BuildingBlock: XOMCOT_clean_sbu_0, # of connection points: 5
#     Node 14, Type 0, BuildingBlock: XOMCOT_clean_sbu_0, # of connection points: 5
#     Node 15, Type 0, BuildingBlock: XOMCOT_clean_sbu_0, # of connection points: 5
#     Edge 16, Type (0, 0), BuildingBlock: AJUNOK_clean_linker_0, # of connection points: 2
#     Edge 17, Type (0, 0), BuildingBlock: AJUNOK_clean_linker_0, # of connection points: 2
#     Edge 18, Type (0, 0), BuildingBlock: AJUNOK_clean_linker_0, # of connection points: 2
#     Edge 19, Type (0, 0), BuildingBlock: AJUNOK_clean_linker_0, # of connection points: 2
#     Edge 20, Type (0, 0), BuildingBlock: AJUNOK_clean_linker_0, # of connection points: 2
#     Edge 21, Type (0, 0), BuildingBlock: AJUNOK_clean_linker_0, # of connection points: 2
#     Edge 22, Type (0, 0), BuildingBlock: AJUNOK_clean_linker_0, # of connection points: 2
#     Edge 23, Type (0, 0), BuildingBlock: AJUNOK_clean_linker_0, # of connection points: 2
#     Edge 24, Type (0, 0), BuildingBlock: AJUNOK_clean_linker_0, # of connection points: 2
#     Edge 25, Type (0, 0), BuildingBlock: AJUNOK_clean_linker_0, # of connection points: 2
#     Edge 26, Type (0, 0), BuildingBlock: AJUNOK_clean_linker_0, # of connection points: 2
#     Edge 27, Type (0, 0), BuildingBlock: AJUNOK_clean_linker_0, # of connection points: 2
#     Edge 28, Type (0, 0), BuildingBlock: AJUNOK_clean_linker_0, # of connection points: 2
#     Edge 29, Type (0, 0), BuildingBlock: AJUNOK_clean_linker_0, # of connection points: 2
#     Edge 30, Type (0, 0), BuildingBlock: AJUNOK_clean_linker_0, # of connection points: 2
#     Edge 31, Type (0, 0), BuildingBlock: AJUNOK_clean_linker_0, # of connection points: 2
#     Edge 32, Type (0, 0), BuildingBlock: AJUNOK_clean_linker_0, # of connection points: 2
#     Edge 33, Type (0, 0), BuildingBlock: AJUNOK_clean_linker_0, # of connection points: 2
#     Edge 34, Type (0, 0), BuildingBlock: AJUNOK_clean_linker_0, # of connection points: 2
#     Edge 35, Type (0, 0), BuildingBlock: AJUNOK_clean_linker_0, # of connection points: 2
#     Edge 36, Type (0, 0), BuildingBlock: AJUNOK_clean_linker_0, # of connection points: 2
#     Edge 37, Type (0, 0), BuildingBlock: AJUNOK_clean_linker_0, # of connection points: 2
#     Edge 38, Type (0, 0), BuildingBlock: AJUNOK_clean_linker_0, # of connection points: 2
#     Edge 39, Type (0, 0), BuildingBlock: AJUNOK_clean_linker_0, # of connection points: 2
#     Edge 40, Type (0, 0), BuildingBlock: AJUNOK_clean_linker_0, # of connection points: 2
#     Edge 41, Type (0, 0), BuildingBlock: AJUNOK_clean_linker_0, # of connection points: 2
#     Edge 42, Type (0, 0), BuildingBlock: AJUNOK_clean_linker_0, # of connection points: 2
#     Edge 43, Type (0, 0), BuildingBlock: AJUNOK_clean_linker_0, # of connection points: 2
#     Edge 44, Type (0, 0), BuildingBlock: AJUNOK_clean_linker_0, # of connection points: 2
#     Edge 45, Type (0, 0), BuildingBlock: AJUNOK_clean_linker_0, # of connection points: 2
#     Edge 46, Type (0, 0), BuildingBlock: AJUNOK_clean_linker_0, # of connection points: 2
#     Edge 47, Type (0, 0), BuildingBlock: AJUNOK_clean_linker_0, # of connection points: 2
#     Edge 48, Type (0, 0), BuildingBlock: AJUNOK_clean_linker_0, # of connection points: 2
#     Edge 49, Type (0, 0), BuildingBlock: AJUNOK_clean_linker_0, # of connection points: 2
#     Edge 50, Type (0, 0), BuildingBlock: AJUNOK_clean_linker_0, # of connection points: 2
#     Edge 51, Type (0, 0), BuildingBlock: AJUNOK_clean_linker_0, # of connection points: 2
#     Edge 52, Type (0, 0), BuildingBlock: AJUNOK_clean_linker_0, # of connection points: 2
#     Edge 53, Type (0, 0), BuildingBlock: AJUNOK_clean_linker_0, # of connection points: 2
#     Edge 54, Type (0, 0), BuildingBlock: AJUNOK_clean_linker_0, # of connection points: 2
#     Edge 55, Type (0, 0), BuildingBlock: AJUNOK_clean_linker_0, # of connection points: 2
# Relax obj value: 0.132
# Max RMSD: 0.136
# Mean RMSD: 0.136
data_MOF--net-zfn--node1-XOMCOT_clean_sbu_0--edge1-AJUNOK_clean_linker_0
_symmetry_space_group_name_H-M    P1
_symmetry_Int_Tables_number       1
_symmetry_cell_setting            triclinic
loop_
_symmetry_equiv_pos_as_xyz
'x, y, z'
_cell_length_a     56.586296
_cell_length_b     56.602923
_cell_length_c     13.613643
_cell_angle_alpha  89.931747
_cell_angle_beta   89.972041
_cell_angle_gamma 89.885526
loop_
_atom_site_label
_atom_site_type_symbol
_atom_site_fract_x
_atom_site_fract_y
_atom_site_fract_z
_atom_type_partial_charge
Co0 Co 0.03203 0.34125 0.17708 0.0
C1 C 0.03108 0.34424 0.39684 0.0
C2 C 0.06527 0.3514 0.33668 0.0
C3 C 0.06701 0.35169 0.43737 0.0
N4 N 0.04256 0.34754 0.31074 0.0
N5 N 0.04547 0.34725 0.47491 0.0
H6 H 0.01302 0.33845 0.40339 0.0
H7 H 0.07988 0.35281 0.28582 0.0
C8 C 0.05919 0.38586 0.1592 0.0
O9 O 0.04701 0.39312 0.23576 0.0
N10 N 0.02228 0.33429 0.04451 0.0
C11 C 1.00056 0.3276 1.01535 0.0
C12 C 1.00009 0.3271 0.9142 0.0
C13 C 0.03478 0.3376 0.96137 0.0
N14 N 0.02154 0.33364 0.88053 0.0
C15 C 0.98884 0.36333 0.24671 0.0
C16 C 0.98873 0.39975 0.11129 0.0
C17 C 0.97077 0.39899 0.18197 0.0
C18 C 0.97069 0.38018 0.24911 0.0
C19 C 0.00639 0.38253 0.11126 0.0
N20 N 0.00717 0.36533 0.18199 0.0
H21 H 0.98753 0.34822 0.29427 0.0
H22 H 0.01939 0.383 0.05323 0.0
H23 H 0.98586 0.32423 0.06416 0.0
H24 H 0.05306 0.34307 0.96012 0.0
O25 O 0.01433 0.31434 0.22375 0.0
O26 O 0.05189 0.31338 0.17787 0.0
O27 O 0.0557 0.36509 0.12523 0.0
C28 C 0.03362 0.30209 0.21221 0.0
H29 H 0.08309 0.35367 0.4796 0.0
H30 H 0.98489 0.32319 0.86885 0.0
H31 H 0.98917 0.41356 0.05617 0.0
H32 H 0.95639 0.37809 0.30125 0.0
Co33 Co 0.1646 0.03206 0.67383 0.0
C34 C 0.16339 0.03228 0.89053 0.0
C35 C 0.15455 0.06629 0.83057 0.0
C36 C 0.1546 0.06791 0.93156 0.0
N37 N 0.1599 0.04393 0.80523 0.0
N38 N 0.16013 0.04651 0.96895 0.0
H39 H 0.16841 0.01384 0.89504 0.0
H40 H 0.15149 0.08058 0.77931 0.0
C41 C 0.12264 0.04971 0.56459 0.0
O42 O 0.12031 0.02781 0.53397 0.0
N43 N 0.17023 0.02087 0.5398 0.0
C44 C 0.17984 1.00031 0.50899 0.0
C45 C 0.18106 1.00039 0.40788 0.0
C46 C 0.16744 0.0337 0.45664 0.0
N47 N 0.17288 0.02131 0.37493 0.0
C48 C 0.14625 0.98461 0.69313 0.0
C49 C 0.10124 0.9976 0.7509 0.0
C50 C 0.10617 0.97364 0.73513 0.0
C51 C 0.12917 0.96718 0.70793 0.0
C52 C 0.1189 0.01443 0.73539 0.0
N53 N 0.14064 0.008 0.70015 0.0
H54 H 0.16405 0.97915 0.67786 0.0
H55 H 0.1149 0.03277 0.74994 0.0
H56 H 0.18656 0.98643 0.55554 0.0
H57 H 0.16208 0.05204 0.45599 0.0
O58 O 0.19199 0.01494 0.71862 0.0
O59 O 0.19253 0.05171 0.66244 0.0
O60 O 0.13972 0.05496 0.6224 0.0
C61 C 0.20414 0.03385 0.69935 0.0
H62 H 0.15165 0.0838 0.97402 0.0
H63 H 0.18746 0.9861 0.36222 0.0
H64 H 0.0839 0.00327 0.7751 0.0
H65 H 0.1339 0.94883 0.69679 0.0
Co66 Co 0.4731 0.16262 0.16113 0.0
C67 C 0.47358 0.16182 0.37793 0.0
C68 C 0.44112 0.14779 0.32124 0.0
C69 C 0.43979 0.14819 0.42244 0.0
N70 N 0.46236 0.15623 0.29363 0.0
N71 N 0.4601 0.15728 0.45761 0.0
H72 H 0.49112 0.16936 0.38081 0.0
H73 H 0.42726 0.14238 0.27148 0.0
C74 C 0.45656 0.12068 0.04999 0.0
O75 O 0.47826 0.11943 1.01592 0.0
N76 N 0.48324 0.17015 0.02688 0.0
C77 C 0.50228 0.18283 0.99851 0.0
C78 C 0.5022 0.18516 0.89785 0.0
C79 C 0.47104 0.16655 0.9426 0.0
N80 N 0.48254 0.17481 0.86269 0.0
C81 C 0.52122 0.14457 0.16093 0.0
C82 C 0.50979 0.09957 0.22391 0.0
C83 C 0.53314 0.10437 0.19653 0.0
C84 C 0.53889 0.12733 0.16664 0.0
C85 C 0.49267 0.1173 0.21657 0.0
N86 N 0.49816 0.13912 0.17955 0.0
H87 H 0.52626 0.16229 0.1426 0.0
H88 H 0.47471 0.11315 0.2372 0.0
H89 H 0.51511 0.19072 0.04701 0.0
H90 H 0.45376 0.15851 0.93919 0.0
O91 O 0.4895 0.19011 0.20866 0.0
O92 O 0.45234 0.18987 0.15715 0.0
O93 O 0.45082 0.13749 0.10838 0.0
C94 C 0.46998 0.20174 0.19379 0.0
H95 H 0.42474 0.14306 0.46664 0.0
H96 H 0.51578 0.19357 0.85418 0.0
H97 H 0.50463 0.0821 0.24827 0.0
H98 H 0.55694 0.13195 0.14851 0.0
Co99 Co 0.33949 0.47311 0.67127 0.0
C100 C 0.34217 0.47434 0.88752 0.0
C101 C 0.35283 0.44053 0.83153 0.0
C102 C 0.35293 0.43959 0.9328 0.0
N103 N 0.34617 0.46235 0.80345 0.0
N104 N 0.34621 0.46087 0.96797 0.0
H105 H 0.33524 0.49215 0.8893 0.0
H106 H 0.35654 0.42606 0.78211 0.0
C107 C 0.38054 0.45511 0.55618 0.0
O108 O 0.38287 0.47693 0.52442 0.0
N109 N 0.33174 0.48348 0.53724 0.0
C110 C 0.31979 0.50312 0.50992 0.0
C111 C 0.3183 0.50396 0.40905 0.0
C112 C 0.33551 0.47176 0.45176 0.0
N113 N 0.32852 0.48436 0.37265 0.0
C114 C 0.35757 0.52088 0.67271 0.0
C115 C 0.4032 0.50926 0.72693 0.0
C116 C 0.39809 0.53261 0.70022 0.0
C117 C 0.37476 0.53851 0.67625 0.0
C118 C 0.38545 0.49213 0.72167 0.0
N119 N 0.36335 0.49775 0.68791 0.0
H120 H 0.33963 0.526 0.65881 0.0
H121 H 0.38975 0.47411 0.74121 0.0
H122 H 0.31185 0.51579 0.55913 0.0
H123 H 0.34331 0.45438 0.4465 0.0
O124 O 0.31251 0.49013 0.72055 0.0
O125 O 0.31178 0.45297 0.66943 0.0
O126 O 0.36394 0.45012 0.61688 0.0
C127 C 0.30041 0.47092 0.70674 0.0
H128 H 0.35719 0.42428 0.97708 0.0
H129 H 0.30998 0.51772 0.36586 0.0
H130 H 0.42089 0.50414 0.74875 0.0
H131 H 0.36984 0.55663 0.66052 0.0
Co132 Co 0.03289 0.16353 0.36035 0.0
C133 C 0.03233 0.16084 0.14039 0.0
C134 C 0.06612 0.1523 0.20132 0.0
C135 C 0.06805 0.15216 0.10066 0.0
N136 N 0.0435 0.15694 0.2268 0.0
N137 N 0.04675 0.15745 0.06253 0.0
H138 H 0.01452 0.16739 0.13358 0.0
H139 H 0.0806 0.15032 0.25244 0.0
C140 C 0.05968 0.11862 0.38204 0.0
O141 O 0.0475 0.11107 0.30609 0.0
N142 N 0.02317 0.17074 0.49285 0.0
C143 C 1.00142 0.17727 0.52264 0.0
C144 C 1.00114 0.17789 0.62384 0.0
C145 C 0.03587 0.16769 0.57562 0.0
N146 N 0.02274 0.17159 0.6569 0.0
C147 C 0.99015 0.14132 0.28887 0.0
C148 C 0.98903 0.10565 0.4276 0.0
C149 C 0.97162 0.10615 0.35465 0.0
C150 C 0.97204 0.12455 0.28574 0.0
C151 C 0.00679 0.12273 0.42788 0.0
N152 N 0.00803 0.13956 0.35578 0.0
H153 H 0.98916 0.15616 0.23985 0.0
H154 H 0.01952 0.12242 0.48695 0.0
H155 H 0.98657 0.1804 0.4743 0.0
H156 H 0.05424 0.1624 0.57627 0.0
O157 O 0.01508 0.19031 0.313 0.0
O158 O 0.05265 0.19142 0.35865 0.0
O159 O 0.0565 0.13968 0.41345 0.0
C160 C 0.03427 0.20262 0.32424 0.0
H161 H 0.08416 0.14973 0.05899 0.0
H162 H 0.98596 0.18164 0.66966 0.0
H163 H 0.989 0.09213 0.48399 0.0
H164 H 0.95815 0.12634 0.2315 0.0
Co165 Co 0.34225 0.03205 0.85326 0.0
C166 C 0.34398 0.03081 0.63398 0.0
C167 C 0.35602 0.0638 0.69139 0.0
C168 C 0.35523 0.06551 0.59067 0.0
N169 N 0.3498 0.04172 0.71905 0.0
N170 N 0.34745 0.04481 0.55488 0.0
H171 H 0.33598 0.01356 0.62965 0.0
H172 H 0.35953 0.07826 0.74101 0.0
C173 C 0.38779 0.05696 0.8771 0.0
O174 O 0.3951 0.04401 0.80295 0.0
N175 N 0.33378 0.02312 0.98587 0.0
C176 C 0.32514 0.00202 1.01415 0.0
C177 C 0.32317 0.0018 0.11494 0.0
C178 C 0.33689 0.0355 0.06952 0.0
N179 N 0.33054 0.02285 0.14959 0.0
C180 C 0.36598 0.98948 0.78447 0.0
C181 C 0.39888 0.98785 0.93447 0.0
C182 C 0.40031 0.9711 0.85922 0.0
C183 C 0.3832 0.97167 0.78476 0.0
C184 C 0.38142 0.00525 0.93142 0.0
N185 N 0.36596 0.00676 0.85431 0.0
H186 H 0.35249 0.98896 0.72916 0.0
H187 H 0.38056 0.01775 0.99117 0.0
H188 H 0.32144 0.98746 0.96516 0.0
H189 H 0.34417 0.05315 0.07216 0.0
O190 O 0.31555 0.0145 0.80461 0.0
O191 O 0.31468 0.05234 0.84615 0.0
O192 O 0.36634 0.05534 0.9064 0.0
C193 C 0.30346 0.03399 0.81218 0.0
H194 H 0.35871 0.08119 0.54741 0.0
H195 H 0.31789 0.98686 0.15948 0.0
H196 H 0.41104 0.98742 0.99589 0.0
H197 H 0.3832 0.95855 0.7269 0.0
Co198 Co 0.46733 0.33996 0.34345 0.0
C199 C 0.46775 0.34068 0.12381 0.0
C200 C 0.43433 0.35132 0.18239 0.0
C201 C 0.43243 0.35024 0.08172 0.0
N202 N 0.45676 0.3462 0.2092 0.0
N203 N 0.45343 0.34334 0.04521 0.0
H204 H 0.48537 0.33355 0.11881 0.0
H205 H 0.41987 0.35442 0.23266 0.0
C206 C 0.44024 0.38464 0.36422 0.0
O207 O 0.45242 0.392 0.28786 0.0
N208 N 0.47717 0.33279 0.47615 0.0
C209 C 0.49891 0.32589 0.50465 0.0
C210 C 0.49916 0.32388 0.6055 0.0
C211 C 0.46445 0.33477 0.55956 0.0
N212 N 0.47748 0.32945 0.63978 0.0
C213 C 0.50914 0.36351 0.26895 0.0
C214 C 0.51063 0.39804 0.41218 0.0
C215 C 0.52772 0.39819 0.33789 0.0
C216 C 0.52694 0.38059 0.26588 0.0
C217 C 0.49309 0.38075 0.4121 0.0
N218 N 0.49178 0.36433 0.33856 0.0
H219 H 0.50997 0.34921 0.21745 0.0
H220 H 0.48055 0.38055 0.47195 0.0
H221 H 0.51375 0.32326 0.45571 0.0
H222 H 0.44615 0.34027 0.56183 0.0
O223 O 0.48563 0.31353 0.29673 0.0
O224 O 0.44803 0.31171 0.34186 0.0
O225 O 0.44343 0.36359 0.3963 0.0
C226 C 0.46665 0.30088 0.30768 0.0
H227 H 0.41654 0.35305 0.03902 0.0
H228 H 0.5144 0.31969 0.65031 0.0
H229 H 0.5108 0.41118 0.46996 0.0
H230 H 0.5404 0.37962 0.20939 0.0
Co231 Co 0.16243 0.47298 0.86104 0.0
C232 C 0.1614 0.47307 0.64356 0.0
C233 C 0.14739 0.44083 0.70248 0.0
C234 C 0.1478 0.43916 0.60153 0.0
N235 N 0.15586 0.46212 0.72875 0.0
N236 N 0.15693 0.45932 0.56455 0.0
H237 H 0.1694 0.49039 0.63962 0.0
H238 H 0.14181 0.42719 0.75293 0.0
C239 C 0.1214 0.45521 0.97592 0.0
O240 O 0.11935 0.477 1.00823 0.0
N241 N 0.17009 0.48319 0.99517 0.0
C242 C 0.18192 0.50276 0.02365 0.0
C243 C 0.18394 0.50286 0.12448 0.0
C244 C 0.16692 0.47085 0.07957 0.0
N245 N 0.1744 0.4828 0.1595 0.0
C246 C 0.14361 0.52065 0.86179 0.0
C247 C 0.09841 0.50857 0.80391 0.0
C248 C 0.10301 0.53192 0.83168 0.0
C249 C 0.12606 0.53802 0.85863 0.0
C250 C 0.11644 0.49171 0.80923 0.0
N251 N 0.13836 0.49752 0.84417 0.0
H252 H 0.16138 0.52597 0.87745 0.0
H253 H 0.11248 0.4737 0.78895 0.0
H254 H 0.1895 0.5158 0.97521 0.0
H255 H 0.15916 0.45346 0.08316 0.0
O256 O 0.18934 0.49008 0.81212 0.0
O257 O 0.19023 0.45288 0.86317 0.0
O258 O 0.13801 0.45007 0.9155 0.0
C259 C 0.20152 0.47087 0.82603 0.0
H260 H 0.14184 0.42418 0.55898 0.0
H261 H 0.19217 0.51645 0.16862 0.0
H262 H 0.08088 0.50325 0.7811 0.0
H263 H 0.1305 0.55612 0.87655 0.0
Co264 Co 0.97163 0.66452 0.86707 0.0
C265 C 0.97219 0.66298 0.64766 0.0
C266 C 0.93806 0.6547 0.70578 0.0
C267 C 0.93666 0.65463 0.6048 0.0
N268 N 0.96061 0.65895 0.73315 0.0
N269 N 0.95817 0.65983 0.56878 0.0
H270 H 0.99009 0.66931 0.64206 0.0
H271 H 0.92331 0.65275 0.75554 0.0
C272 C 0.9406 0.62196 0.89135 0.0
O273 O 0.95113 0.61264 0.81449 0.0
N274 N 0.98221 0.67077 0.99977 0.0
C275 C 0.00406 0.67745 0.02757 0.0
C276 C 0.0049 0.6782 0.12883 0.0
C277 C 0.97006 0.6676 0.08407 0.0
N278 N 0.98359 0.67174 0.1639 0.0
C279 C 0.01266 0.64025 0.79248 0.0
C280 C 0.01194 0.60321 0.92469 0.0
C281 C 0.02919 0.60344 0.85089 0.0
C282 C 0.02967 0.62246 0.78529 0.0
C283 C 0.99505 0.62127 0.92846 0.0
N284 N 0.99479 0.63893 0.85964 0.0
H285 H 0.01454 0.65551 0.74628 0.0
H286 H 0.98238 0.62117 0.98779 0.0
H287 H 0.01857 0.68087 0.9778 0.0
H288 H 0.95176 0.66227 0.08731 0.0
O289 O 0.991 0.69003 0.81953 0.0
O290 O 0.95373 0.69379 0.86675 0.0
O291 O 0.94656 0.64252 0.92136 0.0
C292 C 0.97271 0.70367 0.83136 0.0
H293 H 0.92087 0.65205 0.56128 0.0
H294 H 0.02019 0.68233 0.17332 0.0
H295 H 0.01151 0.5892 0.97892 0.0
H296 H 0.04352 0.62393 0.73068 0.0
Co297 Co 0.84151 0.97208 0.37092 0.0
C298 C 0.84237 0.97215 0.15108 0.0
C299 C 0.85283 0.93883 0.21127 0.0
C300 C 0.85213 0.9368 0.11067 0.0
N301 N 0.84751 0.96126 0.23707 0.0
N302 N 0.84538 0.95775 0.07298 0.0
H303 H 0.83481 0.98959 0.14509 0.0
H304 H 0.85611 0.92452 0.26211 0.0
C305 C 0.88646 0.94535 0.39178 0.0
O306 O 0.89385 0.95749 0.31535 0.0
N307 N 0.83474 0.98214 0.50352 0.0
C308 C 0.82789 0.0039 0.53173 0.0
C309 C 0.82666 0.00442 0.63274 0.0
C310 C 0.83741 0.96964 0.58721 0.0
N311 N 0.8326 0.98287 0.6674 0.0
C312 C 0.86398 0.01419 0.29468 0.0
C313 C 0.89959 0.01608 0.43323 0.0
C314 C 0.8991 0.03311 0.35856 0.0
C315 C 0.88073 0.03227 0.28973 0.0
C316 C 0.88249 0.99834 0.43546 0.0
N317 N 0.86563 0.99675 0.36369 0.0
H318 H 0.84923 0.01486 0.2452 0.0
H319 H 0.88281 0.98588 0.4956 0.0
H320 H 0.82467 0.01855 0.48236 0.0
H321 H 0.84368 0.95159 0.58958 0.0
O322 O 0.81487 0.99014 0.32496 0.0
O323 O 0.81325 0.95264 0.37145 0.0
O324 O 0.86538 0.94839 0.42357 0.0
C325 C 0.80223 0.97126 0.3381 0.0
H326 H 0.85603 0.92101 0.06892 0.0
H327 H 0.82204 0.01955 0.67739 0.0
H328 H 0.91312 0.01641 0.48948 0.0
H329 H 0.87893 0.04585 0.23406 0.0
Co330 Co 0.53318 0.83906 0.86981 0.0
C331 C 0.53258 0.84015 0.65081 0.0
C332 C 0.56509 0.85352 0.70801 0.0
C333 C 0.56678 0.85265 0.60717 0.0
N334 N 0.54331 0.8464 0.73585 0.0
N335 N 0.54638 0.84404 0.57148 0.0
H336 H 0.5155 0.83179 0.64669 0.0
H337 H 0.57944 0.85768 0.75725 0.0
C338 C 0.56081 0.88332 0.90413 0.0
O339 O 0.54817 0.89362 0.83536 0.0
N340 N 0.52368 0.831 1.00234 0.0
C341 C 0.50229 0.82309 0.03067 0.0
C342 C 0.50201 0.82119 0.1316 0.0
C343 C 0.53613 0.83376 0.08612 0.0
N344 N 0.52329 0.82791 0.16622 0.0
C345 C 0.4919 0.8637 0.79763 0.0
C346 C 0.48994 0.89712 0.94515 0.0
C347 C 0.47343 0.89831 0.86859 0.0
C348 C 0.47426 0.88099 0.79533 0.0
C349 C 0.50725 0.87947 0.94472 0.0
N350 N 0.50889 0.86372 0.86877 0.0
H351 H 0.49141 0.85 0.74332 0.0
H352 H 0.51946 0.87859 1.00558 0.0
H353 H 0.48763 0.81979 0.98163 0.0
H354 H 0.55405 0.84037 0.08891 0.0
O355 O 0.5145 0.81327 0.82055 0.0
O356 O 0.55214 0.81048 0.86334 0.0
O357 O 0.5576 0.86155 0.92522 0.0
C358 C 0.53327 0.80015 0.82923 0.0
H359 H 0.58228 0.85678 0.56378 0.0
H360 H 0.48693 0.81635 0.17622 0.0
H361 H 0.4893 0.90953 1.00561 0.0
H362 H 0.4614 0.88082 0.73641 0.0
Co363 Co 0.66083 0.52833 0.35809 0.0
C364 C 0.6598 0.52825 0.14062 0.0
C365 C 0.64575 0.56053 0.19935 0.0
C366 C 0.64614 0.56221 0.09836 0.0
N367 N 0.65427 0.53921 0.22575 0.0
N368 N 0.65529 0.54203 0.06153 0.0
H369 H 0.6678 0.5109 0.13675 0.0
H370 H 0.64013 0.57417 0.24976 0.0
C371 C 0.6198 0.54652 0.47191 0.0
O372 O 0.61796 0.52485 0.50575 0.0
N373 N 0.66844 0.51806 0.49235 0.0
C374 C 0.67999 0.4983 0.52121 0.0
C375 C 0.68199 0.4982 0.62203 0.0
C376 C 0.66536 0.53047 0.57654 0.0
N377 N 0.67268 0.51843 0.6567 0.0
C378 C 0.64226 0.48087 0.35679 0.0
C379 C 0.59672 0.49279 0.30258 0.0
C380 C 0.60173 0.46939 0.32902 0.0
C381 C 0.625 0.46335 0.35302 0.0
C382 C 0.61457 0.50981 0.30793 0.0
N383 N 0.63663 0.50404 0.34175 0.0
H384 H 0.66018 0.47562 0.37052 0.0
H385 H 0.61039 0.52784 0.28833 0.0
H386 H 0.6874 0.48509 0.47313 0.0
H387 H 0.65771 0.54794 0.57979 0.0
O388 O 0.68728 0.5106 0.30931 0.0
O389 O 0.68914 0.54781 0.35908 0.0
O390 O 0.63663 0.55167 0.41246 0.0
C391 C 0.69999 0.52936 0.323 0.0
H392 H 0.64015 0.5772 0.05569 0.0
H393 H 0.69003 0.48449 0.66642 0.0
H394 H 0.57906 0.49799 0.28072 0.0
H395 H 0.62983 0.44519 0.36847 0.0
Co396 Co 0.97516 0.84213 0.68454 0.0
C397 C 0.97517 0.84372 0.90122 0.0
C398 C 0.9411 0.85246 0.84165 0.0
C399 C 0.93951 0.85237 0.94262 0.0
N400 N 0.96348 0.84719 0.81604 0.0
N401 N 0.96094 0.8469 0.97977 0.0
H402 H 0.99361 0.83868 0.90556 0.0
H403 H 0.92676 0.85537 0.79059 0.0
C404 C 0.9565 0.88348 0.57368 0.0
O405 O 0.97829 0.88615 0.5421 0.0
N406 N 0.98616 0.83612 0.55042 0.0
C407 C 0.00672 0.82646 0.51962 0.0
C408 C 0.00665 0.82519 0.41854 0.0
C409 C 0.97332 0.83882 0.46729 0.0
N410 N 0.98573 0.83337 0.3856 0.0
C411 C 0.02237 0.86096 0.69994 0.0
C412 C 0.00936 0.90607 0.75552 0.0
C413 C 0.03332 0.90115 0.73918 0.0
C414 C 0.03977 0.87811 0.71294 0.0
C415 C 0.99253 0.88832 0.74178 0.0
N416 N 0.99897 0.86649 0.70771 0.0
H417 H 0.02788 0.84315 0.68557 0.0
H418 H 0.97419 0.89229 0.75685 0.0
H419 H 0.02062 0.8198 0.56619 0.0
H420 H 0.95498 0.84416 0.4666 0.0
O421 O 0.99293 0.81539 0.73074 0.0
O422 O 0.95604 0.81369 0.67667 0.0
O423 O 0.95167 0.86641 0.63234 0.0
C424 C 0.97433 0.80268 0.7132 0.0
H425 H 0.9236 0.85519 0.98524 0.0
H426 H 0.02097 0.81882 0.37288 0.0
H427 H 0.0037 0.92347 0.77889 0.0
H428 H 0.05811 0.87337 0.70122 0.0
Co429 Co 0.66393 0.97052 0.18403 0.0
C430 C 0.66304 0.97081 0.40315 0.0
C431 C 0.65044 0.93807 0.34542 0.0
C432 C 0.65141 0.93627 0.44626 0.0
N433 N 0.65699 0.96005 0.31795 0.0
N434 N 0.65955 0.95683 0.48228 0.0
H435 H 0.67102 0.98805 0.40756 0.0
H436 H 0.64655 0.92371 0.29583 0.0
C437 C 0.61991 0.94241 0.15074 0.0
O438 O 0.60994 0.95446 0.22214 0.0
N439 N 0.67158 0.9803 0.05148 0.0
C440 C 0.6788 0.00191 0.02289 0.0
C441 C 0.68067 0.00218 0.92193 0.0
C442 C 0.6692 0.96771 0.96788 0.0
N443 N 0.67463 0.98067 0.88758 0.0
C444 C 0.63944 0.01156 0.25799 0.0
C445 C 0.60539 0.01368 0.11288 0.0
C446 C 0.6046 0.03012 0.18964 0.0
C447 C 0.62218 0.02918 0.26178 0.0
C448 C 0.62295 0.99624 0.11221 0.0
N449 N 0.63907 0.99458 0.1869 0.0
H450 H 0.65352 0.0122 0.31057 0.0
H451 H 0.62354 0.98403 0.05131 0.0
H452 H 0.68168 0.01667 0.07178 0.0
H453 H 0.66321 0.94958 0.9654 0.0
O454 O 0.68963 0.98933 0.23305 0.0
O455 O 0.69273 0.95183 0.189 0.0
O456 O 0.64154 0.94607 0.12838 0.0
C457 C 0.70291 0.97071 0.22376 0.0
H458 H 0.64766 0.92064 0.4894 0.0
H459 H 0.68504 0.01736 0.8771 0.0
H460 H 0.59249 0.01421 0.05414 0.0
H461 H 0.62294 0.04233 0.31944 0.0
Co462 Co 0.53308 0.66164 0.68023 0.0
C463 C 0.5328 0.66134 0.89977 0.0
C464 C 0.566 0.64996 0.84136 0.0
C465 C 0.5679 0.65104 0.94203 0.0
N466 N 0.54368 0.65555 0.81449 0.0
N467 N 0.54704 0.65838 0.97841 0.0
H468 H 0.51531 0.66881 0.90468 0.0
H469 H 0.58039 0.64647 0.79118 0.0
C470 C 0.55957 0.61673 0.65882 0.0
O471 O 0.54754 0.60953 0.73581 0.0
N472 N 0.52322 0.66866 0.54745 0.0
C473 C 0.50162 0.67602 0.51911 0.0
C474 C 0.50137 0.67802 0.41828 0.0
C475 C 0.53585 0.66633 0.46394 0.0
N476 N 0.52291 0.67197 0.38385 0.0
C477 C 0.49145 0.63804 0.75629 0.0
C478 C 0.48941 0.60362 0.61271 0.0
C479 C 0.47252 0.60346 0.68787 0.0
C480 C 0.4736 0.62101 0.76005 0.0
C481 C 0.507 0.62089 0.61203 0.0
N482 N 0.50859 0.63726 0.68574 0.0
H483 H 0.49081 0.65227 0.80811 0.0
H484 H 0.51937 0.62108 0.55161 0.0
H485 H 0.48689 0.67906 0.56818 0.0
H486 H 0.55403 0.66037 0.46153 0.0
O487 O 0.51469 0.688 0.7264 0.0
O488 O 0.55226 0.69009 0.68133 0.0
O489 O 0.55698 0.63792 0.62757 0.0
C490 C 0.53347 0.70086 0.71444 0.0
H491 H 0.5837 0.64783 0.98485 0.0
H492 H 0.48622 0.68261 0.3736 0.0
H493 H 0.48905 0.59051 0.55485 0.0
H494 H 0.46032 0.62198 0.81728 0.0
Co495 Co 0.83744 0.53048 0.15764 0.0
C496 C 0.8417 0.52999 0.37667 0.0
C497 C 0.84468 0.56488 0.31763 0.0
C498 C 0.84477 0.56635 0.41877 0.0
N499 N 0.84338 0.54197 0.29074 0.0
N500 N 0.84301 0.54434 0.45578 0.0
H501 H 0.83752 0.51151 0.38233 0.0
H502 H 0.84455 0.57965 0.26717 0.0
C503 C 0.87907 0.56284 0.12935 0.0
O504 O 0.88819 0.55504 0.21198 0.0
N505 N 0.83098 0.51943 0.02573 0.0
C506 C 0.82717 0.49689 0.99858 0.0
C507 C 0.82714 0.49573 0.89741 0.0
C508 C 0.83283 0.53174 0.94093 0.0
N509 N 0.83101 0.51761 0.86131 0.0
C510 C 0.86057 0.48838 0.22841 0.0
C511 C 0.89932 0.49044 0.10547 0.0
C512 C 0.89786 0.47202 0.17399 0.0
C513 C 0.87798 0.47093 0.23497 0.0
C514 C 0.88155 0.50762 0.10188 0.0
N515 N 0.863 0.5072 0.16634 0.0
H516 H 0.84466 0.48603 0.27046 0.0
H517 H 0.88245 0.52076 0.04479 0.0
H518 H 0.82551 0.48218 0.04884 0.0
H519 H 0.8365 0.55047 0.93734 0.0
O520 O 0.81193 0.51147 0.20766 0.0
O521 O 0.80821 0.54849 0.15749 0.0
O522 O 0.85913 0.55519 0.09934 0.0
C523 C 0.79835 0.52976 0.19508 0.0
H524 H 0.8454 0.58242 0.46169 0.0
H525 H 0.82484 0.47991 0.85391 0.0
H526 H 0.91398 0.49148 0.05449 0.0
H527 H 0.8755 0.45625 0.28507 0.0
C528 C 0.94112 0.42433 0.09374 0.0
C529 C 0.95184 0.41731 0.18252 0.0
C530 C 0.92376 0.44203 0.09162 0.0
C531 C 0.91634 0.45336 0.17823 0.0
H532 H 0.94607 0.41595 0.02524 0.0
H533 H 0.9159 0.44671 0.02169 0.0
S534 S 0.93962 0.44253 0.42894 0.0
N535 N 0.95434 0.4238 0.35876 0.0
N536 N 0.92151 0.4569 0.35476 0.0
C537 C 0.92688 0.44657 0.26746 0.0
C538 C 0.94464 0.4286 0.26962 0.0
C539 C 0.06551 0.95907 0.69583 0.0
C540 C 0.08724 0.95559 0.74403 0.0
C541 C 0.04794 0.94163 0.69697 0.0
C542 C 0.05143 0.92005 0.74637 0.0
H543 H 0.06233 0.9751 0.65429 0.0
H544 H 0.03179 0.94477 0.6562 0.0
S545 S 0.10398 0.90345 0.89416 0.0
N546 N 0.11045 0.92981 0.84961 0.0
N547 N 0.07741 0.89704 0.85184 0.0
C548 C 0.07271 0.91672 0.79794 0.0
C549 C 0.09061 0.93447 0.79674 0.0
C550 C 0.58192 0.06307 0.11004 0.0
C551 C 0.58609 0.04875 0.19278 0.0
C552 C 0.56497 0.0812 0.1124 0.0
C553 C 0.55135 0.08545 0.19713 0.0
H554 H 0.59206 0.06046 0.0434 0.0
H555 H 0.5623 0.09179 0.047 0.0
S556 S 0.55525 0.05273 0.43275 0.0
N557 N 0.57507 0.03987 0.36143 0.0
N558 N 0.54325 0.07395 0.36582 0.0
C559 C 0.55525 0.07117 0.28012 0.0
C560 C 0.57263 0.05286 0.278 0.0
C561 C 0.43168 0.55469 0.77762 0.0
C562 C 0.41698 0.55072 0.69603 0.0
C563 C 0.44948 0.57193 0.77475 0.0
C564 C 0.45345 0.5855 0.68962 0.0
H565 H 0.42922 0.54457 0.84445 0.0
H566 H 0.4604 0.57449 0.8392 0.0
S567 S 0.41998 0.58167 0.45603 0.0
N568 N 0.4077 0.56156 0.52759 0.0
N569 N 0.44112 0.5939 0.52218 0.0
C570 C 0.43895 0.58159 0.60746 0.0
C571 C 0.42071 0.56424 0.61072 0.0
C572 C 0.92316 0.06454 0.4408 0.0
C573 C 0.91722 0.05207 0.35492 0.0
C574 C 0.94057 0.08212 0.43984 0.0
C575 C 0.95272 0.08795 0.35294 0.0
H576 H 0.91416 0.06077 0.50931 0.0
H577 H 0.94446 0.09133 0.50764 0.0
S578 S 0.94478 0.05966 0.10957 0.0
N579 N 0.92548 0.04622 0.18137 0.0
N580 N 0.95818 0.07931 0.17956 0.0
C581 C 0.94698 0.07563 0.26656 0.0
C582 C 0.92926 0.0577 0.26755 0.0
C583 C 0.43124 0.91136 0.84941 0.0
C584 C 0.45509 0.91717 0.86604 0.0
C585 C 0.41366 0.92888 0.84648 0.0
C586 C 0.41926 0.95286 0.86008 0.0
H587 H 0.42606 0.89309 0.83992 0.0
H588 H 0.39548 0.92356 0.83509 0.0
S589 S 0.47929 0.97756 0.89729 0.0
N590 N 0.48353 0.94874 0.89056 0.0
N591 N 0.45054 0.98162 0.88495 0.0
C592 C 0.44309 0.95894 0.87509 0.0
C593 C 0.46097 0.94112 0.87815 0.0
C594 C 0.56837 0.4473 0.25024 0.0
C595 C 0.58283 0.45131 0.3325 0.0
C596 C 0.55072 0.4299 0.25216 0.0
C597 C 0.54669 0.41624 0.33697 0.0
H598 H 0.57093 0.45746 0.1836 0.0
H599 H 0.53998 0.42728 0.18724 0.0
S600 S 0.57953 0.4202 0.57203 0.0
N601 N 0.5918 0.44046 0.50121 0.0
N602 N 0.55866 0.40783 0.50485 0.0
C603 C 0.56093 0.42022 0.41981 0.0
C604 C 0.579 0.43773 0.41753 0.0
C605 C 0.06146 0.57935 0.92736 0.0
C606 C 0.0474 0.58462 0.84505 0.0
C607 C 0.07951 0.56238 0.92205 0.0
C608 C 0.08386 0.54981 0.83474 0.0
H609 H 0.05877 0.58874 0.99579 0.0
H610 H 0.09005 0.55893 0.98694 0.0
S611 S 0.05164 0.55667 0.59942 0.0
N612 N 0.0388 0.57576 0.67414 0.0
N613 N 0.07259 0.54366 0.66455 0.0
C614 C 0.06972 0.55468 0.75238 0.0
C615 C 0.05155 0.57216 0.7574 0.0
C616 C 0.07474 0.42661 0.13624 0.0
C617 C 0.0754 0.40265 0.10932 0.0
C618 C 0.08945 0.44324 0.09155 0.0
C619 C 0.10569 0.43675 1.01796 0.0
H620 H 0.06264 0.43278 0.19236 0.0
H621 H 0.08806 0.46139 0.11599 0.0
S622 S 0.11465 0.37615 0.92034 0.0
N623 N 0.09368 0.37312 1.0038 0.0
N624 N 0.12155 0.40449 0.91982 0.0
C625 C 0.10658 0.41283 0.98972 0.0
C626 C 0.0914 0.39578 0.03527 0.0
C627 C 0.08812 0.06104 0.46097 0.0
C628 C 0.10623 0.06802 0.52554 0.0
C629 C 0.07325 0.07756 0.41609 0.0
C630 C 0.07556 0.10188 0.43424 0.0
H631 H 0.08557 0.0426 0.44283 0.0
H632 H 0.05986 0.07107 0.36615 0.0
S633 S 0.11886 0.12958 0.60319 0.0
N634 N 0.12485 0.10105 0.60945 0.0
N635 N 0.09658 0.13219 0.5256 0.0
C636 C 0.09299 0.1092 0.50142 0.0
C637 C 0.10837 0.09227 0.54689 0.0
C638 C 0.41447 0.10873 1.01662 0.0
C639 C 0.4388 0.10342 1.01462 0.0
C640 C 0.3978 0.09333 0.97451 0.0
C641 C 0.40497 0.07223 0.92867 0.0
H642 H 0.40831 0.12519 0.04813 0.0
H643 H 0.37932 0.09836 0.97502 0.0
S644 S 0.46608 0.04838 0.91811 0.0
N645 N 0.46879 0.07419 0.97306 0.0
N646 N 0.43766 0.04557 0.89395 0.0
C647 C 0.42908 0.0662 0.93079 0.0
C648 C 0.44595 0.08172 0.97375 0.0
C649 C 0.40864 0.44182 0.42653 0.0
C650 C 0.39539 0.43633 0.51099 0.0
C651 C 0.42266 0.42488 0.3798 0.0
C652 C 0.42427 0.40157 0.41529 0.0
H653 H 0.40816 0.4594 0.39512 0.0
H654 H 0.43244 0.43032 0.31522 0.0
S655 S 0.39328 0.37792 0.63496 0.0
N656 N 0.38478 0.40582 0.62888 0.0
N657 N 0.41128 0.37384 0.54094 0.0
C658 C 0.41109 0.3957 0.49977 0.0
C659 C 0.39664 0.41308 0.54752 0.0
C660 C 0.90552 0.59766 0.10716 0.0
C661 C 0.89314 0.57867 0.06572 0.0
C662 C 0.92005 0.61216 0.04932 0.0
C663 C 0.92331 0.60779 0.94842 0.0
H664 H 0.90388 0.60136 0.18488 0.0
H665 H 0.92925 0.62653 0.08455 0.0
S666 S 0.89375 0.56087 0.80337 0.0
N667 N 0.88404 0.55694 0.91658 0.0
N668 N 0.91183 0.5837 0.80853 0.0
C669 C 0.91057 0.58912 0.90564 0.0
C670 C 0.89536 0.5747 0.96413 0.0
C671 C 0.94452 0.91812 0.47193 0.0
C672 C 0.93783 0.89953 0.5348 0.0
C673 C 0.92774 0.93273 0.4272 0.0
C674 C 0.90342 0.92968 0.44387 0.0
H675 H 0.96295 0.92128 0.45507 0.0
H676 H 0.93403 0.94652 0.37862 0.0
S677 S 0.87634 0.88483 0.6079 0.0
N678 N 0.90502 0.87958 0.61529 0.0
N679 N 0.87339 0.90742 0.53193 0.0
C680 C 0.89636 0.91175 0.50934 0.0
C681 C 0.91356 0.89661 0.55458 0.0
C682 C 0.58109 0.93149 0.07661 0.0
C683 C 0.60529 0.92654 0.08933 0.0
C684 C 0.56695 0.91755 1.01521 0.0
C685 C 0.57634 0.89781 0.96643 0.0
H686 H 0.57308 0.94656 0.1127 0.0
H687 H 0.54844 0.92208 1.00678 0.0
S688 S 0.63835 0.87694 0.97547 0.0
N689 N 0.63801 0.90052 0.04694 0.0
N690 N 0.61103 0.87376 0.93475 0.0
C691 C 0.60032 0.89237 0.97941 0.0
C692 C 0.61492 0.90692 0.03992 0.0
C693 C 0.60962 0.58897 0.51045 0.0
C694 C 0.60338 0.56487 0.51009 0.0
C695 C 0.5951 0.60597 0.55626 0.0
C696 C 0.57402 0.59935 0.60376 0.0
H697 H 0.62615 0.59463 0.47801 0.0
H698 H 0.6008 0.62423 0.55739 0.0
S699 S 0.54785 0.5393 0.60943 0.0
N700 N 0.5732 0.53591 0.55113 0.0
N701 N 0.54633 0.5676 0.63752 0.0
C702 C 0.56706 0.57556 0.59936 0.0
C703 C 0.58163 0.55839 0.55245 0.0
C704 C 0.01345 0.26422 0.25487 0.0
C705 C 0.0346 0.27671 0.23956 0.0
C706 C 0.01362 0.24034 0.28224 0.0
C707 C 0.03494 0.22801 0.29687 0.0
H708 H 0.99653 0.27289 0.24506 0.0
H709 H 0.99681 0.23154 0.29259 0.0
S710 S 0.09529 0.25258 0.26725 0.0
N711 N 0.07756 0.27493 0.24123 0.0
N712 N 0.07786 0.2301 0.29383 0.0
C713 C 0.05627 0.24028 0.28241 0.0
C714 C 0.0561 0.26459 0.25335 0.0
C715 C 0.26595 0.01366 0.76683 0.0
C716 C 0.27829 0.03491 0.78174 0.0
C717 C 0.24215 0.01363 0.73874 0.0
C718 C 0.22971 0.03484 0.72294 0.0
H719 H 0.27463 0.9968 0.7782 0.0
H720 H 0.23343 0.99675 0.72962 0.0
S721 S 0.25401 0.09536 0.74842 0.0
N722 N 0.27639 0.07783 0.77642 0.0
N723 N 0.23164 0.07775 0.72242 0.0
C724 C 0.2419 0.05626 0.73559 0.0
C725 C 0.26616 0.0563 0.76545 0.0
C726 C 0.48819 0.26376 0.26585 0.0
C727 C 0.46654 0.27556 0.27971 0.0
C728 C 0.48899 0.24 0.23759 0.0
C729 C 0.46819 0.22707 0.22058 0.0
H730 H 0.50476 0.27288 0.27756 0.0
H731 H 0.50615 0.23175 0.22862 0.0
S732 S 0.40689 0.24974 0.24525 0.0
N733 N 0.4237 0.27254 0.27382 0.0
N734 N 0.42521 0.22786 0.2195 0.0
C735 C 0.44637 0.23865 0.23335 0.0
C736 C 0.44555 0.26287 0.26337 0.0
C737 C 0.26278 0.49108 0.75178 0.0
C738 C 0.27514 0.46987 0.73526 0.0
C739 C 0.23911 0.49107 0.78166 0.0
C740 C 0.22681 0.46984 0.79764 0.0
H741 H 0.27141 0.50796 0.74109 0.0
H742 H 0.23044 0.50794 0.79275 0.0
S743 S 0.25104 0.40937 0.76567 0.0
N744 N 0.2733 0.42694 0.73723 0.0
N745 N 0.22875 0.42692 0.79458 0.0
C746 C 0.23893 0.44843 0.78204 0.0
C747 C 0.26307 0.44845 0.75035 0.0
C748 C 0.95258 0.76549 0.75737 0.0
C749 C 0.97402 0.7772 0.73872 0.0
C750 C 0.95225 0.7418 0.78879 0.0
C751 C 0.97335 0.7289 0.80143 0.0
H752 H 0.93594 0.7748 0.74961 0.0
H753 H 0.93533 0.73352 0.80257 0.0
S754 S 0.03417 0.75129 0.75896 0.0
N755 N 0.01687 0.77395 0.73316 0.0
N756 N 0.01628 0.72964 0.79119 0.0
C757 C 0.99488 0.74037 0.78162 0.0
C758 C 0.99521 0.76445 0.75055 0.0
C759 C 0.76523 0.94998 0.28778 0.0
C760 C 0.77672 0.97112 0.31338 0.0
C761 C 0.74141 0.94995 0.25814 0.0
C762 C 0.72814 0.97102 0.25423 0.0
H763 H 0.77483 0.93341 0.28863 0.0
H764 H 0.73337 0.93328 0.23829 0.0
S765 S 0.74974 0.03093 0.31998 0.0
N766 N 0.77282 0.01352 0.33656 0.0
N767 N 0.72825 0.01352 0.28215 0.0
C768 C 0.73937 0.9922 0.28177 0.0
C769 C 0.76359 0.99223 0.31096 0.0
C770 C 0.55438 0.76211 0.79063 0.0
C771 C 0.5331 0.7749 0.79932 0.0
C772 C 0.55449 0.7383 0.76103 0.0
C773 C 0.5333 0.72633 0.74021 0.0
H774 H 0.57111 0.77055 0.80641 0.0
H775 H 0.57126 0.72911 0.75611 0.0
S776 S 0.47284 0.75188 0.74931 0.0
N777 N 0.49029 0.77377 0.78257 0.0
N778 N 0.49052 0.72925 0.72802 0.0
C779 C 0.51194 0.73896 0.74801 0.0
C780 C 0.51183 0.76317 0.77723 0.0
C781 C 0.76043 0.55069 0.23757 0.0
C782 C 0.77325 0.52947 0.22716 0.0
C783 C 0.73692 0.55071 0.27137 0.0
C784 C 0.72531 0.52948 0.29477 0.0
H785 H 0.76865 0.56745 0.22022 0.0
H786 H 0.72765 0.56741 0.27732 0.0
S787 S 0.7511 0.46916 0.28232 0.0
N788 N 0.77254 0.48669 0.24479 0.0
N789 N 0.7286 0.48673 0.30737 0.0
C790 C 0.73799 0.50818 0.28524 0.0
C791 C 0.76188 0.50817 0.25169 0.0
C792 C 0.01918 0.32209 0.70602 0.0
C793 C 0.0281 0.33717 0.77923 0.0
C794 C 0.02482 0.32551 0.60669 0.0
C795 C 0.03963 0.34411 0.57702 0.0
H796 H 0.00793 0.3074 0.72589 0.0
H797 H 0.01784 0.31332 0.55283 0.0
S798 S 0.06569 0.38995 0.73805 0.0
N799 N 0.05116 0.37243 0.81394 0.0
N800 N 0.06198 0.3786 0.62744 0.0
C801 C 0.04844 0.35949 0.64911 0.0
C802 C 0.04262 0.35609 0.75017 0.0
C803 C 0.18182 0.02566 0.10088 0.0
C804 C 0.16315 0.04045 0.07108 0.0
C805 C 0.1851 0.01978 0.20022 0.0
C806 C 0.16975 0.02837 0.27357 0.0
H807 H 0.19417 0.01885 0.04706 0.0
H808 H 0.19988 0.00856 0.21979 0.0
S809 S 0.11689 0.06609 0.23164 0.0
N810 N 0.12847 0.06259 0.12137 0.0
N811 N 0.13427 0.05135 0.30749 0.0
C812 C 0.1508 0.04294 0.24414 0.0
C813 C 0.14759 0.04901 0.14313 0.0
C814 C 0.46507 0.15017 0.73165 0.0
C815 C 0.47615 0.17129 0.76097 0.0
C816 C 0.4598 0.14577 0.6326 0.0
C817 C 0.46554 0.16222 0.55897 0.0
H818 H 0.46093 0.13669 0.78542 0.0
H819 H 0.45156 0.12917 0.61307 0.0
S820 S 0.49191 0.22141 0.59754 0.0
N821 N 0.49073 0.2097 0.70863 0.0
N822 N 0.48108 0.20122 0.52261 0.0
C823 C 0.47605 0.18364 0.58727 0.0
C824 C 0.48129 0.18822 0.68818 0.0
C825 C 0.33415 0.44991 0.13718 0.0
C826 C 0.34207 0.46708 0.06965 0.0
C827 C 0.3297 0.45564 0.2359 0.0
C828 C 0.33276 0.4788 0.27073 0.0
H829 H 0.33102 0.43196 0.11333 0.0
H830 H 0.32352 0.44194 0.28514 0.0
S831 S 0.35556 0.52968 0.1276 0.0
N832 N 0.35455 0.50782 0.04753 0.0
N833 N 0.34575 0.5186 0.23214 0.0
C834 C 0.34101 0.49603 0.20469 0.0
C835 C 0.34576 0.49018 0.10448 0.0
C836 C 0.02039 0.18292 0.83174 0.0
C837 C 0.0295 0.16806 0.75802 0.0
C838 C 0.02608 0.17939 0.93096 0.0
C839 C 0.04112 0.16086 0.96022 0.0
H840 H 0.0089 0.19751 0.81237 0.0
H841 H 0.0189 0.19143 0.98507 0.0
S842 S 0.06803 0.11572 0.79727 0.0
N843 N 0.05322 0.13321 0.7221 0.0
N844 N 0.06404 0.12674 0.90832 0.0
C845 C 0.05019 0.14573 0.88747 0.0
C846 C 0.04436 0.14928 0.78647 0.0
C847 C 0.354 0.0419 0.28035 0.0
C848 C 0.33384 0.02919 0.25124 0.0
C849 C 0.35822 0.04704 0.37959 0.0
C850 C 0.34249 0.0396 0.45339 0.0
H851 H 0.36691 0.04739 0.22628 0.0
H852 H 0.37415 0.05649 0.39912 0.0
S853 S 0.28563 0.00852 0.41474 0.0
N854 N 0.29699 0.0111 0.30345 0.0
N855 N 0.30494 0.02078 0.48986 0.0
C856 C 0.32192 0.02751 0.42512 0.0
C857 C 0.3176 0.02231 0.32408 0.0
C858 C 0.45616 0.35085 0.7709 0.0
C859 C 0.47056 0.33185 0.74126 0.0
C860 C 0.45044 0.3543 0.87016 0.0
C861 C 0.45892 0.33893 0.94343 0.0
H862 H 0.44982 0.3635 0.7173 0.0
H863 H 0.43975 0.36945 0.89014 0.0
S864 S 0.49441 0.28465 0.90263 0.0
N865 N 0.4913 0.29624 0.79197 0.0
N866 N 0.48046 0.30269 0.97837 0.0
C867 C 0.47262 0.31939 0.91441 0.0
C868 C 0.47846 0.31588 0.81338 0.0
C869 C 0.1642 0.49396 0.3298 0.0
C870 C 0.17092 0.47657 0.26138 0.0
C871 C 0.15971 0.48821 0.42841 0.0
C872 C 0.16181 0.46483 0.46272 0.0
H873 H 0.16189 0.5121 0.30634 0.0
H874 H 0.15413 0.50211 0.47782 0.0
S875 S 0.18152 0.41323 0.31524 0.0
N876 N 0.18106 0.43535 0.23611 0.0
N877 N 0.17297 0.42449 0.42131 0.0
C878 C 0.16912 0.44736 0.39543 0.0
C879 C 0.17358 0.45324 0.29489 0.0
C880 C 0.97763 0.68237 0.43582 0.0
C881 C 0.96456 0.66263 0.46712 0.0
C882 C 0.98381 0.68528 0.33652 0.0
C883 C 0.97719 0.66851 0.26551 0.0
H884 H 0.98278 0.69577 0.48828 0.0
H885 H 0.99358 0.70086 0.31477 0.0
S886 S 0.94616 0.61203 0.31339 0.0
N887 N 0.94712 0.62514 0.4216 0.0
N888 N 0.95917 0.63029 0.23568 0.0
C889 C 0.96482 0.64835 0.29678 0.0
C890 C 0.9584 0.64549 0.39744 0.0
C891 C 0.84734 0.98639 0.93642 0.0
C892 C 0.84163 0.96368 0.971 0.0
C893 C 0.84424 0.99254 0.83746 0.0
C894 C 0.83531 0.97621 0.76908 0.0
H895 H 0.85466 0.9994 0.98602 0.0
H896 H 0.84928 0.01009 0.8139 0.0
S897 S 0.81545 0.9152 0.82358 0.0
N898 N 0.82507 0.92531 0.93001 0.0
N899 N 0.81941 0.93686 0.74395 0.0
C900 C 0.82914 0.95357 0.80284 0.0
C901 C 0.83224 0.94731 0.90375 0.0
C902 C 0.54847 0.85488 0.39596 0.0
C903 C 0.54104 0.83916 0.46985 0.0
C904 C 0.54299 0.85089 0.29683 0.0
C905 C 0.52985 0.83101 0.2678 0.0
H906 H 0.55818 0.87067 0.4153 0.0
H907 H 0.54854 0.86378 0.24277 0.0
S908 S 0.50887 0.78287 0.43092 0.0
N909 N 0.52173 0.8018 0.50595 0.0
N910 N 0.51126 0.79442 0.31987 0.0
C911 C 0.52291 0.81478 0.34055 0.0
C912 C 0.52854 0.81881 0.44148 0.0
C913 C 0.65795 0.51313 0.92566 0.0
C914 C 0.66012 0.5365 0.95973 0.0
C915 C 0.66242 0.50735 0.82711 0.0
C916 C 0.66919 0.52469 0.7585 0.0
H917 H 0.65234 0.49926 0.97522 0.0
H918 H 0.66004 0.48922 0.80385 0.0
S919 S 0.67994 0.58797 0.81176 0.0
N920 N 0.67136 0.57676 0.91794 0.0
N921 N 0.67943 0.56586 0.73285 0.0
C922 C 0.67191 0.54801 0.79179 0.0
C923 C 0.66746 0.55392 0.89227 0.0
C924 C 0.98742 0.82146 0.21061 0.0
C925 C 0.97877 0.83667 0.28425 0.0
C926 C 0.98167 0.82495 0.11127 0.0
C927 C 0.96695 0.8437 0.08181 0.0
H928 H 0.9986 0.80663 0.22994 0.0
H929 H 0.98852 0.81269 0.05721 0.0
S930 S 0.94119 0.88968 0.24315 0.0
N931 N 0.95581 0.87213 0.31876 0.0
N932 N 0.94481 0.8783 0.13265 0.0
C933 C 0.95833 0.85913 0.15413 0.0
C934 C 0.96427 0.85571 0.25512 0.0
C935 C 0.65251 0.95997 0.75698 0.0
C936 C 0.67186 0.97389 0.78606 0.0
C937 C 0.64878 0.95427 0.65786 0.0
C938 C 0.66426 0.96225 0.58402 0.0
H939 H 0.63981 0.95396 0.81096 0.0
H940 H 0.63336 0.94399 0.63847 0.0
S941 S 0.71932 0.99648 0.62324 0.0
N942 N 0.70778 0.99376 0.73415 0.0
N943 N 0.70093 0.98286 0.54819 0.0
C944 C 0.68413 0.97549 0.61252 0.0
C945 C 0.68788 0.98135 0.7134 0.0
C946 C 0.5496 0.64701 0.15304 0.0
C947 C 0.54153 0.66271 0.0802 0.0
C948 C 0.54383 0.65037 0.25228 0.0
C949 C 0.52978 0.66959 0.28233 0.0
H950 H 0.56001 0.6317 0.13271 0.0
H951 H 0.54987 0.63749 0.30556 0.0
S952 S 0.50694 0.71752 0.12212 0.0
N953 N 0.52065 0.69938 0.04605 0.0
N954 N 0.50973 0.70566 0.23246 0.0
C955 C 0.52225 0.68585 0.21063 0.0
C956 C 0.52814 0.68242 0.1096 0.0
C957 C 0.82849 0.55234 0.62472 0.0
C958 C 0.84066 0.53767 0.55801 0.0
C959 C 0.82552 0.54576 0.72365 0.0
C960 C 0.8345 0.52423 0.75968 0.0
H961 H 0.82081 0.56882 0.59987 0.0
H962 H 0.81575 0.55741 0.772 0.0
S963 S 0.8704 0.48103 0.61866 0.0
N964 N 0.86356 0.50166 0.53765 0.0
N965 N 0.85793 0.48932 0.72279 0.0
C966 C 0.84728 0.50975 0.69449 0.0
C967 C 0.85036 0.51646 0.59398 0.0
loop_
_geom_bond_atom_site_label_1
_geom_bond_atom_site_label_2
_geom_bond_distance
_geom_bond_site_symmetry_2
_ccdc_geom_bond_type
Co0 N4 2.148 . S
Co0 N10 2.128 1_554 S
Co0 N20 2.216 . S
Co0 O25 2.351 . S
Co0 O26 2.155 . S
Co0 O27 2.096 . S
C1 N4 1.301 . S
C1 N5 1.328 . S
C1 H6 0.930 . S
C2 C3 1.333 . S
C2 N4 1.317 . S
C2 H7 0.930 . S
C3 C2 1.333 . S
C3 N5 1.350 . S
C3 H29 0.931 . S
N4 Co0 2.148 . S
N4 C1 1.301 . S
N4 C2 1.317 . S
N5 C1 1.328 . S
N5 C3 1.350 . S
H6 C1 0.930 . S
H7 C2 0.930 . S
C8 O9 1.224 . S
C8 O27 1.247 . S
O9 C8 1.224 . S
N10 Co0 2.128 1_556 S
N10 C11 1.401 . S
N10 C13 1.311 . S
C11 N10 1.401 . S
C11 C12 1.363 . S
C11 H23 0.889 1_455 S
C12 C11 1.363 . S
C12 N14 1.410 . S
C12 H30 0.902 1_455 S
C13 N10 1.311 . S
C13 N14 1.347 . S
C13 H24 0.929 . S
N14 C12 1.410 . S
N14 C13 1.347 . S
C15 C18 1.365 . S
C15 N20 1.305 1_655 S
C15 H21 0.929 . S
C16 C17 1.362 . S
C16 C19 1.380 1_655 S
C16 H31 0.929 . S
C17 C16 1.362 . S
C17 C18 1.366 . S
C18 C15 1.365 . S
C18 C17 1.366 . S
C18 H32 0.930 . S
C19 C16 1.380 1_455 S
C19 N20 1.315 . S
C19 H22 0.927 . S
N20 Co0 2.216 . S
N20 C15 1.305 1_455 S
N20 C19 1.315 . S
H21 C15 0.929 . S
H22 C19 0.927 . S
H23 C11 0.889 1_655 S
H24 C13 0.929 . S
O25 Co0 2.351 . S
O25 C28 1.244 . S
O26 Co0 2.155 . S
O26 C28 1.240 . S
O27 Co0 2.096 . S
O27 C8 1.247 . S
C28 O25 1.244 . S
C28 O26 1.240 . S
H29 C3 0.931 . S
H30 C12 0.902 1_655 S
H31 C16 0.929 . S
H32 C18 0.930 . S
Co33 N37 2.148 . S
Co33 N43 2.128 . S
Co33 N53 2.216 . S
Co33 O58 2.351 . S
Co33 O59 2.155 . S
Co33 O60 2.096 . S
C34 N37 1.301 . S
C34 N38 1.328 . S
C34 H39 0.930 . S
C35 C36 1.333 . S
C35 N37 1.317 . S
C35 H40 0.930 . S
C36 C35 1.333 . S
C36 N38 1.350 . S
C36 H62 0.931 . S
N37 Co33 2.148 . S
N37 C34 1.301 . S
N37 C35 1.317 . S
N38 C34 1.328 . S
N38 C36 1.350 . S
H39 C34 0.930 . S
H40 C35 0.930 . S
C41 O42 1.224 . S
C41 O60 1.247 . S
O42 C41 1.224 . S
N43 Co33 2.128 . S
N43 C44 1.401 . S
N43 C46 1.311 . S
C44 N43 1.401 . S
C44 C45 1.363 . S
C44 H56 0.889 1_545 S
C45 C44 1.363 . S
C45 N47 1.410 . S
C45 H63 0.902 1_545 S
C46 N43 1.311 . S
C46 N47 1.347 . S
C46 H57 0.929 . S
N47 C45 1.410 . S
N47 C46 1.347 . S
C48 C51 1.365 . S
C48 N53 1.305 1_565 S
C48 H54 0.929 . S
C49 C50 1.362 . S
C49 C52 1.380 1_565 S
C49 H64 0.929 . S
C50 C49 1.362 . S
C50 C51 1.366 . S
C51 C48 1.365 . S
C51 C50 1.366 . S
C51 H65 0.930 . S
C52 C49 1.380 1_545 S
C52 N53 1.315 . S
C52 H55 0.927 . S
N53 Co33 2.216 . S
N53 C48 1.305 1_545 S
N53 C52 1.315 . S
H54 C48 0.929 . S
H55 C52 0.927 . S
H56 C44 0.889 1_565 S
H57 C46 0.929 . S
O58 Co33 2.351 . S
O58 C61 1.244 . S
O59 Co33 2.155 . S
O59 C61 1.240 . S
O60 Co33 2.096 . S
O60 C41 1.247 . S
C61 O58 1.244 . S
C61 O59 1.240 . S
H62 C36 0.931 . S
H63 C45 0.902 1_565 S
H64 C49 0.929 . S
H65 C51 0.930 . S
Co66 N70 2.148 . S
Co66 N76 2.128 1_554 S
Co66 N86 2.194 . S
Co66 O91 2.351 . S
Co66 O92 2.155 . S
Co66 O93 2.096 . S
C67 N70 1.301 . S
C67 N71 1.328 . S
C67 H72 0.930 . S
C68 C69 1.333 . S
C68 N70 1.317 . S
C68 H73 0.930 . S
C69 C68 1.333 . S
C69 N71 1.350 . S
C69 H95 0.931 . S
N70 Co66 2.148 . S
N70 C67 1.301 . S
N70 C68 1.317 . S
N71 C67 1.328 . S
N71 C69 1.350 . S
H72 C67 0.930 . S
H73 C68 0.930 . S
C74 O75 1.224 . S
C74 O93 1.247 . S
O75 C74 1.224 . S
N76 Co66 2.128 1_556 S
N76 C77 1.355 . S
N76 C79 1.311 . S
C77 N76 1.355 . S
C77 C78 1.363 . S
C77 H89 0.929 . S
C78 C77 1.363 . S
C78 N80 1.375 . S
C78 H96 0.931 . S
C79 N76 1.311 . S
C79 N80 1.347 . S
C79 H90 0.929 . S
N80 C78 1.375 . S
N80 C79 1.347 . S
C81 C84 1.365 . S
C81 N86 1.328 . S
C81 H87 0.929 . S
C82 C83 1.362 . S
C82 C85 1.378 . S
C82 H97 0.929 . S
C83 C82 1.362 . S
C83 C84 1.366 . S
C84 C81 1.365 . S
C84 C83 1.366 . S
C84 H98 0.930 . S
C85 C82 1.378 . S
C85 N86 1.315 . S
C85 H88 0.930 . S
N86 Co66 2.194 . S
N86 C81 1.328 . S
N86 C85 1.315 . S
H87 C81 0.929 . S
H88 C85 0.930 . S
H89 C77 0.929 . S
H90 C79 0.929 . S
O91 Co66 2.351 . S
O91 C94 1.244 . S
O92 Co66 2.155 . S
O92 C94 1.240 . S
O93 Co66 2.096 . S
O93 C74 1.247 . S
C94 O91 1.244 . S
C94 O92 1.240 . S
H95 C69 0.931 . S
H96 C78 0.931 . S
H97 C82 0.929 . S
H98 C84 0.930 . S
Co99 N103 2.148 . S
Co99 N109 2.128 . S
Co99 N119 2.194 . S
Co99 O124 2.351 . S
Co99 O125 2.155 . S
Co99 O126 2.096 . S
C100 N103 1.301 . S
C100 N104 1.328 . S
C100 H105 0.930 . S
C101 C102 1.333 . S
C101 N103 1.317 . S
C101 H106 0.930 . S
C102 C101 1.333 . S
C102 N104 1.350 . S
C102 H128 0.931 . S
N103 Co99 2.148 . S
N103 C100 1.301 . S
N103 C101 1.317 . S
N104 C100 1.328 . S
N104 C102 1.350 . S
H105 C100 0.930 . S
H106 C101 0.930 . S
C107 O108 1.224 . S
C107 O126 1.247 . S
O108 C107 1.224 . S
N109 Co99 2.128 . S
N109 C110 1.355 . S
N109 C112 1.311 . S
C110 N109 1.355 . S
C110 C111 1.363 . S
C110 H122 0.929 . S
C111 C110 1.363 . S
C111 N113 1.375 . S
C111 H129 0.931 . S
C112 N109 1.311 . S
C112 N113 1.347 . S
C112 H123 0.929 . S
N113 C111 1.375 . S
N113 C112 1.347 . S
C114 C117 1.365 . S
C114 N119 1.328 . S
C114 H120 0.929 . S
C115 C116 1.362 . S
C115 C118 1.378 . S
C115 H130 0.929 . S
C116 C115 1.362 . S
C116 C117 1.366 . S
C117 C114 1.365 . S
C117 C116 1.366 . S
C117 H131 0.930 . S
C118 C115 1.378 . S
C118 N119 1.315 . S
C118 H121 0.930 . S
N119 Co99 2.194 . S
N119 C114 1.328 . S
N119 C118 1.315 . S
H120 C114 0.929 . S
H121 C118 0.930 . S
H122 C110 0.929 . S
H123 C112 0.929 . S
O124 Co99 2.351 . S
O124 C127 1.244 . S
O125 Co99 2.155 . S
O125 C127 1.240 . S
O126 Co99 2.096 . S
O126 C107 1.247 . S
C127 O124 1.244 . S
C127 O125 1.240 . S
H128 C102 0.931 . S
H129 C111 0.931 . S
H130 C115 0.929 . S
H131 C117 0.930 . S
Co132 N136 2.148 . S
Co132 N142 2.128 . S
Co132 N152 2.216 . S
Co132 O157 2.351 . S
Co132 O158 2.155 . S
Co132 O159 2.096 . S
C133 N136 1.301 . S
C133 N137 1.328 . S
C133 H138 0.930 . S
C134 C135 1.333 . S
C134 N136 1.317 . S
C134 H139 0.930 . S
C135 C134 1.333 . S
C135 N137 1.350 . S
C135 H161 0.931 . S
N136 Co132 2.148 . S
N136 C133 1.301 . S
N136 C134 1.317 . S
N137 C133 1.328 . S
N137 C135 1.350 . S
H138 C133 0.930 . S
H139 C134 0.930 . S
C140 O141 1.224 . S
C140 O159 1.247 . S
O141 C140 1.224 . S
N142 Co132 2.128 . S
N142 C143 1.401 . S
N142 C145 1.311 . S
C143 N142 1.401 . S
C143 C144 1.363 . S
C143 H155 0.889 1_455 S
C144 C143 1.363 . S
C144 N146 1.410 . S
C144 H162 0.902 1_455 S
C145 N142 1.311 . S
C145 N146 1.347 . S
C145 H156 0.929 . S
N146 C144 1.410 . S
N146 C145 1.347 . S
C147 C150 1.365 . S
C147 N152 1.305 1_655 S
C147 H153 0.929 . S
C148 C149 1.362 . S
C148 C151 1.380 1_655 S
C148 H163 0.929 . S
C149 C148 1.362 . S
C149 C150 1.366 . S
C150 C147 1.365 . S
C150 C149 1.366 . S
C150 H164 0.930 . S
C151 C148 1.380 1_455 S
C151 N152 1.315 . S
C151 H154 0.927 . S
N152 Co132 2.216 . S
N152 C147 1.305 1_455 S
N152 C151 1.315 . S
H153 C147 0.929 . S
H154 C151 0.927 . S
H155 C143 0.889 1_655 S
H156 C145 0.929 . S
O157 Co132 2.351 . S
O157 C160 1.244 . S
O158 Co132 2.155 . S
O158 C160 1.240 . S
O159 Co132 2.096 . S
O159 C140 1.247 . S
C160 O157 1.244 . S
C160 O158 1.240 . S
H161 C135 0.931 . S
H162 C144 0.902 1_655 S
H163 C148 0.929 . S
H164 C150 0.930 . S
Co165 N169 2.148 . S
Co165 N175 2.128 1_556 S
Co165 N185 2.216 . S
Co165 O190 2.351 . S
Co165 O191 2.155 . S
Co165 O192 2.096 . S
C166 N169 1.301 . S
C166 N170 1.328 . S
C166 H171 0.930 . S
C167 C168 1.333 . S
C167 N169 1.317 . S
C167 H172 0.930 . S
C168 C167 1.333 . S
C168 N170 1.350 . S
C168 H194 0.931 . S
N169 Co165 2.148 . S
N169 C166 1.301 . S
N169 C167 1.317 . S
N170 C166 1.328 . S
N170 C168 1.350 . S
H171 C166 0.930 . S
H172 C167 0.930 . S
C173 O174 1.224 . S
C173 O192 1.247 . S
O174 C173 1.224 . S
N175 Co165 2.128 1_554 S
N175 C176 1.401 . S
N175 C178 1.311 . S
C176 N175 1.401 . S
C176 C177 1.363 . S
C176 H188 0.889 1_545 S
C177 C176 1.363 . S
C177 N179 1.410 . S
C177 H195 0.902 1_545 S
C178 N175 1.311 . S
C178 N179 1.347 . S
C178 H189 0.929 . S
N179 C177 1.410 . S
N179 C178 1.347 . S
C180 C183 1.365 . S
C180 N185 1.305 1_565 S
C180 H186 0.929 . S
C181 C182 1.362 . S
C181 C184 1.380 1_565 S
C181 H196 0.929 . S
C182 C181 1.362 . S
C182 C183 1.366 . S
C183 C180 1.365 . S
C183 C182 1.366 . S
C183 H197 0.930 . S
C184 C181 1.380 1_545 S
C184 N185 1.315 . S
C184 H187 0.927 . S
N185 Co165 2.216 . S
N185 C180 1.305 1_545 S
N185 C184 1.315 . S
H186 C180 0.929 . S
H187 C184 0.927 . S
H188 C176 0.889 1_565 S
H189 C178 0.929 . S
O190 Co165 2.351 . S
O190 C193 1.244 . S
O191 Co165 2.155 . S
O191 C193 1.240 . S
O192 Co165 2.096 . S
O192 C173 1.247 . S
C193 O190 1.244 . S
C193 O191 1.240 . S
H194 C168 0.931 . S
H195 C177 0.902 1_565 S
H196 C181 0.929 . S
H197 C183 0.930 . S
Co198 N202 2.148 . S
Co198 N208 2.128 . S
Co198 N218 2.194 . S
Co198 O223 2.351 . S
Co198 O224 2.155 . S
Co198 O225 2.096 . S
C199 N202 1.301 . S
C199 N203 1.328 . S
C199 H204 0.930 . S
C200 C201 1.333 . S
C200 N202 1.317 . S
C200 H205 0.930 . S
C201 C200 1.333 . S
C201 N203 1.350 . S
C201 H227 0.931 . S
N202 Co198 2.148 . S
N202 C199 1.301 . S
N202 C200 1.317 . S
N203 C199 1.328 . S
N203 C201 1.350 . S
H204 C199 0.930 . S
H205 C200 0.930 . S
C206 O207 1.224 . S
C206 O225 1.247 . S
O207 C206 1.224 . S
N208 Co198 2.128 . S
N208 C209 1.355 . S
N208 C211 1.311 . S
C209 N208 1.355 . S
C209 C210 1.363 . S
C209 H221 0.929 . S
C210 C209 1.363 . S
C210 N212 1.375 . S
C210 H228 0.931 . S
C211 N208 1.311 . S
C211 N212 1.347 . S
C211 H222 0.929 . S
N212 C210 1.375 . S
N212 C211 1.347 . S
C213 C216 1.365 . S
C213 N218 1.328 . S
C213 H219 0.929 . S
C214 C215 1.362 . S
C214 C217 1.378 . S
C214 H229 0.929 . S
C215 C214 1.362 . S
C215 C216 1.366 . S
C216 C213 1.365 . S
C216 C215 1.366 . S
C216 H230 0.930 . S
C217 C214 1.378 . S
C217 N218 1.315 . S
C217 H220 0.930 . S
N218 Co198 2.194 . S
N218 C213 1.328 . S
N218 C217 1.315 . S
H219 C213 0.929 . S
H220 C217 0.930 . S
H221 C209 0.929 . S
H222 C211 0.929 . S
O223 Co198 2.351 . S
O223 C226 1.244 . S
O224 Co198 2.155 . S
O224 C226 1.240 . S
O225 Co198 2.096 . S
O225 C206 1.247 . S
C226 O223 1.244 . S
C226 O224 1.240 . S
H227 C201 0.931 . S
H228 C210 0.931 . S
H229 C214 0.929 . S
H230 C216 0.930 . S
Co231 N235 2.148 . S
Co231 N241 2.128 1_556 S
Co231 N251 2.194 . S
Co231 O256 2.351 . S
Co231 O257 2.155 . S
Co231 O258 2.096 . S
C232 N235 1.301 . S
C232 N236 1.328 . S
C232 H237 0.930 . S
C233 C234 1.333 . S
C233 N235 1.317 . S
C233 H238 0.930 . S
C234 C233 1.333 . S
C234 N236 1.350 . S
C234 H260 0.931 . S
N235 Co231 2.148 . S
N235 C232 1.301 . S
N235 C233 1.317 . S
N236 C232 1.328 . S
N236 C234 1.350 . S
H237 C232 0.930 . S
H238 C233 0.930 . S
C239 O240 1.224 . S
C239 O258 1.247 . S
O240 C239 1.224 . S
N241 Co231 2.128 1_554 S
N241 C242 1.355 . S
N241 C244 1.311 . S
C242 N241 1.355 . S
C242 C243 1.363 . S
C242 H254 0.929 . S
C243 C242 1.363 . S
C243 N245 1.375 . S
C243 H261 0.931 . S
C244 N241 1.311 . S
C244 N245 1.347 . S
C244 H255 0.929 . S
N245 C243 1.375 . S
N245 C244 1.347 . S
C246 C249 1.365 . S
C246 N251 1.328 . S
C246 H252 0.929 . S
C247 C248 1.362 . S
C247 C250 1.378 . S
C247 H262 0.929 . S
C248 C247 1.362 . S
C248 C249 1.366 . S
C249 C246 1.365 . S
C249 C248 1.366 . S
C249 H263 0.930 . S
C250 C247 1.378 . S
C250 N251 1.315 . S
C250 H253 0.930 . S
N251 Co231 2.194 . S
N251 C246 1.328 . S
N251 C250 1.315 . S
H252 C246 0.929 . S
H253 C250 0.930 . S
H254 C242 0.929 . S
H255 C244 0.929 . S
O256 Co231 2.351 . S
O256 C259 1.244 . S
O257 Co231 2.155 . S
O257 C259 1.240 . S
O258 Co231 2.096 . S
O258 C239 1.247 . S
C259 O256 1.244 . S
C259 O257 1.240 . S
H260 C234 0.931 . S
H261 C243 0.931 . S
H262 C247 0.929 . S
H263 C249 0.930 . S
Co264 N268 2.148 . S
Co264 N274 2.128 1_556 S
Co264 N284 2.216 . S
Co264 O289 2.351 . S
Co264 O290 2.155 . S
Co264 O291 2.096 . S
C265 N268 1.301 . S
C265 N269 1.328 . S
C265 H270 0.930 . S
C266 C267 1.333 . S
C266 N268 1.317 . S
C266 H271 0.930 . S
C267 C266 1.333 . S
C267 N269 1.350 . S
C267 H293 0.931 . S
N268 Co264 2.148 . S
N268 C265 1.301 . S
N268 C266 1.317 . S
N269 C265 1.328 . S
N269 C267 1.350 . S
H270 C265 0.930 . S
H271 C266 0.930 . S
C272 O273 1.224 . S
C272 O291 1.247 . S
O273 C272 1.224 . S
N274 Co264 2.128 1_554 S
N274 C275 1.401 . S
N274 C277 1.311 . S
C275 N274 1.401 . S
C275 C276 1.363 . S
C275 H287 0.889 1_655 S
C276 C275 1.363 . S
C276 N278 1.410 . S
C276 H294 0.902 1_655 S
C277 N274 1.311 . S
C277 N278 1.347 . S
C277 H288 0.929 . S
N278 C276 1.410 . S
N278 C277 1.347 . S
C279 C282 1.365 . S
C279 N284 1.305 1_455 S
C279 H285 0.929 . S
C280 C281 1.362 . S
C280 C283 1.380 1_455 S
C280 H295 0.929 . S
C281 C280 1.362 . S
C281 C282 1.366 . S
C282 C279 1.365 . S
C282 C281 1.366 . S
C282 H296 0.930 . S
C283 C280 1.380 1_655 S
C283 N284 1.315 . S
C283 H286 0.927 . S
N284 Co264 2.216 . S
N284 C279 1.305 1_655 S
N284 C283 1.315 . S
H285 C279 0.929 . S
H286 C283 0.927 . S
H287 C275 0.889 1_455 S
H288 C277 0.929 . S
O289 Co264 2.351 . S
O289 C292 1.244 . S
O290 Co264 2.155 . S
O290 C292 1.240 . S
O291 Co264 2.096 . S
O291 C272 1.247 . S
C292 O289 1.244 . S
C292 O290 1.240 . S
H293 C267 0.931 . S
H294 C276 0.902 1_455 S
H295 C280 0.929 . S
H296 C282 0.930 . S
Co297 N301 2.148 . S
Co297 N307 2.128 . S
Co297 N317 2.216 . S
Co297 O322 2.351 . S
Co297 O323 2.155 . S
Co297 O324 2.096 . S
C298 N301 1.301 . S
C298 N302 1.328 . S
C298 H303 0.930 . S
C299 C300 1.333 . S
C299 N301 1.317 . S
C299 H304 0.930 . S
C300 C299 1.333 . S
C300 N302 1.350 . S
C300 H326 0.931 . S
N301 Co297 2.148 . S
N301 C298 1.301 . S
N301 C299 1.317 . S
N302 C298 1.328 . S
N302 C300 1.350 . S
H303 C298 0.930 . S
H304 C299 0.930 . S
C305 O306 1.224 . S
C305 O324 1.247 . S
O306 C305 1.224 . S
N307 Co297 2.128 . S
N307 C308 1.401 . S
N307 C310 1.311 . S
C308 N307 1.401 . S
C308 C309 1.363 . S
C308 H320 0.889 1_565 S
C309 C308 1.363 . S
C309 N311 1.410 . S
C309 H327 0.902 1_565 S
C310 N307 1.311 . S
C310 N311 1.347 . S
C310 H321 0.929 . S
N311 C309 1.410 . S
N311 C310 1.347 . S
C312 C315 1.365 . S
C312 N317 1.305 1_545 S
C312 H318 0.929 . S
C313 C314 1.362 . S
C313 C316 1.380 1_545 S
C313 H328 0.929 . S
C314 C313 1.362 . S
C314 C315 1.366 . S
C315 C312 1.365 . S
C315 C314 1.366 . S
C315 H329 0.930 . S
C316 C313 1.380 1_565 S
C316 N317 1.315 . S
C316 H319 0.927 . S
N317 Co297 2.216 . S
N317 C312 1.305 1_565 S
N317 C316 1.315 . S
H318 C312 0.929 . S
H319 C316 0.927 . S
H320 C308 0.889 1_545 S
H321 C310 0.929 . S
O322 Co297 2.351 . S
O322 C325 1.244 . S
O323 Co297 2.155 . S
O323 C325 1.240 . S
O324 Co297 2.096 . S
O324 C305 1.247 . S
C325 O322 1.244 . S
C325 O323 1.240 . S
H326 C300 0.931 . S
H327 C309 0.902 1_545 S
H328 C313 0.929 . S
H329 C315 0.930 . S
Co330 N334 2.148 . S
Co330 N340 2.128 1_556 S
Co330 N350 2.194 . S
Co330 O355 2.351 . S
Co330 O356 2.155 . S
Co330 O357 2.096 . S
C331 N334 1.301 . S
C331 N335 1.328 . S
C331 H336 0.930 . S
C332 C333 1.333 . S
C332 N334 1.317 . S
C332 H337 0.930 . S
C333 C332 1.333 . S
C333 N335 1.350 . S
C333 H359 0.931 . S
N334 Co330 2.148 . S
N334 C331 1.301 . S
N334 C332 1.317 . S
N335 C331 1.328 . S
N335 C333 1.350 . S
H336 C331 0.930 . S
H337 C332 0.930 . S
C338 O339 1.224 . S
C338 O357 1.247 . S
O339 C338 1.224 . S
N340 Co330 2.128 1_554 S
N340 C341 1.355 . S
N340 C343 1.311 . S
C341 N340 1.355 . S
C341 C342 1.363 . S
C341 H353 0.929 . S
C342 C341 1.363 . S
C342 N344 1.375 . S
C342 H360 0.931 . S
C343 N340 1.311 . S
C343 N344 1.347 . S
C343 H354 0.929 . S
N344 C342 1.375 . S
N344 C343 1.347 . S
C345 C348 1.365 . S
C345 N350 1.328 . S
C345 H351 0.929 . S
C346 C347 1.362 . S
C346 C349 1.378 . S
C346 H361 0.929 . S
C347 C346 1.362 . S
C347 C348 1.366 . S
C348 C345 1.365 . S
C348 C347 1.366 . S
C348 H362 0.930 . S
C349 C346 1.378 . S
C349 N350 1.315 . S
C349 H352 0.930 . S
N350 Co330 2.194 . S
N350 C345 1.328 . S
N350 C349 1.315 . S
H351 C345 0.929 . S
H352 C349 0.930 . S
H353 C341 0.929 . S
H354 C343 0.929 . S
O355 Co330 2.351 . S
O355 C358 1.244 . S
O356 Co330 2.155 . S
O356 C358 1.240 . S
O357 Co330 2.096 . S
O357 C338 1.247 . S
C358 O355 1.244 . S
C358 O356 1.240 . S
H359 C333 0.931 . S
H360 C342 0.931 . S
H361 C346 0.929 . S
H362 C348 0.930 . S
Co363 N367 2.148 . S
Co363 N373 2.128 . S
Co363 N383 2.194 . S
Co363 O388 2.351 . S
Co363 O389 2.155 . S
Co363 O390 2.096 . S
C364 N367 1.301 . S
C364 N368 1.328 . S
C364 H369 0.930 . S
C365 C366 1.333 . S
C365 N367 1.317 . S
C365 H370 0.930 . S
C366 C365 1.333 . S
C366 N368 1.350 . S
C366 H392 0.931 . S
N367 Co363 2.148 . S
N367 C364 1.301 . S
N367 C365 1.317 . S
N368 C364 1.328 . S
N368 C366 1.350 . S
H369 C364 0.930 . S
H370 C365 0.930 . S
C371 O372 1.224 . S
C371 O390 1.247 . S
O372 C371 1.224 . S
N373 Co363 2.128 . S
N373 C374 1.355 . S
N373 C376 1.311 . S
C374 N373 1.355 . S
C374 C375 1.363 . S
C374 H386 0.929 . S
C375 C374 1.363 . S
C375 N377 1.375 . S
C375 H393 0.931 . S
C376 N373 1.311 . S
C376 N377 1.347 . S
C376 H387 0.929 . S
N377 C375 1.375 . S
N377 C376 1.347 . S
C378 C381 1.365 . S
C378 N383 1.328 . S
C378 H384 0.929 . S
C379 C380 1.362 . S
C379 C382 1.378 . S
C379 H394 0.929 . S
C380 C379 1.362 . S
C380 C381 1.366 . S
C381 C378 1.365 . S
C381 C380 1.366 . S
C381 H395 0.930 . S
C382 C379 1.378 . S
C382 N383 1.315 . S
C382 H385 0.930 . S
N383 Co363 2.194 . S
N383 C378 1.328 . S
N383 C382 1.315 . S
H384 C378 0.929 . S
H385 C382 0.930 . S
H386 C374 0.929 . S
H387 C376 0.929 . S
O388 Co363 2.351 . S
O388 C391 1.244 . S
O389 Co363 2.155 . S
O389 C391 1.240 . S
O390 Co363 2.096 . S
O390 C371 1.247 . S
C391 O388 1.244 . S
C391 O389 1.240 . S
H392 C366 0.931 . S
H393 C375 0.931 . S
H394 C379 0.929 . S
H395 C381 0.930 . S
Co396 N400 2.148 . S
Co396 N406 2.128 . S
Co396 N416 2.216 . S
Co396 O421 2.351 . S
Co396 O422 2.155 . S
Co396 O423 2.096 . S
C397 N400 1.301 . S
C397 N401 1.328 . S
C397 H402 0.930 . S
C398 C399 1.333 . S
C398 N400 1.317 . S
C398 H403 0.930 . S
C399 C398 1.333 . S
C399 N401 1.350 . S
C399 H425 0.931 . S
N400 Co396 2.148 . S
N400 C397 1.301 . S
N400 C398 1.317 . S
N401 C397 1.328 . S
N401 C399 1.350 . S
H402 C397 0.930 . S
H403 C398 0.930 . S
C404 O405 1.224 . S
C404 O423 1.247 . S
O405 C404 1.224 . S
N406 Co396 2.128 . S
N406 C407 1.401 . S
N406 C409 1.311 . S
C407 N406 1.401 . S
C407 C408 1.363 . S
C407 H419 0.889 1_655 S
C408 C407 1.363 . S
C408 N410 1.410 . S
C408 H426 0.902 1_655 S
C409 N406 1.311 . S
C409 N410 1.347 . S
C409 H420 0.929 . S
N410 C408 1.410 . S
N410 C409 1.347 . S
C411 C414 1.365 . S
C411 N416 1.305 1_455 S
C411 H417 0.929 . S
C412 C413 1.362 . S
C412 C415 1.380 1_455 S
C412 H427 0.929 . S
C413 C412 1.362 . S
C413 C414 1.366 . S
C414 C411 1.365 . S
C414 C413 1.366 . S
C414 H428 0.930 . S
C415 C412 1.380 1_655 S
C415 N416 1.315 . S
C415 H418 0.927 . S
N416 Co396 2.216 . S
N416 C411 1.305 1_655 S
N416 C415 1.315 . S
H417 C411 0.929 . S
H418 C415 0.927 . S
H419 C407 0.889 1_455 S
H420 C409 0.929 . S
O421 Co396 2.351 . S
O421 C424 1.244 . S
O422 Co396 2.155 . S
O422 C424 1.240 . S
O423 Co396 2.096 . S
O423 C404 1.247 . S
C424 O421 1.244 . S
C424 O422 1.240 . S
H425 C399 0.931 . S
H426 C408 0.902 1_455 S
H427 C412 0.929 . S
H428 C414 0.930 . S
Co429 N433 2.148 . S
Co429 N439 2.128 1_554 S
Co429 N449 2.216 . S
Co429 O454 2.351 . S
Co429 O455 2.155 . S
Co429 O456 2.096 . S
C430 N433 1.301 . S
C430 N434 1.328 . S
C430 H435 0.930 . S
C431 C432 1.333 . S
C431 N433 1.317 . S
C431 H436 0.930 . S
C432 C431 1.333 . S
C432 N434 1.350 . S
C432 H458 0.931 . S
N433 Co429 2.148 . S
N433 C430 1.301 . S
N433 C431 1.317 . S
N434 C430 1.328 . S
N434 C432 1.350 . S
H435 C430 0.930 . S
H436 C431 0.930 . S
C437 O438 1.224 . S
C437 O456 1.247 . S
O438 C437 1.224 . S
N439 Co429 2.128 1_556 S
N439 C440 1.401 . S
N439 C442 1.311 . S
C440 N439 1.401 . S
C440 C441 1.363 . S
C440 H452 0.889 1_565 S
C441 C440 1.363 . S
C441 N443 1.410 . S
C441 H459 0.902 1_565 S
C442 N439 1.311 . S
C442 N443 1.347 . S
C442 H453 0.929 . S
N443 C441 1.410 . S
N443 C442 1.347 . S
C444 C447 1.365 . S
C444 N449 1.305 1_545 S
C444 H450 0.929 . S
C445 C446 1.362 . S
C445 C448 1.380 1_545 S
C445 H460 0.929 . S
C446 C445 1.362 . S
C446 C447 1.366 . S
C447 C444 1.365 . S
C447 C446 1.366 . S
C447 H461 0.930 . S
C448 C445 1.380 1_565 S
C448 N449 1.315 . S
C448 H451 0.927 . S
N449 Co429 2.216 . S
N449 C444 1.305 1_565 S
N449 C448 1.315 . S
H450 C444 0.929 . S
H451 C448 0.927 . S
H452 C440 0.889 1_545 S
H453 C442 0.929 . S
O454 Co429 2.351 . S
O454 C457 1.244 . S
O455 Co429 2.155 . S
O455 C457 1.240 . S
O456 Co429 2.096 . S
O456 C437 1.247 . S
C457 O454 1.244 . S
C457 O455 1.240 . S
H458 C432 0.931 . S
H459 C441 0.902 1_545 S
H460 C445 0.929 . S
H461 C447 0.930 . S
Co462 N466 2.148 . S
Co462 N472 2.128 . S
Co462 N482 2.194 . S
Co462 O487 2.351 . S
Co462 O488 2.155 . S
Co462 O489 2.096 . S
C463 N466 1.301 . S
C463 N467 1.328 . S
C463 H468 0.930 . S
C464 C465 1.333 . S
C464 N466 1.317 . S
C464 H469 0.930 . S
C465 C464 1.333 . S
C465 N467 1.350 . S
C465 H491 0.931 . S
N466 Co462 2.148 . S
N466 C463 1.301 . S
N466 C464 1.317 . S
N467 C463 1.328 . S
N467 C465 1.350 . S
H468 C463 0.930 . S
H469 C464 0.930 . S
C470 O471 1.224 . S
C470 O489 1.247 . S
O471 C470 1.224 . S
N472 Co462 2.128 . S
N472 C473 1.355 . S
N472 C475 1.311 . S
C473 N472 1.355 . S
C473 C474 1.363 . S
C473 H485 0.929 . S
C474 C473 1.363 . S
C474 N476 1.375 . S
C474 H492 0.931 . S
C475 N472 1.311 . S
C475 N476 1.347 . S
C475 H486 0.929 . S
N476 C474 1.375 . S
N476 C475 1.347 . S
C477 C480 1.365 . S
C477 N482 1.328 . S
C477 H483 0.929 . S
C478 C479 1.362 . S
C478 C481 1.378 . S
C478 H493 0.929 . S
C479 C478 1.362 . S
C479 C480 1.366 . S
C480 C477 1.365 . S
C480 C479 1.366 . S
C480 H494 0.930 . S
C481 C478 1.378 . S
C481 N482 1.315 . S
C481 H484 0.930 . S
N482 Co462 2.194 . S
N482 C477 1.328 . S
N482 C481 1.315 . S
H483 C477 0.929 . S
H484 C481 0.930 . S
H485 C473 0.929 . S
H486 C475 0.929 . S
O487 Co462 2.351 . S
O487 C490 1.244 . S
O488 Co462 2.155 . S
O488 C490 1.240 . S
O489 Co462 2.096 . S
O489 C470 1.247 . S
C490 O487 1.244 . S
C490 O488 1.240 . S
H491 C465 0.931 . S
H492 C474 0.931 . S
H493 C478 0.929 . S
H494 C480 0.930 . S
Co495 N499 2.148 . S
Co495 N505 2.128 1_554 S
Co495 N515 2.194 . S
Co495 O520 2.351 . S
Co495 O521 2.155 . S
Co495 O522 2.096 . S
C496 N499 1.301 . S
C496 N500 1.328 . S
C496 H501 0.930 . S
C497 C498 1.333 . S
C497 N499 1.317 . S
C497 H502 0.930 . S
C498 C497 1.333 . S
C498 N500 1.350 . S
C498 H524 0.931 . S
N499 Co495 2.148 . S
N499 C496 1.301 . S
N499 C497 1.317 . S
N500 C496 1.328 . S
N500 C498 1.350 . S
H501 C496 0.930 . S
H502 C497 0.930 . S
C503 O504 1.224 . S
C503 O522 1.247 . S
O504 C503 1.224 . S
N505 Co495 2.128 1_556 S
N505 C506 1.355 . S
N505 C508 1.311 . S
C506 N505 1.355 . S
C506 C507 1.363 . S
C506 H518 0.929 . S
C507 C506 1.363 . S
C507 N509 1.375 . S
C507 H525 0.931 . S
C508 N505 1.311 . S
C508 N509 1.347 . S
C508 H519 0.929 . S
N509 C507 1.375 . S
N509 C508 1.347 . S
C510 C513 1.365 . S
C510 N515 1.328 . S
C510 H516 0.929 . S
C511 C512 1.362 . S
C511 C514 1.378 . S
C511 H526 0.929 . S
C512 C511 1.362 . S
C512 C513 1.366 . S
C513 C510 1.365 . S
C513 C512 1.366 . S
C513 H527 0.930 . S
C514 C511 1.378 . S
C514 N515 1.315 . S
C514 H517 0.930 . S
N515 Co495 2.194 . S
N515 C510 1.328 . S
N515 C514 1.315 . S
H516 C510 0.929 . S
H517 C514 0.930 . S
H518 C506 0.929 . S
H519 C508 0.929 . S
O520 Co495 2.351 . S
O520 C523 1.244 . S
O521 Co495 2.155 . S
O521 C523 1.240 . S
O522 Co495 2.096 . S
O522 C503 1.247 . S
C523 O520 1.244 . S
C523 O521 1.240 . S
H524 C498 0.931 . S
H525 C507 0.931 . S
H526 C511 0.929 . S
H527 C513 0.930 . S
C528 C529 1.369 . S
C528 C530 1.419 . S
C528 H532 0.930 . S
C529 C528 1.369 . S
C529 C538 1.429 . S
C530 C528 1.419 . S
C530 C531 1.363 . S
C530 H533 0.929 . S
C531 C530 1.363 . S
C531 C537 1.428 . S
H532 C528 0.930 . S
H533 C530 0.929 . S
S534 N535 1.613 . S
S534 N536 1.610 . S
N535 S534 1.613 . S
N535 C538 1.350 . S
N536 S534 1.610 . S
N536 C537 1.351 . S
C537 C531 1.428 . S
C537 N536 1.351 . S
C537 C538 1.434 . S
C538 C529 1.429 . S
C538 N535 1.350 . S
C538 C537 1.434 . S
C539 C540 1.369 . S
C539 C541 1.419 . S
C539 H543 0.930 . S
C540 C539 1.369 . S
C540 C549 1.429 . S
C541 C539 1.419 . S
C541 C542 1.363 . S
C541 H544 0.929 . S
C542 C541 1.363 . S
C542 C548 1.428 . S
H543 C539 0.930 . S
H544 C541 0.929 . S
S545 N546 1.613 . S
S545 N547 1.610 . S
N546 S545 1.613 . S
N546 C549 1.350 . S
N547 S545 1.610 . S
N547 C548 1.351 . S
C548 C542 1.428 . S
C548 N547 1.351 . S
C548 C549 1.434 . S
C549 C540 1.429 . S
C549 N546 1.350 . S
C549 C548 1.434 . S
C550 C551 1.369 . S
C550 C552 1.419 . S
C550 H554 0.930 . S
C551 C550 1.369 . S
C551 C560 1.429 . S
C552 C550 1.419 . S
C552 C553 1.363 . S
C552 H555 0.929 . S
C553 C552 1.363 . S
C553 C559 1.428 . S
H554 C550 0.930 . S
H555 C552 0.929 . S
S556 N557 1.613 . S
S556 N558 1.610 . S
N557 S556 1.613 . S
N557 C560 1.350 . S
N558 S556 1.610 . S
N558 C559 1.351 . S
C559 C553 1.428 . S
C559 N558 1.351 . S
C559 C560 1.434 . S
C560 C551 1.429 . S
C560 N557 1.350 . S
C560 C559 1.434 . S
C561 C562 1.369 . S
C561 C563 1.419 . S
C561 H565 0.930 . S
C562 C561 1.369 . S
C562 C571 1.429 . S
C563 C561 1.419 . S
C563 C564 1.363 . S
C563 H566 0.929 . S
C564 C563 1.363 . S
C564 C570 1.428 . S
H565 C561 0.930 . S
H566 C563 0.929 . S
S567 N568 1.613 . S
S567 N569 1.610 . S
N568 S567 1.613 . S
N568 C571 1.350 . S
N569 S567 1.610 . S
N569 C570 1.351 . S
C570 C564 1.428 . S
C570 N569 1.351 . S
C570 C571 1.434 . S
C571 C562 1.429 . S
C571 N568 1.350 . S
C571 C570 1.434 . S
C572 C573 1.369 . S
C572 C574 1.419 . S
C572 H576 0.930 . S
C573 C572 1.369 . S
C573 C582 1.429 . S
C574 C572 1.419 . S
C574 C575 1.363 . S
C574 H577 0.929 . S
C575 C574 1.363 . S
C575 C581 1.428 . S
H576 C572 0.930 . S
H577 C574 0.929 . S
S578 N579 1.613 . S
S578 N580 1.610 . S
N579 S578 1.613 . S
N579 C582 1.350 . S
N580 S578 1.610 . S
N580 C581 1.351 . S
C581 C575 1.428 . S
C581 N580 1.351 . S
C581 C582 1.434 . S
C582 C573 1.429 . S
C582 N579 1.350 . S
C582 C581 1.434 . S
C583 C584 1.369 . S
C583 C585 1.419 . S
C583 H587 0.930 . S
C584 C583 1.369 . S
C584 C593 1.429 . S
C585 C583 1.419 . S
C585 C586 1.363 . S
C585 H588 0.929 . S
C586 C585 1.363 . S
C586 C592 1.428 . S
H587 C583 0.930 . S
H588 C585 0.929 . S
S589 N590 1.613 . S
S589 N591 1.610 . S
N590 S589 1.613 . S
N590 C593 1.350 . S
N591 S589 1.610 . S
N591 C592 1.351 . S
C592 C586 1.428 . S
C592 N591 1.351 . S
C592 C593 1.434 . S
C593 C584 1.429 . S
C593 N590 1.350 . S
C593 C592 1.434 . S
C594 C595 1.369 . S
C594 C596 1.419 . S
C594 H598 0.930 . S
C595 C594 1.369 . S
C595 C604 1.429 . S
C596 C594 1.419 . S
C596 C597 1.363 . S
C596 H599 0.929 . S
C597 C596 1.363 . S
C597 C603 1.428 . S
H598 C594 0.930 . S
H599 C596 0.929 . S
S600 N601 1.613 . S
S600 N602 1.610 . S
N601 S600 1.613 . S
N601 C604 1.350 . S
N602 S600 1.610 . S
N602 C603 1.351 . S
C603 C597 1.428 . S
C603 N602 1.351 . S
C603 C604 1.434 . S
C604 C595 1.429 . S
C604 N601 1.350 . S
C604 C603 1.434 . S
C605 C606 1.369 . S
C605 C607 1.419 . S
C605 H609 0.930 . S
C606 C605 1.369 . S
C606 C615 1.429 . S
C607 C605 1.419 . S
C607 C608 1.363 . S
C607 H610 0.929 . S
C608 C607 1.363 . S
C608 C614 1.428 . S
H609 C605 0.930 . S
H610 C607 0.929 . S
S611 N612 1.613 . S
S611 N613 1.610 . S
N612 S611 1.613 . S
N612 C615 1.350 . S
N613 S611 1.610 . S
N613 C614 1.351 . S
C614 C608 1.428 . S
C614 N613 1.351 . S
C614 C615 1.434 . S
C615 C606 1.429 . S
C615 N612 1.350 . S
C615 C614 1.434 . S
C616 C617 1.369 1_556 S
C616 C618 1.419 . S
C616 H620 0.930 . S
C617 C616 1.369 1_554 S
C617 C626 1.429 . S
C618 C616 1.419 . S
C618 C619 1.363 . S
C618 H621 0.929 . S
C619 C618 1.363 . S
C619 C625 1.428 1_556 S
H620 C616 0.930 . S
H621 C618 0.929 . S
S622 N623 1.613 . S
S622 N624 1.610 . S
N623 S622 1.613 . S
N623 C626 1.350 . S
N624 S622 1.610 . S
N624 C625 1.351 . S
C625 C619 1.428 1_554 S
C625 N624 1.351 . S
C625 C626 1.434 . S
C626 C617 1.429 . S
C626 N623 1.350 . S
C626 C625 1.434 . S
C627 C628 1.369 . S
C627 C629 1.419 . S
C627 H631 0.930 . S
C628 C627 1.369 . S
C628 C637 1.429 . S
C629 C627 1.419 . S
C629 C630 1.363 . S
C629 H632 0.929 . S
C630 C629 1.363 . S
C630 C636 1.428 . S
H631 C627 0.930 . S
H632 C629 0.929 . S
S633 N634 1.613 . S
S633 N635 1.610 . S
N634 S633 1.613 . S
N634 C637 1.350 . S
N635 S633 1.610 . S
N635 C636 1.351 . S
C636 C630 1.428 . S
C636 N635 1.351 . S
C636 C637 1.434 . S
C637 C628 1.429 . S
C637 N634 1.350 . S
C637 C636 1.434 . S
C638 C639 1.369 . S
C638 C640 1.419 1_554 S
C638 H642 0.930 . S
C639 C638 1.369 . S
C639 C648 1.429 . S
C640 C638 1.419 1_556 S
C640 C641 1.363 . S
C640 H643 0.929 . S
C641 C640 1.363 . S
C641 C647 1.428 . S
H642 C638 0.930 . S
H643 C640 0.929 . S
S644 N645 1.613 . S
S644 N646 1.610 1_554 S
N645 S644 1.613 . S
N645 C648 1.350 . S
N646 S644 1.610 1_556 S
N646 C647 1.351 . S
C647 C641 1.428 . S
C647 N646 1.351 . S
C647 C648 1.434 1_556 S
C648 C639 1.429 . S
C648 N645 1.350 . S
C648 C647 1.434 1_554 S
C649 C650 1.369 . S
C649 C651 1.419 . S
C649 H653 0.930 . S
C650 C649 1.369 . S
C650 C659 1.429 . S
C651 C649 1.419 . S
C651 C652 1.363 . S
C651 H654 0.929 . S
C652 C651 1.363 . S
C652 C658 1.428 . S
H653 C649 0.930 . S
H654 C651 0.929 . S
S655 N656 1.613 . S
S655 N657 1.610 . S
N656 S655 1.613 . S
N656 C659 1.350 . S
N657 S655 1.610 . S
N657 C658 1.351 . S
C658 C652 1.428 . S
C658 N657 1.351 . S
C658 C659 1.434 . S
C659 C650 1.429 . S
C659 N656 1.350 . S
C659 C658 1.434 . S
C660 C661 1.369 . S
C660 C662 1.419 . S
C660 H664 0.930 . S
C661 C660 1.369 . S
C661 C670 1.429 1_554 S
C662 C660 1.419 . S
C662 C663 1.363 1_554 S
C662 H665 0.929 . S
C663 C662 1.363 1_556 S
C663 C669 1.428 . S
H664 C660 0.930 . S
H665 C662 0.929 . S
S666 N667 1.613 . S
S666 N668 1.610 . S
N667 S666 1.613 . S
N667 C670 1.350 . S
N668 S666 1.610 . S
N668 C669 1.351 . S
C669 C663 1.428 . S
C669 N668 1.351 . S
C669 C670 1.434 . S
C670 C661 1.429 1_556 S
C670 N667 1.350 . S
C670 C669 1.434 . S
C671 C672 1.369 . S
C671 C673 1.419 . S
C671 H675 0.930 . S
C672 C671 1.369 . S
C672 C681 1.429 . S
C673 C671 1.419 . S
C673 C674 1.363 . S
C673 H676 0.929 . S
C674 C673 1.363 . S
C674 C680 1.428 . S
H675 C671 0.930 . S
H676 C673 0.929 . S
S677 N678 1.613 . S
S677 N679 1.610 . S
N678 S677 1.613 . S
N678 C681 1.350 . S
N679 S677 1.610 . S
N679 C680 1.351 . S
C680 C674 1.428 . S
C680 N679 1.351 . S
C680 C681 1.434 . S
C681 C672 1.429 . S
C681 N678 1.350 . S
C681 C680 1.434 . S
C682 C683 1.369 . S
C682 C684 1.419 . S
C682 H686 0.930 . S
C683 C682 1.369 . S
C683 C692 1.429 1_554 S
C684 C682 1.419 . S
C684 C685 1.363 1_554 S
C684 H687 0.929 . S
C685 C684 1.363 1_556 S
C685 C691 1.428 . S
H686 C682 0.930 . S
H687 C684 0.929 . S
S688 N689 1.613 . S
S688 N690 1.610 . S
N689 S688 1.613 . S
N689 C692 1.350 . S
N690 S688 1.610 . S
N690 C691 1.351 . S
C691 C685 1.428 . S
C691 N690 1.351 . S
C691 C692 1.434 . S
C692 C683 1.429 1_556 S
C692 N689 1.350 . S
C692 C691 1.434 . S
C693 C694 1.369 . S
C693 C695 1.419 . S
C693 H697 0.930 . S
C694 C693 1.369 . S
C694 C703 1.429 . S
C695 C693 1.419 . S
C695 C696 1.363 . S
C695 H698 0.929 . S
C696 C695 1.363 . S
C696 C702 1.428 . S
H697 C693 0.930 . S
H698 C695 0.929 . S
S699 N700 1.613 . S
S699 N701 1.610 . S
N700 S699 1.613 . S
N700 C703 1.350 . S
N701 S699 1.610 . S
N701 C702 1.351 . S
C702 C696 1.428 . S
C702 N701 1.351 . S
C702 C703 1.434 . S
C703 C694 1.429 . S
C703 N700 1.350 . S
C703 C702 1.434 . S
C704 C705 1.369 . S
C704 C706 1.419 . S
C704 H708 0.930 . S
C705 C704 1.369 . S
C705 C714 1.429 . S
C706 C704 1.419 . S
C706 C707 1.363 . S
C706 H709 0.929 . S
C707 C706 1.363 . S
C707 C713 1.428 . S
H708 C704 0.930 . S
H709 C706 0.929 . S
S710 N711 1.613 . S
S710 N712 1.610 . S
N711 S710 1.613 . S
N711 C714 1.350 . S
N712 S710 1.610 . S
N712 C713 1.351 . S
C713 C707 1.428 . S
C713 N712 1.351 . S
C713 C714 1.434 . S
C714 C705 1.429 . S
C714 N711 1.350 . S
C714 C713 1.434 . S
C715 C716 1.369 . S
C715 C717 1.419 . S
C715 H719 0.930 . S
C716 C715 1.369 . S
C716 C725 1.429 . S
C717 C715 1.419 . S
C717 C718 1.363 . S
C717 H720 0.929 . S
C718 C717 1.363 . S
C718 C724 1.428 . S
H719 C715 0.930 . S
H720 C717 0.929 . S
S721 N722 1.613 . S
S721 N723 1.610 . S
N722 S721 1.613 . S
N722 C725 1.350 . S
N723 S721 1.610 . S
N723 C724 1.351 . S
C724 C718 1.428 . S
C724 N723 1.351 . S
C724 C725 1.434 . S
C725 C716 1.429 . S
C725 N722 1.350 . S
C725 C724 1.434 . S
C726 C727 1.369 . S
C726 C728 1.419 . S
C726 H730 0.930 . S
C727 C726 1.369 . S
C727 C736 1.429 . S
C728 C726 1.419 . S
C728 C729 1.363 . S
C728 H731 0.929 . S
C729 C728 1.363 . S
C729 C735 1.428 . S
H730 C726 0.930 . S
H731 C728 0.929 . S
S732 N733 1.613 . S
S732 N734 1.610 . S
N733 S732 1.613 . S
N733 C736 1.350 . S
N734 S732 1.610 . S
N734 C735 1.351 . S
C735 C729 1.428 . S
C735 N734 1.351 . S
C735 C736 1.434 . S
C736 C727 1.429 . S
C736 N733 1.350 . S
C736 C735 1.434 . S
C737 C738 1.369 . S
C737 C739 1.419 . S
C737 H741 0.930 . S
C738 C737 1.369 . S
C738 C747 1.429 . S
C739 C737 1.419 . S
C739 C740 1.363 . S
C739 H742 0.929 . S
C740 C739 1.363 . S
C740 C746 1.428 . S
H741 C737 0.930 . S
H742 C739 0.929 . S
S743 N744 1.613 . S
S743 N745 1.610 . S
N744 S743 1.613 . S
N744 C747 1.350 . S
N745 S743 1.610 . S
N745 C746 1.351 . S
C746 C740 1.428 . S
C746 N745 1.351 . S
C746 C747 1.434 . S
C747 C738 1.429 . S
C747 N744 1.350 . S
C747 C746 1.434 . S
C748 C749 1.369 . S
C748 C750 1.419 . S
C748 H752 0.930 . S
C749 C748 1.369 . S
C749 C758 1.429 . S
C750 C748 1.419 . S
C750 C751 1.363 . S
C750 H753 0.929 . S
C751 C750 1.363 . S
C751 C757 1.428 . S
H752 C748 0.930 . S
H753 C750 0.929 . S
S754 N755 1.613 . S
S754 N756 1.610 . S
N755 S754 1.613 . S
N755 C758 1.350 1_455 S
N756 S754 1.610 . S
N756 C757 1.351 1_455 S
C757 C751 1.428 . S
C757 N756 1.351 1_655 S
C757 C758 1.434 . S
C758 C749 1.429 . S
C758 N755 1.350 1_655 S
C758 C757 1.434 . S
C759 C760 1.369 . S
C759 C761 1.419 . S
C759 H763 0.930 . S
C760 C759 1.369 . S
C760 C769 1.429 . S
C761 C759 1.419 . S
C761 C762 1.363 . S
C761 H764 0.929 . S
C762 C761 1.363 . S
C762 C768 1.428 . S
H763 C759 0.930 . S
H764 C761 0.929 . S
S765 N766 1.613 . S
S765 N767 1.610 . S
N766 S765 1.613 . S
N766 C769 1.350 1_545 S
N767 S765 1.610 . S
N767 C768 1.351 1_545 S
C768 C762 1.428 . S
C768 N767 1.351 1_565 S
C768 C769 1.434 . S
C769 C760 1.429 . S
C769 N766 1.350 1_565 S
C769 C768 1.434 . S
C770 C771 1.369 . S
C770 C772 1.419 . S
C770 H774 0.930 . S
C771 C770 1.369 . S
C771 C780 1.429 . S
C772 C770 1.419 . S
C772 C773 1.363 . S
C772 H775 0.929 . S
C773 C772 1.363 . S
C773 C779 1.428 . S
H774 C770 0.930 . S
H775 C772 0.929 . S
S776 N777 1.613 . S
S776 N778 1.610 . S
N777 S776 1.613 . S
N777 C780 1.350 . S
N778 S776 1.610 . S
N778 C779 1.351 . S
C779 C773 1.428 . S
C779 N778 1.351 . S
C779 C780 1.434 . S
C780 C771 1.429 . S
C780 N777 1.350 . S
C780 C779 1.434 . S
C781 C782 1.369 . S
C781 C783 1.419 . S
C781 H785 0.930 . S
C782 C781 1.369 . S
C782 C791 1.429 . S
C783 C781 1.419 . S
C783 C784 1.363 . S
C783 H786 0.929 . S
C784 C783 1.363 . S
C784 C790 1.428 . S
H785 C781 0.930 . S
H786 C783 0.929 . S
S787 N788 1.613 . S
S787 N789 1.610 . S
N788 S787 1.613 . S
N788 C791 1.350 . S
N789 S787 1.610 . S
N789 C790 1.351 . S
C790 C784 1.428 . S
C790 N789 1.351 . S
C790 C791 1.434 . S
C791 C782 1.429 . S
C791 N788 1.350 . S
C791 C790 1.434 . S
C792 C793 1.369 . S
C792 C794 1.419 . S
C792 H796 0.930 . S
C793 C792 1.369 . S
C793 C802 1.429 . S
C794 C792 1.419 . S
C794 C795 1.363 . S
C794 H797 0.929 . S
C795 C794 1.363 . S
C795 C801 1.428 . S
H796 C792 0.930 . S
H797 C794 0.929 . S
S798 N799 1.613 . S
S798 N800 1.610 . S
N799 S798 1.613 . S
N799 C802 1.350 . S
N800 S798 1.610 . S
N800 C801 1.351 . S
C801 C795 1.428 . S
C801 N800 1.351 . S
C801 C802 1.434 . S
C802 C793 1.429 . S
C802 N799 1.350 . S
C802 C801 1.434 . S
C803 C804 1.369 . S
C803 C805 1.419 . S
C803 H807 0.930 . S
C804 C803 1.369 . S
C804 C813 1.429 . S
C805 C803 1.419 . S
C805 C806 1.363 . S
C805 H808 0.929 . S
C806 C805 1.363 . S
C806 C812 1.428 . S
H807 C803 0.930 . S
H808 C805 0.929 . S
S809 N810 1.613 . S
S809 N811 1.610 . S
N810 S809 1.613 . S
N810 C813 1.350 . S
N811 S809 1.610 . S
N811 C812 1.351 . S
C812 C806 1.428 . S
C812 N811 1.351 . S
C812 C813 1.434 . S
C813 C804 1.429 . S
C813 N810 1.350 . S
C813 C812 1.434 . S
C814 C815 1.369 . S
C814 C816 1.419 . S
C814 H818 0.930 . S
C815 C814 1.369 . S
C815 C824 1.429 . S
C816 C814 1.419 . S
C816 C817 1.363 . S
C816 H819 0.929 . S
C817 C816 1.363 . S
C817 C823 1.428 . S
H818 C814 0.930 . S
H819 C816 0.929 . S
S820 N821 1.613 . S
S820 N822 1.610 . S
N821 S820 1.613 . S
N821 C824 1.350 . S
N822 S820 1.610 . S
N822 C823 1.351 . S
C823 C817 1.428 . S
C823 N822 1.351 . S
C823 C824 1.434 . S
C824 C815 1.429 . S
C824 N821 1.350 . S
C824 C823 1.434 . S
C825 C826 1.369 . S
C825 C827 1.419 . S
C825 H829 0.930 . S
C826 C825 1.369 . S
C826 C835 1.429 . S
C827 C825 1.419 . S
C827 C828 1.363 . S
C827 H830 0.929 . S
C828 C827 1.363 . S
C828 C834 1.428 . S
H829 C825 0.930 . S
H830 C827 0.929 . S
S831 N832 1.613 . S
S831 N833 1.610 . S
N832 S831 1.613 . S
N832 C835 1.350 . S
N833 S831 1.610 . S
N833 C834 1.351 . S
C834 C828 1.428 . S
C834 N833 1.351 . S
C834 C835 1.434 . S
C835 C826 1.429 . S
C835 N832 1.350 . S
C835 C834 1.434 . S
C836 C837 1.369 . S
C836 C838 1.419 . S
C836 H840 0.930 . S
C837 C836 1.369 . S
C837 C846 1.429 . S
C838 C836 1.419 . S
C838 C839 1.363 . S
C838 H841 0.929 . S
C839 C838 1.363 . S
C839 C845 1.428 . S
H840 C836 0.930 . S
H841 C838 0.929 . S
S842 N843 1.613 . S
S842 N844 1.610 . S
N843 S842 1.613 . S
N843 C846 1.350 . S
N844 S842 1.610 . S
N844 C845 1.351 . S
C845 C839 1.428 . S
C845 N844 1.351 . S
C845 C846 1.434 . S
C846 C837 1.429 . S
C846 N843 1.350 . S
C846 C845 1.434 . S
C847 C848 1.369 . S
C847 C849 1.419 . S
C847 H851 0.930 . S
C848 C847 1.369 . S
C848 C857 1.429 . S
C849 C847 1.419 . S
C849 C850 1.363 . S
C849 H852 0.929 . S
C850 C849 1.363 . S
C850 C856 1.428 . S
H851 C847 0.930 . S
H852 C849 0.929 . S
S853 N854 1.609 1_565 S
S853 N855 1.610 1_565 S
N854 S853 1.609 1_545 S
N854 C857 1.357 . S
N855 S853 1.610 1_545 S
N855 C856 1.351 . S
C856 C850 1.428 . S
C856 N855 1.351 . S
C856 C857 1.434 . S
C857 C848 1.429 . S
C857 N854 1.357 . S
C857 C856 1.434 . S
C858 C859 1.369 . S
C858 C860 1.419 . S
C858 H862 0.930 . S
C859 C858 1.369 . S
C859 C868 1.429 . S
C860 C858 1.419 . S
C860 C861 1.363 . S
C860 H863 0.929 . S
C861 C860 1.363 . S
C861 C867 1.428 . S
H862 C858 0.930 . S
H863 C860 0.929 . S
S864 N865 1.613 . S
S864 N866 1.610 . S
N865 S864 1.613 . S
N865 C868 1.350 . S
N866 S864 1.610 . S
N866 C867 1.351 . S
C867 C861 1.428 . S
C867 N866 1.351 . S
C867 C868 1.434 . S
C868 C859 1.429 . S
C868 N865 1.350 . S
C868 C867 1.434 . S
C869 C870 1.369 . S
C869 C871 1.419 . S
C869 H873 0.930 . S
C870 C869 1.369 . S
C870 C879 1.429 . S
C871 C869 1.419 . S
C871 C872 1.363 . S
C871 H874 0.929 . S
C872 C871 1.363 . S
C872 C878 1.428 . S
H873 C869 0.930 . S
H874 C871 0.929 . S
S875 N876 1.613 . S
S875 N877 1.610 . S
N876 S875 1.613 . S
N876 C879 1.350 . S
N877 S875 1.610 . S
N877 C878 1.351 . S
C878 C872 1.428 . S
C878 N877 1.351 . S
C878 C879 1.434 . S
C879 C870 1.429 . S
C879 N876 1.350 . S
C879 C878 1.434 . S
C880 C881 1.369 . S
C880 C882 1.419 . S
C880 H884 0.930 . S
C881 C880 1.369 . S
C881 C890 1.429 . S
C882 C880 1.419 . S
C882 C883 1.363 . S
C882 H885 0.929 . S
C883 C882 1.363 . S
C883 C889 1.428 . S
H884 C880 0.930 . S
H885 C882 0.929 . S
S886 N887 1.613 . S
S886 N888 1.610 . S
N887 S886 1.613 . S
N887 C890 1.350 . S
N888 S886 1.610 . S
N888 C889 1.351 . S
C889 C883 1.428 . S
C889 N888 1.351 . S
C889 C890 1.434 . S
C890 C881 1.429 . S
C890 N887 1.350 . S
C890 C889 1.434 . S
C891 C892 1.369 . S
C891 C893 1.419 . S
C891 H895 0.930 . S
C892 C891 1.369 . S
C892 C901 1.429 . S
C893 C891 1.419 . S
C893 C894 1.363 . S
C893 H896 0.929 1_565 S
C894 C893 1.363 . S
C894 C900 1.428 . S
H895 C891 0.930 . S
H896 C893 0.929 1_545 S
S897 N898 1.613 . S
S897 N899 1.610 . S
N898 S897 1.613 . S
N898 C901 1.350 . S
N899 S897 1.610 . S
N899 C900 1.351 . S
C900 C894 1.428 . S
C900 N899 1.351 . S
C900 C901 1.434 . S
C901 C892 1.429 . S
C901 N898 1.350 . S
C901 C900 1.434 . S
C902 C903 1.369 . S
C902 C904 1.419 . S
C902 H906 0.930 . S
C903 C902 1.369 . S
C903 C912 1.429 . S
C904 C902 1.419 . S
C904 C905 1.363 . S
C904 H907 0.929 . S
C905 C904 1.363 . S
C905 C911 1.428 . S
H906 C902 0.930 . S
H907 C904 0.929 . S
S908 N909 1.613 . S
S908 N910 1.610 . S
N909 S908 1.613 . S
N909 C912 1.350 . S
N910 S908 1.610 . S
N910 C911 1.351 . S
C911 C905 1.428 . S
C911 N910 1.351 . S
C911 C912 1.434 . S
C912 C903 1.429 . S
C912 N909 1.350 . S
C912 C911 1.434 . S
C913 C914 1.369 . S
C913 C915 1.419 . S
C913 H917 0.930 . S
C914 C913 1.369 . S
C914 C923 1.429 . S
C915 C913 1.419 . S
C915 C916 1.363 . S
C915 H918 0.929 . S
C916 C915 1.363 . S
C916 C922 1.428 . S
H917 C913 0.930 . S
H918 C915 0.929 . S
S919 N920 1.613 . S
S919 N921 1.610 . S
N920 S919 1.613 . S
N920 C923 1.350 . S
N921 S919 1.610 . S
N921 C922 1.351 . S
C922 C916 1.428 . S
C922 N921 1.351 . S
C922 C923 1.434 . S
C923 C914 1.429 . S
C923 N920 1.350 . S
C923 C922 1.434 . S
C924 C925 1.369 . S
C924 C926 1.419 . S
C924 H928 0.930 . S
C925 C924 1.369 . S
C925 C934 1.429 . S
C926 C924 1.419 . S
C926 C927 1.363 . S
C926 H929 0.929 . S
C927 C926 1.363 . S
C927 C933 1.428 . S
H928 C924 0.930 . S
H929 C926 0.929 . S
S930 N931 1.613 . S
S930 N932 1.610 . S
N931 S930 1.613 . S
N931 C934 1.350 . S
N932 S930 1.610 . S
N932 C933 1.351 . S
C933 C927 1.428 . S
C933 N932 1.351 . S
C933 C934 1.434 . S
C934 C925 1.429 . S
C934 N931 1.350 . S
C934 C933 1.434 . S
C935 C936 1.369 . S
C935 C937 1.419 . S
C935 H939 0.930 . S
C936 C935 1.369 . S
C936 C945 1.429 . S
C937 C935 1.419 . S
C937 C938 1.363 . S
C937 H940 0.929 . S
C938 C937 1.363 . S
C938 C944 1.428 . S
H939 C935 0.930 . S
H940 C937 0.929 . S
S941 N942 1.613 1_545 S
S941 N943 1.610 1_545 S
N942 S941 1.613 1_565 S
N942 C945 1.350 . S
N943 S941 1.610 1_565 S
N943 C944 1.351 . S
C944 C938 1.428 . S
C944 N943 1.351 . S
C944 C945 1.434 . S
C945 C936 1.429 . S
C945 N942 1.350 . S
C945 C944 1.434 . S
C946 C947 1.369 . S
C946 C948 1.419 . S
C946 H950 0.930 . S
C947 C946 1.369 . S
C947 C956 1.429 . S
C948 C946 1.419 . S
C948 C949 1.363 . S
C948 H951 0.929 . S
C949 C948 1.363 . S
C949 C955 1.428 . S
H950 C946 0.930 . S
H951 C948 0.929 . S
S952 N953 1.613 . S
S952 N954 1.610 . S
N953 S952 1.613 . S
N953 C956 1.350 . S
N954 S952 1.610 . S
N954 C955 1.351 . S
C955 C949 1.428 . S
C955 N954 1.351 . S
C955 C956 1.434 . S
C956 C947 1.429 . S
C956 N953 1.350 . S
C956 C955 1.434 . S
C957 C958 1.369 . S
C957 C959 1.419 . S
C957 H961 0.930 . S
C958 C957 1.369 . S
C958 C967 1.429 . S
C959 C957 1.419 . S
C959 C960 1.363 . S
C959 H962 0.929 . S
C960 C959 1.363 . S
C960 C966 1.428 . S
H961 C957 0.930 . S
H962 C959 0.929 . S
S963 N964 1.613 . S
S963 N965 1.610 . S
N964 S963 1.613 . S
N964 C967 1.350 . S
N965 S963 1.610 . S
N965 C966 1.351 . S
C966 C960 1.428 . S
C966 N965 1.351 . S
C966 C967 1.434 . S
C967 C958 1.429 . S
C967 N964 1.350 . S
C967 C966 1.434 . S
C529 C17 1.549 . S
C531 C512 1.549 . S
C540 C50 1.550 . S
C542 C413 1.549 . S
C551 C446 1.546 . S
C553 C83 1.547 . S
C562 C116 1.548 . S
C564 C479 1.548 . S
C573 C314 1.546 . S
C575 C149 1.546 . S
C584 C347 1.546 . S
C586 C182 1.546 . S
C595 C380 1.550 . S
C597 C215 1.549 . S
C606 C281 1.548 . S
C608 C248 1.548 . S
C617 C8 1.444 . S
C619 C239 1.441 . S
C628 C41 1.443 . S
C630 C140 1.444 . S
C639 C74 1.438 . S
C641 C173 1.439 . S
C650 C107 1.443 . S
C652 C206 1.444 . S
C661 C503 1.439 . S
C663 C272 1.442 . S
C672 C404 1.441 . S
C674 C305 1.439 . S
C683 C437 1.439 . S
C685 C338 1.442 . S
C694 C371 1.440 . S
C696 C470 1.439 . S
C705 C28 1.155 . S
C707 C160 1.151 . S
C716 C193 1.151 . S
C718 C61 1.155 . S
C727 C226 1.151 . S
C729 C94 1.154 . S
C738 C127 1.151 . S
C740 C259 1.154 . S
C749 C424 1.153 . S
C751 C292 1.154 . S
C760 C325 1.154 . S
C762 C457 1.153 . S
C771 C358 1.154 . S
C773 C490 1.153 . S
C782 C523 1.151 . S
C784 C391 1.155 . S
C793 N14 1.414 . S
C795 N5 1.416 . S
C804 N38 1.416 1_554 S
C806 N47 1.414 . S
C815 N80 1.411 . S
C817 N71 1.418 . S
C826 N104 1.419 1_554 S
C828 N113 1.411 . S
C837 N146 1.414 . S
C839 N137 1.416 1_556 S
C848 N179 1.412 . S
C850 N170 1.418 . S
C859 N212 1.413 . S
C861 N203 1.417 1_556 S
C870 N245 1.415 . S
C872 N236 1.416 . S
C881 N269 1.416 . S
C883 N278 1.414 . S
C892 N302 1.415 1_556 S
C894 N311 1.415 . S
C903 N335 1.418 . S
C905 N344 1.412 . S
C914 N368 1.416 1_556 S
C916 N377 1.415 . S
C925 N410 1.414 . S
C927 N401 1.417 1_554 S
C936 N443 1.411 . S
C938 N434 1.418 . S
C947 N467 1.419 1_554 S
C949 N476 1.412 . S
C958 N500 1.418 . S
C960 N509 1.412 . S
