# Generated by pormake.
# Topology ukd, (4)-cn, num edge types: 1
# Building blocks:
#     Node 0, Type 0, BuildingBlock: ICAMEG_clean_sbu_1, # of connection points: 4
#     Node 1, Type 0, BuildingBlock: ICAMEG_clean_sbu_1, # of connection points: 4
#     Node 2, Type 0, BuildingBlock: ICAMEG_clean_sbu_1, # of connection points: 4
#     Node 3, Type 0, BuildingBlock: ICAMEG_clean_sbu_1, # of connection points: 4
#     Node 4, Type 0, BuildingBlock: ICAMEG_clean_sbu_1, # of connection points: 4
#     Node 5, Type 0, BuildingBlock: ICAMEG_clean_sbu_1, # of connection points: 4
#     Node 6, Type 0, BuildingBlock: ICAMEG_clean_sbu_1, # of connection points: 4
#     Node 7, Type 0, BuildingBlock: ICAMEG_clean_sbu_1, # of connection points: 4
#     Node 8, Type 0, BuildingBlock: ICAMEG_clean_sbu_1, # of connection points: 4
#     Node 9, Type 0, BuildingBlock: ICAMEG_clean_sbu_1, # of connection points: 4
#     Node 10, Type 0, BuildingBlock: ICAMEG_clean_sbu_1, # of connection points: 4
#     Node 11, Type 0, BuildingBlock: ICAMEG_clean_sbu_1, # of connection points: 4
#     Node 12, Type 0, BuildingBlock: ICAMEG_clean_sbu_1, # of connection points: 4
#     Node 13, Type 0, BuildingBlock: ICAMEG_clean_sbu_1, # of connection points: 4
#     Node 14, Type 0, BuildingBlock: ICAMEG_clean_sbu_1, # of connection points: 4
#     Node 15, Type 0, BuildingBlock: ICAMEG_clean_sbu_1, # of connection points: 4
#     Node 16, Type 0, BuildingBlock: ICAMEG_clean_sbu_1, # of connection points: 4
#     Node 17, Type 0, BuildingBlock: ICAMEG_clean_sbu_1, # of connection points: 4
#     Node 18, Type 0, BuildingBlock: ICAMEG_clean_sbu_1, # of connection points: 4
#     Node 19, Type 0, BuildingBlock: ICAMEG_clean_sbu_1, # of connection points: 4
#     Node 20, Type 0, BuildingBlock: ICAMEG_clean_sbu_1, # of connection points: 4
#     Node 21, Type 0, BuildingBlock: ICAMEG_clean_sbu_1, # of connection points: 4
#     Node 22, Type 0, BuildingBlock: ICAMEG_clean_sbu_1, # of connection points: 4
#     Node 23, Type 0, BuildingBlock: ICAMEG_clean_sbu_1, # of connection points: 4
#     Node 24, Type 0, BuildingBlock: ICAMEG_clean_sbu_1, # of connection points: 4
#     Node 25, Type 0, BuildingBlock: ICAMEG_clean_sbu_1, # of connection points: 4
#     Node 26, Type 0, BuildingBlock: ICAMEG_clean_sbu_1, # of connection points: 4
#     Node 27, Type 0, BuildingBlock: ICAMEG_clean_sbu_1, # of connection points: 4
#     Node 28, Type 0, BuildingBlock: ICAMEG_clean_sbu_1, # of connection points: 4
#     Node 29, Type 0, BuildingBlock: ICAMEG_clean_sbu_1, # of connection points: 4
#     Node 30, Type 0, BuildingBlock: ICAMEG_clean_sbu_1, # of connection points: 4
#     Node 31, Type 0, BuildingBlock: ICAMEG_clean_sbu_1, # of connection points: 4
#     Edge 32, Type (0, 0), BuildingBlock: XIVTED_clean_linker_0, # of connection points: 2
#     Edge 33, Type (0, 0), BuildingBlock: XIVTED_clean_linker_0, # of connection points: 2
#     Edge 34, Type (0, 0), BuildingBlock: XIVTED_clean_linker_0, # of connection points: 2
#     Edge 35, Type (0, 0), BuildingBlock: XIVTED_clean_linker_0, # of connection points: 2
#     Edge 36, Type (0, 0), BuildingBlock: XIVTED_clean_linker_0, # of connection points: 2
#     Edge 37, Type (0, 0), BuildingBlock: XIVTED_clean_linker_0, # of connection points: 2
#     Edge 38, Type (0, 0), BuildingBlock: XIVTED_clean_linker_0, # of connection points: 2
#     Edge 39, Type (0, 0), BuildingBlock: XIVTED_clean_linker_0, # of connection points: 2
#     Edge 40, Type (0, 0), BuildingBlock: XIVTED_clean_linker_0, # of connection points: 2
#     Edge 41, Type (0, 0), BuildingBlock: XIVTED_clean_linker_0, # of connection points: 2
#     Edge 42, Type (0, 0), BuildingBlock: XIVTED_clean_linker_0, # of connection points: 2
#     Edge 43, Type (0, 0), BuildingBlock: XIVTED_clean_linker_0, # of connection points: 2
#     Edge 44, Type (0, 0), BuildingBlock: XIVTED_clean_linker_0, # of connection points: 2
#     Edge 45, Type (0, 0), BuildingBlock: XIVTED_clean_linker_0, # of connection points: 2
#     Edge 46, Type (0, 0), BuildingBlock: XIVTED_clean_linker_0, # of connection points: 2
#     Edge 47, Type (0, 0), BuildingBlock: XIVTED_clean_linker_0, # of connection points: 2
#     Edge 48, Type (0, 0), BuildingBlock: XIVTED_clean_linker_0, # of connection points: 2
#     Edge 49, Type (0, 0), BuildingBlock: XIVTED_clean_linker_0, # of connection points: 2
#     Edge 50, Type (0, 0), BuildingBlock: XIVTED_clean_linker_0, # of connection points: 2
#     Edge 51, Type (0, 0), BuildingBlock: XIVTED_clean_linker_0, # of connection points: 2
#     Edge 52, Type (0, 0), BuildingBlock: XIVTED_clean_linker_0, # of connection points: 2
#     Edge 53, Type (0, 0), BuildingBlock: XIVTED_clean_linker_0, # of connection points: 2
#     Edge 54, Type (0, 0), BuildingBlock: XIVTED_clean_linker_0, # of connection points: 2
#     Edge 55, Type (0, 0), BuildingBlock: XIVTED_clean_linker_0, # of connection points: 2
#     Edge 56, Type (0, 0), BuildingBlock: XIVTED_clean_linker_0, # of connection points: 2
#     Edge 57, Type (0, 0), BuildingBlock: XIVTED_clean_linker_0, # of connection points: 2
#     Edge 58, Type (0, 0), BuildingBlock: XIVTED_clean_linker_0, # of connection points: 2
#     Edge 59, Type (0, 0), BuildingBlock: XIVTED_clean_linker_0, # of connection points: 2
#     Edge 60, Type (0, 0), BuildingBlock: XIVTED_clean_linker_0, # of connection points: 2
#     Edge 61, Type (0, 0), BuildingBlock: XIVTED_clean_linker_0, # of connection points: 2
#     Edge 62, Type (0, 0), BuildingBlock: XIVTED_clean_linker_0, # of connection points: 2
#     Edge 63, Type (0, 0), BuildingBlock: XIVTED_clean_linker_0, # of connection points: 2
#     Edge 64, Type (0, 0), BuildingBlock: XIVTED_clean_linker_0, # of connection points: 2
#     Edge 65, Type (0, 0), BuildingBlock: XIVTED_clean_linker_0, # of connection points: 2
#     Edge 66, Type (0, 0), BuildingBlock: XIVTED_clean_linker_0, # of connection points: 2
#     Edge 67, Type (0, 0), BuildingBlock: XIVTED_clean_linker_0, # of connection points: 2
#     Edge 68, Type (0, 0), BuildingBlock: XIVTED_clean_linker_0, # of connection points: 2
#     Edge 69, Type (0, 0), BuildingBlock: XIVTED_clean_linker_0, # of connection points: 2
#     Edge 70, Type (0, 0), BuildingBlock: XIVTED_clean_linker_0, # of connection points: 2
#     Edge 71, Type (0, 0), BuildingBlock: XIVTED_clean_linker_0, # of connection points: 2
#     Edge 72, Type (0, 0), BuildingBlock: XIVTED_clean_linker_0, # of connection points: 2
#     Edge 73, Type (0, 0), BuildingBlock: XIVTED_clean_linker_0, # of connection points: 2
#     Edge 74, Type (0, 0), BuildingBlock: XIVTED_clean_linker_0, # of connection points: 2
#     Edge 75, Type (0, 0), BuildingBlock: XIVTED_clean_linker_0, # of connection points: 2
#     Edge 76, Type (0, 0), BuildingBlock: XIVTED_clean_linker_0, # of connection points: 2
#     Edge 77, Type (0, 0), BuildingBlock: XIVTED_clean_linker_0, # of connection points: 2
#     Edge 78, Type (0, 0), BuildingBlock: XIVTED_clean_linker_0, # of connection points: 2
#     Edge 79, Type (0, 0), BuildingBlock: XIVTED_clean_linker_0, # of connection points: 2
#     Edge 80, Type (0, 0), BuildingBlock: XIVTED_clean_linker_0, # of connection points: 2
#     Edge 81, Type (0, 0), BuildingBlock: XIVTED_clean_linker_0, # of connection points: 2
#     Edge 82, Type (0, 0), BuildingBlock: XIVTED_clean_linker_0, # of connection points: 2
#     Edge 83, Type (0, 0), BuildingBlock: XIVTED_clean_linker_0, # of connection points: 2
#     Edge 84, Type (0, 0), BuildingBlock: XIVTED_clean_linker_0, # of connection points: 2
#     Edge 85, Type (0, 0), BuildingBlock: XIVTED_clean_linker_0, # of connection points: 2
#     Edge 86, Type (0, 0), BuildingBlock: XIVTED_clean_linker_0, # of connection points: 2
#     Edge 87, Type (0, 0), BuildingBlock: XIVTED_clean_linker_0, # of connection points: 2
#     Edge 88, Type (0, 0), BuildingBlock: XIVTED_clean_linker_0, # of connection points: 2
#     Edge 89, Type (0, 0), BuildingBlock: XIVTED_clean_linker_0, # of connection points: 2
#     Edge 90, Type (0, 0), BuildingBlock: XIVTED_clean_linker_0, # of connection points: 2
#     Edge 91, Type (0, 0), BuildingBlock: XIVTED_clean_linker_0, # of connection points: 2
#     Edge 92, Type (0, 0), BuildingBlock: XIVTED_clean_linker_0, # of connection points: 2
#     Edge 93, Type (0, 0), BuildingBlock: XIVTED_clean_linker_0, # of connection points: 2
#     Edge 94, Type (0, 0), BuildingBlock: XIVTED_clean_linker_0, # of connection points: 2
#     Edge 95, Type (0, 0), BuildingBlock: XIVTED_clean_linker_0, # of connection points: 2
# Relax obj value: 0.008
# Max RMSD: 0.028
# Mean RMSD: 0.028
data_MOF--net-ukd--node1-ICAMEG_clean_sbu_1--edge1-XIVTED_clean_linker_0
_symmetry_space_group_name_H-M    P1
_symmetry_Int_Tables_number       1
_symmetry_cell_setting            triclinic
loop_
_symmetry_equiv_pos_as_xyz
'x, y, z'
_cell_length_a     48.467958
_cell_length_b     48.464617
_cell_length_c     79.522447
_cell_angle_alpha  90.004053
_cell_angle_beta   89.998027
_cell_angle_gamma 89.999834
loop_
_atom_site_label
_atom_site_type_symbol
_atom_site_fract_x
_atom_site_fract_y
_atom_site_fract_z
_atom_type_partial_charge
Co0 Co 0.17617 0.18019 0.32559 0.0
Co1 Co 0.21128 0.17888 0.36344 0.0
O2 O 0.20947 0.17332 0.33899 0.0
C3 C 0.21685 0.21476 0.30699 0.0
O4 O 0.22397 0.22639 0.32126 0.0
C5 C 0.23133 0.12135 0.35901 0.0
O6 O 0.21228 0.11767 0.3475 0.0
O7 O 0.17703 0.15683 0.36709 0.0
O8 O 0.15232 0.16468 0.34371 0.0
H9 H 0.17284 0.20248 0.42033 0.0
H10 H 0.22278 0.14921 0.31066 0.0
O11 O 0.19889 0.19562 0.30679 0.0
H12 H 0.14352 0.08552 0.3085 0.0
H13 H 0.12013 0.18181 0.27224 0.0
H14 H 0.12046 0.20233 0.33298 0.0
H15 H 0.13819 0.13247 0.31999 0.0
H16 H 0.16158 0.17283 0.28937 0.0
O17 O 0.23396 0.14461 0.36627 0.0
H18 H 0.17103 0.19548 0.38963 0.0
H19 H 0.25592 0.17375 0.3891 0.0
H20 H 0.07848 0.21141 0.31635 0.0
H21 H 0.22899 0.10255 0.29885 0.0
H22 H 0.07815 0.20113 0.28575 0.0
H23 H 0.1892 0.0703 0.29779 0.0
O24 O 0.17192 0.21795 0.33541 0.0
H25 H 0.3049 0.19762 0.33888 0.0
H26 H 0.23093 0.23395 0.37526 0.0
H27 H 0.27261 0.262 0.37032 0.0
H28 H 0.30999 0.24383 0.35204 0.0
H29 H 0.26275 0.17035 0.34405 0.0
H30 H 0.2586 0.18032 0.41981 0.0
H31 H 0.21687 0.19489 0.43563 0.0
O32 O 0.18887 0.21316 0.36151 0.0
C33 C 0.15479 0.15517 0.35858 0.0
C34 C 0.19118 0.19622 0.41357 0.0
C35 C 0.23931 0.18374 0.41329 0.0
N36 N 0.21339 0.18443 0.38756 0.0
C37 C 0.1903 0.19229 0.39618 0.0
C38 C 0.23765 0.18001 0.3959 0.0
C39 C 0.21589 0.19193 0.42215 0.0
C40 C 0.20531 0.13537 0.3101 0.0
N41 N 0.18015 0.14354 0.31605 0.0
C42 C 0.20898 0.10894 0.30347 0.0
C43 C 0.18665 0.09085 0.3029 0.0
C44 C 0.16103 0.09936 0.30893 0.0
C45 C 0.15815 0.12593 0.3155 0.0
C46 C 0.12001 0.18634 0.28557 0.0
C47 C 0.12043 0.19767 0.31969 0.0
C48 C 0.14345 0.18137 0.29533 0.0
N49 N 0.1434 0.18691 0.31219 0.0
C50 C 0.09662 0.20291 0.31033 0.0
C51 C 0.09646 0.19717 0.29316 0.0
C52 C 0.17622 0.22697 0.35026 0.0
C53 C 0.28879 0.20573 0.34691 0.0
C54 C 0.24707 0.22593 0.36725 0.0
C55 C 0.27065 0.24188 0.36453 0.0
C56 C 0.29162 0.23167 0.35428 0.0
N57 N 0.24449 0.20047 0.36001 0.0
C58 C 0.26494 0.19034 0.34993 0.0
Co59 Co 0.07058 0.92512 0.57558 0.0
Co60 Co 0.07211 0.95945 0.61366 0.0
O61 O 0.07773 0.95813 0.5892 0.0
C62 C 0.03637 0.966 0.55676 0.0
O63 O 0.02387 0.97266 0.57084 0.0
C64 C 0.12971 0.97969 0.60955 0.0
O65 O 0.13357 0.96101 0.59783 0.0
O66 O 0.09411 0.92509 0.61706 0.0
O67 O 0.08551 0.90079 0.59363 0.0
H68 H 0.04828 0.91982 0.67021 0.0
H69 H 0.10238 0.9715 0.56104 0.0
O70 O 0.05577 0.94832 0.55681 0.0
H71 H 0.16498 0.89139 0.55874 0.0
H72 H 0.06894 0.86985 0.52193 0.0
H73 H 0.04758 0.86961 0.58256 0.0
H74 H 0.11785 0.88655 0.57 0.0
H75 H 0.07822 0.91094 0.53932 0.0
O76 O 0.10637 0.98204 0.61673 0.0
H77 H 0.05536 0.91866 0.63951 0.0
H78 H 0.07721 0.00354 0.63969 0.0
H79 H 0.03821 0.82797 0.56566 0.0
H80 H 0.14925 0.97722 0.54945 0.0
H81 H 0.0489 0.82793 0.53511 0.0
H82 H 0.18095 0.93699 0.54832 0.0
O83 O 0.03263 0.92123 0.58522 0.0
H84 H 0.05356 0.05359 0.5898 0.0
H85 H 0.01706 0.97898 0.62561 0.0
H86 H 0.98911 0.02081 0.62099 0.0
H87 H 0.00736 0.05851 0.60299 0.0
H88 H 0.08074 0.01128 0.59466 0.0
H89 H 0.07057 0.00556 0.67042 0.0
H90 H 0.0559 0.96351 0.68588 0.0
O91 O 0.03781 0.93716 0.61153 0.0
C92 C 0.09527 0.90291 0.60846 0.0
C93 C 0.0546 0.9383 0.66361 0.0
C94 C 0.06714 0.98641 0.66373 0.0
N95 N 0.06648 0.96105 0.6378 0.0
C96 C 0.05857 0.93779 0.64622 0.0
C97 C 0.07091 0.98513 0.64634 0.0
C98 C 0.0589 0.96282 0.6724 0.0
C99 C 0.11598 0.95385 0.56046 0.0
N100 N 0.1074 0.92873 0.56624 0.0
C101 C 0.14253 0.95724 0.55394 0.0
C102 C 0.16032 0.93467 0.55333 0.0
C103 C 0.15139 0.90909 0.5592 0.0
C104 C 0.12471 0.90649 0.56565 0.0
C105 C 0.06422 0.8696 0.53523 0.0
C106 C 0.05242 0.8697 0.56929 0.0
C107 C 0.06936 0.89284 0.54513 0.0
N108 N 0.06358 0.89263 0.56196 0.0
C109 C 0.04701 0.84609 0.55978 0.0
C110 C 0.05299 0.84609 0.54264 0.0
C111 C 0.02377 0.92507 0.60015 0.0
C112 C 0.04541 0.03734 0.5977 0.0
C113 C 0.02512 0.99525 0.61773 0.0
C114 C 0.00922 0.01892 0.61518 0.0
C115 C 0.01948 0.04007 0.60509 0.0
N116 N 0.05057 0.99277 0.61048 0.0
C117 C 0.06075 0.01339 0.60054 0.0
Co118 Co 0.32403 0.82004 0.82564 0.0
Co119 Co 0.28995 0.82227 0.8638 0.0
O120 O 0.29112 0.82733 0.8393 0.0
C121 C 0.28302 0.78529 0.80736 0.0
O122 O 0.27637 0.77337 0.82163 0.0
C123 C 0.27009 0.87978 0.85917 0.0
O124 O 0.28902 0.88317 0.84755 0.0
O125 O 0.32437 0.84428 0.86696 0.0
O126 O 0.34842 0.83557 0.84345 0.0
H127 H 0.32979 0.79959 0.92047 0.0
H128 H 0.2773 0.8512 0.81099 0.0
O129 O 0.30077 0.80461 0.8071 0.0
H130 H 0.35698 0.91425 0.80783 0.0
H131 H 0.37883 0.81738 0.77182 0.0
H132 H 0.37973 0.79753 0.83264 0.0
H133 H 0.36225 0.8674 0.81946 0.0
H134 H 0.33785 0.82688 0.78926 0.0
O135 O 0.26745 0.85666 0.86658 0.0
H136 H 0.33082 0.806 0.88971 0.0
H137 H 0.24602 0.82809 0.88986 0.0
H138 H 0.42125 0.78794 0.81569 0.0
H139 H 0.27115 0.89777 0.79905 0.0
H140 H 0.42096 0.79787 0.78505 0.0
H141 H 0.31116 0.92969 0.79748 0.0
O142 O 0.32823 0.78238 0.83562 0.0
H143 H 0.19563 0.80332 0.84032 0.0
H144 H 0.27045 0.7675 0.87622 0.0
H145 H 0.22855 0.7395 0.87193 0.0
H146 H 0.19075 0.75742 0.85389 0.0
H147 H 0.238 0.83056 0.84485 0.0
H148 H 0.24412 0.82212 0.92064 0.0
H149 H 0.28619 0.80766 0.93614 0.0
O150 O 0.31221 0.78788 0.8619 0.0
C151 C 0.34642 0.84549 0.85824 0.0
C152 C 0.31129 0.80581 0.91385 0.0
C153 C 0.26322 0.81849 0.91395 0.0
N154 N 0.28846 0.81719 0.88798 0.0
C155 C 0.31174 0.8094 0.89643 0.0
C156 C 0.26444 0.82188 0.89652 0.0
C157 C 0.28683 0.81037 0.92264 0.0
C158 C 0.29486 0.8649 0.81022 0.0
N159 N 0.3201 0.8566 0.81596 0.0
C160 C 0.29123 0.89128 0.8035 0.0
C161 C 0.31367 0.90919 0.80265 0.0
C162 C 0.33938 0.90055 0.80847 0.0
C163 C 0.34222 0.87404 0.81513 0.0
C164 C 0.37922 0.81299 0.78517 0.0
C165 C 0.37949 0.80204 0.81933 0.0
C166 C 0.35604 0.81825 0.7951 0.0
N167 N 0.35644 0.8129 0.81198 0.0
C168 C 0.40304 0.7965 0.80979 0.0
C169 C 0.40285 0.80206 0.79259 0.0
C170 C 0.3244 0.77373 0.8506 0.0
C171 C 0.21193 0.79533 0.84824 0.0
C172 C 0.25412 0.77541 0.86832 0.0
C173 C 0.23042 0.75949 0.86596 0.0
C174 C 0.20921 0.76956 0.85584 0.0
N175 N 0.25659 0.8007 0.86086 0.0
C176 C 0.23591 0.81069 0.8509 0.0
Co177 Co 0.43261 0.07773 0.07501 0.0
Co178 Co 0.43138 0.04074 0.11201 0.0
O179 O 0.4255 0.04391 0.08773 0.0
C180 C 0.46588 0.03731 0.05548 0.0
O181 O 0.47761 0.02947 0.06958 0.0
C182 C 0.37256 0.02237 0.11035 0.0
O183 O 0.36583 0.04618 0.10362 0.0
O184 O 0.40915 0.07471 0.11646 0.0
O185 O 0.418 0.10078 0.09376 0.0
H186 H 0.45471 0.07559 0.1698 0.0
H187 H 0.40004 0.03231 0.05999 0.0
O188 O 0.44712 0.05568 0.05564 0.0
H189 H 0.33828 0.11316 0.05941 0.0
H190 H 0.43413 0.1365 0.02278 0.0
H191 H 0.45586 0.13264 0.08332 0.0
H192 H 0.38572 0.11703 0.07033 0.0
H193 H 0.42478 0.09432 0.03917 0.0
O194 O 0.3976 0.01708 0.114 0.0
H195 H 0.44764 0.07939 0.13918 0.0
H196 H 0.42668 0.9944 0.13654 0.0
H197 H 0.46532 0.17532 0.06743 0.0
H198 H 0.35281 0.02753 0.04879 0.0
H199 H 0.45444 0.17742 0.03694 0.0
H200 H 0.32155 0.06815 0.04849 0.0
O201 O 0.47066 0.08075 0.08458 0.0
H202 H 0.4514 0.94894 0.08528 0.0
H203 H 0.4867 0.02108 0.12336 0.0
H204 H 0.51529 0.98012 0.11749 0.0
H205 H 0.49764 0.94366 0.09835 0.0
H206 H 0.42357 0.99037 0.09139 0.0
H207 H 0.43333 0.98972 0.16716 0.0
H208 H 0.44755 0.03049 0.18399 0.0
O209 O 0.46537 0.06373 0.11063 0.0
C210 C 0.40814 0.09756 0.1085 0.0
C211 C 0.4486 0.05765 0.1626 0.0
C212 C 0.43656 0.00947 0.16112 0.0
N213 N 0.43696 0.03711 0.13606 0.0
C214 C 0.44463 0.05967 0.14525 0.0
C215 C 0.43277 0.01226 0.14379 0.0
C216 C 0.44455 0.03235 0.17055 0.0
C217 C 0.3866 0.05011 0.05981 0.0
N218 N 0.39563 0.07493 0.06582 0.0
C219 C 0.35986 0.04726 0.05349 0.0
C220 C 0.34233 0.07005 0.05335 0.0
C221 C 0.35169 0.09531 0.05948 0.0
C222 C 0.37855 0.09736 0.06572 0.0
C223 C 0.43893 0.13585 0.03606 0.0
C224 C 0.45093 0.13345 0.07007 0.0
C225 C 0.43375 0.11199 0.0454 0.0
N226 N 0.43962 0.11108 0.06221 0.0
C227 C 0.4564 0.15765 0.06113 0.0
C228 C 0.45031 0.1588 0.04402 0.0
C229 C 0.47946 0.07631 0.09947 0.0
C230 C 0.45928 0.96465 0.09368 0.0
C231 C 0.4789 0.00536 0.11498 0.0
C232 C 0.49517 0.98217 0.11173 0.0
C233 C 0.48524 0.96172 0.101 0.0
N234 N 0.45343 0.00805 0.10778 0.0
C235 C 0.44358 0.98811 0.09723 0.0
Co236 Co 0.17391 0.82151 0.1776 0.0
Co237 Co 0.21168 0.82288 0.14086 0.0
O238 O 0.20799 0.82856 0.16512 0.0
C239 C 0.21377 0.78762 0.19715 0.0
O240 O 0.22178 0.7761 0.18302 0.0
C241 C 0.22983 0.88168 0.143 0.0
O242 O 0.20601 0.88809 0.14984 0.0
O243 O 0.17774 0.84504 0.13617 0.0
O244 O 0.15132 0.83666 0.1588 0.0
H245 H 0.17816 0.79972 0.08274 0.0
H246 H 0.21943 0.8534 0.19303 0.0
O247 O 0.1955 0.80647 0.197 0.0
H248 H 0.13914 0.91588 0.19371 0.0
H249 H 0.11426 0.8197 0.22946 0.0
H250 H 0.1189 0.79901 0.1688 0.0
H251 H 0.13496 0.86866 0.18247 0.0
H252 H 0.15682 0.82884 0.21339 0.0
O253 O 0.23525 0.85676 0.13911 0.0
H254 H 0.17367 0.80665 0.11335 0.0
H255 H 0.25852 0.82786 0.1167 0.0
H256 H 0.07584 0.78978 0.18435 0.0
H257 H 0.22452 0.90039 0.20456 0.0
H258 H 0.07334 0.80015 0.21491 0.0
H259 H 0.18419 0.93201 0.2049 0.0
O260 O 0.17067 0.78362 0.16777 0.0
H261 H 0.30295 0.80299 0.16826 0.0
H262 H 0.23174 0.76767 0.12955 0.0
H263 H 0.27264 0.73915 0.1357 0.0
H264 H 0.30863 0.75681 0.15517 0.0
H265 H 0.26159 0.83074 0.16187 0.0
H266 H 0.26389 0.82136 0.08611 0.0
H267 H 0.22354 0.80708 0.06893 0.0
O268 O 0.18878 0.78884 0.14198 0.0
C269 C 0.15482 0.84635 0.14404 0.0
C270 C 0.19592 0.80586 0.0901 0.0
C271 C 0.24402 0.81805 0.09199 0.0
N272 N 0.21585 0.81745 0.11682 0.0
C273 C 0.19351 0.80975 0.10744 0.0
C274 C 0.24084 0.82175 0.1093 0.0
C275 C 0.22138 0.81002 0.08236 0.0
C276 C 0.20176 0.867 0.19322 0.0
N277 N 0.17693 0.85831 0.18705 0.0
C278 C 0.20478 0.8936 0.19973 0.0
C279 C 0.18215 0.91134 0.1999 0.0
C280 C 0.15688 0.90232 0.1936 0.0
C281 C 0.15465 0.87559 0.18718 0.0
C282 C 0.11508 0.81513 0.21614 0.0
C283 C 0.11792 0.80371 0.18208 0.0
C284 C 0.13915 0.82019 0.20699 0.0
N285 N 0.14029 0.81461 0.19015 0.0
C286 C 0.09351 0.79838 0.19082 0.0
C287 C 0.09213 0.80417 0.20797 0.0
C288 C 0.17566 0.77482 0.15294 0.0
C289 C 0.28744 0.7951 0.15973 0.0
C290 C 0.24726 0.77547 0.13807 0.0
C291 C 0.27041 0.75925 0.14148 0.0
C292 C 0.2906 0.76917 0.15239 0.0
N293 N 0.24434 0.80091 0.14529 0.0
C294 C 0.26403 0.81076 0.15602 0.0
Co295 Co 0.43127 0.92632 0.42657 0.0
Co296 Co 0.42977 0.9613 0.3887 0.0
O297 O 0.42427 0.95958 0.41315 0.0
C298 C 0.46576 0.96676 0.44557 0.0
O299 O 0.47828 0.97355 0.43152 0.0
C300 C 0.37222 0.98123 0.39307 0.0
O301 O 0.36855 0.96207 0.40452 0.0
O302 O 0.40768 0.92706 0.38512 0.0
O303 O 0.41608 0.90234 0.40841 0.0
H304 H 0.45326 0.92263 0.33185 0.0
H305 H 0.39979 0.97269 0.44139 0.0
O306 O 0.44629 0.94916 0.44544 0.0
H307 H 0.33672 0.89293 0.44336 0.0
H308 H 0.4329 0.87027 0.47991 0.0
H309 H 0.45394 0.8708 0.41923 0.0
H310 H 0.38381 0.88795 0.43203 0.0
H311 H 0.42372 0.91165 0.46276 0.0
O312 O 0.3955 0.98399 0.38587 0.0
H313 H 0.44632 0.92094 0.36256 0.0
H314 H 0.42459 0.00585 0.36297 0.0
H315 H 0.46322 0.82889 0.43589 0.0
H316 H 0.35298 0.97854 0.45304 0.0
H317 H 0.45269 0.82846 0.46646 0.0
H318 H 0.32105 0.93849 0.45401 0.0
O319 O 0.46912 0.92237 0.41682 0.0
H320 H 0.44862 0.05503 0.41309 0.0
H321 H 0.48481 0.9809 0.37678 0.0
H322 H 0.51286 0.0226 0.3816 0.0
H323 H 0.49476 0.06007 0.39985 0.0
H324 H 0.42133 0.01285 0.40803 0.0
H325 H 0.4311 0.0084 0.33225 0.0
H326 H 0.44564 0.9666 0.31649 0.0
O327 O 0.46405 0.93888 0.39063 0.0
C328 C 0.40633 0.90477 0.3936 0.0
C329 C 0.44701 0.941 0.33858 0.0
C330 C 0.43453 0.98913 0.3388 0.0
N331 N 0.43527 0.96331 0.36457 0.0
C332 C 0.44311 0.94019 0.35598 0.0
C333 C 0.43083 0.98754 0.3562 0.0
C334 C 0.4427 0.96567 0.32997 0.0
C335 C 0.38609 0.95512 0.44191 0.0
N336 N 0.39451 0.93001 0.436 0.0
C337 C 0.35958 0.95858 0.44846 0.0
C338 C 0.34166 0.93611 0.44897 0.0
C339 C 0.35043 0.91055 0.44298 0.0
C340 C 0.37707 0.90787 0.43649 0.0
C341 C 0.43754 0.8702 0.46659 0.0
C342 C 0.44916 0.87073 0.43251 0.0
C343 C 0.43246 0.8936 0.45682 0.0
N344 N 0.43814 0.8936 0.43998 0.0
C345 C 0.45453 0.84696 0.44189 0.0
C346 C 0.44864 0.84674 0.45904 0.0
C347 C 0.47801 0.92647 0.40192 0.0
C348 C 0.4567 0.03888 0.40508 0.0
C349 C 0.47682 0.99707 0.38478 0.0
C350 C 0.49278 0.02067 0.38743 0.0
C351 C 0.4826 0.04168 0.39766 0.0
N352 N 0.45139 0.99452 0.39206 0.0
C353 C 0.44131 0.01501 0.40213 0.0
Co354 Co 0.32426 0.18073 0.6765 0.0
Co355 Co 0.28901 0.17932 0.63871 0.0
O356 O 0.29094 0.17364 0.66314 0.0
C357 C 0.28384 0.21512 0.69558 0.0
O358 O 0.27692 0.22756 0.68153 0.0
C359 C 0.26933 0.12156 0.64286 0.0
O360 O 0.28835 0.11778 0.65438 0.0
O361 O 0.32339 0.1575 0.63497 0.0
O362 O 0.34815 0.16563 0.65828 0.0
H363 H 0.32715 0.20368 0.58186 0.0
H364 H 0.27803 0.14914 0.6914 0.0
O365 O 0.30149 0.19569 0.69544 0.0
H366 H 0.35792 0.08621 0.69316 0.0
H367 H 0.38057 0.18232 0.72974 0.0
H368 H 0.37972 0.20346 0.66909 0.0
H369 H 0.36273 0.13332 0.68184 0.0
H370 H 0.33911 0.17314 0.71266 0.0
O371 O 0.26654 0.14494 0.63578 0.0
H372 H 0.32908 0.19642 0.61254 0.0
H373 H 0.24434 0.17408 0.61306 0.0
H374 H 0.42171 0.21274 0.68567 0.0
H375 H 0.27234 0.1023 0.70304 0.0
H376 H 0.4223 0.20216 0.71623 0.0
H377 H 0.31245 0.07044 0.70391 0.0
O378 O 0.32814 0.21864 0.6668 0.0
H379 H 0.19534 0.19727 0.66342 0.0
H380 H 0.26893 0.23433 0.62703 0.0
H381 H 0.22707 0.26205 0.63207 0.0
H382 H 0.18988 0.24351 0.65035 0.0
H383 H 0.23767 0.17033 0.65814 0.0
H384 H 0.24155 0.18089 0.58237 0.0
H385 H 0.28314 0.1959 0.56658 0.0
O386 O 0.31118 0.2137 0.6407 0.0
C387 C 0.3457 0.15609 0.64342 0.0
C388 C 0.30887 0.19721 0.58861 0.0
C389 C 0.26083 0.18439 0.5889 0.0
N390 N 0.28681 0.18504 0.6146 0.0
C391 C 0.30982 0.19313 0.60599 0.0
C392 C 0.26256 0.18052 0.60627 0.0
C393 C 0.28417 0.19282 0.58004 0.0
C394 C 0.29563 0.13547 0.69187 0.0
N395 N 0.32068 0.14394 0.68591 0.0
C396 C 0.29226 0.10894 0.69842 0.0
C397 C 0.31477 0.09106 0.69887 0.0
C398 C 0.34027 0.09988 0.69282 0.0
C399 C 0.34285 0.12654 0.68634 0.0
C400 C 0.38058 0.18699 0.71643 0.0
C401 C 0.37986 0.19867 0.68236 0.0
C402 C 0.35713 0.18191 0.7067 0.0
N403 N 0.35704 0.18763 0.68987 0.0
C404 C 0.40368 0.20403 0.69169 0.0
C405 C 0.40399 0.19811 0.70884 0.0
C406 C 0.32376 0.22761 0.65194 0.0
C407 C 0.21137 0.20554 0.65539 0.0
C408 C 0.25288 0.22615 0.63504 0.0
C409 C 0.2292 0.24192 0.63782 0.0
C410 C 0.20833 0.2315 0.64807 0.0
N411 N 0.25566 0.20068 0.64223 0.0
C412 C 0.23533 0.19035 0.65232 0.0
Co413 Co 0.0696 0.07522 0.9256 0.0
Co414 Co 0.07174 0.04019 0.88775 0.0
O415 O 0.07695 0.04199 0.91222 0.0
C416 C 0.03527 0.03423 0.94418 0.0
O417 O 0.02365 0.027 0.92992 0.0
C418 C 0.12933 0.02052 0.89241 0.0
O419 O 0.13277 0.03962 0.90392 0.0
O420 O 0.09364 0.07458 0.88424 0.0
O421 O 0.08502 0.09923 0.90754 0.0
H422 H 0.04855 0.07862 0.83079 0.0
H423 H 0.10095 0.02894 0.94062 0.0
O424 O 0.05427 0.05234 0.94435 0.0
H425 H 0.16373 0.1089 0.94302 0.0
H426 H 0.06688 0.13126 0.97893 0.0
H427 H 0.04689 0.13067 0.91812 0.0
H428 H 0.11684 0.11373 0.93138 0.0
H429 H 0.07649 0.08991 0.96183 0.0
O430 O 0.10617 0.01772 0.88507 0.0
H431 H 0.05517 0.0804 0.86152 0.0
H432 H 0.07753 0.99566 0.86205 0.0
H433 H 0.03719 0.17255 0.93472 0.0
H434 H 0.14756 0.02322 0.95257 0.0
H435 H 0.04718 0.17301 0.96536 0.0
H436 H 0.17936 0.06337 0.95376 0.0
O437 O 0.03189 0.07905 0.91564 0.0
H438 H 0.05321 0.9464 0.91213 0.0
H439 H 0.01698 0.0202 0.8756 0.0
H440 H 0.98913 0.97834 0.88035 0.0
H441 H 0.00725 0.94104 0.8987 0.0
H442 H 0.08029 0.98874 0.90714 0.0
H443 H 0.07135 0.99302 0.83131 0.0
H444 H 0.05665 0.03469 0.81548 0.0
O445 O 0.0373 0.06236 0.88952 0.0
C446 C 0.09488 0.09686 0.89274 0.0
C447 C 0.05488 0.0603 0.83755 0.0
C448 C 0.06771 0.01227 0.83784 0.0
N449 N 0.06652 0.03811 0.86359 0.0
C450 C 0.05859 0.06117 0.85496 0.0
C451 C 0.07122 0.0139 0.85525 0.0
C452 C 0.05945 0.03565 0.82897 0.0
C453 C 0.11459 0.04656 0.94122 0.0
N454 N 0.1062 0.07163 0.93526 0.0
C455 C 0.14099 0.04317 0.94795 0.0
C456 C 0.15883 0.0657 0.94859 0.0
C457 C 0.1501 0.09123 0.94254 0.0
C458 C 0.12356 0.09383 0.93588 0.0
C459 C 0.06246 0.13132 0.96559 0.0
C460 C 0.05144 0.13076 0.93143 0.0
C461 C 0.06779 0.10794 0.95585 0.0
N462 N 0.06239 0.10792 0.93897 0.0
C463 C 0.04583 0.15451 0.94077 0.0
C464 C 0.05142 0.15475 0.95796 0.0
C465 C 0.02317 0.07478 0.90072 0.0
C466 C 0.04512 0.96247 0.90407 0.0
C467 C 0.02498 0.0041 0.88364 0.0
C468 C 0.00914 0.98042 0.88625 0.0
C469 C 0.01932 0.95949 0.89655 0.0
N470 N 0.0503 0.00683 0.89103 0.0
C471 C 0.0604 0.98644 0.90116 0.0
Co472 Co 0.82431 0.82 0.67659 0.0
Co473 Co 0.78991 0.82234 0.63853 0.0
O474 O 0.79133 0.82757 0.66302 0.0
C475 C 0.78324 0.78567 0.69516 0.0
O476 O 0.77641 0.77364 0.68095 0.0
C477 C 0.77019 0.88008 0.64293 0.0
O478 O 0.78891 0.88364 0.65465 0.0
O479 O 0.82447 0.84409 0.63522 0.0
O480 O 0.84868 0.83514 0.65863 0.0
H481 H 0.82922 0.79887 0.58183 0.0
H482 H 0.77808 0.85175 0.69135 0.0
O483 O 0.80107 0.80493 0.69528 0.0
H484 H 0.85845 0.91398 0.69401 0.0
H485 H 0.87962 0.81718 0.7302 0.0
H486 H 0.87971 0.79688 0.66943 0.0
H487 H 0.86308 0.86701 0.68245 0.0
H488 H 0.83855 0.82694 0.71289 0.0
O489 O 0.76761 0.85684 0.63565 0.0
H490 H 0.8305 0.80556 0.61257 0.0
H491 H 0.74583 0.8282 0.61256 0.0
H492 H 0.92131 0.78702 0.68625 0.0
H493 H 0.77257 0.89845 0.70323 0.0
H494 H 0.92143 0.79717 0.71687 0.0
H495 H 0.81293 0.92996 0.70454 0.0
O496 O 0.82805 0.78221 0.66669 0.0
H497 H 0.69566 0.80426 0.66236 0.0
H498 H 0.76989 0.76763 0.6263 0.0
H499 H 0.72783 0.73997 0.63081 0.0
H500 H 0.69032 0.7583 0.64893 0.0
H501 H 0.73819 0.83115 0.65761 0.0
H502 H 0.7437 0.82197 0.5818 0.0
H503 H 0.78557 0.80709 0.56624 0.0
O504 O 0.81192 0.78784 0.64046 0.0
C505 C 0.84664 0.84505 0.64383 0.0
C506 C 0.81081 0.80528 0.58848 0.0
C507 C 0.76282 0.81828 0.58846 0.0
N508 N 0.78822 0.81706 0.61437 0.0
C509 C 0.81139 0.80904 0.60589 0.0
C510 C 0.76417 0.82183 0.60587 0.0
C511 C 0.78632 0.80992 0.57974 0.0
C512 C 0.79579 0.86527 0.69202 0.0
N513 N 0.82087 0.85667 0.68618 0.0
C514 C 0.79252 0.89172 0.6987 0.0
C515 C 0.81516 0.9094 0.6994 0.0
C516 C 0.8407 0.90046 0.69347 0.0
C517 C 0.84318 0.87388 0.68686 0.0
C518 C 0.87983 0.81269 0.71687 0.0
C519 C 0.87965 0.80149 0.68273 0.0
C520 C 0.85661 0.8181 0.70701 0.0
N521 N 0.85678 0.81262 0.69014 0.0
C522 C 0.90324 0.7958 0.6922 0.0
C523 C 0.90329 0.80148 0.70938 0.0
C524 C 0.82404 0.77358 0.65172 0.0
C525 C 0.71183 0.79609 0.6544 0.0
C526 C 0.7537 0.77571 0.63424 0.0
C527 C 0.7299 0.75998 0.63672 0.0
C528 C 0.70886 0.77028 0.64688 0.0
N529 N 0.75642 0.80104 0.64163 0.0
C530 C 0.7359 0.81125 0.65163 0.0
Co531 Co 0.93152 0.07446 0.42626 0.0
Co532 Co 0.92905 0.03928 0.38848 0.0
O533 O 0.92387 0.04121 0.41295 0.0
C534 C 0.96564 0.03362 0.44517 0.0
O535 O 0.97785 0.02656 0.43106 0.0
C536 C 0.87137 0.01973 0.39315 0.0
O537 O 0.86792 0.03878 0.40468 0.0
O538 O 0.90728 0.07374 0.38495 0.0
O539 O 0.91645 0.09852 0.40811 0.0
H540 H 0.95227 0.07743 0.33146 0.0
H541 H 0.8996 0.02865 0.44137 0.0
O542 O 0.94646 0.05153 0.44511 0.0
H543 H 0.83769 0.10931 0.44343 0.0
H544 H 0.9346 0.13082 0.47946 0.0
H545 H 0.95483 0.12964 0.41868 0.0
H546 H 0.88466 0.11352 0.43182 0.0
H547 H 0.92465 0.08946 0.46245 0.0
O548 O 0.89455 0.01692 0.38583 0.0
H549 H 0.94571 0.07934 0.36219 0.0
H550 H 0.92311 0.99466 0.36285 0.0
H551 H 0.96488 0.17152 0.4352 0.0
H552 H 0.85289 0.02356 0.4533 0.0
H553 H 0.95476 0.17228 0.46582 0.0
H554 H 0.82154 0.06407 0.45431 0.0
O555 O 0.96931 0.07785 0.41634 0.0
H556 H 0.94726 0.94554 0.41302 0.0
H557 H 0.98372 0.01902 0.37633 0.0
H558 H 0.01141 0.97707 0.38113 0.0
H559 H 0.99317 0.93993 0.39957 0.0
H560 H 0.92034 0.98796 0.40798 0.0
H561 H 0.92923 0.9919 0.33211 0.0
H562 H 0.94401 0.03347 0.31621 0.0
O563 O 0.96357 0.06134 0.3902 0.0
C564 C 0.90641 0.09612 0.39336 0.0
C565 C 0.9459 0.05916 0.33825 0.0
C566 C 0.93294 0.01116 0.33861 0.0
N567 N 0.93424 0.03709 0.36433 0.0
C568 C 0.94222 0.06009 0.35566 0.0
C569 C 0.92946 0.01287 0.35602 0.0
C570 C 0.94124 0.03449 0.3297 0.0
C571 C 0.88615 0.04642 0.4419 0.0
N572 N 0.89484 0.07135 0.43587 0.0
C573 C 0.85969 0.04339 0.44861 0.0
C574 C 0.8421 0.06612 0.44915 0.0
C575 C 0.85113 0.0915 0.44302 0.0
C576 C 0.87771 0.09374 0.43638 0.0
C577 C 0.93907 0.13075 0.46612 0.0
C578 C 0.95023 0.12985 0.43199 0.0
C579 C 0.93355 0.10736 0.45643 0.0
N580 N 0.93901 0.10718 0.43956 0.0
C581 C 0.95603 0.15361 0.44128 0.0
C582 C 0.95037 0.15402 0.45846 0.0
C583 C 0.97789 0.07359 0.40138 0.0
C584 C 0.9554 0.96154 0.40493 0.0
C585 C 0.97567 0.00299 0.38441 0.0
C586 C 0.99142 0.97926 0.38705 0.0
C587 C 0.98117 0.95842 0.39739 0.0
N588 N 0.95037 0.00586 0.39181 0.0
C589 C 0.94021 0.98555 0.40198 0.0
Co590 Co 0.67809 0.18106 0.17691 0.0
Co591 Co 0.71284 0.17882 0.13895 0.0
O592 O 0.71119 0.17356 0.16343 0.0
C593 C 0.71899 0.21549 0.19556 0.0
O594 O 0.72591 0.22752 0.18137 0.0
C595 C 0.7322 0.12102 0.14341 0.0
O596 O 0.71328 0.1176 0.15503 0.0
O597 O 0.67825 0.15719 0.1355 0.0
O598 O 0.65389 0.1658 0.15891 0.0
H599 H 0.67416 0.20251 0.08214 0.0
H600 H 0.72434 0.14947 0.19178 0.0
O601 O 0.70116 0.19623 0.19564 0.0
H602 H 0.64413 0.08703 0.19434 0.0
H603 H 0.62242 0.18386 0.23039 0.0
H604 H 0.62268 0.204 0.1696 0.0
H605 H 0.63942 0.13397 0.18275 0.0
H606 H 0.66363 0.17416 0.21318 0.0
O607 O 0.73504 0.14423 0.13614 0.0
H608 H 0.67256 0.19578 0.11286 0.0
H609 H 0.75714 0.17283 0.11313 0.0
H610 H 0.58094 0.21379 0.18631 0.0
H611 H 0.72993 0.1028 0.20368 0.0
H612 H 0.58065 0.20371 0.21693 0.0
H613 H 0.68966 0.07118 0.20495 0.0
O614 O 0.67432 0.21883 0.16698 0.0
H615 H 0.80695 0.19654 0.1631 0.0
H616 H 0.73314 0.23349 0.12684 0.0
H617 H 0.77525 0.261 0.1315 0.0
H618 H 0.81255 0.24252 0.14972 0.0
H619 H 0.76437 0.1698 0.15819 0.0
H620 H 0.75959 0.1791 0.08239 0.0
H621 H 0.71791 0.19415 0.06669 0.0
O622 O 0.69093 0.21339 0.14084 0.0
C623 C 0.65606 0.15604 0.14408 0.0
C624 C 0.69248 0.19602 0.08884 0.0
C625 C 0.74042 0.18285 0.08898 0.0
N626 N 0.71477 0.18412 0.1148 0.0
C627 C 0.69172 0.19224 0.10624 0.0
C628 C 0.73889 0.17928 0.10638 0.0
C629 C 0.71703 0.1913 0.08018 0.0
C630 C 0.70667 0.13591 0.19242 0.0
N631 N 0.68158 0.14442 0.18653 0.0
C632 C 0.70998 0.10947 0.19911 0.0
C633 C 0.68739 0.09173 0.1998 0.0
C634 C 0.66185 0.10059 0.19383 0.0
C635 C 0.65932 0.12715 0.18719 0.0
C636 C 0.62229 0.18831 0.21705 0.0
C637 C 0.62266 0.19943 0.1829 0.0
C638 C 0.64559 0.18294 0.20725 0.0
N639 N 0.64552 0.18838 0.19038 0.0
C640 C 0.59899 0.20507 0.19231 0.0
C641 C 0.59885 0.19944 0.20949 0.0
C642 C 0.67858 0.22755 0.15205 0.0
C643 C 0.79087 0.20479 0.1551 0.0
C644 C 0.74924 0.22533 0.13482 0.0
C645 C 0.77306 0.24098 0.13738 0.0
C646 C 0.79399 0.23059 0.1476 0.0
N647 N 0.74638 0.2 0.14218 0.0
C648 C 0.76677 0.1897 0.15223 0.0
Co649 Co 0.57031 0.92701 0.92548 0.0
Co650 Co 0.57152 0.96155 0.88746 0.0
O651 O 0.57733 0.96007 0.91189 0.0
C652 C 0.5364 0.96816 0.94421 0.0
O653 O 0.5243 0.97511 0.93005 0.0
C654 C 0.62915 0.98149 0.89155 0.0
O655 O 0.63294 0.9626 0.90314 0.0
O656 O 0.59341 0.92716 0.88392 0.0
O657 O 0.58522 0.90276 0.90737 0.0
H658 H 0.54716 0.92234 0.83088 0.0
H659 H 0.60208 0.9734 0.94005 0.0
O660 O 0.5555 0.95015 0.94426 0.0
H661 H 0.66486 0.89341 0.94209 0.0
H662 H 0.56892 0.87164 0.97908 0.0
H663 H 0.54736 0.87149 0.91848 0.0
H664 H 0.61768 0.88853 0.93089 0.0
H665 H 0.57812 0.91277 0.96171 0.0
O666 O 0.60582 0.98406 0.88438 0.0
H667 H 0.55446 0.92097 0.86156 0.0
H668 H 0.57657 0.00578 0.86152 0.0
H669 H 0.53806 0.82983 0.93536 0.0
H670 H 0.64899 0.97916 0.95157 0.0
H671 H 0.54885 0.82974 0.96589 0.0
H672 H 0.68077 0.93899 0.95257 0.0
O673 O 0.53235 0.9231 0.91591 0.0
H674 H 0.55335 0.05559 0.91159 0.0
H675 H 0.51642 0.98127 0.87571 0.0
H676 H 0.48859 0.02312 0.88052 0.0
H677 H 0.50706 0.06068 0.89855 0.0
H678 H 0.58041 0.01326 0.90655 0.0
H679 H 0.56971 0.00801 0.83082 0.0
H680 H 0.55479 0.96611 0.8153 0.0
O681 O 0.53717 0.93931 0.88963 0.0
C682 C 0.59478 0.90497 0.89249 0.0
C683 C 0.55357 0.94076 0.83751 0.0
C684 C 0.56627 0.98884 0.83747 0.0
N685 N 0.56572 0.96331 0.86334 0.0
C686 C 0.55768 0.94013 0.85489 0.0
C687 C 0.57017 0.98743 0.85485 0.0
C688 C 0.55789 0.96532 0.82877 0.0
C689 C 0.61572 0.95578 0.94058 0.0
N690 N 0.60716 0.93066 0.93477 0.0
C691 C 0.64229 0.95919 0.94706 0.0
C692 C 0.66012 0.93665 0.94759 0.0
C693 C 0.65122 0.91108 0.94169 0.0
C694 C 0.62452 0.90846 0.93528 0.0
C695 C 0.56416 0.87141 0.96578 0.0
C696 C 0.55225 0.87156 0.93174 0.0
C697 C 0.56926 0.89467 0.95589 0.0
N698 N 0.56343 0.89448 0.93907 0.0
C699 C 0.54688 0.84793 0.94124 0.0
C700 C 0.55291 0.84791 0.95838 0.0
C701 C 0.52329 0.9271 0.90104 0.0
C702 C 0.54511 0.0394 0.90368 0.0
C703 C 0.52458 0.99748 0.88361 0.0
C704 C 0.50874 0.02116 0.88626 0.0
C705 C 0.51913 0.04223 0.89637 0.0
N706 N 0.55008 0.9949 0.89078 0.0
C707 C 0.56037 0.01544 0.90073 0.0
Co708 Co 0.82444 0.18203 0.8258 0.0
Co709 Co 0.7897 0.18077 0.86377 0.0
O710 O 0.79127 0.17518 0.83932 0.0
C711 C 0.78361 0.21649 0.80724 0.0
O712 O 0.77667 0.22834 0.82148 0.0
C713 C 0.76968 0.12322 0.85949 0.0
O714 O 0.78869 0.11948 0.84796 0.0
O715 O 0.82396 0.15869 0.8673 0.0
O716 O 0.84846 0.16663 0.84386 0.0
H717 H 0.82869 0.2044 0.92052 0.0
H718 H 0.77773 0.15092 0.81109 0.0
O719 O 0.80153 0.19732 0.80706 0.0
H720 H 0.85706 0.08734 0.80874 0.0
H721 H 0.87999 0.18352 0.77227 0.0
H722 H 0.88018 0.20429 0.83298 0.0
H723 H 0.86244 0.13434 0.82014 0.0
H724 H 0.83871 0.17454 0.78955 0.0
O725 O 0.76703 0.14653 0.86669 0.0
H726 H 0.83021 0.19737 0.88981 0.0
H727 H 0.74529 0.1757 0.88959 0.0
H728 H 0.92199 0.21336 0.81618 0.0
H729 H 0.77147 0.10421 0.79938 0.0
H730 H 0.92206 0.20297 0.78559 0.0
H731 H 0.8113 0.07202 0.79822 0.0
O732 O 0.82875 0.21984 0.83556 0.0
H733 H 0.69585 0.19955 0.83955 0.0
H734 H 0.7702 0.23588 0.87563 0.0
H735 H 0.72849 0.26394 0.87085 0.0
H736 H 0.69092 0.24577 0.85272 0.0
H737 H 0.73803 0.17226 0.84458 0.0
H738 H 0.74291 0.18229 0.92031 0.0
H739 H 0.78479 0.19685 0.93597 0.0
O740 O 0.81212 0.21502 0.86175 0.0
C741 C 0.84614 0.15708 0.85873 0.0
C742 C 0.81028 0.19814 0.91383 0.0
C743 C 0.76214 0.1857 0.91371 0.0
N744 N 0.78782 0.18635 0.8879 0.0
C745 C 0.81099 0.1942 0.89643 0.0
C746 C 0.76363 0.18195 0.89632 0.0
C747 C 0.78565 0.19388 0.92249 0.0
C748 C 0.79521 0.13711 0.81049 0.0
N749 N 0.82042 0.14534 0.81633 0.0
C750 C 0.79152 0.11065 0.80391 0.0
C751 C 0.81387 0.09259 0.80328 0.0
C752 C 0.83953 0.10116 0.80921 0.0
C753 C 0.84244 0.12775 0.81573 0.0
C754 C 0.88023 0.1881 0.78559 0.0
C755 C 0.8801 0.19957 0.81969 0.0
C756 C 0.85689 0.18313 0.79543 0.0
N757 N 0.85709 0.18874 0.81228 0.0
C758 C 0.90381 0.20482 0.81024 0.0
C759 C 0.90383 0.199 0.79307 0.0
C760 C 0.82465 0.22884 0.85045 0.0
C761 C 0.71204 0.20766 0.84751 0.0
C762 C 0.75398 0.22786 0.86769 0.0
C763 C 0.73039 0.24382 0.86505 0.0
C764 C 0.70931 0.23361 0.85489 0.0
N765 N 0.75647 0.20239 0.86045 0.0
C766 C 0.73592 0.19226 0.85045 0.0
Co767 Co 0.56947 0.0753 0.57629 0.0
Co768 Co 0.57187 0.04097 0.61434 0.0
O769 O 0.57722 0.04237 0.58986 0.0
C770 C 0.53566 0.0341 0.55742 0.0
O771 O 0.5231 0.02736 0.57147 0.0
C772 C 0.62964 0.02128 0.61004 0.0
O773 O 0.63326 0.03999 0.59831 0.0
O774 O 0.59354 0.07557 0.61765 0.0
O775 O 0.58412 0.09983 0.59432 0.0
H776 H 0.54809 0.08035 0.67097 0.0
H777 H 0.60191 0.02947 0.56161 0.0
O778 O 0.55494 0.05191 0.55752 0.0
H779 H 0.66322 0.11057 0.55928 0.0
H780 H 0.56661 0.13064 0.52269 0.0
H781 H 0.54565 0.13044 0.58337 0.0
H782 H 0.6161 0.11462 0.57067 0.0
H783 H 0.57665 0.08967 0.54002 0.0
O784 O 0.60638 0.01873 0.61729 0.0
H785 H 0.5549 0.08158 0.64024 0.0
H786 H 0.5777 0.99695 0.64036 0.0
H787 H 0.5355 0.17194 0.56653 0.0
H788 H 0.64879 0.02454 0.5499 0.0
H789 H 0.54599 0.17221 0.53595 0.0
H790 H 0.67983 0.06527 0.54875 0.0
O791 O 0.53153 0.0786 0.58603 0.0
H792 H 0.55405 0.94666 0.59051 0.0
H793 H 0.51716 0.02084 0.62652 0.0
H794 H 0.48961 0.97872 0.622 0.0
H795 H 0.50806 0.94123 0.60391 0.0
H796 H 0.58083 0.98926 0.59528 0.0
H797 H 0.57135 0.99487 0.6711 0.0
H798 H 0.55633 0.03676 0.68661 0.0
O799 O 0.53731 0.0629 0.61234 0.0
C800 C 0.59418 0.09781 0.60908 0.0
C801 C 0.55456 0.06194 0.66435 0.0
C802 C 0.56764 0.01398 0.66443 0.0
N803 N 0.56649 0.03932 0.63849 0.0
C804 C 0.55838 0.06249 0.64694 0.0
C805 C 0.57126 0.0153 0.64702 0.0
C806 C 0.55921 0.03748 0.67312 0.0
C807 C 0.61523 0.04734 0.56102 0.0
N808 N 0.60629 0.0723 0.56686 0.0
C809 C 0.64178 0.04439 0.55443 0.0
C810 C 0.6592 0.06724 0.55382 0.0
C811 C 0.64991 0.09266 0.55974 0.0
C812 C 0.62324 0.09481 0.56627 0.0
C813 C 0.56197 0.13079 0.536 0.0
C814 C 0.5504 0.13044 0.57009 0.0
C815 C 0.56755 0.10762 0.54587 0.0
N816 N 0.56188 0.10771 0.56272 0.0
C817 C 0.54455 0.15398 0.56061 0.0
C818 C 0.55042 0.15411 0.54345 0.0
C819 C 0.52294 0.07472 0.60102 0.0
C820 C 0.54582 0.96282 0.59846 0.0
C821 C 0.5253 0.00467 0.61859 0.0
C822 C 0.50963 0.98083 0.6161 0.0
C823 C 0.52 0.9598 0.60596 0.0
N824 N 0.55064 0.00743 0.61123 0.0
C825 C 0.56092 0.98693 0.60124 0.0
Co826 Co 0.67662 0.81994 0.32525 0.0
Co827 Co 0.71092 0.82187 0.36335 0.0
O828 O 0.7096 0.82721 0.33887 0.0
C829 C 0.71774 0.78558 0.30675 0.0
O830 O 0.72458 0.77362 0.32098 0.0
C831 C 0.7307 0.8795 0.35897 0.0
O832 O 0.71178 0.88303 0.34736 0.0
O833 O 0.67647 0.84378 0.36667 0.0
O834 O 0.65227 0.8352 0.34319 0.0
H835 H 0.6714 0.79846 0.42 0.0
H836 H 0.72314 0.85142 0.31062 0.0
O837 O 0.69984 0.80478 0.30659 0.0
H838 H 0.64322 0.91422 0.30792 0.0
H839 H 0.62152 0.81765 0.27155 0.0
H840 H 0.62106 0.79714 0.33229 0.0
H841 H 0.6382 0.86723 0.31938 0.0
H842 H 0.66257 0.82712 0.28894 0.0
O843 O 0.73337 0.85628 0.36625 0.0
H844 H 0.67021 0.80522 0.38927 0.0
H845 H 0.75497 0.82747 0.38936 0.0
H846 H 0.57947 0.78758 0.3154 0.0
H847 H 0.72905 0.89814 0.29885 0.0
H848 H 0.57954 0.79784 0.28479 0.0
H849 H 0.68892 0.92994 0.29752 0.0
O850 O 0.67262 0.78215 0.33509 0.0
H851 H 0.80516 0.8034 0.3396 0.0
H852 H 0.73062 0.76702 0.37552 0.0
H853 H 0.77256 0.73917 0.37103 0.0
H854 H 0.81022 0.75737 0.35298 0.0
H855 H 0.76275 0.83049 0.34434 0.0
H856 H 0.75703 0.82116 0.42011 0.0
H857 H 0.71506 0.80644 0.43563 0.0
O858 O 0.68873 0.78746 0.36136 0.0
C859 C 0.65434 0.84499 0.35802 0.0
C860 C 0.68985 0.80479 0.41337 0.0
C861 C 0.7379 0.81757 0.41344 0.0
N862 N 0.71254 0.81653 0.38751 0.0
C863 C 0.68932 0.80859 0.39597 0.0
C864 C 0.73659 0.82116 0.39603 0.0
C865 C 0.71434 0.8093 0.42214 0.0
C866 C 0.70553 0.86506 0.30995 0.0
N867 N 0.68036 0.85661 0.31572 0.0
C868 C 0.70903 0.89153 0.30333 0.0
C869 C 0.68651 0.90937 0.30261 0.0
C870 C 0.66088 0.90058 0.30847 0.0
C871 C 0.65818 0.87398 0.31503 0.0
C872 C 0.62123 0.81312 0.28488 0.0
C873 C 0.6212 0.8018 0.319 0.0
C874 C 0.64444 0.81836 0.29478 0.0
N875 N 0.64416 0.81282 0.31164 0.0
C876 C 0.59761 0.79628 0.30949 0.0
C877 C 0.59767 0.80201 0.29232 0.0
C878 C 0.67654 0.77338 0.35004 0.0
C879 C 0.78892 0.79528 0.34753 0.0
C880 C 0.74688 0.77505 0.36761 0.0
C881 C 0.77061 0.75921 0.36514 0.0
C882 C 0.79174 0.76944 0.35502 0.0
N883 N 0.74432 0.80042 0.36026 0.0
C884 C 0.76491 0.81056 0.3503 0.0
Co885 Co 0.93245 0.92635 0.07519 0.0
Co886 Co 0.93042 0.96222 0.11278 0.0
O887 O 0.92477 0.95975 0.08836 0.0
C888 C 0.96593 0.96757 0.0563 0.0
O889 O 0.97732 0.97527 0.07054 0.0
C890 C 0.87234 0.98092 0.10844 0.0
O891 O 0.86893 0.96184 0.09692 0.0
O892 O 0.90929 0.92747 0.11673 0.0
O893 O 0.91752 0.90253 0.09349 0.0
H894 H 0.95572 0.92552 0.16982 0.0
H895 H 0.90036 0.97193 0.05995 0.0
O896 O 0.94731 0.94907 0.05622 0.0
H897 H 0.83855 0.89116 0.05843 0.0
H898 H 0.93525 0.86932 0.02225 0.0
H899 H 0.95585 0.8713 0.08297 0.0
H900 H 0.88562 0.88715 0.06991 0.0
H901 H 0.92539 0.91091 0.03908 0.0
O902 O 0.89561 0.98405 0.1156 0.0
H903 H 0.9484 0.92294 0.13917 0.0
H904 H 0.92431 0.00719 0.13817 0.0
H905 H 0.96582 0.8292 0.06663 0.0
H906 H 0.85355 0.97682 0.04814 0.0
H907 H 0.95551 0.82804 0.03604 0.0
H908 H 0.82225 0.93625 0.04739 0.0
O909 O 0.97036 0.92313 0.08499 0.0
H910 H 0.94643 0.05577 0.08741 0.0
H911 H 0.985 0.98369 0.12433 0.0
H912 H 0.01185 0.026 0.11897 0.0
H913 H 0.99254 0.06244 0.10042 0.0
H914 H 0.92037 0.013 0.09301 0.0
H915 H 0.93116 0.01063 0.16883 0.0
H916 H 0.94708 0.96962 0.18485 0.0
O917 O 0.96525 0.94076 0.1109 0.0
C918 C 0.90803 0.90505 0.10837 0.0
C919 C 0.94886 0.94356 0.16297 0.0
C920 C 0.93504 0.99131 0.16242 0.0
N921 N 0.93614 0.96493 0.13687 0.0
C922 C 0.94474 0.94224 0.14561 0.0
C923 C 0.93114 0.98923 0.14506 0.0
C924 C 0.94398 0.9683 0.1714 0.0
C925 C 0.88694 0.95414 0.05953 0.0
N926 N 0.8957 0.92929 0.06565 0.0
C927 C 0.86042 0.95705 0.05289 0.0
C928 C 0.84285 0.9343 0.0525 0.0
C929 C 0.85197 0.909 0.05871 0.0
C930 C 0.87861 0.90688 0.06528 0.0
C931 C 0.93981 0.86956 0.03557 0.0
C932 C 0.95118 0.87091 0.06968 0.0
C933 C 0.93434 0.89308 0.04516 0.0
N934 N 0.9399 0.89348 0.06201 0.0
C935 C 0.95692 0.84703 0.06048 0.0
C936 C 0.95116 0.84641 0.04332 0.0
C937 C 0.97934 0.92813 0.09977 0.0
C938 C 0.95502 0.04008 0.09556 0.0
C939 C 0.97649 0.9994 0.1162 0.0
C940 C 0.99176 0.02335 0.11324 0.0
C941 C 0.98091 0.04379 0.10284 0.0
N942 N 0.95108 0.99595 0.10904 0.0
C943 C 0.94032 0.01587 0.09881 0.0
Co944 Co 0.67709 0.681 0.82599 0.0
Co945 Co 0.71131 0.67913 0.86412 0.0
O946 O 0.71007 0.67377 0.83964 0.0
C947 C 0.71797 0.7156 0.80745 0.0
O948 O 0.72464 0.72773 0.82165 0.0
C949 C 0.73158 0.62155 0.85986 0.0
O950 O 0.71296 0.61777 0.84811 0.0
O951 O 0.67694 0.65708 0.8674 0.0
O952 O 0.65275 0.66572 0.84393 0.0
H953 H 0.67148 0.70244 0.92071 0.0
H954 H 0.72367 0.64958 0.81138 0.0
O955 O 0.7003 0.69618 0.80733 0.0
H956 H 0.64385 0.58666 0.80865 0.0
H957 H 0.62204 0.68312 0.77227 0.0
H958 H 0.62146 0.70367 0.83301 0.0
H959 H 0.63876 0.63363 0.82013 0.0
H960 H 0.66309 0.67377 0.78968 0.0
O961 O 0.73391 0.64485 0.86711 0.0
H962 H 0.67043 0.69562 0.88998 0.0
H963 H 0.75531 0.67379 0.89019 0.0
H964 H 0.57987 0.71311 0.8161 0.0
H965 H 0.72965 0.60288 0.79958 0.0
H966 H 0.58 0.70283 0.78549 0.0
H967 H 0.68957 0.57103 0.79823 0.0
O968 O 0.673 0.7188 0.83582 0.0
H969 H 0.80553 0.69797 0.84046 0.0
H970 H 0.73076 0.73408 0.8763 0.0
H971 H 0.77259 0.7621 0.87184 0.0
H972 H 0.81037 0.74404 0.85383 0.0
H973 H 0.76322 0.67071 0.84516 0.0
H974 H 0.75721 0.68015 0.92094 0.0
H975 H 0.71511 0.69468 0.9364 0.0
O976 O 0.68901 0.71343 0.8621 0.0
C977 C 0.65482 0.65588 0.85875 0.0
C978 C 0.68998 0.69618 0.91411 0.0
C979 C 0.73809 0.68364 0.91424 0.0
N980 N 0.71282 0.68452 0.88828 0.0
C981 C 0.68953 0.69236 0.89671 0.0
C982 C 0.73687 0.68002 0.89684 0.0
C983 C 0.71446 0.6918 0.92291 0.0
C984 C 0.70609 0.63591 0.8107 0.0
N985 N 0.6809 0.64432 0.81647 0.0
C986 C 0.70962 0.60946 0.80406 0.0
C987 C 0.68713 0.59159 0.80333 0.0
C988 C 0.66149 0.60033 0.8092 0.0
C989 C 0.65874 0.62691 0.81577 0.0
C990 C 0.62172 0.68766 0.7856 0.0
C991 C 0.62163 0.69901 0.81972 0.0
C992 C 0.64494 0.68249 0.79551 0.0
N993 N 0.64463 0.68804 0.81237 0.0
C994 C 0.59804 0.70446 0.8102 0.0
C995 C 0.59813 0.69871 0.79303 0.0
C996 C 0.67685 0.72754 0.85078 0.0
C997 C 0.78924 0.70603 0.84837 0.0
C998 C 0.74707 0.7261 0.86841 0.0
C999 C 0.77073 0.74204 0.86596 0.0
C1000 C 0.79193 0.73189 0.85586 0.0
N1001 N 0.74463 0.70072 0.86106 0.0
C1002 C 0.76529 0.69065 0.85112 0.0
Co1003 Co 0.57159 0.42571 0.0764 0.0
Co1004 Co 0.57266 0.46075 0.11426 0.0
O1005 O 0.57845 0.45899 0.08983 0.0
C1006 C 0.53727 0.46632 0.0575 0.0
O1007 O 0.52508 0.47326 0.07163 0.0
C1008 C 0.63025 0.4809 0.11012 0.0
O1009 O 0.63415 0.46193 0.09859 0.0
O1010 O 0.5947 0.42651 0.11795 0.0
O1011 O 0.58675 0.40178 0.09459 0.0
H1012 H 0.54857 0.42216 0.17104 0.0
H1013 H 0.60301 0.47216 0.06162 0.0
O1014 O 0.55656 0.44852 0.05751 0.0
H1015 H 0.66628 0.39255 0.05975 0.0
H1016 H 0.57036 0.36969 0.02304 0.0
H1017 H 0.54909 0.3701 0.08368 0.0
H1018 H 0.61918 0.38748 0.07103 0.0
H1019 H 0.57933 0.41109 0.04021 0.0
O1020 O 0.60688 0.48345 0.11724 0.0
H1021 H 0.55584 0.42043 0.14036 0.0
H1022 H 0.57752 0.50535 0.13998 0.0
H1023 H 0.54001 0.32817 0.06699 0.0
H1024 H 0.64983 0.47811 0.05001 0.0
H1025 H 0.55066 0.3278 0.03644 0.0
H1026 H 0.68187 0.43814 0.0491 0.0
O1027 O 0.53368 0.42163 0.08604 0.0
H1028 H 0.55411 0.55442 0.08971 0.0
H1029 H 0.51748 0.48038 0.12592 0.0
H1030 H 0.48948 0.52208 0.12094 0.0
H1031 H 0.5078 0.55949 0.10274 0.0
H1032 H 0.58133 0.51226 0.09493 0.0
H1033 H 0.57069 0.50794 0.17068 0.0
H1034 H 0.55601 0.46616 0.1864 0.0
O1035 O 0.53841 0.43834 0.11221 0.0
C1036 C 0.59625 0.40423 0.10947 0.0
C1037 C 0.55488 0.44053 0.16432 0.0
C1038 C 0.56733 0.48866 0.16412 0.0
N1039 N 0.56688 0.4628 0.13837 0.0
C1040 C 0.55896 0.43969 0.14694 0.0
C1041 C 0.57122 0.48705 0.14674 0.0
C1042 C 0.55909 0.46521 0.17293 0.0
C1043 C 0.61676 0.45462 0.06113 0.0
N1044 N 0.60838 0.4295 0.06704 0.0
C1045 C 0.64328 0.45814 0.0546 0.0
C1046 C 0.66126 0.43571 0.05412 0.0
C1047 C 0.65254 0.41014 0.06011 0.0
C1048 C 0.62588 0.40741 0.06657 0.0
C1049 C 0.56567 0.36959 0.03634 0.0
C1050 C 0.55391 0.37005 0.07041 0.0
C1051 C 0.57063 0.393 0.04613 0.0
N1052 N 0.56488 0.39297 0.06296 0.0
C1053 C 0.54867 0.34627 0.06102 0.0
C1054 C 0.55463 0.34608 0.04387 0.0
C1055 C 0.5246 0.42583 0.10089 0.0
C1056 C 0.54593 0.5383 0.0977 0.0
C1057 C 0.52557 0.49654 0.11795 0.0
C1058 C 0.50964 0.52012 0.1152 0.0
C1059 C 0.51994 0.54111 0.105 0.0
N1060 N 0.55108 0.49397 0.11079 0.0
C1061 C 0.56129 0.51443 0.10075 0.0
Co1062 Co 0.82415 0.31991 0.3268 0.0
Co1063 Co 0.78932 0.32165 0.36472 0.0
O1064 O 0.79094 0.32704 0.34025 0.0
C1065 C 0.78351 0.28534 0.30806 0.0
O1066 O 0.77659 0.27328 0.32224 0.0
C1067 C 0.76921 0.37921 0.36034 0.0
O1068 O 0.7881 0.38295 0.34874 0.0
O1069 O 0.8236 0.34373 0.36821 0.0
O1070 O 0.84819 0.33523 0.34487 0.0
H1071 H 0.82828 0.29841 0.42154 0.0
H1072 H 0.77772 0.35124 0.31194 0.0
O1073 O 0.80125 0.30469 0.308 0.0
H1074 H 0.85745 0.41433 0.30967 0.0
H1075 H 0.87999 0.31791 0.27338 0.0
H1076 H 0.87971 0.29732 0.33411 0.0
H1077 H 0.86247 0.36735 0.32115 0.0
H1078 H 0.83867 0.32719 0.29056 0.0
O1079 O 0.76667 0.35592 0.36757 0.0
H1080 H 0.82981 0.30521 0.39082 0.0
H1081 H 0.74491 0.32694 0.39053 0.0
H1082 H 0.92156 0.28794 0.31741 0.0
H1083 H 0.77181 0.39794 0.30014 0.0
H1084 H 0.92186 0.29825 0.28681 0.0
H1085 H 0.81185 0.42989 0.29902 0.0
O1086 O 0.82816 0.28211 0.33663 0.0
H1087 H 0.69548 0.30275 0.34053 0.0
H1088 H 0.76975 0.26667 0.37676 0.0
H1089 H 0.72802 0.23862 0.37206 0.0
H1090 H 0.69048 0.25666 0.35385 0.0
H1091 H 0.7377 0.33004 0.34547 0.0
H1092 H 0.74252 0.32059 0.42127 0.0
H1093 H 0.78439 0.30612 0.43697 0.0
O1094 O 0.8117 0.28737 0.36281 0.0
C1095 C 0.84585 0.34503 0.35968 0.0
C1096 C 0.80987 0.30464 0.41483 0.0
C1097 C 0.76175 0.31712 0.41468 0.0
N1098 N 0.78743 0.31625 0.38887 0.0
C1099 C 0.8106 0.30845 0.39743 0.0
C1100 C 0.76324 0.32073 0.39728 0.0
C1101 C 0.78525 0.30899 0.42348 0.0
C1102 C 0.79529 0.36494 0.31136 0.0
N1103 N 0.82041 0.35659 0.31727 0.0
C1104 C 0.79179 0.3914 0.30473 0.0
C1105 C 0.81425 0.40932 0.30413 0.0
C1106 C 0.83983 0.40062 0.31012 0.0
C1107 C 0.84254 0.37403 0.31669 0.0
C1108 C 0.88012 0.31336 0.2867 0.0
C1109 C 0.87972 0.30199 0.32081 0.0
C1110 C 0.85675 0.3185 0.29649 0.0
N1111 N 0.85682 0.31294 0.31335 0.0
C1112 C 0.90346 0.29658 0.31142 0.0
C1113 C 0.90361 0.30234 0.29425 0.0
C1114 C 0.82407 0.27332 0.35156 0.0
C1115 C 0.71166 0.2947 0.34852 0.0
C1116 C 0.75355 0.27464 0.36878 0.0
C1117 C 0.72994 0.25868 0.36619 0.0
C1118 C 0.70888 0.26882 0.35599 0.0
N1119 N 0.75608 0.30003 0.36146 0.0
C1120 C 0.73556 0.31009 0.35141 0.0
Co1121 Co 0.93056 0.57558 0.57574 0.0
Co1122 Co 0.92941 0.5402 0.61349 0.0
O1123 O 0.92347 0.54225 0.58909 0.0
C1124 C 0.96445 0.53484 0.55669 0.0
O1125 O 0.9766 0.52768 0.57079 0.0
C1126 C 0.87158 0.52068 0.60945 0.0
O1127 O 0.86779 0.53966 0.59792 0.0
O1128 O 0.90779 0.57466 0.61736 0.0
O1129 O 0.9157 0.59947 0.59403 0.0
H1130 H 0.95452 0.578 0.6703 0.0
H1131 H 0.89869 0.52953 0.56085 0.0
O1132 O 0.94532 0.5528 0.55676 0.0
H1133 H 0.83607 0.60968 0.55939 0.0
H1134 H 0.93203 0.63202 0.52255 0.0
H1135 H 0.95357 0.63093 0.58316 0.0
H1136 H 0.88327 0.61426 0.5706 0.0
H1137 H 0.92279 0.59056 0.53961 0.0
O1138 O 0.89498 0.51789 0.61651 0.0
H1139 H 0.94697 0.58009 0.63965 0.0
H1140 H 0.92423 0.49545 0.63909 0.0
H1141 H 0.96292 0.67292 0.56659 0.0
H1142 H 0.85176 0.52408 0.54931 0.0
H1143 H 0.95214 0.67364 0.53605 0.0
H1144 H 0.82005 0.56433 0.5486 0.0
O1145 O 0.96856 0.57927 0.58532 0.0
H1146 H 0.94665 0.44655 0.58855 0.0
H1147 H 0.98443 0.51977 0.62493 0.0
H1148 H 0.01189 0.4778 0.61971 0.0
H1149 H 0.99298 0.44079 0.60143 0.0
H1150 H 0.91998 0.48899 0.594 0.0
H1151 H 0.93133 0.49251 0.66975 0.0
H1152 H 0.94668 0.53396 0.68555 0.0
O1153 O 0.96389 0.56219 0.6114 0.0
C1154 C 0.90632 0.597 0.60894 0.0
C1155 C 0.9479 0.55977 0.66355 0.0
C1156 C 0.93486 0.5118 0.66324 0.0
N1157 N 0.93538 0.53787 0.63757 0.0
C1158 C 0.94366 0.56081 0.64619 0.0
C1159 C 0.93082 0.51361 0.64588 0.0
C1160 C 0.94348 0.53506 0.6721 0.0
C1161 C 0.88509 0.54719 0.56045 0.0
N1162 N 0.8937 0.57218 0.56643 0.0
C1163 C 0.85851 0.54396 0.55396 0.0
C1164 C 0.84071 0.56654 0.55359 0.0
C1165 C 0.84967 0.59198 0.55966 0.0
C1166 C 0.87638 0.59443 0.56608 0.0
C1167 C 0.93679 0.63198 0.53585 0.0
C1168 C 0.94868 0.63113 0.56989 0.0
C1169 C 0.93166 0.60853 0.54557 0.0
N1170 N 0.93749 0.60837 0.56239 0.0
C1171 C 0.95409 0.65495 0.56057 0.0
C1172 C 0.94806 0.65532 0.54343 0.0
C1173 C 0.97772 0.57474 0.60012 0.0
C1174 C 0.95508 0.46249 0.59658 0.0
C1175 C 0.97609 0.50381 0.61692 0.0
C1176 C 0.99171 0.48005 0.61404 0.0
C1177 C 0.98108 0.45929 0.60379 0.0
N1178 N 0.95057 0.50675 0.60984 0.0
C1179 C 0.94003 0.48652 0.59975 0.0
Co1180 Co 0.67666 0.32155 0.67682 0.0
Co1181 Co 0.71098 0.32221 0.63867 0.0
O1182 O 0.7097 0.32799 0.66311 0.0
C1183 C 0.71714 0.28642 0.69524 0.0
O1184 O 0.72372 0.27437 0.681 0.0
C1185 C 0.73101 0.37981 0.64265 0.0
O1186 O 0.71217 0.38363 0.65427 0.0
O1187 O 0.67665 0.34423 0.63516 0.0
O1188 O 0.65262 0.33728 0.6589 0.0
H1189 H 0.67145 0.29788 0.58217 0.0
H1190 H 0.72407 0.352 0.69119 0.0
O1191 O 0.6996 0.30594 0.69544 0.0
H1192 H 0.64567 0.41666 0.69417 0.0
H1193 H 0.62178 0.32095 0.73063 0.0
H1194 H 0.6205 0.30014 0.66993 0.0
H1195 H 0.63941 0.36973 0.68283 0.0
H1196 H 0.66299 0.32921 0.71315 0.0
O1197 O 0.73359 0.35643 0.63553 0.0
H1198 H 0.67022 0.30529 0.61285 0.0
H1199 H 0.75512 0.32703 0.61267 0.0
H1200 H 0.57874 0.2918 0.68691 0.0
H1201 H 0.73122 0.39862 0.70284 0.0
H1202 H 0.57922 0.30222 0.71749 0.0
H1203 H 0.69186 0.43136 0.70432 0.0
O1204 O 0.67169 0.28377 0.66708 0.0
H1205 H 0.80509 0.30371 0.66259 0.0
H1206 H 0.73036 0.26697 0.62696 0.0
H1207 H 0.77211 0.23895 0.63171 0.0
H1208 H 0.80987 0.25733 0.64962 0.0
H1209 H 0.76286 0.33095 0.65761 0.0
H1210 H 0.75721 0.32007 0.58197 0.0
H1211 H 0.71519 0.30528 0.56652 0.0
O1212 O 0.68861 0.28801 0.64092 0.0
C1213 C 0.65472 0.34638 0.64392 0.0
C1214 C 0.68992 0.30424 0.58876 0.0
C1215 C 0.73805 0.31673 0.58865 0.0
N1216 N 0.71261 0.31637 0.61456 0.0
C1217 C 0.68937 0.3084 0.60614 0.0
C1218 C 0.73672 0.32069 0.60603 0.0
C1219 C 0.71446 0.30842 0.57999 0.0
C1220 C 0.70679 0.36606 0.69191 0.0
N1221 N 0.68135 0.35817 0.68627 0.0
C1222 C 0.71099 0.39246 0.69847 0.0
C1223 C 0.68891 0.41083 0.69928 0.0
C1224 C 0.663 0.40261 0.69356 0.0
C1225 C 0.65959 0.37606 0.68706 0.0
C1226 C 0.62131 0.31635 0.71731 0.0
C1227 C 0.62083 0.30485 0.68321 0.0
C1228 C 0.64461 0.32091 0.70736 0.0
N1229 N 0.64411 0.31529 0.69051 0.0
C1230 C 0.59714 0.30003 0.69277 0.0
C1231 C 0.59743 0.30586 0.70993 0.0
C1232 C 0.67586 0.27449 0.65227 0.0
C1233 C 0.78882 0.29551 0.65473 0.0
C1234 C 0.74666 0.27508 0.63481 0.0
C1235 C 0.77028 0.25915 0.63742 0.0
C1236 C 0.79147 0.26948 0.64746 0.0
N1237 N 0.74426 0.30063 0.64194 0.0
C1238 C 0.76491 0.31088 0.65182 0.0
Co1239 Co 0.93258 0.42669 0.92702 0.0
Co1240 Co 0.93034 0.46125 0.88903 0.0
O1241 O 0.92506 0.45976 0.91351 0.0
C1242 C 0.9668 0.46758 0.94586 0.0
O1243 O 0.97925 0.47435 0.93178 0.0
C1244 C 0.87269 0.48125 0.89338 0.0
O1245 O 0.86897 0.4625 0.90507 0.0
O1246 O 0.90839 0.42684 0.88568 0.0
O1247 O 0.91757 0.40239 0.90897 0.0
H1248 H 0.95361 0.422 0.83229 0.0
H1249 H 0.90064 0.47278 0.94181 0.0
O1250 O 0.94744 0.44985 0.9458 0.0
H1251 H 0.83858 0.39225 0.94417 0.0
H1252 H 0.93519 0.37107 0.98051 0.0
H1253 H 0.95581 0.37136 0.91978 0.0
H1254 H 0.88561 0.38779 0.93269 0.0
H1255 H 0.92545 0.41222 0.96327 0.0
O1256 O 0.89599 0.48376 0.88616 0.0
H1257 H 0.94688 0.42065 0.86302 0.0
H1258 H 0.92479 0.50547 0.86311 0.0
H1259 H 0.96564 0.32967 0.93653 0.0
H1260 H 0.85387 0.47812 0.95361 0.0
H1261 H 0.95533 0.32936 0.96713 0.0
H1262 H 0.82245 0.43768 0.95477 0.0
O1263 O 0.97043 0.42308 0.9172 0.0
H1264 H 0.94894 0.5553 0.91302 0.0
H1265 H 0.98518 0.48102 0.87684 0.0
H1266 H 0.01307 0.5229 0.88143 0.0
H1267 H 0.99494 0.56044 0.8996 0.0
H1268 H 0.92182 0.51294 0.90819 0.0
H1269 H 0.93106 0.50767 0.83237 0.0
H1270 H 0.94568 0.46575 0.81675 0.0
O1271 O 0.96473 0.43905 0.89094 0.0
C1272 C 0.90751 0.40459 0.89421 0.0
C1273 C 0.94731 0.44042 0.83896 0.0
C1274 C 0.93463 0.4885 0.839 0.0
N1275 N 0.93566 0.46299 0.86487 0.0
C1276 C 0.94354 0.4398 0.85636 0.0
C1277 C 0.93106 0.48711 0.8564 0.0
C1278 C 0.94284 0.46497 0.83025 0.0
C1279 C 0.88716 0.45504 0.9424 0.0
N1280 N 0.89584 0.43 0.93652 0.0
C1281 C 0.86067 0.45821 0.94904 0.0
C1282 C 0.84303 0.43552 0.94967 0.0
C1283 C 0.85206 0.41004 0.9437 0.0
C1284 C 0.87867 0.40766 0.93712 0.0
C1285 C 0.93975 0.37094 0.96719 0.0
C1286 C 0.95113 0.37134 0.93308 0.0
C1287 C 0.93435 0.39421 0.95737 0.0
N1288 N 0.93992 0.39415 0.94051 0.0
C1289 C 0.95681 0.34769 0.9425 0.0
C1290 C 0.95103 0.34754 0.95967 0.0
C1291 C 0.97903 0.427 0.90221 0.0
C1292 C 0.95703 0.53912 0.90503 0.0
C1293 C 0.97718 0.49722 0.88481 0.0
C1294 C 0.99304 0.52092 0.88733 0.0
C1295 C 0.98285 0.54198 0.89752 0.0
N1296 N 0.95183 0.49461 0.89218 0.0
C1297 C 0.94173 0.51514 0.90221 0.0
Co1298 Co 0.82557 0.68215 0.17591 0.0
Co1299 Co 0.7905 0.68026 0.13807 0.0
O1300 O 0.79232 0.67487 0.16253 0.0
C1301 C 0.78467 0.71644 0.1946 0.0
O1302 O 0.77753 0.72822 0.18038 0.0
C1303 C 0.77066 0.6226 0.14251 0.0
O1304 O 0.78958 0.61896 0.1541 0.0
O1305 O 0.82488 0.65838 0.13449 0.0
O1306 O 0.84955 0.66683 0.1578 0.0
H1307 H 0.82891 0.70383 0.08116 0.0
H1308 H 0.77929 0.65073 0.19089 0.0
O1309 O 0.8027 0.69737 0.19472 0.0
H1310 H 0.85921 0.58788 0.1931 0.0
H1311 H 0.88165 0.68447 0.22923 0.0
H1312 H 0.88105 0.70483 0.16847 0.0
H1313 H 0.86405 0.63484 0.18156 0.0
H1314 H 0.84027 0.67504 0.21213 0.0
O1315 O 0.76802 0.64586 0.13527 0.0
H1316 H 0.8307 0.69698 0.11187 0.0
H1317 H 0.74594 0.67473 0.11237 0.0
H1318 H 0.92295 0.71435 0.18508 0.0
H1319 H 0.77357 0.60405 0.20275 0.0
H1320 H 0.92342 0.70416 0.21569 0.0
H1321 H 0.8137 0.57223 0.20384 0.0
O1322 O 0.82945 0.71994 0.16604 0.0
H1323 H 0.69674 0.69858 0.16253 0.0
H1324 H 0.77051 0.73513 0.1261 0.0
H1325 H 0.72865 0.76295 0.13095 0.0
H1326 H 0.69137 0.74466 0.14925 0.0
H1327 H 0.73907 0.67155 0.15745 0.0
H1328 H 0.74329 0.68112 0.08165 0.0
H1329 H 0.78495 0.69589 0.06584 0.0
O1330 O 0.81269 0.71466 0.13992 0.0
C1331 C 0.84717 0.65709 0.14298 0.0
C1332 C 0.81059 0.69747 0.08791 0.0
C1333 C 0.76254 0.6847 0.08818 0.0
N1334 N 0.78841 0.68567 0.11393 0.0
C1335 C 0.81146 0.69363 0.10531 0.0
C1336 C 0.76419 0.68106 0.10558 0.0
C1337 C 0.78593 0.69299 0.07932 0.0
C1338 C 0.7969 0.63708 0.19145 0.0
N1339 N 0.82197 0.64549 0.18549 0.0
C1340 C 0.79351 0.61064 0.19813 0.0
C1341 C 0.81603 0.59278 0.19871 0.0
C1342 C 0.84155 0.60154 0.19266 0.0
C1343 C 0.84415 0.62811 0.18605 0.0
C1344 C 0.88171 0.68897 0.2159 0.0
C1345 C 0.88113 0.70021 0.18177 0.0
C1346 C 0.85831 0.68375 0.20616 0.0
N1347 N 0.85828 0.68924 0.1893 0.0
C1348 C 0.9049 0.7057 0.19112 0.0
C1349 C 0.90514 0.70001 0.2083 0.0
C1350 C 0.82517 0.72872 0.15113 0.0
C1351 C 0.7128 0.70674 0.1545 0.0
C1352 C 0.75442 0.72707 0.13412 0.0
C1353 C 0.73074 0.74289 0.13679 0.0
C1354 C 0.70982 0.73261 0.14706 0.0
N1355 N 0.75715 0.70168 0.14142 0.0
C1356 C 0.73676 0.69149 0.15153 0.0
Co1357 Co 0.56991 0.57527 0.42706 0.0
Co1358 Co 0.57125 0.54097 0.38896 0.0
O1359 O 0.5769 0.54226 0.41341 0.0
C1360 C 0.53555 0.53443 0.44577 0.0
O1361 O 0.52317 0.52779 0.43165 0.0
C1362 C 0.6288 0.52071 0.39308 0.0
O1363 O 0.63266 0.53949 0.40473 0.0
O1364 O 0.59334 0.57527 0.38556 0.0
O1365 O 0.58499 0.59956 0.40903 0.0
H1366 H 0.54745 0.58065 0.33242 0.0
H1367 H 0.60148 0.5287 0.44158 0.0
O1368 O 0.55496 0.5521 0.44579 0.0
H1369 H 0.66447 0.6085 0.44394 0.0
H1370 H 0.56843 0.63041 0.48076 0.0
H1371 H 0.5472 0.63091 0.42011 0.0
H1372 H 0.61737 0.61359 0.43266 0.0
H1373 H 0.57758 0.58933 0.46333 0.0
O1374 O 0.60546 0.5183 0.38589 0.0
H1375 H 0.55458 0.58179 0.36312 0.0
H1376 H 0.57623 0.49687 0.36293 0.0
H1377 H 0.53795 0.67253 0.43705 0.0
H1378 H 0.6483 0.52273 0.45317 0.0
H1379 H 0.54858 0.67244 0.46761 0.0
H1380 H 0.6802 0.5628 0.45433 0.0
O1381 O 0.53201 0.57936 0.41742 0.0
H1382 H 0.55247 0.44686 0.41281 0.0
H1383 H 0.51613 0.52161 0.37704 0.0
H1384 H 0.48807 0.47985 0.38167 0.0
H1385 H 0.50624 0.44208 0.39964 0.0
H1386 H 0.57976 0.48909 0.40794 0.0
H1387 H 0.56955 0.49485 0.33221 0.0
H1388 H 0.55494 0.53693 0.31676 0.0
O1389 O 0.537 0.56336 0.39111 0.0
C1390 C 0.59467 0.59742 0.39418 0.0
C1391 C 0.55373 0.56215 0.33902 0.0
C1392 C 0.56616 0.51401 0.3389 0.0
N1393 N 0.5656 0.53938 0.36483 0.0
C1394 C 0.55774 0.56266 0.35641 0.0
C1395 C 0.56997 0.51529 0.35629 0.0
C1396 C 0.55796 0.53763 0.33024 0.0
C1397 C 0.61516 0.54628 0.44217 0.0
N1398 N 0.60671 0.57146 0.43641 0.0
C1399 C 0.64169 0.54275 0.44869 0.0
C1400 C 0.65959 0.56523 0.44932 0.0
C1401 C 0.65079 0.59087 0.44347 0.0
C1402 C 0.62413 0.59361 0.43701 0.0
C1403 C 0.56374 0.63071 0.46745 0.0
C1404 C 0.55201 0.63076 0.43338 0.0
C1405 C 0.56881 0.60748 0.45753 0.0
N1406 N 0.56307 0.60776 0.4407 0.0
C1407 C 0.54667 0.65436 0.44292 0.0
C1408 C 0.55262 0.65429 0.46006 0.0
C1409 C 0.52307 0.57553 0.4025 0.0
C1410 C 0.54436 0.46314 0.40491 0.0
C1411 C 0.52416 0.5053 0.38491 0.0
C1412 C 0.50819 0.48168 0.38746 0.0
C1413 C 0.51841 0.46049 0.39754 0.0
N1414 N 0.54963 0.50771 0.39215 0.0
C1415 C 0.55976 0.48705 0.40207 0.0
Co1416 Co 0.3253 0.31958 0.17692 0.0
Co1417 Co 0.29104 0.32196 0.13882 0.0
O1418 O 0.29238 0.32718 0.1633 0.0
C1419 C 0.2839 0.28537 0.19524 0.0
O1420 O 0.27698 0.27369 0.18095 0.0
C1421 C 0.27128 0.37969 0.14325 0.0
O1422 O 0.28988 0.38321 0.15505 0.0
O1423 O 0.32564 0.34366 0.13556 0.0
O1424 O 0.34974 0.33484 0.15904 0.0
H1425 H 0.33052 0.29841 0.08218 0.0
H1426 H 0.27894 0.35121 0.19164 0.0
O1427 O 0.30198 0.3044 0.19552 0.0
H1428 H 0.35921 0.41353 0.19457 0.0
H1429 H 0.38031 0.31663 0.23065 0.0
H1430 H 0.38078 0.29659 0.16984 0.0
H1431 H 0.36397 0.36662 0.18295 0.0
H1432 H 0.33933 0.32639 0.21327 0.0
O1433 O 0.2688 0.35649 0.13591 0.0
H1434 H 0.33169 0.3051 0.11292 0.0
H1435 H 0.24707 0.32791 0.11278 0.0
H1436 H 0.42231 0.28674 0.18673 0.0
H1437 H 0.2733 0.39784 0.20359 0.0
H1438 H 0.42224 0.29677 0.21737 0.0
H1439 H 0.31361 0.4294 0.20504 0.0
O1440 O 0.32914 0.28182 0.167 0.0
H1441 H 0.19669 0.30402 0.16254 0.0
H1442 H 0.27096 0.26729 0.12654 0.0
H1443 H 0.22884 0.23969 0.131 0.0
H1444 H 0.19131 0.25807 0.14909 0.0
H1445 H 0.23927 0.33084 0.15784 0.0
H1446 H 0.24505 0.32168 0.08202 0.0
H1447 H 0.28696 0.30672 0.06652 0.0
O1448 O 0.31297 0.28741 0.14078 0.0
C1449 C 0.34775 0.34472 0.14423 0.0
C1450 C 0.3121 0.30486 0.08879 0.0
C1451 C 0.26414 0.31794 0.0887 0.0
N1452 N 0.28944 0.31669 0.11465 0.0
C1453 C 0.31262 0.30862 0.1062 0.0
C1454 C 0.26543 0.32149 0.10612 0.0
C1455 C 0.28766 0.30954 0.08002 0.0
C1456 C 0.29663 0.36474 0.19236 0.0
N1457 N 0.32176 0.35621 0.18656 0.0
C1458 C 0.29328 0.39116 0.19908 0.0
C1459 C 0.3159 0.40887 0.19987 0.0
C1460 C 0.34148 0.39999 0.19398 0.0
C1461 C 0.34403 0.37345 0.18732 0.0
C1462 C 0.38061 0.3122 0.21731 0.0
C1463 C 0.38064 0.30114 0.18315 0.0
C1464 C 0.35743 0.3176 0.20741 0.0
N1465 N 0.3577 0.3122 0.19053 0.0
C1466 C 0.40419 0.29546 0.19266 0.0
C1467 C 0.40413 0.30106 0.20985 0.0
C1468 C 0.32508 0.27315 0.15204 0.0
C1469 C 0.21286 0.29582 0.15459 0.0
C1470 C 0.25476 0.2754 0.13447 0.0
C1471 C 0.23093 0.2597 0.13692 0.0
C1472 C 0.20988 0.27003 0.14706 0.0
N1473 N 0.2575 0.30071 0.14186 0.0
C1474 C 0.23697 0.31095 0.15184 0.0
Co1475 Co 0.43154 0.57575 0.92759 0.0
Co1476 Co 0.42943 0.54125 0.88958 0.0
O1477 O 0.42416 0.5427 0.91406 0.0
C1478 C 0.46581 0.53476 0.94626 0.0
O1479 O 0.47803 0.52796 0.93211 0.0
C1480 C 0.3719 0.52122 0.89411 0.0
O1481 O 0.36833 0.54009 0.90574 0.0
O1482 O 0.40743 0.57562 0.88624 0.0
O1483 O 0.41642 0.60004 0.90957 0.0
H1484 H 0.45251 0.58054 0.83282 0.0
H1485 H 0.39983 0.52951 0.94237 0.0
O1486 O 0.44655 0.5526 0.94632 0.0
H1487 H 0.33742 0.60976 0.9448 0.0
H1488 H 0.43405 0.63124 0.98114 0.0
H1489 H 0.45457 0.63118 0.9204 0.0
H1490 H 0.38442 0.61444 0.9333 0.0
H1491 H 0.42442 0.5901 0.96386 0.0
O1492 O 0.39508 0.51869 0.88676 0.0
H1493 H 0.44587 0.58187 0.86356 0.0
H1494 H 0.42385 0.49704 0.86366 0.0
H1495 H 0.4643 0.67285 0.93718 0.0
H1496 H 0.3531 0.52395 0.95419 0.0
H1497 H 0.45402 0.67305 0.96779 0.0
H1498 H 0.3215 0.56425 0.95538 0.0
O1499 O 0.46935 0.57951 0.91775 0.0
H1500 H 0.44822 0.4472 0.91351 0.0
H1501 H 0.48427 0.52159 0.87736 0.0
H1502 H 0.51224 0.47974 0.8819 0.0
H1503 H 0.4942 0.44215 0.90006 0.0
H1504 H 0.42102 0.48952 0.90872 0.0
H1505 H 0.43004 0.49484 0.8329 0.0
H1506 H 0.44458 0.53678 0.81729 0.0
O1507 O 0.46382 0.56352 0.89147 0.0
C1508 C 0.40643 0.59785 0.8948 0.0
C1509 C 0.44626 0.5621 0.83949 0.0
C1510 C 0.43361 0.51402 0.83954 0.0
N1511 N 0.43469 0.53952 0.86541 0.0
C1512 C 0.44253 0.56271 0.8569 0.0
C1513 C 0.43009 0.5154 0.85695 0.0
C1514 C 0.44178 0.53755 0.83078 0.0
C1515 C 0.38628 0.5472 0.94299 0.0
N1516 N 0.39484 0.57227 0.93712 0.0
C1517 C 0.35981 0.5439 0.94963 0.0
C1518 C 0.34207 0.5665 0.95027 0.0
C1519 C 0.35098 0.59204 0.94431 0.0
C1520 C 0.37758 0.59454 0.93773 0.0
C1521 C 0.43858 0.63142 0.96781 0.0
C1522 C 0.44991 0.63115 0.93369 0.0
C1523 C 0.43325 0.60816 0.95797 0.0
N1524 N 0.43879 0.60828 0.94111 0.0
C1525 C 0.45552 0.65479 0.94314 0.0
C1526 C 0.44978 0.65488 0.96031 0.0
C1527 C 0.47802 0.5756 0.90278 0.0
C1528 C 0.45626 0.4634 0.90553 0.0
C1529 C 0.47631 0.50536 0.88532 0.0
C1530 C 0.49222 0.48168 0.88781 0.0
C1531 C 0.48208 0.46059 0.898 0.0
N1532 N 0.45097 0.50792 0.89271 0.0
C1533 C 0.44092 0.48736 0.90273 0.0
Co1534 Co 0.17646 0.67963 0.677 0.0
Co1535 Co 0.21101 0.67824 0.63895 0.0
O1536 O 0.20952 0.67263 0.6634 0.0
C1537 C 0.21729 0.71427 0.69546 0.0
O1538 O 0.22409 0.72615 0.68121 0.0
C1539 C 0.23062 0.62049 0.64313 0.0
O1540 O 0.2118 0.61687 0.65479 0.0
O1541 O 0.17649 0.65653 0.63543 0.0
O1542 O 0.15232 0.6642 0.65904 0.0
H1543 H 0.17201 0.70253 0.58231 0.0
H1544 H 0.22325 0.64853 0.69163 0.0
O1545 O 0.1995 0.69497 0.69567 0.0
H1546 H 0.14385 0.58507 0.69434 0.0
H1547 H 0.12123 0.68136 0.73066 0.0
H1548 H 0.12069 0.70189 0.66993 0.0
H1549 H 0.13844 0.63202 0.68288 0.0
H1550 H 0.16241 0.67232 0.71331 0.0
O1551 O 0.2333 0.64379 0.63593 0.0
H1552 H 0.17056 0.6954 0.61301 0.0
H1553 H 0.25523 0.67278 0.61304 0.0
H1554 H 0.07897 0.71101 0.68679 0.0
H1555 H 0.22954 0.60186 0.7034 0.0
H1556 H 0.07908 0.70073 0.71739 0.0
H1557 H 0.18968 0.56973 0.70474 0.0
O1558 O 0.17213 0.71742 0.6672 0.0
H1559 H 0.30517 0.69596 0.66302 0.0
H1560 H 0.23104 0.73317 0.62711 0.0
H1561 H 0.27306 0.76078 0.63186 0.0
H1562 H 0.31052 0.74216 0.64991 0.0
H1563 H 0.26267 0.66913 0.65804 0.0
H1564 H 0.25754 0.67946 0.58232 0.0
H1565 H 0.21574 0.69455 0.56676 0.0
O1566 O 0.18898 0.71269 0.64106 0.0
C1567 C 0.15443 0.65485 0.64411 0.0
C1568 C 0.19038 0.69604 0.58895 0.0
C1569 C 0.23838 0.68305 0.58896 0.0
N1570 N 0.21283 0.68389 0.61482 0.0
C1571 C 0.18971 0.69203 0.60634 0.0
C1572 C 0.23693 0.67925 0.60635 0.0
C1573 C 0.21492 0.69153 0.58024 0.0
C1574 C 0.20575 0.63474 0.6923 0.0
N1575 N 0.18051 0.64297 0.68652 0.0
C1576 C 0.20946 0.60831 0.69892 0.0
C1577 C 0.1871 0.59028 0.69964 0.0
C1578 C 0.16139 0.59885 0.69379 0.0
C1579 C 0.15847 0.62542 0.68722 0.0
C1580 C 0.12092 0.68589 0.71734 0.0
C1581 C 0.12085 0.69723 0.68322 0.0
C1582 C 0.14421 0.6809 0.70745 0.0
N1583 N 0.14391 0.68644 0.6906 0.0
C1584 C 0.09719 0.7025 0.69271 0.0
C1585 C 0.09727 0.69675 0.70988 0.0
C1586 C 0.17642 0.72649 0.65235 0.0
C1587 C 0.28902 0.70426 0.6551 0.0
C1588 C 0.24721 0.72496 0.63502 0.0
C1589 C 0.27099 0.74066 0.63763 0.0
C1590 C 0.292 0.7302 0.64775 0.0
N1591 N 0.24448 0.6995 0.64223 0.0
C1592 C 0.26497 0.68912 0.65219 0.0
Co1593 Co 0.06974 0.42587 0.42659 0.0
Co1594 Co 0.07232 0.46029 0.38858 0.0
O1595 O 0.07741 0.45885 0.41307 0.0
C1596 C 0.03555 0.46699 0.44525 0.0
O1597 O 0.02328 0.47377 0.43111 0.0
C1598 C 0.12995 0.47992 0.39325 0.0
O1599 O 0.13331 0.46097 0.40485 0.0
O1600 O 0.09412 0.42576 0.3853 0.0
O1601 O 0.08481 0.40145 0.40863 0.0
H1602 H 0.04926 0.42108 0.33179 0.0
H1603 H 0.10166 0.47195 0.4414 0.0
O1604 O 0.0548 0.44914 0.44528 0.0
H1605 H 0.16356 0.39131 0.44403 0.0
H1606 H 0.06661 0.37048 0.48017 0.0
H1607 H 0.04641 0.37057 0.41939 0.0
H1608 H 0.11658 0.38689 0.43245 0.0
H1609 H 0.07658 0.41153 0.46289 0.0
O1610 O 0.10683 0.48263 0.38584 0.0
H1611 H 0.05573 0.41975 0.36255 0.0
H1612 H 0.0784 0.50441 0.36265 0.0
H1613 H 0.03634 0.32898 0.43618 0.0
H1614 H 0.14837 0.47725 0.4533 0.0
H1615 H 0.04645 0.32878 0.4668 0.0
H1616 H 0.17971 0.43676 0.45459 0.0
O1617 O 0.03197 0.42233 0.41668 0.0
H1618 H 0.05397 0.5545 0.41241 0.0
H1619 H 0.0177 0.48029 0.3762 0.0
H1620 H 0.98998 0.52232 0.38064 0.0
H1621 H 0.00812 0.55983 0.39883 0.0
H1622 H 0.08093 0.512 0.40772 0.0
H1623 H 0.07238 0.5066 0.33188 0.0
H1624 H 0.0576 0.46475 0.31625 0.0
O1625 O 0.03779 0.43825 0.39041 0.0
C1626 C 0.09491 0.40354 0.39388 0.0
C1627 C 0.05563 0.43948 0.33847 0.0
C1628 C 0.06864 0.48746 0.33851 0.0
N1629 N 0.06723 0.46202 0.3644 0.0
C1630 C 0.05926 0.43887 0.35588 0.0
C1631 C 0.07206 0.48608 0.35593 0.0
C1632 C 0.06034 0.46398 0.32975 0.0
C1633 C 0.1151 0.45418 0.44206 0.0
N1634 N 0.10641 0.42914 0.4362 0.0
C1635 C 0.14156 0.45733 0.44875 0.0
C1636 C 0.15915 0.43462 0.44945 0.0
C1637 C 0.15011 0.40913 0.4435 0.0
C1638 C 0.12353 0.40676 0.43687 0.0
C1639 C 0.06214 0.37031 0.46683 0.0
C1640 C 0.05099 0.37059 0.43269 0.0
C1641 C 0.06767 0.39353 0.45699 0.0
N1642 N 0.06221 0.3934 0.44012 0.0
C1643 C 0.04519 0.34701 0.44214 0.0
C1644 C 0.05084 0.34691 0.45933 0.0
C1645 C 0.02343 0.42628 0.40168 0.0
C1646 C 0.04587 0.53834 0.40442 0.0
C1647 C 0.02571 0.49647 0.38417 0.0
C1648 C 0.00994 0.52026 0.38661 0.0
C1649 C 0.02014 0.5413 0.39681 0.0
N1650 N 0.05097 0.49377 0.39163 0.0
C1651 C 0.06108 0.51428 0.40167 0.0
Co1652 Co 0.32355 0.68171 0.32671 0.0
Co1653 Co 0.28932 0.67915 0.3648 0.0
O1654 O 0.29067 0.67402 0.34032 0.0
C1655 C 0.28211 0.71576 0.30827 0.0
O1656 O 0.27524 0.72776 0.32248 0.0
C1657 C 0.27004 0.62142 0.36019 0.0
O1658 O 0.28904 0.61818 0.3486 0.0
O1659 O 0.32396 0.65751 0.36804 0.0
O1660 O 0.34806 0.66662 0.34461 0.0
H1661 H 0.32863 0.70254 0.42151 0.0
H1662 H 0.27737 0.64982 0.312 0.0
O1663 O 0.30016 0.69671 0.30811 0.0
H1664 H 0.35796 0.5879 0.30915 0.0
H1665 H 0.37857 0.6849 0.273 0.0
H1666 H 0.3789 0.70502 0.33378 0.0
H1667 H 0.36247 0.63486 0.32074 0.0
H1668 H 0.33764 0.67492 0.29038 0.0
O1669 O 0.26716 0.64453 0.36758 0.0
H1670 H 0.32989 0.69599 0.39076 0.0
H1671 H 0.24534 0.67293 0.3908 0.0
H1672 H 0.42037 0.7151 0.31689 0.0
H1673 H 0.27198 0.60313 0.3001 0.0
H1674 H 0.42037 0.70503 0.28626 0.0
H1675 H 0.31245 0.57177 0.29869 0.0
O1676 O 0.32717 0.71947 0.33663 0.0
H1677 H 0.19495 0.69705 0.3411 0.0
H1678 H 0.26916 0.73373 0.37715 0.0
H1679 H 0.22701 0.76129 0.37273 0.0
H1680 H 0.1895 0.74293 0.35461 0.0
H1681 H 0.23757 0.67027 0.34576 0.0
H1682 H 0.24322 0.67903 0.42156 0.0
H1683 H 0.28506 0.69405 0.43712 0.0
O1684 O 0.31122 0.71377 0.36291 0.0
C1685 C 0.3461 0.65664 0.35939 0.0
C1686 C 0.31024 0.69607 0.41487 0.0
C1687 C 0.26232 0.68284 0.4149 0.0
N1688 N 0.28767 0.68429 0.38898 0.0
C1689 C 0.31081 0.69239 0.39745 0.0
C1690 C 0.26366 0.67937 0.39748 0.0
C1691 C 0.28579 0.69128 0.42362 0.0
C1692 C 0.29513 0.63638 0.31129 0.0
N1693 N 0.32021 0.64505 0.3171 0.0
C1694 C 0.29192 0.60992 0.3046 0.0
C1695 C 0.31463 0.59233 0.30384 0.0
C1696 C 0.34016 0.60135 0.30973 0.0
C1697 C 0.34257 0.62792 0.31636 0.0
C1698 C 0.37883 0.68935 0.28633 0.0
C1699 C 0.37879 0.70045 0.32048 0.0
C1700 C 0.35569 0.68381 0.29623 0.0
N1701 N 0.35592 0.68925 0.3131 0.0
C1702 C 0.40231 0.70626 0.31097 0.0
C1703 C 0.40228 0.70063 0.29379 0.0
C1704 C 0.32322 0.72807 0.35162 0.0
C1705 C 0.21111 0.70523 0.34905 0.0
C1706 C 0.25297 0.72563 0.36921 0.0
C1707 C 0.22912 0.74131 0.36679 0.0
C1708 C 0.20808 0.73099 0.35663 0.0
N1709 N 0.25574 0.70035 0.36178 0.0
C1710 C 0.23524 0.69012 0.35178 0.0
Co1711 Co 0.0714 0.57571 0.07663 0.0
Co1712 Co 0.07287 0.54055 0.11445 0.0
O1713 O 0.0786 0.54244 0.09002 0.0
C1714 C 0.03731 0.53502 0.05758 0.0
O1715 O 0.02495 0.52804 0.07165 0.0
C1716 C 0.13064 0.52081 0.11032 0.0
O1717 O 0.13445 0.53975 0.09876 0.0
O1718 O 0.0946 0.57498 0.11817 0.0
O1719 O 0.08632 0.59972 0.09486 0.0
H1720 H 0.04841 0.57882 0.17125 0.0
H1721 H 0.10325 0.52961 0.06179 0.0
O1722 O 0.0566 0.55283 0.0577 0.0
H1723 H 0.16576 0.60982 0.06001 0.0
H1724 H 0.06965 0.63191 0.02335 0.0
H1725 H 0.04838 0.63108 0.08399 0.0
H1726 H 0.11862 0.61442 0.0713 0.0
H1727 H 0.07899 0.59053 0.04046 0.0
O1728 O 0.10727 0.51813 0.11742 0.0
H1729 H 0.05567 0.58067 0.14058 0.0
H1730 H 0.07813 0.49595 0.14014 0.0
H1731 H 0.03894 0.67299 0.06737 0.0
H1732 H 0.15013 0.52414 0.05018 0.0
H1733 H 0.04959 0.67358 0.03682 0.0
H1734 H 0.18178 0.56442 0.04931 0.0
O1735 O 0.03344 0.57941 0.08629 0.0
H1736 H 0.05509 0.4468 0.08981 0.0
H1737 H 0.01788 0.5204 0.12613 0.0
H1738 H 0.99024 0.47848 0.12111 0.0
H1739 H 0.00886 0.44128 0.10286 0.0
H1740 H 0.08196 0.48919 0.09506 0.0
H1741 H 0.07131 0.49324 0.17084 0.0
H1742 H 0.05624 0.53486 0.18659 0.0
O1743 O 0.03844 0.56265 0.11243 0.0
C1744 C 0.09588 0.59732 0.10972 0.0
C1745 C 0.05489 0.56052 0.16452 0.0
C1746 C 0.06778 0.5125 0.16429 0.0
N1747 N 0.06711 0.5384 0.13856 0.0
C1748 C 0.05898 0.56143 0.14715 0.0
C1749 C 0.07166 0.51418 0.14692 0.0
C1750 C 0.05932 0.53586 0.17312 0.0
C1751 C 0.11683 0.54728 0.06132 0.0
N1752 N 0.10822 0.5723 0.06726 0.0
C1753 C 0.14339 0.54404 0.05479 0.0
C1754 C 0.16115 0.56663 0.05433 0.0
C1755 C 0.15219 0.5921 0.06036 0.0
C1756 C 0.12551 0.59456 0.06682 0.0
C1757 C 0.06495 0.63192 0.03665 0.0
C1758 C 0.0532 0.63122 0.07072 0.0
C1759 C 0.07012 0.60852 0.04641 0.0
N1760 N 0.06437 0.60843 0.06324 0.0
C1761 C 0.04775 0.65499 0.06136 0.0
C1762 C 0.05371 0.6553 0.04422 0.0
C1763 C 0.02447 0.57508 0.10116 0.0
C1764 C 0.04679 0.46283 0.09782 0.0
C1765 C 0.0261 0.50435 0.11813 0.0
C1766 C 0.01037 0.48063 0.11537 0.0
C1767 C 0.02084 0.45976 0.10513 0.0
N1768 N 0.05157 0.50716 0.11095 0.0
C1769 C 0.06194 0.48682 0.10088 0.0
Co1770 Co 0.17751 0.3206 0.82658 0.0
Co1771 Co 0.21276 0.32214 0.86436 0.0
O1772 O 0.21082 0.32772 0.83992 0.0
C1773 C 0.21794 0.28622 0.8075 0.0
O1774 O 0.22487 0.27378 0.82156 0.0
C1775 C 0.23227 0.37985 0.86003 0.0
O1776 O 0.21305 0.38344 0.84862 0.0
O1777 O 0.17838 0.34395 0.86809 0.0
O1778 O 0.1536 0.33569 0.8448 0.0
H1779 H 0.17468 0.29803 0.92127 0.0
H1780 H 0.22369 0.35222 0.81164 0.0
O1781 O 0.20029 0.30564 0.80765 0.0
H1782 H 0.14374 0.41507 0.80991 0.0
H1783 H 0.12116 0.31886 0.77336 0.0
H1784 H 0.12209 0.29779 0.83402 0.0
H1785 H 0.13898 0.36797 0.82124 0.0
H1786 H 0.16262 0.32813 0.79042 0.0
O1787 O 0.23522 0.35656 0.86719 0.0
H1788 H 0.17272 0.30514 0.89058 0.0
H1789 H 0.25744 0.32754 0.88999 0.0
H1790 H 0.08011 0.28842 0.81745 0.0
H1791 H 0.22933 0.39906 0.8 0.0
H1792 H 0.07948 0.29897 0.78689 0.0
H1793 H 0.18918 0.43088 0.79915 0.0
O1794 O 0.17371 0.28272 0.83631 0.0
H1795 H 0.30643 0.30406 0.83969 0.0
H1796 H 0.23283 0.26718 0.87613 0.0
H1797 H 0.27469 0.23944 0.87114 0.0
H1798 H 0.31189 0.25789 0.85283 0.0
H1799 H 0.2641 0.33103 0.84491 0.0
H1800 H 0.26026 0.32088 0.92069 0.0
H1801 H 0.2187 0.30592 0.93653 0.0
O1802 O 0.19058 0.28772 0.86243 0.0
C1803 C 0.15605 0.34529 0.85965 0.0
C1804 C 0.19296 0.30447 0.9145 0.0
C1805 C 0.24098 0.31733 0.91418 0.0
N1806 N 0.21498 0.31653 0.88848 0.0
C1807 C 0.19199 0.30846 0.89712 0.0
C1808 C 0.23924 0.32112 0.8968 0.0
C1809 C 0.21765 0.30893 0.92306 0.0
C1810 C 0.20607 0.36587 0.81118 0.0
N1811 N 0.18104 0.35738 0.81715 0.0
C1812 C 0.20941 0.3924 0.80463 0.0
C1813 C 0.18689 0.41026 0.80418 0.0
C1814 C 0.1614 0.40142 0.81024 0.0
C1815 C 0.15885 0.37476 0.81672 0.0
C1816 C 0.12117 0.31421 0.78667 0.0
C1817 C 0.12193 0.30257 0.82075 0.0
C1818 C 0.14462 0.31934 0.79639 0.0
N1819 N 0.14473 0.31364 0.81323 0.0
C1820 C 0.09812 0.29716 0.81142 0.0
C1821 C 0.09779 0.30305 0.79427 0.0
C1822 C 0.17806 0.27377 0.85118 0.0
C1823 C 0.2904 0.29583 0.84773 0.0
C1824 C 0.24888 0.27532 0.8681 0.0
C1825 C 0.27257 0.25954 0.86536 0.0
C1826 C 0.29344 0.26991 0.85509 0.0
N1827 N 0.24611 0.30076 0.86088 0.0
C1828 C 0.26644 0.31105 0.85077 0.0
Co1829 Co 0.43044 0.42565 0.57615 0.0
Co1830 Co 0.42957 0.46101 0.61393 0.0
O1831 O 0.42336 0.45892 0.58956 0.0
C1832 C 0.46417 0.46655 0.55713 0.0
O1833 O 0.47627 0.47373 0.57125 0.0
C1834 C 0.3715 0.47987 0.61015 0.0
O1835 O 0.36781 0.46082 0.59864 0.0
O1836 O 0.40836 0.42632 0.61791 0.0
O1837 O 0.41568 0.4017 0.59443 0.0
H1838 H 0.45594 0.42349 0.6706 0.0
H1839 H 0.39845 0.47175 0.56141 0.0
O1840 O 0.44509 0.44852 0.55718 0.0
H1841 H 0.33587 0.39157 0.55995 0.0
H1842 H 0.43166 0.36942 0.52287 0.0
H1843 H 0.45351 0.37028 0.58344 0.0
H1844 H 0.38315 0.38696 0.57103 0.0
H1845 H 0.4225 0.41082 0.54002 0.0
O1846 O 0.39493 0.48295 0.61712 0.0
H1847 H 0.44795 0.42132 0.64 0.0
H1848 H 0.42419 0.50568 0.63958 0.0
H1849 H 0.46279 0.32836 0.56679 0.0
H1850 H 0.35144 0.47724 0.55001 0.0
H1851 H 0.45185 0.32776 0.53627 0.0
H1852 H 0.31975 0.43697 0.5493 0.0
O1853 O 0.46849 0.42194 0.58565 0.0
H1854 H 0.44546 0.55485 0.58895 0.0
H1855 H 0.48451 0.48204 0.62513 0.0
H1856 H 0.51143 0.52432 0.6198 0.0
H1857 H 0.49189 0.56112 0.60161 0.0
H1858 H 0.41933 0.51212 0.59451 0.0
H1859 H 0.4317 0.50869 0.6702 0.0
H1860 H 0.4478 0.46742 0.68591 0.0
O1861 O 0.46424 0.43939 0.61167 0.0
C1862 C 0.40666 0.40405 0.60942 0.0
C1863 C 0.449 0.44164 0.66389 0.0
C1864 C 0.43536 0.48945 0.66367 0.0
N1865 N 0.43582 0.46339 0.63799 0.0
C1866 C 0.44451 0.44055 0.64655 0.0
C1867 C 0.43109 0.4876 0.64633 0.0
C1868 C 0.4444 0.46629 0.67247 0.0
C1869 C 0.38486 0.45408 0.56101 0.0
N1870 N 0.39353 0.42907 0.56692 0.0
C1871 C 0.35823 0.45734 0.5546 0.0
C1872 C 0.34045 0.43475 0.55423 0.0
C1873 C 0.34947 0.40928 0.56022 0.0
C1874 C 0.37622 0.40681 0.56656 0.0
C1875 C 0.43649 0.36942 0.53616 0.0
C1876 C 0.44856 0.37013 0.57018 0.0
C1877 C 0.43141 0.39283 0.54593 0.0
N1878 N 0.43732 0.39292 0.56274 0.0
C1879 C 0.45392 0.34636 0.56081 0.0
C1880 C 0.4478 0.34604 0.54369 0.0
C1881 C 0.47791 0.42673 0.60036 0.0
C1882 C 0.45417 0.539 0.59693 0.0
C1883 C 0.47589 0.49791 0.61716 0.0
C1884 C 0.49121 0.52184 0.61422 0.0
C1885 C 0.48023 0.54249 0.60402 0.0
N1886 N 0.45031 0.49468 0.6102 0.0
C1887 C 0.43943 0.51481 0.60016 0.0
H1888 H 0.10724 0.35559 0.41012 0.0
H1889 H 0.15091 0.26692 0.3306 0.0
H1890 H 0.11151 0.39369 0.36107 0.0
H1891 H 0.17713 0.24999 0.38151 0.0
H1892 H 0.13198 0.31138 0.3403 0.0
H1893 H 0.12775 0.31422 0.39863 0.0
C1894 C 0.11266 0.35544 0.39692 0.0
C1895 C 0.10791 0.37849 0.38663 0.0
C1896 C 0.14208 0.29786 0.34922 0.0
C1897 C 0.13123 0.33041 0.37324 0.0
C1898 C 0.1528 0.2725 0.34374 0.0
C1899 C 0.16553 0.25449 0.35524 0.0
C1900 C 0.14378 0.30492 0.36633 0.0
C1901 C 0.16745 0.26291 0.37211 0.0
C1902 C 0.12442 0.33165 0.39035 0.0
C1903 C 0.11507 0.37654 0.36951 0.0
N1904 N 0.15654 0.28729 0.37711 0.0
N1905 N 0.12627 0.3528 0.36329 0.0
H1906 H 0.98362 0.90007 0.58044 0.0
H1907 H 0.89446 0.85772 0.6601 0.0
H1908 H 1.0007 0.92612 0.63137 0.0
H1909 H 0.85669 0.86107 0.61093 0.0
H1910 H 0.93595 0.87787 0.64857 0.0
H1911 H 0.939 0.88146 0.59013 0.0
C1912 C 0.97804 0.90199 0.59358 0.0
C1913 C 0.99614 0.91457 0.6051 0.0
C1914 C 0.91857 0.87443 0.64026 0.0
C1915 C 0.94553 0.89322 0.61617 0.0
C1916 C 0.89471 0.86287 0.64686 0.0
C1917 C 0.87172 0.85795 0.63655 0.0
C1918 C 0.91995 0.88089 0.6231 0.0
C1919 C 0.87379 0.86477 0.61939 0.0
C1920 C 0.95259 0.89146 0.59906 0.0
C1921 C 0.98772 0.91655 0.62196 0.0
N1922 N 0.8976 0.8758 0.61314 0.0
N1923 N 0.96326 0.90584 0.62695 0.0
H1924 H 0.39377 0.64584 0.91092 0.0
H1925 H 0.34939 0.73343 0.83104 0.0
H1926 H 0.38983 0.6074 0.86196 0.0
H1927 H 0.3239 0.7512 0.88199 0.0
H1928 H 0.36849 0.68915 0.84091 0.0
H1929 H 0.37305 0.68703 0.89932 0.0
C1930 C 0.38838 0.64588 0.89772 0.0
C1931 C 0.39329 0.62279 0.88749 0.0
C1932 C 0.35851 0.70281 0.8498 0.0
C1933 C 0.36972 0.67065 0.87396 0.0
C1934 C 0.34769 0.72807 0.84422 0.0
C1935 C 0.33512 0.74627 0.85569 0.0
C1936 C 0.35706 0.69603 0.86696 0.0
C1937 C 0.33345 0.73812 0.87262 0.0
C1938 C 0.3765 0.66956 0.89108 0.0
C1939 C 0.38615 0.62458 0.87036 0.0
N1940 N 0.34444 0.71384 0.8777 0.0
N1941 N 0.37482 0.64822 0.86408 0.0
H1942 H 0.51961 0.10197 0.08013 0.0
H1943 H 0.60835 0.14259 0.16026 0.0
H1944 H 0.50235 0.07438 0.13073 0.0
H1945 H 0.64615 0.14063 0.11106 0.0
H1946 H 0.567 0.12238 0.14854 0.0
H1947 H 0.56412 0.12039 0.09009 0.0
C1948 C 0.52513 0.09967 0.09325 0.0
C1949 C 0.50701 0.08672 0.1046 0.0
C1950 C 0.58436 0.12615 0.14028 0.0
C1951 C 0.55751 0.10787 0.11598 0.0
C1952 C 0.60814 0.13773 0.14698 0.0
C1953 C 0.63108 0.14307 0.13671 0.0
C1954 C 0.58303 0.12011 0.12305 0.0
C1955 C 0.62908 0.13661 0.11949 0.0
C1956 C 0.55052 0.1101 0.09888 0.0
C1957 C 0.51536 0.08427 0.12146 0.0
N1958 N 0.60535 0.12558 0.11315 0.0
N1959 N 0.53977 0.09489 0.1266 0.0
H1960 H 0.17868 0.75208 0.12166 0.0
H1961 H 0.11082 0.60657 0.14288 0.0
H1962 H 0.14939 0.7345 0.17187 0.0
H1963 H 0.1098 0.64526 0.09393 0.0
H1964 H 0.13115 0.64906 0.1546 0.0
H1965 H 0.16064 0.70819 0.11227 0.0
C1966 C 0.16851 0.73901 0.1308 0.0
C1967 C 0.1654 0.74729 0.14763 0.0
C1968 C 0.12646 0.648 0.1413 0.0
C1969 C 0.14456 0.69644 0.13674 0.0
C1970 C 0.11503 0.62379 0.13458 0.0
C1971 C 0.10879 0.62214 0.11732 0.0
C1972 C 0.13207 0.67039 0.13062 0.0
C1973 C 0.11442 0.64524 0.10723 0.0
C1974 C 0.15811 0.71386 0.12536 0.0
C1975 C 0.1521 0.72907 0.15877 0.0
N1976 N 0.12582 0.6682 0.114 0.0
N1977 N 0.14212 0.70441 0.15313 0.0
H1978 H 0.51795 0.90093 0.42149 0.0
H1979 H 0.60671 0.85832 0.34172 0.0
H1980 H 0.50107 0.92771 0.37068 0.0
H1981 H 0.64437 0.86089 0.39095 0.0
H1982 H 0.56542 0.87892 0.35328 0.0
H1983 H 0.56237 0.882 0.41172 0.0
C1984 C 0.52353 0.90295 0.40836 0.0
C1985 C 0.50555 0.91583 0.39691 0.0
C1986 C 0.58274 0.8752 0.36158 0.0
C1987 C 0.55593 0.89409 0.38573 0.0
C1988 C 0.60648 0.86339 0.35497 0.0
C1989 C 0.62937 0.85811 0.3653 0.0
C1990 C 0.58139 0.88154 0.37876 0.0
C1991 C 0.62734 0.86485 0.38248 0.0
C1992 C 0.54887 0.89223 0.40283 0.0
C1993 C 0.51397 0.91791 0.38004 0.0
N1994 N 0.60365 0.87611 0.38873 0.0
N1995 N 0.53832 0.907 0.375 0.0
H1996 H 0.32064 0.25126 0.62093 0.0
H1997 H 0.39157 0.39497 0.64259 0.0
H1998 H 0.35073 0.26713 0.67118 0.0
H1999 H 0.3925 0.35615 0.59368 0.0
H2000 H 0.3704 0.35283 0.65426 0.0
H2001 H 0.33956 0.2949 0.61181 0.0
C2002 C 0.33115 0.26391 0.63014 0.0
C2003 C 0.33425 0.25519 0.64688 0.0
C2004 C 0.37528 0.35379 0.64099 0.0
C2005 C 0.35615 0.30576 0.63631 0.0
C2006 C 0.3872 0.3778 0.63429 0.0
C2007 C 0.3936 0.37933 0.61705 0.0
C2008 C 0.36936 0.33151 0.63028 0.0
C2009 C 0.38775 0.35628 0.60696 0.0
C2010 C 0.34206 0.28892 0.62485 0.0
C2011 C 0.348 0.27291 0.65813 0.0
N2012 N 0.37586 0.33355 0.6137 0.0
N2013 N 0.35852 0.29744 0.65264 0.0
H2014 H 1.00012 0.07248 0.8695 0.0
H2015 H 0.85551 0.1415 0.89176 0.0
H2016 H 0.98306 0.10062 0.92003 0.0
H2017 H 0.89368 0.14271 0.84266 0.0
H2018 H 0.8978 0.12032 0.90319 0.0
H2019 H 0.95626 0.09099 0.8604 0.0
C2020 C 0.98716 0.08248 0.87877 0.0
C2021 C 0.99559 0.08514 0.8956 0.0
C2022 C 0.89667 0.12524 0.88992 0.0
C2023 C 0.9448 0.10655 0.88505 0.0
C2024 C 0.87257 0.13716 0.88337 0.0
C2025 C 0.87084 0.1437 0.86616 0.0
C2026 C 0.91886 0.11947 0.87911 0.0
C2027 C 0.89374 0.13787 0.85594 0.0
C2028 C 0.96203 0.09315 0.8735 0.0
C2029 C 0.97752 0.09824 0.90692 0.0
N2030 N 0.91659 0.12602 0.86254 0.0
N2031 N 0.95289 0.10853 0.90144 0.0
H2032 H 0.89063 0.60582 0.64202 0.0
H2033 H 0.82169 0.75063 0.62049 0.0
H2034 H 0.89267 0.64511 0.59326 0.0
H2035 H 0.85 0.73339 0.67096 0.0
H2036 H 0.84037 0.70694 0.61127 0.0
H2037 H 0.86956 0.64799 0.65372 0.0
C2038 C 0.88652 0.62311 0.63376 0.0
C2039 C 0.89322 0.6217 0.61656 0.0
C2040 C 0.84253 0.71263 0.62438 0.0
C2041 C 0.8691 0.66957 0.62981 0.0
C2042 C 0.83176 0.73766 0.62973 0.0
C2043 C 0.83443 0.74601 0.64657 0.0
C2044 C 0.85605 0.69539 0.63587 0.0
C2045 C 0.84762 0.72791 0.65784 0.0
C2046 C 0.87465 0.64714 0.64047 0.0
C2047 C 0.88769 0.64488 0.60652 0.0
N2048 N 0.85801 0.70337 0.65228 0.0
N2049 N 0.87586 0.66764 0.61326 0.0
H2050 H 0.14561 0.14002 0.39171 0.0
H2051 H 0.0008 0.07082 0.37014 0.0
H2052 H 0.10718 0.14047 0.34269 0.0
H2053 H 0.0182 0.09954 0.4205 0.0
H2054 H 0.04462 0.08912 0.36085 0.0
H2055 H 0.10339 0.11902 0.40335 0.0
C2056 C 0.12851 0.13555 0.38338 0.0
C2057 C 0.13014 0.14184 0.36613 0.0
C2058 C 0.03894 0.09146 0.37395 0.0
C2059 C 0.0822 0.11779 0.37932 0.0
C2060 C 0.01383 0.0809 0.37934 0.0
C2061 C 0.0055 0.08379 0.39617 0.0
C2062 C 0.05627 0.10498 0.3854 0.0
C2063 C 0.02367 0.09699 0.40739 0.0
C2064 C 0.10444 0.12372 0.39005 0.0
C2065 C 0.1072 0.13584 0.35599 0.0
N2066 N 0.04828 0.10717 0.4018 0.0
N2067 N 0.08438 0.12408 0.36271 0.0
H2068 H 0.61174 0.39519 0.14255 0.0
H2069 H 0.68125 0.25066 0.12087 0.0
H2070 H 0.61049 0.35643 0.09363 0.0
H2071 H 0.65242 0.26763 0.17126 0.0
H2072 H 0.66264 0.2944 0.11166 0.0
H2073 H 0.63288 0.35301 0.15417 0.0
C2074 C 0.61605 0.37802 0.13424 0.0
C2075 C 0.60953 0.37956 0.11702 0.0
C2076 C 0.66036 0.28864 0.12475 0.0
C2077 C 0.63373 0.33167 0.13019 0.0
C2078 C 0.67108 0.26357 0.13009 0.0
C2079 C 0.66825 0.25514 0.1469 0.0
C2080 C 0.64672 0.30582 0.13623 0.0
C2081 C 0.65494 0.27318 0.15816 0.0
C2082 C 0.62796 0.35398 0.1409 0.0
C2083 C 0.61532 0.35653 0.1069 0.0
N2084 N 0.64459 0.29775 0.15261 0.0
N2085 N 0.62717 0.33375 0.11361 0.0
H2086 H 0.48367 0.90165 0.92088 0.0
H2087 H 0.3938 0.85887 0.84171 0.0
H2088 H 0.49964 0.92853 0.86998 0.0
H2089 H 0.35671 0.86163 0.89109 0.0
H2090 H 0.43516 0.87962 0.85302 0.0
H2091 H 0.43905 0.8828 0.9114 0.0
C2092 C 0.47784 0.90372 0.9078 0.0
C2093 C 0.49563 0.91657 0.89622 0.0
C2094 C 0.41795 0.87592 0.86142 0.0
C2095 C 0.44503 0.89494 0.88539 0.0
C2096 C 0.39416 0.86402 0.85495 0.0
C2097 C 0.37141 0.85875 0.86538 0.0
C2098 C 0.41949 0.88236 0.87858 0.0
C2099 C 0.37363 0.86559 0.88254 0.0
C2100 C 0.45239 0.89304 0.90244 0.0
C2101 C 0.4869 0.91873 0.87942 0.0
N2102 N 0.39737 0.87694 0.88866 0.0
N2103 N 0.46244 0.90787 0.87455 0.0
H2104 H 0.89514 0.35652 0.91032 0.0
H2105 H 0.85023 0.26862 0.83077 0.0
H2106 H 0.89063 0.39508 0.86141 0.0
H2107 H 0.82384 0.25191 0.88168 0.0
H2108 H 0.86959 0.3129 0.84049 0.0
H2109 H 0.87424 0.31538 0.89878 0.0
C2110 C 0.88959 0.35652 0.89715 0.0
C2111 C 0.89438 0.37963 0.88691 0.0
C2112 C 0.85935 0.29947 0.84941 0.0
C2113 C 0.8706 0.33183 0.87345 0.0
C2114 C 0.84838 0.27422 0.84391 0.0
C2115 C 0.83549 0.25632 0.85542 0.0
C2116 C 0.85774 0.30651 0.86652 0.0
C2117 C 0.83364 0.26475 0.87229 0.0
C2118 C 0.87761 0.33286 0.89054 0.0
C2119 C 0.88705 0.37788 0.86981 0.0
N2120 N 0.8448 0.289 0.87729 0.0
N2121 N 0.87562 0.35427 0.86356 0.0
H2122 H 0.35476 0.14041 0.61035 0.0
H2123 H 0.49987 0.07227 0.63221 0.0
H2124 H 0.39365 0.14232 0.65922 0.0
H2125 H 0.48261 0.10028 0.58169 0.0
H2126 H 0.45598 0.09058 0.64134 0.0
H2127 H 0.39706 0.11948 0.59875 0.0
C2128 C 0.37198 0.13629 0.61866 0.0
C2129 C 0.37043 0.14293 0.63586 0.0
C2130 C 0.4617 0.09276 0.62824 0.0
C2131 C 0.41846 0.11897 0.62271 0.0
C2132 C 0.48686 0.0822 0.62294 0.0
C2133 C 0.49526 0.08489 0.60611 0.0
C2134 C 0.4444 0.1061 0.6167 0.0
C2135 C 0.47709 0.09789 0.5948 0.0
C2136 C 0.39609 0.1245 0.612 0.0
C2137 C 0.39354 0.13739 0.64597 0.0
N2138 N 0.45243 0.10809 0.6003 0.0
N2139 N 0.41638 0.12566 0.63927 0.0
H2140 H 0.651 0.73339 0.33049 0.0
H2141 H 0.60807 0.64513 0.41038 0.0
H2142 H 0.6778 0.75038 0.38128 0.0
H2143 H 0.61059 0.60718 0.36123 0.0
H2144 H 0.62879 0.68629 0.39876 0.0
H2145 H 0.63196 0.68905 0.34032 0.0
C2146 C 0.65301 0.72784 0.34363 0.0
C2147 C 0.66591 0.74585 0.35507 0.0
C2148 C 0.62503 0.66894 0.39048 0.0
C2149 C 0.64406 0.69555 0.3663 0.0
C2150 C 0.61315 0.64527 0.39713 0.0
C2151 C 0.60783 0.62233 0.38685 0.0
C2152 C 0.63141 0.67017 0.3733 0.0
C2153 C 0.61459 0.62425 0.36967 0.0
C2154 C 0.64222 0.70255 0.34919 0.0
C2155 C 0.66798 0.73747 0.37194 0.0
N2156 N 0.62593 0.64787 0.36338 0.0
N2157 N 0.65701 0.71316 0.377 0.0
H2158 H 0.14732 0.86162 0.11071 0.0
H2159 H 0.00365 0.9339 0.13045 0.0
H2160 H 0.10651 0.86105 0.15902 0.0
H2161 H 0.01878 0.90018 0.08096 0.0
H2162 H 0.04751 0.91579 0.13978 0.0
H2163 H 0.10568 0.88296 0.09839 0.0
C2164 C 0.12984 0.86614 0.11874 0.0
C2165 C 0.13064 0.85976 0.136 0.0
C2166 C 0.04132 0.91236 0.12685 0.0
C2167 C 0.08348 0.88422 0.12207 0.0
C2168 C 0.01619 0.92278 0.12144 0.0
C2169 C 0.00716 0.91835 0.10487 0.0
C2170 C 0.05796 0.89739 0.11571 0.0
C2171 C 0.02478 0.90391 0.09388 0.0
C2172 C 0.10614 0.87815 0.11168 0.0
C2173 C 0.10723 0.86579 0.14574 0.0
N2174 N 0.04941 0.89382 0.09951 0.0
N2175 N 0.08485 0.87777 0.13868 0.0
H2176 H 0.67826 0.75042 0.88205 0.0
H2177 H 0.61079 0.89558 0.85952 0.0
H2178 H 0.65151 0.76777 0.83129 0.0
H2179 H 0.60811 0.85707 0.9085 0.0
H2180 H 0.63171 0.85312 0.84814 0.0
H2181 H 0.65962 0.79425 0.89105 0.0
C2182 C 0.66853 0.76344 0.87271 0.0
C2183 C 0.66632 0.7551 0.85584 0.0
C2184 C 0.62652 0.85421 0.86137 0.0
C2185 C 0.64474 0.80589 0.86628 0.0
C2186 C 0.61473 0.8784 0.8679 0.0
C2187 C 0.60788 0.88011 0.88507 0.0
C2188 C 0.63182 0.83189 0.87216 0.0
C2189 C 0.61321 0.85705 0.89526 0.0
C2190 C 0.65778 0.78855 0.87793 0.0
C2191 C 0.65354 0.77325 0.84442 0.0
N2192 N 0.62494 0.83411 0.88868 0.0
N2193 N 0.64317 0.79788 0.84986 0.0
H2194 H 0.48486 0.40025 0.08118 0.0
H2195 H 0.39537 0.35775 0.16062 0.0
H2196 H 0.50122 0.42717 0.13203 0.0
H2197 H 0.35795 0.36072 0.11134 0.0
H2198 H 0.43679 0.37824 0.14918 0.0
H2199 H 0.44031 0.3814 0.09079 0.0
C2200 C 0.47914 0.40232 0.09428 0.0
C2201 C 0.49701 0.41521 0.1058 0.0
C2202 C 0.4195 0.37463 0.14084 0.0
C2203 C 0.44648 0.39357 0.11679 0.0
C2204 C 0.39568 0.36288 0.14738 0.0
C2205 C 0.37281 0.35776 0.13701 0.0
C2206 C 0.42095 0.38106 0.12367 0.0
C2207 C 0.37495 0.36457 0.11985 0.0
C2208 C 0.45373 0.39164 0.09972 0.0
C2209 C 0.4884 0.41735 0.12262 0.0
N2210 N 0.39872 0.37577 0.11366 0.0
N2211 N 0.46399 0.40649 0.12758 0.0
H2212 H 0.88949 0.10506 0.36052 0.0
H2213 H 0.82283 0.25058 0.38287 0.0
H2214 H 0.89395 0.14441 0.4092 0.0
H2215 H 0.84926 0.233 0.33207 0.0
H2216 H 0.84155 0.20678 0.39189 0.0
H2217 H 0.86848 0.14746 0.3491 0.0
C2218 C 0.88592 0.12241 0.36882 0.0
C2219 C 0.89328 0.12096 0.38592 0.0
C2220 C 0.8433 0.21242 0.37875 0.0
C2221 C 0.86924 0.16909 0.37299 0.0
C2222 C 0.83251 0.23752 0.37352 0.0
C2223 C 0.83462 0.24579 0.35664 0.0
C2224 C 0.85626 0.19504 0.3671 0.0
C2225 C 0.84732 0.22758 0.34522 0.0
C2226 C 0.87409 0.14657 0.36227 0.0
C2227 C 0.88844 0.14423 0.39602 0.0
N2228 N 0.85772 0.20297 0.35066 0.0
N2229 N 0.87663 0.16712 0.38944 0.0
H2230 H 0.10733 0.63999 0.66045 0.0
H2231 H 0.01702 0.60155 0.58068 0.0
H2232 H 0.14412 0.64047 0.61096 0.0
H2233 H 0.00187 0.5713 0.63097 0.0
H2234 H 0.06169 0.61999 0.5904 0.0
H2235 H 0.06608 0.61956 0.64879 0.0
C2236 C 0.10692 0.63562 0.64711 0.0
C2237 C 0.12955 0.64171 0.63675 0.0
C2238 C 0.04852 0.60909 0.59917 0.0
C2239 C 0.0816 0.61848 0.62315 0.0
C2240 C 0.02305 0.59865 0.59367 0.0
C2241 C 0.00545 0.58498 0.60502 0.0
C2242 C 0.0561 0.60613 0.61613 0.0
C2243 C 0.01443 0.58176 0.6217 0.0
C2244 C 0.0832 0.6239 0.64044 0.0
C2245 C 0.12729 0.63585 0.61946 0.0
N2246 N 0.03889 0.59242 0.62672 0.0
N2247 N 0.1036 0.62468 0.61315 0.0
H2248 H 0.6058 0.14598 0.59291 0.0
H2249 H 0.65027 0.23492 0.67212 0.0
H2250 H 0.611 0.10767 0.64187 0.0
H2251 H 0.67653 0.25113 0.62113 0.0
H2252 H 0.63103 0.19046 0.6626 0.0
H2253 H 0.62618 0.18743 0.60436 0.0
C2254 C 0.61139 0.1461 0.60608 0.0
C2255 C 0.60697 0.12296 0.61635 0.0
C2256 C 0.64121 0.20383 0.65362 0.0
C2257 C 0.63015 0.17113 0.62971 0.0
C2258 C 0.6521 0.22919 0.65901 0.0
C2259 C 0.66493 0.24699 0.64742 0.0
C2260 C 0.64284 0.1966 0.63654 0.0
C2261 C 0.66677 0.23838 0.63059 0.0
C2262 C 0.62307 0.16994 0.61263 0.0
C2263 C 0.61432 0.12489 0.63344 0.0
N2264 N 0.6557 0.21404 0.62569 0.0
N2265 N 0.62547 0.14867 0.63964 0.0
H2266 H 0.14707 0.36111 0.8927 0.0
H2267 H 0.00183 0.42904 0.87093 0.0
H2268 H 0.10801 0.35888 0.84388 0.0
H2269 H 0.0194 0.40144 0.9215 0.0
H2270 H 0.04562 0.41057 0.86175 0.0
H2271 H 0.10477 0.38203 0.90431 0.0
C2272 C 0.12981 0.36516 0.8844 0.0
C2273 C 0.13131 0.35843 0.86721 0.0
C2274 C 0.03998 0.40851 0.87487 0.0
C2275 C 0.08328 0.38237 0.88038 0.0
C2276 C 0.01489 0.41916 0.8802 0.0
C2277 C 0.00661 0.41665 0.89706 0.0
C2278 C 0.05736 0.39526 0.8864 0.0
C2279 C 0.02483 0.4037 0.90837 0.0
C2280 C 0.10571 0.37693 0.89107 0.0
C2281 C 0.10816 0.36388 0.85713 0.0
N2282 N 0.04943 0.39342 0.90283 0.0
N2283 N 0.08532 0.3756 0.86383 0.0
H2284 H 0.89203 0.89639 0.14142 0.0
H2285 H 0.82279 0.75179 0.11993 0.0
H2286 H 0.89478 0.85675 0.09277 0.0
H2287 H 0.85146 0.7687 0.17036 0.0
H2288 H 0.84171 0.79539 0.11072 0.0
H2289 H 0.87088 0.85426 0.15311 0.0
C2290 C 0.88807 0.87903 0.13318 0.0
C2291 C 0.89498 0.88033 0.11601 0.0
C2292 C 0.8439 0.78965 0.12382 0.0
C2293 C 0.87074 0.83252 0.12926 0.0
C2294 C 0.83299 0.76466 0.12916 0.0
C2295 C 0.83569 0.75625 0.14598 0.0
C2296 C 0.85757 0.80677 0.13531 0.0
C2297 C 0.84905 0.77423 0.15725 0.0
C2298 C 0.87615 0.85503 0.13989 0.0
C2299 C 0.88963 0.85706 0.106 0.0
N2300 N 0.85956 0.79874 0.15171 0.0
N2301 N 0.87773 0.83434 0.11274 0.0
H2302 H 0.48308 0.60044 0.42235 0.0
H2303 H 0.39394 0.64433 0.34303 0.0
H2304 H 0.49994 0.57492 0.37129 0.0
H2305 H 0.35618 0.64008 0.39219 0.0
H2306 H 0.4354 0.62389 0.35442 0.0
H2307 H 0.43852 0.61934 0.41279 0.0
C2308 C 0.47747 0.59869 0.40921 0.0
C2309 C 0.49548 0.58618 0.39762 0.0
C2310 C 0.41803 0.62721 0.36274 0.0
C2311 C 0.44495 0.60787 0.38669 0.0
C2312 C 0.39419 0.63893 0.35623 0.0
C2313 C 0.37121 0.64367 0.36658 0.0
C2314 C 0.4194 0.62041 0.37986 0.0
C2315 C 0.37328 0.63653 0.3837 0.0
C2316 C 0.45205 0.60939 0.4038 0.0
C2317 C 0.48702 0.58444 0.38075 0.0
N2318 N 0.39707 0.62535 0.38986 0.0
N2319 N 0.46259 0.59531 0.37584 0.0
H2320 H 0.39121 0.10503 0.14154 0.0
H2321 H 0.32233 0.25003 0.12088 0.0
H2322 H 0.39542 0.14641 0.09348 0.0
H2323 H 0.35125 0.23302 0.17125 0.0
H2324 H 0.34105 0.20638 0.11163 0.0
H2325 H 0.3698 0.14685 0.15358 0.0
C2326 C 0.38751 0.12268 0.1335 0.0
C2327 C 0.39489 0.12197 0.11639 0.0
C2328 C 0.34332 0.21211 0.12473 0.0
C2329 C 0.37038 0.16938 0.13 0.0
C2330 C 0.33253 0.23712 0.13009 0.0
C2331 C 0.3354 0.24554 0.14691 0.0
C2332 C 0.35706 0.19496 0.13617 0.0
C2333 C 0.34873 0.22749 0.15815 0.0
C2334 C 0.37545 0.1465 0.1404 0.0
C2335 C 0.38988 0.14561 0.10664 0.0
N2336 N 0.35917 0.20297 0.15257 0.0
N2337 N 0.37784 0.16811 0.11355 0.0
H2338 H 0.51836 0.60055 0.92233 0.0
H2339 H 0.60722 0.64253 0.84243 0.0
H2340 H 0.50079 0.57453 0.87147 0.0
H2341 H 0.64476 0.64011 0.89169 0.0
H2342 H 0.56582 0.6222 0.85399 0.0
H2343 H 0.5629 0.61911 0.91251 0.0
C2344 C 0.52382 0.59862 0.90918 0.0
C2345 C 0.50561 0.58606 0.89772 0.0
C2346 C 0.58313 0.62589 0.86231 0.0
C2347 C 0.55615 0.60736 0.88649 0.0
C2348 C 0.60694 0.63754 0.85569 0.0
C2349 C 0.62983 0.6428 0.86602 0.0
C2350 C 0.58171 0.61967 0.8795 0.0
C2351 C 0.62774 0.63616 0.88321 0.0
C2352 C 0.54923 0.60913 0.90362 0.0
C2353 C 0.51387 0.58408 0.88083 0.0
N2354 N 0.60398 0.62505 0.88947 0.0
N2355 N 0.53831 0.59476 0.87576 0.0
H2356 H 0.15039 0.76614 0.67194 0.0
H2357 H 0.10846 0.85517 0.59225 0.0
H2358 H 0.1783 0.74998 0.62126 0.0
H2359 H 0.11105 0.89302 0.64142 0.0
H2360 H 0.12896 0.81389 0.60386 0.0
H2361 H 0.13151 0.81062 0.66221 0.0
C2362 C 0.15268 0.7719 0.65885 0.0
C2363 C 0.16584 0.75409 0.64741 0.0
C2364 C 0.12527 0.83125 0.61214 0.0
C2365 C 0.14416 0.80452 0.63629 0.0
C2366 C 0.11351 0.85498 0.6055 0.0
C2367 C 0.10829 0.87793 0.61579 0.0
C2368 C 0.1316 0.82996 0.62932 0.0
C2369 C 0.11499 0.87594 0.63297 0.0
C2370 C 0.14198 0.79727 0.65335 0.0
C2371 C 0.16825 0.76273 0.63061 0.0
N2372 N 0.1262 0.85225 0.63926 0.0
N2373 N 0.15737 0.78709 0.62559 0.0
H2374 H 1.00071 0.42805 0.37036 0.0
H2375 H 0.85515 0.36106 0.39265 0.0
H2376 H 0.98287 0.40127 0.42106 0.0
H2377 H 0.89367 0.35864 0.34368 0.0
H2378 H 0.89758 0.38196 0.40407 0.0
H2379 H 0.95676 0.40981 0.36126 0.0
C2380 C 0.98756 0.4184 0.37967 0.0
C2381 C 0.9958 0.41605 0.39655 0.0
C2382 C 0.8965 0.37684 0.39084 0.0
C2383 C 0.94487 0.39494 0.38599 0.0
C2384 C 0.87231 0.36508 0.38428 0.0
C2385 C 0.87064 0.35827 0.36711 0.0
C2386 C 0.91883 0.38219 0.38006 0.0
C2387 C 0.89367 0.36369 0.35692 0.0
C2388 C 0.96237 0.40788 0.37439 0.0
C2389 C 0.97748 0.4034 0.40791 0.0
N2390 N 0.91661 0.3754 0.36352 0.0
N2391 N 0.95279 0.39325 0.40242 0.0
H2392 H 0.32133 0.75103 0.38287 0.0
H2393 H 0.38995 0.89579 0.36066 0.0
H2394 H 0.3487 0.7683 0.33222 0.0
H2395 H 0.39273 0.85685 0.4095 0.0
H2396 H 0.36854 0.85362 0.34922 0.0
H2397 H 0.3401 0.79479 0.39196 0.0
C2398 C 0.33121 0.76402 0.37357 0.0
C2399 C 0.33359 0.75567 0.35672 0.0
C2400 C 0.37385 0.85455 0.36243 0.0
C2401 C 0.3553 0.80635 0.36725 0.0
C2402 C 0.38592 0.87858 0.369 0.0
C2403 C 0.39295 0.88008 0.38614 0.0
C2404 C 0.36843 0.8322 0.37318 0.0
C2405 C 0.3875 0.85699 0.39629 0.0
C2406 C 0.34203 0.78909 0.37884 0.0
C2407 C 0.34654 0.77379 0.34535 0.0
N2408 N 0.37549 0.83422 0.38968 0.0
N2409 N 0.35698 0.79836 0.35083 0.0
H2410 H 0.00097 0.57242 0.13223 0.0
H2411 H 0.85644 0.64127 0.10996 0.0
H2412 H 0.98461 0.60119 0.08175 0.0
H2413 H 0.89498 0.64331 0.15894 0.0
H2414 H 0.89879 0.62024 0.0985 0.0
H2415 H 0.95708 0.59094 0.14122 0.0
C2416 C 0.98816 0.58256 0.12294 0.0
C2417 C 0.99681 0.58541 0.10617 0.0
C2418 C 0.89773 0.62531 0.11175 0.0
C2419 C 0.94595 0.60683 0.11659 0.0
C2420 C 0.87359 0.63715 0.11832 0.0
C2421 C 0.87193 0.64386 0.13551 0.0
C2422 C 0.92001 0.61979 0.12252 0.0
C2423 C 0.89496 0.63832 0.14568 0.0
C2424 C 0.96301 0.59324 0.12816 0.0
C2425 C 0.9789 0.59868 0.09482 0.0
N2426 N 0.91783 0.62653 0.13906 0.0
N2427 N 0.95423 0.60897 0.10025 0.0
H2428 H 0.18024 0.25042 0.88231 0.0
H2429 H 0.1112 0.10604 0.85982 0.0
H2430 H 0.15209 0.23393 0.83172 0.0
H2431 H 0.10847 0.14469 0.90875 0.0
H2432 H 0.13255 0.1483 0.84846 0.0
H2433 H 0.1614 0.20662 0.89128 0.0
C2434 C 0.17017 0.2376 0.873 0.0
C2435 C 0.16759 0.24618 0.8562 0.0
C2436 C 0.12726 0.14728 0.86167 0.0
C2437 C 0.14582 0.19545 0.86659 0.0
C2438 C 0.11523 0.1232 0.86819 0.0
C2439 C 0.10824 0.1216 0.88534 0.0
C2440 C 0.13269 0.16957 0.87247 0.0
C2441 C 0.11368 0.14463 0.89553 0.0
C2442 C 0.15932 0.2125 0.8782 0.0
C2443 C 0.1544 0.22827 0.84481 0.0
N2444 N 0.12567 0.16745 0.88897 0.0
N2445 N 0.14394 0.20367 0.85022 0.0
H2446 H 0.51653 0.39885 0.58096 0.0
H2447 H 0.60839 0.36298 0.66045 0.0
H2448 H 0.50305 0.43164 0.63084 0.0
H2449 H 0.6439 0.35965 0.61066 0.0
H2450 H 0.56725 0.38368 0.64884 0.0
H2451 H 0.56133 0.38054 0.59054 0.0
C2452 C 0.52296 0.40236 0.59383 0.0
C2453 C 0.50577 0.41666 0.60512 0.0
C2454 C 0.58407 0.37867 0.64041 0.0
C2455 C 0.55659 0.39568 0.61606 0.0
C2456 C 0.60773 0.36679 0.64705 0.0
C2457 C 0.62997 0.3598 0.63658 0.0
C2458 C 0.58211 0.38332 0.62305 0.0
C2459 C 0.62739 0.36497 0.61923 0.0
C2460 C 0.54851 0.39198 0.59924 0.0
C2461 C 0.51528 0.42065 0.62163 0.0
N2462 N 0.60374 0.37629 0.61295 0.0
N2463 N 0.5398 0.41005 0.62658 0.0
H2464 H 0.24833 0.24202 0.20082 0.0
H2465 H 0.25238 0.2581 0.30135 0.0
H2466 H 0.2938 0.30575 0.22675 0.0
H2467 H 0.20648 0.19464 0.27547 0.0
H2468 H 0.26812 0.27565 0.27411 0.0
H2469 H 0.2324 0.22454 0.22805 0.0
C2470 C 0.25485 0.25243 0.2122 0.0
C2471 C 0.2725 0.27535 0.21145 0.0
C2472 C 0.25464 0.25785 0.27441 0.0
C2473 C 0.25451 0.25534 0.24269 0.0
C2474 C 0.24571 0.24777 0.28997 0.0
C2475 C 0.22802 0.22489 0.29074 0.0
C2476 C 0.24582 0.24497 0.25948 0.0
C2477 C 0.22004 0.21238 0.27554 0.0
C2478 C 0.24582 0.24239 0.22776 0.0
C2479 C 0.28029 0.28796 0.22666 0.0
N2480 N 0.22894 0.2226 0.26058 0.0
N2481 N 0.27131 0.27777 0.2416 0.0
H2482 H 0.05882 0.95706 0.52567 0.0
H2483 H 0.94345 0.04297 0.47627 0.0
H2484 H 0.99206 1.00001 0.55032 0.0
H2485 H 0.00977 0.99938 0.4516 0.0
H2486 H 0.96082 0.02729 0.50339 0.0
H2487 H 0.04146 0.97278 0.49857 0.0
C2488 C 0.04054 0.96991 0.52542 0.0
C2489 C 0.02684 0.97715 0.54037 0.0
C2490 C 0.97157 0.02108 0.49206 0.0
C2491 C 0.00674 0.99517 0.50917 0.0
C2492 C 0.96164 0.02999 0.47652 0.0
C2493 C 0.97521 0.02256 0.46156 0.0
C2494 C 0.99533 0.00457 0.49277 0.0
C2495 C 0.99862 0.00563 0.46277 0.0
C2496 C 0.03061 0.97884 0.50988 0.0
C2497 C 0.00331 0.99392 0.53917 0.0
N2498 N 0.00797 0.99728 0.47809 0.0
N2499 N 0.99398 0.00229 0.52384 0.0
H2500 H 0.25185 0.75835 0.70121 0.0
H2501 H 0.24852 0.74111 0.80166 0.0
H2502 H 0.20777 0.6934 0.72689 0.0
H2503 H 0.29222 0.80628 0.77594 0.0
H2504 H 0.233 0.72349 0.77439 0.0
H2505 H 0.26728 0.77598 0.72849 0.0
C2506 C 0.24554 0.7477 0.71255 0.0
C2507 C 0.22843 0.72439 0.71171 0.0
C2508 C 0.24595 0.74168 0.77473 0.0
C2509 C 0.24584 0.74457 0.74302 0.0
C2510 C 0.25472 0.75181 0.79032 0.0
C2511 C 0.27177 0.77517 0.79114 0.0
C2512 C 0.25427 0.75501 0.75985 0.0
C2513 C 0.27919 0.78815 0.77598 0.0
C2514 C 0.25427 0.75783 0.72814 0.0
C2515 C 0.22087 0.71148 0.72687 0.0
N2516 N 0.27047 0.77786 0.761 0.0
N2517 N 0.22956 0.72176 0.74186 0.0
H2518 H 0.44513 0.04864 0.02422 0.0
H2519 H 0.55784 0.95833 0.97544 0.0
H2520 H 0.50853 0.00129 0.04916 0.0
H2521 H 0.49308 0.00359 0.95034 0.0
H2522 H 0.54052 0.97461 0.00242 0.0
H2523 H 0.46243 0.0326 0.99714 0.0
C2524 C 0.46265 0.03477 0.02403 0.0
C2525 C 0.47542 0.02635 0.03906 0.0
C2526 C 0.53009 0.98105 0.99103 0.0
C2527 C 0.49545 0.00798 0.00792 0.0
C2528 C 0.54 0.9718 0.97556 0.0
C2529 C 0.52685 0.97953 0.96053 0.0
C2530 C 0.5068 0.99822 0.99159 0.0
C2531 C 0.50389 0.99709 0.96158 0.0
C2532 C 0.47254 0.02566 0.00852 0.0
C2533 C 0.49801 0.00833 0.03795 0.0
N2534 N 0.49456 0.00579 0.97684 0.0
N2535 N 0.50734 0.99981 0.02266 0.0
H2536 H 0.29158 0.69434 0.277 0.0
H2537 H 0.20213 0.80798 0.22847 0.0
H2538 H 0.24689 0.75932 0.30227 0.0
H2539 H 0.24949 0.74471 0.2034 0.0
H2540 H 0.21784 0.79029 0.25553 0.0
H2541 H 0.27538 0.71191 0.25008 0.0
C2542 C 0.27825 0.71228 0.27693 0.0
C2543 C 0.27068 0.72543 0.292 0.0
C2544 C 0.22485 0.78029 0.24413 0.0
C2545 C 0.25207 0.74577 0.26099 0.0
C2546 C 0.21592 0.7904 0.22862 0.0
C2547 C 0.22446 0.77779 0.21357 0.0
C2548 C 0.24245 0.75731 0.24468 0.0
C2549 C 0.24237 0.75511 0.21464 0.0
C2550 C 0.26904 0.72233 0.26149 0.0
C2551 C 0.25327 0.74852 0.29101 0.0
N2552 N 0.25071 0.74557 0.22992 0.0
N2553 N 0.24461 0.75799 0.27577 0.0
H2554 H 0.44304 0.95782 0.47658 0.0
H2555 H 0.55857 0.0428 0.52644 0.0
H2556 H 0.51027 1.00043 0.45218 0.0
H2557 H 0.49132 1.00022 0.55082 0.0
H2558 H 0.54147 0.0271 0.49927 0.0
H2559 H 0.46026 0.97336 0.50375 0.0
C2560 C 0.4614 0.97055 0.4769 0.0
C2561 C 0.47526 0.97776 0.462 0.0
C2562 C 0.53046 0.02111 0.51054 0.0
C2563 C 0.49521 0.99557 0.49328 0.0
C2564 C 0.54024 0.03003 0.52612 0.0
C2565 C 0.52632 0.02289 0.54101 0.0
C2566 C 0.50651 0.0049 0.50973 0.0
C2567 C 0.50274 0.00622 0.53971 0.0
C2568 C 0.47125 0.97938 0.49248 0.0
C2569 C 0.49889 0.99437 0.4633 0.0
N2570 N 0.49354 0.99787 0.52435 0.0
N2571 N 0.50814 0.00265 0.47866 0.0
H2572 H 0.20862 0.30864 0.77645 0.0
H2573 H 0.29315 0.19268 0.72664 0.0
H2574 H 0.25166 0.24175 0.8009 0.0
H2575 H 0.25011 0.25957 0.70219 0.0
H2576 H 0.27787 0.21013 0.75382 0.0
H2577 H 0.2239 0.29119 0.74927 0.0
C2578 C 0.2214 0.29031 0.77614 0.0
C2579 C 0.22879 0.27661 0.79106 0.0
C2580 C 0.27169 0.22099 0.74253 0.0
C2581 C 0.24631 0.25639 0.75977 0.0
C2582 C 0.28037 0.21101 0.72695 0.0
C2583 C 0.27298 0.22472 0.71203 0.0
C2584 C 0.25545 0.24492 0.74332 0.0
C2585 C 0.25632 0.24831 0.71332 0.0
C2586 C 0.23008 0.28033 0.76055 0.0
C2587 C 0.24546 0.25301 0.78977 0.0
N2588 N 0.24819 0.2577 0.72868 0.0
N2589 N 0.25358 0.24362 0.77441 0.0
H2590 H 0.99233 0.99823 0.94996 0.0
H2591 H 0.00836 0.00408 0.05045 0.0
H2592 H 0.05538 0.04499 0.97564 0.0
H2593 H 0.94604 0.95622 0.02485 0.0
H2594 H 0.0255 0.01983 0.02312 0.0
H2595 H 0.97506 0.98246 0.97727 0.0
C2596 C 0.00263 0.00508 0.9613 0.0
C2597 C 0.02531 0.02302 0.96045 0.0
C2598 C 0.00803 0.00592 0.0235 0.0
C2599 C 0.00556 0.00521 0.99179 0.0
C2600 C 0.99819 0.99699 0.03912 0.0
C2601 C 0.97576 0.97874 0.04 0.0
C2602 C 0.99537 0.99655 0.00863 0.0
C2603 C 0.96344 0.97022 0.02484 0.0
C2604 C 0.99272 0.99614 0.97691 0.0
C2605 C 0.03779 0.03123 0.97562 0.0
N2606 N 0.97342 0.97914 0.00983 0.0
N2607 N 0.02773 0.02233 0.99061 0.0
H2608 H 0.74862 0.74168 0.7011 0.0
H2609 H 0.75239 0.75974 0.80151 0.0
H2610 H 0.7928 0.80684 0.72651 0.0
H2611 H 0.70852 0.69438 0.77609 0.0
H2612 H 0.76773 0.77716 0.77415 0.0
H2613 H 0.73326 0.7243 0.72846 0.0
C2614 C 0.75497 0.75243 0.71239 0.0
C2615 C 0.77209 0.77572 0.71145 0.0
C2616 C 0.75479 0.75896 0.77457 0.0
C2617 C 0.75475 0.75583 0.74286 0.0
C2618 C 0.74611 0.74896 0.79021 0.0
C2619 C 0.72908 0.72559 0.79115 0.0
C2620 C 0.74638 0.74553 0.75974 0.0
C2621 C 0.72156 0.71251 0.77604 0.0
C2622 C 0.74627 0.74244 0.72803 0.0
C2623 C 0.77969 0.78876 0.72657 0.0
N2624 N 0.73019 0.72268 0.76101 0.0
N2625 N 0.77104 0.77862 0.7416 0.0
H2626 H 0.75355 0.2595 0.2016 0.0
H2627 H 0.74899 0.24131 0.302 0.0
H2628 H 0.70923 0.19428 0.22688 0.0
H2629 H 0.79336 0.30652 0.27674 0.0
H2630 H 0.73384 0.22397 0.27458 0.0
H2631 H 0.76875 0.27683 0.22902 0.0
C2632 C 0.74714 0.24872 0.21288 0.0
C2633 C 0.73002 0.22543 0.21189 0.0
C2634 C 0.74685 0.24211 0.27505 0.0
C2635 C 0.74718 0.24526 0.24335 0.0
C2636 C 0.75543 0.25208 0.29072 0.0
C2637 C 0.77254 0.27538 0.29172 0.0
C2638 C 0.75544 0.25552 0.26025 0.0
C2639 C 0.78025 0.28843 0.27664 0.0
C2640 C 0.75574 0.25868 0.22855 0.0
C2641 C 0.72234 0.21236 0.22698 0.0
N2642 N 0.77171 0.27831 0.26157 0.0
N2643 N 0.7309 0.22248 0.24203 0.0
H2644 H 0.74856 0.26017 0.80144 0.0
H2645 H 0.75162 0.24226 0.70102 0.0
H2646 H 0.79326 0.19554 0.77585 0.0
H2647 H 0.70783 0.30749 0.72664 0.0
H2648 H 0.76723 0.22483 0.72833 0.0
H2649 H 0.73281 0.27744 0.77413 0.0
C2650 C 0.75495 0.24952 0.79012 0.0
C2651 C 0.77233 0.22642 0.79098 0.0
C2652 C 0.75424 0.243 0.72795 0.0
C2653 C 0.75454 0.24616 0.75965 0.0
C2654 C 0.7454 0.253 0.71235 0.0
C2655 C 0.72833 0.27634 0.71149 0.0
C2656 C 0.74596 0.25641 0.74281 0.0
C2657 C 0.7209 0.28938 0.72663 0.0
C2658 C 0.74603 0.25944 0.77451 0.0
C2659 C 0.77996 0.21349 0.77584 0.0
N2660 N 0.72969 0.27922 0.74162 0.0
N2661 N 0.77109 0.22356 0.76084 0.0
H2662 H 0.75301 0.74206 0.30091 0.0
H2663 H 0.74922 0.75978 0.20048 0.0
H2664 H 0.70798 0.80649 0.27536 0.0
H2665 H 0.79488 0.69577 0.22601 0.0
H2666 H 0.73345 0.77693 0.22781 0.0
H2667 H 0.76886 0.72491 0.27359 0.0
C2668 C 0.74657 0.75269 0.2896 0.0
C2669 C 0.72907 0.77572 0.29048 0.0
C2670 C 0.74689 0.75909 0.22742 0.0
C2671 C 0.74697 0.75609 0.25913 0.0
C2672 C 0.75582 0.74924 0.21179 0.0
C2673 C 0.77346 0.72633 0.2109 0.0
C2674 C 0.75564 0.74595 0.24227 0.0
C2675 C 0.78136 0.71355 0.22603 0.0
C2676 C 0.75555 0.74284 0.27398 0.0
C2677 C 0.72137 0.78862 0.27535 0.0
N2678 N 0.77246 0.72355 0.24105 0.0
N2679 N 0.7303 0.77861 0.26034 0.0
H2680 H 0.55907 0.45686 0.02629 0.0
H2681 H 0.44386 0.54387 0.97746 0.0
H2682 H 0.49325 0.50077 0.05125 0.0
H2683 H 0.5099 0.50034 0.95247 0.0
H2684 H 0.46138 0.5279 0.00447 0.0
H2685 H 0.54152 0.47274 0.99926 0.0
C2686 C 0.54096 0.46995 0.02613 0.0
C2687 C 0.52758 0.47743 0.04114 0.0
C2688 C 0.47204 0.52177 0.9931 0.0
C2689 C 0.50726 0.49563 0.01003 0.0
C2690 C 0.46202 0.53084 0.97761 0.0
C2691 C 0.47547 0.52352 0.9626 0.0
C2692 C 0.49576 0.50519 0.99369 0.0
C2693 C 0.49885 0.50652 0.96368 0.0
C2694 C 0.53092 0.47897 0.01063 0.0
C2695 C 0.50425 0.49449 0.04004 0.0
N2696 N 0.50828 0.498 0.97895 0.0
N2697 N 0.4948 0.50294 0.02476 0.0
H2698 H 0.05773 0.458 0.47638 0.0
H2699 H 0.94256 0.54455 0.52553 0.0
H2700 H 0.99136 0.50124 0.45154 0.0
H2701 H 0.00835 0.50032 0.5503 0.0
H2702 H 0.96002 0.52885 0.49843 0.0
H2703 H 0.04027 0.47382 0.50343 0.0
C2704 C 0.03951 0.47093 0.47658 0.0
C2705 C 0.02595 0.47822 0.46159 0.0
C2706 C 0.97063 0.52251 0.50978 0.0
C2707 C 0.00573 0.49637 0.49273 0.0
C2708 C 0.96065 0.53143 0.52531 0.0
C2709 C 0.97405 0.52381 0.54029 0.0
C2710 C 0.99426 0.50582 0.50911 0.0
C2711 C 0.99734 0.50671 0.53912 0.0
C2712 C 0.02953 0.47992 0.49209 0.0
C2713 C 0.0025 0.49511 0.46273 0.0
N2714 N 0.00674 0.49836 0.52381 0.0
N2715 N 0.9931 0.50355 0.47803 0.0
H2716 H 0.0596 0.54442 0.02649 0.0
H2717 H 0.94435 0.45855 0.97694 0.0
H2718 H 0.99318 0.50084 0.05106 0.0
H2719 H 0.01107 0.50164 0.95235 0.0
H2720 H 0.96166 0.47424 0.00406 0.0
H2721 H 0.04229 0.52879 0.99935 0.0
C2722 C 0.04141 0.53146 0.02622 0.0
C2723 C 0.02779 0.524 0.04116 0.0
C2724 C 0.97251 0.48033 0.99276 0.0
C2725 C 0.00774 0.50609 0.00991 0.0
C2726 C 0.96261 0.47142 0.9772 0.0
C2727 C 0.97631 0.47871 0.96226 0.0
C2728 C 0.99636 0.4967 0.99349 0.0
C2729 C 0.99982 0.49551 0.96349 0.0
C2730 C 0.03151 0.52258 0.01065 0.0
C2731 C 0.00437 0.5071 0.03991 0.0
N2732 N 0.00913 0.50387 0.97883 0.0
N2733 N 0.99505 0.49878 0.02457 0.0
H2734 H 0.55765 0.54344 0.47693 0.0
H2735 H 0.44234 0.45687 0.52596 0.0
H2736 H 0.49127 0.50029 0.45204 0.0
H2737 H 0.50801 0.50117 0.55081 0.0
H2738 H 0.45984 0.47264 0.49888 0.0
H2739 H 0.54009 0.52765 0.50397 0.0
C2740 C 0.53941 0.53053 0.47711 0.0
C2741 C 0.52588 0.52326 0.46212 0.0
C2742 C 0.47041 0.47898 0.51024 0.0
C2743 C 0.50554 0.50515 0.49324 0.0
C2744 C 0.4604 0.47003 0.52576 0.0
C2745 C 0.47376 0.47764 0.54075 0.0
C2746 C 0.49403 0.4957 0.5096 0.0
C2747 C 0.49703 0.49478 0.53961 0.0
C2748 C 0.52936 0.52156 0.49262 0.0
C2749 C 0.50239 0.50641 0.46324 0.0
N2750 N 0.50646 0.50315 0.52431 0.0
N2751 N 0.49294 0.498 0.47853 0.0
H2752 H 0.25039 0.07891 0.33939 0.0
H2753 H 0.32946 0.99979 0.4126 0.0
H2754 H 0.25458 0.1121 0.38967 0.0
H2755 H 0.36312 0.00477 0.36247 0.0
H2756 H 0.29315 0.03262 0.4043 0.0
H2757 H 0.28345 0.04279 0.34767 0.0
C2758 C 0.25804 0.0784 0.35219 0.0
C2759 C 0.24994 0.09854 0.36385 0.0
C2760 C 0.30844 0.02631 0.39515 0.0
C2761 C 0.28703 0.05723 0.37341 0.0
C2762 C 0.32902 0.00757 0.39983 0.0
C2763 C 0.34935 0.99975 0.38822 0.0
C2764 C 0.30781 0.03658 0.37863 0.0
C2765 C 0.34794 0.01049 0.37184 0.0
C2766 C 0.27691 0.05794 0.35687 0.0
C2767 C 0.26052 0.09706 0.38027 0.0
N2768 N 0.32742 0.02823 0.36749 0.0
N2769 N 0.2784 0.07665 0.38461 0.0
H2770 H 0.13834 0.00211 0.64048 0.0
H2771 H 0.2463 0.11312 0.61207 0.0
H2772 H 0.17232 0.99966 0.59037 0.0
H2773 H 0.25058 0.07822 0.6619 0.0
H2774 H 0.21445 0.07624 0.6038 0.0
H2775 H 0.17468 0.03459 0.64874 0.0
C2776 C 0.15351 0.00838 0.63123 0.0
C2777 C 0.15237 0.99825 0.61471 0.0
C2778 C 0.22254 0.07658 0.6165 0.0
C2779 C 0.19353 0.03567 0.62402 0.0
C2780 C 0.24055 0.09765 0.62126 0.0
C2781 C 0.25103 0.09868 0.63771 0.0
C2782 C 0.21432 0.05688 0.62839 0.0
C2783 C 0.24303 0.07807 0.64909 0.0
C2784 C 0.17427 0.02675 0.63599 0.0
C2785 C 0.17258 0.00693 0.60324 0.0
N2786 N 0.22478 0.05819 0.64429 0.0
N2787 N 0.19213 0.02552 0.60804 0.0
H2788 H 0.25129 0.92208 0.83937 0.0
H2789 H 0.1718 0.00195 0.91218 0.0
H2790 H 0.2468 0.88949 0.88977 0.0
H2791 H 0.1389 0.99701 0.86186 0.0
H2792 H 0.20815 0.96902 0.9041 0.0
H2793 H 0.21836 0.95843 0.84746 0.0
C2794 C 0.2436 0.92277 0.85215 0.0
C2795 C 0.25158 0.90273 0.8639 0.0
C2796 C 0.19302 0.97537 0.89485 0.0
C2797 C 0.21463 0.9443 0.87325 0.0
C2798 C 0.17242 0.99416 0.89941 0.0
C2799 C 0.15229 0.00202 0.88769 0.0
C2800 C 0.19386 0.96506 0.87835 0.0
C2801 C 0.15392 0.99127 0.87131 0.0
C2802 C 0.22481 0.94337 0.85672 0.0
C2803 C 0.24095 0.90445 0.8803 0.0
N2804 N 0.17445 0.97346 0.86709 0.0
N2805 N 0.22314 0.92497 0.88454 0.0
H2806 H 0.22268 0.93808 0.14214 0.0
H2807 H 0.38022 0.96828 0.11854 0.0
H2808 H 0.28385 0.87459 0.1344 0.0
H2809 H 0.31617 0.02924 0.11204 0.0
H2810 H 0.34541 0.9347 0.12686 0.0
H2811 H 0.25696 0.97287 0.13385 0.0
C2812 C 0.24332 0.93146 0.13881 0.0
C2813 C 0.25037 0.90335 0.13895 0.0
C2814 C 0.33889 0.95538 0.12356 0.0
C2815 C 0.28957 0.94297 0.12948 0.0
C2816 C 0.35879 0.97462 0.11882 0.0
C2817 C 0.35113 0.00166 0.11456 0.0
C2818 C 0.31102 0.96317 0.12426 0.0
C2819 C 0.32299 0.00859 0.11513 0.0
C2820 C 0.2628 0.95131 0.13399 0.0
C2821 C 0.2774 0.89598 0.13443 0.0
N2822 N 0.30393 0.9895 0.12 0.0
N2823 N 0.29596 0.91562 0.12993 0.0
H2824 H 0.74758 0.88901 0.61207 0.0
H2825 H 0.63853 0.99874 0.64092 0.0
H2826 H 0.75097 0.92298 0.66217 0.0
H2827 H 0.67244 0.00185 0.5908 0.0
H2828 H 0.67515 0.96652 0.64907 0.0
H2829 H 0.71555 0.9258 0.60392 0.0
C2830 C 0.74161 0.90427 0.62134 0.0
C2831 C 0.75188 0.90298 0.63783 0.0
C2832 C 0.67466 0.97444 0.63634 0.0
C2833 C 0.71496 0.94469 0.62864 0.0
C2834 C 0.65375 0.99267 0.63164 0.0
C2835 C 0.65249 0.00291 0.61515 0.0
C2836 C 0.694 0.96577 0.62434 0.0
C2837 C 0.67278 0.99449 0.60365 0.0
C2838 C 0.72349 0.92528 0.61665 0.0
C2839 C 0.74359 0.92333 0.64932 0.0
N2840 N 0.6925 0.97604 0.60839 0.0
N2841 N 0.72524 0.94315 0.64458 0.0
H2842 H 0.8288 0.00095 0.41278 0.0
H2843 H 0.74951 0.92214 0.33943 0.0
H2844 H 0.86182 0.9967 0.36247 0.0
H2845 H 0.75385 0.8888 0.38966 0.0
H2846 H 0.78236 0.95841 0.34777 0.0
H2847 H 0.79243 0.96817 0.40448 0.0
C2848 C 0.8282 0.99335 0.39997 0.0
C2849 C 0.84837 0.00134 0.38831 0.0
C2850 C 0.7759 0.9432 0.35694 0.0
C2851 C 0.80678 0.96457 0.37872 0.0
C2852 C 0.75715 0.92265 0.35223 0.0
C2853 C 0.74915 0.90241 0.36385 0.0
C2854 C 0.78602 0.94389 0.37349 0.0
C2855 C 0.75971 0.9039 0.38028 0.0
C2856 C 0.80759 0.97464 0.39528 0.0
C2857 C 0.84677 0.99083 0.37187 0.0
N2858 N 0.77748 0.92438 0.38465 0.0
N2859 N 0.82623 0.97311 0.36753 0.0
H2860 H 0.751 0.07824 0.16285 0.0
H2861 H 0.82935 0.99945 0.08906 0.0
H2862 H 0.75481 0.11155 0.1126 0.0
H2863 H 0.86298 0.00363 0.13922 0.0
H2864 H 0.79295 0.03205 0.09758 0.0
H2865 H 0.78357 0.04181 0.15434 0.0
C2866 C 0.75845 0.07768 0.15001 0.0
C2867 C 0.75041 0.09797 0.13843 0.0
C2868 C 0.80824 0.02559 0.1067 0.0
C2869 C 0.78694 0.05631 0.1286 0.0
C2870 C 0.82887 0.00698 0.10189 0.0
C2871 C 0.84923 0.99904 0.11344 0.0
C2872 C 0.80761 0.03561 0.12327 0.0
C2873 C 0.84777 0.00946 0.1299 0.0
C2874 C 0.77704 0.05704 0.1452 0.0
C2875 C 0.76072 0.09642 0.12195 0.0
N2876 N 0.82723 0.02709 0.13436 0.0
N2877 N 0.77834 0.07586 0.11749 0.0
H2878 H 0.6379 0.00459 0.8608 0.0
H2879 H 0.74635 0.11446 0.89017 0.0
H2880 H 0.67177 0.00088 0.91092 0.0
H2881 H 0.75077 0.08036 0.84014 0.0
H2882 H 0.71419 0.07765 0.89812 0.0
H2883 H 0.67441 0.03709 0.85284 0.0
C2884 C 0.65308 0.01059 0.87011 0.0
C2885 C 0.65187 1.00009 0.88655 0.0
C2886 C 0.72238 0.07815 0.88545 0.0
C2887 C 0.6932 0.03754 0.87759 0.0
C2888 C 0.74056 0.09918 0.88087 0.0
C2889 C 0.75117 0.10041 0.86446 0.0
C2890 C 0.71413 0.0587 0.87341 0.0
C2891 C 0.74312 0.08004 0.85293 0.0
C2892 C 0.67393 0.02898 0.86553 0.0
C2893 C 0.67209 0.00843 0.8981 0.0
N2894 N 0.72471 0.06021 0.85755 0.0
N2895 N 0.69173 0.02704 0.89348 0.0
H2896 H 0.75403 0.61296 0.8908 0.0
H2897 H 0.86405 0.5038 0.86248 0.0
H2898 H 0.7513 0.57872 0.84076 0.0
H2899 H 0.82969 0.50063 0.91249 0.0
H2900 H 0.82736 0.53583 0.85417 0.0
H2901 H 0.78628 0.57647 0.89912 0.0
C2902 C 0.7602 0.59771 0.88158 0.0
C2903 C 0.75005 0.59883 0.86505 0.0
C2904 C 0.82777 0.52795 0.86692 0.0
C2905 C 0.78721 0.55746 0.87443 0.0
C2906 C 0.84873 0.50983 0.8717 0.0
C2907 C 0.84987 0.49962 0.88821 0.0
C2908 C 0.80828 0.53654 0.87884 0.0
C2909 C 0.82945 0.50797 0.89963 0.0
C2910 C 0.77844 0.57686 0.88637 0.0
C2911 C 0.75859 0.57849 0.85363 0.0
N2912 N 0.80968 0.52632 0.8948 0.0
N2913 N 0.77705 0.55883 0.85846 0.0
H2914 H 0.7478 0.61359 0.11173 0.0
H2915 H 0.63872 0.50416 0.14085 0.0
H2916 H 0.75147 0.57986 0.16188 0.0
H2917 H 0.67311 0.50014 0.09088 0.0
H2918 H 0.67522 0.5366 0.14891 0.0
H2919 H 0.71569 0.57678 0.10371 0.0
C2920 C 0.74186 0.59838 0.12104 0.0
C2921 C 0.75224 0.59973 0.1375 0.0
C2922 C 0.67485 0.52844 0.13623 0.0
C2923 C 0.71523 0.55802 0.12847 0.0
C2924 C 0.654 0.51009 0.13159 0.0
C2925 C 0.65294 0.49951 0.11517 0.0
C2926 C 0.69429 0.53689 0.12424 0.0
C2927 C 0.67331 0.50775 0.10368 0.0
C2928 C 0.7237 0.57736 0.11642 0.0
C2929 C 0.744 0.57945 0.14905 0.0
N2930 N 0.69296 0.52632 0.10836 0.0
N2931 N 0.72561 0.55963 0.14439 0.0
H2932 H 0.74628 0.38796 0.39113 0.0
H2933 H 0.63733 0.49776 0.36226 0.0
H2934 H 0.74998 0.42206 0.34107 0.0
H2935 H 0.67156 0.5012 0.41229 0.0
H2936 H 0.6738 0.46533 0.35413 0.0
H2937 H 0.71415 0.42469 0.39924 0.0
C2938 C 0.74034 0.40323 0.38186 0.0
C2939 C 0.75074 0.40201 0.3654 0.0
C2940 C 0.67341 0.47337 0.36684 0.0
C2941 C 0.71371 0.44364 0.37453 0.0
C2942 C 0.65258 0.49171 0.37152 0.0
C2943 C 0.65147 0.50211 0.38798 0.0
C2944 C 0.69279 0.46475 0.37882 0.0
C2945 C 0.67178 0.49371 0.39946 0.0
C2946 C 0.72217 0.42421 0.38653 0.0
C2947 C 0.74249 0.42236 0.3539 0.0
N2948 N 0.69142 0.47516 0.39474 0.0
N2949 N 0.72409 0.44215 0.35862 0.0
H2950 H 0.86297 0.49801 0.64031 0.0
H2951 H 0.75388 0.38828 0.61181 0.0
H2952 H 0.82862 0.50141 0.59031 0.0
H2953 H 0.75016 0.42287 0.66174 0.0
H2954 H 0.78596 0.42499 0.60356 0.0
H2955 H 0.82637 0.46581 0.64853 0.0
C2956 C 0.84766 0.492 0.63108 0.0
C2957 C 0.84877 0.50232 0.6146 0.0
C2958 C 0.77793 0.42462 0.61627 0.0
C2959 C 0.80731 0.46522 0.62386 0.0
C2960 C 0.7598 0.40365 0.62102 0.0
C2961 C 0.74942 0.40258 0.63749 0.0
C2962 C 0.78636 0.44417 0.6282 0.0
C2963 C 0.75763 0.42306 0.64891 0.0
C2964 C 0.82676 0.47379 0.63581 0.0
C2965 C 0.82838 0.49399 0.60315 0.0
N2966 N 0.77599 0.44283 0.64413 0.0
N2967 N 0.80868 0.47554 0.60792 0.0
H2968 H 0.13906 0.49771 0.1411 0.0
H2969 H 0.24903 0.38888 0.11232 0.0
H2970 H 0.17379 0.50179 0.09122 0.0
H2971 H 0.25166 0.4223 0.16257 0.0
H2972 H 0.21692 0.42561 0.10417 0.0
H2973 H 0.17568 0.4655 0.14928 0.0
C2974 C 0.15445 0.49185 0.13188 0.0
C2975 C 0.15343 0.50237 0.11544 0.0
C2976 C 0.22471 0.42499 0.11694 0.0
C2977 C 0.19494 0.46525 0.12466 0.0
C2978 C 0.24288 0.40401 0.12163 0.0
C2979 C 0.25295 0.40259 0.13816 0.0
C2980 C 0.21594 0.44421 0.12898 0.0
C2981 C 0.24443 0.42276 0.14969 0.0
C2982 C 0.17536 0.47363 0.1366 0.0
C2983 C 0.17394 0.49422 0.10402 0.0
N2984 N 0.22604 0.44255 0.14495 0.0
N2985 N 0.19366 0.47577 0.10877 0.0
H2986 H 0.32972 0.5018 0.9138 0.0
H2987 H 0.25041 0.42286 0.84056 0.0
H2988 H 0.36237 0.49833 0.86338 0.0
H2989 H 0.25593 0.38893 0.8906 0.0
H2990 H 0.28305 0.45935 0.84887 0.0
H2991 H 0.29366 0.46866 0.90553 0.0
C2992 C 0.32909 0.4943 0.90098 0.0
C2993 C 0.34907 0.50262 0.88927 0.0
C2994 C 0.27689 0.44396 0.85801 0.0
C2995 C 0.30784 0.46543 0.87972 0.0
C2996 C 0.25827 0.42328 0.85332 0.0
C2997 C 0.25066 0.40283 0.86489 0.0
C2998 C 0.28727 0.44456 0.8745 0.0
C2999 C 0.26149 0.40421 0.88126 0.0
C3000 C 0.30867 0.47538 0.8963 0.0
C3001 C 0.34745 0.49222 0.87282 0.0
N3002 N 0.27912 0.42482 0.88562 0.0
N3003 N 0.32709 0.47429 0.86848 0.0
H3004 H 0.36295 0.50279 0.64095 0.0
H3005 H 0.25307 0.61149 0.61225 0.0
H3006 H 0.32818 0.49852 0.59109 0.0
H3007 H 0.24994 0.57771 0.66239 0.0
H3008 H 0.28514 0.57473 0.60409 0.0
H3009 H 0.32616 0.53479 0.64916 0.0
C3010 C 0.3475 0.50856 0.63175 0.0
C3011 C 0.34856 0.49807 0.61531 0.0
C3012 C 0.27724 0.57528 0.61683 0.0
C3013 C 0.30688 0.53494 0.62454 0.0
C3014 C 0.25911 0.59627 0.62153 0.0
C3015 C 0.24891 0.59759 0.63803 0.0
C3016 C 0.28586 0.55595 0.62884 0.0
C3017 C 0.25727 0.57731 0.64953 0.0
C3018 C 0.32649 0.52665 0.63647 0.0
C3019 C 0.32799 0.50608 0.6039 0.0
N3020 N 0.27565 0.55752 0.6448 0.0
N3021 N 0.30819 0.52443 0.60865 0.0
H3022 H 0.17217 0.49879 0.4131 0.0
H3023 H 0.25171 0.57891 0.34038 0.0
H3024 H 0.13972 0.50322 0.36266 0.0
H3025 H 0.24664 0.61159 0.39075 0.0
H3026 H 0.21902 0.54232 0.34843 0.0
H3027 H 0.20842 0.53188 0.40507 0.0
C3028 C 0.17288 0.50649 0.40032 0.0
C3029 C 0.1529 0.49845 0.38854 0.0
C3030 C 0.22529 0.55746 0.35769 0.0
C3031 C 0.19434 0.5356 0.37926 0.0
C3032 C 0.24395 0.57819 0.35315 0.0
C3033 C 0.2517 0.59832 0.3649 0.0
C3034 C 0.215 0.55649 0.3742 0.0
C3035 C 0.24098 0.59656 0.38128 0.0
C3036 C 0.19341 0.52538 0.39578 0.0
C3037 C 0.15463 0.50911 0.37215 0.0
N3038 N 0.22329 0.57591 0.38549 0.0
N3039 N 0.17509 0.52702 0.36795 0.0
loop_
_geom_bond_atom_site_label_1
_geom_bond_atom_site_label_2
_geom_bond_distance
_geom_bond_site_symmetry_2
_ccdc_geom_bond_type
Co0 O2 2.143 . S
Co0 O8 2.074 . S
Co0 O11 2.093 . S
Co0 O24 2.097 . S
Co0 N41 2.151 . S
Co0 N49 2.214 . S
Co1 O2 2.160 . S
Co1 O7 2.058 . S
Co1 O17 2.057 . S
Co1 O32 2.037 . S
Co1 N36 2.145 . S
Co1 N57 2.257 . S
O2 Co0 2.143 . S
O2 Co1 2.160 . S
C3 O4 1.278 . S
C3 O11 1.224 . S
O4 C3 1.278 . S
C5 O6 1.245 . S
C5 O17 1.232 . S
O6 C5 1.245 . S
O7 Co1 2.058 . S
O7 C33 1.269 . S
O8 Co0 2.074 . S
O8 C33 1.257 . S
H9 C34 0.930 . S
H10 C40 0.930 . S
O11 Co0 2.093 . S
O11 C3 1.224 . S
H12 C44 0.929 . S
H13 C46 0.930 . S
H14 C47 0.930 . S
H15 C45 0.929 . S
H16 C48 0.928 . S
O17 Co1 2.057 . S
O17 C5 1.232 . S
H18 C37 0.929 . S
H19 C38 0.929 . S
H20 C50 0.931 . S
H21 C42 0.929 . S
H22 C51 0.930 . S
H23 C43 0.931 . S
O24 Co0 2.097 . S
O24 C52 1.214 . S
H25 C53 0.929 . S
H26 C54 0.929 . S
H27 C55 0.930 . S
H28 C56 0.929 . S
H29 C58 0.930 . S
H30 C35 0.930 . S
H31 C39 0.930 . S
O32 Co1 2.037 . S
O32 C52 1.234 . S
C33 O7 1.269 . S
C33 O8 1.257 . S
C34 H9 0.930 . S
C34 C37 1.388 . S
C34 C39 1.418 . S
C35 H30 0.930 . S
C35 C38 1.404 . S
C35 C39 1.353 . S
N36 Co1 2.145 . S
N36 C37 1.397 . S
N36 C38 1.334 . S
C37 H18 0.929 . S
C37 C34 1.388 . S
C37 N36 1.397 . S
C38 H19 0.929 . S
C38 C35 1.404 . S
C38 N36 1.334 . S
C39 H31 0.930 . S
C39 C34 1.418 . S
C39 C35 1.353 . S
C40 H10 0.930 . S
C40 N41 1.330 . S
C40 C42 1.446 . S
N41 Co0 2.151 . S
N41 C40 1.330 . S
N41 C45 1.418 . S
C42 H21 0.929 . S
C42 C40 1.446 . S
C42 C43 1.332 . S
C43 H23 0.931 . S
C43 C42 1.332 . S
C43 C44 1.267 . S
C44 H12 0.929 . S
C44 C43 1.267 . S
C44 C45 1.251 . S
C45 H15 0.929 . S
C45 N41 1.418 . S
C45 C44 1.251 . S
C46 H13 0.930 . S
C46 C48 1.406 . S
C46 C51 1.261 . S
C47 H14 0.930 . S
C47 N49 1.325 . S
C47 C50 1.357 . S
C48 H16 0.928 . S
C48 C46 1.406 . S
C48 N49 1.261 . S
N49 Co0 2.214 . S
N49 C47 1.325 . S
N49 C48 1.261 . S
C50 H20 0.931 . S
C50 C47 1.357 . S
C50 C51 1.312 . S
C51 H22 0.930 . S
C51 C46 1.261 . S
C51 C50 1.312 . S
C52 O24 1.214 . S
C52 O32 1.234 . S
C53 H25 0.929 . S
C53 C56 1.391 . S
C53 C58 1.391 . S
C54 H26 0.929 . S
C54 C55 1.390 . S
C54 N57 1.391 . S
C55 H27 0.930 . S
C55 C54 1.390 . S
C55 C56 1.392 . S
C56 H28 0.929 . S
C56 C53 1.391 . S
C56 C55 1.392 . S
N57 Co1 2.257 . S
N57 C54 1.391 . S
N57 C58 1.388 . S
C58 H29 0.930 . S
C58 C53 1.391 . S
C58 N57 1.388 . S
Co59 O61 2.143 . S
Co59 O67 2.074 . S
Co59 O70 2.093 . S
Co59 O83 2.097 . S
Co59 N100 2.151 . S
Co59 N108 2.214 . S
Co60 O61 2.160 . S
Co60 O66 2.058 . S
Co60 O76 2.057 . S
Co60 O91 2.037 . S
Co60 N95 2.145 . S
Co60 N116 2.257 . S
O61 Co59 2.143 . S
O61 Co60 2.160 . S
C62 O63 1.278 . S
C62 O70 1.224 . S
O63 C62 1.278 . S
C64 O65 1.245 . S
C64 O76 1.232 . S
O65 C64 1.245 . S
O66 Co60 2.058 . S
O66 C92 1.269 . S
O67 Co59 2.074 . S
O67 C92 1.257 . S
H68 C93 0.930 . S
H69 C99 0.930 . S
O70 Co59 2.093 . S
O70 C62 1.224 . S
H71 C103 0.929 . S
H72 C105 0.930 . S
H73 C106 0.930 . S
H74 C104 0.929 . S
H75 C107 0.928 . S
O76 Co60 2.057 . S
O76 C64 1.232 . S
H77 C96 0.929 . S
H78 C97 0.929 . S
H79 C109 0.931 . S
H80 C101 0.929 . S
H81 C110 0.930 . S
H82 C102 0.931 . S
O83 Co59 2.097 . S
O83 C111 1.214 . S
H84 C112 0.929 . S
H85 C113 0.929 . S
H86 C114 0.930 . S
H87 C115 0.929 . S
H88 C117 0.930 . S
H89 C94 0.930 . S
H90 C98 0.930 . S
O91 Co60 2.037 . S
O91 C111 1.234 . S
C92 O66 1.269 . S
C92 O67 1.257 . S
C93 H68 0.930 . S
C93 C96 1.388 . S
C93 C98 1.418 . S
C94 H89 0.930 . S
C94 C97 1.404 . S
C94 C98 1.353 . S
N95 Co60 2.145 . S
N95 C96 1.397 . S
N95 C97 1.334 . S
C96 H77 0.929 . S
C96 C93 1.388 . S
C96 N95 1.397 . S
C97 H78 0.929 . S
C97 C94 1.404 . S
C97 N95 1.334 . S
C98 H90 0.930 . S
C98 C93 1.418 . S
C98 C94 1.353 . S
C99 H69 0.930 . S
C99 N100 1.330 . S
C99 C101 1.446 . S
N100 Co59 2.151 . S
N100 C99 1.330 . S
N100 C104 1.418 . S
C101 H80 0.929 . S
C101 C99 1.446 . S
C101 C102 1.332 . S
C102 H82 0.931 . S
C102 C101 1.332 . S
C102 C103 1.267 . S
C103 H71 0.929 . S
C103 C102 1.267 . S
C103 C104 1.251 . S
C104 H74 0.929 . S
C104 N100 1.418 . S
C104 C103 1.251 . S
C105 H72 0.930 . S
C105 C107 1.406 . S
C105 C110 1.261 . S
C106 H73 0.930 . S
C106 N108 1.325 . S
C106 C109 1.357 . S
C107 H75 0.928 . S
C107 C105 1.406 . S
C107 N108 1.261 . S
N108 Co59 2.214 . S
N108 C106 1.325 . S
N108 C107 1.261 . S
C109 H79 0.931 . S
C109 C106 1.357 . S
C109 C110 1.312 . S
C110 H81 0.930 . S
C110 C105 1.261 . S
C110 C109 1.312 . S
C111 O83 1.214 . S
C111 O91 1.234 . S
C112 H84 0.929 . S
C112 C115 1.391 1_455 S
C112 C117 1.391 . S
C113 H85 0.929 . S
C113 C114 1.390 1_465 S
C113 N116 1.391 . S
C114 H86 0.930 . S
C114 C113 1.390 1_645 S
C114 C115 1.392 . S
C115 H87 0.929 . S
C115 C112 1.391 1_655 S
C115 C114 1.392 . S
N116 Co60 2.257 . S
N116 C113 1.391 . S
N116 C117 1.388 1_565 S
C117 H88 0.930 . S
C117 C112 1.391 . S
C117 N116 1.388 1_545 S
Co118 O120 2.143 . S
Co118 O126 2.074 . S
Co118 O129 2.093 . S
Co118 O142 2.097 . S
Co118 N159 2.151 . S
Co118 N167 2.214 . S
Co119 O120 2.160 . S
Co119 O125 2.058 . S
Co119 O135 2.057 . S
Co119 O150 2.037 . S
Co119 N154 2.145 . S
Co119 N175 2.257 . S
O120 Co118 2.143 . S
O120 Co119 2.160 . S
C121 O122 1.278 . S
C121 O129 1.224 . S
O122 C121 1.278 . S
C123 O124 1.245 . S
C123 O135 1.232 . S
O124 C123 1.245 . S
O125 Co119 2.058 . S
O125 C151 1.269 . S
O126 Co118 2.074 . S
O126 C151 1.257 . S
H127 C152 0.930 . S
H128 C158 0.930 . S
O129 Co118 2.093 . S
O129 C121 1.224 . S
H130 C162 0.929 . S
H131 C164 0.930 . S
H132 C165 0.930 . S
H133 C163 0.929 . S
H134 C166 0.928 . S
O135 Co119 2.057 . S
O135 C123 1.232 . S
H136 C155 0.929 . S
H137 C156 0.929 . S
H138 C168 0.931 . S
H139 C160 0.929 . S
H140 C169 0.930 . S
H141 C161 0.931 . S
O142 Co118 2.097 . S
O142 C170 1.214 . S
H143 C171 0.929 . S
H144 C172 0.929 . S
H145 C173 0.930 . S
H146 C174 0.929 . S
H147 C176 0.930 . S
H148 C153 0.930 . S
H149 C157 0.930 . S
O150 Co119 2.037 . S
O150 C170 1.234 . S
C151 O125 1.269 . S
C151 O126 1.257 . S
C152 H127 0.930 . S
C152 C155 1.388 . S
C152 C157 1.418 . S
C153 H148 0.930 . S
C153 C156 1.404 . S
C153 C157 1.353 . S
N154 Co119 2.145 . S
N154 C155 1.397 . S
N154 C156 1.334 . S
C155 H136 0.929 . S
C155 C152 1.388 . S
C155 N154 1.397 . S
C156 H137 0.929 . S
C156 C153 1.404 . S
C156 N154 1.334 . S
C157 H149 0.930 . S
C157 C152 1.418 . S
C157 C153 1.353 . S
C158 H128 0.930 . S
C158 N159 1.330 . S
C158 C160 1.446 . S
N159 Co118 2.151 . S
N159 C158 1.330 . S
N159 C163 1.418 . S
C160 H139 0.929 . S
C160 C158 1.446 . S
C160 C161 1.332 . S
C161 H141 0.931 . S
C161 C160 1.332 . S
C161 C162 1.267 . S
C162 H130 0.929 . S
C162 C161 1.267 . S
C162 C163 1.251 . S
C163 H133 0.929 . S
C163 N159 1.418 . S
C163 C162 1.251 . S
C164 H131 0.930 . S
C164 C166 1.406 . S
C164 C169 1.261 . S
C165 H132 0.930 . S
C165 N167 1.325 . S
C165 C168 1.357 . S
C166 H134 0.928 . S
C166 C164 1.406 . S
C166 N167 1.261 . S
N167 Co118 2.214 . S
N167 C165 1.325 . S
N167 C166 1.261 . S
C168 H138 0.931 . S
C168 C165 1.357 . S
C168 C169 1.312 . S
C169 H140 0.930 . S
C169 C164 1.261 . S
C169 C168 1.312 . S
C170 O142 1.214 . S
C170 O150 1.234 . S
C171 H143 0.929 . S
C171 C174 1.391 . S
C171 C176 1.391 . S
C172 H144 0.929 . S
C172 C173 1.390 . S
C172 N175 1.391 . S
C173 H145 0.930 . S
C173 C172 1.390 . S
C173 C174 1.392 . S
C174 H146 0.929 . S
C174 C171 1.391 . S
C174 C173 1.392 . S
N175 Co119 2.257 . S
N175 C172 1.391 . S
N175 C176 1.388 . S
C176 H147 0.930 . S
C176 C171 1.391 . S
C176 N175 1.388 . S
Co177 O179 2.143 . S
Co177 O185 2.074 . S
Co177 O188 2.093 . S
Co177 O201 2.097 . S
Co177 N218 2.151 . S
Co177 N226 2.214 . S
Co178 O179 2.160 . S
Co178 O184 2.058 . S
Co178 O194 2.057 . S
Co178 O209 2.037 . S
Co178 N213 2.145 . S
Co178 N234 2.257 . S
O179 Co177 2.143 . S
O179 Co178 2.160 . S
C180 O181 1.278 . S
C180 O188 1.224 . S
O181 C180 1.278 . S
C182 O183 1.245 . S
C182 O194 1.232 . S
O183 C182 1.245 . S
O184 Co178 2.058 . S
O184 C210 1.269 . S
O185 Co177 2.074 . S
O185 C210 1.257 . S
H186 C211 0.930 . S
H187 C217 0.930 . S
O188 Co177 2.093 . S
O188 C180 1.224 . S
H189 C221 0.929 . S
H190 C223 0.930 . S
H191 C224 0.930 . S
H192 C222 0.929 . S
H193 C225 0.928 . S
O194 Co178 2.057 . S
O194 C182 1.232 . S
H195 C214 0.929 . S
H196 C215 0.929 . S
H197 C227 0.931 . S
H198 C219 0.929 . S
H199 C228 0.930 . S
H200 C220 0.931 . S
O201 Co177 2.097 . S
O201 C229 1.214 . S
H202 C230 0.929 . S
H203 C231 0.929 . S
H204 C232 0.930 . S
H205 C233 0.929 . S
H206 C235 0.930 . S
H207 C212 0.930 . S
H208 C216 0.930 . S
O209 Co178 2.037 . S
O209 C229 1.234 . S
C210 O184 1.269 . S
C210 O185 1.257 . S
C211 H186 0.930 . S
C211 C214 1.388 . S
C211 C216 1.418 . S
C212 H207 0.930 . S
C212 C215 1.404 . S
C212 C216 1.353 . S
N213 Co178 2.145 . S
N213 C214 1.397 . S
N213 C215 1.334 . S
C214 H195 0.929 . S
C214 C211 1.388 . S
C214 N213 1.397 . S
C215 H196 0.929 . S
C215 C212 1.404 . S
C215 N213 1.334 . S
C216 H208 0.930 . S
C216 C211 1.418 . S
C216 C212 1.353 . S
C217 H187 0.930 . S
C217 N218 1.330 . S
C217 C219 1.446 . S
N218 Co177 2.151 . S
N218 C217 1.330 . S
N218 C222 1.418 . S
C219 H198 0.929 . S
C219 C217 1.446 . S
C219 C220 1.332 . S
C220 H200 0.931 . S
C220 C219 1.332 . S
C220 C221 1.267 . S
C221 H189 0.929 . S
C221 C220 1.267 . S
C221 C222 1.251 . S
C222 H192 0.929 . S
C222 N218 1.418 . S
C222 C221 1.251 . S
C223 H190 0.930 . S
C223 C225 1.406 . S
C223 C228 1.261 . S
C224 H191 0.930 . S
C224 N226 1.325 . S
C224 C227 1.357 . S
C225 H193 0.928 . S
C225 C223 1.406 . S
C225 N226 1.261 . S
N226 Co177 2.214 . S
N226 C224 1.325 . S
N226 C225 1.261 . S
C227 H197 0.931 . S
C227 C224 1.357 . S
C227 C228 1.312 . S
C228 H199 0.930 . S
C228 C223 1.261 . S
C228 C227 1.312 . S
C229 O201 1.214 . S
C229 O209 1.234 . S
C230 H202 0.929 . S
C230 C233 1.391 . S
C230 C235 1.391 . S
C231 H203 0.929 . S
C231 C232 1.390 1_545 S
C231 N234 1.391 . S
C232 H204 0.930 . S
C232 C231 1.390 1_565 S
C232 C233 1.392 . S
C233 H205 0.929 . S
C233 C230 1.391 . S
C233 C232 1.392 . S
N234 Co178 2.257 . S
N234 C231 1.391 . S
N234 C235 1.388 1_545 S
C235 H206 0.930 . S
C235 C230 1.391 . S
C235 N234 1.388 1_565 S
Co236 O238 2.143 . S
Co236 O244 2.074 . S
Co236 O247 2.093 . S
Co236 O260 2.097 . S
Co236 N277 2.151 . S
Co236 N285 2.214 . S
Co237 O238 2.160 . S
Co237 O243 2.058 . S
Co237 O253 2.057 . S
Co237 O268 2.037 . S
Co237 N272 2.145 . S
Co237 N293 2.257 . S
O238 Co236 2.143 . S
O238 Co237 2.160 . S
C239 O240 1.278 . S
C239 O247 1.224 . S
O240 C239 1.278 . S
C241 O242 1.245 . S
C241 O253 1.232 . S
O242 C241 1.245 . S
O243 Co237 2.058 . S
O243 C269 1.269 . S
O244 Co236 2.074 . S
O244 C269 1.257 . S
H245 C270 0.930 . S
H246 C276 0.930 . S
O247 Co236 2.093 . S
O247 C239 1.224 . S
H248 C280 0.929 . S
H249 C282 0.930 . S
H250 C283 0.930 . S
H251 C281 0.929 . S
H252 C284 0.928 . S
O253 Co237 2.057 . S
O253 C241 1.232 . S
H254 C273 0.929 . S
H255 C274 0.929 . S
H256 C286 0.931 . S
H257 C278 0.929 . S
H258 C287 0.930 . S
H259 C279 0.931 . S
O260 Co236 2.097 . S
O260 C288 1.214 . S
H261 C289 0.929 . S
H262 C290 0.929 . S
H263 C291 0.930 . S
H264 C292 0.929 . S
H265 C294 0.930 . S
H266 C271 0.930 . S
H267 C275 0.930 . S
O268 Co237 2.037 . S
O268 C288 1.234 . S
C269 O243 1.269 . S
C269 O244 1.257 . S
C270 H245 0.930 . S
C270 C273 1.388 . S
C270 C275 1.418 . S
C271 H266 0.930 . S
C271 C274 1.404 . S
C271 C275 1.353 . S
N272 Co237 2.145 . S
N272 C273 1.397 . S
N272 C274 1.334 . S
C273 H254 0.929 . S
C273 C270 1.388 . S
C273 N272 1.397 . S
C274 H255 0.929 . S
C274 C271 1.404 . S
C274 N272 1.334 . S
C275 H267 0.930 . S
C275 C270 1.418 . S
C275 C271 1.353 . S
C276 H246 0.930 . S
C276 N277 1.330 . S
C276 C278 1.446 . S
N277 Co236 2.151 . S
N277 C276 1.330 . S
N277 C281 1.418 . S
C278 H257 0.929 . S
C278 C276 1.446 . S
C278 C279 1.332 . S
C279 H259 0.931 . S
C279 C278 1.332 . S
C279 C280 1.267 . S
C280 H248 0.929 . S
C280 C279 1.267 . S
C280 C281 1.251 . S
C281 H251 0.929 . S
C281 N277 1.418 . S
C281 C280 1.251 . S
C282 H249 0.930 . S
C282 C284 1.406 . S
C282 C287 1.261 . S
C283 H250 0.930 . S
C283 N285 1.325 . S
C283 C286 1.357 . S
C284 H252 0.928 . S
C284 C282 1.406 . S
C284 N285 1.261 . S
N285 Co236 2.214 . S
N285 C283 1.325 . S
N285 C284 1.261 . S
C286 H256 0.931 . S
C286 C283 1.357 . S
C286 C287 1.312 . S
C287 H258 0.930 . S
C287 C282 1.261 . S
C287 C286 1.312 . S
C288 O260 1.214 . S
C288 O268 1.234 . S
C289 H261 0.929 . S
C289 C292 1.391 . S
C289 C294 1.391 . S
C290 H262 0.929 . S
C290 C291 1.390 . S
C290 N293 1.391 . S
C291 H263 0.930 . S
C291 C290 1.390 . S
C291 C292 1.392 . S
C292 H264 0.929 . S
C292 C289 1.391 . S
C292 C291 1.392 . S
N293 Co237 2.257 . S
N293 C290 1.391 . S
N293 C294 1.388 . S
C294 H265 0.930 . S
C294 C289 1.391 . S
C294 N293 1.388 . S
Co295 O297 2.143 . S
Co295 O303 2.074 . S
Co295 O306 2.093 . S
Co295 O319 2.097 . S
Co295 N336 2.151 . S
Co295 N344 2.214 . S
Co296 O297 2.160 . S
Co296 O302 2.058 . S
Co296 O312 2.057 . S
Co296 O327 2.037 . S
Co296 N331 2.145 . S
Co296 N352 2.257 . S
O297 Co295 2.143 . S
O297 Co296 2.160 . S
C298 O299 1.278 . S
C298 O306 1.224 . S
O299 C298 1.278 . S
C300 O301 1.245 . S
C300 O312 1.232 . S
O301 C300 1.245 . S
O302 Co296 2.058 . S
O302 C328 1.269 . S
O303 Co295 2.074 . S
O303 C328 1.257 . S
H304 C329 0.930 . S
H305 C335 0.930 . S
O306 Co295 2.093 . S
O306 C298 1.224 . S
H307 C339 0.929 . S
H308 C341 0.930 . S
H309 C342 0.930 . S
H310 C340 0.929 . S
H311 C343 0.928 . S
O312 Co296 2.057 . S
O312 C300 1.232 . S
H313 C332 0.929 . S
H314 C333 0.929 . S
H315 C345 0.931 . S
H316 C337 0.929 . S
H317 C346 0.930 . S
H318 C338 0.931 . S
O319 Co295 2.097 . S
O319 C347 1.214 . S
H320 C348 0.929 . S
H321 C349 0.929 . S
H322 C350 0.930 . S
H323 C351 0.929 . S
H324 C353 0.930 . S
H325 C330 0.930 . S
H326 C334 0.930 . S
O327 Co296 2.037 . S
O327 C347 1.234 . S
C328 O302 1.269 . S
C328 O303 1.257 . S
C329 H304 0.930 . S
C329 C332 1.388 . S
C329 C334 1.418 . S
C330 H325 0.930 . S
C330 C333 1.404 . S
C330 C334 1.353 . S
N331 Co296 2.145 . S
N331 C332 1.397 . S
N331 C333 1.334 . S
C332 H313 0.929 . S
C332 C329 1.388 . S
C332 N331 1.397 . S
C333 H314 0.929 . S
C333 C330 1.404 . S
C333 N331 1.334 . S
C334 H326 0.930 . S
C334 C329 1.418 . S
C334 C330 1.353 . S
C335 H305 0.930 . S
C335 N336 1.330 . S
C335 C337 1.446 . S
N336 Co295 2.151 . S
N336 C335 1.330 . S
N336 C340 1.418 . S
C337 H316 0.929 . S
C337 C335 1.446 . S
C337 C338 1.332 . S
C338 H318 0.931 . S
C338 C337 1.332 . S
C338 C339 1.267 . S
C339 H307 0.929 . S
C339 C338 1.267 . S
C339 C340 1.251 . S
C340 H310 0.929 . S
C340 N336 1.418 . S
C340 C339 1.251 . S
C341 H308 0.930 . S
C341 C343 1.406 . S
C341 C346 1.261 . S
C342 H309 0.930 . S
C342 N344 1.325 . S
C342 C345 1.357 . S
C343 H311 0.928 . S
C343 C341 1.406 . S
C343 N344 1.261 . S
N344 Co295 2.214 . S
N344 C342 1.325 . S
N344 C343 1.261 . S
C345 H315 0.931 . S
C345 C342 1.357 . S
C345 C346 1.312 . S
C346 H317 0.930 . S
C346 C341 1.261 . S
C346 C345 1.312 . S
C347 O319 1.214 . S
C347 O327 1.234 . S
C348 H320 0.929 . S
C348 C351 1.391 . S
C348 C353 1.391 . S
C349 H321 0.929 . S
C349 C350 1.390 1_565 S
C349 N352 1.391 . S
C350 H322 0.930 . S
C350 C349 1.390 1_545 S
C350 C351 1.392 . S
C351 H323 0.929 . S
C351 C348 1.391 . S
C351 C350 1.392 . S
N352 Co296 2.257 . S
N352 C349 1.391 . S
N352 C353 1.388 1_565 S
C353 H324 0.930 . S
C353 C348 1.391 . S
C353 N352 1.388 1_545 S
Co354 O356 2.143 . S
Co354 O362 2.074 . S
Co354 O365 2.093 . S
Co354 O378 2.097 . S
Co354 N395 2.151 . S
Co354 N403 2.214 . S
Co355 O356 2.160 . S
Co355 O361 2.058 . S
Co355 O371 2.057 . S
Co355 O386 2.037 . S
Co355 N390 2.145 . S
Co355 N411 2.257 . S
O356 Co354 2.143 . S
O356 Co355 2.160 . S
C357 O358 1.278 . S
C357 O365 1.224 . S
O358 C357 1.278 . S
C359 O360 1.245 . S
C359 O371 1.232 . S
O360 C359 1.245 . S
O361 Co355 2.058 . S
O361 C387 1.269 . S
O362 Co354 2.074 . S
O362 C387 1.257 . S
H363 C388 0.930 . S
H364 C394 0.930 . S
O365 Co354 2.093 . S
O365 C357 1.224 . S
H366 C398 0.929 . S
H367 C400 0.930 . S
H368 C401 0.930 . S
H369 C399 0.929 . S
H370 C402 0.928 . S
O371 Co355 2.057 . S
O371 C359 1.232 . S
H372 C391 0.929 . S
H373 C392 0.929 . S
H374 C404 0.931 . S
H375 C396 0.929 . S
H376 C405 0.930 . S
H377 C397 0.931 . S
O378 Co354 2.097 . S
O378 C406 1.214 . S
H379 C407 0.929 . S
H380 C408 0.929 . S
H381 C409 0.930 . S
H382 C410 0.929 . S
H383 C412 0.930 . S
H384 C389 0.930 . S
H385 C393 0.930 . S
O386 Co355 2.037 . S
O386 C406 1.234 . S
C387 O361 1.269 . S
C387 O362 1.257 . S
C388 H363 0.930 . S
C388 C391 1.388 . S
C388 C393 1.418 . S
C389 H384 0.930 . S
C389 C392 1.404 . S
C389 C393 1.353 . S
N390 Co355 2.145 . S
N390 C391 1.397 . S
N390 C392 1.334 . S
C391 H372 0.929 . S
C391 C388 1.388 . S
C391 N390 1.397 . S
C392 H373 0.929 . S
C392 C389 1.404 . S
C392 N390 1.334 . S
C393 H385 0.930 . S
C393 C388 1.418 . S
C393 C389 1.353 . S
C394 H364 0.930 . S
C394 N395 1.330 . S
C394 C396 1.446 . S
N395 Co354 2.151 . S
N395 C394 1.330 . S
N395 C399 1.418 . S
C396 H375 0.929 . S
C396 C394 1.446 . S
C396 C397 1.332 . S
C397 H377 0.931 . S
C397 C396 1.332 . S
C397 C398 1.267 . S
C398 H366 0.929 . S
C398 C397 1.267 . S
C398 C399 1.251 . S
C399 H369 0.929 . S
C399 N395 1.418 . S
C399 C398 1.251 . S
C400 H367 0.930 . S
C400 C402 1.406 . S
C400 C405 1.261 . S
C401 H368 0.930 . S
C401 N403 1.325 . S
C401 C404 1.357 . S
C402 H370 0.928 . S
C402 C400 1.406 . S
C402 N403 1.261 . S
N403 Co354 2.214 . S
N403 C401 1.325 . S
N403 C402 1.261 . S
C404 H374 0.931 . S
C404 C401 1.357 . S
C404 C405 1.312 . S
C405 H376 0.930 . S
C405 C400 1.261 . S
C405 C404 1.312 . S
C406 O378 1.214 . S
C406 O386 1.234 . S
C407 H379 0.929 . S
C407 C410 1.391 . S
C407 C412 1.391 . S
C408 H380 0.929 . S
C408 C409 1.390 . S
C408 N411 1.391 . S
C409 H381 0.930 . S
C409 C408 1.390 . S
C409 C410 1.392 . S
C410 H382 0.929 . S
C410 C407 1.391 . S
C410 C409 1.392 . S
N411 Co355 2.257 . S
N411 C408 1.391 . S
N411 C412 1.388 . S
C412 H383 0.930 . S
C412 C407 1.391 . S
C412 N411 1.388 . S
Co413 O415 2.143 . S
Co413 O421 2.074 . S
Co413 O424 2.093 . S
Co413 O437 2.097 . S
Co413 N454 2.151 . S
Co413 N462 2.214 . S
Co414 O415 2.160 . S
Co414 O420 2.058 . S
Co414 O430 2.057 . S
Co414 O445 2.037 . S
Co414 N449 2.145 . S
Co414 N470 2.257 . S
O415 Co413 2.143 . S
O415 Co414 2.160 . S
C416 O417 1.278 . S
C416 O424 1.224 . S
O417 C416 1.278 . S
C418 O419 1.245 . S
C418 O430 1.232 . S
O419 C418 1.245 . S
O420 Co414 2.058 . S
O420 C446 1.269 . S
O421 Co413 2.074 . S
O421 C446 1.257 . S
H422 C447 0.930 . S
H423 C453 0.930 . S
O424 Co413 2.093 . S
O424 C416 1.224 . S
H425 C457 0.929 . S
H426 C459 0.930 . S
H427 C460 0.930 . S
H428 C458 0.929 . S
H429 C461 0.928 . S
O430 Co414 2.057 . S
O430 C418 1.232 . S
H431 C450 0.929 . S
H432 C451 0.929 . S
H433 C463 0.931 . S
H434 C455 0.929 . S
H435 C464 0.930 . S
H436 C456 0.931 . S
O437 Co413 2.097 . S
O437 C465 1.214 . S
H438 C466 0.929 . S
H439 C467 0.929 . S
H440 C468 0.930 . S
H441 C469 0.929 . S
H442 C471 0.930 . S
H443 C448 0.930 . S
H444 C452 0.930 . S
O445 Co414 2.037 . S
O445 C465 1.234 . S
C446 O420 1.269 . S
C446 O421 1.257 . S
C447 H422 0.930 . S
C447 C450 1.388 . S
C447 C452 1.418 . S
C448 H443 0.930 . S
C448 C451 1.404 . S
C448 C452 1.353 . S
N449 Co414 2.145 . S
N449 C450 1.397 . S
N449 C451 1.334 . S
C450 H431 0.929 . S
C450 C447 1.388 . S
C450 N449 1.397 . S
C451 H432 0.929 . S
C451 C448 1.404 . S
C451 N449 1.334 . S
C452 H444 0.930 . S
C452 C447 1.418 . S
C452 C448 1.353 . S
C453 H423 0.930 . S
C453 N454 1.330 . S
C453 C455 1.446 . S
N454 Co413 2.151 . S
N454 C453 1.330 . S
N454 C458 1.418 . S
C455 H434 0.929 . S
C455 C453 1.446 . S
C455 C456 1.332 . S
C456 H436 0.931 . S
C456 C455 1.332 . S
C456 C457 1.267 . S
C457 H425 0.929 . S
C457 C456 1.267 . S
C457 C458 1.251 . S
C458 H428 0.929 . S
C458 N454 1.418 . S
C458 C457 1.251 . S
C459 H426 0.930 . S
C459 C461 1.406 . S
C459 C464 1.261 . S
C460 H427 0.930 . S
C460 N462 1.325 . S
C460 C463 1.357 . S
C461 H429 0.928 . S
C461 C459 1.406 . S
C461 N462 1.261 . S
N462 Co413 2.214 . S
N462 C460 1.325 . S
N462 C461 1.261 . S
C463 H433 0.931 . S
C463 C460 1.357 . S
C463 C464 1.312 . S
C464 H435 0.930 . S
C464 C459 1.261 . S
C464 C463 1.312 . S
C465 O437 1.214 . S
C465 O445 1.234 . S
C466 H438 0.929 . S
C466 C469 1.391 1_455 S
C466 C471 1.391 . S
C467 H439 0.929 . S
C467 C468 1.390 1_445 S
C467 N470 1.391 . S
C468 H440 0.930 . S
C468 C467 1.390 1_665 S
C468 C469 1.392 . S
C469 H441 0.929 . S
C469 C466 1.391 1_655 S
C469 C468 1.392 . S
N470 Co414 2.257 . S
N470 C467 1.391 . S
N470 C471 1.388 1_545 S
C471 H442 0.930 . S
C471 C466 1.391 . S
C471 N470 1.388 1_565 S
Co472 O474 2.143 . S
Co472 O480 2.074 . S
Co472 O483 2.093 . S
Co472 O496 2.097 . S
Co472 N513 2.151 . S
Co472 N521 2.214 . S
Co473 O474 2.160 . S
Co473 O479 2.058 . S
Co473 O489 2.057 . S
Co473 O504 2.037 . S
Co473 N508 2.145 . S
Co473 N529 2.257 . S
O474 Co472 2.143 . S
O474 Co473 2.160 . S
C475 O476 1.278 . S
C475 O483 1.224 . S
O476 C475 1.278 . S
C477 O478 1.245 . S
C477 O489 1.232 . S
O478 C477 1.245 . S
O479 Co473 2.058 . S
O479 C505 1.269 . S
O480 Co472 2.074 . S
O480 C505 1.257 . S
H481 C506 0.930 . S
H482 C512 0.930 . S
O483 Co472 2.093 . S
O483 C475 1.224 . S
H484 C516 0.929 . S
H485 C518 0.930 . S
H486 C519 0.930 . S
H487 C517 0.929 . S
H488 C520 0.928 . S
O489 Co473 2.057 . S
O489 C477 1.232 . S
H490 C509 0.929 . S
H491 C510 0.929 . S
H492 C522 0.931 . S
H493 C514 0.929 . S
H494 C523 0.930 . S
H495 C515 0.931 . S
O496 Co472 2.097 . S
O496 C524 1.214 . S
H497 C525 0.929 . S
H498 C526 0.929 . S
H499 C527 0.930 . S
H500 C528 0.929 . S
H501 C530 0.930 . S
H502 C507 0.930 . S
H503 C511 0.930 . S
O504 Co473 2.037 . S
O504 C524 1.234 . S
C505 O479 1.269 . S
C505 O480 1.257 . S
C506 H481 0.930 . S
C506 C509 1.388 . S
C506 C511 1.418 . S
C507 H502 0.930 . S
C507 C510 1.404 . S
C507 C511 1.353 . S
N508 Co473 2.145 . S
N508 C509 1.397 . S
N508 C510 1.334 . S
C509 H490 0.929 . S
C509 C506 1.388 . S
C509 N508 1.397 . S
C510 H491 0.929 . S
C510 C507 1.404 . S
C510 N508 1.334 . S
C511 H503 0.930 . S
C511 C506 1.418 . S
C511 C507 1.353 . S
C512 H482 0.930 . S
C512 N513 1.330 . S
C512 C514 1.446 . S
N513 Co472 2.151 . S
N513 C512 1.330 . S
N513 C517 1.418 . S
C514 H493 0.929 . S
C514 C512 1.446 . S
C514 C515 1.332 . S
C515 H495 0.931 . S
C515 C514 1.332 . S
C515 C516 1.267 . S
C516 H484 0.929 . S
C516 C515 1.267 . S
C516 C517 1.251 . S
C517 H487 0.929 . S
C517 N513 1.418 . S
C517 C516 1.251 . S
C518 H485 0.930 . S
C518 C520 1.406 . S
C518 C523 1.261 . S
C519 H486 0.930 . S
C519 N521 1.325 . S
C519 C522 1.357 . S
C520 H488 0.928 . S
C520 C518 1.406 . S
C520 N521 1.261 . S
N521 Co472 2.214 . S
N521 C519 1.325 . S
N521 C520 1.261 . S
C522 H492 0.931 . S
C522 C519 1.357 . S
C522 C523 1.312 . S
C523 H494 0.930 . S
C523 C518 1.261 . S
C523 C522 1.312 . S
C524 O496 1.214 . S
C524 O504 1.234 . S
C525 H497 0.929 . S
C525 C528 1.391 . S
C525 C530 1.391 . S
C526 H498 0.929 . S
C526 C527 1.390 . S
C526 N529 1.391 . S
C527 H499 0.930 . S
C527 C526 1.390 . S
C527 C528 1.392 . S
C528 H500 0.929 . S
C528 C525 1.391 . S
C528 C527 1.392 . S
N529 Co473 2.257 . S
N529 C526 1.391 . S
N529 C530 1.388 . S
C530 H501 0.930 . S
C530 C525 1.391 . S
C530 N529 1.388 . S
Co531 O533 2.143 . S
Co531 O539 2.074 . S
Co531 O542 2.093 . S
Co531 O555 2.097 . S
Co531 N572 2.151 . S
Co531 N580 2.214 . S
Co532 O533 2.160 . S
Co532 O538 2.058 . S
Co532 O548 2.057 . S
Co532 O563 2.037 . S
Co532 N567 2.145 . S
Co532 N588 2.257 . S
O533 Co531 2.143 . S
O533 Co532 2.160 . S
C534 O535 1.278 . S
C534 O542 1.224 . S
O535 C534 1.278 . S
C536 O537 1.245 . S
C536 O548 1.232 . S
O537 C536 1.245 . S
O538 Co532 2.058 . S
O538 C564 1.269 . S
O539 Co531 2.074 . S
O539 C564 1.257 . S
H540 C565 0.930 . S
H541 C571 0.930 . S
O542 Co531 2.093 . S
O542 C534 1.224 . S
H543 C575 0.929 . S
H544 C577 0.930 . S
H545 C578 0.930 . S
H546 C576 0.929 . S
H547 C579 0.928 . S
O548 Co532 2.057 . S
O548 C536 1.232 . S
H549 C568 0.929 . S
H550 C569 0.929 . S
H551 C581 0.931 . S
H552 C573 0.929 . S
H553 C582 0.930 . S
H554 C574 0.931 . S
O555 Co531 2.097 . S
O555 C583 1.214 . S
H556 C584 0.929 . S
H557 C585 0.929 . S
H558 C586 0.930 . S
H559 C587 0.929 . S
H560 C589 0.930 . S
H561 C566 0.930 . S
H562 C570 0.930 . S
O563 Co532 2.037 . S
O563 C583 1.234 . S
C564 O538 1.269 . S
C564 O539 1.257 . S
C565 H540 0.930 . S
C565 C568 1.388 . S
C565 C570 1.418 . S
C566 H561 0.930 . S
C566 C569 1.404 . S
C566 C570 1.353 . S
N567 Co532 2.145 . S
N567 C568 1.397 . S
N567 C569 1.334 . S
C568 H549 0.929 . S
C568 C565 1.388 . S
C568 N567 1.397 . S
C569 H550 0.929 . S
C569 C566 1.404 . S
C569 N567 1.334 . S
C570 H562 0.930 . S
C570 C565 1.418 . S
C570 C566 1.353 . S
C571 H541 0.930 . S
C571 N572 1.330 . S
C571 C573 1.446 . S
N572 Co531 2.151 . S
N572 C571 1.330 . S
N572 C576 1.418 . S
C573 H552 0.929 . S
C573 C571 1.446 . S
C573 C574 1.332 . S
C574 H554 0.931 . S
C574 C573 1.332 . S
C574 C575 1.267 . S
C575 H543 0.929 . S
C575 C574 1.267 . S
C575 C576 1.251 . S
C576 H546 0.929 . S
C576 N572 1.418 . S
C576 C575 1.251 . S
C577 H544 0.930 . S
C577 C579 1.406 . S
C577 C582 1.261 . S
C578 H545 0.930 . S
C578 N580 1.325 . S
C578 C581 1.357 . S
C579 H547 0.928 . S
C579 C577 1.406 . S
C579 N580 1.261 . S
N580 Co531 2.214 . S
N580 C578 1.325 . S
N580 C579 1.261 . S
C581 H551 0.931 . S
C581 C578 1.357 . S
C581 C582 1.312 . S
C582 H553 0.930 . S
C582 C577 1.261 . S
C582 C581 1.312 . S
C583 O555 1.214 . S
C583 O563 1.234 . S
C584 H556 0.929 . S
C584 C587 1.391 1_655 S
C584 C589 1.391 . S
C585 H557 0.929 . S
C585 C586 1.390 1_645 S
C585 N588 1.391 . S
C586 H558 0.930 . S
C586 C585 1.390 1_465 S
C586 C587 1.392 . S
C587 H559 0.929 . S
C587 C584 1.391 1_455 S
C587 C586 1.392 . S
N588 Co532 2.257 . S
N588 C585 1.391 . S
N588 C589 1.388 1_545 S
C589 H560 0.930 . S
C589 C584 1.391 . S
C589 N588 1.388 1_565 S
Co590 O592 2.143 . S
Co590 O598 2.074 . S
Co590 O601 2.093 . S
Co590 O614 2.097 . S
Co590 N631 2.151 . S
Co590 N639 2.214 . S
Co591 O592 2.160 . S
Co591 O597 2.058 . S
Co591 O607 2.057 . S
Co591 O622 2.037 . S
Co591 N626 2.145 . S
Co591 N647 2.257 . S
O592 Co590 2.143 . S
O592 Co591 2.160 . S
C593 O594 1.278 . S
C593 O601 1.224 . S
O594 C593 1.278 . S
C595 O596 1.245 . S
C595 O607 1.232 . S
O596 C595 1.245 . S
O597 Co591 2.058 . S
O597 C623 1.269 . S
O598 Co590 2.074 . S
O598 C623 1.257 . S
H599 C624 0.930 . S
H600 C630 0.930 . S
O601 Co590 2.093 . S
O601 C593 1.224 . S
H602 C634 0.929 . S
H603 C636 0.930 . S
H604 C637 0.930 . S
H605 C635 0.929 . S
H606 C638 0.928 . S
O607 Co591 2.057 . S
O607 C595 1.232 . S
H608 C627 0.929 . S
H609 C628 0.929 . S
H610 C640 0.931 . S
H611 C632 0.929 . S
H612 C641 0.930 . S
H613 C633 0.931 . S
O614 Co590 2.097 . S
O614 C642 1.214 . S
H615 C643 0.929 . S
H616 C644 0.929 . S
H617 C645 0.930 . S
H618 C646 0.929 . S
H619 C648 0.930 . S
H620 C625 0.930 . S
H621 C629 0.930 . S
O622 Co591 2.037 . S
O622 C642 1.234 . S
C623 O597 1.269 . S
C623 O598 1.257 . S
C624 H599 0.930 . S
C624 C627 1.388 . S
C624 C629 1.418 . S
C625 H620 0.930 . S
C625 C628 1.404 . S
C625 C629 1.353 . S
N626 Co591 2.145 . S
N626 C627 1.397 . S
N626 C628 1.334 . S
C627 H608 0.929 . S
C627 C624 1.388 . S
C627 N626 1.397 . S
C628 H609 0.929 . S
C628 C625 1.404 . S
C628 N626 1.334 . S
C629 H621 0.930 . S
C629 C624 1.418 . S
C629 C625 1.353 . S
C630 H600 0.930 . S
C630 N631 1.330 . S
C630 C632 1.446 . S
N631 Co590 2.151 . S
N631 C630 1.330 . S
N631 C635 1.418 . S
C632 H611 0.929 . S
C632 C630 1.446 . S
C632 C633 1.332 . S
C633 H613 0.931 . S
C633 C632 1.332 . S
C633 C634 1.267 . S
C634 H602 0.929 . S
C634 C633 1.267 . S
C634 C635 1.251 . S
C635 H605 0.929 . S
C635 N631 1.418 . S
C635 C634 1.251 . S
C636 H603 0.930 . S
C636 C638 1.406 . S
C636 C641 1.261 . S
C637 H604 0.930 . S
C637 N639 1.325 . S
C637 C640 1.357 . S
C638 H606 0.928 . S
C638 C636 1.406 . S
C638 N639 1.261 . S
N639 Co590 2.214 . S
N639 C637 1.325 . S
N639 C638 1.261 . S
C640 H610 0.931 . S
C640 C637 1.357 . S
C640 C641 1.312 . S
C641 H612 0.930 . S
C641 C636 1.261 . S
C641 C640 1.312 . S
C642 O614 1.214 . S
C642 O622 1.234 . S
C643 H615 0.929 . S
C643 C646 1.391 . S
C643 C648 1.391 . S
C644 H616 0.929 . S
C644 C645 1.390 . S
C644 N647 1.391 . S
C645 H617 0.930 . S
C645 C644 1.390 . S
C645 C646 1.392 . S
C646 H618 0.929 . S
C646 C643 1.391 . S
C646 C645 1.392 . S
N647 Co591 2.257 . S
N647 C644 1.391 . S
N647 C648 1.388 . S
C648 H619 0.930 . S
C648 C643 1.391 . S
C648 N647 1.388 . S
Co649 O651 2.143 . S
Co649 O657 2.074 . S
Co649 O660 2.093 . S
Co649 O673 2.097 . S
Co649 N690 2.151 . S
Co649 N698 2.214 . S
Co650 O651 2.160 . S
Co650 O656 2.058 . S
Co650 O666 2.057 . S
Co650 O681 2.037 . S
Co650 N685 2.145 . S
Co650 N706 2.257 . S
O651 Co649 2.143 . S
O651 Co650 2.160 . S
C652 O653 1.278 . S
C652 O660 1.224 . S
O653 C652 1.278 . S
C654 O655 1.245 . S
C654 O666 1.232 . S
O655 C654 1.245 . S
O656 Co650 2.058 . S
O656 C682 1.269 . S
O657 Co649 2.074 . S
O657 C682 1.257 . S
H658 C683 0.930 . S
H659 C689 0.930 . S
O660 Co649 2.093 . S
O660 C652 1.224 . S
H661 C693 0.929 . S
H662 C695 0.930 . S
H663 C696 0.930 . S
H664 C694 0.929 . S
H665 C697 0.928 . S
O666 Co650 2.057 . S
O666 C654 1.232 . S
H667 C686 0.929 . S
H668 C687 0.929 . S
H669 C699 0.931 . S
H670 C691 0.929 . S
H671 C700 0.930 . S
H672 C692 0.931 . S
O673 Co649 2.097 . S
O673 C701 1.214 . S
H674 C702 0.929 . S
H675 C703 0.929 . S
H676 C704 0.930 . S
H677 C705 0.929 . S
H678 C707 0.930 . S
H679 C684 0.930 . S
H680 C688 0.930 . S
O681 Co650 2.037 . S
O681 C701 1.234 . S
C682 O656 1.269 . S
C682 O657 1.257 . S
C683 H658 0.930 . S
C683 C686 1.388 . S
C683 C688 1.418 . S
C684 H679 0.930 . S
C684 C687 1.404 . S
C684 C688 1.353 . S
N685 Co650 2.145 . S
N685 C686 1.397 . S
N685 C687 1.334 . S
C686 H667 0.929 . S
C686 C683 1.388 . S
C686 N685 1.397 . S
C687 H668 0.929 . S
C687 C684 1.404 . S
C687 N685 1.334 . S
C688 H680 0.930 . S
C688 C683 1.418 . S
C688 C684 1.353 . S
C689 H659 0.930 . S
C689 N690 1.330 . S
C689 C691 1.446 . S
N690 Co649 2.151 . S
N690 C689 1.330 . S
N690 C694 1.418 . S
C691 H670 0.929 . S
C691 C689 1.446 . S
C691 C692 1.332 . S
C692 H672 0.931 . S
C692 C691 1.332 . S
C692 C693 1.267 . S
C693 H661 0.929 . S
C693 C692 1.267 . S
C693 C694 1.251 . S
C694 H664 0.929 . S
C694 N690 1.418 . S
C694 C693 1.251 . S
C695 H662 0.930 . S
C695 C697 1.406 . S
C695 C700 1.261 . S
C696 H663 0.930 . S
C696 N698 1.325 . S
C696 C699 1.357 . S
C697 H665 0.928 . S
C697 C695 1.406 . S
C697 N698 1.261 . S
N698 Co649 2.214 . S
N698 C696 1.325 . S
N698 C697 1.261 . S
C699 H669 0.931 . S
C699 C696 1.357 . S
C699 C700 1.312 . S
C700 H671 0.930 . S
C700 C695 1.261 . S
C700 C699 1.312 . S
C701 O673 1.214 . S
C701 O681 1.234 . S
C702 H674 0.929 . S
C702 C705 1.391 . S
C702 C707 1.391 . S
C703 H675 0.929 . S
C703 C704 1.390 1_565 S
C703 N706 1.391 . S
C704 H676 0.930 . S
C704 C703 1.390 1_545 S
C704 C705 1.392 . S
C705 H677 0.929 . S
C705 C702 1.391 . S
C705 C704 1.392 . S
N706 Co650 2.257 . S
N706 C703 1.391 . S
N706 C707 1.388 1_565 S
C707 H678 0.930 . S
C707 C702 1.391 . S
C707 N706 1.388 1_545 S
Co708 O710 2.143 . S
Co708 O716 2.074 . S
Co708 O719 2.093 . S
Co708 O732 2.097 . S
Co708 N749 2.151 . S
Co708 N757 2.214 . S
Co709 O710 2.160 . S
Co709 O715 2.058 . S
Co709 O725 2.057 . S
Co709 O740 2.037 . S
Co709 N744 2.145 . S
Co709 N765 2.257 . S
O710 Co708 2.143 . S
O710 Co709 2.160 . S
C711 O712 1.278 . S
C711 O719 1.224 . S
O712 C711 1.278 . S
C713 O714 1.245 . S
C713 O725 1.232 . S
O714 C713 1.245 . S
O715 Co709 2.058 . S
O715 C741 1.269 . S
O716 Co708 2.074 . S
O716 C741 1.257 . S
H717 C742 0.930 . S
H718 C748 0.930 . S
O719 Co708 2.093 . S
O719 C711 1.224 . S
H720 C752 0.929 . S
H721 C754 0.930 . S
H722 C755 0.930 . S
H723 C753 0.929 . S
H724 C756 0.928 . S
O725 Co709 2.057 . S
O725 C713 1.232 . S
H726 C745 0.929 . S
H727 C746 0.929 . S
H728 C758 0.931 . S
H729 C750 0.929 . S
H730 C759 0.930 . S
H731 C751 0.931 . S
O732 Co708 2.097 . S
O732 C760 1.214 . S
H733 C761 0.929 . S
H734 C762 0.929 . S
H735 C763 0.930 . S
H736 C764 0.929 . S
H737 C766 0.930 . S
H738 C743 0.930 . S
H739 C747 0.930 . S
O740 Co709 2.037 . S
O740 C760 1.234 . S
C741 O715 1.269 . S
C741 O716 1.257 . S
C742 H717 0.930 . S
C742 C745 1.388 . S
C742 C747 1.418 . S
C743 H738 0.930 . S
C743 C746 1.404 . S
C743 C747 1.353 . S
N744 Co709 2.145 . S
N744 C745 1.397 . S
N744 C746 1.334 . S
C745 H726 0.929 . S
C745 C742 1.388 . S
C745 N744 1.397 . S
C746 H727 0.929 . S
C746 C743 1.404 . S
C746 N744 1.334 . S
C747 H739 0.930 . S
C747 C742 1.418 . S
C747 C743 1.353 . S
C748 H718 0.930 . S
C748 N749 1.330 . S
C748 C750 1.446 . S
N749 Co708 2.151 . S
N749 C748 1.330 . S
N749 C753 1.418 . S
C750 H729 0.929 . S
C750 C748 1.446 . S
C750 C751 1.332 . S
C751 H731 0.931 . S
C751 C750 1.332 . S
C751 C752 1.267 . S
C752 H720 0.929 . S
C752 C751 1.267 . S
C752 C753 1.251 . S
C753 H723 0.929 . S
C753 N749 1.418 . S
C753 C752 1.251 . S
C754 H721 0.930 . S
C754 C756 1.406 . S
C754 C759 1.261 . S
C755 H722 0.930 . S
C755 N757 1.325 . S
C755 C758 1.357 . S
C756 H724 0.928 . S
C756 C754 1.406 . S
C756 N757 1.261 . S
N757 Co708 2.214 . S
N757 C755 1.325 . S
N757 C756 1.261 . S
C758 H728 0.931 . S
C758 C755 1.357 . S
C758 C759 1.312 . S
C759 H730 0.930 . S
C759 C754 1.261 . S
C759 C758 1.312 . S
C760 O732 1.214 . S
C760 O740 1.234 . S
C761 H733 0.929 . S
C761 C764 1.391 . S
C761 C766 1.391 . S
C762 H734 0.929 . S
C762 C763 1.390 . S
C762 N765 1.391 . S
C763 H735 0.930 . S
C763 C762 1.390 . S
C763 C764 1.392 . S
C764 H736 0.929 . S
C764 C761 1.391 . S
C764 C763 1.392 . S
N765 Co709 2.257 . S
N765 C762 1.391 . S
N765 C766 1.388 . S
C766 H737 0.930 . S
C766 C761 1.391 . S
C766 N765 1.388 . S
Co767 O769 2.143 . S
Co767 O775 2.074 . S
Co767 O778 2.093 . S
Co767 O791 2.097 . S
Co767 N808 2.151 . S
Co767 N816 2.214 . S
Co768 O769 2.160 . S
Co768 O774 2.058 . S
Co768 O784 2.057 . S
Co768 O799 2.037 . S
Co768 N803 2.145 . S
Co768 N824 2.257 . S
O769 Co767 2.143 . S
O769 Co768 2.160 . S
C770 O771 1.278 . S
C770 O778 1.224 . S
O771 C770 1.278 . S
C772 O773 1.245 . S
C772 O784 1.232 . S
O773 C772 1.245 . S
O774 Co768 2.058 . S
O774 C800 1.269 . S
O775 Co767 2.074 . S
O775 C800 1.257 . S
H776 C801 0.930 . S
H777 C807 0.930 . S
O778 Co767 2.093 . S
O778 C770 1.224 . S
H779 C811 0.929 . S
H780 C813 0.930 . S
H781 C814 0.930 . S
H782 C812 0.929 . S
H783 C815 0.928 . S
O784 Co768 2.057 . S
O784 C772 1.232 . S
H785 C804 0.929 . S
H786 C805 0.929 . S
H787 C817 0.931 . S
H788 C809 0.929 . S
H789 C818 0.930 . S
H790 C810 0.931 . S
O791 Co767 2.097 . S
O791 C819 1.214 . S
H792 C820 0.929 . S
H793 C821 0.929 . S
H794 C822 0.930 . S
H795 C823 0.929 . S
H796 C825 0.930 . S
H797 C802 0.930 . S
H798 C806 0.930 . S
O799 Co768 2.037 . S
O799 C819 1.234 . S
C800 O774 1.269 . S
C800 O775 1.257 . S
C801 H776 0.930 . S
C801 C804 1.388 . S
C801 C806 1.418 . S
C802 H797 0.930 . S
C802 C805 1.404 . S
C802 C806 1.353 . S
N803 Co768 2.145 . S
N803 C804 1.397 . S
N803 C805 1.334 . S
C804 H785 0.929 . S
C804 C801 1.388 . S
C804 N803 1.397 . S
C805 H786 0.929 . S
C805 C802 1.404 . S
C805 N803 1.334 . S
C806 H798 0.930 . S
C806 C801 1.418 . S
C806 C802 1.353 . S
C807 H777 0.930 . S
C807 N808 1.330 . S
C807 C809 1.446 . S
N808 Co767 2.151 . S
N808 C807 1.330 . S
N808 C812 1.418 . S
C809 H788 0.929 . S
C809 C807 1.446 . S
C809 C810 1.332 . S
C810 H790 0.931 . S
C810 C809 1.332 . S
C810 C811 1.267 . S
C811 H779 0.929 . S
C811 C810 1.267 . S
C811 C812 1.251 . S
C812 H782 0.929 . S
C812 N808 1.418 . S
C812 C811 1.251 . S
C813 H780 0.930 . S
C813 C815 1.406 . S
C813 C818 1.261 . S
C814 H781 0.930 . S
C814 N816 1.325 . S
C814 C817 1.357 . S
C815 H783 0.928 . S
C815 C813 1.406 . S
C815 N816 1.261 . S
N816 Co767 2.214 . S
N816 C814 1.325 . S
N816 C815 1.261 . S
C817 H787 0.931 . S
C817 C814 1.357 . S
C817 C818 1.312 . S
C818 H789 0.930 . S
C818 C813 1.261 . S
C818 C817 1.312 . S
C819 O791 1.214 . S
C819 O799 1.234 . S
C820 H792 0.929 . S
C820 C823 1.391 . S
C820 C825 1.391 . S
C821 H793 0.929 . S
C821 C822 1.390 1_545 S
C821 N824 1.391 . S
C822 H794 0.930 . S
C822 C821 1.390 1_565 S
C822 C823 1.392 . S
C823 H795 0.929 . S
C823 C820 1.391 . S
C823 C822 1.392 . S
N824 Co768 2.257 . S
N824 C821 1.391 . S
N824 C825 1.388 1_545 S
C825 H796 0.930 . S
C825 C820 1.391 . S
C825 N824 1.388 1_565 S
Co826 O828 2.143 . S
Co826 O834 2.074 . S
Co826 O837 2.093 . S
Co826 O850 2.097 . S
Co826 N867 2.151 . S
Co826 N875 2.214 . S
Co827 O828 2.160 . S
Co827 O833 2.058 . S
Co827 O843 2.057 . S
Co827 O858 2.037 . S
Co827 N862 2.145 . S
Co827 N883 2.257 . S
O828 Co826 2.143 . S
O828 Co827 2.160 . S
C829 O830 1.278 . S
C829 O837 1.224 . S
O830 C829 1.278 . S
C831 O832 1.245 . S
C831 O843 1.232 . S
O832 C831 1.245 . S
O833 Co827 2.058 . S
O833 C859 1.269 . S
O834 Co826 2.074 . S
O834 C859 1.257 . S
H835 C860 0.930 . S
H836 C866 0.930 . S
O837 Co826 2.093 . S
O837 C829 1.224 . S
H838 C870 0.929 . S
H839 C872 0.930 . S
H840 C873 0.930 . S
H841 C871 0.929 . S
H842 C874 0.928 . S
O843 Co827 2.057 . S
O843 C831 1.232 . S
H844 C863 0.929 . S
H845 C864 0.929 . S
H846 C876 0.931 . S
H847 C868 0.929 . S
H848 C877 0.930 . S
H849 C869 0.931 . S
O850 Co826 2.097 . S
O850 C878 1.214 . S
H851 C879 0.929 . S
H852 C880 0.929 . S
H853 C881 0.930 . S
H854 C882 0.929 . S
H855 C884 0.930 . S
H856 C861 0.930 . S
H857 C865 0.930 . S
O858 Co827 2.037 . S
O858 C878 1.234 . S
C859 O833 1.269 . S
C859 O834 1.257 . S
C860 H835 0.930 . S
C860 C863 1.388 . S
C860 C865 1.418 . S
C861 H856 0.930 . S
C861 C864 1.404 . S
C861 C865 1.353 . S
N862 Co827 2.145 . S
N862 C863 1.397 . S
N862 C864 1.334 . S
C863 H844 0.929 . S
C863 C860 1.388 . S
C863 N862 1.397 . S
C864 H845 0.929 . S
C864 C861 1.404 . S
C864 N862 1.334 . S
C865 H857 0.930 . S
C865 C860 1.418 . S
C865 C861 1.353 . S
C866 H836 0.930 . S
C866 N867 1.330 . S
C866 C868 1.446 . S
N867 Co826 2.151 . S
N867 C866 1.330 . S
N867 C871 1.418 . S
C868 H847 0.929 . S
C868 C866 1.446 . S
C868 C869 1.332 . S
C869 H849 0.931 . S
C869 C868 1.332 . S
C869 C870 1.267 . S
C870 H838 0.929 . S
C870 C869 1.267 . S
C870 C871 1.251 . S
C871 H841 0.929 . S
C871 N867 1.418 . S
C871 C870 1.251 . S
C872 H839 0.930 . S
C872 C874 1.406 . S
C872 C877 1.261 . S
C873 H840 0.930 . S
C873 N875 1.325 . S
C873 C876 1.357 . S
C874 H842 0.928 . S
C874 C872 1.406 . S
C874 N875 1.261 . S
N875 Co826 2.214 . S
N875 C873 1.325 . S
N875 C874 1.261 . S
C876 H846 0.931 . S
C876 C873 1.357 . S
C876 C877 1.312 . S
C877 H848 0.930 . S
C877 C872 1.261 . S
C877 C876 1.312 . S
C878 O850 1.214 . S
C878 O858 1.234 . S
C879 H851 0.929 . S
C879 C882 1.391 . S
C879 C884 1.391 . S
C880 H852 0.929 . S
C880 C881 1.390 . S
C880 N883 1.391 . S
C881 H853 0.930 . S
C881 C880 1.390 . S
C881 C882 1.392 . S
C882 H854 0.929 . S
C882 C879 1.391 . S
C882 C881 1.392 . S
N883 Co827 2.257 . S
N883 C880 1.391 . S
N883 C884 1.388 . S
C884 H855 0.930 . S
C884 C879 1.391 . S
C884 N883 1.388 . S
Co885 O887 2.143 . S
Co885 O893 2.074 . S
Co885 O896 2.093 . S
Co885 O909 2.097 . S
Co885 N926 2.151 . S
Co885 N934 2.214 . S
Co886 O887 2.160 . S
Co886 O892 2.058 . S
Co886 O902 2.057 . S
Co886 O917 2.037 . S
Co886 N921 2.145 . S
Co886 N942 2.257 . S
O887 Co885 2.143 . S
O887 Co886 2.160 . S
C888 O889 1.278 . S
C888 O896 1.224 . S
O889 C888 1.278 . S
C890 O891 1.245 . S
C890 O902 1.232 . S
O891 C890 1.245 . S
O892 Co886 2.058 . S
O892 C918 1.269 . S
O893 Co885 2.074 . S
O893 C918 1.257 . S
H894 C919 0.930 . S
H895 C925 0.930 . S
O896 Co885 2.093 . S
O896 C888 1.224 . S
H897 C929 0.929 . S
H898 C931 0.930 . S
H899 C932 0.930 . S
H900 C930 0.929 . S
H901 C933 0.928 . S
O902 Co886 2.057 . S
O902 C890 1.232 . S
H903 C922 0.929 . S
H904 C923 0.929 . S
H905 C935 0.931 . S
H906 C927 0.929 . S
H907 C936 0.930 . S
H908 C928 0.931 . S
O909 Co885 2.097 . S
O909 C937 1.214 . S
H910 C938 0.929 . S
H911 C939 0.929 . S
H912 C940 0.930 . S
H913 C941 0.929 . S
H914 C943 0.930 . S
H915 C920 0.930 . S
H916 C924 0.930 . S
O917 Co886 2.037 . S
O917 C937 1.234 . S
C918 O892 1.269 . S
C918 O893 1.257 . S
C919 H894 0.930 . S
C919 C922 1.388 . S
C919 C924 1.418 . S
C920 H915 0.930 . S
C920 C923 1.404 . S
C920 C924 1.353 . S
N921 Co886 2.145 . S
N921 C922 1.397 . S
N921 C923 1.334 . S
C922 H903 0.929 . S
C922 C919 1.388 . S
C922 N921 1.397 . S
C923 H904 0.929 . S
C923 C920 1.404 . S
C923 N921 1.334 . S
C924 H916 0.930 . S
C924 C919 1.418 . S
C924 C920 1.353 . S
C925 H895 0.930 . S
C925 N926 1.330 . S
C925 C927 1.446 . S
N926 Co885 2.151 . S
N926 C925 1.330 . S
N926 C930 1.418 . S
C927 H906 0.929 . S
C927 C925 1.446 . S
C927 C928 1.332 . S
C928 H908 0.931 . S
C928 C927 1.332 . S
C928 C929 1.267 . S
C929 H897 0.929 . S
C929 C928 1.267 . S
C929 C930 1.251 . S
C930 H900 0.929 . S
C930 N926 1.418 . S
C930 C929 1.251 . S
C931 H898 0.930 . S
C931 C933 1.406 . S
C931 C936 1.261 . S
C932 H899 0.930 . S
C932 N934 1.325 . S
C932 C935 1.357 . S
C933 H901 0.928 . S
C933 C931 1.406 . S
C933 N934 1.261 . S
N934 Co885 2.214 . S
N934 C932 1.325 . S
N934 C933 1.261 . S
C935 H905 0.931 . S
C935 C932 1.357 . S
C935 C936 1.312 . S
C936 H907 0.930 . S
C936 C931 1.261 . S
C936 C935 1.312 . S
C937 O909 1.214 . S
C937 O917 1.234 . S
C938 H910 0.929 . S
C938 C941 1.391 1_655 S
C938 C943 1.391 . S
C939 H911 0.929 . S
C939 C940 1.390 1_665 S
C939 N942 1.391 . S
C940 H912 0.930 . S
C940 C939 1.390 1_445 S
C940 C941 1.392 . S
C941 H913 0.929 . S
C941 C938 1.391 1_455 S
C941 C940 1.392 . S
N942 Co886 2.257 . S
N942 C939 1.391 . S
N942 C943 1.388 1_565 S
C943 H914 0.930 . S
C943 C938 1.391 . S
C943 N942 1.388 1_545 S
Co944 O946 2.143 . S
Co944 O952 2.074 . S
Co944 O955 2.093 . S
Co944 O968 2.097 . S
Co944 N985 2.151 . S
Co944 N993 2.214 . S
Co945 O946 2.160 . S
Co945 O951 2.058 . S
Co945 O961 2.057 . S
Co945 O976 2.037 . S
Co945 N980 2.145 . S
Co945 N1001 2.257 . S
O946 Co944 2.143 . S
O946 Co945 2.160 . S
C947 O948 1.278 . S
C947 O955 1.224 . S
O948 C947 1.278 . S
C949 O950 1.245 . S
C949 O961 1.232 . S
O950 C949 1.245 . S
O951 Co945 2.058 . S
O951 C977 1.269 . S
O952 Co944 2.074 . S
O952 C977 1.257 . S
H953 C978 0.930 . S
H954 C984 0.930 . S
O955 Co944 2.093 . S
O955 C947 1.224 . S
H956 C988 0.929 . S
H957 C990 0.930 . S
H958 C991 0.930 . S
H959 C989 0.929 . S
H960 C992 0.928 . S
O961 Co945 2.057 . S
O961 C949 1.232 . S
H962 C981 0.929 . S
H963 C982 0.929 . S
H964 C994 0.931 . S
H965 C986 0.929 . S
H966 C995 0.930 . S
H967 C987 0.931 . S
O968 Co944 2.097 . S
O968 C996 1.214 . S
H969 C997 0.929 . S
H970 C998 0.929 . S
H971 C999 0.930 . S
H972 C1000 0.929 . S
H973 C1002 0.930 . S
H974 C979 0.930 . S
H975 C983 0.930 . S
O976 Co945 2.037 . S
O976 C996 1.234 . S
C977 O951 1.269 . S
C977 O952 1.257 . S
C978 H953 0.930 . S
C978 C981 1.388 . S
C978 C983 1.418 . S
C979 H974 0.930 . S
C979 C982 1.404 . S
C979 C983 1.353 . S
N980 Co945 2.145 . S
N980 C981 1.397 . S
N980 C982 1.334 . S
C981 H962 0.929 . S
C981 C978 1.388 . S
C981 N980 1.397 . S
C982 H963 0.929 . S
C982 C979 1.404 . S
C982 N980 1.334 . S
C983 H975 0.930 . S
C983 C978 1.418 . S
C983 C979 1.353 . S
C984 H954 0.930 . S
C984 N985 1.330 . S
C984 C986 1.446 . S
N985 Co944 2.151 . S
N985 C984 1.330 . S
N985 C989 1.418 . S
C986 H965 0.929 . S
C986 C984 1.446 . S
C986 C987 1.332 . S
C987 H967 0.931 . S
C987 C986 1.332 . S
C987 C988 1.267 . S
C988 H956 0.929 . S
C988 C987 1.267 . S
C988 C989 1.251 . S
C989 H959 0.929 . S
C989 N985 1.418 . S
C989 C988 1.251 . S
C990 H957 0.930 . S
C990 C992 1.406 . S
C990 C995 1.261 . S
C991 H958 0.930 . S
C991 N993 1.325 . S
C991 C994 1.357 . S
C992 H960 0.928 . S
C992 C990 1.406 . S
C992 N993 1.261 . S
N993 Co944 2.214 . S
N993 C991 1.325 . S
N993 C992 1.261 . S
C994 H964 0.931 . S
C994 C991 1.357 . S
C994 C995 1.312 . S
C995 H966 0.930 . S
C995 C990 1.261 . S
C995 C994 1.312 . S
C996 O968 1.214 . S
C996 O976 1.234 . S
C997 H969 0.929 . S
C997 C1000 1.391 . S
C997 C1002 1.391 . S
C998 H970 0.929 . S
C998 C999 1.390 . S
C998 N1001 1.391 . S
C999 H971 0.930 . S
C999 C998 1.390 . S
C999 C1000 1.392 . S
C1000 H972 0.929 . S
C1000 C997 1.391 . S
C1000 C999 1.392 . S
N1001 Co945 2.257 . S
N1001 C998 1.391 . S
N1001 C1002 1.388 . S
C1002 H973 0.930 . S
C1002 C997 1.391 . S
C1002 N1001 1.388 . S
Co1003 O1005 2.143 . S
Co1003 O1011 2.074 . S
Co1003 O1014 2.093 . S
Co1003 O1027 2.097 . S
Co1003 N1044 2.151 . S
Co1003 N1052 2.214 . S
Co1004 O1005 2.160 . S
Co1004 O1010 2.058 . S
Co1004 O1020 2.057 . S
Co1004 O1035 2.037 . S
Co1004 N1039 2.145 . S
Co1004 N1060 2.257 . S
O1005 Co1003 2.143 . S
O1005 Co1004 2.160 . S
C1006 O1007 1.278 . S
C1006 O1014 1.224 . S
O1007 C1006 1.278 . S
C1008 O1009 1.245 . S
C1008 O1020 1.232 . S
O1009 C1008 1.245 . S
O1010 Co1004 2.058 . S
O1010 C1036 1.269 . S
O1011 Co1003 2.074 . S
O1011 C1036 1.257 . S
H1012 C1037 0.930 . S
H1013 C1043 0.930 . S
O1014 Co1003 2.093 . S
O1014 C1006 1.224 . S
H1015 C1047 0.929 . S
H1016 C1049 0.930 . S
H1017 C1050 0.930 . S
H1018 C1048 0.929 . S
H1019 C1051 0.928 . S
O1020 Co1004 2.057 . S
O1020 C1008 1.232 . S
H1021 C1040 0.929 . S
H1022 C1041 0.929 . S
H1023 C1053 0.931 . S
H1024 C1045 0.929 . S
H1025 C1054 0.930 . S
H1026 C1046 0.931 . S
O1027 Co1003 2.097 . S
O1027 C1055 1.214 . S
H1028 C1056 0.929 . S
H1029 C1057 0.929 . S
H1030 C1058 0.930 . S
H1031 C1059 0.929 . S
H1032 C1061 0.930 . S
H1033 C1038 0.930 . S
H1034 C1042 0.930 . S
O1035 Co1004 2.037 . S
O1035 C1055 1.234 . S
C1036 O1010 1.269 . S
C1036 O1011 1.257 . S
C1037 H1012 0.930 . S
C1037 C1040 1.388 . S
C1037 C1042 1.418 . S
C1038 H1033 0.930 . S
C1038 C1041 1.404 . S
C1038 C1042 1.353 . S
N1039 Co1004 2.145 . S
N1039 C1040 1.397 . S
N1039 C1041 1.334 . S
C1040 H1021 0.929 . S
C1040 C1037 1.388 . S
C1040 N1039 1.397 . S
C1041 H1022 0.929 . S
C1041 C1038 1.404 . S
C1041 N1039 1.334 . S
C1042 H1034 0.930 . S
C1042 C1037 1.418 . S
C1042 C1038 1.353 . S
C1043 H1013 0.930 . S
C1043 N1044 1.330 . S
C1043 C1045 1.446 . S
N1044 Co1003 2.151 . S
N1044 C1043 1.330 . S
N1044 C1048 1.418 . S
C1045 H1024 0.929 . S
C1045 C1043 1.446 . S
C1045 C1046 1.332 . S
C1046 H1026 0.931 . S
C1046 C1045 1.332 . S
C1046 C1047 1.267 . S
C1047 H1015 0.929 . S
C1047 C1046 1.267 . S
C1047 C1048 1.251 . S
C1048 H1018 0.929 . S
C1048 N1044 1.418 . S
C1048 C1047 1.251 . S
C1049 H1016 0.930 . S
C1049 C1051 1.406 . S
C1049 C1054 1.261 . S
C1050 H1017 0.930 . S
C1050 N1052 1.325 . S
C1050 C1053 1.357 . S
C1051 H1019 0.928 . S
C1051 C1049 1.406 . S
C1051 N1052 1.261 . S
N1052 Co1003 2.214 . S
N1052 C1050 1.325 . S
N1052 C1051 1.261 . S
C1053 H1023 0.931 . S
C1053 C1050 1.357 . S
C1053 C1054 1.312 . S
C1054 H1025 0.930 . S
C1054 C1049 1.261 . S
C1054 C1053 1.312 . S
C1055 O1027 1.214 . S
C1055 O1035 1.234 . S
C1056 H1028 0.929 . S
C1056 C1059 1.391 . S
C1056 C1061 1.391 . S
C1057 H1029 0.929 . S
C1057 C1058 1.390 . S
C1057 N1060 1.391 . S
C1058 H1030 0.930 . S
C1058 C1057 1.390 . S
C1058 C1059 1.392 . S
C1059 H1031 0.929 . S
C1059 C1056 1.391 . S
C1059 C1058 1.392 . S
N1060 Co1004 2.257 . S
N1060 C1057 1.391 . S
N1060 C1061 1.388 . S
C1061 H1032 0.930 . S
C1061 C1056 1.391 . S
C1061 N1060 1.388 . S
Co1062 O1064 2.143 . S
Co1062 O1070 2.074 . S
Co1062 O1073 2.093 . S
Co1062 O1086 2.097 . S
Co1062 N1103 2.151 . S
Co1062 N1111 2.214 . S
Co1063 O1064 2.160 . S
Co1063 O1069 2.058 . S
Co1063 O1079 2.057 . S
Co1063 O1094 2.037 . S
Co1063 N1098 2.145 . S
Co1063 N1119 2.257 . S
O1064 Co1062 2.143 . S
O1064 Co1063 2.160 . S
C1065 O1066 1.278 . S
C1065 O1073 1.224 . S
O1066 C1065 1.278 . S
C1067 O1068 1.245 . S
C1067 O1079 1.232 . S
O1068 C1067 1.245 . S
O1069 Co1063 2.058 . S
O1069 C1095 1.269 . S
O1070 Co1062 2.074 . S
O1070 C1095 1.257 . S
H1071 C1096 0.930 . S
H1072 C1102 0.930 . S
O1073 Co1062 2.093 . S
O1073 C1065 1.224 . S
H1074 C1106 0.929 . S
H1075 C1108 0.930 . S
H1076 C1109 0.930 . S
H1077 C1107 0.929 . S
H1078 C1110 0.928 . S
O1079 Co1063 2.057 . S
O1079 C1067 1.232 . S
H1080 C1099 0.929 . S
H1081 C1100 0.929 . S
H1082 C1112 0.931 . S
H1083 C1104 0.929 . S
H1084 C1113 0.930 . S
H1085 C1105 0.931 . S
O1086 Co1062 2.097 . S
O1086 C1114 1.214 . S
H1087 C1115 0.929 . S
H1088 C1116 0.929 . S
H1089 C1117 0.930 . S
H1090 C1118 0.929 . S
H1091 C1120 0.930 . S
H1092 C1097 0.930 . S
H1093 C1101 0.930 . S
O1094 Co1063 2.037 . S
O1094 C1114 1.234 . S
C1095 O1069 1.269 . S
C1095 O1070 1.257 . S
C1096 H1071 0.930 . S
C1096 C1099 1.388 . S
C1096 C1101 1.418 . S
C1097 H1092 0.930 . S
C1097 C1100 1.404 . S
C1097 C1101 1.353 . S
N1098 Co1063 2.145 . S
N1098 C1099 1.397 . S
N1098 C1100 1.334 . S
C1099 H1080 0.929 . S
C1099 C1096 1.388 . S
C1099 N1098 1.397 . S
C1100 H1081 0.929 . S
C1100 C1097 1.404 . S
C1100 N1098 1.334 . S
C1101 H1093 0.930 . S
C1101 C1096 1.418 . S
C1101 C1097 1.353 . S
C1102 H1072 0.930 . S
C1102 N1103 1.330 . S
C1102 C1104 1.446 . S
N1103 Co1062 2.151 . S
N1103 C1102 1.330 . S
N1103 C1107 1.418 . S
C1104 H1083 0.929 . S
C1104 C1102 1.446 . S
C1104 C1105 1.332 . S
C1105 H1085 0.931 . S
C1105 C1104 1.332 . S
C1105 C1106 1.267 . S
C1106 H1074 0.929 . S
C1106 C1105 1.267 . S
C1106 C1107 1.251 . S
C1107 H1077 0.929 . S
C1107 N1103 1.418 . S
C1107 C1106 1.251 . S
C1108 H1075 0.930 . S
C1108 C1110 1.406 . S
C1108 C1113 1.261 . S
C1109 H1076 0.930 . S
C1109 N1111 1.325 . S
C1109 C1112 1.357 . S
C1110 H1078 0.928 . S
C1110 C1108 1.406 . S
C1110 N1111 1.261 . S
N1111 Co1062 2.214 . S
N1111 C1109 1.325 . S
N1111 C1110 1.261 . S
C1112 H1082 0.931 . S
C1112 C1109 1.357 . S
C1112 C1113 1.312 . S
C1113 H1084 0.930 . S
C1113 C1108 1.261 . S
C1113 C1112 1.312 . S
C1114 O1086 1.214 . S
C1114 O1094 1.234 . S
C1115 H1087 0.929 . S
C1115 C1118 1.391 . S
C1115 C1120 1.391 . S
C1116 H1088 0.929 . S
C1116 C1117 1.390 . S
C1116 N1119 1.391 . S
C1117 H1089 0.930 . S
C1117 C1116 1.390 . S
C1117 C1118 1.392 . S
C1118 H1090 0.929 . S
C1118 C1115 1.391 . S
C1118 C1117 1.392 . S
N1119 Co1063 2.257 . S
N1119 C1116 1.391 . S
N1119 C1120 1.388 . S
C1120 H1091 0.930 . S
C1120 C1115 1.391 . S
C1120 N1119 1.388 . S
Co1121 O1123 2.143 . S
Co1121 O1129 2.074 . S
Co1121 O1132 2.093 . S
Co1121 O1145 2.097 . S
Co1121 N1162 2.151 . S
Co1121 N1170 2.214 . S
Co1122 O1123 2.160 . S
Co1122 O1128 2.058 . S
Co1122 O1138 2.057 . S
Co1122 O1153 2.037 . S
Co1122 N1157 2.145 . S
Co1122 N1178 2.257 . S
O1123 Co1121 2.143 . S
O1123 Co1122 2.160 . S
C1124 O1125 1.278 . S
C1124 O1132 1.224 . S
O1125 C1124 1.278 . S
C1126 O1127 1.245 . S
C1126 O1138 1.232 . S
O1127 C1126 1.245 . S
O1128 Co1122 2.058 . S
O1128 C1154 1.269 . S
O1129 Co1121 2.074 . S
O1129 C1154 1.257 . S
H1130 C1155 0.930 . S
H1131 C1161 0.930 . S
O1132 Co1121 2.093 . S
O1132 C1124 1.224 . S
H1133 C1165 0.929 . S
H1134 C1167 0.930 . S
H1135 C1168 0.930 . S
H1136 C1166 0.929 . S
H1137 C1169 0.928 . S
O1138 Co1122 2.057 . S
O1138 C1126 1.232 . S
H1139 C1158 0.929 . S
H1140 C1159 0.929 . S
H1141 C1171 0.931 . S
H1142 C1163 0.929 . S
H1143 C1172 0.930 . S
H1144 C1164 0.931 . S
O1145 Co1121 2.097 . S
O1145 C1173 1.214 . S
H1146 C1174 0.929 . S
H1147 C1175 0.929 . S
H1148 C1176 0.930 . S
H1149 C1177 0.929 . S
H1150 C1179 0.930 . S
H1151 C1156 0.930 . S
H1152 C1160 0.930 . S
O1153 Co1122 2.037 . S
O1153 C1173 1.234 . S
C1154 O1128 1.269 . S
C1154 O1129 1.257 . S
C1155 H1130 0.930 . S
C1155 C1158 1.388 . S
C1155 C1160 1.418 . S
C1156 H1151 0.930 . S
C1156 C1159 1.404 . S
C1156 C1160 1.353 . S
N1157 Co1122 2.145 . S
N1157 C1158 1.397 . S
N1157 C1159 1.334 . S
C1158 H1139 0.929 . S
C1158 C1155 1.388 . S
C1158 N1157 1.397 . S
C1159 H1140 0.929 . S
C1159 C1156 1.404 . S
C1159 N1157 1.334 . S
C1160 H1152 0.930 . S
C1160 C1155 1.418 . S
C1160 C1156 1.353 . S
C1161 H1131 0.930 . S
C1161 N1162 1.330 . S
C1161 C1163 1.446 . S
N1162 Co1121 2.151 . S
N1162 C1161 1.330 . S
N1162 C1166 1.418 . S
C1163 H1142 0.929 . S
C1163 C1161 1.446 . S
C1163 C1164 1.332 . S
C1164 H1144 0.931 . S
C1164 C1163 1.332 . S
C1164 C1165 1.267 . S
C1165 H1133 0.929 . S
C1165 C1164 1.267 . S
C1165 C1166 1.251 . S
C1166 H1136 0.929 . S
C1166 N1162 1.418 . S
C1166 C1165 1.251 . S
C1167 H1134 0.930 . S
C1167 C1169 1.406 . S
C1167 C1172 1.261 . S
C1168 H1135 0.930 . S
C1168 N1170 1.325 . S
C1168 C1171 1.357 . S
C1169 H1137 0.928 . S
C1169 C1167 1.406 . S
C1169 N1170 1.261 . S
N1170 Co1121 2.214 . S
N1170 C1168 1.325 . S
N1170 C1169 1.261 . S
C1171 H1141 0.931 . S
C1171 C1168 1.357 . S
C1171 C1172 1.312 . S
C1172 H1143 0.930 . S
C1172 C1167 1.261 . S
C1172 C1171 1.312 . S
C1173 O1145 1.214 . S
C1173 O1153 1.234 . S
C1174 H1146 0.929 . S
C1174 C1177 1.391 1_655 S
C1174 C1179 1.391 . S
C1175 H1147 0.929 . S
C1175 C1176 1.390 1_655 S
C1175 N1178 1.391 . S
C1176 H1148 0.930 . S
C1176 C1175 1.390 1_455 S
C1176 C1177 1.392 . S
C1177 H1149 0.929 . S
C1177 C1174 1.391 1_455 S
C1177 C1176 1.392 . S
N1178 Co1122 2.257 . S
N1178 C1175 1.391 . S
N1178 C1179 1.388 . S
C1179 H1150 0.930 . S
C1179 C1174 1.391 . S
C1179 N1178 1.388 . S
Co1180 O1182 2.143 . S
Co1180 O1188 2.074 . S
Co1180 O1191 2.093 . S
Co1180 O1204 2.097 . S
Co1180 N1221 2.151 . S
Co1180 N1229 2.214 . S
Co1181 O1182 2.160 . S
Co1181 O1187 2.058 . S
Co1181 O1197 2.057 . S
Co1181 O1212 2.037 . S
Co1181 N1216 2.145 . S
Co1181 N1237 2.257 . S
O1182 Co1180 2.143 . S
O1182 Co1181 2.160 . S
C1183 O1184 1.278 . S
C1183 O1191 1.224 . S
O1184 C1183 1.278 . S
C1185 O1186 1.245 . S
C1185 O1197 1.232 . S
O1186 C1185 1.245 . S
O1187 Co1181 2.058 . S
O1187 C1213 1.269 . S
O1188 Co1180 2.074 . S
O1188 C1213 1.257 . S
H1189 C1214 0.930 . S
H1190 C1220 0.930 . S
O1191 Co1180 2.093 . S
O1191 C1183 1.224 . S
H1192 C1224 0.929 . S
H1193 C1226 0.930 . S
H1194 C1227 0.930 . S
H1195 C1225 0.929 . S
H1196 C1228 0.928 . S
O1197 Co1181 2.057 . S
O1197 C1185 1.232 . S
H1198 C1217 0.929 . S
H1199 C1218 0.929 . S
H1200 C1230 0.931 . S
H1201 C1222 0.929 . S
H1202 C1231 0.930 . S
H1203 C1223 0.931 . S
O1204 Co1180 2.097 . S
O1204 C1232 1.214 . S
H1205 C1233 0.929 . S
H1206 C1234 0.929 . S
H1207 C1235 0.930 . S
H1208 C1236 0.929 . S
H1209 C1238 0.930 . S
H1210 C1215 0.930 . S
H1211 C1219 0.930 . S
O1212 Co1181 2.037 . S
O1212 C1232 1.234 . S
C1213 O1187 1.269 . S
C1213 O1188 1.257 . S
C1214 H1189 0.930 . S
C1214 C1217 1.388 . S
C1214 C1219 1.418 . S
C1215 H1210 0.930 . S
C1215 C1218 1.404 . S
C1215 C1219 1.353 . S
N1216 Co1181 2.145 . S
N1216 C1217 1.397 . S
N1216 C1218 1.334 . S
C1217 H1198 0.929 . S
C1217 C1214 1.388 . S
C1217 N1216 1.397 . S
C1218 H1199 0.929 . S
C1218 C1215 1.404 . S
C1218 N1216 1.334 . S
C1219 H1211 0.930 . S
C1219 C1214 1.418 . S
C1219 C1215 1.353 . S
C1220 H1190 0.930 . S
C1220 N1221 1.330 . S
C1220 C1222 1.446 . S
N1221 Co1180 2.151 . S
N1221 C1220 1.330 . S
N1221 C1225 1.418 . S
C1222 H1201 0.929 . S
C1222 C1220 1.446 . S
C1222 C1223 1.332 . S
C1223 H1203 0.931 . S
C1223 C1222 1.332 . S
C1223 C1224 1.267 . S
C1224 H1192 0.929 . S
C1224 C1223 1.267 . S
C1224 C1225 1.251 . S
C1225 H1195 0.929 . S
C1225 N1221 1.418 . S
C1225 C1224 1.251 . S
C1226 H1193 0.930 . S
C1226 C1228 1.406 . S
C1226 C1231 1.261 . S
C1227 H1194 0.930 . S
C1227 N1229 1.325 . S
C1227 C1230 1.357 . S
C1228 H1196 0.928 . S
C1228 C1226 1.406 . S
C1228 N1229 1.261 . S
N1229 Co1180 2.214 . S
N1229 C1227 1.325 . S
N1229 C1228 1.261 . S
C1230 H1200 0.931 . S
C1230 C1227 1.357 . S
C1230 C1231 1.312 . S
C1231 H1202 0.930 . S
C1231 C1226 1.261 . S
C1231 C1230 1.312 . S
C1232 O1204 1.214 . S
C1232 O1212 1.234 . S
C1233 H1205 0.929 . S
C1233 C1236 1.391 . S
C1233 C1238 1.391 . S
C1234 H1206 0.929 . S
C1234 C1235 1.390 . S
C1234 N1237 1.391 . S
C1235 H1207 0.930 . S
C1235 C1234 1.390 . S
C1235 C1236 1.392 . S
C1236 H1208 0.929 . S
C1236 C1233 1.391 . S
C1236 C1235 1.392 . S
N1237 Co1181 2.257 . S
N1237 C1234 1.391 . S
N1237 C1238 1.388 . S
C1238 H1209 0.930 . S
C1238 C1233 1.391 . S
C1238 N1237 1.388 . S
Co1239 O1241 2.143 . S
Co1239 O1247 2.074 . S
Co1239 O1250 2.093 . S
Co1239 O1263 2.097 . S
Co1239 N1280 2.151 . S
Co1239 N1288 2.214 . S
Co1240 O1241 2.160 . S
Co1240 O1246 2.058 . S
Co1240 O1256 2.057 . S
Co1240 O1271 2.037 . S
Co1240 N1275 2.145 . S
Co1240 N1296 2.257 . S
O1241 Co1239 2.143 . S
O1241 Co1240 2.160 . S
C1242 O1243 1.278 . S
C1242 O1250 1.224 . S
O1243 C1242 1.278 . S
C1244 O1245 1.245 . S
C1244 O1256 1.232 . S
O1245 C1244 1.245 . S
O1246 Co1240 2.058 . S
O1246 C1272 1.269 . S
O1247 Co1239 2.074 . S
O1247 C1272 1.257 . S
H1248 C1273 0.930 . S
H1249 C1279 0.930 . S
O1250 Co1239 2.093 . S
O1250 C1242 1.224 . S
H1251 C1283 0.929 . S
H1252 C1285 0.930 . S
H1253 C1286 0.930 . S
H1254 C1284 0.929 . S
H1255 C1287 0.928 . S
O1256 Co1240 2.057 . S
O1256 C1244 1.232 . S
H1257 C1276 0.929 . S
H1258 C1277 0.929 . S
H1259 C1289 0.931 . S
H1260 C1281 0.929 . S
H1261 C1290 0.930 . S
H1262 C1282 0.931 . S
O1263 Co1239 2.097 . S
O1263 C1291 1.214 . S
H1264 C1292 0.929 . S
H1265 C1293 0.929 . S
H1266 C1294 0.930 . S
H1267 C1295 0.929 . S
H1268 C1297 0.930 . S
H1269 C1274 0.930 . S
H1270 C1278 0.930 . S
O1271 Co1240 2.037 . S
O1271 C1291 1.234 . S
C1272 O1246 1.269 . S
C1272 O1247 1.257 . S
C1273 H1248 0.930 . S
C1273 C1276 1.388 . S
C1273 C1278 1.418 . S
C1274 H1269 0.930 . S
C1274 C1277 1.404 . S
C1274 C1278 1.353 . S
N1275 Co1240 2.145 . S
N1275 C1276 1.397 . S
N1275 C1277 1.334 . S
C1276 H1257 0.929 . S
C1276 C1273 1.388 . S
C1276 N1275 1.397 . S
C1277 H1258 0.929 . S
C1277 C1274 1.404 . S
C1277 N1275 1.334 . S
C1278 H1270 0.930 . S
C1278 C1273 1.418 . S
C1278 C1274 1.353 . S
C1279 H1249 0.930 . S
C1279 N1280 1.330 . S
C1279 C1281 1.446 . S
N1280 Co1239 2.151 . S
N1280 C1279 1.330 . S
N1280 C1284 1.418 . S
C1281 H1260 0.929 . S
C1281 C1279 1.446 . S
C1281 C1282 1.332 . S
C1282 H1262 0.931 . S
C1282 C1281 1.332 . S
C1282 C1283 1.267 . S
C1283 H1251 0.929 . S
C1283 C1282 1.267 . S
C1283 C1284 1.251 . S
C1284 H1254 0.929 . S
C1284 N1280 1.418 . S
C1284 C1283 1.251 . S
C1285 H1252 0.930 . S
C1285 C1287 1.406 . S
C1285 C1290 1.261 . S
C1286 H1253 0.930 . S
C1286 N1288 1.325 . S
C1286 C1289 1.357 . S
C1287 H1255 0.928 . S
C1287 C1285 1.406 . S
C1287 N1288 1.261 . S
N1288 Co1239 2.214 . S
N1288 C1286 1.325 . S
N1288 C1287 1.261 . S
C1289 H1259 0.931 . S
C1289 C1286 1.357 . S
C1289 C1290 1.312 . S
C1290 H1261 0.930 . S
C1290 C1285 1.261 . S
C1290 C1289 1.312 . S
C1291 O1263 1.214 . S
C1291 O1271 1.234 . S
C1292 H1264 0.929 . S
C1292 C1295 1.391 1_655 S
C1292 C1297 1.391 . S
C1293 H1265 0.929 . S
C1293 C1294 1.390 1_655 S
C1293 N1296 1.391 . S
C1294 H1266 0.930 . S
C1294 C1293 1.390 1_455 S
C1294 C1295 1.392 . S
C1295 H1267 0.929 . S
C1295 C1292 1.391 1_455 S
C1295 C1294 1.392 . S
N1296 Co1240 2.257 . S
N1296 C1293 1.391 . S
N1296 C1297 1.388 . S
C1297 H1268 0.930 . S
C1297 C1292 1.391 . S
C1297 N1296 1.388 . S
Co1298 O1300 2.143 . S
Co1298 O1306 2.074 . S
Co1298 O1309 2.093 . S
Co1298 O1322 2.097 . S
Co1298 N1339 2.151 . S
Co1298 N1347 2.214 . S
Co1299 O1300 2.160 . S
Co1299 O1305 2.058 . S
Co1299 O1315 2.057 . S
Co1299 O1330 2.037 . S
Co1299 N1334 2.145 . S
Co1299 N1355 2.257 . S
O1300 Co1298 2.143 . S
O1300 Co1299 2.160 . S
C1301 O1302 1.278 . S
C1301 O1309 1.224 . S
O1302 C1301 1.278 . S
C1303 O1304 1.245 . S
C1303 O1315 1.232 . S
O1304 C1303 1.245 . S
O1305 Co1299 2.058 . S
O1305 C1331 1.269 . S
O1306 Co1298 2.074 . S
O1306 C1331 1.257 . S
H1307 C1332 0.930 . S
H1308 C1338 0.930 . S
O1309 Co1298 2.093 . S
O1309 C1301 1.224 . S
H1310 C1342 0.929 . S
H1311 C1344 0.930 . S
H1312 C1345 0.930 . S
H1313 C1343 0.929 . S
H1314 C1346 0.928 . S
O1315 Co1299 2.057 . S
O1315 C1303 1.232 . S
H1316 C1335 0.929 . S
H1317 C1336 0.929 . S
H1318 C1348 0.931 . S
H1319 C1340 0.929 . S
H1320 C1349 0.930 . S
H1321 C1341 0.931 . S
O1322 Co1298 2.097 . S
O1322 C1350 1.214 . S
H1323 C1351 0.929 . S
H1324 C1352 0.929 . S
H1325 C1353 0.930 . S
H1326 C1354 0.929 . S
H1327 C1356 0.930 . S
H1328 C1333 0.930 . S
H1329 C1337 0.930 . S
O1330 Co1299 2.037 . S
O1330 C1350 1.234 . S
C1331 O1305 1.269 . S
C1331 O1306 1.257 . S
C1332 H1307 0.930 . S
C1332 C1335 1.388 . S
C1332 C1337 1.418 . S
C1333 H1328 0.930 . S
C1333 C1336 1.404 . S
C1333 C1337 1.353 . S
N1334 Co1299 2.145 . S
N1334 C1335 1.397 . S
N1334 C1336 1.334 . S
C1335 H1316 0.929 . S
C1335 C1332 1.388 . S
C1335 N1334 1.397 . S
C1336 H1317 0.929 . S
C1336 C1333 1.404 . S
C1336 N1334 1.334 . S
C1337 H1329 0.930 . S
C1337 C1332 1.418 . S
C1337 C1333 1.353 . S
C1338 H1308 0.930 . S
C1338 N1339 1.330 . S
C1338 C1340 1.446 . S
N1339 Co1298 2.151 . S
N1339 C1338 1.330 . S
N1339 C1343 1.418 . S
C1340 H1319 0.929 . S
C1340 C1338 1.446 . S
C1340 C1341 1.332 . S
C1341 H1321 0.931 . S
C1341 C1340 1.332 . S
C1341 C1342 1.267 . S
C1342 H1310 0.929 . S
C1342 C1341 1.267 . S
C1342 C1343 1.251 . S
C1343 H1313 0.929 . S
C1343 N1339 1.418 . S
C1343 C1342 1.251 . S
C1344 H1311 0.930 . S
C1344 C1346 1.406 . S
C1344 C1349 1.261 . S
C1345 H1312 0.930 . S
C1345 N1347 1.325 . S
C1345 C1348 1.357 . S
C1346 H1314 0.928 . S
C1346 C1344 1.406 . S
C1346 N1347 1.261 . S
N1347 Co1298 2.214 . S
N1347 C1345 1.325 . S
N1347 C1346 1.261 . S
C1348 H1318 0.931 . S
C1348 C1345 1.357 . S
C1348 C1349 1.312 . S
C1349 H1320 0.930 . S
C1349 C1344 1.261 . S
C1349 C1348 1.312 . S
C1350 O1322 1.214 . S
C1350 O1330 1.234 . S
C1351 H1323 0.929 . S
C1351 C1354 1.391 . S
C1351 C1356 1.391 . S
C1352 H1324 0.929 . S
C1352 C1353 1.390 . S
C1352 N1355 1.391 . S
C1353 H1325 0.930 . S
C1353 C1352 1.390 . S
C1353 C1354 1.392 . S
C1354 H1326 0.929 . S
C1354 C1351 1.391 . S
C1354 C1353 1.392 . S
N1355 Co1299 2.257 . S
N1355 C1352 1.391 . S
N1355 C1356 1.388 . S
C1356 H1327 0.930 . S
C1356 C1351 1.391 . S
C1356 N1355 1.388 . S
Co1357 O1359 2.143 . S
Co1357 O1365 2.074 . S
Co1357 O1368 2.093 . S
Co1357 O1381 2.097 . S
Co1357 N1398 2.151 . S
Co1357 N1406 2.214 . S
Co1358 O1359 2.160 . S
Co1358 O1364 2.058 . S
Co1358 O1374 2.057 . S
Co1358 O1389 2.037 . S
Co1358 N1393 2.145 . S
Co1358 N1414 2.257 . S
O1359 Co1357 2.143 . S
O1359 Co1358 2.160 . S
C1360 O1361 1.278 . S
C1360 O1368 1.224 . S
O1361 C1360 1.278 . S
C1362 O1363 1.245 . S
C1362 O1374 1.232 . S
O1363 C1362 1.245 . S
O1364 Co1358 2.058 . S
O1364 C1390 1.269 . S
O1365 Co1357 2.074 . S
O1365 C1390 1.257 . S
H1366 C1391 0.930 . S
H1367 C1397 0.930 . S
O1368 Co1357 2.093 . S
O1368 C1360 1.224 . S
H1369 C1401 0.929 . S
H1370 C1403 0.930 . S
H1371 C1404 0.930 . S
H1372 C1402 0.929 . S
H1373 C1405 0.928 . S
O1374 Co1358 2.057 . S
O1374 C1362 1.232 . S
H1375 C1394 0.929 . S
H1376 C1395 0.929 . S
H1377 C1407 0.931 . S
H1378 C1399 0.929 . S
H1379 C1408 0.930 . S
H1380 C1400 0.931 . S
O1381 Co1357 2.097 . S
O1381 C1409 1.214 . S
H1382 C1410 0.929 . S
H1383 C1411 0.929 . S
H1384 C1412 0.930 . S
H1385 C1413 0.929 . S
H1386 C1415 0.930 . S
H1387 C1392 0.930 . S
H1388 C1396 0.930 . S
O1389 Co1358 2.037 . S
O1389 C1409 1.234 . S
C1390 O1364 1.269 . S
C1390 O1365 1.257 . S
C1391 H1366 0.930 . S
C1391 C1394 1.388 . S
C1391 C1396 1.418 . S
C1392 H1387 0.930 . S
C1392 C1395 1.404 . S
C1392 C1396 1.353 . S
N1393 Co1358 2.145 . S
N1393 C1394 1.397 . S
N1393 C1395 1.334 . S
C1394 H1375 0.929 . S
C1394 C1391 1.388 . S
C1394 N1393 1.397 . S
C1395 H1376 0.929 . S
C1395 C1392 1.404 . S
C1395 N1393 1.334 . S
C1396 H1388 0.930 . S
C1396 C1391 1.418 . S
C1396 C1392 1.353 . S
C1397 H1367 0.930 . S
C1397 N1398 1.330 . S
C1397 C1399 1.446 . S
N1398 Co1357 2.151 . S
N1398 C1397 1.330 . S
N1398 C1402 1.418 . S
C1399 H1378 0.929 . S
C1399 C1397 1.446 . S
C1399 C1400 1.332 . S
C1400 H1380 0.931 . S
C1400 C1399 1.332 . S
C1400 C1401 1.267 . S
C1401 H1369 0.929 . S
C1401 C1400 1.267 . S
C1401 C1402 1.251 . S
C1402 H1372 0.929 . S
C1402 N1398 1.418 . S
C1402 C1401 1.251 . S
C1403 H1370 0.930 . S
C1403 C1405 1.406 . S
C1403 C1408 1.261 . S
C1404 H1371 0.930 . S
C1404 N1406 1.325 . S
C1404 C1407 1.357 . S
C1405 H1373 0.928 . S
C1405 C1403 1.406 . S
C1405 N1406 1.261 . S
N1406 Co1357 2.214 . S
N1406 C1404 1.325 . S
N1406 C1405 1.261 . S
C1407 H1377 0.931 . S
C1407 C1404 1.357 . S
C1407 C1408 1.312 . S
C1408 H1379 0.930 . S
C1408 C1403 1.261 . S
C1408 C1407 1.312 . S
C1409 O1381 1.214 . S
C1409 O1389 1.234 . S
C1410 H1382 0.929 . S
C1410 C1413 1.391 . S
C1410 C1415 1.391 . S
C1411 H1383 0.929 . S
C1411 C1412 1.390 . S
C1411 N1414 1.391 . S
C1412 H1384 0.930 . S
C1412 C1411 1.390 . S
C1412 C1413 1.392 . S
C1413 H1385 0.929 . S
C1413 C1410 1.391 . S
C1413 C1412 1.392 . S
N1414 Co1358 2.257 . S
N1414 C1411 1.391 . S
N1414 C1415 1.388 . S
C1415 H1386 0.930 . S
C1415 C1410 1.391 . S
C1415 N1414 1.388 . S
Co1416 O1418 2.143 . S
Co1416 O1424 2.074 . S
Co1416 O1427 2.093 . S
Co1416 O1440 2.097 . S
Co1416 N1457 2.151 . S
Co1416 N1465 2.214 . S
Co1417 O1418 2.160 . S
Co1417 O1423 2.058 . S
Co1417 O1433 2.057 . S
Co1417 O1448 2.037 . S
Co1417 N1452 2.145 . S
Co1417 N1473 2.257 . S
O1418 Co1416 2.143 . S
O1418 Co1417 2.160 . S
C1419 O1420 1.278 . S
C1419 O1427 1.224 . S
O1420 C1419 1.278 . S
C1421 O1422 1.245 . S
C1421 O1433 1.232 . S
O1422 C1421 1.245 . S
O1423 Co1417 2.058 . S
O1423 C1449 1.269 . S
O1424 Co1416 2.074 . S
O1424 C1449 1.257 . S
H1425 C1450 0.930 . S
H1426 C1456 0.930 . S
O1427 Co1416 2.093 . S
O1427 C1419 1.224 . S
H1428 C1460 0.929 . S
H1429 C1462 0.930 . S
H1430 C1463 0.930 . S
H1431 C1461 0.929 . S
H1432 C1464 0.928 . S
O1433 Co1417 2.057 . S
O1433 C1421 1.232 . S
H1434 C1453 0.929 . S
H1435 C1454 0.929 . S
H1436 C1466 0.931 . S
H1437 C1458 0.929 . S
H1438 C1467 0.930 . S
H1439 C1459 0.931 . S
O1440 Co1416 2.097 . S
O1440 C1468 1.214 . S
H1441 C1469 0.929 . S
H1442 C1470 0.929 . S
H1443 C1471 0.930 . S
H1444 C1472 0.929 . S
H1445 C1474 0.930 . S
H1446 C1451 0.930 . S
H1447 C1455 0.930 . S
O1448 Co1417 2.037 . S
O1448 C1468 1.234 . S
C1449 O1423 1.269 . S
C1449 O1424 1.257 . S
C1450 H1425 0.930 . S
C1450 C1453 1.388 . S
C1450 C1455 1.418 . S
C1451 H1446 0.930 . S
C1451 C1454 1.404 . S
C1451 C1455 1.353 . S
N1452 Co1417 2.145 . S
N1452 C1453 1.397 . S
N1452 C1454 1.334 . S
C1453 H1434 0.929 . S
C1453 C1450 1.388 . S
C1453 N1452 1.397 . S
C1454 H1435 0.929 . S
C1454 C1451 1.404 . S
C1454 N1452 1.334 . S
C1455 H1447 0.930 . S
C1455 C1450 1.418 . S
C1455 C1451 1.353 . S
C1456 H1426 0.930 . S
C1456 N1457 1.330 . S
C1456 C1458 1.446 . S
N1457 Co1416 2.151 . S
N1457 C1456 1.330 . S
N1457 C1461 1.418 . S
C1458 H1437 0.929 . S
C1458 C1456 1.446 . S
C1458 C1459 1.332 . S
C1459 H1439 0.931 . S
C1459 C1458 1.332 . S
C1459 C1460 1.267 . S
C1460 H1428 0.929 . S
C1460 C1459 1.267 . S
C1460 C1461 1.251 . S
C1461 H1431 0.929 . S
C1461 N1457 1.418 . S
C1461 C1460 1.251 . S
C1462 H1429 0.930 . S
C1462 C1464 1.406 . S
C1462 C1467 1.261 . S
C1463 H1430 0.930 . S
C1463 N1465 1.325 . S
C1463 C1466 1.357 . S
C1464 H1432 0.928 . S
C1464 C1462 1.406 . S
C1464 N1465 1.261 . S
N1465 Co1416 2.214 . S
N1465 C1463 1.325 . S
N1465 C1464 1.261 . S
C1466 H1436 0.931 . S
C1466 C1463 1.357 . S
C1466 C1467 1.312 . S
C1467 H1438 0.930 . S
C1467 C1462 1.261 . S
C1467 C1466 1.312 . S
C1468 O1440 1.214 . S
C1468 O1448 1.234 . S
C1469 H1441 0.929 . S
C1469 C1472 1.391 . S
C1469 C1474 1.391 . S
C1470 H1442 0.929 . S
C1470 C1471 1.390 . S
C1470 N1473 1.391 . S
C1471 H1443 0.930 . S
C1471 C1470 1.390 . S
C1471 C1472 1.392 . S
C1472 H1444 0.929 . S
C1472 C1469 1.391 . S
C1472 C1471 1.392 . S
N1473 Co1417 2.257 . S
N1473 C1470 1.391 . S
N1473 C1474 1.388 . S
C1474 H1445 0.930 . S
C1474 C1469 1.391 . S
C1474 N1473 1.388 . S
Co1475 O1477 2.143 . S
Co1475 O1483 2.074 . S
Co1475 O1486 2.093 . S
Co1475 O1499 2.097 . S
Co1475 N1516 2.151 . S
Co1475 N1524 2.214 . S
Co1476 O1477 2.160 . S
Co1476 O1482 2.058 . S
Co1476 O1492 2.057 . S
Co1476 O1507 2.037 . S
Co1476 N1511 2.145 . S
Co1476 N1532 2.257 . S
O1477 Co1475 2.143 . S
O1477 Co1476 2.160 . S
C1478 O1479 1.278 . S
C1478 O1486 1.224 . S
O1479 C1478 1.278 . S
C1480 O1481 1.245 . S
C1480 O1492 1.232 . S
O1481 C1480 1.245 . S
O1482 Co1476 2.058 . S
O1482 C1508 1.269 . S
O1483 Co1475 2.074 . S
O1483 C1508 1.257 . S
H1484 C1509 0.930 . S
H1485 C1515 0.930 . S
O1486 Co1475 2.093 . S
O1486 C1478 1.224 . S
H1487 C1519 0.929 . S
H1488 C1521 0.930 . S
H1489 C1522 0.930 . S
H1490 C1520 0.929 . S
H1491 C1523 0.928 . S
O1492 Co1476 2.057 . S
O1492 C1480 1.232 . S
H1493 C1512 0.929 . S
H1494 C1513 0.929 . S
H1495 C1525 0.931 . S
H1496 C1517 0.929 . S
H1497 C1526 0.930 . S
H1498 C1518 0.931 . S
O1499 Co1475 2.097 . S
O1499 C1527 1.214 . S
H1500 C1528 0.929 . S
H1501 C1529 0.929 . S
H1502 C1530 0.930 . S
H1503 C1531 0.929 . S
H1504 C1533 0.930 . S
H1505 C1510 0.930 . S
H1506 C1514 0.930 . S
O1507 Co1476 2.037 . S
O1507 C1527 1.234 . S
C1508 O1482 1.269 . S
C1508 O1483 1.257 . S
C1509 H1484 0.930 . S
C1509 C1512 1.388 . S
C1509 C1514 1.418 . S
C1510 H1505 0.930 . S
C1510 C1513 1.404 . S
C1510 C1514 1.353 . S
N1511 Co1476 2.145 . S
N1511 C1512 1.397 . S
N1511 C1513 1.334 . S
C1512 H1493 0.929 . S
C1512 C1509 1.388 . S
C1512 N1511 1.397 . S
C1513 H1494 0.929 . S
C1513 C1510 1.404 . S
C1513 N1511 1.334 . S
C1514 H1506 0.930 . S
C1514 C1509 1.418 . S
C1514 C1510 1.353 . S
C1515 H1485 0.930 . S
C1515 N1516 1.330 . S
C1515 C1517 1.446 . S
N1516 Co1475 2.151 . S
N1516 C1515 1.330 . S
N1516 C1520 1.418 . S
C1517 H1496 0.929 . S
C1517 C1515 1.446 . S
C1517 C1518 1.332 . S
C1518 H1498 0.931 . S
C1518 C1517 1.332 . S
C1518 C1519 1.267 . S
C1519 H1487 0.929 . S
C1519 C1518 1.267 . S
C1519 C1520 1.251 . S
C1520 H1490 0.929 . S
C1520 N1516 1.418 . S
C1520 C1519 1.251 . S
C1521 H1488 0.930 . S
C1521 C1523 1.406 . S
C1521 C1526 1.261 . S
C1522 H1489 0.930 . S
C1522 N1524 1.325 . S
C1522 C1525 1.357 . S
C1523 H1491 0.928 . S
C1523 C1521 1.406 . S
C1523 N1524 1.261 . S
N1524 Co1475 2.214 . S
N1524 C1522 1.325 . S
N1524 C1523 1.261 . S
C1525 H1495 0.931 . S
C1525 C1522 1.357 . S
C1525 C1526 1.312 . S
C1526 H1497 0.930 . S
C1526 C1521 1.261 . S
C1526 C1525 1.312 . S
C1527 O1499 1.214 . S
C1527 O1507 1.234 . S
C1528 H1500 0.929 . S
C1528 C1531 1.391 . S
C1528 C1533 1.391 . S
C1529 H1501 0.929 . S
C1529 C1530 1.390 . S
C1529 N1532 1.391 . S
C1530 H1502 0.930 . S
C1530 C1529 1.390 . S
C1530 C1531 1.392 . S
C1531 H1503 0.929 . S
C1531 C1528 1.391 . S
C1531 C1530 1.392 . S
N1532 Co1476 2.257 . S
N1532 C1529 1.391 . S
N1532 C1533 1.388 . S
C1533 H1504 0.930 . S
C1533 C1528 1.391 . S
C1533 N1532 1.388 . S
Co1534 O1536 2.143 . S
Co1534 O1542 2.074 . S
Co1534 O1545 2.093 . S
Co1534 O1558 2.097 . S
Co1534 N1575 2.151 . S
Co1534 N1583 2.214 . S
Co1535 O1536 2.160 . S
Co1535 O1541 2.058 . S
Co1535 O1551 2.057 . S
Co1535 O1566 2.037 . S
Co1535 N1570 2.145 . S
Co1535 N1591 2.257 . S
O1536 Co1534 2.143 . S
O1536 Co1535 2.160 . S
C1537 O1538 1.278 . S
C1537 O1545 1.224 . S
O1538 C1537 1.278 . S
C1539 O1540 1.245 . S
C1539 O1551 1.232 . S
O1540 C1539 1.245 . S
O1541 Co1535 2.058 . S
O1541 C1567 1.269 . S
O1542 Co1534 2.074 . S
O1542 C1567 1.257 . S
H1543 C1568 0.930 . S
H1544 C1574 0.930 . S
O1545 Co1534 2.093 . S
O1545 C1537 1.224 . S
H1546 C1578 0.929 . S
H1547 C1580 0.930 . S
H1548 C1581 0.930 . S
H1549 C1579 0.929 . S
H1550 C1582 0.928 . S
O1551 Co1535 2.057 . S
O1551 C1539 1.232 . S
H1552 C1571 0.929 . S
H1553 C1572 0.929 . S
H1554 C1584 0.931 . S
H1555 C1576 0.929 . S
H1556 C1585 0.930 . S
H1557 C1577 0.931 . S
O1558 Co1534 2.097 . S
O1558 C1586 1.214 . S
H1559 C1587 0.929 . S
H1560 C1588 0.929 . S
H1561 C1589 0.930 . S
H1562 C1590 0.929 . S
H1563 C1592 0.930 . S
H1564 C1569 0.930 . S
H1565 C1573 0.930 . S
O1566 Co1535 2.037 . S
O1566 C1586 1.234 . S
C1567 O1541 1.269 . S
C1567 O1542 1.257 . S
C1568 H1543 0.930 . S
C1568 C1571 1.388 . S
C1568 C1573 1.418 . S
C1569 H1564 0.930 . S
C1569 C1572 1.404 . S
C1569 C1573 1.353 . S
N1570 Co1535 2.145 . S
N1570 C1571 1.397 . S
N1570 C1572 1.334 . S
C1571 H1552 0.929 . S
C1571 C1568 1.388 . S
C1571 N1570 1.397 . S
C1572 H1553 0.929 . S
C1572 C1569 1.404 . S
C1572 N1570 1.334 . S
C1573 H1565 0.930 . S
C1573 C1568 1.418 . S
C1573 C1569 1.353 . S
C1574 H1544 0.930 . S
C1574 N1575 1.330 . S
C1574 C1576 1.446 . S
N1575 Co1534 2.151 . S
N1575 C1574 1.330 . S
N1575 C1579 1.418 . S
C1576 H1555 0.929 . S
C1576 C1574 1.446 . S
C1576 C1577 1.332 . S
C1577 H1557 0.931 . S
C1577 C1576 1.332 . S
C1577 C1578 1.267 . S
C1578 H1546 0.929 . S
C1578 C1577 1.267 . S
C1578 C1579 1.251 . S
C1579 H1549 0.929 . S
C1579 N1575 1.418 . S
C1579 C1578 1.251 . S
C1580 H1547 0.930 . S
C1580 C1582 1.406 . S
C1580 C1585 1.261 . S
C1581 H1548 0.930 . S
C1581 N1583 1.325 . S
C1581 C1584 1.357 . S
C1582 H1550 0.928 . S
C1582 C1580 1.406 . S
C1582 N1583 1.261 . S
N1583 Co1534 2.214 . S
N1583 C1581 1.325 . S
N1583 C1582 1.261 . S
C1584 H1554 0.931 . S
C1584 C1581 1.357 . S
C1584 C1585 1.312 . S
C1585 H1556 0.930 . S
C1585 C1580 1.261 . S
C1585 C1584 1.312 . S
C1586 O1558 1.214 . S
C1586 O1566 1.234 . S
C1587 H1559 0.929 . S
C1587 C1590 1.391 . S
C1587 C1592 1.391 . S
C1588 H1560 0.929 . S
C1588 C1589 1.390 . S
C1588 N1591 1.391 . S
C1589 H1561 0.930 . S
C1589 C1588 1.390 . S
C1589 C1590 1.392 . S
C1590 H1562 0.929 . S
C1590 C1587 1.391 . S
C1590 C1589 1.392 . S
N1591 Co1535 2.257 . S
N1591 C1588 1.391 . S
N1591 C1592 1.388 . S
C1592 H1563 0.930 . S
C1592 C1587 1.391 . S
C1592 N1591 1.388 . S
Co1593 O1595 2.143 . S
Co1593 O1601 2.074 . S
Co1593 O1604 2.093 . S
Co1593 O1617 2.097 . S
Co1593 N1634 2.151 . S
Co1593 N1642 2.214 . S
Co1594 O1595 2.160 . S
Co1594 O1600 2.058 . S
Co1594 O1610 2.057 . S
Co1594 O1625 2.037 . S
Co1594 N1629 2.145 . S
Co1594 N1650 2.257 . S
O1595 Co1593 2.143 . S
O1595 Co1594 2.160 . S
C1596 O1597 1.278 . S
C1596 O1604 1.224 . S
O1597 C1596 1.278 . S
C1598 O1599 1.245 . S
C1598 O1610 1.232 . S
O1599 C1598 1.245 . S
O1600 Co1594 2.058 . S
O1600 C1626 1.269 . S
O1601 Co1593 2.074 . S
O1601 C1626 1.257 . S
H1602 C1627 0.930 . S
H1603 C1633 0.930 . S
O1604 Co1593 2.093 . S
O1604 C1596 1.224 . S
H1605 C1637 0.929 . S
H1606 C1639 0.930 . S
H1607 C1640 0.930 . S
H1608 C1638 0.929 . S
H1609 C1641 0.928 . S
O1610 Co1594 2.057 . S
O1610 C1598 1.232 . S
H1611 C1630 0.929 . S
H1612 C1631 0.929 . S
H1613 C1643 0.931 . S
H1614 C1635 0.929 . S
H1615 C1644 0.930 . S
H1616 C1636 0.931 . S
O1617 Co1593 2.097 . S
O1617 C1645 1.214 . S
H1618 C1646 0.929 . S
H1619 C1647 0.929 . S
H1620 C1648 0.930 . S
H1621 C1649 0.929 . S
H1622 C1651 0.930 . S
H1623 C1628 0.930 . S
H1624 C1632 0.930 . S
O1625 Co1594 2.037 . S
O1625 C1645 1.234 . S
C1626 O1600 1.269 . S
C1626 O1601 1.257 . S
C1627 H1602 0.930 . S
C1627 C1630 1.388 . S
C1627 C1632 1.418 . S
C1628 H1623 0.930 . S
C1628 C1631 1.404 . S
C1628 C1632 1.353 . S
N1629 Co1594 2.145 . S
N1629 C1630 1.397 . S
N1629 C1631 1.334 . S
C1630 H1611 0.929 . S
C1630 C1627 1.388 . S
C1630 N1629 1.397 . S
C1631 H1612 0.929 . S
C1631 C1628 1.404 . S
C1631 N1629 1.334 . S
C1632 H1624 0.930 . S
C1632 C1627 1.418 . S
C1632 C1628 1.353 . S
C1633 H1603 0.930 . S
C1633 N1634 1.330 . S
C1633 C1635 1.446 . S
N1634 Co1593 2.151 . S
N1634 C1633 1.330 . S
N1634 C1638 1.418 . S
C1635 H1614 0.929 . S
C1635 C1633 1.446 . S
C1635 C1636 1.332 . S
C1636 H1616 0.931 . S
C1636 C1635 1.332 . S
C1636 C1637 1.267 . S
C1637 H1605 0.929 . S
C1637 C1636 1.267 . S
C1637 C1638 1.251 . S
C1638 H1608 0.929 . S
C1638 N1634 1.418 . S
C1638 C1637 1.251 . S
C1639 H1606 0.930 . S
C1639 C1641 1.406 . S
C1639 C1644 1.261 . S
C1640 H1607 0.930 . S
C1640 N1642 1.325 . S
C1640 C1643 1.357 . S
C1641 H1609 0.928 . S
C1641 C1639 1.406 . S
C1641 N1642 1.261 . S
N1642 Co1593 2.214 . S
N1642 C1640 1.325 . S
N1642 C1641 1.261 . S
C1643 H1613 0.931 . S
C1643 C1640 1.357 . S
C1643 C1644 1.312 . S
C1644 H1615 0.930 . S
C1644 C1639 1.261 . S
C1644 C1643 1.312 . S
C1645 O1617 1.214 . S
C1645 O1625 1.234 . S
C1646 H1618 0.929 . S
C1646 C1649 1.391 1_455 S
C1646 C1651 1.391 . S
C1647 H1619 0.929 . S
C1647 C1648 1.390 1_455 S
C1647 N1650 1.391 . S
C1648 H1620 0.930 . S
C1648 C1647 1.390 1_655 S
C1648 C1649 1.392 . S
C1649 H1621 0.929 . S
C1649 C1646 1.391 1_655 S
C1649 C1648 1.392 . S
N1650 Co1594 2.257 . S
N1650 C1647 1.391 . S
N1650 C1651 1.388 . S
C1651 H1622 0.930 . S
C1651 C1646 1.391 . S
C1651 N1650 1.388 . S
Co1652 O1654 2.143 . S
Co1652 O1660 2.074 . S
Co1652 O1663 2.093 . S
Co1652 O1676 2.097 . S
Co1652 N1693 2.151 . S
Co1652 N1701 2.214 . S
Co1653 O1654 2.160 . S
Co1653 O1659 2.058 . S
Co1653 O1669 2.057 . S
Co1653 O1684 2.037 . S
Co1653 N1688 2.145 . S
Co1653 N1709 2.257 . S
O1654 Co1652 2.143 . S
O1654 Co1653 2.160 . S
C1655 O1656 1.278 . S
C1655 O1663 1.224 . S
O1656 C1655 1.278 . S
C1657 O1658 1.245 . S
C1657 O1669 1.232 . S
O1658 C1657 1.245 . S
O1659 Co1653 2.058 . S
O1659 C1685 1.269 . S
O1660 Co1652 2.074 . S
O1660 C1685 1.257 . S
H1661 C1686 0.930 . S
H1662 C1692 0.930 . S
O1663 Co1652 2.093 . S
O1663 C1655 1.224 . S
H1664 C1696 0.929 . S
H1665 C1698 0.930 . S
H1666 C1699 0.930 . S
H1667 C1697 0.929 . S
H1668 C1700 0.928 . S
O1669 Co1653 2.057 . S
O1669 C1657 1.232 . S
H1670 C1689 0.929 . S
H1671 C1690 0.929 . S
H1672 C1702 0.931 . S
H1673 C1694 0.929 . S
H1674 C1703 0.930 . S
H1675 C1695 0.931 . S
O1676 Co1652 2.097 . S
O1676 C1704 1.214 . S
H1677 C1705 0.929 . S
H1678 C1706 0.929 . S
H1679 C1707 0.930 . S
H1680 C1708 0.929 . S
H1681 C1710 0.930 . S
H1682 C1687 0.930 . S
H1683 C1691 0.930 . S
O1684 Co1653 2.037 . S
O1684 C1704 1.234 . S
C1685 O1659 1.269 . S
C1685 O1660 1.257 . S
C1686 H1661 0.930 . S
C1686 C1689 1.388 . S
C1686 C1691 1.418 . S
C1687 H1682 0.930 . S
C1687 C1690 1.404 . S
C1687 C1691 1.353 . S
N1688 Co1653 2.145 . S
N1688 C1689 1.397 . S
N1688 C1690 1.334 . S
C1689 H1670 0.929 . S
C1689 C1686 1.388 . S
C1689 N1688 1.397 . S
C1690 H1671 0.929 . S
C1690 C1687 1.404 . S
C1690 N1688 1.334 . S
C1691 H1683 0.930 . S
C1691 C1686 1.418 . S
C1691 C1687 1.353 . S
C1692 H1662 0.930 . S
C1692 N1693 1.330 . S
C1692 C1694 1.446 . S
N1693 Co1652 2.151 . S
N1693 C1692 1.330 . S
N1693 C1697 1.418 . S
C1694 H1673 0.929 . S
C1694 C1692 1.446 . S
C1694 C1695 1.332 . S
C1695 H1675 0.931 . S
C1695 C1694 1.332 . S
C1695 C1696 1.267 . S
C1696 H1664 0.929 . S
C1696 C1695 1.267 . S
C1696 C1697 1.251 . S
C1697 H1667 0.929 . S
C1697 N1693 1.418 . S
C1697 C1696 1.251 . S
C1698 H1665 0.930 . S
C1698 C1700 1.406 . S
C1698 C1703 1.261 . S
C1699 H1666 0.930 . S
C1699 N1701 1.325 . S
C1699 C1702 1.357 . S
C1700 H1668 0.928 . S
C1700 C1698 1.406 . S
C1700 N1701 1.261 . S
N1701 Co1652 2.214 . S
N1701 C1699 1.325 . S
N1701 C1700 1.261 . S
C1702 H1672 0.931 . S
C1702 C1699 1.357 . S
C1702 C1703 1.312 . S
C1703 H1674 0.930 . S
C1703 C1698 1.261 . S
C1703 C1702 1.312 . S
C1704 O1676 1.214 . S
C1704 O1684 1.234 . S
C1705 H1677 0.929 . S
C1705 C1708 1.391 . S
C1705 C1710 1.391 . S
C1706 H1678 0.929 . S
C1706 C1707 1.390 . S
C1706 N1709 1.391 . S
C1707 H1679 0.930 . S
C1707 C1706 1.390 . S
C1707 C1708 1.392 . S
C1708 H1680 0.929 . S
C1708 C1705 1.391 . S
C1708 C1707 1.392 . S
N1709 Co1653 2.257 . S
N1709 C1706 1.391 . S
N1709 C1710 1.388 . S
C1710 H1681 0.930 . S
C1710 C1705 1.391 . S
C1710 N1709 1.388 . S
Co1711 O1713 2.143 . S
Co1711 O1719 2.074 . S
Co1711 O1722 2.093 . S
Co1711 O1735 2.097 . S
Co1711 N1752 2.151 . S
Co1711 N1760 2.214 . S
Co1712 O1713 2.160 . S
Co1712 O1718 2.058 . S
Co1712 O1728 2.057 . S
Co1712 O1743 2.037 . S
Co1712 N1747 2.145 . S
Co1712 N1768 2.257 . S
O1713 Co1711 2.143 . S
O1713 Co1712 2.160 . S
C1714 O1715 1.278 . S
C1714 O1722 1.224 . S
O1715 C1714 1.278 . S
C1716 O1717 1.245 . S
C1716 O1728 1.232 . S
O1717 C1716 1.245 . S
O1718 Co1712 2.058 . S
O1718 C1744 1.269 . S
O1719 Co1711 2.074 . S
O1719 C1744 1.257 . S
H1720 C1745 0.930 . S
H1721 C1751 0.930 . S
O1722 Co1711 2.093 . S
O1722 C1714 1.224 . S
H1723 C1755 0.929 . S
H1724 C1757 0.930 . S
H1725 C1758 0.930 . S
H1726 C1756 0.929 . S
H1727 C1759 0.928 . S
O1728 Co1712 2.057 . S
O1728 C1716 1.232 . S
H1729 C1748 0.929 . S
H1730 C1749 0.929 . S
H1731 C1761 0.931 . S
H1732 C1753 0.929 . S
H1733 C1762 0.930 . S
H1734 C1754 0.931 . S
O1735 Co1711 2.097 . S
O1735 C1763 1.214 . S
H1736 C1764 0.929 . S
H1737 C1765 0.929 . S
H1738 C1766 0.930 . S
H1739 C1767 0.929 . S
H1740 C1769 0.930 . S
H1741 C1746 0.930 . S
H1742 C1750 0.930 . S
O1743 Co1712 2.037 . S
O1743 C1763 1.234 . S
C1744 O1718 1.269 . S
C1744 O1719 1.257 . S
C1745 H1720 0.930 . S
C1745 C1748 1.388 . S
C1745 C1750 1.418 . S
C1746 H1741 0.930 . S
C1746 C1749 1.404 . S
C1746 C1750 1.353 . S
N1747 Co1712 2.145 . S
N1747 C1748 1.397 . S
N1747 C1749 1.334 . S
C1748 H1729 0.929 . S
C1748 C1745 1.388 . S
C1748 N1747 1.397 . S
C1749 H1730 0.929 . S
C1749 C1746 1.404 . S
C1749 N1747 1.334 . S
C1750 H1742 0.930 . S
C1750 C1745 1.418 . S
C1750 C1746 1.353 . S
C1751 H1721 0.930 . S
C1751 N1752 1.330 . S
C1751 C1753 1.446 . S
N1752 Co1711 2.151 . S
N1752 C1751 1.330 . S
N1752 C1756 1.418 . S
C1753 H1732 0.929 . S
C1753 C1751 1.446 . S
C1753 C1754 1.332 . S
C1754 H1734 0.931 . S
C1754 C1753 1.332 . S
C1754 C1755 1.267 . S
C1755 H1723 0.929 . S
C1755 C1754 1.267 . S
C1755 C1756 1.251 . S
C1756 H1726 0.929 . S
C1756 N1752 1.418 . S
C1756 C1755 1.251 . S
C1757 H1724 0.930 . S
C1757 C1759 1.406 . S
C1757 C1762 1.261 . S
C1758 H1725 0.930 . S
C1758 N1760 1.325 . S
C1758 C1761 1.357 . S
C1759 H1727 0.928 . S
C1759 C1757 1.406 . S
C1759 N1760 1.261 . S
N1760 Co1711 2.214 . S
N1760 C1758 1.325 . S
N1760 C1759 1.261 . S
C1761 H1731 0.931 . S
C1761 C1758 1.357 . S
C1761 C1762 1.312 . S
C1762 H1733 0.930 . S
C1762 C1757 1.261 . S
C1762 C1761 1.312 . S
C1763 O1735 1.214 . S
C1763 O1743 1.234 . S
C1764 H1736 0.929 . S
C1764 C1767 1.391 1_455 S
C1764 C1769 1.391 . S
C1765 H1737 0.929 . S
C1765 C1766 1.390 1_455 S
C1765 N1768 1.391 . S
C1766 H1738 0.930 . S
C1766 C1765 1.390 1_655 S
C1766 C1767 1.392 . S
C1767 H1739 0.929 . S
C1767 C1764 1.391 1_655 S
C1767 C1766 1.392 . S
N1768 Co1712 2.257 . S
N1768 C1765 1.391 . S
N1768 C1769 1.388 . S
C1769 H1740 0.930 . S
C1769 C1764 1.391 . S
C1769 N1768 1.388 . S
Co1770 O1772 2.143 . S
Co1770 O1778 2.074 . S
Co1770 O1781 2.093 . S
Co1770 O1794 2.097 . S
Co1770 N1811 2.151 . S
Co1770 N1819 2.214 . S
Co1771 O1772 2.160 . S
Co1771 O1777 2.058 . S
Co1771 O1787 2.057 . S
Co1771 O1802 2.037 . S
Co1771 N1806 2.145 . S
Co1771 N1827 2.257 . S
O1772 Co1770 2.143 . S
O1772 Co1771 2.160 . S
C1773 O1774 1.278 . S
C1773 O1781 1.224 . S
O1774 C1773 1.278 . S
C1775 O1776 1.245 . S
C1775 O1787 1.232 . S
O1776 C1775 1.245 . S
O1777 Co1771 2.058 . S
O1777 C1803 1.269 . S
O1778 Co1770 2.074 . S
O1778 C1803 1.257 . S
H1779 C1804 0.930 . S
H1780 C1810 0.930 . S
O1781 Co1770 2.093 . S
O1781 C1773 1.224 . S
H1782 C1814 0.929 . S
H1783 C1816 0.930 . S
H1784 C1817 0.930 . S
H1785 C1815 0.929 . S
H1786 C1818 0.928 . S
O1787 Co1771 2.057 . S
O1787 C1775 1.232 . S
H1788 C1807 0.929 . S
H1789 C1808 0.929 . S
H1790 C1820 0.931 . S
H1791 C1812 0.929 . S
H1792 C1821 0.930 . S
H1793 C1813 0.931 . S
O1794 Co1770 2.097 . S
O1794 C1822 1.214 . S
H1795 C1823 0.929 . S
H1796 C1824 0.929 . S
H1797 C1825 0.930 . S
H1798 C1826 0.929 . S
H1799 C1828 0.930 . S
H1800 C1805 0.930 . S
H1801 C1809 0.930 . S
O1802 Co1771 2.037 . S
O1802 C1822 1.234 . S
C1803 O1777 1.269 . S
C1803 O1778 1.257 . S
C1804 H1779 0.930 . S
C1804 C1807 1.388 . S
C1804 C1809 1.418 . S
C1805 H1800 0.930 . S
C1805 C1808 1.404 . S
C1805 C1809 1.353 . S
N1806 Co1771 2.145 . S
N1806 C1807 1.397 . S
N1806 C1808 1.334 . S
C1807 H1788 0.929 . S
C1807 C1804 1.388 . S
C1807 N1806 1.397 . S
C1808 H1789 0.929 . S
C1808 C1805 1.404 . S
C1808 N1806 1.334 . S
C1809 H1801 0.930 . S
C1809 C1804 1.418 . S
C1809 C1805 1.353 . S
C1810 H1780 0.930 . S
C1810 N1811 1.330 . S
C1810 C1812 1.446 . S
N1811 Co1770 2.151 . S
N1811 C1810 1.330 . S
N1811 C1815 1.418 . S
C1812 H1791 0.929 . S
C1812 C1810 1.446 . S
C1812 C1813 1.332 . S
C1813 H1793 0.931 . S
C1813 C1812 1.332 . S
C1813 C1814 1.267 . S
C1814 H1782 0.929 . S
C1814 C1813 1.267 . S
C1814 C1815 1.251 . S
C1815 H1785 0.929 . S
C1815 N1811 1.418 . S
C1815 C1814 1.251 . S
C1816 H1783 0.930 . S
C1816 C1818 1.406 . S
C1816 C1821 1.261 . S
C1817 H1784 0.930 . S
C1817 N1819 1.325 . S
C1817 C1820 1.357 . S
C1818 H1786 0.928 . S
C1818 C1816 1.406 . S
C1818 N1819 1.261 . S
N1819 Co1770 2.214 . S
N1819 C1817 1.325 . S
N1819 C1818 1.261 . S
C1820 H1790 0.931 . S
C1820 C1817 1.357 . S
C1820 C1821 1.312 . S
C1821 H1792 0.930 . S
C1821 C1816 1.261 . S
C1821 C1820 1.312 . S
C1822 O1794 1.214 . S
C1822 O1802 1.234 . S
C1823 H1795 0.929 . S
C1823 C1826 1.391 . S
C1823 C1828 1.391 . S
C1824 H1796 0.929 . S
C1824 C1825 1.390 . S
C1824 N1827 1.391 . S
C1825 H1797 0.930 . S
C1825 C1824 1.390 . S
C1825 C1826 1.392 . S
C1826 H1798 0.929 . S
C1826 C1823 1.391 . S
C1826 C1825 1.392 . S
N1827 Co1771 2.257 . S
N1827 C1824 1.391 . S
N1827 C1828 1.388 . S
C1828 H1799 0.930 . S
C1828 C1823 1.391 . S
C1828 N1827 1.388 . S
Co1829 O1831 2.143 . S
Co1829 O1837 2.074 . S
Co1829 O1840 2.093 . S
Co1829 O1853 2.097 . S
Co1829 N1870 2.151 . S
Co1829 N1878 2.214 . S
Co1830 O1831 2.160 . S
Co1830 O1836 2.058 . S
Co1830 O1846 2.057 . S
Co1830 O1861 2.037 . S
Co1830 N1865 2.145 . S
Co1830 N1886 2.257 . S
O1831 Co1829 2.143 . S
O1831 Co1830 2.160 . S
C1832 O1833 1.278 . S
C1832 O1840 1.224 . S
O1833 C1832 1.278 . S
C1834 O1835 1.245 . S
C1834 O1846 1.232 . S
O1835 C1834 1.245 . S
O1836 Co1830 2.058 . S
O1836 C1862 1.269 . S
O1837 Co1829 2.074 . S
O1837 C1862 1.257 . S
H1838 C1863 0.930 . S
H1839 C1869 0.930 . S
O1840 Co1829 2.093 . S
O1840 C1832 1.224 . S
H1841 C1873 0.929 . S
H1842 C1875 0.930 . S
H1843 C1876 0.930 . S
H1844 C1874 0.929 . S
H1845 C1877 0.928 . S
O1846 Co1830 2.057 . S
O1846 C1834 1.232 . S
H1847 C1866 0.929 . S
H1848 C1867 0.929 . S
H1849 C1879 0.931 . S
H1850 C1871 0.929 . S
H1851 C1880 0.930 . S
H1852 C1872 0.931 . S
O1853 Co1829 2.097 . S
O1853 C1881 1.214 . S
H1854 C1882 0.929 . S
H1855 C1883 0.929 . S
H1856 C1884 0.930 . S
H1857 C1885 0.929 . S
H1858 C1887 0.930 . S
H1859 C1864 0.930 . S
H1860 C1868 0.930 . S
O1861 Co1830 2.037 . S
O1861 C1881 1.234 . S
C1862 O1836 1.269 . S
C1862 O1837 1.257 . S
C1863 H1838 0.930 . S
C1863 C1866 1.388 . S
C1863 C1868 1.418 . S
C1864 H1859 0.930 . S
C1864 C1867 1.404 . S
C1864 C1868 1.353 . S
N1865 Co1830 2.145 . S
N1865 C1866 1.397 . S
N1865 C1867 1.334 . S
C1866 H1847 0.929 . S
C1866 C1863 1.388 . S
C1866 N1865 1.397 . S
C1867 H1848 0.929 . S
C1867 C1864 1.404 . S
C1867 N1865 1.334 . S
C1868 H1860 0.930 . S
C1868 C1863 1.418 . S
C1868 C1864 1.353 . S
C1869 H1839 0.930 . S
C1869 N1870 1.330 . S
C1869 C1871 1.446 . S
N1870 Co1829 2.151 . S
N1870 C1869 1.330 . S
N1870 C1874 1.418 . S
C1871 H1850 0.929 . S
C1871 C1869 1.446 . S
C1871 C1872 1.332 . S
C1872 H1852 0.931 . S
C1872 C1871 1.332 . S
C1872 C1873 1.267 . S
C1873 H1841 0.929 . S
C1873 C1872 1.267 . S
C1873 C1874 1.251 . S
C1874 H1844 0.929 . S
C1874 N1870 1.418 . S
C1874 C1873 1.251 . S
C1875 H1842 0.930 . S
C1875 C1877 1.406 . S
C1875 C1880 1.261 . S
C1876 H1843 0.930 . S
C1876 N1878 1.325 . S
C1876 C1879 1.357 . S
C1877 H1845 0.928 . S
C1877 C1875 1.406 . S
C1877 N1878 1.261 . S
N1878 Co1829 2.214 . S
N1878 C1876 1.325 . S
N1878 C1877 1.261 . S
C1879 H1849 0.931 . S
C1879 C1876 1.357 . S
C1879 C1880 1.312 . S
C1880 H1851 0.930 . S
C1880 C1875 1.261 . S
C1880 C1879 1.312 . S
C1881 O1853 1.214 . S
C1881 O1861 1.234 . S
C1882 H1854 0.929 . S
C1882 C1885 1.391 . S
C1882 C1887 1.391 . S
C1883 H1855 0.929 . S
C1883 C1884 1.390 . S
C1883 N1886 1.391 . S
C1884 H1856 0.930 . S
C1884 C1883 1.390 . S
C1884 C1885 1.392 . S
C1885 H1857 0.929 . S
C1885 C1882 1.391 . S
C1885 C1884 1.392 . S
N1886 Co1830 2.257 . S
N1886 C1883 1.391 . S
N1886 C1887 1.388 . S
C1887 H1858 0.930 . S
C1887 C1882 1.391 . S
C1887 N1886 1.388 . S
H1888 C1894 0.930 . S
H1889 C1898 0.930 . S
H1890 C1903 0.929 . S
H1891 C1901 0.929 . S
H1892 C1896 0.929 . S
H1893 C1902 0.929 . S
C1894 H1888 0.930 . S
C1894 C1895 1.367 . S
C1894 C1902 1.378 . S
C1895 C1894 1.367 . S
C1895 C1903 1.433 . S
C1896 H1892 0.929 . S
C1896 C1898 1.378 . S
C1896 C1900 1.350 . S
C1897 C1900 1.463 . S
C1897 C1902 1.350 . S
C1897 N1905 1.427 . S
C1898 H1889 0.930 . S
C1898 C1896 1.378 . S
C1898 C1899 1.367 . S
C1899 C1898 1.367 . S
C1899 C1901 1.433 . S
C1900 C1896 1.350 . S
C1900 C1897 1.463 . S
C1900 N1904 1.427 . S
C1901 H1891 0.929 . S
C1901 C1899 1.433 . S
C1901 N1904 1.384 . S
C1902 H1893 0.929 . S
C1902 C1894 1.378 . S
C1902 C1897 1.350 . S
C1903 H1890 0.929 . S
C1903 C1895 1.433 . S
C1903 N1905 1.384 . S
N1904 C1900 1.427 . S
N1904 C1901 1.384 . S
N1905 C1897 1.427 . S
N1905 C1903 1.384 . S
H1906 C1912 0.930 . S
H1907 C1916 0.930 . S
H1908 C1921 0.929 1_455 S
H1909 C1919 0.929 . S
H1910 C1914 0.929 . S
H1911 C1920 0.929 . S
C1912 H1906 0.930 . S
C1912 C1913 1.367 . S
C1912 C1920 1.378 . S
C1913 C1912 1.367 . S
C1913 C1921 1.433 . S
C1914 H1910 0.929 . S
C1914 C1916 1.378 . S
C1914 C1918 1.350 . S
C1915 C1918 1.463 . S
C1915 C1920 1.350 . S
C1915 N1923 1.427 . S
C1916 H1907 0.930 . S
C1916 C1914 1.378 . S
C1916 C1917 1.367 . S
C1917 C1916 1.367 . S
C1917 C1919 1.433 . S
C1918 C1914 1.350 . S
C1918 C1915 1.463 . S
C1918 N1922 1.427 . S
C1919 H1909 0.929 . S
C1919 C1917 1.433 . S
C1919 N1922 1.384 . S
C1920 H1911 0.929 . S
C1920 C1912 1.378 . S
C1920 C1915 1.350 . S
C1921 H1908 0.929 1_655 S
C1921 C1913 1.433 . S
C1921 N1923 1.384 . S
N1922 C1918 1.427 . S
N1922 C1919 1.384 . S
N1923 C1915 1.427 . S
N1923 C1921 1.384 . S
H1924 C1930 0.930 . S
H1925 C1934 0.930 . S
H1926 C1939 0.929 . S
H1927 C1937 0.929 . S
H1928 C1932 0.929 . S
H1929 C1938 0.929 . S
C1930 H1924 0.930 . S
C1930 C1931 1.367 . S
C1930 C1938 1.378 . S
C1931 C1930 1.367 . S
C1931 C1939 1.433 . S
C1932 H1928 0.929 . S
C1932 C1934 1.378 . S
C1932 C1936 1.350 . S
C1933 C1936 1.463 . S
C1933 C1938 1.350 . S
C1933 N1941 1.427 . S
C1934 H1925 0.930 . S
C1934 C1932 1.378 . S
C1934 C1935 1.367 . S
C1935 C1934 1.367 . S
C1935 C1937 1.433 . S
C1936 C1932 1.350 . S
C1936 C1933 1.463 . S
C1936 N1940 1.427 . S
C1937 H1927 0.929 . S
C1937 C1935 1.433 . S
C1937 N1940 1.384 . S
C1938 H1929 0.929 . S
C1938 C1930 1.378 . S
C1938 C1933 1.350 . S
C1939 H1926 0.929 . S
C1939 C1931 1.433 . S
C1939 N1941 1.384 . S
N1940 C1936 1.427 . S
N1940 C1937 1.384 . S
N1941 C1933 1.427 . S
N1941 C1939 1.384 . S
H1942 C1948 0.930 . S
H1943 C1952 0.930 . S
H1944 C1957 0.929 . S
H1945 C1955 0.929 . S
H1946 C1950 0.929 . S
H1947 C1956 0.929 . S
C1948 H1942 0.930 . S
C1948 C1949 1.367 . S
C1948 C1956 1.378 . S
C1949 C1948 1.367 . S
C1949 C1957 1.433 . S
C1950 H1946 0.929 . S
C1950 C1952 1.378 . S
C1950 C1954 1.350 . S
C1951 C1954 1.463 . S
C1951 C1956 1.350 . S
C1951 N1959 1.427 . S
C1952 H1943 0.930 . S
C1952 C1950 1.378 . S
C1952 C1953 1.367 . S
C1953 C1952 1.367 . S
C1953 C1955 1.433 . S
C1954 C1950 1.350 . S
C1954 C1951 1.463 . S
C1954 N1958 1.427 . S
C1955 H1945 0.929 . S
C1955 C1953 1.433 . S
C1955 N1958 1.384 . S
C1956 H1947 0.929 . S
C1956 C1948 1.378 . S
C1956 C1951 1.350 . S
C1957 H1944 0.929 . S
C1957 C1949 1.433 . S
C1957 N1959 1.384 . S
N1958 C1954 1.427 . S
N1958 C1955 1.384 . S
N1959 C1951 1.427 . S
N1959 C1957 1.384 . S
H1960 C1966 0.930 . S
H1961 C1970 0.930 . S
H1962 C1975 0.929 . S
H1963 C1973 0.929 . S
H1964 C1968 0.929 . S
H1965 C1974 0.929 . S
C1966 H1960 0.930 . S
C1966 C1967 1.367 . S
C1966 C1974 1.378 . S
C1967 C1966 1.367 . S
C1967 C1975 1.433 . S
C1968 H1964 0.929 . S
C1968 C1970 1.378 . S
C1968 C1972 1.350 . S
C1969 C1972 1.463 . S
C1969 C1974 1.350 . S
C1969 N1977 1.427 . S
C1970 H1961 0.930 . S
C1970 C1968 1.378 . S
C1970 C1971 1.367 . S
C1971 C1970 1.367 . S
C1971 C1973 1.433 . S
C1972 C1968 1.350 . S
C1972 C1969 1.463 . S
C1972 N1976 1.427 . S
C1973 H1963 0.929 . S
C1973 C1971 1.433 . S
C1973 N1976 1.384 . S
C1974 H1965 0.929 . S
C1974 C1966 1.378 . S
C1974 C1969 1.350 . S
C1975 H1962 0.929 . S
C1975 C1967 1.433 . S
C1975 N1977 1.384 . S
N1976 C1972 1.427 . S
N1976 C1973 1.384 . S
N1977 C1969 1.427 . S
N1977 C1975 1.384 . S
H1978 C1984 0.930 . S
H1979 C1988 0.930 . S
H1980 C1993 0.929 . S
H1981 C1991 0.929 . S
H1982 C1986 0.929 . S
H1983 C1992 0.929 . S
C1984 H1978 0.930 . S
C1984 C1985 1.367 . S
C1984 C1992 1.378 . S
C1985 C1984 1.367 . S
C1985 C1993 1.433 . S
C1986 H1982 0.929 . S
C1986 C1988 1.378 . S
C1986 C1990 1.350 . S
C1987 C1990 1.463 . S
C1987 C1992 1.350 . S
C1987 N1995 1.427 . S
C1988 H1979 0.930 . S
C1988 C1986 1.378 . S
C1988 C1989 1.367 . S
C1989 C1988 1.367 . S
C1989 C1991 1.433 . S
C1990 C1986 1.350 . S
C1990 C1987 1.463 . S
C1990 N1994 1.427 . S
C1991 H1981 0.929 . S
C1991 C1989 1.433 . S
C1991 N1994 1.384 . S
C1992 H1983 0.929 . S
C1992 C1984 1.378 . S
C1992 C1987 1.350 . S
C1993 H1980 0.929 . S
C1993 C1985 1.433 . S
C1993 N1995 1.384 . S
N1994 C1990 1.427 . S
N1994 C1991 1.384 . S
N1995 C1987 1.427 . S
N1995 C1993 1.384 . S
H1996 C2002 0.930 . S
H1997 C2006 0.930 . S
H1998 C2011 0.929 . S
H1999 C2009 0.929 . S
H2000 C2004 0.929 . S
H2001 C2010 0.929 . S
C2002 H1996 0.930 . S
C2002 C2003 1.367 . S
C2002 C2010 1.378 . S
C2003 C2002 1.367 . S
C2003 C2011 1.433 . S
C2004 H2000 0.929 . S
C2004 C2006 1.378 . S
C2004 C2008 1.350 . S
C2005 C2008 1.463 . S
C2005 C2010 1.350 . S
C2005 N2013 1.427 . S
C2006 H1997 0.930 . S
C2006 C2004 1.378 . S
C2006 C2007 1.367 . S
C2007 C2006 1.367 . S
C2007 C2009 1.433 . S
C2008 C2004 1.350 . S
C2008 C2005 1.463 . S
C2008 N2012 1.427 . S
C2009 H1999 0.929 . S
C2009 C2007 1.433 . S
C2009 N2012 1.384 . S
C2010 H2001 0.929 . S
C2010 C2002 1.378 . S
C2010 C2005 1.350 . S
C2011 H1998 0.929 . S
C2011 C2003 1.433 . S
C2011 N2013 1.384 . S
N2012 C2008 1.427 . S
N2012 C2009 1.384 . S
N2013 C2005 1.427 . S
N2013 C2011 1.384 . S
H2014 C2020 0.930 1_455 S
H2015 C2024 0.930 . S
H2016 C2029 0.929 . S
H2017 C2027 0.929 . S
H2018 C2022 0.929 . S
H2019 C2028 0.929 . S
C2020 H2014 0.930 1_655 S
C2020 C2021 1.367 . S
C2020 C2028 1.378 . S
C2021 C2020 1.367 . S
C2021 C2029 1.433 . S
C2022 H2018 0.929 . S
C2022 C2024 1.378 . S
C2022 C2026 1.350 . S
C2023 C2026 1.463 . S
C2023 C2028 1.350 . S
C2023 N2031 1.427 . S
C2024 H2015 0.930 . S
C2024 C2022 1.378 . S
C2024 C2025 1.367 . S
C2025 C2024 1.367 . S
C2025 C2027 1.433 . S
C2026 C2022 1.350 . S
C2026 C2023 1.463 . S
C2026 N2030 1.427 . S
C2027 H2017 0.929 . S
C2027 C2025 1.433 . S
C2027 N2030 1.384 . S
C2028 H2019 0.929 . S
C2028 C2020 1.378 . S
C2028 C2023 1.350 . S
C2029 H2016 0.929 . S
C2029 C2021 1.433 . S
C2029 N2031 1.384 . S
N2030 C2026 1.427 . S
N2030 C2027 1.384 . S
N2031 C2023 1.427 . S
N2031 C2029 1.384 . S
H2032 C2038 0.930 . S
H2033 C2042 0.930 . S
H2034 C2047 0.929 . S
H2035 C2045 0.929 . S
H2036 C2040 0.929 . S
H2037 C2046 0.929 . S
C2038 H2032 0.930 . S
C2038 C2039 1.367 . S
C2038 C2046 1.378 . S
C2039 C2038 1.367 . S
C2039 C2047 1.433 . S
C2040 H2036 0.929 . S
C2040 C2042 1.378 . S
C2040 C2044 1.350 . S
C2041 C2044 1.463 . S
C2041 C2046 1.350 . S
C2041 N2049 1.427 . S
C2042 H2033 0.930 . S
C2042 C2040 1.378 . S
C2042 C2043 1.367 . S
C2043 C2042 1.367 . S
C2043 C2045 1.433 . S
C2044 C2040 1.350 . S
C2044 C2041 1.463 . S
C2044 N2048 1.427 . S
C2045 H2035 0.929 . S
C2045 C2043 1.433 . S
C2045 N2048 1.384 . S
C2046 H2037 0.929 . S
C2046 C2038 1.378 . S
C2046 C2041 1.350 . S
C2047 H2034 0.929 . S
C2047 C2039 1.433 . S
C2047 N2049 1.384 . S
N2048 C2044 1.427 . S
N2048 C2045 1.384 . S
N2049 C2041 1.427 . S
N2049 C2047 1.384 . S
H2050 C2056 0.930 . S
H2051 C2060 0.930 1_655 S
H2052 C2065 0.929 . S
H2053 C2063 0.929 . S
H2054 C2058 0.929 . S
H2055 C2064 0.929 . S
C2056 H2050 0.930 . S
C2056 C2057 1.367 . S
C2056 C2064 1.378 . S
C2057 C2056 1.367 . S
C2057 C2065 1.433 . S
C2058 H2054 0.929 . S
C2058 C2060 1.378 . S
C2058 C2062 1.350 . S
C2059 C2062 1.463 . S
C2059 C2064 1.350 . S
C2059 N2067 1.427 . S
C2060 H2051 0.930 1_455 S
C2060 C2058 1.378 . S
C2060 C2061 1.367 . S
C2061 C2060 1.367 . S
C2061 C2063 1.433 . S
C2062 C2058 1.350 . S
C2062 C2059 1.463 . S
C2062 N2066 1.427 . S
C2063 H2053 0.929 . S
C2063 C2061 1.433 . S
C2063 N2066 1.384 . S
C2064 H2055 0.929 . S
C2064 C2056 1.378 . S
C2064 C2059 1.350 . S
C2065 H2052 0.929 . S
C2065 C2057 1.433 . S
C2065 N2067 1.384 . S
N2066 C2062 1.427 . S
N2066 C2063 1.384 . S
N2067 C2059 1.427 . S
N2067 C2065 1.384 . S
H2068 C2074 0.930 . S
H2069 C2078 0.930 . S
H2070 C2083 0.929 . S
H2071 C2081 0.929 . S
H2072 C2076 0.929 . S
H2073 C2082 0.929 . S
C2074 H2068 0.930 . S
C2074 C2075 1.367 . S
C2074 C2082 1.378 . S
C2075 C2074 1.367 . S
C2075 C2083 1.433 . S
C2076 H2072 0.929 . S
C2076 C2078 1.378 . S
C2076 C2080 1.350 . S
C2077 C2080 1.463 . S
C2077 C2082 1.350 . S
C2077 N2085 1.427 . S
C2078 H2069 0.930 . S
C2078 C2076 1.378 . S
C2078 C2079 1.367 . S
C2079 C2078 1.367 . S
C2079 C2081 1.433 . S
C2080 C2076 1.350 . S
C2080 C2077 1.463 . S
C2080 N2084 1.427 . S
C2081 H2071 0.929 . S
C2081 C2079 1.433 . S
C2081 N2084 1.384 . S
C2082 H2073 0.929 . S
C2082 C2074 1.378 . S
C2082 C2077 1.350 . S
C2083 H2070 0.929 . S
C2083 C2075 1.433 . S
C2083 N2085 1.384 . S
N2084 C2080 1.427 . S
N2084 C2081 1.384 . S
N2085 C2077 1.427 . S
N2085 C2083 1.384 . S
H2086 C2092 0.930 . S
H2087 C2096 0.930 . S
H2088 C2101 0.929 . S
H2089 C2099 0.929 . S
H2090 C2094 0.929 . S
H2091 C2100 0.929 . S
C2092 H2086 0.930 . S
C2092 C2093 1.367 . S
C2092 C2100 1.378 . S
C2093 C2092 1.367 . S
C2093 C2101 1.433 . S
C2094 H2090 0.929 . S
C2094 C2096 1.378 . S
C2094 C2098 1.350 . S
C2095 C2098 1.463 . S
C2095 C2100 1.350 . S
C2095 N2103 1.427 . S
C2096 H2087 0.930 . S
C2096 C2094 1.378 . S
C2096 C2097 1.367 . S
C2097 C2096 1.367 . S
C2097 C2099 1.433 . S
C2098 C2094 1.350 . S
C2098 C2095 1.463 . S
C2098 N2102 1.427 . S
C2099 H2089 0.929 . S
C2099 C2097 1.433 . S
C2099 N2102 1.384 . S
C2100 H2091 0.929 . S
C2100 C2092 1.378 . S
C2100 C2095 1.350 . S
C2101 H2088 0.929 . S
C2101 C2093 1.433 . S
C2101 N2103 1.384 . S
N2102 C2098 1.427 . S
N2102 C2099 1.384 . S
N2103 C2095 1.427 . S
N2103 C2101 1.384 . S
H2104 C2110 0.930 . S
H2105 C2114 0.930 . S
H2106 C2119 0.929 . S
H2107 C2117 0.929 . S
H2108 C2112 0.929 . S
H2109 C2118 0.929 . S
C2110 H2104 0.930 . S
C2110 C2111 1.367 . S
C2110 C2118 1.378 . S
C2111 C2110 1.367 . S
C2111 C2119 1.433 . S
C2112 H2108 0.929 . S
C2112 C2114 1.378 . S
C2112 C2116 1.350 . S
C2113 C2116 1.463 . S
C2113 C2118 1.350 . S
C2113 N2121 1.427 . S
C2114 H2105 0.930 . S
C2114 C2112 1.378 . S
C2114 C2115 1.367 . S
C2115 C2114 1.367 . S
C2115 C2117 1.433 . S
C2116 C2112 1.350 . S
C2116 C2113 1.463 . S
C2116 N2120 1.427 . S
C2117 H2107 0.929 . S
C2117 C2115 1.433 . S
C2117 N2120 1.384 . S
C2118 H2109 0.929 . S
C2118 C2110 1.378 . S
C2118 C2113 1.350 . S
C2119 H2106 0.929 . S
C2119 C2111 1.433 . S
C2119 N2121 1.384 . S
N2120 C2116 1.427 . S
N2120 C2117 1.384 . S
N2121 C2113 1.427 . S
N2121 C2119 1.384 . S
H2122 C2128 0.930 . S
H2123 C2132 0.930 . S
H2124 C2137 0.929 . S
H2125 C2135 0.929 . S
H2126 C2130 0.929 . S
H2127 C2136 0.929 . S
C2128 H2122 0.930 . S
C2128 C2129 1.367 . S
C2128 C2136 1.378 . S
C2129 C2128 1.367 . S
C2129 C2137 1.433 . S
C2130 H2126 0.929 . S
C2130 C2132 1.378 . S
C2130 C2134 1.350 . S
C2131 C2134 1.463 . S
C2131 C2136 1.350 . S
C2131 N2139 1.427 . S
C2132 H2123 0.930 . S
C2132 C2130 1.378 . S
C2132 C2133 1.367 . S
C2133 C2132 1.367 . S
C2133 C2135 1.433 . S
C2134 C2130 1.350 . S
C2134 C2131 1.463 . S
C2134 N2138 1.427 . S
C2135 H2125 0.929 . S
C2135 C2133 1.433 . S
C2135 N2138 1.384 . S
C2136 H2127 0.929 . S
C2136 C2128 1.378 . S
C2136 C2131 1.350 . S
C2137 H2124 0.929 . S
C2137 C2129 1.433 . S
C2137 N2139 1.384 . S
N2138 C2134 1.427 . S
N2138 C2135 1.384 . S
N2139 C2131 1.427 . S
N2139 C2137 1.384 . S
H2140 C2146 0.930 . S
H2141 C2150 0.930 . S
H2142 C2155 0.929 . S
H2143 C2153 0.929 . S
H2144 C2148 0.929 . S
H2145 C2154 0.929 . S
C2146 H2140 0.930 . S
C2146 C2147 1.367 . S
C2146 C2154 1.378 . S
C2147 C2146 1.367 . S
C2147 C2155 1.433 . S
C2148 H2144 0.929 . S
C2148 C2150 1.378 . S
C2148 C2152 1.350 . S
C2149 C2152 1.463 . S
C2149 C2154 1.350 . S
C2149 N2157 1.427 . S
C2150 H2141 0.930 . S
C2150 C2148 1.378 . S
C2150 C2151 1.367 . S
C2151 C2150 1.367 . S
C2151 C2153 1.433 . S
C2152 C2148 1.350 . S
C2152 C2149 1.463 . S
C2152 N2156 1.427 . S
C2153 H2143 0.929 . S
C2153 C2151 1.433 . S
C2153 N2156 1.384 . S
C2154 H2145 0.929 . S
C2154 C2146 1.378 . S
C2154 C2149 1.350 . S
C2155 H2142 0.929 . S
C2155 C2147 1.433 . S
C2155 N2157 1.384 . S
N2156 C2152 1.427 . S
N2156 C2153 1.384 . S
N2157 C2149 1.427 . S
N2157 C2155 1.384 . S
H2158 C2164 0.930 . S
H2159 C2168 0.930 . S
H2160 C2173 0.929 . S
H2161 C2171 0.927 . S
H2162 C2166 0.929 . S
H2163 C2172 0.929 . S
C2164 H2158 0.930 . S
C2164 C2165 1.367 . S
C2164 C2172 1.378 . S
C2165 C2164 1.367 . S
C2165 C2173 1.433 . S
C2166 H2162 0.929 . S
C2166 C2168 1.378 . S
C2166 C2170 1.350 . S
C2167 C2170 1.463 . S
C2167 C2172 1.350 . S
C2167 N2175 1.427 . S
C2168 H2159 0.930 . S
C2168 C2166 1.378 . S
C2168 C2169 1.367 . S
C2169 C2168 1.367 . S
C2169 C2171 1.433 . S
C2170 C2166 1.350 . S
C2170 C2167 1.463 . S
C2170 N2174 1.427 . S
C2171 H2161 0.927 . S
C2171 C2169 1.433 . S
C2171 N2174 1.384 . S
C2172 H2163 0.929 . S
C2172 C2164 1.378 . S
C2172 C2167 1.350 . S
C2173 H2160 0.929 . S
C2173 C2165 1.433 . S
C2173 N2175 1.384 . S
N2174 C2170 1.427 . S
N2174 C2171 1.384 . S
N2175 C2167 1.427 . S
N2175 C2173 1.384 . S
H2176 C2182 0.930 . S
H2177 C2186 0.930 . S
H2178 C2191 0.929 . S
H2179 C2189 0.929 . S
H2180 C2184 0.929 . S
H2181 C2190 0.929 . S
C2182 H2176 0.930 . S
C2182 C2183 1.367 . S
C2182 C2190 1.378 . S
C2183 C2182 1.367 . S
C2183 C2191 1.433 . S
C2184 H2180 0.929 . S
C2184 C2186 1.378 . S
C2184 C2188 1.350 . S
C2185 C2188 1.463 . S
C2185 C2190 1.350 . S
C2185 N2193 1.427 . S
C2186 H2177 0.930 . S
C2186 C2184 1.378 . S
C2186 C2187 1.367 . S
C2187 C2186 1.367 . S
C2187 C2189 1.433 . S
C2188 C2184 1.350 . S
C2188 C2185 1.463 . S
C2188 N2192 1.427 . S
C2189 H2179 0.929 . S
C2189 C2187 1.433 . S
C2189 N2192 1.384 . S
C2190 H2181 0.929 . S
C2190 C2182 1.378 . S
C2190 C2185 1.350 . S
C2191 H2178 0.929 . S
C2191 C2183 1.433 . S
C2191 N2193 1.384 . S
N2192 C2188 1.427 . S
N2192 C2189 1.384 . S
N2193 C2185 1.427 . S
N2193 C2191 1.384 . S
H2194 C2200 0.930 . S
H2195 C2204 0.930 . S
H2196 C2209 0.929 . S
H2197 C2207 0.929 . S
H2198 C2202 0.929 . S
H2199 C2208 0.929 . S
C2200 H2194 0.930 . S
C2200 C2201 1.367 . S
C2200 C2208 1.378 . S
C2201 C2200 1.367 . S
C2201 C2209 1.433 . S
C2202 H2198 0.929 . S
C2202 C2204 1.378 . S
C2202 C2206 1.350 . S
C2203 C2206 1.463 . S
C2203 C2208 1.350 . S
C2203 N2211 1.427 . S
C2204 H2195 0.930 . S
C2204 C2202 1.378 . S
C2204 C2205 1.367 . S
C2205 C2204 1.367 . S
C2205 C2207 1.433 . S
C2206 C2202 1.350 . S
C2206 C2203 1.463 . S
C2206 N2210 1.427 . S
C2207 H2197 0.929 . S
C2207 C2205 1.433 . S
C2207 N2210 1.384 . S
C2208 H2199 0.929 . S
C2208 C2200 1.378 . S
C2208 C2203 1.350 . S
C2209 H2196 0.929 . S
C2209 C2201 1.433 . S
C2209 N2211 1.384 . S
N2210 C2206 1.427 . S
N2210 C2207 1.384 . S
N2211 C2203 1.427 . S
N2211 C2209 1.384 . S
H2212 C2218 0.930 . S
H2213 C2222 0.930 . S
H2214 C2227 0.929 . S
H2215 C2225 0.929 . S
H2216 C2220 0.929 . S
H2217 C2226 0.929 . S
C2218 H2212 0.930 . S
C2218 C2219 1.367 . S
C2218 C2226 1.378 . S
C2219 C2218 1.367 . S
C2219 C2227 1.433 . S
C2220 H2216 0.929 . S
C2220 C2222 1.378 . S
C2220 C2224 1.350 . S
C2221 C2224 1.463 . S
C2221 C2226 1.350 . S
C2221 N2229 1.427 . S
C2222 H2213 0.930 . S
C2222 C2220 1.378 . S
C2222 C2223 1.367 . S
C2223 C2222 1.367 . S
C2223 C2225 1.433 . S
C2224 C2220 1.350 . S
C2224 C2221 1.463 . S
C2224 N2228 1.427 . S
C2225 H2215 0.929 . S
C2225 C2223 1.433 . S
C2225 N2228 1.384 . S
C2226 H2217 0.929 . S
C2226 C2218 1.378 . S
C2226 C2221 1.350 . S
C2227 H2214 0.929 . S
C2227 C2219 1.433 . S
C2227 N2229 1.384 . S
N2228 C2224 1.427 . S
N2228 C2225 1.384 . S
N2229 C2221 1.427 . S
N2229 C2227 1.384 . S
H2230 C2236 0.930 . S
H2231 C2240 0.930 . S
H2232 C2245 0.929 . S
H2233 C2243 0.929 . S
H2234 C2238 0.929 . S
H2235 C2244 0.929 . S
C2236 H2230 0.930 . S
C2236 C2237 1.367 . S
C2236 C2244 1.378 . S
C2237 C2236 1.367 . S
C2237 C2245 1.433 . S
C2238 H2234 0.929 . S
C2238 C2240 1.378 . S
C2238 C2242 1.350 . S
C2239 C2242 1.463 . S
C2239 C2244 1.350 . S
C2239 N2247 1.427 . S
C2240 H2231 0.930 . S
C2240 C2238 1.378 . S
C2240 C2241 1.367 . S
C2241 C2240 1.367 . S
C2241 C2243 1.433 . S
C2242 C2238 1.350 . S
C2242 C2239 1.463 . S
C2242 N2246 1.427 . S
C2243 H2233 0.929 . S
C2243 C2241 1.433 . S
C2243 N2246 1.384 . S
C2244 H2235 0.929 . S
C2244 C2236 1.378 . S
C2244 C2239 1.350 . S
C2245 H2232 0.929 . S
C2245 C2237 1.433 . S
C2245 N2247 1.384 . S
N2246 C2242 1.427 . S
N2246 C2243 1.384 . S
N2247 C2239 1.427 . S
N2247 C2245 1.384 . S
H2248 C2254 0.930 . S
H2249 C2258 0.930 . S
H2250 C2263 0.929 . S
H2251 C2261 0.929 . S
H2252 C2256 0.929 . S
H2253 C2262 0.929 . S
C2254 H2248 0.930 . S
C2254 C2255 1.367 . S
C2254 C2262 1.378 . S
C2255 C2254 1.367 . S
C2255 C2263 1.433 . S
C2256 H2252 0.929 . S
C2256 C2258 1.378 . S
C2256 C2260 1.350 . S
C2257 C2260 1.463 . S
C2257 C2262 1.350 . S
C2257 N2265 1.427 . S
C2258 H2249 0.930 . S
C2258 C2256 1.378 . S
C2258 C2259 1.367 . S
C2259 C2258 1.367 . S
C2259 C2261 1.433 . S
C2260 C2256 1.350 . S
C2260 C2257 1.463 . S
C2260 N2264 1.427 . S
C2261 H2251 0.929 . S
C2261 C2259 1.433 . S
C2261 N2264 1.384 . S
C2262 H2253 0.929 . S
C2262 C2254 1.378 . S
C2262 C2257 1.350 . S
C2263 H2250 0.929 . S
C2263 C2255 1.433 . S
C2263 N2265 1.384 . S
N2264 C2260 1.427 . S
N2264 C2261 1.384 . S
N2265 C2257 1.427 . S
N2265 C2263 1.384 . S
H2266 C2272 0.930 . S
H2267 C2276 0.930 . S
H2268 C2281 0.929 . S
H2269 C2279 0.929 . S
H2270 C2274 0.929 . S
H2271 C2280 0.929 . S
C2272 H2266 0.930 . S
C2272 C2273 1.367 . S
C2272 C2280 1.378 . S
C2273 C2272 1.367 . S
C2273 C2281 1.433 . S
C2274 H2270 0.929 . S
C2274 C2276 1.378 . S
C2274 C2278 1.350 . S
C2275 C2278 1.463 . S
C2275 C2280 1.350 . S
C2275 N2283 1.427 . S
C2276 H2267 0.930 . S
C2276 C2274 1.378 . S
C2276 C2277 1.367 . S
C2277 C2276 1.367 . S
C2277 C2279 1.433 . S
C2278 C2274 1.350 . S
C2278 C2275 1.463 . S
C2278 N2282 1.427 . S
C2279 H2269 0.929 . S
C2279 C2277 1.433 . S
C2279 N2282 1.384 . S
C2280 H2271 0.929 . S
C2280 C2272 1.378 . S
C2280 C2275 1.350 . S
C2281 H2268 0.929 . S
C2281 C2273 1.433 . S
C2281 N2283 1.384 . S
N2282 C2278 1.427 . S
N2282 C2279 1.384 . S
N2283 C2275 1.427 . S
N2283 C2281 1.384 . S
H2284 C2290 0.930 . S
H2285 C2294 0.930 . S
H2286 C2299 0.929 . S
H2287 C2297 0.929 . S
H2288 C2292 0.929 . S
H2289 C2298 0.929 . S
C2290 H2284 0.930 . S
C2290 C2291 1.367 . S
C2290 C2298 1.378 . S
C2291 C2290 1.367 . S
C2291 C2299 1.433 . S
C2292 H2288 0.929 . S
C2292 C2294 1.378 . S
C2292 C2296 1.350 . S
C2293 C2296 1.463 . S
C2293 C2298 1.350 . S
C2293 N2301 1.427 . S
C2294 H2285 0.930 . S
C2294 C2292 1.378 . S
C2294 C2295 1.367 . S
C2295 C2294 1.367 . S
C2295 C2297 1.433 . S
C2296 C2292 1.350 . S
C2296 C2293 1.463 . S
C2296 N2300 1.427 . S
C2297 H2287 0.929 . S
C2297 C2295 1.433 . S
C2297 N2300 1.384 . S
C2298 H2289 0.929 . S
C2298 C2290 1.378 . S
C2298 C2293 1.350 . S
C2299 H2286 0.929 . S
C2299 C2291 1.433 . S
C2299 N2301 1.384 . S
N2300 C2296 1.427 . S
N2300 C2297 1.384 . S
N2301 C2293 1.427 . S
N2301 C2299 1.384 . S
H2302 C2308 0.930 . S
H2303 C2312 0.930 . S
H2304 C2317 0.929 . S
H2305 C2315 0.929 . S
H2306 C2310 0.929 . S
H2307 C2316 0.929 . S
C2308 H2302 0.930 . S
C2308 C2309 1.367 . S
C2308 C2316 1.378 . S
C2309 C2308 1.367 . S
C2309 C2317 1.433 . S
C2310 H2306 0.929 . S
C2310 C2312 1.378 . S
C2310 C2314 1.350 . S
C2311 C2314 1.463 . S
C2311 C2316 1.350 . S
C2311 N2319 1.427 . S
C2312 H2303 0.930 . S
C2312 C2310 1.378 . S
C2312 C2313 1.367 . S
C2313 C2312 1.367 . S
C2313 C2315 1.433 . S
C2314 C2310 1.350 . S
C2314 C2311 1.463 . S
C2314 N2318 1.427 . S
C2315 H2305 0.929 . S
C2315 C2313 1.433 . S
C2315 N2318 1.384 . S
C2316 H2307 0.929 . S
C2316 C2308 1.378 . S
C2316 C2311 1.350 . S
C2317 H2304 0.929 . S
C2317 C2309 1.433 . S
C2317 N2319 1.384 . S
N2318 C2314 1.427 . S
N2318 C2315 1.384 . S
N2319 C2311 1.427 . S
N2319 C2317 1.384 . S
H2320 C2326 0.930 . S
H2321 C2330 0.930 . S
H2322 C2335 0.929 . S
H2323 C2333 0.929 . S
H2324 C2328 0.929 . S
H2325 C2334 0.929 . S
C2326 H2320 0.930 . S
C2326 C2327 1.367 . S
C2326 C2334 1.378 . S
C2327 C2326 1.367 . S
C2327 C2335 1.433 . S
C2328 H2324 0.929 . S
C2328 C2330 1.378 . S
C2328 C2332 1.350 . S
C2329 C2332 1.463 . S
C2329 C2334 1.350 . S
C2329 N2337 1.427 . S
C2330 H2321 0.930 . S
C2330 C2328 1.378 . S
C2330 C2331 1.367 . S
C2331 C2330 1.367 . S
C2331 C2333 1.433 . S
C2332 C2328 1.350 . S
C2332 C2329 1.463 . S
C2332 N2336 1.427 . S
C2333 H2323 0.929 . S
C2333 C2331 1.433 . S
C2333 N2336 1.384 . S
C2334 H2325 0.929 . S
C2334 C2326 1.378 . S
C2334 C2329 1.350 . S
C2335 H2322 0.929 . S
C2335 C2327 1.433 . S
C2335 N2337 1.384 . S
N2336 C2332 1.427 . S
N2336 C2333 1.384 . S
N2337 C2329 1.427 . S
N2337 C2335 1.384 . S
H2338 C2344 0.930 . S
H2339 C2348 0.930 . S
H2340 C2353 0.929 . S
H2341 C2351 0.929 . S
H2342 C2346 0.929 . S
H2343 C2352 0.929 . S
C2344 H2338 0.930 . S
C2344 C2345 1.367 . S
C2344 C2352 1.378 . S
C2345 C2344 1.367 . S
C2345 C2353 1.433 . S
C2346 H2342 0.929 . S
C2346 C2348 1.378 . S
C2346 C2350 1.350 . S
C2347 C2350 1.463 . S
C2347 C2352 1.350 . S
C2347 N2355 1.427 . S
C2348 H2339 0.930 . S
C2348 C2346 1.378 . S
C2348 C2349 1.367 . S
C2349 C2348 1.367 . S
C2349 C2351 1.433 . S
C2350 C2346 1.350 . S
C2350 C2347 1.463 . S
C2350 N2354 1.427 . S
C2351 H2341 0.929 . S
C2351 C2349 1.433 . S
C2351 N2354 1.384 . S
C2352 H2343 0.929 . S
C2352 C2344 1.378 . S
C2352 C2347 1.350 . S
C2353 H2340 0.929 . S
C2353 C2345 1.433 . S
C2353 N2355 1.384 . S
N2354 C2350 1.427 . S
N2354 C2351 1.384 . S
N2355 C2347 1.427 . S
N2355 C2353 1.384 . S
H2356 C2362 0.930 . S
H2357 C2366 0.930 . S
H2358 C2371 0.929 . S
H2359 C2369 0.929 . S
H2360 C2364 0.929 . S
H2361 C2370 0.929 . S
C2362 H2356 0.930 . S
C2362 C2363 1.367 . S
C2362 C2370 1.378 . S
C2363 C2362 1.367 . S
C2363 C2371 1.433 . S
C2364 H2360 0.929 . S
C2364 C2366 1.378 . S
C2364 C2368 1.350 . S
C2365 C2368 1.463 . S
C2365 C2370 1.350 . S
C2365 N2373 1.427 . S
C2366 H2357 0.930 . S
C2366 C2364 1.378 . S
C2366 C2367 1.367 . S
C2367 C2366 1.367 . S
C2367 C2369 1.433 . S
C2368 C2364 1.350 . S
C2368 C2365 1.463 . S
C2368 N2372 1.427 . S
C2369 H2359 0.929 . S
C2369 C2367 1.433 . S
C2369 N2372 1.384 . S
C2370 H2361 0.929 . S
C2370 C2362 1.378 . S
C2370 C2365 1.350 . S
C2371 H2358 0.929 . S
C2371 C2363 1.433 . S
C2371 N2373 1.384 . S
N2372 C2368 1.427 . S
N2372 C2369 1.384 . S
N2373 C2365 1.427 . S
N2373 C2371 1.384 . S
H2374 C2380 0.930 1_455 S
H2375 C2384 0.930 . S
H2376 C2389 0.929 . S
H2377 C2387 0.929 . S
H2378 C2382 0.929 . S
H2379 C2388 0.929 . S
C2380 H2374 0.930 1_655 S
C2380 C2381 1.367 . S
C2380 C2388 1.378 . S
C2381 C2380 1.367 . S
C2381 C2389 1.433 . S
C2382 H2378 0.929 . S
C2382 C2384 1.378 . S
C2382 C2386 1.350 . S
C2383 C2386 1.463 . S
C2383 C2388 1.350 . S
C2383 N2391 1.427 . S
C2384 H2375 0.930 . S
C2384 C2382 1.378 . S
C2384 C2385 1.367 . S
C2385 C2384 1.367 . S
C2385 C2387 1.433 . S
C2386 C2382 1.350 . S
C2386 C2383 1.463 . S
C2386 N2390 1.427 . S
C2387 H2377 0.929 . S
C2387 C2385 1.433 . S
C2387 N2390 1.384 . S
C2388 H2379 0.929 . S
C2388 C2380 1.378 . S
C2388 C2383 1.350 . S
C2389 H2376 0.929 . S
C2389 C2381 1.433 . S
C2389 N2391 1.384 . S
N2390 C2386 1.427 . S
N2390 C2387 1.384 . S
N2391 C2383 1.427 . S
N2391 C2389 1.384 . S
H2392 C2398 0.930 . S
H2393 C2402 0.930 . S
H2394 C2407 0.929 . S
H2395 C2405 0.929 . S
H2396 C2400 0.929 . S
H2397 C2406 0.929 . S
C2398 H2392 0.930 . S
C2398 C2399 1.367 . S
C2398 C2406 1.378 . S
C2399 C2398 1.367 . S
C2399 C2407 1.433 . S
C2400 H2396 0.929 . S
C2400 C2402 1.378 . S
C2400 C2404 1.350 . S
C2401 C2404 1.463 . S
C2401 C2406 1.350 . S
C2401 N2409 1.427 . S
C2402 H2393 0.930 . S
C2402 C2400 1.378 . S
C2402 C2403 1.367 . S
C2403 C2402 1.367 . S
C2403 C2405 1.433 . S
C2404 C2400 1.350 . S
C2404 C2401 1.463 . S
C2404 N2408 1.427 . S
C2405 H2395 0.929 . S
C2405 C2403 1.433 . S
C2405 N2408 1.384 . S
C2406 H2397 0.929 . S
C2406 C2398 1.378 . S
C2406 C2401 1.350 . S
C2407 H2394 0.929 . S
C2407 C2399 1.433 . S
C2407 N2409 1.384 . S
N2408 C2404 1.427 . S
N2408 C2405 1.384 . S
N2409 C2401 1.427 . S
N2409 C2407 1.384 . S
H2410 C2416 0.930 1_455 S
H2411 C2420 0.930 . S
H2412 C2425 0.929 . S
H2413 C2423 0.929 . S
H2414 C2418 0.929 . S
H2415 C2424 0.929 . S
C2416 H2410 0.930 1_655 S
C2416 C2417 1.367 . S
C2416 C2424 1.378 . S
C2417 C2416 1.367 . S
C2417 C2425 1.433 . S
C2418 H2414 0.929 . S
C2418 C2420 1.378 . S
C2418 C2422 1.350 . S
C2419 C2422 1.463 . S
C2419 C2424 1.350 . S
C2419 N2427 1.427 . S
C2420 H2411 0.930 . S
C2420 C2418 1.378 . S
C2420 C2421 1.367 . S
C2421 C2420 1.367 . S
C2421 C2423 1.433 . S
C2422 C2418 1.350 . S
C2422 C2419 1.463 . S
C2422 N2426 1.427 . S
C2423 H2413 0.929 . S
C2423 C2421 1.433 . S
C2423 N2426 1.384 . S
C2424 H2415 0.929 . S
C2424 C2416 1.378 . S
C2424 C2419 1.350 . S
C2425 H2412 0.929 . S
C2425 C2417 1.433 . S
C2425 N2427 1.384 . S
N2426 C2422 1.427 . S
N2426 C2423 1.384 . S
N2427 C2419 1.427 . S
N2427 C2425 1.384 . S
H2428 C2434 0.930 . S
H2429 C2438 0.930 . S
H2430 C2443 0.929 . S
H2431 C2441 0.929 . S
H2432 C2436 0.929 . S
H2433 C2442 0.929 . S
C2434 H2428 0.930 . S
C2434 C2435 1.367 . S
C2434 C2442 1.378 . S
C2435 C2434 1.367 . S
C2435 C2443 1.433 . S
C2436 H2432 0.929 . S
C2436 C2438 1.378 . S
C2436 C2440 1.350 . S
C2437 C2440 1.463 . S
C2437 C2442 1.350 . S
C2437 N2445 1.427 . S
C2438 H2429 0.930 . S
C2438 C2436 1.378 . S
C2438 C2439 1.367 . S
C2439 C2438 1.367 . S
C2439 C2441 1.433 . S
C2440 C2436 1.350 . S
C2440 C2437 1.463 . S
C2440 N2444 1.427 . S
C2441 H2431 0.929 . S
C2441 C2439 1.433 . S
C2441 N2444 1.384 . S
C2442 H2433 0.929 . S
C2442 C2434 1.378 . S
C2442 C2437 1.350 . S
C2443 H2430 0.929 . S
C2443 C2435 1.433 . S
C2443 N2445 1.384 . S
N2444 C2440 1.427 . S
N2444 C2441 1.384 . S
N2445 C2437 1.427 . S
N2445 C2443 1.384 . S
H2446 C2452 0.930 . S
H2447 C2456 0.930 . S
H2448 C2461 0.929 . S
H2449 C2459 0.929 . S
H2450 C2454 0.929 . S
H2451 C2460 0.929 . S
C2452 H2446 0.930 . S
C2452 C2453 1.367 . S
C2452 C2460 1.378 . S
C2453 C2452 1.367 . S
C2453 C2461 1.433 . S
C2454 H2450 0.929 . S
C2454 C2456 1.378 . S
C2454 C2458 1.350 . S
C2455 C2458 1.463 . S
C2455 C2460 1.350 . S
C2455 N2463 1.427 . S
C2456 H2447 0.930 . S
C2456 C2454 1.378 . S
C2456 C2457 1.367 . S
C2457 C2456 1.367 . S
C2457 C2459 1.433 . S
C2458 C2454 1.350 . S
C2458 C2455 1.463 . S
C2458 N2462 1.427 . S
C2459 H2449 0.929 . S
C2459 C2457 1.433 . S
C2459 N2462 1.384 . S
C2460 H2451 0.929 . S
C2460 C2452 1.378 . S
C2460 C2455 1.350 . S
C2461 H2448 0.929 . S
C2461 C2453 1.433 . S
C2461 N2463 1.384 . S
N2462 C2458 1.427 . S
N2462 C2459 1.384 . S
N2463 C2455 1.427 . S
N2463 C2461 1.384 . S
H2464 C2470 0.930 . S
H2465 C2474 0.930 . S
H2466 C2479 0.929 . S
H2467 C2477 0.929 . S
H2468 C2472 0.929 . S
H2469 C2478 0.929 . S
C2470 H2464 0.930 . S
C2470 C2471 1.367 . S
C2470 C2478 1.378 . S
C2471 C2470 1.367 . S
C2471 C2479 1.433 . S
C2472 H2468 0.929 . S
C2472 C2474 1.378 . S
C2472 C2476 1.350 . S
C2473 C2476 1.463 . S
C2473 C2478 1.350 . S
C2473 N2481 1.427 . S
C2474 H2465 0.930 . S
C2474 C2472 1.378 . S
C2474 C2475 1.367 . S
C2475 C2474 1.367 . S
C2475 C2477 1.433 . S
C2476 C2472 1.350 . S
C2476 C2473 1.463 . S
C2476 N2480 1.427 . S
C2477 H2467 0.929 . S
C2477 C2475 1.433 . S
C2477 N2480 1.384 . S
C2478 H2469 0.929 . S
C2478 C2470 1.378 . S
C2478 C2473 1.350 . S
C2479 H2466 0.929 . S
C2479 C2471 1.433 . S
C2479 N2481 1.384 . S
N2480 C2476 1.427 . S
N2480 C2477 1.384 . S
N2481 C2473 1.427 . S
N2481 C2479 1.384 . S
H2482 C2488 0.930 . S
H2483 C2492 0.930 . S
H2484 C2497 0.929 . S
H2485 C2495 0.929 . S
H2486 C2490 0.929 . S
H2487 C2496 0.929 . S
C2488 H2482 0.930 . S
C2488 C2489 1.367 . S
C2488 C2496 1.378 1_455 S
C2489 C2488 1.367 . S
C2489 C2497 1.433 1_565 S
C2490 H2486 0.929 . S
C2490 C2492 1.378 1_455 S
C2490 C2494 1.350 1_455 S
C2491 C2494 1.463 1_465 S
C2491 C2496 1.350 1_455 S
C2491 N2499 1.427 1_565 S
C2492 H2483 0.930 . S
C2492 C2490 1.378 1_655 S
C2492 C2493 1.367 . S
C2493 C2492 1.367 . S
C2493 C2495 1.433 1_545 S
C2494 C2490 1.350 1_655 S
C2494 C2491 1.463 1_645 S
C2494 N2498 1.427 1_545 S
C2495 H2485 0.929 . S
C2495 C2493 1.433 1_565 S
C2495 N2498 1.384 . S
C2496 H2487 0.929 . S
C2496 C2488 1.378 1_655 S
C2496 C2491 1.350 1_655 S
C2497 H2484 0.929 . S
C2497 C2489 1.433 1_545 S
C2497 N2499 1.384 . S
N2498 C2494 1.427 1_565 S
N2498 C2495 1.384 . S
N2499 C2491 1.427 1_545 S
N2499 C2497 1.384 . S
H2500 C2506 0.930 . S
H2501 C2510 0.930 . S
H2502 C2515 0.929 . S
H2503 C2513 0.929 . S
H2504 C2508 0.929 . S
H2505 C2514 0.929 . S
C2506 H2500 0.930 . S
C2506 C2507 1.367 . S
C2506 C2514 1.378 . S
C2507 C2506 1.367 . S
C2507 C2515 1.433 . S
C2508 H2504 0.929 . S
C2508 C2510 1.378 . S
C2508 C2512 1.350 . S
C2509 C2512 1.463 . S
C2509 C2514 1.350 . S
C2509 N2517 1.427 . S
C2510 H2501 0.930 . S
C2510 C2508 1.378 . S
C2510 C2511 1.367 . S
C2511 C2510 1.367 . S
C2511 C2513 1.433 . S
C2512 C2508 1.350 . S
C2512 C2509 1.463 . S
C2512 N2516 1.427 . S
C2513 H2503 0.929 . S
C2513 C2511 1.433 . S
C2513 N2516 1.384 . S
C2514 H2505 0.929 . S
C2514 C2506 1.378 . S
C2514 C2509 1.350 . S
C2515 H2502 0.929 . S
C2515 C2507 1.433 . S
C2515 N2517 1.384 . S
N2516 C2512 1.427 . S
N2516 C2513 1.384 . S
N2517 C2509 1.427 . S
N2517 C2515 1.384 . S
H2518 C2524 0.930 . S
H2519 C2528 0.930 . S
H2520 C2533 0.929 . S
H2521 C2531 0.929 . S
H2522 C2526 0.929 . S
H2523 C2532 0.929 . S
C2524 H2518 0.930 . S
C2524 C2525 1.367 . S
C2524 C2532 1.378 . S
C2525 C2524 1.367 . S
C2525 C2533 1.433 1_545 S
C2526 H2522 0.929 . S
C2526 C2528 1.378 . S
C2526 C2530 1.350 . S
C2527 C2530 1.463 1_544 S
C2527 C2532 1.350 . S
C2527 N2535 1.427 1_545 S
C2528 H2519 0.930 . S
C2528 C2526 1.378 . S
C2528 C2529 1.367 . S
C2529 C2528 1.367 . S
C2529 C2531 1.433 1_565 S
C2530 C2526 1.350 . S
C2530 C2527 1.463 1_566 S
C2530 N2534 1.427 1_565 S
C2531 H2521 0.929 . S
C2531 C2529 1.433 1_545 S
C2531 N2534 1.384 . S
C2532 H2523 0.929 . S
C2532 C2524 1.378 . S
C2532 C2527 1.350 . S
C2533 H2520 0.929 . S
C2533 C2525 1.433 1_565 S
C2533 N2535 1.384 . S
N2534 C2530 1.427 1_545 S
N2534 C2531 1.384 . S
N2535 C2527 1.427 1_565 S
N2535 C2533 1.384 . S
H2536 C2542 0.930 . S
H2537 C2546 0.930 . S
H2538 C2551 0.929 . S
H2539 C2549 0.929 . S
H2540 C2544 0.929 . S
H2541 C2550 0.929 . S
C2542 H2536 0.930 . S
C2542 C2543 1.367 . S
C2542 C2550 1.378 . S
C2543 C2542 1.367 . S
C2543 C2551 1.433 . S
C2544 H2540 0.929 . S
C2544 C2546 1.378 . S
C2544 C2548 1.350 . S
C2545 C2548 1.463 . S
C2545 C2550 1.350 . S
C2545 N2553 1.427 . S
C2546 H2537 0.930 . S
C2546 C2544 1.378 . S
C2546 C2547 1.367 . S
C2547 C2546 1.367 . S
C2547 C2549 1.433 . S
C2548 C2544 1.350 . S
C2548 C2545 1.463 . S
C2548 N2552 1.427 . S
C2549 H2539 0.929 . S
C2549 C2547 1.433 . S
C2549 N2552 1.384 . S
C2550 H2541 0.929 . S
C2550 C2542 1.378 . S
C2550 C2545 1.350 . S
C2551 H2538 0.929 . S
C2551 C2543 1.433 . S
C2551 N2553 1.384 . S
N2552 C2548 1.427 . S
N2552 C2549 1.384 . S
N2553 C2545 1.427 . S
N2553 C2551 1.384 . S
H2554 C2560 0.930 . S
H2555 C2564 0.930 . S
H2556 C2569 0.929 . S
H2557 C2567 0.929 . S
H2558 C2562 0.929 . S
H2559 C2568 0.929 . S
C2560 H2554 0.930 . S
C2560 C2561 1.367 . S
C2560 C2568 1.378 . S
C2561 C2560 1.367 . S
C2561 C2569 1.433 . S
C2562 H2558 0.929 . S
C2562 C2564 1.378 . S
C2562 C2566 1.350 . S
C2563 C2566 1.463 1_565 S
C2563 C2568 1.350 . S
C2563 N2571 1.427 . S
C2564 H2555 0.930 . S
C2564 C2562 1.378 . S
C2564 C2565 1.367 . S
C2565 C2564 1.367 . S
C2565 C2567 1.433 . S
C2566 C2562 1.350 . S
C2566 C2563 1.463 1_545 S
C2566 N2570 1.427 . S
C2567 H2557 0.929 . S
C2567 C2565 1.433 . S
C2567 N2570 1.384 . S
C2568 H2559 0.929 . S
C2568 C2560 1.378 . S
C2568 C2563 1.350 . S
C2569 H2556 0.929 . S
C2569 C2561 1.433 . S
C2569 N2571 1.384 . S
N2570 C2566 1.427 . S
N2570 C2567 1.384 . S
N2571 C2563 1.427 . S
N2571 C2569 1.384 . S
H2572 C2578 0.930 . S
H2573 C2582 0.930 . S
H2574 C2587 0.929 . S
H2575 C2585 0.929 . S
H2576 C2580 0.929 . S
H2577 C2586 0.929 . S
C2578 H2572 0.930 . S
C2578 C2579 1.367 . S
C2578 C2586 1.378 . S
C2579 C2578 1.367 . S
C2579 C2587 1.433 . S
C2580 H2576 0.929 . S
C2580 C2582 1.378 . S
C2580 C2584 1.350 . S
C2581 C2584 1.463 . S
C2581 C2586 1.350 . S
C2581 N2589 1.427 . S
C2582 H2573 0.930 . S
C2582 C2580 1.378 . S
C2582 C2583 1.367 . S
C2583 C2582 1.367 . S
C2583 C2585 1.433 . S
C2584 C2580 1.350 . S
C2584 C2581 1.463 . S
C2584 N2588 1.427 . S
C2585 H2575 0.929 . S
C2585 C2583 1.433 . S
C2585 N2588 1.384 . S
C2586 H2577 0.929 . S
C2586 C2578 1.378 . S
C2586 C2581 1.350 . S
C2587 H2574 0.929 . S
C2587 C2579 1.433 . S
C2587 N2589 1.384 . S
N2588 C2584 1.427 . S
N2588 C2585 1.384 . S
N2589 C2581 1.427 . S
N2589 C2587 1.384 . S
H2590 C2596 0.930 . S
H2591 C2600 0.930 . S
H2592 C2605 0.929 1_655 S
H2593 C2603 0.929 1_455 S
H2594 C2598 0.929 . S
H2595 C2604 0.929 . S
C2596 H2590 0.930 . S
C2596 C2597 1.367 1_565 S
C2596 C2604 1.378 . S
C2597 C2596 1.367 1_545 S
C2597 C2605 1.433 . S
C2598 H2594 0.929 . S
C2598 C2600 1.378 . S
C2598 C2602 1.350 1_545 S
C2599 C2602 1.463 1_446 S
C2599 C2604 1.350 1_545 S
C2599 N2607 1.427 1_455 S
C2600 H2591 0.930 . S
C2600 C2598 1.378 . S
C2600 C2601 1.367 1_545 S
C2601 C2600 1.367 1_565 S
C2601 C2603 1.433 . S
C2602 C2598 1.350 1_565 S
C2602 C2599 1.463 1_664 S
C2602 N2606 1.427 1_655 S
C2603 H2593 0.929 1_655 S
C2603 C2601 1.433 . S
C2603 N2606 1.384 1_655 S
C2604 H2595 0.929 . S
C2604 C2596 1.378 . S
C2604 C2599 1.350 1_565 S
C2605 H2592 0.929 1_455 S
C2605 C2597 1.433 . S
C2605 N2607 1.384 1_455 S
N2606 C2602 1.427 1_455 S
N2606 C2603 1.384 1_455 S
N2607 C2599 1.427 1_655 S
N2607 C2605 1.384 1_655 S
H2608 C2614 0.930 . S
H2609 C2618 0.930 . S
H2610 C2623 0.929 . S
H2611 C2621 0.929 . S
H2612 C2616 0.929 . S
H2613 C2622 0.929 . S
C2614 H2608 0.930 . S
C2614 C2615 1.367 . S
C2614 C2622 1.378 . S
C2615 C2614 1.367 . S
C2615 C2623 1.433 . S
C2616 H2612 0.929 . S
C2616 C2618 1.378 . S
C2616 C2620 1.350 . S
C2617 C2620 1.463 . S
C2617 C2622 1.350 . S
C2617 N2625 1.427 . S
C2618 H2609 0.930 . S
C2618 C2616 1.378 . S
C2618 C2619 1.367 . S
C2619 C2618 1.367 . S
C2619 C2621 1.433 . S
C2620 C2616 1.350 . S
C2620 C2617 1.463 . S
C2620 N2624 1.427 . S
C2621 H2611 0.929 . S
C2621 C2619 1.433 . S
C2621 N2624 1.384 . S
C2622 H2613 0.929 . S
C2622 C2614 1.378 . S
C2622 C2617 1.350 . S
C2623 H2610 0.929 . S
C2623 C2615 1.433 . S
C2623 N2625 1.384 . S
N2624 C2620 1.427 . S
N2624 C2621 1.384 . S
N2625 C2617 1.427 . S
N2625 C2623 1.384 . S
H2626 C2632 0.930 . S
H2627 C2636 0.930 . S
H2628 C2641 0.929 . S
H2629 C2639 0.929 . S
H2630 C2634 0.929 . S
H2631 C2640 0.929 . S
C2632 H2626 0.930 . S
C2632 C2633 1.367 . S
C2632 C2640 1.378 . S
C2633 C2632 1.367 . S
C2633 C2641 1.433 . S
C2634 H2630 0.929 . S
C2634 C2636 1.378 . S
C2634 C2638 1.350 . S
C2635 C2638 1.463 . S
C2635 C2640 1.350 . S
C2635 N2643 1.427 . S
C2636 H2627 0.930 . S
C2636 C2634 1.378 . S
C2636 C2637 1.367 . S
C2637 C2636 1.367 . S
C2637 C2639 1.433 . S
C2638 C2634 1.350 . S
C2638 C2635 1.463 . S
C2638 N2642 1.427 . S
C2639 H2629 0.929 . S
C2639 C2637 1.433 . S
C2639 N2642 1.384 . S
C2640 H2631 0.929 . S
C2640 C2632 1.378 . S
C2640 C2635 1.350 . S
C2641 H2628 0.929 . S
C2641 C2633 1.433 . S
C2641 N2643 1.384 . S
N2642 C2638 1.427 . S
N2642 C2639 1.384 . S
N2643 C2635 1.427 . S
N2643 C2641 1.384 . S
H2644 C2650 0.930 . S
H2645 C2654 0.930 . S
H2646 C2659 0.929 . S
H2647 C2657 0.929 . S
H2648 C2652 0.929 . S
H2649 C2658 0.929 . S
C2650 H2644 0.930 . S
C2650 C2651 1.367 . S
C2650 C2658 1.378 . S
C2651 C2650 1.367 . S
C2651 C2659 1.433 . S
C2652 H2648 0.929 . S
C2652 C2654 1.378 . S
C2652 C2656 1.350 . S
C2653 C2656 1.463 . S
C2653 C2658 1.350 . S
C2653 N2661 1.427 . S
C2654 H2645 0.930 . S
C2654 C2652 1.378 . S
C2654 C2655 1.367 . S
C2655 C2654 1.367 . S
C2655 C2657 1.433 . S
C2656 C2652 1.350 . S
C2656 C2653 1.463 . S
C2656 N2660 1.427 . S
C2657 H2647 0.929 . S
C2657 C2655 1.433 . S
C2657 N2660 1.384 . S
C2658 H2649 0.929 . S
C2658 C2650 1.378 . S
C2658 C2653 1.350 . S
C2659 H2646 0.929 . S
C2659 C2651 1.433 . S
C2659 N2661 1.384 . S
N2660 C2656 1.427 . S
N2660 C2657 1.384 . S
N2661 C2653 1.427 . S
N2661 C2659 1.384 . S
H2662 C2668 0.930 . S
H2663 C2672 0.930 . S
H2664 C2677 0.929 . S
H2665 C2675 0.929 . S
H2666 C2670 0.929 . S
H2667 C2676 0.929 . S
C2668 H2662 0.930 . S
C2668 C2669 1.367 . S
C2668 C2676 1.378 . S
C2669 C2668 1.367 . S
C2669 C2677 1.433 . S
C2670 H2666 0.929 . S
C2670 C2672 1.378 . S
C2670 C2674 1.350 . S
C2671 C2674 1.463 . S
C2671 C2676 1.350 . S
C2671 N2679 1.427 . S
C2672 H2663 0.930 . S
C2672 C2670 1.378 . S
C2672 C2673 1.367 . S
C2673 C2672 1.367 . S
C2673 C2675 1.433 . S
C2674 C2670 1.350 . S
C2674 C2671 1.463 . S
C2674 N2678 1.427 . S
C2675 H2665 0.929 . S
C2675 C2673 1.433 . S
C2675 N2678 1.384 . S
C2676 H2667 0.929 . S
C2676 C2668 1.378 . S
C2676 C2671 1.350 . S
C2677 H2664 0.929 . S
C2677 C2669 1.433 . S
C2677 N2679 1.384 . S
N2678 C2674 1.427 . S
N2678 C2675 1.384 . S
N2679 C2671 1.427 . S
N2679 C2677 1.384 . S
H2680 C2686 0.930 . S
H2681 C2690 0.930 . S
H2682 C2695 0.929 . S
H2683 C2693 0.929 . S
H2684 C2688 0.929 . S
H2685 C2694 0.929 . S
C2686 H2680 0.930 . S
C2686 C2687 1.367 . S
C2686 C2694 1.378 . S
C2687 C2686 1.367 . S
C2687 C2695 1.433 . S
C2688 H2684 0.929 . S
C2688 C2690 1.378 . S
C2688 C2692 1.350 . S
C2689 C2692 1.463 1_554 S
C2689 C2694 1.350 . S
C2689 N2697 1.427 . S
C2690 H2681 0.930 . S
C2690 C2688 1.378 . S
C2690 C2691 1.367 . S
C2691 C2690 1.367 . S
C2691 C2693 1.433 . S
C2692 C2688 1.350 . S
C2692 C2689 1.463 1_556 S
C2692 N2696 1.427 . S
C2693 H2683 0.929 . S
C2693 C2691 1.433 . S
C2693 N2696 1.384 . S
C2694 H2685 0.929 . S
C2694 C2686 1.378 . S
C2694 C2689 1.350 . S
C2695 H2682 0.929 . S
C2695 C2687 1.433 . S
C2695 N2697 1.384 . S
N2696 C2692 1.427 . S
N2696 C2693 1.384 . S
N2697 C2689 1.427 . S
N2697 C2695 1.384 . S
H2698 C2704 0.930 . S
H2699 C2708 0.930 . S
H2700 C2713 0.929 . S
H2701 C2711 0.929 . S
H2702 C2706 0.929 . S
H2703 C2712 0.929 . S
C2704 H2698 0.930 . S
C2704 C2705 1.367 . S
C2704 C2712 1.378 . S
C2705 C2704 1.367 . S
C2705 C2713 1.433 . S
C2706 H2702 0.929 . S
C2706 C2708 1.378 . S
C2706 C2710 1.350 . S
C2707 C2710 1.463 1_455 S
C2707 C2712 1.350 . S
C2707 N2715 1.425 1_455 S
C2708 H2699 0.930 . S
C2708 C2706 1.378 . S
C2708 C2709 1.367 . S
C2709 C2708 1.367 . S
C2709 C2711 1.433 . S
C2710 C2706 1.350 . S
C2710 C2707 1.463 1_655 S
C2710 N2714 1.425 1_655 S
C2711 H2701 0.929 . S
C2711 C2709 1.433 . S
C2711 N2714 1.380 1_655 S
C2712 H2703 0.929 . S
C2712 C2704 1.378 . S
C2712 C2707 1.350 . S
C2713 H2700 0.929 . S
C2713 C2705 1.433 . S
C2713 N2715 1.380 1_455 S
N2714 C2710 1.425 1_455 S
N2714 C2711 1.380 1_455 S
N2715 C2707 1.425 1_655 S
N2715 C2713 1.380 1_655 S
H2716 C2722 0.930 . S
H2717 C2726 0.930 . S
H2718 C2731 0.929 . S
H2719 C2729 0.929 . S
H2720 C2724 0.958 . S
H2721 C2730 0.958 . S
C2722 H2716 0.930 . S
C2722 C2723 1.367 . S
C2722 C2730 1.378 . S
C2723 C2722 1.367 . S
C2723 C2731 1.433 . S
C2724 H2720 0.958 . S
C2724 C2726 1.378 . S
C2724 C2728 1.350 . S
C2725 C2728 1.463 1_454 S
C2725 C2730 1.350 . S
C2725 N2733 1.420 1_455 S
C2726 H2717 0.930 . S
C2726 C2724 1.378 . S
C2726 C2727 1.367 . S
C2727 C2726 1.367 . S
C2727 C2729 1.433 . S
C2728 C2724 1.350 . S
C2728 C2725 1.463 1_656 S
C2728 N2732 1.420 1_655 S
C2729 H2719 0.929 . S
C2729 C2727 1.433 . S
C2729 N2732 1.371 1_655 S
C2730 H2721 0.958 . S
C2730 C2722 1.378 . S
C2730 C2725 1.350 . S
C2731 H2718 0.929 . S
C2731 C2723 1.433 . S
C2731 N2733 1.371 1_455 S
N2732 C2728 1.420 1_455 S
N2732 C2729 1.371 1_455 S
N2733 C2725 1.420 1_655 S
N2733 C2731 1.371 1_655 S
H2734 C2740 0.930 . S
H2735 C2744 0.930 . S
H2736 C2749 0.929 . S
H2737 C2747 0.929 . S
H2738 C2742 0.929 . S
H2739 C2748 0.929 . S
C2740 H2734 0.930 . S
C2740 C2741 1.367 . S
C2740 C2748 1.378 . S
C2741 C2740 1.367 . S
C2741 C2749 1.433 . S
C2742 H2738 0.929 . S
C2742 C2744 1.378 . S
C2742 C2746 1.350 . S
C2743 C2746 1.463 . S
C2743 C2748 1.350 . S
C2743 N2751 1.427 . S
C2744 H2735 0.930 . S
C2744 C2742 1.378 . S
C2744 C2745 1.367 . S
C2745 C2744 1.367 . S
C2745 C2747 1.433 . S
C2746 C2742 1.350 . S
C2746 C2743 1.463 . S
C2746 N2750 1.427 . S
C2747 H2737 0.929 . S
C2747 C2745 1.433 . S
C2747 N2750 1.384 . S
C2748 H2739 0.929 . S
C2748 C2740 1.378 . S
C2748 C2743 1.350 . S
C2749 H2736 0.929 . S
C2749 C2741 1.433 . S
C2749 N2751 1.384 . S
N2750 C2746 1.427 . S
N2750 C2747 1.384 . S
N2751 C2743 1.427 . S
N2751 C2749 1.384 . S
H2752 C2758 0.930 . S
H2753 C2762 0.930 . S
H2754 C2767 0.929 . S
H2755 C2765 0.929 . S
H2756 C2760 0.929 . S
H2757 C2766 0.929 . S
C2758 H2752 0.930 . S
C2758 C2759 1.367 . S
C2758 C2766 1.378 . S
C2759 C2758 1.367 . S
C2759 C2767 1.433 . S
C2760 H2756 0.929 . S
C2760 C2762 1.378 . S
C2760 C2764 1.350 . S
C2761 C2764 1.463 . S
C2761 C2766 1.350 . S
C2761 N2769 1.427 . S
C2762 H2753 0.930 . S
C2762 C2760 1.378 . S
C2762 C2763 1.367 . S
C2763 C2762 1.367 . S
C2763 C2765 1.433 . S
C2764 C2760 1.350 . S
C2764 C2761 1.463 . S
C2764 N2768 1.427 . S
C2765 H2755 0.929 . S
C2765 C2763 1.433 . S
C2765 N2768 1.384 . S
C2766 H2757 0.929 . S
C2766 C2758 1.378 . S
C2766 C2761 1.350 . S
C2767 H2754 0.929 . S
C2767 C2759 1.433 . S
C2767 N2769 1.384 . S
N2768 C2764 1.427 . S
N2768 C2765 1.384 . S
N2769 C2761 1.427 . S
N2769 C2767 1.384 . S
H2770 C2776 0.930 1_565 S
H2771 C2780 0.930 . S
H2772 C2785 0.929 . S
H2773 C2783 0.929 . S
H2774 C2778 0.929 . S
H2775 C2784 0.929 . S
C2776 H2770 0.930 1_545 S
C2776 C2777 1.367 . S
C2776 C2784 1.378 . S
C2777 C2776 1.367 . S
C2777 C2785 1.433 . S
C2778 H2774 0.929 . S
C2778 C2780 1.378 . S
C2778 C2782 1.350 . S
C2779 C2782 1.463 . S
C2779 C2784 1.350 . S
C2779 N2787 1.427 . S
C2780 H2771 0.930 . S
C2780 C2778 1.378 . S
C2780 C2781 1.367 . S
C2781 C2780 1.367 . S
C2781 C2783 1.433 . S
C2782 C2778 1.350 . S
C2782 C2779 1.463 . S
C2782 N2786 1.427 . S
C2783 H2773 0.929 . S
C2783 C2781 1.433 . S
C2783 N2786 1.384 . S
C2784 H2775 0.929 . S
C2784 C2776 1.378 . S
C2784 C2779 1.350 . S
C2785 H2772 0.929 . S
C2785 C2777 1.433 . S
C2785 N2787 1.384 . S
N2786 C2782 1.427 . S
N2786 C2783 1.384 . S
N2787 C2779 1.427 . S
N2787 C2785 1.384 . S
H2788 C2794 0.930 . S
H2789 C2798 0.930 . S
H2790 C2803 0.929 . S
H2791 C2801 0.929 . S
H2792 C2796 0.929 . S
H2793 C2802 0.929 . S
C2794 H2788 0.930 . S
C2794 C2795 1.367 . S
C2794 C2802 1.378 . S
C2795 C2794 1.367 . S
C2795 C2803 1.433 . S
C2796 H2792 0.929 . S
C2796 C2798 1.378 . S
C2796 C2800 1.350 . S
C2797 C2800 1.463 . S
C2797 C2802 1.350 . S
C2797 N2805 1.427 . S
C2798 H2789 0.930 . S
C2798 C2796 1.378 . S
C2798 C2799 1.367 . S
C2799 C2798 1.367 . S
C2799 C2801 1.433 . S
C2800 C2796 1.350 . S
C2800 C2797 1.463 . S
C2800 N2804 1.427 . S
C2801 H2791 0.929 . S
C2801 C2799 1.433 . S
C2801 N2804 1.384 . S
C2802 H2793 0.929 . S
C2802 C2794 1.378 . S
C2802 C2797 1.350 . S
C2803 H2790 0.929 . S
C2803 C2795 1.433 . S
C2803 N2805 1.384 . S
N2804 C2800 1.427 . S
N2804 C2801 1.384 . S
N2805 C2797 1.427 . S
N2805 C2803 1.384 . S
H2806 C2812 0.930 . S
H2807 C2816 0.930 . S
H2808 C2821 0.929 . S
H2809 C2819 0.929 1_545 S
H2810 C2814 0.929 . S
H2811 C2820 0.929 . S
C2812 H2806 0.930 . S
C2812 C2813 1.367 . S
C2812 C2820 1.378 . S
C2813 C2812 1.367 . S
C2813 C2821 1.433 . S
C2814 H2810 0.929 . S
C2814 C2816 1.378 . S
C2814 C2818 1.350 . S
C2815 C2818 1.463 . S
C2815 C2820 1.350 . S
C2815 N2823 1.427 . S
C2816 H2807 0.930 . S
C2816 C2814 1.378 . S
C2816 C2817 1.367 . S
C2817 C2816 1.367 . S
C2817 C2819 1.433 . S
C2818 C2814 1.350 . S
C2818 C2815 1.463 . S
C2818 N2822 1.427 . S
C2819 H2809 0.929 1_565 S
C2819 C2817 1.433 . S
C2819 N2822 1.384 . S
C2820 H2811 0.929 . S
C2820 C2812 1.378 . S
C2820 C2815 1.350 . S
C2821 H2808 0.929 . S
C2821 C2813 1.433 . S
C2821 N2823 1.384 . S
N2822 C2818 1.427 . S
N2822 C2819 1.384 . S
N2823 C2815 1.427 . S
N2823 C2821 1.384 . S
H2824 C2830 0.930 . S
H2825 C2834 0.930 . S
H2826 C2839 0.929 . S
H2827 C2837 0.929 . S
H2828 C2832 0.929 . S
H2829 C2838 0.929 . S
C2830 H2824 0.930 . S
C2830 C2831 1.367 . S
C2830 C2838 1.378 . S
C2831 C2830 1.367 . S
C2831 C2839 1.433 . S
C2832 H2828 0.929 . S
C2832 C2834 1.378 . S
C2832 C2836 1.350 . S
C2833 C2836 1.463 . S
C2833 C2838 1.350 . S
C2833 N2841 1.427 . S
C2834 H2825 0.930 . S
C2834 C2832 1.378 . S
C2834 C2835 1.367 . S
C2835 C2834 1.367 . S
C2835 C2837 1.433 . S
C2836 C2832 1.350 . S
C2836 C2833 1.463 . S
C2836 N2840 1.427 . S
C2837 H2827 0.929 . S
C2837 C2835 1.433 . S
C2837 N2840 1.384 . S
C2838 H2829 0.929 . S
C2838 C2830 1.378 . S
C2838 C2833 1.350 . S
C2839 H2826 0.929 . S
C2839 C2831 1.433 . S
C2839 N2841 1.384 . S
N2840 C2836 1.427 . S
N2840 C2837 1.384 . S
N2841 C2833 1.427 . S
N2841 C2839 1.384 . S
H2842 C2848 0.930 . S
H2843 C2852 0.930 . S
H2844 C2857 0.929 . S
H2845 C2855 0.929 . S
H2846 C2850 0.929 . S
H2847 C2856 0.929 . S
C2848 H2842 0.930 . S
C2848 C2849 1.367 . S
C2848 C2856 1.378 . S
C2849 C2848 1.367 . S
C2849 C2857 1.433 . S
C2850 H2846 0.929 . S
C2850 C2852 1.378 . S
C2850 C2854 1.350 . S
C2851 C2854 1.463 . S
C2851 C2856 1.350 . S
C2851 N2859 1.427 . S
C2852 H2843 0.930 . S
C2852 C2850 1.378 . S
C2852 C2853 1.367 . S
C2853 C2852 1.367 . S
C2853 C2855 1.433 . S
C2854 C2850 1.350 . S
C2854 C2851 1.463 . S
C2854 N2858 1.427 . S
C2855 H2845 0.929 . S
C2855 C2853 1.433 . S
C2855 N2858 1.384 . S
C2856 H2847 0.929 . S
C2856 C2848 1.378 . S
C2856 C2851 1.350 . S
C2857 H2844 0.929 . S
C2857 C2849 1.433 . S
C2857 N2859 1.384 . S
N2858 C2854 1.427 . S
N2858 C2855 1.384 . S
N2859 C2851 1.427 . S
N2859 C2857 1.384 . S
H2860 C2866 0.930 . S
H2861 C2870 0.930 . S
H2862 C2875 0.929 . S
H2863 C2873 0.929 1_565 S
H2864 C2868 0.929 . S
H2865 C2874 0.929 . S
C2866 H2860 0.930 . S
C2866 C2867 1.367 . S
C2866 C2874 1.378 . S
C2867 C2866 1.367 . S
C2867 C2875 1.433 . S
C2868 H2864 0.929 . S
C2868 C2870 1.378 . S
C2868 C2872 1.350 . S
C2869 C2872 1.463 . S
C2869 C2874 1.350 . S
C2869 N2877 1.427 . S
C2870 H2861 0.930 . S
C2870 C2868 1.378 . S
C2870 C2871 1.367 . S
C2871 C2870 1.367 . S
C2871 C2873 1.433 . S
C2872 C2868 1.350 . S
C2872 C2869 1.463 . S
C2872 N2876 1.427 . S
C2873 H2863 0.929 1_545 S
C2873 C2871 1.433 . S
C2873 N2876 1.384 . S
C2874 H2865 0.929 . S
C2874 C2866 1.378 . S
C2874 C2869 1.350 . S
C2875 H2862 0.929 . S
C2875 C2867 1.433 . S
C2875 N2877 1.384 . S
N2876 C2872 1.427 . S
N2876 C2873 1.384 . S
N2877 C2869 1.427 . S
N2877 C2875 1.384 . S
H2878 C2884 0.930 1_565 S
H2879 C2888 0.930 . S
H2880 C2893 0.929 . S
H2881 C2891 0.929 . S
H2882 C2886 0.929 . S
H2883 C2892 0.929 . S
C2884 H2878 0.930 1_545 S
C2884 C2885 1.367 . S
C2884 C2892 1.378 . S
C2885 C2884 1.367 . S
C2885 C2893 1.433 . S
C2886 H2882 0.929 . S
C2886 C2888 1.378 . S
C2886 C2890 1.350 . S
C2887 C2890 1.463 . S
C2887 C2892 1.350 . S
C2887 N2895 1.427 . S
C2888 H2879 0.930 . S
C2888 C2886 1.378 . S
C2888 C2889 1.367 . S
C2889 C2888 1.367 . S
C2889 C2891 1.433 . S
C2890 C2886 1.350 . S
C2890 C2887 1.463 . S
C2890 N2894 1.427 . S
C2891 H2881 0.929 . S
C2891 C2889 1.433 . S
C2891 N2894 1.384 . S
C2892 H2883 0.929 . S
C2892 C2884 1.378 . S
C2892 C2887 1.350 . S
C2893 H2880 0.929 . S
C2893 C2885 1.433 . S
C2893 N2895 1.384 . S
N2894 C2890 1.427 . S
N2894 C2891 1.384 . S
N2895 C2887 1.427 . S
N2895 C2893 1.384 . S
H2896 C2902 0.930 . S
H2897 C2906 0.930 . S
H2898 C2911 0.929 . S
H2899 C2909 0.929 . S
H2900 C2904 0.929 . S
H2901 C2910 0.929 . S
C2902 H2896 0.930 . S
C2902 C2903 1.367 . S
C2902 C2910 1.378 . S
C2903 C2902 1.367 . S
C2903 C2911 1.433 . S
C2904 H2900 0.929 . S
C2904 C2906 1.378 . S
C2904 C2908 1.350 . S
C2905 C2908 1.463 . S
C2905 C2910 1.350 . S
C2905 N2913 1.427 . S
C2906 H2897 0.930 . S
C2906 C2904 1.378 . S
C2906 C2907 1.367 . S
C2907 C2906 1.367 . S
C2907 C2909 1.433 . S
C2908 C2904 1.350 . S
C2908 C2905 1.463 . S
C2908 N2912 1.427 . S
C2909 H2899 0.929 . S
C2909 C2907 1.433 . S
C2909 N2912 1.384 . S
C2910 H2901 0.929 . S
C2910 C2902 1.378 . S
C2910 C2905 1.350 . S
C2911 H2898 0.929 . S
C2911 C2903 1.433 . S
C2911 N2913 1.384 . S
N2912 C2908 1.427 . S
N2912 C2909 1.384 . S
N2913 C2905 1.427 . S
N2913 C2911 1.384 . S
H2914 C2920 0.930 . S
H2915 C2924 0.930 . S
H2916 C2929 0.929 . S
H2917 C2927 0.929 . S
H2918 C2922 0.929 . S
H2919 C2928 0.929 . S
C2920 H2914 0.930 . S
C2920 C2921 1.367 . S
C2920 C2928 1.378 . S
C2921 C2920 1.367 . S
C2921 C2929 1.433 . S
C2922 H2918 0.929 . S
C2922 C2924 1.378 . S
C2922 C2926 1.350 . S
C2923 C2926 1.463 . S
C2923 C2928 1.350 . S
C2923 N2931 1.427 . S
C2924 H2915 0.930 . S
C2924 C2922 1.378 . S
C2924 C2925 1.367 . S
C2925 C2924 1.367 . S
C2925 C2927 1.433 . S
C2926 C2922 1.350 . S
C2926 C2923 1.463 . S
C2926 N2930 1.427 . S
C2927 H2917 0.929 . S
C2927 C2925 1.433 . S
C2927 N2930 1.384 . S
C2928 H2919 0.929 . S
C2928 C2920 1.378 . S
C2928 C2923 1.350 . S
C2929 H2916 0.929 . S
C2929 C2921 1.433 . S
C2929 N2931 1.384 . S
N2930 C2926 1.427 . S
N2930 C2927 1.384 . S
N2931 C2923 1.427 . S
N2931 C2929 1.384 . S
H2932 C2938 0.930 . S
H2933 C2942 0.930 . S
H2934 C2947 0.929 . S
H2935 C2945 0.929 . S
H2936 C2940 0.929 . S
H2937 C2946 0.929 . S
C2938 H2932 0.930 . S
C2938 C2939 1.367 . S
C2938 C2946 1.378 . S
C2939 C2938 1.367 . S
C2939 C2947 1.433 . S
C2940 H2936 0.929 . S
C2940 C2942 1.378 . S
C2940 C2944 1.350 . S
C2941 C2944 1.463 . S
C2941 C2946 1.350 . S
C2941 N2949 1.427 . S
C2942 H2933 0.930 . S
C2942 C2940 1.378 . S
C2942 C2943 1.367 . S
C2943 C2942 1.367 . S
C2943 C2945 1.433 . S
C2944 C2940 1.350 . S
C2944 C2941 1.463 . S
C2944 N2948 1.427 . S
C2945 H2935 0.929 . S
C2945 C2943 1.433 . S
C2945 N2948 1.384 . S
C2946 H2937 0.929 . S
C2946 C2938 1.378 . S
C2946 C2941 1.350 . S
C2947 H2934 0.929 . S
C2947 C2939 1.433 . S
C2947 N2949 1.384 . S
N2948 C2944 1.427 . S
N2948 C2945 1.384 . S
N2949 C2941 1.427 . S
N2949 C2947 1.384 . S
H2950 C2956 0.930 . S
H2951 C2960 0.930 . S
H2952 C2965 0.929 . S
H2953 C2963 0.929 . S
H2954 C2958 0.929 . S
H2955 C2964 0.929 . S
C2956 H2950 0.930 . S
C2956 C2957 1.367 . S
C2956 C2964 1.378 . S
C2957 C2956 1.367 . S
C2957 C2965 1.433 . S
C2958 H2954 0.929 . S
C2958 C2960 1.378 . S
C2958 C2962 1.350 . S
C2959 C2962 1.463 . S
C2959 C2964 1.350 . S
C2959 N2967 1.427 . S
C2960 H2951 0.930 . S
C2960 C2958 1.378 . S
C2960 C2961 1.367 . S
C2961 C2960 1.367 . S
C2961 C2963 1.433 . S
C2962 C2958 1.350 . S
C2962 C2959 1.463 . S
C2962 N2966 1.427 . S
C2963 H2953 0.929 . S
C2963 C2961 1.433 . S
C2963 N2966 1.384 . S
C2964 H2955 0.929 . S
C2964 C2956 1.378 . S
C2964 C2959 1.350 . S
C2965 H2952 0.929 . S
C2965 C2957 1.433 . S
C2965 N2967 1.384 . S
N2966 C2962 1.427 . S
N2966 C2963 1.384 . S
N2967 C2959 1.427 . S
N2967 C2965 1.384 . S
H2968 C2974 0.930 . S
H2969 C2978 0.930 . S
H2970 C2983 0.929 . S
H2971 C2981 0.929 . S
H2972 C2976 0.929 . S
H2973 C2982 0.929 . S
C2974 H2968 0.930 . S
C2974 C2975 1.367 . S
C2974 C2982 1.378 . S
C2975 C2974 1.367 . S
C2975 C2983 1.433 . S
C2976 H2972 0.929 . S
C2976 C2978 1.378 . S
C2976 C2980 1.350 . S
C2977 C2980 1.463 . S
C2977 C2982 1.350 . S
C2977 N2985 1.427 . S
C2978 H2969 0.930 . S
C2978 C2976 1.378 . S
C2978 C2979 1.367 . S
C2979 C2978 1.367 . S
C2979 C2981 1.433 . S
C2980 C2976 1.350 . S
C2980 C2977 1.463 . S
C2980 N2984 1.427 . S
C2981 H2971 0.929 . S
C2981 C2979 1.433 . S
C2981 N2984 1.384 . S
C2982 H2973 0.929 . S
C2982 C2974 1.378 . S
C2982 C2977 1.350 . S
C2983 H2970 0.929 . S
C2983 C2975 1.433 . S
C2983 N2985 1.384 . S
N2984 C2980 1.427 . S
N2984 C2981 1.384 . S
N2985 C2977 1.427 . S
N2985 C2983 1.384 . S
H2986 C2992 0.930 . S
H2987 C2996 0.930 . S
H2988 C3001 0.929 . S
H2989 C2999 0.929 . S
H2990 C2994 0.929 . S
H2991 C3000 0.929 . S
C2992 H2986 0.930 . S
C2992 C2993 1.367 . S
C2992 C3000 1.378 . S
C2993 C2992 1.367 . S
C2993 C3001 1.433 . S
C2994 H2990 0.929 . S
C2994 C2996 1.378 . S
C2994 C2998 1.350 . S
C2995 C2998 1.463 . S
C2995 C3000 1.350 . S
C2995 N3003 1.427 . S
C2996 H2987 0.930 . S
C2996 C2994 1.378 . S
C2996 C2997 1.367 . S
C2997 C2996 1.367 . S
C2997 C2999 1.433 . S
C2998 C2994 1.350 . S
C2998 C2995 1.463 . S
C2998 N3002 1.427 . S
C2999 H2989 0.929 . S
C2999 C2997 1.433 . S
C2999 N3002 1.384 . S
C3000 H2991 0.929 . S
C3000 C2992 1.378 . S
C3000 C2995 1.350 . S
C3001 H2988 0.929 . S
C3001 C2993 1.433 . S
C3001 N3003 1.384 . S
N3002 C2998 1.427 . S
N3002 C2999 1.384 . S
N3003 C2995 1.427 . S
N3003 C3001 1.384 . S
H3004 C3010 0.930 . S
H3005 C3014 0.930 . S
H3006 C3019 0.929 . S
H3007 C3017 0.929 . S
H3008 C3012 0.929 . S
H3009 C3018 0.929 . S
C3010 H3004 0.930 . S
C3010 C3011 1.367 . S
C3010 C3018 1.378 . S
C3011 C3010 1.367 . S
C3011 C3019 1.433 . S
C3012 H3008 0.929 . S
C3012 C3014 1.378 . S
C3012 C3016 1.350 . S
C3013 C3016 1.463 . S
C3013 C3018 1.350 . S
C3013 N3021 1.427 . S
C3014 H3005 0.930 . S
C3014 C3012 1.378 . S
C3014 C3015 1.367 . S
C3015 C3014 1.367 . S
C3015 C3017 1.433 . S
C3016 C3012 1.350 . S
C3016 C3013 1.463 . S
C3016 N3020 1.427 . S
C3017 H3007 0.929 . S
C3017 C3015 1.433 . S
C3017 N3020 1.384 . S
C3018 H3009 0.929 . S
C3018 C3010 1.378 . S
C3018 C3013 1.350 . S
C3019 H3006 0.929 . S
C3019 C3011 1.433 . S
C3019 N3021 1.384 . S
N3020 C3016 1.427 . S
N3020 C3017 1.384 . S
N3021 C3013 1.427 . S
N3021 C3019 1.384 . S
H3022 C3028 0.930 . S
H3023 C3032 0.930 . S
H3024 C3037 0.929 . S
H3025 C3035 0.929 . S
H3026 C3030 0.929 . S
H3027 C3036 0.929 . S
C3028 H3022 0.930 . S
C3028 C3029 1.367 . S
C3028 C3036 1.378 . S
C3029 C3028 1.367 . S
C3029 C3037 1.433 . S
C3030 H3026 0.929 . S
C3030 C3032 1.378 . S
C3030 C3034 1.350 . S
C3031 C3034 1.463 . S
C3031 C3036 1.350 . S
C3031 N3039 1.427 . S
C3032 H3023 0.930 . S
C3032 C3030 1.378 . S
C3032 C3033 1.367 . S
C3033 C3032 1.367 . S
C3033 C3035 1.433 . S
C3034 C3030 1.350 . S
C3034 C3031 1.463 . S
C3034 N3038 1.427 . S
C3035 H3025 0.929 . S
C3035 C3033 1.433 . S
C3035 N3038 1.384 . S
C3036 H3027 0.929 . S
C3036 C3028 1.378 . S
C3036 C3031 1.350 . S
C3037 H3024 0.929 . S
C3037 C3029 1.433 . S
C3037 N3039 1.384 . S
N3038 C3034 1.427 . S
N3038 C3035 1.384 . S
N3039 C3031 1.427 . S
N3039 C3037 1.384 . S
C1895 C1626 1.432 . S
C1899 C52 1.432 . S
C1913 C111 1.433 1_655 S
C1917 C505 1.432 . S
C1931 C1508 1.432 . S
C1935 C170 1.432 . S
C1949 C229 1.432 . S
C1953 C623 1.433 . S
C1967 C288 1.433 . S
C1971 C1744 1.432 . S
C1985 C347 1.433 . S
C1989 C859 1.432 . S
C2003 C406 1.434 . S
C2007 C1862 1.433 . S
C2021 C465 1.434 1_655 S
C2025 C741 1.434 . S
C2039 C1154 1.433 . S
C2043 C524 1.434 . S
C2057 C33 1.433 . S
C2061 C583 1.434 1_455 S
C2075 C1036 1.432 . S
C2079 C642 1.434 . S
C2093 C701 1.432 . S
C2097 C151 1.432 . S
C2111 C1272 1.432 . S
C2115 C760 1.432 . S
C2129 C387 1.432 . S
C2133 C819 1.434 . S
C2147 C878 1.432 . S
C2151 C1390 1.432 . S
C2165 C269 1.432 . S
C2169 C937 1.433 1_455 S
C2183 C996 1.434 . S
C2187 C682 1.433 . S
C2201 C1055 1.433 . S
C2205 C1449 1.433 . S
C2219 C564 1.433 . S
C2223 C1114 1.434 . S
C2237 C1567 1.433 . S
C2241 C1173 1.432 1_455 S
C2255 C800 1.433 . S
C2259 C1232 1.432 . S
C2273 C1803 1.432 . S
C2277 C1291 1.434 1_455 S
C2291 C918 1.433 . S
C2295 C1350 1.434 . S
C2309 C1409 1.433 . S
C2313 C1685 1.433 . S
C2327 C210 1.432 . S
C2331 C1468 1.434 . S
C2345 C1527 1.432 . S
C2349 C977 1.433 . S
C2363 C1586 1.433 . S
C2367 C92 1.434 . S
C2381 C1645 1.434 1_655 S
C2385 C1095 1.433 . S
C2399 C1704 1.434 . S
C2403 C328 1.433 . S
C2417 C1763 1.434 1_655 S
C2421 C1331 1.434 . S
C2435 C1822 1.434 . S
C2439 C446 1.434 . S
C2453 C1881 1.433 . S
C2457 C1213 1.434 . S
C2471 C1419 1.505 . S
C2475 C3 1.505 . S
C2489 C62 1.496 . S
C2493 C534 1.496 . S
C2507 C1537 1.502 . S
C2511 C121 1.502 . S
C2525 C180 1.496 . S
C2529 C652 1.496 . S
C2543 C1655 1.504 . S
C2547 C239 1.504 . S
C2561 C298 1.502 . S
C2565 C770 1.502 . S
C2579 C1773 1.503 . S
C2583 C357 1.503 . S
C2597 C416 1.505 . S
C2601 C888 1.505 . S
C2615 C475 1.497 . S
C2619 C947 1.497 . S
C2633 C593 1.498 . S
C2637 C1065 1.498 . S
C2651 C711 1.505 . S
C2655 C1183 1.505 . S
C2669 C829 1.505 . S
C2673 C1301 1.505 . S
C2687 C1006 1.496 . S
C2691 C1478 1.496 . S
C2705 C1596 1.499 . S
C2709 C1124 1.499 . S
C2723 C1714 1.499 . S
C2727 C1242 1.499 . S
C2741 C1360 1.497 . S
C2745 C1832 1.497 . S
C2759 C5 1.663 . S
C2763 C300 1.663 1_545 S
C2777 C64 1.661 1_545 S
C2781 C359 1.662 . S
C2795 C123 1.663 . S
C2799 C418 1.662 1_565 S
C2813 C241 1.661 . S
C2817 C182 1.663 1_565 S
C2831 C477 1.662 . S
C2835 C772 1.661 1_565 S
C2849 C536 1.663 1_565 S
C2853 C831 1.663 . S
C2867 C595 1.662 . S
C2871 C890 1.664 1_545 S
C2885 C654 1.661 1_545 S
C2889 C713 1.663 . S
C2903 C949 1.661 . S
C2907 C1244 1.662 . S
C2921 C1303 1.661 . S
C2925 C1008 1.661 . S
C2939 C1067 1.661 . S
C2943 C1362 1.662 . S
C2957 C1126 1.660 . S
C2961 C1185 1.663 . S
C2975 C1716 1.661 . S
C2979 C1421 1.661 . S
C2993 C1480 1.662 . S
C2997 C1775 1.664 . S
C3011 C1834 1.661 . S
C3015 C1539 1.661 . S
C3029 C1598 1.663 . S
C3033 C1657 1.663 . S
