# Generated by pormake.
# Topology una, (4)-cn, num edge types: 1
# Building blocks:
#     Node 0, Type 0, BuildingBlock: GALJAG_clean_sbu_0, # of connection points: 4
#     Node 1, Type 0, BuildingBlock: GALJAG_clean_sbu_0, # of connection points: 4
#     Node 2, Type 0, BuildingBlock: GALJAG_clean_sbu_0, # of connection points: 4
#     Node 3, Type 0, BuildingBlock: GALJAG_clean_sbu_0, # of connection points: 4
#     Node 4, Type 0, BuildingBlock: GALJAG_clean_sbu_0, # of connection points: 4
#     Node 5, Type 0, BuildingBlock: GALJAG_clean_sbu_0, # of connection points: 4
#     Node 6, Type 0, BuildingBlock: GALJAG_clean_sbu_0, # of connection points: 4
#     Node 7, Type 0, BuildingBlock: GALJAG_clean_sbu_0, # of connection points: 4
#     Node 8, Type 0, BuildingBlock: GALJAG_clean_sbu_0, # of connection points: 4
#     Node 9, Type 0, BuildingBlock: GALJAG_clean_sbu_0, # of connection points: 4
#     Node 10, Type 0, BuildingBlock: GALJAG_clean_sbu_0, # of connection points: 4
#     Node 11, Type 0, BuildingBlock: GALJAG_clean_sbu_0, # of connection points: 4
#     Edge 12, Type (0, 0), BuildingBlock: EZIPEK_clean_linker_0, # of connection points: 2
#     Edge 13, Type (0, 0), BuildingBlock: EZIPEK_clean_linker_0, # of connection points: 2
#     Edge 14, Type (0, 0), BuildingBlock: EZIPEK_clean_linker_0, # of connection points: 2
#     Edge 15, Type (0, 0), BuildingBlock: EZIPEK_clean_linker_0, # of connection points: 2
#     Edge 16, Type (0, 0), BuildingBlock: EZIPEK_clean_linker_0, # of connection points: 2
#     Edge 17, Type (0, 0), BuildingBlock: EZIPEK_clean_linker_0, # of connection points: 2
#     Edge 18, Type (0, 0), BuildingBlock: EZIPEK_clean_linker_0, # of connection points: 2
#     Edge 19, Type (0, 0), BuildingBlock: EZIPEK_clean_linker_0, # of connection points: 2
#     Edge 20, Type (0, 0), BuildingBlock: EZIPEK_clean_linker_0, # of connection points: 2
#     Edge 21, Type (0, 0), BuildingBlock: EZIPEK_clean_linker_0, # of connection points: 2
#     Edge 22, Type (0, 0), BuildingBlock: EZIPEK_clean_linker_0, # of connection points: 2
#     Edge 23, Type (0, 0), BuildingBlock: EZIPEK_clean_linker_0, # of connection points: 2
#     Edge 24, Type (0, 0), BuildingBlock: EZIPEK_clean_linker_0, # of connection points: 2
#     Edge 25, Type (0, 0), BuildingBlock: EZIPEK_clean_linker_0, # of connection points: 2
#     Edge 26, Type (0, 0), BuildingBlock: EZIPEK_clean_linker_0, # of connection points: 2
#     Edge 27, Type (0, 0), BuildingBlock: EZIPEK_clean_linker_0, # of connection points: 2
#     Edge 28, Type (0, 0), BuildingBlock: EZIPEK_clean_linker_0, # of connection points: 2
#     Edge 29, Type (0, 0), BuildingBlock: EZIPEK_clean_linker_0, # of connection points: 2
#     Edge 30, Type (0, 0), BuildingBlock: EZIPEK_clean_linker_0, # of connection points: 2
#     Edge 31, Type (0, 0), BuildingBlock: EZIPEK_clean_linker_0, # of connection points: 2
#     Edge 32, Type (0, 0), BuildingBlock: EZIPEK_clean_linker_0, # of connection points: 2
#     Edge 33, Type (0, 0), BuildingBlock: EZIPEK_clean_linker_0, # of connection points: 2
#     Edge 34, Type (0, 0), BuildingBlock: EZIPEK_clean_linker_0, # of connection points: 2
#     Edge 35, Type (0, 0), BuildingBlock: EZIPEK_clean_linker_0, # of connection points: 2
# Relax obj value: 0.044
# Max RMSD: 0.038
# Mean RMSD: 0.038
data_MOF--net-una--node1-GALJAG_clean_sbu_0--edge1-EZIPEK_clean_linker_0
_symmetry_space_group_name_H-M    P1
_symmetry_Int_Tables_number       1
_symmetry_cell_setting            triclinic
loop_
_symmetry_equiv_pos_as_xyz
'x, y, z'
_cell_length_a     44.464469
_cell_length_b     44.50708
_cell_length_c     14.751982
_cell_angle_alpha  89.988288
_cell_angle_beta   89.986199
_cell_angle_gamma 119.90577
loop_
_atom_site_label
_atom_site_type_symbol
_atom_site_fract_x
_atom_site_fract_y
_atom_site_fract_z
_atom_type_partial_charge
In0 In 0.13154 0.44295 0.04523 0.0
O1 O 0.07463 0.3987 0.0521 0.0
O2 O 0.09281 0.42797 0.93022 0.0
C3 C 0.16612 0.42784 0.17307 0.0
C4 C 0.12686 0.49845 0.09795 0.0
C5 C 0.17363 0.44816 0.91 0.0
O6 O 0.13744 0.40491 0.14081 0.0
O7 O 0.17583 0.45812 0.1456 0.0
O8 O 0.17096 0.47368 0.93627 0.0
O9 O 0.15393 0.41971 0.94878 0.0
C10 C 0.06779 0.40385 0.9723 0.0
O11 O 0.14771 0.49982 0.03811 0.0
O12 O 0.10874 0.46904 0.13441 0.0
In13 In 0.68996 0.13472 0.2068 0.0
O14 O 0.6822 0.07951 0.21113 0.0
O15 O 0.66293 0.09384 0.09755 0.0
C16 C 0.74026 0.1684 0.33373 0.0
C17 C 0.63046 0.12936 0.26672 0.0
C18 C 0.72326 0.17961 0.07215 0.0
O19 O 0.73992 0.14564 0.2822 0.0
O20 O 0.7144 0.17259 0.32509 0.0
O21 O 0.69554 0.17585 0.10552 0.0
O22 O 0.73339 0.15989 0.10394 0.0
C23 C 0.6665 0.07056 0.13597 0.0
O24 O 0.64809 0.14917 0.20292 0.0
O25 O 0.64304 0.11222 0.30288 0.0
In26 In 0.5589 0.68479 0.40037 0.0
O27 O 0.60305 0.67202 0.40092 0.0
O28 O 0.57274 0.66226 0.28089 0.0
C29 C 0.56784 0.7269 0.54169 0.0
C30 C 0.50227 0.62345 0.43664 0.0
C31 C 0.56442 0.73161 0.27975 0.0
O32 O 0.59172 0.72117 0.51634 0.0
O33 O 0.53934 0.70945 0.50126 0.0
O34 O 0.53578 0.70467 0.2961 0.0
O35 O 0.59033 0.73444 0.3221 0.0
C36 C 0.59722 0.66092 0.32008 0.0
O37 O 0.50242 0.6444 0.37871 0.0
O38 O 0.53063 0.63371 0.47813 0.0
In39 In 0.87499 0.56116 0.54954 0.0
O40 O 0.86088 0.50538 0.52594 0.0
O41 O 0.89694 0.53324 0.63186 0.0
C42 C 0.83595 0.56587 0.41963 0.0
C43 C 0.93942 0.59976 0.48281 0.0
C44 C 0.837 0.56782 0.68338 0.0
O45 O 0.83251 0.53712 0.4441 0.0
O46 O 0.86024 0.59226 0.45717 0.0
O47 O 0.8638 0.59376 0.65148 0.0
O48 O 0.83181 0.53901 0.65451 0.0
C49 C 0.88039 0.50519 0.58799 0.0
O50 O 0.93168 0.6052 0.56158 0.0
O51 O 0.91494 0.57556 0.43929 0.0
In52 In 0.31687 0.87257 0.72954 0.0
O53 O 0.35904 0.85873 0.71062 0.0
O54 O 0.36504 0.89232 0.82054 0.0
C55 C 0.27659 0.82572 0.60679 0.0
C56 C 0.33991 0.93541 0.65141 0.0
C57 C 0.27033 0.84195 0.86561 0.0
O58 O 0.30485 0.8285 0.63287 0.0
O59 O 0.26902 0.84716 0.64057 0.0
O60 O 0.27451 0.8691 0.82694 0.0
O61 O 0.29111 0.83212 0.84054 0.0
C62 C 0.37714 0.87626 0.77684 0.0
O63 O 0.33086 0.92982 0.7337 0.0
O64 O 0.33681 0.90948 0.60895 0.0
In65 In 0.44308 0.31304 0.89647 0.0
O66 O 0.39927 0.32652 0.89487 0.0
O67 O 0.42811 0.33375 0.7738 0.0
C68 C 0.42628 0.26665 0.03353 0.0
C69 C 0.49855 0.37394 0.94395 0.0
C70 C 0.45093 0.27387 0.77238 0.0
O71 O 0.4035 0.26999 0.99088 0.0
O72 O 0.45705 0.28835 0.01237 0.0
O73 O 0.47584 0.30253 0.79788 0.0
O74 O 0.42188 0.2653 0.80754 0.0
C75 C 0.40428 0.33621 0.813 0.0
O76 O 0.50004 0.35319 0.88857 0.0
O77 O 0.46892 0.36372 0.97826 0.0
In78 In 0.55924 0.86978 0.90399 0.0
O79 O 0.50451 0.85819 0.93118 0.0
O80 O 0.52959 0.88703 0.81138 0.0
C81 C 0.56545 0.83296 0.03816 0.0
C82 C 0.59841 0.93497 0.96662 0.0
C83 C 0.56625 0.83089 0.7735 0.0
O84 O 0.53628 0.82668 0.0084 0.0
O85 O 0.59127 0.85885 0.00382 0.0
O86 O 0.59148 0.85978 0.7979 0.0
O87 O 0.53761 0.82362 0.80867 0.0
C88 C 0.50275 0.87353 0.86101 0.0
O89 O 0.60683 0.92463 0.89596 0.0
O90 O 0.57027 0.91277 0.00261 0.0
In91 In 0.6879 0.5575 0.05268 0.0
O92 O 0.64703 0.50101 0.07123 0.0
O93 O 0.6378 0.52978 0.97034 0.0
C94 C 0.73401 0.5628 0.17547 0.0
C95 C 0.66383 0.5957 0.13262 0.0
C96 C 0.73101 0.56663 0.91352 0.0
O97 O 0.70631 0.53458 0.16138 0.0
O98 O 0.73786 0.58849 0.13003 0.0
O99 O 0.72382 0.58985 0.93543 0.0
O100 O 0.71456 0.53856 0.95646 0.0
C101 C 0.62687 0.50126 0.01141 0.0
O102 O 0.67651 0.60259 0.0534 0.0
O103 O 0.66364 0.57022 0.17037 0.0
In104 In 0.13596 0.68785 0.22807 0.0
O105 O 0.07957 0.67695 0.22823 0.0
O106 O 0.09883 0.6647 0.34643 0.0
C107 C 0.16947 0.73686 0.09832 0.0
C108 C 0.12925 0.62688 0.17472 0.0
C109 C 0.1792 0.72477 0.36086 0.0
O110 O 0.14058 0.73071 0.13033 0.0
O111 O 0.17994 0.71704 0.12713 0.0
O112 O 0.17701 0.69703 0.33253 0.0
O113 O 0.15865 0.73313 0.32507 0.0
C114 C 0.07363 0.66483 0.30795 0.0
O115 O 0.15119 0.64636 0.23241 0.0
O116 O 0.11108 0.63859 0.1405 0.0
In117 In 0.44618 0.13202 0.39481 0.0
O118 O 0.49989 0.14091 0.42603 0.0
O119 O 0.47767 0.11733 0.29942 0.0
C120 C 0.45437 0.17704 0.5243 0.0
C121 C 0.40578 0.06821 0.46734 0.0
C122 C 0.42957 0.16528 0.26657 0.0
O123 O 0.47976 0.17543 0.49163 0.0
O124 O 0.42483 0.15523 0.49406 0.0
O125 O 0.40725 0.13612 0.29794 0.0
O126 O 0.45988 0.1762 0.2955 0.0
C127 C 0.50319 0.12822 0.35296 0.0
O128 O 0.40898 0.07287 0.38251 0.0
O129 O 0.42161 0.09544 0.51361 0.0
In130 In 0.3131 0.43931 0.54279 0.0
O131 O 0.35401 0.49576 0.55698 0.0
O132 O 0.36346 0.4661 0.4597 0.0
C133 C 0.2718 0.44492 0.66466 0.0
C134 C 0.33685 0.40104 0.62608 0.0
C135 C 0.26778 0.42362 0.40373 0.0
O136 O 0.29946 0.47076 0.63734 0.0
O137 O 0.26534 0.41601 0.63261 0.0
O138 O 0.27201 0.4007 0.44262 0.0
O139 O 0.28816 0.45411 0.42973 0.0
C140 C 0.37428 0.49505 0.49846 0.0
O141 O 0.3263 0.39537 0.54494 0.0
O142 O 0.33493 0.42525 0.66469 0.0
In143 In 0.87303 0.31575 0.70708 0.0
O144 O 0.85811 0.3573 0.71614 0.0
O145 O 0.89865 0.3662 0.62426 0.0
C146 C 0.82426 0.27623 0.8272 0.0
C147 C 0.9342 0.33795 0.79341 0.0
C148 C 0.84415 0.27033 0.56809 0.0
O149 O 0.82764 0.30439 0.79837 0.0
O150 O 0.84607 0.26836 0.79754 0.0
O151 O 0.87017 0.27343 0.61075 0.0
O152 O 0.83499 0.29189 0.5903 0.0
C153 C 0.88015 0.37737 0.65937 0.0
O154 O 0.92969 0.32763 0.71212 0.0
O155 O 0.90805 0.33652 0.83085 0.0
C156 C 0.22329 0.43028 0.19111 0.0
C157 C 0.18974 0.4198 0.22625 0.0
C158 C 0.20462 0.39892 0.36375 0.0
C159 C 0.24003 0.41621 0.33632 0.0
N160 N 0.28336 0.4481 0.22272 0.0
N161 N 0.14825 0.39466 0.3476 0.0
C162 C 0.24939 0.43169 0.24937 0.0
C163 C 0.18008 0.40365 0.31244 0.0
N164 N 0.22968 0.43739 0.10083 0.0
N165 N 0.19443 0.37819 0.4388 0.0
H166 H 0.12964 0.39758 0.31182 0.0
H167 H 0.14122 0.38668 0.41442 0.0
H168 H 0.21157 0.37447 0.47886 0.0
H169 H 0.16854 0.36238 0.45703 0.0
H170 H 0.2526 0.44216 0.06928 0.0
H171 H 0.21041 0.43448 0.05561 0.0
H172 H 0.29244 0.46374 0.16525 0.0
H173 H 0.30279 0.4473 0.26052 0.0
C174 C 0.8075 0.20713 0.52334 0.0
C175 C 0.82421 0.24292 0.49953 0.0
C176 C 0.78972 0.22862 0.36011 0.0
C177 C 0.77145 0.19317 0.38648 0.0
N178 N 0.76797 0.14724 0.47997 0.0
N179 N 0.83847 0.28653 0.38552 0.0
C180 C 0.7822 0.18194 0.46358 0.0
C181 C 0.81745 0.25324 0.41472 0.0
N182 N 0.81418 0.19735 0.60533 0.0
N183 N 0.78036 0.23873 0.28267 0.0
H184 H 0.85964 0.30472 0.42311 0.0
H185 H 0.83716 0.29545 0.32128 0.0
H186 H 0.76299 0.22107 0.23596 0.0
H187 H 0.78896 0.26443 0.26558 0.0
H188 H 0.79982 0.17249 0.63202 0.0
H189 H 0.833 0.21452 0.65007 0.0
H190 H 0.7771 0.13698 0.52904 0.0
H191 H 0.74839 0.12831 0.43985 0.0
C192 C 0.55514 0.74455 0.69151 0.0
C193 C 0.57286 0.75424 0.60752 0.0
C194 C 0.58674 0.81455 0.63143 0.0
C195 C 0.57013 0.80514 0.71731 0.0
N196 N 0.54538 0.76265 0.83779 0.0
N197 N 0.61068 0.79911 0.50352 0.0
C198 C 0.55628 0.77054 0.74984 0.0
C199 C 0.59057 0.78954 0.57987 0.0
N200 N 0.53656 0.71027 0.71486 0.0
N201 N 0.59675 0.84662 0.59631 0.0
H202 H 0.61324 0.78148 0.46243 0.0
H203 H 0.6271 0.8248 0.48481 0.0
H204 H 0.59366 0.86536 0.63076 0.0
H205 H 0.6053 0.85375 0.52993 0.0
H206 H 0.51915 0.70098 0.76883 0.0
H207 H 0.53707 0.69072 0.67701 0.0
H208 H 0.53891 0.73907 0.8682 0.0
H209 H 0.54588 0.78061 0.88378 0.0
C210 C 0.77532 0.55364 0.7088 0.0
C211 C 0.81047 0.57068 0.73885 0.0
C212 C 0.79397 0.59248 0.87202 0.0
C213 C 0.75845 0.57189 0.84749 0.0
N214 N 0.71468 0.53098 0.74645 0.0
N215 N 0.85286 0.60332 0.85371 0.0
C216 C 0.749 0.552 0.76687 0.0
C217 C 0.81981 0.58973 0.82115 0.0
N218 N 0.76712 0.5402 0.62309 0.0
N219 N 0.80298 0.61432 0.94475 0.0
H220 H 0.87229 0.60133 0.81937 0.0
H221 H 0.86045 0.61404 0.91807 0.0
H222 H 0.78485 0.61614 0.98563 0.0
H223 H 0.82848 0.63268 0.96054 0.0
H224 H 0.74283 0.5312 0.59373 0.0
H225 H 0.7853 0.54102 0.57722 0.0
H226 H 0.70588 0.51214 0.69596 0.0
H227 H 0.69471 0.53108 0.7834 0.0
C228 C 0.25173 0.81667 0.02093 0.0
C229 C 0.24248 0.82158 0.93257 0.0
C230 C 0.18294 0.77363 0.95653 0.0
C231 C 0.19254 0.76832 0.04413 0.0
N232 N 0.23173 0.79253 0.17044 0.0
N233 N 0.19709 0.81192 0.82678 0.0
C234 C 0.22568 0.79224 0.07961 0.0
C235 C 0.20727 0.80256 0.90402 0.0
N236 N 0.28553 0.83506 0.04847 0.0
N237 N 0.15143 0.75006 0.92143 0.0
H238 H 0.21418 0.83252 0.78599 0.0
H239 H 0.17126 0.80114 0.80714 0.0
H240 H 0.13297 0.72883 0.95825 0.0
H241 H 0.14453 0.75017 0.85403 0.0
H242 H 0.29463 0.82942 0.10746 0.0
H243 H 0.30486 0.85504 0.00998 0.0
H244 H 0.25426 0.81134 0.20195 0.0
H245 H 0.21247 0.77627 0.21576 0.0
C246 C 0.42788 0.22029 0.24842 0.0
C247 C 0.42077 0.18794 0.21163 0.0
C248 C 0.40438 0.20357 0.06774 0.0
C249 C 0.41841 0.23825 0.09914 0.0
N250 N 0.44342 0.27995 0.21999 0.0
N251 N 0.40261 0.1484 0.08557 0.0
C252 C 0.42995 0.24663 0.18995 0.0
C253 C 0.40848 0.17916 0.12149 0.0
N254 N 0.43134 0.22528 0.34 0.0
N255 N 0.38741 0.19398 0.98655 0.0
H256 H 0.4048 0.12981 0.12348 0.0
H257 H 0.39778 0.14226 0.01705 0.0
H258 H 0.38444 0.21113 0.94458 0.0
H259 H 0.37383 0.16841 0.96411 0.0
H260 H 0.43341 0.24707 0.37213 0.0
H261 H 0.42826 0.20581 0.38471 0.0
H262 H 0.45634 0.28864 0.28163 0.0
H263 H 0.44308 0.29938 0.18112 0.0
C264 C 0.12494 0.54041 0.20961 0.0
C265 C 0.12307 0.529 0.11899 0.0
C266 C 0.12437 0.58161 0.06336 0.0
C267 C 0.12424 0.59204 0.1541 0.0
N268 N 0.11386 0.57613 0.31238 0.0
N269 N 0.11054 0.53372 0.96196 0.0
C270 C 0.12126 0.5698 0.22694 0.0
C271 C 0.11954 0.54806 0.04649 0.0
N272 N 0.13208 0.52452 0.27884 0.0
N273 N 0.13092 0.60418 0.99338 0.0
H274 H 0.10538 0.50864 0.94757 0.0
H275 H 0.10441 0.54516 0.90885 0.0
H276 H 0.1355 0.62934 0.0025 0.0
H277 H 0.13504 0.59903 0.92704 0.0
H278 H 0.13746 0.53432 0.34464 0.0
H279 H 0.13591 0.50347 0.2693 0.0
H280 H 0.10812 0.55889 0.36607 0.0
H281 H 0.1096 0.59662 0.32737 0.0
C282 C 0.59894 0.15875 0.32367 0.0
C283 C 0.5979 0.12765 0.297 0.0
C284 C 0.53462 0.09591 0.31527 0.0
C285 C 0.53547 0.12778 0.33123 0.0
N286 N 0.56787 0.19034 0.33487 0.0
N287 N 0.56459 0.06728 0.25506 0.0
C288 C 0.5675 0.15945 0.33142 0.0
C289 C 0.56571 0.09629 0.28986 0.0
N290 N 0.63001 0.18742 0.34416 0.0
N291 N 0.50444 0.06526 0.32754 0.0
H292 H 0.58673 0.06642 0.23594 0.0
H293 H 0.54157 0.04487 0.23853 0.0
H294 H 0.48121 0.06392 0.34668 0.0
H295 H 0.50308 0.04122 0.32646 0.0
H296 H 0.63209 0.20976 0.37286 0.0
H297 H 0.65358 0.18765 0.34125 0.0
H298 H 0.59025 0.21424 0.32551 0.0
H299 H 0.54536 0.19211 0.33802 0.0
C300 C 0.43019 0.54419 0.55577 0.0
C301 C 0.40877 0.52582 0.48098 0.0
C302 C 0.45283 0.56772 0.37762 0.0
C303 C 0.47111 0.58908 0.45268 0.0
N304 N 0.4734 0.59998 0.61386 0.0
N305 N 0.3974 0.52323 0.32011 0.0
C306 C 0.45893 0.57791 0.54213 0.0
C307 C 0.41951 0.53825 0.39151 0.0
N308 N 0.42375 0.52907 0.63953 0.0
N309 N 0.46771 0.5748 0.29351 0.0
H310 H 0.37238 0.5022 0.32714 0.0
H311 H 0.40272 0.53375 0.25504 0.0
H312 H 0.49266 0.5953 0.28096 0.0
H313 H 0.45687 0.55813 0.23848 0.0
H314 H 0.44056 0.54009 0.69425 0.0
H315 H 0.40377 0.50384 0.65179 0.0
H316 H 0.46298 0.59411 0.67902 0.0
H317 H 0.49353 0.62547 0.60705 0.0
C318 C 0.88076 0.46176 0.69681 0.0
C319 C 0.88367 0.47419 0.60683 0.0
C320 C 0.8847 0.42298 0.54942 0.0
C321 C 0.88445 0.41199 0.63984 0.0
N322 N 0.8928 0.42663 0.79907 0.0
N323 N 0.89837 0.4715 0.45044 0.0
C324 C 0.88578 0.43318 0.71343 0.0
C325 C 0.88868 0.45629 0.53389 0.0
N326 N 0.87124 0.47574 0.76593 0.0
N327 N 0.87931 0.40115 0.4784 0.0
H328 H 0.90302 0.49648 0.43713 0.0
H329 H 0.90553 0.46089 0.39742 0.0
H330 H 0.87524 0.37613 0.48641 0.0
H331 H 0.87556 0.4067 0.41212 0.0
H332 H 0.86535 0.46508 0.83083 0.0
H333 H 0.8656 0.49562 0.75673 0.0
H334 H 0.8973 0.4433 0.85345 0.0
H335 H 0.89803 0.40677 0.81371 0.0
C336 C 0.44181 0.90754 0.80003 0.0
C337 C 0.40936 0.87635 0.80256 0.0
C338 C 0.43882 0.84327 0.83194 0.0
C339 C 0.47092 0.87472 0.83837 0.0
N340 N 0.50225 0.93726 0.84517 0.0
N341 N 0.3762 0.81544 0.83873 0.0
C342 C 0.47228 0.90705 0.82697 0.0
C343 C 0.40764 0.84445 0.82367 0.0
N344 N 0.44379 0.93729 0.76814 0.0
N345 N 0.43821 0.81224 0.82968 0.0
H346 H 0.35274 0.81538 0.83509 0.0
H347 H 0.37358 0.79234 0.86358 0.0
H348 H 0.46058 0.81024 0.83272 0.0
H349 H 0.41592 0.78877 0.81551 0.0
H350 H 0.46716 0.95992 0.75557 0.0
H351 H 0.4221 0.93842 0.7463 0.0
H352 H 0.50368 0.96133 0.84733 0.0
H353 H 0.52502 0.93804 0.86627 0.0
C354 C 0.54897 0.42922 0.88798 0.0
C355 C 0.52925 0.40839 0.96228 0.0
C356 C 0.56985 0.45279 0.06699 0.0
C357 C 0.59248 0.47042 0.99336 0.0
N358 N 0.60576 0.47198 0.83392 0.0
N359 N 0.52378 0.3981 0.1239 0.0
C360 C 0.58259 0.45788 0.90368 0.0
C361 C 0.54028 0.41962 0.05236 0.0
N362 N 0.53519 0.42233 0.8026 0.0
N363 N 0.5759 0.46819 0.15029 0.0
H364 H 0.50256 0.37324 0.11648 0.0
H365 H 0.5332 0.40371 0.19004 0.0
H366 H 0.59652 0.49303 0.16305 0.0
H367 H 0.55837 0.4579 0.20387 0.0
H368 H 0.54718 0.43872 0.74762 0.0
H369 H 0.51008 0.40242 0.78863 0.0
H370 H 0.60091 0.46126 0.76911 0.0
H371 H 0.6311 0.49223 0.84247 0.0
C372 C 0.21286 0.43619 0.69513 0.0
C373 C 0.24741 0.44856 0.72469 0.0
C374 C 0.23505 0.46916 0.8655 0.0
C375 C 0.19931 0.45142 0.84236 0.0
N376 N 0.15331 0.41648 0.73753 0.0
N377 N 0.29089 0.4734 0.84201 0.0
C378 C 0.1879 0.43435 0.75788 0.0
C379 C 0.25857 0.46451 0.8106 0.0
N380 N 0.20444 0.42807 0.60594 0.0
N381 N 0.24658 0.4903 0.93978 0.0
H382 H 0.30874 0.4698 0.80456 0.0
H383 H 0.29891 0.48143 0.90833 0.0
H384 H 0.23016 0.49362 0.9839 0.0
H385 H 0.27278 0.50667 0.95385 0.0
H386 H 0.18042 0.42186 0.57869 0.0
H387 H 0.2228 0.4314 0.55708 0.0
H388 H 0.14328 0.40013 0.68162 0.0
H389 H 0.13436 0.41649 0.77926 0.0
C390 C 0.7483 0.19382 0.9167 0.0
C391 C 0.74312 0.20532 0.00165 0.0
C392 C 0.78966 0.2642 0.97005 0.0
C393 C 0.79502 0.25267 0.88524 0.0
N394 N 0.7724 0.21007 0.76574 0.0
N395 N 0.75047 0.25296 0.09566 0.0
C396 C 0.77225 0.21845 0.8548 0.0
C397 C 0.76092 0.24107 0.0238 0.0
N398 N 0.73028 0.15938 0.89531 0.0
N399 N 0.81303 0.29641 0.00177 0.0
H400 H 0.7294 0.23684 0.13651 0.0
H401 H 0.76056 0.27921 0.10939 0.0
H402 H 0.83486 0.31399 0.96524 0.0
H403 H 0.81246 0.30457 0.06762 0.0
H404 H 0.73615 0.14881 0.83969 0.0
H405 H 0.71013 0.14114 0.93552 0.0
H406 H 0.75439 0.18634 0.73774 0.0
H407 H 0.7882 0.22825 0.71752 0.0
C408 C 0.58589 0.76664 0.13837 0.0
C409 C 0.56699 0.75928 0.22048 0.0
C410 C 0.55197 0.80421 0.18928 0.0
C411 C 0.56903 0.81019 0.10442 0.0
N412 N 0.60171 0.79738 0.99508 0.0
N413 N 0.53898 0.77528 0.33533 0.0
C414 C 0.5865 0.79201 0.07877 0.0
C415 C 0.5518 0.77915 0.24905 0.0
N416 N 0.60337 0.74941 0.11799 0.0
N417 N 0.53564 0.82234 0.21194 0.0
H418 H 0.53893 0.75754 0.38158 0.0
H419 H 0.5307 0.7912 0.36435 0.0
H420 H 0.53806 0.84322 0.17396 0.0
H421 H 0.51882 0.8163 0.26663 0.0
H422 H 0.62108 0.75609 0.06523 0.0
H423 H 0.6016 0.72903 0.15693 0.0
H424 H 0.61116 0.78225 0.96737 0.0
H425 H 0.6034 0.81596 0.94935 0.0
C426 C 0.80745 0.55209 0.26835 0.0
C427 C 0.81221 0.56817 0.3541 0.0
C428 C 0.76884 0.58488 0.31694 0.0
C429 C 0.76123 0.56518 0.23623 0.0
N430 N 0.77169 0.52885 0.13445 0.0
N431 N 0.79588 0.59766 0.46478 0.0
C432 C 0.78002 0.54835 0.2118 0.0
C433 C 0.79285 0.58441 0.37941 0.0
N434 N 0.8303 0.54198 0.23933 0.0
N435 N 0.75302 0.60395 0.334 0.0
H436 H 0.81344 0.59859 0.51287 0.0
H437 H 0.77917 0.60551 0.49105 0.0
H438 H 0.73353 0.60318 0.29307 0.0
H439 H 0.76071 0.62232 0.38548 0.0
H440 H 0.83047 0.5333 0.17393 0.0
H441 H 0.85143 0.54539 0.27795 0.0
H442 H 0.78133 0.51241 0.11898 0.0
H443 H 0.7536 0.52754 0.08737 0.0
C444 C 0.19373 0.75118 0.51471 0.0
C445 C 0.20497 0.74698 0.42829 0.0
C446 C 0.2637 0.79415 0.45903 0.0
C447 C 0.2527 0.79761 0.54656 0.0
N448 N 0.2108 0.77276 0.66739 0.0
N449 N 0.25203 0.75794 0.32662 0.0
C450 C 0.21867 0.77422 0.57737 0.0
C451 C 0.24048 0.7662 0.40334 0.0
N452 N 0.15929 0.73324 0.5369 0.0
N453 N 0.29551 0.81857 0.42708 0.0
H454 H 0.23573 0.73833 0.28223 0.0
H455 H 0.27823 0.76877 0.31058 0.0
H456 H 0.31313 0.83981 0.46532 0.0
H457 H 0.30323 0.81949 0.36 0.0
H458 H 0.14922 0.73846 0.5947 0.0
H459 H 0.14045 0.71437 0.49496 0.0
H460 H 0.18729 0.75409 0.69518 0.0
H461 H 0.22925 0.78781 0.71593 0.0
C462 C 0.4681 0.26118 0.62194 0.0
C463 C 0.45589 0.25059 0.71148 0.0
C464 C 0.44588 0.19239 0.6808 0.0
C465 C 0.45862 0.20311 0.59173 0.0
N466 N 0.49013 0.24944 0.4844 0.0
N467 N 0.44352 0.21031 0.83424 0.0
C468 C 0.47264 0.23817 0.56466 0.0
C469 C 0.44775 0.21736 0.74344 0.0
N470 N 0.47349 0.29234 0.59001 0.0
N471 N 0.43188 0.15839 0.70537 0.0
H472 H 0.44664 0.22881 0.88241 0.0
H473 H 0.44063 0.18759 0.86262 0.0
H474 H 0.43225 0.13975 0.66326 0.0
H475 H 0.41833 0.14834 0.76566 0.0
H476 H 0.47846 0.29963 0.52215 0.0
H477 H 0.47021 0.30986 0.62977 0.0
H478 H 0.50394 0.27547 0.46579 0.0
H479 H 0.49317 0.23318 0.43914 0.0
C480 C 0.01579 0.40507 0.91358 0.0
C481 C 0.03245 0.38567 0.93266 0.0
C482 C 0.98339 0.33386 0.86567 0.0
C483 C 0.96845 0.35421 0.83908 0.0
N484 N 0.97303 0.41031 0.82378 0.0
N485 N 0.0346 0.33283 0.91893 0.0
C486 C 0.98533 0.39013 0.85941 0.0
C487 C 0.01687 0.3503 0.90695 0.0
N488 N 0.02854 0.43749 0.94972 0.0
N489 N 0.96514 0.29873 0.85386 0.0
H490 H 0.05883 0.3439 0.95027 0.0
H491 H 0.02648 0.30827 0.89257 0.0
H492 H 0.94083 0.28599 0.8228 0.0
H493 H 0.97281 0.28194 0.88053 0.0
H494 H 0.01559 0.45154 0.9462 0.0
H495 H 0.0505 0.4491 0.991 0.0
H496 H 0.98626 0.43725 0.82797 0.0
H497 H 0.95111 0.40048 0.78246 0.0
C498 C 0.63601 1.00046 0.95568 0.0
C499 C 0.62011 0.96975 0.0087 0.0
C500 C 0.63468 0.00497 0.14695 0.0
C501 C 0.65304 0.03562 0.09447 0.0
N502 N 0.68051 0.06089 0.95146 0.0
N503 N 0.61548 0.94384 0.15599 0.0
C504 C 0.65662 0.03287 -0.00048 0.0
C505 C 0.62295 0.97232 0.10477 0.0
N506 N 0.63013 0.99929 0.86454 0.0
N507 N 0.62648 0.00652 0.23544 0.0
H508 H 0.60905 0.91991 0.12764 0.0
H509 H 0.61993 0.94517 0.22565 0.0
H510 H 0.63263 0.02956 0.26847 0.0
H511 H 0.61015 0.98448 0.27306 0.0
H512 H 0.63854 0.02154 0.82527 0.0
H513 H 0.61392 0.9765 0.82969 0.0
H514 H 0.68602 0.05945 0.88344 0.0
H515 H 0.69779 0.08431 0.98239 0.0
C516 C 0.6677 0.64801 0.2096 0.0
C517 C 0.64725 0.61371 0.17638 0.0
C518 C 0.59564 0.60927 0.24904 0.0
C519 C 0.61533 0.64454 0.27559 0.0
N520 N 0.66885 0.69918 0.2712 0.0
N521 N 0.59095 0.56374 0.1499 0.0
C522 C 0.6511 0.66442 0.25342 0.0
C523 C 0.61096 0.59492 0.19197 0.0
N524 N 0.70302 0.66442 0.20202 0.0
N525 N 0.56265 0.58908 0.28142 0.0
H526 H 0.60119 0.55256 0.10659 0.0
H527 H 0.56394 0.55051 0.15089 0.0
H528 H 0.5508 0.59839 0.3254 0.0
H529 H 0.54825 0.56235 0.27209 0.0
H530 H 0.71963 0.68783 0.23378 0.0
H531 H 0.71593 0.65338 0.16907 0.0
H532 H 0.69388 0.71583 0.24783 0.0
H533 H 0.65761 0.71195 0.30387 0.0
C534 C 0.02435 0.66943 0.37787 0.0
C535 C 0.03898 0.64879 0.35131 0.0
C536 C 0.99144 0.59824 0.42622 0.0
C537 C 0.97506 0.61791 0.44519 0.0
N538 N 0.97332 0.67094 0.43031 0.0
N539 N 0.03366 0.59239 0.33564 0.0
C540 C 0.99086 0.65326 0.41902 0.0
C541 C 0.02178 0.61286 0.37165 0.0
N542 N 0.04293 0.70457 0.36639 0.0
N543 N 0.97851 0.56585 0.46274 0.0
H544 H 0.05537 0.60197 0.29354 0.0
H545 H 0.02019 0.56545 0.34009 0.0
H546 H 0.95667 0.55452 0.50452 0.0
H547 H 0.99123 0.55159 0.4591 0.0
H548 H 0.03543 0.72147 0.3932 0.0
H549 H 0.06729 0.71716 0.33554 0.0
H550 H 0.98163 0.69547 0.40335 0.0
H551 H 0.94908 0.6601 0.46158 0.0
C552 C 0.40708 0.02597 0.57685 0.0
C553 C 0.38838 0.03351 0.51127 0.0
C554 C 0.33751 0.9759 0.53599 0.0
C555 C 0.35523 0.97008 0.60807 0.0
N556 N 0.40469 0.99237 0.70824 0.0
N557 N 0.33415 0.01784 0.43738 0.0
C558 C 0.38924 0.99609 0.63231 0.0
C559 C 0.35314 0.00899 0.49277 0.0
N560 N 0.44237 0.04628 0.58256 0.0
N561 N 0.30574 0.94982 0.50889 0.0
H562 H 0.34458 0.04187 0.40536 0.0
H563 H 0.30743 0.00255 0.42889 0.0
H564 H 0.29248 0.9261 0.54264 0.0
H565 H 0.2934 0.95095 0.45008 0.0
H566 H 0.45776 0.03998 0.6225 0.0
H567 H 0.45684 0.0673 0.53971 0.0
H568 H 0.42795 0.01218 0.73423 0.0
H569 H 0.39285 0.9707 0.75025 0.0
C570 C 0.33364 0.34873 0.70162 0.0
C571 C 0.35374 0.38341 0.67066 0.0
C572 C 0.40556 0.38798 0.74286 0.0
C573 C 0.38616 0.3525 0.76775 0.0
N574 N 0.33305 0.29758 0.76175 0.0
N575 N 0.40969 0.43426 0.64748 0.0
C576 C 0.35048 0.33242 0.74489 0.0
C577 C 0.38997 0.40254 0.68731 0.0
N578 N 0.29837 0.33179 0.69213 0.0
N579 N 0.43853 0.40814 0.7753 0.0
H580 H 0.39927 0.44565 0.60558 0.0
H581 H 0.4367 0.44791 0.64899 0.0
H582 H 0.45068 0.39858 0.81744 0.0
H583 H 0.45271 0.43495 0.76764 0.0
H584 H 0.2818 0.30794 0.72203 0.0
H585 H 0.28535 0.34273 0.65922 0.0
H586 H 0.30815 0.28075 0.73795 0.0
H587 H 0.34445 0.28495 0.79437 0.0
loop_
_geom_bond_atom_site_label_1
_geom_bond_atom_site_label_2
_geom_bond_distance
_geom_bond_site_symmetry_2
_ccdc_geom_bond_type
In0 O1 2.294 . S
In0 O2 2.326 1_554 S
In0 O6 2.266 . S
In0 O7 2.326 . S
In0 O8 2.266 1_554 S
In0 O9 2.326 1_554 S
In0 O11 2.294 . S
In0 O12 2.326 . S
O1 In0 2.294 . S
O1 C10 1.240 1_554 S
O2 In0 2.326 1_556 S
O2 C10 1.252 . S
C3 O6 1.252 . S
C3 O7 1.260 . S
C4 O11 1.240 . S
C4 O12 1.252 . S
C5 O8 1.252 . S
C5 O9 1.260 . S
O6 In0 2.266 . S
O6 C3 1.252 . S
O7 In0 2.326 . S
O7 C3 1.260 . S
O8 In0 2.266 1_556 S
O8 C5 1.252 . S
O9 In0 2.326 1_556 S
O9 C5 1.260 . S
C10 O1 1.240 1_556 S
C10 O2 1.252 . S
O11 In0 2.294 . S
O11 C4 1.240 . S
O12 In0 2.326 . S
O12 C4 1.252 . S
In13 O14 2.294 . S
In13 O15 2.326 . S
In13 O19 2.266 . S
In13 O20 2.326 . S
In13 O21 2.266 . S
In13 O22 2.326 . S
In13 O24 2.294 . S
In13 O25 2.326 . S
O14 In13 2.294 . S
O14 C23 1.240 . S
O15 In13 2.326 . S
O15 C23 1.252 . S
C16 O19 1.252 . S
C16 O20 1.260 . S
C17 O24 1.240 . S
C17 O25 1.252 . S
C18 O21 1.252 . S
C18 O22 1.260 . S
O19 In13 2.266 . S
O19 C16 1.252 . S
O20 In13 2.326 . S
O20 C16 1.260 . S
O21 In13 2.266 . S
O21 C18 1.252 . S
O22 In13 2.326 . S
O22 C18 1.260 . S
C23 O14 1.240 . S
C23 O15 1.252 . S
O24 In13 2.294 . S
O24 C17 1.240 . S
O25 In13 2.326 . S
O25 C17 1.252 . S
In26 O27 2.294 . S
In26 O28 2.326 . S
In26 O32 2.266 . S
In26 O33 2.326 . S
In26 O34 2.266 . S
In26 O35 2.326 . S
In26 O37 2.294 . S
In26 O38 2.326 . S
O27 In26 2.294 . S
O27 C36 1.240 . S
O28 In26 2.326 . S
O28 C36 1.252 . S
C29 O32 1.252 . S
C29 O33 1.260 . S
C30 O37 1.240 . S
C30 O38 1.252 . S
C31 O34 1.252 . S
C31 O35 1.260 . S
O32 In26 2.266 . S
O32 C29 1.252 . S
O33 In26 2.326 . S
O33 C29 1.260 . S
O34 In26 2.266 . S
O34 C31 1.252 . S
O35 In26 2.326 . S
O35 C31 1.260 . S
C36 O27 1.240 . S
C36 O28 1.252 . S
O37 In26 2.294 . S
O37 C30 1.240 . S
O38 In26 2.326 . S
O38 C30 1.252 . S
In39 O40 2.294 . S
In39 O41 2.326 . S
In39 O45 2.266 . S
In39 O46 2.326 . S
In39 O47 2.266 . S
In39 O48 2.326 . S
In39 O50 2.294 . S
In39 O51 2.326 . S
O40 In39 2.294 . S
O40 C49 1.240 . S
O41 In39 2.326 . S
O41 C49 1.252 . S
C42 O45 1.252 . S
C42 O46 1.260 . S
C43 O50 1.240 . S
C43 O51 1.252 . S
C44 O47 1.252 . S
C44 O48 1.260 . S
O45 In39 2.266 . S
O45 C42 1.252 . S
O46 In39 2.326 . S
O46 C42 1.260 . S
O47 In39 2.266 . S
O47 C44 1.252 . S
O48 In39 2.326 . S
O48 C44 1.260 . S
C49 O40 1.240 . S
C49 O41 1.252 . S
O50 In39 2.294 . S
O50 C43 1.240 . S
O51 In39 2.326 . S
O51 C43 1.252 . S
In52 O53 2.294 . S
In52 O54 2.326 . S
In52 O58 2.266 . S
In52 O59 2.326 . S
In52 O60 2.266 . S
In52 O61 2.326 . S
In52 O63 2.294 . S
In52 O64 2.326 . S
O53 In52 2.294 . S
O53 C62 1.240 . S
O54 In52 2.326 . S
O54 C62 1.252 . S
C55 O58 1.252 . S
C55 O59 1.260 . S
C56 O63 1.240 . S
C56 O64 1.252 . S
C57 O60 1.252 . S
C57 O61 1.260 . S
O58 In52 2.266 . S
O58 C55 1.252 . S
O59 In52 2.326 . S
O59 C55 1.260 . S
O60 In52 2.266 . S
O60 C57 1.252 . S
O61 In52 2.326 . S
O61 C57 1.260 . S
C62 O53 1.240 . S
C62 O54 1.252 . S
O63 In52 2.294 . S
O63 C56 1.240 . S
O64 In52 2.326 . S
O64 C56 1.252 . S
In65 O66 2.294 . S
In65 O67 2.326 . S
In65 O71 2.266 1_556 S
In65 O72 2.326 . S
In65 O73 2.266 . S
In65 O74 2.326 . S
In65 O76 2.294 . S
In65 O77 2.326 . S
O66 In65 2.294 . S
O66 C75 1.240 . S
O67 In65 2.326 . S
O67 C75 1.252 . S
C68 O71 1.252 . S
C68 O72 1.260 1_554 S
C69 O76 1.240 . S
C69 O77 1.252 . S
C70 O73 1.252 . S
C70 O74 1.260 . S
O71 In65 2.266 1_554 S
O71 C68 1.252 . S
O72 In65 2.326 . S
O72 C68 1.260 1_556 S
O73 In65 2.266 . S
O73 C70 1.252 . S
O74 In65 2.326 . S
O74 C70 1.260 . S
C75 O66 1.240 . S
C75 O67 1.252 . S
O76 In65 2.294 . S
O76 C69 1.240 . S
O77 In65 2.326 . S
O77 C69 1.252 . S
In78 O79 2.294 . S
In78 O80 2.326 . S
In78 O84 2.266 . S
In78 O85 2.326 . S
In78 O86 2.266 . S
In78 O87 2.326 . S
In78 O89 2.294 . S
In78 O90 2.326 . S
O79 In78 2.294 . S
O79 C88 1.240 . S
O80 In78 2.326 . S
O80 C88 1.252 . S
C81 O84 1.252 1_554 S
C81 O85 1.260 1_554 S
C82 O89 1.240 . S
C82 O90 1.252 . S
C83 O86 1.252 . S
C83 O87 1.260 . S
O84 In78 2.266 . S
O84 C81 1.252 1_556 S
O85 In78 2.326 . S
O85 C81 1.260 1_556 S
O86 In78 2.266 . S
O86 C83 1.252 . S
O87 In78 2.326 . S
O87 C83 1.260 . S
C88 O79 1.240 . S
C88 O80 1.252 . S
O89 In78 2.294 . S
O89 C82 1.240 . S
O90 In78 2.326 . S
O90 C82 1.252 . S
In91 O92 2.294 . S
In91 O93 2.326 1_554 S
In91 O97 2.266 . S
In91 O98 2.326 . S
In91 O99 2.266 1_554 S
In91 O100 2.326 1_554 S
In91 O102 2.294 . S
In91 O103 2.326 . S
O92 In91 2.294 . S
O92 C101 1.240 . S
O93 In91 2.326 1_556 S
O93 C101 1.252 1_556 S
C94 O97 1.252 . S
C94 O98 1.260 . S
C95 O102 1.240 . S
C95 O103 1.252 . S
C96 O99 1.252 . S
C96 O100 1.260 . S
O97 In91 2.266 . S
O97 C94 1.252 . S
O98 In91 2.326 . S
O98 C94 1.260 . S
O99 In91 2.266 1_556 S
O99 C96 1.252 . S
O100 In91 2.326 1_556 S
O100 C96 1.260 . S
C101 O92 1.240 . S
C101 O93 1.252 1_554 S
O102 In91 2.294 . S
O102 C95 1.240 . S
O103 In91 2.326 . S
O103 C95 1.252 . S
In104 O105 2.294 . S
In104 O106 2.326 . S
In104 O110 2.266 . S
In104 O111 2.326 . S
In104 O112 2.266 . S
In104 O113 2.326 . S
In104 O115 2.294 . S
In104 O116 2.326 . S
O105 In104 2.294 . S
O105 C114 1.240 . S
O106 In104 2.326 . S
O106 C114 1.252 . S
C107 O110 1.252 . S
C107 O111 1.260 . S
C108 O115 1.240 . S
C108 O116 1.252 . S
C109 O112 1.252 . S
C109 O113 1.260 . S
O110 In104 2.266 . S
O110 C107 1.252 . S
O111 In104 2.326 . S
O111 C107 1.260 . S
O112 In104 2.266 . S
O112 C109 1.252 . S
O113 In104 2.326 . S
O113 C109 1.260 . S
C114 O105 1.240 . S
C114 O106 1.252 . S
O115 In104 2.294 . S
O115 C108 1.240 . S
O116 In104 2.326 . S
O116 C108 1.252 . S
In117 O118 2.294 . S
In117 O119 2.326 . S
In117 O123 2.266 . S
In117 O124 2.326 . S
In117 O125 2.266 . S
In117 O126 2.326 . S
In117 O128 2.294 . S
In117 O129 2.326 . S
O118 In117 2.294 . S
O118 C127 1.240 . S
O119 In117 2.326 . S
O119 C127 1.252 . S
C120 O123 1.252 . S
C120 O124 1.260 . S
C121 O128 1.240 . S
C121 O129 1.252 . S
C122 O125 1.252 . S
C122 O126 1.260 . S
O123 In117 2.266 . S
O123 C120 1.252 . S
O124 In117 2.326 . S
O124 C120 1.260 . S
O125 In117 2.266 . S
O125 C122 1.252 . S
O126 In117 2.326 . S
O126 C122 1.260 . S
C127 O118 1.240 . S
C127 O119 1.252 . S
O128 In117 2.294 . S
O128 C121 1.240 . S
O129 In117 2.326 . S
O129 C121 1.252 . S
In130 O131 2.294 . S
In130 O132 2.326 . S
In130 O136 2.266 . S
In130 O137 2.326 . S
In130 O138 2.266 . S
In130 O139 2.326 . S
In130 O141 2.294 . S
In130 O142 2.326 . S
O131 In130 2.294 . S
O131 C140 1.240 . S
O132 In130 2.326 . S
O132 C140 1.252 . S
C133 O136 1.252 . S
C133 O137 1.260 . S
C134 O141 1.240 . S
C134 O142 1.252 . S
C135 O138 1.252 . S
C135 O139 1.260 . S
O136 In130 2.266 . S
O136 C133 1.252 . S
O137 In130 2.326 . S
O137 C133 1.260 . S
O138 In130 2.266 . S
O138 C135 1.252 . S
O139 In130 2.326 . S
O139 C135 1.260 . S
C140 O131 1.240 . S
C140 O132 1.252 . S
O141 In130 2.294 . S
O141 C134 1.240 . S
O142 In130 2.326 . S
O142 C134 1.252 . S
In143 O144 2.294 . S
In143 O145 2.326 . S
In143 O149 2.266 . S
In143 O150 2.326 . S
In143 O151 2.266 . S
In143 O152 2.326 . S
In143 O154 2.294 . S
In143 O155 2.326 . S
O144 In143 2.294 . S
O144 C153 1.240 . S
O145 In143 2.326 . S
O145 C153 1.252 . S
C146 O149 1.252 . S
C146 O150 1.260 . S
C147 O154 1.240 . S
C147 O155 1.252 . S
C148 O151 1.252 . S
C148 O152 1.260 . S
O149 In143 2.266 . S
O149 C146 1.252 . S
O150 In143 2.326 . S
O150 C146 1.260 . S
O151 In143 2.266 . S
O151 C148 1.252 . S
O152 In143 2.326 . S
O152 C148 1.260 . S
C153 O144 1.240 . S
C153 O145 1.252 . S
O154 In143 2.294 . S
O154 C147 1.240 . S
O155 In143 2.326 . S
O155 C147 1.252 . S
C156 C157 1.363 . S
C156 C162 1.379 . S
C156 N164 1.356 . S
C157 C156 1.363 . S
C157 C163 1.363 . S
C158 C159 1.363 . S
C158 C163 1.379 . S
C158 N165 1.356 . S
C159 C158 1.363 . S
C159 C162 1.363 . S
N160 C162 1.356 . S
N160 H172 0.984 . S
N160 H173 0.985 . S
N161 C163 1.356 . S
N161 H166 0.984 . S
N161 H167 0.985 . S
C162 C156 1.379 . S
C162 C159 1.363 . S
C162 N160 1.356 . S
C163 C157 1.363 . S
C163 C158 1.379 . S
C163 N161 1.356 . S
N164 C156 1.356 . S
N164 H170 0.984 . S
N164 H171 0.984 . S
N165 C158 1.356 . S
N165 H168 0.984 . S
N165 H169 0.985 . S
H166 N161 0.984 . S
H167 N161 0.985 . S
H168 N165 0.984 . S
H169 N165 0.985 . S
H170 N164 0.984 . S
H171 N164 0.984 . S
H172 N160 0.984 . S
H173 N160 0.985 . S
C174 C175 1.363 . S
C174 C180 1.379 . S
C174 N182 1.356 . S
C175 C174 1.363 . S
C175 C181 1.363 . S
C176 C177 1.363 . S
C176 C181 1.379 . S
C176 N183 1.356 . S
C177 C176 1.363 . S
C177 C180 1.363 . S
N178 C180 1.356 . S
N178 H190 0.984 . S
N178 H191 0.985 . S
N179 C181 1.356 . S
N179 H184 0.984 . S
N179 H185 0.985 . S
C180 C174 1.379 . S
C180 C177 1.363 . S
C180 N178 1.356 . S
C181 C175 1.363 . S
C181 C176 1.379 . S
C181 N179 1.356 . S
N182 C174 1.356 . S
N182 H188 0.984 . S
N182 H189 0.984 . S
N183 C176 1.356 . S
N183 H186 0.984 . S
N183 H187 0.985 . S
H184 N179 0.984 . S
H185 N179 0.985 . S
H186 N183 0.984 . S
H187 N183 0.985 . S
H188 N182 0.984 . S
H189 N182 0.984 . S
H190 N178 0.984 . S
H191 N178 0.985 . S
C192 C193 1.363 . S
C192 C198 1.379 . S
C192 N200 1.356 . S
C193 C192 1.363 . S
C193 C199 1.363 . S
C194 C195 1.363 . S
C194 C199 1.379 . S
C194 N201 1.356 . S
C195 C194 1.363 . S
C195 C198 1.363 . S
N196 C198 1.356 . S
N196 H208 0.984 . S
N196 H209 0.985 . S
N197 C199 1.356 . S
N197 H202 0.984 . S
N197 H203 0.985 . S
C198 C192 1.379 . S
C198 C195 1.363 . S
C198 N196 1.356 . S
C199 C193 1.363 . S
C199 C194 1.379 . S
C199 N197 1.356 . S
N200 C192 1.356 . S
N200 H206 0.984 . S
N200 H207 0.984 . S
N201 C194 1.356 . S
N201 H204 0.984 . S
N201 H205 0.985 . S
H202 N197 0.984 . S
H203 N197 0.985 . S
H204 N201 0.984 . S
H205 N201 0.985 . S
H206 N200 0.984 . S
H207 N200 0.984 . S
H208 N196 0.984 . S
H209 N196 0.985 . S
C210 C211 1.363 . S
C210 C216 1.379 . S
C210 N218 1.356 . S
C211 C210 1.363 . S
C211 C217 1.363 . S
C212 C213 1.363 . S
C212 C217 1.379 . S
C212 N219 1.356 . S
C213 C212 1.363 . S
C213 C216 1.363 . S
N214 C216 1.356 . S
N214 H226 0.984 . S
N214 H227 0.985 . S
N215 C217 1.356 . S
N215 H220 0.984 . S
N215 H221 0.985 . S
C216 C210 1.379 . S
C216 C213 1.363 . S
C216 N214 1.356 . S
C217 C211 1.363 . S
C217 C212 1.379 . S
C217 N215 1.356 . S
N218 C210 1.356 . S
N218 H224 0.984 . S
N218 H225 0.984 . S
N219 C212 1.356 . S
N219 H222 0.984 . S
N219 H223 0.985 . S
H220 N215 0.984 . S
H221 N215 0.985 . S
H222 N219 0.984 . S
H223 N219 0.985 . S
H224 N218 0.984 . S
H225 N218 0.984 . S
H226 N214 0.984 . S
H227 N214 0.985 . S
C228 C229 1.363 1_554 S
C228 C234 1.379 . S
C228 N236 1.356 . S
C229 C228 1.363 1_556 S
C229 C235 1.363 . S
C230 C231 1.363 1_556 S
C230 C235 1.379 . S
C230 N237 1.356 . S
C231 C230 1.363 1_554 S
C231 C234 1.363 . S
N232 C234 1.356 . S
N232 H244 0.984 . S
N232 H245 0.985 . S
N233 C235 1.356 . S
N233 H238 0.984 . S
N233 H239 0.985 . S
C234 C228 1.379 . S
C234 C231 1.363 . S
C234 N232 1.356 . S
C235 C229 1.363 . S
C235 C230 1.379 . S
C235 N233 1.356 . S
N236 C228 1.356 . S
N236 H242 0.984 . S
N236 H243 0.984 1_554 S
N237 C230 1.356 . S
N237 H240 0.984 . S
N237 H241 0.985 . S
H238 N233 0.984 . S
H239 N233 0.985 . S
H240 N237 0.984 . S
H241 N237 0.985 . S
H242 N236 0.984 . S
H243 N236 0.984 1_556 S
H244 N232 0.984 . S
H245 N232 0.985 . S
C246 C247 1.363 . S
C246 C252 1.379 . S
C246 N254 1.356 . S
C247 C246 1.363 . S
C247 C253 1.363 . S
C248 C249 1.363 . S
C248 C253 1.379 . S
C248 N255 1.356 1_554 S
C249 C248 1.363 . S
C249 C252 1.363 . S
N250 C252 1.356 . S
N250 H262 0.984 . S
N250 H263 0.985 . S
N251 C253 1.356 . S
N251 H256 0.984 . S
N251 H257 0.985 . S
C252 C246 1.379 . S
C252 C249 1.363 . S
C252 N250 1.356 . S
C253 C247 1.363 . S
C253 C248 1.379 . S
C253 N251 1.356 . S
N254 C246 1.356 . S
N254 H260 0.984 . S
N254 H261 0.984 . S
N255 C248 1.356 1_556 S
N255 H258 0.984 . S
N255 H259 0.985 . S
H256 N251 0.984 . S
H257 N251 0.985 . S
H258 N255 0.984 . S
H259 N255 0.985 . S
H260 N254 0.984 . S
H261 N254 0.984 . S
H262 N250 0.984 . S
H263 N250 0.985 . S
C264 C265 1.363 . S
C264 C270 1.379 . S
C264 N272 1.356 . S
C265 C264 1.363 . S
C265 C271 1.363 . S
C266 C267 1.363 . S
C266 C271 1.379 . S
C266 N273 1.356 . S
C267 C266 1.363 . S
C267 C270 1.363 . S
N268 C270 1.356 . S
N268 H280 0.984 . S
N268 H281 0.985 . S
N269 C271 1.356 . S
N269 H274 0.984 . S
N269 H275 0.985 1_554 S
C270 C264 1.379 . S
C270 C267 1.363 . S
C270 N268 1.356 . S
C271 C265 1.363 . S
C271 C266 1.379 . S
C271 N269 1.356 . S
N272 C264 1.356 . S
N272 H278 0.984 . S
N272 H279 0.984 . S
N273 C266 1.356 . S
N273 H276 0.984 . S
N273 H277 0.985 1_554 S
H274 N269 0.984 . S
H275 N269 0.985 1_556 S
H276 N273 0.984 . S
H277 N273 0.985 1_556 S
H278 N272 0.984 . S
H279 N272 0.984 . S
H280 N268 0.984 . S
H281 N268 0.985 . S
C282 C283 1.363 . S
C282 C288 1.379 . S
C282 N290 1.356 . S
C283 C282 1.363 . S
C283 C289 1.363 . S
C284 C285 1.363 . S
C284 C289 1.379 . S
C284 N291 1.356 . S
C285 C284 1.363 . S
C285 C288 1.363 . S
N286 C288 1.356 . S
N286 H298 0.984 . S
N286 H299 0.985 . S
N287 C289 1.356 . S
N287 H292 0.984 . S
N287 H293 0.985 . S
C288 C282 1.379 . S
C288 C285 1.363 . S
C288 N286 1.356 . S
C289 C283 1.363 . S
C289 C284 1.379 . S
C289 N287 1.356 . S
N290 C282 1.356 . S
N290 H296 0.984 . S
N290 H297 0.984 . S
N291 C284 1.356 . S
N291 H294 0.984 . S
N291 H295 0.985 . S
H292 N287 0.984 . S
H293 N287 0.985 . S
H294 N291 0.984 . S
H295 N291 0.985 . S
H296 N290 0.984 . S
H297 N290 0.984 . S
H298 N286 0.984 . S
H299 N286 0.985 . S
C300 C301 1.363 . S
C300 C306 1.379 . S
C300 N308 1.356 . S
C301 C300 1.363 . S
C301 C307 1.363 . S
C302 C303 1.363 . S
C302 C307 1.379 . S
C302 N309 1.356 . S
C303 C302 1.363 . S
C303 C306 1.363 . S
N304 C306 1.356 . S
N304 H316 0.984 . S
N304 H317 0.985 . S
N305 C307 1.356 . S
N305 H310 0.984 . S
N305 H311 0.985 . S
C306 C300 1.379 . S
C306 C303 1.363 . S
C306 N304 1.356 . S
C307 C301 1.363 . S
C307 C302 1.379 . S
C307 N305 1.356 . S
N308 C300 1.356 . S
N308 H314 0.984 . S
N308 H315 0.984 . S
N309 C302 1.356 . S
N309 H312 0.984 . S
N309 H313 0.985 . S
H310 N305 0.984 . S
H311 N305 0.985 . S
H312 N309 0.984 . S
H313 N309 0.985 . S
H314 N308 0.984 . S
H315 N308 0.984 . S
H316 N304 0.984 . S
H317 N304 0.985 . S
C318 C319 1.363 . S
C318 C324 1.379 . S
C318 N326 1.356 . S
C319 C318 1.363 . S
C319 C325 1.363 . S
C320 C321 1.363 . S
C320 C325 1.379 . S
C320 N327 1.356 . S
C321 C320 1.363 . S
C321 C324 1.363 . S
N322 C324 1.356 . S
N322 H334 0.984 . S
N322 H335 0.985 . S
N323 C325 1.356 . S
N323 H328 0.984 . S
N323 H329 0.985 . S
C324 C318 1.379 . S
C324 C321 1.363 . S
C324 N322 1.356 . S
C325 C319 1.363 . S
C325 C320 1.379 . S
C325 N323 1.356 . S
N326 C318 1.356 . S
N326 H332 0.984 . S
N326 H333 0.984 . S
N327 C320 1.356 . S
N327 H330 0.984 . S
N327 H331 0.985 . S
H328 N323 0.984 . S
H329 N323 0.985 . S
H330 N327 0.984 . S
H331 N327 0.985 . S
H332 N326 0.984 . S
H333 N326 0.984 . S
H334 N322 0.984 . S
H335 N322 0.985 . S
C336 C337 1.363 . S
C336 C342 1.379 . S
C336 N344 1.356 . S
C337 C336 1.363 . S
C337 C343 1.363 . S
C338 C339 1.363 . S
C338 C343 1.379 . S
C338 N345 1.356 . S
C339 C338 1.363 . S
C339 C342 1.363 . S
N340 C342 1.356 . S
N340 H352 0.984 . S
N340 H353 0.985 . S
N341 C343 1.356 . S
N341 H346 0.984 . S
N341 H347 0.985 . S
C342 C336 1.379 . S
C342 C339 1.363 . S
C342 N340 1.356 . S
C343 C337 1.363 . S
C343 C338 1.379 . S
C343 N341 1.356 . S
N344 C336 1.356 . S
N344 H350 0.984 . S
N344 H351 0.984 . S
N345 C338 1.356 . S
N345 H348 0.984 . S
N345 H349 0.985 . S
H346 N341 0.984 . S
H347 N341 0.985 . S
H348 N345 0.984 . S
H349 N345 0.985 . S
H350 N344 0.984 . S
H351 N344 0.984 . S
H352 N340 0.984 . S
H353 N340 0.985 . S
C354 C355 1.363 . S
C354 C360 1.379 . S
C354 N362 1.356 . S
C355 C354 1.363 . S
C355 C361 1.363 1_556 S
C356 C357 1.363 1_554 S
C356 C361 1.379 . S
C356 N363 1.356 . S
C357 C356 1.363 1_556 S
C357 C360 1.363 . S
N358 C360 1.356 . S
N358 H370 0.984 . S
N358 H371 0.985 . S
N359 C361 1.356 . S
N359 H364 0.984 . S
N359 H365 0.985 . S
C360 C354 1.379 . S
C360 C357 1.363 . S
C360 N358 1.356 . S
C361 C355 1.363 1_554 S
C361 C356 1.379 . S
C361 N359 1.356 . S
N362 C354 1.356 . S
N362 H368 0.984 . S
N362 H369 0.984 . S
N363 C356 1.356 . S
N363 H366 0.984 . S
N363 H367 0.985 . S
H364 N359 0.984 . S
H365 N359 0.985 . S
H366 N363 0.984 . S
H367 N363 0.985 . S
H368 N362 0.984 . S
H369 N362 0.984 . S
H370 N358 0.984 . S
H371 N358 0.985 . S
C372 C373 1.363 . S
C372 C378 1.379 . S
C372 N380 1.356 . S
C373 C372 1.363 . S
C373 C379 1.363 . S
C374 C375 1.363 . S
C374 C379 1.379 . S
C374 N381 1.356 . S
C375 C374 1.363 . S
C375 C378 1.363 . S
N376 C378 1.356 . S
N376 H388 0.984 . S
N376 H389 0.985 . S
N377 C379 1.356 . S
N377 H382 0.984 . S
N377 H383 0.985 . S
C378 C372 1.379 . S
C378 C375 1.363 . S
C378 N376 1.356 . S
C379 C373 1.363 . S
C379 C374 1.379 . S
C379 N377 1.356 . S
N380 C372 1.356 . S
N380 H386 0.984 . S
N380 H387 0.984 . S
N381 C374 1.356 . S
N381 H384 0.984 . S
N381 H385 0.985 . S
H382 N377 0.984 . S
H383 N377 0.985 . S
H384 N381 0.984 . S
H385 N381 0.985 . S
H386 N380 0.984 . S
H387 N380 0.984 . S
H388 N376 0.984 . S
H389 N376 0.985 . S
C390 C391 1.363 1_556 S
C390 C396 1.379 . S
C390 N398 1.356 . S
C391 C390 1.363 1_554 S
C391 C397 1.363 . S
C392 C393 1.363 . S
C392 C397 1.379 1_556 S
C392 N399 1.356 . S
C393 C392 1.363 . S
C393 C396 1.363 . S
N394 C396 1.356 . S
N394 H406 0.984 . S
N394 H407 0.985 . S
N395 C397 1.356 . S
N395 H400 0.984 . S
N395 H401 0.985 . S
C396 C390 1.379 . S
C396 C393 1.363 . S
C396 N394 1.356 . S
C397 C391 1.363 . S
C397 C392 1.379 1_554 S
C397 N395 1.356 . S
N398 C390 1.356 . S
N398 H404 0.984 . S
N398 H405 0.984 1_556 S
N399 C392 1.356 . S
N399 H402 0.984 . S
N399 H403 0.985 1_556 S
H400 N395 0.984 . S
H401 N395 0.985 . S
H402 N399 0.984 . S
H403 N399 0.985 1_554 S
H404 N398 0.984 . S
H405 N398 0.984 1_554 S
H406 N394 0.984 . S
H407 N394 0.985 . S
C408 C409 1.363 . S
C408 C414 1.379 . S
C408 N416 1.356 . S
C409 C408 1.363 . S
C409 C415 1.363 . S
C410 C411 1.363 . S
C410 C415 1.379 . S
C410 N417 1.356 . S
C411 C410 1.363 . S
C411 C414 1.363 . S
N412 C414 1.356 . S
N412 H424 0.984 . S
N412 H425 0.985 1_554 S
N413 C415 1.356 . S
N413 H418 0.984 . S
N413 H419 0.985 . S
C414 C408 1.379 . S
C414 C411 1.363 . S
C414 N412 1.356 . S
C415 C409 1.363 . S
C415 C410 1.379 . S
C415 N413 1.356 . S
N416 C408 1.356 . S
N416 H422 0.984 . S
N416 H423 0.984 . S
N417 C410 1.356 . S
N417 H420 0.984 . S
N417 H421 0.985 . S
H418 N413 0.984 . S
H419 N413 0.985 . S
H420 N417 0.984 . S
H421 N417 0.985 . S
H422 N416 0.984 . S
H423 N416 0.984 . S
H424 N412 0.984 . S
H425 N412 0.985 1_556 S
C426 C427 1.363 . S
C426 C432 1.379 . S
C426 N434 1.356 . S
C427 C426 1.363 . S
C427 C433 1.363 . S
C428 C429 1.363 . S
C428 C433 1.379 . S
C428 N435 1.356 . S
C429 C428 1.363 . S
C429 C432 1.363 . S
N430 C432 1.356 . S
N430 H442 0.984 . S
N430 H443 0.985 . S
N431 C433 1.356 . S
N431 H436 0.984 . S
N431 H437 0.985 . S
C432 C426 1.379 . S
C432 C429 1.363 . S
C432 N430 1.356 . S
C433 C427 1.363 . S
C433 C428 1.379 . S
C433 N431 1.356 . S
N434 C426 1.356 . S
N434 H440 0.984 . S
N434 H441 0.984 . S
N435 C428 1.356 . S
N435 H438 0.984 . S
N435 H439 0.985 . S
H436 N431 0.984 . S
H437 N431 0.985 . S
H438 N435 0.984 . S
H439 N435 0.985 . S
H440 N434 0.984 . S
H441 N434 0.984 . S
H442 N430 0.984 . S
H443 N430 0.985 . S
C444 C445 1.363 . S
C444 C450 1.379 . S
C444 N452 1.356 . S
C445 C444 1.363 . S
C445 C451 1.363 . S
C446 C447 1.363 . S
C446 C451 1.379 . S
C446 N453 1.356 . S
C447 C446 1.363 . S
C447 C450 1.363 . S
N448 C450 1.356 . S
N448 H460 0.984 . S
N448 H461 0.985 . S
N449 C451 1.356 . S
N449 H454 0.984 . S
N449 H455 0.985 . S
C450 C444 1.379 . S
C450 C447 1.363 . S
C450 N448 1.356 . S
C451 C445 1.363 . S
C451 C446 1.379 . S
C451 N449 1.356 . S
N452 C444 1.356 . S
N452 H458 0.984 . S
N452 H459 0.984 . S
N453 C446 1.356 . S
N453 H456 0.984 . S
N453 H457 0.985 . S
H454 N449 0.984 . S
H455 N449 0.985 . S
H456 N453 0.984 . S
H457 N453 0.985 . S
H458 N452 0.984 . S
H459 N452 0.984 . S
H460 N448 0.984 . S
H461 N448 0.985 . S
C462 C463 1.363 . S
C462 C468 1.379 . S
C462 N470 1.356 . S
C463 C462 1.363 . S
C463 C469 1.363 . S
C464 C465 1.363 . S
C464 C469 1.379 . S
C464 N471 1.356 . S
C465 C464 1.363 . S
C465 C468 1.363 . S
N466 C468 1.356 . S
N466 H478 0.984 . S
N466 H479 0.985 . S
N467 C469 1.356 . S
N467 H472 0.984 . S
N467 H473 0.985 . S
C468 C462 1.379 . S
C468 C465 1.363 . S
C468 N466 1.356 . S
C469 C463 1.363 . S
C469 C464 1.379 . S
C469 N467 1.356 . S
N470 C462 1.356 . S
N470 H476 0.984 . S
N470 H477 0.984 . S
N471 C464 1.356 . S
N471 H474 0.984 . S
N471 H475 0.985 . S
H472 N467 0.984 . S
H473 N467 0.985 . S
H474 N471 0.984 . S
H475 N471 0.985 . S
H476 N470 0.984 . S
H477 N470 0.984 . S
H478 N466 0.984 . S
H479 N466 0.985 . S
C480 C481 1.363 . S
C480 C486 1.379 1_455 S
C480 N488 1.356 . S
C481 C480 1.363 . S
C481 C487 1.363 . S
C482 C483 1.363 . S
C482 C487 1.379 1_655 S
C482 N489 1.356 . S
C483 C482 1.363 . S
C483 C486 1.363 . S
N484 C486 1.356 . S
N484 H496 0.984 . S
N484 H497 0.985 . S
N485 C487 1.356 . S
N485 H490 0.981 1_556 S
N485 H491 0.985 . S
C486 C480 1.379 1_655 S
C486 C483 1.363 . S
C486 N484 1.356 . S
C487 C481 1.363 . S
C487 C482 1.379 1_455 S
C487 N485 1.356 . S
N488 C480 1.356 . S
N488 H494 0.984 . S
N488 H495 0.979 1_556 S
N489 C482 1.356 . S
N489 H492 0.984 . S
N489 H493 0.985 . S
H490 N485 0.981 1_554 S
H491 N485 0.985 . S
H492 N489 0.984 . S
H493 N489 0.985 . S
H494 N488 0.984 . S
H495 N488 0.979 1_554 S
H496 N484 0.984 . S
H497 N484 0.985 . S
C498 C499 1.367 1_545 S
C498 C504 1.379 1_556 S
C498 N506 1.356 1_545 S
C499 C498 1.367 1_565 S
C499 C505 1.350 1_556 S
C500 C501 1.363 1_565 S
C500 C505 1.379 . S
C500 N507 1.356 1_565 S
C501 C500 1.363 1_545 S
C501 C504 1.363 . S
N502 C504 1.356 . S
N502 H514 0.984 1_554 S
N502 H515 0.985 . S
N503 C505 1.356 . S
N503 H508 0.984 . S
N503 H509 0.985 . S
C504 C498 1.379 1_554 S
C504 C501 1.363 . S
C504 N502 1.356 . S
C505 C499 1.350 1_554 S
C505 C500 1.379 . S
C505 N503 1.356 . S
N506 C498 1.356 1_565 S
N506 H512 0.984 1_565 S
N506 H513 0.984 . S
N507 C500 1.356 1_545 S
N507 H510 0.984 . S
N507 H511 0.985 1_545 S
H508 N503 0.984 . S
H509 N503 0.985 . S
H510 N507 0.984 . S
H511 N507 0.985 1_565 S
H512 N506 0.984 1_545 S
H513 N506 0.984 . S
H514 N502 0.984 1_556 S
H515 N502 0.985 . S
C516 C517 1.363 . S
C516 C522 1.379 . S
C516 N524 1.356 . S
C517 C516 1.363 . S
C517 C523 1.363 . S
C518 C519 1.363 . S
C518 C523 1.379 . S
C518 N525 1.356 . S
C519 C518 1.363 . S
C519 C522 1.363 . S
N520 C522 1.356 . S
N520 H532 0.984 . S
N520 H533 0.985 . S
N521 C523 1.356 . S
N521 H526 0.984 . S
N521 H527 0.985 . S
C522 C516 1.379 . S
C522 C519 1.363 . S
C522 N520 1.356 . S
C523 C517 1.363 . S
C523 C518 1.379 . S
C523 N521 1.356 . S
N524 C516 1.356 . S
N524 H530 0.984 . S
N524 H531 0.984 . S
N525 C518 1.356 . S
N525 H528 0.984 . S
N525 H529 0.985 . S
H526 N521 0.984 . S
H527 N521 0.985 . S
H528 N525 0.984 . S
H529 N525 0.985 . S
H530 N524 0.984 . S
H531 N524 0.984 . S
H532 N520 0.984 . S
H533 N520 0.985 . S
C534 C535 1.363 . S
C534 C540 1.379 1_455 S
C534 N542 1.356 . S
C535 C534 1.363 . S
C535 C541 1.363 . S
C536 C537 1.363 . S
C536 C541 1.379 1_655 S
C536 N543 1.356 . S
C537 C536 1.363 . S
C537 C540 1.363 . S
N538 C540 1.356 . S
N538 H550 0.984 . S
N538 H551 0.985 . S
N539 C541 1.356 . S
N539 H544 0.984 . S
N539 H545 0.985 . S
C540 C534 1.379 1_655 S
C540 C537 1.363 . S
C540 N538 1.356 . S
C541 C535 1.363 . S
C541 C536 1.379 1_455 S
C541 N539 1.356 . S
N542 C534 1.356 . S
N542 H548 0.984 . S
N542 H549 0.984 . S
N543 C536 1.356 . S
N543 H546 0.984 . S
N543 H547 0.985 . S
H544 N539 0.984 . S
H545 N539 0.985 . S
H546 N543 0.984 . S
H547 N543 0.985 . S
H548 N542 0.984 . S
H549 N542 0.984 . S
H550 N538 0.984 . S
H551 N538 0.985 . S
C552 C553 1.363 . S
C552 C558 1.397 . S
C552 N560 1.356 . S
C553 C552 1.363 . S
C553 C559 1.351 1_545 S
C554 C555 1.363 . S
C554 C559 1.397 . S
C554 N561 1.356 . S
C555 C554 1.363 . S
C555 C558 1.351 1_565 S
N556 C558 1.345 1_565 S
N556 H568 0.984 1_565 S
N556 H569 0.985 . S
N557 C559 1.345 1_545 S
N557 H562 0.984 . S
N557 H563 0.985 1_545 S
C558 C552 1.397 . S
C558 C555 1.351 1_545 S
C558 N556 1.345 1_545 S
C559 C553 1.351 1_565 S
C559 C554 1.397 . S
C559 N557 1.345 1_565 S
N560 C552 1.356 . S
N560 H566 0.984 . S
N560 H567 0.984 . S
N561 C554 1.356 . S
N561 H564 0.984 . S
N561 H565 0.985 . S
H562 N557 0.984 . S
H563 N557 0.985 1_565 S
H564 N561 0.984 . S
H565 N561 0.985 . S
H566 N560 0.984 . S
H567 N560 0.984 . S
H568 N556 0.984 1_545 S
H569 N556 0.985 . S
C570 C571 1.363 . S
C570 C576 1.379 . S
C570 N578 1.356 . S
C571 C570 1.363 . S
C571 C577 1.363 . S
C572 C573 1.363 . S
C572 C577 1.379 . S
C572 N579 1.356 . S
C573 C572 1.363 . S
C573 C576 1.363 . S
N574 C576 1.356 . S
N574 H586 0.984 . S
N574 H587 0.985 . S
N575 C577 1.356 . S
N575 H580 0.984 . S
N575 H581 0.985 . S
C576 C570 1.379 . S
C576 C573 1.363 . S
C576 N574 1.356 . S
C577 C571 1.363 . S
C577 C572 1.379 . S
C577 N575 1.356 . S
N578 C570 1.356 . S
N578 H584 0.984 . S
N578 H585 0.984 . S
N579 C572 1.356 . S
N579 H582 0.984 . S
N579 H583 0.985 . S
H580 N575 0.984 . S
H581 N575 0.985 . S
H582 N579 0.984 . S
H583 N579 0.985 . S
H584 N578 0.984 . S
H585 N578 0.984 . S
H586 N574 0.984 . S
H587 N574 0.985 . S
C157 C3 1.516 . S
C159 C135 1.516 . S
C175 C148 1.516 . S
C177 C16 1.516 . S
C193 C29 1.515 . S
C195 C83 1.515 . S
C211 C44 1.515 . S
C213 C96 1.515 . S
C229 C57 1.516 . S
C231 C107 1.516 . S
C247 C122 1.516 . S
C249 C68 1.516 . S
C265 C4 1.695 . S
C267 C108 1.695 . S
C283 C17 1.695 . S
C285 C127 1.695 . S
C301 C140 1.695 . S
C303 C30 1.695 . S
C319 C49 1.695 . S
C321 C153 1.695 . S
C337 C62 1.695 . S
C339 C88 1.695 . S
C355 C69 1.695 . S
C357 C101 1.695 1_556 S
C373 C133 1.490 . S
C375 C5 1.490 . S
C391 C18 1.490 . S
C393 C146 1.490 . S
C409 C31 1.489 . S
C411 C81 1.489 . S
C427 C42 1.489 . S
C429 C94 1.489 . S
C445 C109 1.490 . S
C447 C55 1.490 . S
C463 C70 1.490 . S
C465 C120 1.490 . S
C481 C10 1.453 . S
C483 C147 1.453 . S
C499 C82 1.459 . S
C501 C23 1.453 . S
C517 C95 1.452 . S
C519 C36 1.452 . S
C535 C114 1.453 . S
C537 C43 1.453 . S
C553 C121 1.452 . S
C555 C56 1.452 . S
C571 C134 1.453 . S
C573 C75 1.453 . S
