# Generated by pormake.
# Topology rhr, (4)-cn, num edge types: 1
# Building blocks:
#     Node 0, Type 0, BuildingBlock: NAWXER_clean_sbu_0, # of connection points: 4
#     Node 1, Type 0, BuildingBlock: NAWXER_clean_sbu_0, # of connection points: 4
#     Node 2, Type 0, BuildingBlock: NAWXER_clean_sbu_0, # of connection points: 4
#     Node 3, Type 0, BuildingBlock: NAWXER_clean_sbu_0, # of connection points: 4
#     Node 4, Type 0, BuildingBlock: NAWXER_clean_sbu_0, # of connection points: 4
#     Node 5, Type 0, BuildingBlock: NAWXER_clean_sbu_0, # of connection points: 4
#     Node 6, Type 0, BuildingBlock: NAWXER_clean_sbu_0, # of connection points: 4
#     Node 7, Type 0, BuildingBlock: NAWXER_clean_sbu_0, # of connection points: 4
#     Node 8, Type 0, BuildingBlock: NAWXER_clean_sbu_0, # of connection points: 4
#     Node 9, Type 0, BuildingBlock: NAWXER_clean_sbu_0, # of connection points: 4
#     Node 10, Type 0, BuildingBlock: NAWXER_clean_sbu_0, # of connection points: 4
#     Node 11, Type 0, BuildingBlock: NAWXER_clean_sbu_0, # of connection points: 4
#     Node 12, Type 0, BuildingBlock: NAWXER_clean_sbu_0, # of connection points: 4
#     Node 13, Type 0, BuildingBlock: NAWXER_clean_sbu_0, # of connection points: 4
#     Node 14, Type 0, BuildingBlock: NAWXER_clean_sbu_0, # of connection points: 4
#     Node 15, Type 0, BuildingBlock: NAWXER_clean_sbu_0, # of connection points: 4
#     Node 16, Type 0, BuildingBlock: NAWXER_clean_sbu_0, # of connection points: 4
#     Node 17, Type 0, BuildingBlock: NAWXER_clean_sbu_0, # of connection points: 4
#     Node 18, Type 0, BuildingBlock: NAWXER_clean_sbu_0, # of connection points: 4
#     Node 19, Type 0, BuildingBlock: NAWXER_clean_sbu_0, # of connection points: 4
#     Node 20, Type 0, BuildingBlock: NAWXER_clean_sbu_0, # of connection points: 4
#     Node 21, Type 0, BuildingBlock: NAWXER_clean_sbu_0, # of connection points: 4
#     Node 22, Type 0, BuildingBlock: NAWXER_clean_sbu_0, # of connection points: 4
#     Node 23, Type 0, BuildingBlock: NAWXER_clean_sbu_0, # of connection points: 4
#     Edge 24, Type (0, 0), BuildingBlock: ZUJKAS_clean_linker_0, # of connection points: 2
#     Edge 25, Type (0, 0), BuildingBlock: ZUJKAS_clean_linker_0, # of connection points: 2
#     Edge 26, Type (0, 0), BuildingBlock: ZUJKAS_clean_linker_0, # of connection points: 2
#     Edge 27, Type (0, 0), BuildingBlock: ZUJKAS_clean_linker_0, # of connection points: 2
#     Edge 28, Type (0, 0), BuildingBlock: ZUJKAS_clean_linker_0, # of connection points: 2
#     Edge 29, Type (0, 0), BuildingBlock: ZUJKAS_clean_linker_0, # of connection points: 2
#     Edge 30, Type (0, 0), BuildingBlock: ZUJKAS_clean_linker_0, # of connection points: 2
#     Edge 31, Type (0, 0), BuildingBlock: ZUJKAS_clean_linker_0, # of connection points: 2
#     Edge 32, Type (0, 0), BuildingBlock: ZUJKAS_clean_linker_0, # of connection points: 2
#     Edge 33, Type (0, 0), BuildingBlock: ZUJKAS_clean_linker_0, # of connection points: 2
#     Edge 34, Type (0, 0), BuildingBlock: ZUJKAS_clean_linker_0, # of connection points: 2
#     Edge 35, Type (0, 0), BuildingBlock: ZUJKAS_clean_linker_0, # of connection points: 2
#     Edge 36, Type (0, 0), BuildingBlock: ZUJKAS_clean_linker_0, # of connection points: 2
#     Edge 37, Type (0, 0), BuildingBlock: ZUJKAS_clean_linker_0, # of connection points: 2
#     Edge 38, Type (0, 0), BuildingBlock: ZUJKAS_clean_linker_0, # of connection points: 2
#     Edge 39, Type (0, 0), BuildingBlock: ZUJKAS_clean_linker_0, # of connection points: 2
#     Edge 40, Type (0, 0), BuildingBlock: ZUJKAS_clean_linker_0, # of connection points: 2
#     Edge 41, Type (0, 0), BuildingBlock: ZUJKAS_clean_linker_0, # of connection points: 2
#     Edge 42, Type (0, 0), BuildingBlock: ZUJKAS_clean_linker_0, # of connection points: 2
#     Edge 43, Type (0, 0), BuildingBlock: ZUJKAS_clean_linker_0, # of connection points: 2
#     Edge 44, Type (0, 0), BuildingBlock: ZUJKAS_clean_linker_0, # of connection points: 2
#     Edge 45, Type (0, 0), BuildingBlock: ZUJKAS_clean_linker_0, # of connection points: 2
#     Edge 46, Type (0, 0), BuildingBlock: ZUJKAS_clean_linker_0, # of connection points: 2
#     Edge 47, Type (0, 0), BuildingBlock: ZUJKAS_clean_linker_0, # of connection points: 2
#     Edge 48, Type (0, 0), BuildingBlock: ZUJKAS_clean_linker_0, # of connection points: 2
#     Edge 49, Type (0, 0), BuildingBlock: ZUJKAS_clean_linker_0, # of connection points: 2
#     Edge 50, Type (0, 0), BuildingBlock: ZUJKAS_clean_linker_0, # of connection points: 2
#     Edge 51, Type (0, 0), BuildingBlock: ZUJKAS_clean_linker_0, # of connection points: 2
#     Edge 52, Type (0, 0), BuildingBlock: ZUJKAS_clean_linker_0, # of connection points: 2
#     Edge 53, Type (0, 0), BuildingBlock: ZUJKAS_clean_linker_0, # of connection points: 2
#     Edge 54, Type (0, 0), BuildingBlock: ZUJKAS_clean_linker_0, # of connection points: 2
#     Edge 55, Type (0, 0), BuildingBlock: ZUJKAS_clean_linker_0, # of connection points: 2
#     Edge 56, Type (0, 0), BuildingBlock: ZUJKAS_clean_linker_0, # of connection points: 2
#     Edge 57, Type (0, 0), BuildingBlock: ZUJKAS_clean_linker_0, # of connection points: 2
#     Edge 58, Type (0, 0), BuildingBlock: ZUJKAS_clean_linker_0, # of connection points: 2
#     Edge 59, Type (0, 0), BuildingBlock: ZUJKAS_clean_linker_0, # of connection points: 2
#     Edge 60, Type (0, 0), BuildingBlock: ZUJKAS_clean_linker_0, # of connection points: 2
#     Edge 61, Type (0, 0), BuildingBlock: ZUJKAS_clean_linker_0, # of connection points: 2
#     Edge 62, Type (0, 0), BuildingBlock: ZUJKAS_clean_linker_0, # of connection points: 2
#     Edge 63, Type (0, 0), BuildingBlock: ZUJKAS_clean_linker_0, # of connection points: 2
#     Edge 64, Type (0, 0), BuildingBlock: ZUJKAS_clean_linker_0, # of connection points: 2
#     Edge 65, Type (0, 0), BuildingBlock: ZUJKAS_clean_linker_0, # of connection points: 2
#     Edge 66, Type (0, 0), BuildingBlock: ZUJKAS_clean_linker_0, # of connection points: 2
#     Edge 67, Type (0, 0), BuildingBlock: ZUJKAS_clean_linker_0, # of connection points: 2
#     Edge 68, Type (0, 0), BuildingBlock: ZUJKAS_clean_linker_0, # of connection points: 2
#     Edge 69, Type (0, 0), BuildingBlock: ZUJKAS_clean_linker_0, # of connection points: 2
#     Edge 70, Type (0, 0), BuildingBlock: ZUJKAS_clean_linker_0, # of connection points: 2
#     Edge 71, Type (0, 0), BuildingBlock: ZUJKAS_clean_linker_0, # of connection points: 2
# Relax obj value: 0.003
# Max RMSD: 0.009
# Mean RMSD: 0.009
data_MOF--net-rhr--node1-NAWXER_clean_sbu_0--edge1-ZUJKAS_clean_linker_0
_symmetry_space_group_name_H-M    P1
_symmetry_Int_Tables_number       1
_symmetry_cell_setting            triclinic
loop_
_symmetry_equiv_pos_as_xyz
'x, y, z'
_cell_length_a     65.909743
_cell_length_b     65.81352
_cell_length_c     65.906504
_cell_angle_alpha  89.974119
_cell_angle_beta   89.959807
_cell_angle_gamma 89.84033
loop_
_atom_site_label
_atom_site_type_symbol
_atom_site_fract_x
_atom_site_fract_y
_atom_site_fract_z
_atom_type_partial_charge
C0 C 0.3471 0.03329 0.378 0.0
C1 C 0.37963 0.97289 0.34994 0.0
O2 O 0.33833 0.02641 0.36205 0.0
Zn3 Zn 0.34198 1.00228 0.3405 0.0
O4 O 0.36289 0.02443 0.38478 0.0
Zn5 Zn 0.36424 1.00355 0.36417 0.0
O6 O 0.37143 0.02121 0.33791 0.0
O7 O 0.34733 0.01707 0.31517 0.0
O8 O 0.38595 0.98345 0.36477 0.0
O9 O 0.36382 0.97845 0.34011 0.0
O10 O 0.31715 0.98662 0.34445 0.0
O11 O 0.33755 0.98594 0.37101 0.0
C12 C 0.36401 0.02522 0.32039 0.0
C13 C 0.32092 0.98059 0.36243 0.0
C14 C 0.02593 0.36322 0.32162 0.0
C15 C 0.97508 0.33362 0.36656 0.0
O16 O 0.01869 0.34645 0.31494 0.0
Zn17 Zn 0.9977 0.32363 0.32436 0.0
O18 O 0.02058 0.36959 0.33903 0.0
Zn19 Zn 1.00174 0.34795 0.34555 0.0
O20 O 0.02058 0.32212 0.35113 0.0
O21 O 0.01414 0.29903 0.32789 0.0
O22 O 0.98594 0.34909 0.37042 0.0
O23 O 0.97816 0.3233 0.35036 0.0
O24 O 0.97751 0.32571 0.30283 0.0
O25 O 0.9784 0.35242 0.3231 0.0
C26 C 0.02387 0.30446 0.34363 0.0
C27 C 0.97062 0.34309 0.30791 0.0
C28 C 0.65451 0.98684 0.31332 0.0
C29 C 0.69726 0.03531 0.35119 0.0
O30 O 0.64921 0.99687 0.32901 0.0
Zn31 Zn 0.67487 0.01136 0.33246 0.0
O32 O 0.67235 0.98931 0.30593 0.0
Zn33 Zn 0.69928 1.007 0.31151 0.0
O34 O 0.71924 0.98579 0.31621 0.0
O35 O 0.69484 0.98666 0.33921 0.0
O36 O 0.70596 0.02818 0.3353 0.0
O37 O 0.67925 0.02981 0.35532 0.0
O38 O 0.67393 0.03022 0.30604 0.0
O39 O 0.70036 0.02294 0.28677 0.0
C40 C 0.71097 0.97846 0.33203 0.0
C41 C 0.68405 0.03292 0.28964 0.0
C42 C 0.04113 0.67663 0.30449 0.0
C43 C 0.98463 0.71407 0.33611 0.0
O44 O 0.03384 0.66801 0.32034 0.0
Zn45 Zn 0.00974 0.67238 0.34172 0.0
O46 O 0.03304 0.69296 0.29797 0.0
Zn47 Zn 0.01209 0.69535 0.31877 0.0
O48 O 0.02967 0.7001 0.34559 0.0
O49 O 0.02431 0.67488 0.36712 0.0
O50 O 0.99405 0.71898 0.31997 0.0
O51 O 0.98892 0.6972 0.34486 0.0
O52 O 0.99283 0.64892 0.33684 0.0
O53 O 0.99255 0.67064 0.31132 0.0
C54 C 0.03291 0.69162 0.3628 0.0
C55 C 0.9867 0.65385 0.31923 0.0
C56 C 0.31583 0.02688 0.65666 0.0
C57 C 0.35482 0.97121 0.68799 0.0
O58 O 0.33214 0.0187 0.65028 0.0
Zn59 Zn 0.33577 0.9993 0.67233 0.0
O60 O 0.30841 0.02108 0.67371 0.0
Zn61 Zn 0.31536 0.99905 0.69704 0.0
O62 O 0.32002 0.01543 0.72063 0.0
O63 O 0.34433 0.01792 0.69773 0.0
O64 O 0.33955 0.97678 0.69877 0.0
O65 O 0.35808 0.98 0.67112 0.0
O66 O 0.30933 0.9805 0.66873 0.0
O67 O 0.2912 0.98285 0.69682 0.0
C68 C 0.33703 0.02261 0.71517 0.0
C69 C 0.29349 0.97579 0.67904 0.0
C70 C 0.04958 0.34044 0.70471 0.0
C71 C 0.99642 0.30159 0.66957 0.0
O72 O 0.04159 0.34967 0.68955 0.0
Zn73 Zn 0.01807 0.34532 0.6676 0.0
O74 O 0.04278 0.32315 0.71008 0.0
Zn75 Zn 0.02224 0.32092 0.68876 0.0
O76 O 0.04092 0.32005 0.66207 0.0
O77 O 0.0338 0.34655 0.64271 0.0
O78 O 1.006 0.29629 0.68549 0.0
O79 O 0.99956 0.31926 0.66202 0.0
O80 O 0.99902 0.36688 0.67428 0.0
O81 O 1.001 0.34357 0.69822 0.0
C82 C 0.04403 0.33041 0.64587 0.0
C83 C 0.99362 0.36036 0.69162 0.0
C84 C 0.64595 0.0394 0.68549 0.0
C85 C 0.69118 0.99063 0.65068 0.0
O86 O 0.64235 0.03014 0.6689 0.0
Zn87 Zn 0.66765 0.01473 0.66795 0.0
O88 O 0.66264 0.03586 0.69491 0.0
Zn89 Zn 0.68971 0.01741 0.6914 0.0
O90 O 0.71062 0.03796 0.68994 0.0
O91 O 0.68877 0.03905 0.66453 0.0
O92 O 0.69835 0.99691 0.66762 0.0
O93 O 0.67391 0.99703 0.64489 0.0
O94 O 0.66353 0.99476 0.69335 0.0
O95 O 0.68837 1.00025 0.7151 0.0
C96 C 0.70419 0.04636 0.6738 0.0
C97 C 0.67222 0.9909 0.71035 0.0
C98 C 0.96383 0.6678 0.70089 0.0
C99 C 0.02131 0.69921 0.66507 0.0
O100 O 0.97021 0.65768 0.68553 0.0
Zn101 Zn 0.99338 0.65926 0.66275 0.0
O102 O 0.97257 0.68432 0.70576 0.0
Zn103 Zn 0.9925 0.6842 0.68383 0.0
O104 O 0.97356 0.68746 0.65777 0.0
O105 O 0.97709 0.66059 0.63806 0.0
O106 O 0.01195 0.70625 0.68044 0.0
O107 O 0.01577 0.68216 0.65752 0.0
O108 O 0.00975 0.63536 0.66931 0.0
O109 O 0.01098 0.65918 0.69278 0.0
C110 C 0.96886 0.67775 0.6416 0.0
C111 C 0.01626 0.64157 0.68639 0.0
C112 C 0.30776 0.34159 0.04206 0.0
C113 C 0.33596 0.31294 0.97909 0.0
O114 O 0.32402 0.35019 0.03585 0.0
Zn115 Zn 0.34498 0.34857 0.01136 0.0
O116 O 0.30023 0.32701 0.03187 0.0
Zn117 Zn 0.3209 0.32632 0.01048 0.0
O118 O 0.34752 0.31715 0.02627 0.0
O119 O 0.37028 0.34164 0.02528 0.0
O120 O 0.32049 0.30633 0.9886 0.0
O121 O 0.34572 0.32824 0.98605 0.0
O122 O 0.34064 0.37495 0.99835 0.0
O123 O 0.31482 0.35392 0.99479 0.0
C124 C 0.36517 0.32383 0.03083 0.0
C125 C 0.32306 0.37118 0.9913 0.0
C126 C 0.69023 0.36546 0.0224 0.0
C127 C 0.64674 0.32116 0.98142 0.0
O128 O 0.69784 0.34799 0.01846 0.0
Zn129 Zn 0.69057 0.32075 1.00308 0.0
O130 O 0.67246 0.36976 0.01615 0.0
Zn131 Zn 0.66732 0.34403 1.00218 0.0
O132 O 0.66459 0.3228 0.02645 0.0
O133 O 0.68983 0.30077 0.02514 0.0
O134 O 0.64228 0.33905 0.98735 0.0
O135 O 0.66388 0.31334 0.98634 0.0
O136 O 0.71154 0.32053 0.982 0.0
O137 O 0.68882 0.34494 0.97801 0.0
C138 C 0.6737 0.30717 0.03368 0.0
C139 C 0.70476 0.33559 0.97189 0.0
C140 C 0.64254 0.67927 0.03573 0.0
C141 C 0.68683 0.63944 0.99095 0.0
O142 O 0.65878 0.68856 0.03041 0.0
Zn143 Zn 0.68513 0.68344 0.0119 0.0
O144 O 0.63904 0.66156 0.02883 0.0
Zn145 Zn 0.66364 0.65906 0.01275 0.0
O146 O 0.68615 0.65856 0.03608 0.0
O147 O 0.70688 0.68452 0.03197 0.0
O148 O 0.66978 0.63399 0.99816 0.0
O149 O 0.69362 0.65721 0.99491 0.0
O150 O 0.68265 0.70418 0.991 0.0
O151 O 0.65857 0.68103 0.98924 0.0
C152 C 0.70162 0.66877 0.04187 0.0
C153 C 0.66672 0.69738 0.98251 0.0
C154 C 0.30261 0.68092 0.97007 0.0
C155 C 0.33393 0.71607 0.02803 0.0
O156 O 0.31892 0.67262 0.97667 0.0
Zn157 Zn 0.34052 0.6762 1.00039 0.0
O158 O 0.29541 0.69644 0.97912 0.0
Zn159 Zn 0.31668 0.69866 0.99979 0.0
O160 O 0.34293 0.70532 0.98192 0.0
O161 O 0.36529 0.68042 0.98487 0.0
O162 O 0.31748 0.72111 0.01921 0.0
O163 O 0.34319 0.69984 0.02249 0.0
O164 O 0.33644 0.65158 0.01626 0.0
O165 O 0.31058 0.67284 0.01828 0.0
C166 C 0.36026 0.6976 0.97749 0.0
C167 C 0.31894 0.65594 0.02316 0.0
C168 C 0.83816 0.53187 0.81083 0.0
C169 C 0.80803 0.46992 0.83959 0.0
O170 O 0.84736 0.52504 0.82656 0.0
Zn171 Zn 0.84554 0.50006 0.84732 0.0
O172 O 0.82279 0.52245 0.80394 0.0
Zn173 Zn 0.82233 0.5009 0.82426 0.0
O174 O 0.81543 0.51717 0.85138 0.0
O175 O 0.84059 0.51366 0.87322 0.0
O176 O 0.80139 0.47989 0.82441 0.0
O177 O 0.82401 0.47603 0.84877 0.0
O178 O 0.87081 0.48542 0.8417 0.0
O179 O 0.84896 0.48435 0.8164 0.0
C180 C 0.82319 0.52085 0.86881 0.0
C181 C 0.86625 0.47953 0.82387 0.0
C182 C 0.48925 0.8258 0.85721 0.0
C183 C 0.54376 0.868 0.83049 0.0
O184 O 0.4973 0.81863 0.84099 0.0
Zn185 Zn 0.52014 0.82687 0.81934 0.0
O186 O 0.49486 0.84305 0.86383 0.0
Zn187 Zn 0.51532 0.84826 0.84345 0.0
O188 O 0.49795 0.85426 0.81689 0.0
O189 O 0.50498 0.83095 0.794 0.0
O190 O 0.53223 0.87231 0.84536 0.0
O191 O 0.54063 0.8519 0.82004 0.0
O192 O 0.53934 0.8044 0.82273 0.0
O193 O 0.53643 0.8241 0.84974 0.0
C194 C 0.49526 0.84687 0.79912 0.0
C195 C 0.54426 0.80855 0.84097 0.0
C196 C 0.14702 0.52929 0.82091 0.0
C197 C 0.19084 0.49145 0.86799 0.0
O198 O 0.16471 0.52513 0.81396 0.0
Zn199 Zn 0.19194 0.5102 0.82297 0.0
O200 O 0.14239 0.52392 0.83889 0.0
Zn201 Zn 0.16817 0.51069 0.84544 0.0
O202 O 0.18856 0.53574 0.84665 0.0
O203 O 0.21194 0.53208 0.82296 0.0
O204 O 0.17303 0.49797 0.87179 0.0
O205 O 0.19886 0.49499 0.85064 0.0
O206 O 0.19295 0.48817 0.80325 0.0
O207 O 0.1678 0.48519 0.82522 0.0
C208 C 0.20452 0.54221 0.83766 0.0
C209 C 0.17768 0.47838 0.80988 0.0
C210 C 0.46792 0.14758 0.83229 0.0
C211 C 0.52018 0.19177 0.85999 0.0
O212 O 0.47082 0.1637 0.82176 0.0
Zn213 Zn 0.49058 0.18956 0.82145 0.0
O214 O 0.47909 0.14378 0.84757 0.0
Zn215 Zn 0.495 0.1684 0.84568 0.0
O216 O 0.47205 0.19122 0.85069 0.0
O217 O 0.47079 0.21148 0.82398 0.0
O218 O 0.51467 0.17449 0.86657 0.0
O219 O 0.51252 0.19862 0.84347 0.0
O220 O 0.50601 0.18564 0.79636 0.0
O221 O 0.51267 0.16217 0.81922 0.0
C222 C 0.46426 0.20654 0.84149 0.0
C223 C 0.51545 0.16954 0.80144 0.0
C224 C 0.81937 0.48867 0.14697 0.0
C225 C 0.86554 0.52893 0.18896 0.0
O226 O 0.81237 0.49313 0.16455 0.0
Zn227 Zn 0.82117 0.50895 0.19128 0.0
O228 O 0.83722 0.49424 0.14212 0.0
Zn229 Zn 0.84364 0.50808 0.16744 0.0
O230 O 0.84539 0.48366 0.18851 0.0
O231 O 0.82197 0.48776 0.21211 0.0
O232 O 0.86969 0.52147 0.17162 0.0
O233 O 0.84835 0.52527 0.19723 0.0
O234 O 0.80098 0.53069 0.19167 0.0
O235 O 0.82311 0.53332 0.16658 0.0
C236 C 0.83668 0.47756 0.20477 0.0
C237 C 0.80771 0.54026 0.17628 0.0
C238 C 0.52559 0.85761 0.19261 0.0
C239 C 0.46851 0.82571 0.15712 0.0
O240 O 0.51673 0.86369 0.17658 0.0
Zn241 Zn 0.49778 0.84133 0.17397 0.0
O242 O 0.52048 0.84051 0.20045 0.0
Zn243 Zn 0.49845 0.8169 0.19489 0.0
O244 O 0.51462 0.79305 0.18924 0.0
O245 O 0.51627 0.81594 0.16487 0.0
O246 O 0.47485 0.81517 0.17225 0.0
O247 O 0.4774 0.84226 0.15276 0.0
O248 O 0.48013 0.84542 0.20112 0.0
O249 O 0.48312 0.81781 0.21992 0.0
C250 C 0.52125 0.79846 0.17197 0.0
C251 C 0.47598 0.83561 0.21741 0.0
C252 C 0.18954 0.52948 0.14446 0.0
C253 C 0.14771 0.48675 0.18897 0.0
O254 O 0.19737 0.52586 0.16188 0.0
Zn255 Zn 0.19097 0.50919 0.18883 0.0
O256 O 0.17243 0.52182 0.1399 0.0
Zn257 Zn 0.16779 0.50791 0.16569 0.0
O258 O 0.1652 0.53268 0.18656 0.0
O259 O 0.18973 0.53061 0.20931 0.0
O260 O 0.14296 0.49264 0.17119 0.0
O261 O 0.16484 0.49196 0.19649 0.0
O262 O 0.21248 0.48858 0.18856 0.0
O263 O 0.18992 0.48436 0.16424 0.0
C264 C 0.17411 0.53967 0.20236 0.0
C265 C 0.20604 0.47851 0.17339 0.0
C266 C 0.54265 0.19786 0.16532 0.0
C267 C 0.48986 0.15691 0.19917 0.0
O268 O 0.53564 0.18313 0.15476 0.0
Zn269 Zn 0.51432 0.15874 0.157 0.0
O270 O 0.5361 0.20073 0.1833 0.0
Zn271 Zn 0.5165 0.1783 0.18317 0.0
O272 O 0.53688 0.15332 0.18281 0.0
O273 O 0.53233 0.13505 0.15517 0.0
O274 O 0.49908 0.17221 0.20648 0.0
O275 O 0.49424 0.15088 0.18119 0.0
O276 O 0.49593 0.16601 0.13506 0.0
O277 O 0.49594 0.1883 0.1601 0.0
C278 C 0.54182 0.13816 0.17169 0.0
C279 C 0.48961 0.18269 0.14258 0.0
C280 C 0.83875 0.80268 0.52248 0.0
C281 C 0.80391 0.84225 0.47051 0.0
O282 O 0.822 0.79861 0.51387 0.0
Zn283 Zn 0.81982 0.82311 0.4978 0.0
O284 O 0.84738 0.81977 0.51893 0.0
Zn285 Zn 0.84237 0.8461 0.50029 0.0
O286 O 0.8374 0.86862 0.51902 0.0
O287 O 0.81244 0.84647 0.5193 0.0
O288 O 0.81982 0.85099 0.47744 0.0
O289 O 0.7979 0.82566 0.47835 0.0
O290 O 0.84564 0.82006 0.47777 0.0
O291 O 0.86669 0.84548 0.48335 0.0
C292 C 0.8202 0.86309 0.52577 0.0
C293 C 0.86223 0.82936 0.47364 0.0
C294 C 0.16867 0.87323 0.54115 0.0
C295 C 0.13586 0.83411 0.48785 0.0
O296 O 0.17867 0.85739 0.53568 0.0
Zn297 Zn 0.17647 0.83298 0.51437 0.0
O298 O 0.15217 0.87779 0.5322 0.0
Zn299 Zn 0.15217 0.8549 0.51384 0.0
O300 O 0.14848 0.83045 0.53487 0.0
O301 O 0.17443 0.80931 0.53246 0.0
O302 O 0.12941 0.85057 0.49565 0.0
O303 O 0.15291 0.82669 0.49352 0.0
O304 O 0.19988 0.83733 0.49667 0.0
O305 O 0.17718 0.86189 0.49423 0.0
C306 C 0.15759 0.81422 0.54062 0.0
C307 C 0.19431 0.85421 0.48901 0.0
C308 C 0.17915 0.21814 0.52073 0.0
C309 C 0.22077 0.17856 0.4742 0.0
O310 O 0.19614 0.22289 0.51299 0.0
Zn311 Zn 0.20006 0.19843 0.49736 0.0
O312 O 0.17135 0.20076 0.51672 0.0
Zn313 Zn 0.17859 0.17458 0.49859 0.0
O314 O 0.18159 0.15288 0.51845 0.0
O315 O 0.2062 0.17541 0.51996 0.0
O316 O 0.20453 0.16924 0.47949 0.0
O317 O 0.22406 0.19641 0.48076 0.0
O318 O 0.17585 0.20055 0.47536 0.0
O319 O 0.15598 0.17402 0.47963 0.0
C320 C 0.19818 0.15881 0.52627 0.0
C321 C 0.16002 0.19044 0.47029 0.0
C322 C 0.86713 0.18709 0.53755 0.0
C323 C 0.8235 0.15413 0.48635 0.0
O324 O 0.87066 0.17037 0.52845 0.0
Zn325 Zn 0.84619 0.17039 0.51174 0.0
O326 O 0.85095 0.1971 0.53327 0.0
Zn327 Zn 0.82482 0.19463 0.51358 0.0
O328 O 0.80292 0.19385 0.53303 0.0
O329 O 0.82342 0.1673 0.53465 0.0
O330 O 0.81651 0.17127 0.49247 0.0
O331 O 0.84027 0.14772 0.49346 0.0
O332 O 0.85215 0.19586 0.49225 0.0
O333 O 0.8277 0.21841 0.49679 0.0
C334 C 0.80799 0.17715 0.54131 0.0
C335 C 0.84417 0.2132 0.48818 0.0
H336 H 0.26022 0.1897 0.46673 0.0
H337 H 0.28677 0.16886 0.45087 0.0
H338 H 0.24295 0.12179 0.4391 0.0
H339 H 0.2165 0.14226 0.45499 0.0
H340 H 0.27846 0.10881 0.46012 0.0
H341 H 0.29618 0.15323 0.39038 0.0
H342 H 0.29613 0.16664 0.41418 0.0
H343 H 0.27283 0.15669 0.40433 0.0
C344 C 0.25618 0.17507 0.46043 0.0
C345 C 0.23627 0.16759 0.46218 0.0
C346 C 0.27136 0.1632 0.45138 0.0
C347 C 0.26678 0.14381 0.44385 0.0
C348 C 0.24679 0.13669 0.44491 0.0
H349 H 0.31442 0.05557 0.36604 0.0
H350 H 0.29863 0.08409 0.38342 0.0
C351 C 0.23168 0.14845 0.45396 0.0
C352 C 0.28279 0.13023 0.43583 0.0
H353 H 0.31361 0.12233 0.39497 0.0
C354 C 0.2864 0.11184 0.44602 0.0
C355 C 0.29303 0.13433 0.41746 0.0
C356 C 0.28936 0.15372 0.40579 0.0
C357 C 0.2993 0.09698 0.43785 0.0
C358 C 0.3091 0.1008 0.41915 0.0
C359 C 0.30617 0.11956 0.40938 0.0
C360 C 0.32013 0.08453 0.4082 0.0
C361 C 0.30138 0.07687 0.44868 0.0
C362 C 0.33769 0.07548 0.41625 0.0
C363 C 0.34677 0.05894 0.40636 0.0
C364 C 0.33842 0.05132 0.38827 0.0
C365 C 0.32121 0.06092 0.38001 0.0
C366 C 0.31219 0.07733 0.38987 0.0
H367 H 0.29022 0.07522 0.46121 0.0
H368 H 0.29932 0.06407 0.43791 0.0
H369 H 0.31684 0.07561 0.45524 0.0
H370 H 0.34418 0.08101 0.43028 0.0
H371 H 0.3601 0.05198 0.41302 0.0
H372 H 0.93776 0.3218 0.35514 0.0
H373 H 0.91156 0.30632 0.3762 0.0
H374 H 0.94937 0.31417 0.42908 0.0
H375 H 0.97525 0.33075 0.40801 0.0
H376 H 0.91634 0.27198 0.39412 0.0
H377 H 0.89536 0.32833 0.4528 0.0
H378 H 0.90973 0.3351 0.43049 0.0
H379 H 0.9222 0.32389 0.45208 0.0
C380 C 0.94022 0.32069 0.37137 0.0
C381 C 0.95845 0.32737 0.38003 0.0
C382 C 0.92526 0.31184 0.38338 0.0
C383 C 0.9284 0.30911 0.40427 0.0
C384 C 0.94634 0.31653 0.41311 0.0
H385 H 0.88217 0.20877 0.47261 0.0
H386 H 0.90115 0.23284 0.45204 0.0
C387 C 0.96118 0.32588 0.40109 0.0
C388 C 0.91408 0.29626 0.416 0.0
H389 H 0.88625 0.29359 0.45965 0.0
C390 C 0.90957 0.27688 0.40832 0.0
C391 C 0.90504 0.30264 0.43441 0.0
C392 C 0.90816 0.32371 0.44282 0.0
C393 C 0.89673 0.26355 0.41872 0.0
C394 C 0.88869 0.26943 0.43772 0.0
C395 C 0.89263 0.28902 0.44517 0.0
C396 C 0.87695 0.25507 0.45041 0.0
C397 C 0.89185 0.2433 0.40914 0.0
C398 C 0.85717 0.2598 0.45682 0.0
C399 C 0.84627 0.24609 0.46884 0.0
C400 C 0.85501 0.22744 0.47463 0.0
C401 C 0.87485 0.22285 0.4682 0.0
C402 C 0.88574 0.23658 0.45638 0.0
H403 H 0.89344 0.24391 0.39236 0.0
H404 H 0.90264 0.23167 0.41487 0.0
H405 H 0.87619 0.23837 0.41288 0.0
H406 H 0.85016 0.27405 0.45246 0.0
H407 H 0.83107 0.25013 0.47367 0.0
H408 H 0.76417 0.83728 0.45901 0.0
H409 H 0.74624 0.85571 0.43187 0.0
H410 H 0.80165 0.88659 0.41608 0.0
H411 H 0.81949 0.86863 0.4431 0.0
H412 H 0.74747 0.9022 0.43113 0.0
H413 H 0.77574 0.86516 0.36073 0.0
H414 H 0.77464 0.85212 0.38487 0.0
H415 H 0.79426 0.87035 0.38009 0.0
C416 C 0.77253 0.84779 0.44954 0.0
C417 C 0.79315 0.85166 0.45325 0.0
C418 C 0.76232 0.85825 0.43408 0.0
C419 C 0.77274 0.87228 0.42191 0.0
C420 C 0.79345 0.8756 0.42516 0.0
H421 H 0.75057 0.96549 0.33287 0.0
H422 H 0.76468 0.93804 0.35391 0.0
C423 C 0.80355 0.86545 0.44072 0.0
C424 C 0.76181 0.88521 0.40723 0.0
H425 H 0.75874 0.89684 0.35685 0.0
C426 C 0.74961 0.90089 0.41486 0.0
C427 C 0.76508 0.88358 0.38611 0.0
C428 C 0.77804 0.86683 0.37734 0.0
C429 C 0.74107 0.9155 0.40194 0.0
C430 C 0.7443 0.91393 0.38073 0.0
C431 C 0.75624 0.89798 0.37308 0.0
C432 C 0.73567 0.92901 0.36642 0.0
C433 C 0.72947 0.93298 0.41128 0.0
C434 C 0.71469 0.93249 0.36595 0.0
C435 C 0.70673 0.94828 0.35431 0.0
C436 C 0.71953 0.96059 0.34252 0.0
C437 C 0.7404 0.95626 0.3419 0.0
C438 C 0.74844 0.94061 0.35387 0.0
H439 H 0.73335 0.93505 0.42755 0.0
H440 H 0.73259 0.94743 0.40316 0.0
H441 H 0.71297 0.92985 0.41033 0.0
H442 H 0.70451 0.92332 0.37501 0.0
H443 H 0.69052 0.95103 0.35477 0.0
H444 H 0.14937 0.80662 0.46047 0.0
H445 H 0.12926 0.78252 0.44101 0.0
H446 H 0.07424 0.8094 0.4644 0.0
H447 H 0.09442 0.83401 0.48377 0.0
H448 H 0.10315 0.75442 0.45832 0.0
H449 H 0.06304 0.8047 0.40339 0.0
H450 H 0.08486 0.81306 0.41763 0.0
H451 H 0.06052 0.81129 0.42974 0.0
C452 C 0.13297 0.80768 0.4612 0.0
C453 C 0.12343 0.82217 0.47363 0.0
C454 C 0.12152 0.79383 0.45015 0.0
C455 C 0.1003 0.79413 0.45133 0.0
C456 C 0.09062 0.80908 0.46311 0.0
H457 H 0.02986 0.69047 0.40427 0.0
H458 H 0.04544 0.71445 0.42817 0.0
C459 C 0.10213 0.82314 0.47411 0.0
C460 C 0.08868 0.77806 0.44088 0.0
H461 H 0.05609 0.7697 0.40166 0.0
C462 C 0.09272 0.75772 0.44602 0.0
C463 C 0.07513 0.78249 0.42489 0.0
C464 C 0.07067 0.80404 0.41841 0.0
C465 C 0.08413 0.74163 0.43507 0.0
C466 C 0.07091 0.74607 0.41881 0.0
C467 C 0.06627 0.7664 0.41417 0.0
C468 C 0.06302 0.73006 0.40523 0.0
C469 C 0.08998 0.72009 0.44037 0.0
C470 C 0.06805 0.73071 0.38458 0.0
C471 C 0.05915 0.71723 0.37101 0.0
C472 C 0.04508 0.70277 0.37783 0.0
C473 C 0.04086 0.70133 0.39868 0.0
C474 C 0.04968 0.71503 0.41231 0.0
H475 H 0.10328 0.71948 0.45071 0.0
H476 H 0.07704 0.71257 0.44805 0.0
H477 H 0.09359 0.71128 0.42645 0.0
H478 H 0.07843 0.7421 0.37885 0.0
H479 H 0.06273 0.71863 0.35502 0.0
H480 H 0.15228 0.90796 0.55794 0.0
H481 H 0.16617 0.92785 0.58628 0.0
H482 H 0.2164 0.88596 0.59088 0.0
H483 H 0.20277 0.8661 0.56308 0.0
H484 H 0.19837 0.8967 0.6288 0.0
H485 H 0.21779 0.96353 0.58049 0.0
H486 H 0.19199 0.95463 0.58043 0.0
H487 H 0.21165 0.93916 0.5696 0.0
C488 C 0.16626 0.90302 0.56505 0.0
C489 C 0.17649 0.88554 0.55816 0.0
C490 C 0.17415 0.91437 0.5812 0.0
C491 C 0.19232 0.90835 0.59057 0.0
C492 C 0.2023 0.89078 0.5839 0.0
H493 H 0.29546 0.95553 0.64315 0.0
H494 H 0.26753 0.94017 0.6245 0.0
C495 C 0.19451 0.87951 0.56789 0.0
C496 C 0.20191 0.92054 0.60671 0.0
H497 H 0.23141 0.96248 0.61323 0.0
C498 C 0.20522 0.91133 0.62566 0.0
C499 C 0.21086 0.93953 0.60239 0.0
C500 C 0.20806 0.94987 0.58213 0.0
C501 C 0.21836 0.92002 0.63994 0.0
C502 C 0.22819 0.93843 0.63512 0.0
C503 C 0.22381 0.94831 0.61676 0.0
C504 C 0.24499 0.94639 0.64756 0.0
C505 C 0.22275 0.90882 0.65943 0.0
C506 C 0.24157 0.95452 0.66693 0.0
C507 C 0.2576 0.96323 0.67776 0.0
C508 C 0.27717 0.96404 0.66923 0.0
C509 C 0.28057 0.95522 0.65012 0.0
C510 C 0.26462 0.9465 0.6394 0.0
H511 H 0.21548 0.89361 0.65986 0.0
H512 H 0.23937 0.90689 0.66143 0.0
H513 H 0.21701 0.91784 0.67245 0.0
H514 H 0.22646 0.95468 0.67338 0.0
H515 H 0.25449 0.97003 0.6924 0.0
H516 H 0.05493 0.34705 0.60901 0.0
H517 H 0.0805 0.33393 0.58514 0.0
H518 H 0.09349 0.28443 0.62606 0.0
H519 H 0.06847 0.29736 0.64986 0.0
H520 H 0.12836 0.30315 0.61017 0.0
H521 H 0.07258 0.28238 0.5502 0.0
H522 H 0.07253 0.3083 0.55886 0.0
H523 H 0.06488 0.28837 0.57579 0.0
C524 C 0.06329 0.3334 0.61289 0.0
C525 C 0.05955 0.3232 0.63128 0.0
C526 C 0.07783 0.32591 0.59924 0.0
C527 C 0.08876 0.30812 0.6038 0.0
C528 C 0.08526 0.29819 0.62227 0.0
H529 H 0.14386 0.21152 0.5412 0.0
H530 H 0.12356 0.23609 0.56008 0.0
C531 C 0.07084 0.3056 0.63583 0.0
C532 C 0.10351 0.29915 0.58939 0.0
H533 H 0.10632 0.27215 0.54529 0.0
C534 C 0.12369 0.29665 0.5958 0.0
C535 C 0.09724 0.29059 0.57077 0.0
C536 C 0.07562 0.29236 0.56344 0.0
C537 C 0.13755 0.285 0.58452 0.0
C538 C 0.13109 0.2759 0.56621 0.0
C539 C 0.11119 0.27919 0.55934 0.0
C540 C 0.14401 0.26125 0.55502 0.0
C541 C 0.1586 0.28156 0.59285 0.0
C542 C 0.16236 0.26722 0.54602 0.0
C543 C 0.17414 0.25312 0.53529 0.0
C544 C 0.16765 0.23286 0.53327 0.0
C545 C 0.14933 0.22697 0.54246 0.0
C546 C 0.13765 0.24102 0.55319 0.0
H547 H 0.15998 0.28666 0.60886 0.0
H548 H 0.16278 0.26523 0.592 0.0
H549 H 0.16969 0.29022 0.58361 0.0
H550 H 0.1674 0.28284 0.54703 0.0
H551 H 0.18809 0.25818 0.52825 0.0
H552 H 0.82019 0.14753 0.56728 0.0
H553 H 0.80054 0.1315 0.59421 0.0
H554 H 0.75019 0.17148 0.58157 0.0
H555 H 0.76988 0.18785 0.55445 0.0
H556 H 0.77688 0.15088 0.63026 0.0
H557 H 0.73238 0.10915 0.57165 0.0
H558 H 0.757 0.11977 0.56613 0.0
H559 H 0.73547 0.13621 0.56903 0.0
C560 C 0.805 0.15308 0.57029 0.0
C561 C 0.79646 0.16879 0.55858 0.0
C562 C 0.79389 0.144 0.58579 0.0
C563 C 0.774 0.15034 0.58976 0.0
C564 C 0.76559 0.16648 0.57865 0.0
H565 H 0.68585 0.07659 0.65299 0.0
H566 H 0.70182 0.1051 0.63564 0.0
C567 C 0.7768 0.17575 0.56319 0.0
C568 C 0.76163 0.13856 0.60416 0.0
H569 H 0.72705 0.10028 0.60555 0.0
C570 C 0.76573 0.14 0.62499 0.0
C571 C 0.74726 0.12439 0.59709 0.0
C572 C 0.74271 0.12209 0.57477 0.0
C573 C 0.75585 0.12737 0.63904 0.0
C574 C 0.74201 0.11263 0.63188 0.0
C575 C 0.73763 0.11161 0.61104 0.0
C576 C 0.73228 0.0975 0.64536 0.0
C577 C 0.76031 0.12999 0.66132 0.0
C578 C 0.74404 0.08402 0.65705 0.0
C579 C 0.73485 0.06783 0.6673 0.0
C580 C 0.71388 0.06467 0.6655 0.0
C581 C 0.7021 0.07858 0.65441 0.0
C582 C 0.71119 0.0949 0.64455 0.0
H583 H 0.76554 0.14566 0.66471 0.0
H584 H 0.74674 0.12668 0.67075 0.0
H585 H 0.77262 0.11935 0.66577 0.0
H586 H 0.7604 0.0854 0.65749 0.0
H587 H 0.74423 0.05722 0.67569 0.0
H588 H 0.9465 0.71191 0.6479 0.0
H589 H 0.92158 0.72745 0.6256 0.0
H590 H 0.93116 0.68001 0.58151 0.0
H591 H 0.95653 0.66415 0.60394 0.0
H592 H 0.93192 0.71988 0.5653 0.0
H593 H 0.86373 0.7086 0.61287 0.0
H594 H 0.88432 0.71953 0.62688 0.0
H595 H 0.88688 0.69431 0.6166 0.0
C596 C 0.94333 0.70461 0.63352 0.0
C597 C 0.95354 0.68672 0.62773 0.0
C598 C 0.9289 0.71348 0.62085 0.0
C599 C 0.92421 0.70468 0.60209 0.0
C600 C 0.93442 0.6869 0.59607 0.0
H601 H 0.82726 0.76331 0.53039 0.0
H602 H 0.84699 0.73712 0.54817 0.0
C603 C 0.94889 0.67788 0.60887 0.0
C604 C 0.90948 0.71502 0.58855 0.0
H605 H 0.8619 0.73573 0.58825 0.0
C606 C 0.91648 0.72302 0.57011 0.0
C607 C 0.88926 0.71889 0.59469 0.0
C608 C 0.88052 0.7097 0.61375 0.0
C609 C 0.90421 0.73589 0.55832 0.0
C610 C 0.88456 0.74109 0.56533 0.0
C611 C 0.87708 0.732 0.58306 0.0
C612 C 0.87215 0.75695 0.55517 0.0
C613 C 0.91255 0.74415 0.53866 0.0
C614 C 0.87945 0.7769 0.55384 0.0
C615 C 0.86824 0.79186 0.54383 0.0
C616 C 0.84938 0.78723 0.535 0.0
C617 C 0.84172 0.76739 0.53701 0.0
C618 C 0.853 0.75238 0.54709 0.0
H619 H 0.92473 0.73421 0.53248 0.0
H620 H 0.90042 0.74574 0.52707 0.0
H621 H 0.91918 0.75938 0.54143 0.0
H622 H 0.89396 0.78087 0.56044 0.0
H623 H 0.87457 0.80699 0.5427 0.0
H624 H 0.35807 0.28495 0.0427 0.0
H625 H 0.3803 0.26219 0.06139 0.0
H626 H 0.42626 0.30861 0.06372 0.0
H627 H 0.40397 0.33176 0.04456 0.0
H628 H 0.44102 0.26893 0.05329 0.0
H629 H 0.39275 0.26709 0.12214 0.0
H630 H 0.37912 0.26132 0.0993 0.0
H631 H 0.38989 0.28618 0.10266 0.0
C632 C 0.37287 0.29049 0.04718 0.0
C633 C 0.37915 0.31032 0.04225 0.0
C634 C 0.38555 0.2774 0.05795 0.0
C635 C 0.40477 0.28381 0.06425 0.0
C636 C 0.41138 0.30344 0.05909 0.0
H637 H 0.47547 0.21971 0.1545 0.0
H638 H 0.45581 0.24411 0.13492 0.0
C639 C 0.39863 0.31665 0.04821 0.0
C640 C 0.41775 0.26978 0.07619 0.0
H641 H 0.41825 0.24148 0.1196 0.0
C642 C 0.43618 0.26303 0.06787 0.0
C643 C 0.41144 0.26224 0.09528 0.0
C644 C 0.39232 0.26971 0.10549 0.0
C645 C 0.44826 0.24855 0.07795 0.0
C646 C 0.4415 0.24038 0.09665 0.0
C647 C 0.42328 0.24751 0.10514 0.0
C648 C 0.45348 0.22514 0.10823 0.0
C649 C 0.46826 0.24238 0.06864 0.0
C650 C 0.45845 0.20609 0.0999 0.0
C651 C 0.46984 0.19199 0.11111 0.0
C652 C 0.47628 0.19664 0.13091 0.0
C653 C 0.4708 0.21554 0.13931 0.0
C654 C 0.45955 0.22959 0.12811 0.0
H655 H 0.47358 0.25368 0.05731 0.0
H656 H 0.48013 0.24055 0.08046 0.0
H657 H 0.46642 0.2276 0.06077 0.0
H658 H 0.45349 0.20213 0.08475 0.0
H659 H 0.47376 0.17757 0.10421 0.0
H660 H 0.78035 0.47691 0.15319 0.0
H661 H 0.75833 0.45805 0.13043 0.0
H662 H 0.80587 0.45595 0.08553 0.0
H663 H 0.82827 0.47518 0.10832 0.0
H664 H 0.76489 0.46602 0.07042 0.0
H665 H 0.76702 0.39674 0.11855 0.0
H666 H 0.7605 0.41967 0.13185 0.0
H667 H 0.78535 0.41692 0.12095 0.0
C668 C 0.78626 0.47249 0.13849 0.0
C669 C 0.80621 0.4774 0.13267 0.0
C670 C 0.77358 0.46169 0.12551 0.0
C671 C 0.78055 0.45542 0.10644 0.0
C672 C 0.80026 0.46064 0.10026 0.0
H673 H 0.72958 0.3609 0.03359 0.0
H674 H 0.75066 0.38412 0.05281 0.0
C675 C 0.81305 0.47153 0.11331 0.0
C676 C 0.76728 0.44288 0.0934 0.0
H677 H 0.743 0.39721 0.09187 0.0
C678 C 0.76013 0.45093 0.07501 0.0
C679 C 0.76119 0.42321 0.09946 0.0
C680 C 0.76902 0.41349 0.11869 0.0
C681 C 0.74685 0.43982 0.06256 0.0
C682 C 0.74046 0.42031 0.06886 0.0
C683 C 0.74774 0.41227 0.08719 0.0
C684 C 0.72746 0.40717 0.05608 0.0
C685 C 0.74007 0.44881 0.04263 0.0
C686 C 0.7073 0.41245 0.05144 0.0
C687 C 0.69503 0.39909 0.0403 0.0
C688 C 0.70275 0.38023 0.03382 0.0
C689 C 0.72301 0.37521 0.03841 0.0
C690 C 0.73517 0.3885 0.04939 0.0
H691 H 0.7494 0.46213 0.03821 0.0
H692 H 0.7409 0.43728 0.03036 0.0
H693 H 0.72405 0.45386 0.04397 0.0
H694 H 0.70096 0.42668 0.05675 0.0
H695 H 0.6795 0.40338 0.03703 0.0
H696 H 0.60635 0.66495 0.05108 0.0
H697 H 0.58406 0.68184 0.07581 0.0
H698 H 0.62485 0.73288 0.07793 0.0
H699 H 0.64712 0.71627 0.05354 0.0
H700 H 0.61261 0.7182 0.11662 0.0
H701 H 0.54739 0.73217 0.06474 0.0
H702 H 0.55667 0.70649 0.06638 0.0
H703 H 0.5724 0.72584 0.05547 0.0
C704 C 0.61051 0.6798 0.05677 0.0
C705 C 0.6285 0.68926 0.05026 0.0
C706 C 0.59774 0.68944 0.07085 0.0
C707 C 0.60277 0.70866 0.07859 0.0
C708 C 0.6207 0.71805 0.07215 0.0
H709 H 0.53773 0.8057 0.13464 0.0
H710 H 0.55694 0.78223 0.1133 0.0
C711 C 0.63339 0.70851 0.05813 0.0
C712 C 0.58959 0.71925 0.09348 0.0
H713 H 0.54438 0.74426 0.0982 0.0
C714 C 0.59758 0.72372 0.11271 0.0
C715 C 0.57011 0.72657 0.08822 0.0
C716 C 0.56108 0.7227 0.06755 0.0
C717 C 0.5868 0.73573 0.12668 0.0
C718 C 0.56741 0.74325 0.12133 0.0
C719 C 0.55923 0.73839 0.10227 0.0
C720 C 0.55595 0.75732 0.1347 0.0
C721 C 0.59659 0.74097 0.14669 0.0
C722 C 0.54903 0.75112 0.15388 0.0
C723 C 0.53808 0.76457 0.16622 0.0
C724 C 0.53377 0.78443 0.15953 0.0
C725 C 0.5408 0.79056 0.14032 0.0
C726 C 0.55173 0.77713 0.12805 0.0
H727 H 0.61308 0.7374 0.14677 0.0
H728 H 0.59454 0.75734 0.15021 0.0
H729 H 0.58928 0.73206 0.15896 0.0
H730 H 0.55188 0.7358 0.15919 0.0
H731 H 0.53277 0.75931 0.18085 0.0
H732 H 0.21771 0.55778 0.15386 0.0
H733 H 0.23909 0.57722 0.13088 0.0
H734 H 0.20987 0.54908 0.07954 0.0
H735 H 0.18776 0.52993 0.1027 0.0
H736 H 0.2665 0.56342 0.10478 0.0
H737 H 0.20815 0.60794 0.0631 0.0
H738 H 0.20233 0.59376 0.08577 0.0
H739 H 0.20491 0.5809 0.06184 0.0
C740 C 0.21564 0.55586 0.13767 0.0
C741 C 0.20103 0.54233 0.13007 0.0
C742 C 0.22793 0.56696 0.12454 0.0
C743 C 0.22609 0.56471 0.10346 0.0
C744 C 0.21134 0.55138 0.09574 0.0
H745 H 0.3236 0.61452 0.02591 0.0
H746 H 0.30159 0.59064 0.0441 0.0
C747 C 0.19874 0.54041 0.10896 0.0
C748 C 0.2402 0.57602 0.08995 0.0
H749 H 0.24214 0.61204 0.05271 0.0
C750 C 0.26117 0.57401 0.09332 0.0
C751 C 0.23325 0.58989 0.07508 0.0
C752 C 0.21094 0.59344 0.07129 0.0
C753 C 0.27534 0.58591 0.08276 0.0
C754 C 0.2684 0.5998 0.0679 0.0
C755 C 0.24746 0.60135 0.06407 0.0
C756 C 0.28233 0.61395 0.05717 0.0
C757 C 0.29749 0.58413 0.08832 0.0
C758 C 0.27875 0.63494 0.05823 0.0
C759 C 0.29106 0.64851 0.04764 0.0
C760 C 0.30738 0.64143 0.03583 0.0
C761 C 0.31131 0.62044 0.0351 0.0
C762 C 0.29875 0.60679 0.04552 0.0
H763 H 0.29961 0.57683 0.10338 0.0
H764 H 0.30537 0.57463 0.07685 0.0
H765 H 0.30485 0.59928 0.08862 0.0
H766 H 0.26626 0.64087 0.06717 0.0
H767 H 0.28764 0.6646 0.04855 0.0
H768 H 0.399 0.68767 0.96493 0.0
H769 H 0.42169 0.7084 0.9438 0.0
H770 H 0.37561 0.75487 0.93971 0.0
H771 H 0.35293 0.73439 0.96027 0.0
H772 H 0.39283 0.74605 0.90287 0.0
H773 H 0.45169 0.76005 0.9616 0.0
H774 H 0.44611 0.7338 0.95668 0.0
H775 H 0.42701 0.74991 0.96767 0.0
C776 C 0.39373 0.70229 0.95947 0.0
C777 C 0.37417 0.70937 0.96434 0.0
C778 C 0.40674 0.71416 0.94754 0.0
C779 C 0.4004 0.73329 0.94043 0.0
C780 C 0.38083 0.74019 0.94507 0.0
H781 H 0.4704 0.83449 0.89341 0.0
H782 H 0.44838 0.81199 0.91327 0.0
C783 C 0.36788 0.72841 0.95688 0.0
C784 C 0.4138 0.74628 0.92791 0.0
H785 H 0.45773 0.77365 0.92895 0.0
C786 C 0.40707 0.75203 0.90853 0.0
C787 C 0.43218 0.75432 0.93549 0.0
C788 C 0.43967 0.74939 0.95656 0.0
C789 C 0.41818 0.76562 0.89651 0.0
C790 C 0.43675 0.77337 0.90392 0.0
C791 C 0.44351 0.76764 0.9233 0.0
C792 C 0.44949 0.78725 0.89167 0.0
C793 C 0.40967 0.77196 0.87621 0.0
C794 C 0.45735 0.78078 0.87299 0.0
C795 C 0.46974 0.79359 0.86159 0.0
C796 C 0.47473 0.81311 0.86873 0.0
C797 C 0.46675 0.81961 0.88743 0.0
C798 C 0.45427 0.80675 0.89883 0.0
H799 H 0.39305 0.76928 0.87531 0.0
H800 H 0.41264 0.78827 0.87316 0.0
H801 H 0.41704 0.76288 0.86407 0.0
H802 H 0.45418 0.76566 0.86737 0.0
H803 H 0.47574 0.78799 0.84734 0.0
H804 H 0.29369 0.36345 0.96379 0.0
H805 H 0.27193 0.3876 0.94618 0.0
H806 H 0.30329 0.43732 0.97494 0.0
H807 H 0.32576 0.41296 0.99227 0.0
H808 H 0.24564 0.41399 0.9624 0.0
H809 H 0.30289 0.45562 0.9165 0.0
H810 H 0.3088 0.43226 0.92956 0.0
H811 H 0.30717 0.45573 0.9434 0.0
C812 C 0.29615 0.37953 0.96622 0.0
C813 C 0.31146 0.38632 0.9794 0.0
C814 C 0.28363 0.39334 0.95619 0.0
C815 C 0.28594 0.4143 0.95917 0.0
C816 C 0.30142 0.42123 0.97212 0.0
H817 H 0.187 0.49169 0.90963 0.0
H818 H 0.20967 0.47517 0.9343 0.0
C819 C 0.31424 0.40733 0.98202 0.0
C820 C 0.27163 0.42847 0.94891 0.0
H821 H 0.26885 0.46575 0.91299 0.0
C822 C 0.2507 0.42544 0.9517 0.0
C823 C 0.27826 0.44338 0.93496 0.0
C824 C 0.30048 0.4469 0.93074 0.0
C825 C 0.23625 0.43618 0.94025 0.0
C826 C 0.24288 0.45082 0.92601 0.0
C827 C 0.26378 0.45453 0.92393 0.0
C828 C 0.22871 0.46087 0.91158 0.0
C829 C 0.21411 0.4309 0.94271 0.0
C830 C 0.23196 0.45853 0.89068 0.0
C831 C 0.21931 0.46812 0.8767 0.0
C832 C 0.20294 0.4802 0.88324 0.0
C833 C 0.19935 0.48228 0.90417 0.0
C834 C 0.21228 0.47283 0.91825 0.0
H835 H 0.212 0.41628 0.95088 0.0
H836 H 0.20645 0.44299 0.95162 0.0
H837 H 0.2065 0.42982 0.92773 0.0
H838 H 0.24442 0.44929 0.88514 0.0
H839 H 0.22245 0.46612 0.86069 0.0
H840 H 0.53459 0.22918 0.84966 0.0
H841 H 0.55548 0.25186 0.87005 0.0
H842 H 0.55826 0.20688 0.91757 0.0
H843 H 0.53704 0.18405 0.89732 0.0
H844 H 0.54836 0.24651 0.93124 0.0
H845 H 0.61641 0.24671 0.88151 0.0
H846 H 0.59311 0.25287 0.86876 0.0
H847 H 0.59664 0.22791 0.87929 0.0
C848 C 0.53977 0.22397 0.86436 0.0
C849 C 0.5342 0.20473 0.87182 0.0
C850 C 0.55177 0.23697 0.87597 0.0
C851 C 0.55857 0.23097 0.89522 0.0
C852 C 0.55318 0.21175 0.9027 0.0
H853 H 0.65248 0.28254 0.96803 0.0
H854 H 0.62995 0.26195 0.94743 0.0
C855 C 0.54115 0.19869 0.89108 0.0
C856 C 0.57094 0.24499 0.90767 0.0
H857 H 0.61598 0.27041 0.90854 0.0
C858 C 0.56316 0.25175 0.92633 0.0
C859 C 0.59025 0.25171 0.9012 0.0
C860 C 0.59972 0.24432 0.88169 0.0
C861 C 0.57421 0.26509 0.93873 0.0
C862 C 0.59341 0.272 0.93212 0.0
C863 C 0.60115 0.26526 0.91345 0.0
C864 C 0.60652 0.28489 0.94503 0.0
C865 C 0.56555 0.27124 0.95901 0.0
C866 C 0.60083 0.30474 0.95053 0.0
C867 C 0.61377 0.31669 0.96245 0.0
C868 C 0.63259 0.30895 0.96894 0.0
C869 C 0.63813 0.28906 0.96332 0.0
C870 C 0.62527 0.27721 0.9515 0.0
H871 H 0.55253 0.26154 0.96352 0.0
H872 H 0.57734 0.27036 0.97101 0.0
H873 H 0.56016 0.28721 0.95816 0.0
H874 H 0.58653 0.31105 0.94541 0.0
H875 H 0.6091 0.33196 0.96646 0.0
H876 H 0.7177 0.64958 0.96565 0.0
H877 H 0.74061 0.62699 0.94736 0.0
H878 H 0.70874 0.57499 0.97114 0.0
H879 H 0.68518 0.59771 0.98907 0.0
H880 H 0.76666 0.59955 0.96192 0.0
H881 H 0.71098 0.56117 0.91176 0.0
H882 H 0.70456 0.5834 0.92641 0.0
H883 H 0.70564 0.55885 0.93836 0.0
C884 C 0.71538 0.63334 0.96684 0.0
C885 C 0.69955 0.62543 0.97874 0.0
C886 C 0.72857 0.62042 0.95642 0.0
C887 C 0.72638 0.59927 0.95773 0.0
C888 C 0.71051 0.59126 0.96954 0.0
H889 H 0.82544 0.52096 0.91056 0.0
H890 H 0.80252 0.53864 0.93417 0.0
C891 C 0.69707 0.60424 0.97981 0.0
C892 C 0.74108 0.5859 0.94693 0.0
H893 H 0.74491 0.54999 0.90975 0.0
C894 C 0.76191 0.58864 0.95056 0.0
C895 C 0.73488 0.57172 0.93206 0.0
C896 C 0.71282 0.56868 0.92673 0.0
C897 C 0.77671 0.5781 0.93933 0.0
C898 C 0.77051 0.56399 0.9244 0.0
C899 C 0.74966 0.56076 0.92124 0.0
C900 C 0.78516 0.55369 0.91061 0.0
C901 C 0.7988 0.5829 0.94291 0.0
C902 C 0.78299 0.55612 0.88958 0.0
C903 C 0.79578 0.54587 0.87619 0.0
C904 C 0.81121 0.53301 0.88346 0.0
C905 C 0.81383 0.53095 0.90453 0.0
C906 C 0.80076 0.54107 0.91802 0.0
H907 H 0.80076 0.59741 0.9513 0.0
H908 H 0.80574 0.57058 0.95209 0.0
H909 H 0.80719 0.58394 0.92834 0.0
H910 H 0.77118 0.56585 0.88348 0.0
H911 H 0.79342 0.54787 0.86004 0.0
H912 H 0.03978 0.35329 0.28389 0.0
H913 H 0.05965 0.37417 0.26073 0.0
H914 H 0.06207 0.42189 0.30545 0.0
H915 H 0.04184 0.40113 0.32881 0.0
H916 H 0.05144 0.43542 0.26602 0.0
H917 H 0.12032 0.3867 0.26457 0.0
H918 H 0.09721 0.3735 0.25885 0.0
H919 H 0.10087 0.38414 0.28369 0.0
C920 C 0.04466 0.36815 0.28895 0.0
C921 C 0.03929 0.37549 0.3083 0.0
C922 C 0.05608 0.38005 0.27566 0.0
C923 C 0.06252 0.39948 0.28144 0.0
C924 C 0.05728 0.40689 0.30073 0.0
H925 H 0.15437 0.47332 0.22738 0.0
H926 H 0.13251 0.45253 0.2485 0.0
C927 C 0.04582 0.39497 0.31409 0.0
C928 C 0.07442 0.41214 0.26714 0.0
H929 H 0.11891 0.41355 0.24065 0.0
C930 C 0.06621 0.43069 0.26047 0.0
C931 C 0.0937 0.40593 0.25999 0.0
C932 C 0.10367 0.38658 0.26726 0.0
C933 C 0.07679 0.4432 0.2468 0.0
C934 C 0.09594 0.43684 0.23945 0.0
C935 C 0.10411 0.41828 0.24612 0.0
C936 C 0.10862 0.4499 0.22621 0.0
C937 C 0.06766 0.46336 0.24077 0.0
C938 C 0.10246 0.45535 0.20652 0.0
C939 C 0.11502 0.46739 0.19423 0.0
C940 C 0.13394 0.47407 0.20147 0.0
C941 C 0.13994 0.46849 0.22121 0.0
C942 C 0.12745 0.45655 0.23338 0.0
H943 H 0.05479 0.46774 0.25075 0.0
H944 H 0.07928 0.47555 0.24129 0.0
H945 H 0.06195 0.46236 0.22497 0.0
H946 H 0.08809 0.4501 0.20058 0.0
H947 H 0.10999 0.47137 0.1791 0.0
H948 H 0.10806 0.5423 0.82954 0.0
H949 H 0.08457 0.55995 0.80649 0.0
H950 H 0.12935 0.55731 0.75883 0.0
H951 H 0.1528 0.54016 0.78154 0.0
H952 H 0.1132 0.59519 0.76333 0.0
H953 H 0.05228 0.53723 0.75829 0.0
H954 H 0.0588 0.5449 0.78362 0.0
H955 H 0.07714 0.53161 0.76839 0.0
C956 C 0.11284 0.54544 0.81413 0.0
C957 C 0.13234 0.53984 0.80745 0.0
C958 C 0.09936 0.55538 0.80094 0.0
C959 C 0.10513 0.55972 0.78085 0.0
C960 C 0.12454 0.55408 0.77422 0.0
H961 H 0.0316 0.60322 0.6788 0.0
H962 H 0.05322 0.58266 0.70131 0.0
C963 C 0.13796 0.54427 0.78731 0.0
C964 C 0.09155 0.57098 0.7668 0.0
H965 H 0.04599 0.56891 0.74215 0.0
C966 C 0.09851 0.58942 0.75869 0.0
C967 C 0.07255 0.56327 0.76051 0.0
C968 C 0.06476 0.54308 0.76798 0.0
C969 C 0.08692 0.60048 0.74467 0.0
C970 C 0.06763 0.59313 0.73886 0.0
C971 C 0.06075 0.57454 0.7467 0.0
C972 C 0.05415 0.60506 0.72532 0.0
C973 C 0.09554 0.61987 0.73603 0.0
C974 C 0.04734 0.62426 0.73149 0.0
C975 C 0.03519 0.63599 0.71873 0.0
C976 C 0.02937 0.62874 0.6995 0.0
C977 C 0.0359 0.6093 0.69343 0.0
C978 C 0.04818 0.59752 0.7063 0.0
H979 H 0.11233 0.62037 0.73749 0.0
H980 H 0.0915 0.62162 0.71977 0.0
H981 H 0.08919 0.63303 0.74446 0.0
H982 H 0.05144 0.63021 0.74624 0.0
H983 H 0.03031 0.65078 0.72405 0.0
H984 H 0.32448 0.04015 0.75076 0.0
H985 H 0.3446 0.06126 0.77379 0.0
H986 H 0.39661 0.05436 0.7346 0.0
H987 H 0.37658 0.03382 0.71131 0.0
H988 H 0.37956 0.05307 0.79509 0.0
H989 H 0.39239 0.11537 0.74007 0.0
H990 H 0.37404 0.09556 0.73576 0.0
H991 H 0.40049 0.09118 0.73047 0.0
C992 C 0.34017 0.04326 0.747 0.0
C993 C 0.34887 0.03555 0.72909 0.0
C994 C 0.35165 0.05524 0.7602 0.0
C995 C 0.37198 0.05963 0.75571 0.0
C996 C 0.3808 0.05156 0.73809 0.0
H997 H 0.46796 0.106 0.83255 0.0
H998 H 0.44285 0.08387 0.81628 0.0
C999 C 0.36932 0.03979 0.72481 0.0
C1000 C 0.38406 0.07273 0.76933 0.0
H1001 H 0.41314 0.11542 0.76964 0.0
C1002 C 0.38677 0.06683 0.78964 0.0
C1003 C 0.39318 0.0908 0.76223 0.0
C1004 C 0.38972 0.09873 0.74101 0.0
C1005 C 0.39883 0.07831 0.80293 0.0
C1006 C 0.40873 0.09585 0.79552 0.0
C1007 C 0.40565 0.1019 0.77531 0.0
C1008 C 0.42239 0.10842 0.80819 0.0
C1009 C 0.4006 0.07169 0.82477 0.0
C1010 C 0.41921 0.12948 0.80916 0.0
C1011 C 0.43372 0.14206 0.8179 0.0
C1012 C 0.45153 0.1338 0.82617 0.0
C1013 C 0.45422 0.11264 0.82643 0.0
C1014 C 0.43983 0.10002 0.81724 0.0
H1015 H 0.3875 0.06217 0.82942 0.0
H1016 H 0.41457 0.06244 0.82663 0.0
H1017 H 0.40156 0.08497 0.83511 0.0
H1018 H 0.40586 0.13629 0.80235 0.0
H1019 H 0.43128 0.15835 0.81767 0.0
H1020 H 0.90452 0.4653 0.83365 0.0
H1021 H 0.92727 0.445 0.81204 0.0
H1022 H 0.88283 0.44632 0.76407 0.0
H1023 H 0.86013 0.46615 0.78536 0.0
H1024 H 0.89794 0.4079 0.7713 0.0
H1025 H 0.96012 0.46413 0.76237 0.0
H1026 H 0.95317 0.45817 0.78807 0.0
H1027 H 0.93535 0.47101 0.77191 0.0
C1028 C 0.89965 0.46128 0.81849 0.0
C1029 C 0.88049 0.46737 0.81128 0.0
C1030 C 0.9127 0.4498 0.80611 0.0
C1031 C 0.90681 0.44433 0.78635 0.0
C1032 C 0.88771 0.45038 0.77923 0.0
H1033 H 0.97693 0.39804 0.6844 0.0
H1034 H 0.95573 0.41824 0.70749 0.0
C1035 C 0.87474 0.46176 0.79149 0.0
C1036 C 0.92006 0.43184 0.77303 0.0
H1037 H 0.96501 0.43193 0.74715 0.0
C1038 C 0.91264 0.41312 0.76608 0.0
C1039 C 0.93909 0.43883 0.766 0.0
C1040 C 0.94741 0.4592 0.77229 0.0
C1041 C 0.9237 0.40118 0.7523 0.0
C1042 C 0.94289 0.40799 0.74553 0.0
C1043 C 0.95032 0.42673 0.75242 0.0
C1044 C 0.95551 0.39572 0.73143 0.0
C1045 C 0.91452 0.38161 0.74475 0.0
C1046 C 0.96245 0.37643 0.73725 0.0
C1047 C 0.97443 0.36486 0.72412 0.0
C1048 C 0.97989 0.37238 0.70487 0.0
C1049 C 0.97291 0.39174 0.69904 0.0
C1050 C 0.96089 0.40334 0.71225 0.0
H1051 H 0.89783 0.38128 0.74709 0.0
H1052 H 0.91774 0.37934 0.72837 0.0
H1053 H 0.92122 0.36867 0.75324 0.0
H1054 H 0.95879 0.3704 0.7521 0.0
H1055 H 0.97964 0.35009 0.72921 0.0
H1056 H 0.68673 0.97704 0.74696 0.0
H1057 H 0.66918 0.95491 0.77126 0.0
H1058 H 0.6177 0.95177 0.73103 0.0
H1059 H 0.63516 0.97322 0.70662 0.0
H1060 H 0.63327 0.96055 0.79141 0.0
H1061 H 0.62804 0.89259 0.74255 0.0
H1062 H 0.64431 0.91373 0.73646 0.0
H1063 H 0.61773 0.91452 0.73011 0.0
C1064 C 0.67178 0.9714 0.74321 0.0
C1065 C 0.66244 0.97672 0.72476 0.0
C1066 C 0.66175 0.95884 0.75713 0.0
C1067 C 0.64228 0.95142 0.75279 0.0
C1068 C 0.63292 0.95687 0.73447 0.0
H1069 H 0.54445 0.90946 0.82797 0.0
H1070 H 0.57095 0.93008 0.81194 0.0
C1071 C 0.64294 0.96922 0.72054 0.0
C1072 C 0.6313 0.93838 0.76745 0.0
H1073 H 0.6046 0.89425 0.77041 0.0
C1074 C 0.62725 0.94589 0.78699 0.0
C1075 C 0.62377 0.91911 0.7618 0.0
C1076 C 0.62888 0.90943 0.74166 0.0
C1077 C 0.61506 0.93501 0.80071 0.0
C1078 C 0.6063 0.91642 0.79447 0.0
C1079 C 0.6111 0.90859 0.77521 0.0
C1080 C 0.59167 0.90488 0.80716 0.0
C1081 C 0.61178 0.94354 0.82169 0.0
C1082 C 0.59443 0.88389 0.80987 0.0
C1083 C 0.57909 0.87211 0.81839 0.0
C1084 C 0.56086 0.88112 0.82478 0.0
C1085 C 0.55851 0.90226 0.82336 0.0
C1086 C 0.57372 0.91404 0.81432 0.0
H1087 H 0.62467 0.95333 0.82636 0.0
H1088 H 0.59789 0.9531 0.8217 0.0
H1089 H 0.6099 0.93128 0.83311 0.0
H1090 H 0.60811 0.87645 0.80455 0.0
H1091 H 0.58123 0.85581 0.81942 0.0
H1092 H 0.96327 0.66345 0.28665 0.0
H1093 H 0.94454 0.64034 0.26467 0.0
H1094 H 0.96389 0.58952 0.30131 0.0
H1095 H 0.98209 0.61274 0.32388 0.0
H1096 H 0.95832 0.61033 0.24139 0.0
H1097 H 0.90419 0.57892 0.29775 0.0
H1098 H 0.91989 0.60064 0.30312 0.0
H1099 H 0.93032 0.57538 0.30454 0.0
C1100 C 0.96331 0.64738 0.29021 0.0
C1101 C 0.97403 0.63992 0.30708 0.0
C1102 C 0.95268 0.63417 0.27756 0.0
C1103 C 0.95265 0.61319 0.2814 0.0
C1104 C 0.96329 0.60568 0.29829 0.0
H1105 H 0.9073 0.52813 0.18789 0.0
H1106 H 0.93044 0.54751 0.2098 0.0
C1107 C 0.97371 0.61896 0.31117 0.0
C1108 C 0.94176 0.59936 0.26736 0.0
H1109 H 0.90373 0.56439 0.26503 0.0
C1110 C 0.94639 0.60025 0.24654 0.0
C1111 C 0.92615 0.58628 0.2741 0.0
C1112 C 0.91968 0.58533 0.29606 0.0
C1113 C 0.93549 0.58884 0.23223 0.0
C1114 C 0.91993 0.57573 0.23899 0.0
C1115 C 0.91572 0.5744 0.25986 0.0
C1116 C 0.90655 0.56454 0.22476 0.0
C1117 C 0.94019 0.59162 0.20999 0.0
C1118 C 0.88551 0.56757 0.22594 0.0
C1119 C 0.87241 0.55634 0.21382 0.0
C1120 C 0.88 0.54192 0.20003 0.0
C1121 C 0.90109 0.5393 0.19826 0.0
C1122 C 0.91429 0.55039 0.21072 0.0
H1123 H 0.94898 0.60571 0.20714 0.0
H1124 H 0.9494 0.57855 0.2046 0.0
H1125 H 0.92604 0.59223 0.20087 0.0
H1126 H 0.87918 0.57848 0.23652 0.0
H1127 H 0.85622 0.5588 0.21541 0.0
H1128 H 0.36205 0.93719 0.3407 0.0
H1129 H 0.3778 0.90785 0.32431 0.0
H1130 H 0.43592 0.93789 0.32653 0.0
H1131 H 0.42025 0.96681 0.34408 0.0
H1132 H 0.39244 0.90949 0.28869 0.0
H1133 H 0.45384 0.88141 0.33834 0.0
H1134 H 0.43454 0.89873 0.34732 0.0
H1135 H 0.45644 0.90814 0.33391 0.0
C1136 C 0.37832 0.93719 0.33825 0.0
C1137 C 0.39001 0.95414 0.3436 0.0
C1138 C 0.3873 0.92046 0.32887 0.0
C1139 C 0.40809 0.92053 0.32421 0.0
C1140 C 0.41998 0.93716 0.3304 0.0
H1141 H 0.46191 0.87446 0.21724 0.0
H1142 H 0.44449 0.8925 0.24429 0.0
C1143 C 0.41103 0.95375 0.34031 0.0
C1144 C 0.4165 0.90475 0.31042 0.0
H1145 H 0.45694 0.87314 0.30259 0.0
C1146 C 0.40636 0.90129 0.29199 0.0
C1147 C 0.4345 0.89377 0.31467 0.0
C1148 C 0.44531 0.89554 0.33475 0.0
C1149 C 0.41413 0.88792 0.2774 0.0
C1150 C 0.43295 0.87822 0.28097 0.0
C1151 C 0.44264 0.88082 0.29976 0.0
C1152 C 0.44349 0.86677 0.26472 0.0
C1153 C 0.40217 0.88453 0.25817 0.0
C1154 C 0.44921 0.84637 0.2674 0.0
C1155 C 0.45944 0.83595 0.2519 0.0
C1156 C 0.46413 0.84583 0.23356 0.0
C1157 C 0.45835 0.86626 0.23104 0.0
C1158 C 0.4483 0.87663 0.24649 0.0
H1159 H 0.38569 0.88705 0.26072 0.0
H1160 H 0.40723 0.89552 0.24646 0.0
H1161 H 0.40442 0.86891 0.25221 0.0
H1162 H 0.44575 0.83854 0.28144 0.0
H1163 H 0.46382 0.82027 0.25436 0.0
H1164 H 0.69387 0.03359 0.24905 0.0
H1165 H 0.67389 0.04919 0.22163 0.0
H1166 H 0.63317 0.07509 0.26586 0.0
H1167 H 0.65284 0.05974 0.29317 0.0
H1168 H 0.61556 0.0485 0.2329 0.0
H1169 H 0.66463 0.11192 0.20598 0.0
H1170 H 0.67554 0.0872 0.21071 0.0
H1171 H 0.66666 0.10226 0.23156 0.0
C1172 C 0.68096 0.04304 0.25293 0.0
C1173 C 0.67489 0.04535 0.27329 0.0
C1174 C 0.66953 0.05184 0.23725 0.0
C1175 C 0.65201 0.06313 0.24178 0.0
C1176 C 0.64659 0.06632 0.26209 0.0
H1177 H 0.56728 0.14529 0.20314 0.0
H1178 H 0.5953 0.12459 0.2151 0.0
C1179 C 0.65791 0.05758 0.27768 0.0
C1180 C 0.63833 0.0707 0.22564 0.0
H1181 H 0.63117 0.11081 0.19365 0.0
C1182 C 0.61907 0.06183 0.22389 0.0
C1183 C 0.64308 0.08805 0.214 0.0
C1184 C 0.66357 0.09806 0.21554 0.0
C1185 C 0.60393 0.07065 0.21174 0.0
C1186 C 0.60828 0.08871 0.20101 0.0
C1187 C 0.62796 0.09686 0.20179 0.0
C1188 C 0.59183 0.10132 0.19224 0.0
C1189 C 0.58297 0.06148 0.21167 0.0
C1190 C 0.58054 0.09513 0.17525 0.0
C1191 C 0.56425 0.10704 0.16826 0.0
C1192 C 0.55905 0.1252 0.17828 0.0
C1193 C 0.57067 0.13134 0.19509 0.0
C1194 C 0.58685 0.11959 0.20192 0.0
H1195 H 0.58173 0.04828 0.2221 0.0
H1196 H 0.57155 0.07307 0.21618 0.0
H1197 H 0.57917 0.05633 0.1961 0.0
H1198 H 0.58424 0.08108 0.16751 0.0
H1199 H 0.55566 0.10196 0.15522 0.0
H1200 H 0.68857 0.98411 0.60957 0.0
H1201 H 0.71064 0.96276 0.58852 0.0
H1202 H 0.74332 0.94362 0.64194 0.0
H1203 H 0.72201 0.96569 0.66282 0.0
H1204 H 0.76921 0.95132 0.61398 0.0
H1205 H 0.70997 0.90353 0.57889 0.0
H1206 H 0.70597 0.92995 0.57366 0.0
H1207 H 0.70446 0.92079 0.59939 0.0
C1208 C 0.70034 0.97518 0.61683 0.0
C1209 C 0.70345 0.97655 0.6379 0.0
C1210 C 0.71291 0.96285 0.60478 0.0
C1211 C 0.72853 0.95115 0.61358 0.0
C1212 C 0.73145 0.9524 0.63468 0.0
H1213 H 0.78958 0.85151 0.55114 0.0
H1214 H 0.76857 0.87295 0.57297 0.0
C1215 C 0.71917 0.96501 0.64664 0.0
C1216 C 0.74232 0.93818 0.60091 0.0
H1217 H 0.74304 0.90113 0.56454 0.0
C1218 C 0.76343 0.94026 0.60326 0.0
C1219 C 0.73497 0.92347 0.58705 0.0
C1220 C 0.71261 0.91913 0.58474 0.0
C1221 C 0.77728 0.92822 0.59224 0.0
C1222 C 0.76993 0.91413 0.57775 0.0
C1223 C 0.74882 0.91201 0.57544 0.0
C1224 C 0.78371 0.90106 0.56517 0.0
C1225 C 0.79961 0.93033 0.59682 0.0
C1226 C 0.79947 0.9095 0.55347 0.0
C1227 C 0.81187 0.89712 0.54129 0.0
C1228 C 0.80844 0.87607 0.54008 0.0
C1229 C 0.79266 0.86766 0.55172 0.0
C1230 C 0.78055 0.87995 0.56418 0.0
H1231 H 0.80215 0.93641 0.61233 0.0
H1232 H 0.80764 0.91554 0.5955 0.0
H1233 H 0.80647 0.94118 0.58592 0.0
H1234 H 0.80193 0.92575 0.55337 0.0
H1235 H 0.82367 0.90415 0.53227 0.0
H1236 H 0.13201 0.8272 0.57004 0.0
H1237 H 0.11242 0.80686 0.59385 0.0
H1238 H 0.14033 0.75231 0.57045 0.0
H1239 H 0.16065 0.77287 0.54686 0.0
H1240 H 0.08452 0.78012 0.58386 0.0
H1241 H 0.14289 0.7411 0.63042 0.0
H1242 H 0.14886 0.76223 0.61402 0.0
H1243 H 0.1459 0.73713 0.60365 0.0
C1244 C 0.13426 0.81088 0.57016 0.0
C1245 C 0.14784 0.80162 0.55652 0.0
C1246 C 0.12302 0.79925 0.58381 0.0
C1247 C 0.12488 0.77802 0.5841 0.0
C1248 C 0.13888 0.76869 0.57087 0.0
H1249 H 0.0481 0.6852 0.63673 0.0
H1250 H 0.07403 0.70433 0.61842 0.0
C1251 C 0.15044 0.78043 0.55732 0.0
C1252 C 0.11087 0.76588 0.59707 0.0
H1253 H 0.10876 0.72983 0.63445 0.0
C1254 C 0.08989 0.76925 0.59502 0.0
C1255 C 0.11779 0.7516 0.61162 0.0
C1256 C 0.14009 0.7479 0.61524 0.0
C1257 C 0.07571 0.75873 0.60693 0.0
C1258 C 0.08262 0.74446 0.62139 0.0
C1259 C 0.10354 0.74089 0.62341 0.0
C1260 C 0.06813 0.73264 0.63396 0.0
C1261 C 0.05338 0.76267 0.60373 0.0
C1262 C 0.05646 0.74214 0.6491 0.0
C1263 C 0.04162 0.73121 0.65973 0.0
C1264 C 0.0381 0.71062 0.65526 0.0
C1265 C 0.05028 0.70107 0.64048 0.0
C1266 C 0.06519 0.71194 0.63003 0.0
H1267 H 0.05043 0.77169 0.58978 0.0
H1268 H 0.04496 0.74811 0.60267 0.0
H1269 H 0.04726 0.77122 0.6169 0.0
H1270 H 0.05859 0.75811 0.65242 0.0
H1271 H 0.03254 0.73902 0.67101 0.0
H1272 H 0.187 0.12179 0.54215 0.0
H1273 H 0.20643 0.10021 0.5655 0.0
H1274 H 0.25388 0.14512 0.56751 0.0
H1275 H 0.23452 0.16685 0.54457 0.0
H1276 H 0.24416 0.08338 0.56005 0.0
H1277 H 0.24506 0.13381 0.62731 0.0
H1278 H 0.22825 0.13798 0.6061 0.0
H1279 H 0.25431 0.14596 0.60476 0.0
C1280 C 0.20145 0.12721 0.54778 0.0
C1281 C 0.2091 0.14615 0.54153 0.0
C1282 C 0.21258 0.11481 0.56108 0.0
C1283 C 0.23153 0.12112 0.56852 0.0
C1284 C 0.23912 0.14007 0.56239 0.0
H1285 H 0.32595 0.04205 0.61905 0.0
H1286 H 0.3059 0.06507 0.59771 0.0
C1287 C 0.22802 0.15246 0.54915 0.0
C1288 C 0.24377 0.1076 0.58199 0.0
H1289 H 0.26778 0.10557 0.62793 0.0
C1290 C 0.24924 0.0882 0.57494 0.0
C1291 C 0.25026 0.11377 0.60151 0.0
C1292 C 0.24401 0.13393 0.61048 0.0
C1293 C 0.26126 0.07498 0.58669 0.0
C1294 C 0.26837 0.08144 0.60591 0.0
C1295 C 0.2626 0.1007 0.6131 0.0
C1296 C 0.28115 0.06816 0.61911 0.0
C1297 C 0.26588 0.05404 0.57855 0.0
C1298 C 0.27435 0.06281 0.63858 0.0
C1299 C 0.28587 0.04984 0.65089 0.0
C1300 C 0.30454 0.04193 0.64407 0.0
C1301 C 0.31162 0.04776 0.62477 0.0
C1302 C 0.30008 0.0608 0.61247 0.0
H1303 H 0.2551 0.04957 0.5664 0.0
H1304 H 0.28139 0.05391 0.57199 0.0
H1305 H 0.26528 0.04248 0.59082 0.0
H1306 H 0.25989 0.06835 0.64412 0.0
H1307 H 0.2799 0.04574 0.66564 0.0
H1308 H 0.86172 0.22065 0.56119 0.0
H1309 H 0.88511 0.23543 0.58563 0.0
H1310 H 0.92817 0.18745 0.57383 0.0
H1311 H 0.90475 0.17248 0.549 0.0
H1312 H 0.90261 0.21891 0.62116 0.0
H1313 H 0.96081 0.24002 0.5637 0.0
H1314 H 0.93536 0.2328 0.55674 0.0
H1315 H 0.95336 0.21376 0.56436 0.0
C1316 C 0.87614 0.21314 0.56373 0.0
C1317 C 0.88138 0.19541 0.55295 0.0
C1318 C 0.88948 0.22161 0.57782 0.0
C1319 C 0.90848 0.21269 0.58146 0.0
C1320 C 0.91369 0.19476 0.57107 0.0
H1321 H 0.98832 0.26135 0.67825 0.0
H1322 H 0.96768 0.23766 0.6582 0.0
C1323 C 0.90026 0.18618 0.55694 0.0
C1324 C 0.92278 0.22272 0.59575 0.0
H1325 H 0.96704 0.2496 0.59745 0.0
C1326 C 0.91684 0.22541 0.61607 0.0
C1327 C 0.94124 0.23135 0.58903 0.0
C1328 C 0.94811 0.22953 0.56725 0.0
C1329 C 0.9286 0.23689 0.62968 0.0
C1330 C 0.94687 0.24581 0.62285 0.0
C1331 C 0.95307 0.24267 0.60269 0.0
C1332 C 0.95886 0.25997 0.63571 0.0
C1333 C 0.92095 0.24018 0.65101 0.0
C1334 C 0.96078 0.28033 0.62977 0.0
C1335 C 0.97249 0.29383 0.64113 0.0
C1336 C 0.98272 0.2873 0.65872 0.0
C1337 C 0.98056 0.26692 0.66487 0.0
C1338 C 0.96875 0.25337 0.65344 0.0
H1339 H 0.90499 0.23512 0.65289 0.0
H1340 H 0.93055 0.23144 0.66175 0.0
H1341 H 0.92196 0.25649 0.65521 0.0
H1342 H 0.95327 0.28579 0.61619 0.0
H1343 H 0.97376 0.30937 0.63587 0.0
H1344 H 0.69142 0.0418 0.39195 0.0
H1345 H 0.71268 0.0617 0.41499 0.0
H1346 H 0.75026 0.07989 0.36456 0.0
H1347 H 0.72973 0.05917 0.34175 0.0
H1348 H 0.77352 0.07027 0.394 0.0
H1349 H 0.71439 0.12051 0.42625 0.0
H1350 H 0.70874 0.09425 0.43056 0.0
H1351 H 0.70946 0.10402 0.40501 0.0
C1352 C 0.70407 0.05026 0.38575 0.0
C1353 C 0.7088 0.04897 0.36498 0.0
C1354 C 0.71619 0.06177 0.39895 0.0
C1355 C 0.73299 0.07273 0.39159 0.0
C1356 C 0.73746 0.07166 0.37075 0.0
H1357 H 0.7945 0.16757 0.46 0.0
H1358 H 0.77367 0.14759 0.43681 0.0
C1359 C 0.72563 0.05984 0.35766 0.0
C1360 C 0.74645 0.0846 0.40555 0.0
H1361 H 0.74643 0.12067 0.44291 0.0
C1362 C 0.76755 0.08138 0.40459 0.0
C1363 C 0.73887 0.09936 0.41929 0.0
C1364 C 0.71665 0.10491 0.42021 0.0
C1365 C 0.78116 0.09237 0.41685 0.0
C1366 C 0.77352 0.1065 0.4312 0.0
C1367 C 0.75242 0.10974 0.43213 0.0
C1368 C 0.78702 0.11859 0.44491 0.0
C1369 C 0.80362 0.08912 0.41371 0.0
C1370 C 0.80167 0.10914 0.45732 0.0
C1371 C 0.81399 0.12068 0.4703 0.0
C1372 C 0.81157 0.14187 0.47162 0.0
C1373 C 0.79679 0.15127 0.45938 0.0
C1374 C 0.78479 0.13982 0.44612 0.0
H1375 H 0.80693 0.08319 0.39827 0.0
H1376 H 0.81223 0.10342 0.41587 0.0
H1377 H 0.8092 0.07771 0.4248 0.0
H1378 H 0.80336 0.09278 0.45727 0.0
H1379 H 0.825 0.11292 0.47976 0.0
H1380 H 0.95987 0.70589 0.36812 0.0
H1381 H 0.94017 0.7298 0.38837 0.0
H1382 H 0.95774 0.77864 0.34852 0.0
H1383 H 0.97763 0.75463 0.32793 0.0
H1384 H 0.95718 0.7642 0.40836 0.0
H1385 H 0.89513 0.78546 0.35506 0.0
H1386 H 0.91028 0.7628 0.35166 0.0
H1387 H 0.92077 0.78723 0.34581 0.0
C1388 C 0.95937 0.72165 0.3634 0.0
C1389 C 0.97039 0.72832 0.34636 0.0
C1390 C 0.94812 0.73533 0.37508 0.0
C1391 C 0.94748 0.756 0.37 0.0
C1392 C 0.95786 0.7627 0.35261 0.0
H1393 H 0.90024 0.84253 0.46191 0.0
H1394 H 0.92229 0.82759 0.43573 0.0
C1395 C 0.96919 0.74896 0.34084 0.0
C1396 C 0.9367 0.77039 0.38369 0.0
H1397 H 0.89419 0.79998 0.38768 0.0
C1398 C 0.94355 0.77225 0.40379 0.0
C1399 C 0.91888 0.78079 0.3777 0.0
C1400 C 0.91065 0.77898 0.35643 0.0
C1401 C 0.93273 0.78368 0.41822 0.0
C1402 C 0.91466 0.79374 0.41236 0.0
C1403 C 0.90813 0.79238 0.3921 0.0
C1404 C 0.90122 0.80382 0.42748 0.0
C1405 C 0.94017 0.78408 0.43987 0.0
C1406 C 0.88195 0.7957 0.43126 0.0
C1407 C 0.8694 0.80413 0.44613 0.0
C1408 C 0.87574 0.82103 0.45756 0.0
C1409 C 0.89492 0.82947 0.45348 0.0
C1410 C 0.90755 0.82092 0.43856 0.0
H1411 H 0.95243 0.77278 0.44259 0.0
H1412 H 0.94622 0.7994 0.44337 0.0
H1413 H 0.92751 0.78098 0.45055 0.0
H1414 H 0.87674 0.78251 0.42294 0.0
H1415 H 0.85471 0.79726 0.44871 0.0
H1416 H 0.29183 0.95488 0.34709 0.0
H1417 H 0.27025 0.93127 0.36616 0.0
H1418 H 0.29596 0.95304 0.42226 0.0
H1419 H 0.31808 0.97581 0.4033 0.0
H1420 H 0.29425 0.91383 0.42348 0.0
H1421 H 0.21939 0.94158 0.39683 0.0
H1422 H 0.23547 0.93307 0.37658 0.0
H1423 H 0.24261 0.9549 0.39138 0.0
C1424 C 0.29271 0.95472 0.3635 0.0
C1425 C 0.30664 0.96725 0.37367 0.0
C1426 C 0.28029 0.94128 0.37443 0.0
C1427 C 0.28117 0.9405 0.39576 0.0
C1428 C 0.29493 0.95324 0.40585 0.0
H1429 H 0.19215 0.89435 0.47934 0.0
H1430 H 0.21362 0.91355 0.45618 0.0
C1431 C 0.30756 0.96634 0.39497 0.0
C1432 C 0.26834 0.92615 0.40778 0.0
H1433 H 0.21935 0.91207 0.41734 0.0
C1434 C 0.27786 0.91348 0.42212 0.0
C1435 C 0.2469 0.92569 0.40619 0.0
C1436 C 0.23546 0.93967 0.39207 0.0
C1437 C 0.26665 0.9008 0.43515 0.0
C1438 C 0.24524 0.9001 0.43334 0.0
C1439 C 0.23575 0.91244 0.4187 0.0
C1440 C 0.23225 0.88787 0.44737 0.0
C1441 C 0.2779 0.88904 0.4513 0.0
C1442 C 0.23535 0.86688 0.45022 0.0
C1443 C 0.22326 0.85586 0.46389 0.0
C1444 C 0.20747 0.86552 0.47458 0.0
C1445 C 0.20413 0.88639 0.47134 0.0
C1446 C 0.21641 0.89742 0.45802 0.0
H1447 H 0.29312 0.89559 0.45432 0.0
H1448 H 0.26926 0.88877 0.46576 0.0
H1449 H 0.28013 0.87316 0.44611 0.0
H1450 H 0.24705 0.85896 0.44181 0.0
H1451 H 0.22607 0.83976 0.46586 0.0
H1452 H 0.16543 0.22421 0.44677 0.0
H1453 H 0.14156 0.23956 0.42292 0.0
H1454 H 0.09924 0.19095 0.43385 0.0
H1455 H 0.12302 0.1755 0.45801 0.0
H1456 H 0.123 0.22484 0.38721 0.0
H1457 H 0.0664 0.24253 0.44736 0.0
H1458 H 0.09212 0.23505 0.45313 0.0
H1459 H 0.07392 0.21634 0.4454 0.0
C1460 C 0.15111 0.21665 0.44406 0.0
C1461 C 0.14612 0.19866 0.45448 0.0
C1462 C 0.13749 0.22545 0.43034 0.0
C1463 C 0.11849 0.21658 0.42677 0.0
C1464 C 0.11368 0.19825 0.4366 0.0
H1465 H 0.03374 0.26479 0.334 0.0
H1466 H 0.05624 0.24173 0.35291 0.0
C1467 C 0.12735 0.18938 0.45034 0.0
C1468 C 0.10358 0.22708 0.41338 0.0
H1469 H 0.0582 0.25236 0.41405 0.0
C1470 C 0.10873 0.23069 0.393 0.0
C1471 C 0.08505 0.2349 0.42102 0.0
C1472 C 0.07902 0.2322 0.44295 0.0
C1473 C 0.09601 0.24215 0.38016 0.0
C1474 C 0.07758 0.25008 0.38785 0.0
C1475 C 0.07227 0.24616 0.40813 0.0
C1476 C 0.06435 0.26389 0.37574 0.0
C1477 C 0.10277 0.24637 0.3587 0.0
C1478 C 0.06131 0.28393 0.38232 0.0
C1479 C 0.04851 0.29706 0.37162 0.0
C1480 C 0.03828 0.29048 0.35408 0.0
C1481 C 0.04145 0.27041 0.34736 0.0
C1482 C 0.05435 0.25722 0.35813 0.0
H1483 H 0.11896 0.24232 0.35624 0.0
H1484 H 0.09344 0.23729 0.34805 0.0
H1485 H 0.10058 0.26267 0.35489 0.0
H1486 H 0.06884 0.28943 0.39585 0.0
H1487 H 0.04649 0.31237 0.37731 0.0
H1488 H 0.68299 0.72706 0.95801 0.0
H1489 H 0.66619 0.74507 0.93004 0.0
H1490 H 0.61148 0.71093 0.941 0.0
H1491 H 0.62835 0.69239 0.96819 0.0
H1492 H 0.6178 0.71403 0.90171 0.0
H1493 H 0.62645 0.79045 0.93628 0.0
H1494 H 0.65003 0.77768 0.93144 0.0
H1495 H 0.63261 0.76747 0.94983 0.0
C1496 C 0.66739 0.72341 0.9544 0.0
C1497 C 0.65699 0.70837 0.9654 0.0
C1498 C 0.65776 0.73379 0.93848 0.0
C1499 C 0.6374 0.72967 0.9336 0.0
C1500 C 0.62717 0.71443 0.94441 0.0
H1501 H 0.54696 0.80561 0.88184 0.0
H1502 H 0.57088 0.78589 0.90189 0.0
C1503 C 0.63685 0.70386 0.96004 0.0
C1504 C 0.62639 0.74128 0.91757 0.0
H1505 H 0.61046 0.78894 0.90446 0.0
C1506 C 0.61627 0.73044 0.90225 0.0
C1507 C 0.62427 0.76269 0.91831 0.0
C1508 C 0.63374 0.77527 0.93493 0.0
C1509 C 0.60356 0.74025 0.88815 0.0
C1510 C 0.60139 0.76165 0.88895 0.0
C1511 C 0.61215 0.77255 0.90378 0.0
C1512 C 0.58657 0.77293 0.87607 0.0
C1513 C 0.59181 0.72749 0.87323 0.0
C1514 C 0.58718 0.77216 0.85472 0.0
C1515 C 0.57312 0.78326 0.8431 0.0
C1516 C 0.55856 0.79565 0.85265 0.0
C1517 C 0.55806 0.79634 0.87397 0.0
C1518 C 0.57179 0.78507 0.88549 0.0
H1519 H 0.59141 0.71124 0.8778 0.0
H1520 H 0.57596 0.73306 0.87173 0.0
H1521 H 0.59918 0.72841 0.85812 0.0
H1522 H 0.59868 0.76327 0.84704 0.0
H1523 H 0.57399 0.78258 0.8267 0.0
H1524 H 0.26196 0.68121 0.96032 0.0
H1525 H 0.24536 0.66082 0.93381 0.0
H1526 H 0.30385 0.63961 0.91334 0.0
H1527 H 0.32034 0.65929 0.93994 0.0
H1528 H 0.24806 0.65791 0.89145 0.0
H1529 H 0.27549 0.58701 0.92787 0.0
H1530 H 0.27704 0.61143 0.94016 0.0
H1531 H 0.29561 0.60415 0.92147 0.0
C1532 C 0.27123 0.67241 0.94995 0.0
C1533 C 0.29241 0.67158 0.95239 0.0
C1534 C 0.26176 0.66075 0.93486 0.0
C1535 C 0.27335 0.64826 0.92195 0.0
C1536 C 0.29456 0.64864 0.92349 0.0
H1537 H 0.24438 0.55372 0.83353 0.0
H1538 H 0.26153 0.58148 0.85156 0.0
C1539 C 0.30396 0.65999 0.93866 0.0
C1540 C 0.26345 0.63396 0.90759 0.0
H1541 H 0.26014 0.58356 0.89557 0.0
C1542 C 0.25066 0.64166 0.89236 0.0
C1543 C 0.26678 0.61271 0.90883 0.0
C1544 C 0.27931 0.60329 0.92558 0.0
C1545 C 0.24136 0.62868 0.87819 0.0
C1546 C 0.2449 0.6075 0.87935 0.0
C1547 C 0.25772 0.59984 0.89452 0.0
C1548 C 0.23428 0.59273 0.8661 0.0
C1549 C 0.22794 0.63767 0.86197 0.0
C1550 C 0.2133 0.59004 0.86813 0.0
C1551 C 0.20356 0.57417 0.85804 0.0
C1552 C 0.21458 0.56066 0.84565 0.0
C1553 C 0.23546 0.56395 0.84285 0.0
C1554 C 0.24527 0.57975 0.85317 0.0
H1555 H 0.23068 0.6542 0.85999 0.0
H1556 H 0.23039 0.6299 0.84722 0.0
H1557 H 0.21182 0.63557 0.86636 0.0
H1558 H 0.20458 0.59964 0.87826 0.0
H1559 H 0.18744 0.57208 0.8605 0.0
H1560 H 0.33399 0.27248 0.96907 0.0
H1561 H 0.35284 0.25534 0.94177 0.0
H1562 H 0.37429 0.31336 0.92029 0.0
H1563 H 0.35624 0.33037 0.94785 0.0
H1564 H 0.35433 0.25674 0.90027 0.0
H1565 H 0.42693 0.28472 0.93214 0.0
H1566 H 0.40316 0.28725 0.94545 0.0
H1567 H 0.40977 0.30487 0.92563 0.0
C1568 C 0.34247 0.28155 0.9583 0.0
C1569 C 0.3439 0.30271 0.96073 0.0
C1570 C 0.35328 0.27177 0.94275 0.0
C1571 C 0.36549 0.28303 0.92934 0.0
C1572 C 0.36555 0.30429 0.93084 0.0
H1573 H 0.45159 0.2458 0.83434 0.0
H1574 H 0.42596 0.2651 0.85358 0.0
C1575 C 0.3551 0.314 0.94652 0.0
C1576 C 0.37904 0.2726 0.91455 0.0
H1577 H 0.42881 0.26769 0.90058 0.0
C1578 C 0.3706 0.25915 0.90033 0.0
C1579 C 0.40035 0.27563 0.9147 0.0
C1580 C 0.41063 0.28873 0.93042 0.0
C1581 C 0.38288 0.24879 0.88623 0.0
C1582 C 0.40407 0.252 0.88634 0.0
C1583 C 0.41249 0.26555 0.90036 0.0
C1584 C 0.41804 0.24008 0.87333 0.0
C1585 C 0.37323 0.23437 0.87135 0.0
C1586 C 0.42201 0.21972 0.87812 0.0
C1587 C 0.43674 0.20884 0.86743 0.0
C1588 C 0.44774 0.21804 0.8516 0.0
C1589 C 0.44332 0.23829 0.84639 0.0
C1590 C 0.42871 0.24931 0.85735 0.0
H1591 H 0.35648 0.23621 0.87078 0.0
H1592 H 0.37955 0.23676 0.8559 0.0
H1593 H 0.37673 0.21851 0.87591 0.0
H1594 H 0.4141 0.21242 0.89054 0.0
H1595 H 0.43968 0.19322 0.87176 0.0
H1596 H 0.68763 0.35545 0.94025 0.0
H1597 H 0.70471 0.3735 0.91285 0.0
H1598 H 0.76266 0.35286 0.93538 0.0
H1599 H 0.74545 0.33413 0.96263 0.0
H1600 H 0.72944 0.40447 0.91913 0.0
H1601 H 0.77075 0.34576 0.8751 0.0
H1602 H 0.75102 0.33949 0.89306 0.0
H1603 H 0.77629 0.345 0.90175 0.0
C1604 C 0.704 0.35436 0.93911 0.0
C1605 C 0.71523 0.34342 0.95362 0.0
C1606 C 0.71375 0.3647 0.92343 0.0
C1607 C 0.73498 0.36452 0.92193 0.0
C1608 C 0.74624 0.3529 0.93592 0.0
H1609 H 0.82284 0.44145 0.8656 0.0
H1610 H 0.80422 0.41465 0.88302 0.0
C1611 C 0.73642 0.34225 0.95154 0.0
C1612 C 0.74513 0.37831 0.90719 0.0
H1613 H 0.78016 0.38037 0.86895 0.0
C1614 C 0.74032 0.39912 0.90798 0.0
C1615 C 0.7594 0.37139 0.89267 0.0
C1616 C 0.76455 0.34916 0.89042 0.0
C1617 C 0.74971 0.41322 0.89508 0.0
C1618 C 0.76419 0.40636 0.88079 0.0
C1619 C 0.76892 0.38555 0.87982 0.0
C1620 C 0.77572 0.42089 0.86803 0.0
C1621 C 0.74461 0.43548 0.89734 0.0
C1622 C 0.766 0.43293 0.8533 0.0
C1623 C 0.77666 0.44835 0.84319 0.0
C1624 C 0.79716 0.45199 0.84779 0.0
C1625 C 0.80701 0.4392 0.86182 0.0
C1626 C 0.79642 0.42378 0.87176 0.0
H1627 H 0.73579 0.43861 0.91138 0.0
H1628 H 0.75865 0.44476 0.89762 0.0
H1629 H 0.73539 0.44048 0.88416 0.0
H1630 H 0.75004 0.43078 0.85006 0.0
H1631 H 0.76865 0.45791 0.83246 0.0
H1632 H 0.69001 0.27666 0.05755 0.0
H1633 H 0.67326 0.25863 0.0856 0.0
H1634 H 0.61945 0.29502 0.07671 0.0
H1635 H 0.63615 0.31341 0.04954 0.0
H1636 H 0.62643 0.29037 0.11595 0.0
H1637 H 0.63171 0.21506 0.07799 0.0
H1638 H 0.65557 0.22702 0.08326 0.0
H1639 H 0.63843 0.23831 0.06523 0.0
C1640 C 0.67465 0.28084 0.06169 0.0
C1641 C 0.66442 0.29641 0.05119 0.0
C1642 C 0.66505 0.27046 0.07766 0.0
C1643 C 0.64492 0.27521 0.0831 0.0
C1644 C 0.63496 0.29105 0.07289 0.0
H1645 H 0.54748 0.20526 0.12533 0.0
H1646 H 0.5742 0.22433 0.10859 0.0
C1647 C 0.64457 0.30154 0.05724 0.0
C1648 C 0.63358 0.26346 0.09877 0.0
H1649 H 0.61382 0.21656 0.10861 0.0
C1650 C 0.62383 0.27417 0.11449 0.0
C1651 C 0.63013 0.24232 0.09684 0.0
C1652 C 0.63935 0.22998 0.07985 0.0
C1653 C 0.60994 0.26462 0.12759 0.0
C1654 C 0.6061 0.2436 0.1253 0.0
C1655 C 0.61675 0.23268 0.11035 0.0
C1656 C 0.58943 0.23306 0.13633 0.0
C1657 C 0.59861 0.27737 0.14291 0.0
C1658 C 0.58872 0.23187 0.15766 0.0
C1659 C 0.57306 0.22114 0.16739 0.0
C1660 C 0.55816 0.21113 0.1559 0.0
C1661 C 0.55881 0.21265 0.13464 0.0
C1662 C 0.57416 0.22353 0.12501 0.0
H1663 H 0.60024 0.29389 0.13987 0.0
H1664 H 0.58221 0.27356 0.14293 0.0
H1665 H 0.60471 0.27425 0.15828 0.0
H1666 H 0.60049 0.23879 0.16674 0.0
H1667 H 0.57303 0.22004 0.18379 0.0
H1668 H 0.82544 0.57119 0.15588 0.0
H1669 H 0.8088 0.59906 0.13798 0.0
H1670 H 0.75066 0.57847 0.15986 0.0
H1671 H 0.76744 0.55085 0.17847 0.0
H1672 H 0.78372 0.59331 0.10766 0.0
H1673 H 0.7438 0.63883 0.16598 0.0
H1674 H 0.76312 0.6204 0.17236 0.0
H1675 H 0.73751 0.61237 0.16735 0.0
C1676 C 0.80914 0.57289 0.15728 0.0
C1677 C 0.7977 0.55882 0.16851 0.0
C1678 C 0.79965 0.58884 0.14703 0.0
C1679 C 0.77848 0.59099 0.1476 0.0
C1680 C 0.76705 0.57745 0.15953 0.0
H1681 H 0.68876 0.64249 0.07088 0.0
H1682 H 0.70867 0.62676 0.09781 0.0
C1683 C 0.77663 0.56161 0.17011 0.0
C1684 C 0.7684 0.60576 0.13376 0.0
H1685 H 0.73298 0.64373 0.13144 0.0
C1686 C 0.77289 0.60457 0.11294 0.0
C1687 C 0.75422 0.62043 0.1406 0.0
C1688 C 0.74952 0.62325 0.16282 0.0
C1689 C 0.76312 0.61708 0.09874 0.0
C1690 C 0.74854 0.63132 0.1055 0.0
C1691 C 0.74427 0.63286 0.12633 0.0
C1692 C 0.73618 0.64316 0.09088 0.0
C1693 C 0.76782 0.61438 0.07647 0.0
C1694 C 0.74494 0.65806 0.07838 0.0
C1695 C 0.73353 0.66721 0.06288 0.0
C1696 C 0.71328 0.6614 0.05962 0.0
C1697 C 0.70439 0.64716 0.07282 0.0
C1698 C 0.7157 0.6382 0.08833 0.0
H1699 H 0.77732 0.60072 0.07355 0.0
H1700 H 0.75357 0.61305 0.06759 0.0
H1701 H 0.77612 0.6279 0.07084 0.0
H1702 H 0.76073 0.66217 0.08024 0.0
H1703 H 0.74077 0.67815 0.05299 0.0
H1704 H 0.3233 0.75504 0.03955 0.0
H1705 H 0.34273 0.77798 0.06167 0.0
H1706 H 0.38627 0.73029 0.07277 0.0
H1707 H 0.36717 0.70743 0.05098 0.0
H1708 H 0.35715 0.77275 0.10455 0.0
H1709 H 0.4193 0.77895 0.0481 0.0
H1710 H 0.39414 0.77035 0.04151 0.0
H1711 H 0.41173 0.75333 0.05363 0.0
C1712 C 0.33685 0.74937 0.04695 0.0
C1713 C 0.34373 0.72943 0.04332 0.0
C1714 C 0.34795 0.76251 0.05952 0.0
C1715 C 0.36613 0.75592 0.06854 0.0
C1716 C 0.37247 0.73579 0.06568 0.0
H1717 H 0.44512 0.79219 0.16398 0.0
H1718 H 0.41852 0.77822 0.14243 0.0
C1719 C 0.36145 0.72271 0.05324 0.0
C1720 C 0.37905 0.76997 0.08048 0.0
H1721 H 0.42677 0.79004 0.08172 0.0
C1722 C 0.37226 0.7768 0.09948 0.0
C1723 C 0.39866 0.77547 0.07371 0.0
C1724 C 0.40638 0.76933 0.05304 0.0
C1725 C 0.38501 0.78811 0.11233 0.0
C1726 C 0.4051 0.79249 0.10607 0.0
C1727 C 0.41145 0.78656 0.08662 0.0
C1728 C 0.4202 0.80203 0.11985 0.0
C1729 C 0.37692 0.7951 0.13257 0.0
C1730 C 0.4303 0.81995 0.11422 0.0
C1731 C 0.44566 0.82798 0.12652 0.0
C1732 C 0.4514 0.81809 0.14458 0.0
C1733 C 0.44109 0.80026 0.15023 0.0
C1734 C 0.42572 0.79231 0.13799 0.0
H1735 H 0.36009 0.79621 0.13244 0.0
H1736 H 0.38128 0.7839 0.1444 0.0
H1737 H 0.38328 0.8101 0.13685 0.0
H1738 H 0.42643 0.82761 0.10019 0.0
H1739 H 0.45331 0.84169 0.12166 0.0
H1740 H 0.32565 0.36149 0.07323 0.0
H1741 H 0.30922 0.38016 0.10066 0.0
H1742 H 0.25068 0.36038 0.07924 0.0
H1743 H 0.26721 0.34106 0.05195 0.0
H1744 H 0.28475 0.41153 0.09451 0.0
H1745 H 0.24345 0.35393 0.13967 0.0
H1746 H 0.26284 0.34717 0.1215 0.0
H1747 H 0.23748 0.35294 0.11313 0.0
C1748 C 0.30929 0.36072 0.07462 0.0
C1749 C 0.2977 0.34985 0.0604 0.0
C1750 C 0.29991 0.37143 0.09032 0.0
C1751 C 0.27871 0.37166 0.09214 0.0
C1752 C 0.26709 0.36011 0.07845 0.0
H1753 H 0.19147 0.44973 0.14776 0.0
H1754 H 0.21022 0.42271 0.13072 0.0
C1755 C 0.27653 0.34912 0.06281 0.0
C1756 C 0.26892 0.38574 0.10689 0.0
H1757 H 0.23419 0.38873 0.14534 0.0
C1758 C 0.27392 0.40647 0.10582 0.0
C1759 C 0.25474 0.37919 0.12162 0.0
C1760 C 0.24944 0.35706 0.12422 0.0
C1761 C 0.26472 0.42086 0.11858 0.0
C1762 C 0.25025 0.41437 0.13303 0.0
C1763 C 0.24541 0.39364 0.13435 0.0
C1764 C 0.23872 0.42922 0.14551 0.0
C1765 C 0.26995 0.44303 0.11597 0.0
C1766 C 0.24841 0.44152 0.15999 0.0
C1767 C 0.23767 0.45708 0.16988 0.0
C1768 C 0.21713 0.4606 0.16531 0.0
C1769 C 0.20733 0.44759 0.1515 0.0
C1770 C 0.21799 0.43204 0.14179 0.0
H1771 H 0.27877 0.44585 0.10188 0.0
H1772 H 0.25595 0.45246 0.11554 0.0
H1773 H 0.27919 0.44812 0.12907 0.0
H1774 H 0.26439 0.43943 0.16322 0.0
H1775 H 0.24563 0.46681 0.18045 0.0
H1776 H 0.83485 0.54276 0.7707 0.0
H1777 H 0.85318 0.57023 0.75338 0.0
H1778 H 0.87795 0.58976 0.81067 0.0
H1779 H 0.86036 0.56206 0.82784 0.0
H1780 H 0.85477 0.61178 0.75613 0.0
H1781 H 0.92885 0.57865 0.77878 0.0
H1782 H 0.90524 0.56532 0.78221 0.0
H1783 H 0.91287 0.58456 0.80002 0.0
C1784 C 0.84402 0.55308 0.77959 0.0
C1785 C 0.84643 0.55008 0.80056 0.0
C1786 C 0.85451 0.56875 0.76969 0.0
C1787 C 0.86741 0.58172 0.78065 0.0
C1788 C 0.86863 0.57957 0.8018 0.0
H1789 H 0.95499 0.67405 0.7412 0.0
H1790 H 0.92962 0.65578 0.76163 0.0
C1791 C 0.85846 0.56379 0.81161 0.0
C1792 C 0.88036 0.59682 0.76997 0.0
H1793 H 0.92978 0.61067 0.76255 0.0
C1794 C 0.87116 0.61155 0.75755 0.0
C1795 C 0.9018 0.59648 0.77175 0.0
C1796 C 0.91281 0.58029 0.78374 0.0
C1797 C 0.88282 0.62595 0.74695 0.0
C1798 C 0.90418 0.62559 0.74882 0.0
C1799 C 0.91336 0.61109 0.76142 0.0
C1800 C 0.91751 0.63874 0.73634 0.0
C1801 C 0.87227 0.64143 0.73376 0.0
C1802 C 0.91895 0.6353 0.71541 0.0
C1803 C 0.93349 0.64545 0.70385 0.0
C1804 C 0.94685 0.65937 0.71295 0.0
C1805 C 0.94481 0.66352 0.73377 0.0
C1806 C 0.93038 0.65308 0.74543 0.0
H1807 H 0.85589 0.6428 0.73755 0.0
H1808 H 0.8795 0.65658 0.73534 0.0
H1809 H 0.87358 0.63673 0.71764 0.0
H1810 H 0.90939 0.62409 0.70815 0.0
H1811 H 0.93463 0.64197 0.68782 0.0
H1812 H 0.85612 0.44572 0.1873 0.0
H1813 H 0.87446 0.41823 0.2041 0.0
H1814 H 0.85566 0.44145 0.26239 0.0
H1815 H 0.83655 0.46865 0.24549 0.0
H1816 H 0.90599 0.42339 0.22742 0.0
H1817 H 0.8481 0.38188 0.27185 0.0
H1818 H 0.84141 0.39993 0.25231 0.0
H1819 H 0.8481 0.40856 0.27735 0.0
C1820 C 0.85549 0.4447 0.2037 0.0
C1821 C 0.84491 0.45934 0.2151 0.0
C1822 C 0.86602 0.42898 0.21329 0.0
C1823 C 0.86641 0.42761 0.23454 0.0
C1824 C 0.85523 0.44182 0.24598 0.0
H1825 H 0.94712 0.37454 0.32079 0.0
H1826 H 0.92076 0.39265 0.3021 0.0
C1827 C 0.84437 0.45744 0.23632 0.0
C1828 C 0.88023 0.4127 0.24451 0.0
H1829 H 0.88291 0.37579 0.28097 0.0
C1830 C 0.90082 0.41277 0.23889 0.0
C1831 C 0.87358 0.39883 0.25953 0.0
C1832 C 0.85155 0.39712 0.26547 0.0
C1833 C 0.91498 0.39984 0.24823 0.0
C1834 C 0.90842 0.38643 0.26361 0.0
C1835 C 0.88784 0.38607 0.26909 0.0
C1836 C 0.92313 0.37397 0.27524 0.0
C1837 C 0.93702 0.40108 0.24215 0.0
C1838 C 0.93299 0.3572 0.26641 0.0
C1839 C 0.94811 0.34666 0.27714 0.0
C1840 C 0.9537 0.35292 0.29675 0.0
C1841 C 0.94335 0.36941 0.30564 0.0
C1842 C 0.92818 0.37974 0.29504 0.0
H1843 H 0.93997 0.41381 0.23148 0.0
H1844 H 0.9467 0.40307 0.25578 0.0
H1845 H 0.94162 0.38667 0.23469 0.0
H1846 H 0.92924 0.35251 0.25112 0.0
H1847 H 0.95578 0.33402 0.26989 0.0
H1848 H 0.61273 0.98569 0.31507 0.0
H1849 H 0.59003 0.96423 0.2948 0.0
H1850 H 0.64195 0.93459 0.26791 0.0
H1851 H 0.66451 0.95628 0.28748 0.0
H1852 H 0.61583 0.94513 0.23949 0.0
H1853 H 0.57414 0.90568 0.30103 0.0
H1854 H 0.57241 0.93286 0.30238 0.0
H1855 H 0.59658 0.92055 0.30577 0.0
C1856 C 0.61925 0.9744 0.30503 0.0
C1857 C 0.64042 0.97272 0.30289 0.0
C1858 C 0.60627 0.96208 0.29349 0.0
C1859 C 0.61424 0.9476 0.2799 0.0
C1860 C 0.63538 0.94565 0.27818 0.0
H1861 H 0.55122 0.84703 0.22345 0.0
H1862 H 0.57283 0.86932 0.24364 0.0
C1863 C 0.64828 0.95807 0.28946 0.0
C1864 C 0.60085 0.935 0.26672 0.0
H1865 H 0.56241 0.90025 0.26747 0.0
C1866 C 0.60415 0.9353 0.24564 0.0
C1867 C 0.58573 0.92199 0.27469 0.0
C1868 C 0.58209 0.92004 0.29721 0.0
C1869 C 0.59296 0.92293 0.23237 0.0
C1870 C 0.57754 0.91026 0.24028 0.0
C1871 C 0.57414 0.91003 0.26135 0.0
C1872 C 0.56513 0.89669 0.22711 0.0
C1873 C 0.59828 0.92311 0.21009 0.0
C1874 C 0.55368 0.90453 0.21089 0.0
C1875 C 0.54152 0.89172 0.19906 0.0
C1876 C 0.54025 0.87084 0.20346 0.0
C1877 C 0.55186 0.86301 0.21959 0.0
C1878 C 0.56416 0.87578 0.23124 0.0
H1879 H 0.61393 0.92879 0.20748 0.0
H1880 H 0.59702 0.9077 0.20338 0.0
H1881 H 0.58768 0.93338 0.20196 0.0
H1882 H 0.55374 0.92066 0.20765 0.0
H1883 H 0.53256 0.89831 0.18695 0.0
H1884 H 0.1513 0.5693 0.18504 0.0
H1885 H 0.13289 0.59672 0.20183 0.0
H1886 H 0.15732 0.5777 0.25954 0.0
H1887 H 0.17646 0.55055 0.24257 0.0
H1888 H 0.10358 0.59173 0.22815 0.0
H1889 H 0.1633 0.63807 0.26468 0.0
H1890 H 0.16902 0.61912 0.24571 0.0
H1891 H 0.1647 0.61177 0.27167 0.0
C1892 C 0.15308 0.57119 0.20127 0.0
C1893 C 0.16531 0.55774 0.2125 0.0
C1894 C 0.14252 0.58689 0.21086 0.0
C1895 C 0.14375 0.58945 0.23196 0.0
C1896 C 0.15645 0.5764 0.24319 0.0
H1897 H 0.06662 0.64761 0.31929 0.0
H1898 H 0.09271 0.62861 0.30099 0.0
C1899 C 0.16733 0.56081 0.2335 0.0
C1900 C 0.13021 0.60446 0.24218 0.0
H1901 H 0.12912 0.64411 0.27572 0.0
C1902 C 0.10926 0.60334 0.23833 0.0
C1903 C 0.13753 0.61963 0.25553 0.0
C1904 C 0.15988 0.62238 0.2595 0.0
C1905 C 0.09545 0.6166 0.24774 0.0
C1906 C 0.10273 0.63144 0.26136 0.0
C1907 C 0.12364 0.63274 0.26517 0.0
C1908 C 0.08855 0.64474 0.27273 0.0
C1909 C 0.07307 0.61431 0.24354 0.0
C1910 C 0.07786 0.66045 0.26298 0.0
C1911 C 0.06293 0.67149 0.27345 0.0
C1912 C 0.05835 0.66681 0.29376 0.0
C1913 C 0.06964 0.65152 0.30361 0.0
C1914 C 0.08464 0.64068 0.29322 0.0
H1915 H 0.0697 0.60055 0.23439 0.0
H1916 H 0.06447 0.61344 0.25801 0.0
H1917 H 0.06752 0.62783 0.23511 0.0
H1918 H 0.08072 0.6638 0.24714 0.0
H1919 H 0.0545 0.68315 0.26545 0.0
H1920 H 0.48325 0.15769 0.24045 0.0
H1921 H 0.46004 0.13612 0.26005 0.0
H1922 H 0.43844 0.10902 0.2046 0.0
H1923 H 0.46191 0.12993 0.18508 0.0
H1924 H 0.41928 0.13133 0.26088 0.0
H1925 H 0.45461 0.05914 0.2356 0.0
H1926 H 0.46606 0.08353 0.2308 0.0
H1927 H 0.44587 0.07444 0.21484 0.0
C1928 C 0.4735 0.14718 0.23245 0.0
C1929 C 0.47465 0.14537 0.21121 0.0
C1930 C 0.46024 0.13483 0.24367 0.0
C1931 C 0.44783 0.12051 0.23387 0.0
C1932 C 0.4483 0.11942 0.21261 0.0
H1933 H 0.35808 0.03268 0.27956 0.0
H1934 H 0.37712 0.0564 0.25785 0.0
C1935 C 0.46167 0.13153 0.20144 0.0
C1936 C 0.43452 0.10658 0.24581 0.0
H1937 H 0.42374 0.05637 0.25399 0.0
C1938 C 0.42031 0.11495 0.25938 0.0
C1939 C 0.43582 0.08513 0.24395 0.0
C1940 C 0.45154 0.07501 0.23067 0.0
C1941 C 0.40735 0.10252 0.27095 0.0
C1942 C 0.40861 0.08116 0.26894 0.0
C1943 C 0.42264 0.07276 0.2553 0.0
C1944 C 0.39653 0.06724 0.28196 0.0
C1945 C 0.39235 0.11225 0.28526 0.0
C1946 C 0.40126 0.06537 0.3026 0.0
C1947 C 0.39064 0.05175 0.31491 0.0
C1948 C 0.37491 0.03972 0.30691 0.0
C1949 C 0.37006 0.04173 0.28621 0.0
C1950 C 0.38091 0.05526 0.2738 0.0
H1951 H 0.3905 0.12876 0.28226 0.0
H1952 H 0.37731 0.10478 0.28401 0.0
H1953 H 0.39775 0.1103 0.30109 0.0
H1954 H 0.41338 0.0743 0.30916 0.0
H1955 H 0.39479 0.0507 0.33078 0.0
H1956 H 0.06084 0.33652 0.74479 0.0
H1957 H 0.08619 0.35706 0.76293 0.0
H1958 H 0.10212 0.38683 0.70684 0.0
H1959 H 0.07656 0.36705 0.68896 0.0
H1960 H 0.12754 0.36354 0.75962 0.0
H1961 H 0.08572 0.43443 0.74168 0.0
H1962 H 0.07505 0.40961 0.73738 0.0
H1963 H 0.09248 0.42044 0.71934 0.0
C1964 C 0.06991 0.34732 0.73637 0.0
C1965 C 0.06649 0.35044 0.71555 0.0
C1966 C 0.08436 0.35905 0.74671 0.0
C1967 C 0.09566 0.3739 0.73633 0.0
C1968 C 0.09315 0.37596 0.7153 0.0
H1969 H 0.18304 0.46719 0.77011 0.0
H1970 H 0.16535 0.43979 0.75204 0.0
C1971 C 0.07858 0.36456 0.70508 0.0
C1972 C 0.10942 0.38793 0.74739 0.0
H1973 H 0.11876 0.43834 0.75551 0.0
C1974 C 0.12558 0.37988 0.75879 0.0
C1975 C 0.10679 0.40929 0.74645 0.0
C1976 C 0.08895 0.41896 0.73573 0.0
C1977 C 0.13935 0.39267 0.76891 0.0
C1978 C 0.13692 0.41396 0.7675 0.0
C1979 C 0.12077 0.42199 0.75622 0.0
C1980 C 0.15004 0.42833 0.77872 0.0
C1981 C 0.15651 0.38346 0.78094 0.0
C1982 C 0.14745 0.43074 0.79968 0.0
C1983 C 0.15729 0.44645 0.80993 0.0
C1984 C 0.17003 0.46 0.79944 0.0
C1985 C 0.17345 0.45691 0.77861 0.0
C1986 C 0.16333 0.44131 0.76829 0.0
H1987 H 0.15821 0.36693 0.778 0.0
H1988 H 0.17101 0.39119 0.77725 0.0
H1989 H 0.15355 0.38568 0.79737 0.0
H1990 H 0.13708 0.42103 0.80795 0.0
H1991 H 0.15438 0.4484 0.826 0.0
H1992 H 0.52411 0.17893 0.76151 0.0
H1993 H 0.54433 0.15875 0.73742 0.0
H1994 H 0.55678 0.11485 0.78437 0.0
H1995 H 0.53675 0.13465 0.80834 0.0
H1996 H 0.58571 0.14584 0.73944 0.0
H1997 H 0.53345 0.08014 0.73796 0.0
H1998 H 0.526 0.10476 0.74755 0.0
H1999 H 0.54041 0.0876 0.76321 0.0
C2000 C 0.53122 0.16502 0.76671 0.0
C2001 C 0.52867 0.15839 0.78687 0.0
C2002 C 0.54273 0.15349 0.75291 0.0
C2003 C 0.55171 0.13506 0.75899 0.0
C2004 C 0.54962 0.12875 0.7792 0.0
H2005 H 0.65108 0.06305 0.71904 0.0
H2006 H 0.62743 0.08732 0.73389 0.0
C2007 C 0.53823 0.14023 0.79295 0.0
C2008 C 0.56358 0.12239 0.7445 0.0
H2009 H 0.5672 0.07412 0.72565 0.0
C2010 C 0.58152 0.13026 0.73618 0.0
C2011 C 0.55797 0.10214 0.73995 0.0
C2012 C 0.5383 0.09319 0.74746 0.0
C2013 C 0.59454 0.11807 0.72438 0.0
C2014 C 0.58962 0.0974 0.72102 0.0
C2015 C 0.57111 0.08988 0.72838 0.0
C2016 C 0.60409 0.083 0.71126 0.0
C2017 C 0.6136 0.12738 0.71582 0.0
C2018 C 0.59871 0.07201 0.69379 0.0
C2019 C 0.61226 0.05792 0.68521 0.0
C2020 C 0.63136 0.05439 0.69411 0.0
C2021 C 0.63657 0.06537 0.71168 0.0
C2022 C 0.6231 0.07943 0.72015 0.0
H2023 H 0.61204 0.14412 0.71414 0.0
H2024 H 0.6264 0.1244 0.72634 0.0
H2025 H 0.61746 0.12075 0.70081 0.0
H2026 H 0.58402 0.07436 0.68678 0.0
H2027 H 0.60773 0.0497 0.67173 0.0
H2028 H 0.47391 0.88166 0.80611 0.0
H2029 H 0.45105 0.89965 0.78333 0.0
H2030 H 0.46149 0.85457 0.73704 0.0
H2031 H 0.48455 0.83618 0.75998 0.0
H2032 H 0.46006 0.91616 0.74493 0.0
H2033 H 0.3987 0.85838 0.74095 0.0
H2034 H 0.418 0.85788 0.76038 0.0
H2035 H 0.42399 0.84985 0.73505 0.0
C2036 C 0.47137 0.87541 0.79113 0.0
C2037 C 0.4811 0.85737 0.78494 0.0
C2038 C 0.45827 0.8858 0.77809 0.0
C2039 C 0.4544 0.87843 0.75852 0.0
C2040 C 0.46403 0.86042 0.75218 0.0
H2041 H 0.39066 0.95785 0.67111 0.0
H2042 H 0.41522 0.93398 0.6858 0.0
C2043 C 0.47727 0.84996 0.76528 0.0
C2044 C 0.44051 0.89004 0.74495 0.0
H2045 H 0.39356 0.88887 0.72293 0.0
C2046 C 0.44562 0.91012 0.7399 0.0
C2047 C 0.42158 0.8822 0.73858 0.0
C2048 C 0.41505 0.86095 0.74407 0.0
C2049 C 0.43218 0.92272 0.72907 0.0
C2050 C 0.41316 0.91497 0.72286 0.0
C2051 C 0.40819 0.89475 0.72756 0.0
C2052 C 0.39765 0.92813 0.71292 0.0
C2053 C 0.4381 0.94451 0.72516 0.0
C2054 C 0.37929 0.93228 0.72292 0.0
C2055 C 0.36521 0.94585 0.71455 0.0
C2056 C 0.3691 0.95552 0.69589 0.0
C2057 C 0.38719 0.95077 0.68553 0.0
C2058 C 0.40131 0.93719 0.69396 0.0
H2059 H 0.45138 0.94919 0.7344 0.0
H2060 H 0.44214 0.94634 0.70891 0.0
H2061 H 0.42525 0.95493 0.72853 0.0
H2062 H 0.3761 0.92545 0.73753 0.0
H2063 H 0.35144 0.94905 0.72295 0.0
loop_
_geom_bond_atom_site_label_1
_geom_bond_atom_site_label_2
_geom_bond_distance
_geom_bond_site_symmetry_2
_ccdc_geom_bond_type
C0 O2 1.247 . S
C0 O4 1.258 . S
C1 O8 1.247 . S
C1 O9 1.258 . S
O2 C0 1.247 . S
O2 Zn3 2.028 . S
Zn3 O2 2.028 . S
Zn3 O7 2.035 . S
Zn3 O9 2.035 1_545 S
Zn3 O10 2.028 1_545 S
O4 C0 1.258 . S
O4 Zn5 2.035 . S
Zn5 O4 2.035 . S
Zn5 O6 2.028 . S
Zn5 O8 2.028 1_545 S
Zn5 O11 2.035 1_545 S
O6 Zn5 2.028 . S
O6 C12 1.247 . S
O7 Zn3 2.035 . S
O7 C12 1.258 . S
O8 C1 1.247 . S
O8 Zn5 2.028 1_565 S
O9 C1 1.258 . S
O9 Zn3 2.035 1_565 S
O10 Zn3 2.028 1_565 S
O10 C13 1.247 . S
O11 Zn5 2.035 1_565 S
O11 C13 1.258 . S
C12 O6 1.247 . S
C12 O7 1.258 . S
C13 O10 1.247 . S
C13 O11 1.258 . S
C14 O16 1.247 . S
C14 O18 1.258 . S
C15 O22 1.247 . S
C15 O23 1.258 . S
O16 C14 1.247 . S
O16 Zn17 2.028 . S
Zn17 O16 2.028 . S
Zn17 O21 2.035 . S
Zn17 O23 2.035 1_455 S
Zn17 O24 2.028 1_455 S
O18 C14 1.258 . S
O18 Zn19 2.035 . S
Zn19 O18 2.035 . S
Zn19 O20 2.028 . S
Zn19 O22 2.028 1_455 S
Zn19 O25 2.035 1_455 S
O20 Zn19 2.028 . S
O20 C26 1.247 . S
O21 Zn17 2.035 . S
O21 C26 1.258 . S
O22 C15 1.247 . S
O22 Zn19 2.028 1_655 S
O23 C15 1.258 . S
O23 Zn17 2.035 1_655 S
O24 Zn17 2.028 1_655 S
O24 C27 1.247 . S
O25 Zn19 2.035 1_655 S
O25 C27 1.258 . S
C26 O20 1.247 . S
C26 O21 1.258 . S
C27 O24 1.247 . S
C27 O25 1.258 . S
C28 O30 1.247 . S
C28 O32 1.258 . S
C29 O36 1.247 . S
C29 O37 1.258 . S
O30 C28 1.247 . S
O30 Zn31 2.028 1_565 S
Zn31 O30 2.028 1_545 S
Zn31 O35 2.035 1_545 S
Zn31 O37 2.035 . S
Zn31 O38 2.028 . S
O32 C28 1.258 . S
O32 Zn33 2.035 1_565 S
Zn33 O32 2.035 1_545 S
Zn33 O34 2.028 1_545 S
Zn33 O36 2.028 . S
Zn33 O39 2.035 . S
O34 Zn33 2.028 1_565 S
O34 C40 1.247 . S
O35 Zn31 2.035 1_565 S
O35 C40 1.258 . S
O36 C29 1.247 . S
O36 Zn33 2.028 . S
O37 C29 1.258 . S
O37 Zn31 2.035 . S
O38 Zn31 2.028 . S
O38 C41 1.247 . S
O39 Zn33 2.035 . S
O39 C41 1.258 . S
C40 O34 1.247 . S
C40 O35 1.258 . S
C41 O38 1.247 . S
C41 O39 1.258 . S
C42 O44 1.247 . S
C42 O46 1.258 . S
C43 O50 1.247 . S
C43 O51 1.258 . S
O44 C42 1.247 . S
O44 Zn45 2.028 . S
Zn45 O44 2.028 . S
Zn45 O49 2.035 . S
Zn45 O51 2.035 1_455 S
Zn45 O52 2.028 1_455 S
O46 C42 1.258 . S
O46 Zn47 2.035 . S
Zn47 O46 2.035 . S
Zn47 O48 2.028 . S
Zn47 O50 2.028 1_455 S
Zn47 O53 2.035 1_455 S
O48 Zn47 2.028 . S
O48 C54 1.247 . S
O49 Zn45 2.035 . S
O49 C54 1.258 . S
O50 C43 1.247 . S
O50 Zn47 2.028 1_655 S
O51 C43 1.258 . S
O51 Zn45 2.035 1_655 S
O52 Zn45 2.028 1_655 S
O52 C55 1.247 . S
O53 Zn47 2.035 1_655 S
O53 C55 1.258 . S
C54 O48 1.247 . S
C54 O49 1.258 . S
C55 O52 1.247 . S
C55 O53 1.258 . S
C56 O58 1.247 . S
C56 O60 1.258 . S
C57 O64 1.247 . S
C57 O65 1.258 . S
O58 C56 1.247 . S
O58 Zn59 2.028 . S
Zn59 O58 2.028 . S
Zn59 O63 2.035 . S
Zn59 O65 2.035 1_545 S
Zn59 O66 2.028 1_545 S
O60 C56 1.258 . S
O60 Zn61 2.035 . S
Zn61 O60 2.035 . S
Zn61 O62 2.028 . S
Zn61 O64 2.028 1_545 S
Zn61 O67 2.035 1_545 S
O62 Zn61 2.028 . S
O62 C68 1.247 . S
O63 Zn59 2.035 . S
O63 C68 1.258 . S
O64 C57 1.247 . S
O64 Zn61 2.028 1_565 S
O65 C57 1.258 . S
O65 Zn59 2.035 1_565 S
O66 Zn59 2.028 1_565 S
O66 C69 1.247 . S
O67 Zn61 2.035 1_565 S
O67 C69 1.258 . S
C68 O62 1.247 . S
C68 O63 1.258 . S
C69 O66 1.247 . S
C69 O67 1.258 . S
C70 O72 1.247 . S
C70 O74 1.258 . S
C71 O78 1.247 . S
C71 O79 1.258 . S
O72 C70 1.247 . S
O72 Zn73 2.028 . S
Zn73 O72 2.028 . S
Zn73 O77 2.035 . S
Zn73 O79 2.035 1_455 S
Zn73 O80 2.028 1_455 S
O74 C70 1.258 . S
O74 Zn75 2.035 . S
Zn75 O74 2.035 . S
Zn75 O76 2.028 . S
Zn75 O78 2.028 1_455 S
Zn75 O81 2.035 1_455 S
O76 Zn75 2.028 . S
O76 C82 1.247 . S
O77 Zn73 2.035 . S
O77 C82 1.258 . S
O78 C71 1.247 . S
O78 Zn75 2.028 1_655 S
O79 C71 1.258 . S
O79 Zn73 2.035 1_655 S
O80 Zn73 2.028 1_655 S
O80 C83 1.247 . S
O81 Zn75 2.035 1_655 S
O81 C83 1.258 . S
C82 O76 1.247 . S
C82 O77 1.258 . S
C83 O80 1.247 . S
C83 O81 1.258 . S
C84 O86 1.247 . S
C84 O88 1.258 . S
C85 O92 1.247 . S
C85 O93 1.258 . S
O86 C84 1.247 . S
O86 Zn87 2.028 . S
Zn87 O86 2.028 . S
Zn87 O91 2.035 . S
Zn87 O93 2.035 1_545 S
Zn87 O94 2.028 1_545 S
O88 C84 1.258 . S
O88 Zn89 2.035 . S
Zn89 O88 2.035 . S
Zn89 O90 2.028 . S
Zn89 O92 2.028 1_545 S
Zn89 O95 2.035 1_545 S
O90 Zn89 2.028 . S
O90 C96 1.247 . S
O91 Zn87 2.035 . S
O91 C96 1.258 . S
O92 C85 1.247 . S
O92 Zn89 2.028 1_565 S
O93 C85 1.258 . S
O93 Zn87 2.035 1_565 S
O94 Zn87 2.028 1_565 S
O94 C97 1.247 . S
O95 Zn89 2.035 1_565 S
O95 C97 1.258 . S
C96 O90 1.247 . S
C96 O91 1.258 . S
C97 O94 1.247 . S
C97 O95 1.258 . S
C98 O100 1.247 . S
C98 O102 1.258 . S
C99 O106 1.247 . S
C99 O107 1.258 . S
O100 C98 1.247 . S
O100 Zn101 2.028 1_655 S
Zn101 O100 2.028 1_455 S
Zn101 O105 2.035 1_455 S
Zn101 O107 2.035 . S
Zn101 O108 2.028 . S
O102 C98 1.258 . S
O102 Zn103 2.035 1_655 S
Zn103 O102 2.035 1_455 S
Zn103 O104 2.028 1_455 S
Zn103 O106 2.028 . S
Zn103 O109 2.035 . S
O104 Zn103 2.028 1_655 S
O104 C110 1.247 . S
O105 Zn101 2.035 1_655 S
O105 C110 1.258 . S
O106 C99 1.247 . S
O106 Zn103 2.028 . S
O107 C99 1.258 . S
O107 Zn101 2.035 . S
O108 Zn101 2.028 . S
O108 C111 1.247 . S
O109 Zn103 2.035 . S
O109 C111 1.258 . S
C110 O104 1.247 . S
C110 O105 1.258 . S
C111 O108 1.247 . S
C111 O109 1.258 . S
C112 O114 1.247 . S
C112 O116 1.258 . S
C113 O120 1.247 . S
C113 O121 1.258 . S
O114 C112 1.247 . S
O114 Zn115 2.028 . S
Zn115 O114 2.028 . S
Zn115 O119 2.035 . S
Zn115 O121 2.035 1_554 S
Zn115 O122 2.028 1_554 S
O116 C112 1.258 . S
O116 Zn117 2.035 . S
Zn117 O116 2.035 . S
Zn117 O118 2.028 . S
Zn117 O120 2.028 1_554 S
Zn117 O123 2.035 1_554 S
O118 Zn117 2.028 . S
O118 C124 1.247 . S
O119 Zn115 2.035 . S
O119 C124 1.258 . S
O120 C113 1.247 . S
O120 Zn117 2.028 1_556 S
O121 C113 1.258 . S
O121 Zn115 2.035 1_556 S
O122 Zn115 2.028 1_556 S
O122 C125 1.247 . S
O123 Zn117 2.035 1_556 S
O123 C125 1.258 . S
C124 O118 1.247 . S
C124 O119 1.258 . S
C125 O122 1.247 . S
C125 O123 1.258 . S
C126 O128 1.247 . S
C126 O130 1.258 . S
C127 O134 1.247 . S
C127 O135 1.258 . S
O128 C126 1.247 . S
O128 Zn129 2.028 . S
Zn129 O128 2.028 . S
Zn129 O133 2.035 . S
Zn129 O135 2.035 1_554 S
Zn129 O136 2.028 1_554 S
O130 C126 1.258 . S
O130 Zn131 2.035 . S
Zn131 O130 2.035 . S
Zn131 O132 2.028 . S
Zn131 O134 2.028 1_554 S
Zn131 O137 2.035 1_554 S
O132 Zn131 2.028 . S
O132 C138 1.247 . S
O133 Zn129 2.035 . S
O133 C138 1.258 . S
O134 C127 1.247 . S
O134 Zn131 2.028 1_556 S
O135 C127 1.258 . S
O135 Zn129 2.035 1_556 S
O136 Zn129 2.028 1_556 S
O136 C139 1.247 . S
O137 Zn131 2.035 1_556 S
O137 C139 1.258 . S
C138 O132 1.247 . S
C138 O133 1.258 . S
C139 O136 1.247 . S
C139 O137 1.258 . S
C140 O142 1.247 . S
C140 O144 1.258 . S
C141 O148 1.247 . S
C141 O149 1.258 . S
O142 C140 1.247 . S
O142 Zn143 2.028 . S
Zn143 O142 2.028 . S
Zn143 O147 2.035 . S
Zn143 O149 2.035 1_554 S
Zn143 O150 2.028 1_554 S
O144 C140 1.258 . S
O144 Zn145 2.035 . S
Zn145 O144 2.035 . S
Zn145 O146 2.028 . S
Zn145 O148 2.028 1_554 S
Zn145 O151 2.035 1_554 S
O146 Zn145 2.028 . S
O146 C152 1.247 . S
O147 Zn143 2.035 . S
O147 C152 1.258 . S
O148 C141 1.247 . S
O148 Zn145 2.028 1_556 S
O149 C141 1.258 . S
O149 Zn143 2.035 1_556 S
O150 Zn143 2.028 1_556 S
O150 C153 1.247 . S
O151 Zn145 2.035 1_556 S
O151 C153 1.258 . S
C152 O146 1.247 . S
C152 O147 1.258 . S
C153 O150 1.247 . S
C153 O151 1.258 . S
C154 O156 1.247 . S
C154 O158 1.258 . S
C155 O162 1.247 . S
C155 O163 1.258 . S
O156 C154 1.247 . S
O156 Zn157 2.028 1_556 S
Zn157 O156 2.028 1_554 S
Zn157 O161 2.035 1_554 S
Zn157 O163 2.035 . S
Zn157 O164 2.028 . S
O158 C154 1.258 . S
O158 Zn159 2.035 1_556 S
Zn159 O158 2.035 1_554 S
Zn159 O160 2.028 1_554 S
Zn159 O162 2.028 . S
Zn159 O165 2.035 . S
O160 Zn159 2.028 1_556 S
O160 C166 1.247 . S
O161 Zn157 2.035 1_556 S
O161 C166 1.258 . S
O162 C155 1.247 . S
O162 Zn159 2.028 . S
O163 C155 1.258 . S
O163 Zn157 2.035 . S
O164 Zn157 2.028 . S
O164 C167 1.247 . S
O165 Zn159 2.035 . S
O165 C167 1.258 . S
C166 O160 1.247 . S
C166 O161 1.258 . S
C167 O164 1.247 . S
C167 O165 1.258 . S
C168 O170 1.247 . S
C168 O172 1.258 . S
C169 O176 1.247 . S
C169 O177 1.258 . S
O170 C168 1.247 . S
O170 Zn171 2.028 . S
Zn171 O170 2.028 . S
Zn171 O175 2.035 . S
Zn171 O177 2.035 . S
Zn171 O178 2.028 . S
O172 C168 1.258 . S
O172 Zn173 2.035 . S
Zn173 O172 2.035 . S
Zn173 O174 2.028 . S
Zn173 O176 2.028 . S
Zn173 O179 2.035 . S
O174 Zn173 2.028 . S
O174 C180 1.247 . S
O175 Zn171 2.035 . S
O175 C180 1.258 . S
O176 C169 1.247 . S
O176 Zn173 2.028 . S
O177 C169 1.258 . S
O177 Zn171 2.035 . S
O178 Zn171 2.028 . S
O178 C181 1.247 . S
O179 Zn173 2.035 . S
O179 C181 1.258 . S
C180 O174 1.247 . S
C180 O175 1.258 . S
C181 O178 1.247 . S
C181 O179 1.258 . S
C182 O184 1.247 . S
C182 O186 1.258 . S
C183 O190 1.247 . S
C183 O191 1.258 . S
O184 C182 1.247 . S
O184 Zn185 2.028 . S
Zn185 O184 2.028 . S
Zn185 O189 2.035 . S
Zn185 O191 2.035 . S
Zn185 O192 2.028 . S
O186 C182 1.258 . S
O186 Zn187 2.035 . S
Zn187 O186 2.035 . S
Zn187 O188 2.028 . S
Zn187 O190 2.028 . S
Zn187 O193 2.035 . S
O188 Zn187 2.028 . S
O188 C194 1.247 . S
O189 Zn185 2.035 . S
O189 C194 1.258 . S
O190 C183 1.247 . S
O190 Zn187 2.028 . S
O191 C183 1.258 . S
O191 Zn185 2.035 . S
O192 Zn185 2.028 . S
O192 C195 1.247 . S
O193 Zn187 2.035 . S
O193 C195 1.258 . S
C194 O188 1.247 . S
C194 O189 1.258 . S
C195 O192 1.247 . S
C195 O193 1.258 . S
C196 O198 1.247 . S
C196 O200 1.258 . S
C197 O204 1.247 . S
C197 O205 1.258 . S
O198 C196 1.247 . S
O198 Zn199 2.028 . S
Zn199 O198 2.028 . S
Zn199 O203 2.035 . S
Zn199 O205 2.035 . S
Zn199 O206 2.028 . S
O200 C196 1.258 . S
O200 Zn201 2.035 . S
Zn201 O200 2.035 . S
Zn201 O202 2.028 . S
Zn201 O204 2.028 . S
Zn201 O207 2.035 . S
O202 Zn201 2.028 . S
O202 C208 1.247 . S
O203 Zn199 2.035 . S
O203 C208 1.258 . S
O204 C197 1.247 . S
O204 Zn201 2.028 . S
O205 C197 1.258 . S
O205 Zn199 2.035 . S
O206 Zn199 2.028 . S
O206 C209 1.247 . S
O207 Zn201 2.035 . S
O207 C209 1.258 . S
C208 O202 1.247 . S
C208 O203 1.258 . S
C209 O206 1.247 . S
C209 O207 1.258 . S
C210 O212 1.247 . S
C210 O214 1.258 . S
C211 O218 1.247 . S
C211 O219 1.258 . S
O212 C210 1.247 . S
O212 Zn213 2.028 . S
Zn213 O212 2.028 . S
Zn213 O217 2.035 . S
Zn213 O219 2.035 . S
Zn213 O220 2.028 . S
O214 C210 1.258 . S
O214 Zn215 2.035 . S
Zn215 O214 2.035 . S
Zn215 O216 2.028 . S
Zn215 O218 2.028 . S
Zn215 O221 2.035 . S
O216 Zn215 2.028 . S
O216 C222 1.247 . S
O217 Zn213 2.035 . S
O217 C222 1.258 . S
O218 C211 1.247 . S
O218 Zn215 2.028 . S
O219 C211 1.258 . S
O219 Zn213 2.035 . S
O220 Zn213 2.028 . S
O220 C223 1.247 . S
O221 Zn215 2.035 . S
O221 C223 1.258 . S
C222 O216 1.247 . S
C222 O217 1.258 . S
C223 O220 1.247 . S
C223 O221 1.258 . S
C224 O226 1.247 . S
C224 O228 1.258 . S
C225 O232 1.247 . S
C225 O233 1.258 . S
O226 C224 1.247 . S
O226 Zn227 2.028 . S
Zn227 O226 2.028 . S
Zn227 O231 2.035 . S
Zn227 O233 2.035 . S
Zn227 O234 2.028 . S
O228 C224 1.258 . S
O228 Zn229 2.035 . S
Zn229 O228 2.035 . S
Zn229 O230 2.028 . S
Zn229 O232 2.028 . S
Zn229 O235 2.035 . S
O230 Zn229 2.028 . S
O230 C236 1.247 . S
O231 Zn227 2.035 . S
O231 C236 1.258 . S
O232 C225 1.247 . S
O232 Zn229 2.028 . S
O233 C225 1.258 . S
O233 Zn227 2.035 . S
O234 Zn227 2.028 . S
O234 C237 1.247 . S
O235 Zn229 2.035 . S
O235 C237 1.258 . S
C236 O230 1.247 . S
C236 O231 1.258 . S
C237 O234 1.247 . S
C237 O235 1.258 . S
C238 O240 1.247 . S
C238 O242 1.258 . S
C239 O246 1.247 . S
C239 O247 1.258 . S
O240 C238 1.247 . S
O240 Zn241 2.028 . S
Zn241 O240 2.028 . S
Zn241 O245 2.035 . S
Zn241 O247 2.035 . S
Zn241 O248 2.028 . S
O242 C238 1.258 . S
O242 Zn243 2.035 . S
Zn243 O242 2.035 . S
Zn243 O244 2.028 . S
Zn243 O246 2.028 . S
Zn243 O249 2.035 . S
O244 Zn243 2.028 . S
O244 C250 1.247 . S
O245 Zn241 2.035 . S
O245 C250 1.258 . S
O246 C239 1.247 . S
O246 Zn243 2.028 . S
O247 C239 1.258 . S
O247 Zn241 2.035 . S
O248 Zn241 2.028 . S
O248 C251 1.247 . S
O249 Zn243 2.035 . S
O249 C251 1.258 . S
C250 O244 1.247 . S
C250 O245 1.258 . S
C251 O248 1.247 . S
C251 O249 1.258 . S
C252 O254 1.247 . S
C252 O256 1.258 . S
C253 O260 1.247 . S
C253 O261 1.258 . S
O254 C252 1.247 . S
O254 Zn255 2.028 . S
Zn255 O254 2.028 . S
Zn255 O259 2.035 . S
Zn255 O261 2.035 . S
Zn255 O262 2.028 . S
O256 C252 1.258 . S
O256 Zn257 2.035 . S
Zn257 O256 2.035 . S
Zn257 O258 2.028 . S
Zn257 O260 2.028 . S
Zn257 O263 2.035 . S
O258 Zn257 2.028 . S
O258 C264 1.247 . S
O259 Zn255 2.035 . S
O259 C264 1.258 . S
O260 C253 1.247 . S
O260 Zn257 2.028 . S
O261 C253 1.258 . S
O261 Zn255 2.035 . S
O262 Zn255 2.028 . S
O262 C265 1.247 . S
O263 Zn257 2.035 . S
O263 C265 1.258 . S
C264 O258 1.247 . S
C264 O259 1.258 . S
C265 O262 1.247 . S
C265 O263 1.258 . S
C266 O268 1.247 . S
C266 O270 1.258 . S
C267 O274 1.247 . S
C267 O275 1.258 . S
O268 C266 1.247 . S
O268 Zn269 2.028 . S
Zn269 O268 2.028 . S
Zn269 O273 2.035 . S
Zn269 O275 2.035 . S
Zn269 O276 2.028 . S
O270 C266 1.258 . S
O270 Zn271 2.035 . S
Zn271 O270 2.035 . S
Zn271 O272 2.028 . S
Zn271 O274 2.028 . S
Zn271 O277 2.035 . S
O272 Zn271 2.028 . S
O272 C278 1.247 . S
O273 Zn269 2.035 . S
O273 C278 1.258 . S
O274 C267 1.247 . S
O274 Zn271 2.028 . S
O275 C267 1.258 . S
O275 Zn269 2.035 . S
O276 Zn269 2.028 . S
O276 C279 1.247 . S
O277 Zn271 2.035 . S
O277 C279 1.258 . S
C278 O272 1.247 . S
C278 O273 1.258 . S
C279 O276 1.247 . S
C279 O277 1.258 . S
C280 O282 1.247 . S
C280 O284 1.258 . S
C281 O288 1.247 . S
C281 O289 1.258 . S
O282 C280 1.247 . S
O282 Zn283 2.028 . S
Zn283 O282 2.028 . S
Zn283 O287 2.035 . S
Zn283 O289 2.035 . S
Zn283 O290 2.028 . S
O284 C280 1.258 . S
O284 Zn285 2.035 . S
Zn285 O284 2.035 . S
Zn285 O286 2.028 . S
Zn285 O288 2.028 . S
Zn285 O291 2.035 . S
O286 Zn285 2.028 . S
O286 C292 1.247 . S
O287 Zn283 2.035 . S
O287 C292 1.258 . S
O288 C281 1.247 . S
O288 Zn285 2.028 . S
O289 C281 1.258 . S
O289 Zn283 2.035 . S
O290 Zn283 2.028 . S
O290 C293 1.247 . S
O291 Zn285 2.035 . S
O291 C293 1.258 . S
C292 O286 1.247 . S
C292 O287 1.258 . S
C293 O290 1.247 . S
C293 O291 1.258 . S
C294 O296 1.247 . S
C294 O298 1.258 . S
C295 O302 1.247 . S
C295 O303 1.258 . S
O296 C294 1.247 . S
O296 Zn297 2.028 . S
Zn297 O296 2.028 . S
Zn297 O301 2.035 . S
Zn297 O303 2.035 . S
Zn297 O304 2.028 . S
O298 C294 1.258 . S
O298 Zn299 2.035 . S
Zn299 O298 2.035 . S
Zn299 O300 2.028 . S
Zn299 O302 2.028 . S
Zn299 O305 2.035 . S
O300 Zn299 2.028 . S
O300 C306 1.247 . S
O301 Zn297 2.035 . S
O301 C306 1.258 . S
O302 C295 1.247 . S
O302 Zn299 2.028 . S
O303 C295 1.258 . S
O303 Zn297 2.035 . S
O304 Zn297 2.028 . S
O304 C307 1.247 . S
O305 Zn299 2.035 . S
O305 C307 1.258 . S
C306 O300 1.247 . S
C306 O301 1.258 . S
C307 O304 1.247 . S
C307 O305 1.258 . S
C308 O310 1.247 . S
C308 O312 1.258 . S
C309 O316 1.247 . S
C309 O317 1.258 . S
O310 C308 1.247 . S
O310 Zn311 2.028 . S
Zn311 O310 2.028 . S
Zn311 O315 2.035 . S
Zn311 O317 2.035 . S
Zn311 O318 2.028 . S
O312 C308 1.258 . S
O312 Zn313 2.035 . S
Zn313 O312 2.035 . S
Zn313 O314 2.028 . S
Zn313 O316 2.028 . S
Zn313 O319 2.035 . S
O314 Zn313 2.028 . S
O314 C320 1.247 . S
O315 Zn311 2.035 . S
O315 C320 1.258 . S
O316 C309 1.247 . S
O316 Zn313 2.028 . S
O317 C309 1.258 . S
O317 Zn311 2.035 . S
O318 Zn311 2.028 . S
O318 C321 1.247 . S
O319 Zn313 2.035 . S
O319 C321 1.258 . S
C320 O314 1.247 . S
C320 O315 1.258 . S
C321 O318 1.247 . S
C321 O319 1.258 . S
C322 O324 1.247 . S
C322 O326 1.258 . S
C323 O330 1.247 . S
C323 O331 1.258 . S
O324 C322 1.247 . S
O324 Zn325 2.028 . S
Zn325 O324 2.028 . S
Zn325 O329 2.035 . S
Zn325 O331 2.035 . S
Zn325 O332 2.028 . S
O326 C322 1.258 . S
O326 Zn327 2.035 . S
Zn327 O326 2.035 . S
Zn327 O328 2.028 . S
Zn327 O330 2.028 . S
Zn327 O333 2.035 . S
O328 Zn327 2.028 . S
O328 C334 1.247 . S
O329 Zn325 2.035 . S
O329 C334 1.258 . S
O330 C323 1.247 . S
O330 Zn327 2.028 . S
O331 C323 1.258 . S
O331 Zn325 2.035 . S
O332 Zn325 2.028 . S
O332 C335 1.247 . S
O333 Zn327 2.035 . S
O333 C335 1.258 . S
C334 O328 1.247 . S
C334 O329 1.258 . S
C335 O332 1.247 . S
C335 O333 1.258 . S
H336 C344 0.929 . S
H337 C346 0.930 . S
H338 C348 0.930 . S
H339 C351 0.929 . S
H340 C354 0.930 . S
H341 C356 0.960 . S
H342 C356 0.960 . S
H343 C356 0.960 . S
C344 H336 0.929 . S
C344 C345 1.377 . S
C344 C346 1.384 . S
C345 C344 1.377 . S
C345 C351 1.390 . S
C346 H337 0.930 . S
C346 C344 1.384 . S
C346 C347 1.372 . S
C347 C346 1.372 . S
C347 C348 1.400 . S
C347 C352 1.490 . S
C348 H338 0.930 . S
C348 C347 1.400 . S
C348 C351 1.386 . S
H349 C365 0.930 . S
H350 C366 0.931 . S
C351 H339 0.929 . S
C351 C345 1.390 . S
C351 C348 1.386 . S
C352 C347 1.490 . S
C352 C354 1.395 . S
C352 C355 1.403 . S
H353 C359 0.930 . S
C354 H340 0.930 . S
C354 C352 1.395 . S
C354 C357 1.403 . S
C355 C352 1.403 . S
C355 C356 1.524 . S
C355 C359 1.400 . S
C356 H341 0.960 . S
C356 H342 0.960 . S
C356 H343 0.960 . S
C356 C355 1.524 . S
C357 C354 1.403 . S
C357 C358 1.392 . S
C357 C361 1.495 . S
C358 C357 1.392 . S
C358 C359 1.385 . S
C358 C360 1.478 . S
C359 H353 0.930 . S
C359 C355 1.400 . S
C359 C358 1.385 . S
C360 C358 1.478 . S
C360 C362 1.381 . S
C360 C366 1.383 . S
C361 C357 1.495 . S
C361 H367 0.959 . S
C361 H368 0.961 . S
C361 H369 0.960 . S
C362 C360 1.381 . S
C362 C363 1.394 . S
C362 H370 0.930 . S
C363 C362 1.394 . S
C363 C364 1.383 . S
C363 H371 0.929 . S
C364 C363 1.383 . S
C364 C365 1.377 . S
C365 H349 0.930 . S
C365 C364 1.377 . S
C365 C366 1.379 . S
C366 H350 0.931 . S
C366 C360 1.383 . S
C366 C365 1.379 . S
H367 C361 0.959 . S
H368 C361 0.961 . S
H369 C361 0.960 . S
H370 C362 0.930 . S
H371 C363 0.929 . S
H372 C380 0.929 . S
H373 C382 0.930 . S
H374 C384 0.930 . S
H375 C387 0.929 . S
H376 C390 0.930 . S
H377 C392 0.960 . S
H378 C392 0.960 . S
H379 C392 0.960 . S
C380 H372 0.929 . S
C380 C381 1.377 . S
C380 C382 1.384 . S
C381 C380 1.377 . S
C381 C387 1.390 . S
C382 H373 0.930 . S
C382 C380 1.384 . S
C382 C383 1.372 . S
C383 C382 1.372 . S
C383 C384 1.400 . S
C383 C388 1.490 . S
C384 H374 0.930 . S
C384 C383 1.400 . S
C384 C387 1.386 . S
H385 C401 0.930 . S
H386 C402 0.931 . S
C387 H375 0.929 . S
C387 C381 1.390 . S
C387 C384 1.386 . S
C388 C383 1.490 . S
C388 C390 1.395 . S
C388 C391 1.403 . S
H389 C395 0.930 . S
C390 H376 0.930 . S
C390 C388 1.395 . S
C390 C393 1.403 . S
C391 C388 1.403 . S
C391 C392 1.524 . S
C391 C395 1.400 . S
C392 H377 0.960 . S
C392 H378 0.960 . S
C392 H379 0.960 . S
C392 C391 1.524 . S
C393 C390 1.403 . S
C393 C394 1.392 . S
C393 C397 1.495 . S
C394 C393 1.392 . S
C394 C395 1.385 . S
C394 C396 1.478 . S
C395 H389 0.930 . S
C395 C391 1.400 . S
C395 C394 1.385 . S
C396 C394 1.478 . S
C396 C398 1.381 . S
C396 C402 1.383 . S
C397 C393 1.495 . S
C397 H403 0.959 . S
C397 H404 0.961 . S
C397 H405 0.960 . S
C398 C396 1.381 . S
C398 C399 1.394 . S
C398 H406 0.930 . S
C399 C398 1.394 . S
C399 C400 1.383 . S
C399 H407 0.929 . S
C400 C399 1.383 . S
C400 C401 1.377 . S
C401 H385 0.930 . S
C401 C400 1.377 . S
C401 C402 1.379 . S
C402 H386 0.931 . S
C402 C396 1.383 . S
C402 C401 1.379 . S
H403 C397 0.959 . S
H404 C397 0.961 . S
H405 C397 0.960 . S
H406 C398 0.930 . S
H407 C399 0.929 . S
H408 C416 0.929 . S
H409 C418 0.930 . S
H410 C420 0.930 . S
H411 C423 0.929 . S
H412 C426 0.930 . S
H413 C428 0.960 . S
H414 C428 0.960 . S
H415 C428 0.960 . S
C416 H408 0.929 . S
C416 C417 1.377 . S
C416 C418 1.384 . S
C417 C416 1.377 . S
C417 C423 1.390 . S
C418 H409 0.930 . S
C418 C416 1.384 . S
C418 C419 1.372 . S
C419 C418 1.372 . S
C419 C420 1.400 . S
C419 C424 1.490 . S
C420 H410 0.930 . S
C420 C419 1.400 . S
C420 C423 1.386 . S
H421 C437 0.930 . S
H422 C438 0.931 . S
C423 H411 0.929 . S
C423 C417 1.390 . S
C423 C420 1.386 . S
C424 C419 1.490 . S
C424 C426 1.395 . S
C424 C427 1.403 . S
H425 C431 0.930 . S
C426 H412 0.930 . S
C426 C424 1.395 . S
C426 C429 1.403 . S
C427 C424 1.403 . S
C427 C428 1.524 . S
C427 C431 1.400 . S
C428 H413 0.960 . S
C428 H414 0.960 . S
C428 H415 0.960 . S
C428 C427 1.524 . S
C429 C426 1.403 . S
C429 C430 1.392 . S
C429 C433 1.495 . S
C430 C429 1.392 . S
C430 C431 1.385 . S
C430 C432 1.478 . S
C431 H425 0.930 . S
C431 C427 1.400 . S
C431 C430 1.385 . S
C432 C430 1.478 . S
C432 C434 1.381 . S
C432 C438 1.383 . S
C433 C429 1.495 . S
C433 H439 0.959 . S
C433 H440 0.961 . S
C433 H441 0.960 . S
C434 C432 1.381 . S
C434 C435 1.394 . S
C434 H442 0.930 . S
C435 C434 1.394 . S
C435 C436 1.383 . S
C435 H443 0.929 . S
C436 C435 1.383 . S
C436 C437 1.377 . S
C437 H421 0.930 . S
C437 C436 1.377 . S
C437 C438 1.379 . S
C438 H422 0.931 . S
C438 C432 1.383 . S
C438 C437 1.379 . S
H439 C433 0.959 . S
H440 C433 0.961 . S
H441 C433 0.960 . S
H442 C434 0.930 . S
H443 C435 0.929 . S
H444 C452 0.929 . S
H445 C454 0.930 . S
H446 C456 0.930 . S
H447 C459 0.929 . S
H448 C462 0.930 . S
H449 C464 0.960 . S
H450 C464 0.960 . S
H451 C464 0.960 . S
C452 H444 0.929 . S
C452 C453 1.377 . S
C452 C454 1.384 . S
C453 C452 1.377 . S
C453 C459 1.390 . S
C454 H445 0.930 . S
C454 C452 1.384 . S
C454 C455 1.372 . S
C455 C454 1.372 . S
C455 C456 1.400 . S
C455 C460 1.490 . S
C456 H446 0.930 . S
C456 C455 1.400 . S
C456 C459 1.386 . S
H457 C473 0.930 . S
H458 C474 0.931 . S
C459 H447 0.929 . S
C459 C453 1.390 . S
C459 C456 1.386 . S
C460 C455 1.490 . S
C460 C462 1.395 . S
C460 C463 1.403 . S
H461 C467 0.930 . S
C462 H448 0.930 . S
C462 C460 1.395 . S
C462 C465 1.403 . S
C463 C460 1.403 . S
C463 C464 1.524 . S
C463 C467 1.400 . S
C464 H449 0.960 . S
C464 H450 0.960 . S
C464 H451 0.960 . S
C464 C463 1.524 . S
C465 C462 1.403 . S
C465 C466 1.392 . S
C465 C469 1.495 . S
C466 C465 1.392 . S
C466 C467 1.385 . S
C466 C468 1.478 . S
C467 H461 0.930 . S
C467 C463 1.400 . S
C467 C466 1.385 . S
C468 C466 1.478 . S
C468 C470 1.381 . S
C468 C474 1.383 . S
C469 C465 1.495 . S
C469 H475 0.959 . S
C469 H476 0.961 . S
C469 H477 0.960 . S
C470 C468 1.381 . S
C470 C471 1.394 . S
C470 H478 0.930 . S
C471 C470 1.394 . S
C471 C472 1.383 . S
C471 H479 0.929 . S
C472 C471 1.383 . S
C472 C473 1.377 . S
C473 H457 0.930 . S
C473 C472 1.377 . S
C473 C474 1.379 . S
C474 H458 0.931 . S
C474 C468 1.383 . S
C474 C473 1.379 . S
H475 C469 0.959 . S
H476 C469 0.961 . S
H477 C469 0.960 . S
H478 C470 0.930 . S
H479 C471 0.929 . S
H480 C488 0.929 . S
H481 C490 0.930 . S
H482 C492 0.930 . S
H483 C495 0.929 . S
H484 C498 0.930 . S
H485 C500 0.960 . S
H486 C500 0.960 . S
H487 C500 0.960 . S
C488 H480 0.929 . S
C488 C489 1.377 . S
C488 C490 1.384 . S
C489 C488 1.377 . S
C489 C495 1.390 . S
C490 H481 0.930 . S
C490 C488 1.384 . S
C490 C491 1.372 . S
C491 C490 1.372 . S
C491 C492 1.400 . S
C491 C496 1.490 . S
C492 H482 0.930 . S
C492 C491 1.400 . S
C492 C495 1.386 . S
H493 C509 0.930 . S
H494 C510 0.931 . S
C495 H483 0.929 . S
C495 C489 1.390 . S
C495 C492 1.386 . S
C496 C491 1.490 . S
C496 C498 1.395 . S
C496 C499 1.403 . S
H497 C503 0.930 . S
C498 H484 0.930 . S
C498 C496 1.395 . S
C498 C501 1.403 . S
C499 C496 1.403 . S
C499 C500 1.524 . S
C499 C503 1.400 . S
C500 H485 0.960 . S
C500 H486 0.960 . S
C500 H487 0.960 . S
C500 C499 1.524 . S
C501 C498 1.403 . S
C501 C502 1.392 . S
C501 C505 1.495 . S
C502 C501 1.392 . S
C502 C503 1.385 . S
C502 C504 1.478 . S
C503 H497 0.930 . S
C503 C499 1.400 . S
C503 C502 1.385 . S
C504 C502 1.478 . S
C504 C506 1.381 . S
C504 C510 1.383 . S
C505 C501 1.495 . S
C505 H511 0.959 . S
C505 H512 0.961 . S
C505 H513 0.960 . S
C506 C504 1.381 . S
C506 C507 1.394 . S
C506 H514 0.930 . S
C507 C506 1.394 . S
C507 C508 1.383 . S
C507 H515 0.929 . S
C508 C507 1.383 . S
C508 C509 1.377 . S
C509 H493 0.930 . S
C509 C508 1.377 . S
C509 C510 1.379 . S
C510 H494 0.931 . S
C510 C504 1.383 . S
C510 C509 1.379 . S
H511 C505 0.959 . S
H512 C505 0.961 . S
H513 C505 0.960 . S
H514 C506 0.930 . S
H515 C507 0.929 . S
H516 C524 0.929 . S
H517 C526 0.930 . S
H518 C528 0.930 . S
H519 C531 0.929 . S
H520 C534 0.930 . S
H521 C536 0.960 . S
H522 C536 0.960 . S
H523 C536 0.960 . S
C524 H516 0.929 . S
C524 C525 1.377 . S
C524 C526 1.384 . S
C525 C524 1.377 . S
C525 C531 1.390 . S
C526 H517 0.930 . S
C526 C524 1.384 . S
C526 C527 1.372 . S
C527 C526 1.372 . S
C527 C528 1.400 . S
C527 C532 1.490 . S
C528 H518 0.930 . S
C528 C527 1.400 . S
C528 C531 1.386 . S
H529 C545 0.930 . S
H530 C546 0.931 . S
C531 H519 0.929 . S
C531 C525 1.390 . S
C531 C528 1.386 . S
C532 C527 1.490 . S
C532 C534 1.395 . S
C532 C535 1.403 . S
H533 C539 0.930 . S
C534 H520 0.930 . S
C534 C532 1.395 . S
C534 C537 1.403 . S
C535 C532 1.403 . S
C535 C536 1.524 . S
C535 C539 1.400 . S
C536 H521 0.960 . S
C536 H522 0.960 . S
C536 H523 0.960 . S
C536 C535 1.524 . S
C537 C534 1.403 . S
C537 C538 1.392 . S
C537 C541 1.495 . S
C538 C537 1.392 . S
C538 C539 1.385 . S
C538 C540 1.478 . S
C539 H533 0.930 . S
C539 C535 1.400 . S
C539 C538 1.385 . S
C540 C538 1.478 . S
C540 C542 1.381 . S
C540 C546 1.383 . S
C541 C537 1.495 . S
C541 H547 0.959 . S
C541 H548 0.961 . S
C541 H549 0.960 . S
C542 C540 1.381 . S
C542 C543 1.394 . S
C542 H550 0.930 . S
C543 C542 1.394 . S
C543 C544 1.383 . S
C543 H551 0.929 . S
C544 C543 1.383 . S
C544 C545 1.377 . S
C545 H529 0.930 . S
C545 C544 1.377 . S
C545 C546 1.379 . S
C546 H530 0.931 . S
C546 C540 1.383 . S
C546 C545 1.379 . S
H547 C541 0.959 . S
H548 C541 0.961 . S
H549 C541 0.960 . S
H550 C542 0.930 . S
H551 C543 0.929 . S
H552 C560 0.929 . S
H553 C562 0.930 . S
H554 C564 0.930 . S
H555 C567 0.929 . S
H556 C570 0.930 . S
H557 C572 0.960 . S
H558 C572 0.960 . S
H559 C572 0.960 . S
C560 H552 0.929 . S
C560 C561 1.377 . S
C560 C562 1.384 . S
C561 C560 1.377 . S
C561 C567 1.390 . S
C562 H553 0.930 . S
C562 C560 1.384 . S
C562 C563 1.372 . S
C563 C562 1.372 . S
C563 C564 1.400 . S
C563 C568 1.490 . S
C564 H554 0.930 . S
C564 C563 1.400 . S
C564 C567 1.386 . S
H565 C581 0.930 . S
H566 C582 0.931 . S
C567 H555 0.929 . S
C567 C561 1.390 . S
C567 C564 1.386 . S
C568 C563 1.490 . S
C568 C570 1.395 . S
C568 C571 1.403 . S
H569 C575 0.930 . S
C570 H556 0.930 . S
C570 C568 1.395 . S
C570 C573 1.403 . S
C571 C568 1.403 . S
C571 C572 1.524 . S
C571 C575 1.400 . S
C572 H557 0.960 . S
C572 H558 0.960 . S
C572 H559 0.960 . S
C572 C571 1.524 . S
C573 C570 1.403 . S
C573 C574 1.392 . S
C573 C577 1.495 . S
C574 C573 1.392 . S
C574 C575 1.385 . S
C574 C576 1.478 . S
C575 H569 0.930 . S
C575 C571 1.400 . S
C575 C574 1.385 . S
C576 C574 1.478 . S
C576 C578 1.381 . S
C576 C582 1.383 . S
C577 C573 1.495 . S
C577 H583 0.959 . S
C577 H584 0.961 . S
C577 H585 0.960 . S
C578 C576 1.381 . S
C578 C579 1.394 . S
C578 H586 0.930 . S
C579 C578 1.394 . S
C579 C580 1.383 . S
C579 H587 0.929 . S
C580 C579 1.383 . S
C580 C581 1.377 . S
C581 H565 0.930 . S
C581 C580 1.377 . S
C581 C582 1.379 . S
C582 H566 0.931 . S
C582 C576 1.383 . S
C582 C581 1.379 . S
H583 C577 0.959 . S
H584 C577 0.961 . S
H585 C577 0.960 . S
H586 C578 0.930 . S
H587 C579 0.929 . S
H588 C596 0.929 . S
H589 C598 0.930 . S
H590 C600 0.930 . S
H591 C603 0.929 . S
H592 C606 0.930 . S
H593 C608 0.960 . S
H594 C608 0.960 . S
H595 C608 0.960 . S
C596 H588 0.929 . S
C596 C597 1.377 . S
C596 C598 1.384 . S
C597 C596 1.377 . S
C597 C603 1.390 . S
C598 H589 0.930 . S
C598 C596 1.384 . S
C598 C599 1.372 . S
C599 C598 1.372 . S
C599 C600 1.400 . S
C599 C604 1.490 . S
C600 H590 0.930 . S
C600 C599 1.400 . S
C600 C603 1.386 . S
H601 C617 0.930 . S
H602 C618 0.931 . S
C603 H591 0.929 . S
C603 C597 1.390 . S
C603 C600 1.386 . S
C604 C599 1.490 . S
C604 C606 1.395 . S
C604 C607 1.403 . S
H605 C611 0.930 . S
C606 H592 0.930 . S
C606 C604 1.395 . S
C606 C609 1.403 . S
C607 C604 1.403 . S
C607 C608 1.524 . S
C607 C611 1.400 . S
C608 H593 0.960 . S
C608 H594 0.960 . S
C608 H595 0.960 . S
C608 C607 1.524 . S
C609 C606 1.403 . S
C609 C610 1.392 . S
C609 C613 1.495 . S
C610 C609 1.392 . S
C610 C611 1.385 . S
C610 C612 1.478 . S
C611 H605 0.930 . S
C611 C607 1.400 . S
C611 C610 1.385 . S
C612 C610 1.478 . S
C612 C614 1.381 . S
C612 C618 1.383 . S
C613 C609 1.495 . S
C613 H619 0.959 . S
C613 H620 0.961 . S
C613 H621 0.960 . S
C614 C612 1.381 . S
C614 C615 1.394 . S
C614 H622 0.930 . S
C615 C614 1.394 . S
C615 C616 1.383 . S
C615 H623 0.929 . S
C616 C615 1.383 . S
C616 C617 1.377 . S
C617 H601 0.930 . S
C617 C616 1.377 . S
C617 C618 1.379 . S
C618 H602 0.931 . S
C618 C612 1.383 . S
C618 C617 1.379 . S
H619 C613 0.959 . S
H620 C613 0.961 . S
H621 C613 0.960 . S
H622 C614 0.930 . S
H623 C615 0.929 . S
H624 C632 0.929 . S
H625 C634 0.930 . S
H626 C636 0.930 . S
H627 C639 0.929 . S
H628 C642 0.930 . S
H629 C644 0.960 . S
H630 C644 0.960 . S
H631 C644 0.960 . S
C632 H624 0.929 . S
C632 C633 1.377 . S
C632 C634 1.384 . S
C633 C632 1.377 . S
C633 C639 1.390 . S
C634 H625 0.930 . S
C634 C632 1.384 . S
C634 C635 1.372 . S
C635 C634 1.372 . S
C635 C636 1.400 . S
C635 C640 1.490 . S
C636 H626 0.930 . S
C636 C635 1.400 . S
C636 C639 1.386 . S
H637 C653 0.930 . S
H638 C654 0.931 . S
C639 H627 0.929 . S
C639 C633 1.390 . S
C639 C636 1.386 . S
C640 C635 1.490 . S
C640 C642 1.395 . S
C640 C643 1.403 . S
H641 C647 0.930 . S
C642 H628 0.930 . S
C642 C640 1.395 . S
C642 C645 1.403 . S
C643 C640 1.403 . S
C643 C644 1.524 . S
C643 C647 1.400 . S
C644 H629 0.960 . S
C644 H630 0.960 . S
C644 H631 0.960 . S
C644 C643 1.524 . S
C645 C642 1.403 . S
C645 C646 1.392 . S
C645 C649 1.495 . S
C646 C645 1.392 . S
C646 C647 1.385 . S
C646 C648 1.478 . S
C647 H641 0.930 . S
C647 C643 1.400 . S
C647 C646 1.385 . S
C648 C646 1.478 . S
C648 C650 1.381 . S
C648 C654 1.383 . S
C649 C645 1.495 . S
C649 H655 0.959 . S
C649 H656 0.961 . S
C649 H657 0.960 . S
C650 C648 1.381 . S
C650 C651 1.394 . S
C650 H658 0.930 . S
C651 C650 1.394 . S
C651 C652 1.383 . S
C651 H659 0.929 . S
C652 C651 1.383 . S
C652 C653 1.377 . S
C653 H637 0.930 . S
C653 C652 1.377 . S
C653 C654 1.379 . S
C654 H638 0.931 . S
C654 C648 1.383 . S
C654 C653 1.379 . S
H655 C649 0.959 . S
H656 C649 0.961 . S
H657 C649 0.960 . S
H658 C650 0.930 . S
H659 C651 0.929 . S
H660 C668 0.929 . S
H661 C670 0.930 . S
H662 C672 0.930 . S
H663 C675 0.929 . S
H664 C678 0.930 . S
H665 C680 0.960 . S
H666 C680 0.960 . S
H667 C680 0.960 . S
C668 H660 0.929 . S
C668 C669 1.377 . S
C668 C670 1.384 . S
C669 C668 1.377 . S
C669 C675 1.390 . S
C670 H661 0.930 . S
C670 C668 1.384 . S
C670 C671 1.372 . S
C671 C670 1.372 . S
C671 C672 1.400 . S
C671 C676 1.490 . S
C672 H662 0.930 . S
C672 C671 1.400 . S
C672 C675 1.386 . S
H673 C689 0.930 . S
H674 C690 0.931 . S
C675 H663 0.929 . S
C675 C669 1.390 . S
C675 C672 1.386 . S
C676 C671 1.490 . S
C676 C678 1.395 . S
C676 C679 1.403 . S
H677 C683 0.930 . S
C678 H664 0.930 . S
C678 C676 1.395 . S
C678 C681 1.403 . S
C679 C676 1.403 . S
C679 C680 1.524 . S
C679 C683 1.400 . S
C680 H665 0.960 . S
C680 H666 0.960 . S
C680 H667 0.960 . S
C680 C679 1.524 . S
C681 C678 1.403 . S
C681 C682 1.392 . S
C681 C685 1.495 . S
C682 C681 1.392 . S
C682 C683 1.385 . S
C682 C684 1.478 . S
C683 H677 0.930 . S
C683 C679 1.400 . S
C683 C682 1.385 . S
C684 C682 1.478 . S
C684 C686 1.381 . S
C684 C690 1.383 . S
C685 C681 1.495 . S
C685 H691 0.959 . S
C685 H692 0.961 . S
C685 H693 0.960 . S
C686 C684 1.381 . S
C686 C687 1.394 . S
C686 H694 0.930 . S
C687 C686 1.394 . S
C687 C688 1.383 . S
C687 H695 0.929 . S
C688 C687 1.383 . S
C688 C689 1.377 . S
C689 H673 0.930 . S
C689 C688 1.377 . S
C689 C690 1.379 . S
C690 H674 0.931 . S
C690 C684 1.383 . S
C690 C689 1.379 . S
H691 C685 0.959 . S
H692 C685 0.961 . S
H693 C685 0.960 . S
H694 C686 0.930 . S
H695 C687 0.929 . S
H696 C704 0.929 . S
H697 C706 0.930 . S
H698 C708 0.930 . S
H699 C711 0.929 . S
H700 C714 0.930 . S
H701 C716 0.960 . S
H702 C716 0.960 . S
H703 C716 0.960 . S
C704 H696 0.929 . S
C704 C705 1.377 . S
C704 C706 1.384 . S
C705 C704 1.377 . S
C705 C711 1.390 . S
C706 H697 0.930 . S
C706 C704 1.384 . S
C706 C707 1.372 . S
C707 C706 1.372 . S
C707 C708 1.400 . S
C707 C712 1.490 . S
C708 H698 0.930 . S
C708 C707 1.400 . S
C708 C711 1.386 . S
H709 C725 0.930 . S
H710 C726 0.931 . S
C711 H699 0.929 . S
C711 C705 1.390 . S
C711 C708 1.386 . S
C712 C707 1.490 . S
C712 C714 1.395 . S
C712 C715 1.403 . S
H713 C719 0.930 . S
C714 H700 0.930 . S
C714 C712 1.395 . S
C714 C717 1.403 . S
C715 C712 1.403 . S
C715 C716 1.524 . S
C715 C719 1.400 . S
C716 H701 0.960 . S
C716 H702 0.960 . S
C716 H703 0.960 . S
C716 C715 1.524 . S
C717 C714 1.403 . S
C717 C718 1.392 . S
C717 C721 1.495 . S
C718 C717 1.392 . S
C718 C719 1.385 . S
C718 C720 1.478 . S
C719 H713 0.930 . S
C719 C715 1.400 . S
C719 C718 1.385 . S
C720 C718 1.478 . S
C720 C722 1.381 . S
C720 C726 1.383 . S
C721 C717 1.495 . S
C721 H727 0.959 . S
C721 H728 0.961 . S
C721 H729 0.960 . S
C722 C720 1.381 . S
C722 C723 1.394 . S
C722 H730 0.930 . S
C723 C722 1.394 . S
C723 C724 1.383 . S
C723 H731 0.929 . S
C724 C723 1.383 . S
C724 C725 1.377 . S
C725 H709 0.930 . S
C725 C724 1.377 . S
C725 C726 1.379 . S
C726 H710 0.931 . S
C726 C720 1.383 . S
C726 C725 1.379 . S
H727 C721 0.959 . S
H728 C721 0.961 . S
H729 C721 0.960 . S
H730 C722 0.930 . S
H731 C723 0.929 . S
H732 C740 0.929 . S
H733 C742 0.930 . S
H734 C744 0.930 . S
H735 C747 0.929 . S
H736 C750 0.930 . S
H737 C752 0.960 . S
H738 C752 0.960 . S
H739 C752 0.960 . S
C740 H732 0.929 . S
C740 C741 1.377 . S
C740 C742 1.384 . S
C741 C740 1.377 . S
C741 C747 1.390 . S
C742 H733 0.930 . S
C742 C740 1.384 . S
C742 C743 1.372 . S
C743 C742 1.372 . S
C743 C744 1.400 . S
C743 C748 1.490 . S
C744 H734 0.930 . S
C744 C743 1.400 . S
C744 C747 1.386 . S
H745 C761 0.930 . S
H746 C762 0.931 . S
C747 H735 0.929 . S
C747 C741 1.390 . S
C747 C744 1.386 . S
C748 C743 1.490 . S
C748 C750 1.395 . S
C748 C751 1.403 . S
H749 C755 0.930 . S
C750 H736 0.930 . S
C750 C748 1.395 . S
C750 C753 1.403 . S
C751 C748 1.403 . S
C751 C752 1.524 . S
C751 C755 1.400 . S
C752 H737 0.960 . S
C752 H738 0.960 . S
C752 H739 0.960 . S
C752 C751 1.524 . S
C753 C750 1.403 . S
C753 C754 1.392 . S
C753 C757 1.495 . S
C754 C753 1.392 . S
C754 C755 1.385 . S
C754 C756 1.478 . S
C755 H749 0.930 . S
C755 C751 1.400 . S
C755 C754 1.385 . S
C756 C754 1.478 . S
C756 C758 1.381 . S
C756 C762 1.383 . S
C757 C753 1.495 . S
C757 H763 0.959 . S
C757 H764 0.961 . S
C757 H765 0.960 . S
C758 C756 1.381 . S
C758 C759 1.394 . S
C758 H766 0.930 . S
C759 C758 1.394 . S
C759 C760 1.383 . S
C759 H767 0.929 . S
C760 C759 1.383 . S
C760 C761 1.377 . S
C761 H745 0.930 . S
C761 C760 1.377 . S
C761 C762 1.379 . S
C762 H746 0.931 . S
C762 C756 1.383 . S
C762 C761 1.379 . S
H763 C757 0.959 . S
H764 C757 0.961 . S
H765 C757 0.960 . S
H766 C758 0.930 . S
H767 C759 0.929 . S
H768 C776 0.929 . S
H769 C778 0.930 . S
H770 C780 0.930 . S
H771 C783 0.929 . S
H772 C786 0.930 . S
H773 C788 0.960 . S
H774 C788 0.960 . S
H775 C788 0.960 . S
C776 H768 0.929 . S
C776 C777 1.377 . S
C776 C778 1.384 . S
C777 C776 1.377 . S
C777 C783 1.390 . S
C778 H769 0.930 . S
C778 C776 1.384 . S
C778 C779 1.372 . S
C779 C778 1.372 . S
C779 C780 1.400 . S
C779 C784 1.490 . S
C780 H770 0.930 . S
C780 C779 1.400 . S
C780 C783 1.386 . S
H781 C797 0.930 . S
H782 C798 0.931 . S
C783 H771 0.929 . S
C783 C777 1.390 . S
C783 C780 1.386 . S
C784 C779 1.490 . S
C784 C786 1.395 . S
C784 C787 1.403 . S
H785 C791 0.930 . S
C786 H772 0.930 . S
C786 C784 1.395 . S
C786 C789 1.403 . S
C787 C784 1.403 . S
C787 C788 1.524 . S
C787 C791 1.400 . S
C788 H773 0.960 . S
C788 H774 0.960 . S
C788 H775 0.960 . S
C788 C787 1.524 . S
C789 C786 1.403 . S
C789 C790 1.392 . S
C789 C793 1.495 . S
C790 C789 1.392 . S
C790 C791 1.385 . S
C790 C792 1.478 . S
C791 H785 0.930 . S
C791 C787 1.400 . S
C791 C790 1.385 . S
C792 C790 1.478 . S
C792 C794 1.381 . S
C792 C798 1.383 . S
C793 C789 1.495 . S
C793 H799 0.959 . S
C793 H800 0.961 . S
C793 H801 0.960 . S
C794 C792 1.381 . S
C794 C795 1.394 . S
C794 H802 0.930 . S
C795 C794 1.394 . S
C795 C796 1.383 . S
C795 H803 0.929 . S
C796 C795 1.383 . S
C796 C797 1.377 . S
C797 H781 0.930 . S
C797 C796 1.377 . S
C797 C798 1.379 . S
C798 H782 0.931 . S
C798 C792 1.383 . S
C798 C797 1.379 . S
H799 C793 0.959 . S
H800 C793 0.961 . S
H801 C793 0.960 . S
H802 C794 0.930 . S
H803 C795 0.929 . S
H804 C812 0.929 . S
H805 C814 0.930 . S
H806 C816 0.930 . S
H807 C819 0.929 . S
H808 C822 0.930 . S
H809 C824 0.960 . S
H810 C824 0.960 . S
H811 C824 0.960 . S
C812 H804 0.929 . S
C812 C813 1.377 . S
C812 C814 1.384 . S
C813 C812 1.377 . S
C813 C819 1.390 . S
C814 H805 0.930 . S
C814 C812 1.384 . S
C814 C815 1.372 . S
C815 C814 1.372 . S
C815 C816 1.400 . S
C815 C820 1.490 . S
C816 H806 0.930 . S
C816 C815 1.400 . S
C816 C819 1.386 . S
H817 C833 0.930 . S
H818 C834 0.931 . S
C819 H807 0.929 . S
C819 C813 1.390 . S
C819 C816 1.386 . S
C820 C815 1.490 . S
C820 C822 1.395 . S
C820 C823 1.403 . S
H821 C827 0.930 . S
C822 H808 0.930 . S
C822 C820 1.395 . S
C822 C825 1.403 . S
C823 C820 1.403 . S
C823 C824 1.524 . S
C823 C827 1.400 . S
C824 H809 0.960 . S
C824 H810 0.960 . S
C824 H811 0.960 . S
C824 C823 1.524 . S
C825 C822 1.403 . S
C825 C826 1.392 . S
C825 C829 1.495 . S
C826 C825 1.392 . S
C826 C827 1.385 . S
C826 C828 1.478 . S
C827 H821 0.930 . S
C827 C823 1.400 . S
C827 C826 1.385 . S
C828 C826 1.478 . S
C828 C830 1.381 . S
C828 C834 1.383 . S
C829 C825 1.495 . S
C829 H835 0.959 . S
C829 H836 0.961 . S
C829 H837 0.960 . S
C830 C828 1.381 . S
C830 C831 1.394 . S
C830 H838 0.930 . S
C831 C830 1.394 . S
C831 C832 1.383 . S
C831 H839 0.929 . S
C832 C831 1.383 . S
C832 C833 1.377 . S
C833 H817 0.930 . S
C833 C832 1.377 . S
C833 C834 1.379 . S
C834 H818 0.931 . S
C834 C828 1.383 . S
C834 C833 1.379 . S
H835 C829 0.959 . S
H836 C829 0.961 . S
H837 C829 0.960 . S
H838 C830 0.930 . S
H839 C831 0.929 . S
H840 C848 0.929 . S
H841 C850 0.930 . S
H842 C852 0.930 . S
H843 C855 0.929 . S
H844 C858 0.930 . S
H845 C860 0.960 . S
H846 C860 0.960 . S
H847 C860 0.960 . S
C848 H840 0.929 . S
C848 C849 1.377 . S
C848 C850 1.384 . S
C849 C848 1.377 . S
C849 C855 1.390 . S
C850 H841 0.930 . S
C850 C848 1.384 . S
C850 C851 1.372 . S
C851 C850 1.372 . S
C851 C852 1.400 . S
C851 C856 1.490 . S
C852 H842 0.930 . S
C852 C851 1.400 . S
C852 C855 1.386 . S
H853 C869 0.930 . S
H854 C870 0.931 . S
C855 H843 0.929 . S
C855 C849 1.390 . S
C855 C852 1.386 . S
C856 C851 1.490 . S
C856 C858 1.395 . S
C856 C859 1.403 . S
H857 C863 0.930 . S
C858 H844 0.930 . S
C858 C856 1.395 . S
C858 C861 1.403 . S
C859 C856 1.403 . S
C859 C860 1.524 . S
C859 C863 1.400 . S
C860 H845 0.960 . S
C860 H846 0.960 . S
C860 H847 0.960 . S
C860 C859 1.524 . S
C861 C858 1.403 . S
C861 C862 1.392 . S
C861 C865 1.495 . S
C862 C861 1.392 . S
C862 C863 1.385 . S
C862 C864 1.478 . S
C863 H857 0.930 . S
C863 C859 1.400 . S
C863 C862 1.385 . S
C864 C862 1.478 . S
C864 C866 1.381 . S
C864 C870 1.383 . S
C865 C861 1.495 . S
C865 H871 0.959 . S
C865 H872 0.961 . S
C865 H873 0.960 . S
C866 C864 1.381 . S
C866 C867 1.394 . S
C866 H874 0.930 . S
C867 C866 1.394 . S
C867 C868 1.383 . S
C867 H875 0.929 . S
C868 C867 1.383 . S
C868 C869 1.377 . S
C869 H853 0.930 . S
C869 C868 1.377 . S
C869 C870 1.379 . S
C870 H854 0.931 . S
C870 C864 1.383 . S
C870 C869 1.379 . S
H871 C865 0.959 . S
H872 C865 0.961 . S
H873 C865 0.960 . S
H874 C866 0.930 . S
H875 C867 0.929 . S
H876 C884 0.929 . S
H877 C886 0.930 . S
H878 C888 0.930 . S
H879 C891 0.929 . S
H880 C894 0.930 . S
H881 C896 0.960 . S
H882 C896 0.960 . S
H883 C896 0.960 . S
C884 H876 0.929 . S
C884 C885 1.377 . S
C884 C886 1.384 . S
C885 C884 1.377 . S
C885 C891 1.390 . S
C886 H877 0.930 . S
C886 C884 1.384 . S
C886 C887 1.372 . S
C887 C886 1.372 . S
C887 C888 1.400 . S
C887 C892 1.490 . S
C888 H878 0.930 . S
C888 C887 1.400 . S
C888 C891 1.386 . S
H889 C905 0.930 . S
H890 C906 0.931 . S
C891 H879 0.929 . S
C891 C885 1.390 . S
C891 C888 1.386 . S
C892 C887 1.490 . S
C892 C894 1.395 . S
C892 C895 1.403 . S
H893 C899 0.930 . S
C894 H880 0.930 . S
C894 C892 1.395 . S
C894 C897 1.403 . S
C895 C892 1.403 . S
C895 C896 1.524 . S
C895 C899 1.400 . S
C896 H881 0.960 . S
C896 H882 0.960 . S
C896 H883 0.960 . S
C896 C895 1.524 . S
C897 C894 1.403 . S
C897 C898 1.392 . S
C897 C901 1.495 . S
C898 C897 1.392 . S
C898 C899 1.385 . S
C898 C900 1.478 . S
C899 H893 0.930 . S
C899 C895 1.400 . S
C899 C898 1.385 . S
C900 C898 1.478 . S
C900 C902 1.381 . S
C900 C906 1.383 . S
C901 C897 1.495 . S
C901 H907 0.959 . S
C901 H908 0.961 . S
C901 H909 0.960 . S
C902 C900 1.381 . S
C902 C903 1.394 . S
C902 H910 0.930 . S
C903 C902 1.394 . S
C903 C904 1.383 . S
C903 H911 0.929 . S
C904 C903 1.383 . S
C904 C905 1.377 . S
C905 H889 0.930 . S
C905 C904 1.377 . S
C905 C906 1.379 . S
C906 H890 0.931 . S
C906 C900 1.383 . S
C906 C905 1.379 . S
H907 C901 0.959 . S
H908 C901 0.961 . S
H909 C901 0.960 . S
H910 C902 0.930 . S
H911 C903 0.929 . S
H912 C920 0.929 . S
H913 C922 0.930 . S
H914 C924 0.930 . S
H915 C927 0.929 . S
H916 C930 0.930 . S
H917 C932 0.960 . S
H918 C932 0.960 . S
H919 C932 0.960 . S
C920 H912 0.929 . S
C920 C921 1.377 . S
C920 C922 1.384 . S
C921 C920 1.377 . S
C921 C927 1.390 . S
C922 H913 0.930 . S
C922 C920 1.384 . S
C922 C923 1.372 . S
C923 C922 1.372 . S
C923 C924 1.400 . S
C923 C928 1.490 . S
C924 H914 0.930 . S
C924 C923 1.400 . S
C924 C927 1.386 . S
H925 C941 0.930 . S
H926 C942 0.931 . S
C927 H915 0.929 . S
C927 C921 1.390 . S
C927 C924 1.386 . S
C928 C923 1.490 . S
C928 C930 1.395 . S
C928 C931 1.403 . S
H929 C935 0.930 . S
C930 H916 0.930 . S
C930 C928 1.395 . S
C930 C933 1.403 . S
C931 C928 1.403 . S
C931 C932 1.524 . S
C931 C935 1.400 . S
C932 H917 0.960 . S
C932 H918 0.960 . S
C932 H919 0.960 . S
C932 C931 1.524 . S
C933 C930 1.403 . S
C933 C934 1.392 . S
C933 C937 1.495 . S
C934 C933 1.392 . S
C934 C935 1.385 . S
C934 C936 1.478 . S
C935 H929 0.930 . S
C935 C931 1.400 . S
C935 C934 1.385 . S
C936 C934 1.478 . S
C936 C938 1.381 . S
C936 C942 1.383 . S
C937 C933 1.495 . S
C937 H943 0.959 . S
C937 H944 0.961 . S
C937 H945 0.960 . S
C938 C936 1.381 . S
C938 C939 1.394 . S
C938 H946 0.930 . S
C939 C938 1.394 . S
C939 C940 1.383 . S
C939 H947 0.929 . S
C940 C939 1.383 . S
C940 C941 1.377 . S
C941 H925 0.930 . S
C941 C940 1.377 . S
C941 C942 1.379 . S
C942 H926 0.931 . S
C942 C936 1.383 . S
C942 C941 1.379 . S
H943 C937 0.959 . S
H944 C937 0.961 . S
H945 C937 0.960 . S
H946 C938 0.930 . S
H947 C939 0.929 . S
H948 C956 0.929 . S
H949 C958 0.930 . S
H950 C960 0.930 . S
H951 C963 0.929 . S
H952 C966 0.930 . S
H953 C968 0.960 . S
H954 C968 0.960 . S
H955 C968 0.960 . S
C956 H948 0.929 . S
C956 C957 1.377 . S
C956 C958 1.384 . S
C957 C956 1.377 . S
C957 C963 1.390 . S
C958 H949 0.930 . S
C958 C956 1.384 . S
C958 C959 1.372 . S
C959 C958 1.372 . S
C959 C960 1.400 . S
C959 C964 1.490 . S
C960 H950 0.930 . S
C960 C959 1.400 . S
C960 C963 1.386 . S
H961 C977 0.930 . S
H962 C978 0.931 . S
C963 H951 0.929 . S
C963 C957 1.390 . S
C963 C960 1.386 . S
C964 C959 1.490 . S
C964 C966 1.395 . S
C964 C967 1.403 . S
H965 C971 0.930 . S
C966 H952 0.930 . S
C966 C964 1.395 . S
C966 C969 1.403 . S
C967 C964 1.403 . S
C967 C968 1.524 . S
C967 C971 1.400 . S
C968 H953 0.960 . S
C968 H954 0.960 . S
C968 H955 0.960 . S
C968 C967 1.524 . S
C969 C966 1.403 . S
C969 C970 1.392 . S
C969 C973 1.495 . S
C970 C969 1.392 . S
C970 C971 1.385 . S
C970 C972 1.478 . S
C971 H965 0.930 . S
C971 C967 1.400 . S
C971 C970 1.385 . S
C972 C970 1.478 . S
C972 C974 1.381 . S
C972 C978 1.383 . S
C973 C969 1.495 . S
C973 H979 0.959 . S
C973 H980 0.961 . S
C973 H981 0.960 . S
C974 C972 1.381 . S
C974 C975 1.394 . S
C974 H982 0.930 . S
C975 C974 1.394 . S
C975 C976 1.383 . S
C975 H983 0.929 . S
C976 C975 1.383 . S
C976 C977 1.377 . S
C977 H961 0.930 . S
C977 C976 1.377 . S
C977 C978 1.379 . S
C978 H962 0.931 . S
C978 C972 1.383 . S
C978 C977 1.379 . S
H979 C973 0.959 . S
H980 C973 0.961 . S
H981 C973 0.960 . S
H982 C974 0.930 . S
H983 C975 0.929 . S
H984 C992 0.929 . S
H985 C994 0.930 . S
H986 C996 0.930 . S
H987 C999 0.929 . S
H988 C1002 0.930 . S
H989 C1004 0.960 . S
H990 C1004 0.960 . S
H991 C1004 0.960 . S
C992 H984 0.929 . S
C992 C993 1.377 . S
C992 C994 1.384 . S
C993 C992 1.377 . S
C993 C999 1.390 . S
C994 H985 0.930 . S
C994 C992 1.384 . S
C994 C995 1.372 . S
C995 C994 1.372 . S
C995 C996 1.400 . S
C995 C1000 1.490 . S
C996 H986 0.930 . S
C996 C995 1.400 . S
C996 C999 1.386 . S
H997 C1013 0.930 . S
H998 C1014 0.931 . S
C999 H987 0.929 . S
C999 C993 1.390 . S
C999 C996 1.386 . S
C1000 C995 1.490 . S
C1000 C1002 1.395 . S
C1000 C1003 1.403 . S
H1001 C1007 0.930 . S
C1002 H988 0.930 . S
C1002 C1000 1.395 . S
C1002 C1005 1.403 . S
C1003 C1000 1.403 . S
C1003 C1004 1.524 . S
C1003 C1007 1.400 . S
C1004 H989 0.960 . S
C1004 H990 0.960 . S
C1004 H991 0.960 . S
C1004 C1003 1.524 . S
C1005 C1002 1.403 . S
C1005 C1006 1.392 . S
C1005 C1009 1.495 . S
C1006 C1005 1.392 . S
C1006 C1007 1.385 . S
C1006 C1008 1.478 . S
C1007 H1001 0.930 . S
C1007 C1003 1.400 . S
C1007 C1006 1.385 . S
C1008 C1006 1.478 . S
C1008 C1010 1.381 . S
C1008 C1014 1.383 . S
C1009 C1005 1.495 . S
C1009 H1015 0.959 . S
C1009 H1016 0.961 . S
C1009 H1017 0.960 . S
C1010 C1008 1.381 . S
C1010 C1011 1.394 . S
C1010 H1018 0.930 . S
C1011 C1010 1.394 . S
C1011 C1012 1.383 . S
C1011 H1019 0.929 . S
C1012 C1011 1.383 . S
C1012 C1013 1.377 . S
C1013 H997 0.930 . S
C1013 C1012 1.377 . S
C1013 C1014 1.379 . S
C1014 H998 0.931 . S
C1014 C1008 1.383 . S
C1014 C1013 1.379 . S
H1015 C1009 0.959 . S
H1016 C1009 0.961 . S
H1017 C1009 0.960 . S
H1018 C1010 0.930 . S
H1019 C1011 0.929 . S
H1020 C1028 0.929 . S
H1021 C1030 0.930 . S
H1022 C1032 0.930 . S
H1023 C1035 0.929 . S
H1024 C1038 0.930 . S
H1025 C1040 0.960 . S
H1026 C1040 0.960 . S
H1027 C1040 0.960 . S
C1028 H1020 0.929 . S
C1028 C1029 1.377 . S
C1028 C1030 1.384 . S
C1029 C1028 1.377 . S
C1029 C1035 1.390 . S
C1030 H1021 0.930 . S
C1030 C1028 1.384 . S
C1030 C1031 1.372 . S
C1031 C1030 1.372 . S
C1031 C1032 1.400 . S
C1031 C1036 1.490 . S
C1032 H1022 0.930 . S
C1032 C1031 1.400 . S
C1032 C1035 1.386 . S
H1033 C1049 0.930 . S
H1034 C1050 0.931 . S
C1035 H1023 0.929 . S
C1035 C1029 1.390 . S
C1035 C1032 1.386 . S
C1036 C1031 1.490 . S
C1036 C1038 1.395 . S
C1036 C1039 1.403 . S
H1037 C1043 0.930 . S
C1038 H1024 0.930 . S
C1038 C1036 1.395 . S
C1038 C1041 1.403 . S
C1039 C1036 1.403 . S
C1039 C1040 1.524 . S
C1039 C1043 1.400 . S
C1040 H1025 0.960 . S
C1040 H1026 0.960 . S
C1040 H1027 0.960 . S
C1040 C1039 1.524 . S
C1041 C1038 1.403 . S
C1041 C1042 1.392 . S
C1041 C1045 1.495 . S
C1042 C1041 1.392 . S
C1042 C1043 1.385 . S
C1042 C1044 1.478 . S
C1043 H1037 0.930 . S
C1043 C1039 1.400 . S
C1043 C1042 1.385 . S
C1044 C1042 1.478 . S
C1044 C1046 1.381 . S
C1044 C1050 1.383 . S
C1045 C1041 1.495 . S
C1045 H1051 0.959 . S
C1045 H1052 0.961 . S
C1045 H1053 0.960 . S
C1046 C1044 1.381 . S
C1046 C1047 1.394 . S
C1046 H1054 0.930 . S
C1047 C1046 1.394 . S
C1047 C1048 1.383 . S
C1047 H1055 0.929 . S
C1048 C1047 1.383 . S
C1048 C1049 1.377 . S
C1049 H1033 0.930 . S
C1049 C1048 1.377 . S
C1049 C1050 1.379 . S
C1050 H1034 0.931 . S
C1050 C1044 1.383 . S
C1050 C1049 1.379 . S
H1051 C1045 0.959 . S
H1052 C1045 0.961 . S
H1053 C1045 0.960 . S
H1054 C1046 0.930 . S
H1055 C1047 0.929 . S
H1056 C1064 0.929 . S
H1057 C1066 0.930 . S
H1058 C1068 0.930 . S
H1059 C1071 0.929 . S
H1060 C1074 0.930 . S
H1061 C1076 0.960 . S
H1062 C1076 0.960 . S
H1063 C1076 0.960 . S
C1064 H1056 0.929 . S
C1064 C1065 1.377 . S
C1064 C1066 1.384 . S
C1065 C1064 1.377 . S
C1065 C1071 1.390 . S
C1066 H1057 0.930 . S
C1066 C1064 1.384 . S
C1066 C1067 1.372 . S
C1067 C1066 1.372 . S
C1067 C1068 1.400 . S
C1067 C1072 1.490 . S
C1068 H1058 0.930 . S
C1068 C1067 1.400 . S
C1068 C1071 1.386 . S
H1069 C1085 0.930 . S
H1070 C1086 0.931 . S
C1071 H1059 0.929 . S
C1071 C1065 1.390 . S
C1071 C1068 1.386 . S
C1072 C1067 1.490 . S
C1072 C1074 1.395 . S
C1072 C1075 1.403 . S
H1073 C1079 0.930 . S
C1074 H1060 0.930 . S
C1074 C1072 1.395 . S
C1074 C1077 1.403 . S
C1075 C1072 1.403 . S
C1075 C1076 1.524 . S
C1075 C1079 1.400 . S
C1076 H1061 0.960 . S
C1076 H1062 0.960 . S
C1076 H1063 0.960 . S
C1076 C1075 1.524 . S
C1077 C1074 1.403 . S
C1077 C1078 1.392 . S
C1077 C1081 1.495 . S
C1078 C1077 1.392 . S
C1078 C1079 1.385 . S
C1078 C1080 1.478 . S
C1079 H1073 0.930 . S
C1079 C1075 1.400 . S
C1079 C1078 1.385 . S
C1080 C1078 1.478 . S
C1080 C1082 1.381 . S
C1080 C1086 1.383 . S
C1081 C1077 1.495 . S
C1081 H1087 0.959 . S
C1081 H1088 0.961 . S
C1081 H1089 0.960 . S
C1082 C1080 1.381 . S
C1082 C1083 1.394 . S
C1082 H1090 0.930 . S
C1083 C1082 1.394 . S
C1083 C1084 1.383 . S
C1083 H1091 0.929 . S
C1084 C1083 1.383 . S
C1084 C1085 1.377 . S
C1085 H1069 0.930 . S
C1085 C1084 1.377 . S
C1085 C1086 1.379 . S
C1086 H1070 0.931 . S
C1086 C1080 1.383 . S
C1086 C1085 1.379 . S
H1087 C1081 0.959 . S
H1088 C1081 0.961 . S
H1089 C1081 0.960 . S
H1090 C1082 0.930 . S
H1091 C1083 0.929 . S
H1092 C1100 0.929 . S
H1093 C1102 0.930 . S
H1094 C1104 0.930 . S
H1095 C1107 0.929 . S
H1096 C1110 0.930 . S
H1097 C1112 0.960 . S
H1098 C1112 0.960 . S
H1099 C1112 0.960 . S
C1100 H1092 0.929 . S
C1100 C1101 1.377 . S
C1100 C1102 1.384 . S
C1101 C1100 1.377 . S
C1101 C1107 1.390 . S
C1102 H1093 0.930 . S
C1102 C1100 1.384 . S
C1102 C1103 1.372 . S
C1103 C1102 1.372 . S
C1103 C1104 1.400 . S
C1103 C1108 1.490 . S
C1104 H1094 0.930 . S
C1104 C1103 1.400 . S
C1104 C1107 1.386 . S
H1105 C1121 0.930 . S
H1106 C1122 0.931 . S
C1107 H1095 0.929 . S
C1107 C1101 1.390 . S
C1107 C1104 1.386 . S
C1108 C1103 1.490 . S
C1108 C1110 1.395 . S
C1108 C1111 1.403 . S
H1109 C1115 0.930 . S
C1110 H1096 0.930 . S
C1110 C1108 1.395 . S
C1110 C1113 1.403 . S
C1111 C1108 1.403 . S
C1111 C1112 1.524 . S
C1111 C1115 1.400 . S
C1112 H1097 0.960 . S
C1112 H1098 0.960 . S
C1112 H1099 0.960 . S
C1112 C1111 1.524 . S
C1113 C1110 1.403 . S
C1113 C1114 1.392 . S
C1113 C1117 1.495 . S
C1114 C1113 1.392 . S
C1114 C1115 1.385 . S
C1114 C1116 1.478 . S
C1115 H1109 0.930 . S
C1115 C1111 1.400 . S
C1115 C1114 1.385 . S
C1116 C1114 1.478 . S
C1116 C1118 1.381 . S
C1116 C1122 1.383 . S
C1117 C1113 1.495 . S
C1117 H1123 0.959 . S
C1117 H1124 0.961 . S
C1117 H1125 0.960 . S
C1118 C1116 1.381 . S
C1118 C1119 1.394 . S
C1118 H1126 0.930 . S
C1119 C1118 1.394 . S
C1119 C1120 1.383 . S
C1119 H1127 0.929 . S
C1120 C1119 1.383 . S
C1120 C1121 1.377 . S
C1121 H1105 0.930 . S
C1121 C1120 1.377 . S
C1121 C1122 1.379 . S
C1122 H1106 0.931 . S
C1122 C1116 1.383 . S
C1122 C1121 1.379 . S
H1123 C1117 0.959 . S
H1124 C1117 0.961 . S
H1125 C1117 0.960 . S
H1126 C1118 0.930 . S
H1127 C1119 0.929 . S
H1128 C1136 0.929 . S
H1129 C1138 0.930 . S
H1130 C1140 0.930 . S
H1131 C1143 0.929 . S
H1132 C1146 0.930 . S
H1133 C1148 0.960 . S
H1134 C1148 0.960 . S
H1135 C1148 0.960 . S
C1136 H1128 0.929 . S
C1136 C1137 1.377 . S
C1136 C1138 1.384 . S
C1137 C1136 1.377 . S
C1137 C1143 1.390 . S
C1138 H1129 0.930 . S
C1138 C1136 1.384 . S
C1138 C1139 1.372 . S
C1139 C1138 1.372 . S
C1139 C1140 1.400 . S
C1139 C1144 1.490 . S
C1140 H1130 0.930 . S
C1140 C1139 1.400 . S
C1140 C1143 1.386 . S
H1141 C1157 0.930 . S
H1142 C1158 0.931 . S
C1143 H1131 0.929 . S
C1143 C1137 1.390 . S
C1143 C1140 1.386 . S
C1144 C1139 1.490 . S
C1144 C1146 1.395 . S
C1144 C1147 1.403 . S
H1145 C1151 0.930 . S
C1146 H1132 0.930 . S
C1146 C1144 1.395 . S
C1146 C1149 1.403 . S
C1147 C1144 1.403 . S
C1147 C1148 1.524 . S
C1147 C1151 1.400 . S
C1148 H1133 0.960 . S
C1148 H1134 0.960 . S
C1148 H1135 0.960 . S
C1148 C1147 1.524 . S
C1149 C1146 1.403 . S
C1149 C1150 1.392 . S
C1149 C1153 1.495 . S
C1150 C1149 1.392 . S
C1150 C1151 1.385 . S
C1150 C1152 1.478 . S
C1151 H1145 0.930 . S
C1151 C1147 1.400 . S
C1151 C1150 1.385 . S
C1152 C1150 1.478 . S
C1152 C1154 1.381 . S
C1152 C1158 1.383 . S
C1153 C1149 1.495 . S
C1153 H1159 0.959 . S
C1153 H1160 0.961 . S
C1153 H1161 0.960 . S
C1154 C1152 1.381 . S
C1154 C1155 1.394 . S
C1154 H1162 0.930 . S
C1155 C1154 1.394 . S
C1155 C1156 1.383 . S
C1155 H1163 0.929 . S
C1156 C1155 1.383 . S
C1156 C1157 1.377 . S
C1157 H1141 0.930 . S
C1157 C1156 1.377 . S
C1157 C1158 1.379 . S
C1158 H1142 0.931 . S
C1158 C1152 1.383 . S
C1158 C1157 1.379 . S
H1159 C1153 0.959 . S
H1160 C1153 0.961 . S
H1161 C1153 0.960 . S
H1162 C1154 0.930 . S
H1163 C1155 0.929 . S
H1164 C1172 0.929 . S
H1165 C1174 0.930 . S
H1166 C1176 0.930 . S
H1167 C1179 0.929 . S
H1168 C1182 0.930 . S
H1169 C1184 0.960 . S
H1170 C1184 0.960 . S
H1171 C1184 0.960 . S
C1172 H1164 0.929 . S
C1172 C1173 1.377 . S
C1172 C1174 1.384 . S
C1173 C1172 1.377 . S
C1173 C1179 1.390 . S
C1174 H1165 0.930 . S
C1174 C1172 1.384 . S
C1174 C1175 1.372 . S
C1175 C1174 1.372 . S
C1175 C1176 1.400 . S
C1175 C1180 1.490 . S
C1176 H1166 0.930 . S
C1176 C1175 1.400 . S
C1176 C1179 1.386 . S
H1177 C1193 0.930 . S
H1178 C1194 0.931 . S
C1179 H1167 0.929 . S
C1179 C1173 1.390 . S
C1179 C1176 1.386 . S
C1180 C1175 1.490 . S
C1180 C1182 1.395 . S
C1180 C1183 1.403 . S
H1181 C1187 0.930 . S
C1182 H1168 0.930 . S
C1182 C1180 1.395 . S
C1182 C1185 1.403 . S
C1183 C1180 1.403 . S
C1183 C1184 1.524 . S
C1183 C1187 1.400 . S
C1184 H1169 0.960 . S
C1184 H1170 0.960 . S
C1184 H1171 0.960 . S
C1184 C1183 1.524 . S
C1185 C1182 1.403 . S
C1185 C1186 1.392 . S
C1185 C1189 1.495 . S
C1186 C1185 1.392 . S
C1186 C1187 1.385 . S
C1186 C1188 1.478 . S
C1187 H1181 0.930 . S
C1187 C1183 1.400 . S
C1187 C1186 1.385 . S
C1188 C1186 1.478 . S
C1188 C1190 1.381 . S
C1188 C1194 1.383 . S
C1189 C1185 1.495 . S
C1189 H1195 0.959 . S
C1189 H1196 0.961 . S
C1189 H1197 0.960 . S
C1190 C1188 1.381 . S
C1190 C1191 1.394 . S
C1190 H1198 0.930 . S
C1191 C1190 1.394 . S
C1191 C1192 1.383 . S
C1191 H1199 0.929 . S
C1192 C1191 1.383 . S
C1192 C1193 1.377 . S
C1193 H1177 0.930 . S
C1193 C1192 1.377 . S
C1193 C1194 1.379 . S
C1194 H1178 0.931 . S
C1194 C1188 1.383 . S
C1194 C1193 1.379 . S
H1195 C1189 0.959 . S
H1196 C1189 0.961 . S
H1197 C1189 0.960 . S
H1198 C1190 0.930 . S
H1199 C1191 0.929 . S
H1200 C1208 0.929 . S
H1201 C1210 0.930 . S
H1202 C1212 0.930 . S
H1203 C1215 0.929 . S
H1204 C1218 0.930 . S
H1205 C1220 0.960 . S
H1206 C1220 0.960 . S
H1207 C1220 0.960 . S
C1208 H1200 0.929 . S
C1208 C1209 1.377 . S
C1208 C1210 1.384 . S
C1209 C1208 1.377 . S
C1209 C1215 1.390 . S
C1210 H1201 0.930 . S
C1210 C1208 1.384 . S
C1210 C1211 1.372 . S
C1211 C1210 1.372 . S
C1211 C1212 1.400 . S
C1211 C1216 1.490 . S
C1212 H1202 0.930 . S
C1212 C1211 1.400 . S
C1212 C1215 1.386 . S
H1213 C1229 0.930 . S
H1214 C1230 0.931 . S
C1215 H1203 0.929 . S
C1215 C1209 1.390 . S
C1215 C1212 1.386 . S
C1216 C1211 1.490 . S
C1216 C1218 1.395 . S
C1216 C1219 1.403 . S
H1217 C1223 0.930 . S
C1218 H1204 0.930 . S
C1218 C1216 1.395 . S
C1218 C1221 1.403 . S
C1219 C1216 1.403 . S
C1219 C1220 1.524 . S
C1219 C1223 1.400 . S
C1220 H1205 0.960 . S
C1220 H1206 0.960 . S
C1220 H1207 0.960 . S
C1220 C1219 1.524 . S
C1221 C1218 1.403 . S
C1221 C1222 1.392 . S
C1221 C1225 1.495 . S
C1222 C1221 1.392 . S
C1222 C1223 1.385 . S
C1222 C1224 1.478 . S
C1223 H1217 0.930 . S
C1223 C1219 1.400 . S
C1223 C1222 1.385 . S
C1224 C1222 1.478 . S
C1224 C1226 1.381 . S
C1224 C1230 1.383 . S
C1225 C1221 1.495 . S
C1225 H1231 0.959 . S
C1225 H1232 0.961 . S
C1225 H1233 0.960 . S
C1226 C1224 1.381 . S
C1226 C1227 1.394 . S
C1226 H1234 0.930 . S
C1227 C1226 1.394 . S
C1227 C1228 1.383 . S
C1227 H1235 0.929 . S
C1228 C1227 1.383 . S
C1228 C1229 1.377 . S
C1229 H1213 0.930 . S
C1229 C1228 1.377 . S
C1229 C1230 1.379 . S
C1230 H1214 0.931 . S
C1230 C1224 1.383 . S
C1230 C1229 1.379 . S
H1231 C1225 0.959 . S
H1232 C1225 0.961 . S
H1233 C1225 0.960 . S
H1234 C1226 0.930 . S
H1235 C1227 0.929 . S
H1236 C1244 0.929 . S
H1237 C1246 0.930 . S
H1238 C1248 0.930 . S
H1239 C1251 0.929 . S
H1240 C1254 0.930 . S
H1241 C1256 0.960 . S
H1242 C1256 0.960 . S
H1243 C1256 0.960 . S
C1244 H1236 0.929 . S
C1244 C1245 1.377 . S
C1244 C1246 1.384 . S
C1245 C1244 1.377 . S
C1245 C1251 1.390 . S
C1246 H1237 0.930 . S
C1246 C1244 1.384 . S
C1246 C1247 1.372 . S
C1247 C1246 1.372 . S
C1247 C1248 1.400 . S
C1247 C1252 1.490 . S
C1248 H1238 0.930 . S
C1248 C1247 1.400 . S
C1248 C1251 1.386 . S
H1249 C1265 0.930 . S
H1250 C1266 0.931 . S
C1251 H1239 0.929 . S
C1251 C1245 1.390 . S
C1251 C1248 1.386 . S
C1252 C1247 1.490 . S
C1252 C1254 1.395 . S
C1252 C1255 1.403 . S
H1253 C1259 0.930 . S
C1254 H1240 0.930 . S
C1254 C1252 1.395 . S
C1254 C1257 1.403 . S
C1255 C1252 1.403 . S
C1255 C1256 1.524 . S
C1255 C1259 1.400 . S
C1256 H1241 0.960 . S
C1256 H1242 0.960 . S
C1256 H1243 0.960 . S
C1256 C1255 1.524 . S
C1257 C1254 1.403 . S
C1257 C1258 1.392 . S
C1257 C1261 1.495 . S
C1258 C1257 1.392 . S
C1258 C1259 1.385 . S
C1258 C1260 1.478 . S
C1259 H1253 0.930 . S
C1259 C1255 1.400 . S
C1259 C1258 1.385 . S
C1260 C1258 1.478 . S
C1260 C1262 1.381 . S
C1260 C1266 1.383 . S
C1261 C1257 1.495 . S
C1261 H1267 0.959 . S
C1261 H1268 0.961 . S
C1261 H1269 0.960 . S
C1262 C1260 1.381 . S
C1262 C1263 1.394 . S
C1262 H1270 0.930 . S
C1263 C1262 1.394 . S
C1263 C1264 1.383 . S
C1263 H1271 0.929 . S
C1264 C1263 1.383 . S
C1264 C1265 1.377 . S
C1265 H1249 0.930 . S
C1265 C1264 1.377 . S
C1265 C1266 1.379 . S
C1266 H1250 0.931 . S
C1266 C1260 1.383 . S
C1266 C1265 1.379 . S
H1267 C1261 0.959 . S
H1268 C1261 0.961 . S
H1269 C1261 0.960 . S
H1270 C1262 0.930 . S
H1271 C1263 0.929 . S
H1272 C1280 0.929 . S
H1273 C1282 0.930 . S
H1274 C1284 0.930 . S
H1275 C1287 0.929 . S
H1276 C1290 0.930 . S
H1277 C1292 0.960 . S
H1278 C1292 0.960 . S
H1279 C1292 0.960 . S
C1280 H1272 0.929 . S
C1280 C1281 1.377 . S
C1280 C1282 1.384 . S
C1281 C1280 1.377 . S
C1281 C1287 1.390 . S
C1282 H1273 0.930 . S
C1282 C1280 1.384 . S
C1282 C1283 1.372 . S
C1283 C1282 1.372 . S
C1283 C1284 1.400 . S
C1283 C1288 1.490 . S
C1284 H1274 0.930 . S
C1284 C1283 1.400 . S
C1284 C1287 1.386 . S
H1285 C1301 0.930 . S
H1286 C1302 0.931 . S
C1287 H1275 0.929 . S
C1287 C1281 1.390 . S
C1287 C1284 1.386 . S
C1288 C1283 1.490 . S
C1288 C1290 1.395 . S
C1288 C1291 1.403 . S
H1289 C1295 0.930 . S
C1290 H1276 0.930 . S
C1290 C1288 1.395 . S
C1290 C1293 1.403 . S
C1291 C1288 1.403 . S
C1291 C1292 1.524 . S
C1291 C1295 1.400 . S
C1292 H1277 0.960 . S
C1292 H1278 0.960 . S
C1292 H1279 0.960 . S
C1292 C1291 1.524 . S
C1293 C1290 1.403 . S
C1293 C1294 1.392 . S
C1293 C1297 1.495 . S
C1294 C1293 1.392 . S
C1294 C1295 1.385 . S
C1294 C1296 1.478 . S
C1295 H1289 0.930 . S
C1295 C1291 1.400 . S
C1295 C1294 1.385 . S
C1296 C1294 1.478 . S
C1296 C1298 1.381 . S
C1296 C1302 1.383 . S
C1297 C1293 1.495 . S
C1297 H1303 0.959 . S
C1297 H1304 0.961 . S
C1297 H1305 0.960 . S
C1298 C1296 1.381 . S
C1298 C1299 1.394 . S
C1298 H1306 0.930 . S
C1299 C1298 1.394 . S
C1299 C1300 1.383 . S
C1299 H1307 0.929 . S
C1300 C1299 1.383 . S
C1300 C1301 1.377 . S
C1301 H1285 0.930 . S
C1301 C1300 1.377 . S
C1301 C1302 1.379 . S
C1302 H1286 0.931 . S
C1302 C1296 1.383 . S
C1302 C1301 1.379 . S
H1303 C1297 0.959 . S
H1304 C1297 0.961 . S
H1305 C1297 0.960 . S
H1306 C1298 0.930 . S
H1307 C1299 0.929 . S
H1308 C1316 0.929 . S
H1309 C1318 0.930 . S
H1310 C1320 0.930 . S
H1311 C1323 0.929 . S
H1312 C1326 0.930 . S
H1313 C1328 0.960 . S
H1314 C1328 0.960 . S
H1315 C1328 0.960 . S
C1316 H1308 0.929 . S
C1316 C1317 1.377 . S
C1316 C1318 1.384 . S
C1317 C1316 1.377 . S
C1317 C1323 1.390 . S
C1318 H1309 0.930 . S
C1318 C1316 1.384 . S
C1318 C1319 1.372 . S
C1319 C1318 1.372 . S
C1319 C1320 1.400 . S
C1319 C1324 1.490 . S
C1320 H1310 0.930 . S
C1320 C1319 1.400 . S
C1320 C1323 1.386 . S
H1321 C1337 0.930 . S
H1322 C1338 0.931 . S
C1323 H1311 0.929 . S
C1323 C1317 1.390 . S
C1323 C1320 1.386 . S
C1324 C1319 1.490 . S
C1324 C1326 1.395 . S
C1324 C1327 1.403 . S
H1325 C1331 0.930 . S
C1326 H1312 0.930 . S
C1326 C1324 1.395 . S
C1326 C1329 1.403 . S
C1327 C1324 1.403 . S
C1327 C1328 1.524 . S
C1327 C1331 1.400 . S
C1328 H1313 0.960 . S
C1328 H1314 0.960 . S
C1328 H1315 0.960 . S
C1328 C1327 1.524 . S
C1329 C1326 1.403 . S
C1329 C1330 1.392 . S
C1329 C1333 1.495 . S
C1330 C1329 1.392 . S
C1330 C1331 1.385 . S
C1330 C1332 1.478 . S
C1331 H1325 0.930 . S
C1331 C1327 1.400 . S
C1331 C1330 1.385 . S
C1332 C1330 1.478 . S
C1332 C1334 1.381 . S
C1332 C1338 1.383 . S
C1333 C1329 1.495 . S
C1333 H1339 0.959 . S
C1333 H1340 0.961 . S
C1333 H1341 0.960 . S
C1334 C1332 1.381 . S
C1334 C1335 1.394 . S
C1334 H1342 0.930 . S
C1335 C1334 1.394 . S
C1335 C1336 1.383 . S
C1335 H1343 0.929 . S
C1336 C1335 1.383 . S
C1336 C1337 1.377 . S
C1337 H1321 0.930 . S
C1337 C1336 1.377 . S
C1337 C1338 1.379 . S
C1338 H1322 0.931 . S
C1338 C1332 1.383 . S
C1338 C1337 1.379 . S
H1339 C1333 0.959 . S
H1340 C1333 0.961 . S
H1341 C1333 0.960 . S
H1342 C1334 0.930 . S
H1343 C1335 0.929 . S
H1344 C1352 0.929 . S
H1345 C1354 0.930 . S
H1346 C1356 0.930 . S
H1347 C1359 0.929 . S
H1348 C1362 0.930 . S
H1349 C1364 0.960 . S
H1350 C1364 0.960 . S
H1351 C1364 0.960 . S
C1352 H1344 0.929 . S
C1352 C1353 1.377 . S
C1352 C1354 1.384 . S
C1353 C1352 1.377 . S
C1353 C1359 1.390 . S
C1354 H1345 0.930 . S
C1354 C1352 1.384 . S
C1354 C1355 1.372 . S
C1355 C1354 1.372 . S
C1355 C1356 1.400 . S
C1355 C1360 1.490 . S
C1356 H1346 0.930 . S
C1356 C1355 1.400 . S
C1356 C1359 1.386 . S
H1357 C1373 0.930 . S
H1358 C1374 0.931 . S
C1359 H1347 0.929 . S
C1359 C1353 1.390 . S
C1359 C1356 1.386 . S
C1360 C1355 1.490 . S
C1360 C1362 1.395 . S
C1360 C1363 1.403 . S
H1361 C1367 0.930 . S
C1362 H1348 0.930 . S
C1362 C1360 1.395 . S
C1362 C1365 1.403 . S
C1363 C1360 1.403 . S
C1363 C1364 1.524 . S
C1363 C1367 1.400 . S
C1364 H1349 0.960 . S
C1364 H1350 0.960 . S
C1364 H1351 0.960 . S
C1364 C1363 1.524 . S
C1365 C1362 1.403 . S
C1365 C1366 1.392 . S
C1365 C1369 1.495 . S
C1366 C1365 1.392 . S
C1366 C1367 1.385 . S
C1366 C1368 1.478 . S
C1367 H1361 0.930 . S
C1367 C1363 1.400 . S
C1367 C1366 1.385 . S
C1368 C1366 1.478 . S
C1368 C1370 1.381 . S
C1368 C1374 1.383 . S
C1369 C1365 1.495 . S
C1369 H1375 0.959 . S
C1369 H1376 0.961 . S
C1369 H1377 0.960 . S
C1370 C1368 1.381 . S
C1370 C1371 1.394 . S
C1370 H1378 0.930 . S
C1371 C1370 1.394 . S
C1371 C1372 1.383 . S
C1371 H1379 0.929 . S
C1372 C1371 1.383 . S
C1372 C1373 1.377 . S
C1373 H1357 0.930 . S
C1373 C1372 1.377 . S
C1373 C1374 1.379 . S
C1374 H1358 0.931 . S
C1374 C1368 1.383 . S
C1374 C1373 1.379 . S
H1375 C1369 0.959 . S
H1376 C1369 0.961 . S
H1377 C1369 0.960 . S
H1378 C1370 0.930 . S
H1379 C1371 0.929 . S
H1380 C1388 0.929 . S
H1381 C1390 0.930 . S
H1382 C1392 0.930 . S
H1383 C1395 0.929 . S
H1384 C1398 0.930 . S
H1385 C1400 0.960 . S
H1386 C1400 0.960 . S
H1387 C1400 0.960 . S
C1388 H1380 0.929 . S
C1388 C1389 1.377 . S
C1388 C1390 1.384 . S
C1389 C1388 1.377 . S
C1389 C1395 1.390 . S
C1390 H1381 0.930 . S
C1390 C1388 1.384 . S
C1390 C1391 1.372 . S
C1391 C1390 1.372 . S
C1391 C1392 1.400 . S
C1391 C1396 1.490 . S
C1392 H1382 0.930 . S
C1392 C1391 1.400 . S
C1392 C1395 1.386 . S
H1393 C1409 0.930 . S
H1394 C1410 0.931 . S
C1395 H1383 0.929 . S
C1395 C1389 1.390 . S
C1395 C1392 1.386 . S
C1396 C1391 1.490 . S
C1396 C1398 1.395 . S
C1396 C1399 1.403 . S
H1397 C1403 0.930 . S
C1398 H1384 0.930 . S
C1398 C1396 1.395 . S
C1398 C1401 1.403 . S
C1399 C1396 1.403 . S
C1399 C1400 1.524 . S
C1399 C1403 1.400 . S
C1400 H1385 0.960 . S
C1400 H1386 0.960 . S
C1400 H1387 0.960 . S
C1400 C1399 1.524 . S
C1401 C1398 1.403 . S
C1401 C1402 1.392 . S
C1401 C1405 1.495 . S
C1402 C1401 1.392 . S
C1402 C1403 1.385 . S
C1402 C1404 1.478 . S
C1403 H1397 0.930 . S
C1403 C1399 1.400 . S
C1403 C1402 1.385 . S
C1404 C1402 1.478 . S
C1404 C1406 1.381 . S
C1404 C1410 1.383 . S
C1405 C1401 1.495 . S
C1405 H1411 0.959 . S
C1405 H1412 0.961 . S
C1405 H1413 0.960 . S
C1406 C1404 1.381 . S
C1406 C1407 1.394 . S
C1406 H1414 0.930 . S
C1407 C1406 1.394 . S
C1407 C1408 1.383 . S
C1407 H1415 0.929 . S
C1408 C1407 1.383 . S
C1408 C1409 1.377 . S
C1409 H1393 0.930 . S
C1409 C1408 1.377 . S
C1409 C1410 1.379 . S
C1410 H1394 0.931 . S
C1410 C1404 1.383 . S
C1410 C1409 1.379 . S
H1411 C1405 0.959 . S
H1412 C1405 0.961 . S
H1413 C1405 0.960 . S
H1414 C1406 0.930 . S
H1415 C1407 0.929 . S
H1416 C1424 0.929 . S
H1417 C1426 0.930 . S
H1418 C1428 0.930 . S
H1419 C1431 0.929 . S
H1420 C1434 0.930 . S
H1421 C1436 0.960 . S
H1422 C1436 0.960 . S
H1423 C1436 0.960 . S
C1424 H1416 0.929 . S
C1424 C1425 1.377 . S
C1424 C1426 1.384 . S
C1425 C1424 1.377 . S
C1425 C1431 1.390 . S
C1426 H1417 0.930 . S
C1426 C1424 1.384 . S
C1426 C1427 1.372 . S
C1427 C1426 1.372 . S
C1427 C1428 1.400 . S
C1427 C1432 1.490 . S
C1428 H1418 0.930 . S
C1428 C1427 1.400 . S
C1428 C1431 1.386 . S
H1429 C1445 0.930 . S
H1430 C1446 0.931 . S
C1431 H1419 0.929 . S
C1431 C1425 1.390 . S
C1431 C1428 1.386 . S
C1432 C1427 1.490 . S
C1432 C1434 1.395 . S
C1432 C1435 1.403 . S
H1433 C1439 0.930 . S
C1434 H1420 0.930 . S
C1434 C1432 1.395 . S
C1434 C1437 1.403 . S
C1435 C1432 1.403 . S
C1435 C1436 1.524 . S
C1435 C1439 1.400 . S
C1436 H1421 0.960 . S
C1436 H1422 0.960 . S
C1436 H1423 0.960 . S
C1436 C1435 1.524 . S
C1437 C1434 1.403 . S
C1437 C1438 1.392 . S
C1437 C1441 1.495 . S
C1438 C1437 1.392 . S
C1438 C1439 1.385 . S
C1438 C1440 1.478 . S
C1439 H1433 0.930 . S
C1439 C1435 1.400 . S
C1439 C1438 1.385 . S
C1440 C1438 1.478 . S
C1440 C1442 1.381 . S
C1440 C1446 1.383 . S
C1441 C1437 1.495 . S
C1441 H1447 0.959 . S
C1441 H1448 0.961 . S
C1441 H1449 0.960 . S
C1442 C1440 1.381 . S
C1442 C1443 1.394 . S
C1442 H1450 0.930 . S
C1443 C1442 1.394 . S
C1443 C1444 1.383 . S
C1443 H1451 0.929 . S
C1444 C1443 1.383 . S
C1444 C1445 1.377 . S
C1445 H1429 0.930 . S
C1445 C1444 1.377 . S
C1445 C1446 1.379 . S
C1446 H1430 0.931 . S
C1446 C1440 1.383 . S
C1446 C1445 1.379 . S
H1447 C1441 0.959 . S
H1448 C1441 0.961 . S
H1449 C1441 0.960 . S
H1450 C1442 0.930 . S
H1451 C1443 0.929 . S
H1452 C1460 0.929 . S
H1453 C1462 0.930 . S
H1454 C1464 0.930 . S
H1455 C1467 0.929 . S
H1456 C1470 0.930 . S
H1457 C1472 0.960 . S
H1458 C1472 0.960 . S
H1459 C1472 0.960 . S
C1460 H1452 0.929 . S
C1460 C1461 1.377 . S
C1460 C1462 1.384 . S
C1461 C1460 1.377 . S
C1461 C1467 1.390 . S
C1462 H1453 0.930 . S
C1462 C1460 1.384 . S
C1462 C1463 1.372 . S
C1463 C1462 1.372 . S
C1463 C1464 1.400 . S
C1463 C1468 1.490 . S
C1464 H1454 0.930 . S
C1464 C1463 1.400 . S
C1464 C1467 1.386 . S
H1465 C1481 0.930 . S
H1466 C1482 0.931 . S
C1467 H1455 0.929 . S
C1467 C1461 1.390 . S
C1467 C1464 1.386 . S
C1468 C1463 1.490 . S
C1468 C1470 1.395 . S
C1468 C1471 1.403 . S
H1469 C1475 0.930 . S
C1470 H1456 0.930 . S
C1470 C1468 1.395 . S
C1470 C1473 1.403 . S
C1471 C1468 1.403 . S
C1471 C1472 1.524 . S
C1471 C1475 1.400 . S
C1472 H1457 0.960 . S
C1472 H1458 0.960 . S
C1472 H1459 0.960 . S
C1472 C1471 1.524 . S
C1473 C1470 1.403 . S
C1473 C1474 1.392 . S
C1473 C1477 1.495 . S
C1474 C1473 1.392 . S
C1474 C1475 1.385 . S
C1474 C1476 1.478 . S
C1475 H1469 0.930 . S
C1475 C1471 1.400 . S
C1475 C1474 1.385 . S
C1476 C1474 1.478 . S
C1476 C1478 1.381 . S
C1476 C1482 1.383 . S
C1477 C1473 1.495 . S
C1477 H1483 0.959 . S
C1477 H1484 0.961 . S
C1477 H1485 0.960 . S
C1478 C1476 1.381 . S
C1478 C1479 1.394 . S
C1478 H1486 0.930 . S
C1479 C1478 1.394 . S
C1479 C1480 1.383 . S
C1479 H1487 0.929 . S
C1480 C1479 1.383 . S
C1480 C1481 1.377 . S
C1481 H1465 0.930 . S
C1481 C1480 1.377 . S
C1481 C1482 1.379 . S
C1482 H1466 0.931 . S
C1482 C1476 1.383 . S
C1482 C1481 1.379 . S
H1483 C1477 0.959 . S
H1484 C1477 0.961 . S
H1485 C1477 0.960 . S
H1486 C1478 0.930 . S
H1487 C1479 0.929 . S
H1488 C1496 0.929 . S
H1489 C1498 0.930 . S
H1490 C1500 0.930 . S
H1491 C1503 0.929 . S
H1492 C1506 0.930 . S
H1493 C1508 0.960 . S
H1494 C1508 0.960 . S
H1495 C1508 0.960 . S
C1496 H1488 0.929 . S
C1496 C1497 1.377 . S
C1496 C1498 1.384 . S
C1497 C1496 1.377 . S
C1497 C1503 1.390 . S
C1498 H1489 0.930 . S
C1498 C1496 1.384 . S
C1498 C1499 1.372 . S
C1499 C1498 1.372 . S
C1499 C1500 1.400 . S
C1499 C1504 1.490 . S
C1500 H1490 0.930 . S
C1500 C1499 1.400 . S
C1500 C1503 1.386 . S
H1501 C1517 0.930 . S
H1502 C1518 0.931 . S
C1503 H1491 0.929 . S
C1503 C1497 1.390 . S
C1503 C1500 1.386 . S
C1504 C1499 1.490 . S
C1504 C1506 1.395 . S
C1504 C1507 1.403 . S
H1505 C1511 0.930 . S
C1506 H1492 0.930 . S
C1506 C1504 1.395 . S
C1506 C1509 1.403 . S
C1507 C1504 1.403 . S
C1507 C1508 1.524 . S
C1507 C1511 1.400 . S
C1508 H1493 0.960 . S
C1508 H1494 0.960 . S
C1508 H1495 0.960 . S
C1508 C1507 1.524 . S
C1509 C1506 1.403 . S
C1509 C1510 1.392 . S
C1509 C1513 1.495 . S
C1510 C1509 1.392 . S
C1510 C1511 1.385 . S
C1510 C1512 1.478 . S
C1511 H1505 0.930 . S
C1511 C1507 1.400 . S
C1511 C1510 1.385 . S
C1512 C1510 1.478 . S
C1512 C1514 1.381 . S
C1512 C1518 1.383 . S
C1513 C1509 1.495 . S
C1513 H1519 0.959 . S
C1513 H1520 0.961 . S
C1513 H1521 0.960 . S
C1514 C1512 1.381 . S
C1514 C1515 1.394 . S
C1514 H1522 0.930 . S
C1515 C1514 1.394 . S
C1515 C1516 1.383 . S
C1515 H1523 0.929 . S
C1516 C1515 1.383 . S
C1516 C1517 1.377 . S
C1517 H1501 0.930 . S
C1517 C1516 1.377 . S
C1517 C1518 1.379 . S
C1518 H1502 0.931 . S
C1518 C1512 1.383 . S
C1518 C1517 1.379 . S
H1519 C1513 0.959 . S
H1520 C1513 0.961 . S
H1521 C1513 0.960 . S
H1522 C1514 0.930 . S
H1523 C1515 0.929 . S
H1524 C1532 0.929 . S
H1525 C1534 0.930 . S
H1526 C1536 0.930 . S
H1527 C1539 0.929 . S
H1528 C1542 0.930 . S
H1529 C1544 0.960 . S
H1530 C1544 0.960 . S
H1531 C1544 0.960 . S
C1532 H1524 0.929 . S
C1532 C1533 1.377 . S
C1532 C1534 1.384 . S
C1533 C1532 1.377 . S
C1533 C1539 1.390 . S
C1534 H1525 0.930 . S
C1534 C1532 1.384 . S
C1534 C1535 1.372 . S
C1535 C1534 1.372 . S
C1535 C1536 1.400 . S
C1535 C1540 1.490 . S
C1536 H1526 0.930 . S
C1536 C1535 1.400 . S
C1536 C1539 1.386 . S
H1537 C1553 0.930 . S
H1538 C1554 0.931 . S
C1539 H1527 0.929 . S
C1539 C1533 1.390 . S
C1539 C1536 1.386 . S
C1540 C1535 1.490 . S
C1540 C1542 1.395 . S
C1540 C1543 1.403 . S
H1541 C1547 0.930 . S
C1542 H1528 0.930 . S
C1542 C1540 1.395 . S
C1542 C1545 1.403 . S
C1543 C1540 1.403 . S
C1543 C1544 1.524 . S
C1543 C1547 1.400 . S
C1544 H1529 0.960 . S
C1544 H1530 0.960 . S
C1544 H1531 0.960 . S
C1544 C1543 1.524 . S
C1545 C1542 1.403 . S
C1545 C1546 1.392 . S
C1545 C1549 1.495 . S
C1546 C1545 1.392 . S
C1546 C1547 1.385 . S
C1546 C1548 1.478 . S
C1547 H1541 0.930 . S
C1547 C1543 1.400 . S
C1547 C1546 1.385 . S
C1548 C1546 1.478 . S
C1548 C1550 1.381 . S
C1548 C1554 1.383 . S
C1549 C1545 1.495 . S
C1549 H1555 0.959 . S
C1549 H1556 0.961 . S
C1549 H1557 0.960 . S
C1550 C1548 1.381 . S
C1550 C1551 1.394 . S
C1550 H1558 0.930 . S
C1551 C1550 1.394 . S
C1551 C1552 1.383 . S
C1551 H1559 0.929 . S
C1552 C1551 1.383 . S
C1552 C1553 1.377 . S
C1553 H1537 0.930 . S
C1553 C1552 1.377 . S
C1553 C1554 1.379 . S
C1554 H1538 0.931 . S
C1554 C1548 1.383 . S
C1554 C1553 1.379 . S
H1555 C1549 0.959 . S
H1556 C1549 0.961 . S
H1557 C1549 0.960 . S
H1558 C1550 0.930 . S
H1559 C1551 0.929 . S
H1560 C1568 0.929 . S
H1561 C1570 0.930 . S
H1562 C1572 0.930 . S
H1563 C1575 0.929 . S
H1564 C1578 0.930 . S
H1565 C1580 0.960 . S
H1566 C1580 0.960 . S
H1567 C1580 0.960 . S
C1568 H1560 0.929 . S
C1568 C1569 1.377 . S
C1568 C1570 1.384 . S
C1569 C1568 1.377 . S
C1569 C1575 1.390 . S
C1570 H1561 0.930 . S
C1570 C1568 1.384 . S
C1570 C1571 1.372 . S
C1571 C1570 1.372 . S
C1571 C1572 1.400 . S
C1571 C1576 1.490 . S
C1572 H1562 0.930 . S
C1572 C1571 1.400 . S
C1572 C1575 1.386 . S
H1573 C1589 0.930 . S
H1574 C1590 0.931 . S
C1575 H1563 0.929 . S
C1575 C1569 1.390 . S
C1575 C1572 1.386 . S
C1576 C1571 1.490 . S
C1576 C1578 1.395 . S
C1576 C1579 1.403 . S
H1577 C1583 0.930 . S
C1578 H1564 0.930 . S
C1578 C1576 1.395 . S
C1578 C1581 1.403 . S
C1579 C1576 1.403 . S
C1579 C1580 1.524 . S
C1579 C1583 1.400 . S
C1580 H1565 0.960 . S
C1580 H1566 0.960 . S
C1580 H1567 0.960 . S
C1580 C1579 1.524 . S
C1581 C1578 1.403 . S
C1581 C1582 1.392 . S
C1581 C1585 1.495 . S
C1582 C1581 1.392 . S
C1582 C1583 1.385 . S
C1582 C1584 1.478 . S
C1583 H1577 0.930 . S
C1583 C1579 1.400 . S
C1583 C1582 1.385 . S
C1584 C1582 1.478 . S
C1584 C1586 1.381 . S
C1584 C1590 1.383 . S
C1585 C1581 1.495 . S
C1585 H1591 0.959 . S
C1585 H1592 0.961 . S
C1585 H1593 0.960 . S
C1586 C1584 1.381 . S
C1586 C1587 1.394 . S
C1586 H1594 0.930 . S
C1587 C1586 1.394 . S
C1587 C1588 1.383 . S
C1587 H1595 0.929 . S
C1588 C1587 1.383 . S
C1588 C1589 1.377 . S
C1589 H1573 0.930 . S
C1589 C1588 1.377 . S
C1589 C1590 1.379 . S
C1590 H1574 0.931 . S
C1590 C1584 1.383 . S
C1590 C1589 1.379 . S
H1591 C1585 0.959 . S
H1592 C1585 0.961 . S
H1593 C1585 0.960 . S
H1594 C1586 0.930 . S
H1595 C1587 0.929 . S
H1596 C1604 0.929 . S
H1597 C1606 0.930 . S
H1598 C1608 0.930 . S
H1599 C1611 0.929 . S
H1600 C1614 0.930 . S
H1601 C1616 0.960 . S
H1602 C1616 0.960 . S
H1603 C1616 0.960 . S
C1604 H1596 0.929 . S
C1604 C1605 1.377 . S
C1604 C1606 1.384 . S
C1605 C1604 1.377 . S
C1605 C1611 1.390 . S
C1606 H1597 0.930 . S
C1606 C1604 1.384 . S
C1606 C1607 1.372 . S
C1607 C1606 1.372 . S
C1607 C1608 1.400 . S
C1607 C1612 1.490 . S
C1608 H1598 0.930 . S
C1608 C1607 1.400 . S
C1608 C1611 1.386 . S
H1609 C1625 0.930 . S
H1610 C1626 0.931 . S
C1611 H1599 0.929 . S
C1611 C1605 1.390 . S
C1611 C1608 1.386 . S
C1612 C1607 1.490 . S
C1612 C1614 1.395 . S
C1612 C1615 1.403 . S
H1613 C1619 0.930 . S
C1614 H1600 0.930 . S
C1614 C1612 1.395 . S
C1614 C1617 1.403 . S
C1615 C1612 1.403 . S
C1615 C1616 1.524 . S
C1615 C1619 1.400 . S
C1616 H1601 0.960 . S
C1616 H1602 0.960 . S
C1616 H1603 0.960 . S
C1616 C1615 1.524 . S
C1617 C1614 1.403 . S
C1617 C1618 1.392 . S
C1617 C1621 1.495 . S
C1618 C1617 1.392 . S
C1618 C1619 1.385 . S
C1618 C1620 1.478 . S
C1619 H1613 0.930 . S
C1619 C1615 1.400 . S
C1619 C1618 1.385 . S
C1620 C1618 1.478 . S
C1620 C1622 1.381 . S
C1620 C1626 1.383 . S
C1621 C1617 1.495 . S
C1621 H1627 0.959 . S
C1621 H1628 0.961 . S
C1621 H1629 0.960 . S
C1622 C1620 1.381 . S
C1622 C1623 1.394 . S
C1622 H1630 0.930 . S
C1623 C1622 1.394 . S
C1623 C1624 1.383 . S
C1623 H1631 0.929 . S
C1624 C1623 1.383 . S
C1624 C1625 1.377 . S
C1625 H1609 0.930 . S
C1625 C1624 1.377 . S
C1625 C1626 1.379 . S
C1626 H1610 0.931 . S
C1626 C1620 1.383 . S
C1626 C1625 1.379 . S
H1627 C1621 0.959 . S
H1628 C1621 0.961 . S
H1629 C1621 0.960 . S
H1630 C1622 0.930 . S
H1631 C1623 0.929 . S
H1632 C1640 0.929 . S
H1633 C1642 0.930 . S
H1634 C1644 0.930 . S
H1635 C1647 0.929 . S
H1636 C1650 0.930 . S
H1637 C1652 0.960 . S
H1638 C1652 0.960 . S
H1639 C1652 0.960 . S
C1640 H1632 0.929 . S
C1640 C1641 1.377 . S
C1640 C1642 1.384 . S
C1641 C1640 1.377 . S
C1641 C1647 1.390 . S
C1642 H1633 0.930 . S
C1642 C1640 1.384 . S
C1642 C1643 1.372 . S
C1643 C1642 1.372 . S
C1643 C1644 1.400 . S
C1643 C1648 1.490 . S
C1644 H1634 0.930 . S
C1644 C1643 1.400 . S
C1644 C1647 1.386 . S
H1645 C1661 0.930 . S
H1646 C1662 0.931 . S
C1647 H1635 0.929 . S
C1647 C1641 1.390 . S
C1647 C1644 1.386 . S
C1648 C1643 1.490 . S
C1648 C1650 1.395 . S
C1648 C1651 1.403 . S
H1649 C1655 0.930 . S
C1650 H1636 0.930 . S
C1650 C1648 1.395 . S
C1650 C1653 1.403 . S
C1651 C1648 1.403 . S
C1651 C1652 1.524 . S
C1651 C1655 1.400 . S
C1652 H1637 0.960 . S
C1652 H1638 0.960 . S
C1652 H1639 0.960 . S
C1652 C1651 1.524 . S
C1653 C1650 1.403 . S
C1653 C1654 1.392 . S
C1653 C1657 1.495 . S
C1654 C1653 1.392 . S
C1654 C1655 1.385 . S
C1654 C1656 1.478 . S
C1655 H1649 0.930 . S
C1655 C1651 1.400 . S
C1655 C1654 1.385 . S
C1656 C1654 1.478 . S
C1656 C1658 1.381 . S
C1656 C1662 1.383 . S
C1657 C1653 1.495 . S
C1657 H1663 0.959 . S
C1657 H1664 0.961 . S
C1657 H1665 0.960 . S
C1658 C1656 1.381 . S
C1658 C1659 1.394 . S
C1658 H1666 0.930 . S
C1659 C1658 1.394 . S
C1659 C1660 1.383 . S
C1659 H1667 0.929 . S
C1660 C1659 1.383 . S
C1660 C1661 1.377 . S
C1661 H1645 0.930 . S
C1661 C1660 1.377 . S
C1661 C1662 1.379 . S
C1662 H1646 0.931 . S
C1662 C1656 1.383 . S
C1662 C1661 1.379 . S
H1663 C1657 0.959 . S
H1664 C1657 0.961 . S
H1665 C1657 0.960 . S
H1666 C1658 0.930 . S
H1667 C1659 0.929 . S
H1668 C1676 0.929 . S
H1669 C1678 0.930 . S
H1670 C1680 0.930 . S
H1671 C1683 0.929 . S
H1672 C1686 0.930 . S
H1673 C1688 0.960 . S
H1674 C1688 0.960 . S
H1675 C1688 0.960 . S
C1676 H1668 0.929 . S
C1676 C1677 1.377 . S
C1676 C1678 1.384 . S
C1677 C1676 1.377 . S
C1677 C1683 1.390 . S
C1678 H1669 0.930 . S
C1678 C1676 1.384 . S
C1678 C1679 1.372 . S
C1679 C1678 1.372 . S
C1679 C1680 1.400 . S
C1679 C1684 1.490 . S
C1680 H1670 0.930 . S
C1680 C1679 1.400 . S
C1680 C1683 1.386 . S
H1681 C1697 0.930 . S
H1682 C1698 0.931 . S
C1683 H1671 0.929 . S
C1683 C1677 1.390 . S
C1683 C1680 1.386 . S
C1684 C1679 1.490 . S
C1684 C1686 1.395 . S
C1684 C1687 1.403 . S
H1685 C1691 0.930 . S
C1686 H1672 0.930 . S
C1686 C1684 1.395 . S
C1686 C1689 1.403 . S
C1687 C1684 1.403 . S
C1687 C1688 1.524 . S
C1687 C1691 1.400 . S
C1688 H1673 0.960 . S
C1688 H1674 0.960 . S
C1688 H1675 0.960 . S
C1688 C1687 1.524 . S
C1689 C1686 1.403 . S
C1689 C1690 1.392 . S
C1689 C1693 1.495 . S
C1690 C1689 1.392 . S
C1690 C1691 1.385 . S
C1690 C1692 1.478 . S
C1691 H1685 0.930 . S
C1691 C1687 1.400 . S
C1691 C1690 1.385 . S
C1692 C1690 1.478 . S
C1692 C1694 1.381 . S
C1692 C1698 1.383 . S
C1693 C1689 1.495 . S
C1693 H1699 0.959 . S
C1693 H1700 0.961 . S
C1693 H1701 0.960 . S
C1694 C1692 1.381 . S
C1694 C1695 1.394 . S
C1694 H1702 0.930 . S
C1695 C1694 1.394 . S
C1695 C1696 1.383 . S
C1695 H1703 0.929 . S
C1696 C1695 1.383 . S
C1696 C1697 1.377 . S
C1697 H1681 0.930 . S
C1697 C1696 1.377 . S
C1697 C1698 1.379 . S
C1698 H1682 0.931 . S
C1698 C1692 1.383 . S
C1698 C1697 1.379 . S
H1699 C1693 0.959 . S
H1700 C1693 0.961 . S
H1701 C1693 0.960 . S
H1702 C1694 0.930 . S
H1703 C1695 0.929 . S
H1704 C1712 0.929 . S
H1705 C1714 0.930 . S
H1706 C1716 0.930 . S
H1707 C1719 0.929 . S
H1708 C1722 0.930 . S
H1709 C1724 0.960 . S
H1710 C1724 0.960 . S
H1711 C1724 0.960 . S
C1712 H1704 0.929 . S
C1712 C1713 1.377 . S
C1712 C1714 1.384 . S
C1713 C1712 1.377 . S
C1713 C1719 1.390 . S
C1714 H1705 0.930 . S
C1714 C1712 1.384 . S
C1714 C1715 1.372 . S
C1715 C1714 1.372 . S
C1715 C1716 1.400 . S
C1715 C1720 1.490 . S
C1716 H1706 0.930 . S
C1716 C1715 1.400 . S
C1716 C1719 1.386 . S
H1717 C1733 0.930 . S
H1718 C1734 0.931 . S
C1719 H1707 0.929 . S
C1719 C1713 1.390 . S
C1719 C1716 1.386 . S
C1720 C1715 1.490 . S
C1720 C1722 1.395 . S
C1720 C1723 1.403 . S
H1721 C1727 0.930 . S
C1722 H1708 0.930 . S
C1722 C1720 1.395 . S
C1722 C1725 1.403 . S
C1723 C1720 1.403 . S
C1723 C1724 1.524 . S
C1723 C1727 1.400 . S
C1724 H1709 0.960 . S
C1724 H1710 0.960 . S
C1724 H1711 0.960 . S
C1724 C1723 1.524 . S
C1725 C1722 1.403 . S
C1725 C1726 1.392 . S
C1725 C1729 1.495 . S
C1726 C1725 1.392 . S
C1726 C1727 1.385 . S
C1726 C1728 1.478 . S
C1727 H1721 0.930 . S
C1727 C1723 1.400 . S
C1727 C1726 1.385 . S
C1728 C1726 1.478 . S
C1728 C1730 1.381 . S
C1728 C1734 1.383 . S
C1729 C1725 1.495 . S
C1729 H1735 0.959 . S
C1729 H1736 0.961 . S
C1729 H1737 0.960 . S
C1730 C1728 1.381 . S
C1730 C1731 1.394 . S
C1730 H1738 0.930 . S
C1731 C1730 1.394 . S
C1731 C1732 1.383 . S
C1731 H1739 0.929 . S
C1732 C1731 1.383 . S
C1732 C1733 1.377 . S
C1733 H1717 0.930 . S
C1733 C1732 1.377 . S
C1733 C1734 1.379 . S
C1734 H1718 0.931 . S
C1734 C1728 1.383 . S
C1734 C1733 1.379 . S
H1735 C1729 0.959 . S
H1736 C1729 0.961 . S
H1737 C1729 0.960 . S
H1738 C1730 0.930 . S
H1739 C1731 0.929 . S
H1740 C1748 0.929 . S
H1741 C1750 0.930 . S
H1742 C1752 0.930 . S
H1743 C1755 0.929 . S
H1744 C1758 0.930 . S
H1745 C1760 0.960 . S
H1746 C1760 0.960 . S
H1747 C1760 0.960 . S
C1748 H1740 0.929 . S
C1748 C1749 1.377 . S
C1748 C1750 1.384 . S
C1749 C1748 1.377 . S
C1749 C1755 1.390 . S
C1750 H1741 0.930 . S
C1750 C1748 1.384 . S
C1750 C1751 1.372 . S
C1751 C1750 1.372 . S
C1751 C1752 1.400 . S
C1751 C1756 1.490 . S
C1752 H1742 0.930 . S
C1752 C1751 1.400 . S
C1752 C1755 1.386 . S
H1753 C1769 0.930 . S
H1754 C1770 0.931 . S
C1755 H1743 0.929 . S
C1755 C1749 1.390 . S
C1755 C1752 1.386 . S
C1756 C1751 1.490 . S
C1756 C1758 1.395 . S
C1756 C1759 1.403 . S
H1757 C1763 0.930 . S
C1758 H1744 0.930 . S
C1758 C1756 1.395 . S
C1758 C1761 1.403 . S
C1759 C1756 1.403 . S
C1759 C1760 1.524 . S
C1759 C1763 1.400 . S
C1760 H1745 0.960 . S
C1760 H1746 0.960 . S
C1760 H1747 0.960 . S
C1760 C1759 1.524 . S
C1761 C1758 1.403 . S
C1761 C1762 1.392 . S
C1761 C1765 1.495 . S
C1762 C1761 1.392 . S
C1762 C1763 1.385 . S
C1762 C1764 1.478 . S
C1763 H1757 0.930 . S
C1763 C1759 1.400 . S
C1763 C1762 1.385 . S
C1764 C1762 1.478 . S
C1764 C1766 1.381 . S
C1764 C1770 1.383 . S
C1765 C1761 1.495 . S
C1765 H1771 0.959 . S
C1765 H1772 0.961 . S
C1765 H1773 0.960 . S
C1766 C1764 1.381 . S
C1766 C1767 1.394 . S
C1766 H1774 0.930 . S
C1767 C1766 1.394 . S
C1767 C1768 1.383 . S
C1767 H1775 0.929 . S
C1768 C1767 1.383 . S
C1768 C1769 1.377 . S
C1769 H1753 0.930 . S
C1769 C1768 1.377 . S
C1769 C1770 1.379 . S
C1770 H1754 0.931 . S
C1770 C1764 1.383 . S
C1770 C1769 1.379 . S
H1771 C1765 0.959 . S
H1772 C1765 0.961 . S
H1773 C1765 0.960 . S
H1774 C1766 0.930 . S
H1775 C1767 0.929 . S
H1776 C1784 0.929 . S
H1777 C1786 0.930 . S
H1778 C1788 0.930 . S
H1779 C1791 0.929 . S
H1780 C1794 0.930 . S
H1781 C1796 0.960 . S
H1782 C1796 0.960 . S
H1783 C1796 0.960 . S
C1784 H1776 0.929 . S
C1784 C1785 1.377 . S
C1784 C1786 1.384 . S
C1785 C1784 1.377 . S
C1785 C1791 1.390 . S
C1786 H1777 0.930 . S
C1786 C1784 1.384 . S
C1786 C1787 1.372 . S
C1787 C1786 1.372 . S
C1787 C1788 1.400 . S
C1787 C1792 1.490 . S
C1788 H1778 0.930 . S
C1788 C1787 1.400 . S
C1788 C1791 1.386 . S
H1789 C1805 0.930 . S
H1790 C1806 0.931 . S
C1791 H1779 0.929 . S
C1791 C1785 1.390 . S
C1791 C1788 1.386 . S
C1792 C1787 1.490 . S
C1792 C1794 1.395 . S
C1792 C1795 1.403 . S
H1793 C1799 0.930 . S
C1794 H1780 0.930 . S
C1794 C1792 1.395 . S
C1794 C1797 1.403 . S
C1795 C1792 1.403 . S
C1795 C1796 1.524 . S
C1795 C1799 1.400 . S
C1796 H1781 0.960 . S
C1796 H1782 0.960 . S
C1796 H1783 0.960 . S
C1796 C1795 1.524 . S
C1797 C1794 1.403 . S
C1797 C1798 1.392 . S
C1797 C1801 1.495 . S
C1798 C1797 1.392 . S
C1798 C1799 1.385 . S
C1798 C1800 1.478 . S
C1799 H1793 0.930 . S
C1799 C1795 1.400 . S
C1799 C1798 1.385 . S
C1800 C1798 1.478 . S
C1800 C1802 1.381 . S
C1800 C1806 1.383 . S
C1801 C1797 1.495 . S
C1801 H1807 0.959 . S
C1801 H1808 0.961 . S
C1801 H1809 0.960 . S
C1802 C1800 1.381 . S
C1802 C1803 1.394 . S
C1802 H1810 0.930 . S
C1803 C1802 1.394 . S
C1803 C1804 1.383 . S
C1803 H1811 0.929 . S
C1804 C1803 1.383 . S
C1804 C1805 1.377 . S
C1805 H1789 0.930 . S
C1805 C1804 1.377 . S
C1805 C1806 1.379 . S
C1806 H1790 0.931 . S
C1806 C1800 1.383 . S
C1806 C1805 1.379 . S
H1807 C1801 0.959 . S
H1808 C1801 0.961 . S
H1809 C1801 0.960 . S
H1810 C1802 0.930 . S
H1811 C1803 0.929 . S
H1812 C1820 0.929 . S
H1813 C1822 0.930 . S
H1814 C1824 0.930 . S
H1815 C1827 0.929 . S
H1816 C1830 0.930 . S
H1817 C1832 0.960 . S
H1818 C1832 0.960 . S
H1819 C1832 0.960 . S
C1820 H1812 0.929 . S
C1820 C1821 1.377 . S
C1820 C1822 1.384 . S
C1821 C1820 1.377 . S
C1821 C1827 1.390 . S
C1822 H1813 0.930 . S
C1822 C1820 1.384 . S
C1822 C1823 1.372 . S
C1823 C1822 1.372 . S
C1823 C1824 1.400 . S
C1823 C1828 1.490 . S
C1824 H1814 0.930 . S
C1824 C1823 1.400 . S
C1824 C1827 1.386 . S
H1825 C1841 0.930 . S
H1826 C1842 0.931 . S
C1827 H1815 0.929 . S
C1827 C1821 1.390 . S
C1827 C1824 1.386 . S
C1828 C1823 1.490 . S
C1828 C1830 1.395 . S
C1828 C1831 1.403 . S
H1829 C1835 0.930 . S
C1830 H1816 0.930 . S
C1830 C1828 1.395 . S
C1830 C1833 1.403 . S
C1831 C1828 1.403 . S
C1831 C1832 1.524 . S
C1831 C1835 1.400 . S
C1832 H1817 0.960 . S
C1832 H1818 0.960 . S
C1832 H1819 0.960 . S
C1832 C1831 1.524 . S
C1833 C1830 1.403 . S
C1833 C1834 1.392 . S
C1833 C1837 1.495 . S
C1834 C1833 1.392 . S
C1834 C1835 1.385 . S
C1834 C1836 1.478 . S
C1835 H1829 0.930 . S
C1835 C1831 1.400 . S
C1835 C1834 1.385 . S
C1836 C1834 1.478 . S
C1836 C1838 1.381 . S
C1836 C1842 1.383 . S
C1837 C1833 1.495 . S
C1837 H1843 0.959 . S
C1837 H1844 0.961 . S
C1837 H1845 0.960 . S
C1838 C1836 1.381 . S
C1838 C1839 1.394 . S
C1838 H1846 0.930 . S
C1839 C1838 1.394 . S
C1839 C1840 1.383 . S
C1839 H1847 0.929 . S
C1840 C1839 1.383 . S
C1840 C1841 1.377 . S
C1841 H1825 0.930 . S
C1841 C1840 1.377 . S
C1841 C1842 1.379 . S
C1842 H1826 0.931 . S
C1842 C1836 1.383 . S
C1842 C1841 1.379 . S
H1843 C1837 0.959 . S
H1844 C1837 0.961 . S
H1845 C1837 0.960 . S
H1846 C1838 0.930 . S
H1847 C1839 0.929 . S
H1848 C1856 0.929 . S
H1849 C1858 0.930 . S
H1850 C1860 0.930 . S
H1851 C1863 0.929 . S
H1852 C1866 0.930 . S
H1853 C1868 0.960 . S
H1854 C1868 0.960 . S
H1855 C1868 0.960 . S
C1856 H1848 0.929 . S
C1856 C1857 1.377 . S
C1856 C1858 1.384 . S
C1857 C1856 1.377 . S
C1857 C1863 1.390 . S
C1858 H1849 0.930 . S
C1858 C1856 1.384 . S
C1858 C1859 1.372 . S
C1859 C1858 1.372 . S
C1859 C1860 1.400 . S
C1859 C1864 1.490 . S
C1860 H1850 0.930 . S
C1860 C1859 1.400 . S
C1860 C1863 1.386 . S
H1861 C1877 0.930 . S
H1862 C1878 0.931 . S
C1863 H1851 0.929 . S
C1863 C1857 1.390 . S
C1863 C1860 1.386 . S
C1864 C1859 1.490 . S
C1864 C1866 1.395 . S
C1864 C1867 1.403 . S
H1865 C1871 0.930 . S
C1866 H1852 0.930 . S
C1866 C1864 1.395 . S
C1866 C1869 1.403 . S
C1867 C1864 1.403 . S
C1867 C1868 1.524 . S
C1867 C1871 1.400 . S
C1868 H1853 0.960 . S
C1868 H1854 0.960 . S
C1868 H1855 0.960 . S
C1868 C1867 1.524 . S
C1869 C1866 1.403 . S
C1869 C1870 1.392 . S
C1869 C1873 1.495 . S
C1870 C1869 1.392 . S
C1870 C1871 1.385 . S
C1870 C1872 1.478 . S
C1871 H1865 0.930 . S
C1871 C1867 1.400 . S
C1871 C1870 1.385 . S
C1872 C1870 1.478 . S
C1872 C1874 1.381 . S
C1872 C1878 1.383 . S
C1873 C1869 1.495 . S
C1873 H1879 0.959 . S
C1873 H1880 0.961 . S
C1873 H1881 0.960 . S
C1874 C1872 1.381 . S
C1874 C1875 1.394 . S
C1874 H1882 0.930 . S
C1875 C1874 1.394 . S
C1875 C1876 1.383 . S
C1875 H1883 0.929 . S
C1876 C1875 1.383 . S
C1876 C1877 1.377 . S
C1877 H1861 0.930 . S
C1877 C1876 1.377 . S
C1877 C1878 1.379 . S
C1878 H1862 0.931 . S
C1878 C1872 1.383 . S
C1878 C1877 1.379 . S
H1879 C1873 0.959 . S
H1880 C1873 0.961 . S
H1881 C1873 0.960 . S
H1882 C1874 0.930 . S
H1883 C1875 0.929 . S
H1884 C1892 0.929 . S
H1885 C1894 0.930 . S
H1886 C1896 0.930 . S
H1887 C1899 0.929 . S
H1888 C1902 0.930 . S
H1889 C1904 0.960 . S
H1890 C1904 0.960 . S
H1891 C1904 0.960 . S
C1892 H1884 0.929 . S
C1892 C1893 1.377 . S
C1892 C1894 1.384 . S
C1893 C1892 1.377 . S
C1893 C1899 1.390 . S
C1894 H1885 0.930 . S
C1894 C1892 1.384 . S
C1894 C1895 1.372 . S
C1895 C1894 1.372 . S
C1895 C1896 1.400 . S
C1895 C1900 1.490 . S
C1896 H1886 0.930 . S
C1896 C1895 1.400 . S
C1896 C1899 1.386 . S
H1897 C1913 0.930 . S
H1898 C1914 0.931 . S
C1899 H1887 0.929 . S
C1899 C1893 1.390 . S
C1899 C1896 1.386 . S
C1900 C1895 1.490 . S
C1900 C1902 1.395 . S
C1900 C1903 1.403 . S
H1901 C1907 0.930 . S
C1902 H1888 0.930 . S
C1902 C1900 1.395 . S
C1902 C1905 1.403 . S
C1903 C1900 1.403 . S
C1903 C1904 1.524 . S
C1903 C1907 1.400 . S
C1904 H1889 0.960 . S
C1904 H1890 0.960 . S
C1904 H1891 0.960 . S
C1904 C1903 1.524 . S
C1905 C1902 1.403 . S
C1905 C1906 1.392 . S
C1905 C1909 1.495 . S
C1906 C1905 1.392 . S
C1906 C1907 1.385 . S
C1906 C1908 1.478 . S
C1907 H1901 0.930 . S
C1907 C1903 1.400 . S
C1907 C1906 1.385 . S
C1908 C1906 1.478 . S
C1908 C1910 1.381 . S
C1908 C1914 1.383 . S
C1909 C1905 1.495 . S
C1909 H1915 0.959 . S
C1909 H1916 0.961 . S
C1909 H1917 0.960 . S
C1910 C1908 1.381 . S
C1910 C1911 1.394 . S
C1910 H1918 0.930 . S
C1911 C1910 1.394 . S
C1911 C1912 1.383 . S
C1911 H1919 0.929 . S
C1912 C1911 1.383 . S
C1912 C1913 1.377 . S
C1913 H1897 0.930 . S
C1913 C1912 1.377 . S
C1913 C1914 1.379 . S
C1914 H1898 0.931 . S
C1914 C1908 1.383 . S
C1914 C1913 1.379 . S
H1915 C1909 0.959 . S
H1916 C1909 0.961 . S
H1917 C1909 0.960 . S
H1918 C1910 0.930 . S
H1919 C1911 0.929 . S
H1920 C1928 0.929 . S
H1921 C1930 0.930 . S
H1922 C1932 0.930 . S
H1923 C1935 0.929 . S
H1924 C1938 0.930 . S
H1925 C1940 0.960 . S
H1926 C1940 0.960 . S
H1927 C1940 0.960 . S
C1928 H1920 0.929 . S
C1928 C1929 1.377 . S
C1928 C1930 1.384 . S
C1929 C1928 1.377 . S
C1929 C1935 1.390 . S
C1930 H1921 0.930 . S
C1930 C1928 1.384 . S
C1930 C1931 1.372 . S
C1931 C1930 1.372 . S
C1931 C1932 1.400 . S
C1931 C1936 1.490 . S
C1932 H1922 0.930 . S
C1932 C1931 1.400 . S
C1932 C1935 1.386 . S
H1933 C1949 0.930 . S
H1934 C1950 0.931 . S
C1935 H1923 0.929 . S
C1935 C1929 1.390 . S
C1935 C1932 1.386 . S
C1936 C1931 1.490 . S
C1936 C1938 1.395 . S
C1936 C1939 1.403 . S
H1937 C1943 0.930 . S
C1938 H1924 0.930 . S
C1938 C1936 1.395 . S
C1938 C1941 1.403 . S
C1939 C1936 1.403 . S
C1939 C1940 1.524 . S
C1939 C1943 1.400 . S
C1940 H1925 0.960 . S
C1940 H1926 0.960 . S
C1940 H1927 0.960 . S
C1940 C1939 1.524 . S
C1941 C1938 1.403 . S
C1941 C1942 1.392 . S
C1941 C1945 1.495 . S
C1942 C1941 1.392 . S
C1942 C1943 1.385 . S
C1942 C1944 1.478 . S
C1943 H1937 0.930 . S
C1943 C1939 1.400 . S
C1943 C1942 1.385 . S
C1944 C1942 1.478 . S
C1944 C1946 1.381 . S
C1944 C1950 1.383 . S
C1945 C1941 1.495 . S
C1945 H1951 0.959 . S
C1945 H1952 0.961 . S
C1945 H1953 0.960 . S
C1946 C1944 1.381 . S
C1946 C1947 1.394 . S
C1946 H1954 0.930 . S
C1947 C1946 1.394 . S
C1947 C1948 1.383 . S
C1947 H1955 0.929 . S
C1948 C1947 1.383 . S
C1948 C1949 1.377 . S
C1949 H1933 0.930 . S
C1949 C1948 1.377 . S
C1949 C1950 1.379 . S
C1950 H1934 0.931 . S
C1950 C1944 1.383 . S
C1950 C1949 1.379 . S
H1951 C1945 0.959 . S
H1952 C1945 0.961 . S
H1953 C1945 0.960 . S
H1954 C1946 0.930 . S
H1955 C1947 0.929 . S
H1956 C1964 0.929 . S
H1957 C1966 0.930 . S
H1958 C1968 0.930 . S
H1959 C1971 0.929 . S
H1960 C1974 0.930 . S
H1961 C1976 0.960 . S
H1962 C1976 0.960 . S
H1963 C1976 0.960 . S
C1964 H1956 0.929 . S
C1964 C1965 1.377 . S
C1964 C1966 1.384 . S
C1965 C1964 1.377 . S
C1965 C1971 1.390 . S
C1966 H1957 0.930 . S
C1966 C1964 1.384 . S
C1966 C1967 1.372 . S
C1967 C1966 1.372 . S
C1967 C1968 1.400 . S
C1967 C1972 1.490 . S
C1968 H1958 0.930 . S
C1968 C1967 1.400 . S
C1968 C1971 1.386 . S
H1969 C1985 0.930 . S
H1970 C1986 0.931 . S
C1971 H1959 0.929 . S
C1971 C1965 1.390 . S
C1971 C1968 1.386 . S
C1972 C1967 1.490 . S
C1972 C1974 1.395 . S
C1972 C1975 1.403 . S
H1973 C1979 0.930 . S
C1974 H1960 0.930 . S
C1974 C1972 1.395 . S
C1974 C1977 1.403 . S
C1975 C1972 1.403 . S
C1975 C1976 1.524 . S
C1975 C1979 1.400 . S
C1976 H1961 0.960 . S
C1976 H1962 0.960 . S
C1976 H1963 0.960 . S
C1976 C1975 1.524 . S
C1977 C1974 1.403 . S
C1977 C1978 1.392 . S
C1977 C1981 1.495 . S
C1978 C1977 1.392 . S
C1978 C1979 1.385 . S
C1978 C1980 1.478 . S
C1979 H1973 0.930 . S
C1979 C1975 1.400 . S
C1979 C1978 1.385 . S
C1980 C1978 1.478 . S
C1980 C1982 1.381 . S
C1980 C1986 1.383 . S
C1981 C1977 1.495 . S
C1981 H1987 0.959 . S
C1981 H1988 0.961 . S
C1981 H1989 0.960 . S
C1982 C1980 1.381 . S
C1982 C1983 1.394 . S
C1982 H1990 0.930 . S
C1983 C1982 1.394 . S
C1983 C1984 1.383 . S
C1983 H1991 0.929 . S
C1984 C1983 1.383 . S
C1984 C1985 1.377 . S
C1985 H1969 0.930 . S
C1985 C1984 1.377 . S
C1985 C1986 1.379 . S
C1986 H1970 0.931 . S
C1986 C1980 1.383 . S
C1986 C1985 1.379 . S
H1987 C1981 0.959 . S
H1988 C1981 0.961 . S
H1989 C1981 0.960 . S
H1990 C1982 0.930 . S
H1991 C1983 0.929 . S
H1992 C2000 0.929 . S
H1993 C2002 0.930 . S
H1994 C2004 0.930 . S
H1995 C2007 0.929 . S
H1996 C2010 0.930 . S
H1997 C2012 0.960 . S
H1998 C2012 0.960 . S
H1999 C2012 0.960 . S
C2000 H1992 0.929 . S
C2000 C2001 1.377 . S
C2000 C2002 1.384 . S
C2001 C2000 1.377 . S
C2001 C2007 1.390 . S
C2002 H1993 0.930 . S
C2002 C2000 1.384 . S
C2002 C2003 1.372 . S
C2003 C2002 1.372 . S
C2003 C2004 1.400 . S
C2003 C2008 1.490 . S
C2004 H1994 0.930 . S
C2004 C2003 1.400 . S
C2004 C2007 1.386 . S
H2005 C2021 0.930 . S
H2006 C2022 0.931 . S
C2007 H1995 0.929 . S
C2007 C2001 1.390 . S
C2007 C2004 1.386 . S
C2008 C2003 1.490 . S
C2008 C2010 1.395 . S
C2008 C2011 1.403 . S
H2009 C2015 0.930 . S
C2010 H1996 0.930 . S
C2010 C2008 1.395 . S
C2010 C2013 1.403 . S
C2011 C2008 1.403 . S
C2011 C2012 1.524 . S
C2011 C2015 1.400 . S
C2012 H1997 0.960 . S
C2012 H1998 0.960 . S
C2012 H1999 0.960 . S
C2012 C2011 1.524 . S
C2013 C2010 1.403 . S
C2013 C2014 1.392 . S
C2013 C2017 1.495 . S
C2014 C2013 1.392 . S
C2014 C2015 1.385 . S
C2014 C2016 1.478 . S
C2015 H2009 0.930 . S
C2015 C2011 1.400 . S
C2015 C2014 1.385 . S
C2016 C2014 1.478 . S
C2016 C2018 1.381 . S
C2016 C2022 1.383 . S
C2017 C2013 1.495 . S
C2017 H2023 0.959 . S
C2017 H2024 0.961 . S
C2017 H2025 0.960 . S
C2018 C2016 1.381 . S
C2018 C2019 1.394 . S
C2018 H2026 0.930 . S
C2019 C2018 1.394 . S
C2019 C2020 1.383 . S
C2019 H2027 0.929 . S
C2020 C2019 1.383 . S
C2020 C2021 1.377 . S
C2021 H2005 0.930 . S
C2021 C2020 1.377 . S
C2021 C2022 1.379 . S
C2022 H2006 0.931 . S
C2022 C2016 1.383 . S
C2022 C2021 1.379 . S
H2023 C2017 0.959 . S
H2024 C2017 0.961 . S
H2025 C2017 0.960 . S
H2026 C2018 0.930 . S
H2027 C2019 0.929 . S
H2028 C2036 0.929 . S
H2029 C2038 0.930 . S
H2030 C2040 0.930 . S
H2031 C2043 0.929 . S
H2032 C2046 0.930 . S
H2033 C2048 0.960 . S
H2034 C2048 0.960 . S
H2035 C2048 0.960 . S
C2036 H2028 0.929 . S
C2036 C2037 1.377 . S
C2036 C2038 1.384 . S
C2037 C2036 1.377 . S
C2037 C2043 1.390 . S
C2038 H2029 0.930 . S
C2038 C2036 1.384 . S
C2038 C2039 1.372 . S
C2039 C2038 1.372 . S
C2039 C2040 1.400 . S
C2039 C2044 1.490 . S
C2040 H2030 0.930 . S
C2040 C2039 1.400 . S
C2040 C2043 1.386 . S
H2041 C2057 0.930 . S
H2042 C2058 0.931 . S
C2043 H2031 0.929 . S
C2043 C2037 1.390 . S
C2043 C2040 1.386 . S
C2044 C2039 1.490 . S
C2044 C2046 1.395 . S
C2044 C2047 1.403 . S
H2045 C2051 0.930 . S
C2046 H2032 0.930 . S
C2046 C2044 1.395 . S
C2046 C2049 1.403 . S
C2047 C2044 1.403 . S
C2047 C2048 1.524 . S
C2047 C2051 1.400 . S
C2048 H2033 0.960 . S
C2048 H2034 0.960 . S
C2048 H2035 0.960 . S
C2048 C2047 1.524 . S
C2049 C2046 1.403 . S
C2049 C2050 1.392 . S
C2049 C2053 1.495 . S
C2050 C2049 1.392 . S
C2050 C2051 1.385 . S
C2050 C2052 1.478 . S
C2051 H2045 0.930 . S
C2051 C2047 1.400 . S
C2051 C2050 1.385 . S
C2052 C2050 1.478 . S
C2052 C2054 1.381 . S
C2052 C2058 1.383 . S
C2053 C2049 1.495 . S
C2053 H2059 0.959 . S
C2053 H2060 0.961 . S
C2053 H2061 0.960 . S
C2054 C2052 1.381 . S
C2054 C2055 1.394 . S
C2054 H2062 0.930 . S
C2055 C2054 1.394 . S
C2055 C2056 1.383 . S
C2055 H2063 0.929 . S
C2056 C2055 1.383 . S
C2056 C2057 1.377 . S
C2057 H2041 0.930 . S
C2057 C2056 1.377 . S
C2057 C2058 1.379 . S
C2058 H2042 0.931 . S
C2058 C2052 1.383 . S
C2058 C2057 1.379 . S
H2059 C2053 0.959 . S
H2060 C2053 0.961 . S
H2061 C2053 0.960 . S
H2062 C2054 0.930 . S
H2063 C2055 0.929 . S
C345 C309 1.617 . S
C364 C0 1.603 . S
C381 C15 1.613 . S
C400 C335 1.607 . S
C417 C281 1.617 . S
C436 C40 1.612 . S
C453 C295 1.613 . S
C472 C54 1.600 . S
C489 C294 1.617 . S
C508 C69 1.628 . S
C525 C82 1.615 . S
C544 C308 1.612 . S
C561 C334 1.615 . S
C580 C96 1.614 . S
C597 C110 1.619 . S
C616 C280 1.621 . S
C633 C124 1.616 . S
C652 C279 1.596 . S
C669 C224 1.618 . S
C688 C126 1.603 . S
C705 C140 1.618 . S
C724 C250 1.620 . S
C741 C252 1.615 . S
C760 C167 1.599 . S
C777 C166 1.616 . S
C796 C182 1.624 . S
C813 C125 1.613 . S
C832 C197 1.609 . S
C849 C211 1.617 . S
C868 C127 1.612 . S
C885 C141 1.614 . S
C904 C180 1.607 . S
C921 C14 1.618 . S
C940 C253 1.604 . S
C957 C196 1.617 . S
C976 C111 1.619 . S
C993 C68 1.615 . S
C1012 C210 1.601 . S
C1029 C181 1.613 . S
C1048 C83 1.611 . S
C1065 C97 1.613 . S
C1084 C183 1.607 . S
C1101 C55 1.614 . S
C1120 C225 1.606 . S
C1137 C1 1.614 . S
C1156 C251 1.607 . S
C1173 C41 1.618 . S
C1192 C278 1.615 . S
C1209 C85 1.616 . S
C1228 C292 1.605 . S
C1245 C306 1.617 . S
C1264 C99 1.620 . S
C1281 C320 1.615 . S
C1300 C56 1.617 . S
C1317 C322 1.618 . S
C1336 C71 1.624 . S
C1353 C29 1.615 . S
C1372 C323 1.598 . S
C1389 C43 1.616 . S
C1408 C293 1.625 . S
C1425 C13 1.618 . S
C1444 C307 1.628 . S
C1461 C321 1.619 . S
C1480 C26 1.609 . S
C1497 C153 1.619 . S
C1516 C195 1.624 . S
C1533 C154 1.617 . S
C1552 C208 1.610 . S
C1569 C113 1.619 . S
C1588 C222 1.616 . S
C1605 C139 1.618 . S
C1624 C169 1.628 . S
C1641 C138 1.618 . S
C1660 C266 1.618 . S
C1677 C237 1.615 . S
C1696 C152 1.607 . S
C1713 C155 1.618 . S
C1732 C239 1.605 . S
C1749 C112 1.614 . S
C1768 C265 1.611 . S
C1785 C168 1.617 . S
C1804 C98 1.615 . S
C1821 C236 1.616 . S
C1840 C27 1.627 . S
C1857 C28 1.613 . S
C1876 C238 1.607 . S
C1893 C264 1.614 . S
C1912 C42 1.610 . S
C1929 C267 1.618 . S
C1948 C12 1.606 . S
C1965 C70 1.618 . S
C1984 C209 1.610 . S
C2001 C223 1.619 . S
C2020 C84 1.610 . S
C2037 C194 1.613 . S
C2056 C57 1.613 . S
