# Generated by pormake.
# Topology whc, (6)-cn, num edge types: 1
# Building blocks:
#     Node 0, Type 0, BuildingBlock: OJICUG_clean_sbu_0, # of connection points: 6
#     Node 1, Type 0, BuildingBlock: OJICUG_clean_sbu_0, # of connection points: 6
#     Node 2, Type 0, BuildingBlock: OJICUG_clean_sbu_0, # of connection points: 6
#     Node 3, Type 0, BuildingBlock: OJICUG_clean_sbu_0, # of connection points: 6
#     Node 4, Type 0, BuildingBlock: OJICUG_clean_sbu_0, # of connection points: 6
#     Node 5, Type 0, BuildingBlock: OJICUG_clean_sbu_0, # of connection points: 6
#     Node 6, Type 0, BuildingBlock: OJICUG_clean_sbu_0, # of connection points: 6
#     Node 7, Type 0, BuildingBlock: OJICUG_clean_sbu_0, # of connection points: 6
#     Edge 8, Type (0, 0), BuildingBlock: CIFDUS_clean_linker_0, # of connection points: 2
#     Edge 9, Type (0, 0), BuildingBlock: CIFDUS_clean_linker_0, # of connection points: 2
#     Edge 10, Type (0, 0), BuildingBlock: CIFDUS_clean_linker_0, # of connection points: 2
#     Edge 11, Type (0, 0), BuildingBlock: CIFDUS_clean_linker_0, # of connection points: 2
#     Edge 12, Type (0, 0), BuildingBlock: CIFDUS_clean_linker_0, # of connection points: 2
#     Edge 13, Type (0, 0), BuildingBlock: CIFDUS_clean_linker_0, # of connection points: 2
#     Edge 14, Type (0, 0), BuildingBlock: CIFDUS_clean_linker_0, # of connection points: 2
#     Edge 15, Type (0, 0), BuildingBlock: CIFDUS_clean_linker_0, # of connection points: 2
#     Edge 16, Type (0, 0), BuildingBlock: CIFDUS_clean_linker_0, # of connection points: 2
#     Edge 17, Type (0, 0), BuildingBlock: CIFDUS_clean_linker_0, # of connection points: 2
#     Edge 18, Type (0, 0), BuildingBlock: CIFDUS_clean_linker_0, # of connection points: 2
#     Edge 19, Type (0, 0), BuildingBlock: CIFDUS_clean_linker_0, # of connection points: 2
#     Edge 20, Type (0, 0), BuildingBlock: CIFDUS_clean_linker_0, # of connection points: 2
#     Edge 21, Type (0, 0), BuildingBlock: CIFDUS_clean_linker_0, # of connection points: 2
#     Edge 22, Type (0, 0), BuildingBlock: CIFDUS_clean_linker_0, # of connection points: 2
#     Edge 23, Type (0, 0), BuildingBlock: CIFDUS_clean_linker_0, # of connection points: 2
#     Edge 24, Type (0, 0), BuildingBlock: CIFDUS_clean_linker_0, # of connection points: 2
#     Edge 25, Type (0, 0), BuildingBlock: CIFDUS_clean_linker_0, # of connection points: 2
#     Edge 26, Type (0, 0), BuildingBlock: CIFDUS_clean_linker_0, # of connection points: 2
#     Edge 27, Type (0, 0), BuildingBlock: CIFDUS_clean_linker_0, # of connection points: 2
#     Edge 28, Type (0, 0), BuildingBlock: CIFDUS_clean_linker_0, # of connection points: 2
#     Edge 29, Type (0, 0), BuildingBlock: CIFDUS_clean_linker_0, # of connection points: 2
#     Edge 30, Type (0, 0), BuildingBlock: CIFDUS_clean_linker_0, # of connection points: 2
#     Edge 31, Type (0, 0), BuildingBlock: CIFDUS_clean_linker_0, # of connection points: 2
# Relax obj value: 0.339
# Max RMSD: 0.283
# Mean RMSD: 0.283
data_MOF--net-whc--node1-OJICUG_clean_sbu_0--edge1-CIFDUS_clean_linker_0
_symmetry_space_group_name_H-M    P1
_symmetry_Int_Tables_number       1
_symmetry_cell_setting            triclinic
loop_
_symmetry_equiv_pos_as_xyz
'x, y, z'
_cell_length_a     31.755602
_cell_length_b     31.733834
_cell_length_c     27.308911
_cell_angle_alpha  90.067487
_cell_angle_beta   90.020624
_cell_angle_gamma 90.196298
loop_
_atom_site_label
_atom_site_type_symbol
_atom_site_fract_x
_atom_site_fract_y
_atom_site_fract_z
_atom_type_partial_charge
Sc0 Sc 0.42843 0.26672 0.14349 0.0
Sc1 Sc 0.40338 0.17126 0.08446 0.0
Sc2 Sc 0.50541 0.19174 0.12468 0.0
O3 O 0.44524 0.20996 0.11811 0.0
C4 C 0.52037 0.28986 0.11154 0.0
C5 C 0.38419 0.26104 0.03867 0.0
C6 C 0.48345 0.16973 0.01571 0.0
C7 C 0.3467 0.21227 0.16712 0.0
C8 C 0.48136 0.22432 0.23057 0.0
C9 C 0.45688 0.10463 0.13756 0.0
O10 O 0.48172 0.29909 0.11326 0.0
O11 O 0.38431 0.22099 0.03582 0.0
O12 O 0.50831 0.18906 0.04501 0.0
O13 O 0.37227 0.24216 0.17546 0.0
O14 O 0.49956 0.19645 0.20401 0.0
O15 O 0.42016 0.11919 0.13065 0.0
O16 O 0.45933 0.25422 0.21261 0.0
O17 O 0.352 0.18495 0.13378 0.0
O18 O 0.48981 0.12613 0.12929 0.0
O19 O 0.39703 0.28146 0.07601 0.0
O20 O 0.53357 0.25321 0.12097 0.0
O21 O 0.44921 0.15267 0.02988 0.0
Sc22 Sc 0.27377 0.52297 0.82165 0.0
Sc23 Sc 0.19068 0.55703 0.89496 0.0
Sc24 Sc 0.19904 0.45182 0.86229 0.0
O25 O 0.22122 0.51106 0.85923 0.0
C26 C 0.21679 0.46569 0.75209 0.0
C27 C 0.21994 0.60392 0.79803 0.0
C28 C 0.11474 0.50461 0.85967 0.0
C29 C 0.28619 0.57648 0.9199 0.0
C30 C 0.2964 0.43419 0.86192 0.0
C31 C 0.19378 0.48097 0.96966 0.0
O32 O 0.25149 0.4845 0.76158 0.0
O33 O 0.20116 0.60408 0.83909 0.0
O34 O 0.13479 0.47122 0.86969 0.0
O35 O 0.29927 0.56245 0.8789 0.0
O36 O 0.25904 0.42155 0.85488 0.0
O37 O 0.17709 0.51528 0.95527 0.0
O38 O 0.30691 0.47242 0.85656 0.0
O39 O 0.24759 0.57529 0.93258 0.0
O40 O 0.20763 0.45322 0.94011 0.0
O41 O 0.24514 0.57507 0.78489 0.0
O42 O 0.19137 0.45261 0.78477 0.0
O43 O 0.13228 0.54066 0.85956 0.0
Sc44 Sc 0.51586 0.70208 0.16905 0.0
Sc45 Sc 0.55998 0.78429 0.0997 0.0
Sc46 Sc 0.45268 0.78459 0.13047 0.0
O47 O 0.50977 0.75698 0.13309 0.0
C48 C 0.42627 0.68865 0.1222 0.0
C49 C 0.5714 0.68737 0.07299 0.0
C50 C 0.48503 0.79647 0.02316 0.0
C51 C 0.6006 0.74925 0.19767 0.0
C52 C 0.46154 0.75905 0.24127 0.0
C53 C 0.51406 0.86396 0.13987 0.0
O54 O 0.46259 0.67443 0.13188 0.0
O55 O 0.57531 0.72621 0.06192 0.0
O56 O 0.45524 0.78478 0.05139 0.0
O57 O 0.57009 0.72483 0.2079 0.0
O58 O 0.45006 0.78577 0.20923 0.0
O59 O 0.54863 0.84451 0.13407 0.0
O60 O 0.47973 0.72455 0.23053 0.0
O61 O 0.60317 0.76999 0.15808 0.0
O62 O 0.47852 0.84646 0.13386 0.0
O63 O 0.5533 0.67491 0.1119 0.0
O64 O 0.41689 0.72718 0.12682 0.0
O65 O 0.52275 0.80215 0.03739 0.0
Sc66 Sc 0.70862 0.44085 0.86197 0.0
Sc67 Sc 0.79894 0.40657 0.92461 0.0
Sc68 Sc 0.79191 0.50922 0.88006 0.0
O69 O 0.76648 0.45166 0.88835 0.0
C70 C 0.75721 0.48802 0.77462 0.0
C71 C 0.75253 0.35297 0.84219 0.0
C72 C 0.87241 0.45002 0.87043 0.0
C73 C 0.70666 0.39636 0.96711 0.0
C74 C 0.69682 0.5351 0.89432 0.0
C75 C 0.81153 0.48816 0.98966 0.0
O76 O 0.72454 0.47046 0.79289 0.0
O77 O 0.77831 0.35594 0.87754 0.0
O78 O 0.85461 0.48537 0.87618 0.0
O79 O 0.68917 0.40998 0.92829 0.0
O80 O 0.73426 0.54433 0.88263 0.0
O81 O 0.82308 0.45127 0.97744 0.0
O82 O 0.68319 0.49754 0.89349 0.0
O83 O 0.74645 0.39463 0.97275 0.0
O84 O 0.79514 0.51406 0.95942 0.0
O85 O 0.72752 0.38224 0.82983 0.0
O86 O 0.78723 0.50261 0.80102 0.0
O87 O 0.85382 0.41533 0.8793 0.0
Sc88 Sc 0.46818 0.19325 0.62439 0.0
Sc89 Sc 0.57206 0.17956 0.58552 0.0
Sc90 Sc 0.54099 0.2722 0.64642 0.0
O91 O 0.52753 0.21497 0.61919 0.0
C92 C 0.44972 0.29002 0.60677 0.0
C93 C 0.49252 0.17136 0.51575 0.0
C94 C 0.58957 0.27105 0.54381 0.0
C95 C 0.52159 0.10908 0.63826 0.0
C96 C 0.48721 0.22762 0.73109 0.0
C97 C 0.62465 0.22247 0.67133 0.0
O98 O 0.43737 0.25317 0.61735 0.0
O99 O 0.52864 0.15873 0.52947 0.0
O100 O 0.57537 0.28943 0.58178 0.0
O101 O 0.48767 0.12918 0.63143 0.0
O102 O 0.50776 0.25889 0.71386 0.0
O103 O 0.62165 0.19674 0.63587 0.0
O104 O 0.47157 0.19867 0.70387 0.0
O105 O 0.55761 0.12517 0.6299 0.0
O106 O 0.59664 0.24948 0.68172 0.0
O107 O 0.46625 0.18864 0.5449 0.0
O108 O 0.48774 0.30138 0.61191 0.0
O109 O 0.58964 0.23119 0.53837 0.0
Sc110 Sc 0.19716 0.51643 0.36228 0.0
Sc111 Sc 0.18177 0.41029 0.39533 0.0
Sc112 Sc 0.27513 0.44226 0.33628 0.0
O113 O 0.21799 0.45614 0.36449 0.0
C114 C 0.23134 0.50032 0.25568 0.0
C115 C 0.1109 0.46602 0.34805 0.0
C116 C 0.22009 0.36177 0.305 0.0
C117 C 0.17582 0.48805 0.46965 0.0
C118 C 0.29502 0.53327 0.37737 0.0
C119 C 0.27432 0.38876 0.43471 0.0
O120 O 0.20503 0.51766 0.28445 0.0
O121 O 0.12512 0.42971 0.35823 0.0
O122 O 0.25134 0.38659 0.30106 0.0
O123 O 0.18903 0.51634 0.44033 0.0
O124 O 0.3065 0.49584 0.36846 0.0
O125 O 0.23435 0.38587 0.43693 0.0
O126 O 0.25721 0.54504 0.37337 0.0
O127 O 0.16825 0.45025 0.4566 0.0
O128 O 0.29351 0.40802 0.40051 0.0
O129 O 0.1331 0.49907 0.35124 0.0
O130 O 0.26014 0.47526 0.26984 0.0
O131 O 0.19192 0.36537 0.33757 0.0
Sc132 Sc 0.50613 0.78362 0.63579 0.0
Sc133 Sc 0.40535 0.802 0.59112 0.0
Sc134 Sc 0.43027 0.70692 0.64958 0.0
O135 O 0.44655 0.76426 0.62627 0.0
C136 C 0.52276 0.68685 0.61967 0.0
C137 C 0.48684 0.80321 0.52657 0.0
C138 C 0.38762 0.71235 0.54397 0.0
C139 C 0.45602 0.86985 0.64613 0.0
C140 C 0.48039 0.74915 0.73862 0.0
C141 C 0.34762 0.75936 0.67202 0.0
O142 O 0.53502 0.72258 0.63462 0.0
O143 O 0.45358 0.82213 0.54038 0.0
O144 O 0.39872 0.69246 0.58224 0.0
O145 O 0.48933 0.84888 0.63875 0.0
O146 O 0.4612 0.71805 0.71883 0.0
O147 O 0.35264 0.78587 0.6377 0.0
O148 O 0.49722 0.77904 0.71395 0.0
O149 O 0.41961 0.85433 0.63878 0.0
O150 O 0.374 0.7307 0.68216 0.0
O151 O 0.51157 0.7853 0.55692 0.0
O152 O 0.48413 0.67721 0.61746 0.0
O153 O 0.38883 0.75236 0.54042 0.0
Sc154 Sc 0.78878 0.4769 0.3799 0.0
Sc155 Sc 0.80184 0.5808 0.42103 0.0
Sc156 Sc 0.70957 0.54938 0.35881 0.0
O157 O 0.76673 0.53606 0.38632 0.0
C158 C 0.7551 0.49783 0.27326 0.0
C159 C 0.87292 0.5311 0.36791 0.0
C160 C 0.7602 0.63381 0.33573 0.0
C161 C 0.80973 0.50001 0.48959 0.0
C162 C 0.69146 0.45656 0.39303 0.0
C163 C 0.70939 0.59586 0.46245 0.0
O164 O 0.78323 0.48105 0.30051 0.0
O165 O 0.8572 0.56677 0.37833 0.0
O166 O 0.7318 0.60662 0.32716 0.0
O167 O 0.79373 0.47367 0.45935 0.0
O168 O 0.67971 0.49439 0.3884 0.0
O169 O 0.74927 0.59829 0.46697 0.0
O170 O 0.7292 0.4454 0.3861 0.0
O171 O 0.82062 0.53723 0.47758 0.0
O172 O 0.69122 0.58058 0.42489 0.0
O173 O 0.85261 0.49696 0.37285 0.0
O174 O 0.72444 0.51911 0.29036 0.0
O175 O 0.78706 0.6304 0.36985 0.0
H176 H 0.24082 0.28303 0.32927 0.0
H177 H 0.20207 0.36069 0.20837 0.0
H178 H 0.22738 0.30786 0.15026 0.0
H179 H 0.27845 0.25183 0.13596 0.0
H180 H 0.32877 0.18245 0.25774 0.0
H181 H 0.28004 0.21787 0.31348 0.0
C182 C 0.23618 0.28713 0.29019 0.0
C183 C 0.2197 0.32514 0.27264 0.0
C184 C 0.25355 0.25805 0.25729 0.0
C185 C 0.21446 0.33122 0.2222 0.0
C186 C 0.22929 0.30124 0.18913 0.0
C187 C 0.27682 0.24289 0.17429 0.0
C188 C 0.30665 0.21476 0.19309 0.0
C189 C 0.25148 0.26609 0.20635 0.0
C190 C 0.30549 0.20375 0.24274 0.0
C191 C 0.27819 0.22459 0.27463 0.0
H192 H 0.23727 0.68285 0.82654 0.0
H193 H 0.20354 0.60798 0.70079 0.0
H194 H 0.22932 0.66321 0.64614 0.0
H195 H 0.28047 0.72019 0.6364 0.0
H196 H 0.32686 0.78613 0.76319 0.0
H197 H 0.27634 0.74886 0.81521 0.0
C198 C 0.23376 0.67978 0.78716 0.0
C199 C 0.21897 0.64171 0.76736 0.0
C200 C 0.25178 0.71013 0.75626 0.0
C201 C 0.215 0.63725 0.71646 0.0
C202 C 0.23009 0.66864 0.68533 0.0
C203 C 0.27762 0.72796 0.67499 0.0
C204 C 0.30685 0.75561 0.69629 0.0
C205 C 0.25138 0.70358 0.70495 0.0
C206 C 0.3041 0.76514 0.7463 0.0
C207 C 0.27574 0.74328 0.77605 0.0
H208 H 0.7152 0.6979 0.36771 0.0
H209 H 0.78955 0.65552 0.24576 0.0
H210 H 0.74979 0.70111 0.19039 0.0
H211 H 0.68132 0.73424 0.17461 0.0
H212 H 0.599 0.76247 0.29556 0.0
H213 H 0.6538 0.74204 0.35365 0.0
C214 C 0.72407 0.7007 0.32943 0.0
C215 C 0.755 0.67388 0.31046 0.0
C216 C 0.69828 0.72341 0.2975 0.0
C217 C 0.76605 0.67651 0.26089 0.0
C218 C 0.74273 0.7019 0.22921 0.0
C219 C 0.67627 0.73743 0.21374 0.0
C220 C 0.63652 0.74935 0.23122 0.0
C221 C 0.70676 0.72271 0.2466 0.0
C222 C 0.62953 0.75301 0.28173 0.0
C223 C 0.66075 0.74121 0.31479 0.0
H224 H 0.76857 0.32838 0.74942 0.0
H225 H 0.71558 0.28722 0.88642 0.0
H226 H 0.67559 0.23213 0.84431 0.0
H227 H 0.64224 0.21038 0.76682 0.0
H228 H 0.69597 0.25062 0.62987 0.0
H229 H 0.75035 0.29043 0.67337 0.0
C230 C 0.74992 0.30586 0.77007 0.0
C231 C 0.74444 0.31165 0.8205 0.0
C232 C 0.72679 0.27462 0.74551 0.0
C233 C 0.72017 0.28285 0.84741 0.0
C234 C 0.69697 0.25172 0.8233 0.0
C235 C 0.66731 0.22603 0.74678 0.0
C236 C 0.66527 0.22817 0.69561 0.0
C237 C 0.69799 0.24926 0.77208 0.0
C238 C 0.69741 0.24857 0.66946 0.0
C239 C 0.72809 0.27179 0.69431 0.0
H240 H 0.47281 0.15648 0.78563 0.0
H241 H 0.50034 0.28931 0.79916 0.0
H242 H 0.507 0.28199 0.88761 0.0
H243 H 0.50424 0.23824 0.96193 0.0
H244 H 0.47359 0.10634 0.94951 0.0
H245 H 0.47009 0.11262 0.86021 0.0
C246 C 0.4797 0.18394 0.80796 0.0
C247 C 0.48576 0.22344 0.78544 0.0
C248 C 0.48398 0.17948 0.85913 0.0
C249 C 0.49534 0.2585 0.8152 0.0
C250 C 0.49946 0.25434 0.86593 0.0
C251 C 0.49796 0.21068 0.93948 0.0
C252 C 0.49023 0.17166 0.96213 0.0
C253 C 0.49423 0.21495 0.88831 0.0
C254 C 0.48049 0.13652 0.93277 0.0
C255 C 0.47798 0.14023 0.88177 0.0
H256 H 0.17493 0.53726 0.04055 0.0
H257 H 0.2294 0.4141 0.01784 0.0
H258 H 0.2483 0.41071 0.10452 0.0
H259 H 0.25023 0.44337 0.18583 0.0
H260 H 0.19528 0.56624 0.20781 0.0
H261 H 0.17654 0.56954 0.12111 0.0
C262 C 0.19059 0.50938 0.05439 0.0
C263 C 0.20061 0.4759 0.02271 0.0
C264 C 0.20202 0.50803 0.10368 0.0
C265 C 0.22108 0.4402 0.04148 0.0
C266 C 0.23221 0.4384 0.09089 0.0
C267 C 0.23481 0.4712 0.17145 0.0
C268 C 0.22456 0.5048 0.20281 0.0
C269 C 0.22328 0.47238 0.12207 0.0
C270 C 0.20366 0.54018 0.18412 0.0
C271 C 0.19274 0.54193 0.13477 0.0
H272 H 0.45304 0.73504 0.96676 0.0
H273 H 0.50581 0.86016 0.96184 0.0
H274 H 0.50972 0.85662 0.87235 0.0
H275 H 0.5024 0.81593 0.7963 0.0
H276 H 0.45395 0.6886 0.80261 0.0
H277 H 0.44493 0.69469 0.89073 0.0
C278 C 0.4642 0.76188 0.94578 0.0
C279 C 0.47825 0.79812 0.9702 0.0
C280 C 0.4683 0.75876 0.8948 0.0
C281 C 0.49413 0.83229 0.94325 0.0
C282 C 0.49685 0.83004 0.89231 0.0
C283 C 0.49024 0.78937 0.81695 0.0
C284 C 0.47916 0.75185 0.7927 0.0
C285 C 0.485 0.793 0.8678 0.0
C286 C 0.46298 0.7179 0.82017 0.0
C287 C 0.4575 0.72136 0.87063 0.0
H288 H 0.8255 0.48014 0.219 0.0
H289 H 0.69459 0.51471 0.20536 0.0
H290 H 0.70242 0.52113 0.11706 0.0
H291 H 0.74562 0.51515 0.0429 0.0
H292 H 0.87506 0.47653 0.05494 0.0
H293 H 0.86907 0.47473 0.14439 0.0
C294 C 0.79857 0.48857 0.19667 0.0
C295 C 0.75947 0.49664 0.21906 0.0
C296 C 0.80328 0.49253 0.14555 0.0
C297 C 0.72509 0.50815 0.18936 0.0
C298 C 0.72954 0.51214 0.13874 0.0
C299 C 0.7728 0.50763 0.0653 0.0
C300 C 0.81101 0.49706 0.04266 0.0
C301 C 0.76849 0.50465 0.11643 0.0
C302 C 0.84561 0.48568 0.07183 0.0
C303 C 0.842 0.48409 0.12286 0.0
H304 H 0.50333 0.15588 0.28623 0.0
H305 H 0.45938 0.28417 0.29758 0.0
H306 H 0.45325 0.27701 0.38598 0.0
H307 H 0.46207 0.23525 0.46098 0.0
H308 H 0.50945 0.10851 0.45095 0.0
H309 H 0.51142 0.11371 0.36151 0.0
C310 C 0.49286 0.18242 0.30805 0.0
C311 C 0.48214 0.22058 0.28494 0.0
C312 C 0.4891 0.1781 0.35926 0.0
C313 C 0.46803 0.2544 0.31406 0.0
C314 C 0.46423 0.25032 0.36478 0.0
C315 C 0.47167 0.20841 0.43905 0.0
C316 C 0.48474 0.17125 0.46237 0.0
C317 C 0.47448 0.21231 0.38781 0.0
C318 C 0.49856 0.13719 0.43367 0.0
C319 C 0.50016 0.14034 0.38259 0.0
H320 H 0.14397 0.43845 0.54123 0.0
H321 H 0.21039 0.55577 0.51737 0.0
H322 H 0.22857 0.55893 0.6041 0.0
H323 H 0.23279 0.52408 0.68372 0.0
H324 H 0.16768 0.40627 0.70748 0.0
H325 H 0.14272 0.4069 0.6226 0.0
C326 C 0.16189 0.46511 0.55502 0.0
C327 C 0.17654 0.49638 0.5227 0.0
C328 C 0.17359 0.46588 0.60428 0.0
C329 C 0.19889 0.53115 0.54139 0.0
C330 C 0.2098 0.5327 0.59082 0.0
C331 C 0.21351 0.4983 0.6701 0.0
C332 C 0.20305 0.46446 0.70094 0.0
C333 C 0.1988 0.49934 0.62196 0.0
C334 C 0.17671 0.43212 0.68378 0.0
C335 C 0.16225 0.43268 0.63557 0.0
H336 H 0.51444 0.73433 0.31308 0.0
H337 H 0.40608 0.81265 0.28583 0.0
H338 H 0.40734 0.83662 0.37109 0.0
H339 H 0.4383 0.83407 0.453 0.0
H340 H 0.54709 0.756 0.4801 0.0
H341 H 0.54742 0.73429 0.39425 0.0
C342 C 0.49067 0.75619 0.32594 0.0
C343 C 0.45957 0.77102 0.2935 0.0
C344 C 0.49227 0.77055 0.37447 0.0
C345 C 0.42991 0.80036 0.3103 0.0
C346 C 0.43084 0.81426 0.35887 0.0
C347 C 0.46254 0.81274 0.44019 0.0
C348 C 0.4926 0.79665 0.47323 0.0
C349 C 0.46191 0.79958 0.39118 0.0
C350 C 0.52371 0.7691 0.45562 0.0
C351 C 0.52363 0.75628 0.40663 0.0
H352 H 0.8267 0.50685 0.71885 0.0
H353 H 0.69667 0.46756 0.70748 0.0
H354 H 0.7035 0.46162 0.61904 0.0
H355 H 0.74528 0.47012 0.54392 0.0
H356 H 0.87365 0.51346 0.554 0.0
H357 H 0.86899 0.5141 0.64355 0.0
C358 C 0.79974 0.49731 0.69706 0.0
C359 C 0.76116 0.48801 0.72021 0.0
C360 C 0.80381 0.49381 0.6458 0.0
C361 C 0.72678 0.47519 0.69104 0.0
C362 C 0.73065 0.4715 0.64028 0.0
C363 C 0.77256 0.47845 0.56588 0.0
C364 C 0.81006 0.49077 0.54259 0.0
C365 C 0.76898 0.48066 0.6172 0.0
C366 C 0.84473 0.50307 0.5713 0.0
C367 C 0.84188 0.50394 0.62243 0.0
H368 H 0.28941 0.34919 0.86589 0.0
H369 H 0.3691 0.45269 0.91124 0.0
H370 H 0.40608 0.40629 0.96784 0.0
H371 H 0.40833 0.33954 0.0128 0.0
H372 H 0.32749 0.23656 0.969 0.0
H373 H 0.29815 0.27979 0.90334 0.0
C374 C 0.31543 0.36144 0.88744 0.0
C375 C 0.32591 0.40449 0.88512 0.0
C376 C 0.33566 0.33498 0.92087 0.0
C377 C 0.36023 0.41972 0.91251 0.0
C378 C 0.3811 0.39332 0.94528 0.0
C379 C 0.38437 0.32654 0.98874 0.0
C380 C 0.36918 0.28543 0.99639 0.0
C381 C 0.36775 0.35147 0.95126 0.0
C382 C 0.33919 0.26839 0.96413 0.0
C383 C 0.32247 0.29304 0.92663 0.0
H384 H 0.27188 0.61361 0.00857 0.0
H385 H 0.37191 0.57571 0.91087 0.0
H386 H 0.4242 0.60154 0.96886 0.0
H387 H 0.44173 0.63863 0.04502 0.0
H388 H 0.3422 0.68189 0.1395 0.0
H389 H 0.28954 0.6491 0.08588 0.0
C390 C 0.3051 0.61094 -9e-05 0.0
C391 C 0.31776 0.59302 0.9551 0.0
C392 C 0.33516 0.62624 0.03326 0.0
C393 C 0.36106 0.58972 0.94475 0.0
C394 C 0.39111 0.60426 0.97805 0.0
C395 C 0.40855 0.63978 0.05444 0.0
C396 C 0.39568 0.66182 0.09638 0.0
C397 C 0.37854 0.62283 0.02221 0.0
C398 C 0.35264 0.66447 0.10761 0.0
C399 C 0.32261 0.64614 0.07676 0.0
H400 H 0.62295 0.69783 0.99354 0.0
H401 H 0.55627 0.60284 0.07645 0.0
H402 H 0.58508 0.54794 0.02437 0.0
H403 H 0.63322 0.52601 0.95948 0.0
H404 H 0.703 0.6199 0.87883 0.0
H405 H 0.66833 0.67592 0.92507 0.0
C406 C 0.61451 0.66517 2e-05 0.0
C407 C 0.58788 0.65464 0.03934 0.0
C408 C 0.63159 0.6334 0.97015 0.0
C409 C 0.57717 0.61203 0.04697 0.0
C410 C 0.59347 0.58046 0.01704 0.0
C411 C 0.64016 0.55875 0.95125 0.0
C412 C 0.67059 0.56878 0.9158 0.0
C413 C 0.62122 0.59069 0.97904 0.0
C414 C 0.6797 0.61137 0.90608 0.0
C415 C 0.66005 0.64341 0.93265 0.0
H416 H 0.62467 0.41517 0.98274 0.0
H417 H 0.72682 0.33979 0.03871 0.0
H418 H 0.67822 0.30369 0.09401 0.0
H419 H 0.60562 0.2874 0.11812 0.0
H420 H 0.50336 0.36197 0.06077 0.0
H421 H 0.55336 0.40507 0.01492 0.0
C422 C 0.63638 0.39113 0.00741 0.0
C423 C 0.67906 0.37949 0.00592 0.0
C424 C 0.60828 0.37027 0.03866 0.0
C425 C 0.69402 0.34907 0.0389 0.0
C426 C 0.66623 0.3283 0.07037 0.0
C427 C 0.5943 0.31349 0.09618 0.0
C428 C 0.55078 0.32096 0.09216 0.0
C429 C 0.62311 0.33769 0.0693 0.0
C430 C 0.53667 0.35537 0.06433 0.0
C431 C 0.56521 0.37988 0.03782 0.0
H432 H 0.56743 0.35081 0.52194 0.0
H433 H 0.65171 0.25113 0.47865 0.0
H434 H 0.68776 0.29924 0.42246 0.0
H435 H 0.70029 0.37143 0.39368 0.0
H436 H 0.61609 0.47107 0.43806 0.0
H437 H 0.57445 0.42078 0.48519 0.0
C438 C 0.5935 0.33954 0.49989 0.0
C439 C 0.60758 0.29785 0.50507 0.0
C440 C 0.61405 0.3673 0.46802 0.0
C441 C 0.64059 0.28324 0.47547 0.0
C442 C 0.66126 0.31074 0.44353 0.0
C443 C 0.67246 0.38206 0.41306 0.0
C444 C 0.66177 0.42507 0.41306 0.0
C445 C 0.64902 0.35314 0.44068 0.0
C446 C 0.62519 0.4382 0.43762 0.0
C447 C 0.6015 0.40952 0.46488 0.0
H448 H 0.36521 0.27907 0.59492 0.0
H449 H 0.46726 0.36427 0.56004 0.0
H450 H 0.42111 0.40344 0.50527 0.0
H451 H 0.354 0.40944 0.46149 0.0
H452 H 0.25188 0.32442 0.49608 0.0
H453 H 0.29604 0.2892 0.55679 0.0
C454 C 0.37728 0.30657 0.57593 0.0
C455 C 0.41985 0.31835 0.5813 0.0
C456 C 0.35076 0.32862 0.54388 0.0
C457 C 0.43471 0.35437 0.5567 0.0
C458 C 0.40841 0.37665 0.52501 0.0
C459 C 0.34135 0.38322 0.48235 0.0
C460 C 0.29996 0.36907 0.47366 0.0
C461 C 0.36679 0.3633 0.51729 0.0
C462 C 0.28373 0.33573 0.50181 0.0
C463 C 0.30896 0.31557 0.53651 0.0
H464 H 0.41083 0.63312 0.52104 0.0
H465 H 0.33179 0.73531 0.47265 0.0
H466 H 0.30047 0.6895 0.41021 0.0
H467 H 0.28921 0.61829 0.37769 0.0
H468 H 0.36737 0.51585 0.42753 0.0
H469 H 0.40634 0.56435 0.48045 0.0
C470 C 0.38694 0.64544 0.49656 0.0
C471 C 0.37272 0.68709 0.50212 0.0
C472 C 0.36908 0.61897 0.46114 0.0
C473 C 0.34278 0.70315 0.46934 0.0
C474 C 0.32487 0.67698 0.43378 0.0
C475 C 0.31529 0.60671 0.39949 0.0
C476 C 0.32491 0.56345 0.39947 0.0
C477 C 0.33682 0.63451 0.43054 0.0
C478 C 0.35927 0.54898 0.42705 0.0
C479 C 0.38128 0.57661 0.45765 0.0
H480 H 0.62955 0.57181 0.4819 0.0
H481 H 0.7285 0.65472 0.53249 0.0
H482 H 0.68005 0.68636 0.59159 0.0
H483 H 0.6079 0.69586 0.6213 0.0
H484 H 0.50871 0.61403 0.56845 0.0
H485 H 0.55944 0.57587 0.51839 0.0
C486 C 0.64062 0.59668 0.50604 0.0
C487 C 0.68222 0.61165 0.50214 0.0
C488 C 0.61264 0.61482 0.53944 0.0
C489 C 0.69647 0.64299 0.53452 0.0
C490 C 0.66879 0.66111 0.56819 0.0
C491 C 0.59741 0.66926 0.59946 0.0
C492 C 0.5544 0.65834 0.59799 0.0
C493 C 0.62652 0.64808 0.56989 0.0
C494 C 0.54154 0.62334 0.57007 0.0
C495 C 0.57047 0.60166 0.54114 0.0
H496 H 0.5297 0.06031 0.13794 0.0
H497 H 0.39634 0.04844 0.16684 0.0
H498 H 0.40454 0.9726 0.17797 0.0
H499 H 0.44749 0.90981 0.16959 0.0
H500 H 0.57958 0.92061 0.13367 0.0
H501 H 0.57409 -0.0025 0.13655 0.0
C502 C 0.50241 0.04133 0.1473 0.0
C503 C 0.46227 0.05992 0.15075 0.0
C504 C 0.50714 -0.00225 0.15224 0.0
C505 C 0.42743 0.03484 0.1633 0.0
C506 C 0.43211 -0.00847 0.16968 0.0
C507 C 0.4753 0.92886 0.16273 0.0
C508 C 0.51372 0.90957 0.1503 0.0
C509 C 0.47152 0.97264 0.16262 0.0
C510 C 0.54959 0.93471 0.14286 0.0
C511 C 0.54637 0.97861 0.14421 0.0
H512 H 0.91839 0.51798 0.84365 0.0
H513 H 0.92834 0.38409 0.86993 0.0
H514 H 0.005 0.38915 0.86357 0.0
H515 H 0.06839 0.43276 0.86038 0.0
H516 H 0.05811 0.56743 0.84001 0.0
H517 H 0.98162 0.56072 0.83438 0.0
C518 C 0.93715 0.48968 0.84762 0.0
C519 C 0.91768 0.45078 0.85822 0.0
C520 C 0.98096 0.49309 0.84561 0.0
C521 C 0.94252 0.41444 0.86216 0.0
C522 C 0.98632 0.41739 0.85881 0.0
C523 C 0.04959 0.46076 0.85438 0.0
C524 C 0.06895 0.50072 0.85149 0.0
C525 C 0.00579 0.45677 0.85221 0.0
C526 C 0.04402 0.53642 0.84297 0.0
C527 C 0.00032 0.53258 0.83973 0.0
H528 H 0.52928 0.9128 0.65742 0.0
H529 H 0.39418 0.92893 0.66034 0.0
H530 H 0.40364 0.00525 0.66563 0.0
H531 H 0.44961 0.06656 0.65853 0.0
H532 H 0.58444 0.0504 0.64842 0.0
H533 H 0.57556 0.97427 0.65759 0.0
C534 C 0.50174 0.93282 0.65977 0.0
C535 C 0.46098 0.91515 0.65752 0.0
C536 C 0.50738 0.97652 0.66113 0.0
C537 C 0.42585 0.94168 0.66141 0.0
C538 C 0.43126 0.9853 0.66429 0.0
C539 C 0.47726 0.04658 0.65879 0.0
C540 C 0.51766 0.06415 0.65178 0.0
C541 C 0.47182 0.00298 0.66241 0.0
C542 C 0.553 0.03772 0.65319 0.0
C543 C 0.54791 -0.00579 0.65826 0.0
H544 H 0.91437 0.45995 0.3427 0.0
H545 H 0.93178 0.59437 0.3594 0.0
H546 H 0.00746 0.58595 0.3465 0.0
H547 H 0.06849 0.53972 0.3416 0.0
H548 H 0.0512 0.40475 0.33247 0.0
H549 H 0.97492 0.41435 0.33067 0.0
C550 C 0.9345 0.48763 0.34313 0.0
C551 C 0.91749 0.52772 0.35304 0.0
C552 C 0.97786 0.48239 0.33732 0.0
C553 C 0.94409 0.56315 0.35246 0.0
C554 C 0.98733 0.55831 0.3452 0.0
C555 C 0.04821 0.51228 0.33844 0.0
C556 C 0.06556 0.47145 0.33797 0.0
C557 C 0.00459 0.51794 0.3393 0.0
C558 C 0.03868 0.43644 0.33345 0.0
C559 C -0.0049 0.44193 0.33257 0.0
loop_
_geom_bond_atom_site_label_1
_geom_bond_atom_site_label_2
_geom_bond_distance
_geom_bond_site_symmetry_2
_ccdc_geom_bond_type
Sc0 O3 2.025 . S
Sc0 O10 2.105 . S
Sc0 O13 2.105 . S
Sc0 O16 2.105 . S
Sc0 O19 2.105 . S
Sc1 O3 2.025 . S
Sc1 O11 2.105 . S
Sc1 O15 2.105 . S
Sc1 O17 2.105 . S
Sc1 O21 2.105 1_554 S
Sc2 O3 2.025 . S
Sc2 O12 2.105 . S
Sc2 O14 2.105 . S
Sc2 O18 2.105 . S
Sc2 O20 2.105 . S
O3 Sc0 2.025 . S
O3 Sc1 2.025 . S
O3 Sc2 2.025 . S
C4 O10 1.268 . S
C4 O20 1.268 . S
C5 O11 1.268 . S
C5 O19 1.268 . S
C6 O12 1.268 1_556 S
C6 O21 1.268 . S
C7 O13 1.268 . S
C7 O17 1.268 . S
C8 O14 1.268 . S
C8 O16 1.268 . S
C9 O15 1.268 . S
C9 O18 1.268 . S
O10 Sc0 2.105 . S
O10 C4 1.268 . S
O11 Sc1 2.105 . S
O11 C5 1.268 . S
O12 Sc2 2.105 . S
O12 C6 1.268 1_554 S
O13 Sc0 2.105 . S
O13 C7 1.268 . S
O14 Sc2 2.105 . S
O14 C8 1.268 . S
O15 Sc1 2.105 . S
O15 C9 1.268 . S
O16 Sc0 2.105 . S
O16 C8 1.268 . S
O17 Sc1 2.105 . S
O17 C7 1.268 . S
O18 Sc2 2.105 . S
O18 C9 1.268 . S
O19 Sc0 2.105 . S
O19 C5 1.268 . S
O20 Sc2 2.105 . S
O20 C4 1.268 . S
O21 Sc1 2.105 1_556 S
O21 C6 1.268 . S
Sc22 O25 2.025 . S
Sc22 O32 2.105 . S
Sc22 O35 2.105 . S
Sc22 O38 2.105 . S
Sc22 O41 2.105 . S
Sc23 O25 2.025 . S
Sc23 O33 2.105 . S
Sc23 O37 2.105 1_556 S
Sc23 O39 2.105 . S
Sc23 O43 2.105 . S
Sc24 O25 2.025 . S
Sc24 O34 2.105 . S
Sc24 O36 2.105 . S
Sc24 O40 2.105 . S
Sc24 O42 2.105 . S
O25 Sc22 2.025 . S
O25 Sc23 2.025 . S
O25 Sc24 2.025 . S
C26 O32 1.268 . S
C26 O42 1.268 . S
C27 O33 1.268 . S
C27 O41 1.268 . S
C28 O34 1.268 . S
C28 O43 1.268 . S
C29 O35 1.268 . S
C29 O39 1.268 . S
C30 O36 1.268 . S
C30 O38 1.268 . S
C31 O37 1.268 . S
C31 O40 1.268 1_554 S
O32 Sc22 2.105 . S
O32 C26 1.268 . S
O33 Sc23 2.105 . S
O33 C27 1.268 . S
O34 Sc24 2.105 . S
O34 C28 1.268 . S
O35 Sc22 2.105 . S
O35 C29 1.268 . S
O36 Sc24 2.105 . S
O36 C30 1.268 . S
O37 Sc23 2.105 1_554 S
O37 C31 1.268 . S
O38 Sc22 2.105 . S
O38 C30 1.268 . S
O39 Sc23 2.105 . S
O39 C29 1.268 . S
O40 Sc24 2.105 . S
O40 C31 1.268 1_556 S
O41 Sc22 2.105 . S
O41 C27 1.268 . S
O42 Sc24 2.105 . S
O42 C26 1.268 . S
O43 Sc23 2.105 . S
O43 C28 1.268 . S
Sc44 O47 2.025 . S
Sc44 O54 2.105 . S
Sc44 O57 2.105 . S
Sc44 O60 2.105 . S
Sc44 O63 2.105 . S
Sc45 O47 2.025 . S
Sc45 O55 2.105 . S
Sc45 O59 2.105 . S
Sc45 O61 2.105 . S
Sc45 O65 2.105 1_554 S
Sc46 O47 2.025 . S
Sc46 O56 2.105 . S
Sc46 O58 2.105 . S
Sc46 O62 2.105 . S
Sc46 O64 2.105 . S
O47 Sc44 2.025 . S
O47 Sc45 2.025 . S
O47 Sc46 2.025 . S
C48 O54 1.268 . S
C48 O64 1.268 . S
C49 O55 1.268 . S
C49 O63 1.268 . S
C50 O56 1.268 1_556 S
C50 O65 1.268 . S
C51 O57 1.268 . S
C51 O61 1.268 . S
C52 O58 1.268 . S
C52 O60 1.268 . S
C53 O59 1.268 . S
C53 O62 1.268 . S
O54 Sc44 2.105 . S
O54 C48 1.268 . S
O55 Sc45 2.105 . S
O55 C49 1.268 . S
O56 Sc46 2.105 . S
O56 C50 1.268 1_554 S
O57 Sc44 2.105 . S
O57 C51 1.268 . S
O58 Sc46 2.105 . S
O58 C52 1.268 . S
O59 Sc45 2.105 . S
O59 C53 1.268 . S
O60 Sc44 2.105 . S
O60 C52 1.268 . S
O61 Sc45 2.105 . S
O61 C51 1.268 . S
O62 Sc46 2.105 . S
O62 C53 1.268 . S
O63 Sc44 2.105 . S
O63 C49 1.268 . S
O64 Sc46 2.105 . S
O64 C48 1.268 . S
O65 Sc45 2.105 1_556 S
O65 C50 1.268 . S
Sc66 O69 2.025 . S
Sc66 O76 2.105 . S
Sc66 O79 2.105 . S
Sc66 O82 2.105 . S
Sc66 O85 2.105 . S
Sc67 O69 2.025 . S
Sc67 O77 2.105 . S
Sc67 O81 2.105 1_556 S
Sc67 O83 2.105 . S
Sc67 O87 2.105 . S
Sc68 O69 2.025 . S
Sc68 O78 2.105 . S
Sc68 O80 2.105 . S
Sc68 O84 2.105 . S
Sc68 O86 2.105 . S
O69 Sc66 2.025 . S
O69 Sc67 2.025 . S
O69 Sc68 2.025 . S
C70 O76 1.268 . S
C70 O86 1.268 . S
C71 O77 1.268 . S
C71 O85 1.268 . S
C72 O78 1.268 . S
C72 O87 1.268 . S
C73 O79 1.268 . S
C73 O83 1.268 . S
C74 O80 1.268 . S
C74 O82 1.268 . S
C75 O81 1.268 . S
C75 O84 1.268 1_554 S
O76 Sc66 2.105 . S
O76 C70 1.268 . S
O77 Sc67 2.105 . S
O77 C71 1.268 . S
O78 Sc68 2.105 . S
O78 C72 1.268 . S
O79 Sc66 2.105 . S
O79 C73 1.268 . S
O80 Sc68 2.105 . S
O80 C74 1.268 . S
O81 Sc67 2.105 1_554 S
O81 C75 1.268 . S
O82 Sc66 2.105 . S
O82 C74 1.268 . S
O83 Sc67 2.105 . S
O83 C73 1.268 . S
O84 Sc68 2.105 . S
O84 C75 1.268 1_556 S
O85 Sc66 2.105 . S
O85 C71 1.268 . S
O86 Sc68 2.105 . S
O86 C70 1.268 . S
O87 Sc67 2.105 . S
O87 C72 1.268 . S
Sc88 O91 2.025 . S
Sc88 O98 2.105 . S
Sc88 O101 2.105 . S
Sc88 O104 2.105 . S
Sc88 O107 2.105 . S
Sc89 O91 2.025 . S
Sc89 O99 2.105 . S
Sc89 O103 2.105 . S
Sc89 O105 2.105 . S
Sc89 O109 2.105 . S
Sc90 O91 2.025 . S
Sc90 O100 2.105 . S
Sc90 O102 2.105 . S
Sc90 O106 2.105 . S
Sc90 O108 2.105 . S
O91 Sc88 2.025 . S
O91 Sc89 2.025 . S
O91 Sc90 2.025 . S
C92 O98 1.268 . S
C92 O108 1.268 . S
C93 O99 1.268 . S
C93 O107 1.268 . S
C94 O100 1.268 . S
C94 O109 1.268 . S
C95 O101 1.268 . S
C95 O105 1.268 . S
C96 O102 1.268 . S
C96 O104 1.268 . S
C97 O103 1.268 . S
C97 O106 1.268 . S
O98 Sc88 2.105 . S
O98 C92 1.268 . S
O99 Sc89 2.105 . S
O99 C93 1.268 . S
O100 Sc90 2.105 . S
O100 C94 1.268 . S
O101 Sc88 2.105 . S
O101 C95 1.268 . S
O102 Sc90 2.105 . S
O102 C96 1.268 . S
O103 Sc89 2.105 . S
O103 C97 1.268 . S
O104 Sc88 2.105 . S
O104 C96 1.268 . S
O105 Sc89 2.105 . S
O105 C95 1.268 . S
O106 Sc90 2.105 . S
O106 C97 1.268 . S
O107 Sc88 2.105 . S
O107 C93 1.268 . S
O108 Sc90 2.105 . S
O108 C92 1.268 . S
O109 Sc89 2.105 . S
O109 C94 1.268 . S
Sc110 O113 2.025 . S
Sc110 O120 2.105 . S
Sc110 O123 2.105 . S
Sc110 O126 2.105 . S
Sc110 O129 2.105 . S
Sc111 O113 2.025 . S
Sc111 O121 2.105 . S
Sc111 O125 2.105 . S
Sc111 O127 2.105 . S
Sc111 O131 2.105 . S
Sc112 O113 2.025 . S
Sc112 O122 2.105 . S
Sc112 O124 2.105 . S
Sc112 O128 2.105 . S
Sc112 O130 2.105 . S
O113 Sc110 2.025 . S
O113 Sc111 2.025 . S
O113 Sc112 2.025 . S
C114 O120 1.268 . S
C114 O130 1.268 . S
C115 O121 1.268 . S
C115 O129 1.268 . S
C116 O122 1.268 . S
C116 O131 1.268 . S
C117 O123 1.268 . S
C117 O127 1.268 . S
C118 O124 1.268 . S
C118 O126 1.268 . S
C119 O125 1.268 . S
C119 O128 1.268 . S
O120 Sc110 2.105 . S
O120 C114 1.268 . S
O121 Sc111 2.105 . S
O121 C115 1.268 . S
O122 Sc112 2.105 . S
O122 C116 1.268 . S
O123 Sc110 2.105 . S
O123 C117 1.268 . S
O124 Sc112 2.105 . S
O124 C118 1.268 . S
O125 Sc111 2.105 . S
O125 C119 1.268 . S
O126 Sc110 2.105 . S
O126 C118 1.268 . S
O127 Sc111 2.105 . S
O127 C117 1.268 . S
O128 Sc112 2.105 . S
O128 C119 1.268 . S
O129 Sc110 2.105 . S
O129 C115 1.268 . S
O130 Sc112 2.105 . S
O130 C114 1.268 . S
O131 Sc111 2.105 . S
O131 C116 1.268 . S
Sc132 O135 2.025 . S
Sc132 O142 2.105 . S
Sc132 O145 2.105 . S
Sc132 O148 2.105 . S
Sc132 O151 2.105 . S
Sc133 O135 2.025 . S
Sc133 O143 2.105 . S
Sc133 O147 2.105 . S
Sc133 O149 2.105 . S
Sc133 O153 2.105 . S
Sc134 O135 2.025 . S
Sc134 O144 2.105 . S
Sc134 O146 2.105 . S
Sc134 O150 2.105 . S
Sc134 O152 2.105 . S
O135 Sc132 2.025 . S
O135 Sc133 2.025 . S
O135 Sc134 2.025 . S
C136 O142 1.268 . S
C136 O152 1.268 . S
C137 O143 1.268 . S
C137 O151 1.268 . S
C138 O144 1.268 . S
C138 O153 1.268 . S
C139 O145 1.268 . S
C139 O149 1.268 . S
C140 O146 1.268 . S
C140 O148 1.268 . S
C141 O147 1.268 . S
C141 O150 1.268 . S
O142 Sc132 2.105 . S
O142 C136 1.268 . S
O143 Sc133 2.105 . S
O143 C137 1.268 . S
O144 Sc134 2.105 . S
O144 C138 1.268 . S
O145 Sc132 2.105 . S
O145 C139 1.268 . S
O146 Sc134 2.105 . S
O146 C140 1.268 . S
O147 Sc133 2.105 . S
O147 C141 1.268 . S
O148 Sc132 2.105 . S
O148 C140 1.268 . S
O149 Sc133 2.105 . S
O149 C139 1.268 . S
O150 Sc134 2.105 . S
O150 C141 1.268 . S
O151 Sc132 2.105 . S
O151 C137 1.268 . S
O152 Sc134 2.105 . S
O152 C136 1.268 . S
O153 Sc133 2.105 . S
O153 C138 1.268 . S
Sc154 O157 2.025 . S
Sc154 O164 2.105 . S
Sc154 O167 2.105 . S
Sc154 O170 2.105 . S
Sc154 O173 2.105 . S
Sc155 O157 2.025 . S
Sc155 O165 2.105 . S
Sc155 O169 2.105 . S
Sc155 O171 2.105 . S
Sc155 O175 2.105 . S
Sc156 O157 2.025 . S
Sc156 O166 2.105 . S
Sc156 O168 2.105 . S
Sc156 O172 2.105 . S
Sc156 O174 2.105 . S
O157 Sc154 2.025 . S
O157 Sc155 2.025 . S
O157 Sc156 2.025 . S
C158 O164 1.268 . S
C158 O174 1.268 . S
C159 O165 1.268 . S
C159 O173 1.268 . S
C160 O166 1.268 . S
C160 O175 1.268 . S
C161 O167 1.268 . S
C161 O171 1.268 . S
C162 O168 1.268 . S
C162 O170 1.268 . S
C163 O169 1.268 . S
C163 O172 1.268 . S
O164 Sc154 2.105 . S
O164 C158 1.268 . S
O165 Sc155 2.105 . S
O165 C159 1.268 . S
O166 Sc156 2.105 . S
O166 C160 1.268 . S
O167 Sc154 2.105 . S
O167 C161 1.268 . S
O168 Sc156 2.105 . S
O168 C162 1.268 . S
O169 Sc155 2.105 . S
O169 C163 1.268 . S
O170 Sc154 2.105 . S
O170 C162 1.268 . S
O171 Sc155 2.105 . S
O171 C161 1.268 . S
O172 Sc156 2.105 . S
O172 C163 1.268 . S
O173 Sc154 2.105 . S
O173 C159 1.268 . S
O174 Sc156 2.105 . S
O174 C158 1.268 . S
O175 Sc155 2.105 . S
O175 C160 1.268 . S
H176 C182 0.930 . S
H177 C185 0.930 . S
H178 C186 0.930 . S
H179 C187 0.930 . S
H180 C190 0.930 . S
H181 C191 0.930 . S
C182 H176 0.930 . S
C182 C183 1.355 . S
C182 C184 1.415 . S
C183 C182 1.355 . S
C183 C185 1.419 . S
C184 C182 1.415 . S
C184 C189 1.425 . S
C184 C191 1.409 . S
C185 H177 0.930 . S
C185 C183 1.419 . S
C185 C186 1.362 . S
C186 H178 0.930 . S
C186 C185 1.362 . S
C186 C189 1.409 . S
C187 H179 0.930 . S
C187 C188 1.355 . S
C187 C189 1.415 . S
C188 C187 1.355 . S
C188 C190 1.419 . S
C189 C184 1.425 . S
C189 C186 1.409 . S
C189 C187 1.415 . S
C190 H180 0.930 . S
C190 C188 1.419 . S
C190 C191 1.362 . S
C191 H181 0.930 . S
C191 C184 1.409 . S
C191 C190 1.362 . S
H192 C198 0.930 . S
H193 C201 0.930 . S
H194 C202 0.930 . S
H195 C203 0.930 . S
H196 C206 0.930 . S
H197 C207 0.930 . S
C198 H192 0.930 . S
C198 C199 1.355 . S
C198 C200 1.415 . S
C199 C198 1.355 . S
C199 C201 1.419 . S
C200 C198 1.415 . S
C200 C205 1.425 . S
C200 C207 1.409 . S
C201 H193 0.930 . S
C201 C199 1.419 . S
C201 C202 1.362 . S
C202 H194 0.930 . S
C202 C201 1.362 . S
C202 C205 1.409 . S
C203 H195 0.930 . S
C203 C204 1.355 . S
C203 C205 1.415 . S
C204 C203 1.355 . S
C204 C206 1.419 . S
C205 C200 1.425 . S
C205 C202 1.409 . S
C205 C203 1.415 . S
C206 H196 0.930 . S
C206 C204 1.419 . S
C206 C207 1.362 . S
C207 H197 0.930 . S
C207 C200 1.409 . S
C207 C206 1.362 . S
H208 C214 0.930 . S
H209 C217 0.930 . S
H210 C218 0.930 . S
H211 C219 0.930 . S
H212 C222 0.930 . S
H213 C223 0.930 . S
C214 H208 0.930 . S
C214 C215 1.355 . S
C214 C216 1.415 . S
C215 C214 1.355 . S
C215 C217 1.419 . S
C216 C214 1.415 . S
C216 C221 1.425 . S
C216 C223 1.409 . S
C217 H209 0.930 . S
C217 C215 1.419 . S
C217 C218 1.362 . S
C218 H210 0.930 . S
C218 C217 1.362 . S
C218 C221 1.409 . S
C219 H211 0.930 . S
C219 C220 1.355 . S
C219 C221 1.415 . S
C220 C219 1.355 . S
C220 C222 1.419 . S
C221 C216 1.425 . S
C221 C218 1.409 . S
C221 C219 1.415 . S
C222 H212 0.930 . S
C222 C220 1.419 . S
C222 C223 1.362 . S
C223 H213 0.930 . S
C223 C216 1.409 . S
C223 C222 1.362 . S
H224 C230 0.930 . S
H225 C233 0.930 . S
H226 C234 0.930 . S
H227 C235 0.930 . S
H228 C238 0.930 . S
H229 C239 0.930 . S
C230 H224 0.930 . S
C230 C231 1.355 . S
C230 C232 1.415 . S
C231 C230 1.355 . S
C231 C233 1.419 . S
C232 C230 1.415 . S
C232 C237 1.425 . S
C232 C239 1.409 . S
C233 H225 0.930 . S
C233 C231 1.419 . S
C233 C234 1.362 . S
C234 H226 0.930 . S
C234 C233 1.362 . S
C234 C237 1.409 . S
C235 H227 0.930 . S
C235 C236 1.355 . S
C235 C237 1.415 . S
C236 C235 1.355 . S
C236 C238 1.419 . S
C237 C232 1.425 . S
C237 C234 1.409 . S
C237 C235 1.415 . S
C238 H228 0.930 . S
C238 C236 1.419 . S
C238 C239 1.362 . S
C239 H229 0.930 . S
C239 C232 1.409 . S
C239 C238 1.362 . S
H240 C246 0.930 . S
H241 C249 0.930 . S
H242 C250 0.930 . S
H243 C251 0.930 . S
H244 C254 0.930 . S
H245 C255 0.930 . S
C246 H240 0.930 . S
C246 C247 1.355 . S
C246 C248 1.415 . S
C247 C246 1.355 . S
C247 C249 1.419 . S
C248 C246 1.415 . S
C248 C253 1.425 . S
C248 C255 1.409 . S
C249 H241 0.930 . S
C249 C247 1.419 . S
C249 C250 1.362 . S
C250 H242 0.930 . S
C250 C249 1.362 . S
C250 C253 1.409 . S
C251 H243 0.930 . S
C251 C252 1.355 . S
C251 C253 1.415 . S
C252 C251 1.355 . S
C252 C254 1.419 . S
C253 C248 1.425 . S
C253 C250 1.409 . S
C253 C251 1.415 . S
C254 H244 0.930 . S
C254 C252 1.419 . S
C254 C255 1.362 . S
C255 H245 0.930 . S
C255 C248 1.409 . S
C255 C254 1.362 . S
H256 C262 0.930 . S
H257 C265 0.930 . S
H258 C266 0.930 . S
H259 C267 0.930 . S
H260 C270 0.930 . S
H261 C271 0.930 . S
C262 H256 0.930 . S
C262 C263 1.355 . S
C262 C264 1.415 . S
C263 C262 1.355 . S
C263 C265 1.419 . S
C264 C262 1.415 . S
C264 C269 1.425 . S
C264 C271 1.409 . S
C265 H257 0.930 . S
C265 C263 1.419 . S
C265 C266 1.362 . S
C266 H258 0.930 . S
C266 C265 1.362 . S
C266 C269 1.409 . S
C267 H259 0.930 . S
C267 C268 1.355 . S
C267 C269 1.415 . S
C268 C267 1.355 . S
C268 C270 1.419 . S
C269 C264 1.425 . S
C269 C266 1.409 . S
C269 C267 1.415 . S
C270 H260 0.930 . S
C270 C268 1.419 . S
C270 C271 1.362 . S
C271 H261 0.930 . S
C271 C264 1.409 . S
C271 C270 1.362 . S
H272 C278 0.930 . S
H273 C281 0.930 . S
H274 C282 0.930 . S
H275 C283 0.930 . S
H276 C286 0.930 . S
H277 C287 0.930 . S
C278 H272 0.930 . S
C278 C279 1.355 . S
C278 C280 1.415 . S
C279 C278 1.355 . S
C279 C281 1.419 . S
C280 C278 1.415 . S
C280 C285 1.425 . S
C280 C287 1.409 . S
C281 H273 0.930 . S
C281 C279 1.419 . S
C281 C282 1.362 . S
C282 H274 0.930 . S
C282 C281 1.362 . S
C282 C285 1.409 . S
C283 H275 0.930 . S
C283 C284 1.355 . S
C283 C285 1.415 . S
C284 C283 1.355 . S
C284 C286 1.419 . S
C285 C280 1.425 . S
C285 C282 1.409 . S
C285 C283 1.415 . S
C286 H276 0.930 . S
C286 C284 1.419 . S
C286 C287 1.362 . S
C287 H277 0.930 . S
C287 C280 1.409 . S
C287 C286 1.362 . S
H288 C294 0.930 . S
H289 C297 0.930 . S
H290 C298 0.930 . S
H291 C299 0.930 . S
H292 C302 0.930 . S
H293 C303 0.930 . S
C294 H288 0.930 . S
C294 C295 1.355 . S
C294 C296 1.415 . S
C295 C294 1.355 . S
C295 C297 1.419 . S
C296 C294 1.415 . S
C296 C301 1.425 . S
C296 C303 1.409 . S
C297 H289 0.930 . S
C297 C295 1.419 . S
C297 C298 1.362 . S
C298 H290 0.930 . S
C298 C297 1.362 . S
C298 C301 1.409 . S
C299 H291 0.930 . S
C299 C300 1.355 . S
C299 C301 1.415 . S
C300 C299 1.355 . S
C300 C302 1.419 . S
C301 C296 1.425 . S
C301 C298 1.409 . S
C301 C299 1.415 . S
C302 H292 0.930 . S
C302 C300 1.419 . S
C302 C303 1.362 . S
C303 H293 0.930 . S
C303 C296 1.409 . S
C303 C302 1.362 . S
H304 C310 0.930 . S
H305 C313 0.930 . S
H306 C314 0.930 . S
H307 C315 0.930 . S
H308 C318 0.930 . S
H309 C319 0.930 . S
C310 H304 0.930 . S
C310 C311 1.355 . S
C310 C312 1.415 . S
C311 C310 1.355 . S
C311 C313 1.419 . S
C312 C310 1.415 . S
C312 C317 1.425 . S
C312 C319 1.409 . S
C313 H305 0.930 . S
C313 C311 1.419 . S
C313 C314 1.362 . S
C314 H306 0.930 . S
C314 C313 1.362 . S
C314 C317 1.409 . S
C315 H307 0.930 . S
C315 C316 1.355 . S
C315 C317 1.415 . S
C316 C315 1.355 . S
C316 C318 1.419 . S
C317 C312 1.425 . S
C317 C314 1.409 . S
C317 C315 1.415 . S
C318 H308 0.930 . S
C318 C316 1.419 . S
C318 C319 1.362 . S
C319 H309 0.930 . S
C319 C312 1.409 . S
C319 C318 1.362 . S
H320 C326 0.930 . S
H321 C329 0.930 . S
H322 C330 0.930 . S
H323 C331 0.930 . S
H324 C334 0.930 . S
H325 C335 0.930 . S
C326 H320 0.930 . S
C326 C327 1.355 . S
C326 C328 1.415 . S
C327 C326 1.355 . S
C327 C329 1.419 . S
C328 C326 1.415 . S
C328 C333 1.425 . S
C328 C335 1.409 . S
C329 H321 0.930 . S
C329 C327 1.419 . S
C329 C330 1.362 . S
C330 H322 0.930 . S
C330 C329 1.362 . S
C330 C333 1.409 . S
C331 H323 0.930 . S
C331 C332 1.355 . S
C331 C333 1.415 . S
C332 C331 1.355 . S
C332 C334 1.419 . S
C333 C328 1.425 . S
C333 C330 1.409 . S
C333 C331 1.415 . S
C334 H324 0.930 . S
C334 C332 1.419 . S
C334 C335 1.362 . S
C335 H325 0.930 . S
C335 C328 1.409 . S
C335 C334 1.362 . S
H336 C342 0.930 . S
H337 C345 0.930 . S
H338 C346 0.930 . S
H339 C347 0.930 . S
H340 C350 0.930 . S
H341 C351 0.930 . S
C342 H336 0.930 . S
C342 C343 1.355 . S
C342 C344 1.415 . S
C343 C342 1.355 . S
C343 C345 1.419 . S
C344 C342 1.415 . S
C344 C349 1.425 . S
C344 C351 1.409 . S
C345 H337 0.930 . S
C345 C343 1.419 . S
C345 C346 1.362 . S
C346 H338 0.930 . S
C346 C345 1.362 . S
C346 C349 1.409 . S
C347 H339 0.930 . S
C347 C348 1.355 . S
C347 C349 1.415 . S
C348 C347 1.355 . S
C348 C350 1.419 . S
C349 C344 1.425 . S
C349 C346 1.409 . S
C349 C347 1.415 . S
C350 H340 0.930 . S
C350 C348 1.419 . S
C350 C351 1.362 . S
C351 H341 0.930 . S
C351 C344 1.409 . S
C351 C350 1.362 . S
H352 C358 0.930 . S
H353 C361 0.930 . S
H354 C362 0.930 . S
H355 C363 0.930 . S
H356 C366 0.930 . S
H357 C367 0.930 . S
C358 H352 0.930 . S
C358 C359 1.355 . S
C358 C360 1.415 . S
C359 C358 1.355 . S
C359 C361 1.419 . S
C360 C358 1.415 . S
C360 C365 1.425 . S
C360 C367 1.409 . S
C361 H353 0.930 . S
C361 C359 1.419 . S
C361 C362 1.362 . S
C362 H354 0.930 . S
C362 C361 1.362 . S
C362 C365 1.409 . S
C363 H355 0.930 . S
C363 C364 1.355 . S
C363 C365 1.415 . S
C364 C363 1.355 . S
C364 C366 1.419 . S
C365 C360 1.425 . S
C365 C362 1.409 . S
C365 C363 1.415 . S
C366 H356 0.930 . S
C366 C364 1.419 . S
C366 C367 1.362 . S
C367 H357 0.930 . S
C367 C360 1.409 . S
C367 C366 1.362 . S
H368 C374 0.930 . S
H369 C377 0.930 . S
H370 C378 0.930 . S
H371 C379 0.930 . S
H372 C382 0.930 . S
H373 C383 0.930 . S
C374 H368 0.930 . S
C374 C375 1.355 . S
C374 C376 1.415 . S
C375 C374 1.355 . S
C375 C377 1.419 . S
C376 C374 1.415 . S
C376 C381 1.425 . S
C376 C383 1.410 . S
C377 H369 0.930 . S
C377 C375 1.419 . S
C377 C378 1.362 . S
C378 H370 0.930 . S
C378 C377 1.362 . S
C378 C381 1.409 . S
C379 H371 0.930 . S
C379 C380 1.355 . S
C379 C381 1.415 1_554 S
C380 C379 1.355 . S
C380 C382 1.419 . S
C381 C376 1.425 . S
C381 C378 1.409 . S
C381 C379 1.415 1_556 S
C382 H372 0.930 . S
C382 C380 1.419 . S
C382 C383 1.361 1_554 S
C383 H373 0.930 . S
C383 C376 1.410 . S
C383 C382 1.361 1_556 S
H384 C390 0.930 . S
H385 C393 0.930 . S
H386 C394 0.930 . S
H387 C395 0.930 . S
H388 C398 0.930 . S
H389 C399 0.930 . S
C390 H384 0.930 . S
C390 C391 1.355 1_554 S
C390 C392 1.415 . S
C391 C390 1.355 1_556 S
C391 C393 1.419 . S
C392 C390 1.415 . S
C392 C397 1.425 . S
C392 C399 1.409 . S
C393 H385 0.930 . S
C393 C391 1.419 . S
C393 C394 1.362 . S
C394 H386 0.930 . S
C394 C393 1.362 . S
C394 C397 1.409 1_556 S
C395 H387 0.930 . S
C395 C396 1.355 . S
C395 C397 1.415 . S
C396 C395 1.355 . S
C396 C398 1.419 . S
C397 C392 1.425 . S
C397 C394 1.409 1_554 S
C397 C395 1.415 . S
C398 H388 0.930 . S
C398 C396 1.419 . S
C398 C399 1.362 . S
C399 H389 0.930 . S
C399 C392 1.409 . S
C399 C398 1.362 . S
H400 C406 0.930 . S
H401 C409 0.930 . S
H402 C410 0.930 . S
H403 C411 0.930 1_554 S
H404 C414 0.930 . S
H405 C415 0.930 . S
C406 H400 0.930 . S
C406 C407 1.355 1_556 S
C406 C408 1.415 . S
C407 C406 1.355 1_554 S
C407 C409 1.419 . S
C408 C406 1.415 . S
C408 C413 1.425 1_556 S
C408 C415 1.409 . S
C409 H401 0.930 . S
C409 C407 1.419 . S
C409 C410 1.362 . S
C410 H402 0.930 . S
C410 C409 1.362 . S
C410 C413 1.409 . S
C411 H403 0.930 1_556 S
C411 C412 1.355 . S
C411 C413 1.415 1_556 S
C412 C411 1.355 . S
C412 C414 1.419 . S
C413 C408 1.425 1_554 S
C413 C410 1.409 . S
C413 C411 1.415 1_554 S
C414 H404 0.930 . S
C414 C412 1.419 . S
C414 C415 1.362 . S
C415 H405 0.930 . S
C415 C408 1.409 . S
C415 C414 1.362 . S
H416 C422 0.930 . S
H417 C425 0.930 . S
H418 C426 0.930 . S
H419 C427 0.930 . S
H420 C430 0.939 . S
H421 C431 0.930 . S
C422 H416 0.930 . S
C422 C423 1.355 . S
C422 C424 1.415 . S
C423 C422 1.355 . S
C423 C425 1.419 1_556 S
C424 C422 1.415 . S
C424 C429 1.425 1_556 S
C424 C431 1.409 . S
C425 H417 0.930 . S
C425 C423 1.419 1_554 S
C425 C426 1.362 . S
C426 H418 0.930 . S
C426 C425 1.362 . S
C426 C429 1.409 . S
C427 H419 0.930 . S
C427 C428 1.355 . S
C427 C429 1.415 . S
C428 C427 1.355 . S
C428 C430 1.398 1_554 S
C429 C424 1.425 1_554 S
C429 C426 1.409 . S
C429 C427 1.415 . S
C430 H420 0.939 . S
C430 C428 1.398 1_556 S
C430 C431 1.375 . S
C431 H421 0.930 . S
C431 C424 1.409 . S
C431 C430 1.375 . S
H432 C438 0.930 . S
H433 C441 0.930 . S
H434 C442 0.930 . S
H435 C443 0.930 . S
H436 C446 0.930 . S
H437 C447 0.930 . S
C438 H432 0.930 . S
C438 C439 1.355 . S
C438 C440 1.415 . S
C439 C438 1.355 . S
C439 C441 1.419 . S
C440 C438 1.415 . S
C440 C445 1.425 . S
C440 C447 1.409 . S
C441 H433 0.930 . S
C441 C439 1.419 . S
C441 C442 1.362 . S
C442 H434 0.930 . S
C442 C441 1.362 . S
C442 C445 1.409 . S
C443 H435 0.930 . S
C443 C444 1.355 . S
C443 C445 1.415 . S
C444 C443 1.355 . S
C444 C446 1.419 . S
C445 C440 1.425 . S
C445 C442 1.409 . S
C445 C443 1.415 . S
C446 H436 0.930 . S
C446 C444 1.419 . S
C446 C447 1.362 . S
C447 H437 0.930 . S
C447 C440 1.409 . S
C447 C446 1.362 . S
H448 C454 0.930 . S
H449 C457 0.930 . S
H450 C458 0.930 . S
H451 C459 0.930 . S
H452 C462 0.930 . S
H453 C463 0.930 . S
C454 H448 0.930 . S
C454 C455 1.355 . S
C454 C456 1.415 . S
C455 C454 1.355 . S
C455 C457 1.419 . S
C456 C454 1.415 . S
C456 C461 1.425 . S
C456 C463 1.409 . S
C457 H449 0.930 . S
C457 C455 1.419 . S
C457 C458 1.362 . S
C458 H450 0.930 . S
C458 C457 1.362 . S
C458 C461 1.409 . S
C459 H451 0.930 . S
C459 C460 1.355 . S
C459 C461 1.415 . S
C460 C459 1.355 . S
C460 C462 1.419 . S
C461 C456 1.425 . S
C461 C458 1.409 . S
C461 C459 1.415 . S
C462 H452 0.930 . S
C462 C460 1.419 . S
C462 C463 1.362 . S
C463 H453 0.930 . S
C463 C456 1.409 . S
C463 C462 1.362 . S
H464 C470 0.930 . S
H465 C473 0.930 . S
H466 C474 0.930 . S
H467 C475 0.930 . S
H468 C478 0.930 . S
H469 C479 0.930 . S
C470 H464 0.930 . S
C470 C471 1.355 . S
C470 C472 1.415 . S
C471 C470 1.355 . S
C471 C473 1.419 . S
C472 C470 1.415 . S
C472 C477 1.425 . S
C472 C479 1.409 . S
C473 H465 0.930 . S
C473 C471 1.419 . S
C473 C474 1.362 . S
C474 H466 0.930 . S
C474 C473 1.362 . S
C474 C477 1.409 . S
C475 H467 0.930 . S
C475 C476 1.355 . S
C475 C477 1.415 . S
C476 C475 1.355 . S
C476 C478 1.419 . S
C477 C472 1.425 . S
C477 C474 1.409 . S
C477 C475 1.415 . S
C478 H468 0.930 . S
C478 C476 1.419 . S
C478 C479 1.362 . S
C479 H469 0.930 . S
C479 C472 1.409 . S
C479 C478 1.362 . S
H480 C486 0.930 . S
H481 C489 0.930 . S
H482 C490 0.930 . S
H483 C491 0.930 . S
H484 C494 0.930 . S
H485 C495 0.930 . S
C486 H480 0.930 . S
C486 C487 1.355 . S
C486 C488 1.415 . S
C487 C486 1.355 . S
C487 C489 1.419 . S
C488 C486 1.415 . S
C488 C493 1.425 . S
C488 C495 1.409 . S
C489 H481 0.930 . S
C489 C487 1.419 . S
C489 C490 1.362 . S
C490 H482 0.930 . S
C490 C489 1.362 . S
C490 C493 1.409 . S
C491 H483 0.930 . S
C491 C492 1.355 . S
C491 C493 1.415 . S
C492 C491 1.355 . S
C492 C494 1.419 . S
C493 C488 1.425 . S
C493 C490 1.409 . S
C493 C491 1.415 . S
C494 H484 0.930 . S
C494 C492 1.419 . S
C494 C495 1.362 . S
C495 H485 0.930 . S
C495 C488 1.409 . S
C495 C494 1.362 . S
H496 C502 0.930 . S
H497 C505 0.930 . S
H498 C506 0.930 . S
H499 C507 0.930 . S
H500 C510 0.930 . S
H501 C511 0.930 . S
C502 H496 0.930 . S
C502 C503 1.355 . S
C502 C504 1.415 . S
C503 C502 1.355 . S
C503 C505 1.419 . S
C504 C502 1.415 . S
C504 C509 1.425 1_545 S
C504 C511 1.409 . S
C505 H497 0.930 . S
C505 C503 1.419 . S
C505 C506 1.362 1_545 S
C506 H498 0.930 . S
C506 C505 1.362 1_565 S
C506 C509 1.409 . S
C507 H499 0.930 . S
C507 C508 1.355 . S
C507 C509 1.415 . S
C508 C507 1.355 . S
C508 C510 1.419 . S
C509 C504 1.425 1_565 S
C509 C506 1.409 . S
C509 C507 1.415 . S
C510 H500 0.930 . S
C510 C508 1.419 . S
C510 C511 1.362 1_565 S
C511 H501 0.930 . S
C511 C504 1.409 . S
C511 C510 1.362 1_545 S
H512 C518 0.930 . S
H513 C521 0.930 . S
H514 C522 0.930 . S
H515 C523 0.930 . S
H516 C526 0.930 . S
H517 C527 0.930 . S
C518 H512 0.930 . S
C518 C519 1.355 . S
C518 C520 1.415 . S
C519 C518 1.355 . S
C519 C521 1.419 . S
C520 C518 1.415 . S
C520 C525 1.425 1_655 S
C520 C527 1.409 . S
C521 H513 0.930 . S
C521 C519 1.419 . S
C521 C522 1.362 1_655 S
C522 H514 0.930 . S
C522 C521 1.362 1_455 S
C522 C525 1.409 . S
C523 H515 0.930 . S
C523 C524 1.355 . S
C523 C525 1.415 . S
C524 C523 1.355 . S
C524 C526 1.419 . S
C525 C520 1.425 1_455 S
C525 C522 1.409 . S
C525 C523 1.415 . S
C526 H516 0.930 . S
C526 C524 1.419 . S
C526 C527 1.362 1_455 S
C527 H517 0.930 . S
C527 C520 1.409 . S
C527 C526 1.362 1_655 S
H528 C534 0.930 . S
H529 C537 0.930 . S
H530 C538 0.930 . S
H531 C539 0.930 . S
H532 C542 0.930 . S
H533 C543 0.930 . S
C534 H528 0.930 . S
C534 C535 1.355 . S
C534 C536 1.415 . S
C535 C534 1.355 . S
C535 C537 1.419 . S
C536 C534 1.415 . S
C536 C541 1.425 1_565 S
C536 C543 1.409 . S
C537 H529 0.930 . S
C537 C535 1.419 . S
C537 C538 1.362 1_565 S
C538 H530 0.930 . S
C538 C537 1.362 1_545 S
C538 C541 1.409 . S
C539 H531 0.930 . S
C539 C540 1.355 . S
C539 C541 1.415 . S
C540 C539 1.355 . S
C540 C542 1.419 . S
C541 C536 1.425 1_545 S
C541 C538 1.409 . S
C541 C539 1.415 . S
C542 H532 0.930 . S
C542 C540 1.419 . S
C542 C543 1.362 1_545 S
C543 H533 0.930 . S
C543 C536 1.409 . S
C543 C542 1.362 1_565 S
H544 C550 0.930 . S
H545 C553 0.930 . S
H546 C554 0.930 . S
H547 C555 0.930 . S
H548 C558 0.930 . S
H549 C559 0.930 . S
C550 H544 0.930 . S
C550 C551 1.355 . S
C550 C552 1.415 1_655 S
C551 C550 1.355 . S
C551 C553 1.419 . S
C552 C550 1.415 1_455 S
C552 C557 1.425 1_455 S
C552 C559 1.409 . S
C553 H545 0.930 . S
C553 C551 1.419 . S
C553 C554 1.362 . S
C554 H546 0.930 . S
C554 C553 1.362 . S
C554 C557 1.409 . S
C555 H547 0.930 . S
C555 C556 1.355 . S
C555 C557 1.415 1_455 S
C556 C555 1.355 . S
C556 C558 1.419 . S
C557 C552 1.425 1_655 S
C557 C554 1.409 . S
C557 C555 1.415 1_655 S
C558 H548 0.930 . S
C558 C556 1.419 . S
C558 C559 1.362 . S
C559 H549 0.930 . S
C559 C552 1.409 . S
C559 C558 1.362 . S
C183 C116 1.341 . S
C188 C7 1.260 . S
C199 C27 1.318 . S
C204 C141 1.330 . S
C215 C160 1.332 . S
C220 C51 1.316 . S
C231 C71 1.231 . S
C236 C97 1.315 . S
C247 C96 1.470 . S
C252 C6 1.491 . S
C263 C31 1.487 . S
C268 C114 1.492 . S
C279 C50 1.488 . S
C284 C140 1.475 . S
C295 C158 1.474 . S
C300 C75 1.488 . S
C311 C8 1.475 . S
C316 C93 1.487 . S
C327 C117 1.482 . S
C332 C26 1.493 . S
C343 C52 1.472 . S
C348 C137 1.494 . S
C359 C70 1.473 . S
C364 C161 1.494 . S
C375 C30 1.102 . S
C380 C5 1.064 . S
C391 C29 1.059 . S
C396 C48 1.052 . S
C407 C49 1.044 . S
C412 C74 1.059 . S
C423 C73 1.101 . S
C428 C4 1.095 . S
C439 C94 1.043 . S
C444 C162 1.089 . S
C455 C92 1.103 . S
C460 C119 1.086 . S
C471 C138 1.096 . S
C476 C118 1.099 . S
C487 C163 1.087 . S
C492 C136 1.103 . S
C503 C9 1.686 . S
C508 C53 1.677 . S
C519 C72 1.690 . S
C524 C28 1.659 . S
C535 C139 1.668 . S
C540 C95 1.690 . S
C551 C159 1.586 . S
C556 C115 1.615 . S
