# Generated by pormake.
# Topology qtz-e, (6)-cn, num edge types: 1
# Building blocks:
#     Node 0, Type 0, BuildingBlock: BETDIP_clean_sbu_0, # of connection points: 6
#     Node 1, Type 0, BuildingBlock: BETDIP_clean_sbu_0, # of connection points: 6
#     Node 2, Type 0, BuildingBlock: BETDIP_clean_sbu_0, # of connection points: 6
#     Node 3, Type 0, BuildingBlock: BETDIP_clean_sbu_0, # of connection points: 6
#     Node 4, Type 0, BuildingBlock: BETDIP_clean_sbu_0, # of connection points: 6
#     Node 5, Type 0, BuildingBlock: BETDIP_clean_sbu_0, # of connection points: 6
#     Edge 6, Type (0, 0), BuildingBlock: OJICUG_clean_linker_0, # of connection points: 2
#     Edge 7, Type (0, 0), BuildingBlock: OJICUG_clean_linker_0, # of connection points: 2
#     Edge 8, Type (0, 0), BuildingBlock: OJICUG_clean_linker_0, # of connection points: 2
#     Edge 9, Type (0, 0), BuildingBlock: OJICUG_clean_linker_0, # of connection points: 2
#     Edge 10, Type (0, 0), BuildingBlock: OJICUG_clean_linker_0, # of connection points: 2
#     Edge 11, Type (0, 0), BuildingBlock: OJICUG_clean_linker_0, # of connection points: 2
#     Edge 12, Type (0, 0), BuildingBlock: OJICUG_clean_linker_0, # of connection points: 2
#     Edge 13, Type (0, 0), BuildingBlock: OJICUG_clean_linker_0, # of connection points: 2
#     Edge 14, Type (0, 0), BuildingBlock: OJICUG_clean_linker_0, # of connection points: 2
#     Edge 15, Type (0, 0), BuildingBlock: OJICUG_clean_linker_0, # of connection points: 2
#     Edge 16, Type (0, 0), BuildingBlock: OJICUG_clean_linker_0, # of connection points: 2
#     Edge 17, Type (0, 0), BuildingBlock: OJICUG_clean_linker_0, # of connection points: 2
#     Edge 18, Type (0, 0), BuildingBlock: OJICUG_clean_linker_0, # of connection points: 2
#     Edge 19, Type (0, 0), BuildingBlock: OJICUG_clean_linker_0, # of connection points: 2
#     Edge 20, Type (0, 0), BuildingBlock: OJICUG_clean_linker_0, # of connection points: 2
#     Edge 21, Type (0, 0), BuildingBlock: OJICUG_clean_linker_0, # of connection points: 2
#     Edge 22, Type (0, 0), BuildingBlock: OJICUG_clean_linker_0, # of connection points: 2
#     Edge 23, Type (0, 0), BuildingBlock: OJICUG_clean_linker_0, # of connection points: 2
# Relax obj value: 0.106
# Max RMSD: 0.196
# Mean RMSD: 0.196
data_MOF--net-qtz-e--node1-BETDIP_clean_sbu_0--edge1-OJICUG_clean_linker_0
_symmetry_space_group_name_H-M    P1
_symmetry_Int_Tables_number       1
_symmetry_cell_setting            triclinic
loop_
_symmetry_equiv_pos_as_xyz
'x, y, z'
_cell_length_a     18.972401
_cell_length_b     18.872963
_cell_length_c     41.324992
_cell_angle_alpha  90.501864
_cell_angle_beta   89.482622
_cell_angle_gamma 119.74699
loop_
_atom_site_label
_atom_site_type_symbol
_atom_site_fract_x
_atom_site_fract_y
_atom_site_fract_z
_atom_type_partial_charge
Tb0 Tb 0.165 0.46878 0.10241 0.0
Tb1 Tb 0.13621 0.31522 0.06908 0.0
C2 C 0.14553 0.57408 0.1324 0.0
C3 C 0.18806 0.62558 0.16 0.0
C4 C 0.15492 0.66718 0.17645 0.0
C5 C 0.18996 0.70821 0.20518 0.0
C6 C 0.25868 0.70802 0.21775 0.0
C7 C 0.29387 0.66929 0.20025 0.0
C8 C 0.25857 0.62806 0.17155 0.0
C9 C 0.30163 0.47081 0.09151 0.0
C10 C 0.11962 0.31703 0.14622 0.0
C11 C 0.13224 0.19414 0.04099 0.0
C12 C 0.15151 0.18209 1.00689 0.0
C13 C 0.22888 0.23327 0.99349 0.0
C14 C 0.24718 0.22196 0.96162 0.0
C15 C 0.18881 0.15941 0.94192 0.0
C16 C 0.11078 0.10916 0.955 0.0
C17 C 0.09254 0.12011 0.98717 0.0
C18 C 0.02176 0.35786 0.06378 0.0
C19 C 0.20465 0.4716 1.02952 0.0
O20 O 0.10428 0.4962 0.13867 0.0
O21 O 0.18865 0.58936 0.10598 0.0
O22 O 0.23445 0.40718 0.09788 0.0
O23 O 0.29497 0.53498 0.0961 0.0
O24 O 0.15533 0.39763 0.14485 0.0
O25 O 0.1011 0.27084 0.11952 0.0
O26 O 0.19309 0.2466 0.05861 0.0
O27 O 0.06771 0.20128 0.04557 0.0
O28 O 0.06204 0.36039 0.08776 0.0
O29 O 0.04676 0.33147 0.03974 0.0
O30 O 0.21271 0.40756 0.03508 0.0
O31 O 0.16786 0.49558 0.05067 0.0
H32 H 0.10013 0.66508 0.16782 0.0
H33 H 0.16031 0.73597 0.21844 0.0
H34 H 0.34682 0.66842 0.20932 0.0
H35 H 0.28449 0.59563 0.159 0.0
H36 H 0.27577 0.28248 1.00759 0.0
H37 H 0.30741 0.263 0.95229 0.0
H38 H 0.06437 0.06037 0.9406 0.0
H39 H 0.03228 0.07992 0.99668 0.0
Tb40 Tb 0.68973 0.19654 0.43635 0.0
Tb41 Tb 0.81358 0.16201 0.40441 0.0
C42 C 0.5745 0.18843 0.46934 0.0
C43 C 0.57037 0.20869 0.50329 0.0
C44 C 0.50371 0.15519 0.52213 0.0
C45 C 0.50215 0.17015 0.55509 0.0
C46 C 0.56706 0.23912 0.56953 0.0
C47 C 0.63298 0.29378 0.55059 0.0
C48 C 0.63509 0.27821 0.51765 0.0
C49 C 0.82637 0.32853 0.42358 0.0
C50 C 0.7928 0.14793 0.48134 0.0
C51 C 0.93286 0.16132 0.37734 0.0
C52 C 0.95829 0.16759 0.34285 0.0
C53 C 0.90339 0.15314 0.31761 0.0
C54 C 0.93018 0.16809 0.28524 0.0
C55 C 0.01273 0.19885 0.27738 0.0
C56 C 0.06697 0.21127 0.30274 0.0
C57 C 0.04005 0.1958 0.33503 0.0
C58 C 0.65816 0.04827 0.39856 0.0
C59 C 0.71972 0.22401 0.3632 0.0
O60 O 0.58541 0.12612 0.46444 0.0
O61 O 0.62058 0.24987 0.45069 0.0
O62 O 0.82011 0.26157 0.43264 0.0
O63 O 0.75636 0.3242 0.42442 0.0
O64 O 0.74841 0.18412 0.47912 0.0
O65 O 0.82303 0.13015 0.45516 0.0
O66 O 0.93518 0.22686 0.38928 0.0
O67 O 0.86676 0.09471 0.38616 0.0
O68 O 0.69428 0.09118 0.42251 0.0
O69 O 0.71048 0.06884 0.37517 0.0
O70 O 0.79119 0.23084 0.36857 0.0
O71 O 0.66081 0.19312 0.3851 0.0
H72 H 0.45371 0.10109 0.51146 0.0
H73 H 0.45032 0.12765 0.5694 0.0
H74 H 0.68358 0.347 0.56142 0.0
H75 H 0.68788 0.31973 0.50359 0.0
H76 H 0.84017 0.13258 0.323 0.0
H77 H 0.88682 0.15885 0.26651 0.0
H78 H 0.13076 0.23424 0.29768 0.0
H79 H 0.08371 0.20805 0.35401 0.0
Tb80 Tb 0.46429 0.71907 0.76468 0.0
Tb81 Tb 0.6314 0.81616 0.73554 0.0
C82 C 0.33815 0.63572 0.79755 0.0
C83 C 0.31874 0.61314 0.83184 0.0
C84 C 0.32223 0.5467 0.84498 0.0
C85 C 0.30562 0.52836 0.87779 0.0
C86 C 0.28571 0.57642 0.89804 0.0
C87 C 0.28106 0.64197 0.88466 0.0
C88 C 0.29665 0.65963 0.85189 0.0
C89 C 0.50011 0.86446 0.74446 0.0
C90 C 0.62101 0.79055 0.81111 0.0
C91 C 0.75605 0.927 0.70818 0.0
C92 C 0.76685 0.95895 0.67447 0.0
C93 C 0.70582 0.96949 0.66 0.0
C94 C 0.71571 0.00087 0.62867 0.0
C95 C 0.78687 0.02269 0.61063 0.0
C96 C 0.84722 0.01016 0.62472 0.0
C97 C 0.83739 0.97892 0.65635 0.0
C98 C 0.56536 0.65503 0.73339 0.0
C99 C 0.4797 0.7329 0.69075 0.0
O100 O 0.37412 0.60321 0.78075 0.0
O101 O 0.36919 0.71355 0.79184 0.0
O102 O 0.54805 0.84703 0.75897 0.0
O103 O 0.43097 0.79913 0.74074 0.0
O104 O 0.54077 0.7545 0.80814 0.0
O105 O 0.67052 0.8182 0.78558 0.0
O106 O 0.70806 0.94092 0.72691 0.0
O107 O 0.74298 0.85242 0.71152 0.0
O108 O 0.56193 0.69806 0.75591 0.0
O109 O 0.61055 0.70306 0.71049 0.0
O110 O 0.55033 0.79883 0.69606 0.0
O111 O 0.43845 0.68085 0.71413 0.0
H112 H 0.33798 0.5091 0.83003 0.0
H113 H 0.30784 0.47615 0.88722 0.0
H114 H 0.26663 0.68058 0.89957 0.0
H115 H 0.29242 0.71068 0.84235 0.0
H116 H 0.65023 0.95402 0.67298 0.0
H117 H 0.66709 0.00787 0.61852 0.0
H118 H 0.90282 0.02631 0.61162 0.0
H119 H 0.88523 0.97101 0.66675 0.0
Tb120 Tb 0.72756 0.46736 0.09659 0.0
Tb121 Tb 0.78929 0.63357 0.0672 0.0
C122 C 0.68823 0.3434 0.13032 0.0
C123 C 0.69074 0.32693 0.16493 0.0
C124 C 0.7574 0.32448 0.17802 0.0
C125 C 0.75917 0.31017 0.21099 0.0
C126 C 0.6944 0.29828 0.23141 0.0
C127 C 0.62724 0.29936 0.21816 0.0
C128 C 0.62516 0.31296 0.18525 0.0
C129 C 0.61389 0.4942 0.07418 0.0
C130 C 0.80456 0.62674 0.14307 0.0
C131 C 0.79237 0.75394 0.03991 0.0
C132 C 0.78094 0.77032 1.0057 0.0
C133 C 0.74307 0.81637 0.99922 0.0
C134 C 0.7224 0.82454 0.96747 0.0
C135 C 0.73916 0.78695 0.94121 0.0
C136 C 0.77925 0.74259 0.94764 0.0
C137 C 0.7994 0.73392 0.97953 0.0
C138 C 0.89284 0.57756 0.06731 0.0
C139 C 0.74362 0.48225 1.02256 0.0
O140 O 0.75723 0.38117 0.11432 0.0
O141 O 0.63923 0.37086 0.12315 0.0
O142 O 0.67652 0.54528 0.08948 0.0
O143 O 0.6167 0.42788 0.07011 0.0
O144 O 0.76543 0.54583 0.14008 0.0
O145 O 0.82216 0.67535 0.11752 0.0
O146 O 0.72762 0.69502 0.0537 0.0
O147 O 0.85814 0.75091 0.04703 0.0
O148 O 0.84271 0.57026 0.08883 0.0
O149 O 0.88935 0.62212 0.04429 0.0
O150 O 0.74137 0.5506 1.02641 0.0
O151 O 0.74845 0.44074 0.04722 0.0
H152 H 0.80816 0.33373 0.16287 0.0
H153 H 0.81105 0.30784 0.22042 0.0
H154 H 0.57675 0.29093 0.23328 0.0
H155 H 0.57223 0.31328 0.17582 0.0
H156 H 0.72743 0.84442 1.0189 0.0
H157 H 0.6924 0.85981 0.96353 0.0
H158 H 0.79232 0.71196 0.92818 0.0
H159 H 0.8274 0.69693 0.98381 0.0
Tb160 Tb 0.25678 0.74529 0.42387 0.0
Tb161 Tb 0.15362 0.81066 0.39577 0.0
C162 C 0.34047 0.70417 0.45683 0.0
C163 C 0.35718 0.70511 0.49155 0.0
C164 C 0.43377 0.76104 0.50376 0.0
C165 C 0.44925 0.76277 0.53673 0.0
C166 C 0.3884 0.70837 0.55798 0.0
C167 C 0.31232 0.65148 0.54571 0.0
C168 C 0.29679 0.64978 0.5128 0.0
C169 C 0.11684 0.63348 0.40031 0.0
C170 C 0.17345 0.81865 0.47205 0.0
C171 C 0.03659 0.8149 0.36904 0.0
C172 C 0.00456 0.79973 0.33529 0.0
C173 C 0.92023 0.75818 0.33039 0.0
C174 C 0.88757 0.73488 0.29918 0.0
C175 C 0.9383 0.75266 0.27179 0.0
C176 C 0.02306 0.79616 0.27664 0.0
C177 C 0.05577 0.81887 0.308 0.0
C178 C 0.31175 0.91422 0.39816 0.0
C179 C 0.26101 0.76825 0.35044 0.0
O180 O 0.37141 0.77485 0.44214 0.0
O181 O 0.26549 0.65437 0.44835 0.0
O182 O 0.12935 0.69617 0.41626 0.0
O183 O 0.18509 0.63522 0.39611 0.0
O184 O 0.21444 0.77886 0.46807 0.0
O185 O 0.14416 0.83982 0.44694 0.0
O186 O 0.03024 0.75084 0.38366 0.0
O187 O 0.10674 0.88036 0.37484 0.0
O188 O 0.2681 0.86137 0.41847 0.0
O189 O 0.26542 0.91384 0.37512 0.0
O190 O 0.19026 0.76514 0.35424 0.0
O191 O 0.30607 0.77111 0.37511 0.0
H192 H 0.48148 0.80363 0.48784 0.0
H193 H 0.50897 0.80651 0.54561 0.0
H194 H 0.26431 0.60939 0.56163 0.0
H195 H 0.23707 0.60538 0.50418 0.0
H196 H 0.87923 0.74193 0.35091 0.0
H197 H 0.8222 0.70228 0.29654 0.0
H198 H 0.06417 0.81016 0.25629 0.0
H199 H 0.12103 0.84961 0.31097 0.0
Tb200 Tb 0.46473 0.28356 0.77125 0.0
Tb201 Tb 0.31161 0.15118 0.73366 0.0
C202 C 0.56366 0.4113 0.80008 0.0
C203 C 0.60974 0.41968 0.82936 0.0
C204 C 0.6529 0.49508 0.84504 0.0
C205 C 0.68866 0.49992 0.87498 0.0
C206 C 0.68166 0.42925 0.88944 0.0
C207 C 0.64102 0.35459 0.87288 0.0
C208 C 0.60478 0.34981 0.84327 0.0
C209 C 0.46882 0.14615 0.76703 0.0
C210 C 0.30623 0.16647 0.81138 0.0
C211 C 0.20208 0.03197 0.70269 0.0
C212 C 0.19392 0.00118 0.66863 0.0
C213 C 0.16188 0.91733 0.66274 0.0
C214 C 0.1547 0.88688 0.63103 0.0
C215 C 0.17909 0.93936 0.60407 0.0
C216 C 0.21073 0.02348 0.61002 0.0
C217 C 0.2184 0.054 0.64183 0.0
C218 C 0.35054 0.30726 0.72979 0.0
C219 C 0.47785 0.24735 0.69874 0.0
O220 O 0.48509 0.37558 0.80466 0.0
O221 O 0.58324 0.38223 0.77479 0.0
O222 O 0.41472 0.16069 0.75718 0.0
O223 O 0.52302 0.211 0.78167 0.0
O224 O 0.38416 0.22276 0.81147 0.0
O225 O 0.26444 0.13203 0.78427 0.0
O226 O 0.25568 0.02671 0.72076 0.0
O227 O 0.20284 0.10123 0.70729 0.0
O228 O 0.35393 0.26918 0.75369 0.0
O229 O 0.32344 0.25665 0.70559 0.0
O230 O 0.41238 0.17523 0.70247 0.0
O231 O 0.49967 0.30726 0.72013 0.0
H232 H 0.65633 0.54935 0.83477 0.0
H233 H 0.71825 0.55818 0.88747 0.0
H234 H 0.63499 0.29935 0.88329 0.0
H235 H 0.57032 0.29078 0.83188 0.0
H236 H 0.14248 0.87505 0.6828 0.0
H237 H 0.12929 0.82177 0.62765 0.0
H238 H 0.23133 0.06616 0.59011 0.0
H239 H 0.2441 0.1191 0.64542 0.0
C240 C 0.28369 0.82195 0.29523 0.0
C241 C 0.2877 0.76823 0.31734 0.0
H242 H 0.27519 0.84693 0.24559 0.0
C243 C 0.30006 0.70499 0.3063 0.0
H244 H 0.2747 0.87153 0.30357 0.0
C245 C 0.29859 0.68971 0.27313 0.0
C246 C 0.28543 0.7382 0.25096 0.0
H247 H 0.3026 0.66276 0.32321 0.0
H248 H 0.29995 0.63556 0.2652 0.0
C249 C 0.28348 0.80758 0.26219 0.0
C250 C 0.54772 0.32612 0.64924 0.0
C251 C 0.52447 0.25817 0.66912 0.0
H252 H 0.57981 0.37298 0.60093 0.0
C253 C 0.53036 0.1912 0.65754 0.0
H254 H 0.54318 0.3781 0.65783 0.0
C255 C 0.55057 0.18806 0.62544 0.0
C256 C 0.56529 0.25195 0.60452 0.0
H257 H 0.51344 0.13852 0.67273 0.0
H258 H 0.54964 0.13349 0.61643 0.0
C259 C 0.56814 0.32296 0.61685 0.0
C260 C 0.1896 0.54226 0.98155 0.0
C261 C 0.23223 0.51078 0.99795 0.0
H262 H 0.17112 0.58513 0.93645 0.0
C263 C 0.29656 0.50748 0.98235 0.0
H264 H 0.13956 0.54497 0.99313 0.0
C265 C 0.31557 0.53146 0.95028 0.0
C266 C 0.26979 0.55808 0.93298 0.0
H267 H 0.33101 0.48427 0.99475 0.0
H268 H 0.36529 0.52773 0.9389 0.0
C269 C 0.2078 0.56514 0.94914 0.0
C270 C 0.6331 0.20984 0.31571 0.0
C271 C 0.70802 0.25048 0.33151 0.0
H272 H 0.5704 0.19136 0.27092 0.0
C273 C 0.776 0.31187 0.31529 0.0
H274 H 0.57996 0.16239 0.32784 0.0
C275 C 0.77057 0.32926 0.28315 0.0
C276 C 0.69723 0.28491 0.26644 0.0
H277 H 0.83425 0.34512 0.32725 0.0
H278 H 0.82435 0.37637 0.2712 0.0
C279 C 0.62784 0.22653 0.28322 0.0
C280 C 0.40081 0.6467 0.64378 0.0
C281 C 0.44584 0.72354 0.65837 0.0
H282 H 0.34839 0.58156 0.59973 0.0
C283 C 0.46599 0.79426 0.64064 0.0
H284 H 0.38521 0.59159 0.65711 0.0
C285 C 0.44512 0.78879 0.60829 0.0
C286 C 0.40409 0.71248 0.59297 0.0
H287 H 0.49955 0.85427 0.65163 0.0
H288 H 0.46223 0.84447 0.59512 0.0
C289 C 0.38017 0.64118 0.6111 0.0
C290 C 0.79616 0.51159 0.96707 0.0
C291 C 0.74143 0.45509 0.98936 0.0
H292 H 0.82125 0.54648 0.91744 0.0
C293 C 0.67445 0.3831 0.97843 0.0
H294 H 0.84817 0.56774 0.97533 0.0
C295 C 0.65793 0.37165 0.94536 0.0
C296 C 0.70871 0.43205 0.92307 0.0
H297 H 0.63098 0.33977 0.99546 0.0
H298 H 0.60194 0.31891 0.93762 0.0
C299 C 0.78025 0.49993 0.9341 0.0
C300 C 0.38693 0.40751 0.07777 0.0
C301 C 0.38099 0.47612 0.08632 0.0
H302 H 0.46539 0.36022 0.06596 0.0
C303 C 0.45245 0.55238 0.08921 0.0
H304 H 0.33325 0.34841 0.07539 0.0
C305 C 0.52866 0.55934 0.08454 0.0
C306 C 0.53455 0.49048 0.07617 0.0
H307 H 0.44965 0.60668 0.09566 0.0
H308 H 0.58271 0.61812 0.0879 0.0
C309 C 0.4629 0.41475 0.07229 0.0
C310 C 0.96629 0.54991 0.40431 0.0
C311 C 0.04208 0.55451 0.40383 0.0
H312 H 0.83843 0.47383 0.41025 0.0
C313 C 0.04692 0.48349 0.40946 0.0
H314 H 0.96087 0.60352 0.40044 0.0
C315 C -0.0229 0.40956 0.41629 0.0
C316 C 0.9013 0.40503 0.41653 0.0
H317 H 0.105 0.48557 0.40982 0.0
H318 H -0.0173 0.35674 0.42189 0.0
C319 C 0.89637 0.47557 0.41015 0.0
C320 C 0.54179 0.0693 0.77482 0.0
C321 C 0.47979 0.07629 0.75931 0.0
H322 H 0.59874 -0.00318 0.78164 0.0
C323 C 0.43274 0.01899 0.73576 0.0
H324 H 0.58003 0.11388 0.79271 0.0
C325 C 0.44426 0.95291 0.72916 0.0
C326 C 0.50303 0.94336 0.74604 0.0
H327 H 0.38693 0.02476 0.72264 0.0
H328 H 0.40496 0.90742 0.71174 0.0
C329 C 0.55345 0.00323 0.76821 0.0
C330 C 0.49397 0.52352 0.70127 0.0
C331 C 0.50987 0.56608 0.73087 0.0
H332 H 0.42893 0.40663 0.67728 0.0
C333 C 0.46869 0.52361 0.75879 0.0
H334 H 0.52451 0.55519 0.6793 0.0
C335 C 0.41229 0.44078 0.75733 0.0
C336 C 0.39829 0.39713 0.72826 0.0
H337 H 0.48033 0.55447 0.78199 0.0
H338 H 0.38115 0.41007 0.77937 0.0
C339 C 0.43845 0.43917 0.69997 0.0
C340 C -0.02116 0.4469 1.03391 0.0
C341 C -0.01764 0.40845 0.06236 0.0
H342 H 0.94874 0.53286 1.01308 0.0
C343 C 0.95681 0.42662 0.09168 0.0
H344 H -0.00123 0.43431 1.01103 0.0
C345 C 0.93126 0.48403 0.09304 0.0
C346 C 0.92791 0.5231 0.06493 0.0
H347 H 0.95822 0.39744 0.11394 0.0
H348 H 0.91359 0.49758 0.11628 0.0
C349 C 0.95172 0.50414 0.0352 0.0
C350 C 0.44098 0.95058 0.42512 0.0
C351 C 0.40072 0.94976 0.39676 0.0
H352 H 0.55279 0.97693 0.44705 0.0
C353 C 0.4451 0.97641 0.36765 0.0
H354 H 0.40836 0.9305 0.44789 0.0
C355 C 0.52906 0.00445 0.36728 0.0
C356 C 0.56895 0.00626 0.39604 0.0
H357 H 0.415 0.97512 0.34532 0.0
H358 H 0.56298 0.02693 0.34493 0.0
C359 C 0.52361 0.97701 0.42463 0.0
C360 C 0.31453 0.15329 0.87097 0.0
C361 C 0.26675 0.14648 0.84398 0.0
H362 H 0.32717 0.1612 0.92242 0.0
C363 C 0.18821 0.13433 0.84953 0.0
H364 H 0.37506 0.16198 0.8677 0.0
C365 C 0.16067 0.13462 0.88139 0.0
C366 C 0.21129 0.14724 0.90822 0.0
H367 H 0.1502 0.12975 0.82932 0.0
H368 H 0.10164 0.12938 0.88491 0.0
C369 C 0.2873 0.15355 0.90247 0.0
C370 C 0.11463 0.29857 0.23776 0.0
C371 C 0.04335 0.22389 0.24339 0.0
H372 H 0.19444 0.38552 0.20307 0.0
C373 C 0.0006 0.17622 0.21632 0.0
H374 H 0.14879 0.33752 0.2578 0.0
C375 C 0.02763 0.20359 0.18456 0.0
C376 C 0.09718 0.27993 0.17914 0.0
H377 H 0.94572 0.11815 0.21971 0.0
H378 H -0.00789 0.16672 0.16431 0.0
C379 C 0.14075 0.3263 0.20622 0.0
C380 C 0.77309 0.11831 0.57253 0.0
C381 C 0.79753 0.06017 0.57773 0.0
H382 H 0.75421 0.19226 0.53892 0.0
C383 C 0.82846 0.03661 0.55109 0.0
H384 H 0.75066 0.13949 0.59243 0.0
C385 C 0.83077 0.06742 0.51984 0.0
C386 C 0.80274 0.12292 0.51458 0.0
H387 H 0.84783 -0.00807 0.55416 0.0
H388 H 0.85165 0.04548 0.49969 0.0
C389 C 0.77572 0.14913 0.54162 0.0
C390 C 0.73292 0.80648 0.84896 0.0
C391 C 0.65432 0.79465 0.84426 0.0
H392 H 0.82119 0.81264 0.88294 0.0
C393 C 0.605 0.78163 0.87176 0.0
H394 H 0.77244 0.81595 0.82842 0.0
C395 C 0.63304 0.78024 0.9029 0.0
C396 C 0.71106 0.79082 0.90769 0.0
H397 H 0.54401 0.77187 0.86929 0.0
H398 H 0.59256 0.76893 0.92328 0.0
C399 C 0.76066 0.8039 0.88023 0.0
C400 C 0.83663 0.64299 0.23457 0.0
C401 C 0.90248 0.7226 0.23872 0.0
H402 H 0.75459 0.55092 0.20177 0.0
C403 C 0.93373 0.772 0.21101 0.0
H404 H 0.81134 0.60259 0.25511 0.0
C405 C 0.90022 0.74248 0.18015 0.0
C406 C 0.83537 0.66222 0.17604 0.0
H407 H -0.01596 0.83373 0.21318 0.0
H408 H 0.92663 0.7819 0.15941 0.0
C409 C 0.80406 0.61318 0.2038 0.0
C410 C 0.19318 0.84476 0.56394 0.0
C411 C 0.1737 0.90654 0.57018 0.0
H412 H 0.20784 0.76885 0.5289 0.0
C413 C 0.15019 0.93678 0.54369 0.0
H414 H 0.2126 0.82039 0.58338 0.0
C415 C 0.14699 0.90661 0.51203 0.0
C416 C 0.16806 0.84588 0.50585 0.0
H417 H 0.13397 -0.01623 0.54742 0.0
H418 H 0.12986 0.9323 0.49232 0.0
C419 C 0.19067 0.81524 0.53242 0.0
loop_
_geom_bond_atom_site_label_1
_geom_bond_atom_site_label_2
_geom_bond_distance
_geom_bond_site_symmetry_2
_ccdc_geom_bond_type
Tb0 C2 2.809 . S
Tb0 O20 2.484 . S
Tb0 O21 2.440 . S
Tb0 O22 2.658 . S
Tb0 O23 2.409 . S
Tb0 O24 2.378 . S
Tb0 O28 2.325 . S
Tb0 O31 2.341 . S
Tb1 C11 2.809 1_554 S
Tb1 O22 2.325 . S
Tb1 O25 2.341 . S
Tb1 O26 2.484 1_554 S
Tb1 O27 2.440 1_554 S
Tb1 O28 2.658 . S
Tb1 O29 2.409 . S
Tb1 O30 2.378 1_554 S
C2 Tb0 2.809 . S
C2 C3 1.514 . S
C2 O20 1.248 . S
C2 O21 1.266 . S
C3 C2 1.514 . S
C3 C4 1.359 . S
C3 C8 1.348 . S
C4 C3 1.359 . S
C4 C5 1.380 . S
C4 H32 0.929 . S
C5 C4 1.380 . S
C5 C6 1.347 . S
C5 H33 0.931 . S
C6 C5 1.347 . S
C6 C7 1.369 . S
C7 C6 1.369 . S
C7 C8 1.408 . S
C7 H34 0.930 . S
C8 C3 1.348 . S
C8 C7 1.408 . S
C8 H35 0.930 . S
C9 O22 1.281 . S
C9 O23 1.254 . S
C10 O24 1.236 . S
C10 O25 1.266 . S
C11 Tb1 2.809 1_556 S
C11 C12 1.514 . S
C11 O26 1.248 . S
C11 O27 1.266 . S
C12 C11 1.514 . S
C12 C13 1.359 . S
C12 C17 1.348 . S
C13 C12 1.359 . S
C13 C14 1.380 . S
C13 H36 0.929 . S
C14 C13 1.380 . S
C14 C15 1.347 . S
C14 H37 0.931 . S
C15 C14 1.347 . S
C15 C16 1.369 . S
C16 C15 1.369 . S
C16 C17 1.408 . S
C16 H38 0.930 . S
C17 C12 1.348 . S
C17 C16 1.408 . S
C17 H39 0.930 . S
C18 O28 1.281 . S
C18 O29 1.254 . S
C19 O30 1.236 . S
C19 O31 1.266 1_556 S
O20 Tb0 2.484 . S
O20 C2 1.248 . S
O21 Tb0 2.440 . S
O21 C2 1.266 . S
O22 Tb0 2.658 . S
O22 Tb1 2.325 . S
O22 C9 1.281 . S
O23 Tb0 2.409 . S
O23 C9 1.254 . S
O24 Tb0 2.378 . S
O24 C10 1.236 . S
O25 Tb1 2.341 . S
O25 C10 1.266 . S
O26 Tb1 2.484 1_556 S
O26 C11 1.248 . S
O27 Tb1 2.440 1_556 S
O27 C11 1.266 . S
O28 Tb0 2.325 . S
O28 Tb1 2.658 . S
O28 C18 1.281 . S
O29 Tb1 2.409 . S
O29 C18 1.254 . S
O30 Tb1 2.378 1_556 S
O30 C19 1.236 . S
O31 Tb0 2.341 . S
O31 C19 1.266 1_554 S
H32 C4 0.929 . S
H33 C5 0.931 . S
H34 C7 0.930 . S
H35 C8 0.930 . S
H36 C13 0.929 . S
H37 C14 0.931 . S
H38 C16 0.930 . S
H39 C17 0.930 . S
Tb40 C42 2.809 . S
Tb40 O60 2.484 . S
Tb40 O61 2.440 . S
Tb40 O62 2.658 . S
Tb40 O63 2.409 . S
Tb40 O64 2.378 . S
Tb40 O68 2.325 . S
Tb40 O71 2.341 . S
Tb41 C51 2.809 . S
Tb41 O62 2.325 . S
Tb41 O65 2.341 . S
Tb41 O66 2.484 . S
Tb41 O67 2.440 . S
Tb41 O68 2.658 . S
Tb41 O69 2.409 . S
Tb41 O70 2.378 . S
C42 Tb40 2.809 . S
C42 C43 1.514 . S
C42 O60 1.248 . S
C42 O61 1.266 . S
C43 C42 1.514 . S
C43 C44 1.359 . S
C43 C48 1.348 . S
C44 C43 1.359 . S
C44 C45 1.380 . S
C44 H72 0.929 . S
C45 C44 1.380 . S
C45 C46 1.347 . S
C45 H73 0.931 . S
C46 C45 1.347 . S
C46 C47 1.369 . S
C47 C46 1.369 . S
C47 C48 1.408 . S
C47 H74 0.930 . S
C48 C43 1.348 . S
C48 C47 1.408 . S
C48 H75 0.930 . S
C49 O62 1.281 . S
C49 O63 1.254 . S
C50 O64 1.236 . S
C50 O65 1.266 . S
C51 Tb41 2.809 . S
C51 C52 1.514 . S
C51 O66 1.248 . S
C51 O67 1.266 . S
C52 C51 1.514 . S
C52 C53 1.359 1_655 S
C52 C57 1.348 . S
C53 C52 1.359 1_455 S
C53 C54 1.380 . S
C53 H76 0.929 . S
C54 C53 1.380 . S
C54 C55 1.347 . S
C54 H77 0.931 . S
C55 C54 1.347 . S
C55 C56 1.369 1_455 S
C56 C55 1.369 1_655 S
C56 C57 1.408 . S
C56 H78 0.930 . S
C57 C52 1.348 . S
C57 C56 1.408 . S
C57 H79 0.930 . S
C58 O68 1.281 . S
C58 O69 1.254 . S
C59 O70 1.236 . S
C59 O71 1.266 . S
O60 Tb40 2.484 . S
O60 C42 1.248 . S
O61 Tb40 2.440 . S
O61 C42 1.266 . S
O62 Tb40 2.658 . S
O62 Tb41 2.325 . S
O62 C49 1.281 . S
O63 Tb40 2.409 . S
O63 C49 1.254 . S
O64 Tb40 2.378 . S
O64 C50 1.236 . S
O65 Tb41 2.341 . S
O65 C50 1.266 . S
O66 Tb41 2.484 . S
O66 C51 1.248 . S
O67 Tb41 2.440 . S
O67 C51 1.266 . S
O68 Tb40 2.325 . S
O68 Tb41 2.658 . S
O68 C58 1.281 . S
O69 Tb41 2.409 . S
O69 C58 1.254 . S
O70 Tb41 2.378 . S
O70 C59 1.236 . S
O71 Tb40 2.341 . S
O71 C59 1.266 . S
H72 C44 0.929 . S
H73 C45 0.931 . S
H74 C47 0.930 . S
H75 C48 0.930 . S
H76 C53 0.929 . S
H77 C54 0.931 . S
H78 C56 0.930 . S
H79 C57 0.930 . S
Tb80 C82 2.809 . S
Tb80 O100 2.484 . S
Tb80 O101 2.440 . S
Tb80 O102 2.658 . S
Tb80 O103 2.409 . S
Tb80 O104 2.378 . S
Tb80 O108 2.325 . S
Tb80 O111 2.341 . S
Tb81 C91 2.809 . S
Tb81 O102 2.325 . S
Tb81 O105 2.341 . S
Tb81 O106 2.484 . S
Tb81 O107 2.440 . S
Tb81 O108 2.658 . S
Tb81 O109 2.409 . S
Tb81 O110 2.378 . S
C82 Tb80 2.809 . S
C82 C83 1.514 . S
C82 O100 1.248 . S
C82 O101 1.266 . S
C83 C82 1.514 . S
C83 C84 1.359 . S
C83 C88 1.348 . S
C84 C83 1.359 . S
C84 C85 1.380 . S
C84 H112 0.929 . S
C85 C84 1.380 . S
C85 C86 1.347 . S
C85 H113 0.931 . S
C86 C85 1.347 . S
C86 C87 1.369 . S
C87 C86 1.369 . S
C87 C88 1.408 . S
C87 H114 0.930 . S
C88 C83 1.348 . S
C88 C87 1.408 . S
C88 H115 0.930 . S
C89 O102 1.281 . S
C89 O103 1.254 . S
C90 O104 1.236 . S
C90 O105 1.266 . S
C91 Tb81 2.809 . S
C91 C92 1.514 . S
C91 O106 1.248 . S
C91 O107 1.266 . S
C92 C91 1.514 . S
C92 C93 1.359 1_565 S
C92 C97 1.348 . S
C93 C92 1.359 1_545 S
C93 C94 1.380 . S
C93 H116 0.929 . S
C94 C93 1.380 . S
C94 C95 1.347 . S
C94 H117 0.931 . S
C95 C94 1.347 . S
C95 C96 1.369 1_545 S
C96 C95 1.369 1_565 S
C96 C97 1.408 . S
C96 H118 0.930 . S
C97 C92 1.348 . S
C97 C96 1.408 . S
C97 H119 0.930 . S
C98 O108 1.281 . S
C98 O109 1.254 . S
C99 O110 1.236 . S
C99 O111 1.266 . S
O100 Tb80 2.484 . S
O100 C82 1.248 . S
O101 Tb80 2.440 . S
O101 C82 1.266 . S
O102 Tb80 2.658 . S
O102 Tb81 2.325 . S
O102 C89 1.281 . S
O103 Tb80 2.409 . S
O103 C89 1.254 . S
O104 Tb80 2.378 . S
O104 C90 1.236 . S
O105 Tb81 2.341 . S
O105 C90 1.266 . S
O106 Tb81 2.484 . S
O106 C91 1.248 . S
O107 Tb81 2.440 . S
O107 C91 1.266 . S
O108 Tb80 2.325 . S
O108 Tb81 2.658 . S
O108 C98 1.281 . S
O109 Tb81 2.409 . S
O109 C98 1.254 . S
O110 Tb81 2.378 . S
O110 C99 1.236 . S
O111 Tb80 2.341 . S
O111 C99 1.266 . S
H112 C84 0.929 . S
H113 C85 0.931 . S
H114 C87 0.930 . S
H115 C88 0.930 . S
H116 C93 0.929 . S
H117 C94 0.931 . S
H118 C96 0.930 . S
H119 C97 0.930 . S
Tb120 C122 2.809 . S
Tb120 O140 2.484 . S
Tb120 O141 2.440 . S
Tb120 O142 2.658 . S
Tb120 O143 2.409 . S
Tb120 O144 2.378 . S
Tb120 O148 2.325 . S
Tb120 O151 2.341 . S
Tb121 C131 2.809 1_554 S
Tb121 O142 2.325 . S
Tb121 O145 2.341 . S
Tb121 O146 2.484 1_554 S
Tb121 O147 2.440 1_554 S
Tb121 O148 2.658 . S
Tb121 O149 2.409 . S
Tb121 O150 2.378 1_554 S
C122 Tb120 2.809 . S
C122 C123 1.514 . S
C122 O140 1.248 . S
C122 O141 1.266 . S
C123 C122 1.514 . S
C123 C124 1.359 . S
C123 C128 1.348 . S
C124 C123 1.359 . S
C124 C125 1.380 . S
C124 H152 0.929 . S
C125 C124 1.380 . S
C125 C126 1.347 . S
C125 H153 0.931 . S
C126 C125 1.347 . S
C126 C127 1.369 . S
C127 C126 1.369 . S
C127 C128 1.408 . S
C127 H154 0.930 . S
C128 C123 1.348 . S
C128 C127 1.408 . S
C128 H155 0.930 . S
C129 O142 1.281 . S
C129 O143 1.254 . S
C130 O144 1.236 . S
C130 O145 1.266 . S
C131 Tb121 2.809 1_556 S
C131 C132 1.514 . S
C131 O146 1.248 . S
C131 O147 1.266 . S
C132 C131 1.514 . S
C132 C133 1.359 . S
C132 C137 1.348 . S
C133 C132 1.359 . S
C133 C134 1.380 . S
C133 H156 0.929 . S
C134 C133 1.380 . S
C134 C135 1.347 . S
C134 H157 0.931 . S
C135 C134 1.347 . S
C135 C136 1.369 . S
C136 C135 1.369 . S
C136 C137 1.408 . S
C136 H158 0.930 . S
C137 C132 1.348 . S
C137 C136 1.408 . S
C137 H159 0.930 . S
C138 O148 1.281 . S
C138 O149 1.254 . S
C139 O150 1.236 . S
C139 O151 1.266 1_556 S
O140 Tb120 2.484 . S
O140 C122 1.248 . S
O141 Tb120 2.440 . S
O141 C122 1.266 . S
O142 Tb120 2.658 . S
O142 Tb121 2.325 . S
O142 C129 1.281 . S
O143 Tb120 2.409 . S
O143 C129 1.254 . S
O144 Tb120 2.378 . S
O144 C130 1.236 . S
O145 Tb121 2.341 . S
O145 C130 1.266 . S
O146 Tb121 2.484 1_556 S
O146 C131 1.248 . S
O147 Tb121 2.440 1_556 S
O147 C131 1.266 . S
O148 Tb120 2.325 . S
O148 Tb121 2.658 . S
O148 C138 1.281 . S
O149 Tb121 2.409 . S
O149 C138 1.254 . S
O150 Tb121 2.378 1_556 S
O150 C139 1.236 . S
O151 Tb120 2.341 . S
O151 C139 1.266 1_554 S
H152 C124 0.929 . S
H153 C125 0.931 . S
H154 C127 0.930 . S
H155 C128 0.930 . S
H156 C133 0.929 . S
H157 C134 0.931 . S
H158 C136 0.930 . S
H159 C137 0.930 . S
Tb160 C162 2.809 . S
Tb160 O180 2.484 . S
Tb160 O181 2.440 . S
Tb160 O182 2.658 . S
Tb160 O183 2.409 . S
Tb160 O184 2.378 . S
Tb160 O188 2.325 . S
Tb160 O191 2.341 . S
Tb161 C171 2.809 . S
Tb161 O182 2.325 . S
Tb161 O185 2.341 . S
Tb161 O186 2.484 . S
Tb161 O187 2.440 . S
Tb161 O188 2.658 . S
Tb161 O189 2.409 . S
Tb161 O190 2.378 . S
C162 Tb160 2.809 . S
C162 C163 1.514 . S
C162 O180 1.248 . S
C162 O181 1.266 . S
C163 C162 1.514 . S
C163 C164 1.359 . S
C163 C168 1.348 . S
C164 C163 1.359 . S
C164 C165 1.380 . S
C164 H192 0.929 . S
C165 C164 1.380 . S
C165 C166 1.347 . S
C165 H193 0.931 . S
C166 C165 1.347 . S
C166 C167 1.369 . S
C167 C166 1.369 . S
C167 C168 1.408 . S
C167 H194 0.930 . S
C168 C163 1.348 . S
C168 C167 1.408 . S
C168 H195 0.930 . S
C169 O182 1.281 . S
C169 O183 1.254 . S
C170 O184 1.236 . S
C170 O185 1.266 . S
C171 Tb161 2.809 . S
C171 C172 1.514 . S
C171 O186 1.248 . S
C171 O187 1.266 . S
C172 C171 1.514 . S
C172 C173 1.359 1_455 S
C172 C177 1.348 . S
C173 C172 1.359 1_655 S
C173 C174 1.380 . S
C173 H196 0.929 . S
C174 C173 1.380 . S
C174 C175 1.347 . S
C174 H197 0.931 . S
C175 C174 1.347 . S
C175 C176 1.369 1_655 S
C176 C175 1.369 1_455 S
C176 C177 1.408 . S
C176 H198 0.930 . S
C177 C172 1.348 . S
C177 C176 1.408 . S
C177 H199 0.930 . S
C178 O188 1.281 . S
C178 O189 1.254 . S
C179 O190 1.236 . S
C179 O191 1.266 . S
O180 Tb160 2.484 . S
O180 C162 1.248 . S
O181 Tb160 2.440 . S
O181 C162 1.266 . S
O182 Tb160 2.658 . S
O182 Tb161 2.325 . S
O182 C169 1.281 . S
O183 Tb160 2.409 . S
O183 C169 1.254 . S
O184 Tb160 2.378 . S
O184 C170 1.236 . S
O185 Tb161 2.341 . S
O185 C170 1.266 . S
O186 Tb161 2.484 . S
O186 C171 1.248 . S
O187 Tb161 2.440 . S
O187 C171 1.266 . S
O188 Tb160 2.325 . S
O188 Tb161 2.658 . S
O188 C178 1.281 . S
O189 Tb161 2.409 . S
O189 C178 1.254 . S
O190 Tb161 2.378 . S
O190 C179 1.236 . S
O191 Tb160 2.341 . S
O191 C179 1.266 . S
H192 C164 0.929 . S
H193 C165 0.931 . S
H194 C167 0.930 . S
H195 C168 0.930 . S
H196 C173 0.929 . S
H197 C174 0.931 . S
H198 C176 0.930 . S
H199 C177 0.930 . S
Tb200 C202 2.809 . S
Tb200 O220 2.484 . S
Tb200 O221 2.440 . S
Tb200 O222 2.658 . S
Tb200 O223 2.409 . S
Tb200 O224 2.378 . S
Tb200 O228 2.325 . S
Tb200 O231 2.341 . S
Tb201 C211 2.809 . S
Tb201 O222 2.325 . S
Tb201 O225 2.341 . S
Tb201 O226 2.484 . S
Tb201 O227 2.440 . S
Tb201 O228 2.658 . S
Tb201 O229 2.409 . S
Tb201 O230 2.378 . S
C202 Tb200 2.809 . S
C202 C203 1.514 . S
C202 O220 1.248 . S
C202 O221 1.266 . S
C203 C202 1.514 . S
C203 C204 1.359 . S
C203 C208 1.348 . S
C204 C203 1.359 . S
C204 C205 1.380 . S
C204 H232 0.929 . S
C205 C204 1.380 . S
C205 C206 1.347 . S
C205 H233 0.931 . S
C206 C205 1.347 . S
C206 C207 1.369 . S
C207 C206 1.369 . S
C207 C208 1.408 . S
C207 H234 0.930 . S
C208 C203 1.348 . S
C208 C207 1.408 . S
C208 H235 0.930 . S
C209 O222 1.281 . S
C209 O223 1.254 . S
C210 O224 1.236 . S
C210 O225 1.266 . S
C211 Tb201 2.809 . S
C211 C212 1.514 . S
C211 O226 1.248 . S
C211 O227 1.266 . S
C212 C211 1.514 . S
C212 C213 1.359 1_545 S
C212 C217 1.348 . S
C213 C212 1.359 1_565 S
C213 C214 1.380 . S
C213 H236 0.929 . S
C214 C213 1.380 . S
C214 C215 1.347 . S
C214 H237 0.931 . S
C215 C214 1.347 . S
C215 C216 1.369 1_565 S
C216 C215 1.369 1_545 S
C216 C217 1.408 . S
C216 H238 0.930 . S
C217 C212 1.348 . S
C217 C216 1.408 . S
C217 H239 0.930 . S
C218 O228 1.281 . S
C218 O229 1.254 . S
C219 O230 1.236 . S
C219 O231 1.266 . S
O220 Tb200 2.484 . S
O220 C202 1.248 . S
O221 Tb200 2.440 . S
O221 C202 1.266 . S
O222 Tb200 2.658 . S
O222 Tb201 2.325 . S
O222 C209 1.281 . S
O223 Tb200 2.409 . S
O223 C209 1.254 . S
O224 Tb200 2.378 . S
O224 C210 1.236 . S
O225 Tb201 2.341 . S
O225 C210 1.266 . S
O226 Tb201 2.484 . S
O226 C211 1.248 . S
O227 Tb201 2.440 . S
O227 C211 1.266 . S
O228 Tb200 2.325 . S
O228 Tb201 2.658 . S
O228 C218 1.281 . S
O229 Tb201 2.409 . S
O229 C218 1.254 . S
O230 Tb201 2.378 . S
O230 C219 1.236 . S
O231 Tb200 2.341 . S
O231 C219 1.266 . S
H232 C204 0.929 . S
H233 C205 0.931 . S
H234 C207 0.930 . S
H235 C208 0.930 . S
H236 C213 0.929 . S
H237 C214 0.931 . S
H238 C216 0.930 . S
H239 C217 0.930 . S
C240 C241 1.387 . S
C240 H244 0.950 . S
C240 C249 1.390 . S
C241 C240 1.387 . S
C241 C243 1.387 . S
H242 C249 0.950 . S
C243 C241 1.387 . S
C243 C245 1.390 . S
C243 H247 0.950 . S
H244 C240 0.950 . S
C245 C243 1.390 . S
C245 C246 1.387 . S
C245 H248 0.950 . S
C246 C245 1.387 . S
C246 C249 1.387 . S
H247 C243 0.950 . S
H248 C245 0.950 . S
C249 C240 1.390 . S
C249 H242 0.950 . S
C249 C246 1.387 . S
C250 C251 1.387 . S
C250 H254 0.950 . S
C250 C259 1.390 . S
C251 C250 1.387 . S
C251 C253 1.387 . S
H252 C259 0.950 . S
C253 C251 1.387 . S
C253 C255 1.390 . S
C253 H257 0.950 . S
H254 C250 0.950 . S
C255 C253 1.390 . S
C255 C256 1.387 . S
C255 H258 0.950 . S
C256 C255 1.387 . S
C256 C259 1.387 . S
H257 C253 0.950 . S
H258 C255 0.950 . S
C259 C250 1.390 . S
C259 H252 0.950 . S
C259 C256 1.387 . S
C260 C261 1.387 . S
C260 H264 0.950 . S
C260 C269 1.390 . S
C261 C260 1.387 . S
C261 C263 1.387 . S
H262 C269 0.950 . S
C263 C261 1.387 . S
C263 C265 1.390 . S
C263 H267 0.950 . S
H264 C260 0.950 . S
C265 C263 1.390 . S
C265 C266 1.387 . S
C265 H268 0.950 . S
C266 C265 1.387 . S
C266 C269 1.387 . S
H267 C263 0.950 . S
H268 C265 0.950 . S
C269 C260 1.390 . S
C269 H262 0.950 . S
C269 C266 1.387 . S
C270 C271 1.387 . S
C270 H274 0.950 . S
C270 C279 1.390 . S
C271 C270 1.387 . S
C271 C273 1.387 . S
H272 C279 0.950 . S
C273 C271 1.387 . S
C273 C275 1.390 . S
C273 H277 0.950 . S
H274 C270 0.950 . S
C275 C273 1.390 . S
C275 C276 1.387 . S
C275 H278 0.950 . S
C276 C275 1.387 . S
C276 C279 1.387 . S
H277 C273 0.950 . S
H278 C275 0.950 . S
C279 C270 1.390 . S
C279 H272 0.950 . S
C279 C276 1.387 . S
C280 C281 1.387 . S
C280 H284 0.950 . S
C280 C289 1.390 . S
C281 C280 1.387 . S
C281 C283 1.387 . S
H282 C289 0.950 . S
C283 C281 1.387 . S
C283 C285 1.390 . S
C283 H287 0.950 . S
H284 C280 0.950 . S
C285 C283 1.390 . S
C285 C286 1.387 . S
C285 H288 0.950 . S
C286 C285 1.387 . S
C286 C289 1.387 . S
H287 C283 0.950 . S
H288 C285 0.950 . S
C289 C280 1.390 . S
C289 H282 0.950 . S
C289 C286 1.387 . S
C290 C291 1.387 . S
C290 H294 0.950 . S
C290 C299 1.390 . S
C291 C290 1.387 . S
C291 C293 1.387 . S
H292 C299 0.950 . S
C293 C291 1.387 . S
C293 C295 1.390 . S
C293 H297 0.950 . S
H294 C290 0.950 . S
C295 C293 1.390 . S
C295 C296 1.387 . S
C295 H298 0.950 . S
C296 C295 1.387 . S
C296 C299 1.387 . S
H297 C293 0.950 . S
H298 C295 0.950 . S
C299 C290 1.390 . S
C299 H292 0.950 . S
C299 C296 1.387 . S
C300 C301 1.387 . S
C300 H304 0.950 . S
C300 C309 1.390 . S
C301 C300 1.387 . S
C301 C303 1.387 . S
H302 C309 0.950 . S
C303 C301 1.387 . S
C303 C305 1.390 . S
C303 H307 0.950 . S
H304 C300 0.950 . S
C305 C303 1.390 . S
C305 C306 1.387 . S
C305 H308 0.950 . S
C306 C305 1.387 . S
C306 C309 1.387 . S
H307 C303 0.950 . S
H308 C305 0.950 . S
C309 C300 1.390 . S
C309 H302 0.950 . S
C309 C306 1.387 . S
C310 C311 1.387 . S
C310 H314 0.950 . S
C310 C319 1.390 1_455 S
C311 C310 1.387 . S
C311 C313 1.387 . S
H312 C319 0.950 . S
C313 C311 1.387 . S
C313 C315 1.390 1_455 S
C313 H317 0.950 . S
H314 C310 0.950 . S
C315 C313 1.390 1_655 S
C315 C316 1.387 . S
C315 H318 0.950 . S
C316 C315 1.387 . S
C316 C319 1.387 . S
H317 C313 0.950 . S
H318 C315 0.950 . S
C319 C310 1.390 1_655 S
C319 H312 0.950 . S
C319 C316 1.387 . S
C320 C321 1.387 . S
C320 H324 0.950 . S
C320 C329 1.390 1_545 S
C321 C320 1.387 . S
C321 C323 1.387 . S
H322 C329 0.950 . S
C323 C321 1.387 . S
C323 C325 1.390 1_545 S
C323 H327 0.950 . S
H324 C320 0.950 . S
C325 C323 1.390 1_565 S
C325 C326 1.387 . S
C325 H328 0.950 . S
C326 C325 1.387 . S
C326 C329 1.387 . S
H327 C323 0.950 . S
H328 C325 0.950 . S
C329 C320 1.390 1_565 S
C329 H322 0.950 . S
C329 C326 1.387 . S
C330 C331 1.387 . S
C330 H334 0.950 . S
C330 C339 1.390 . S
C331 C330 1.387 . S
C331 C333 1.387 . S
H332 C339 0.950 . S
C333 C331 1.387 . S
C333 C335 1.390 . S
C333 H337 0.950 . S
H334 C330 0.950 . S
C335 C333 1.390 . S
C335 C336 1.387 . S
C335 H338 0.950 . S
C336 C335 1.387 . S
C336 C339 1.387 . S
H337 C333 0.950 . S
H338 C335 0.950 . S
C339 C330 1.390 . S
C339 H332 0.950 . S
C339 C336 1.387 . S
C340 C341 1.387 . S
C340 H344 0.950 1_554 S
C340 C349 1.390 1_455 S
C341 C340 1.387 . S
C341 C343 1.387 . S
H342 C349 0.950 1_556 S
C343 C341 1.387 . S
C343 C345 1.390 1_455 S
C343 H347 0.950 . S
H344 C340 0.950 1_556 S
C345 C343 1.390 1_655 S
C345 C346 1.387 . S
C345 H348 0.950 . S
C346 C345 1.387 . S
C346 C349 1.387 . S
H347 C343 0.950 . S
H348 C345 0.950 . S
C349 C340 1.390 1_655 S
C349 H342 0.950 1_554 S
C349 C346 1.387 . S
C350 C351 1.387 . S
C350 H354 0.950 . S
C350 C359 1.390 1_565 S
C351 C350 1.387 . S
C351 C353 1.387 . S
H352 C359 0.950 . S
C353 C351 1.387 . S
C353 C355 1.390 1_565 S
C353 H357 0.950 . S
H354 C350 0.950 . S
C355 C353 1.390 1_545 S
C355 C356 1.387 . S
C355 H358 0.950 . S
C356 C355 1.387 . S
C356 C359 1.387 . S
H357 C353 0.950 . S
H358 C355 0.950 . S
C359 C350 1.390 1_545 S
C359 H352 0.950 . S
C359 C356 1.387 . S
C360 C361 1.387 . S
C360 H364 0.950 . S
C360 C369 1.390 . S
C361 C360 1.387 . S
C361 C363 1.387 . S
H362 C369 0.950 . S
C363 C361 1.387 . S
C363 C365 1.390 . S
C363 H367 0.950 . S
H364 C360 0.950 . S
C365 C363 1.390 . S
C365 C366 1.387 . S
C365 H368 0.950 . S
C366 C365 1.387 . S
C366 C369 1.387 . S
H367 C363 0.950 . S
H368 C365 0.950 . S
C369 C360 1.390 . S
C369 H362 0.950 . S
C369 C366 1.387 . S
C370 C371 1.387 . S
C370 H374 0.950 . S
C370 C379 1.390 . S
C371 C370 1.387 . S
C371 C373 1.387 . S
H372 C379 0.950 . S
C373 C371 1.387 . S
C373 C375 1.390 . S
C373 H377 0.950 1_455 S
H374 C370 0.950 . S
C375 C373 1.390 . S
C375 C376 1.387 . S
C375 H378 0.950 . S
C376 C375 1.387 . S
C376 C379 1.387 . S
H377 C373 0.950 1_655 S
H378 C375 0.950 . S
C379 C370 1.390 . S
C379 H372 0.950 . S
C379 C376 1.387 . S
C380 C381 1.387 . S
C380 H384 0.950 . S
C380 C389 1.390 . S
C381 C380 1.387 . S
C381 C383 1.387 . S
H382 C389 0.950 . S
C383 C381 1.387 . S
C383 C385 1.390 . S
C383 H387 0.950 1_545 S
H384 C380 0.950 . S
C385 C383 1.390 . S
C385 C386 1.387 . S
C385 H388 0.950 1_545 S
C386 C385 1.387 . S
C386 C389 1.387 . S
H387 C383 0.950 1_565 S
H388 C385 0.950 1_565 S
C389 C380 1.390 . S
C389 H382 0.950 . S
C389 C386 1.387 . S
C390 C391 1.387 . S
C390 H394 0.950 . S
C390 C399 1.390 . S
C391 C390 1.387 . S
C391 C393 1.387 . S
H392 C399 0.950 . S
C393 C391 1.387 . S
C393 C395 1.390 . S
C393 H397 0.950 . S
H394 C390 0.950 . S
C395 C393 1.390 . S
C395 C396 1.387 . S
C395 H398 0.950 . S
C396 C395 1.387 . S
C396 C399 1.387 . S
H397 C393 0.950 . S
H398 C395 0.950 . S
C399 C390 1.390 . S
C399 H392 0.950 . S
C399 C396 1.387 . S
C400 C401 1.387 . S
C400 H404 0.950 . S
C400 C409 1.390 . S
C401 C400 1.387 . S
C401 C403 1.387 . S
H402 C409 0.950 . S
C403 C401 1.387 . S
C403 C405 1.390 . S
C403 H407 0.950 . S
H404 C400 0.950 . S
C405 C403 1.390 . S
C405 C406 1.387 . S
C405 H408 0.950 . S
C406 C405 1.387 . S
C406 C409 1.387 . S
H407 C403 0.950 . S
H408 C405 0.950 . S
C409 C400 1.390 . S
C409 H402 0.950 . S
C409 C406 1.387 . S
C410 C411 1.387 . S
C410 H414 0.950 1_565 S
C410 C419 1.390 . S
C411 C410 1.387 . S
C411 C413 1.387 . S
H412 C419 0.950 . S
C413 C411 1.387 . S
C413 C415 1.390 . S
C413 H417 0.950 . S
H414 C410 0.950 1_545 S
C415 C413 1.390 . S
C415 C416 1.387 . S
C415 H418 0.950 . S
C416 C415 1.387 . S
C416 C419 1.387 . S
H417 C413 0.950 . S
H418 C415 0.950 . S
C419 C410 1.390 . S
C419 H412 0.950 . S
C419 C416 1.387 . S
C241 C179 1.243 . S
C246 C6 1.249 . S
C251 C219 1.241 . S
C256 C46 1.247 . S
C261 C19 1.241 . S
C266 C86 1.248 . S
C271 C59 1.241 . S
C276 C126 1.248 . S
C281 C99 1.241 . S
C286 C166 1.247 . S
C291 C139 1.242 . S
C296 C206 1.248 . S
C301 C9 1.156 . S
C306 C129 1.156 . S
C311 C169 1.148 . S
C316 C49 1.148 . S
C321 C209 1.149 . S
C326 C89 1.149 . S
C331 C98 1.453 . S
C336 C218 1.453 . S
C341 C18 1.452 . S
C346 C138 1.452 . S
C351 C178 1.453 . S
C356 C58 1.453 . S
C361 C210 1.383 . S
C366 C15 1.341 . S
C371 C55 1.342 . S
C376 C10 1.384 . S
C381 C95 1.341 . S
C386 C50 1.383 . S
C391 C90 1.385 . S
C396 C135 1.343 . S
C401 C175 1.342 . S
C406 C130 1.383 . S
C411 C215 1.344 . S
C416 C170 1.384 . S
