# Generated by pormake.
# Topology ske, (6)-cn, num edge types: 1
# Building blocks:
#     Node 0, Type 0, BuildingBlock: KUMBOL_clean_sbu_0, # of connection points: 6
#     Node 1, Type 0, BuildingBlock: KUMBOL_clean_sbu_0, # of connection points: 6
#     Node 2, Type 0, BuildingBlock: KUMBOL_clean_sbu_0, # of connection points: 6
#     Node 3, Type 0, BuildingBlock: KUMBOL_clean_sbu_0, # of connection points: 6
#     Node 4, Type 0, BuildingBlock: KUMBOL_clean_sbu_0, # of connection points: 6
#     Node 5, Type 0, BuildingBlock: KUMBOL_clean_sbu_0, # of connection points: 6
#     Node 6, Type 0, BuildingBlock: KUMBOL_clean_sbu_0, # of connection points: 6
#     Node 7, Type 0, BuildingBlock: KUMBOL_clean_sbu_0, # of connection points: 6
#     Edge 8, Type (0, 0), BuildingBlock: XIVTED_clean_linker_0, # of connection points: 2
#     Edge 9, Type (0, 0), BuildingBlock: XIVTED_clean_linker_0, # of connection points: 2
#     Edge 10, Type (0, 0), BuildingBlock: XIVTED_clean_linker_0, # of connection points: 2
#     Edge 11, Type (0, 0), BuildingBlock: XIVTED_clean_linker_0, # of connection points: 2
#     Edge 12, Type (0, 0), BuildingBlock: XIVTED_clean_linker_0, # of connection points: 2
#     Edge 13, Type (0, 0), BuildingBlock: XIVTED_clean_linker_0, # of connection points: 2
#     Edge 14, Type (0, 0), BuildingBlock: XIVTED_clean_linker_0, # of connection points: 2
#     Edge 15, Type (0, 0), BuildingBlock: XIVTED_clean_linker_0, # of connection points: 2
#     Edge 16, Type (0, 0), BuildingBlock: XIVTED_clean_linker_0, # of connection points: 2
#     Edge 17, Type (0, 0), BuildingBlock: XIVTED_clean_linker_0, # of connection points: 2
#     Edge 18, Type (0, 0), BuildingBlock: XIVTED_clean_linker_0, # of connection points: 2
#     Edge 19, Type (0, 0), BuildingBlock: XIVTED_clean_linker_0, # of connection points: 2
#     Edge 20, Type (0, 0), BuildingBlock: XIVTED_clean_linker_0, # of connection points: 2
#     Edge 21, Type (0, 0), BuildingBlock: XIVTED_clean_linker_0, # of connection points: 2
#     Edge 22, Type (0, 0), BuildingBlock: XIVTED_clean_linker_0, # of connection points: 2
#     Edge 23, Type (0, 0), BuildingBlock: XIVTED_clean_linker_0, # of connection points: 2
#     Edge 24, Type (0, 0), BuildingBlock: XIVTED_clean_linker_0, # of connection points: 2
#     Edge 25, Type (0, 0), BuildingBlock: XIVTED_clean_linker_0, # of connection points: 2
#     Edge 26, Type (0, 0), BuildingBlock: XIVTED_clean_linker_0, # of connection points: 2
#     Edge 27, Type (0, 0), BuildingBlock: XIVTED_clean_linker_0, # of connection points: 2
#     Edge 28, Type (0, 0), BuildingBlock: XIVTED_clean_linker_0, # of connection points: 2
#     Edge 29, Type (0, 0), BuildingBlock: XIVTED_clean_linker_0, # of connection points: 2
#     Edge 30, Type (0, 0), BuildingBlock: XIVTED_clean_linker_0, # of connection points: 2
#     Edge 31, Type (0, 0), BuildingBlock: XIVTED_clean_linker_0, # of connection points: 2
# Relax obj value: 0.115
# Max RMSD: 0.191
# Mean RMSD: 0.185
data_MOF--net-ske--node1-KUMBOL_clean_sbu_0--edge1-XIVTED_clean_linker_0
_symmetry_space_group_name_H-M    P1
_symmetry_Int_Tables_number       1
_symmetry_cell_setting            triclinic
loop_
_symmetry_equiv_pos_as_xyz
'x, y, z'
_cell_length_a     98.422434
_cell_length_b     30.660505
_cell_length_c     14.511996
_cell_angle_alpha  90.175554
_cell_angle_beta   89.666815
_cell_angle_gamma 115.95433
loop_
_atom_site_label
_atom_site_type_symbol
_atom_site_fract_x
_atom_site_fract_y
_atom_site_fract_z
_atom_type_partial_charge
Gd0 Gd 0.14999 0.25866 0.56081 0.0
Gd1 Gd 0.10866 0.20627 0.59047 0.0
C2 C 0.09686 0.22403 0.89033 0.0
C3 C 0.08667 0.14162 0.94809 0.0
C4 C 0.09542 0.1592 0.78884 0.0
C5 C 0.09936 0.20787 0.80326 0.0
C6 C 0.08871 0.12542 0.86089 0.0
C7 C 0.09072 0.19081 0.96274 0.0
C8 C 0.10057 0.27317 0.90226 0.0
C9 C 0.10638 0.30481 0.82822 0.0
N10 N 0.10562 0.23948 0.73257 0.0
C11 C 0.10872 0.28729 0.74355 0.0
H12 H 0.11282 0.31256 0.68769 0.0
C13 C 0.09126 0.0958 0.68399 0.0
N14 N 0.0975 0.14451 0.70368 0.0
C15 C 0.0848 0.06117 0.75325 0.0
C16 C 0.08379 0.07609 0.84263 0.0
H17 H 0.0908 0.08301 0.61413 0.0
H18 H 0.08891 0.20273 0.03012 0.0
H19 H 0.14654 0.15875 0.44226 0.0
H20 H 0.09883 0.28691 0.96795 0.0
H21 H 0.10904 0.34281 0.83615 0.0
H22 H 0.0817 0.11623 1.0042 0.0
H23 H 0.17098 0.37981 0.56974 0.0
H24 H 0.16165 0.19962 0.16655 0.0
H25 H 0.15094 0.13673 0.28703 0.0
H26 H 0.18071 0.3723 0.16982 0.0
H27 H 0.08027 0.02292 0.73707 0.0
H28 H 0.0786 0.04914 0.89603 0.0
H29 H 0.1723 0.28733 0.12275 0.0
H30 H 0.18391 0.44823 0.46301 0.0
N31 N 0.15404 0.23388 0.41229 0.0
C32 C 0.15969 0.20968 0.23523 0.0
C33 C 0.15363 0.17413 0.30296 0.0
C34 C 0.16351 0.25798 0.25764 0.0
C35 C 0.16069 0.26917 0.34818 0.0
C36 C 0.15099 0.18693 0.39152 0.0
N37 N 0.16358 0.32622 0.46384 0.0
C38 C 0.16529 0.31682 0.3743 0.0
C39 C 0.17854 0.41151 0.43672 0.0
C40 C 0.17922 0.40261 0.34296 0.0
C41 C 0.17106 0.37264 0.49678 0.0
C42 C 0.17301 0.35474 0.31111 0.0
H43 H 0.18522 0.43271 0.29665 0.0
O44 O 0.17156 0.29785 0.62984 0.0
O45 O 0.13085 0.22717 0.66344 0.0
O46 O 0.11761 0.28479 0.54466 0.0
O47 O 0.1438 0.32095 0.56403 0.0
O48 O 0.14962 0.29023 0.70074 0.0
O49 O 0.16489 0.22428 0.58536 0.0
O50 O 0.08674 0.16062 0.53225 0.0
O51 O 0.12777 0.23708 0.4884 0.0
O52 O 0.14056 0.17845 0.59065 0.0
O53 O 0.11441 0.14365 0.57259 0.0
O54 O 0.10853 0.17704 0.44712 0.0
O55 O 0.09192 0.2343 0.57032 0.0
C56 C 0.13673 0.25746 0.72872 0.0
C57 C 0.17501 0.34369 0.21957 0.0
C58 C 0.17029 0.29535 0.19291 0.0
C59 C 0.17561 0.26292 0.62102 0.0
C60 C 0.19108 0.2765 0.58592 0.0
C61 C 0.19574 0.30066 0.50141 0.0
C62 C 0.20134 0.26554 0.63706 0.0
C63 C 0.21622 0.27926 0.60426 0.0
C64 C 0.21034 0.31402 0.46835 0.0
C65 C 0.22052 0.30353 0.5192 0.0
C66 C 0.13094 0.32317 0.54841 0.0
C67 C 0.12176 0.2085 0.42093 0.0
C68 C 0.08149 0.19262 0.54316 0.0
C69 C 0.06634 0.17534 0.58689 0.0
C70 C 0.061 0.13516 0.64646 0.0
C71 C 0.0568 0.19749 0.5662 0.0
C72 C 0.04198 0.1786 0.60285 0.0
C73 C 0.04649 0.11697 0.68378 0.0
C74 C 0.03699 0.13824 0.66173 0.0
C75 C 0.12725 0.14063 0.5829 0.0
H76 H 0.18813 0.30932 0.46088 0.0
H77 H 0.19781 0.24706 0.70265 0.0
H78 H 0.21378 0.33254 0.40285 0.0
H79 H 0.23173 0.31383 0.49113 0.0
H80 H 0.0679 0.11712 0.66339 0.0
H81 H 0.06072 0.22838 0.52009 0.0
H82 H 0.04253 0.08594 0.7294 0.0
H83 H 0.02574 0.12337 0.69149 0.0
Gd84 Gd 0.85838 0.21676 0.54299 0.0
Gd85 Gd 0.89952 0.28209 0.57622 0.0
C86 C 0.92162 0.34021 0.85366 0.0
C87 C 0.93222 0.42742 0.8308 0.0
C88 C 0.91844 0.37232 0.70717 0.0
C89 C 0.91583 0.33297 0.76328 0.0
C90 C 0.92688 0.42 0.73982 0.0
C91 C 0.92958 0.38762 0.88763 0.0
C92 C 0.91954 0.29962 0.90645 0.0
C93 C 0.91225 0.25336 0.86787 0.0
N94 N 0.90814 0.28763 0.72836 0.0
C95 C 0.90677 0.24805 0.77777 0.0
H96 H 0.90116 0.21213 0.74852 0.0
C97 C 0.91663 0.40158 0.55922 0.0
N98 N 0.91313 0.36393 0.61959 0.0
C99 C 0.92495 0.44948 0.58851 0.0
C100 C 0.92997 0.45877 0.67946 0.0
H101 H 0.91277 0.39474 0.48884 0.0
H102 H 0.93401 0.39388 0.95712 0.0
H103 H 0.85588 0.28742 0.374 0.0
H104 H 0.92377 0.30364 0.97625 0.0
H105 H 0.9108 0.22177 0.90752 0.0
H106 H 0.93863 0.46379 0.85734 0.0
H107 H 0.84458 0.10364 0.62656 0.0
H108 H 0.83521 0.19828 0.14019 0.0
H109 H 0.84684 0.27911 0.21414 0.0
H110 H 0.82174 0.0374 0.25105 0.0
H111 H 0.92746 0.47918 0.54096 0.0
H112 H 0.93642 0.49592 0.70193 0.0
H113 H 0.82609 0.10811 0.15414 0.0
H114 H 0.83095 0.01948 0.57016 0.0
N115 N 0.8498 0.21219 0.39053 0.0
C116 C 0.83916 0.20169 0.21058 0.0
C117 C 0.84568 0.24735 0.25215 0.0
C118 C 0.83745 0.16083 0.2612 0.0
C119 C 0.84285 0.16732 0.35244 0.0
C120 C 0.8508 0.25189 0.34304 0.0
N121 N 0.84495 0.1354 0.49585 0.0
C122 C 0.84037 0.12761 0.4068 0.0
C123 C 0.83356 0.04957 0.52341 0.0
C124 C 0.82931 0.04095 0.43101 0.0
C125 C 0.84125 0.09729 0.5552 0.0
C126 C 0.83249 0.08019 0.37171 0.0
H127 H 0.8233 0.00395 0.40667 0.0
O128 O 0.83895 0.19112 0.63526 0.0
O129 O 0.87695 0.25112 0.64595 0.0
O130 O 0.89068 0.20007 0.58893 0.0
O131 O 0.86892 0.16826 0.49972 0.0
O132 O 0.85915 0.18785 0.6862 0.0
O133 O 0.84302 0.25062 0.54238 0.0
O134 O 0.91745 0.30115 0.47469 0.0
O135 O 0.88096 0.24759 0.47381 0.0
O136 O 0.86743 0.2983 0.52645 0.0
O137 O 0.88924 0.33225 0.61521 0.0
O138 O 0.89888 0.31034 0.43213 0.0
O139 O 0.91678 0.2557 0.58989 0.0
C140 C 0.87179 0.22193 0.71306 0.0
C141 C 0.8277 0.07353 0.27958 0.0
C142 C 0.83017 0.11379 0.22441 0.0
C143 C 0.83381 0.22061 0.60274 0.0
C144 C 0.81757 0.19887 0.57984 0.0
C145 C 0.81188 0.16376 0.51032 0.0
C146 C 0.8076 0.21274 0.62805 0.0
C147 C 0.79201 0.19128 0.60712 0.0
C148 C 0.79657 0.14276 0.48868 0.0
C149 C 0.78669 0.15632 0.5365 0.0
C150 C 0.88052 0.16484 0.53861 0.0
C151 C 0.88614 0.27634 0.40598 0.0
C152 C 0.92458 0.28077 0.51967 0.0
C153 C 0.94102 0.31067 0.53358 0.0
C154 C 0.94699 0.36149 0.53508 0.0
C155 C 0.95093 0.28878 0.54252 0.0
C156 C 0.9667 0.31755 0.55216 0.0
C157 C 0.96245 0.39001 0.54471 0.0
C158 C 0.97224 0.36842 0.55253 0.0
C159 C 0.87771 0.33485 0.57348 0.0
H160 H 0.81925 0.15245 0.4728 0.0
H161 H 0.81194 0.23952 0.68253 0.0
H162 H 0.79233 0.11583 0.43451 0.0
H163 H 0.77488 0.13977 0.51729 0.0
H164 H 0.93979 0.37944 0.52718 0.0
H165 H 0.94635 0.24958 0.54213 0.0
H166 H 0.9669 0.42915 0.54481 0.0
H167 H 0.98422 0.39189 0.55708 0.0
Gd168 Gd 0.11243 0.70519 0.47631 0.0
Gd169 Gd 0.15349 0.76995 0.51193 0.0
C170 C 0.17391 0.82508 0.79517 0.0
C171 C 0.18383 0.91245 0.77725 0.0
C172 C 0.17134 0.85872 0.64925 0.0
C173 C 0.16867 0.81884 0.70357 0.0
C174 C 0.17923 0.90603 0.68475 0.0
C175 C 0.18118 0.87202 0.83238 0.0
C176 C 0.17211 0.78407 0.84562 0.0
C177 C 0.16571 0.73856 0.80345 0.0
N178 N 0.1618 0.77409 0.66497 0.0
C179 C 0.16077 0.73429 0.7122 0.0
H180 H 0.15578 0.69886 0.68079 0.0
C181 C 0.17087 0.8894 0.50058 0.0
N182 N 0.16695 0.85115 0.55984 0.0
C183 C 0.17858 0.93703 0.53273 0.0
C184 C 0.18264 0.94543 0.62547 0.0
H185 H 0.16769 0.8832 0.42895 0.0
H186 H 0.18514 0.87751 0.90292 0.0
H187 H 0.11096 0.77563 0.30419 0.0
H188 H 0.17594 0.78727 0.91628 0.0
H189 H 0.16451 0.70669 0.84128 0.0
H190 H 0.18979 0.94851 0.80608 0.0
H191 H 0.09866 0.5924 0.56329 0.0
H192 H 0.08868 0.68481 0.07507 0.0
H193 H 0.10157 0.76646 0.14475 0.0
H194 H 0.07338 0.52429 0.19327 0.0
H195 H 0.18137 0.96723 0.48601 0.0
H196 H 0.18868 0.98236 0.65009 0.0
H197 H 0.0783 0.59449 0.09361 0.0
H198 H 0.08388 0.50815 0.51061 0.0
N199 N 0.10395 0.70006 0.32382 0.0
C200 C 0.09281 0.68862 0.1451 0.0
C201 C 0.10005 0.73475 0.18423 0.0
C202 C 0.09061 0.64785 0.19771 0.0
C203 C 0.09627 0.65483 0.2884 0.0
C204 C 0.10538 0.73978 0.27463 0.0
N205 N 0.09866 0.62351 0.43229 0.0
C206 C 0.0935 0.61534 0.34439 0.0
C207 C 0.08656 0.53794 0.46305 0.0
C208 C 0.08171 0.52886 0.37175 0.0
C209 C 0.09494 0.58575 0.49266 0.0
C210 C 0.08501 0.56776 0.31139 0.0
H211 H 0.07521 0.49178 0.34904 0.0
O212 O 0.09436 0.686 0.57686 0.0
O213 O 0.13084 0.73943 0.58033 0.0
O214 O 0.14428 0.68832 0.52819 0.0
O215 O 0.12262 0.65469 0.43812 0.0
O216 O 0.11283 0.67636 0.62015 0.0
O217 O 0.09548 0.73286 0.46307 0.0
O218 O 0.17338 0.7962 0.42322 0.0
O219 O 0.1351 0.73612 0.40773 0.0
O220 O 0.12142 0.78712 0.4628 0.0
O221 O 0.14297 0.81884 0.55373 0.0
O222 O 0.15309 0.79904 0.36826 0.0
O223 O 0.16846 0.73466 0.51229 0.0
C224 C 0.12549 0.71026 0.64748 0.0
C225 C 0.07982 0.56058 0.22009 0.0
C226 C 0.08263 0.60055 0.16333 0.0
C227 C 0.08752 0.70762 0.53268 0.0
C228 C 0.07105 0.67906 0.51851 0.0
C229 C 0.06466 0.62817 0.51383 0.0
C230 C 0.06148 0.70234 0.51362 0.0
C231 C 0.04567 0.67481 0.50655 0.0
C232 C 0.04908 0.60096 0.50555 0.0
C233 C 0.03963 0.62399 0.50254 0.0
C234 C 0.13404 0.65186 0.48077 0.0
C235 C 0.14044 0.76531 0.34071 0.0
C236 C 0.17809 0.76546 0.45473 0.0
C237 C 0.19418 0.78567 0.48096 0.0
C238 C 0.19972 0.81978 0.55228 0.0
C239 C 0.20412 0.77079 0.4351 0.0
C240 C 0.21947 0.78968 0.46113 0.0
C241 C 0.21483 0.83862 0.57827 0.0
C242 C 0.22464 0.82376 0.53327 0.0
C243 C 0.13146 0.82231 0.5137 0.0
H244 H 0.07163 0.6092 0.51797 0.0
H245 H 0.06628 0.74156 0.51759 0.0
H246 H 0.04431 0.56179 0.50218 0.0
H247 H 0.02756 0.60203 0.49605 0.0
H248 H 0.1924 0.83202 0.58776 0.0
H249 H 0.19986 0.74424 0.38018 0.0
H250 H 0.21897 0.86507 0.6333 0.0
H251 H 0.23638 0.83967 0.554 0.0
Gd252 Gd 0.903 0.77974 0.46775 0.0
Gd253 Gd 0.86176 0.7286 0.49866 0.0
C254 C 0.84857 0.72923 0.80259 0.0
C255 C 0.83702 0.6435 0.84043 0.0
C256 C 0.84661 0.67041 0.68549 0.0
C257 C 0.85131 0.71806 0.71185 0.0
C258 C 0.8389 0.63247 0.7487 0.0
C259 C 0.84181 0.69184 0.86729 0.0
C260 C 0.85243 0.77754 0.82518 0.0
C261 C 0.85844 0.81311 0.75745 0.0
N262 N 0.85791 0.75337 0.64769 0.0
C263 C 0.86098 0.80032 0.66868 0.0
H264 H 0.86536 0.82851 0.61794 0.0
C265 C 0.84059 0.61467 0.56272 0.0
N266 N 0.84817 0.66104 0.59572 0.0
C267 C 0.83315 0.57578 0.62279 0.0
C268 C 0.83259 0.58463 0.71669 0.0
H269 H 0.84058 0.60753 0.48968 0.0
H270 H 0.83987 0.69985 0.93759 0.0
H271 H 0.89885 0.67229 0.37501 0.0
H272 H 0.85053 0.78759 0.89401 0.0
H273 H 0.86114 0.8505 0.77352 0.0
H274 H 0.83133 0.61488 0.89018 0.0
H275 H 0.92037 0.90299 0.43731 0.0
H276 H 0.91231 0.69467 0.09382 0.0
H277 H 0.90233 0.64034 0.22792 0.0
H278 H 0.92916 0.86466 0.04985 0.0
H279 H 0.82769 0.53909 0.59642 0.0
H280 H 0.82662 0.55451 0.76302 0.0
H281 H 0.9221 0.778 1.0281 0.0
H282 H 0.93043 0.96117 0.31141 0.0
N283 N 0.90579 0.74475 0.32703 0.0
C284 C 0.91065 0.70916 0.15887 0.0
C285 C 0.90495 0.67838 0.23418 0.0
C286 C 0.91435 0.75839 0.16872 0.0
C287 C 0.91195 0.77555 0.25504 0.0
C288 C 0.90273 0.69687 0.31806 0.0
N289 N 0.91375 0.84009 0.3514 0.0
C290 C 0.91582 0.82437 0.26716 0.0
C291 C 0.92603 0.92273 0.2973 0.0
C292 C 0.92705 0.90668 0.20895 0.0
C293 C 0.91978 0.88906 0.36831 0.0
C294 C 0.92233 0.85721 0.19343 0.0
H295 H 0.93209 0.93291 0.15419 0.0
O296 O 0.9249 0.82613 0.52508 0.0
O297 O 0.88397 0.74927 0.57063 0.0
O298 O 0.87142 0.80901 0.46993 0.0
O299 O 0.89756 0.84277 0.48748 0.0
O300 O 0.90342 0.80873 0.61162 0.0
O301 O 0.9201 0.75293 0.48557 0.0
O302 O 0.83995 0.68969 0.43193 0.0
O303 O 0.88082 0.75972 0.39556 0.0
O304 O 0.89389 0.7015 0.5157 0.0
O305 O 0.86777 0.66588 0.49351 0.0
O306 O 0.86193 0.69707 0.3583 0.0
O307 O 0.84714 0.76392 0.47346 0.0
C308 C 0.89015 0.7777 0.63807 0.0
C309 C 0.92433 0.84 0.10716 0.0
C310 C 0.92036 0.79072 0.09487 0.0
C311 C 0.93043 0.79497 0.51204 0.0
C312 C 0.94543 0.81344 0.46581 0.0
C313 C 0.95072 0.85598 0.41265 0.0
C314 C 0.95482 0.7898 0.47715 0.0
C315 C 0.96938 0.80876 0.43614 0.0
C316 C 0.96497 0.87471 0.37188 0.0
C317 C 0.97427 0.85166 0.38388 0.0
C318 C 0.88482 0.84643 0.47799 0.0
C319 C 0.87486 0.72956 0.33022 0.0
C320 C 0.83616 0.72522 0.43988 0.0
C321 C 0.82088 0.71288 0.47696 0.0
C322 C 0.81669 0.69152 0.56418 0.0
C323 C 0.81036 0.72236 0.42536 0.0
C324 C 0.79569 0.70997 0.4606 0.0
C325 C 0.80231 0.67953 0.59963 0.0
C326 C 0.79187 0.68859 0.54846 0.0
C327 C 0.88053 0.66327 0.51072 0.0
H328 H 0.94402 0.87554 0.40372 0.0
H329 H 0.95078 0.75686 0.5177 0.0
H330 H 0.96893 0.90778 0.33188 0.0
H331 H 0.98546 0.8683 0.35355 0.0
H332 H 0.8245 0.68404 0.60504 0.0
H333 H 0.81352 0.73866 0.35768 0.0
H334 H 0.79924 0.66321 0.66726 0.0
H335 H 0.78086 0.67945 0.57842 0.0
Gd336 Gd 0.65113 0.75941 0.07338 0.0
Gd337 Gd 0.60979 0.70696 0.11032 0.0
C338 C 0.59877 0.73255 0.40746 0.0
C339 C 0.58704 0.65088 0.46931 0.0
C340 C 0.59597 0.66472 0.31004 0.0
C341 C 0.60083 0.71418 0.32161 0.0
C342 C 0.58876 0.63254 0.38363 0.0
C343 C 0.59202 0.70075 0.48116 0.0
C344 C 0.60365 0.78247 0.41725 0.0
C345 C 0.6104 0.8129 0.3428 0.0
N346 N 0.60778 0.74442 0.24995 0.0
C347 C 0.61236 0.79332 0.25955 0.0
H348 H 0.61766 0.81821 0.2044 0.0
C349 C 0.59127 0.59887 0.21022 0.0
N350 N 0.59793 0.64788 0.22672 0.0
C351 C 0.5842 0.56576 0.281 0.0
C352 C 0.58318 0.58267 0.36861 0.0
H353 H 0.59102 0.58485 0.14156 0.0
H354 H 0.59052 0.71436 0.54758 0.0
H355 H 0.6498 0.67919 0.90912 0.0
H356 H 0.60229 0.79787 0.48196 0.0
H357 H 0.6142 0.85165 0.34956 0.0
H358 H 0.58168 0.62671 0.52656 0.0
H359 H 0.6724 0.8724 0.14663 0.0
H360 H 0.66941 0.75697 0.66202 0.0
H361 H 0.6569 0.67952 0.74682 0.0
H362 H 0.68988 0.92306 0.75706 0.0
H363 H 0.57928 0.52717 0.26735 0.0
H364 H 0.57758 0.55691 0.42328 0.0
H365 H 0.68126 0.84802 0.66571 0.0
H366 H 0.68864 0.95315 0.08104 0.0
N367 N 0.65772 0.75594 0.91748 0.0
C368 C 0.6663 0.75716 0.73371 0.0
C369 C 0.65929 0.71341 0.78142 0.0
C370 C 0.66977 0.80074 0.78022 0.0
C371 C 0.66543 0.79892 0.87355 0.0
C372 C 0.65526 0.71348 0.87401 0.0
N373 N 0.66725 0.83711 1.0163 0.0
C374 C 0.6703 0.84102 0.92468 0.0
C375 C 0.68347 0.92198 0.03616 0.0
C376 C 0.68586 0.92717 0.94105 0.0
C377 C 0.67434 0.87625 0.07307 0.0
C378 C 0.67959 0.88621 0.88427 0.0
H379 H 0.69305 0.96255 0.91268 0.0
O380 O 0.67078 0.78191 0.16303 0.0
O381 O 0.63226 0.72737 0.17845 0.0
O382 O 0.61831 0.78506 0.06121 0.0
O383 O 0.64475 0.8207 0.0497 0.0
O384 O 0.65117 0.78936 0.21591 0.0
O385 O 0.66497 0.72025 0.07359 0.0
O386 O 0.5884 0.66112 0.04659 0.0
O387 O 0.62849 0.7353 1.006 0.0
O388 O 0.64105 0.67786 0.0623 0.0
O389 O 0.61574 0.64409 0.10869 0.0
O390 O 0.60895 0.67643 0.96665 0.0
O391 O 0.59228 0.73224 0.09607 0.0
C392 C 0.63835 0.75677 0.2446 0.0
C393 C 0.68295 0.8886 0.7897 0.0
C394 C 0.67805 0.84588 0.73771 0.0
C395 C 0.67488 0.74975 0.13098 0.0
C396 C 0.69092 0.76761 0.1034 0.0
C397 C 0.69601 0.79309 1.02056 0.0
C398 C 0.7012 0.75879 0.15872 0.0
C399 C 0.7165 0.77571 0.13124 0.0
C400 C 0.71102 0.80986 0.99302 0.0
C401 C 0.7212 0.80126 0.0476 0.0
C402 C 0.63161 0.82269 0.04666 0.0
C403 C 0.62221 0.70682 0.93882 0.0
C404 C 0.58246 0.69102 0.06249 0.0
C405 C 0.56692 0.67 0.10167 0.0
C406 C 0.56054 0.62316 0.14009 0.0
C407 C 0.55792 0.69531 0.09534 0.0
C408 C 0.54271 0.67344 0.1254 0.0
C409 C 0.54568 0.60214 0.17218 0.0
C410 C 0.53678 0.62688 0.16447 0.0
C411 C 0.62808 0.64057 0.08272 0.0
H412 H 0.68836 0.79969 0.97655 0.0
H413 H 0.69733 0.73918 0.22293 0.0
H414 H 0.71477 0.82927 0.92858 0.0
H415 H 0.73271 0.81387 1.02314 0.0
H416 H 0.56686 0.60207 0.14367 0.0
H417 H 0.56255 0.73105 0.06429 0.0
H418 H 0.54095 0.5661 0.20173 0.0
H419 H 0.5252 0.60954 0.18894 0.0
Gd420 Gd 0.36172 0.72791 0.06967 0.0
Gd421 Gd 0.40306 0.78315 0.10274 0.0
C422 C 0.41557 0.76465 0.3991 0.0
C423 C 0.42789 0.84789 0.45295 0.0
C424 C 0.41812 0.83007 0.29641 0.0
C425 C 0.41313 0.78091 0.31238 0.0
C426 C 0.42589 0.8641 0.36605 0.0
C427 C 0.42274 0.79828 0.46944 0.0
C428 C 0.41073 0.715 0.41288 0.0
C429 C 0.40373 0.6828 0.34125 0.0
N430 N 0.40589 0.74897 0.24373 0.0
C431 C 0.40141 0.70037 0.25697 0.0
H432 H 0.39584 0.67422 0.20417 0.0
C433 C 0.42289 0.89312 0.18986 0.0
N434 N 0.41592 0.84483 0.21204 0.0
C435 C 0.43057 0.9281 0.25653 0.0
C436 C 0.43183 0.91356 0.34562 0.0
H437 H 0.42256 0.9048 0.1201 0.0
H438 H 0.42452 0.78632 0.53657 0.0
H439 H 0.36229 0.80843 0.90908 0.0
H440 H 0.41237 0.70117 0.4784 0.0
H441 H 0.39998 0.64426 0.35107 0.0
H442 H 0.43367 0.87349 0.50738 0.0
H443 H 0.34091 0.61369 0.13933 0.0
H444 H 0.34374 0.73199 0.65962 0.0
H445 H 0.35538 0.8088 0.74719 0.0
H446 H 0.32487 0.56537 0.74809 0.0
H447 H 0.43569 0.96622 0.23873 0.0
H448 H 0.43789 0.94072 0.39714 0.0
H449 H 0.33286 0.64106 0.65974 0.0
H450 H 0.32557 0.53293 0.07089 0.0
N451 N 0.35511 0.73194 0.91456 0.0
C452 C 0.34676 0.73149 0.73115 0.0
C453 C 0.35328 0.77487 0.78043 0.0
C454 C 0.34367 0.68779 0.77591 0.0
C455 C 0.34787 0.6892 0.86912 0.0
C456 C 0.35721 0.7744 0.87278 0.0
N457 N 0.34627 0.65008 1.01014 0.0
C458 C 0.34343 0.64675 0.91845 0.0
C459 C 0.33062 0.56459 1.02708 0.0
C460 C 0.32857 0.56005 0.93178 0.0
C461 C 0.33924 0.6103 0.0656 0.0
C462 C 0.33462 0.6016 0.87647 0.0
H463 H 0.32175 0.52469 0.90218 0.0
O464 O 0.34201 0.70351 0.16019 0.0
O465 O 0.38058 0.76091 0.17298 0.0
O466 O 0.395 0.70445 0.05826 0.0
O467 O 0.36858 0.66764 0.04807 0.0
O468 O 0.36189 0.69858 0.2122 0.0
O469 O 0.34733 0.76526 0.07211 0.0
O470 O 0.42334 0.82653 1.02517 0.0
O471 O 0.38432 0.75297 0.99955 0.0
O472 O 0.37144 0.80945 0.06016 0.0
O473 O 0.39626 0.84414 0.11429 0.0
O474 O 0.40316 0.81502 0.96185 0.0
O475 O 0.42126 0.76067 0.09109 0.0
C476 C 0.37468 0.73165 0.23968 0.0
C477 C 0.33141 0.59976 0.78195 0.0
C478 C 0.33594 0.64285 0.7317 0.0
C479 C 0.33758 0.73501 0.1296 0.0
C480 C 0.32151 0.716 0.10322 0.0
C481 C 0.3161 0.685 1.02716 0.0
C482 C 0.31152 0.72931 0.15275 0.0
C483 C 0.29624 0.71178 0.12574 0.0
C484 C 0.30103 0.66702 1.00096 0.0
C485 C 0.29115 0.68017 0.04973 0.0
C486 C 0.3818 0.66628 0.04543 0.0
C487 C 0.39023 0.78282 0.93363 0.0
C488 C 0.43017 0.79993 0.04695 0.0
C489 C 0.44609 0.82587 0.07842 0.0
C490 C 0.45264 0.87621 0.09399 0.0
C491 C 0.45518 0.80102 0.08755 0.0
C492 C 0.47061 0.8262 0.11208 0.0
C493 C 0.46771 0.90105 0.11969 0.0
C494 C 0.47665 0.87649 0.12828 0.0
C495 C 0.38395 0.84701 0.08599 0.0
H496 H 0.3235 0.67472 0.98766 0.0
H497 H 0.3157 0.75386 0.21078 0.0
H498 H 0.29698 0.64283 0.94242 0.0
H499 H 0.27946 0.66517 1.02823 0.0
H500 H 0.44625 0.89689 0.08448 0.0
H501 H 0.45025 0.7623 0.07491 0.0
H502 H 0.4726 0.93984 0.13111 0.0
H503 H 0.48846 0.89743 0.14502 0.0
Gd504 Gd 0.61039 0.2015 0.9523 0.0
Gd505 Gd 0.65148 0.26512 0.98794 0.0
C506 C 0.67254 0.32136 0.26952 0.0
C507 C 0.68294 0.40871 0.24941 0.0
C508 C 0.66999 0.35446 0.12295 0.0
C509 C 0.66717 0.31479 0.17817 0.0
C510 C 0.67818 0.40192 0.15723 0.0
C511 C 0.68013 0.36849 0.30548 0.0
C512 C 0.67054 0.28046 0.32099 0.0
C513 C 0.66381 0.23468 0.28006 0.0
N514 N 0.65999 0.26983 0.14074 0.0
C515 C 0.65875 0.23007 0.18903 0.0
H516 H 0.6535 0.19442 0.15871 0.0
C517 C 0.66937 0.38447 0.9739 0.0
N518 N 0.6654 0.34651 0.03392 0.0
C519 C 0.67739 0.43223 1.00482 0.0
C520 C 0.68168 0.44104 0.09713 0.0
H521 H 0.66603 0.37807 0.90257 0.0
H522 H 0.68419 0.37424 0.37578 0.0
H523 H 0.6093 0.27329 0.78206 0.0
H524 H 0.67445 0.28393 0.39147 0.0
H525 H 0.66243 0.20286 0.31869 0.0
H526 H 0.68913 0.44489 0.2773 0.0
H527 H 0.59609 0.08832 0.03692 0.0
H528 H 0.58764 0.18439 0.54938 0.0
H529 H 0.60024 0.26543 0.62184 0.0
H530 H 0.57205 0.02293 0.66328 0.0
H531 H 0.68024 0.4622 0.95747 0.0
H532 H 0.68794 0.47806 0.12081 0.0
H533 H 0.57729 0.09392 0.56522 0.0
H534 H 0.58127 0.00437 0.98191 0.0
N535 N 0.60239 0.19763 0.7991 0.0
C536 C 0.59162 0.18763 0.61968 0.0
C537 C 0.5987 0.23342 0.66038 0.0
C538 C 0.58936 0.14645 0.67113 0.0
C539 C 0.59483 0.15268 0.76222 0.0
C540 C 0.60384 0.23772 0.75115 0.0
N541 N 0.59678 0.1202 0.90578 0.0
C542 C 0.59191 0.11274 0.81725 0.0
C543 C 0.58426 0.03449 0.93477 0.0
C544 C 0.57979 0.0261 0.84272 0.0
C545 C 0.59265 0.08205 0.96568 0.0
C546 C 0.58342 0.06544 0.78295 0.0
H547 H 0.57326 0.98922 0.81901 0.0
O548 O 0.59135 0.17908 0.04672 0.0
O549 O 0.6288 0.23509 0.05612 0.0
O550 O 0.64211 0.18378 1.00682 0.0
O551 O 0.62045 0.14986 0.91704 0.0
O552 O 0.61043 0.17331 0.09725 0.0
O553 O 0.59391 0.23106 0.93969 0.0
O554 O 0.67083 0.289 0.89514 0.0
O555 O 0.63304 0.23144 0.88353 0.0
O556 O 0.61942 0.28408 0.94362 0.0
O557 O 0.64136 0.3147 0.03147 0.0
O558 O 0.65096 0.29482 0.84521 0.0
O559 O 0.66651 0.23003 0.9897 0.0
C560 C 0.62326 0.20653 0.12396 0.0
C561 C 0.57848 0.059 0.69113 0.0
C562 C 0.58146 0.09942 0.63529 0.0
C563 C 0.58512 0.20305 1.00388 0.0
C564 C 0.56885 0.1757 0.98129 0.0
C565 C 0.56272 0.12578 0.96269 0.0
C566 C 0.55924 0.19899 0.97994 0.0
C567 C 0.54364 0.17241 0.96042 0.0
C568 C 0.54743 0.09946 0.9432 0.0
C569 C 0.53795 0.12236 0.94249 0.0
C570 C 0.63184 0.14704 0.96032 0.0
C571 C 0.63835 0.26107 0.81716 0.0
C572 C 0.67577 0.25921 0.92855 0.0
C573 C 0.69202 0.28032 0.95102 0.0
C574 C 0.69782 0.31479 1.02154 0.0
C575 C 0.70189 0.26655 0.90138 0.0
C576 C 0.71749 0.28755 0.92185 0.0
C577 C 0.71316 0.33535 0.04267 0.0
C578 C 0.72293 0.32193 0.9934 0.0
C579 C 0.62982 0.31896 0.99371 0.0
H580 H 0.56964 0.10668 0.9645 0.0
H581 H 0.56392 0.23756 0.99372 0.0
H582 H 0.54287 0.06091 0.92972 0.0
H583 H 0.52605 0.10038 0.92967 0.0
H584 H 0.69053 0.32594 0.06026 0.0
H585 H 0.69746 0.24023 0.8462 0.0
H586 H 0.71748 0.3618 0.09759 0.0
H587 H 0.73476 0.33809 1.01223 0.0
Gd588 Gd 0.4006 0.28306 0.94782 0.0
Gd589 Gd 0.35941 0.22074 0.98497 0.0
C590 C 0.33824 0.16469 0.26734 0.0
C591 C 0.32738 0.07731 0.2461 0.0
C592 C 0.34057 0.13152 0.11975 0.0
C593 C 0.34364 0.17121 0.17574 0.0
C594 C 0.33213 0.0841 0.15361 0.0
C595 C 0.33042 0.11756 0.30288 0.0
C596 C 0.34041 0.20568 0.31942 0.0
C597 C 0.34734 0.25151 0.27886 0.0
N598 N 0.35101 0.21618 0.13861 0.0
C599 C 0.35241 0.25605 0.18754 0.0
H600 H 0.3578 0.29172 0.15745 0.0
C601 C 0.34092 0.10163 0.96978 0.0
N602 N 0.34513 0.13948 0.03043 0.0
C603 C 0.33265 0.0539 1.00024 0.0
C604 C 0.32837 0.04504 0.0928 0.0
H605 H 0.34424 0.10812 0.89825 0.0
H606 H 0.32633 0.11184 0.37338 0.0
H607 H 0.40147 0.21113 0.77605 0.0
H608 H 0.33647 0.20225 0.39011 0.0
H609 H 0.34884 0.2834 0.31797 0.0
H610 H 0.321 0.04115 0.27367 0.0
H611 H 0.41534 0.39599 0.03377 0.0
H612 H 0.42367 0.30013 0.54401 0.0
H613 H 0.41066 0.21899 0.61559 0.0
H614 H 0.43973 0.46161 0.65984 0.0
H615 H 0.32959 0.024 0.95236 0.0
H616 H 0.3219 0.00805 0.11613 0.0
H617 H 0.43431 0.39064 0.56083 0.0
H618 H 0.43046 0.47992 0.97947 0.0
N619 N 0.40872 0.28692 0.79426 0.0
C620 C 0.41963 0.29689 0.61445 0.0
C621 C 0.41232 0.25104 0.65464 0.0
C622 C 0.42201 0.33811 0.66648 0.0
C623 C 0.41646 0.33188 0.75774 0.0
C624 C 0.40711 0.24675 0.74559 0.0
N625 N 0.41454 0.3643 0.90197 0.0
C626 C 0.41947 0.3718 0.81327 0.0
C627 C 0.42737 0.44987 0.9319 0.0
C628 C 0.4319 0.45835 0.83968 0.0
C629 C 0.41881 0.40233 0.96241 0.0
C630 C 0.42815 0.41908 0.77937 0.0
H631 H 0.43857 0.49521 0.81629 0.0
O632 O 0.41948 0.3044 0.04204 0.0
O633 O 0.38207 0.24959 0.05192 0.0
O634 O 0.36914 0.30224 1.0047 0.0
O635 O 0.39088 0.33548 0.91418 0.0
O636 O 0.40052 0.31093 0.09331 0.0
O637 O 0.41682 0.25242 0.93436 0.0
O638 O 0.33986 0.19726 0.89485 0.0
O639 O 0.37797 0.25404 0.88049 0.0
O640 O 0.39125 0.20059 0.93706 0.0
O641 O 0.36919 0.16978 1.02513 0.0
O642 O 0.35983 0.19167 0.84101 0.0
O643 O 0.34487 0.25755 0.98754 0.0
C644 C 0.38762 0.27785 0.12003 0.0
C645 C 0.43316 0.42555 0.68739 0.0
C646 C 0.43008 0.38514 0.63102 0.0
C647 C 0.42555 0.27974 0.99916 0.0
C648 C 0.44191 0.30607 0.97755 0.0
C649 C 0.44829 0.35554 0.9546 0.0
C650 C 0.4514 0.28243 0.98258 0.0
C651 C 0.46712 0.3085 0.96675 0.0
C652 C 0.46373 0.38111 0.93738 0.0
C653 C 0.4731 0.35795 0.94375 0.0
C654 C 0.3796 0.33887 0.95854 0.0
C655 C 0.37259 0.22501 0.8134 0.0
C656 C 0.33531 0.22819 0.92818 0.0
C657 C 0.31913 0.20857 0.95339 0.0
C658 C 0.31355 0.17744 1.02913 0.0
C659 C 0.30915 0.22077 0.90202 0.0
C660 C 0.29366 0.20171 0.92641 0.0
C661 C 0.29837 0.15886 0.05412 0.0
C662 C 0.2885 0.17089 1.00354 0.0
C663 C 0.38079 0.16561 0.9869 0.0
H664 H 0.44144 0.37482 0.95104 0.0
H665 H 0.44663 0.24435 1.00085 0.0
H666 H 0.46847 0.41921 0.91965 0.0
H667 H 0.48506 0.3787 0.92984 0.0
H668 H 0.32091 0.16751 0.06922 0.0
H669 H 0.31339 0.24443 0.84279 0.0
H670 H 0.29424 0.13511 0.11323 0.0
H671 H 0.27682 0.15647 1.02582 0.0
H672 H 0.21155 0.195 0.69449 0.0
H673 H 0.29804 0.28937 0.85047 0.0
H674 H 0.24631 0.33818 0.63307 0.0
H675 H 0.26425 0.14144 0.88165 0.0
H676 H 0.27924 0.3088 0.77379 0.0
H677 H 0.23048 0.17614 0.77088 0.0
C678 C 0.22312 0.22264 0.69783 0.0
C679 C 0.22732 0.26817 0.65682 0.0
C680 C 0.27596 0.27206 0.79733 0.0
C681 C 0.24915 0.24667 0.74342 0.0
C682 C 0.28673 0.26085 0.84053 0.0
C683 C 0.28275 0.21375 0.87345 0.0
C684 C 0.26105 0.23597 0.78691 0.0
C685 C 0.26782 0.17849 0.85929 0.0
C686 C 0.23397 0.21173 0.74078 0.0
C687 C 0.24257 0.30235 0.66251 0.0
N688 N 0.25755 0.19035 0.81761 0.0
N689 N 0.25289 0.29092 0.70478 0.0
H690 H 0.74609 0.34732 0.8609 0.0
H691 H 0.76334 0.13153 0.66724 0.0
H692 H 0.71353 0.19686 0.86537 0.0
H693 H 0.79582 0.2821 0.66162 0.0
H694 H 0.74504 0.15471 0.73992 0.0
H695 H 0.76432 0.32418 0.78708 0.0
C696 C 0.74276 0.30934 0.84646 0.0
C697 C 0.72824 0.27395 0.8702 0.0
C698 C 0.75616 0.18273 0.72295 0.0
C699 C 0.74916 0.24715 0.78482 0.0
C700 C 0.76664 0.16955 0.6811 0.0
C701 C 0.78116 0.20494 0.65749 0.0
C702 C 0.76016 0.23177 0.74166 0.0
C703 C 0.78483 0.2535 0.67907 0.0
C704 C 0.75319 0.29618 0.80398 0.0
C705 C 0.72452 0.22544 0.8479 0.0
N706 N 0.77439 0.26547 0.71951 0.0
N707 N 0.73492 0.21347 0.80694 0.0
H708 H 0.27469 0.73493 0.05147 0.0
H709 H 0.24159 0.76971 0.53738 0.0
H710 H 0.29301 0.72069 0.31293 0.0
H711 H 0.22219 0.77685 0.2753 0.0
H712 H 0.26056 0.7523 0.45709 0.0
H713 H 0.25573 0.75173 0.13261 0.0
C714 C 0.27472 0.73523 0.1261 0.0
C715 C 0.28543 0.72589 0.17533 0.0
C716 C 0.25214 0.75753 0.41706 0.0
C717 C 0.26368 0.74559 0.26912 0.0
C718 C 0.24131 0.76762 0.46285 0.0
C719 C 0.23029 0.77509 0.41307 0.0
C720 C 0.25205 0.75496 0.32044 0.0
C721 C 0.23036 0.77102 0.31667 0.0
C722 C 0.26388 0.74498 0.17243 0.0
C723 C 0.28507 0.72792 0.27199 0.0
N724 N 0.2411 0.76151 0.27359 0.0
N725 N 0.27434 0.73734 0.31567 0.0
H726 H 0.71235 0.69254 0.22462 0.0
H727 H 0.79988 0.79094 0.35996 0.0
H728 H 0.74626 0.83732 0.16462 0.0
H729 H 0.7654 0.65069 0.44133 0.0
H730 H 0.78052 0.80742 0.28297 0.0
H731 H 0.73155 0.67619 0.30384 0.0
C732 C 0.72377 0.72108 0.22889 0.0
C733 C 0.72766 0.76628 0.18706 0.0
C734 C 0.77719 0.773 0.31762 0.0
C735 C 0.74982 0.7475 0.27643 0.0
C736 C 0.78828 0.76342 0.36092 0.0
C737 C 0.78429 0.71945 0.40767 0.0
C738 C 0.76198 0.73828 0.3205 0.0
C739 C 0.769 0.68539 0.40739 0.0
C740 C 0.73478 0.71159 0.2735 0.0
C741 C 0.74274 0.80162 0.19414 0.0
N742 N 0.75844 0.69551 0.36472 0.0
N743 N 0.75324 0.79143 0.23737 0.0
H744 H 0.11169 0.85034 0.42863 0.0
H745 H 0.14818 0.1143 0.6536 0.0
H746 H 0.1473 0.897 0.63096 0.0
H747 H 0.10586 0.05712 0.50695 0.0
H748 H 0.14853 0.03546 0.64058 0.0
H749 H 0.10973 0.92657 0.45118 0.0
C750 C 0.11911 0.87655 0.47762 0.0
C751 C 0.12985 0.86758 0.52683 0.0
C752 C 0.13908 0.03999 0.61197 0.0
C753 C 0.12767 0.95462 0.55281 0.0
C754 C 0.1389 0.08501 0.61926 0.0
C755 C 0.12694 0.09215 0.58169 0.0
C756 C 0.12733 0.00198 0.56571 0.0
C757 C 0.1152 0.05296 0.53795 0.0
C758 C 0.11796 0.91997 0.49057 0.0
C759 C 0.13909 0.90271 0.58991 0.0
N760 N 0.11574 0.00956 0.53052 0.0
N761 N 0.13784 0.94475 0.60063 0.0
H762 H 0.85914 0.36025 0.47023 0.0
H763 H 0.90059 0.64033 0.60435 0.0
H764 H 0.89421 0.4164 0.67575 0.0
H765 H 0.85898 0.57612 0.45089 0.0
H766 H 0.89919 0.55936 0.62722 0.0
H767 H 0.8593 0.43967 0.46031 0.0
C768 C 0.86687 0.3892 0.51351 0.0
C769 C 0.87692 0.38185 0.57249 0.0
C770 C 0.89031 0.56303 0.5892 0.0
C771 C 0.8772 0.47314 0.56097 0.0
C772 C 0.89115 0.60919 0.57571 0.0
C773 C 0.87982 0.61484 0.52621 0.0
C774 C 0.87817 0.52244 0.55187 0.0
C775 C 0.86782 0.57335 0.49078 0.0
C776 C 0.86695 0.43463 0.50773 0.0
C777 C 0.88655 0.42075 0.62748 0.0
N778 N 0.86735 0.52893 0.50393 0.0
N779 N 0.88657 0.46491 0.61975 0.0
H780 H 0.90663 0.92914 0.55352 0.0
H781 H 0.86467 0.09123 0.41959 0.0
H782 H 0.86413 0.87446 0.40914 0.0
H783 H 0.90004 0.13544 0.6233 0.0
H784 H 0.8664 0.01513 0.40027 0.0
H785 H 0.90652 0.00865 0.56392 0.0
C786 C 0.89739 0.93403 0.52291 0.0
C787 C 0.8854 0.89526 0.47996 0.0
C788 C 0.87377 0.04138 0.44938 0.0
C789 C 0.88515 0.98573 0.49254 0.0
C790 C 0.87274 0.08485 0.46093 0.0
C791 C 0.882 0.11943 0.52469 0.0
C792 C 0.88428 0.03248 0.50106 0.0
C793 C 0.89258 0.10962 0.57399 0.0
C794 C 0.89728 0.97927 0.52961 0.0
C795 C 0.87357 0.90334 0.44305 0.0
N796 N 0.89341 0.06689 0.56128 0.0
N797 N 0.87375 0.94771 0.45014 0.0
H798 H 0.15244 0.62636 0.5853 0.0
H799 H 0.11067 0.34566 0.4558 0.0
H800 H 0.1174 0.56991 0.37969 0.0
H801 H 0.15243 0.41047 0.60766 0.0
H802 H 0.11205 0.42659 0.43215 0.0
H803 H 0.15207 0.54675 0.59714 0.0
C804 C 0.14467 0.59729 0.54241 0.0
C805 C 0.13469 0.60465 0.48282 0.0
C806 C 0.12096 0.42303 0.47002 0.0
C807 C 0.13417 0.5131 0.49656 0.0
C808 C 0.12014 0.37691 0.48398 0.0
C809 C 0.13153 0.37146 0.53312 0.0
C810 C 0.13315 0.46377 0.50656 0.0
C811 C 0.14355 0.41308 0.56799 0.0
C812 C 0.14447 0.55175 0.5493 0.0
C813 C 0.125 0.56558 0.42839 0.0
N814 N 0.14401 0.45744 0.55436 0.0
N815 N 0.12487 0.52129 0.43719 0.0
H816 H 0.60396 0.55654 0.03002 0.0
H817 H 0.64695 0.39281 0.10882 0.0
H818 H 0.65075 0.61405 0.11013 0.0
H819 H 0.60982 0.34982 0.91786 0.0
H820 H 0.6461 0.46998 0.13071 0.0
H821 H 0.60356 0.47641 1.00907 0.0
C822 C 0.61407 0.55214 0.04432 0.0
C823 C 0.62737 0.59176 0.07269 0.0
C824 C 0.63817 0.4438 0.08368 0.0
C825 C 0.62699 0.5008 0.04859 0.0
C826 C 0.63869 0.39966 0.07055 0.0
C827 C 0.6287 0.36505 1.00937 0.0
C828 C 0.62736 0.45338 0.03695 0.0
C829 C 0.61786 0.37562 0.96483 0.0
C830 C 0.61387 0.50664 0.03144 0.0
C831 C 0.64026 0.58445 0.08815 0.0
N832 N 0.61746 0.41897 0.97955 0.0
N833 N 0.63972 0.5398 0.0765 0.0
H834 H 0.36061 0.86988 0.11749 0.0
H835 H 0.4018 0.13769 0.91535 0.0
H836 H 0.40746 0.93294 0.03436 0.0
H837 H 0.36306 0.08966 0.09709 0.0
H838 H 0.40333 0.06106 0.9439 0.0
H839 H 0.36037 0.94847 0.09517 0.0
C840 C 0.37089 0.90046 0.09522 0.0
C841 C 0.38413 0.89519 0.07887 0.0
C842 C 0.39451 0.06752 0.97721 0.0
C843 C 0.38388 0.98496 0.05166 0.0
C844 C 0.39358 0.1111 0.96076 0.0
C845 C 0.3821 0.11988 1.00244 0.0
C846 C 0.38378 0.03243 0.03492 0.0
C847 C 0.37187 0.08422 0.06142 0.0
C848 C 0.37075 0.94528 0.08264 0.0
C849 C 0.39712 0.93585 0.04969 0.0
N850 N 0.37288 0.04205 0.07526 0.0
N851 N 0.39665 0.97907 0.03618 0.0
H852 H 0.36137 0.36402 0.06689 0.0
H853 H 0.40298 0.64701 0.95272 0.0
H854 H 0.39673 0.42256 0.8617 0.0
H855 H 0.36074 0.57785 0.1004 0.0
H856 H 0.4022 0.56675 0.92482 0.0
H857 H 0.36192 0.44352 0.08411 0.0
C858 C 0.36929 0.39355 1.02532 0.0
C859 C 0.37927 0.38665 0.96417 0.0
C860 C 0.39305 0.56926 0.96253 0.0
C861 C 0.37999 0.47843 0.98407 0.0
C862 C 0.39352 0.61493 0.97882 0.0
C863 C 0.38174 0.61885 1.02744 0.0
C864 C 0.38083 0.52755 0.99659 0.0
C865 C 0.36979 0.57636 0.06016 0.0
C866 C 0.36959 0.43912 0.03529 0.0
C867 C 0.38914 0.42648 0.91163 0.0
N868 N 0.36967 0.53258 0.04444 0.0
N869 N 0.38935 0.47085 0.92334 0.0
H870 H 0.65094 0.12395 0.0629 0.0
H871 H 0.60992 0.84042 0.95881 0.0
H872 H 0.61487 0.0627 0.86479 0.0
H873 H 0.65337 0.91244 0.0898 0.0
H874 H 0.61038 0.91995 0.92929 0.0
H875 H 0.65117 0.04545 0.07746 0.0
C876 C 0.64302 0.09403 1.02237 0.0
C877 C 0.63259 0.09986 0.96414 0.0
C878 C 0.61988 0.91823 0.96352 0.0
C879 C 0.63279 0.00923 0.98102 0.0
C880 C 0.6196 0.87296 0.98075 0.0
C881 C 0.63176 0.86997 1.02561 0.0
C882 C 0.6323 0.96057 0.99292 0.0
C883 C 0.64398 0.91311 0.05281 0.0
C884 C 0.64318 0.04906 0.03075 0.0
C885 C 0.62277 0.05958 0.91269 0.0
N886 N 0.6439 0.95653 0.03654 0.0
N887 N 0.62299 0.01578 0.923 0.0
H888 H 0.13298 0.29587 0.32579 0.0
H889 H 0.12655 0.17107 0.82567 0.0
H890 H 0.11678 0.14212 0.28528 0.0
H891 H 0.14148 0.32446 0.86368 0.0
H892 H 0.12322 0.15983 0.99364 0.0
H893 H 0.13645 0.30763 0.1577 0.0
C894 C 0.13038 0.26469 0.28168 0.0
C895 C 0.12514 0.21809 0.32016 0.0
C896 C 0.12714 0.19598 0.9654 0.0
C897 C 0.12862 0.23097 0.12681 0.0
C898 C 0.12892 0.20228 0.86925 0.0
C899 C 0.13376 0.24855 0.83003 0.0
C900 C 0.13046 0.23633 1.02354 0.0
C901 C 0.13734 0.28797 0.89062 0.0
C902 C 0.13224 0.27131 0.18551 0.0
C903 C 0.12127 0.17881 0.25895 0.0
N904 N 0.13552 0.28099 0.98367 0.0
N905 N 0.12319 0.1861 0.16608 0.0
H906 H 0.87491 0.18834 0.3118 0.0
H907 H 0.88332 0.31001 0.80723 0.0
H908 H 0.8907 0.34173 0.26878 0.0
H909 H 0.86658 0.1563 0.85081 0.0
H910 H 0.88644 0.32266 0.97502 0.0
H911 H 0.87168 0.17566 0.14412 0.0
C912 C 0.87745 0.21928 0.26737 0.0
C913 C 0.88268 0.26608 0.30522 0.0
C914 C 0.88215 0.28613 0.94803 0.0
C915 C 0.87953 0.25209 0.11151 0.0
C916 C 0.8805 0.27898 0.85184 0.0
C917 C 0.87502 0.23207 0.81412 0.0
C918 C 0.87812 0.24608 1.00785 0.0
C919 C 0.87107 0.19317 0.87634 0.0
C920 C 0.87576 0.21212 0.17121 0.0
C921 C 0.88636 0.30491 0.24314 0.0
N922 N 0.87274 0.20098 0.96929 0.0
N923 N 0.88469 0.29711 0.15019 0.0
H924 H 0.14559 0.83232 0.20615 0.0
H925 H 0.12091 0.64336 0.78147 0.0
H926 H 0.12889 0.67813 0.24238 0.0
H927 H 0.13657 0.79718 0.74613 0.0
H928 H 0.12399 0.65535 0.94874 0.0
H929 H 0.14253 0.82025 0.03896 0.0
C930 C 0.1411 0.79574 0.17899 0.0
C931 C 0.13716 0.75615 0.23937 0.0
C932 C 0.12689 0.68665 0.90474 0.0
C933 C 0.13387 0.74193 0.04563 0.0
C934 C 0.12519 0.67985 0.80884 0.0
C935 C 0.12887 0.7194 0.74868 0.0
C936 C 0.13214 0.7335 0.94245 0.0
C937 C 0.13401 0.76569 0.78898 0.0
C938 C 0.13939 0.78889 0.08312 0.0
C939 C 0.13172 0.70971 0.19931 0.0
N940 N 0.13551 0.77141 0.88275 0.0
N941 N 0.13022 0.70395 0.10552 0.0
H942 H 0.8789 0.69045 0.73356 0.0
H943 H 0.88492 0.81573 0.23277 0.0
H944 H 0.8952 0.84429 0.77343 0.0
H945 H 0.87029 0.66242 0.1958 0.0
H946 H 0.88834 0.82676 0.0648 0.0
H947 H 0.87536 0.67887 0.90166 0.0
C948 C 0.88151 0.72169 0.77754 0.0
C949 C 0.88678 0.76826 0.73887 0.0
C950 C 0.88447 0.79068 0.09327 0.0
C951 C 0.88321 0.75557 0.93221 0.0
C952 C 0.88263 0.78449 0.18941 0.0
C953 C 0.87786 0.73832 0.22893 0.0
C954 C 0.88127 0.7503 0.03543 0.0
C955 C 0.87438 0.69885 0.16863 0.0
C956 C 0.87962 0.71517 0.87371 0.0
C957 C 0.89068 0.80762 0.7999 0.0
N958 N 0.87626 0.70572 0.07557 0.0
N959 N 0.8887 0.80042 0.89277 0.0
H960 H 0.64456 0.82514 0.37834 0.0
H961 H 0.61598 0.63834 0.80553 0.0
H962 H 0.62636 0.67036 0.34496 0.0
H963 H 0.63485 0.79325 0.83899 0.0
H964 H 0.61947 0.6492 0.63812 0.0
H965 H 0.64112 0.81423 0.54565 0.0
C966 C 0.63967 0.78869 0.40618 0.0
C967 C 0.63525 0.74857 0.34649 0.0
C968 C 0.62299 0.68096 0.68173 0.0
C969 C 0.63156 0.73566 0.54037 0.0
C970 C 0.62104 0.67479 0.77767 0.0
C971 C 0.62559 0.71495 0.83734 0.0
C972 C 0.62934 0.72783 0.6435 0.0
C973 C 0.63165 0.76124 0.79647 0.0
C974 C 0.63774 0.7825 0.50211 0.0
C975 C 0.62944 0.70233 0.38747 0.0
N976 N 0.63338 0.76635 0.70266 0.0
N977 N 0.62769 0.69718 0.48127 0.0
H978 H 0.39618 0.85112 0.80038 0.0
H979 H 0.36846 0.66371 0.37376 0.0
H980 H 0.37859 0.69648 0.83324 0.0
H981 H 0.38705 0.81848 0.33918 0.0
H982 H 0.37194 0.67504 0.54076 0.0
H983 H 0.39301 0.84011 0.63294 0.0
C984 C 0.39149 0.81469 0.7724 0.0
C985 C 0.38719 0.77461 0.83192 0.0
C986 C 0.3754 0.70668 0.49703 0.0
C987 C 0.38378 0.76161 0.63805 0.0
C988 C 0.37344 0.70025 0.40126 0.0
C989 C 0.37792 0.74021 0.34128 0.0
C990 C 0.38166 0.75362 0.53495 0.0
C991 C 0.38389 0.7866 0.38189 0.0
C992 C 0.38971 0.80844 0.67642 0.0
C993 C 0.38159 0.7284 0.79086 0.0
N994 N 0.38563 0.79198 0.47562 0.0
N995 N 0.37999 0.72321 0.69706 0.0
H996 H 0.61855 0.13944 0.25765 0.0
H997 H 0.64373 0.32824 0.68258 0.0
H998 H 0.63499 0.29357 0.22234 0.0
H999 H 0.6271 0.17406 0.71831 0.0
H1000 H 0.64079 0.31635 0.5153 0.0
H1001 H 0.62183 0.15137 0.42482 0.0
C1002 C 0.62306 0.17598 0.285 0.0
C1003 C 0.62688 0.21561 0.22488 0.0
C1004 C 0.63765 0.28496 0.55936 0.0
C1005 C 0.63037 0.22966 0.41855 0.0
C1006 C 0.6393 0.29171 0.65528 0.0
C1007 C 0.63531 0.25205 0.71555 0.0
C1008 C 0.63215 0.23803 0.52173 0.0
C1009 C 0.62995 0.20567 0.67531 0.0
C1010 C 0.62488 0.18275 0.38084 0.0
C1011 C 0.6323 0.26199 0.26515 0.0
N1012 N 0.6285 0.2 0.5815 0.0
N1013 N 0.6339 0.26767 0.35888 0.0
H1014 H 0.37561 0.18993 0.21431 0.0
H1015 H 0.3844 0.31293 0.71887 0.0
H1016 H 0.39265 0.34382 0.25719 0.0
H1017 H 0.36703 0.15896 0.67566 0.0
H1018 H 0.38764 0.32523 0.55091 0.0
H1019 H 0.37215 0.17761 0.38211 0.0
C1020 C 0.37838 0.22107 0.25876 0.0
C1021 C 0.38403 0.26793 0.22086 0.0
C1022 C 0.38319 0.28871 0.57803 0.0
C1023 C 0.38059 0.25431 0.41462 0.0
C1024 C 0.38147 0.28176 0.67428 0.0
C1025 C 0.3758 0.23488 0.71214 0.0
C1026 C 0.37904 0.24849 0.5183 0.0
C1027 C 0.37169 0.1958 0.65 0.0
C1028 C 0.37656 0.21411 0.35496 0.0
C1029 C 0.38799 0.30699 0.28289 0.0
N1030 N 0.37343 0.20342 0.557 0.0
N1031 N 0.38616 0.29936 0.37587 0.0
H1032 H 0.01334 0.13282 0.535 0.0
H1033 H 0.99269 0.34977 0.65514 0.0
H1034 H 0.04655 0.27283 0.62545 0.0
H1035 H 0.96573 0.23511 0.46771 0.0
H1036 H 0.01147 0.31813 0.65736 0.0
H1037 H 0.99489 0.16609 0.51942 0.0
C1038 C 0.01677 0.17076 0.55056 0.0
C1039 C 0.03149 0.20021 0.58144 0.0
C1040 C 1.00147 0.29999 0.6155 0.0
C1041 C 0.01036 0.23819 0.56578 0.0
C1042 C 0.9907 0.31808 0.61386 0.0
C1043 C 0.97758 0.29563 0.56 0.0
C1044 C 0.9991 0.25844 0.56433 0.0
C1045 C 0.97554 0.2536 0.51079 0.0
C1046 C 0.00625 0.18968 0.54173 0.0
C1047 C 0.03537 0.24906 0.60078 0.0
N1048 N 0.98616 0.23636 0.51425 0.0
N1049 N 0.02481 0.26639 0.59374 0.0
H1050 H 0.97324 0.76203 0.58969 0.0
H1051 H 0.04719 0.74786 0.39248 0.0
H1052 H 0.98957 0.80235 0.31119 0.0
H1053 H 0.02031 0.654 0.61047 0.0
H1054 H 0.02835 0.77967 0.37668 0.0
H1055 H 0.99205 0.73064 0.61088 0.0
C1056 C 0.98063 0.76397 0.5327 0.0
C1057 C 0.97983 0.78553 0.44876 0.0
C1058 C 0.02662 0.75226 0.42826 0.0
C1059 C 1.0017 0.75092 0.47383 0.0
C1060 C 0.03743 0.73448 0.43779 0.0
C1061 C 0.03526 0.69819 0.5026 0.0
C1062 C 0.01368 0.73417 0.48495 0.0
C1063 C 0.02233 0.68175 0.55914 0.0
C1064 C 0.99146 0.74639 0.54522 0.0
C1065 C 0.98994 0.7874 0.37804 0.0
N1066 N 0.01204 0.6999 0.54919 0.0
N1067 N 1.00049 0.77082 0.39246 0.0
H1068 H 0.51522 0.6377 0.04199 0.0
H1069 H 0.494 0.84394 0.23245 0.0
H1070 H 0.54709 0.76341 0.18706 0.0
H1071 H 0.47053 0.7518 1.00369 0.0
H1072 H 0.51204 0.80913 0.22996 0.0
H1073 H 0.49742 0.6739 0.03838 0.0
C1074 C 0.51849 0.67316 0.07248 0.0
C1075 C 0.53264 0.69769 0.11482 0.0
C1076 C 0.50295 0.7966 0.18027 0.0
C1077 C 0.51223 0.7389 0.11247 0.0
C1078 C 0.49262 0.8165 0.18138 0.0
C1079 C 0.48073 0.80139 0.11731 0.0
C1080 C 0.50134 0.76057 0.11569 0.0
C1081 C 0.47937 0.76449 0.05496 0.0
C1082 C 0.50834 0.69376 0.07039 0.0
C1083 C 0.53634 0.74352 0.1532 0.0
N1084 N 0.48953 0.74539 0.05574 0.0
N1085 N 0.52613 0.76245 0.15201 0.0
H1086 H 0.4641 0.2228 0.88949 0.0
H1087 H 0.54339 0.24418 0.07523 0.0
H1088 H 0.49406 0.34183 0.05781 0.0
H1089 H 0.51946 0.15324 0.84627 0.0
H1090 H 0.5245 0.27607 0.08111 0.0
H1091 H 0.48288 0.19022 0.88824 0.0
C1092 C 0.47454 0.24169 0.92715 0.0
C1093 C 0.47755 0.28518 0.97339 0.0
C1094 C 0.52342 0.24915 1.02958 0.0
C1095 C 0.49914 0.24844 0.97184 0.0
C1096 C 0.53429 0.23119 1.02563 0.0
C1097 C 0.53303 0.19553 0.96068 0.0
C1098 C 0.51111 0.23112 0.96865 0.0
C1099 C 0.52079 0.1798 0.89905 0.0
C1100 C 0.48532 0.22339 0.92574 0.0
C1101 C 0.49135 0.30844 1.02046 0.0
N1102 N 0.5103 0.19739 0.90498 0.0
N1103 N 0.50161 0.28984 1.01847 0.0
loop_
_geom_bond_atom_site_label_1
_geom_bond_atom_site_label_2
_geom_bond_distance
_geom_bond_site_symmetry_2
_ccdc_geom_bond_type
Gd0 N31 2.661 . S
Gd0 N37 2.601 . S
Gd0 O44 2.545 . S
Gd0 O45 2.606 . S
Gd0 O47 2.429 . S
Gd0 O48 2.545 . S
Gd0 O49 2.412 . S
Gd0 O51 2.362 . S
Gd0 O52 2.324 . S
Gd0 C59 2.828 . S
Gd1 N10 2.661 . S
Gd1 N14 2.601 . S
Gd1 O45 2.362 . S
Gd1 O46 2.324 . S
Gd1 O50 2.545 . S
Gd1 O51 2.606 . S
Gd1 O53 2.429 . S
Gd1 O54 2.545 . S
Gd1 O55 2.412 . S
Gd1 C68 2.828 . S
C2 C5 1.417 . S
C2 C7 1.431 . S
C2 C8 1.412 . S
C3 C6 1.437 . S
C3 C7 1.317 . S
C3 H22 0.929 . S
C4 C5 1.426 . S
C4 C6 1.413 . S
C4 N14 1.359 . S
C5 C2 1.417 . S
C5 C4 1.426 . S
C5 N10 1.350 . S
C6 C3 1.437 . S
C6 C4 1.413 . S
C6 C16 1.391 . S
C7 C2 1.431 . S
C7 C3 1.317 . S
C7 H18 0.930 . S
C8 C2 1.412 . S
C8 C9 1.355 . S
C8 H20 0.930 . S
C9 C8 1.355 . S
C9 C11 1.402 . S
C9 H21 0.930 . S
N10 Gd1 2.661 . S
N10 C5 1.350 . S
N10 C11 1.307 . S
C11 C9 1.402 . S
C11 N10 1.307 . S
C11 H12 0.930 . S
H12 C11 0.930 . S
C13 N14 1.334 . S
C13 C15 1.394 . S
C13 H17 0.930 . S
N14 Gd1 2.601 . S
N14 C4 1.359 . S
N14 C13 1.334 . S
C15 C13 1.394 . S
C15 C16 1.359 . S
C15 H27 0.930 . S
C16 C6 1.391 . S
C16 C15 1.359 . S
C16 H28 0.929 . S
H17 C13 0.930 . S
H18 C7 0.930 . S
H19 C36 0.930 . S
H20 C8 0.930 . S
H21 C9 0.930 . S
H22 C3 0.929 . S
H23 C41 0.930 . S
H24 C32 0.930 . S
H25 C33 0.930 . S
H26 C57 0.929 . S
H27 C15 0.930 . S
H28 C16 0.929 . S
H29 C58 0.930 . S
H30 C39 0.930 . S
N31 Gd0 2.661 . S
N31 C35 1.350 . S
N31 C36 1.307 . S
C32 H24 0.930 . S
C32 C33 1.355 . S
C32 C34 1.412 . S
C33 H25 0.930 . S
C33 C32 1.355 . S
C33 C36 1.402 . S
C34 C32 1.412 . S
C34 C35 1.417 . S
C34 C58 1.431 . S
C35 N31 1.350 . S
C35 C34 1.417 . S
C35 C38 1.426 . S
C36 H19 0.930 . S
C36 N31 1.307 . S
C36 C33 1.402 . S
N37 Gd0 2.601 . S
N37 C38 1.359 . S
N37 C41 1.334 . S
C38 C35 1.426 . S
C38 N37 1.359 . S
C38 C42 1.413 . S
C39 H30 0.930 . S
C39 C40 1.359 . S
C39 C41 1.394 . S
C40 C39 1.359 . S
C40 C42 1.391 . S
C40 H43 0.929 . S
C41 H23 0.930 . S
C41 N37 1.334 . S
C41 C39 1.394 . S
C42 C38 1.413 . S
C42 C40 1.391 . S
C42 C57 1.437 . S
H43 C40 0.929 . S
O44 Gd0 2.545 . S
O44 C59 1.258 . S
O45 Gd0 2.606 . S
O45 Gd1 2.362 . S
O45 C56 1.284 . S
O46 Gd1 2.324 . S
O46 C66 1.254 . S
O47 Gd0 2.429 . S
O47 C66 1.268 . S
O48 Gd0 2.545 . S
O48 C56 1.250 . S
O49 Gd0 2.412 . S
O49 C59 1.252 . S
O50 Gd1 2.545 . S
O50 C68 1.258 . S
O51 Gd0 2.362 . S
O51 Gd1 2.606 . S
O51 C67 1.284 . S
O52 Gd0 2.324 . S
O52 C75 1.254 . S
O53 Gd1 2.429 . S
O53 C75 1.268 . S
O54 Gd1 2.545 . S
O54 C67 1.250 . S
O55 Gd1 2.412 . S
O55 C68 1.252 . S
C56 O45 1.284 . S
C56 O48 1.250 . S
C57 H26 0.929 . S
C57 C42 1.437 . S
C57 C58 1.317 . S
C58 H29 0.930 . S
C58 C34 1.431 . S
C58 C57 1.317 . S
C59 Gd0 2.828 . S
C59 O44 1.258 . S
C59 O49 1.252 . S
C59 C60 1.497 . S
C60 C59 1.497 . S
C60 C61 1.395 . S
C60 C62 1.380 . S
C61 C60 1.395 . S
C61 C64 1.398 . S
C61 H76 0.930 . S
C62 C60 1.380 . S
C62 C63 1.391 . S
C62 H77 0.930 . S
C63 C62 1.391 . S
C63 C65 1.387 . S
C64 C61 1.398 . S
C64 C65 1.380 . S
C64 H78 0.930 . S
C65 C63 1.387 . S
C65 C64 1.380 . S
C65 H79 0.930 . S
C66 O46 1.254 . S
C66 O47 1.268 . S
C67 O51 1.284 . S
C67 O54 1.250 . S
C68 Gd1 2.828 . S
C68 O50 1.258 . S
C68 O55 1.252 . S
C68 C69 1.497 . S
C69 C68 1.497 . S
C69 C70 1.395 . S
C69 C71 1.380 . S
C70 C69 1.395 . S
C70 C73 1.398 . S
C70 H80 0.930 . S
C71 C69 1.380 . S
C71 C72 1.391 . S
C71 H81 0.930 . S
C72 C71 1.391 . S
C72 C74 1.387 . S
C73 C70 1.398 . S
C73 C74 1.380 . S
C73 H82 0.930 . S
C74 C72 1.387 . S
C74 C73 1.380 . S
C74 H83 0.930 . S
C75 O52 1.254 . S
C75 O53 1.268 . S
H76 C61 0.930 . S
H77 C62 0.930 . S
H78 C64 0.930 . S
H79 C65 0.930 . S
H80 C70 0.930 . S
H81 C71 0.930 . S
H82 C73 0.930 . S
H83 C74 0.930 . S
Gd84 N115 2.661 . S
Gd84 N121 2.601 . S
Gd84 O128 2.545 . S
Gd84 O129 2.606 . S
Gd84 O131 2.429 . S
Gd84 O132 2.545 . S
Gd84 O133 2.412 . S
Gd84 O135 2.362 . S
Gd84 O136 2.324 . S
Gd84 C143 2.828 . S
Gd85 N94 2.661 . S
Gd85 N98 2.601 . S
Gd85 O129 2.362 . S
Gd85 O130 2.324 . S
Gd85 O134 2.545 . S
Gd85 O135 2.606 . S
Gd85 O137 2.429 . S
Gd85 O138 2.545 . S
Gd85 O139 2.412 . S
Gd85 C152 2.828 . S
C86 C89 1.417 . S
C86 C91 1.431 . S
C86 C92 1.412 . S
C87 C90 1.437 . S
C87 C91 1.317 . S
C87 H106 0.929 . S
C88 C89 1.426 . S
C88 C90 1.413 . S
C88 N98 1.359 . S
C89 C86 1.417 . S
C89 C88 1.426 . S
C89 N94 1.350 . S
C90 C87 1.437 . S
C90 C88 1.413 . S
C90 C100 1.391 . S
C91 C86 1.431 . S
C91 C87 1.317 . S
C91 H102 0.930 . S
C92 C86 1.412 . S
C92 C93 1.355 . S
C92 H104 0.930 . S
C93 C92 1.355 . S
C93 C95 1.402 . S
C93 H105 0.930 . S
N94 Gd85 2.661 . S
N94 C89 1.350 . S
N94 C95 1.307 . S
C95 C93 1.402 . S
C95 N94 1.307 . S
C95 H96 0.930 . S
H96 C95 0.930 . S
C97 N98 1.334 . S
C97 C99 1.394 . S
C97 H101 0.930 . S
N98 Gd85 2.601 . S
N98 C88 1.359 . S
N98 C97 1.334 . S
C99 C97 1.394 . S
C99 C100 1.359 . S
C99 H111 0.930 . S
C100 C90 1.391 . S
C100 C99 1.359 . S
C100 H112 0.929 . S
H101 C97 0.930 . S
H102 C91 0.930 . S
H103 C120 0.930 . S
H104 C92 0.930 . S
H105 C93 0.930 . S
H106 C87 0.929 . S
H107 C125 0.930 . S
H108 C116 0.930 . S
H109 C117 0.930 . S
H110 C141 0.929 . S
H111 C99 0.930 . S
H112 C100 0.929 . S
H113 C142 0.930 . S
H114 C123 0.930 . S
N115 Gd84 2.661 . S
N115 C119 1.350 . S
N115 C120 1.307 . S
C116 H108 0.930 . S
C116 C117 1.355 . S
C116 C118 1.412 . S
C117 H109 0.930 . S
C117 C116 1.355 . S
C117 C120 1.402 . S
C118 C116 1.412 . S
C118 C119 1.417 . S
C118 C142 1.431 . S
C119 N115 1.350 . S
C119 C118 1.417 . S
C119 C122 1.426 . S
C120 H103 0.930 . S
C120 N115 1.307 . S
C120 C117 1.402 . S
N121 Gd84 2.601 . S
N121 C122 1.359 . S
N121 C125 1.334 . S
C122 C119 1.426 . S
C122 N121 1.359 . S
C122 C126 1.413 . S
C123 H114 0.930 . S
C123 C124 1.359 . S
C123 C125 1.394 . S
C124 C123 1.359 . S
C124 C126 1.391 . S
C124 H127 0.929 . S
C125 H107 0.930 . S
C125 N121 1.334 . S
C125 C123 1.394 . S
C126 C122 1.413 . S
C126 C124 1.391 . S
C126 C141 1.437 . S
H127 C124 0.929 . S
O128 Gd84 2.545 . S
O128 C143 1.258 . S
O129 Gd84 2.606 . S
O129 Gd85 2.362 . S
O129 C140 1.284 . S
O130 Gd85 2.324 . S
O130 C150 1.254 . S
O131 Gd84 2.429 . S
O131 C150 1.268 . S
O132 Gd84 2.545 . S
O132 C140 1.250 . S
O133 Gd84 2.412 . S
O133 C143 1.252 . S
O134 Gd85 2.545 . S
O134 C152 1.258 . S
O135 Gd84 2.362 . S
O135 Gd85 2.606 . S
O135 C151 1.284 . S
O136 Gd84 2.324 . S
O136 C159 1.254 . S
O137 Gd85 2.429 . S
O137 C159 1.268 . S
O138 Gd85 2.545 . S
O138 C151 1.250 . S
O139 Gd85 2.412 . S
O139 C152 1.252 . S
C140 O129 1.284 . S
C140 O132 1.250 . S
C141 H110 0.929 . S
C141 C126 1.437 . S
C141 C142 1.317 . S
C142 H113 0.930 . S
C142 C118 1.431 . S
C142 C141 1.317 . S
C143 Gd84 2.828 . S
C143 O128 1.258 . S
C143 O133 1.252 . S
C143 C144 1.497 . S
C144 C143 1.497 . S
C144 C145 1.395 . S
C144 C146 1.380 . S
C145 C144 1.395 . S
C145 C148 1.398 . S
C145 H160 0.930 . S
C146 C144 1.380 . S
C146 C147 1.391 . S
C146 H161 0.930 . S
C147 C146 1.391 . S
C147 C149 1.387 . S
C148 C145 1.398 . S
C148 C149 1.380 . S
C148 H162 0.930 . S
C149 C147 1.387 . S
C149 C148 1.380 . S
C149 H163 0.930 . S
C150 O130 1.254 . S
C150 O131 1.268 . S
C151 O135 1.284 . S
C151 O138 1.250 . S
C152 Gd85 2.828 . S
C152 O134 1.258 . S
C152 O139 1.252 . S
C152 C153 1.497 . S
C153 C152 1.497 . S
C153 C154 1.395 . S
C153 C155 1.380 . S
C154 C153 1.395 . S
C154 C157 1.398 . S
C154 H164 0.930 . S
C155 C153 1.380 . S
C155 C156 1.391 . S
C155 H165 0.930 . S
C156 C155 1.391 . S
C156 C158 1.387 . S
C157 C154 1.398 . S
C157 C158 1.380 . S
C157 H166 0.930 . S
C158 C156 1.387 . S
C158 C157 1.380 . S
C158 H167 0.930 . S
C159 O136 1.254 . S
C159 O137 1.268 . S
H160 C145 0.930 . S
H161 C146 0.930 . S
H162 C148 0.930 . S
H163 C149 0.930 . S
H164 C154 0.930 . S
H165 C155 0.930 . S
H166 C157 0.930 . S
H167 C158 0.930 . S
Gd168 N199 2.661 . S
Gd168 N205 2.601 . S
Gd168 O212 2.545 . S
Gd168 O213 2.606 . S
Gd168 O215 2.429 . S
Gd168 O216 2.545 . S
Gd168 O217 2.412 . S
Gd168 O219 2.362 . S
Gd168 O220 2.324 . S
Gd168 C227 2.828 . S
Gd169 N178 2.661 . S
Gd169 N182 2.601 . S
Gd169 O213 2.362 . S
Gd169 O214 2.324 . S
Gd169 O218 2.545 . S
Gd169 O219 2.606 . S
Gd169 O221 2.429 . S
Gd169 O222 2.545 . S
Gd169 O223 2.412 . S
Gd169 C236 2.828 . S
C170 C173 1.417 . S
C170 C175 1.431 . S
C170 C176 1.412 . S
C171 C174 1.437 . S
C171 C175 1.317 . S
C171 H190 0.929 . S
C172 C173 1.426 . S
C172 C174 1.413 . S
C172 N182 1.359 . S
C173 C170 1.417 . S
C173 C172 1.426 . S
C173 N178 1.350 . S
C174 C171 1.437 . S
C174 C172 1.413 . S
C174 C184 1.391 . S
C175 C170 1.431 . S
C175 C171 1.317 . S
C175 H186 0.930 . S
C176 C170 1.412 . S
C176 C177 1.355 . S
C176 H188 0.930 . S
C177 C176 1.355 . S
C177 C179 1.402 . S
C177 H189 0.930 . S
N178 Gd169 2.661 . S
N178 C173 1.350 . S
N178 C179 1.307 . S
C179 C177 1.402 . S
C179 N178 1.307 . S
C179 H180 0.930 . S
H180 C179 0.930 . S
C181 N182 1.334 . S
C181 C183 1.394 . S
C181 H185 0.930 . S
N182 Gd169 2.601 . S
N182 C172 1.359 . S
N182 C181 1.334 . S
C183 C181 1.394 . S
C183 C184 1.359 . S
C183 H195 0.930 . S
C184 C174 1.391 . S
C184 C183 1.359 . S
C184 H196 0.929 . S
H185 C181 0.930 . S
H186 C175 0.930 . S
H187 C204 0.930 . S
H188 C176 0.930 . S
H189 C177 0.930 . S
H190 C171 0.929 . S
H191 C209 0.930 . S
H192 C200 0.930 . S
H193 C201 0.930 . S
H194 C225 0.929 . S
H195 C183 0.930 . S
H196 C184 0.929 . S
H197 C226 0.930 . S
H198 C207 0.930 . S
N199 Gd168 2.661 . S
N199 C203 1.350 . S
N199 C204 1.307 . S
C200 H192 0.930 . S
C200 C201 1.355 . S
C200 C202 1.412 . S
C201 H193 0.930 . S
C201 C200 1.355 . S
C201 C204 1.402 . S
C202 C200 1.412 . S
C202 C203 1.417 . S
C202 C226 1.431 . S
C203 N199 1.350 . S
C203 C202 1.417 . S
C203 C206 1.426 . S
C204 H187 0.930 . S
C204 N199 1.307 . S
C204 C201 1.402 . S
N205 Gd168 2.601 . S
N205 C206 1.359 . S
N205 C209 1.334 . S
C206 C203 1.426 . S
C206 N205 1.359 . S
C206 C210 1.413 . S
C207 H198 0.930 . S
C207 C208 1.359 . S
C207 C209 1.394 . S
C208 C207 1.359 . S
C208 C210 1.391 . S
C208 H211 0.929 . S
C209 H191 0.930 . S
C209 N205 1.334 . S
C209 C207 1.394 . S
C210 C206 1.413 . S
C210 C208 1.391 . S
C210 C225 1.437 . S
H211 C208 0.929 . S
O212 Gd168 2.545 . S
O212 C227 1.258 . S
O213 Gd168 2.606 . S
O213 Gd169 2.362 . S
O213 C224 1.284 . S
O214 Gd169 2.324 . S
O214 C234 1.254 . S
O215 Gd168 2.429 . S
O215 C234 1.268 . S
O216 Gd168 2.545 . S
O216 C224 1.250 . S
O217 Gd168 2.412 . S
O217 C227 1.252 . S
O218 Gd169 2.545 . S
O218 C236 1.258 . S
O219 Gd168 2.362 . S
O219 Gd169 2.606 . S
O219 C235 1.284 . S
O220 Gd168 2.324 . S
O220 C243 1.254 . S
O221 Gd169 2.429 . S
O221 C243 1.268 . S
O222 Gd169 2.545 . S
O222 C235 1.250 . S
O223 Gd169 2.412 . S
O223 C236 1.252 . S
C224 O213 1.284 . S
C224 O216 1.250 . S
C225 H194 0.929 . S
C225 C210 1.437 . S
C225 C226 1.317 . S
C226 H197 0.930 . S
C226 C202 1.431 . S
C226 C225 1.317 . S
C227 Gd168 2.828 . S
C227 O212 1.258 . S
C227 O217 1.252 . S
C227 C228 1.497 . S
C228 C227 1.497 . S
C228 C229 1.395 . S
C228 C230 1.380 . S
C229 C228 1.395 . S
C229 C232 1.398 . S
C229 H244 0.930 . S
C230 C228 1.380 . S
C230 C231 1.391 . S
C230 H245 0.930 . S
C231 C230 1.391 . S
C231 C233 1.387 . S
C232 C229 1.398 . S
C232 C233 1.380 . S
C232 H246 0.930 . S
C233 C231 1.387 . S
C233 C232 1.380 . S
C233 H247 0.930 . S
C234 O214 1.254 . S
C234 O215 1.268 . S
C235 O219 1.284 . S
C235 O222 1.250 . S
C236 Gd169 2.828 . S
C236 O218 1.258 . S
C236 O223 1.252 . S
C236 C237 1.497 . S
C237 C236 1.497 . S
C237 C238 1.395 . S
C237 C239 1.380 . S
C238 C237 1.395 . S
C238 C241 1.398 . S
C238 H248 0.930 . S
C239 C237 1.380 . S
C239 C240 1.391 . S
C239 H249 0.930 . S
C240 C239 1.391 . S
C240 C242 1.387 . S
C241 C238 1.398 . S
C241 C242 1.380 . S
C241 H250 0.930 . S
C242 C240 1.387 . S
C242 C241 1.380 . S
C242 H251 0.930 . S
C243 O220 1.254 . S
C243 O221 1.268 . S
H244 C229 0.930 . S
H245 C230 0.930 . S
H246 C232 0.930 . S
H247 C233 0.930 . S
H248 C238 0.930 . S
H249 C239 0.930 . S
H250 C241 0.930 . S
H251 C242 0.930 . S
Gd252 N283 2.661 . S
Gd252 N289 2.601 . S
Gd252 O296 2.545 . S
Gd252 O297 2.606 . S
Gd252 O299 2.429 . S
Gd252 O300 2.545 . S
Gd252 O301 2.412 . S
Gd252 O303 2.362 . S
Gd252 O304 2.324 . S
Gd252 C311 2.828 . S
Gd253 N262 2.661 . S
Gd253 N266 2.601 . S
Gd253 O297 2.362 . S
Gd253 O298 2.324 . S
Gd253 O302 2.545 . S
Gd253 O303 2.606 . S
Gd253 O305 2.429 . S
Gd253 O306 2.545 . S
Gd253 O307 2.412 . S
Gd253 C320 2.828 . S
C254 C257 1.417 . S
C254 C259 1.431 . S
C254 C260 1.412 . S
C255 C258 1.437 . S
C255 C259 1.317 . S
C255 H274 0.929 . S
C256 C257 1.426 . S
C256 C258 1.413 . S
C256 N266 1.359 . S
C257 C254 1.417 . S
C257 C256 1.426 . S
C257 N262 1.350 . S
C258 C255 1.437 . S
C258 C256 1.413 . S
C258 C268 1.391 . S
C259 C254 1.431 . S
C259 C255 1.317 . S
C259 H270 0.930 . S
C260 C254 1.412 . S
C260 C261 1.355 . S
C260 H272 0.930 . S
C261 C260 1.355 . S
C261 C263 1.402 . S
C261 H273 0.930 . S
N262 Gd253 2.661 . S
N262 C257 1.350 . S
N262 C263 1.307 . S
C263 C261 1.402 . S
C263 N262 1.307 . S
C263 H264 0.930 . S
H264 C263 0.930 . S
C265 N266 1.334 . S
C265 C267 1.394 . S
C265 H269 0.930 . S
N266 Gd253 2.601 . S
N266 C256 1.359 . S
N266 C265 1.334 . S
C267 C265 1.394 . S
C267 C268 1.359 . S
C267 H279 0.930 . S
C268 C258 1.391 . S
C268 C267 1.359 . S
C268 H280 0.929 . S
H269 C265 0.930 . S
H270 C259 0.930 . S
H271 C288 0.930 . S
H272 C260 0.930 . S
H273 C261 0.930 . S
H274 C255 0.929 . S
H275 C293 0.930 . S
H276 C284 0.930 . S
H277 C285 0.930 . S
H278 C309 0.929 . S
H279 C267 0.930 . S
H280 C268 0.929 . S
H281 C310 0.930 . S
H282 C291 0.930 . S
N283 Gd252 2.661 . S
N283 C287 1.350 . S
N283 C288 1.307 . S
C284 H276 0.930 . S
C284 C285 1.355 . S
C284 C286 1.412 . S
C285 H277 0.930 . S
C285 C284 1.355 . S
C285 C288 1.402 . S
C286 C284 1.412 . S
C286 C287 1.417 . S
C286 C310 1.431 . S
C287 N283 1.350 . S
C287 C286 1.417 . S
C287 C290 1.426 . S
C288 H271 0.930 . S
C288 N283 1.307 . S
C288 C285 1.402 . S
N289 Gd252 2.601 . S
N289 C290 1.359 . S
N289 C293 1.334 . S
C290 C287 1.426 . S
C290 N289 1.359 . S
C290 C294 1.413 . S
C291 H282 0.930 . S
C291 C292 1.359 . S
C291 C293 1.394 . S
C292 C291 1.359 . S
C292 C294 1.391 . S
C292 H295 0.929 . S
C293 H275 0.930 . S
C293 N289 1.334 . S
C293 C291 1.394 . S
C294 C290 1.413 . S
C294 C292 1.391 . S
C294 C309 1.437 . S
H295 C292 0.929 . S
O296 Gd252 2.545 . S
O296 C311 1.258 . S
O297 Gd252 2.606 . S
O297 Gd253 2.362 . S
O297 C308 1.284 . S
O298 Gd253 2.324 . S
O298 C318 1.254 . S
O299 Gd252 2.429 . S
O299 C318 1.268 . S
O300 Gd252 2.545 . S
O300 C308 1.250 . S
O301 Gd252 2.412 . S
O301 C311 1.252 . S
O302 Gd253 2.545 . S
O302 C320 1.258 . S
O303 Gd252 2.362 . S
O303 Gd253 2.606 . S
O303 C319 1.284 . S
O304 Gd252 2.324 . S
O304 C327 1.254 . S
O305 Gd253 2.429 . S
O305 C327 1.268 . S
O306 Gd253 2.545 . S
O306 C319 1.250 . S
O307 Gd253 2.412 . S
O307 C320 1.252 . S
C308 O297 1.284 . S
C308 O300 1.250 . S
C309 H278 0.929 . S
C309 C294 1.437 . S
C309 C310 1.317 . S
C310 H281 0.930 . S
C310 C286 1.431 . S
C310 C309 1.317 . S
C311 Gd252 2.828 . S
C311 O296 1.258 . S
C311 O301 1.252 . S
C311 C312 1.497 . S
C312 C311 1.497 . S
C312 C313 1.395 . S
C312 C314 1.380 . S
C313 C312 1.395 . S
C313 C316 1.398 . S
C313 H328 0.930 . S
C314 C312 1.380 . S
C314 C315 1.391 . S
C314 H329 0.930 . S
C315 C314 1.391 . S
C315 C317 1.387 . S
C316 C313 1.398 . S
C316 C317 1.380 . S
C316 H330 0.930 . S
C317 C315 1.387 . S
C317 C316 1.380 . S
C317 H331 0.930 . S
C318 O298 1.254 . S
C318 O299 1.268 . S
C319 O303 1.284 . S
C319 O306 1.250 . S
C320 Gd253 2.828 . S
C320 O302 1.258 . S
C320 O307 1.252 . S
C320 C321 1.497 . S
C321 C320 1.497 . S
C321 C322 1.395 . S
C321 C323 1.380 . S
C322 C321 1.395 . S
C322 C325 1.398 . S
C322 H332 0.930 . S
C323 C321 1.380 . S
C323 C324 1.391 . S
C323 H333 0.930 . S
C324 C323 1.391 . S
C324 C326 1.387 . S
C325 C322 1.398 . S
C325 C326 1.380 . S
C325 H334 0.930 . S
C326 C324 1.387 . S
C326 C325 1.380 . S
C326 H335 0.930 . S
C327 O304 1.254 . S
C327 O305 1.268 . S
H328 C313 0.930 . S
H329 C314 0.930 . S
H330 C316 0.930 . S
H331 C317 0.930 . S
H332 C322 0.930 . S
H333 C323 0.930 . S
H334 C325 0.930 . S
H335 C326 0.930 . S
Gd336 N367 2.661 . S
Gd336 N373 2.601 . S
Gd336 O380 2.545 1_556 S
Gd336 O381 2.606 1_556 S
Gd336 O383 2.429 1_556 S
Gd336 O384 2.545 1_556 S
Gd336 O385 2.412 1_556 S
Gd336 O387 2.362 . S
Gd336 O388 2.324 . S
Gd336 C395 2.828 1_556 S
Gd337 N346 2.661 . S
Gd337 N350 2.601 . S
Gd337 O381 2.362 . S
Gd337 O382 2.324 . S
Gd337 O386 2.545 1_554 S
Gd337 O387 2.606 1_554 S
Gd337 O389 2.429 1_554 S
Gd337 O390 2.545 1_554 S
Gd337 O391 2.412 1_554 S
Gd337 C404 2.828 1_554 S
C338 C341 1.417 . S
C338 C343 1.431 . S
C338 C344 1.412 . S
C339 C342 1.437 . S
C339 C343 1.317 . S
C339 H358 0.929 . S
C340 C341 1.426 . S
C340 C342 1.413 . S
C340 N350 1.359 . S
C341 C338 1.417 . S
C341 C340 1.426 . S
C341 N346 1.350 . S
C342 C339 1.437 . S
C342 C340 1.413 . S
C342 C352 1.391 . S
C343 C338 1.431 . S
C343 C339 1.317 . S
C343 H354 0.930 . S
C344 C338 1.412 . S
C344 C345 1.355 . S
C344 H356 0.930 . S
C345 C344 1.355 . S
C345 C347 1.402 . S
C345 H357 0.930 . S
N346 Gd337 2.661 . S
N346 C341 1.350 . S
N346 C347 1.307 . S
C347 C345 1.402 . S
C347 N346 1.307 . S
C347 H348 0.930 . S
H348 C347 0.930 . S
C349 N350 1.334 . S
C349 C351 1.394 . S
C349 H353 0.930 . S
N350 Gd337 2.601 . S
N350 C340 1.359 . S
N350 C349 1.334 . S
C351 C349 1.394 . S
C351 C352 1.359 . S
C351 H363 0.930 . S
C352 C342 1.391 . S
C352 C351 1.359 . S
C352 H364 0.929 . S
H353 C349 0.930 . S
H354 C343 0.930 . S
H355 C372 0.930 . S
H356 C344 0.930 . S
H357 C345 0.930 . S
H358 C339 0.929 . S
H359 C377 0.930 . S
H360 C368 0.930 . S
H361 C369 0.930 . S
H362 C393 0.929 . S
H363 C351 0.930 . S
H364 C352 0.929 . S
H365 C394 0.930 . S
H366 C375 0.930 . S
N367 Gd336 2.661 . S
N367 C371 1.350 . S
N367 C372 1.307 . S
C368 H360 0.930 . S
C368 C369 1.355 . S
C368 C370 1.412 . S
C369 H361 0.930 . S
C369 C368 1.355 . S
C369 C372 1.402 . S
C370 C368 1.412 . S
C370 C371 1.417 . S
C370 C394 1.431 . S
C371 N367 1.350 . S
C371 C370 1.417 . S
C371 C374 1.426 . S
C372 H355 0.930 . S
C372 N367 1.307 . S
C372 C369 1.402 . S
N373 Gd336 2.601 . S
N373 C374 1.359 . S
N373 C377 1.334 . S
C374 C371 1.426 . S
C374 N373 1.359 . S
C374 C378 1.413 . S
C375 H366 0.930 . S
C375 C376 1.359 . S
C375 C377 1.394 . S
C376 C375 1.359 . S
C376 C378 1.391 . S
C376 H379 0.929 . S
C377 H359 0.930 . S
C377 N373 1.334 . S
C377 C375 1.394 . S
C378 C374 1.413 . S
C378 C376 1.391 . S
C378 C393 1.437 . S
H379 C376 0.929 . S
O380 Gd336 2.545 1_554 S
O380 C395 1.258 . S
O381 Gd336 2.606 1_554 S
O381 Gd337 2.362 . S
O381 C392 1.284 . S
O382 Gd337 2.324 . S
O382 C402 1.254 1_554 S
O383 Gd336 2.429 1_554 S
O383 C402 1.268 1_554 S
O384 Gd336 2.545 1_554 S
O384 C392 1.250 . S
O385 Gd336 2.412 1_554 S
O385 C395 1.252 . S
O386 Gd337 2.545 1_556 S
O386 C404 1.258 . S
O387 Gd336 2.362 . S
O387 Gd337 2.606 1_556 S
O387 C403 1.284 . S
O388 Gd336 2.324 . S
O388 C411 1.254 1_556 S
O389 Gd337 2.429 1_556 S
O389 C411 1.268 1_556 S
O390 Gd337 2.545 1_556 S
O390 C403 1.250 . S
O391 Gd337 2.412 1_556 S
O391 C404 1.252 . S
C392 O381 1.284 . S
C392 O384 1.250 . S
C393 H362 0.929 . S
C393 C378 1.437 . S
C393 C394 1.317 . S
C394 H365 0.930 . S
C394 C370 1.431 . S
C394 C393 1.317 . S
C395 Gd336 2.828 1_554 S
C395 O380 1.258 . S
C395 O385 1.252 . S
C395 C396 1.497 . S
C396 C395 1.497 . S
C396 C397 1.395 . S
C396 C398 1.380 . S
C397 C396 1.395 . S
C397 C400 1.398 . S
C397 H412 0.930 . S
C398 C396 1.380 . S
C398 C399 1.391 . S
C398 H413 0.930 . S
C399 C398 1.391 . S
C399 C401 1.387 . S
C400 C397 1.398 . S
C400 C401 1.380 . S
C400 H414 0.930 . S
C401 C399 1.387 . S
C401 C400 1.380 . S
C401 H415 0.930 . S
C402 O382 1.254 1_556 S
C402 O383 1.268 1_556 S
C403 O387 1.284 . S
C403 O390 1.250 . S
C404 Gd337 2.828 1_556 S
C404 O386 1.258 . S
C404 O391 1.252 . S
C404 C405 1.497 . S
C405 C404 1.497 . S
C405 C406 1.395 . S
C405 C407 1.380 . S
C406 C405 1.395 . S
C406 C409 1.398 . S
C406 H416 0.930 . S
C407 C405 1.380 . S
C407 C408 1.391 . S
C407 H417 0.930 . S
C408 C407 1.391 . S
C408 C410 1.387 . S
C409 C406 1.398 . S
C409 C410 1.380 . S
C409 H418 0.930 . S
C410 C408 1.387 . S
C410 C409 1.380 . S
C410 H419 0.930 . S
C411 O388 1.254 1_554 S
C411 O389 1.268 1_554 S
H412 C397 0.930 . S
H413 C398 0.930 . S
H414 C400 0.930 . S
H415 C401 0.930 . S
H416 C406 0.930 . S
H417 C407 0.930 . S
H418 C409 0.930 . S
H419 C410 0.930 . S
Gd420 N451 2.661 . S
Gd420 N457 2.601 . S
Gd420 O464 2.545 1_556 S
Gd420 O465 2.606 1_556 S
Gd420 O467 2.429 1_556 S
Gd420 O468 2.545 1_556 S
Gd420 O469 2.412 1_556 S
Gd420 O471 2.362 . S
Gd420 O472 2.324 . S
Gd420 C479 2.828 1_556 S
Gd421 N430 2.661 . S
Gd421 N434 2.601 . S
Gd421 O465 2.362 . S
Gd421 O466 2.324 . S
Gd421 O470 2.545 1_554 S
Gd421 O471 2.606 1_554 S
Gd421 O473 2.429 1_554 S
Gd421 O474 2.545 1_554 S
Gd421 O475 2.412 1_554 S
Gd421 C488 2.828 1_554 S
C422 C425 1.417 . S
C422 C427 1.431 . S
C422 C428 1.412 . S
C423 C426 1.437 . S
C423 C427 1.317 . S
C423 H442 0.929 . S
C424 C425 1.426 . S
C424 C426 1.413 . S
C424 N434 1.359 . S
C425 C422 1.417 . S
C425 C424 1.426 . S
C425 N430 1.350 . S
C426 C423 1.437 . S
C426 C424 1.413 . S
C426 C436 1.391 . S
C427 C422 1.431 . S
C427 C423 1.317 . S
C427 H438 0.930 . S
C428 C422 1.412 . S
C428 C429 1.355 . S
C428 H440 0.930 . S
C429 C428 1.355 . S
C429 C431 1.402 . S
C429 H441 0.930 . S
N430 Gd421 2.661 . S
N430 C425 1.350 . S
N430 C431 1.307 . S
C431 C429 1.402 . S
C431 N430 1.307 . S
C431 H432 0.930 . S
H432 C431 0.930 . S
C433 N434 1.334 . S
C433 C435 1.394 . S
C433 H437 0.930 . S
N434 Gd421 2.601 . S
N434 C424 1.359 . S
N434 C433 1.334 . S
C435 C433 1.394 . S
C435 C436 1.359 . S
C435 H447 0.930 . S
C436 C426 1.391 . S
C436 C435 1.359 . S
C436 H448 0.929 . S
H437 C433 0.930 . S
H438 C427 0.930 . S
H439 C456 0.930 . S
H440 C428 0.930 . S
H441 C429 0.930 . S
H442 C423 0.929 . S
H443 C461 0.930 . S
H444 C452 0.930 . S
H445 C453 0.930 . S
H446 C477 0.929 . S
H447 C435 0.930 . S
H448 C436 0.929 . S
H449 C478 0.930 . S
H450 C459 0.930 . S
N451 Gd420 2.661 . S
N451 C455 1.350 . S
N451 C456 1.307 . S
C452 H444 0.930 . S
C452 C453 1.355 . S
C452 C454 1.412 . S
C453 H445 0.930 . S
C453 C452 1.355 . S
C453 C456 1.402 . S
C454 C452 1.412 . S
C454 C455 1.417 . S
C454 C478 1.431 . S
C455 N451 1.350 . S
C455 C454 1.417 . S
C455 C458 1.426 . S
C456 H439 0.930 . S
C456 N451 1.307 . S
C456 C453 1.402 . S
N457 Gd420 2.601 . S
N457 C458 1.359 . S
N457 C461 1.334 . S
C458 C455 1.426 . S
C458 N457 1.359 . S
C458 C462 1.413 . S
C459 H450 0.930 . S
C459 C460 1.359 . S
C459 C461 1.394 . S
C460 C459 1.359 . S
C460 C462 1.391 . S
C460 H463 0.929 . S
C461 H443 0.930 . S
C461 N457 1.334 . S
C461 C459 1.394 . S
C462 C458 1.413 . S
C462 C460 1.391 . S
C462 C477 1.437 . S
H463 C460 0.929 . S
O464 Gd420 2.545 1_554 S
O464 C479 1.258 . S
O465 Gd420 2.606 1_554 S
O465 Gd421 2.362 . S
O465 C476 1.284 . S
O466 Gd421 2.324 . S
O466 C486 1.254 1_554 S
O467 Gd420 2.429 1_554 S
O467 C486 1.268 1_554 S
O468 Gd420 2.545 1_554 S
O468 C476 1.250 . S
O469 Gd420 2.412 1_554 S
O469 C479 1.252 . S
O470 Gd421 2.545 1_556 S
O470 C488 1.258 . S
O471 Gd420 2.362 . S
O471 Gd421 2.606 1_556 S
O471 C487 1.284 . S
O472 Gd420 2.324 . S
O472 C495 1.254 1_556 S
O473 Gd421 2.429 1_556 S
O473 C495 1.268 1_556 S
O474 Gd421 2.545 1_556 S
O474 C487 1.250 . S
O475 Gd421 2.412 1_556 S
O475 C488 1.252 . S
C476 O465 1.284 . S
C476 O468 1.250 . S
C477 H446 0.929 . S
C477 C462 1.437 . S
C477 C478 1.317 . S
C478 H449 0.930 . S
C478 C454 1.431 . S
C478 C477 1.317 . S
C479 Gd420 2.828 1_554 S
C479 O464 1.258 . S
C479 O469 1.252 . S
C479 C480 1.497 . S
C480 C479 1.497 . S
C480 C481 1.395 . S
C480 C482 1.380 . S
C481 C480 1.395 . S
C481 C484 1.398 . S
C481 H496 0.930 . S
C482 C480 1.380 . S
C482 C483 1.391 . S
C482 H497 0.930 . S
C483 C482 1.391 . S
C483 C485 1.387 . S
C484 C481 1.398 . S
C484 C485 1.380 . S
C484 H498 0.930 . S
C485 C483 1.387 . S
C485 C484 1.380 . S
C485 H499 0.930 . S
C486 O466 1.254 1_556 S
C486 O467 1.268 1_556 S
C487 O471 1.284 . S
C487 O474 1.250 . S
C488 Gd421 2.828 1_556 S
C488 O470 1.258 . S
C488 O475 1.252 . S
C488 C489 1.497 . S
C489 C488 1.497 . S
C489 C490 1.395 . S
C489 C491 1.380 . S
C490 C489 1.395 . S
C490 C493 1.398 . S
C490 H500 0.930 . S
C491 C489 1.380 . S
C491 C492 1.391 . S
C491 H501 0.930 . S
C492 C491 1.391 . S
C492 C494 1.387 . S
C493 C490 1.398 . S
C493 C494 1.380 . S
C493 H502 0.930 . S
C494 C492 1.387 . S
C494 C493 1.380 . S
C494 H503 0.930 . S
C495 O472 1.254 1_554 S
C495 O473 1.268 1_554 S
H496 C481 0.930 . S
H497 C482 0.930 . S
H498 C484 0.930 . S
H499 C485 0.930 . S
H500 C490 0.930 . S
H501 C491 0.930 . S
H502 C493 0.930 . S
H503 C494 0.930 . S
Gd504 N535 2.661 . S
Gd504 N541 2.601 . S
Gd504 O548 2.545 1_556 S
Gd504 O549 2.606 1_556 S
Gd504 O551 2.429 1_556 S
Gd504 O552 2.545 1_556 S
Gd504 O553 2.412 1_556 S
Gd504 O555 2.362 . S
Gd504 O556 2.324 . S
Gd504 C563 2.828 1_556 S
Gd505 N514 2.661 . S
Gd505 N518 2.601 . S
Gd505 O549 2.362 . S
Gd505 O550 2.324 . S
Gd505 O554 2.545 1_554 S
Gd505 O555 2.606 1_554 S
Gd505 O557 2.429 1_554 S
Gd505 O558 2.545 1_554 S
Gd505 O559 2.412 1_554 S
Gd505 C572 2.828 1_554 S
C506 C509 1.417 . S
C506 C511 1.431 . S
C506 C512 1.412 . S
C507 C510 1.437 . S
C507 C511 1.317 . S
C507 H526 0.929 . S
C508 C509 1.426 . S
C508 C510 1.413 . S
C508 N518 1.359 . S
C509 C506 1.417 . S
C509 C508 1.426 . S
C509 N514 1.350 . S
C510 C507 1.437 . S
C510 C508 1.413 . S
C510 C520 1.391 . S
C511 C506 1.431 . S
C511 C507 1.317 . S
C511 H522 0.930 . S
C512 C506 1.412 . S
C512 C513 1.355 . S
C512 H524 0.930 . S
C513 C512 1.355 . S
C513 C515 1.402 . S
C513 H525 0.930 . S
N514 Gd505 2.661 . S
N514 C509 1.350 . S
N514 C515 1.307 . S
C515 C513 1.402 . S
C515 N514 1.307 . S
C515 H516 0.930 . S
H516 C515 0.930 . S
C517 N518 1.334 . S
C517 C519 1.394 . S
C517 H521 0.930 . S
N518 Gd505 2.601 . S
N518 C508 1.359 . S
N518 C517 1.334 . S
C519 C517 1.394 . S
C519 C520 1.359 . S
C519 H531 0.930 . S
C520 C510 1.391 . S
C520 C519 1.359 . S
C520 H532 0.929 . S
H521 C517 0.930 . S
H522 C511 0.930 . S
H523 C540 0.930 . S
H524 C512 0.930 . S
H525 C513 0.930 . S
H526 C507 0.929 . S
H527 C545 0.930 . S
H528 C536 0.930 . S
H529 C537 0.930 . S
H530 C561 0.929 . S
H531 C519 0.930 . S
H532 C520 0.929 . S
H533 C562 0.930 . S
H534 C543 0.930 . S
N535 Gd504 2.661 . S
N535 C539 1.350 . S
N535 C540 1.307 . S
C536 H528 0.930 . S
C536 C537 1.355 . S
C536 C538 1.412 . S
C537 H529 0.930 . S
C537 C536 1.355 . S
C537 C540 1.402 . S
C538 C536 1.412 . S
C538 C539 1.417 . S
C538 C562 1.431 . S
C539 N535 1.350 . S
C539 C538 1.417 . S
C539 C542 1.426 . S
C540 H523 0.930 . S
C540 N535 1.307 . S
C540 C537 1.402 . S
N541 Gd504 2.601 . S
N541 C542 1.359 . S
N541 C545 1.334 . S
C542 C539 1.426 . S
C542 N541 1.359 . S
C542 C546 1.413 . S
C543 H534 0.930 . S
C543 C544 1.359 . S
C543 C545 1.394 . S
C544 C543 1.359 . S
C544 C546 1.391 . S
C544 H547 0.929 . S
C545 H527 0.930 . S
C545 N541 1.334 . S
C545 C543 1.394 . S
C546 C542 1.413 . S
C546 C544 1.391 . S
C546 C561 1.437 . S
H547 C544 0.929 . S
O548 Gd504 2.545 1_554 S
O548 C563 1.258 . S
O549 Gd504 2.606 1_554 S
O549 Gd505 2.362 . S
O549 C560 1.284 . S
O550 Gd505 2.324 . S
O550 C570 1.254 1_554 S
O551 Gd504 2.429 1_554 S
O551 C570 1.268 1_554 S
O552 Gd504 2.545 1_554 S
O552 C560 1.250 . S
O553 Gd504 2.412 1_554 S
O553 C563 1.252 . S
O554 Gd505 2.545 1_556 S
O554 C572 1.258 . S
O555 Gd504 2.362 . S
O555 Gd505 2.606 1_556 S
O555 C571 1.284 . S
O556 Gd504 2.324 . S
O556 C579 1.254 1_556 S
O557 Gd505 2.429 1_556 S
O557 C579 1.268 1_556 S
O558 Gd505 2.545 1_556 S
O558 C571 1.250 . S
O559 Gd505 2.412 1_556 S
O559 C572 1.252 . S
C560 O549 1.284 . S
C560 O552 1.250 . S
C561 H530 0.929 . S
C561 C546 1.437 . S
C561 C562 1.317 . S
C562 H533 0.930 . S
C562 C538 1.431 . S
C562 C561 1.317 . S
C563 Gd504 2.828 1_554 S
C563 O548 1.258 . S
C563 O553 1.252 . S
C563 C564 1.497 . S
C564 C563 1.497 . S
C564 C565 1.395 . S
C564 C566 1.380 . S
C565 C564 1.395 . S
C565 C568 1.398 . S
C565 H580 0.930 . S
C566 C564 1.380 . S
C566 C567 1.391 . S
C566 H581 0.930 . S
C567 C566 1.391 . S
C567 C569 1.387 . S
C568 C565 1.398 . S
C568 C569 1.380 . S
C568 H582 0.930 . S
C569 C567 1.387 . S
C569 C568 1.380 . S
C569 H583 0.930 . S
C570 O550 1.254 1_556 S
C570 O551 1.268 1_556 S
C571 O555 1.284 . S
C571 O558 1.250 . S
C572 Gd505 2.828 1_556 S
C572 O554 1.258 . S
C572 O559 1.252 . S
C572 C573 1.497 . S
C573 C572 1.497 . S
C573 C574 1.395 . S
C573 C575 1.380 . S
C574 C573 1.395 . S
C574 C577 1.398 . S
C574 H584 0.930 . S
C575 C573 1.380 . S
C575 C576 1.391 . S
C575 H585 0.930 . S
C576 C575 1.391 . S
C576 C578 1.387 . S
C577 C574 1.398 . S
C577 C578 1.380 . S
C577 H586 0.930 . S
C578 C576 1.387 . S
C578 C577 1.380 . S
C578 H587 0.930 . S
C579 O556 1.254 1_554 S
C579 O557 1.268 1_554 S
H580 C565 0.930 . S
H581 C566 0.930 . S
H582 C568 0.930 . S
H583 C569 0.930 . S
H584 C574 0.930 . S
H585 C575 0.930 . S
H586 C577 0.930 . S
H587 C578 0.930 . S
Gd588 N619 2.661 . S
Gd588 N625 2.601 . S
Gd588 O632 2.545 1_556 S
Gd588 O633 2.606 1_556 S
Gd588 O635 2.429 1_556 S
Gd588 O636 2.545 1_556 S
Gd588 O637 2.412 1_556 S
Gd588 O639 2.362 . S
Gd588 O640 2.324 . S
Gd588 C647 2.828 1_556 S
Gd589 N598 2.661 . S
Gd589 N602 2.601 . S
Gd589 O633 2.362 . S
Gd589 O634 2.324 . S
Gd589 O638 2.545 1_554 S
Gd589 O639 2.606 1_554 S
Gd589 O641 2.429 1_554 S
Gd589 O642 2.545 1_554 S
Gd589 O643 2.412 1_554 S
Gd589 C656 2.828 1_554 S
C590 C593 1.417 . S
C590 C595 1.431 . S
C590 C596 1.412 . S
C591 C594 1.437 . S
C591 C595 1.317 . S
C591 H610 0.929 . S
C592 C593 1.426 . S
C592 C594 1.413 . S
C592 N602 1.359 . S
C593 C590 1.417 . S
C593 C592 1.426 . S
C593 N598 1.350 . S
C594 C591 1.437 . S
C594 C592 1.413 . S
C594 C604 1.391 . S
C595 C590 1.431 . S
C595 C591 1.317 . S
C595 H606 0.930 . S
C596 C590 1.412 . S
C596 C597 1.355 . S
C596 H608 0.930 . S
C597 C596 1.355 . S
C597 C599 1.402 . S
C597 H609 0.930 . S
N598 Gd589 2.661 . S
N598 C593 1.350 . S
N598 C599 1.307 . S
C599 C597 1.402 . S
C599 N598 1.307 . S
C599 H600 0.930 . S
H600 C599 0.930 . S
C601 N602 1.334 . S
C601 C603 1.394 . S
C601 H605 0.930 . S
N602 Gd589 2.601 . S
N602 C592 1.359 . S
N602 C601 1.334 . S
C603 C601 1.394 . S
C603 C604 1.359 . S
C603 H615 0.930 . S
C604 C594 1.391 . S
C604 C603 1.359 . S
C604 H616 0.929 . S
H605 C601 0.930 . S
H606 C595 0.930 . S
H607 C624 0.930 . S
H608 C596 0.930 . S
H609 C597 0.930 . S
H610 C591 0.929 . S
H611 C629 0.930 . S
H612 C620 0.930 . S
H613 C621 0.930 . S
H614 C645 0.929 . S
H615 C603 0.930 . S
H616 C604 0.929 . S
H617 C646 0.930 . S
H618 C627 0.930 . S
N619 Gd588 2.661 . S
N619 C623 1.350 . S
N619 C624 1.307 . S
C620 H612 0.930 . S
C620 C621 1.355 . S
C620 C622 1.412 . S
C621 H613 0.930 . S
C621 C620 1.355 . S
C621 C624 1.402 . S
C622 C620 1.412 . S
C622 C623 1.417 . S
C622 C646 1.431 . S
C623 N619 1.350 . S
C623 C622 1.417 . S
C623 C626 1.426 . S
C624 H607 0.930 . S
C624 N619 1.307 . S
C624 C621 1.402 . S
N625 Gd588 2.601 . S
N625 C626 1.359 . S
N625 C629 1.334 . S
C626 C623 1.426 . S
C626 N625 1.359 . S
C626 C630 1.413 . S
C627 H618 0.930 . S
C627 C628 1.359 . S
C627 C629 1.394 . S
C628 C627 1.359 . S
C628 C630 1.391 . S
C628 H631 0.929 . S
C629 H611 0.930 . S
C629 N625 1.334 . S
C629 C627 1.394 . S
C630 C626 1.413 . S
C630 C628 1.391 . S
C630 C645 1.437 . S
H631 C628 0.929 . S
O632 Gd588 2.545 1_554 S
O632 C647 1.258 . S
O633 Gd588 2.606 1_554 S
O633 Gd589 2.362 . S
O633 C644 1.284 . S
O634 Gd589 2.324 . S
O634 C654 1.254 1_554 S
O635 Gd588 2.429 1_554 S
O635 C654 1.268 1_554 S
O636 Gd588 2.545 1_554 S
O636 C644 1.250 . S
O637 Gd588 2.412 1_554 S
O637 C647 1.252 . S
O638 Gd589 2.545 1_556 S
O638 C656 1.258 . S
O639 Gd588 2.362 . S
O639 Gd589 2.606 1_556 S
O639 C655 1.284 . S
O640 Gd588 2.324 . S
O640 C663 1.254 1_556 S
O641 Gd589 2.429 1_556 S
O641 C663 1.268 1_556 S
O642 Gd589 2.545 1_556 S
O642 C655 1.250 . S
O643 Gd589 2.412 1_556 S
O643 C656 1.252 . S
C644 O633 1.284 . S
C644 O636 1.250 . S
C645 H614 0.929 . S
C645 C630 1.437 . S
C645 C646 1.317 . S
C646 H617 0.930 . S
C646 C622 1.431 . S
C646 C645 1.317 . S
C647 Gd588 2.828 1_554 S
C647 O632 1.258 . S
C647 O637 1.252 . S
C647 C648 1.497 . S
C648 C647 1.497 . S
C648 C649 1.395 . S
C648 C650 1.380 . S
C649 C648 1.395 . S
C649 C652 1.398 . S
C649 H664 0.930 . S
C650 C648 1.380 . S
C650 C651 1.391 . S
C650 H665 0.930 . S
C651 C650 1.391 . S
C651 C653 1.387 . S
C652 C649 1.398 . S
C652 C653 1.380 . S
C652 H666 0.930 . S
C653 C651 1.387 . S
C653 C652 1.380 . S
C653 H667 0.930 . S
C654 O634 1.254 1_556 S
C654 O635 1.268 1_556 S
C655 O639 1.284 . S
C655 O642 1.250 . S
C656 Gd589 2.828 1_556 S
C656 O638 1.258 . S
C656 O643 1.252 . S
C656 C657 1.497 . S
C657 C656 1.497 . S
C657 C658 1.395 . S
C657 C659 1.380 . S
C658 C657 1.395 . S
C658 C661 1.398 . S
C658 H668 0.930 . S
C659 C657 1.380 . S
C659 C660 1.391 . S
C659 H669 0.930 . S
C660 C659 1.391 . S
C660 C662 1.387 . S
C661 C658 1.398 . S
C661 C662 1.380 . S
C661 H670 0.930 . S
C662 C660 1.387 . S
C662 C661 1.380 . S
C662 H671 0.930 . S
C663 O640 1.254 1_554 S
C663 O641 1.268 1_554 S
H664 C649 0.930 . S
H665 C650 0.930 . S
H666 C652 0.930 . S
H667 C653 0.930 . S
H668 C658 0.930 . S
H669 C659 0.930 . S
H670 C661 0.930 . S
H671 C662 0.930 . S
H672 C678 0.930 . S
H673 C682 0.930 . S
H674 C687 0.929 . S
H675 C685 0.929 . S
H676 C680 0.929 . S
H677 C686 0.929 . S
C678 H672 0.930 . S
C678 C679 1.367 . S
C678 C686 1.378 . S
C679 C678 1.367 . S
C679 C687 1.433 . S
C680 H676 0.929 . S
C680 C682 1.378 . S
C680 C684 1.350 . S
C681 C684 1.463 . S
C681 C686 1.350 . S
C681 N689 1.427 . S
C682 H673 0.930 . S
C682 C680 1.378 . S
C682 C683 1.367 . S
C683 C682 1.367 . S
C683 C685 1.433 . S
C684 C680 1.350 . S
C684 C681 1.463 . S
C684 N688 1.427 . S
C685 H675 0.929 . S
C685 C683 1.433 . S
C685 N688 1.384 . S
C686 H677 0.929 . S
C686 C678 1.378 . S
C686 C681 1.350 . S
C687 H674 0.929 . S
C687 C679 1.433 . S
C687 N689 1.384 . S
N688 C684 1.427 . S
N688 C685 1.384 . S
N689 C681 1.427 . S
N689 C687 1.384 . S
H690 C696 0.930 . S
H691 C700 0.930 . S
H692 C705 0.929 . S
H693 C703 0.929 . S
H694 C698 0.929 . S
H695 C704 0.929 . S
C696 H690 0.930 . S
C696 C697 1.367 . S
C696 C704 1.378 . S
C697 C696 1.367 . S
C697 C705 1.433 . S
C698 H694 0.929 . S
C698 C700 1.378 . S
C698 C702 1.350 . S
C699 C702 1.463 . S
C699 C704 1.350 . S
C699 N707 1.427 . S
C700 H691 0.930 . S
C700 C698 1.378 . S
C700 C701 1.367 . S
C701 C700 1.367 . S
C701 C703 1.433 . S
C702 C698 1.350 . S
C702 C699 1.463 . S
C702 N706 1.427 . S
C703 H693 0.929 . S
C703 C701 1.433 . S
C703 N706 1.384 . S
C704 H695 0.929 . S
C704 C696 1.378 . S
C704 C699 1.350 . S
C705 H692 0.929 . S
C705 C697 1.433 . S
C705 N707 1.384 . S
N706 C702 1.427 . S
N706 C703 1.384 . S
N707 C699 1.427 . S
N707 C705 1.384 . S
H708 C714 0.930 . S
H709 C718 0.930 . S
H710 C723 0.929 . S
H711 C721 0.929 . S
H712 C716 0.929 . S
H713 C722 0.929 . S
C714 H708 0.930 . S
C714 C715 1.367 . S
C714 C722 1.378 . S
C715 C714 1.367 . S
C715 C723 1.433 . S
C716 H712 0.929 . S
C716 C718 1.378 . S
C716 C720 1.350 . S
C717 C720 1.463 . S
C717 C722 1.350 . S
C717 N725 1.427 . S
C718 H709 0.930 . S
C718 C716 1.378 . S
C718 C719 1.367 . S
C719 C718 1.367 . S
C719 C721 1.433 . S
C720 C716 1.350 . S
C720 C717 1.463 . S
C720 N724 1.427 . S
C721 H711 0.929 . S
C721 C719 1.433 . S
C721 N724 1.384 . S
C722 H713 0.929 . S
C722 C714 1.378 . S
C722 C717 1.350 . S
C723 H710 0.929 . S
C723 C715 1.433 . S
C723 N725 1.384 . S
N724 C720 1.427 . S
N724 C721 1.384 . S
N725 C717 1.427 . S
N725 C723 1.384 . S
H726 C732 0.930 . S
H727 C736 0.930 . S
H728 C741 0.929 . S
H729 C739 0.929 . S
H730 C734 0.929 . S
H731 C740 0.929 . S
C732 H726 0.930 . S
C732 C733 1.367 . S
C732 C740 1.378 . S
C733 C732 1.367 . S
C733 C741 1.433 . S
C734 H730 0.929 . S
C734 C736 1.378 . S
C734 C738 1.350 . S
C735 C738 1.463 . S
C735 C740 1.350 . S
C735 N743 1.427 . S
C736 H727 0.930 . S
C736 C734 1.378 . S
C736 C737 1.367 . S
C737 C736 1.367 . S
C737 C739 1.433 . S
C738 C734 1.350 . S
C738 C735 1.463 . S
C738 N742 1.427 . S
C739 H729 0.929 . S
C739 C737 1.433 . S
C739 N742 1.384 . S
C740 H731 0.929 . S
C740 C732 1.378 . S
C740 C735 1.350 . S
C741 H728 0.929 . S
C741 C733 1.433 . S
C741 N743 1.384 . S
N742 C738 1.427 . S
N742 C739 1.384 . S
N743 C735 1.427 . S
N743 C741 1.384 . S
H744 C750 0.930 . S
H745 C754 0.930 . S
H746 C759 0.929 . S
H747 C757 0.929 . S
H748 C752 0.929 . S
H749 C758 0.929 . S
C750 H744 0.930 . S
C750 C751 1.367 . S
C750 C758 1.378 . S
C751 C750 1.367 . S
C751 C759 1.433 . S
C752 H748 0.929 . S
C752 C754 1.378 . S
C752 C756 1.350 . S
C753 C756 1.463 1_565 S
C753 C758 1.350 . S
C753 N761 1.427 . S
C754 H745 0.930 . S
C754 C752 1.378 . S
C754 C755 1.367 . S
C755 C754 1.367 . S
C755 C757 1.433 . S
C756 C752 1.350 . S
C756 C753 1.463 1_545 S
C756 N760 1.427 . S
C757 H747 0.929 . S
C757 C755 1.433 . S
C757 N760 1.384 . S
C758 H749 0.929 . S
C758 C750 1.378 . S
C758 C753 1.350 . S
C759 H746 0.929 . S
C759 C751 1.433 . S
C759 N761 1.384 . S
N760 C756 1.427 . S
N760 C757 1.384 . S
N761 C753 1.427 . S
N761 C759 1.384 . S
H762 C768 0.930 . S
H763 C772 0.930 . S
H764 C777 0.929 . S
H765 C775 0.929 . S
H766 C770 0.929 . S
H767 C776 0.929 . S
C768 H762 0.930 . S
C768 C769 1.367 . S
C768 C776 1.378 . S
C769 C768 1.367 . S
C769 C777 1.433 . S
C770 H766 0.929 . S
C770 C772 1.378 . S
C770 C774 1.350 . S
C771 C774 1.463 . S
C771 C776 1.350 . S
C771 N779 1.427 . S
C772 H763 0.930 . S
C772 C770 1.378 . S
C772 C773 1.367 . S
C773 C772 1.367 . S
C773 C775 1.433 . S
C774 C770 1.350 . S
C774 C771 1.463 . S
C774 N778 1.427 . S
C775 H765 0.929 . S
C775 C773 1.433 . S
C775 N778 1.384 . S
C776 H767 0.929 . S
C776 C768 1.378 . S
C776 C771 1.350 . S
C777 H764 0.929 . S
C777 C769 1.433 . S
C777 N779 1.384 . S
N778 C774 1.427 . S
N778 C775 1.384 . S
N779 C771 1.427 . S
N779 C777 1.384 . S
H780 C786 0.930 . S
H781 C790 0.930 . S
H782 C795 0.929 . S
H783 C793 0.929 . S
H784 C788 0.929 1_565 S
H785 C794 0.929 . S
C786 H780 0.930 . S
C786 C787 1.367 . S
C786 C794 1.378 . S
C787 C786 1.367 . S
C787 C795 1.433 . S
C788 H784 0.929 1_545 S
C788 C790 1.378 . S
C788 C792 1.350 . S
C789 C792 1.463 1_565 S
C789 C794 1.350 . S
C789 N797 1.427 . S
C790 H781 0.930 . S
C790 C788 1.378 . S
C790 C791 1.367 . S
C791 C790 1.367 . S
C791 C793 1.433 . S
C792 C788 1.350 . S
C792 C789 1.463 1_545 S
C792 N796 1.427 . S
C793 H783 0.929 . S
C793 C791 1.433 . S
C793 N796 1.384 . S
C794 H785 0.929 . S
C794 C786 1.378 . S
C794 C789 1.350 . S
C795 H782 0.929 . S
C795 C787 1.433 . S
C795 N797 1.384 . S
N796 C792 1.427 . S
N796 C793 1.384 . S
N797 C789 1.427 . S
N797 C795 1.384 . S
H798 C804 0.930 . S
H799 C808 0.930 . S
H800 C813 0.929 . S
H801 C811 0.929 . S
H802 C806 0.929 . S
H803 C812 0.929 . S
C804 H798 0.930 . S
C804 C805 1.367 . S
C804 C812 1.378 . S
C805 C804 1.367 . S
C805 C813 1.433 . S
C806 H802 0.929 . S
C806 C808 1.378 . S
C806 C810 1.350 . S
C807 C810 1.463 . S
C807 C812 1.350 . S
C807 N815 1.427 . S
C808 H799 0.930 . S
C808 C806 1.378 . S
C808 C809 1.367 . S
C809 C808 1.367 . S
C809 C811 1.433 . S
C810 C806 1.350 . S
C810 C807 1.463 . S
C810 N814 1.427 . S
C811 H801 0.929 . S
C811 C809 1.433 . S
C811 N814 1.384 . S
C812 H803 0.929 . S
C812 C804 1.378 . S
C812 C807 1.350 . S
C813 H800 0.929 . S
C813 C805 1.433 . S
C813 N815 1.384 . S
N814 C810 1.427 . S
N814 C811 1.384 . S
N815 C807 1.427 . S
N815 C813 1.384 . S
H816 C822 0.930 . S
H817 C826 0.930 . S
H818 C831 0.929 . S
H819 C829 0.929 . S
H820 C824 0.929 . S
H821 C830 0.929 . S
C822 H816 0.930 . S
C822 C823 1.367 1_556 S
C822 C830 1.378 . S
C823 C822 1.367 1_554 S
C823 C831 1.433 . S
C824 H820 0.929 . S
C824 C826 1.378 . S
C824 C828 1.350 . S
C825 C828 1.463 . S
C825 C830 1.350 1_554 S
C825 N833 1.427 . S
C826 H817 0.930 . S
C826 C824 1.378 . S
C826 C827 1.367 . S
C827 C826 1.367 . S
C827 C829 1.433 1_554 S
C828 C824 1.350 . S
C828 C825 1.463 . S
C828 N832 1.427 1_554 S
C829 H819 0.929 . S
C829 C827 1.433 1_556 S
C829 N832 1.384 . S
C830 H821 0.929 . S
C830 C822 1.378 . S
C830 C825 1.350 1_556 S
C831 H818 0.929 . S
C831 C823 1.433 . S
C831 N833 1.384 . S
N832 C828 1.427 1_556 S
N832 C829 1.384 . S
N833 C825 1.427 . S
N833 C831 1.384 . S
H834 C840 0.930 . S
H835 C844 0.930 . S
H836 C849 0.929 . S
H837 C847 0.929 . S
H838 C842 0.929 . S
H839 C848 0.929 . S
C840 H834 0.930 . S
C840 C841 1.367 . S
C840 C848 1.378 . S
C841 C840 1.367 . S
C841 C849 1.433 1_554 S
C842 H838 0.929 . S
C842 C844 1.378 . S
C842 C846 1.350 1_556 S
C843 C846 1.463 1_565 S
C843 C848 1.350 . S
C843 N851 1.427 1_554 S
C844 H835 0.930 . S
C844 C842 1.378 . S
C844 C845 1.367 1_556 S
C845 C844 1.367 1_554 S
C845 C847 1.433 . S
C846 C842 1.350 1_554 S
C846 C843 1.463 1_545 S
C846 N850 1.427 . S
C847 H837 0.929 . S
C847 C845 1.433 . S
C847 N850 1.384 . S
C848 H839 0.929 . S
C848 C840 1.378 . S
C848 C843 1.350 . S
C849 H836 0.929 . S
C849 C841 1.433 1_556 S
C849 N851 1.384 . S
N850 C846 1.427 . S
N850 C847 1.384 . S
N851 C843 1.427 1_556 S
N851 C849 1.384 . S
H852 C858 0.930 . S
H853 C862 0.930 . S
H854 C867 0.929 . S
H855 C865 0.929 . S
H856 C860 0.929 . S
H857 C866 0.929 . S
C858 H852 0.930 . S
C858 C859 1.367 1_554 S
C858 C866 1.378 . S
C859 C858 1.367 1_556 S
C859 C867 1.433 . S
C860 H856 0.929 . S
C860 C862 1.378 . S
C860 C864 1.350 . S
C861 C864 1.463 . S
C861 C866 1.350 1_556 S
C861 N869 1.427 . S
C862 H853 0.930 . S
C862 C860 1.378 . S
C862 C863 1.367 . S
C863 C862 1.367 . S
C863 C865 1.433 1_556 S
C864 C860 1.350 . S
C864 C861 1.463 . S
C864 N868 1.427 1_556 S
C865 H855 0.929 . S
C865 C863 1.433 1_554 S
C865 N868 1.384 . S
C866 H857 0.929 . S
C866 C858 1.378 . S
C866 C861 1.350 1_554 S
C867 H854 0.929 . S
C867 C859 1.433 . S
C867 N869 1.384 . S
N868 C864 1.427 1_554 S
N868 C865 1.384 . S
N869 C861 1.427 . S
N869 C867 1.384 . S
H870 C876 0.930 . S
H871 C880 0.930 . S
H872 C885 0.929 . S
H873 C883 0.929 . S
H874 C878 0.929 . S
H875 C884 0.929 . S
C876 H870 0.930 . S
C876 C877 1.367 1_554 S
C876 C884 1.378 . S
C877 C876 1.367 1_556 S
C877 C885 1.433 . S
C878 H874 0.929 . S
C878 C880 1.378 . S
C878 C882 1.350 . S
C879 C882 1.463 1_545 S
C879 C884 1.350 1_556 S
C879 N887 1.427 . S
C880 H871 0.930 . S
C880 C878 1.378 . S
C880 C881 1.367 . S
C881 C880 1.367 . S
C881 C883 1.433 1_556 S
C882 C878 1.350 . S
C882 C879 1.463 1_565 S
C882 N886 1.427 1_556 S
C883 H873 0.929 . S
C883 C881 1.433 1_554 S
C883 N886 1.384 . S
C884 H875 0.929 . S
C884 C876 1.378 . S
C884 C879 1.350 1_554 S
C885 H872 0.929 . S
C885 C877 1.433 . S
C885 N887 1.384 . S
N886 C882 1.427 1_554 S
N886 C883 1.384 . S
N887 C879 1.427 . S
N887 C885 1.384 . S
H888 C894 0.930 . S
H889 C898 0.930 . S
H890 C903 0.929 . S
H891 C901 0.929 . S
H892 C896 0.929 . S
H893 C902 0.929 1_556 S
C894 H888 0.930 . S
C894 C895 1.367 . S
C894 C902 1.378 . S
C895 C894 1.367 . S
C895 C903 1.433 . S
C896 H892 0.929 . S
C896 C898 1.378 . S
C896 C900 1.350 . S
C897 C900 1.463 1_554 S
C897 C902 1.350 . S
C897 N905 1.427 . S
C898 H889 0.930 . S
C898 C896 1.378 . S
C898 C899 1.367 . S
C899 C898 1.367 . S
C899 C901 1.433 . S
C900 C896 1.350 . S
C900 C897 1.463 1_556 S
C900 N904 1.427 . S
C901 H891 0.929 . S
C901 C899 1.433 . S
C901 N904 1.384 . S
C902 H893 0.929 1_554 S
C902 C894 1.378 . S
C902 C897 1.350 . S
C903 H890 0.929 . S
C903 C895 1.433 . S
C903 N905 1.384 . S
N904 C900 1.427 . S
N904 C901 1.384 . S
N905 C897 1.427 . S
N905 C903 1.384 . S
H906 C912 0.930 . S
H907 C916 0.930 . S
H908 C921 0.929 . S
H909 C919 0.929 . S
H910 C914 0.929 . S
H911 C920 0.929 . S
C912 H906 0.930 . S
C912 C913 1.367 . S
C912 C920 1.378 . S
C913 C912 1.367 . S
C913 C921 1.433 . S
C914 H910 0.929 . S
C914 C916 1.378 . S
C914 C918 1.350 . S
C915 C918 1.463 1_554 S
C915 C920 1.350 . S
C915 N923 1.427 . S
C916 H907 0.930 . S
C916 C914 1.378 . S
C916 C917 1.367 . S
C917 C916 1.367 . S
C917 C919 1.433 . S
C918 C914 1.350 . S
C918 C915 1.463 1_556 S
C918 N922 1.427 . S
C919 H909 0.929 . S
C919 C917 1.433 . S
C919 N922 1.384 . S
C920 H911 0.929 . S
C920 C912 1.378 . S
C920 C915 1.350 . S
C921 H908 0.929 . S
C921 C913 1.433 . S
C921 N923 1.384 . S
N922 C918 1.427 . S
N922 C919 1.384 . S
N923 C915 1.427 . S
N923 C921 1.384 . S
H924 C930 0.930 . S
H925 C934 0.930 . S
H926 C939 0.929 . S
H927 C937 0.929 . S
H928 C932 0.929 1_554 S
H929 C938 0.929 . S
C930 H924 0.930 . S
C930 C931 1.367 . S
C930 C938 1.378 . S
C931 C930 1.367 . S
C931 C939 1.433 . S
C932 H928 0.929 1_556 S
C932 C934 1.378 . S
C932 C936 1.350 . S
C933 C936 1.463 1_554 S
C933 C938 1.350 . S
C933 N941 1.427 . S
C934 H925 0.930 . S
C934 C932 1.378 . S
C934 C935 1.367 . S
C935 C934 1.367 . S
C935 C937 1.433 . S
C936 C932 1.350 . S
C936 C933 1.463 1_556 S
C936 N940 1.427 . S
C937 H927 0.929 . S
C937 C935 1.433 . S
C937 N940 1.384 . S
C938 H929 0.929 . S
C938 C930 1.378 . S
C938 C933 1.350 . S
C939 H926 0.929 . S
C939 C931 1.433 . S
C939 N941 1.384 . S
N940 C936 1.427 . S
N940 C937 1.384 . S
N941 C933 1.427 . S
N941 C939 1.384 . S
H942 C948 0.930 . S
H943 C952 0.930 . S
H944 C957 0.929 . S
H945 C955 0.929 . S
H946 C950 0.929 . S
H947 C956 0.929 1_554 S
C948 H942 0.930 . S
C948 C949 1.367 . S
C948 C956 1.378 . S
C949 C948 1.367 . S
C949 C957 1.433 . S
C950 H946 0.929 . S
C950 C952 1.378 . S
C950 C954 1.350 . S
C951 C954 1.463 1_556 S
C951 C956 1.350 . S
C951 N959 1.427 . S
C952 H943 0.930 . S
C952 C950 1.378 . S
C952 C953 1.367 . S
C953 C952 1.367 . S
C953 C955 1.433 . S
C954 C950 1.350 . S
C954 C951 1.463 1_554 S
C954 N958 1.427 . S
C955 H945 0.929 . S
C955 C953 1.433 . S
C955 N958 1.384 . S
C956 H947 0.929 1_556 S
C956 C948 1.378 . S
C956 C951 1.350 . S
C957 H944 0.929 . S
C957 C949 1.433 . S
C957 N959 1.384 . S
N958 C954 1.427 . S
N958 C955 1.384 . S
N959 C951 1.427 . S
N959 C957 1.384 . S
H960 C966 0.930 . S
H961 C970 0.930 . S
H962 C975 0.929 . S
H963 C973 0.929 . S
H964 C968 0.929 . S
H965 C974 0.929 . S
C966 H960 0.930 . S
C966 C967 1.367 . S
C966 C974 1.378 . S
C967 C966 1.367 . S
C967 C975 1.433 . S
C968 H964 0.929 . S
C968 C970 1.378 . S
C968 C972 1.350 . S
C969 C972 1.463 . S
C969 C974 1.350 . S
C969 N977 1.427 . S
C970 H961 0.930 . S
C970 C968 1.378 . S
C970 C971 1.367 . S
C971 C970 1.367 . S
C971 C973 1.433 . S
C972 C968 1.350 . S
C972 C969 1.463 . S
C972 N976 1.427 . S
C973 H963 0.929 . S
C973 C971 1.433 . S
C973 N976 1.384 . S
C974 H965 0.929 . S
C974 C966 1.378 . S
C974 C969 1.350 . S
C975 H962 0.929 . S
C975 C967 1.433 . S
C975 N977 1.384 . S
N976 C972 1.427 . S
N976 C973 1.384 . S
N977 C969 1.427 . S
N977 C975 1.384 . S
H978 C984 0.930 . S
H979 C988 0.930 . S
H980 C993 0.929 . S
H981 C991 0.929 . S
H982 C986 0.929 . S
H983 C992 0.929 . S
C984 H978 0.930 . S
C984 C985 1.367 . S
C984 C992 1.378 . S
C985 C984 1.367 . S
C985 C993 1.433 . S
C986 H982 0.929 . S
C986 C988 1.378 . S
C986 C990 1.350 . S
C987 C990 1.463 . S
C987 C992 1.350 . S
C987 N995 1.427 . S
C988 H979 0.930 . S
C988 C986 1.378 . S
C988 C989 1.367 . S
C989 C988 1.367 . S
C989 C991 1.433 . S
C990 C986 1.350 . S
C990 C987 1.463 . S
C990 N994 1.427 . S
C991 H981 0.929 . S
C991 C989 1.433 . S
C991 N994 1.384 . S
C992 H983 0.929 . S
C992 C984 1.378 . S
C992 C987 1.350 . S
C993 H980 0.929 . S
C993 C985 1.433 . S
C993 N995 1.384 . S
N994 C990 1.427 . S
N994 C991 1.384 . S
N995 C987 1.427 . S
N995 C993 1.384 . S
H996 C1002 0.930 . S
H997 C1006 0.930 . S
H998 C1011 0.929 . S
H999 C1009 0.929 . S
H1000 C1004 0.929 . S
H1001 C1010 0.929 . S
C1002 H996 0.930 . S
C1002 C1003 1.367 . S
C1002 C1010 1.378 . S
C1003 C1002 1.367 . S
C1003 C1011 1.433 . S
C1004 H1000 0.929 . S
C1004 C1006 1.378 . S
C1004 C1008 1.350 . S
C1005 C1008 1.463 . S
C1005 C1010 1.350 . S
C1005 N1013 1.427 . S
C1006 H997 0.930 . S
C1006 C1004 1.378 . S
C1006 C1007 1.367 . S
C1007 C1006 1.367 . S
C1007 C1009 1.433 . S
C1008 C1004 1.350 . S
C1008 C1005 1.463 . S
C1008 N1012 1.427 . S
C1009 H999 0.929 . S
C1009 C1007 1.433 . S
C1009 N1012 1.384 . S
C1010 H1001 0.929 . S
C1010 C1002 1.378 . S
C1010 C1005 1.350 . S
C1011 H998 0.929 . S
C1011 C1003 1.433 . S
C1011 N1013 1.384 . S
N1012 C1008 1.427 . S
N1012 C1009 1.384 . S
N1013 C1005 1.427 . S
N1013 C1011 1.384 . S
H1014 C1020 0.930 . S
H1015 C1024 0.930 . S
H1016 C1029 0.929 . S
H1017 C1027 0.929 . S
H1018 C1022 0.929 . S
H1019 C1028 0.929 . S
C1020 H1014 0.930 . S
C1020 C1021 1.367 . S
C1020 C1028 1.378 . S
C1021 C1020 1.367 . S
C1021 C1029 1.433 . S
C1022 H1018 0.929 . S
C1022 C1024 1.378 . S
C1022 C1026 1.350 . S
C1023 C1026 1.463 . S
C1023 C1028 1.350 . S
C1023 N1031 1.427 . S
C1024 H1015 0.930 . S
C1024 C1022 1.378 . S
C1024 C1025 1.367 . S
C1025 C1024 1.367 . S
C1025 C1027 1.433 . S
C1026 C1022 1.350 . S
C1026 C1023 1.463 . S
C1026 N1030 1.427 . S
C1027 H1017 0.929 . S
C1027 C1025 1.433 . S
C1027 N1030 1.384 . S
C1028 H1019 0.929 . S
C1028 C1020 1.378 . S
C1028 C1023 1.350 . S
C1029 H1016 0.929 . S
C1029 C1021 1.433 . S
C1029 N1031 1.384 . S
N1030 C1026 1.427 . S
N1030 C1027 1.384 . S
N1031 C1023 1.427 . S
N1031 C1029 1.384 . S
H1032 C1038 0.930 . S
H1033 C1042 0.930 . S
H1034 C1047 0.929 . S
H1035 C1045 0.929 . S
H1036 C1040 0.929 . S
H1037 C1046 0.929 . S
C1038 H1032 0.930 . S
C1038 C1039 1.367 . S
C1038 C1046 1.378 . S
C1039 C1038 1.367 . S
C1039 C1047 1.433 . S
C1040 H1036 0.929 . S
C1040 C1042 1.378 . S
C1040 C1044 1.350 . S
C1041 C1044 1.463 1_455 S
C1041 C1046 1.350 . S
C1041 N1049 1.427 . S
C1042 H1033 0.930 . S
C1042 C1040 1.378 . S
C1042 C1043 1.367 . S
C1043 C1042 1.367 . S
C1043 C1045 1.433 . S
C1044 C1040 1.350 . S
C1044 C1041 1.463 1_655 S
C1044 N1048 1.427 . S
C1045 H1035 0.929 . S
C1045 C1043 1.433 . S
C1045 N1048 1.384 . S
C1046 H1037 0.929 . S
C1046 C1038 1.378 . S
C1046 C1041 1.350 . S
C1047 H1034 0.929 . S
C1047 C1039 1.433 . S
C1047 N1049 1.384 . S
N1048 C1044 1.427 . S
N1048 C1045 1.384 . S
N1049 C1041 1.427 . S
N1049 C1047 1.384 . S
H1050 C1056 0.930 . S
H1051 C1060 0.930 . S
H1052 C1065 0.929 . S
H1053 C1063 0.929 . S
H1054 C1058 0.929 . S
H1055 C1064 0.929 . S
C1056 H1050 0.930 . S
C1056 C1057 1.367 . S
C1056 C1064 1.378 . S
C1057 C1056 1.367 . S
C1057 C1065 1.433 . S
C1058 H1054 0.929 . S
C1058 C1060 1.378 . S
C1058 C1062 1.350 . S
C1059 C1062 1.463 1_655 S
C1059 C1064 1.350 . S
C1059 N1067 1.427 . S
C1060 H1051 0.930 . S
C1060 C1058 1.378 . S
C1060 C1061 1.367 . S
C1061 C1060 1.367 . S
C1061 C1063 1.433 . S
C1062 C1058 1.350 . S
C1062 C1059 1.463 1_455 S
C1062 N1066 1.427 . S
C1063 H1053 0.929 . S
C1063 C1061 1.433 . S
C1063 N1066 1.384 . S
C1064 H1055 0.929 . S
C1064 C1056 1.378 . S
C1064 C1059 1.350 . S
C1065 H1052 0.929 . S
C1065 C1057 1.433 . S
C1065 N1067 1.384 . S
N1066 C1062 1.427 . S
N1066 C1063 1.384 . S
N1067 C1059 1.427 . S
N1067 C1065 1.384 . S
H1068 C1074 0.930 . S
H1069 C1078 0.930 . S
H1070 C1083 0.929 . S
H1071 C1081 0.929 . S
H1072 C1076 0.929 . S
H1073 C1082 0.929 . S
C1074 H1068 0.930 . S
C1074 C1075 1.367 . S
C1074 C1082 1.378 . S
C1075 C1074 1.367 . S
C1075 C1083 1.433 . S
C1076 H1072 0.929 . S
C1076 C1078 1.378 . S
C1076 C1080 1.350 . S
C1077 C1080 1.463 . S
C1077 C1082 1.350 . S
C1077 N1085 1.427 . S
C1078 H1069 0.930 . S
C1078 C1076 1.378 . S
C1078 C1079 1.367 . S
C1079 C1078 1.367 . S
C1079 C1081 1.433 . S
C1080 C1076 1.350 . S
C1080 C1077 1.463 . S
C1080 N1084 1.427 . S
C1081 H1071 0.929 . S
C1081 C1079 1.433 . S
C1081 N1084 1.384 . S
C1082 H1073 0.929 . S
C1082 C1074 1.378 . S
C1082 C1077 1.350 . S
C1083 H1070 0.929 . S
C1083 C1075 1.433 . S
C1083 N1085 1.384 . S
N1084 C1080 1.427 . S
N1084 C1081 1.384 . S
N1085 C1077 1.427 . S
N1085 C1083 1.384 . S
H1086 C1092 0.930 . S
H1087 C1096 0.930 . S
H1088 C1101 0.929 . S
H1089 C1099 0.929 . S
H1090 C1094 0.929 . S
H1091 C1100 0.929 . S
C1092 H1086 0.930 . S
C1092 C1093 1.367 . S
C1092 C1100 1.378 . S
C1093 C1092 1.367 . S
C1093 C1101 1.433 . S
C1094 H1090 0.929 . S
C1094 C1096 1.378 . S
C1094 C1098 1.350 . S
C1095 C1098 1.463 . S
C1095 C1100 1.350 . S
C1095 N1103 1.427 . S
C1096 H1087 0.930 . S
C1096 C1094 1.378 . S
C1096 C1097 1.367 . S
C1097 C1096 1.367 . S
C1097 C1099 1.433 . S
C1098 C1094 1.350 . S
C1098 C1095 1.463 . S
C1098 N1102 1.427 . S
C1099 H1089 0.929 . S
C1099 C1097 1.433 . S
C1099 N1102 1.384 . S
C1100 H1091 0.929 . S
C1100 C1092 1.378 . S
C1100 C1095 1.350 . S
C1101 H1088 0.929 . S
C1101 C1093 1.433 . S
C1101 N1103 1.384 . S
N1102 C1098 1.427 . S
N1102 C1099 1.384 . S
N1103 C1095 1.427 . S
N1103 C1101 1.384 . S
C679 C63 1.481 . S
C683 C660 1.480 . S
C697 C576 1.465 . S
C701 C147 1.464 . S
C715 C483 1.468 . S
C719 C240 1.467 . S
C733 C399 1.483 . S
C737 C324 1.482 . S
C751 C243 1.485 . S
C755 C75 1.557 . S
C769 C159 1.549 . S
C773 C327 1.500 . S
C787 C318 1.549 . S
C791 C150 1.496 . S
C805 C234 1.553 . S
C809 C66 1.495 . S
C823 C411 1.466 . S
C827 C579 1.477 . S
C841 C495 1.479 . S
C845 C663 1.466 . S
C859 C654 1.467 . S
C863 C486 1.479 . S
C877 C570 1.465 . S
C881 C402 1.478 . S
C895 C67 1.882 . S
C899 C56 1.882 . S
C913 C151 1.883 . S
C917 C140 1.883 . S
C931 C235 1.876 . S
C935 C224 1.876 . S
C949 C308 1.877 . S
C953 C319 1.877 . S
C967 C392 1.874 . S
C971 C403 1.874 . S
C985 C487 1.872 . S
C989 C476 1.872 . S
C1003 C560 1.872 . S
C1007 C571 1.872 . S
C1021 C644 1.880 . S
C1025 C655 1.880 . S
C1039 C72 1.750 . S
C1043 C156 1.740 . S
C1057 C315 1.753 . S
C1061 C231 1.742 . S
C1075 C408 1.744 . S
C1079 C492 1.738 . S
C1093 C651 1.742 . S
C1097 C567 1.753 . S
