# Generated by pormake.
# Topology fna, (5)-cn, num edge types: 1
# Building blocks:
#     Node 0, Type 0, BuildingBlock: BEQFEK_clean_sbu_0, # of connection points: 5
#     Node 1, Type 0, BuildingBlock: BEQFEK_clean_sbu_0, # of connection points: 5
#     Node 2, Type 0, BuildingBlock: BEQFEK_clean_sbu_0, # of connection points: 5
#     Node 3, Type 0, BuildingBlock: BEQFEK_clean_sbu_0, # of connection points: 5
#     Node 4, Type 0, BuildingBlock: BEQFEK_clean_sbu_0, # of connection points: 5
#     Node 5, Type 0, BuildingBlock: BEQFEK_clean_sbu_0, # of connection points: 5
#     Node 6, Type 0, BuildingBlock: BEQFEK_clean_sbu_0, # of connection points: 5
#     Node 7, Type 0, BuildingBlock: BEQFEK_clean_sbu_0, # of connection points: 5
#     Node 8, Type 0, BuildingBlock: BEQFEK_clean_sbu_0, # of connection points: 5
#     Node 9, Type 0, BuildingBlock: BEQFEK_clean_sbu_0, # of connection points: 5
#     Node 10, Type 0, BuildingBlock: BEQFEK_clean_sbu_0, # of connection points: 5
#     Node 11, Type 0, BuildingBlock: BEQFEK_clean_sbu_0, # of connection points: 5
#     Edge 12, Type (0, 0), BuildingBlock: ZUJKAS_clean_linker_0, # of connection points: 2
#     Edge 13, Type (0, 0), BuildingBlock: ZUJKAS_clean_linker_0, # of connection points: 2
#     Edge 14, Type (0, 0), BuildingBlock: ZUJKAS_clean_linker_0, # of connection points: 2
#     Edge 15, Type (0, 0), BuildingBlock: ZUJKAS_clean_linker_0, # of connection points: 2
#     Edge 16, Type (0, 0), BuildingBlock: ZUJKAS_clean_linker_0, # of connection points: 2
#     Edge 17, Type (0, 0), BuildingBlock: ZUJKAS_clean_linker_0, # of connection points: 2
#     Edge 18, Type (0, 0), BuildingBlock: ZUJKAS_clean_linker_0, # of connection points: 2
#     Edge 19, Type (0, 0), BuildingBlock: ZUJKAS_clean_linker_0, # of connection points: 2
#     Edge 20, Type (0, 0), BuildingBlock: ZUJKAS_clean_linker_0, # of connection points: 2
#     Edge 21, Type (0, 0), BuildingBlock: ZUJKAS_clean_linker_0, # of connection points: 2
#     Edge 22, Type (0, 0), BuildingBlock: ZUJKAS_clean_linker_0, # of connection points: 2
#     Edge 23, Type (0, 0), BuildingBlock: ZUJKAS_clean_linker_0, # of connection points: 2
#     Edge 24, Type (0, 0), BuildingBlock: ZUJKAS_clean_linker_0, # of connection points: 2
#     Edge 25, Type (0, 0), BuildingBlock: ZUJKAS_clean_linker_0, # of connection points: 2
#     Edge 26, Type (0, 0), BuildingBlock: ZUJKAS_clean_linker_0, # of connection points: 2
#     Edge 27, Type (0, 0), BuildingBlock: ZUJKAS_clean_linker_0, # of connection points: 2
#     Edge 28, Type (0, 0), BuildingBlock: ZUJKAS_clean_linker_0, # of connection points: 2
#     Edge 29, Type (0, 0), BuildingBlock: ZUJKAS_clean_linker_0, # of connection points: 2
#     Edge 30, Type (0, 0), BuildingBlock: ZUJKAS_clean_linker_0, # of connection points: 2
#     Edge 31, Type (0, 0), BuildingBlock: ZUJKAS_clean_linker_0, # of connection points: 2
#     Edge 32, Type (0, 0), BuildingBlock: ZUJKAS_clean_linker_0, # of connection points: 2
#     Edge 33, Type (0, 0), BuildingBlock: ZUJKAS_clean_linker_0, # of connection points: 2
#     Edge 34, Type (0, 0), BuildingBlock: ZUJKAS_clean_linker_0, # of connection points: 2
#     Edge 35, Type (0, 0), BuildingBlock: ZUJKAS_clean_linker_0, # of connection points: 2
#     Edge 36, Type (0, 0), BuildingBlock: ZUJKAS_clean_linker_0, # of connection points: 2
#     Edge 37, Type (0, 0), BuildingBlock: ZUJKAS_clean_linker_0, # of connection points: 2
#     Edge 38, Type (0, 0), BuildingBlock: ZUJKAS_clean_linker_0, # of connection points: 2
#     Edge 39, Type (0, 0), BuildingBlock: ZUJKAS_clean_linker_0, # of connection points: 2
#     Edge 40, Type (0, 0), BuildingBlock: ZUJKAS_clean_linker_0, # of connection points: 2
#     Edge 41, Type (0, 0), BuildingBlock: ZUJKAS_clean_linker_0, # of connection points: 2
# Relax obj value: 0.677
# Max RMSD: 0.270
# Mean RMSD: 0.270
data_MOF--net-fna--node1-BEQFEK_clean_sbu_0--edge1-ZUJKAS_clean_linker_0
_symmetry_space_group_name_H-M    P1
_symmetry_Int_Tables_number       1
_symmetry_cell_setting            triclinic
loop_
_symmetry_equiv_pos_as_xyz
'x, y, z'
_cell_length_a     56.635758
_cell_length_b     56.622888
_cell_length_c     50.56354
_cell_angle_alpha  90.007176
_cell_angle_beta   90.018845
_cell_angle_gamma 120.03482
loop_
_atom_site_label
_atom_site_type_symbol
_atom_site_fract_x
_atom_site_fract_y
_atom_site_fract_z
_atom_type_partial_charge
Co0 Co 0.34899 0.34534 0.48201 0.0
Co1 Co 0.33645 0.3133 0.42871 0.0
C2 C 0.38871 0.36583 0.4374 0.0
O3 O 0.38043 0.36768 0.46017 0.0
O4 O 0.37424 0.34545 0.42244 0.0
C5 C 0.38116 0.37705 0.52588 0.0
O6 O 0.40182 0.38284 0.51016 0.0
C7 C 0.3413 0.27851 0.38839 0.0
C8 C 0.30225 0.26266 0.36698 0.0
C9 C 0.32594 0.26112 0.36784 0.0
N10 N 0.32716 0.28945 0.399 0.0
N11 N 0.304 0.28013 0.38593 0.0
C12 C 0.36795 0.28345 0.39934 0.0
H13 H 0.37142 0.29261 0.41938 0.0
H14 H 0.36841 0.2641 0.40025 0.0
H15 H 0.38472 0.29794 0.3863 0.0
C16 C 0.33995 0.29329 0.50355 0.0
N17 N 0.34169 0.30904 0.48291 0.0
N18 N 0.3351 0.29458 0.46098 0.0
C19 C 0.32813 0.26866 0.46727 0.0
C20 C 0.33105 0.26705 0.49446 0.0
C21 C 0.34804 0.30378 0.5312 0.0
H22 H 0.36826 0.32263 0.53084 0.0
H23 H 0.34941 0.28883 0.5443 0.0
H24 H 0.33301 0.30895 0.5394 0.0
O25 O 0.31723 0.34662 0.46884 0.0
O26 O 0.30826 0.32488 0.43041 0.0
H27 H 0.30356 0.22571 0.45857 0.0
H28 H 0.33359 0.24412 0.43859 0.0
C29 C 0.31663 0.24531 0.44821 0.0
H30 H 0.30444 0.24826 0.4328 0.0
H31 H 0.2891 0.28523 0.39031 0.0
O32 O 0.35697 0.36133 0.51778 0.0
C33 C 0.30297 0.33779 0.44792 0.0
Co34 Co 0.00613 0.34645 0.64971 0.0
Co35 Co 0.02493 0.33503 0.59548 0.0
C36 C 0.02902 0.38864 0.60706 0.0
O37 O 0.0194 0.38015 0.62996 0.0
O38 O 0.03179 0.37326 0.59046 0.0
C39 C 0.01389 0.37747 0.69598 0.0
O40 O 0.03633 0.39511 0.68375 0.0
C41 C 0.0614 0.34023 0.55117 0.0
C42 C 0.04199 0.29752 0.53733 0.0
C43 C 0.06416 0.32328 0.53304 0.0
N44 N 0.03892 0.32499 0.56577 0.0
N45 N 0.02727 0.29957 0.55715 0.0
C46 C 0.07891 0.37055 0.55384 0.0
H47 H 0.09104 0.37548 0.5723 0.0
H48 H 0.09276 0.37964 0.53668 0.0
H49 H 0.06585 0.37992 0.55522 0.0
C50 C 0.04634 0.33239 0.6702 0.0
N51 N 0.03282 0.33594 0.65013 0.0
N52 N 0.04192 0.33221 0.62744 0.0
C53 C 0.06201 0.32655 0.63254 0.0
C54 C 0.06536 0.32642 0.65977 0.0
C55 C 0.04226 0.33645 0.69874 0.0
H56 H 0.02016 0.3269 0.70308 0.0
H57 H 0.05202 0.35862 0.70283 0.0
H58 H 0.05146 0.32773 0.71209 0.0
O59 O 0.97203 0.31737 0.63492 0.0
O60 O 0.98475 0.3079 0.59674 0.0
H61 H 0.06292 0.30445 0.59862 0.0
H62 H 0.09143 0.31474 0.62084 0.0
C63 C 0.07745 0.32093 0.61188 0.0
H64 H 0.08952 0.33951 0.59981 0.0
H65 H 0.00956 0.28346 0.56521 0.0
O66 O 0.99819 0.35452 0.6853 0.0
C67 C 0.96635 0.30347 0.61375 0.0
Co68 Co 0.65878 0.01039 0.8181 0.0
Co69 Co 0.68922 0.02823 0.76381 0.0
C70 C 0.63521 0.02478 0.77219 0.0
O71 O 0.63466 0.01643 0.79555 0.0
O72 O 0.65538 0.03078 0.75694 0.0
C73 C 0.63176 0.01783 0.86151 0.0
O74 O 0.63036 0.0352 0.84527 0.0
C75 C 0.72082 0.06535 0.71987 0.0
C76 C 0.74239 0.04482 0.70434 0.0
C77 C 0.73983 0.06773 0.70107 0.0
N78 N 0.71296 0.04234 0.73383 0.0
N79 N 0.72575 0.03007 0.72422 0.0
C80 C 0.70937 0.0839 0.72374 0.0
H81 H 0.72162 0.09966 0.73868 0.0
H82 H 0.70986 0.09427 0.70494 0.0
H83 H 0.68814 0.07232 0.73106 0.0
C84 C 0.7104 0.05645 0.83733 0.0
N85 N 0.69438 0.04067 0.81755 0.0
N86 N 0.70801 0.04816 0.79512 0.0
C87 C 0.73357 0.06879 0.80022 0.0
C88 C 0.73565 0.07489 0.82705 0.0
C89 C 0.70221 0.05281 0.86585 0.0
H90 H 0.69231 0.03092 0.8712 0.0
H91 H 0.68731 0.05982 0.86899 0.0
H92 H 0.71998 0.06459 0.87905 0.0
O93 O 0.65898 0.97744 0.80697 0.0
O94 O 0.67962 0.98903 0.7679 0.0
H95 H 0.75608 0.06623 0.76736 0.0
H96 H 0.77601 0.0944 0.78957 0.0
C97 C 0.75578 0.08201 0.78009 0.0
H98 H 0.75183 0.09562 0.76744 0.0
H99 H 0.72351 0.01185 0.73159 0.0
O100 O 0.6433 0.00469 0.8539 0.0
C101 C 0.66781 0.97157 0.78631 0.0
Co102 Co 0.6492 0.66351 0.98687 0.0
Co103 Co 0.66095 0.69027 0.93078 0.0
C104 C 0.60741 0.6406 0.94417 0.0
O105 O 0.61584 0.64113 0.9675 0.0
O106 O 0.62268 0.65795 0.92685 0.0
C107 C 0.62705 0.62621 0.02948 0.0
O108 O 0.61815 0.60798 0.01043 0.0
C109 C 0.65588 0.72049 0.88543 0.0
C110 C 0.69806 0.74143 0.87008 0.0
C111 C 0.6728 0.73932 0.86661 0.0
N112 N 0.67071 0.71246 0.89966 0.0
N113 N 0.69578 0.72475 0.89008 0.0
C114 C 0.62593 0.70946 0.88929 0.0
H115 H 0.62262 0.71981 0.9063 0.0
H116 H 0.61648 0.71251 0.87135 0.0
H117 H 0.61567 0.68739 0.89381 0.0
C118 C 0.66027 0.71754 0.00327 0.0
N119 N 0.65837 0.70004 0.98435 0.0
N120 N 0.66362 0.71212 0.96111 0.0
C121 C 0.66966 0.73825 0.96482 0.0
C122 C 0.66743 0.74228 0.99161 0.0
C123 C 0.65539 0.71056 0.03205 0.0
H124 H 0.66884 0.70272 0.03878 0.0
H125 H 0.63394 0.69415 0.03494 0.0
H126 H 0.65945 0.72848 0.04429 0.0
O127 O 0.679 0.65847 0.97414 0.0
O128 O 0.68835 0.67777 0.93444 0.0
H129 H 0.69256 0.75846 0.93011 0.0
H130 H 0.68559 0.7798 0.95162 0.0
C131 C 0.67723 0.75897 0.94335 0.0
H132 H 0.65889 0.75405 0.9315 0.0
H133 H 0.71159 0.72243 0.89777 0.0
O134 O 0.64145 0.65134 0.02375 0.0
C135 C 0.69299 0.66533 0.95297 0.0
Co136 Co 0.98347 0.64403 0.15302 0.0
Co137 Co 0.96927 0.65784 0.09764 0.0
C138 C 0.96418 0.60326 0.10998 0.0
O139 O 0.97168 0.61056 0.13363 0.0
O140 O 0.96302 0.6195 0.09321 0.0
C141 C 0.00291 0.62545 0.19507 0.0
O142 O 0.01542 0.62043 0.17588 0.0
C143 C 0.9311 0.65295 0.05566 0.0
C144 C 0.95501 0.69186 0.0342 0.0
C145 C 0.92959 0.66844 0.03506 0.0
N146 N 0.95602 0.66688 0.06669 0.0
N147 N 0.9703 0.68997 0.05356 0.0
C148 C 0.90973 0.62498 0.06426 0.0
H149 H 0.91933 0.61374 0.07264 0.0
H150 H 0.89693 0.62658 0.07993 0.0
H151 H 0.89643 0.61332 0.04739 0.0
C152 C 0.94237 0.65743 0.17053 0.0
N153 N 0.9566 0.65399 0.15119 0.0
N154 N 0.95086 0.66101 0.12831 0.0
C155 C 0.93324 0.67018 0.1327 0.0
C156 C 0.92728 0.66812 0.15961 0.0
C157 C 0.94252 0.64943 0.19874 0.0
H158 H 0.94124 0.62925 0.19945 0.0
H159 H 0.92517 0.64816 0.21009 0.0
H160 H 0.96196 0.66461 0.20819 0.0
O161 O 0.01855 0.67396 0.14015 0.0
O162 O 0.00909 0.68494 0.10099 0.0
H163 H 0.91871 0.6975 0.12157 0.0
H164 H 0.9065 0.66745 0.10151 0.0
C165 C 0.9245 0.68337 0.11226 0.0
H166 H 0.94118 0.69484 0.09792 0.0
H167 H 0.99028 0.70477 0.05824 0.0
O168 O 0.98854 0.63628 0.18967 0.0
C169 C 0.02599 0.68874 0.11945 0.0
Co170 Co 0.34507 0.99432 0.31272 0.0
Co171 Co 0.31058 0.97396 0.26055 0.0
C172 C 0.36171 0.97134 0.26831 0.0
O173 O 0.36437 0.98092 0.29146 0.0
O174 O 0.34246 0.96836 0.25306 0.0
C175 C 0.37861 0.99583 0.35612 0.0
O176 O 0.38557 0.98199 0.34023 0.0
C177 C 0.27711 0.93515 0.21871 0.0
C178 C 0.25112 0.95208 0.2064 0.0
C179 C 0.25563 0.9305 0.20207 0.0
N180 N 0.28449 0.95813 0.23255 0.0
N181 N 0.2691 0.9683 0.22483 0.0
C182 C 0.29137 0.91896 0.22071 0.0
H183 H 0.28834 0.90993 0.24075 0.0
H184 H 0.28415 0.90267 0.20553 0.0
H185 H 0.31357 0.93274 0.21793 0.0
C186 C 0.29336 0.95328 0.33635 0.0
N187 N 0.3083 0.96698 0.31521 0.0
N188 N 0.29353 0.95743 0.29359 0.0
C189 C 0.26841 0.93715 0.30049 0.0
C190 C 0.26763 0.93375 0.32782 0.0
C191 C 0.30349 0.95942 0.36427 0.0
H192 H 0.31388 0.98174 0.3677 0.0
H193 H 0.31855 0.95262 0.36748 0.0
H194 H 0.28666 0.94915 0.37877 0.0
O195 O 0.34851 0.02779 0.2977 0.0
O196 O 0.32224 0.01378 0.26187 0.0
H197 H 0.24154 0.93419 0.26931 0.0
H198 H 0.22728 0.90502 0.29121 0.0
C199 C 0.24613 0.92053 0.28121 0.0
H200 H 0.25305 0.90993 0.26757 0.0
H201 H 0.27041 0.98598 0.23264 0.0
O202 O 0.36195 0.00316 0.34815 0.0
C203 C 0.33791 0.03266 0.27778 0.0
Co204 Co 0.65274 0.64563 0.34785 0.0
Co205 Co 0.68589 0.66286 0.40086 0.0
C206 C 0.63748 0.60676 0.39252 0.0
O207 O 0.63458 0.61297 0.36916 0.0
O208 O 0.65577 0.62411 0.40792 0.0
C209 C 0.62151 0.61198 0.30422 0.0
O210 O 0.61594 0.59169 0.32036 0.0
C211 C 0.72297 0.6614 0.44098 0.0
C212 C 0.73858 0.70143 0.46045 0.0
C213 C 0.74095 0.67823 0.4604 0.0
N214 N 0.71098 0.67434 0.42986 0.0
N215 N 0.72025 0.69815 0.44176 0.0
C216 C 0.71631 0.63304 0.43383 0.0
H217 H 0.6954 0.62125 0.42576 0.0
H218 H 0.73057 0.6339 0.41836 0.0
H219 H 0.71826 0.62233 0.45135 0.0
C220 C 0.70629 0.66053 0.32581 0.0
N221 N 0.69015 0.65746 0.34653 0.0
N222 N 0.70481 0.66547 0.36835 0.0
C223 C 0.73119 0.67474 0.36186 0.0
C224 C 0.73292 0.67183 0.33471 0.0
C225 C 0.69585 0.65117 0.29834 0.0
H226 H 0.6782 0.63012 0.29912 0.0
H227 H 0.71155 0.65119 0.28526 0.0
H228 H 0.68877 0.66462 0.28984 0.0
O229 O 0.64718 0.675 0.36159 0.0
O230 O 0.67133 0.68854 0.3987 0.0
H231 H 0.77398 0.70157 0.37002 0.0
H232 H 0.75693 0.67247 0.39144 0.0
C233 C 0.75465 0.68826 0.38069 0.0
H234 H 0.75094 0.70067 0.39524 0.0
H235 H 0.71438 0.71237 0.43683 0.0
O236 O 0.63669 0.63641 0.31204 0.0
C237 C 0.65599 0.69074 0.38159 0.0
Co238 Co 0.00755 0.65558 0.51172 0.0
Co239 Co 0.02593 0.68603 0.566 0.0
C240 C 0.02146 0.63178 0.55794 0.0
O241 O 0.01303 0.63125 0.53461 0.0
O242 O 0.02805 0.65215 0.57309 0.0
C243 C 0.016 0.62898 0.46864 0.0
O244 O 0.03357 0.62825 0.4851 0.0
C245 C 0.06274 0.71591 0.61021 0.0
C246 C 0.04646 0.74221 0.62331 0.0
C247 C 0.06735 0.73668 0.62779 0.0
N248 N 0.04053 0.70996 0.5957 0.0
N249 N 0.03066 0.72545 0.60393 0.0
C250 C 0.07834 0.70108 0.60776 0.0
H251 H 0.08794 0.70481 0.58794 0.0
H252 H 0.0941 0.70718 0.62336 0.0
H253 H 0.06402 0.67885 0.60947 0.0
C254 C 0.05356 0.70709 0.49244 0.0
N255 N 0.03797 0.69105 0.51227 0.0
N256 N 0.04618 0.70436 0.53481 0.0
C257 C 0.06747 0.72958 0.52988 0.0
C258 C 0.07295 0.73193 0.50288 0.0
C259 C 0.04849 0.69953 0.46376 0.0
H260 H 0.02629 0.68874 0.45966 0.0
H261 H 0.05642 0.68566 0.45894 0.0
H262 H 0.05868 0.71774 0.45081 0.0
O263 O 0.97489 0.65631 0.52261 0.0
O264 O 0.9869 0.67713 0.56162 0.0
H265 H 0.06766 0.75455 0.56174 0.0
H266 H 0.09836 0.77033 0.54189 0.0
C267 C 0.08235 0.75088 0.55056 0.0
H268 H 0.09222 0.7435 0.5646 0.0
H269 H 0.01362 0.72519 0.59573 0.0
O270 O 0.0022 0.63991 0.476 0.0
C271 C 0.96934 0.66547 0.54323 0.0
Co272 Co 0.35296 0.00959 0.67588 0.0
Co273 Co 0.33657 0.0236 0.73028 0.0
C274 C 0.39195 0.03066 0.72134 0.0
O275 O 0.38534 0.02227 0.69776 0.0
O276 O 0.3751 0.03189 0.73722 0.0
C277 C 0.38694 0.01422 0.63178 0.0
O278 O 0.40706 0.02809 0.64837 0.0
C279 C 0.33718 0.0579 0.77427 0.0
C280 C 0.29457 0.03454 0.78831 0.0
C281 C 0.31905 0.05845 0.7924 0.0
N282 N 0.32397 0.03474 0.76015 0.0
N283 N 0.29863 0.02068 0.76892 0.0
C284 C 0.36565 0.08013 0.76851 0.0
H285 H 0.37179 0.07784 0.74826 0.0
H286 H 0.36735 0.10044 0.77063 0.0
H287 H 0.37977 0.07886 0.7829 0.0
C288 C 0.3394 0.05031 0.65673 0.0
N289 N 0.34183 0.03575 0.67644 0.0
N290 N 0.33461 0.04195 0.69898 0.0
C291 C 0.32681 0.06054 0.69407 0.0
C292 C 0.32956 0.06639 0.66711 0.0
C293 C 0.34829 0.05007 0.62888 0.0
H294 H 0.36927 0.05329 0.62904 0.0
H295 H 0.34826 0.06625 0.61657 0.0
H296 H 0.33462 0.02984 0.61987 0.0
O297 O 0.32308 0.97404 0.68782 0.0
O298 O 0.31109 0.98354 0.72637 0.0
H299 H 0.30519 0.08154 0.70515 0.0
H300 H 0.33244 0.08644 0.72702 0.0
C301 C 0.31555 0.07141 0.71444 0.0
H302 H 0.3008 0.05455 0.72719 0.0
H303 H 0.28382 0.00207 0.761 0.0
O304 O 0.36246 0.00463 0.63951 0.0
C305 C 0.30798 0.96655 0.70827 0.0
Co306 Co 0.34754 0.35162 0.84476 0.0
Co307 Co 0.31493 0.33566 0.89766 0.0
C308 C 0.36847 0.38663 0.89337 0.0
O309 O 0.37025 0.38018 0.86973 0.0
O310 O 0.34754 0.37174 0.90749 0.0
C311 C 0.37305 0.38826 0.80223 0.0
O312 O 0.36793 0.40451 0.8166 0.0
C313 C 0.28174 0.33631 0.94253 0.0
C314 C 0.25614 0.29216 0.95044 0.0
C315 C 0.26039 0.31748 0.95817 0.0
N316 N 0.28948 0.32262 0.92624 0.0
N317 N 0.27439 0.2963 0.93141 0.0
C318 C 0.29278 0.36644 0.94108 0.0
H319 H 0.30319 0.37464 0.92188 0.0
H320 H 0.27615 0.37122 0.94364 0.0
H321 H 0.30781 0.37655 0.95723 0.0
C322 C 0.29608 0.34561 0.82408 0.0
N323 N 0.31168 0.34555 0.84413 0.0
N324 N 0.29756 0.33904 0.86627 0.0
C325 C 0.27239 0.33499 0.86089 0.0
C326 C 0.27077 0.33924 0.83398 0.0
C327 C 0.30443 0.3493 0.7956 0.0
H328 H 0.31735 0.34009 0.79165 0.0
H329 H 0.31633 0.37141 0.79104 0.0
H330 H 0.28641 0.33971 0.78233 0.0
O331 O 0.34695 0.31789 0.85337 0.0
O332 O 0.32555 0.30687 0.89202 0.0
H333 H 0.24596 0.30851 0.89108 0.0
H334 H 0.23171 0.32571 0.87242 0.0
C335 C 0.25062 0.32784 0.88118 0.0
H336 H 0.25812 0.34413 0.89633 0.0
H337 H 0.27587 0.28106 0.92124 0.0
O338 O 0.36552 0.36431 0.8104 0.0
C339 C 0.33763 0.3021 0.87322 0.0
Co340 Co 0.99788 0.34454 0.01414 0.0
Co341 Co 0.98273 0.31412 0.06828 0.0
C342 C 0.98307 0.36665 0.06108 0.0
O343 O 0.99118 0.3677 0.03751 0.0
O344 O 0.97811 0.3466 0.07616 0.0
C345 C 0.98991 0.37192 0.97069 0.0
O346 O 0.97316 0.37441 0.9869 0.0
C347 C 0.94818 0.28116 0.11273 0.0
C348 C 0.96942 0.25909 0.12473 0.0
C349 C 0.94654 0.26122 0.12992 0.0
N350 N 0.97088 0.29015 0.09803 0.0
N351 N 0.98371 0.27722 0.10566 0.0
C352 C 0.9273 0.28958 0.10835 0.0
H353 H 0.9302 0.29944 0.08872 0.0
H354 H 0.90641 0.27168 0.1098 0.0
H355 H 0.92959 0.30444 0.12387 0.0
C356 C 0.95208 0.29247 0.99555 0.0
N357 N 0.96854 0.30852 0.01496 0.0
N358 N 0.96205 0.29486 0.03738 0.0
C359 C 0.94128 0.26926 0.03264 0.0
C360 C 0.93419 0.26716 0.00606 0.0
C361 C 0.95417 0.30093 0.9672 0.0
H362 H 0.97573 0.31079 0.96068 0.0
H363 H 0.94716 0.31596 0.96528 0.0
H364 H 0.94159 0.28329 0.9541 0.0
O365 O 0.03171 0.34552 0.02363 0.0
O366 O 0.02232 0.3256 0.06298 0.0
H367 H 0.94423 0.24667 0.06521 0.0
H368 H 0.91534 0.22701 0.0437 0.0
C369 C 0.92829 0.24726 0.05299 0.0
H370 H 0.91528 0.25167 0.06605 0.0
H371 H 0.00165 0.27994 0.09705 0.0
O372 O 0.00246 0.35984 0.97847 0.0
C373 C 0.03887 0.33744 0.04393 0.0
Co374 Co 0.65211 0.99516 0.18178 0.0
Co375 Co 0.66475 0.97904 0.237 0.0
C376 C 0.61579 0.98558 0.22777 0.0
O377 O 0.62296 0.9923 0.20395 0.0
O378 O 0.62958 0.9793 0.24328 0.0
C379 C 0.62575 0.00556 0.1382 0.0
O380 O 0.61017 0.0074 0.15633 0.0
C381 C 0.65569 0.9398 0.27927 0.0
C382 C 0.69656 0.95786 0.29746 0.0
C383 C 0.67068 0.93505 0.29821 0.0
N384 N 0.67219 0.96388 0.26753 0.0
N385 N 0.69645 0.97478 0.27881 0.0
C386 C 0.62605 0.92224 0.27273 0.0
H387 H 0.62372 0.90972 0.25502 0.0
H388 H 0.61472 0.90855 0.28948 0.0
H389 H 0.61702 0.93514 0.26801 0.0
C390 C 0.65335 0.94648 0.16497 0.0
N391 N 0.65459 0.9635 0.18411 0.0
N392 N 0.66186 0.95722 0.20658 0.0
C393 C 0.6665 0.93632 0.202 0.0
C394 C 0.66076 0.92864 0.17561 0.0
C395 C 0.64766 0.94904 0.1365 0.0
H396 H 0.62785 0.94848 0.13488 0.0
H397 H 0.64711 0.93261 0.12412 0.0
H398 H 0.66379 0.96903 0.12883 0.0
O399 O 0.68683 0.02672 0.19188 0.0
O400 O 0.6962 0.01729 0.23185 0.0
H401 H 0.69303 0.9416 0.23458 0.0
H402 H 0.68766 0.91463 0.2119 0.0
C403 C 0.67788 0.92503 0.2218 0.0
H404 H 0.66116 0.90984 0.23438 0.0
H405 H 0.71324 0.99329 0.2731 0.0
O406 O 0.64453 0.00075 0.14502 0.0
C407 C 0.70223 0.03333 0.21207 0.0
H408 H 0.34808 0.12006 0.67799 0.0
H409 H 0.34327 0.15301 0.65025 0.0
H410 H 0.29502 0.08898 0.59453 0.0
H411 H 0.29887 0.05598 0.62274 0.0
H412 H 0.3624 0.16722 0.60111 0.0
H413 H 0.25096 0.12648 0.59928 0.0
H414 H 0.267 0.11503 0.62286 0.0
H415 H 0.25966 0.10126 0.58984 0.0
C416 C 0.33584 0.11299 0.66018 0.0
C417 C 0.32391 0.0856 0.65238 0.0
C418 C 0.33324 0.13179 0.64427 0.0
C419 C 0.31858 0.12345 0.62039 0.0
C420 C 0.30593 0.09585 0.61309 0.0
H421 H 0.34922 0.23122 0.48577 0.0
H422 H 0.34462 0.19481 0.51541 0.0
C423 C 0.30836 0.07707 0.62907 0.0
C424 C 0.31851 0.14388 0.60199 0.0
H425 H 0.27694 0.1589 0.56551 0.0
C426 C 0.3437 0.16551 0.5935 0.0
C427 C 0.29412 0.14179 0.5922 0.0
C428 C 0.26642 0.12004 0.60173 0.0
C429 C 0.3452 0.18485 0.5752 0.0
C430 C 0.32083 0.18205 0.56448 0.0
C431 C 0.29562 0.16073 0.57335 0.0
C432 C 0.32115 0.20183 0.545 0.0
C433 C 0.37291 0.20839 0.56796 0.0
C434 C 0.30814 0.21672 0.55102 0.0
C435 C 0.31032 0.23707 0.5339 0.0
C436 C 0.32568 0.24302 0.51054 0.0
C437 C 0.3374 0.2271 0.50374 0.0
C438 C 0.33505 0.20656 0.5208 0.0
H439 H 0.38855 0.21162 0.58301 0.0
H440 H 0.37944 0.20396 0.54881 0.0
H441 H 0.37231 0.2276 0.56584 0.0
H442 H 0.29705 0.21323 0.5694 0.0
H443 H 0.30065 0.24875 0.5393 0.0
H444 H 0.12013 0.36053 0.65823 0.0
H445 H 0.15442 0.36028 0.6879 0.0
H446 H 0.09181 0.28695 0.72502 0.0
H447 H 0.05755 0.28726 0.6954 0.0
H448 H 0.14871 0.36099 0.74628 0.0
H449 H 0.15674 0.27255 0.70971 0.0
H450 H 0.1448 0.2905 0.68907 0.0
H451 H 0.12295 0.26743 0.71405 0.0
C452 C 0.11392 0.34408 0.67235 0.0
C453 C 0.08639 0.32389 0.67466 0.0
C454 C 0.13339 0.34401 0.68932 0.0
C455 C 0.12562 0.32353 0.70854 0.0
C456 C 0.09825 0.30274 0.71012 0.0
H457 H 0.21827 0.29666 0.83154 0.0
H458 H 0.18141 0.29277 0.80288 0.0
C459 C 0.07875 0.30293 0.69329 0.0
C460 C 0.14568 0.32514 0.72828 0.0
H461 H 0.18074 0.29395 0.74883 0.0
C462 C 0.1558 0.3464 0.74684 0.0
C463 C 0.1545 0.30581 0.72913 0.0
C464 C 0.14439 0.28282 0.70937 0.0
C465 C 0.17455 0.34887 0.76633 0.0
C466 C 0.18397 0.32995 0.76682 0.0
C467 C 0.17352 0.30843 0.74845 0.0
C468 C 0.20554 0.33283 0.78544 0.0
C469 C 0.18373 0.37146 0.78648 0.0
C470 C 0.23125 0.3566 0.78518 0.0
C471 C 0.25206 0.35894 0.80171 0.0
C472 C 0.24768 0.33745 0.81861 0.0
C473 C 0.22195 0.3137 0.81904 0.0
C474 C 0.20102 0.3114 0.80254 0.0
H475 H 0.16855 0.3783 0.78871 0.0
H476 H 0.18714 0.3649 0.80612 0.0
H477 H 0.20318 0.38925 0.77982 0.0
H478 H 0.23545 0.37314 0.77174 0.0
H479 H 0.27181 0.37738 0.80093 0.0
H480 H 0.7384 0.11834 0.852 0.0
H481 H 0.77394 0.14988 0.88241 0.0
H482 H 0.81964 0.10884 0.8683 0.0
H483 H 0.78432 0.07778 0.8372 0.0
H484 H 0.78832 0.1362 0.92787 0.0
H485 H 0.87903 0.18754 0.86254 0.0
H486 H 0.84486 0.1675 0.84971 0.0
H487 H 0.8627 0.151 0.86215 0.0
C488 C 0.75643 0.11662 0.85493 0.0
C489 C 0.759 0.09607 0.8421 0.0
C490 C 0.7766 0.13446 0.8724 0.0
C491 C 0.79963 0.13194 0.8775 0.0
C492 C 0.80243 0.11164 0.86424 0.0
H493 H 0.93057 0.21852 0.99403 0.0
H494 H 0.89718 0.18301 0.96425 0.0
C495 C 0.7823 0.09391 0.84652 0.0
C496 C 0.81956 0.14943 0.89801 0.0
H497 H 0.88664 0.19655 0.90851 0.0
C498 C 0.80981 0.14938 0.92359 0.0
C499 C 0.84765 0.16655 0.89249 0.0
C500 C 0.8592 0.16842 0.86519 0.0
C501 C 0.82728 0.16615 0.94367 0.0
C502 C 0.85522 0.18342 0.93805 0.0
C503 C 0.86518 0.18309 0.91273 0.0
C504 C 0.87404 0.20342 0.95765 0.0
C505 C 0.81579 0.16548 0.97074 0.0
C506 C 0.87183 0.22638 0.96388 0.0
C507 C 0.89081 0.24654 0.98066 0.0
C508 C 0.91214 0.24393 0.99164 0.0
C509 C 0.91397 0.22062 0.98605 0.0
C510 C 0.89509 0.20053 0.96899 0.0
H511 H 0.7952 0.14734 0.97341 0.0
H512 H 0.82955 0.16542 0.98637 0.0
H513 H 0.81415 0.18405 0.97348 0.0
H514 H 0.8559 0.22909 0.95509 0.0
H515 H 0.88933 0.26459 0.98448 0.0
H516 H 0.71354 0.79 0.00344 0.0
H517 H 0.71705 0.82568 0.0338 0.0
H518 H 0.62945 0.78274 0.04178 0.0
H519 H 0.62603 0.74727 0.01157 0.0
H520 H 0.65541 0.84175 0.03631 0.0
H521 H 0.70167 0.8084 0.11456 0.0
H522 H 0.71798 0.81657 0.08269 0.0
H523 H 0.68444 0.7875 0.08614 0.0
C524 C 0.69511 0.78871 0.01123 0.0
C525 C 0.66952 0.76624 0.0052 0.0
C526 C 0.69711 0.80883 0.02869 0.0
C527 C 0.67351 0.80657 0.04027 0.0
C528 C 0.64788 0.7848 0.03308 0.0
H529 H 0.62059 0.88183 0.15469 0.0
H530 H 0.62561 0.85231 0.12242 0.0
C531 C 0.64591 0.76468 0.01579 0.0
C532 C 0.67526 0.82591 0.06093 0.0
H533 H 0.69275 0.84358 0.1256 0.0
C534 C 0.66376 0.84234 0.05577 0.0
C535 C 0.68619 0.82657 0.08628 0.0
C536 C 0.69814 0.80873 0.09299 0.0
C537 C 0.66261 0.85925 0.07539 0.0
C538 C 0.67266 0.8592 0.10103 0.0
C539 C 0.68492 0.8434 0.10598 0.0
C540 C 0.66976 0.87484 0.12303 0.0
C541 C 0.65063 0.87703 0.06851 0.0
C542 C 0.69289 0.89627 0.13517 0.0
C543 C 0.68999 0.91287 0.15389 0.0
C544 C 0.66394 0.90804 0.16074 0.0
C545 C 0.64083 0.88569 0.14975 0.0
C546 C 0.64371 0.86908 0.13116 0.0
H547 H 0.65106 0.8805 0.04684 0.0
H548 H 0.62904 0.86679 0.07504 0.0
H549 H 0.66182 0.89711 0.0786 0.0
H550 H 0.71315 0.90091 0.12926 0.0
H551 H 0.70804 0.93028 0.16194 0.0
H552 H 0.87463 0.65346 0.14818 0.0
H553 H 0.84319 0.66065 0.17593 0.0
H554 H 0.90816 0.70603 0.23171 0.0
H555 H 0.93966 0.69968 0.20361 0.0
H556 H 0.82928 0.64098 0.2255 0.0
H557 H 0.87329 0.75298 0.22794 0.0
H558 H 0.88331 0.73625 0.2037 0.0
H559 H 0.89782 0.74301 0.2364 0.0
C560 C 0.88228 0.66562 0.16599 0.0
C561 C 0.90941 0.67584 0.17395 0.0
C562 C 0.86434 0.6696 0.18188 0.0
C563 C 0.87336 0.68404 0.20584 0.0
C564 C 0.90082 0.69529 0.21312 0.0
H565 H 0.77073 0.65631 0.3433 0.0
H566 H 0.80677 0.6615 0.31282 0.0
C567 C 0.91873 0.69141 0.19721 0.0
C568 C 0.85359 0.68483 0.22455 0.0
H569 H 0.841 0.72752 0.26206 0.0
C570 C 0.83172 0.65993 0.2333 0.0
C571 C 0.8567 0.70955 0.23464 0.0
C572 C 0.8789 0.73696 0.22498 0.0
C573 C 0.81319 0.65901 0.25222 0.0
C574 C 0.81699 0.68368 0.26318 0.0
C575 C 0.83846 0.70863 0.254 0.0
C576 C 0.79805 0.68382 0.28332 0.0
C577 C 0.78945 0.63163 0.25999 0.0
C578 C 0.78236 0.69601 0.27751 0.0
C579 C 0.76211 0.69338 0.29502 0.0
C580 C 0.75721 0.67846 0.31855 0.0
C581 C 0.7741 0.66781 0.32521 0.0
C582 C 0.79445 0.67054 0.30772 0.0
H583 H 0.78563 0.61563 0.24513 0.0
H584 H 0.79402 0.62525 0.27917 0.0
H585 H 0.77053 0.63272 0.26236 0.0
H586 H 0.78498 0.70657 0.25893 0.0
H587 H 0.74955 0.7021 0.28971 0.0
H588 H 0.21489 0.92267 0.33209 0.0
H589 H 0.17979 0.89026 0.3627 0.0
H590 H 0.2363 0.86624 0.39174 0.0
H591 H 0.2711 0.89817 0.36105 0.0
H592 H 0.15865 0.83131 0.36844 0.0
H593 H 0.21038 0.89068 0.45869 0.0
H594 H 0.218 0.90547 0.42595 0.0
H595 H 0.23184 0.88467 0.4368 0.0
C596 C 0.21956 0.91013 0.34478 0.0
C597 C 0.24559 0.91283 0.34437 0.0
C598 C 0.19966 0.89183 0.36231 0.0
C599 C 0.2057 0.87629 0.37976 0.0
C600 C 0.23145 0.87845 0.37877 0.0
H601 H 0.11039 0.73158 0.46998 0.0
H602 H 0.14188 0.76819 0.44049 0.0
C603 C 0.25122 0.89656 0.36122 0.0
C604 C 0.18522 0.85762 0.39904 0.0
H605 H 0.17412 0.84504 0.46526 0.0
C606 C 0.16184 0.83442 0.3896 0.0
C607 C 0.18936 0.86195 0.42662 0.0
C608 C 0.21362 0.88716 0.43772 0.0
C609 C 0.14301 0.81479 0.4071 0.0
C610 C 0.14788 0.81845 0.43464 0.0
C611 C 0.17063 0.84222 0.44411 0.0
C612 C 0.13012 0.79717 0.45377 0.0
C613 C 0.11821 0.79009 0.39601 0.0
C614 C 0.11383 0.80175 0.4716 0.0
C615 C 0.09583 0.78084 0.48846 0.0
C616 C 0.09419 0.75526 0.48783 0.0
C617 C 0.11131 0.75115 0.47072 0.0
C618 C 0.12914 0.77194 0.45384 0.0
H619 H 0.11403 0.79343 0.37529 0.0
H620 H 0.12167 0.77245 0.39622 0.0
H621 H 0.0999 0.7847 0.40823 0.0
H622 H 0.11444 0.82118 0.47186 0.0
H623 H 0.08253 0.7843 0.50127 0.0
H624 H 0.37512 0.26594 0.35197 0.0
H625 H 0.38171 0.23165 0.32908 0.0
H626 H 0.29466 0.17971 0.32219 0.0
H627 H 0.28773 0.21316 0.34613 0.0
H628 H 0.35416 0.17301 0.35023 0.0
H629 H 0.32929 0.18285 0.24584 0.0
H630 H 0.34189 0.21083 0.26912 0.0
H631 H 0.30722 0.18353 0.2711 0.0
C632 C 0.35733 0.2471 0.34609 0.0
C633 C 0.33086 0.24198 0.35183 0.0
C634 C 0.36118 0.22773 0.33254 0.0
C635 C 0.33867 0.20329 0.32388 0.0
C636 C 0.31229 0.19862 0.32848 0.0
H637 H 0.30016 0.04669 0.26323 0.0
H638 H 0.30317 0.09086 0.2711 0.0
C639 C 0.30842 0.21778 0.34226 0.0
C640 C 0.34242 0.18135 0.31251 0.0
H641 H 0.33342 0.1442 0.25639 0.0
C642 C 0.35004 0.1669 0.32964 0.0
C643 C 0.33653 0.17329 0.28577 0.0
C644 C 0.32841 0.18846 0.26672 0.0
C645 C 0.35105 0.1439 0.32099 0.0
C646 C 0.34528 0.13577 0.29413 0.0
C647 C 0.33808 0.15058 0.27686 0.0
C648 C 0.3452 0.11103 0.28426 0.0
C649 C 0.35694 0.12781 0.34113 0.0
C650 C 0.36827 0.10819 0.28749 0.0
C651 C 0.3664 0.08291 0.28354 0.0
C652 C 0.34169 0.06029 0.27542 0.0
C653 C 0.31946 0.06386 0.26941 0.0
C654 C 0.32116 0.08905 0.27398 0.0
H655 H 0.35347 0.13236 0.36167 0.0
H656 H 0.34398 0.10553 0.33773 0.0
H657 H 0.37864 0.13328 0.33954 0.0
H658 H 0.38729 0.12511 0.29457 0.0
H659 H 0.38391 0.08072 0.28805 0.0
H660 H 0.28958 0.36882 0.4786 0.0
H661 H 0.24658 0.36858 0.4796 0.0
H662 H 0.21792 0.31416 0.41257 0.0
H663 H 0.26106 0.31373 0.41176 0.0
H664 H 0.21705 0.38109 0.44409 0.0
H665 H 0.16222 0.2705 0.46997 0.0
H666 H 0.19893 0.29066 0.46987 0.0
H667 H 0.18052 0.28003 0.43919 0.0
C668 C 0.27433 0.35698 0.46382 0.0
C669 C 0.2786 0.34089 0.44538 0.0
C670 C 0.24976 0.35699 0.46436 0.0
C671 C 0.22887 0.34097 0.44649 0.0
C672 C 0.23363 0.32627 0.42687 0.0
H673 H 0.06147 0.30146 0.48443 0.0
H674 H 0.09961 0.30712 0.45684 0.0
C675 C 0.25833 0.32618 0.42634 0.0
C676 C 0.20166 0.3382 0.45038 0.0
H677 H 0.1382 0.29384 0.47428 0.0
C678 C 0.19961 0.36191 0.45018 0.0
C679 C 0.17891 0.31313 0.45829 0.0
C680 C 0.18011 0.2871 0.45956 0.0
C681 C 0.17593 0.3615 0.45904 0.0
C682 C 0.1539 0.33681 0.46856 0.0
C683 C 0.1552 0.31275 0.467 0.0
C684 C 0.13086 0.33599 0.48318 0.0
C685 C 0.17501 0.38766 0.45897 0.0
C686 C 0.13582 0.35023 0.50714 0.0
C687 C 0.11416 0.34688 0.52296 0.0
C688 C 0.08709 0.32938 0.51501 0.0
C689 C 0.08214 0.31538 0.49084 0.0
C690 C 0.10386 0.31863 0.47506 0.0
H691 H 0.18891 0.40208 0.44376 0.0
H692 H 0.15401 0.3837 0.45523 0.0
H693 H 0.18175 0.39768 0.47856 0.0
H694 H 0.15649 0.36297 0.51423 0.0
H695 H 0.11872 0.35692 0.54202 0.0
H696 H 0.7577 0.06491 0.65187 0.0
H697 H 0.79071 0.10284 0.62442 0.0
H698 H 0.79444 0.16012 0.68279 0.0
H699 H 0.76189 0.12253 0.71034 0.0
H700 H 0.7937 0.17579 0.62795 0.0
H701 H 0.87154 0.1453 0.64823 0.0
H702 H 0.83971 0.11986 0.63412 0.0
H703 H 0.84042 0.13195 0.66709 0.0
C704 C 0.76524 0.08563 0.65862 0.0
C705 C 0.75682 0.09071 0.68309 0.0
C706 C 0.7841 0.10723 0.64295 0.0
C707 C 0.79509 0.13423 0.65167 0.0
C708 C 0.78598 0.13941 0.67561 0.0
H709 H 0.92096 0.29453 0.64053 0.0
H710 H 0.87707 0.25273 0.64202 0.0
C711 C 0.76713 0.11785 0.69125 0.0
C712 C 0.81774 0.1571 0.63724 0.0
H713 H 0.88604 0.18627 0.62564 0.0
C714 C 0.81382 0.17793 0.62704 0.0
C715 C 0.8439 0.15971 0.63589 0.0
C716 C 0.84938 0.13817 0.64702 0.0
C717 C 0.83565 0.20184 0.61647 0.0
C718 C 0.86215 0.2052 0.61668 0.0
C719 C 0.86571 0.18366 0.62543 0.0
C720 C 0.88693 0.23199 0.61176 0.0
C721 C 0.83022 0.22352 0.60574 0.0
C722 C 0.90721 0.23445 0.59411 0.0
C723 C 0.93264 0.25846 0.59335 0.0
C724 C 0.93827 0.28021 0.61053 0.0
C725 C 0.91738 0.27815 0.6271 0.0
C726 C 0.89207 0.25429 0.62778 0.0
H727 H 0.80921 0.21433 0.59763 0.0
H728 H 0.832 0.23745 0.62204 0.0
H729 H 0.84498 0.23572 0.58999 0.0
H730 H 0.90375 0.21739 0.58174 0.0
H731 H 0.94833 0.25937 0.58043 0.0
H732 H 0.63865 0.9283 0.81894 0.0
H733 H 0.63781 0.88498 0.81976 0.0
H734 H 0.68961 0.9087 0.75089 0.0
H735 H 0.69099 0.95276 0.75012 0.0
H736 H 0.62193 0.84279 0.7825 0.0
H737 H 0.73275 0.89292 0.80674 0.0
H738 H 0.71417 0.91108 0.80838 0.0
H739 H 0.7233 0.90337 0.77688 0.0
C740 C 0.64978 0.92438 0.80379 0.0
C741 C 0.6652 0.94421 0.78466 0.0
C742 C 0.64914 0.89948 0.80423 0.0
C743 C 0.66392 0.89376 0.78562 0.0
C744 C 0.67839 0.91291 0.76569 0.0
H745 H 0.69481 0.75891 0.81812 0.0
H746 H 0.69122 0.79341 0.79184 0.0
C747 C 0.67904 0.938 0.76521 0.0
C748 C 0.66517 0.86837 0.78863 0.0
H749 H 0.70717 0.84546 0.81051 0.0
C750 C 0.64066 0.84328 0.78812 0.0
C751 C 0.68965 0.86905 0.79584 0.0
C752 C 0.7165 0.89549 0.79719 0.0
C753 C 0.63972 0.81907 0.79603 0.0
C754 C 0.66385 0.82008 0.80498 0.0
C755 C 0.68868 0.8448 0.80371 0.0
C756 C 0.66337 0.79675 0.81876 0.0
C757 C 0.61276 0.79276 0.79552 0.0
C758 C 0.64895 0.78726 0.8426 0.0
C759 C 0.6511 0.76778 0.85769 0.0
C760 C 0.66757 0.7572 0.84913 0.0
C761 C 0.68166 0.76641 0.82502 0.0
C762 C 0.67961 0.78606 0.80998 0.0
H763 H 0.59877 0.79349 0.78055 0.0
H764 H 0.61556 0.77509 0.79116 0.0
H765 H 0.60285 0.78947 0.81516 0.0
H766 H 0.63706 0.79593 0.85022 0.0
H767 H 0.64104 0.76223 0.87671 0.0
H768 H 0.73578 0.68719 0.91775 0.0
H769 H 0.77716 0.68354 0.91959 0.0
H770 H 0.74445 0.62961 0.98667 0.0
H771 H 0.70325 0.63271 0.98473 0.0
H772 H 0.81194 0.70057 0.96134 0.0
H773 H 0.77571 0.59151 0.94434 0.0
H774 H 0.75551 0.60695 0.93574 0.0
H775 H 0.75538 0.5956 0.96907 0.0
C776 C 0.73715 0.67401 0.93244 0.0
C777 C 0.71625 0.66034 0.95116 0.0
C778 C 0.76082 0.67198 0.9335 0.0
C779 C 0.76376 0.65598 0.95303 0.0
C780 C 0.74242 0.64152 0.971 0.0
H781 H 0.87591 0.64409 0.05026 0.0
H782 H 0.83754 0.63992 0.02471 0.0
C783 C 0.71892 0.64356 0.97002 0.0
C784 C 0.79012 0.65685 0.95711 0.0
H785 H 0.81675 0.61591 0.97133 0.0
C786 C 0.81325 0.68214 0.9628 0.0
C787 C 0.79182 0.6328 0.95899 0.0
C788 C 0.76831 0.60524 0.95142 0.0
C789 C 0.83734 0.68382 0.97229 0.0
C790 C 0.83833 0.65957 0.97593 0.0
C791 C 0.81582 0.63444 0.9687 0.0
C792 C 0.86139 0.65972 0.98985 0.0
C793 C 0.86095 0.7113 0.98 0.0
C794 C 0.88746 0.6718 0.9785 0.0
C795 C 0.90947 0.67385 0.99298 0.0
C796 C 0.90572 0.66364 0.01894 0.0
C797 C 0.87943 0.65113 0.03001 0.0
C798 C 0.85747 0.64901 0.01551 0.0
H799 H 0.85567 0.72771 0.97891 0.0
H800 H 0.86777 0.71058 0.00043 0.0
H801 H 0.87837 0.71669 0.9665 0.0
H802 H 0.89085 0.6801 0.95867 0.0
H803 H 0.92953 0.68377 0.98401 0.0
H804 H 0.23597 0.87686 0.21446 0.0
H805 H 0.20268 0.83695 0.18976 0.0
H806 H 0.19996 0.88928 0.12934 0.0
H807 H 0.23362 0.92946 0.15398 0.0
H808 H 0.14968 0.85247 0.14839 0.0
H809 H 0.20554 0.79881 0.12256 0.0
H810 H 0.20858 0.8076 0.15697 0.0
H811 H 0.22269 0.83422 0.13247 0.0
C812 C 0.22918 0.87988 0.19539 0.0
C813 C 0.23802 0.90627 0.18574 0.0
C814 C 0.21003 0.85701 0.18132 0.0
C815 C 0.19928 0.86008 0.15738 0.0
C816 C 0.20828 0.88643 0.14757 0.0
H817 H 0.04789 0.73106 0.0837 0.0
H818 H 0.09212 0.77324 0.08688 0.0
C819 C 0.22745 0.90933 0.16165 0.0
C820 C 0.17643 0.83595 0.14441 0.0
H821 H 0.15642 0.77147 0.12286 0.0
C822 C 0.15125 0.83496 0.14224 0.0
C823 C 0.17856 0.81316 0.13641 0.0
C824 C 0.20539 0.81356 0.13696 0.0
C825 C 0.12772 0.81116 0.13394 0.0
C826 C 0.12957 0.78789 0.12714 0.0
C827 C 0.15504 0.78933 0.12806 0.0
C828 C 0.10483 0.76108 0.12224 0.0
C829 C 0.10078 0.8106 0.13415 0.0
C830 C 0.098 0.73977 0.14021 0.0
C831 C 0.07296 0.71567 0.13835 0.0
C832 C 0.05416 0.71234 0.11844 0.0
C833 C 0.0618 0.73302 0.09937 0.0
C834 C 0.08698 0.75721 0.10125 0.0
H835 H 0.10218 0.82863 0.14436 0.0
H836 H 0.09412 0.8105 0.11349 0.0
H837 H 0.08485 0.79187 0.14407 0.0
H838 H 0.11152 0.74228 0.15647 0.0
H839 H 0.06792 0.7001 0.15323 0.0
H840 H 0.95226 0.69187 0.57734 0.0
H841 H 0.90884 0.69177 0.57574 0.0
H842 H 0.88259 0.63522 0.51043 0.0
H843 H 0.92521 0.63483 0.5121 0.0
H844 H 0.8912 0.70885 0.53346 0.0
H845 H 0.81472 0.60196 0.55538 0.0
H846 H 0.85044 0.61613 0.56313 0.0
H847 H 0.83787 0.60349 0.53038 0.0
C848 C 0.93695 0.67898 0.56305 0.0
C849 C 0.94225 0.66343 0.5448 0.0
C850 C 0.9122 0.67897 0.56214 0.0
C851 C 0.89228 0.66313 0.54326 0.0
C852 C 0.89729 0.64703 0.52563 0.0
H853 H 0.76987 0.65319 0.4462 0.0
H854 H 0.80391 0.64921 0.47222 0.0
C855 C 0.92189 0.64708 0.52645 0.0
C856 C 0.86754 0.66544 0.53957 0.0
H857 H 0.7993 0.62661 0.52715 0.0
C858 C 0.87095 0.69102 0.53283 0.0
C859 C 0.84112 0.64216 0.53884 0.0
C860 C 0.8358 0.61446 0.54762 0.0
C861 C 0.84905 0.69356 0.52327 0.0
C862 C 0.82313 0.66992 0.52059 0.0
C863 C 0.81929 0.64465 0.52902 0.0
C864 C 0.80071 0.67058 0.50624 0.0
C865 C 0.85411 0.72115 0.51439 0.0
C866 C 0.78738 0.68363 0.51694 0.0
C867 C 0.76748 0.68555 0.50219 0.0
C868 C 0.76049 0.67428 0.47664 0.0
C869 C 0.7738 0.66106 0.46616 0.0
C870 C 0.79355 0.65905 0.48092 0.0
H871 H 0.87603 0.73702 0.51546 0.0
H872 H 0.84691 0.72 0.49374 0.0
H873 H 0.84241 0.72761 0.52715 0.0
H874 H 0.79262 0.69261 0.53649 0.0
H875 H 0.75771 0.69603 0.5107 0.0
H876 H 0.29643 0.92478 0.6741 0.0
H877 H 0.25469 0.88066 0.6717 0.0
H878 H 0.22501 0.89936 0.74261 0.0
H879 H 0.26669 0.94403 0.745 0.0
H880 H 0.22693 0.83561 0.70608 0.0
H881 H 0.16794 0.88837 0.68652 0.0
H882 H 0.2047 0.90614 0.68581 0.0
H883 H 0.18697 0.89692 0.71688 0.0
C884 C 0.28125 0.91947 0.68944 0.0
C885 C 0.28475 0.93818 0.70951 0.0
C886 C 0.25741 0.89414 0.68807 0.0
C887 C 0.23657 0.88696 0.70668 0.0
C888 C 0.24068 0.90475 0.72777 0.0
H889 H 0.06831 0.75753 0.67649 0.0
H890 H 0.10852 0.79069 0.70145 0.0
C891 C 0.26457 0.93021 0.72917 0.0
C892 C 0.20987 0.86195 0.70235 0.0
H893 H 0.14465 0.84088 0.68264 0.0
C894 C 0.2088 0.83665 0.70135 0.0
C895 C 0.18623 0.86338 0.69621 0.0
C896 C 0.18637 0.89012 0.69618 0.0
C897 C 0.18495 0.81288 0.69349 0.0
C898 C 0.16179 0.8146 0.68605 0.0
C899 C 0.16244 0.83962 0.68837 0.0
C900 C 0.13768 0.79161 0.67322 0.0
C901 C 0.18494 0.78625 0.69282 0.0
C902 C 0.14073 0.78108 0.64914 0.0
C903 C 0.11786 0.76221 0.63491 0.0
C904 C 0.09148 0.75345 0.64453 0.0
C905 C 0.08844 0.76364 0.66885 0.0
C906 C 0.11134 0.78253 0.6831 0.0
H907 H 0.19989 0.78632 0.70712 0.0
H908 H 0.16442 0.76874 0.69739 0.0
H909 H 0.19091 0.7832 0.67276 0.0
H910 H 0.16077 0.78851 0.64063 0.0
H911 H 0.12088 0.75572 0.61568 0.0
H912 H 0.32847 0.26646 0.91436 0.0
H913 H 0.33114 0.22444 0.91277 0.0
H914 H 0.35255 0.23876 0.83011 0.0
H915 H 0.35105 0.2807 0.83177 0.0
H916 H 0.30247 0.1794 0.8863 0.0
H917 H 0.40841 0.22104 0.85392 0.0
H918 H 0.39594 0.24276 0.86605 0.0
H919 H 0.39223 0.23305 0.8316 0.0
C920 C 0.33416 0.26078 0.896 0.0
C921 C 0.33984 0.27711 0.87329 0.0
C922 C 0.33569 0.23681 0.89511 0.0
C923 C 0.34284 0.2288 0.8715 0.0
C924 C 0.34812 0.24498 0.84884 0.0
H925 H 0.28488 0.07848 0.7977 0.0
H926 H 0.29197 0.11797 0.82327 0.0
C927 C 0.34698 0.26894 0.84979 0.0
C928 C 0.34266 0.20255 0.86935 0.0
H929 H 0.37628 0.17462 0.83824 0.0
C930 C 0.3189 0.17834 0.8764 0.0
C931 C 0.3644 0.20095 0.85734 0.0
C932 C 0.39176 0.22593 0.85214 0.0
C933 C 0.31531 0.15274 0.86944 0.0
C934 C 0.33553 0.1514 0.85406 0.0
C935 C 0.36034 0.17547 0.84934 0.0
C936 C 0.33041 0.12599 0.84038 0.0
C937 C 0.28964 0.12751 0.87827 0.0
C938 C 0.35005 0.11771 0.84057 0.0
C939 C 0.34639 0.09557 0.82517 0.0
C940 C 0.32291 0.08121 0.80954 0.0
C941 C 0.30302 0.08906 0.80982 0.0
C942 C 0.30694 0.11147 0.82472 0.0
H943 H 0.28299 0.13081 0.89792 0.0
H944 H 0.27298 0.12304 0.86404 0.0
H945 H 0.29249 0.10952 0.87954 0.0
H946 H 0.36842 0.12864 0.85233 0.0
H947 H 0.36186 0.08967 0.82549 0.0
H948 H 0.06467 0.32659 0.08453 0.0
H949 H 0.10947 0.32964 0.08297 0.0
H950 H 0.1192 0.35699 0.00199 0.0
H951 H 0.07558 0.35507 0.00366 0.0
H952 H 0.12522 0.30202 0.05437 0.0
H953 H 0.19292 0.40945 0.0285 0.0
H954 H 0.15859 0.39718 0.04015 0.0
H955 H 0.16523 0.39553 0.00545 0.0
C956 C 0.07665 0.33375 0.06659 0.0
C957 C 0.06655 0.34072 0.04428 0.0
C958 C 0.10224 0.3355 0.06572 0.0
C959 C 0.1181 0.34423 0.04257 0.0
C960 C 0.10798 0.35124 0.02043 0.0
H961 H 0.20553 0.28672 0.96126 0.0
H962 H 0.17452 0.29439 0.98835 0.0
C963 C 0.08273 0.34981 0.02135 0.0
C964 C 0.14382 0.34339 0.04005 0.0
H965 H 0.20606 0.37725 0.01012 0.0
C966 C 0.1432 0.31875 0.04535 0.0
C967 C 0.16777 0.3654 0.02915 0.0
C968 C 0.17122 0.39344 0.02583 0.0
C969 C 0.16468 0.31468 0.03756 0.0
C970 C 0.18685 0.33542 0.0232 0.0
C971 C 0.18876 0.36099 0.02041 0.0
C972 C 0.20631 0.33004 0.00832 0.0
C973 C 0.16295 0.28788 0.04419 0.0
C974 C 0.23462 0.34806 0.0097 0.0
C975 C 0.25246 0.34403 0.99363 0.0
C976 C 0.24224 0.32193 0.97594 0.0
C977 C 0.21402 0.30377 0.97491 0.0
C978 C 0.19625 0.30799 0.99062 0.0
H979 H 0.15249 0.27998 0.06346 0.0
H980 H 0.15068 0.27257 0.02887 0.0
H981 H 0.18344 0.28984 0.04519 0.0
H982 H 0.24288 0.36535 0.02304 0.0
H983 H 0.27417 0.35808 0.99513 0.0
H984 H 0.72749 0.06323 0.16861 0.0
H985 H 0.76967 0.10646 0.16599 0.0
H986 H 0.77783 0.10778 0.25092 0.0
H987 H 0.73549 0.06332 0.25366 0.0
H988 H 0.78238 0.1551 0.18541 0.0
H989 H 0.85193 0.12189 0.22764 0.0
H990 H 0.81714 0.09785 0.21877 0.0
H991 H 0.8244 0.11784 0.24839 0.0
C992 C 0.73814 0.07258 0.18684 0.0
C993 C 0.72808 0.05979 0.21139 0.0
C994 C 0.76232 0.09742 0.18529 0.0
C995 C 0.77706 0.1104 0.2082 0.0
C996 C 0.76706 0.09793 0.2329 0.0
H997 H 0.91514 0.27242 0.16345 0.0
H998 H 0.87532 0.23942 0.18901 0.0
C999 C 0.74284 0.07262 0.23447 0.0
C1000 C 0.80286 0.13683 0.20532 0.0
H1001 H 0.87204 0.16566 0.2093 0.0
C1002 C 0.80203 0.15765 0.19097 0.0
C1003 C 0.82843 0.14009 0.21267 0.0
C1004 C 0.83073 0.11823 0.22757 0.0
C1005 C 0.82593 0.18053 0.18186 0.0
C1006 C 0.85152 0.18326 0.18824 0.0
C1007 C 0.8524 0.16349 0.20438 0.0
C1008 C 0.87716 0.2041 0.17536 0.0
C1009 C 0.82332 0.20035 0.16378 0.0
C1010 C 0.8922 0.19544 0.16021 0.0
C1011 C 0.91508 0.21422 0.14608 0.0
C1012 C 0.92325 0.24207 0.14647 0.0
C1013 C 0.90882 0.25097 0.16228 0.0
C1014 C 0.88609 0.23213 0.17686 0.0
H1015 H 0.80214 0.1921 0.15644 0.0
H1016 H 0.82909 0.21944 0.17476 0.0
H1017 H 0.83706 0.20549 0.14644 0.0
H1018 H 0.88577 0.17396 0.1587 0.0
H1019 H 0.92586 0.20679 0.1341 0.0
H1020 H 0.68861 0.93056 0.34693 0.0
H1021 H 0.68257 0.88894 0.36824 0.0
H1022 H 0.63126 0.84087 0.30369 0.0
H1023 H 0.63808 0.88212 0.28186 0.0
H1024 H 0.63515 0.83716 0.38379 0.0
H1025 H 0.69624 0.82698 0.30346 0.0
H1026 H 0.69511 0.85791 0.30883 0.0
H1027 H 0.66766 0.82956 0.29181 0.0
C1028 C 0.67566 0.91104 0.33753 0.0
C1029 C 0.66344 0.90967 0.31292 0.0
C1030 C 0.67217 0.88732 0.34977 0.0
C1031 C 0.65663 0.8619 0.33743 0.0
C1032 C 0.64342 0.86034 0.31348 0.0
H1033 H 0.61887 0.69736 0.35307 0.0
H1034 H 0.61745 0.73936 0.3472 0.0
C1035 C 0.64699 0.88399 0.3012 0.0
C1036 C 0.6561 0.83731 0.34818 0.0
H1037 H 0.67327 0.78922 0.3325 0.0
C1038 C 0.64366 0.82675 0.37274 0.0
C1039 C 0.66757 0.82403 0.33385 0.0
C1040 C 0.68264 0.83531 0.30815 0.0
C1041 C 0.64143 0.80252 0.38278 0.0
C1042 C 0.65194 0.78878 0.36785 0.0
C1043 C 0.66503 0.79978 0.34374 0.0
C1044 C 0.64888 0.76234 0.37606 0.0
C1045 C 0.62726 0.79122 0.40878 0.0
C1046 C 0.66647 0.7612 0.39489 0.0
C1047 C 0.66743 0.73713 0.39831 0.0
C1048 C 0.65096 0.71401 0.3827 0.0
C1049 C 0.63201 0.71482 0.36525 0.0
C1050 C 0.63108 0.73878 0.3619 0.0
H1051 H 0.61891 0.80359 0.41738 0.0
H1052 H 0.61035 0.76993 0.40604 0.0
H1053 H 0.64187 0.79066 0.42306 0.0
H1054 H 0.68056 0.77933 0.40579 0.0
H1055 H 0.68228 0.73721 0.41187 0.0
H1056 H 0.41802 0.4155 0.4603 0.0
H1057 H 0.46443 0.45081 0.45088 0.0
H1058 H 0.46892 0.40219 0.38756 0.0
H1059 H 0.42173 0.36608 0.39695 0.0
H1060 H 0.51209 0.44443 0.45162 0.0
H1061 H 0.49323 0.47901 0.35466 0.0
H1062 H 0.46591 0.45917 0.37757 0.0
H1063 H 0.48111 0.44318 0.35908 0.0
C1064 C 0.42868 0.41214 0.44426 0.0
C1065 C 0.41614 0.38783 0.42941 0.0
C1066 C 0.45531 0.43241 0.43899 0.0
C1067 C 0.4701 0.42905 0.41867 0.0
C1068 C 0.45769 0.40514 0.4033 0.0
H1069 H 0.6252 0.56197 0.36411 0.0
H1070 H 0.58796 0.5156 0.37181 0.0
C1071 C 0.43077 0.38462 0.40861 0.0
C1072 C 0.49846 0.45108 0.41402 0.0
H1073 H 0.53666 0.50485 0.37329 0.0
C1074 C 0.5177 0.45745 0.4343 0.0
C1075 C 0.50559 0.46795 0.39146 0.0
C1076 C 0.48546 0.46223 0.36942 0.0
C1077 C 0.54371 0.48077 0.43295 0.0
C1078 C 0.55037 0.49839 0.41098 0.0
C1079 C 0.5315 0.49135 0.39019 0.0
C1080 C 0.57617 0.52491 0.40936 0.0
C1081 C 0.56366 0.48639 0.45513 0.0
C1082 C 0.58266 0.54538 0.42846 0.0
C1083 C 0.60434 0.57195 0.42425 0.0
C1084 C 0.61933 0.57833 0.40068 0.0
C1085 C 0.61381 0.55749 0.38242 0.0
C1086 C 0.59253 0.53102 0.38677 0.0
H1087 H 0.55911 0.46731 0.46559 0.0
H1088 H 0.58496 0.49641 0.4477 0.0
H1089 H 0.56208 0.50016 0.46974 0.0
H1090 H 0.56998 0.54128 0.4458 0.0
H1091 H 0.60805 0.5878 0.43841 0.0
H1092 H 0.04565 0.43078 0.64115 0.0
H1093 H 0.05018 0.47522 0.63274 0.0
H1094 H 0.03352 0.45532 0.55004 0.0
H1095 H 0.02902 0.41034 0.55829 0.0
H1096 H 0.08054 0.51711 0.57278 0.0
H1097 H 0.97246 0.46919 0.6064 0.0
H1098 H 0.99544 0.46177 0.62442 0.0
H1099 H 0.98593 0.4495 0.59124 0.0
C1100 C 0.04341 0.43596 0.62104 0.0
C1101 C 0.03653 0.41693 0.6004 0.0
C1102 C 0.04618 0.46143 0.6163 0.0
C1103 C 0.04201 0.46834 0.59088 0.0
C1104 C 0.03689 0.45022 0.5698 0.0
H1105 H 0.99543 0.58105 0.53695 0.0
H1106 H 0.00235 0.54296 0.54688 0.0
C1107 C 0.03431 0.42462 0.57451 0.0
C1108 C 0.03957 0.49288 0.58739 0.0
H1109 H 0.99516 0.51615 0.59719 0.0
C1110 C 0.06194 0.51703 0.57805 0.0
C1111 C 0.01529 0.49251 0.59453 0.0
C1112 C 0.99076 0.46689 0.60463 0.0
C1113 C 0.06046 0.54098 0.57541 0.0
C1114 C 0.03611 0.54057 0.58256 0.0
C1115 C 0.01387 0.5164 0.59204 0.0
C1116 C 0.03211 0.56405 0.57765 0.0
C1117 C 0.08455 0.56632 0.56436 0.0
C1118 C 0.04618 0.5884 0.59219 0.0
C1119 C 0.04212 0.6104 0.58668 0.0
C1120 C 0.02409 0.60824 0.56645 0.0
C1121 C 0.00962 0.5835 0.55254 0.0
C1122 C 0.01353 0.56166 0.55814 0.0
H1123 H 0.10059 0.5623 0.55671 0.0
H1124 H 0.07789 0.57487 0.54812 0.0
H1125 H 0.0936 0.58201 0.58013 0.0
H1126 H 0.06035 0.59041 0.6076 0.0
H1127 H 0.05361 0.62924 0.59763 0.0
H1128 H 0.58667 0.00536 0.79727 0.0
H1129 H 0.54952 0.01343 0.78677 0.0
H1130 H 0.59335 0.06035 0.71836 0.0
H1131 H 0.63121 0.05224 0.72873 0.0
H1132 H 0.55305 0.0654 0.78269 0.0
H1133 H 0.5162 0.00377 0.6903 0.0
H1134 H 0.53819 0.99978 0.71352 0.0
H1135 H 0.55186 0.02896 0.69213 0.0
C1136 C 0.58856 0.01731 0.77984 0.0
C1137 C 0.61204 0.02822 0.76383 0.0
C1138 C 0.56724 0.02195 0.77396 0.0
C1139 C 0.5687 0.0375 0.75188 0.0
C1140 C 0.5918 0.04811 0.73543 0.0
H1141 H 0.43731 0.05917 0.69206 0.0
H1142 H 0.48262 0.06585 0.70065 0.0
C1143 C 0.61335 0.04343 0.74133 0.0
C1144 C 0.5458 0.04241 0.74668 0.0
H1145 H 0.49131 0.02378 0.70596 0.0
C1146 C 0.53967 0.05659 0.76576 0.0
C1147 C 0.52843 0.03081 0.72465 0.0
C1148 C 0.53374 0.0148 0.70398 0.0
C1149 C 0.51633 0.05914 0.76357 0.0
C1150 C 0.49844 0.04673 0.742 0.0
C1151 C 0.50504 0.03324 0.72254 0.0
C1152 C 0.4724 0.04681 0.73923 0.0
C1153 C 0.51109 0.07509 0.78435 0.0
C1154 C 0.45178 0.03471 0.75851 0.0
C1155 C 0.42579 0.03116 0.75374 0.0
C1156 C 0.42009 0.0392 0.72944 0.0
C1157 C 0.44115 0.05256 0.71087 0.0
C1158 C 0.46704 0.05639 0.71574 0.0
H1159 H 0.5302 0.08985 0.79463 0.0
H1160 H 0.50167 0.08639 0.77557 0.0
H1161 H 0.49688 0.06076 0.79939 0.0
H1162 H 0.4553 0.0267 0.77659 0.0
H1163 H 0.40979 0.02056 0.76821 0.0
H1164 H 0.58512 0.61758 0.89576 0.0
H1165 H 0.5405 0.57634 0.88834 0.0
H1166 H 0.52215 0.57356 0.97143 0.0
H1167 H 0.56618 0.61411 0.97899 0.0
H1168 H 0.51986 0.52584 0.95119 0.0
H1169 H 0.45932 0.559 0.89109 0.0
H1170 H 0.4935 0.57024 0.8799 0.0
H1171 H 0.48827 0.58249 0.91082 0.0
C1172 C 0.57126 0.60848 0.91226 0.0
C1173 C 0.57929 0.61883 0.93798 0.0
C1174 C 0.5458 0.58501 0.90802 0.0
C1175 C 0.52809 0.57196 0.9294 0.0
C1176 C 0.53553 0.58328 0.95472 0.0
H1177 H 0.36747 0.42125 0.93111 0.0
H1178 H 0.40535 0.46702 0.94265 0.0
C1179 C 0.56079 0.60644 0.95896 0.0
C1180 C 0.50327 0.54492 0.92635 0.0
H1181 H 0.4404 0.51125 0.89739 0.0
C1182 C 0.50241 0.5227 0.93958 0.0
C1183 C 0.4805 0.54099 0.91141 0.0
C1184 C 0.48018 0.56442 0.8976 0.0
C1185 C 0.47961 0.49647 0.93771 0.0
C1186 C 0.45716 0.49238 0.92221 0.0
C1187 C 0.45766 0.51463 0.90943 0.0
C1188 C 0.43445 0.46463 0.9167 0.0
C1189 C 0.4798 0.47311 0.95188 0.0
C1190 C 0.43862 0.4483 0.89872 0.0
C1191 C 0.41729 0.42253 0.89214 0.0
C1192 C 0.39132 0.41245 0.9035 0.0
C1193 C 0.38733 0.42845 0.92225 0.0
C1194 C 0.4088 0.45457 0.92866 0.0
H1195 H 0.49639 0.48035 0.9668 0.0
H1196 H 0.45994 0.46008 0.96185 0.0
H1197 H 0.48283 0.46026 0.93724 0.0
H1198 H 0.45831 0.45576 0.88936 0.0
H1199 H 0.42104 0.41064 0.8777 0.0
H1200 H 0.00134 0.41549 0.03698 0.0
H1201 H 0.99096 0.45107 0.04766 0.0
H1202 H 0.94393 0.4049 0.11508 0.0
H1203 H 0.95428 0.36855 0.10445 0.0
H1204 H 0.93654 0.44362 0.05143 0.0
H1205 H 0.99815 0.48354 0.14356 0.0
H1206 H 0.00419 0.46317 0.12001 0.0
H1207 H 0.9749 0.44738 0.14119 0.0
C1208 C 0.98888 0.41277 0.05423 0.0
C1209 C 0.97854 0.38905 0.06984 0.0
C1210 C 0.98293 0.43319 0.06022 0.0
C1211 C 0.96663 0.43056 0.08204 0.0
C1212 C 0.95669 0.4073 0.09819 0.0
H1213 H 0.93899 0.5586 0.14092 0.0
H1214 H 0.93432 0.51397 0.13315 0.0
C1215 C 0.96267 0.38664 0.09216 0.0
C1216 C 0.96016 0.45242 0.0872 0.0
H1217 H 0.97683 0.50693 0.12729 0.0
C1218 C 0.94501 0.45732 0.0682 0.0
C1219 C 0.97132 0.47018 0.10902 0.0
C1220 C 0.9882 0.46607 0.12963 0.0
C1221 C 0.94111 0.47986 0.07021 0.0
C1222 C 0.9532 0.49828 0.09149 0.0
C1223 C 0.96762 0.49284 0.11092 0.0
C1224 C 0.95188 0.52371 0.09393 0.0
C1225 C 0.9241 0.4837 0.04954 0.0
C1226 C 0.96248 0.54383 0.07406 0.0
C1227 C 0.96478 0.56938 0.07831 0.0
C1228 C 0.95704 0.57524 0.1027 0.0
C1229 C 0.94528 0.55465 0.12197 0.0
C1230 C 0.94262 0.52915 0.11759 0.0
H1231 H 0.9096 0.46406 0.03989 0.0
H1232 H 0.91239 0.49271 0.05823 0.0
H1233 H 0.93773 0.49769 0.03397 0.0
H1234 H 0.97028 0.54032 0.05583 0.0
H1235 H 0.97417 0.58502 0.06328 0.0
H1236 H 0.39126 0.98518 0.22242 0.0
H1237 H 0.43298 0.98277 0.21492 0.0
H1238 H 0.41984 0.93947 0.28852 0.0
H1239 H 0.3787 0.94221 0.29624 0.0
H1240 H 0.47545 0.00705 0.25947 0.0
H1241 H 0.44518 0.90024 0.23228 0.0
H1242 H 0.42421 0.91509 0.22448 0.0
H1243 H 0.42603 0.90539 0.25783 0.0
C1244 C 0.39681 0.97429 0.23641 0.0
C1245 C 0.38194 0.96388 0.25986 0.0
C1246 C 0.42062 0.97303 0.23222 0.0
C1247 C 0.42931 0.96083 0.25116 0.0
C1248 C 0.41328 0.94865 0.27357 0.0
H1249 H 0.58081 0.95497 0.26792 0.0
H1250 H 0.53549 0.94927 0.27708 0.0
C1251 C 0.38985 0.95028 0.27794 0.0
C1252 C 0.45695 0.96441 0.24983 0.0
H1253 H 0.4919 0.93038 0.24117 0.0
C1254 C 0.47911 0.99035 0.25532 0.0
C1255 C 0.46142 0.94237 0.24522 0.0
C1256 C 0.43805 0.91415 0.23948 0.0
C1257 C 0.50582 0.99495 0.25607 0.0
C1258 C 0.51051 0.97316 0.25047 0.0
C1259 C 0.48824 0.94703 0.24554 0.0
C1260 C 0.53846 0.97779 0.24692 0.0
C1261 C 0.52873 0.0231 0.26307 0.0
C1262 C 0.55506 0.99579 0.2272 0.0
C1263 C 0.58069 0.99917 0.22213 0.0
C1264 C 0.59028 0.98435 0.23643 0.0
C1265 C 0.57402 0.96681 0.25675 0.0
C1266 C 0.54813 0.9634 0.26184 0.0
H1267 H 0.52133 0.03431 0.2754 0.0
H1268 H 0.5453 0.02216 0.2739 0.0
H1269 H 0.53737 0.03498 0.24464 0.0
H1270 H 0.54786 0.00671 0.21512 0.0
H1271 H 0.59274 0.01297 0.20644 0.0
H1272 H 0.40146 0.36945 0.7749 0.0
H1273 H 0.41377 0.37672 0.72813 0.0
H1274 H 0.38068 0.43058 0.72199 0.0
H1275 H 0.36937 0.42424 0.76908 0.0
H1276 H 0.37556 0.35958 0.69225 0.0
H1277 H 0.44643 0.46949 0.67505 0.0
H1278 H 0.4399 0.45447 0.70764 0.0
H1279 H 0.41668 0.46371 0.69297 0.0
C1280 C 0.3975 0.38341 0.7637 0.0
C1281 C 0.3843 0.39614 0.77543 0.0
C1282 C 0.40461 0.38762 0.73704 0.0
C1283 C 0.39829 0.4043 0.72159 0.0
C1284 C 0.38637 0.41816 0.73364 0.0
H1285 H 0.34327 0.37184 0.5621 0.0
H1286 H 0.35023 0.3818 0.60933 0.0
C1287 C 0.3797 0.41435 0.76049 0.0
C1288 C 0.39995 0.4035 0.69246 0.0
H1289 H 0.42151 0.44295 0.63684 0.0
C1290 C 0.38601 0.37784 0.68021 0.0
C1291 C 0.41365 0.42729 0.67674 0.0
C1292 C 0.43024 0.45526 0.68881 0.0
C1293 C 0.38464 0.37531 0.6527 0.0
C1294 C 0.3969 0.39912 0.63701 0.0
C1295 C 0.41176 0.42479 0.64907 0.0
C1296 C 0.39374 0.39734 0.60805 0.0
C1297 C 0.36985 0.34711 0.64066 0.0
C1298 C 0.41616 0.40397 0.59167 0.0
C1299 C 0.41229 0.39842 0.5646 0.0
C1300 C 0.38592 0.38612 0.55367 0.0
C1301 C 0.36377 0.38099 0.56998 0.0
C1302 C 0.36769 0.38668 0.59694 0.0
H1303 H 0.36794 0.33129 0.65488 0.0
H1304 H 0.34898 0.3422 0.63484 0.0
H1305 H 0.38054 0.34601 0.6227 0.0
H1306 H 0.43641 0.41228 0.60001 0.0
H1307 H 0.42977 0.40275 0.55248 0.0
H1308 H 0.96448 0.35388 0.72032 0.0
H1309 H 0.95485 0.36052 0.76594 0.0
H1310 H 0.03989 0.41996 0.77753 0.0
H1311 H 0.04938 0.41422 0.7316 0.0
H1312 H 0.97431 0.34731 0.80599 0.0
H1313 H 0.00557 0.45609 0.8172 0.0
H1314 H 0.00074 0.44015 0.78519 0.0
H1315 H 0.03249 0.4525 0.80274 0.0
C1316 C 0.981 0.36875 0.73248 0.0
C1317 C 0.00771 0.38339 0.72258 0.0
C1318 C 0.97545 0.37263 0.75846 0.0
C1319 C 0.99657 0.39098 0.77507 0.0
C1320 C 0.02312 0.40629 0.7649 0.0
H1321 H 0.02512 0.37267 0.93373 0.0
H1322 H 0.02465 0.38023 0.88634 0.0
C1323 C 0.02859 0.40276 0.73874 0.0
C1324 C 0.99172 0.39097 0.8038 0.0
H1325 H 0.00579 0.43252 0.85751 0.0
C1326 C 0.98062 0.36592 0.81712 0.0
C1327 C 0.99977 0.41519 0.81836 0.0
C1328 C 0.01002 0.44243 0.80504 0.0
C1329 C 0.97882 0.3646 0.84468 0.0
C1330 C 0.98888 0.389 0.85928 0.0
C1331 C 0.99849 0.41392 0.8461 0.0
C1332 C 0.99151 0.38878 0.88819 0.0
C1333 C 0.96706 0.33716 0.85807 0.0
C1334 C 0.9736 0.39209 0.90482 0.0
C1335 C 0.97379 0.38778 0.93203 0.0
C1336 C 0.99187 0.38007 0.94275 0.0
C1337 C 0.01075 0.3783 0.92606 0.0
C1338 C 0.01059 0.38268 0.89901 0.0
H1339 H 0.95437 0.32017 0.8443 0.0
H1340 H 0.98398 0.3343 0.86527 0.0
H1341 H 0.95442 0.33594 0.87538 0.0
H1342 H 0.95876 0.39682 0.89664 0.0
H1343 H 0.95908 0.38939 0.94445 0.0
H1344 H 0.61276 0.04802 0.88623 0.0
H1345 H 0.6027 0.04771 0.9334 0.0
H1346 H 0.62053 0.98295 0.94632 0.0
H1347 H 0.63052 0.98299 0.89937 0.0
H1348 H 0.57245 0.97824 0.97437 0.0
H1349 H 0.66868 0.07788 0.98664 0.0
H1350 H 0.64478 0.07547 0.96182 0.0
H1351 H 0.66236 0.05674 0.95781 0.0
C1352 C 0.61417 0.03346 0.89906 0.0
C1353 C 0.62275 0.01574 0.88918 0.0
C1354 C 0.60843 0.03334 0.92594 0.0
C1355 C 0.61112 0.01547 0.94319 0.0
C1356 C 0.61833 0.99686 0.93318 0.0
H1357 H 0.65501 0.00353 0.09646 0.0
H1358 H 0.64769 0.0079 0.04965 0.0
C1359 C 0.62415 0.99702 0.9064 0.0
C1360 C 0.60894 0.01752 0.97201 0.0
H1361 H 0.64556 0.05508 0.02515 0.0
C1362 C 0.58802 0.99527 0.98556 0.0
C1363 C 0.62952 0.03975 0.98633 0.0
C1364 C 0.65275 0.06383 0.97256 0.0
C1365 C 0.58786 0.99413 0.01327 0.0
C1366 C 0.60912 0.0158 0.02749 0.0
C1367 C 0.62926 0.03863 0.01399 0.0
C1368 C 0.61303 0.01349 0.05595 0.0
C1369 C 0.56602 0.96912 0.02715 0.0
C1370 C 0.59594 0.01533 0.07484 0.0
C1371 C 0.60008 0.01289 0.10173 0.0
C1372 C 0.62136 0.00856 0.10994 0.0
C1373 C 0.63845 0.00686 0.09082 0.0
C1374 C 0.63434 0.00938 0.06408 0.0
H1375 H 0.55183 0.95333 0.01303 0.0
H1376 H 0.57552 0.96011 0.0398 0.0
H1377 H 0.55404 0.97495 0.04023 0.0
H1378 H 0.5795 0.01869 0.06879 0.0
H1379 H 0.5866 0.01431 0.11602 0.0
H1380 H 0.63983 0.65933 0.07248 0.0
H1381 H 0.62741 0.64595 0.11841 0.0
H1382 H 0.58468 0.56117 0.09563 0.0
H1383 H 0.59714 0.57435 0.04928 0.0
H1384 H 0.57192 0.61181 0.14008 0.0
H1385 H 0.64116 0.56924 0.15413 0.0
H1386 H 0.64587 0.59218 0.12725 0.0
H1387 H 0.61803 0.55773 0.12644 0.0
C1388 C 0.62783 0.63782 0.07713 0.0
C1389 C 0.61959 0.61788 0.05726 0.0
C1390 C 0.62065 0.63023 0.10338 0.0
C1391 C 0.60524 0.60263 0.11028 0.0
C1392 C 0.59675 0.58258 0.09058 0.0
H1393 H 0.59419 0.56258 0.27914 0.0
H1394 H 0.58261 0.55437 0.23208 0.0
C1395 C 0.60389 0.59016 0.06419 0.0
C1396 C 0.59891 0.59535 0.13837 0.0
H1397 H 0.62122 0.57563 0.192 0.0
C1398 C 0.5822 0.60335 0.15143 0.0
C1399 C 0.61217 0.58407 0.15293 0.0
C1400 C 0.63043 0.57533 0.13965 0.0
C1401 C 0.57974 0.60192 0.17902 0.0
C1402 C 0.59478 0.59272 0.19376 0.0
C1403 C 0.60981 0.58276 0.18056 0.0
C1404 C 0.59845 0.59693 0.2226 0.0
C1405 C 0.56191 0.61122 0.1922 0.0
C1406 C 0.61116 0.62356 0.23271 0.0
C1407 C 0.61792 0.62834 0.25942 0.0
C1408 C 0.61221 0.60656 0.27649 0.0
C1409 C 0.59881 0.57978 0.26647 0.0
C1410 C 0.59214 0.57503 0.23964 0.0
H1411 H 0.54507 0.60844 0.17891 0.0
H1412 H 0.55304 0.59993 0.21089 0.0
H1413 H 0.57435 0.63328 0.19687 0.0
H1414 H 0.61682 0.6408 0.21973 0.0
H1415 H 0.62827 0.6492 0.2665 0.0
H1416 H 0.03588 0.60714 0.21504 0.0
H1417 H 0.03915 0.59583 0.26128 0.0
H1418 H 0.97754 0.61571 0.28314 0.0
H1419 H 0.97411 0.62699 0.2374 0.0
H1420 H 0.05287 0.63285 0.30437 0.0
H1421 H 0.95165 0.5412 0.31879 0.0
H1422 H 0.96655 0.55302 0.28645 0.0
H1423 H 0.94935 0.56833 0.30293 0.0
C1424 C 0.02288 0.60886 0.2297 0.0
C1425 C 0.00477 0.61799 0.22261 0.0
C1426 C 0.02473 0.60232 0.25601 0.0
C1427 C 0.00818 0.60442 0.2754 0.0
C1428 C 0.98999 0.61332 0.2683 0.0
H1429 H 0.98338 0.62975 0.42944 0.0
H1430 H 0.98302 0.61792 0.38303 0.0
C1431 C 0.98827 0.62002 0.24218 0.0
C1432 C 0.01131 0.59987 0.30358 0.0
H1433 H 0.97333 0.56797 0.35813 0.0
C1434 C 0.03582 0.61814 0.31617 0.0
C1435 C 0.98901 0.58055 0.31872 0.0
C1436 C 0.96274 0.55947 0.30598 0.0
C1437 C 0.03778 0.61934 0.34383 0.0
C1438 C 0.01468 0.60149 0.35902 0.0
C1439 C 0.99092 0.58172 0.34635 0.0
C1440 C 0.01346 0.60578 0.38763 0.0
C1441 C 0.06371 0.64111 0.35657 0.0
C1442 C 0.03032 0.6023 0.4056 0.0
C1443 C 0.03066 0.60917 0.43221 0.0
C1444 C 0.01408 0.61952 0.44113 0.0
C1445 C 0.99647 0.62194 0.42319 0.0
C1446 C 0.99616 0.6151 0.39669 0.0
H1447 H 0.07854 0.65536 0.34183 0.0
H1448 H 0.05911 0.65307 0.37096 0.0
H1449 H 0.07354 0.63134 0.36755 0.0
H1450 H 0.04356 0.59482 0.39895 0.0
H1451 H 0.04432 0.60691 0.44561 0.0
H1452 H 0.35003 0.98669 0.59275 0.0
H1453 H 0.35925 0.98407 0.54609 0.0
H1454 H 0.44572 0.03235 0.56078 0.0
H1455 H 0.43671 0.0353 0.60769 0.0
H1456 H 0.42785 0.05151 0.51921 0.0
H1457 H 0.38946 0.94103 0.50809 0.0
H1458 H 0.36521 0.94756 0.52448 0.0
H1459 H 0.39759 0.95783 0.53991 0.0
C1460 C 0.37104 0.99649 0.58618 0.0
C1461 C 0.39265 0.0112 0.6039 0.0
C1462 C 0.37628 0.99479 0.55954 0.0
C1463 C 0.40317 0.00762 0.55015 0.0
C1464 C 0.42484 0.02209 0.56778 0.0
H1465 H 0.41289 0.98159 0.38039 0.0
H1466 H 0.42606 0.98745 0.42711 0.0
C1467 C 0.41963 0.02376 0.59452 0.0
C1468 C 0.40819 0.00769 0.52151 0.0
H1469 H 0.39024 0.96521 0.46831 0.0
C1470 C 0.42021 0.03271 0.50806 0.0
C1471 C 0.39868 0.98319 0.50711 0.0
C1472 C 0.38728 0.95591 0.52069 0.0
C1473 C 0.42099 0.03368 0.48037 0.0
C1474 C 0.40907 0.00898 0.46595 0.0
C1475 C 0.39906 0.98412 0.47943 0.0
C1476 C 0.40393 0.00816 0.43725 0.0
C1477 C 0.43377 0.06108 0.46684 0.0
C1478 C 0.38715 0.01788 0.42759 0.0
C1479 C 0.37958 0.01454 0.40104 0.0
C1480 C 0.38845 0.0012 0.38369 0.0
C1481 C 0.40573 0.99196 0.39328 0.0
C1482 C 0.41331 0.99532 0.41991 0.0
H1483 H 0.44979 0.07724 0.47943 0.0
H1484 H 0.44294 0.06064 0.44756 0.0
H1485 H 0.41786 0.06667 0.46321 0.0
H1486 H 0.37911 0.0272 0.4408 0.0
H1487 H 0.36615 0.02179 0.39432 0.0
loop_
_geom_bond_atom_site_label_1
_geom_bond_atom_site_label_2
_geom_bond_distance
_geom_bond_site_symmetry_2
_ccdc_geom_bond_type
Co0 O3 1.970 . S
Co0 N17 1.989 . S
Co0 O25 1.967 . S
Co0 O32 1.920 . S
Co1 O4 1.966 . S
Co1 N10 2.022 . S
Co1 N18 1.993 . S
Co1 O26 1.941 . S
C2 O3 1.258 . S
C2 O4 1.263 . S
O3 Co0 1.970 . S
O3 C2 1.258 . S
O4 Co1 1.966 . S
O4 C2 1.263 . S
C5 O6 1.235 . S
C5 O32 1.289 . S
O6 C5 1.235 . S
C7 C9 1.400 . S
C7 N10 1.351 . S
C7 C12 1.501 . S
C8 C9 1.387 . S
C8 N11 1.341 . S
C9 C7 1.400 . S
C9 C8 1.387 . S
N10 Co1 2.022 . S
N10 C7 1.351 . S
N10 N11 1.365 . S
N11 C8 1.341 . S
N11 N10 1.365 . S
N11 H31 0.862 . S
C12 C7 1.501 . S
C12 H13 0.961 . S
C12 H14 0.961 . S
C12 H15 0.960 . S
H13 C12 0.961 . S
H14 C12 0.961 . S
H15 C12 0.960 . S
C16 N17 1.342 . S
C16 C20 1.401 . S
C16 C21 1.499 . S
N17 Co0 1.989 . S
N17 C16 1.342 . S
N17 N18 1.388 . S
N18 Co1 1.993 . S
N18 N17 1.388 . S
N18 C19 1.346 . S
C19 N18 1.346 . S
C19 C20 1.396 . S
C19 C29 1.510 . S
C20 C16 1.401 . S
C20 C19 1.396 . S
C21 C16 1.499 . S
C21 H22 0.959 . S
C21 H23 0.960 . S
C21 H24 0.961 . S
H22 C21 0.959 . S
H23 C21 0.960 . S
H24 C21 0.961 . S
O25 Co0 1.967 . S
O25 C33 1.258 . S
O26 Co1 1.941 . S
O26 C33 1.266 . S
H27 C29 0.959 . S
H28 C29 0.961 . S
C29 C19 1.510 . S
C29 H27 0.959 . S
C29 H28 0.961 . S
C29 H30 0.960 . S
H30 C29 0.960 . S
H31 N11 0.862 . S
O32 Co0 1.920 . S
O32 C5 1.289 . S
C33 O25 1.258 . S
C33 O26 1.266 . S
Co34 O37 1.970 . S
Co34 N51 1.989 . S
Co34 O59 1.967 . S
Co34 O66 1.920 . S
Co35 O38 1.966 . S
Co35 N44 2.022 . S
Co35 N52 1.993 . S
Co35 O60 1.941 . S
C36 O37 1.258 . S
C36 O38 1.263 . S
O37 Co34 1.970 . S
O37 C36 1.258 . S
O38 Co35 1.966 . S
O38 C36 1.263 . S
C39 O40 1.235 . S
C39 O66 1.289 . S
O40 C39 1.235 . S
C41 C43 1.400 . S
C41 N44 1.351 . S
C41 C46 1.501 . S
C42 C43 1.387 . S
C42 N45 1.341 . S
C43 C41 1.400 . S
C43 C42 1.387 . S
N44 Co35 2.022 . S
N44 C41 1.351 . S
N44 N45 1.365 . S
N45 C42 1.341 . S
N45 N44 1.365 . S
N45 H65 0.862 . S
C46 C41 1.501 . S
C46 H47 0.961 . S
C46 H48 0.961 . S
C46 H49 0.960 . S
H47 C46 0.961 . S
H48 C46 0.961 . S
H49 C46 0.960 . S
C50 N51 1.342 . S
C50 C54 1.401 . S
C50 C55 1.499 . S
N51 Co34 1.989 . S
N51 C50 1.342 . S
N51 N52 1.388 . S
N52 Co35 1.993 . S
N52 N51 1.388 . S
N52 C53 1.346 . S
C53 N52 1.346 . S
C53 C54 1.396 . S
C53 C63 1.510 . S
C54 C50 1.401 . S
C54 C53 1.396 . S
C55 C50 1.499 . S
C55 H56 0.959 . S
C55 H57 0.960 . S
C55 H58 0.961 . S
H56 C55 0.959 . S
H57 C55 0.960 . S
H58 C55 0.961 . S
O59 Co34 1.967 . S
O59 C67 1.258 1_455 S
O60 Co35 1.941 . S
O60 C67 1.266 1_455 S
H61 C63 0.959 . S
H62 C63 0.961 . S
C63 C53 1.510 . S
C63 H61 0.959 . S
C63 H62 0.961 . S
C63 H64 0.960 . S
H64 C63 0.960 . S
H65 N45 0.862 . S
O66 Co34 1.920 . S
O66 C39 1.289 . S
C67 O59 1.258 1_655 S
C67 O60 1.266 1_655 S
Co68 O71 1.970 . S
Co68 N85 1.989 . S
Co68 O93 1.967 . S
Co68 O100 1.920 . S
Co69 O72 1.966 . S
Co69 N78 2.022 . S
Co69 N86 1.993 . S
Co69 O94 1.941 . S
C70 O71 1.258 . S
C70 O72 1.263 . S
O71 Co68 1.970 . S
O71 C70 1.258 . S
O72 Co69 1.966 . S
O72 C70 1.263 . S
C73 O74 1.235 . S
C73 O100 1.289 . S
O74 C73 1.235 . S
C75 C77 1.400 . S
C75 N78 1.351 . S
C75 C80 1.501 . S
C76 C77 1.387 . S
C76 N79 1.341 . S
C77 C75 1.400 . S
C77 C76 1.387 . S
N78 Co69 2.022 . S
N78 C75 1.351 . S
N78 N79 1.365 . S
N79 C76 1.341 . S
N79 N78 1.365 . S
N79 H99 0.862 . S
C80 C75 1.501 . S
C80 H81 0.961 . S
C80 H82 0.961 . S
C80 H83 0.960 . S
H81 C80 0.961 . S
H82 C80 0.961 . S
H83 C80 0.960 . S
C84 N85 1.342 . S
C84 C88 1.401 . S
C84 C89 1.499 . S
N85 Co68 1.989 . S
N85 C84 1.342 . S
N85 N86 1.388 . S
N86 Co69 1.993 . S
N86 N85 1.388 . S
N86 C87 1.346 . S
C87 N86 1.346 . S
C87 C88 1.396 . S
C87 C97 1.510 . S
C88 C84 1.401 . S
C88 C87 1.396 . S
C89 C84 1.499 . S
C89 H90 0.959 . S
C89 H91 0.960 . S
C89 H92 0.961 . S
H90 C89 0.959 . S
H91 C89 0.960 . S
H92 C89 0.961 . S
O93 Co68 1.967 . S
O93 C101 1.258 1_545 S
O94 Co69 1.941 . S
O94 C101 1.266 1_545 S
H95 C97 0.959 . S
H96 C97 0.961 . S
C97 C87 1.510 . S
C97 H95 0.959 . S
C97 H96 0.961 . S
C97 H98 0.960 . S
H98 C97 0.960 . S
H99 N79 0.862 . S
O100 Co68 1.920 . S
O100 C73 1.289 . S
C101 O93 1.258 1_565 S
C101 O94 1.266 1_565 S
Co102 O105 1.970 . S
Co102 N119 1.989 . S
Co102 O127 1.967 . S
Co102 O134 1.920 1_556 S
Co103 O106 1.966 . S
Co103 N112 2.022 . S
Co103 N120 1.993 . S
Co103 O128 1.941 . S
C104 O105 1.258 . S
C104 O106 1.263 . S
O105 Co102 1.970 . S
O105 C104 1.258 . S
O106 Co103 1.966 . S
O106 C104 1.263 . S
C107 O108 1.235 . S
C107 O134 1.289 . S
O108 C107 1.235 . S
C109 C111 1.400 . S
C109 N112 1.351 . S
C109 C114 1.501 . S
C110 C111 1.387 . S
C110 N113 1.341 . S
C111 C109 1.400 . S
C111 C110 1.387 . S
N112 Co103 2.022 . S
N112 C109 1.351 . S
N112 N113 1.365 . S
N113 C110 1.341 . S
N113 N112 1.365 . S
N113 H133 0.862 . S
C114 C109 1.501 . S
C114 H115 0.961 . S
C114 H116 0.961 . S
C114 H117 0.960 . S
H115 C114 0.961 . S
H116 C114 0.961 . S
H117 C114 0.960 . S
C118 N119 1.342 1_554 S
C118 C122 1.401 1_554 S
C118 C123 1.499 . S
N119 Co102 1.989 . S
N119 C118 1.342 1_556 S
N119 N120 1.388 . S
N120 Co103 1.993 . S
N120 N119 1.388 . S
N120 C121 1.346 . S
C121 N120 1.346 . S
C121 C122 1.396 . S
C121 C131 1.510 . S
C122 C118 1.401 1_556 S
C122 C121 1.396 . S
C123 C118 1.499 . S
C123 H124 0.959 . S
C123 H125 0.960 . S
C123 H126 0.961 . S
H124 C123 0.959 . S
H125 C123 0.960 . S
H126 C123 0.961 . S
O127 Co102 1.967 . S
O127 C135 1.258 . S
O128 Co103 1.941 . S
O128 C135 1.266 . S
H129 C131 0.959 . S
H130 C131 0.961 . S
C131 C121 1.510 . S
C131 H129 0.959 . S
C131 H130 0.961 . S
C131 H132 0.960 . S
H132 C131 0.960 . S
H133 N113 0.862 . S
O134 Co102 1.920 1_554 S
O134 C107 1.289 . S
C135 O127 1.258 . S
C135 O128 1.266 . S
Co136 O139 1.970 . S
Co136 N153 1.989 . S
Co136 O161 1.967 . S
Co136 O168 1.920 . S
Co137 O140 1.966 . S
Co137 N146 2.022 . S
Co137 N154 1.993 . S
Co137 O162 1.941 . S
C138 O139 1.258 . S
C138 O140 1.263 . S
O139 Co136 1.970 . S
O139 C138 1.258 . S
O140 Co137 1.966 . S
O140 C138 1.263 . S
C141 O142 1.235 . S
C141 O168 1.289 . S
O142 C141 1.235 . S
C143 C145 1.400 . S
C143 N146 1.351 . S
C143 C148 1.501 . S
C144 C145 1.387 . S
C144 N147 1.341 . S
C145 C143 1.400 . S
C145 C144 1.387 . S
N146 Co137 2.022 . S
N146 C143 1.351 . S
N146 N147 1.365 . S
N147 C144 1.341 . S
N147 N146 1.365 . S
N147 H167 0.862 . S
C148 C143 1.501 . S
C148 H149 0.961 . S
C148 H150 0.961 . S
C148 H151 0.960 . S
H149 C148 0.961 . S
H150 C148 0.961 . S
H151 C148 0.960 . S
C152 N153 1.342 . S
C152 C156 1.401 . S
C152 C157 1.499 . S
N153 Co136 1.989 . S
N153 C152 1.342 . S
N153 N154 1.388 . S
N154 Co137 1.993 . S
N154 N153 1.388 . S
N154 C155 1.346 . S
C155 N154 1.346 . S
C155 C156 1.396 . S
C155 C165 1.510 . S
C156 C152 1.401 . S
C156 C155 1.396 . S
C157 C152 1.499 . S
C157 H158 0.959 . S
C157 H159 0.960 . S
C157 H160 0.961 . S
H158 C157 0.959 . S
H159 C157 0.960 . S
H160 C157 0.961 . S
O161 Co136 1.967 . S
O161 C169 1.258 1_655 S
O162 Co137 1.941 . S
O162 C169 1.266 1_655 S
H163 C165 0.959 . S
H164 C165 0.961 . S
C165 C155 1.510 . S
C165 H163 0.959 . S
C165 H164 0.961 . S
C165 H166 0.960 . S
H166 C165 0.960 . S
H167 N147 0.862 . S
O168 Co136 1.920 . S
O168 C141 1.289 . S
C169 O161 1.258 1_455 S
C169 O162 1.266 1_455 S
Co170 O173 1.970 . S
Co170 N187 1.989 . S
Co170 O195 1.967 . S
Co170 O202 1.920 . S
Co171 O174 1.966 . S
Co171 N180 2.022 . S
Co171 N188 1.993 . S
Co171 O196 1.941 . S
C172 O173 1.258 . S
C172 O174 1.263 . S
O173 Co170 1.970 . S
O173 C172 1.258 . S
O174 Co171 1.966 . S
O174 C172 1.263 . S
C175 O176 1.235 . S
C175 O202 1.289 . S
O176 C175 1.235 . S
C177 C179 1.400 . S
C177 N180 1.351 . S
C177 C182 1.501 . S
C178 C179 1.387 . S
C178 N181 1.341 . S
C179 C177 1.400 . S
C179 C178 1.387 . S
N180 Co171 2.022 . S
N180 C177 1.351 . S
N180 N181 1.365 . S
N181 C178 1.341 . S
N181 N180 1.365 . S
N181 H201 0.862 . S
C182 C177 1.501 . S
C182 H183 0.961 . S
C182 H184 0.961 . S
C182 H185 0.960 . S
H183 C182 0.961 . S
H184 C182 0.961 . S
H185 C182 0.960 . S
C186 N187 1.342 . S
C186 C190 1.401 . S
C186 C191 1.499 . S
N187 Co170 1.989 . S
N187 C186 1.342 . S
N187 N188 1.388 . S
N188 Co171 1.993 . S
N188 N187 1.388 . S
N188 C189 1.346 . S
C189 N188 1.346 . S
C189 C190 1.396 . S
C189 C199 1.510 . S
C190 C186 1.401 . S
C190 C189 1.396 . S
C191 C186 1.499 . S
C191 H192 0.959 . S
C191 H193 0.960 . S
C191 H194 0.961 . S
H192 C191 0.959 . S
H193 C191 0.960 . S
H194 C191 0.961 . S
O195 Co170 1.967 . S
O195 C203 1.258 1_565 S
O196 Co171 1.941 . S
O196 C203 1.266 1_565 S
H197 C199 0.959 . S
H198 C199 0.961 . S
C199 C189 1.510 . S
C199 H197 0.959 . S
C199 H198 0.961 . S
C199 H200 0.960 . S
H200 C199 0.960 . S
H201 N181 0.862 . S
O202 Co170 1.920 . S
O202 C175 1.289 . S
C203 O195 1.258 1_545 S
C203 O196 1.266 1_545 S
Co204 O207 1.970 . S
Co204 N221 1.989 . S
Co204 O229 1.967 . S
Co204 O236 1.920 . S
Co205 O208 1.966 . S
Co205 N214 2.022 . S
Co205 N222 1.993 . S
Co205 O230 1.941 . S
C206 O207 1.258 . S
C206 O208 1.263 . S
O207 Co204 1.970 . S
O207 C206 1.258 . S
O208 Co205 1.966 . S
O208 C206 1.263 . S
C209 O210 1.235 . S
C209 O236 1.289 . S
O210 C209 1.235 . S
C211 C213 1.400 . S
C211 N214 1.351 . S
C211 C216 1.501 . S
C212 C213 1.387 . S
C212 N215 1.341 . S
C213 C211 1.400 . S
C213 C212 1.387 . S
N214 Co205 2.022 . S
N214 C211 1.351 . S
N214 N215 1.365 . S
N215 C212 1.341 . S
N215 N214 1.365 . S
N215 H235 0.862 . S
C216 C211 1.501 . S
C216 H217 0.961 . S
C216 H218 0.961 . S
C216 H219 0.960 . S
H217 C216 0.961 . S
H218 C216 0.961 . S
H219 C216 0.960 . S
C220 N221 1.342 . S
C220 C224 1.401 . S
C220 C225 1.499 . S
N221 Co204 1.989 . S
N221 C220 1.342 . S
N221 N222 1.388 . S
N222 Co205 1.993 . S
N222 N221 1.388 . S
N222 C223 1.346 . S
C223 N222 1.346 . S
C223 C224 1.396 . S
C223 C233 1.510 . S
C224 C220 1.401 . S
C224 C223 1.396 . S
C225 C220 1.499 . S
C225 H226 0.959 . S
C225 H227 0.960 . S
C225 H228 0.961 . S
H226 C225 0.959 . S
H227 C225 0.960 . S
H228 C225 0.961 . S
O229 Co204 1.967 . S
O229 C237 1.258 . S
O230 Co205 1.941 . S
O230 C237 1.266 . S
H231 C233 0.959 . S
H232 C233 0.961 . S
C233 C223 1.510 . S
C233 H231 0.959 . S
C233 H232 0.961 . S
C233 H234 0.960 . S
H234 C233 0.960 . S
H235 N215 0.862 . S
O236 Co204 1.920 . S
O236 C209 1.289 . S
C237 O229 1.258 . S
C237 O230 1.266 . S
Co238 O241 1.970 . S
Co238 N255 1.989 . S
Co238 O263 1.967 . S
Co238 O270 1.920 . S
Co239 O242 1.966 . S
Co239 N248 2.022 . S
Co239 N256 1.993 . S
Co239 O264 1.941 . S
C240 O241 1.258 . S
C240 O242 1.263 . S
O241 Co238 1.970 . S
O241 C240 1.258 . S
O242 Co239 1.966 . S
O242 C240 1.263 . S
C243 O244 1.235 . S
C243 O270 1.289 . S
O244 C243 1.235 . S
C245 C247 1.400 . S
C245 N248 1.351 . S
C245 C250 1.501 . S
C246 C247 1.387 . S
C246 N249 1.341 . S
C247 C245 1.400 . S
C247 C246 1.387 . S
N248 Co239 2.022 . S
N248 C245 1.351 . S
N248 N249 1.365 . S
N249 C246 1.341 . S
N249 N248 1.365 . S
N249 H269 0.862 . S
C250 C245 1.501 . S
C250 H251 0.961 . S
C250 H252 0.961 . S
C250 H253 0.960 . S
H251 C250 0.961 . S
H252 C250 0.961 . S
H253 C250 0.960 . S
C254 N255 1.342 . S
C254 C258 1.401 . S
C254 C259 1.499 . S
N255 Co238 1.989 . S
N255 C254 1.342 . S
N255 N256 1.388 . S
N256 Co239 1.993 . S
N256 N255 1.388 . S
N256 C257 1.346 . S
C257 N256 1.346 . S
C257 C258 1.396 . S
C257 C267 1.510 . S
C258 C254 1.401 . S
C258 C257 1.396 . S
C259 C254 1.499 . S
C259 H260 0.959 . S
C259 H261 0.960 . S
C259 H262 0.961 . S
H260 C259 0.959 . S
H261 C259 0.960 . S
H262 C259 0.961 . S
O263 Co238 1.967 . S
O263 C271 1.258 1_455 S
O264 Co239 1.941 . S
O264 C271 1.266 1_455 S
H265 C267 0.959 . S
H266 C267 0.961 . S
C267 C257 1.510 . S
C267 H265 0.959 . S
C267 H266 0.961 . S
C267 H268 0.960 . S
H268 C267 0.960 . S
H269 N249 0.862 . S
O270 Co238 1.920 . S
O270 C243 1.289 . S
C271 O263 1.258 1_655 S
C271 O264 1.266 1_655 S
Co272 O275 1.970 . S
Co272 N289 1.989 . S
Co272 O297 1.967 . S
Co272 O304 1.920 . S
Co273 O276 1.966 . S
Co273 N282 2.022 . S
Co273 N290 1.993 . S
Co273 O298 1.941 . S
C274 O275 1.258 . S
C274 O276 1.263 . S
O275 Co272 1.970 . S
O275 C274 1.258 . S
O276 Co273 1.966 . S
O276 C274 1.263 . S
C277 O278 1.235 . S
C277 O304 1.289 . S
O278 C277 1.235 . S
C279 C281 1.400 . S
C279 N282 1.351 . S
C279 C284 1.501 . S
C280 C281 1.387 . S
C280 N283 1.341 . S
C281 C279 1.400 . S
C281 C280 1.387 . S
N282 Co273 2.022 . S
N282 C279 1.351 . S
N282 N283 1.365 . S
N283 C280 1.341 . S
N283 N282 1.365 . S
N283 H303 0.862 . S
C284 C279 1.501 . S
C284 H285 0.961 . S
C284 H286 0.961 . S
C284 H287 0.960 . S
H285 C284 0.961 . S
H286 C284 0.961 . S
H287 C284 0.960 . S
C288 N289 1.342 . S
C288 C292 1.401 . S
C288 C293 1.499 . S
N289 Co272 1.989 . S
N289 C288 1.342 . S
N289 N290 1.388 . S
N290 Co273 1.993 . S
N290 N289 1.388 . S
N290 C291 1.346 . S
C291 N290 1.346 . S
C291 C292 1.396 . S
C291 C301 1.510 . S
C292 C288 1.401 . S
C292 C291 1.396 . S
C293 C288 1.499 . S
C293 H294 0.959 . S
C293 H295 0.960 . S
C293 H296 0.961 . S
H294 C293 0.959 . S
H295 C293 0.960 . S
H296 C293 0.961 . S
O297 Co272 1.967 . S
O297 C305 1.258 1_545 S
O298 Co273 1.941 . S
O298 C305 1.266 1_545 S
H299 C301 0.959 . S
H300 C301 0.961 . S
C301 C291 1.510 . S
C301 H299 0.959 . S
C301 H300 0.961 . S
C301 H302 0.960 . S
H302 C301 0.960 . S
H303 N283 0.862 . S
O304 Co272 1.920 . S
O304 C277 1.289 . S
C305 O297 1.258 1_565 S
C305 O298 1.266 1_565 S
Co306 O309 1.970 . S
Co306 N323 1.989 . S
Co306 O331 1.967 . S
Co306 O338 1.920 . S
Co307 O310 1.966 . S
Co307 N316 2.022 . S
Co307 N324 1.993 . S
Co307 O332 1.941 . S
C308 O309 1.258 . S
C308 O310 1.263 . S
O309 Co306 1.970 . S
O309 C308 1.258 . S
O310 Co307 1.966 . S
O310 C308 1.263 . S
C311 O312 1.235 . S
C311 O338 1.289 . S
O312 C311 1.235 . S
C313 C315 1.400 . S
C313 N316 1.351 . S
C313 C318 1.501 . S
C314 C315 1.387 . S
C314 N317 1.341 . S
C315 C313 1.400 . S
C315 C314 1.387 . S
N316 Co307 2.022 . S
N316 C313 1.351 . S
N316 N317 1.365 . S
N317 C314 1.341 . S
N317 N316 1.365 . S
N317 H337 0.862 . S
C318 C313 1.501 . S
C318 H319 0.961 . S
C318 H320 0.961 . S
C318 H321 0.960 . S
H319 C318 0.961 . S
H320 C318 0.961 . S
H321 C318 0.960 . S
C322 N323 1.342 . S
C322 C326 1.401 . S
C322 C327 1.499 . S
N323 Co306 1.989 . S
N323 C322 1.342 . S
N323 N324 1.388 . S
N324 Co307 1.993 . S
N324 N323 1.388 . S
N324 C325 1.346 . S
C325 N324 1.346 . S
C325 C326 1.396 . S
C325 C335 1.510 . S
C326 C322 1.401 . S
C326 C325 1.396 . S
C327 C322 1.499 . S
C327 H328 0.959 . S
C327 H329 0.960 . S
C327 H330 0.961 . S
H328 C327 0.959 . S
H329 C327 0.960 . S
H330 C327 0.961 . S
O331 Co306 1.967 . S
O331 C339 1.258 . S
O332 Co307 1.941 . S
O332 C339 1.266 . S
H333 C335 0.959 . S
H334 C335 0.961 . S
C335 C325 1.510 . S
C335 H333 0.959 . S
C335 H334 0.961 . S
C335 H336 0.960 . S
H336 C335 0.960 . S
H337 N317 0.862 . S
O338 Co306 1.920 . S
O338 C311 1.289 . S
C339 O331 1.258 . S
C339 O332 1.266 . S
Co340 O343 1.970 . S
Co340 N357 1.989 . S
Co340 O365 1.967 . S
Co340 O372 1.920 1_554 S
Co341 O344 1.966 . S
Co341 N350 2.022 . S
Co341 N358 1.993 . S
Co341 O366 1.941 . S
C342 O343 1.258 . S
C342 O344 1.263 . S
O343 Co340 1.970 . S
O343 C342 1.258 . S
O344 Co341 1.966 . S
O344 C342 1.263 . S
C345 O346 1.235 . S
C345 O372 1.289 . S
O346 C345 1.235 . S
C347 C349 1.400 . S
C347 N350 1.351 . S
C347 C352 1.501 . S
C348 C349 1.387 . S
C348 N351 1.341 . S
C349 C347 1.400 . S
C349 C348 1.387 . S
N350 Co341 2.022 . S
N350 C347 1.351 . S
N350 N351 1.365 . S
N351 C348 1.341 . S
N351 N350 1.365 . S
N351 H371 0.862 . S
C352 C347 1.501 . S
C352 H353 0.961 . S
C352 H354 0.961 . S
C352 H355 0.960 . S
H353 C352 0.961 . S
H354 C352 0.961 . S
H355 C352 0.960 . S
C356 N357 1.342 1_556 S
C356 C360 1.401 1_556 S
C356 C361 1.499 . S
N357 Co340 1.989 . S
N357 C356 1.342 1_554 S
N357 N358 1.388 . S
N358 Co341 1.993 . S
N358 N357 1.388 . S
N358 C359 1.346 . S
C359 N358 1.346 . S
C359 C360 1.396 . S
C359 C369 1.510 . S
C360 C356 1.401 1_554 S
C360 C359 1.396 . S
C361 C356 1.499 . S
C361 H362 0.959 . S
C361 H363 0.960 . S
C361 H364 0.961 . S
H362 C361 0.959 . S
H363 C361 0.960 . S
H364 C361 0.961 . S
O365 Co340 1.967 . S
O365 C373 1.258 1_655 S
O366 Co341 1.941 . S
O366 C373 1.266 1_655 S
H367 C369 0.959 . S
H368 C369 0.961 . S
C369 C359 1.510 . S
C369 H367 0.959 . S
C369 H368 0.961 . S
C369 H370 0.960 . S
H370 C369 0.960 . S
H371 N351 0.862 . S
O372 Co340 1.920 1_556 S
O372 C345 1.289 . S
C373 O365 1.258 1_455 S
C373 O366 1.266 1_455 S
Co374 O377 1.970 . S
Co374 N391 1.989 . S
Co374 O399 1.967 . S
Co374 O406 1.920 . S
Co375 O378 1.966 . S
Co375 N384 2.022 . S
Co375 N392 1.993 . S
Co375 O400 1.941 . S
C376 O377 1.258 . S
C376 O378 1.263 . S
O377 Co374 1.970 . S
O377 C376 1.258 . S
O378 Co375 1.966 . S
O378 C376 1.263 . S
C379 O380 1.235 . S
C379 O406 1.289 . S
O380 C379 1.235 . S
C381 C383 1.400 . S
C381 N384 1.351 . S
C381 C386 1.501 . S
C382 C383 1.387 . S
C382 N385 1.341 . S
C383 C381 1.400 . S
C383 C382 1.387 . S
N384 Co375 2.022 . S
N384 C381 1.351 . S
N384 N385 1.365 . S
N385 C382 1.341 . S
N385 N384 1.365 . S
N385 H405 0.862 . S
C386 C381 1.501 . S
C386 H387 0.961 . S
C386 H388 0.961 . S
C386 H389 0.960 . S
H387 C386 0.961 . S
H388 C386 0.961 . S
H389 C386 0.960 . S
C390 N391 1.342 . S
C390 C394 1.401 . S
C390 C395 1.499 . S
N391 Co374 1.989 . S
N391 C390 1.342 . S
N391 N392 1.388 . S
N392 Co375 1.993 . S
N392 N391 1.388 . S
N392 C393 1.346 . S
C393 N392 1.346 . S
C393 C394 1.396 . S
C393 C403 1.510 . S
C394 C390 1.401 . S
C394 C393 1.396 . S
C395 C390 1.499 . S
C395 H396 0.959 . S
C395 H397 0.960 . S
C395 H398 0.961 . S
H396 C395 0.959 . S
H397 C395 0.960 . S
H398 C395 0.961 . S
O399 Co374 1.967 . S
O399 C407 1.258 1_565 S
O400 Co375 1.941 . S
O400 C407 1.266 1_565 S
H401 C403 0.959 . S
H402 C403 0.961 . S
C403 C393 1.510 . S
C403 H401 0.959 . S
C403 H402 0.961 . S
C403 H404 0.960 . S
H404 C403 0.960 . S
H405 N385 0.862 . S
O406 Co374 1.920 . S
O406 C379 1.289 . S
C407 O399 1.258 1_545 S
C407 O400 1.266 1_545 S
H408 C416 0.929 . S
H409 C418 0.930 . S
H410 C420 0.930 . S
H411 C423 0.929 . S
H412 C426 0.930 . S
H413 C428 0.960 . S
H414 C428 0.960 . S
H415 C428 0.960 . S
C416 H408 0.929 . S
C416 C417 1.377 . S
C416 C418 1.384 . S
C417 C416 1.377 . S
C417 C423 1.390 . S
C418 H409 0.930 . S
C418 C416 1.384 . S
C418 C419 1.372 . S
C419 C418 1.372 . S
C419 C420 1.400 . S
C419 C424 1.490 . S
C420 H410 0.930 . S
C420 C419 1.400 . S
C420 C423 1.386 . S
H421 C437 0.930 . S
H422 C438 0.931 . S
C423 H411 0.929 . S
C423 C417 1.390 . S
C423 C420 1.386 . S
C424 C419 1.490 . S
C424 C426 1.395 . S
C424 C427 1.403 . S
H425 C431 0.930 . S
C426 H412 0.930 . S
C426 C424 1.395 . S
C426 C429 1.403 . S
C427 C424 1.403 . S
C427 C428 1.524 . S
C427 C431 1.400 . S
C428 H413 0.960 . S
C428 H414 0.960 . S
C428 H415 0.960 . S
C428 C427 1.524 . S
C429 C426 1.403 . S
C429 C430 1.392 . S
C429 C433 1.495 . S
C430 C429 1.392 . S
C430 C431 1.385 . S
C430 C432 1.478 . S
C431 H425 0.930 . S
C431 C427 1.400 . S
C431 C430 1.385 . S
C432 C430 1.478 . S
C432 C434 1.381 . S
C432 C438 1.383 . S
C433 C429 1.495 . S
C433 H439 0.959 . S
C433 H440 0.961 . S
C433 H441 0.960 . S
C434 C432 1.381 . S
C434 C435 1.394 . S
C434 H442 0.930 . S
C435 C434 1.394 . S
C435 C436 1.383 . S
C435 H443 0.929 . S
C436 C435 1.383 . S
C436 C437 1.377 . S
C437 H421 0.930 . S
C437 C436 1.377 . S
C437 C438 1.379 . S
C438 H422 0.931 . S
C438 C432 1.383 . S
C438 C437 1.379 . S
H439 C433 0.959 . S
H440 C433 0.961 . S
H441 C433 0.960 . S
H442 C434 0.930 . S
H443 C435 0.929 . S
H444 C452 0.929 . S
H445 C454 0.930 . S
H446 C456 0.930 . S
H447 C459 0.929 . S
H448 C462 0.930 . S
H449 C464 0.960 . S
H450 C464 0.960 . S
H451 C464 0.960 . S
C452 H444 0.929 . S
C452 C453 1.377 . S
C452 C454 1.384 . S
C453 C452 1.377 . S
C453 C459 1.390 . S
C454 H445 0.930 . S
C454 C452 1.384 . S
C454 C455 1.372 . S
C455 C454 1.372 . S
C455 C456 1.400 . S
C455 C460 1.490 . S
C456 H446 0.930 . S
C456 C455 1.400 . S
C456 C459 1.386 . S
H457 C473 0.930 . S
H458 C474 0.931 . S
C459 H447 0.929 . S
C459 C453 1.390 . S
C459 C456 1.386 . S
C460 C455 1.490 . S
C460 C462 1.395 . S
C460 C463 1.403 . S
H461 C467 0.930 . S
C462 H448 0.930 . S
C462 C460 1.395 . S
C462 C465 1.403 . S
C463 C460 1.403 . S
C463 C464 1.524 . S
C463 C467 1.400 . S
C464 H449 0.960 . S
C464 H450 0.960 . S
C464 H451 0.960 . S
C464 C463 1.524 . S
C465 C462 1.403 . S
C465 C466 1.392 . S
C465 C469 1.495 . S
C466 C465 1.392 . S
C466 C467 1.385 . S
C466 C468 1.478 . S
C467 H461 0.930 . S
C467 C463 1.400 . S
C467 C466 1.385 . S
C468 C466 1.478 . S
C468 C470 1.381 . S
C468 C474 1.383 . S
C469 C465 1.495 . S
C469 H475 0.959 . S
C469 H476 0.961 . S
C469 H477 0.960 . S
C470 C468 1.381 . S
C470 C471 1.394 . S
C470 H478 0.930 . S
C471 C470 1.394 . S
C471 C472 1.383 . S
C471 H479 0.929 . S
C472 C471 1.383 . S
C472 C473 1.377 . S
C473 H457 0.930 . S
C473 C472 1.377 . S
C473 C474 1.379 . S
C474 H458 0.931 . S
C474 C468 1.383 . S
C474 C473 1.379 . S
H475 C469 0.959 . S
H476 C469 0.961 . S
H477 C469 0.960 . S
H478 C470 0.930 . S
H479 C471 0.929 . S
H480 C488 0.929 . S
H481 C490 0.930 . S
H482 C492 0.930 . S
H483 C495 0.929 . S
H484 C498 0.930 . S
H485 C500 0.960 . S
H486 C500 0.960 . S
H487 C500 0.960 . S
C488 H480 0.929 . S
C488 C489 1.377 . S
C488 C490 1.384 . S
C489 C488 1.377 . S
C489 C495 1.390 . S
C490 H481 0.930 . S
C490 C488 1.384 . S
C490 C491 1.372 . S
C491 C490 1.372 . S
C491 C492 1.400 . S
C491 C496 1.490 . S
C492 H482 0.930 . S
C492 C491 1.400 . S
C492 C495 1.386 . S
H493 C509 0.930 . S
H494 C510 0.931 . S
C495 H483 0.929 . S
C495 C489 1.390 . S
C495 C492 1.386 . S
C496 C491 1.490 . S
C496 C498 1.395 . S
C496 C499 1.403 . S
H497 C503 0.930 . S
C498 H484 0.930 . S
C498 C496 1.395 . S
C498 C501 1.403 . S
C499 C496 1.403 . S
C499 C500 1.524 . S
C499 C503 1.400 . S
C500 H485 0.960 . S
C500 H486 0.960 . S
C500 H487 0.960 . S
C500 C499 1.524 . S
C501 C498 1.403 . S
C501 C502 1.392 . S
C501 C505 1.495 . S
C502 C501 1.392 . S
C502 C503 1.385 . S
C502 C504 1.478 . S
C503 H497 0.930 . S
C503 C499 1.400 . S
C503 C502 1.385 . S
C504 C502 1.478 . S
C504 C506 1.381 . S
C504 C510 1.383 . S
C505 C501 1.495 . S
C505 H511 0.959 . S
C505 H512 0.961 . S
C505 H513 0.960 . S
C506 C504 1.381 . S
C506 C507 1.394 . S
C506 H514 0.930 . S
C507 C506 1.394 . S
C507 C508 1.383 . S
C507 H515 0.929 . S
C508 C507 1.383 . S
C508 C509 1.377 . S
C509 H493 0.930 . S
C509 C508 1.377 . S
C509 C510 1.379 . S
C510 H494 0.931 . S
C510 C504 1.383 . S
C510 C509 1.379 . S
H511 C505 0.959 . S
H512 C505 0.961 . S
H513 C505 0.960 . S
H514 C506 0.930 . S
H515 C507 0.929 . S
H516 C524 0.929 . S
H517 C526 0.930 . S
H518 C528 0.930 . S
H519 C531 0.929 . S
H520 C534 0.930 . S
H521 C536 0.960 . S
H522 C536 0.960 . S
H523 C536 0.960 . S
C524 H516 0.929 . S
C524 C525 1.377 1_556 S
C524 C526 1.384 1_556 S
C525 C524 1.377 1_554 S
C525 C531 1.390 . S
C526 H517 0.930 . S
C526 C524 1.384 1_554 S
C526 C527 1.372 . S
C527 C526 1.372 . S
C527 C528 1.400 . S
C527 C532 1.490 . S
C528 H518 0.930 . S
C528 C527 1.400 . S
C528 C531 1.386 . S
H529 C545 0.930 . S
H530 C546 0.931 . S
C531 H519 0.929 . S
C531 C525 1.390 . S
C531 C528 1.386 . S
C532 C527 1.490 . S
C532 C534 1.395 . S
C532 C535 1.403 . S
H533 C539 0.930 . S
C534 H520 0.930 . S
C534 C532 1.395 . S
C534 C537 1.403 . S
C535 C532 1.403 . S
C535 C536 1.524 . S
C535 C539 1.400 . S
C536 H521 0.960 . S
C536 H522 0.960 . S
C536 H523 0.960 . S
C536 C535 1.524 . S
C537 C534 1.403 . S
C537 C538 1.392 . S
C537 C541 1.495 . S
C538 C537 1.392 . S
C538 C539 1.385 . S
C538 C540 1.478 . S
C539 H533 0.930 . S
C539 C535 1.400 . S
C539 C538 1.385 . S
C540 C538 1.478 . S
C540 C542 1.381 . S
C540 C546 1.383 . S
C541 C537 1.495 . S
C541 H547 0.959 . S
C541 H548 0.961 . S
C541 H549 0.960 . S
C542 C540 1.381 . S
C542 C543 1.394 . S
C542 H550 0.930 . S
C543 C542 1.394 . S
C543 C544 1.383 . S
C543 H551 0.929 . S
C544 C543 1.383 . S
C544 C545 1.377 . S
C545 H529 0.930 . S
C545 C544 1.377 . S
C545 C546 1.379 . S
C546 H530 0.931 . S
C546 C540 1.383 . S
C546 C545 1.379 . S
H547 C541 0.959 . S
H548 C541 0.961 . S
H549 C541 0.960 . S
H550 C542 0.930 . S
H551 C543 0.929 . S
H552 C560 0.929 . S
H553 C562 0.930 . S
H554 C564 0.930 . S
H555 C567 0.929 . S
H556 C570 0.930 . S
H557 C572 0.960 . S
H558 C572 0.960 . S
H559 C572 0.960 . S
C560 H552 0.929 . S
C560 C561 1.377 . S
C560 C562 1.384 . S
C561 C560 1.377 . S
C561 C567 1.390 . S
C562 H553 0.930 . S
C562 C560 1.384 . S
C562 C563 1.372 . S
C563 C562 1.372 . S
C563 C564 1.400 . S
C563 C568 1.490 . S
C564 H554 0.930 . S
C564 C563 1.400 . S
C564 C567 1.386 . S
H565 C581 0.930 . S
H566 C582 0.931 . S
C567 H555 0.929 . S
C567 C561 1.390 . S
C567 C564 1.386 . S
C568 C563 1.490 . S
C568 C570 1.395 . S
C568 C571 1.403 . S
H569 C575 0.930 . S
C570 H556 0.930 . S
C570 C568 1.395 . S
C570 C573 1.403 . S
C571 C568 1.403 . S
C571 C572 1.524 . S
C571 C575 1.400 . S
C572 H557 0.960 . S
C572 H558 0.960 . S
C572 H559 0.960 . S
C572 C571 1.524 . S
C573 C570 1.403 . S
C573 C574 1.392 . S
C573 C577 1.495 . S
C574 C573 1.392 . S
C574 C575 1.385 . S
C574 C576 1.478 . S
C575 H569 0.930 . S
C575 C571 1.400 . S
C575 C574 1.385 . S
C576 C574 1.478 . S
C576 C578 1.381 . S
C576 C582 1.383 . S
C577 C573 1.495 . S
C577 H583 0.959 . S
C577 H584 0.961 . S
C577 H585 0.960 . S
C578 C576 1.381 . S
C578 C579 1.394 . S
C578 H586 0.930 . S
C579 C578 1.394 . S
C579 C580 1.383 . S
C579 H587 0.929 . S
C580 C579 1.383 . S
C580 C581 1.377 . S
C581 H565 0.930 . S
C581 C580 1.377 . S
C581 C582 1.379 . S
C582 H566 0.931 . S
C582 C576 1.383 . S
C582 C581 1.379 . S
H583 C577 0.959 . S
H584 C577 0.961 . S
H585 C577 0.960 . S
H586 C578 0.930 . S
H587 C579 0.929 . S
H588 C596 0.929 . S
H589 C598 0.930 . S
H590 C600 0.930 . S
H591 C603 0.929 . S
H592 C606 0.930 . S
H593 C608 0.960 . S
H594 C608 0.960 . S
H595 C608 0.960 . S
C596 H588 0.929 . S
C596 C597 1.377 . S
C596 C598 1.384 . S
C597 C596 1.377 . S
C597 C603 1.390 . S
C598 H589 0.930 . S
C598 C596 1.384 . S
C598 C599 1.372 . S
C599 C598 1.372 . S
C599 C600 1.400 . S
C599 C604 1.490 . S
C600 H590 0.930 . S
C600 C599 1.400 . S
C600 C603 1.386 . S
H601 C617 0.930 . S
H602 C618 0.931 . S
C603 H591 0.929 . S
C603 C597 1.390 . S
C603 C600 1.386 . S
C604 C599 1.490 . S
C604 C606 1.395 . S
C604 C607 1.403 . S
H605 C611 0.930 . S
C606 H592 0.930 . S
C606 C604 1.395 . S
C606 C609 1.403 . S
C607 C604 1.403 . S
C607 C608 1.524 . S
C607 C611 1.400 . S
C608 H593 0.960 . S
C608 H594 0.960 . S
C608 H595 0.960 . S
C608 C607 1.524 . S
C609 C606 1.403 . S
C609 C610 1.392 . S
C609 C613 1.495 . S
C610 C609 1.392 . S
C610 C611 1.385 . S
C610 C612 1.478 . S
C611 H605 0.930 . S
C611 C607 1.400 . S
C611 C610 1.385 . S
C612 C610 1.478 . S
C612 C614 1.381 . S
C612 C618 1.383 . S
C613 C609 1.495 . S
C613 H619 0.959 . S
C613 H620 0.961 . S
C613 H621 0.960 . S
C614 C612 1.381 . S
C614 C615 1.394 . S
C614 H622 0.930 . S
C615 C614 1.394 . S
C615 C616 1.383 . S
C615 H623 0.929 . S
C616 C615 1.383 . S
C616 C617 1.377 . S
C617 H601 0.930 . S
C617 C616 1.377 . S
C617 C618 1.379 . S
C618 H602 0.931 . S
C618 C612 1.383 . S
C618 C617 1.379 . S
H619 C613 0.959 . S
H620 C613 0.961 . S
H621 C613 0.960 . S
H622 C614 0.930 . S
H623 C615 0.929 . S
H624 C632 0.929 . S
H625 C634 0.930 . S
H626 C636 0.930 . S
H627 C639 0.929 . S
H628 C642 0.930 . S
H629 C644 0.960 . S
H630 C644 0.960 . S
H631 C644 0.960 . S
C632 H624 0.929 . S
C632 C633 1.377 . S
C632 C634 1.384 . S
C633 C632 1.377 . S
C633 C639 1.390 . S
C634 H625 0.930 . S
C634 C632 1.384 . S
C634 C635 1.372 . S
C635 C634 1.372 . S
C635 C636 1.400 . S
C635 C640 1.490 . S
C636 H626 0.930 . S
C636 C635 1.400 . S
C636 C639 1.386 . S
H637 C653 0.930 . S
H638 C654 0.931 . S
C639 H627 0.929 . S
C639 C633 1.390 . S
C639 C636 1.386 . S
C640 C635 1.490 . S
C640 C642 1.395 . S
C640 C643 1.403 . S
H641 C647 0.930 . S
C642 H628 0.930 . S
C642 C640 1.395 . S
C642 C645 1.403 . S
C643 C640 1.403 . S
C643 C644 1.524 . S
C643 C647 1.400 . S
C644 H629 0.960 . S
C644 H630 0.960 . S
C644 H631 0.960 . S
C644 C643 1.524 . S
C645 C642 1.403 . S
C645 C646 1.392 . S
C645 C649 1.495 . S
C646 C645 1.392 . S
C646 C647 1.385 . S
C646 C648 1.478 . S
C647 H641 0.930 . S
C647 C643 1.400 . S
C647 C646 1.385 . S
C648 C646 1.478 . S
C648 C650 1.381 . S
C648 C654 1.383 . S
C649 C645 1.495 . S
C649 H655 0.959 . S
C649 H656 0.961 . S
C649 H657 0.960 . S
C650 C648 1.381 . S
C650 C651 1.394 . S
C650 H658 0.930 . S
C651 C650 1.394 . S
C651 C652 1.383 . S
C651 H659 0.929 . S
C652 C651 1.383 . S
C652 C653 1.377 . S
C653 H637 0.930 . S
C653 C652 1.377 . S
C653 C654 1.379 . S
C654 H638 0.931 . S
C654 C648 1.383 . S
C654 C653 1.379 . S
H655 C649 0.959 . S
H656 C649 0.961 . S
H657 C649 0.960 . S
H658 C650 0.930 . S
H659 C651 0.929 . S
H660 C668 0.929 . S
H661 C670 0.930 . S
H662 C672 0.930 . S
H663 C675 0.929 . S
H664 C678 0.930 . S
H665 C680 0.960 . S
H666 C680 0.960 . S
H667 C680 0.960 . S
C668 H660 0.929 . S
C668 C669 1.377 . S
C668 C670 1.384 . S
C669 C668 1.377 . S
C669 C675 1.390 . S
C670 H661 0.930 . S
C670 C668 1.384 . S
C670 C671 1.372 . S
C671 C670 1.372 . S
C671 C672 1.400 . S
C671 C676 1.490 . S
C672 H662 0.930 . S
C672 C671 1.400 . S
C672 C675 1.386 . S
H673 C689 0.930 . S
H674 C690 0.931 . S
C675 H663 0.929 . S
C675 C669 1.390 . S
C675 C672 1.386 . S
C676 C671 1.490 . S
C676 C678 1.395 . S
C676 C679 1.403 . S
H677 C683 0.930 . S
C678 H664 0.930 . S
C678 C676 1.395 . S
C678 C681 1.403 . S
C679 C676 1.403 . S
C679 C680 1.524 . S
C679 C683 1.400 . S
C680 H665 0.960 . S
C680 H666 0.960 . S
C680 H667 0.960 . S
C680 C679 1.524 . S
C681 C678 1.403 . S
C681 C682 1.392 . S
C681 C685 1.495 . S
C682 C681 1.392 . S
C682 C683 1.385 . S
C682 C684 1.478 . S
C683 H677 0.930 . S
C683 C679 1.400 . S
C683 C682 1.385 . S
C684 C682 1.478 . S
C684 C686 1.381 . S
C684 C690 1.383 . S
C685 C681 1.495 . S
C685 H691 0.959 . S
C685 H692 0.961 . S
C685 H693 0.960 . S
C686 C684 1.381 . S
C686 C687 1.394 . S
C686 H694 0.930 . S
C687 C686 1.394 . S
C687 C688 1.383 . S
C687 H695 0.929 . S
C688 C687 1.383 . S
C688 C689 1.377 . S
C689 H673 0.930 . S
C689 C688 1.377 . S
C689 C690 1.379 . S
C690 H674 0.931 . S
C690 C684 1.383 . S
C690 C689 1.379 . S
H691 C685 0.959 . S
H692 C685 0.961 . S
H693 C685 0.960 . S
H694 C686 0.930 . S
H695 C687 0.929 . S
H696 C704 0.929 . S
H697 C706 0.930 . S
H698 C708 0.930 . S
H699 C711 0.929 . S
H700 C714 0.930 . S
H701 C716 0.960 . S
H702 C716 0.960 . S
H703 C716 0.960 . S
C704 H696 0.929 . S
C704 C705 1.377 . S
C704 C706 1.384 . S
C705 C704 1.377 . S
C705 C711 1.390 . S
C706 H697 0.930 . S
C706 C704 1.384 . S
C706 C707 1.372 . S
C707 C706 1.372 . S
C707 C708 1.400 . S
C707 C712 1.490 . S
C708 H698 0.930 . S
C708 C707 1.400 . S
C708 C711 1.386 . S
H709 C725 0.930 . S
H710 C726 0.931 . S
C711 H699 0.929 . S
C711 C705 1.390 . S
C711 C708 1.386 . S
C712 C707 1.490 . S
C712 C714 1.395 . S
C712 C715 1.403 . S
H713 C719 0.930 . S
C714 H700 0.930 . S
C714 C712 1.395 . S
C714 C717 1.403 . S
C715 C712 1.403 . S
C715 C716 1.524 . S
C715 C719 1.400 . S
C716 H701 0.960 . S
C716 H702 0.960 . S
C716 H703 0.960 . S
C716 C715 1.524 . S
C717 C714 1.403 . S
C717 C718 1.392 . S
C717 C721 1.495 . S
C718 C717 1.392 . S
C718 C719 1.385 . S
C718 C720 1.478 . S
C719 H713 0.930 . S
C719 C715 1.400 . S
C719 C718 1.385 . S
C720 C718 1.478 . S
C720 C722 1.381 . S
C720 C726 1.383 . S
C721 C717 1.495 . S
C721 H727 0.959 . S
C721 H728 0.961 . S
C721 H729 0.960 . S
C722 C720 1.381 . S
C722 C723 1.394 . S
C722 H730 0.930 . S
C723 C722 1.394 . S
C723 C724 1.383 . S
C723 H731 0.929 . S
C724 C723 1.383 . S
C724 C725 1.377 . S
C725 H709 0.930 . S
C725 C724 1.377 . S
C725 C726 1.379 . S
C726 H710 0.931 . S
C726 C720 1.383 . S
C726 C725 1.379 . S
H727 C721 0.959 . S
H728 C721 0.961 . S
H729 C721 0.960 . S
H730 C722 0.930 . S
H731 C723 0.929 . S
H732 C740 0.929 . S
H733 C742 0.930 . S
H734 C744 0.930 . S
H735 C747 0.929 . S
H736 C750 0.930 . S
H737 C752 0.960 . S
H738 C752 0.960 . S
H739 C752 0.960 . S
C740 H732 0.929 . S
C740 C741 1.377 . S
C740 C742 1.384 . S
C741 C740 1.377 . S
C741 C747 1.390 . S
C742 H733 0.930 . S
C742 C740 1.384 . S
C742 C743 1.372 . S
C743 C742 1.372 . S
C743 C744 1.400 . S
C743 C748 1.490 . S
C744 H734 0.930 . S
C744 C743 1.400 . S
C744 C747 1.386 . S
H745 C761 0.930 . S
H746 C762 0.931 . S
C747 H735 0.929 . S
C747 C741 1.390 . S
C747 C744 1.386 . S
C748 C743 1.490 . S
C748 C750 1.395 . S
C748 C751 1.403 . S
H749 C755 0.930 . S
C750 H736 0.930 . S
C750 C748 1.395 . S
C750 C753 1.403 . S
C751 C748 1.403 . S
C751 C752 1.524 . S
C751 C755 1.400 . S
C752 H737 0.960 . S
C752 H738 0.960 . S
C752 H739 0.960 . S
C752 C751 1.524 . S
C753 C750 1.403 . S
C753 C754 1.392 . S
C753 C757 1.495 . S
C754 C753 1.392 . S
C754 C755 1.385 . S
C754 C756 1.478 . S
C755 H749 0.930 . S
C755 C751 1.400 . S
C755 C754 1.385 . S
C756 C754 1.478 . S
C756 C758 1.381 . S
C756 C762 1.383 . S
C757 C753 1.495 . S
C757 H763 0.959 . S
C757 H764 0.961 . S
C757 H765 0.960 . S
C758 C756 1.381 . S
C758 C759 1.394 . S
C758 H766 0.930 . S
C759 C758 1.394 . S
C759 C760 1.383 . S
C759 H767 0.929 . S
C760 C759 1.383 . S
C760 C761 1.377 . S
C761 H745 0.930 . S
C761 C760 1.377 . S
C761 C762 1.379 . S
C762 H746 0.931 . S
C762 C756 1.383 . S
C762 C761 1.379 . S
H763 C757 0.959 . S
H764 C757 0.961 . S
H765 C757 0.960 . S
H766 C758 0.930 . S
H767 C759 0.929 . S
H768 C776 0.929 . S
H769 C778 0.930 . S
H770 C780 0.930 1_554 S
H771 C783 0.929 . S
H772 C786 0.930 . S
H773 C788 0.960 . S
H774 C788 0.960 1_556 S
H775 C788 0.960 . S
C776 H768 0.929 . S
C776 C777 1.377 . S
C776 C778 1.384 . S
C777 C776 1.377 . S
C777 C783 1.390 . S
C778 H769 0.930 . S
C778 C776 1.384 . S
C778 C779 1.372 . S
C779 C778 1.372 . S
C779 C780 1.400 . S
C779 C784 1.490 . S
C780 H770 0.930 1_556 S
C780 C779 1.400 . S
C780 C783 1.386 . S
H781 C797 0.930 . S
H782 C798 0.931 . S
C783 H771 0.929 . S
C783 C777 1.390 . S
C783 C780 1.386 . S
C784 C779 1.490 . S
C784 C786 1.395 . S
C784 C787 1.403 . S
H785 C791 0.930 . S
C786 H772 0.930 . S
C786 C784 1.395 . S
C786 C789 1.403 . S
C787 C784 1.403 . S
C787 C788 1.524 1_556 S
C787 C791 1.400 1_556 S
C788 H773 0.960 . S
C788 H774 0.960 1_554 S
C788 H775 0.960 . S
C788 C787 1.524 1_554 S
C789 C786 1.403 . S
C789 C790 1.392 . S
C789 C793 1.495 . S
C790 C789 1.392 . S
C790 C791 1.385 1_556 S
C790 C792 1.478 1_556 S
C791 H785 0.930 . S
C791 C787 1.400 1_554 S
C791 C790 1.385 1_554 S
C792 C790 1.478 1_554 S
C792 C794 1.381 1_554 S
C792 C798 1.383 . S
C793 C789 1.495 . S
C793 H799 0.959 . S
C793 H800 0.961 . S
C793 H801 0.960 . S
C794 C792 1.381 1_556 S
C794 C795 1.394 . S
C794 H802 0.930 . S
C795 C794 1.394 . S
C795 C796 1.383 1_556 S
C795 H803 0.929 . S
C796 C795 1.383 1_554 S
C796 C797 1.377 . S
C797 H781 0.930 . S
C797 C796 1.377 . S
C797 C798 1.379 . S
C798 H782 0.931 . S
C798 C792 1.383 . S
C798 C797 1.379 . S
H799 C793 0.959 . S
H800 C793 0.961 . S
H801 C793 0.960 . S
H802 C794 0.930 . S
H803 C795 0.929 . S
H804 C812 0.929 . S
H805 C814 0.930 . S
H806 C816 0.930 . S
H807 C819 0.929 . S
H808 C822 0.930 . S
H809 C824 0.960 . S
H810 C824 0.960 . S
H811 C824 0.960 . S
C812 H804 0.929 . S
C812 C813 1.377 . S
C812 C814 1.384 . S
C813 C812 1.377 . S
C813 C819 1.390 . S
C814 H805 0.930 . S
C814 C812 1.384 . S
C814 C815 1.372 . S
C815 C814 1.372 . S
C815 C816 1.400 . S
C815 C820 1.490 . S
C816 H806 0.930 . S
C816 C815 1.400 . S
C816 C819 1.386 . S
H817 C833 0.930 . S
H818 C834 0.931 . S
C819 H807 0.929 . S
C819 C813 1.390 . S
C819 C816 1.386 . S
C820 C815 1.490 . S
C820 C822 1.395 . S
C820 C823 1.403 . S
H821 C827 0.930 . S
C822 H808 0.930 . S
C822 C820 1.395 . S
C822 C825 1.403 . S
C823 C820 1.403 . S
C823 C824 1.524 . S
C823 C827 1.400 . S
C824 H809 0.960 . S
C824 H810 0.960 . S
C824 H811 0.960 . S
C824 C823 1.524 . S
C825 C822 1.403 . S
C825 C826 1.392 . S
C825 C829 1.495 . S
C826 C825 1.392 . S
C826 C827 1.385 . S
C826 C828 1.478 . S
C827 H821 0.930 . S
C827 C823 1.400 . S
C827 C826 1.385 . S
C828 C826 1.478 . S
C828 C830 1.381 . S
C828 C834 1.383 . S
C829 C825 1.495 . S
C829 H835 0.959 . S
C829 H836 0.961 . S
C829 H837 0.960 . S
C830 C828 1.381 . S
C830 C831 1.394 . S
C830 H838 0.930 . S
C831 C830 1.394 . S
C831 C832 1.383 . S
C831 H839 0.929 . S
C832 C831 1.383 . S
C832 C833 1.377 . S
C833 H817 0.930 . S
C833 C832 1.377 . S
C833 C834 1.379 . S
C834 H818 0.931 . S
C834 C828 1.383 . S
C834 C833 1.379 . S
H835 C829 0.959 . S
H836 C829 0.961 . S
H837 C829 0.960 . S
H838 C830 0.930 . S
H839 C831 0.929 . S
H840 C848 0.929 . S
H841 C850 0.930 . S
H842 C852 0.930 . S
H843 C855 0.929 . S
H844 C858 0.930 . S
H845 C860 0.960 . S
H846 C860 0.960 . S
H847 C860 0.960 . S
C848 H840 0.929 . S
C848 C849 1.377 . S
C848 C850 1.384 . S
C849 C848 1.377 . S
C849 C855 1.390 . S
C850 H841 0.930 . S
C850 C848 1.384 . S
C850 C851 1.372 . S
C851 C850 1.372 . S
C851 C852 1.400 . S
C851 C856 1.490 . S
C852 H842 0.930 . S
C852 C851 1.400 . S
C852 C855 1.386 . S
H853 C869 0.930 . S
H854 C870 0.931 . S
C855 H843 0.929 . S
C855 C849 1.390 . S
C855 C852 1.386 . S
C856 C851 1.490 . S
C856 C858 1.395 . S
C856 C859 1.403 . S
H857 C863 0.930 . S
C858 H844 0.930 . S
C858 C856 1.395 . S
C858 C861 1.403 . S
C859 C856 1.403 . S
C859 C860 1.524 . S
C859 C863 1.400 . S
C860 H845 0.960 . S
C860 H846 0.960 . S
C860 H847 0.960 . S
C860 C859 1.524 . S
C861 C858 1.403 . S
C861 C862 1.392 . S
C861 C865 1.495 . S
C862 C861 1.392 . S
C862 C863 1.385 . S
C862 C864 1.478 . S
C863 H857 0.930 . S
C863 C859 1.400 . S
C863 C862 1.385 . S
C864 C862 1.478 . S
C864 C866 1.381 . S
C864 C870 1.383 . S
C865 C861 1.495 . S
C865 H871 0.959 . S
C865 H872 0.961 . S
C865 H873 0.960 . S
C866 C864 1.381 . S
C866 C867 1.394 . S
C866 H874 0.930 . S
C867 C866 1.394 . S
C867 C868 1.383 . S
C867 H875 0.929 . S
C868 C867 1.383 . S
C868 C869 1.377 . S
C869 H853 0.930 . S
C869 C868 1.377 . S
C869 C870 1.379 . S
C870 H854 0.931 . S
C870 C864 1.383 . S
C870 C869 1.379 . S
H871 C865 0.959 . S
H872 C865 0.961 . S
H873 C865 0.960 . S
H874 C866 0.930 . S
H875 C867 0.929 . S
H876 C884 0.929 . S
H877 C886 0.930 . S
H878 C888 0.930 . S
H879 C891 0.929 . S
H880 C894 0.930 . S
H881 C896 0.960 . S
H882 C896 0.960 . S
H883 C896 0.960 . S
C884 H876 0.929 . S
C884 C885 1.377 . S
C884 C886 1.384 . S
C885 C884 1.377 . S
C885 C891 1.390 . S
C886 H877 0.930 . S
C886 C884 1.384 . S
C886 C887 1.372 . S
C887 C886 1.372 . S
C887 C888 1.400 . S
C887 C892 1.490 . S
C888 H878 0.930 . S
C888 C887 1.400 . S
C888 C891 1.386 . S
H889 C905 0.930 . S
H890 C906 0.931 . S
C891 H879 0.929 . S
C891 C885 1.390 . S
C891 C888 1.386 . S
C892 C887 1.490 . S
C892 C894 1.395 . S
C892 C895 1.403 . S
H893 C899 0.930 . S
C894 H880 0.930 . S
C894 C892 1.395 . S
C894 C897 1.403 . S
C895 C892 1.403 . S
C895 C896 1.524 . S
C895 C899 1.400 . S
C896 H881 0.960 . S
C896 H882 0.960 . S
C896 H883 0.960 . S
C896 C895 1.524 . S
C897 C894 1.403 . S
C897 C898 1.392 . S
C897 C901 1.495 . S
C898 C897 1.392 . S
C898 C899 1.385 . S
C898 C900 1.478 . S
C899 H893 0.930 . S
C899 C895 1.400 . S
C899 C898 1.385 . S
C900 C898 1.478 . S
C900 C902 1.381 . S
C900 C906 1.383 . S
C901 C897 1.495 . S
C901 H907 0.959 . S
C901 H908 0.961 . S
C901 H909 0.960 . S
C902 C900 1.381 . S
C902 C903 1.394 . S
C902 H910 0.930 . S
C903 C902 1.394 . S
C903 C904 1.383 . S
C903 H911 0.929 . S
C904 C903 1.383 . S
C904 C905 1.377 . S
C905 H889 0.930 . S
C905 C904 1.377 . S
C905 C906 1.379 . S
C906 H890 0.931 . S
C906 C900 1.383 . S
C906 C905 1.379 . S
H907 C901 0.959 . S
H908 C901 0.961 . S
H909 C901 0.960 . S
H910 C902 0.930 . S
H911 C903 0.929 . S
H912 C920 0.929 . S
H913 C922 0.930 . S
H914 C924 0.930 . S
H915 C927 0.929 . S
H916 C930 0.930 . S
H917 C932 0.960 . S
H918 C932 0.960 . S
H919 C932 0.960 . S
C920 H912 0.929 . S
C920 C921 1.377 . S
C920 C922 1.384 . S
C921 C920 1.377 . S
C921 C927 1.390 . S
C922 H913 0.930 . S
C922 C920 1.384 . S
C922 C923 1.372 . S
C923 C922 1.372 . S
C923 C924 1.400 . S
C923 C928 1.490 . S
C924 H914 0.930 . S
C924 C923 1.400 . S
C924 C927 1.386 . S
H925 C941 0.930 . S
H926 C942 0.931 . S
C927 H915 0.929 . S
C927 C921 1.390 . S
C927 C924 1.386 . S
C928 C923 1.490 . S
C928 C930 1.395 . S
C928 C931 1.403 . S
H929 C935 0.930 . S
C930 H916 0.930 . S
C930 C928 1.395 . S
C930 C933 1.403 . S
C931 C928 1.403 . S
C931 C932 1.524 . S
C931 C935 1.400 . S
C932 H917 0.960 . S
C932 H918 0.960 . S
C932 H919 0.960 . S
C932 C931 1.524 . S
C933 C930 1.403 . S
C933 C934 1.392 . S
C933 C937 1.495 . S
C934 C933 1.392 . S
C934 C935 1.385 . S
C934 C936 1.478 . S
C935 H929 0.930 . S
C935 C931 1.400 . S
C935 C934 1.385 . S
C936 C934 1.478 . S
C936 C938 1.381 . S
C936 C942 1.383 . S
C937 C933 1.495 . S
C937 H943 0.959 . S
C937 H944 0.961 . S
C937 H945 0.960 . S
C938 C936 1.381 . S
C938 C939 1.394 . S
C938 H946 0.930 . S
C939 C938 1.394 . S
C939 C940 1.383 . S
C939 H947 0.929 . S
C940 C939 1.383 . S
C940 C941 1.377 . S
C941 H925 0.930 . S
C941 C940 1.377 . S
C941 C942 1.379 . S
C942 H926 0.931 . S
C942 C936 1.383 . S
C942 C941 1.379 . S
H943 C937 0.959 . S
H944 C937 0.961 . S
H945 C937 0.960 . S
H946 C938 0.930 . S
H947 C939 0.929 . S
H948 C956 0.929 . S
H949 C958 0.930 . S
H950 C960 0.930 1_556 S
H951 C963 0.929 . S
H952 C966 0.930 . S
H953 C968 0.960 . S
H954 C968 0.960 . S
H955 C968 0.960 . S
C956 H948 0.929 . S
C956 C957 1.377 . S
C956 C958 1.384 . S
C957 C956 1.377 . S
C957 C963 1.390 . S
C958 H949 0.930 . S
C958 C956 1.384 . S
C958 C959 1.372 . S
C959 C958 1.372 . S
C959 C960 1.400 . S
C959 C964 1.490 . S
C960 H950 0.930 1_554 S
C960 C959 1.400 . S
C960 C963 1.386 . S
H961 C977 0.930 . S
H962 C978 0.931 . S
C963 H951 0.929 . S
C963 C957 1.390 . S
C963 C960 1.386 . S
C964 C959 1.490 . S
C964 C966 1.395 . S
C964 C967 1.403 1_554 S
H965 C971 0.930 . S
C966 H952 0.930 . S
C966 C964 1.395 . S
C966 C969 1.403 . S
C967 C964 1.403 1_556 S
C967 C968 1.524 . S
C967 C971 1.400 . S
C968 H953 0.960 . S
C968 H954 0.960 . S
C968 H955 0.960 . S
C968 C967 1.524 . S
C969 C966 1.403 . S
C969 C970 1.392 . S
C969 C973 1.495 . S
C970 C969 1.392 . S
C970 C971 1.385 1_554 S
C970 C972 1.478 1_554 S
C971 H965 0.930 . S
C971 C967 1.400 . S
C971 C970 1.385 1_556 S
C972 C970 1.478 1_556 S
C972 C974 1.381 1_556 S
C972 C978 1.383 . S
C973 C969 1.495 . S
C973 H979 0.959 . S
C973 H980 0.961 . S
C973 H981 0.960 . S
C974 C972 1.381 1_554 S
C974 C975 1.387 1_554 S
C974 H982 0.930 . S
C975 C974 1.387 1_556 S
C975 C976 1.398 . S
C975 H983 0.922 1_556 S
C976 C975 1.398 . S
C976 C977 1.377 . S
C977 H961 0.930 . S
C977 C976 1.377 . S
C977 C978 1.379 . S
C978 H962 0.931 . S
C978 C972 1.383 . S
C978 C977 1.379 . S
H979 C973 0.959 . S
H980 C973 0.961 . S
H981 C973 0.960 . S
H982 C974 0.930 . S
H983 C975 0.922 1_554 S
H984 C992 0.929 . S
H985 C994 0.930 . S
H986 C996 0.930 . S
H987 C999 0.929 . S
H988 C1002 0.930 . S
H989 C1004 0.960 . S
H990 C1004 0.960 . S
H991 C1004 0.960 . S
C992 H984 0.929 . S
C992 C993 1.377 . S
C992 C994 1.384 . S
C993 C992 1.377 . S
C993 C999 1.390 . S
C994 H985 0.930 . S
C994 C992 1.384 . S
C994 C995 1.372 . S
C995 C994 1.372 . S
C995 C996 1.400 . S
C995 C1000 1.490 . S
C996 H986 0.930 . S
C996 C995 1.400 . S
C996 C999 1.386 . S
H997 C1013 0.930 . S
H998 C1014 0.931 . S
C999 H987 0.929 . S
C999 C993 1.390 . S
C999 C996 1.386 . S
C1000 C995 1.490 . S
C1000 C1002 1.395 . S
C1000 C1003 1.403 . S
H1001 C1007 0.930 . S
C1002 H988 0.930 . S
C1002 C1000 1.395 . S
C1002 C1005 1.403 . S
C1003 C1000 1.403 . S
C1003 C1004 1.524 . S
C1003 C1007 1.400 . S
C1004 H989 0.960 . S
C1004 H990 0.960 . S
C1004 H991 0.960 . S
C1004 C1003 1.524 . S
C1005 C1002 1.403 . S
C1005 C1006 1.392 . S
C1005 C1009 1.495 . S
C1006 C1005 1.392 . S
C1006 C1007 1.385 . S
C1006 C1008 1.478 . S
C1007 H1001 0.930 . S
C1007 C1003 1.400 . S
C1007 C1006 1.385 . S
C1008 C1006 1.478 . S
C1008 C1010 1.381 . S
C1008 C1014 1.383 . S
C1009 C1005 1.495 . S
C1009 H1015 0.959 . S
C1009 H1016 0.961 . S
C1009 H1017 0.960 . S
C1010 C1008 1.381 . S
C1010 C1011 1.394 . S
C1010 H1018 0.930 . S
C1011 C1010 1.394 . S
C1011 C1012 1.383 . S
C1011 H1019 0.929 . S
C1012 C1011 1.383 . S
C1012 C1013 1.377 . S
C1013 H997 0.930 . S
C1013 C1012 1.377 . S
C1013 C1014 1.379 . S
C1014 H998 0.931 . S
C1014 C1008 1.383 . S
C1014 C1013 1.379 . S
H1015 C1009 0.959 . S
H1016 C1009 0.961 . S
H1017 C1009 0.960 . S
H1018 C1010 0.930 . S
H1019 C1011 0.929 . S
H1020 C1028 0.929 . S
H1021 C1030 0.930 . S
H1022 C1032 0.930 . S
H1023 C1035 0.929 . S
H1024 C1038 0.930 . S
H1025 C1040 0.960 . S
H1026 C1040 0.960 . S
H1027 C1040 0.960 . S
C1028 H1020 0.929 . S
C1028 C1029 1.377 . S
C1028 C1030 1.384 . S
C1029 C1028 1.377 . S
C1029 C1035 1.390 . S
C1030 H1021 0.930 . S
C1030 C1028 1.384 . S
C1030 C1031 1.372 . S
C1031 C1030 1.372 . S
C1031 C1032 1.400 . S
C1031 C1036 1.490 . S
C1032 H1022 0.930 . S
C1032 C1031 1.400 . S
C1032 C1035 1.386 . S
H1033 C1049 0.930 . S
H1034 C1050 0.931 . S
C1035 H1023 0.929 . S
C1035 C1029 1.390 . S
C1035 C1032 1.386 . S
C1036 C1031 1.490 . S
C1036 C1038 1.395 . S
C1036 C1039 1.403 . S
H1037 C1043 0.930 . S
C1038 H1024 0.930 . S
C1038 C1036 1.395 . S
C1038 C1041 1.403 . S
C1039 C1036 1.403 . S
C1039 C1040 1.524 . S
C1039 C1043 1.400 . S
C1040 H1025 0.960 . S
C1040 H1026 0.960 . S
C1040 H1027 0.960 . S
C1040 C1039 1.524 . S
C1041 C1038 1.403 . S
C1041 C1042 1.392 . S
C1041 C1045 1.495 . S
C1042 C1041 1.392 . S
C1042 C1043 1.385 . S
C1042 C1044 1.478 . S
C1043 H1037 0.930 . S
C1043 C1039 1.400 . S
C1043 C1042 1.385 . S
C1044 C1042 1.478 . S
C1044 C1046 1.381 . S
C1044 C1050 1.383 . S
C1045 C1041 1.495 . S
C1045 H1051 0.959 . S
C1045 H1052 0.961 . S
C1045 H1053 0.960 . S
C1046 C1044 1.381 . S
C1046 C1047 1.394 . S
C1046 H1054 0.930 . S
C1047 C1046 1.394 . S
C1047 C1048 1.383 . S
C1047 H1055 0.929 . S
C1048 C1047 1.383 . S
C1048 C1049 1.377 . S
C1049 H1033 0.930 . S
C1049 C1048 1.377 . S
C1049 C1050 1.379 . S
C1050 H1034 0.931 . S
C1050 C1044 1.383 . S
C1050 C1049 1.379 . S
H1051 C1045 0.959 . S
H1052 C1045 0.961 . S
H1053 C1045 0.960 . S
H1054 C1046 0.930 . S
H1055 C1047 0.929 . S
H1056 C1064 0.929 . S
H1057 C1066 0.930 . S
H1058 C1068 0.930 . S
H1059 C1071 0.929 . S
H1060 C1074 0.930 . S
H1061 C1076 0.960 . S
H1062 C1076 0.960 . S
H1063 C1076 0.960 . S
C1064 H1056 0.929 . S
C1064 C1065 1.377 . S
C1064 C1066 1.384 . S
C1065 C1064 1.377 . S
C1065 C1071 1.390 . S
C1066 H1057 0.930 . S
C1066 C1064 1.384 . S
C1066 C1067 1.372 . S
C1067 C1066 1.372 . S
C1067 C1068 1.400 . S
C1067 C1072 1.490 . S
C1068 H1058 0.930 . S
C1068 C1067 1.400 . S
C1068 C1071 1.386 . S
H1069 C1085 0.930 . S
H1070 C1086 0.931 . S
C1071 H1059 0.929 . S
C1071 C1065 1.390 . S
C1071 C1068 1.386 . S
C1072 C1067 1.490 . S
C1072 C1074 1.395 . S
C1072 C1075 1.403 . S
H1073 C1079 0.930 . S
C1074 H1060 0.930 . S
C1074 C1072 1.395 . S
C1074 C1077 1.403 . S
C1075 C1072 1.403 . S
C1075 C1076 1.524 . S
C1075 C1079 1.400 . S
C1076 H1061 0.960 . S
C1076 H1062 0.960 . S
C1076 H1063 0.960 . S
C1076 C1075 1.524 . S
C1077 C1074 1.403 . S
C1077 C1078 1.392 . S
C1077 C1081 1.495 . S
C1078 C1077 1.392 . S
C1078 C1079 1.385 . S
C1078 C1080 1.478 . S
C1079 H1073 0.930 . S
C1079 C1075 1.400 . S
C1079 C1078 1.385 . S
C1080 C1078 1.478 . S
C1080 C1082 1.381 . S
C1080 C1086 1.383 . S
C1081 C1077 1.495 . S
C1081 H1087 0.959 . S
C1081 H1088 0.961 . S
C1081 H1089 0.960 . S
C1082 C1080 1.381 . S
C1082 C1083 1.394 . S
C1082 H1090 0.930 . S
C1083 C1082 1.394 . S
C1083 C1084 1.383 . S
C1083 H1091 0.929 . S
C1084 C1083 1.383 . S
C1084 C1085 1.377 . S
C1085 H1069 0.930 . S
C1085 C1084 1.377 . S
C1085 C1086 1.379 . S
C1086 H1070 0.931 . S
C1086 C1080 1.383 . S
C1086 C1085 1.379 . S
H1087 C1081 0.959 . S
H1088 C1081 0.961 . S
H1089 C1081 0.960 . S
H1090 C1082 0.930 . S
H1091 C1083 0.929 . S
H1092 C1100 0.929 . S
H1093 C1102 0.930 . S
H1094 C1104 0.930 . S
H1095 C1107 0.929 . S
H1096 C1110 0.930 . S
H1097 C1112 0.960 . S
H1098 C1112 0.960 1_455 S
H1099 C1112 0.960 . S
C1100 H1092 0.929 . S
C1100 C1101 1.377 . S
C1100 C1102 1.384 . S
C1101 C1100 1.377 . S
C1101 C1107 1.390 . S
C1102 H1093 0.930 . S
C1102 C1100 1.384 . S
C1102 C1103 1.372 . S
C1103 C1102 1.372 . S
C1103 C1104 1.400 . S
C1103 C1108 1.490 . S
C1104 H1094 0.930 . S
C1104 C1103 1.400 . S
C1104 C1107 1.386 . S
H1105 C1121 0.930 . S
H1106 C1122 0.931 . S
C1107 H1095 0.929 . S
C1107 C1101 1.390 . S
C1107 C1104 1.386 . S
C1108 C1103 1.490 . S
C1108 C1110 1.395 . S
C1108 C1111 1.403 . S
H1109 C1115 0.930 . S
C1110 H1096 0.930 . S
C1110 C1108 1.395 . S
C1110 C1113 1.403 . S
C1111 C1108 1.403 . S
C1111 C1112 1.524 1_455 S
C1111 C1115 1.400 . S
C1112 H1097 0.960 . S
C1112 H1098 0.960 1_655 S
C1112 H1099 0.960 . S
C1112 C1111 1.524 1_655 S
C1113 C1110 1.403 . S
C1113 C1114 1.392 . S
C1113 C1117 1.495 . S
C1114 C1113 1.392 . S
C1114 C1115 1.385 . S
C1114 C1116 1.478 . S
C1115 H1109 0.930 . S
C1115 C1111 1.400 . S
C1115 C1114 1.385 . S
C1116 C1114 1.478 . S
C1116 C1118 1.381 . S
C1116 C1122 1.383 . S
C1117 C1113 1.495 . S
C1117 H1123 0.959 . S
C1117 H1124 0.961 . S
C1117 H1125 0.960 . S
C1118 C1116 1.381 . S
C1118 C1119 1.394 . S
C1118 H1126 0.930 . S
C1119 C1118 1.394 . S
C1119 C1120 1.383 . S
C1119 H1127 0.929 . S
C1120 C1119 1.383 . S
C1120 C1121 1.377 . S
C1121 H1105 0.930 . S
C1121 C1120 1.377 . S
C1121 C1122 1.379 . S
C1122 H1106 0.931 . S
C1122 C1116 1.383 . S
C1122 C1121 1.379 . S
H1123 C1117 0.959 . S
H1124 C1117 0.961 . S
H1125 C1117 0.960 . S
H1126 C1118 0.930 . S
H1127 C1119 0.929 . S
H1128 C1136 0.929 . S
H1129 C1138 0.930 . S
H1130 C1140 0.930 . S
H1131 C1143 0.929 . S
H1132 C1146 0.930 . S
H1133 C1148 0.960 . S
H1134 C1148 0.960 . S
H1135 C1148 0.960 . S
C1136 H1128 0.929 . S
C1136 C1137 1.377 . S
C1136 C1138 1.384 . S
C1137 C1136 1.377 . S
C1137 C1143 1.390 . S
C1138 H1129 0.930 . S
C1138 C1136 1.384 . S
C1138 C1139 1.372 . S
C1139 C1138 1.372 . S
C1139 C1140 1.400 . S
C1139 C1144 1.490 . S
C1140 H1130 0.930 . S
C1140 C1139 1.400 . S
C1140 C1143 1.386 . S
H1141 C1157 0.930 . S
H1142 C1158 0.931 . S
C1143 H1131 0.929 . S
C1143 C1137 1.390 . S
C1143 C1140 1.386 . S
C1144 C1139 1.490 . S
C1144 C1146 1.395 . S
C1144 C1147 1.403 . S
H1145 C1151 0.930 . S
C1146 H1132 0.930 . S
C1146 C1144 1.395 . S
C1146 C1149 1.403 . S
C1147 C1144 1.403 . S
C1147 C1148 1.524 . S
C1147 C1151 1.400 . S
C1148 H1133 0.960 . S
C1148 H1134 0.960 . S
C1148 H1135 0.960 . S
C1148 C1147 1.524 . S
C1149 C1146 1.403 . S
C1149 C1150 1.392 . S
C1149 C1153 1.495 . S
C1150 C1149 1.392 . S
C1150 C1151 1.385 . S
C1150 C1152 1.478 . S
C1151 H1145 0.930 . S
C1151 C1147 1.400 . S
C1151 C1150 1.385 . S
C1152 C1150 1.478 . S
C1152 C1154 1.381 . S
C1152 C1158 1.383 . S
C1153 C1149 1.495 . S
C1153 H1159 0.959 . S
C1153 H1160 0.961 . S
C1153 H1161 0.960 . S
C1154 C1152 1.381 . S
C1154 C1155 1.394 . S
C1154 H1162 0.930 . S
C1155 C1154 1.394 . S
C1155 C1156 1.383 . S
C1155 H1163 0.929 . S
C1156 C1155 1.383 . S
C1156 C1157 1.377 . S
C1157 H1141 0.930 . S
C1157 C1156 1.377 . S
C1157 C1158 1.379 . S
C1158 H1142 0.931 . S
C1158 C1152 1.383 . S
C1158 C1157 1.379 . S
H1159 C1153 0.959 . S
H1160 C1153 0.961 . S
H1161 C1153 0.960 . S
H1162 C1154 0.930 . S
H1163 C1155 0.929 . S
H1164 C1172 0.929 . S
H1165 C1174 0.930 . S
H1166 C1176 0.930 . S
H1167 C1179 0.929 . S
H1168 C1182 0.930 . S
H1169 C1184 0.960 . S
H1170 C1184 0.960 . S
H1171 C1184 0.960 . S
C1172 H1164 0.929 . S
C1172 C1173 1.377 . S
C1172 C1174 1.384 . S
C1173 C1172 1.377 . S
C1173 C1179 1.390 . S
C1174 H1165 0.930 . S
C1174 C1172 1.384 . S
C1174 C1175 1.372 . S
C1175 C1174 1.372 . S
C1175 C1176 1.400 . S
C1175 C1180 1.490 . S
C1176 H1166 0.930 . S
C1176 C1175 1.400 . S
C1176 C1179 1.386 . S
H1177 C1193 0.930 . S
H1178 C1194 0.931 . S
C1179 H1167 0.929 . S
C1179 C1173 1.390 . S
C1179 C1176 1.386 . S
C1180 C1175 1.490 . S
C1180 C1182 1.395 . S
C1180 C1183 1.403 . S
H1181 C1187 0.930 . S
C1182 H1168 0.930 . S
C1182 C1180 1.395 . S
C1182 C1185 1.403 . S
C1183 C1180 1.403 . S
C1183 C1184 1.524 . S
C1183 C1187 1.400 . S
C1184 H1169 0.960 . S
C1184 H1170 0.960 . S
C1184 H1171 0.960 . S
C1184 C1183 1.524 . S
C1185 C1182 1.403 . S
C1185 C1186 1.392 . S
C1185 C1189 1.495 . S
C1186 C1185 1.392 . S
C1186 C1187 1.385 . S
C1186 C1188 1.478 . S
C1187 H1181 0.930 . S
C1187 C1183 1.400 . S
C1187 C1186 1.385 . S
C1188 C1186 1.478 . S
C1188 C1190 1.381 . S
C1188 C1194 1.383 . S
C1189 C1185 1.495 . S
C1189 H1195 0.959 . S
C1189 H1196 0.961 . S
C1189 H1197 0.960 . S
C1190 C1188 1.381 . S
C1190 C1191 1.394 . S
C1190 H1198 0.930 . S
C1191 C1190 1.394 . S
C1191 C1192 1.383 . S
C1191 H1199 0.929 . S
C1192 C1191 1.383 . S
C1192 C1193 1.377 . S
C1193 H1177 0.930 . S
C1193 C1192 1.377 . S
C1193 C1194 1.379 . S
C1194 H1178 0.931 . S
C1194 C1188 1.383 . S
C1194 C1193 1.379 . S
H1195 C1189 0.959 . S
H1196 C1189 0.961 . S
H1197 C1189 0.960 . S
H1198 C1190 0.930 . S
H1199 C1191 0.929 . S
H1200 C1208 0.929 . S
H1201 C1210 0.930 . S
H1202 C1212 0.930 . S
H1203 C1215 0.929 . S
H1204 C1218 0.930 . S
H1205 C1220 0.960 . S
H1206 C1220 0.960 . S
H1207 C1220 0.960 . S
C1208 H1200 0.929 . S
C1208 C1209 1.377 . S
C1208 C1210 1.384 . S
C1209 C1208 1.377 . S
C1209 C1215 1.390 . S
C1210 H1201 0.930 . S
C1210 C1208 1.384 . S
C1210 C1211 1.372 . S
C1211 C1210 1.372 . S
C1211 C1212 1.400 . S
C1211 C1216 1.490 . S
C1212 H1202 0.930 . S
C1212 C1211 1.400 . S
C1212 C1215 1.386 . S
H1213 C1229 0.930 . S
H1214 C1230 0.931 . S
C1215 H1203 0.929 . S
C1215 C1209 1.390 . S
C1215 C1212 1.386 . S
C1216 C1211 1.490 . S
C1216 C1218 1.395 . S
C1216 C1219 1.403 . S
H1217 C1223 0.930 . S
C1218 H1204 0.930 . S
C1218 C1216 1.395 . S
C1218 C1221 1.403 . S
C1219 C1216 1.403 . S
C1219 C1220 1.524 . S
C1219 C1223 1.400 . S
C1220 H1205 0.960 . S
C1220 H1206 0.960 . S
C1220 H1207 0.960 . S
C1220 C1219 1.524 . S
C1221 C1218 1.403 . S
C1221 C1222 1.392 . S
C1221 C1225 1.495 . S
C1222 C1221 1.392 . S
C1222 C1223 1.385 . S
C1222 C1224 1.478 . S
C1223 H1217 0.930 . S
C1223 C1219 1.400 . S
C1223 C1222 1.385 . S
C1224 C1222 1.478 . S
C1224 C1226 1.381 . S
C1224 C1230 1.383 . S
C1225 C1221 1.495 . S
C1225 H1231 0.959 . S
C1225 H1232 0.961 . S
C1225 H1233 0.960 . S
C1226 C1224 1.381 . S
C1226 C1227 1.394 . S
C1226 H1234 0.966 . S
C1227 C1226 1.394 . S
C1227 C1228 1.383 . S
C1227 H1235 0.937 . S
C1228 C1227 1.383 . S
C1228 C1229 1.377 . S
C1229 H1213 0.930 . S
C1229 C1228 1.377 . S
C1229 C1230 1.379 . S
C1230 H1214 0.931 . S
C1230 C1224 1.383 . S
C1230 C1229 1.379 . S
H1231 C1225 0.959 . S
H1232 C1225 0.961 . S
H1233 C1225 0.960 . S
H1234 C1226 0.966 . S
H1235 C1227 0.937 . S
H1236 C1244 0.929 . S
H1237 C1246 0.930 . S
H1238 C1248 0.930 . S
H1239 C1251 0.929 . S
H1240 C1254 0.930 1_545 S
H1241 C1256 0.960 . S
H1242 C1256 0.960 . S
H1243 C1256 0.960 . S
C1244 H1236 0.929 . S
C1244 C1245 1.377 . S
C1244 C1246 1.384 . S
C1245 C1244 1.377 . S
C1245 C1251 1.390 . S
C1246 H1237 0.930 . S
C1246 C1244 1.384 . S
C1246 C1247 1.372 . S
C1247 C1246 1.372 . S
C1247 C1248 1.400 . S
C1247 C1252 1.490 . S
C1248 H1238 0.930 . S
C1248 C1247 1.400 . S
C1248 C1251 1.386 . S
H1249 C1265 0.930 . S
H1250 C1266 0.931 . S
C1251 H1239 0.929 . S
C1251 C1245 1.390 . S
C1251 C1248 1.386 . S
C1252 C1247 1.490 . S
C1252 C1254 1.395 . S
C1252 C1255 1.403 . S
H1253 C1259 0.930 . S
C1254 H1240 0.930 1_565 S
C1254 C1252 1.395 . S
C1254 C1257 1.403 . S
C1255 C1252 1.403 . S
C1255 C1256 1.524 . S
C1255 C1259 1.400 . S
C1256 H1241 0.960 . S
C1256 H1242 0.960 . S
C1256 H1243 0.960 . S
C1256 C1255 1.524 . S
C1257 C1254 1.403 . S
C1257 C1258 1.392 . S
C1257 C1261 1.495 1_565 S
C1258 C1257 1.392 . S
C1258 C1259 1.385 . S
C1258 C1260 1.478 . S
C1259 H1253 0.930 . S
C1259 C1255 1.400 . S
C1259 C1258 1.385 . S
C1260 C1258 1.478 . S
C1260 C1262 1.381 . S
C1260 C1266 1.383 . S
C1261 C1257 1.495 1_545 S
C1261 H1267 0.959 . S
C1261 H1268 0.961 . S
C1261 H1269 0.960 . S
C1262 C1260 1.381 . S
C1262 C1263 1.394 . S
C1262 H1270 0.961 . S
C1263 C1262 1.394 . S
C1263 C1264 1.383 . S
C1263 H1271 0.929 . S
C1264 C1263 1.383 . S
C1264 C1265 1.377 . S
C1265 H1249 0.930 . S
C1265 C1264 1.377 . S
C1265 C1266 1.379 . S
C1266 H1250 0.931 . S
C1266 C1260 1.383 . S
C1266 C1265 1.379 . S
H1267 C1261 0.959 . S
H1268 C1261 0.961 . S
H1269 C1261 0.960 . S
H1270 C1262 0.961 . S
H1271 C1263 0.929 . S
H1272 C1280 0.929 . S
H1273 C1282 0.930 . S
H1274 C1284 0.930 . S
H1275 C1287 0.929 . S
H1276 C1290 0.930 . S
H1277 C1292 0.960 . S
H1278 C1292 0.960 . S
H1279 C1292 0.960 . S
C1280 H1272 0.929 . S
C1280 C1281 1.377 . S
C1280 C1282 1.384 . S
C1281 C1280 1.377 . S
C1281 C1287 1.390 . S
C1282 H1273 0.930 . S
C1282 C1280 1.384 . S
C1282 C1283 1.372 . S
C1283 C1282 1.372 . S
C1283 C1284 1.400 . S
C1283 C1288 1.490 . S
C1284 H1274 0.930 . S
C1284 C1283 1.400 . S
C1284 C1287 1.386 . S
H1285 C1301 0.930 . S
H1286 C1302 0.931 . S
C1287 H1275 0.929 . S
C1287 C1281 1.390 . S
C1287 C1284 1.386 . S
C1288 C1283 1.490 . S
C1288 C1290 1.395 . S
C1288 C1291 1.403 . S
H1289 C1295 0.930 . S
C1290 H1276 0.930 . S
C1290 C1288 1.395 . S
C1290 C1293 1.403 . S
C1291 C1288 1.403 . S
C1291 C1292 1.524 . S
C1291 C1295 1.400 . S
C1292 H1277 0.960 . S
C1292 H1278 0.960 . S
C1292 H1279 0.960 . S
C1292 C1291 1.524 . S
C1293 C1290 1.403 . S
C1293 C1294 1.392 . S
C1293 C1297 1.495 . S
C1294 C1293 1.392 . S
C1294 C1295 1.385 . S
C1294 C1296 1.478 . S
C1295 H1289 0.930 . S
C1295 C1291 1.400 . S
C1295 C1294 1.385 . S
C1296 C1294 1.478 . S
C1296 C1298 1.381 . S
C1296 C1302 1.383 . S
C1297 C1293 1.495 . S
C1297 H1303 0.959 . S
C1297 H1304 0.961 . S
C1297 H1305 0.960 . S
C1298 C1296 1.381 . S
C1298 C1299 1.394 . S
C1298 H1306 0.930 . S
C1299 C1298 1.394 . S
C1299 C1300 1.383 . S
C1299 H1307 0.929 . S
C1300 C1299 1.383 . S
C1300 C1301 1.377 . S
C1301 H1285 0.930 . S
C1301 C1300 1.377 . S
C1301 C1302 1.379 . S
C1302 H1286 0.931 . S
C1302 C1296 1.383 . S
C1302 C1301 1.379 . S
H1303 C1297 0.959 . S
H1304 C1297 0.961 . S
H1305 C1297 0.960 . S
H1306 C1298 0.930 . S
H1307 C1299 0.929 . S
H1308 C1316 0.929 . S
H1309 C1318 0.930 . S
H1310 C1320 0.930 . S
H1311 C1323 0.929 . S
H1312 C1326 0.930 . S
H1313 C1328 0.960 . S
H1314 C1328 0.960 . S
H1315 C1328 0.960 . S
C1316 H1308 0.929 . S
C1316 C1317 1.377 1_655 S
C1316 C1318 1.384 . S
C1317 C1316 1.377 1_455 S
C1317 C1323 1.390 . S
C1318 H1309 0.930 . S
C1318 C1316 1.384 . S
C1318 C1319 1.372 1_655 S
C1319 C1318 1.372 1_455 S
C1319 C1320 1.400 . S
C1319 C1324 1.490 . S
C1320 H1310 0.930 . S
C1320 C1319 1.400 . S
C1320 C1323 1.386 . S
H1321 C1337 0.930 1_455 S
H1322 C1338 0.931 . S
C1323 H1311 0.929 . S
C1323 C1317 1.390 . S
C1323 C1320 1.386 . S
C1324 C1319 1.490 . S
C1324 C1326 1.395 1_455 S
C1324 C1327 1.403 . S
H1325 C1331 0.930 . S
C1326 H1312 0.930 . S
C1326 C1324 1.395 1_655 S
C1326 C1329 1.403 . S
C1327 C1324 1.403 . S
C1327 C1328 1.524 . S
C1327 C1331 1.400 . S
C1328 H1313 0.960 . S
C1328 H1314 0.960 . S
C1328 H1315 0.960 . S
C1328 C1327 1.524 . S
C1329 C1326 1.403 . S
C1329 C1330 1.392 . S
C1329 C1333 1.495 . S
C1330 C1329 1.392 . S
C1330 C1331 1.385 1_655 S
C1330 C1332 1.478 . S
C1331 H1325 0.930 . S
C1331 C1327 1.400 . S
C1331 C1330 1.385 1_455 S
C1332 C1330 1.478 . S
C1332 C1334 1.381 . S
C1332 C1338 1.383 1_655 S
C1333 C1329 1.495 . S
C1333 H1339 0.959 . S
C1333 H1340 0.961 . S
C1333 H1341 0.960 . S
C1334 C1332 1.381 . S
C1334 C1335 1.394 . S
C1334 H1342 0.930 . S
C1335 C1334 1.394 . S
C1335 C1336 1.383 . S
C1335 H1343 0.929 . S
C1336 C1335 1.383 . S
C1336 C1337 1.377 . S
C1337 H1321 0.930 1_655 S
C1337 C1336 1.377 . S
C1337 C1338 1.379 1_655 S
C1338 H1322 0.931 . S
C1338 C1332 1.383 1_455 S
C1338 C1337 1.379 1_455 S
H1339 C1333 0.959 . S
H1340 C1333 0.961 . S
H1341 C1333 0.960 . S
H1342 C1334 0.930 . S
H1343 C1335 0.929 . S
H1344 C1352 0.929 . S
H1345 C1354 0.930 . S
H1346 C1356 0.930 1_565 S
H1347 C1359 0.929 . S
H1348 C1362 0.930 . S
H1349 C1364 0.960 . S
H1350 C1364 0.960 . S
H1351 C1364 0.960 . S
C1352 H1344 0.929 . S
C1352 C1353 1.377 . S
C1352 C1354 1.384 . S
C1353 C1352 1.377 . S
C1353 C1359 1.390 . S
C1354 H1345 0.930 . S
C1354 C1352 1.384 . S
C1354 C1355 1.372 . S
C1355 C1354 1.372 . S
C1355 C1356 1.400 . S
C1355 C1360 1.490 . S
C1356 H1346 0.930 1_545 S
C1356 C1355 1.400 . S
C1356 C1359 1.386 . S
H1357 C1373 0.930 . S
H1358 C1374 0.931 . S
C1359 H1347 0.929 . S
C1359 C1353 1.390 . S
C1359 C1356 1.386 . S
C1360 C1355 1.490 . S
C1360 C1362 1.395 1_545 S
C1360 C1363 1.403 . S
H1361 C1367 0.930 . S
C1362 H1348 0.930 . S
C1362 C1360 1.395 1_565 S
C1362 C1365 1.403 1_556 S
C1363 C1360 1.403 . S
C1363 C1364 1.524 . S
C1363 C1367 1.400 1_556 S
C1364 H1349 0.960 . S
C1364 H1350 0.960 . S
C1364 H1351 0.960 . S
C1364 C1363 1.524 . S
C1365 C1362 1.403 1_554 S
C1365 C1366 1.392 . S
C1365 C1369 1.495 . S
C1366 C1365 1.392 . S
C1366 C1367 1.385 1_565 S
C1366 C1368 1.478 . S
C1367 H1361 0.930 . S
C1367 C1363 1.400 1_554 S
C1367 C1366 1.385 1_545 S
C1368 C1366 1.478 . S
C1368 C1370 1.381 . S
C1368 C1374 1.383 . S
C1369 C1365 1.495 . S
C1369 H1375 0.959 . S
C1369 H1376 0.961 . S
C1369 H1377 0.960 . S
C1370 C1368 1.381 . S
C1370 C1371 1.394 . S
C1370 H1378 0.930 1_565 S
C1371 C1370 1.394 . S
C1371 C1372 1.383 . S
C1371 H1379 0.929 1_565 S
C1372 C1371 1.383 . S
C1372 C1373 1.377 . S
C1373 H1357 0.930 . S
C1373 C1372 1.377 . S
C1373 C1374 1.379 . S
C1374 H1358 0.931 . S
C1374 C1368 1.383 . S
C1374 C1373 1.379 . S
H1375 C1369 0.959 . S
H1376 C1369 0.961 . S
H1377 C1369 0.960 . S
H1378 C1370 0.930 1_545 S
H1379 C1371 0.929 1_545 S
H1380 C1388 0.929 . S
H1381 C1390 0.930 . S
H1382 C1392 0.930 . S
H1383 C1395 0.929 . S
H1384 C1398 0.930 . S
H1385 C1400 0.960 . S
H1386 C1400 0.960 . S
H1387 C1400 0.960 . S
C1388 H1380 0.929 . S
C1388 C1389 1.377 . S
C1388 C1390 1.384 . S
C1389 C1388 1.377 . S
C1389 C1395 1.390 . S
C1390 H1381 0.930 . S
C1390 C1388 1.384 . S
C1390 C1391 1.372 . S
C1391 C1390 1.372 . S
C1391 C1392 1.400 . S
C1391 C1396 1.490 . S
C1392 H1382 0.930 . S
C1392 C1391 1.400 . S
C1392 C1395 1.386 . S
H1393 C1409 0.930 . S
H1394 C1410 0.931 . S
C1395 H1383 0.929 . S
C1395 C1389 1.390 . S
C1395 C1392 1.386 . S
C1396 C1391 1.490 . S
C1396 C1398 1.395 . S
C1396 C1399 1.403 . S
H1397 C1403 0.930 . S
C1398 H1384 0.930 . S
C1398 C1396 1.395 . S
C1398 C1401 1.403 . S
C1399 C1396 1.403 . S
C1399 C1400 1.524 . S
C1399 C1403 1.400 . S
C1400 H1385 0.960 . S
C1400 H1386 0.960 . S
C1400 H1387 0.960 . S
C1400 C1399 1.524 . S
C1401 C1398 1.403 . S
C1401 C1402 1.392 . S
C1401 C1405 1.495 . S
C1402 C1401 1.392 . S
C1402 C1403 1.385 . S
C1402 C1404 1.478 . S
C1403 H1397 0.930 . S
C1403 C1399 1.400 . S
C1403 C1402 1.385 . S
C1404 C1402 1.478 . S
C1404 C1406 1.381 . S
C1404 C1410 1.383 . S
C1405 C1401 1.495 . S
C1405 H1411 0.959 . S
C1405 H1412 0.961 . S
C1405 H1413 0.960 . S
C1406 C1404 1.381 . S
C1406 C1407 1.394 . S
C1406 H1414 0.930 . S
C1407 C1406 1.394 . S
C1407 C1408 1.383 . S
C1407 H1415 0.929 . S
C1408 C1407 1.383 . S
C1408 C1409 1.377 . S
C1409 H1393 0.930 . S
C1409 C1408 1.377 . S
C1409 C1410 1.379 . S
C1410 H1394 0.931 . S
C1410 C1404 1.383 . S
C1410 C1409 1.379 . S
H1411 C1405 0.959 . S
H1412 C1405 0.961 . S
H1413 C1405 0.960 . S
H1414 C1406 0.930 . S
H1415 C1407 0.929 . S
H1416 C1424 0.929 1_455 S
H1417 C1426 0.930 . S
H1418 C1428 0.930 . S
H1419 C1431 0.929 . S
H1420 C1434 0.930 . S
H1421 C1436 0.960 . S
H1422 C1436 0.960 . S
H1423 C1436 0.960 . S
C1424 H1416 0.929 1_655 S
C1424 C1425 1.377 . S
C1424 C1426 1.384 1_655 S
C1425 C1424 1.377 . S
C1425 C1431 1.390 . S
C1426 H1417 0.930 . S
C1426 C1424 1.384 1_455 S
C1426 C1427 1.372 1_455 S
C1427 C1426 1.372 1_655 S
C1427 C1428 1.400 . S
C1427 C1432 1.490 . S
C1428 H1418 0.930 . S
C1428 C1427 1.400 . S
C1428 C1431 1.386 . S
H1429 C1445 0.901 1_655 S
H1430 C1446 0.931 1_655 S
C1431 H1419 0.929 . S
C1431 C1425 1.390 . S
C1431 C1428 1.386 . S
C1432 C1427 1.490 . S
C1432 C1434 1.395 1_655 S
C1432 C1435 1.403 . S
H1433 C1439 0.930 . S
C1434 H1420 0.930 . S
C1434 C1432 1.395 1_455 S
C1434 C1437 1.403 . S
C1435 C1432 1.403 . S
C1435 C1436 1.524 . S
C1435 C1439 1.400 . S
C1436 H1421 0.960 . S
C1436 H1422 0.960 . S
C1436 H1423 0.960 . S
C1436 C1435 1.524 . S
C1437 C1434 1.403 . S
C1437 C1438 1.392 . S
C1437 C1441 1.495 . S
C1438 C1437 1.392 . S
C1438 C1439 1.385 1_455 S
C1438 C1440 1.478 . S
C1439 H1433 0.930 . S
C1439 C1435 1.400 . S
C1439 C1438 1.385 1_655 S
C1440 C1438 1.478 . S
C1440 C1442 1.381 . S
C1440 C1446 1.383 . S
C1441 C1437 1.495 . S
C1441 H1447 0.959 . S
C1441 H1448 0.961 . S
C1441 H1449 0.960 . S
C1442 C1440 1.381 . S
C1442 C1443 1.394 . S
C1442 H1450 0.930 . S
C1443 C1442 1.394 . S
C1443 C1444 1.383 . S
C1443 H1451 0.929 . S
C1444 C1443 1.383 . S
C1444 C1445 1.377 . S
C1445 H1429 0.901 1_455 S
C1445 C1444 1.377 . S
C1445 C1446 1.379 . S
C1446 H1430 0.931 1_455 S
C1446 C1440 1.383 . S
C1446 C1445 1.379 . S
H1447 C1441 0.959 . S
H1448 C1441 0.961 . S
H1449 C1441 0.960 . S
H1450 C1442 0.930 . S
H1451 C1443 0.929 . S
H1452 C1460 0.929 . S
H1453 C1462 0.930 . S
H1454 C1464 0.930 . S
H1455 C1467 0.929 . S
H1456 C1470 0.930 . S
H1457 C1472 0.960 . S
H1458 C1472 0.960 . S
H1459 C1472 0.960 . S
C1460 H1452 0.929 . S
C1460 C1461 1.377 . S
C1460 C1462 1.384 . S
C1461 C1460 1.377 . S
C1461 C1467 1.390 . S
C1462 H1453 0.930 . S
C1462 C1460 1.384 . S
C1462 C1463 1.372 . S
C1463 C1462 1.372 . S
C1463 C1464 1.400 . S
C1463 C1468 1.490 . S
C1464 H1454 0.930 . S
C1464 C1463 1.400 . S
C1464 C1467 1.386 . S
H1465 C1481 0.930 . S
H1466 C1482 0.931 . S
C1467 H1455 0.929 . S
C1467 C1461 1.390 . S
C1467 C1464 1.386 . S
C1468 C1463 1.490 . S
C1468 C1470 1.395 . S
C1468 C1471 1.403 1_545 S
H1469 C1475 0.930 . S
C1470 H1456 0.930 . S
C1470 C1468 1.395 . S
C1470 C1473 1.403 . S
C1471 C1468 1.403 1_565 S
C1471 C1472 1.524 . S
C1471 C1475 1.400 . S
C1472 H1457 0.960 . S
C1472 H1458 0.960 . S
C1472 H1459 0.960 . S
C1472 C1471 1.524 . S
C1473 C1470 1.403 . S
C1473 C1474 1.353 1_545 S
C1473 C1477 1.495 . S
C1474 C1473 1.353 1_565 S
C1474 C1475 1.420 . S
C1474 C1476 1.485 . S
C1475 H1469 0.930 . S
C1475 C1471 1.400 . S
C1475 C1474 1.420 . S
C1476 C1474 1.485 . S
C1476 C1478 1.381 . S
C1476 C1482 1.383 . S
C1477 C1473 1.495 . S
C1477 H1483 0.959 . S
C1477 H1484 0.961 . S
C1477 H1485 0.960 . S
C1478 C1476 1.381 . S
C1478 C1479 1.394 . S
C1478 H1486 0.930 . S
C1479 C1478 1.394 . S
C1479 C1480 1.383 . S
C1479 H1487 0.929 . S
C1480 C1479 1.383 . S
C1480 C1481 1.377 . S
C1481 H1465 0.930 . S
C1481 C1480 1.377 . S
C1481 C1482 1.379 . S
C1482 H1466 0.931 . S
C1482 C1476 1.383 . S
C1482 C1481 1.379 . S
H1483 C1477 0.959 . S
H1484 C1477 0.961 . S
H1485 C1477 0.960 . S
H1486 C1478 0.930 . S
H1487 C1479 0.929 . S
C417 C292 0.663 . S
C436 C20 0.629 . S
C453 C54 0.661 . S
C472 C326 0.656 . S
C489 C88 0.658 . S
C508 C360 0.674 1_556 S
C525 C122 0.661 1_554 S
C544 C394 0.620 . S
C561 C156 0.663 . S
C580 C224 0.627 . S
C597 C190 0.657 . S
C616 C258 0.625 . S
C633 C9 1.522 . S
C652 C203 1.646 . S
C669 C33 1.657 . S
C688 C43 1.539 . S
C705 C77 1.515 . S
C724 C67 1.660 . S
C741 C101 1.656 . S
C760 C111 1.550 . S
C777 C135 1.661 . S
C796 C145 1.498 . S
C813 C179 1.518 . S
C832 C169 1.653 . S
C849 C271 1.660 . S
C868 C213 1.506 . S
C885 C305 1.656 . S
C904 C247 1.545 . S
C921 C339 1.659 . S
C940 C281 1.516 . S
C957 C373 1.659 . S
C976 C315 1.524 . S
C993 C407 1.661 . S
C1012 C349 1.492 . S
C1029 C383 1.512 . S
C1048 C237 1.666 . S
C1065 C2 0.987 . S
C1084 C206 1.006 . S
C1101 C36 0.977 . S
C1120 C240 0.954 . S
C1137 C70 0.987 . S
C1156 C274 1.009 . S
C1173 C104 0.990 . S
C1192 C308 1.010 . S
C1209 C342 0.988 . S
C1228 C138 1.011 . S
C1245 C172 0.990 . S
C1264 C376 1.009 . S
C1281 C311 1.140 . S
C1300 C5 1.108 . S
C1317 C39 1.140 . S
C1336 C345 1.108 . S
C1353 C73 1.133 . S
C1372 C379 1.135 . S
C1389 C107 1.134 . S
C1408 C209 1.160 . S
C1425 C141 1.139 . S
C1444 C243 1.109 . S
C1461 C277 1.138 . S
C1480 C175 1.147 . S
