# Generated by pormake.
# Topology zfw, (5)-cn, num edge types: 1
# Building blocks:
#     Node 0, Type 0, BuildingBlock: XOMCOT_clean_sbu_0, # of connection points: 5
#     Node 1, Type 0, BuildingBlock: XOMCOT_clean_sbu_0, # of connection points: 5
#     Node 2, Type 0, BuildingBlock: XOMCOT_clean_sbu_0, # of connection points: 5
#     Node 3, Type 0, BuildingBlock: XOMCOT_clean_sbu_0, # of connection points: 5
#     Node 4, Type 0, BuildingBlock: XOMCOT_clean_sbu_0, # of connection points: 5
#     Node 5, Type 0, BuildingBlock: XOMCOT_clean_sbu_0, # of connection points: 5
#     Node 6, Type 0, BuildingBlock: XOMCOT_clean_sbu_0, # of connection points: 5
#     Node 7, Type 0, BuildingBlock: XOMCOT_clean_sbu_0, # of connection points: 5
#     Node 8, Type 0, BuildingBlock: XOMCOT_clean_sbu_0, # of connection points: 5
#     Node 9, Type 0, BuildingBlock: XOMCOT_clean_sbu_0, # of connection points: 5
#     Node 10, Type 0, BuildingBlock: XOMCOT_clean_sbu_0, # of connection points: 5
#     Node 11, Type 0, BuildingBlock: XOMCOT_clean_sbu_0, # of connection points: 5
#     Node 12, Type 0, BuildingBlock: XOMCOT_clean_sbu_0, # of connection points: 5
#     Node 13, Type 0, BuildingBlock: XOMCOT_clean_sbu_0, # of connection points: 5
#     Node 14, Type 0, BuildingBlock: XOMCOT_clean_sbu_0, # of connection points: 5
#     Node 15, Type 0, BuildingBlock: XOMCOT_clean_sbu_0, # of connection points: 5
#     Edge 16, Type (0, 0), BuildingBlock: UVAHIK_clean_linker_0, # of connection points: 2
#     Edge 17, Type (0, 0), BuildingBlock: UVAHIK_clean_linker_0, # of connection points: 2
#     Edge 18, Type (0, 0), BuildingBlock: UVAHIK_clean_linker_0, # of connection points: 2
#     Edge 19, Type (0, 0), BuildingBlock: UVAHIK_clean_linker_0, # of connection points: 2
#     Edge 20, Type (0, 0), BuildingBlock: UVAHIK_clean_linker_0, # of connection points: 2
#     Edge 21, Type (0, 0), BuildingBlock: UVAHIK_clean_linker_0, # of connection points: 2
#     Edge 22, Type (0, 0), BuildingBlock: UVAHIK_clean_linker_0, # of connection points: 2
#     Edge 23, Type (0, 0), BuildingBlock: UVAHIK_clean_linker_0, # of connection points: 2
#     Edge 24, Type (0, 0), BuildingBlock: UVAHIK_clean_linker_0, # of connection points: 2
#     Edge 25, Type (0, 0), BuildingBlock: UVAHIK_clean_linker_0, # of connection points: 2
#     Edge 26, Type (0, 0), BuildingBlock: UVAHIK_clean_linker_0, # of connection points: 2
#     Edge 27, Type (0, 0), BuildingBlock: UVAHIK_clean_linker_0, # of connection points: 2
#     Edge 28, Type (0, 0), BuildingBlock: UVAHIK_clean_linker_0, # of connection points: 2
#     Edge 29, Type (0, 0), BuildingBlock: UVAHIK_clean_linker_0, # of connection points: 2
#     Edge 30, Type (0, 0), BuildingBlock: UVAHIK_clean_linker_0, # of connection points: 2
#     Edge 31, Type (0, 0), BuildingBlock: UVAHIK_clean_linker_0, # of connection points: 2
#     Edge 32, Type (0, 0), BuildingBlock: UVAHIK_clean_linker_0, # of connection points: 2
#     Edge 33, Type (0, 0), BuildingBlock: UVAHIK_clean_linker_0, # of connection points: 2
#     Edge 34, Type (0, 0), BuildingBlock: UVAHIK_clean_linker_0, # of connection points: 2
#     Edge 35, Type (0, 0), BuildingBlock: UVAHIK_clean_linker_0, # of connection points: 2
#     Edge 36, Type (0, 0), BuildingBlock: UVAHIK_clean_linker_0, # of connection points: 2
#     Edge 37, Type (0, 0), BuildingBlock: UVAHIK_clean_linker_0, # of connection points: 2
#     Edge 38, Type (0, 0), BuildingBlock: UVAHIK_clean_linker_0, # of connection points: 2
#     Edge 39, Type (0, 0), BuildingBlock: UVAHIK_clean_linker_0, # of connection points: 2
#     Edge 40, Type (0, 0), BuildingBlock: UVAHIK_clean_linker_0, # of connection points: 2
#     Edge 41, Type (0, 0), BuildingBlock: UVAHIK_clean_linker_0, # of connection points: 2
#     Edge 42, Type (0, 0), BuildingBlock: UVAHIK_clean_linker_0, # of connection points: 2
#     Edge 43, Type (0, 0), BuildingBlock: UVAHIK_clean_linker_0, # of connection points: 2
#     Edge 44, Type (0, 0), BuildingBlock: UVAHIK_clean_linker_0, # of connection points: 2
#     Edge 45, Type (0, 0), BuildingBlock: UVAHIK_clean_linker_0, # of connection points: 2
#     Edge 46, Type (0, 0), BuildingBlock: UVAHIK_clean_linker_0, # of connection points: 2
#     Edge 47, Type (0, 0), BuildingBlock: UVAHIK_clean_linker_0, # of connection points: 2
#     Edge 48, Type (0, 0), BuildingBlock: UVAHIK_clean_linker_0, # of connection points: 2
#     Edge 49, Type (0, 0), BuildingBlock: UVAHIK_clean_linker_0, # of connection points: 2
#     Edge 50, Type (0, 0), BuildingBlock: UVAHIK_clean_linker_0, # of connection points: 2
#     Edge 51, Type (0, 0), BuildingBlock: UVAHIK_clean_linker_0, # of connection points: 2
#     Edge 52, Type (0, 0), BuildingBlock: UVAHIK_clean_linker_0, # of connection points: 2
#     Edge 53, Type (0, 0), BuildingBlock: UVAHIK_clean_linker_0, # of connection points: 2
#     Edge 54, Type (0, 0), BuildingBlock: UVAHIK_clean_linker_0, # of connection points: 2
#     Edge 55, Type (0, 0), BuildingBlock: UVAHIK_clean_linker_0, # of connection points: 2
# Relax obj value: 0.248
# Max RMSD: 0.215
# Mean RMSD: 0.199
data_MOF--net-zfw--node1-XOMCOT_clean_sbu_0--edge1-UVAHIK_clean_linker_0
_symmetry_space_group_name_H-M    P1
_symmetry_Int_Tables_number       1
_symmetry_cell_setting            triclinic
loop_
_symmetry_equiv_pos_as_xyz
'x, y, z'
_cell_length_a     88.158867
_cell_length_b     87.328915
_cell_length_c     21.214077
_cell_angle_alpha  89.996011
_cell_angle_beta   89.994005
_cell_angle_gamma 89.99025
loop_
_atom_site_label
_atom_site_type_symbol
_atom_site_fract_x
_atom_site_fract_y
_atom_site_fract_z
_atom_type_partial_charge
Co0 Co 0.08225 0.09049 0.27403 0.0
C1 C 0.08603 0.0844 0.40915 0.0
C2 C 0.09193 0.06477 0.35424 0.0
C3 C 0.09603 0.06203 0.41593 0.0
N4 N 0.0853 0.07869 0.35027 0.0
N5 N 0.09246 0.07453 0.44977 0.0
H6 H 0.08321 0.096 0.42161 0.0
H7 H 0.09479 0.05759 0.31444 0.0
C8 C 0.06939 0.05958 0.2388 0.0
O9 O 0.06262 0.05855 0.29382 0.0
N10 N 0.0799 0.10201 0.19792 0.0
C11 C 0.07433 0.11622 0.18928 0.0
C12 C 0.07527 0.11968 0.12578 0.0
C13 C 0.08421 0.09708 0.1409 0.0
N14 N 0.08139 0.10752 0.09588 0.0
C15 C 0.05761 0.10381 0.34294 0.0
C16 C 0.03455 0.0945 0.2637 0.0
C17 C 0.03098 0.10402 0.31497 0.0
C18 C 0.0428 0.10858 0.35489 0.0
C19 C 0.0496 0.09 0.25334 0.0
N20 N 0.06093 0.09433 0.29371 0.0
H21 H 0.06648 0.10869 0.37119 0.0
H22 H 0.05216 0.0837 0.21092 0.0
H23 H 0.06992 0.12349 0.22629 0.0
H24 H 0.08959 0.08612 0.13274 0.0
O25 O 0.09105 0.10819 0.3143 0.0
O26 O 0.10407 0.09061 0.26189 0.0
O27 O 0.07737 0.07132 0.22496 0.0
C28 C 0.10412 0.10321 0.29472 0.0
H29 H 0.10223 0.05221 0.43349 0.0
H30 H 0.07156 0.13016 0.10332 0.0
H31 H 0.02588 0.09089 0.23077 0.0
H32 H 0.04083 0.11653 0.3932 0.0
Co33 Co 0.23147 0.76671 0.54405 0.0
C34 C 0.24149 0.76498 0.67753 0.0
C35 C 0.25618 0.77896 0.62162 0.0
C36 C 0.26082 0.77987 0.68358 0.0
N37 N 0.24412 0.76949 0.61783 0.0
N38 N 0.25155 0.77099 0.71835 0.0
H39 H 0.23181 0.75847 0.69248 0.0
H40 H 0.26089 0.78527 0.58233 0.0
C41 C 0.26238 0.75593 0.50365 0.0
O42 O 0.26434 0.74958 0.55921 0.0
N43 N 0.21915 0.76452 0.47011 0.0
C44 C 0.20604 0.7568 0.46258 0.0
C45 C 0.20225 0.75711 0.39943 0.0
C46 C 0.22298 0.76965 0.41267 0.0
N47 N 0.21294 0.76524 0.36851 0.0
C48 C 0.21859 0.7412 0.60912 0.0
C49 C 0.22926 0.7183 0.53121 0.0
C50 C 0.21978 0.7144 0.58182 0.0
C51 C 0.21449 0.72611 0.62094 0.0
C52 C 0.23339 0.73367 0.52176 0.0
N53 N 0.22842 0.74492 0.56177 0.0
H54 H 0.21315 0.74995 0.63679 0.0
H55 H 0.23986 0.73648 0.48022 0.0
H56 H 0.19999 0.75094 0.49975 0.0
H57 H 0.23337 0.77582 0.40293 0.0
O58 O 0.21433 0.7747 0.58954 0.0
O59 O 0.23043 0.78886 0.53474 0.0
O60 O 0.24998 0.76279 0.49047 0.0
C61 C 0.21836 0.78818 0.57008 0.0
H62 H 0.26992 0.7869 0.70187 0.0
H63 H 0.19261 0.75151 0.37778 0.0
H64 H 0.23316 0.70963 0.4985 0.0
H65 H 0.20651 0.72374 0.65857 0.0
Co66 Co 0.55546 0.91357 0.78431 0.0
C67 C 0.55819 0.92352 0.91724 0.0
C68 C 0.54528 0.93938 0.86218 0.0
C69 C 0.5447 0.94393 0.92438 0.0
N70 N 0.55389 0.92665 0.85771 0.0
N71 N 0.55289 0.93391 0.95867 0.0
H72 H 0.56391 0.91322 0.93151 0.0
H73 H 0.53922 0.94456 0.82329 0.0
C74 C 0.56713 0.9442 0.7397 0.0
O75 O 0.57367 0.94649 0.79454 0.0
N76 N 0.55652 0.90078 0.71089 0.0
C77 C 0.56349 0.88718 0.70342 0.0
C78 C 0.56288 0.88328 0.64039 0.0
C79 C 0.55152 0.90482 0.65348 0.0
N80 N 0.55533 0.89443 0.60939 0.0
C81 C 0.58048 0.89928 0.84674 0.0
C82 C 0.60334 0.90997 0.76953 0.0
C83 C 0.60708 0.90007 0.8193 0.0
C84 C 0.59536 0.89471 0.85787 0.0
C85 C 0.58819 0.91435 0.76019 0.0
N86 N 0.57698 0.90945 0.80006 0.0
H87 H 0.57172 0.894 0.87461 0.0
H88 H 0.58555 0.92107 0.71904 0.0
H89 H 0.56913 0.88087 0.74049 0.0
H90 H 0.54597 0.91561 0.64363 0.0
O91 O 0.54685 0.89688 0.83183 0.0
O92 O 0.53347 0.91375 0.77737 0.0
O93 O 0.55991 0.93181 0.72885 0.0
C94 C 0.53364 0.90173 0.81367 0.0
H95 H 0.53829 0.95346 0.94317 0.0
H96 H 0.56796 0.87328 0.61881 0.0
H97 H 0.61196 0.91404 0.73729 0.0
H98 H 0.59752 0.88643 0.8948 0.0
Co99 Co 0.41068 0.23501 0.00445 0.0
C100 C 0.40091 0.23697 0.13793 0.0
C101 C 0.3857 0.22348 0.08229 0.0
C102 C 0.38114 0.22267 0.14434 0.0
N103 N 0.39801 0.23261 0.07828 0.0
N104 N 0.39074 0.23122 0.17899 0.0
H105 H 0.41084 0.24317 0.15245 0.0
H106 H 0.38075 0.21734 0.04307 0.0
C107 C 0.37993 0.24639 0.96452 0.0
O108 O 0.37816 0.25278 0.0201 0.0
N109 N 0.42306 0.23684 0.93053 0.0
C110 C 0.4364 0.24414 0.92314 0.0
C111 C 0.44023 0.24373 0.86005 0.0
C112 C 0.41911 0.23185 0.87303 0.0
N113 N 0.42932 0.23594 0.829 0.0
C114 C 0.42452 0.26017 0.06858 0.0
C115 C 0.4133 0.28346 0.99408 0.0
C116 C 0.42329 0.28715 0.04337 0.0
C117 C 0.42892 0.27519 0.08052 0.0
C118 C 0.40915 0.26815 0.98372 0.0
N119 N 0.41432 0.25671 0.02226 0.0
H120 H 0.42994 0.25127 0.09553 0.0
H121 H 0.40236 0.26558 0.94282 0.0
H122 H 0.44262 0.2498 0.96039 0.0
H123 H 0.40854 0.22601 0.86317 0.0
O124 O 0.42758 0.22644 0.05005 0.0
O125 O 0.41102 0.21285 0.99521 0.0
O126 O 0.39223 0.2394 0.95092 0.0
C127 C 0.42303 0.2131 0.03094 0.0
H128 H 0.37184 0.21592 0.16274 0.0
H129 H 0.45005 0.24902 0.83851 0.0
H130 H 0.40895 0.29226 0.96298 0.0
H131 H 0.43726 0.27727 0.11699 0.0
Co132 Co 0.08172 0.91268 0.71298 0.0
C133 C 0.07926 0.92267 0.57988 0.0
C134 C 0.09255 0.93819 0.63504 0.0
C135 C 0.09321 0.94277 0.5729 0.0
N136 N 0.08365 0.92565 0.63941 0.0
N137 N 0.08478 0.93297 0.53856 0.0
H138 H 0.07328 0.91254 0.56553 0.0
H139 H 0.0987 0.94321 0.67398 0.0
C140 C 0.07061 0.94356 0.75656 0.0
O141 O 0.06409 0.9458 0.70164 0.0
N142 N 0.08035 0.90001 0.78661 0.0
C143 C 0.07318 0.88651 0.79409 0.0
C144 C 0.07372 0.88261 0.85713 0.0
C145 C 0.08539 0.90398 0.844 0.0
N146 N 0.08144 0.89364 0.88809 0.0
C147 C 0.05633 0.899 0.6508 0.0
C148 C 0.03392 0.90962 0.7304 0.0
C149 C 0.02991 0.8997 0.68109 0.0
C150 C 0.04139 0.89445 0.64107 0.0
C151 C 0.04911 0.91401 0.73827 0.0
N152 N 0.06012 0.90908 0.69746 0.0
H153 H 0.06494 0.89367 0.62227 0.0
H154 H 0.05198 0.92065 0.77935 0.0
H155 H 0.06747 0.88027 0.757 0.0
H156 H 0.09112 0.91467 0.85383 0.0
O157 O 0.08987 0.89572 0.66593 0.0
O158 O 0.10372 0.91227 0.71999 0.0
O159 O 0.07769 0.9311 0.76791 0.0
C160 C 0.10321 0.90016 0.68421 0.0
H161 H 0.09982 0.95217 0.5542 0.0
H162 H 0.06851 0.87269 0.87872 0.0
H163 H 0.02549 0.91364 0.76363 0.0
H164 H 0.03904 0.88616 0.60436 0.0
Co165 Co 0.41116 0.76808 0.99415 0.0
C166 C 0.40127 0.76652 0.86053 0.0
C167 C 0.38623 0.78002 0.91695 0.0
C168 C 0.38156 0.78093 0.85504 0.0
N169 N 0.39852 0.77083 0.92038 0.0
N170 N 0.39105 0.77236 0.81994 0.0
H171 H 0.41109 0.76023 0.84545 0.0
H172 H 0.38135 0.78609 0.9565 0.0
C173 C 0.38044 0.75633 0.03281 0.0
O174 O 0.37865 0.7503 0.97657 0.0
N175 N 0.42346 0.7659 0.06815 0.0
C176 C 0.43663 0.75831 0.07586 0.0
C177 C 0.44032 0.75856 0.13914 0.0
C178 C 0.41948 0.77089 0.12562 0.0
N179 N 0.4295 0.76653 0.16995 0.0
C180 C 0.42509 0.74342 0.92719 0.0
C181 C 0.41382 0.71952 -0.00178 0.0
C182 C 0.4235 0.71626 0.94745 0.0
C183 C 0.42921 0.7285 0.91223 0.0
C184 C 0.40979 0.73476 0.0112 0.0
N185 N 0.41494 0.74651 0.97416 0.0
H186 H 0.43052 0.75254 0.9015 0.0
H187 H 0.40307 0.73701 0.05262 0.0
H188 H 0.44282 0.75256 0.03873 0.0
H189 H 0.40899 0.77691 0.13522 0.0
O190 O 0.42804 0.77701 0.94965 0.0
O191 O 0.41135 0.79018 0.00558 0.0
O192 O 0.39273 0.76326 0.04704 0.0
C193 C 0.42339 0.79021 0.97001 0.0
H194 H 0.37224 0.78772 0.83706 0.0
H195 H 0.44998 0.75304 0.16094 0.0
H196 H 0.40956 0.71042 0.02805 0.0
H197 H 0.43734 0.72664 0.87469 0.0
Co198 Co 0.55563 0.08883 0.20929 0.0
C199 C 0.55048 0.08271 0.07468 0.0
C200 C 0.54671 0.06252 0.12925 0.0
C201 C 0.5425 0.05955 0.06781 0.0
N202 N 0.5522 0.07695 0.13319 0.0
N203 N 0.54475 0.0724 0.03417 0.0
H204 H 0.55223 0.09454 0.06232 0.0
H205 H 0.54478 0.05497 0.16879 0.0
C206 C 0.56861 0.05808 0.24756 0.0
O207 O 0.57583 0.05685 0.19362 0.0
N208 N 0.5583 0.10043 0.28521 0.0
C209 C 0.56378 0.11471 0.29324 0.0
C210 C 0.56315 0.1182 0.35682 0.0
C211 C 0.55436 0.09551 0.34275 0.0
N212 N 0.55734 0.10599 0.3874 0.0
C213 C 0.58041 0.10021 0.13587 0.0
C214 C 0.60335 0.0928 0.21909 0.0
C215 C 0.60699 0.1008 0.16374 0.0
C216 C 0.59526 0.10441 0.12188 0.0
C217 C 0.58825 0.08862 0.23097 0.0
N218 N 0.57699 0.09208 0.18887 0.0
H219 H 0.57163 0.10443 0.1056 0.0
H220 H 0.58556 0.08323 0.27541 0.0
H221 H 0.56792 0.12199 0.25576 0.0
H222 H 0.54913 0.08451 0.35172 0.0
O223 O 0.5473 0.10667 0.16868 0.0
O224 O 0.53382 0.08954 0.22167 0.0
O225 O 0.56023 0.06969 0.25905 0.0
C226 C 0.5341 0.10208 0.18831 0.0
H227 H 0.53726 0.04919 0.05022 0.0
H228 H 0.56689 0.12872 0.37888 0.0
H229 H 0.61201 0.09008 0.25349 0.0
H230 H 0.59737 0.11121 0.08009 0.0
Co231 Co 0.23055 0.23459 0.45627 0.0
C232 C 0.24053 0.23664 0.32291 0.0
C233 C 0.2555 0.22288 0.37853 0.0
C234 C 0.26015 0.22213 0.31654 0.0
N235 N 0.24326 0.23212 0.3825 0.0
N236 N 0.2507 0.23087 0.28195 0.0
H237 H 0.23071 0.24299 0.30817 0.0
H238 H 0.26034 0.21664 0.41771 0.0
C239 C 0.26125 0.24613 0.49618 0.0
O240 O 0.26313 0.25236 0.44035 0.0
N241 N 0.21818 0.23649 0.53018 0.0
C242 C 0.20486 0.24385 0.53765 0.0
C243 C 0.20108 0.24348 0.60081 0.0
C244 C 0.22215 0.23151 0.58767 0.0
N245 N 0.21199 0.23568 0.6318 0.0
C246 C 0.21671 0.25957 0.39106 0.0
C247 C 0.22741 0.28302 0.46605 0.0
C248 C 0.21766 0.28654 0.41581 0.0
C249 C 0.21231 0.27454 0.37834 0.0
C250 C 0.23175 0.26776 0.47664 0.0
N251 N 0.22681 0.25625 0.43791 0.0
H252 H 0.21141 0.25059 0.36413 0.0
H253 H 0.23845 0.26527 0.51787 0.0
H254 H 0.19864 0.24952 0.50043 0.0
H255 H 0.23271 0.22565 0.59746 0.0
O256 O 0.21368 0.2259 0.41094 0.0
O257 O 0.23028 0.21245 0.46625 0.0
O258 O 0.24895 0.23915 0.50973 0.0
C259 C 0.21824 0.21261 0.43071 0.0
H260 H 0.26939 0.2153 0.29812 0.0
H261 H 0.1913 0.24883 0.62243 0.0
H262 H 0.23141 0.29191 0.4975 0.0
H263 H 0.20416 0.27658 0.34104 0.0
Co264 Co 0.90656 0.26707 0.45394 0.0
C265 C 0.89662 0.26558 0.32021 0.0
C266 C 0.88174 0.27921 0.37674 0.0
C267 C 0.8771 0.28024 0.31484 0.0
N268 N 0.8939 0.26985 0.38015 0.0
N269 N 0.88649 0.27159 0.27964 0.0
H270 H 0.9064 0.25925 0.305 0.0
H271 H 0.87696 0.28536 0.41629 0.0
C272 C 0.87563 0.25649 0.49482 0.0
O273 O 0.87371 0.24994 0.43965 0.0
N274 N 0.91887 0.26492 0.52794 0.0
C275 C 0.93191 0.2571 0.53577 0.0
C276 C 0.93566 0.25744 0.59896 0.0
C277 C 0.91504 0.27014 0.58525 0.0
N278 N 0.92502 0.26569 0.62962 0.0
C279 C 0.91908 0.24133 0.38924 0.0
C280 C 0.90862 0.21872 0.46908 0.0
C281 C 0.91797 0.21463 0.4183 0.0
C282 C 0.92314 0.22619 0.37815 0.0
C283 C 0.90453 0.23412 0.47778 0.0
N284 N 0.90941 0.24523 0.43691 0.0
H285 H 0.92451 0.24997 0.36097 0.0
H286 H 0.89819 0.23709 0.51947 0.0
H287 H 0.93792 0.25112 0.49878 0.0
H288 H 0.90468 0.27638 0.59477 0.0
O289 O 0.92375 0.27481 0.40811 0.0
O290 O 0.90779 0.28923 0.46252 0.0
O291 O 0.88802 0.2634 0.50769 0.0
C292 C 0.91983 0.28837 0.42708 0.0
H293 H 0.86789 0.28719 0.29691 0.0
H294 H 0.94522 0.25175 0.62084 0.0
H295 H 0.90481 0.21018 0.50253 0.0
H296 H 0.93102 0.22368 0.34032 0.0
Co297 Co 0.72604 0.73584 0.98779 0.0
C298 C 0.73596 0.73686 0.85392 0.0
C299 C 0.75048 0.72289 0.91072 0.0
C300 C 0.75515 0.72174 0.84888 0.0
N301 N 0.73852 0.73252 0.91389 0.0
N302 N 0.746 0.73062 0.81356 0.0
H303 H 0.72638 0.74347 0.83854 0.0
H304 H 0.75513 0.7167 0.95043 0.0
C305 C 0.75713 0.74638 0.02609 0.0
O306 O 0.75891 0.75256 0.9701 0.0
N307 N 0.7139 0.73853 0.06197 0.0
C308 C 0.70105 0.74666 0.06979 0.0
C309 C 0.69736 0.74652 0.13307 0.0
C310 C 0.71768 0.73334 0.11937 0.0
N311 N 0.70785 0.73809 0.16377 0.0
C312 C 0.71359 0.7613 0.92084 0.0
C313 C 0.72509 0.78438 0.9957 0.0
C314 C 0.71585 0.78824 0.94429 0.0
C315 C 0.71007 0.77643 0.90691 0.0
C316 C 0.72862 0.76896 0.00729 0.0
N317 N 0.72333 0.7576 0.96853 0.0
H318 H 0.70789 0.75253 0.8942 0.0
H319 H 0.73498 0.76622 0.04922 0.0
H320 H 0.6951 0.75267 0.03271 0.0
H321 H 0.7279 0.72687 0.12886 0.0
O322 O 0.70869 0.72794 0.94339 0.0
O323 O 0.72468 0.71374 -0.00142 0.0
O324 O 0.74473 0.73968 0.04045 0.0
C325 C 0.71258 0.71446 0.96343 0.0
H326 H 0.76424 0.71461 0.83111 0.0
H327 H 0.68794 0.75243 0.15496 0.0
H328 H 0.72932 0.79316 0.02719 0.0
H329 H 0.70224 0.77882 0.86878 0.0
Co330 Co 0.72671 0.26649 0.00765 0.0
C331 C 0.73663 0.26456 0.14098 0.0
C332 C 0.75137 0.27866 0.08567 0.0
C333 C 0.75592 0.2795 0.14773 0.0
N334 N 0.73935 0.26914 0.08145 0.0
N335 N 0.74662 0.27057 0.18215 0.0
H336 H 0.72691 0.25803 0.15545 0.0
H337 H 0.75608 0.28505 0.04663 0.0
C338 C 0.75773 0.25612 0.9669 0.0
O339 O 0.75969 0.24963 0.02216 0.0
N340 N 0.71436 0.26442 0.93377 0.0
C341 C 0.70121 0.25676 0.92641 0.0
C342 C 0.69734 0.25712 0.86337 0.0
C343 C 0.71815 0.26956 0.87631 0.0
N344 N 0.70803 0.26522 0.83231 0.0
C345 C 0.71384 0.2407 0.07102 0.0
C346 C 0.7252 0.21807 0.99352 0.0
C347 C 0.71544 0.21392 0.04295 0.0
C348 C 0.70978 0.22554 0.08179 0.0
C349 C 0.72909 0.2335 0.98458 0.0
N350 N 0.72381 0.24463 0.02444 0.0
H351 H 0.70827 0.24933 0.09884 0.0
H352 H 0.73569 0.23644 0.94356 0.0
H353 H 0.69517 0.2509 0.96364 0.0
H354 H 0.72855 0.27569 0.86642 0.0
O355 O 0.70955 0.27428 0.05367 0.0
O356 O 0.72555 0.28867 -0.00056 0.0
O357 O 0.74526 0.26286 0.9538 0.0
C358 C 0.71353 0.28784 0.03502 0.0
H359 H 0.76497 0.28656 0.16633 0.0
H360 H 0.68766 0.25158 0.84185 0.0
H361 H 0.72952 0.20953 0.96113 0.0
H362 H 0.70159 0.22308 0.11849 0.0
Co363 Co 0.9068 0.73542 0.53194 0.0
C364 C 0.89676 0.73733 0.66532 0.0
C365 C 0.88199 0.72338 0.60963 0.0
C366 C 0.87728 0.72264 0.67154 0.0
N367 N 0.89416 0.73272 0.60576 0.0
N368 N 0.8866 0.73151 0.70616 0.0
H369 H 0.90646 0.74384 0.68015 0.0
H370 H 0.87724 0.71709 0.57041 0.0
C371 C 0.87604 0.74704 0.49309 0.0
O372 O 0.87413 0.75304 0.54932 0.0
N373 N 0.91911 0.73756 0.45794 0.0
C374 C 0.93236 0.74502 0.45046 0.0
C375 C 0.93608 0.7448 0.38722 0.0
C376 C 0.9151 0.73266 0.40037 0.0
N377 N 0.92519 0.73697 0.3562 0.0
C378 C 0.92072 0.7602 0.59825 0.0
C379 C 0.90983 0.78386 0.52481 0.0
C380 C 0.91959 0.78725 0.57513 0.0
C381 C 0.92504 0.77516 0.61185 0.0
C382 C 0.90554 0.76863 0.51344 0.0
N383 N 0.91057 0.75701 0.55143 0.0
H384 H 0.92606 0.75114 0.62461 0.0
H385 H 0.89881 0.76626 0.4722 0.0
H386 H 0.93858 0.75066 0.48774 0.0
H387 H 0.90458 0.72674 0.39059 0.0
O388 O 0.92371 0.72651 0.57645 0.0
O389 O 0.907 0.71335 0.52054 0.0
O390 O 0.88837 0.74018 0.47904 0.0
C391 C 0.9191 0.71332 0.55575 0.0
H392 H 0.86807 0.71576 0.68989 0.0
H393 H 0.9458 0.75025 0.36558 0.0
H394 H 0.90577 0.79285 0.49392 0.0
H395 H 0.93318 0.77714 0.64921 0.0
Co396 Co 0.58076 0.58576 0.79937 0.0
C397 C 0.58474 0.57949 0.93438 0.0
C398 C 0.5861 0.55874 0.88133 0.0
C399 C 0.59001 0.55559 0.94292 0.0
N400 N 0.58246 0.57374 0.87617 0.0
N401 N 0.58931 0.56875 0.97561 0.0
H402 H 0.58405 0.5915 0.94604 0.0
H403 H 0.58717 0.5508 0.84264 0.0
C404 C 0.56746 0.55613 0.75051 0.0
O405 O 0.55718 0.55623 0.79535 0.0
N406 N 0.57983 0.59742 0.7229 0.0
C407 C 0.57458 0.61171 0.71283 0.0
C408 C 0.57622 0.61503 0.64944 0.0
C409 C 0.58471 0.59235 0.66687 0.0
N410 N 0.58246 0.60272 0.62107 0.0
C411 C 0.55436 0.59559 0.86633 0.0
C412 C 0.53388 0.59216 0.76885 0.0
C413 C 0.52901 0.59919 0.8249 0.0
C414 C 0.5395 0.60064 0.87419 0.0
C415 C 0.54897 0.5873 0.76282 0.0
N416 N 0.55903 0.58895 0.81149 0.0
H417 H 0.5623 0.59804 0.90326 0.0
H418 H 0.55271 0.58278 0.71802 0.0
H419 H 0.56974 0.61904 0.74867 0.0
H420 H 0.58989 0.58125 0.6597 0.0
O421 O 0.58781 0.60369 0.84297 0.0
O422 O 0.60277 0.58678 0.79581 0.0
O423 O 0.57758 0.56658 0.74789 0.0
C424 C 0.60148 0.59939 0.82836 0.0
H425 H 0.59409 0.54476 0.96111 0.0
H426 H 0.57272 0.62544 0.62583 0.0
H427 H 0.52626 0.59081 0.72923 0.0
H428 H 0.53658 0.60652 0.91748 0.0
Co429 Co 0.05606 0.4138 0.28218 0.0
C430 C 0.05184 0.41979 0.41726 0.0
C431 C 0.0486 0.44024 0.36371 0.0
C432 C 0.04449 0.44314 0.42526 0.0
N433 N 0.0536 0.42564 0.35894 0.0
N434 N 0.04638 0.43014 0.45828 0.0
H435 H 0.05334 0.40786 0.42898 0.0
H436 H 0.04675 0.44794 0.32463 0.0
C437 C 0.06894 0.44415 0.23985 0.0
O438 O 0.07778 0.44453 0.28972 0.0
N439 N 0.05777 0.40227 0.20572 0.0
C440 C 0.06354 0.38818 0.19592 0.0
C441 C 0.06217 0.38479 0.13249 0.0
C442 C 0.05286 0.40716 0.14949 0.0
N443 N 0.05556 0.39687 0.10382 0.0
C444 C 0.08193 0.40293 0.35036 0.0
C445 C 0.10332 0.40891 0.25849 0.0
C446 C 0.10779 0.40085 0.31274 0.0
C447 C 0.09683 0.39809 0.35924 0.0
C448 C 0.08819 0.41352 0.25135 0.0
N449 N 0.07769 0.41067 0.29737 0.0
H450 H 0.07366 0.39944 0.38451 0.0
H451 H 0.0848 0.41872 0.20736 0.0
H452 H 0.0685 0.381 0.23203 0.0
H453 H 0.04723 0.41803 0.14225 0.0
O454 O 0.04852 0.3958 0.32414 0.0
O455 O 0.03413 0.41286 0.27491 0.0
O456 O 0.05973 0.43305 0.23179 0.0
C457 C 0.03503 0.4002 0.30728 0.0
H458 H 0.03944 0.45357 0.44319 0.0
H459 H 0.06603 0.37448 0.10912 0.0
H460 H 0.1113 0.41123 0.22091 0.0
H461 H 0.09946 0.39137 0.40074 0.0
Co462 Co 0.58103 0.41619 0.19703 0.0
C463 C 0.58634 0.42241 0.06255 0.0
C464 C 0.58647 0.44329 0.11502 0.0
C465 C 0.59057 0.44651 0.0537 0.0
N466 N 0.58343 0.42816 0.1203 0.0
N467 N 0.59062 0.43327 0.02135 0.0
H468 H 0.58599 0.41037 0.05101 0.0
H469 H 0.58683 0.45139 0.15338 0.0
C470 C 0.56731 0.44573 0.24489 0.0
O471 O 0.55708 0.44544 0.19988 0.0
N472 N 0.57945 0.40457 0.27351 0.0
C473 C 0.57441 0.39017 0.28274 0.0
C474 C 0.5756 0.38684 0.3463 0.0
C475 C 0.58375 0.4097 0.33027 0.0
N476 N 0.58135 0.39926 0.37562 0.0
C477 C 0.55506 0.4071 0.12546 0.0
C478 C 0.53391 0.40971 0.22095 0.0
C479 C 0.52939 0.40346 0.16292 0.0
C480 C 0.5402 0.4024 0.11474 0.0
C481 C 0.54899 0.41438 0.22965 0.0
N482 N 0.55938 0.41314 0.18196 0.0
H483 H 0.56324 0.40493 0.08913 0.0
H484 H 0.55242 0.41852 0.2755 0.0
H485 H 0.57008 0.38274 0.24615 0.0
H486 H 0.58872 0.42086 0.33829 0.0
O487 O 0.58827 0.39817 0.15456 0.0
O488 O 0.603 0.41499 0.20344 0.0
O489 O 0.57759 0.43544 0.24784 0.0
C490 C 0.60185 0.40237 0.17088 0.0
H491 H 0.59409 0.45751 0.03533 0.0
H492 H 0.57221 0.37631 0.36928 0.0
H493 H 0.52599 0.41064 0.25978 0.0
H494 H 0.53747 0.39712 0.06996 0.0
Co495 Co 0.05402 0.59087 0.71412 0.0
C496 C 0.05688 0.58141 0.58072 0.0
C497 C 0.04538 0.56453 0.63604 0.0
C498 C 0.04495 0.56003 0.57377 0.0
N499 N 0.05305 0.57787 0.64037 0.0
N500 N 0.05226 0.57069 0.53935 0.0
H501 H 0.06173 0.59216 0.56644 0.0
H502 H 0.03985 0.55886 0.67509 0.0
C503 C 0.06691 0.56079 0.75844 0.0
O504 O 0.07449 0.55955 0.70535 0.0
N505 N 0.0545 0.60355 0.78786 0.0
C506 C 0.06075 0.61751 0.79531 0.0
C507 C 0.05973 0.62147 0.85817 0.0
C508 C 0.04952 0.59935 0.84507 0.0
N509 N 0.05265 0.61 0.88905 0.0
C510 C 0.07904 0.60561 0.65301 0.0
C511 C 0.1016 0.59591 0.73385 0.0
C512 C 0.10547 0.60566 0.68375 0.0
C513 C 0.09388 0.61054 0.64335 0.0
C514 C 0.08651 0.59124 0.74184 0.0
N515 N 0.07548 0.59556 0.70005 0.0
H516 H 0.07031 0.61061 0.62409 0.0
H517 H 0.08372 0.58474 0.78345 0.0
H518 H 0.06613 0.62407 0.7583 0.0
H519 H 0.04442 0.58833 0.85484 0.0
O520 O 0.04514 0.60747 0.66676 0.0
O521 O 0.03207 0.59009 0.71988 0.0
O522 O 0.05868 0.57256 0.76886 0.0
C523 C 0.03201 0.60226 0.68441 0.0
H524 H 0.03922 0.55006 0.55506 0.0
H525 H 0.06419 0.63176 0.8797 0.0
H526 H 0.11007 0.59217 0.76744 0.0
H527 H 0.09607 0.61874 0.60615 0.0
C528 C 0.21182 0.18487 0.44765 0.0
C529 C 0.20982 0.19856 0.41386 0.0
C530 C 0.20286 0.17203 0.43397 0.0
C531 C 0.17785 0.15518 0.31195 0.0
H532 H 0.15649 0.13687 0.45283 0.0
C533 C 0.13188 0.10835 0.27854 0.0
C534 C 0.11825 0.11147 0.31037 0.0
C535 C 0.14502 0.11674 0.29229 0.0
C536 C 0.16244 0.1418 0.41304 0.0
H537 H 0.19738 0.20938 0.33772 0.0
H538 H 0.18193 0.18706 0.31367 0.0
H539 H 0.17642 0.15571 0.47258 0.0
H540 H 0.10779 0.12542 0.38298 0.0
H541 H 0.13063 0.13995 0.40701 0.0
H542 H 0.16348 0.14171 0.25234 0.0
C543 C 0.19036 0.18617 0.35064 0.0
C544 C 0.17394 0.15248 0.42437 0.0
C545 C 0.19914 0.19901 0.3648 0.0
C546 C 0.1181 0.12281 0.35732 0.0
C547 C 0.13123 0.13104 0.37153 0.0
C548 C 0.16644 0.1444 0.30064 0.0
C549 C 0.19195 0.17261 0.38561 0.0
C550 C 0.18147 0.1596 0.37388 0.0
C551 C 0.1448 0.12823 0.33877 0.0
C552 C 0.15832 0.13792 0.35102 0.0
H553 H 0.21997 0.18422 0.48574 0.0
H554 H 0.20436 0.1617 0.46152 0.0
H555 H 0.18356 0.16038 0.27213 0.0
H556 H 0.13232 0.09964 0.24223 0.0
H557 H 0.15534 0.11428 0.26648 0.0
C558 C 0.19769 0.80048 0.63176 0.0
C559 C 0.20912 0.80177 0.58597 0.0
C560 C 0.18778 0.81259 0.64322 0.0
C561 C 0.1618 0.83401 0.61998 0.0
H562 H 0.17266 0.87697 0.6304 0.0
C563 C 0.11578 0.87985 0.6206 0.0
C564 C 0.11689 0.89136 0.66659 0.0
C565 C 0.12811 0.87037 0.60749 0.0
C566 C 0.16949 0.865 0.62781 0.0
H567 H 0.21962 0.81704 0.5183 0.0
H568 H 0.20204 0.83832 0.53787 0.0
H569 H 0.1926 0.85759 0.61727 0.0
H570 H 0.13202 0.90246 0.73286 0.0
H571 H 0.15364 0.88563 0.71057 0.0
H572 H 0.13884 0.84117 0.63143 0.0
C573 C 0.20086 0.82791 0.56515 0.0
C574 C 0.18088 0.85394 0.61979 0.0
C575 C 0.21088 0.81573 0.5538 0.0
C576 C 0.13084 0.89365 0.69727 0.0
C577 C 0.14322 0.88406 0.68431 0.0
C578 C 0.1505 0.84499 0.62773 0.0
C579 C 0.18896 0.8263 0.60889 0.0
C580 C 0.17713 0.83831 0.61625 0.0
C581 C 0.14184 0.87207 0.64037 0.0
C582 C 0.15416 0.86062 0.63166 0.0
H583 H 0.19617 0.78995 0.65805 0.0
H584 H 0.17897 0.81111 0.67829 0.0
H585 H 0.15849 0.8221 0.61649 0.0
H586 H 0.10526 0.87794 0.59544 0.0
H587 H 0.12677 0.86148 0.57232 0.0
C588 C 0.50576 0.89635 0.80265 0.0
C589 C 0.51964 0.89371 0.83329 0.0
C590 C 0.49286 0.88786 0.81913 0.0
C591 C 0.47672 0.86307 0.94427 0.0
H592 H 0.45579 0.84278 0.80695 0.0
C593 C 0.4422 0.8041 0.90367 0.0
C594 C 0.43155 0.8044 0.95288 0.0
C595 C 0.4505 0.81718 0.8883 0.0
C596 C 0.46145 0.84846 0.84579 0.0
H597 H 0.53079 0.88061 0.90678 0.0
H598 H 0.50837 0.86594 0.93559 0.0
H599 H 0.47499 0.86214 0.78371 0.0
H600 H 0.42102 0.81869 0.02401 0.0
H601 H 0.43582 0.84163 -0.0023 0.0
H602 H 0.4636 0.84893 0.00627 0.0
C603 C 0.50738 0.87453 0.89899 0.0
C604 C 0.47235 0.85963 0.8325 0.0
C605 C 0.52026 0.88285 0.88207 0.0
C606 C 0.42917 0.81814 0.98586 0.0
C607 C 0.43765 0.83123 0.97095 0.0
C608 C 0.46573 0.85198 0.95758 0.0
C609 C 0.49358 0.87677 0.86716 0.0
C610 C 0.48042 0.86674 0.88155 0.0
C611 C 0.44846 0.83084 0.92214 0.0
C612 C 0.4583 0.84424 0.90842 0.0
H613 H 0.50495 0.90466 0.76492 0.0
H614 H 0.48235 0.88987 0.79398 0.0
H615 H 0.48265 0.86847 0.98306 0.0
H616 H 0.44425 0.7937 0.8772 0.0
H617 H 0.45888 0.81644 0.85106 0.0
C618 C 0.50644 0.10809 0.20309 0.0
C619 C 0.5202 0.11057 0.17125 0.0
C620 C 0.49354 0.11667 0.18751 0.0
C621 C 0.47699 0.14091 0.06182 0.0
H622 H 0.45621 0.16168 0.19834 0.0
C623 C 0.42898 0.18512 0.01785 0.0
C624 C 0.43128 0.19907 0.04946 0.0
C625 C 0.43759 0.17219 0.03386 0.0
C626 C 0.46183 0.15587 0.15974 0.0
H627 H 0.53112 0.12355 0.0968 0.0
H628 H 0.50871 0.13839 0.06962 0.0
H629 H 0.47566 0.1426 0.22233 0.0
H630 H 0.44394 0.21028 0.12398 0.0
H631 H 0.45879 0.18782 0.15199 0.0
H632 H 0.46358 0.1546 -0.00077 0.0
C633 C 0.50782 0.12986 0.10651 0.0
C634 C 0.47287 0.14486 0.17348 0.0
C635 C 0.52071 0.12145 0.12255 0.0
C636 C 0.44196 0.19972 0.09853 0.0
C637 C 0.45038 0.1868 0.11499 0.0
C638 C 0.46586 0.15182 0.04808 0.0
C639 C 0.49413 0.12769 0.13916 0.0
C640 C 0.48088 0.13759 0.12466 0.0
C641 C 0.44844 0.17294 0.0824 0.0
C642 C 0.45847 0.15973 0.09691 0.0
H643 H 0.50573 0.09974 0.24072 0.0
H644 H 0.48311 0.11473 0.21331 0.0
H645 H 0.48287 0.13537 0.02322 0.0
H646 H 0.42082 0.1843 0.97986 0.0
H647 H 0.43582 0.16163 0.00808 0.0
C648 C 0.93138 0.81182 0.53781 0.0
C649 C 0.92531 0.80298 0.58706 0.0
C650 C 0.93936 0.82532 0.55096 0.0
C651 C 0.96218 0.84156 0.67915 0.0
H652 H 0.96391 0.87751 0.57222 0.0
C653 C 0.00607 0.88857 0.72745 0.0
C654 C 0.01427 0.89348 0.67433 0.0
C655 C 0.99257 0.88031 0.72029 0.0
C656 C 0.96358 0.86753 0.6025 0.0
H657 H 0.92166 0.80199 0.68798 0.0
H658 H 0.93535 0.82561 0.71087 0.0
H659 H 0.94479 0.85782 0.55221 0.0
H660 H 0.01403 0.89466 0.57222 0.0
H661 H 0.99081 0.87996 0.55968 0.0
H662 H 0.98124 0.85083 0.72796 0.0
C663 C 0.93432 0.82195 0.66227 0.0
C664 C 0.95262 0.85626 0.59101 0.0
C665 C 0.92643 0.80846 0.64917 0.0
C666 C 0.00812 0.89083 0.61411 0.0
C667 C 0.99468 0.88252 0.60695 0.0
C668 C 0.97313 0.85277 0.69047 0.0
C669 C 0.94135 0.83025 0.6136 0.0
C670 C 0.95193 0.84303 0.62871 0.0
C671 C 0.98699 0.87673 0.65988 0.0
C672 C 0.97415 0.8658 0.65176 0.0
H673 H 0.9308 0.80781 0.48955 0.0
H674 H 0.94471 0.83138 0.51237 0.0
H675 H 0.96219 0.8314 0.70841 0.0
H676 H 0.01048 0.89036 0.77452 0.0
H677 H 0.98678 0.87628 0.76215 0.0
C678 C 0.92456 0.19246 0.34887 0.0
C679 C 0.92382 0.19882 0.40964 0.0
C680 C 0.93293 0.17916 0.33771 0.0
C681 C 0.95356 0.14679 0.41261 0.0
H682 H 0.98097 0.15237 0.27155 0.0
C683 C 0.00977 0.11328 0.38474 0.0
C684 C 0.01547 0.1105 0.32383 0.0
C685 C 0.99632 0.12151 0.39336 0.0
C686 C 0.97322 0.15037 0.31028 0.0
H687 H 0.93039 0.19566 0.50715 0.0
H688 H 0.94508 0.17237 0.48771 0.0
H689 H 0.96116 0.17103 0.29064 0.0
H690 H 0.01087 0.11347 0.22407 0.0
H691 H 0.98716 0.12723 0.23903 0.0
H692 H 0.96588 0.12621 0.43277 0.0
C693 C 0.9391 0.17762 0.44871 0.0
C694 C 0.96183 0.16114 0.32133 0.0
C695 C 0.93067 0.19095 0.45992 0.0
C696 C 0.00684 0.1153 0.27169 0.0
C697 C 0.99332 0.12342 0.28031 0.0
C698 C 0.96494 0.13592 0.4013 0.0
C699 C 0.9408 0.17193 0.38703 0.0
C700 C 0.95197 0.1596 0.37301 0.0
C701 C 0.98813 0.12707 0.34125 0.0
C702 C 0.97506 0.13769 0.35042 0.0
H703 H 0.91922 0.19819 0.30936 0.0
H704 H 0.93373 0.17488 0.2899 0.0
H705 H 0.94606 0.14522 0.45254 0.0
H706 H 0.01596 0.10951 0.42601 0.0
H707 H 0.99276 0.12412 0.44101 0.0
C708 C 0.63069 0.11429 0.19934 0.0
C709 C 0.6225 0.10683 0.1515 0.0
C710 C 0.64394 0.12243 0.185 0.0
C711 C 0.66023 0.14351 0.0524 0.0
H712 H 0.6953 0.14773 0.16117 0.0
C713 C 0.70533 0.18914 -0.00077 0.0
C714 C 0.70985 0.19796 0.05137 0.0
C715 C 0.69759 0.17529 0.00796 0.0
C716 C 0.68556 0.14673 0.13035 0.0
H717 H 0.62251 0.10092 0.05223 0.0
H718 H 0.64559 0.11509 0.02729 0.0
H719 H 0.67621 0.12823 0.18443 0.0
H720 H 0.71092 0.19848 0.15347 0.0
H721 H 0.69709 0.17472 0.16872 0.0
H722 H 0.66904 0.16238 -2e-05 0.0
C723 C 0.64162 0.11492 0.07561 0.0
C724 C 0.67464 0.13553 0.14368 0.0
C725 C 0.62842 0.10679 0.08993 0.0
C726 C 0.70737 0.1921 0.11226 0.0
C727 C 0.69957 0.17834 0.121 0.0
C728 C 0.67105 0.15475 0.03936 0.0
C729 C 0.64926 0.12326 0.12254 0.0
C730 C 0.66173 0.13396 0.10538 0.0
C731 C 0.69415 0.16998 0.06901 0.0
C732 C 0.68373 0.15672 0.07875 0.0
H733 H 0.62637 0.11466 0.24711 0.0
H734 H 0.64949 0.12881 0.22219 0.0
H735 H 0.65029 0.1428 0.02249 0.0
H736 H 0.70701 0.19331 0.95167 0.0
H737 H 0.69387 0.16901 0.96677 0.0
C738 C 0.6284 0.89158 0.88957 0.0
C739 C 0.62275 0.89408 0.82842 0.0
C740 C 0.6419 0.88351 0.89891 0.0
C741 C 0.66463 0.85405 0.81904 0.0
H742 H 0.69135 0.85929 0.96267 0.0
C743 C 0.7107 0.80977 0.86967 0.0
C744 C 0.71088 0.80419 0.93178 0.0
C745 C 0.70319 0.82339 0.85507 0.0
C746 C 0.68399 0.85768 0.92235 0.0
H747 H 0.62748 0.89099 0.72893 0.0
H748 H 0.65129 0.87733 0.7451 0.0
H749 H 0.67233 0.87884 0.93895 0.0
H750 H 0.70421 0.80898 0.02802 0.0
H751 H 0.69095 0.83279 0.00258 0.0
H752 H 0.67593 0.83277 0.80323 0.0
C753 C 0.64506 0.88128 0.786 0.0
C754 C 0.67308 0.86888 0.90875 0.0
C755 C 0.6315 0.8893 0.77666 0.0
C756 C 0.70434 0.81308 0.97982 0.0
C757 C 0.69674 0.82671 0.96516 0.0
C758 C 0.67554 0.84293 0.83244 0.0
C759 C 0.65016 0.87781 0.84728 0.0
C760 C 0.66306 0.86705 0.85756 0.0
C761 C 0.69559 0.83171 0.90222 0.0
C762 C 0.68519 0.84447 0.88485 0.0
H763 H 0.62207 0.89534 0.93049 0.0
H764 H 0.64538 0.88103 0.94678 0.0
H765 H 0.65695 0.85204 0.78008 0.0
H766 H 0.71582 0.80322 0.83184 0.0
H767 H 0.70281 0.82709 0.80637 0.0
C768 C 0.70555 0.68671 0.97756 0.0
C769 C 0.70332 0.70088 0.9475 0.0
C770 C 0.69583 0.67436 0.965 0.0
C771 C 0.67682 0.64819 0.90616 0.0
H772 H 0.63432 0.65929 0.89505 0.0
C773 C 0.62887 0.60715 0.81878 0.0
C774 C 0.61467 0.60862 0.84827 0.0
C775 C 0.64076 0.61714 0.83436 0.0
C776 C 0.64611 0.65592 0.89862 0.0
H777 H 0.68972 0.71298 0.87833 0.0
H778 H 0.67303 0.69156 0.85602 0.0
H779 H 0.6531 0.67898 0.91475 0.0
H780 H 0.6021 0.62087 0.92024 0.0
H781 H 0.62277 0.63796 0.94808 0.0
H782 H 0.66962 0.62499 0.8907 0.0
C783 C 0.682 0.69001 0.89035 0.0
C784 C 0.65692 0.66727 0.9091 0.0
C785 C 0.69162 0.70229 0.90299 0.0
C786 C 0.61282 0.61965 0.89579 0.0
C787 C 0.62467 0.62949 0.91163 0.0
C788 C 0.66593 0.63676 0.8955 0.0
C789 C 0.68374 0.67601 0.92216 0.0
C790 C 0.67242 0.6636 0.91258 0.0
C791 C 0.63864 0.62867 0.87992 0.0
C792 C 0.65044 0.64052 0.89171 0.0
H793 H 0.71451 0.6853 0.012 0.0
H794 H 0.69744 0.66373 0.9904 0.0
H795 H 0.68869 0.64501 0.90836 0.0
H796 H 0.6306 0.59871 0.78209 0.0
H797 H 0.65137 0.61623 0.80894 0.0
C798 C 0.62928 0.39479 0.18215 0.0
C799 C 0.61512 0.39302 0.15262 0.0
C800 C 0.64128 0.38482 0.16775 0.0
C801 C 0.66666 0.36522 0.10728 0.0
H802 H 0.65438 0.32274 0.09242 0.0
C803 C 0.70636 0.3156 0.02263 0.0
C804 C 0.70444 0.3014 0.05281 0.0
C805 C 0.69665 0.32788 0.03657 0.0
C806 C 0.65806 0.33452 0.09692 0.0
H807 H 0.60272 0.38017 0.08193 0.0
H808 H 0.62354 0.36309 0.0563 0.0
H809 H 0.6354 0.34223 0.1122 0.0
H810 H 0.6915 0.28921 0.12386 0.0
H811 H 0.67487 0.31052 0.14866 0.0
H812 H 0.68947 0.35726 0.09292 0.0
C813 C 0.62534 0.37181 0.09181 0.0
C814 C 0.64713 0.34575 0.10745 0.0
C815 C 0.6134 0.38165 0.1064 0.0
C816 C 0.69314 0.29992 0.09903 0.0
C817 C 0.68355 0.31214 0.11312 0.0
C818 C 0.67767 0.35391 0.09654 0.0
C819 C 0.6393 0.37299 0.12343 0.0
C820 C 0.65125 0.36124 0.11256 0.0
C821 C 0.68491 0.32614 0.081 0.0
C822 C 0.67347 0.33841 0.09158 0.0
H823 H 0.63092 0.4035 0.21783 0.0
H824 H 0.65189 0.386 0.19303 0.0
H825 H 0.67018 0.37707 0.11072 0.0
H826 H 0.71501 0.31707 0.98687 0.0
H827 H 0.69796 0.33851 0.01088 0.0
C828 C 0.02298 0.3791 0.36821 0.0
C829 C 0.02156 0.391 0.32412 0.0
C830 C 0.01074 0.36952 0.38141 0.0
C831 C 0.98793 0.34447 0.3622 0.0
H832 H 0.94607 0.3575 0.37917 0.0
C833 C 0.94026 0.30044 0.36338 0.0
C834 C 0.92913 0.30185 0.41035 0.0
C835 C 0.95023 0.31245 0.35094 0.0
C836 C 0.95772 0.35372 0.37484 0.0
H837 H 0.00601 0.40265 0.26121 0.0
H838 H 0.98454 0.38564 0.28354 0.0
H839 H 0.96611 0.37669 0.36469 0.0
H840 H 0.91921 0.3172 0.4792 0.0
H841 H 0.93691 0.33827 0.45804 0.0
H842 H 0.97978 0.32163 0.37321 0.0
C843 C 0.99513 0.38383 0.30828 0.0
C844 C 0.96917 0.36468 0.366 0.0
C845 C 0.00743 0.39352 0.29526 0.0
C846 C 0.92771 0.31581 0.44279 0.0
C847 C 0.93781 0.32787 0.43052 0.0
C848 C 0.97657 0.33359 0.37083 0.0
C849 C 0.99678 0.37151 0.35052 0.0
C850 C 0.98441 0.36015 0.35981 0.0
C851 C 0.94942 0.32615 0.38551 0.0
C852 C 0.96132 0.33804 0.37696 0.0
H853 H 0.03365 0.37702 0.39207 0.0
H854 H 0.01229 0.36037 0.4153 0.0
H855 H 0.99951 0.34054 0.35669 0.0
H856 H 0.9415 0.28991 0.33686 0.0
H857 H 0.95879 0.31088 0.31488 0.0
C858 C 0.93844 0.6993 0.61908 0.0
C859 C 0.92752 0.69916 0.57089 0.0
C860 C 0.94714 0.6863 0.63167 0.0
C861 C 0.96279 0.6526 0.55496 0.0
H862 H 0.97333 0.64081 0.72577 0.0
C863 C 0.00413 0.60712 0.69765 0.0
C864 C 0.01785 0.6102 0.66646 0.0
C865 C 0.99109 0.61564 0.68375 0.0
C866 C 0.97034 0.64379 0.67778 0.0
H867 H 0.91692 0.68522 0.49878 0.0
H868 H 0.93239 0.66244 0.52022 0.0
H869 H 0.95366 0.66005 0.70811 0.0
H870 H 0.02855 0.62415 0.59452 0.0
H871 H 0.00585 0.6389 0.57007 0.0
H872 H 0.97982 0.6367 0.52471 0.0
C873 C 0.93413 0.67265 0.54833 0.0
C874 C 0.95918 0.65489 0.6677 0.0
C875 C 0.92525 0.68564 0.53625 0.0
C876 C 0.01815 0.62155 0.61954 0.0
C877 C 0.00512 0.62992 0.60517 0.0
C878 C 0.97406 0.64159 0.56506 0.0
C879 C 0.94524 0.6729 0.59592 0.0
C880 C 0.95553 0.65967 0.60625 0.0
C881 C 0.9915 0.62725 0.6378 0.0
C882 C 0.97819 0.63732 0.62663 0.0
H883 H 0.94041 0.70953 0.64674 0.0
H884 H 0.95573 0.68693 0.6681 0.0
H885 H 0.96028 0.6561 0.5071 0.0
H886 H 0.00357 0.59843 0.73402 0.0
H887 H 0.98073 0.61327 0.7094 0.0
C888 C 0.43283 0.31248 0.00248 0.0
C889 C 0.42896 0.30303 0.05366 0.0
C890 C 0.44033 0.32641 0.01244 0.0
C891 C 0.45278 0.35389 0.13858 0.0
H892 H 0.48616 0.36107 0.02339 0.0
C893 C 0.50742 0.38753 0.20081 0.0
C894 C 0.51408 0.39661 0.15355 0.0
C895 C 0.49439 0.37891 0.18804 0.0
C896 C 0.47674 0.35941 0.05547 0.0
H897 H 0.42886 0.30146 0.15572 0.0
H898 H 0.44241 0.32525 0.17294 0.0
H899 H 0.46803 0.34088 0.00082 0.0
H900 H 0.51146 0.40476 0.05752 0.0
H901 H 0.4889 0.38954 0.03512 0.0
H902 H 0.46214 0.372 0.19485 0.0
C903 C 0.43956 0.32211 0.12502 0.0
C904 C 0.46626 0.34783 0.04242 0.0
C905 C 0.43194 0.3083 0.11509 0.0
C906 C 0.50682 0.39763 0.09459 0.0
C907 C 0.49389 0.38893 0.08172 0.0
C908 C 0.46339 0.36537 0.15201 0.0
C909 C 0.44424 0.33117 0.07378 0.0
C910 C 0.45427 0.34472 0.08428 0.0
C911 C 0.48779 0.37913 0.12769 0.0
C912 C 0.4756 0.3681 0.11101 0.0
H913 H 0.43076 0.30881 0.9545 0.0
H914 H 0.44345 0.33323 0.97183 0.0
H915 H 0.44354 0.35206 0.17138 0.0
H916 H 0.51276 0.38634 0.24651 0.0
H917 H 0.49001 0.37138 0.22431 0.0
C918 C 0.4341 0.69075 0.98088 0.0
C919 C 0.42875 0.70047 0.93294 0.0
C920 C 0.44167 0.67712 0.96566 0.0
C921 C 0.46554 0.66234 0.8394 0.0
H922 H 0.46308 0.62358 0.92773 0.0
C923 C 0.50733 0.61433 0.77908 0.0
C924 C 0.51377 0.60651 0.83049 0.0
C925 C 0.49439 0.62339 0.78709 0.0
C926 C 0.46399 0.63436 0.90283 0.0
H927 H 0.42588 0.70285 0.83192 0.0
H928 H 0.43907 0.67917 0.8055 0.0
H929 H 0.44494 0.64395 0.9522 0.0
H930 H 0.5107 0.60105 0.92951 0.0
H931 H 0.4887 0.61738 0.94415 0.0
H932 H 0.48493 0.65331 0.79228 0.0
C933 C 0.4377 0.68219 0.8547 0.0
C934 C 0.45356 0.646 0.91679 0.0
C935 C 0.43013 0.69574 0.86985 0.0
C936 C 0.5063 0.6072 0.88911 0.0
C937 C 0.4935 0.61643 0.89733 0.0
C938 C 0.47604 0.65084 0.826 0.0
C939 C 0.44401 0.673 0.90227 0.0
C940 C 0.45429 0.66015 0.88542 0.0
C941 C 0.48764 0.62505 0.84689 0.0
C942 C 0.47552 0.63671 0.85781 0.0
H943 H 0.43329 0.69413 0.02989 0.0
H944 H 0.44646 0.67029 0.00334 0.0
H945 H 0.46661 0.67322 0.81526 0.0
H946 H 0.51272 0.61416 0.73323 0.0
H947 H 0.48999 0.62952 0.74667 0.0
C948 C 0.2131 0.6925 0.65247 0.0
C949 C 0.21394 0.69863 0.59131 0.0
C950 C 0.20469 0.67927 0.66425 0.0
C951 C 0.18398 0.64677 0.59059 0.0
H952 H 0.15627 0.65307 0.73018 0.0
C953 C 0.12707 0.61457 0.61561 0.0
C954 C 0.12109 0.61191 0.67612 0.0
C955 C 0.14073 0.62248 0.60788 0.0
C956 C 0.1641 0.65087 0.6919 0.0
H957 H 0.20752 0.69512 0.49384 0.0
H958 H 0.19275 0.67195 0.51436 0.0
H959 H 0.17639 0.67141 0.71121 0.0
H960 H 0.12535 0.61474 0.77617 0.0
H961 H 0.14941 0.62803 0.76279 0.0
H962 H 0.17141 0.62633 0.57065 0.0
C963 C 0.19869 0.67733 0.55319 0.0
C964 C 0.17567 0.66145 0.68092 0.0
C965 C 0.20717 0.69059 0.54135 0.0
C966 C 0.1296 0.61652 0.72885 0.0
C967 C 0.14333 0.62434 0.72113 0.0
C968 C 0.17242 0.6361 0.60181 0.0
C969 C 0.19687 0.67187 0.61518 0.0
C970 C 0.18562 0.65967 0.62965 0.0
C971 C 0.14884 0.62784 0.66051 0.0
C972 C 0.16217 0.63815 0.65206 0.0
H973 H 0.21838 0.69837 0.69175 0.0
H974 H 0.20379 0.67517 0.71231 0.0
H975 H 0.19154 0.64501 0.55103 0.0
H976 H 0.12096 0.61094 0.57393 0.0
H977 H 0.14452 0.62501 0.56046 0.0
C978 C 0.20599 0.3111 0.45441 0.0
C979 C 0.21185 0.30228 0.40459 0.0
C980 C 0.19786 0.32456 0.44197 0.0
C981 C 0.17373 0.34008 0.31759 0.0
H982 H 0.17384 0.37731 0.41698 0.0
C983 C 0.13035 0.38729 0.26594 0.0
C984 C 0.12317 0.39386 0.31861 0.0
C985 C 0.14356 0.37859 0.27312 0.0
C986 C 0.17359 0.36695 0.38898 0.0
H987 H 0.21497 0.30135 0.30331 0.0
H988 H 0.20085 0.32478 0.28171 0.0
H989 H 0.19285 0.3575 0.43733 0.0
H990 H 0.1251 0.39744 0.41954 0.0
H991 H 0.14766 0.38177 0.4324 0.0
H992 H 0.15419 0.34898 0.27113 0.0
C993 C 0.20225 0.32116 0.33021 0.0
C994 C 0.18452 0.35563 0.40059 0.0
C995 C 0.21036 0.30777 0.3426 0.0
C996 C 0.13011 0.39228 0.37804 0.0
C997 C 0.14321 0.38344 0.38533 0.0
C998 C 0.16277 0.35127 0.30641 0.0
C999 C 0.19544 0.32941 0.37952 0.0
C1000 C 0.18464 0.34203 0.36523 0.0
C1001 C 0.14986 0.37608 0.33322 0.0
C1002 C 0.16244 0.36483 0.34221 0.0
H1003 H 0.20686 0.30711 0.50261 0.0
H1004 H 0.19269 0.33063 0.48097 0.0
H1005 H 0.1733 0.32959 0.29035 0.0
H1006 H 0.12536 0.38815 0.21944 0.0
H1007 H 0.14855 0.37343 0.23161 0.0
C1008 C 0.0648 0.0321 0.20958 0.0
C1009 C 0.06768 0.04729 0.19137 0.0
C1010 C 0.06404 0.02045 0.16422 0.0
C1011 C 0.05642 0.01307 -0.00247 0.0
H1012 H 0.08293 0.97796 0.01625 0.0
C1013 C 0.06619 0.97052 0.79285 0.0
C1014 C 0.06914 0.95512 0.80721 0.0
C1015 C 0.06526 0.98147 0.84089 0.0
C1016 C 0.0752 0.98749 0.01059 0.0
H1017 H 0.07147 0.0623 0.11153 0.0
H1018 H 0.06977 0.04206 0.03243 0.0
H1019 H 0.08198 0.9973 0.09892 0.0
H1020 H 0.07293 0.93899 0.88333 0.0
H1021 H 0.07065 0.95785 0.96706 0.0
H1022 H 0.0493 0.00324 0.91018 0.0
C1023 C 0.06829 0.03913 0.08167 0.0
C1024 C 0.07474 0.99861 0.05803 0.0
C1025 C 0.06936 0.05068 0.12697 0.0
C1026 C 0.07083 0.95082 0.87066 0.0
C1027 C 0.06962 0.9617 0.91875 0.0
C1028 C 0.05666 0.00182 0.95058 0.0
C1029 C 0.06579 0.02388 0.09985 0.0
C1030 C 0.06548 0.01159 0.0516 0.0
C1031 C 0.06696 0.97723 0.90464 0.0
C1032 C 0.0662 0.98894 0.95598 0.0
H1033 H 0.06351 0.02916 0.25889 0.0
H1034 H 0.06205 0.00878 0.17938 0.0
H1035 H 0.04908 0.02292 0.99172 0.0
H1036 H 0.06494 0.97418 0.74434 0.0
H1037 H 0.06349 0.99331 0.82773 0.0
C1038 C 0.35321 0.75219 0.06255 0.0
C1039 C 0.3683 0.75494 0.0807 0.0
C1040 C 0.34166 0.7516 0.10776 0.0
C1041 C 0.33401 0.74408 0.27419 0.0
H1042 H 0.2988 0.77007 0.25124 0.0
C1043 C 0.28955 0.75226 0.4721 0.0
C1044 C 0.27438 0.75482 0.45504 0.0
C1045 C 0.30093 0.75178 0.4261 0.0
C1046 C 0.30838 0.76249 0.25809 0.0
H1047 H 0.38316 0.75883 0.16064 0.0
H1048 H 0.36301 0.75741 0.2396 0.0
H1049 H 0.31858 0.76962 0.17113 0.0
H1050 H 0.25914 0.7584 0.37621 0.0
H1051 H 0.27876 0.75689 0.29595 0.0
H1052 H 0.32374 0.73656 0.36006 0.0
C1053 C 0.36013 0.75586 0.19037 0.0
C1054 C 0.31976 0.76232 0.21216 0.0
C1055 C 0.37164 0.75674 0.14512 0.0
C1056 C 0.27077 0.75658 0.39094 0.0
C1057 C 0.28208 0.75582 0.34488 0.0
C1058 C 0.3225 0.74403 0.31966 0.0
C1059 C 0.34501 0.75344 0.17209 0.0
C1060 C 0.33273 0.7532 0.21994 0.0
C1061 C 0.29738 0.75357 0.36173 0.0
C1062 C 0.30954 0.75332 0.31254 0.0
H1063 H 0.35028 0.75081 0.01329 0.0
H1064 H 0.33009 0.74964 0.09248 0.0
H1065 H 0.34385 0.73683 0.28105 0.0
H1066 H 0.2927 0.75098 0.52118 0.0
H1067 H 0.31256 0.75031 0.44136 0.0
C1068 C 0.57228 0.0307 0.28093 0.0
C1069 C 0.57017 0.04617 0.29664 0.0
C1070 C 0.57269 0.01948 0.32825 0.0
C1071 C 0.56223 0.01377 0.49781 0.0
H1072 H 0.5863 0.97686 0.48061 0.0
C1073 C 0.57186 0.97108 0.70281 0.0
C1074 C 0.56859 0.95571 0.68877 0.0
C1075 C 0.57262 0.98202 0.65464 0.0
C1076 C 0.57949 0.98711 0.48585 0.0
H1077 H 0.56775 0.06214 0.37377 0.0
H1078 H 0.5691 0.0429 0.4562 0.0
H1079 H 0.58692 0.99617 0.39736 0.0
H1080 H 0.56399 0.93967 0.61301 0.0
H1081 H 0.56567 0.95873 0.52893 0.0
H1082 H 0.55518 0.00481 0.5872 0.0
C1083 C 0.56974 0.03917 0.40763 0.0
C1084 C 0.57975 0.99816 0.43799 0.0
C1085 C 0.56905 0.05027 0.36039 0.0
C1086 C 0.56645 0.95144 0.62543 0.0
C1087 C 0.56749 0.96232 0.57722 0.0
C1088 C 0.56219 0.00286 0.54601 0.0
C1089 C 0.57127 0.02355 0.39237 0.0
C1090 C 0.57111 0.01167 0.44321 0.0
C1091 C 0.57043 0.97774 0.59139 0.0
C1092 C 0.57078 0.98941 0.54051 0.0
H1093 H 0.57312 0.02723 0.23203 0.0
H1094 H 0.57371 0.00761 0.31431 0.0
H1095 H 0.55508 0.02377 0.5032 0.0
H1096 H 0.57353 0.97472 0.75112 0.0
H1097 H 0.57498 0.99383 0.66679 0.0
C1098 C 0.37106 0.24542 0.85232 0.0
C1099 C 0.36776 0.24751 0.91663 0.0
C1100 C 0.35952 0.24616 0.80713 0.0
C1101 C 0.3191 0.23987 0.78604 0.0
H1102 H 0.323 0.26541 0.63746 0.0
C1103 C 0.26982 0.24568 0.60868 0.0
C1104 C 0.27332 0.24736 0.54445 0.0
C1105 C 0.28123 0.24644 0.65437 0.0
C1106 C 0.32178 0.258 0.67804 0.0
H1107 H 0.34979 0.25197 0.98393 0.0
H1108 H 0.32956 0.25288 0.90491 0.0
H1109 H 0.34323 0.26511 0.71589 0.0
H1110 H 0.29153 0.25108 0.47767 0.0
H1111 H 0.31154 0.25174 0.5568 0.0
H1112 H 0.29803 0.23221 0.74774 0.0
C1113 C 0.34111 0.25081 0.88964 0.0
C1114 C 0.33336 0.25793 0.72317 0.0
C1115 C 0.35269 0.25037 0.93475 0.0
C1116 C 0.28847 0.24987 0.52687 0.0
C1117 C 0.29994 0.25034 0.57248 0.0
C1118 C 0.30764 0.23971 0.74044 0.0
C1119 C 0.34442 0.24872 0.82541 0.0
C1120 C 0.33211 0.2489 0.77769 0.0
C1121 C 0.2965 0.2486 0.63699 0.0
C1122 C 0.30877 0.24881 0.68577 0.0
H1123 H 0.38257 0.24325 0.83684 0.0
H1124 H 0.36236 0.24442 0.75797 0.0
H1125 H 0.31794 0.23265 0.82729 0.0
H1126 H 0.25821 0.24389 0.6238 0.0
H1127 H 0.27799 0.24542 0.70341 0.0
C1128 C 0.78498 0.25267 0.93612 0.0
C1129 C 0.76983 0.2553 0.9186 0.0
C1130 C 0.79646 0.25239 0.89055 0.0
C1131 C 0.80386 0.24522 0.72394 0.0
H1132 H 0.83904 0.27126 0.74657 0.0
C1133 C 0.84842 0.25305 0.52615 0.0
C1134 C 0.86359 0.25559 0.54331 0.0
C1135 C 0.837 0.25273 0.572 0.0
C1136 C 0.82947 0.26367 0.7398 0.0
H1137 H 0.75478 0.25937 0.8394 0.0
H1138 H 0.77482 0.25849 0.75974 0.0
H1139 H 0.8193 0.27077 0.82686 0.0
H1140 H 0.87878 0.2593 0.62218 0.0
H1141 H 0.85909 0.25803 0.70224 0.0
H1142 H 0.81411 0.23769 0.63807 0.0
C1143 C 0.7778 0.2568 0.80879 0.0
C1144 C 0.81811 0.26349 0.78582 0.0
C1145 C 0.76636 0.25737 0.85444 0.0
C1146 C 0.86715 0.25749 0.60737 0.0
C1147 C 0.8558 0.25688 0.65331 0.0
C1148 C 0.81535 0.24517 0.6784 0.0
C1149 C 0.79298 0.25443 0.82645 0.0
C1150 C 0.80516 0.25433 0.77819 0.0
C1151 C 0.84051 0.25464 0.63635 0.0
C1152 C 0.82831 0.25447 0.68543 0.0
H1153 H 0.78801 0.25108 0.98517 0.0
H1154 H 0.80807 0.25047 0.90534 0.0
H1155 H 0.79404 0.23794 0.71722 0.0
H1156 H 0.84531 0.25167 0.47708 0.0
H1157 H 0.82538 0.25126 0.55664 0.0
C1158 C 0.78442 0.7503 0.05523 0.0
C1159 C 0.76936 0.74752 0.07369 0.0
C1160 C 0.79603 0.75089 0.10018 0.0
C1161 C 0.80379 0.75845 0.26645 0.0
H1162 H 0.83931 0.73296 0.24223 0.0
C1163 C 0.84879 0.75073 0.46264 0.0
C1164 C 0.86395 0.74834 0.44494 0.0
C1165 C 0.83731 0.75117 0.41709 0.0
C1166 C 0.82964 0.7404 0.24942 0.0
H1167 H 0.7546 0.74352 0.15389 0.0
H1168 H 0.77486 0.7449 0.23242 0.0
H1169 H 0.81937 0.73313 0.16285 0.0
H1170 H 0.87906 0.74508 0.36543 0.0
H1171 H 0.85925 0.74653 0.28596 0.0
H1172 H 0.81413 0.76611 0.35196 0.0
C1173 C 0.77767 0.74649 0.18314 0.0
C1174 C 0.81817 0.74041 0.20392 0.0
C1175 C 0.76611 0.74562 0.13813 0.0
C1176 C 0.86745 0.74677 0.38065 0.0
C1177 C 0.85603 0.74749 0.33504 0.0
C1178 C 0.81539 0.75867 0.3115 0.0
C1179 C 0.79276 0.749 0.16456 0.0
C1180 C 0.80509 0.74935 0.21215 0.0
C1181 C 0.84074 0.74949 0.35256 0.0
C1182 C 0.82847 0.74957 0.30387 0.0
H1183 H 0.78729 0.75177 0.00595 0.0
H1184 H 0.80756 0.75292 0.08467 0.0
H1185 H 0.79388 0.76557 0.27364 0.0
H1186 H 0.84574 0.75186 0.51189 0.0
H1187 H 0.8257 0.75247 0.43282 0.0
C1188 C 0.55365 0.53652 0.68581 0.0
C1189 C 0.56714 0.54425 0.70075 0.0
C1190 C 0.5532 0.52611 0.63559 0.0
C1191 C 0.57533 0.51428 0.49253 0.0
H1192 H 0.54848 0.47913 0.49695 0.0
C1193 C 0.58014 0.4616 0.32731 0.0
C1194 C 0.56692 0.45784 0.29367 0.0
C1195 C 0.57975 0.4726 0.37513 0.0
C1196 C 0.55595 0.48897 0.49506 0.0
H1197 H 0.59087 0.54677 0.67619 0.0
H1198 H 0.59036 0.52812 0.59136 0.0
H1199 H 0.54889 0.4969 0.58576 0.0
H1200 H 0.54288 0.46252 0.28427 0.0
H1201 H 0.54213 0.48149 0.36959 0.0
H1202 H 0.58285 0.50578 0.40291 0.0
C1203 C 0.5799 0.53046 0.61628 0.0
C1204 C 0.55615 0.49924 0.54577 0.0
C1205 C 0.58026 0.54107 0.66554 0.0
C1206 C 0.55327 0.46528 0.30902 0.0
C1207 C 0.55281 0.47604 0.35797 0.0
C1208 C 0.57534 0.50383 0.44258 0.0
C1209 C 0.56632 0.52296 0.59981 0.0
C1210 C 0.56589 0.51205 0.5454 0.0
C1211 C 0.56606 0.47981 0.3913 0.0
C1212 C 0.56566 0.4911 0.44341 0.0
H1213 H 0.54331 0.53886 0.71167 0.0
H1214 H 0.54245 0.52082 0.62406 0.0
H1215 H 0.58269 0.52416 0.48926 0.0
H1216 H 0.59083 0.45605 0.31659 0.0
H1217 H 0.5901 0.47527 0.4004 0.0
C1218 C 0.07732 0.5358 0.79848 0.0
C1219 C 0.06839 0.54893 0.80814 0.0
C1220 C 0.07856 0.52462 0.84552 0.0
C1221 C 0.07288 0.51826 0.01708 0.0
H1222 H 0.07083 0.47547 0.96911 0.0
C1223 C 0.06056 0.45561 0.13736 0.0
C1224 C 0.06975 0.45641 0.19149 0.0
C1225 C 0.06138 0.4669 0.0909 0.0
C1226 C 0.07136 0.48737 0.98336 0.0
H1227 H 0.05381 0.5606 0.87525 0.0
H1228 H 0.05584 0.54109 0.95657 0.0
H1229 H 0.07031 0.49518 0.88784 0.0
H1230 H 0.08701 0.46979 0.23905 0.0
H1231 H 0.08847 0.48955 0.15761 0.0
H1232 H 0.07349 0.51043 0.11274 0.0
C1233 C 0.06206 0.5395 0.91304 0.0
C1234 C 0.07124 0.49867 0.93667 0.0
C1235 C 0.06081 0.55065 0.86608 0.0
C1236 C 0.07975 0.46884 0.19807 0.0
C1237 C 0.08054 0.4802 0.1515 0.0
C1238 C 0.07302 0.50694 0.0638 0.0
C1239 C 0.07091 0.52632 0.90335 0.0
C1240 C 0.07184 0.51427 0.95294 0.0
C1241 C 0.07139 0.47933 0.09723 0.0
C1242 C 0.07209 0.49136 0.04754 0.0
H1243 H 0.08335 0.53412 0.75453 0.0
H1244 H 0.08561 0.51468 0.83675 0.0
H1245 H 0.07355 0.53015 0.03126 0.0
H1246 H 0.05268 0.44625 0.13066 0.0
H1247 H 0.05399 0.46599 0.0503 0.0
C1248 C 0.08871 0.11791 0.99192 0.0
C1249 C 0.08427 0.10553 0.02985 0.0
C1250 C 0.09252 0.11552 0.92867 0.0
C1251 C 0.10395 0.08476 0.81855 0.0
H1252 H 0.08718 0.11134 0.68995 0.0
C1253 C 0.0947 0.06665 0.56071 0.0
C1254 C 0.09641 0.07782 0.51386 0.0
C1255 C 0.09654 0.07056 0.6241 0.0
C1256 C 0.09221 0.10397 0.72532 0.0
H1257 H 0.07956 0.08117 0.03097 0.0
H1258 H 0.08601 0.07701 0.92121 0.0
H1259 H 0.08369 0.11779 0.80064 0.0
H1260 H 0.10282 0.10136 0.49521 0.0
H1261 H 0.10606 0.10819 0.60574 0.0
H1262 H 0.11201 0.07067 0.74307 0.0
C1263 C 0.08706 0.08846 0.9404 0.0
C1264 C 0.0902 0.10768 0.78867 0.0
C1265 C 0.0833 0.09085 0.00321 0.0
C1266 C 0.10101 0.09266 0.53079 0.0
C1267 C 0.1029 0.09655 0.59389 0.0
C1268 C 0.10593 0.08104 0.75518 0.0
C1269 C 0.09189 0.10071 0.90266 0.0
C1270 C 0.09573 0.09791 0.83586 0.0
C1271 C 0.1002 0.08568 0.64124 0.0
C1272 C 0.09979 0.09044 0.70803 0.0
H1273 H 0.08963 0.12931 0.01159 0.0
H1274 H 0.0962 0.12516 0.90049 0.0
H1275 H 0.10858 0.07718 0.85408 0.0
H1276 H 0.09117 0.05515 0.54847 0.0
H1277 H 0.0943 0.06196 0.65971 0.0
C1278 C 0.21081 0.75522 0.26026 0.0
C1279 C 0.21485 0.76705 0.30173 0.0
C1280 C 0.21474 0.75608 0.19658 0.0
C1281 C 0.24252 0.77484 0.09209 0.0
H1282 H 0.21647 0.75935 0.95947 0.0
C1283 C 0.25404 0.78242 0.82438 0.0
C1284 C 0.25061 0.76982 0.78579 0.0
C1285 C 0.25067 0.782 0.88877 0.0
C1286 C 0.22392 0.76357 0.99615 0.0
H1287 H 0.22522 0.78946 0.30881 0.0
H1288 H 0.23182 0.79115 0.19742 0.0
H1289 H 0.2074 0.75948 0.06794 0.0
H1290 H 0.24221 0.7465 0.78484 0.0
H1291 H 0.23633 0.74576 0.89705 0.0
H1292 H 0.25899 0.77905 0.01981 0.0
C1293 C 0.22603 0.78101 0.21426 0.0
C1294 C 0.21873 0.76366 0.05821 0.0
C1295 C 0.22219 0.78009 0.27787 0.0
C1296 C 0.24467 0.75648 0.81335 0.0
C1297 C 0.24128 0.75607 0.87742 0.0
C1298 C 0.24769 0.77483 0.02987 0.0
C1299 C 0.22268 0.76885 0.17321 0.0
C1300 C 0.22799 0.76923 0.10693 0.0
C1301 C 0.24382 0.76898 0.91536 0.0
C1302 C 0.23847 0.7691 0.98142 0.0
H1303 H 0.20532 0.74497 0.27762 0.0
H1304 H 0.21211 0.74646 0.1663 0.0
H1305 H 0.25004 0.77897 0.12871 0.0
H1306 H 0.25853 0.79287 0.80429 0.0
H1307 H 0.25272 0.79212 0.91703 0.0
C1308 C 0.56652 0.9255 0.05365 0.0
C1309 C 0.55386 0.93262 0.0261 0.0
C1310 C 0.56661 0.92196 0.11766 0.0
C1311 C 0.54845 0.92988 0.27006 0.0
H1312 H 0.56082 0.88828 0.30884 0.0
C1313 C 0.54134 0.90471 0.51842 0.0
C1314 C 0.55372 0.89645 0.54253 0.0
C1315 C 0.54074 0.90862 0.45475 0.0
C1316 C 0.55748 0.89996 0.29891 0.0
H1317 H 0.5317 0.94237 0.04467 0.0
H1318 H 0.53189 0.93628 0.15718 0.0
H1319 H 0.56164 0.89731 0.20024 0.0
H1320 H 0.57493 0.88538 0.51868 0.0
H1321 H 0.57398 0.89225 0.40732 0.0
H1322 H 0.54446 0.93261 0.36884 0.0
C1323 C 0.54174 0.93345 0.12898 0.0
C1324 C 0.55796 0.90514 0.23676 0.0
C1325 C 0.54165 0.93698 0.06468 0.0
C1326 C 0.56517 0.89158 0.50121 0.0
C1327 C 0.56463 0.89556 0.43747 0.0
C1328 C 0.54805 0.92472 0.33235 0.0
C1329 C 0.55405 0.9255 0.15559 0.0
C1330 C 0.55351 0.92016 0.22175 0.0
C1331 C 0.55255 0.9044 0.41385 0.0
C1332 C 0.55258 0.90971 0.34746 0.0
H1333 H 0.57622 0.9223 0.02521 0.0
H1334 H 0.57639 0.91615 0.13726 0.0
H1335 H 0.54508 0.94155 0.25984 0.0
H1336 H 0.53225 0.90841 0.54919 0.0
H1337 H 0.53112 0.91513 0.43773 0.0
C1338 C 0.38761 0.21988 0.28486 0.0
C1339 C 0.39176 0.23228 0.24644 0.0
C1340 C 0.3907 0.22017 0.34944 0.0
C1341 C 0.40162 0.24589 0.48091 0.0
H1342 H 0.42008 0.20919 0.5497 0.0
C1343 C 0.43177 0.24598 0.72089 0.0
C1344 C 0.42738 0.23424 0.76219 0.0
C1345 C 0.42776 0.24532 0.65727 0.0
C1346 C 0.41486 0.21948 0.53119 0.0
H1347 H 0.40139 0.25511 0.24588 0.0
H1348 H 0.40704 0.25555 0.35801 0.0
H1349 H 0.41072 0.20913 0.44148 0.0
H1350 H 0.41627 0.21218 0.76903 0.0
H1351 H 0.40927 0.21099 0.65789 0.0
H1352 H 0.40596 0.25628 0.57043 0.0
C1353 C 0.40137 0.2456 0.33865 0.0
C1354 C 0.4094 0.21943 0.46943 0.0
C1355 C 0.39828 0.2453 0.2743 0.0
C1356 C 0.41965 0.22145 0.73816 0.0
C1357 C 0.41573 0.22073 0.67459 0.0
C1358 C 0.40714 0.24596 0.54251 0.0
C1359 C 0.39795 0.2329 0.37668 0.0
C1360 C 0.40279 0.23266 0.44354 0.0
C1361 C 0.41942 0.23284 0.63389 0.0
C1362 C 0.41388 0.23278 0.56812 0.0
H1363 H 0.38263 0.20967 0.26463 0.0
H1364 H 0.38772 0.21031 0.37781 0.0
H1365 H 0.3964 0.2562 0.46258 0.0
H1366 H 0.43764 0.25601 0.73831 0.0
H1367 H 0.43091 0.25472 0.62661 0.0
C1368 C 0.07093 0.92496 0.44356 0.0
C1369 C 0.08376 0.93176 0.47112 0.0
C1370 C 0.07076 0.92145 0.37953 0.0
C1371 C 0.08905 0.92898 0.22716 0.0
H1372 H 0.07595 0.8876 0.18862 0.0
C1373 C 0.09566 0.90364 0.97893 0.0
C1374 C 0.08312 0.89563 0.95492 0.0
C1375 C 0.09635 0.90754 0.04259 0.0
C1376 C 0.0795 0.89922 0.19849 0.0
H1377 H 0.10613 0.94101 0.45258 0.0
H1378 H 0.10578 0.935 0.34002 0.0
H1379 H 0.0753 0.89667 0.29718 0.0
H1380 H 0.06171 0.88495 0.97888 0.0
H1381 H 0.06283 0.8918 0.09023 0.0
H1382 H 0.09308 0.93161 0.12836 0.0
C1383 C 0.09587 0.93238 0.36823 0.0
C1384 C 0.07911 0.90443 0.26061 0.0
C1385 C 0.09606 0.93587 0.43255 0.0
C1386 C 0.07159 0.89097 0.99631 0.0
C1387 C 0.07223 0.89494 0.06002 0.0
C1388 C 0.08936 0.9238 0.1649 0.0
C1389 C 0.08339 0.92473 0.34162 0.0
C1390 C 0.08382 0.91937 0.27551 0.0
C1391 C 0.08447 0.90355 0.08355 0.0
C1392 C 0.08456 0.90887 0.14989 0.0
H1393 H 0.06118 0.92197 0.47201 0.0
H1394 H 0.06085 0.91588 0.35991 0.0
H1395 H 0.09263 0.94058 0.23733 0.0
H1396 H 0.1048 0.90716 0.94809 0.0
H1397 H 0.1061 0.91386 0.05954 0.0
C1398 C 0.39805 0.75805 0.72454 0.0
C1399 C 0.39185 0.77121 0.75246 0.0
C1400 C 0.40101 0.75763 0.66008 0.0
C1401 C 0.40944 0.78356 0.52902 0.0
H1402 H 0.40525 0.74672 0.4284 0.0
C1403 C 0.41998 0.78122 0.26055 0.0
C1404 C 0.42746 0.76825 0.23671 0.0
C1405 C 0.41595 0.78202 0.32399 0.0
C1406 C 0.40664 0.75703 0.4562 0.0
H1407 H 0.38311 0.79398 0.73437 0.0
H1408 H 0.38798 0.79317 0.62096 0.0
H1409 H 0.39567 0.74708 0.53624 0.0
H1410 H 0.43713 0.74622 0.26079 0.0
H1411 H 0.43021 0.74765 0.37231 0.0
H1412 H 0.42037 0.7935 0.44872 0.0
C1413 C 0.39082 0.78327 0.64934 0.0
C1414 C 0.40111 0.75726 0.5178 0.0
C1415 C 0.38785 0.78367 0.71405 0.0
C1416 C 0.43146 0.75638 0.27808 0.0
C1417 C 0.42734 0.75712 0.34159 0.0
C1418 C 0.41491 0.78335 0.46729 0.0
C1419 C 0.39777 0.77038 0.62201 0.0
C1420 C 0.40256 0.77049 0.55506 0.0
C1421 C 0.41927 0.76982 0.36478 0.0
C1422 C 0.41367 0.77004 0.43049 0.0
H1423 H 0.40104 0.74821 0.75299 0.0
H1424 H 0.40645 0.74756 0.64066 0.0
H1425 H 0.41098 0.79383 0.55688 0.0
H1426 H 0.41689 0.79058 0.22963 0.0
H1427 H 0.4097 0.79192 0.34052 0.0
C1428 C 0.5569 0.08938 0.48046 0.0
C1429 C 0.55493 0.10394 0.45373 0.0
C1430 C 0.55333 0.08675 0.54328 0.0
C1431 C 0.54805 0.10553 0.69543 0.0
H1432 H 0.52835 0.06711 0.73766 0.0
C1433 C 0.53553 0.08978 0.95154 0.0
C1434 C 0.54093 0.07529 0.96957 0.0
C1435 C 0.5341 0.09354 0.88806 0.0
C1436 C 0.53385 0.07787 0.72652 0.0
H1437 H 0.54812 0.12733 0.47193 0.0
H1438 H 0.54178 0.12276 0.58312 0.0
H1439 H 0.53232 0.0739 0.62731 0.0
H1440 H 0.54803 0.05302 0.93618 0.0
H1441 H 0.54563 0.05959 0.82443 0.0
H1442 H 0.54989 0.10934 0.79461 0.0
C1443 C 0.54613 0.11338 0.55501 0.0
C1444 C 0.53615 0.08176 0.6635 0.0
C1445 C 0.54978 0.11603 0.49171 0.0
C1446 C 0.54384 0.06424 0.92319 0.0
C1447 C 0.54245 0.06802 0.85945 0.0
C1448 C 0.54571 0.10166 0.75847 0.0
C1449 C 0.54764 0.09862 0.58098 0.0
C1450 C 0.54361 0.09545 0.64739 0.0
C1451 C 0.53803 0.08288 0.8414 0.0
C1452 C 0.53887 0.08765 0.77462 0.0
H1453 H 0.5612 0.07998 0.45258 0.0
H1454 H 0.55508 0.07538 0.56238 0.0
H1455 H 0.55395 0.11608 0.68445 0.0
H1456 H 0.53282 0.09835 0.98662 0.0
H1457 H 0.53034 0.10495 0.87547 0.0
C1458 C 0.22163 0.22113 0.72256 0.0
C1459 C 0.21396 0.23396 0.69859 0.0
C1460 C 0.22551 0.22035 0.78616 0.0
C1461 C 0.21778 0.2376 0.94204 0.0
H1462 H 0.2584 0.2232 0.98049 0.0
C1463 C 0.24347 0.24527 0.18712 0.0
C1464 C 0.24972 0.23206 0.21453 0.0
C1465 C 0.24009 0.24565 0.12304 0.0
C1466 C 0.24701 0.22715 0.97041 0.0
H1467 H 0.20388 0.25581 0.72247 0.0
H1468 H 0.21072 0.25457 0.83379 0.0
H1469 H 0.24946 0.22306 0.87158 0.0
H1470 H 0.2582 0.20922 0.19573 0.0
H1471 H 0.25241 0.20992 0.08301 0.0
H1472 H 0.2154 0.24185 0.04078 0.0
C1473 C 0.21359 0.245 0.8036 0.0
C1474 C 0.24185 0.22701 0.90819 0.0
C1475 C 0.20963 0.24572 0.73993 0.0
C1476 C 0.25347 0.21958 0.17578 0.0
C1477 C 0.25011 0.21997 0.11139 0.0
C1478 C 0.22297 0.23782 0.00411 0.0
C1479 C 0.22186 0.23245 0.82708 0.0
C1480 C 0.22718 0.23225 0.89335 0.0
C1481 C 0.24296 0.23284 0.08494 0.0
C1482 C 0.23764 0.23264 0.01885 0.0
H1483 H 0.22489 0.21182 0.69171 0.0
H1484 H 0.23155 0.21037 0.8031 0.0
H1485 H 0.20635 0.24149 0.9323 0.0
H1486 H 0.24077 0.25517 0.21575 0.0
H1487 H 0.23491 0.25586 0.10352 0.0
C1488 C 0.88347 0.2831 0.17399 0.0
C1489 C 0.88734 0.27055 0.21213 0.0
C1490 C 0.88644 0.28276 0.10927 0.0
C1491 C 0.89641 0.25678 0.9772 0.0
H1492 H 0.91602 0.29286 0.90842 0.0
C1493 C 0.92685 0.25559 0.73788 0.0
C1494 C 0.923 0.26748 0.69637 0.0
C1495 C 0.92271 0.25641 0.80134 0.0
C1496 C 0.91046 0.28275 0.92691 0.0
H1497 H 0.8963 0.24746 0.21212 0.0
H1498 H 0.90171 0.24691 0.09979 0.0
H1499 H 0.90664 0.29323 0.01663 0.0
H1500 H 0.9127 0.28993 0.68907 0.0
H1501 H 0.90546 0.2914 0.7999 0.0
H1502 H 0.90044 0.24625 0.88771 0.0
C1503 C 0.89637 0.25701 0.11943 0.0
C1504 C 0.905 0.28299 0.98867 0.0
C1505 C 0.89342 0.25737 0.1839 0.0
C1506 C 0.91566 0.28055 0.72008 0.0
C1507 C 0.91161 0.28142 0.78349 0.0
C1508 C 0.90193 0.25653 0.9156 0.0
C1509 C 0.89325 0.26984 0.08163 0.0
C1510 C 0.898 0.26996 0.01461 0.0
C1511 C 0.91476 0.26919 0.82438 0.0
C1512 C 0.9091 0.26948 0.89001 0.0
H1513 H 0.87883 0.29344 0.19453 0.0
H1514 H 0.88371 0.29273 0.08111 0.0
H1515 H 0.89088 0.24664 0.99554 0.0
H1516 H 0.9324 0.24535 0.72073 0.0
H1517 H 0.92545 0.24691 0.83214 0.0
C1518 C 0.74881 0.71914 0.70779 0.0
C1519 C 0.7453 0.73177 0.74607 0.0
C1520 C 0.74591 0.71964 0.64305 0.0
C1521 C 0.73675 0.74602 0.5113 0.0
H1522 H 0.71595 0.71064 0.4424 0.0
C1523 C 0.70633 0.74825 0.27199 0.0
C1524 C 0.70983 0.73625 0.2305 0.0
C1525 C 0.71044 0.7473 0.33545 0.0
C1526 C 0.72184 0.72055 0.46092 0.0
H1527 H 0.73707 0.75514 0.74637 0.0
H1528 H 0.73177 0.75597 0.63399 0.0
H1529 H 0.72535 0.70991 0.55052 0.0
H1530 H 0.71945 0.71349 0.22317 0.0
H1531 H 0.72662 0.7118 0.33401 0.0
H1532 H 0.73303 0.75673 0.42192 0.0
C1533 C 0.73678 0.74569 0.65352 0.0
C1534 C 0.72732 0.72011 0.52262 0.0
C1535 C 0.73967 0.74517 0.718 0.0
C1536 C 0.71676 0.72296 0.25419 0.0
C1537 C 0.72078 0.72196 0.3176 0.0
C1538 C 0.73122 0.74649 0.44974 0.0
C1539 C 0.73951 0.73281 0.61557 0.0
C1540 C 0.73475 0.73287 0.54859 0.0
C1541 C 0.71799 0.73427 0.35849 0.0
C1542 C 0.72363 0.73379 0.42411 0.0
H1543 H 0.75311 0.70865 0.72825 0.0
H1544 H 0.74834 0.70962 0.61476 0.0
H1545 H 0.74261 0.75596 0.52969 0.0
H1546 H 0.70109 0.75866 0.25481 0.0
H1547 H 0.70799 0.75688 0.36626 0.0
C1548 C 0.71727 0.28002 0.74154 0.0
C1549 C 0.70988 0.26703 0.76551 0.0
C1550 C 0.72106 0.28092 0.67786 0.0
C1551 C 0.71355 0.2636 0.52194 0.0
H1552 H 0.75395 0.27858 0.48336 0.0
C1553 C 0.73946 0.25615 0.27705 0.0
C1554 C 0.74555 0.26942 0.24956 0.0
C1555 C 0.73602 0.25577 0.34108 0.0
C1556 C 0.74261 0.27448 0.49347 0.0
H1557 H 0.70017 0.24501 0.74153 0.0
H1558 H 0.70686 0.24647 0.63011 0.0
H1559 H 0.74502 0.27863 0.59227 0.0
H1560 H 0.75367 0.2924 0.26818 0.0
H1561 H 0.74778 0.29171 0.38078 0.0
H1562 H 0.71124 0.25929 0.42322 0.0
C1563 C 0.70958 0.25607 0.66036 0.0
C1564 C 0.73746 0.27456 0.55569 0.0
C1565 C 0.70571 0.25523 0.7241 0.0
C1566 C 0.74906 0.28199 0.28818 0.0
C1567 C 0.74565 0.28161 0.35251 0.0
C1568 C 0.71874 0.26344 0.45986 0.0
C1569 C 0.71759 0.26878 0.63688 0.0
C1570 C 0.72287 0.2691 0.57058 0.0
C1571 C 0.73867 0.26866 0.37903 0.0
C1572 C 0.73333 0.26882 0.44509 0.0
H1573 H 0.7204 0.28937 0.77243 0.0
H1574 H 0.72691 0.29102 0.66092 0.0
H1575 H 0.70218 0.25954 0.53173 0.0
H1576 H 0.73694 0.24618 0.24853 0.0
H1577 H 0.73097 0.24551 0.36067 0.0
C1578 C 0.92732 0.74719 0.24827 0.0
C1579 C 0.92318 0.73533 0.28942 0.0
C1580 C 0.92331 0.74651 0.18466 0.0
C1581 C 0.8952 0.72827 0.08005 0.0
H1582 H 0.92143 0.74343 0.94735 0.0
C1583 C 0.88382 0.72039 0.8126 0.0
C1584 C 0.88743 0.73285 0.77355 0.0
C1585 C 0.8871 0.72094 0.87704 0.0
C1586 C 0.91392 0.73932 0.98406 0.0
H1587 H 0.91251 0.71305 0.296 0.0
H1588 H 0.90576 0.71167 0.1847 0.0
H1589 H 0.9305 0.74322 0.05581 0.0
H1590 H 0.89604 0.75609 0.77181 0.0
H1591 H 0.90175 0.75706 0.88414 0.0
H1592 H 0.8787 0.72421 0.00781 0.0
C1593 C 0.9117 0.72171 0.20175 0.0
C1594 C 0.91912 0.73918 0.04612 0.0
C1595 C 0.91563 0.72245 0.2653 0.0
C1596 C 0.89345 0.74621 0.80069 0.0
C1597 C 0.89674 0.74675 0.86483 0.0
C1598 C 0.89003 0.72832 0.01785 0.0
C1599 C 0.91517 0.7339 0.16104 0.0
C1600 C 0.90981 0.7337 0.09484 0.0
C1601 C 0.89403 0.73396 0.90324 0.0
C1602 C 0.89932 0.73393 0.96936 0.0
H1603 H 0.93297 0.75733 0.26587 0.0
H1604 H 0.92603 0.75615 0.15462 0.0
H1605 H 0.88765 0.72422 0.1167 0.0
H1606 H 0.87927 0.70993 0.79284 0.0
H1607 H 0.88492 0.7109 0.90566 0.0
C1608 C 0.58364 0.58559 0.52974 0.0
C1609 C 0.58539 0.6003 0.55537 0.0
C1610 C 0.58718 0.58278 0.46701 0.0
C1611 C 0.59134 0.60164 0.3143 0.0
H1612 H 0.60943 0.56268 0.26815 0.0
C1613 C 0.60042 0.58552 0.0564 0.0
C1614 C 0.59381 0.57146 0.03961 0.0
C1615 C 0.60288 0.58914 0.11944 0.0
C1616 C 0.60442 0.5736 0.28047 0.0
H1617 H 0.59201 0.62367 0.53577 0.0
H1618 H 0.59836 0.61877 0.42496 0.0
H1619 H 0.60702 0.56958 0.37924 0.0
H1620 H 0.58561 0.54973 0.07468 0.0
H1621 H 0.58987 0.55605 0.18572 0.0
H1622 H 0.58848 0.60553 0.21561 0.0
C1623 C 0.59415 0.60943 0.45366 0.0
C1624 C 0.603 0.57755 0.34388 0.0
C1625 C 0.5905 0.61227 0.51676 0.0
C1626 C 0.59069 0.56063 0.08664 0.0
C1627 C 0.59317 0.56425 0.14994 0.0
C1628 C 0.59286 0.59774 0.25092 0.0
C1629 C 0.59263 0.59461 0.4284 0.0
C1630 C 0.59605 0.59142 0.36143 0.0
C1631 C 0.59883 0.57874 0.16685 0.0
C1632 C 0.59908 0.58353 0.23353 0.0
H1633 H 0.57939 0.57623 0.55819 0.0
H1634 H 0.58543 0.57135 0.44855 0.0
H1635 H 0.5858 0.61232 0.32631 0.0
H1636 H 0.60337 0.5939 0.02083 0.0
H1637 H 0.60754 0.60026 0.13124 0.0
C1638 C 0.04795 0.38682 -0.00024 0.0
C1639 C 0.05249 0.39907 0.0381 0.0
C1640 C 0.04411 0.3894 0.93667 0.0
C1641 C 0.03344 0.42061 0.82665 0.0
H1642 H 0.04949 0.39347 0.69846 0.0
C1643 C 0.0444 0.43818 0.56919 0.0
C1644 C 0.04207 0.42714 0.52225 0.0
C1645 C 0.04218 0.43442 0.63252 0.0
C1646 C 0.04467 0.40101 0.73374 0.0
H1647 H 0.05729 0.42342 0.04038 0.0
H1648 H 0.05089 0.42788 0.93076 0.0
H1649 H 0.05263 0.38693 0.80919 0.0
H1650 H 0.03411 0.40407 0.50358 0.0
H1651 H 0.03034 0.39748 0.61403 0.0
H1652 H 0.02606 0.43502 0.7509 0.0
C1653 C 0.04974 0.41639 0.94946 0.0
C1654 C 0.04647 0.39725 0.79714 0.0
C1655 C 0.05349 0.41383 0.01217 0.0
C1656 C 0.03645 0.41265 0.53912 0.0
C1657 C 0.03423 0.40889 0.60218 0.0
C1658 C 0.03173 0.42442 0.76322 0.0
C1659 C 0.04486 0.40426 0.91115 0.0
C1660 C 0.0412 0.4072 0.84422 0.0
C1661 C 0.03753 0.41958 0.64954 0.0
C1662 C 0.03761 0.4148 0.71628 0.0
H1663 H 0.04701 0.37538 0.01897 0.0
H1664 H 0.04036 0.37983 0.90818 0.0
H1665 H 0.02899 0.42835 0.86202 0.0
H1666 H 0.04871 0.44942 0.55714 0.0
H1667 H 0.04489 0.44286 0.66822 0.0
C1668 C 0.58172 0.41622 0.46754 0.0
C1669 C 0.58397 0.40162 0.44157 0.0
C1670 C 0.58527 0.41909 0.53022 0.0
C1671 C 0.59089 0.40044 0.68272 0.0
H1672 H 0.60843 0.43983 0.72627 0.0
C1673 C 0.60169 0.41682 0.9393 0.0
C1674 C 0.59489 0.43074 0.95695 0.0
C1675 C 0.60373 0.41324 0.87595 0.0
C1676 C 0.60357 0.42879 0.71469 0.0
H1677 H 0.59137 0.37846 0.46061 0.0
H1678 H 0.59772 0.38347 0.57134 0.0
H1679 H 0.60527 0.43286 0.61562 0.0
H1680 H 0.58596 0.45228 0.92286 0.0
H1681 H 0.58953 0.44604 0.81142 0.0
H1682 H 0.58896 0.39649 0.78179 0.0
C1683 C 0.59313 0.39267 0.54295 0.0
C1684 C 0.60171 0.4248 0.65153 0.0
C1685 C 0.58947 0.38978 0.4799 0.0
C1686 C 0.59122 0.4415 0.91032 0.0
C1687 C 0.59328 0.43792 0.84673 0.0
C1688 C 0.59285 0.40439 0.74587 0.0
C1689 C 0.59123 0.40743 0.5684 0.0
C1690 C 0.59498 0.41076 0.63496 0.0
C1691 C 0.59909 0.42354 0.82908 0.0
C1692 C 0.59888 0.41873 0.76238 0.0
H1693 H 0.57717 0.42546 0.43922 0.0
H1694 H 0.58321 0.43045 0.54888 0.0
H1695 H 0.58554 0.38962 0.67147 0.0
H1696 H 0.60504 0.40851 0.97448 0.0
H1697 H 0.60852 0.40222 0.86354 0.0
C1698 C 0.04102 0.56693 0.43377 0.0
C1699 C 0.05298 0.57211 0.47194 0.0
C1700 C 0.04073 0.57051 0.36954 0.0
C1701 C 0.05473 0.59997 0.2618 0.0
H1702 H 0.04329 0.57164 0.12947 0.0
C1703 C 0.06183 0.61368 -0.00226 0.0
C1704 C 0.05086 0.60804 0.95584 0.0
C1705 C 0.06126 0.60981 0.06155 0.0
C1706 C 0.04628 0.57975 0.16604 0.0
H1707 H 0.07457 0.58396 0.47222 0.0
H1708 H 0.07408 0.5902 0.36028 0.0
H1709 H 0.04446 0.56274 0.23845 0.0
H1710 H 0.03014 0.59484 0.94821 0.0
H1711 H 0.02898 0.58826 0.05982 0.0
H1712 H 0.05648 0.61701 0.18979 0.0
C1713 C 0.06477 0.58371 0.38015 0.0
C1714 C 0.047 0.57462 0.22831 0.0
C1715 C 0.06506 0.58011 0.44407 0.0
C1716 C 0.03888 0.59913 0.97943 0.0
C1717 C 0.03825 0.59531 0.04318 0.0
C1718 C 0.05394 0.60511 0.19967 0.0
C1719 C 0.0524 0.57932 0.34266 0.0
C1720 C 0.05137 0.58466 0.27665 0.0
C1721 C 0.04964 0.6003 0.08465 0.0
C1722 C 0.0498 0.59504 0.15105 0.0
H1723 H 0.03151 0.56083 0.45408 0.0
H1724 H 0.03104 0.56701 0.34164 0.0
H1725 H 0.05784 0.60803 0.29839 0.0
H1726 H 0.07129 0.62041 0.9807 0.0
H1727 H 0.07029 0.61372 0.09218 0.0
loop_
_geom_bond_atom_site_label_1
_geom_bond_atom_site_label_2
_geom_bond_distance
_geom_bond_site_symmetry_2
_ccdc_geom_bond_type
Co0 N4 2.148 . S
Co0 N10 2.128 . S
Co0 N20 2.194 . S
Co0 O25 2.351 . S
Co0 O26 2.155 . S
Co0 O27 2.096 . S
C1 N4 1.301 . S
C1 N5 1.328 . S
C1 H6 0.930 . S
C2 C3 1.333 . S
C2 N4 1.317 . S
C2 H7 0.930 . S
C3 C2 1.333 . S
C3 N5 1.350 . S
C3 H29 0.931 . S
N4 Co0 2.148 . S
N4 C1 1.301 . S
N4 C2 1.317 . S
N5 C1 1.328 . S
N5 C3 1.350 . S
H6 C1 0.930 . S
H7 C2 0.930 . S
C8 O9 1.224 . S
C8 O27 1.247 . S
O9 C8 1.224 . S
N10 Co0 2.128 . S
N10 C11 1.355 . S
N10 C13 1.311 . S
C11 N10 1.355 . S
C11 C12 1.363 . S
C11 H23 0.929 . S
C12 C11 1.363 . S
C12 N14 1.375 . S
C12 H30 0.931 . S
C13 N10 1.311 . S
C13 N14 1.347 . S
C13 H24 0.929 . S
N14 C12 1.375 . S
N14 C13 1.347 . S
C15 C18 1.365 . S
C15 N20 1.328 . S
C15 H21 0.929 . S
C16 C17 1.362 . S
C16 C19 1.378 . S
C16 H31 0.929 . S
C17 C16 1.362 . S
C17 C18 1.366 . S
C18 C15 1.365 . S
C18 C17 1.366 . S
C18 H32 0.930 . S
C19 C16 1.378 . S
C19 N20 1.315 . S
C19 H22 0.930 . S
N20 Co0 2.194 . S
N20 C15 1.328 . S
N20 C19 1.315 . S
H21 C15 0.929 . S
H22 C19 0.930 . S
H23 C11 0.929 . S
H24 C13 0.929 . S
O25 Co0 2.351 . S
O25 C28 1.244 . S
O26 Co0 2.155 . S
O26 C28 1.240 . S
O27 Co0 2.096 . S
O27 C8 1.247 . S
C28 O25 1.244 . S
C28 O26 1.240 . S
H29 C3 0.931 . S
H30 C12 0.931 . S
H31 C16 0.929 . S
H32 C18 0.930 . S
Co33 N37 2.148 . S
Co33 N43 2.128 . S
Co33 N53 2.194 . S
Co33 O58 2.351 . S
Co33 O59 2.155 . S
Co33 O60 2.096 . S
C34 N37 1.301 . S
C34 N38 1.328 . S
C34 H39 0.930 . S
C35 C36 1.333 . S
C35 N37 1.317 . S
C35 H40 0.930 . S
C36 C35 1.333 . S
C36 N38 1.350 . S
C36 H62 0.931 . S
N37 Co33 2.148 . S
N37 C34 1.301 . S
N37 C35 1.317 . S
N38 C34 1.328 . S
N38 C36 1.350 . S
H39 C34 0.930 . S
H40 C35 0.930 . S
C41 O42 1.224 . S
C41 O60 1.247 . S
O42 C41 1.224 . S
N43 Co33 2.128 . S
N43 C44 1.355 . S
N43 C46 1.311 . S
C44 N43 1.355 . S
C44 C45 1.363 . S
C44 H56 0.929 . S
C45 C44 1.363 . S
C45 N47 1.375 . S
C45 H63 0.931 . S
C46 N43 1.311 . S
C46 N47 1.347 . S
C46 H57 0.929 . S
N47 C45 1.375 . S
N47 C46 1.347 . S
C48 C51 1.365 . S
C48 N53 1.328 . S
C48 H54 0.929 . S
C49 C50 1.362 . S
C49 C52 1.378 . S
C49 H64 0.929 . S
C50 C49 1.362 . S
C50 C51 1.366 . S
C51 C48 1.365 . S
C51 C50 1.366 . S
C51 H65 0.930 . S
C52 C49 1.378 . S
C52 N53 1.315 . S
C52 H55 0.930 . S
N53 Co33 2.194 . S
N53 C48 1.328 . S
N53 C52 1.315 . S
H54 C48 0.929 . S
H55 C52 0.930 . S
H56 C44 0.929 . S
H57 C46 0.929 . S
O58 Co33 2.351 . S
O58 C61 1.244 . S
O59 Co33 2.155 . S
O59 C61 1.240 . S
O60 Co33 2.096 . S
O60 C41 1.247 . S
C61 O58 1.244 . S
C61 O59 1.240 . S
H62 C36 0.931 . S
H63 C45 0.931 . S
H64 C49 0.929 . S
H65 C51 0.930 . S
Co66 N70 2.148 . S
Co66 N76 2.128 . S
Co66 N86 2.194 . S
Co66 O91 2.351 . S
Co66 O92 2.155 . S
Co66 O93 2.096 . S
C67 N70 1.301 . S
C67 N71 1.328 1_556 S
C67 H72 0.930 . S
C68 C69 1.333 . S
C68 N70 1.317 . S
C68 H73 0.930 . S
C69 C68 1.333 . S
C69 N71 1.350 1_556 S
C69 H95 0.931 1_556 S
N70 Co66 2.148 . S
N70 C67 1.301 . S
N70 C68 1.317 . S
N71 C67 1.328 1_554 S
N71 C69 1.350 1_554 S
H72 C67 0.930 . S
H73 C68 0.930 . S
C74 O75 1.224 . S
C74 O93 1.247 . S
O75 C74 1.224 . S
N76 Co66 2.128 . S
N76 C77 1.355 . S
N76 C79 1.311 . S
C77 N76 1.355 . S
C77 C78 1.363 . S
C77 H89 0.929 . S
C78 C77 1.363 . S
C78 N80 1.375 . S
C78 H96 0.931 . S
C79 N76 1.311 . S
C79 N80 1.347 . S
C79 H90 0.929 . S
N80 C78 1.375 . S
N80 C79 1.347 . S
C81 C84 1.365 . S
C81 N86 1.328 . S
C81 H87 0.929 . S
C82 C83 1.362 . S
C82 C85 1.378 . S
C82 H97 0.929 . S
C83 C82 1.362 . S
C83 C84 1.366 . S
C84 C81 1.365 . S
C84 C83 1.366 . S
C84 H98 0.930 . S
C85 C82 1.378 . S
C85 N86 1.315 . S
C85 H88 0.930 . S
N86 Co66 2.194 . S
N86 C81 1.328 . S
N86 C85 1.315 . S
H87 C81 0.929 . S
H88 C85 0.930 . S
H89 C77 0.929 . S
H90 C79 0.929 . S
O91 Co66 2.351 . S
O91 C94 1.244 . S
O92 Co66 2.155 . S
O92 C94 1.240 . S
O93 Co66 2.096 . S
O93 C74 1.247 . S
C94 O91 1.244 . S
C94 O92 1.240 . S
H95 C69 0.931 1_554 S
H96 C78 0.931 . S
H97 C82 0.929 . S
H98 C84 0.930 . S
Co99 N103 2.148 1_556 S
Co99 N109 2.128 . S
Co99 N119 2.194 1_556 S
Co99 O124 2.351 1_556 S
Co99 O125 2.155 1_556 S
Co99 O126 2.096 . S
C100 N103 1.301 . S
C100 N104 1.328 . S
C100 H105 0.930 . S
C101 C102 1.333 . S
C101 N103 1.317 . S
C101 H106 0.930 . S
C102 C101 1.333 . S
C102 N104 1.350 . S
C102 H128 0.931 . S
N103 Co99 2.148 1_554 S
N103 C100 1.301 . S
N103 C101 1.317 . S
N104 C100 1.328 . S
N104 C102 1.350 . S
H105 C100 0.930 . S
H106 C101 0.930 . S
C107 O108 1.224 . S
C107 O126 1.247 . S
O108 C107 1.224 . S
N109 Co99 2.128 . S
N109 C110 1.355 . S
N109 C112 1.311 . S
C110 N109 1.355 . S
C110 C111 1.363 . S
C110 H122 0.929 . S
C111 C110 1.363 . S
C111 N113 1.375 . S
C111 H129 0.931 . S
C112 N109 1.311 . S
C112 N113 1.347 . S
C112 H123 0.929 . S
N113 C111 1.375 . S
N113 C112 1.347 . S
C114 C117 1.365 . S
C114 N119 1.328 . S
C114 H120 0.929 . S
C115 C116 1.362 . S
C115 C118 1.377 . S
C115 H130 0.929 1_554 S
C116 C115 1.362 . S
C116 C117 1.366 . S
C117 C114 1.365 . S
C117 C116 1.366 . S
C117 H131 0.930 . S
C118 C115 1.377 . S
C118 N119 1.314 . S
C118 H121 0.931 1_554 S
N119 Co99 2.194 1_554 S
N119 C114 1.328 . S
N119 C118 1.314 . S
H120 C114 0.929 . S
H121 C118 0.931 1_556 S
H122 C110 0.929 . S
H123 C112 0.929 . S
O124 Co99 2.351 1_554 S
O124 C127 1.244 . S
O125 Co99 2.155 1_554 S
O125 C127 1.240 . S
O126 Co99 2.096 . S
O126 C107 1.247 . S
C127 O124 1.244 . S
C127 O125 1.240 . S
H128 C102 0.931 . S
H129 C111 0.931 . S
H130 C115 0.929 1_556 S
H131 C117 0.930 . S
Co132 N136 2.148 . S
Co132 N142 2.128 . S
Co132 N152 2.194 . S
Co132 O157 2.351 . S
Co132 O158 2.155 . S
Co132 O159 2.096 . S
C133 N136 1.301 . S
C133 N137 1.328 . S
C133 H138 0.930 . S
C134 C135 1.333 . S
C134 N136 1.317 . S
C134 H139 0.930 . S
C135 C134 1.333 . S
C135 N137 1.350 . S
C135 H161 0.931 . S
N136 Co132 2.148 . S
N136 C133 1.301 . S
N136 C134 1.317 . S
N137 C133 1.328 . S
N137 C135 1.350 . S
H138 C133 0.930 . S
H139 C134 0.930 . S
C140 O141 1.224 . S
C140 O159 1.247 . S
O141 C140 1.224 . S
N142 Co132 2.128 . S
N142 C143 1.355 . S
N142 C145 1.311 . S
C143 N142 1.355 . S
C143 C144 1.363 . S
C143 H155 0.929 . S
C144 C143 1.363 . S
C144 N146 1.375 . S
C144 H162 0.931 . S
C145 N142 1.311 . S
C145 N146 1.347 . S
C145 H156 0.929 . S
N146 C144 1.375 . S
N146 C145 1.347 . S
C147 C150 1.365 . S
C147 N152 1.328 . S
C147 H153 0.929 . S
C148 C149 1.362 . S
C148 C151 1.378 . S
C148 H163 0.929 . S
C149 C148 1.362 . S
C149 C150 1.366 . S
C150 C147 1.365 . S
C150 C149 1.366 . S
C150 H164 0.930 . S
C151 C148 1.378 . S
C151 N152 1.315 . S
C151 H154 0.930 . S
N152 Co132 2.194 . S
N152 C147 1.328 . S
N152 C151 1.315 . S
H153 C147 0.929 . S
H154 C151 0.930 . S
H155 C143 0.929 . S
H156 C145 0.929 . S
O157 Co132 2.351 . S
O157 C160 1.244 . S
O158 Co132 2.155 . S
O158 C160 1.240 . S
O159 Co132 2.096 . S
O159 C140 1.247 . S
C160 O157 1.244 . S
C160 O158 1.240 . S
H161 C135 0.931 . S
H162 C144 0.931 . S
H163 C148 0.929 . S
H164 C150 0.930 . S
Co165 N169 2.148 1_554 S
Co165 N175 2.128 . S
Co165 N185 2.194 1_554 S
Co165 O190 2.351 1_554 S
Co165 O191 2.155 1_554 S
Co165 O192 2.096 . S
C166 N169 1.301 . S
C166 N170 1.328 . S
C166 H171 0.930 . S
C167 C168 1.333 . S
C167 N169 1.317 . S
C167 H172 0.930 . S
C168 C167 1.333 . S
C168 N170 1.350 . S
C168 H194 0.931 . S
N169 Co165 2.148 1_556 S
N169 C166 1.301 . S
N169 C167 1.317 . S
N170 C166 1.328 . S
N170 C168 1.350 . S
H171 C166 0.930 . S
H172 C167 0.930 . S
C173 O174 1.224 . S
C173 O192 1.247 . S
O174 C173 1.224 . S
N175 Co165 2.128 . S
N175 C176 1.355 . S
N175 C178 1.311 . S
C176 N175 1.355 . S
C176 C177 1.363 . S
C176 H188 0.929 . S
C177 C176 1.363 . S
C177 N179 1.375 . S
C177 H195 0.931 . S
C178 N175 1.311 . S
C178 N179 1.347 . S
C178 H189 0.929 . S
N179 C177 1.375 . S
N179 C178 1.347 . S
C180 C183 1.365 . S
C180 N185 1.328 . S
C180 H186 0.929 . S
C181 C182 1.362 . S
C181 C184 1.377 . S
C181 H196 0.929 1_556 S
C182 C181 1.362 . S
C182 C183 1.366 . S
C183 C180 1.365 . S
C183 C182 1.366 . S
C183 H197 0.930 . S
C184 C181 1.377 . S
C184 N185 1.314 . S
C184 H187 0.931 1_556 S
N185 Co165 2.194 1_556 S
N185 C180 1.328 . S
N185 C184 1.314 . S
H186 C180 0.929 . S
H187 C184 0.931 1_554 S
H188 C176 0.929 . S
H189 C178 0.929 . S
O190 Co165 2.351 1_556 S
O190 C193 1.244 . S
O191 Co165 2.155 1_556 S
O191 C193 1.240 . S
O192 Co165 2.096 . S
O192 C173 1.247 . S
C193 O190 1.244 . S
C193 O191 1.240 . S
H194 C168 0.931 . S
H195 C177 0.931 . S
H196 C181 0.929 1_554 S
H197 C183 0.930 . S
Co198 N202 2.148 . S
Co198 N208 2.128 . S
Co198 N218 2.194 . S
Co198 O223 2.351 . S
Co198 O224 2.155 . S
Co198 O225 2.096 . S
C199 N202 1.301 . S
C199 N203 1.328 1_554 S
C199 H204 0.930 . S
C200 C201 1.333 . S
C200 N202 1.317 . S
C200 H205 0.930 . S
C201 C200 1.333 . S
C201 N203 1.350 1_554 S
C201 H227 0.931 1_554 S
N202 Co198 2.148 . S
N202 C199 1.301 . S
N202 C200 1.317 . S
N203 C199 1.328 1_556 S
N203 C201 1.350 1_556 S
H204 C199 0.930 . S
H205 C200 0.930 . S
C206 O207 1.224 . S
C206 O225 1.247 . S
O207 C206 1.224 . S
N208 Co198 2.128 . S
N208 C209 1.355 . S
N208 C211 1.311 . S
C209 N208 1.355 . S
C209 C210 1.363 . S
C209 H221 0.929 . S
C210 C209 1.363 . S
C210 N212 1.375 . S
C210 H228 0.931 . S
C211 N208 1.311 . S
C211 N212 1.347 . S
C211 H222 0.929 . S
N212 C210 1.375 . S
N212 C211 1.347 . S
C213 C216 1.365 . S
C213 N218 1.328 . S
C213 H219 0.929 . S
C214 C215 1.362 . S
C214 C217 1.378 . S
C214 H229 0.929 . S
C215 C214 1.362 . S
C215 C216 1.366 . S
C216 C213 1.365 . S
C216 C215 1.366 . S
C216 H230 0.930 . S
C217 C214 1.378 . S
C217 N218 1.315 . S
C217 H220 0.930 . S
N218 Co198 2.194 . S
N218 C213 1.328 . S
N218 C217 1.315 . S
H219 C213 0.929 . S
H220 C217 0.930 . S
H221 C209 0.929 . S
H222 C211 0.929 . S
O223 Co198 2.351 . S
O223 C226 1.244 . S
O224 Co198 2.155 . S
O224 C226 1.240 . S
O225 Co198 2.096 . S
O225 C206 1.247 . S
C226 O223 1.244 . S
C226 O224 1.240 . S
H227 C201 0.931 1_556 S
H228 C210 0.931 . S
H229 C214 0.929 . S
H230 C216 0.930 . S
Co231 N235 2.148 . S
Co231 N241 2.128 . S
Co231 N251 2.194 . S
Co231 O256 2.351 . S
Co231 O257 2.155 . S
Co231 O258 2.096 . S
C232 N235 1.301 . S
C232 N236 1.328 . S
C232 H237 0.930 . S
C233 C234 1.333 . S
C233 N235 1.317 . S
C233 H238 0.930 . S
C234 C233 1.333 . S
C234 N236 1.350 . S
C234 H260 0.931 . S
N235 Co231 2.148 . S
N235 C232 1.301 . S
N235 C233 1.317 . S
N236 C232 1.328 . S
N236 C234 1.350 . S
H237 C232 0.930 . S
H238 C233 0.930 . S
C239 O240 1.224 . S
C239 O258 1.247 . S
O240 C239 1.224 . S
N241 Co231 2.128 . S
N241 C242 1.355 . S
N241 C244 1.311 . S
C242 N241 1.355 . S
C242 C243 1.363 . S
C242 H254 0.929 . S
C243 C242 1.363 . S
C243 N245 1.375 . S
C243 H261 0.931 . S
C244 N241 1.311 . S
C244 N245 1.347 . S
C244 H255 0.929 . S
N245 C243 1.375 . S
N245 C244 1.347 . S
C246 C249 1.365 . S
C246 N251 1.328 . S
C246 H252 0.929 . S
C247 C248 1.362 . S
C247 C250 1.378 . S
C247 H262 0.929 . S
C248 C247 1.362 . S
C248 C249 1.366 . S
C249 C246 1.365 . S
C249 C248 1.366 . S
C249 H263 0.930 . S
C250 C247 1.378 . S
C250 N251 1.315 . S
C250 H253 0.930 . S
N251 Co231 2.194 . S
N251 C246 1.328 . S
N251 C250 1.315 . S
H252 C246 0.929 . S
H253 C250 0.930 . S
H254 C242 0.929 . S
H255 C244 0.929 . S
O256 Co231 2.351 . S
O256 C259 1.244 . S
O257 Co231 2.155 . S
O257 C259 1.240 . S
O258 Co231 2.096 . S
O258 C239 1.247 . S
C259 O256 1.244 . S
C259 O257 1.240 . S
H260 C234 0.931 . S
H261 C243 0.931 . S
H262 C247 0.929 . S
H263 C249 0.930 . S
Co264 N268 2.148 . S
Co264 N274 2.128 . S
Co264 N284 2.194 . S
Co264 O289 2.351 . S
Co264 O290 2.155 . S
Co264 O291 2.096 . S
C265 N268 1.301 . S
C265 N269 1.328 . S
C265 H270 0.930 . S
C266 C267 1.333 . S
C266 N268 1.317 . S
C266 H271 0.930 . S
C267 C266 1.333 . S
C267 N269 1.350 . S
C267 H293 0.931 . S
N268 Co264 2.148 . S
N268 C265 1.301 . S
N268 C266 1.317 . S
N269 C265 1.328 . S
N269 C267 1.350 . S
H270 C265 0.930 . S
H271 C266 0.930 . S
C272 O273 1.224 . S
C272 O291 1.247 . S
O273 C272 1.224 . S
N274 Co264 2.128 . S
N274 C275 1.355 . S
N274 C277 1.311 . S
C275 N274 1.355 . S
C275 C276 1.363 . S
C275 H287 0.929 . S
C276 C275 1.363 . S
C276 N278 1.375 . S
C276 H294 0.931 . S
C277 N274 1.311 . S
C277 N278 1.347 . S
C277 H288 0.929 . S
N278 C276 1.375 . S
N278 C277 1.347 . S
C279 C282 1.365 . S
C279 N284 1.328 . S
C279 H285 0.929 . S
C280 C281 1.362 . S
C280 C283 1.378 . S
C280 H295 0.929 . S
C281 C280 1.362 . S
C281 C282 1.366 . S
C282 C279 1.365 . S
C282 C281 1.366 . S
C282 H296 0.930 . S
C283 C280 1.378 . S
C283 N284 1.315 . S
C283 H286 0.930 . S
N284 Co264 2.194 . S
N284 C279 1.328 . S
N284 C283 1.315 . S
H285 C279 0.929 . S
H286 C283 0.930 . S
H287 C275 0.929 . S
H288 C277 0.929 . S
O289 Co264 2.351 . S
O289 C292 1.244 . S
O290 Co264 2.155 . S
O290 C292 1.240 . S
O291 Co264 2.096 . S
O291 C272 1.247 . S
C292 O289 1.244 . S
C292 O290 1.240 . S
H293 C267 0.931 . S
H294 C276 0.931 . S
H295 C280 0.929 . S
H296 C282 0.930 . S
Co297 N301 2.148 1_554 S
Co297 N307 2.128 . S
Co297 N317 2.194 1_554 S
Co297 O322 2.351 1_554 S
Co297 O323 2.155 1_554 S
Co297 O324 2.096 . S
C298 N301 1.301 . S
C298 N302 1.328 . S
C298 H303 0.930 . S
C299 C300 1.333 . S
C299 N301 1.317 . S
C299 H304 0.930 . S
C300 C299 1.333 . S
C300 N302 1.350 . S
C300 H326 0.931 . S
N301 Co297 2.148 1_556 S
N301 C298 1.301 . S
N301 C299 1.317 . S
N302 C298 1.328 . S
N302 C300 1.350 . S
H303 C298 0.930 . S
H304 C299 0.930 . S
C305 O306 1.224 . S
C305 O324 1.247 . S
O306 C305 1.224 . S
N307 Co297 2.128 . S
N307 C308 1.355 . S
N307 C310 1.311 . S
C308 N307 1.355 . S
C308 C309 1.363 . S
C308 H320 0.929 . S
C309 C308 1.363 . S
C309 N311 1.375 . S
C309 H327 0.931 . S
C310 N307 1.311 . S
C310 N311 1.347 . S
C310 H321 0.929 . S
N311 C309 1.375 . S
N311 C310 1.347 . S
C312 C315 1.365 . S
C312 N317 1.328 . S
C312 H318 0.929 . S
C313 C314 1.362 . S
C313 C316 1.378 1_556 S
C313 H328 0.929 1_556 S
C314 C313 1.362 . S
C314 C315 1.366 . S
C315 C312 1.365 . S
C315 C314 1.366 . S
C315 H329 0.930 . S
C316 C313 1.378 1_554 S
C316 N317 1.316 1_554 S
C316 H319 0.929 . S
N317 Co297 2.194 1_556 S
N317 C312 1.328 . S
N317 C316 1.316 1_556 S
H318 C312 0.929 . S
H319 C316 0.929 . S
H320 C308 0.929 . S
H321 C310 0.929 . S
O322 Co297 2.351 1_556 S
O322 C325 1.244 . S
O323 Co297 2.155 1_556 S
O323 C325 1.240 . S
O324 Co297 2.096 . S
O324 C305 1.247 . S
C325 O322 1.244 . S
C325 O323 1.240 . S
H326 C300 0.931 . S
H327 C309 0.931 . S
H328 C313 0.929 1_554 S
H329 C315 0.930 . S
Co330 N334 2.148 1_556 S
Co330 N340 2.128 . S
Co330 N350 2.194 1_556 S
Co330 O355 2.351 1_556 S
Co330 O356 2.155 1_556 S
Co330 O357 2.096 . S
C331 N334 1.301 . S
C331 N335 1.328 . S
C331 H336 0.930 . S
C332 C333 1.333 . S
C332 N334 1.317 . S
C332 H337 0.930 . S
C333 C332 1.333 . S
C333 N335 1.350 . S
C333 H359 0.931 . S
N334 Co330 2.148 1_554 S
N334 C331 1.301 . S
N334 C332 1.317 . S
N335 C331 1.328 . S
N335 C333 1.350 . S
H336 C331 0.930 . S
H337 C332 0.930 . S
C338 O339 1.224 . S
C338 O357 1.247 . S
O339 C338 1.224 . S
N340 Co330 2.128 . S
N340 C341 1.355 . S
N340 C343 1.311 . S
C341 N340 1.355 . S
C341 C342 1.363 . S
C341 H353 0.929 . S
C342 C341 1.363 . S
C342 N344 1.375 . S
C342 H360 0.931 . S
C343 N340 1.311 . S
C343 N344 1.347 . S
C343 H354 0.929 . S
N344 C342 1.375 . S
N344 C343 1.347 . S
C345 C348 1.365 . S
C345 N350 1.328 . S
C345 H351 0.929 . S
C346 C347 1.362 . S
C346 C349 1.378 1_554 S
C346 H361 0.929 1_554 S
C347 C346 1.362 . S
C347 C348 1.366 . S
C348 C345 1.365 . S
C348 C347 1.366 . S
C348 H362 0.930 . S
C349 C346 1.378 1_556 S
C349 N350 1.316 1_556 S
C349 H352 0.929 . S
N350 Co330 2.194 1_554 S
N350 C345 1.328 . S
N350 C349 1.316 1_554 S
H351 C345 0.929 . S
H352 C349 0.929 . S
H353 C341 0.929 . S
H354 C343 0.929 . S
O355 Co330 2.351 1_554 S
O355 C358 1.244 . S
O356 Co330 2.155 1_554 S
O356 C358 1.240 . S
O357 Co330 2.096 . S
O357 C338 1.247 . S
C358 O355 1.244 . S
C358 O356 1.240 . S
H359 C333 0.931 . S
H360 C342 0.931 . S
H361 C346 0.929 1_556 S
H362 C348 0.930 . S
Co363 N367 2.148 . S
Co363 N373 2.128 . S
Co363 N383 2.194 . S
Co363 O388 2.351 . S
Co363 O389 2.155 . S
Co363 O390 2.096 . S
C364 N367 1.301 . S
C364 N368 1.328 . S
C364 H369 0.930 . S
C365 C366 1.333 . S
C365 N367 1.317 . S
C365 H370 0.930 . S
C366 C365 1.333 . S
C366 N368 1.350 . S
C366 H392 0.931 . S
N367 Co363 2.148 . S
N367 C364 1.301 . S
N367 C365 1.317 . S
N368 C364 1.328 . S
N368 C366 1.350 . S
H369 C364 0.930 . S
H370 C365 0.930 . S
C371 O372 1.224 . S
C371 O390 1.247 . S
O372 C371 1.224 . S
N373 Co363 2.128 . S
N373 C374 1.355 . S
N373 C376 1.311 . S
C374 N373 1.355 . S
C374 C375 1.363 . S
C374 H386 0.929 . S
C375 C374 1.363 . S
C375 N377 1.375 . S
C375 H393 0.931 . S
C376 N373 1.311 . S
C376 N377 1.347 . S
C376 H387 0.929 . S
N377 C375 1.375 . S
N377 C376 1.347 . S
C378 C381 1.365 . S
C378 N383 1.328 . S
C378 H384 0.929 . S
C379 C380 1.362 . S
C379 C382 1.378 . S
C379 H394 0.929 . S
C380 C379 1.362 . S
C380 C381 1.366 . S
C381 C378 1.365 . S
C381 C380 1.366 . S
C381 H395 0.930 . S
C382 C379 1.378 . S
C382 N383 1.315 . S
C382 H385 0.930 . S
N383 Co363 2.194 . S
N383 C378 1.328 . S
N383 C382 1.315 . S
H384 C378 0.929 . S
H385 C382 0.930 . S
H386 C374 0.929 . S
H387 C376 0.929 . S
O388 Co363 2.351 . S
O388 C391 1.244 . S
O389 Co363 2.155 . S
O389 C391 1.240 . S
O390 Co363 2.096 . S
O390 C371 1.247 . S
C391 O388 1.244 . S
C391 O389 1.240 . S
H392 C366 0.931 . S
H393 C375 0.931 . S
H394 C379 0.929 . S
H395 C381 0.930 . S
Co396 N400 2.148 . S
Co396 N406 2.128 . S
Co396 N416 2.194 . S
Co396 O421 2.351 . S
Co396 O422 2.155 . S
Co396 O423 2.096 . S
C397 N400 1.301 . S
C397 N401 1.328 1_556 S
C397 H402 0.930 . S
C398 C399 1.333 . S
C398 N400 1.317 . S
C398 H403 0.930 . S
C399 C398 1.333 . S
C399 N401 1.350 1_556 S
C399 H425 0.931 1_556 S
N400 Co396 2.148 . S
N400 C397 1.301 . S
N400 C398 1.317 . S
N401 C397 1.328 1_554 S
N401 C399 1.350 1_554 S
H402 C397 0.930 . S
H403 C398 0.930 . S
C404 O405 1.224 . S
C404 O423 1.247 . S
O405 C404 1.224 . S
N406 Co396 2.128 . S
N406 C407 1.355 . S
N406 C409 1.311 . S
C407 N406 1.355 . S
C407 C408 1.363 . S
C407 H419 0.929 . S
C408 C407 1.363 . S
C408 N410 1.375 . S
C408 H426 0.931 . S
C409 N406 1.311 . S
C409 N410 1.347 . S
C409 H420 0.929 . S
N410 C408 1.375 . S
N410 C409 1.347 . S
C411 C414 1.365 . S
C411 N416 1.328 . S
C411 H417 0.929 . S
C412 C413 1.362 . S
C412 C415 1.378 . S
C412 H427 0.929 . S
C413 C412 1.362 . S
C413 C414 1.366 . S
C414 C411 1.365 . S
C414 C413 1.366 . S
C414 H428 0.930 . S
C415 C412 1.378 . S
C415 N416 1.315 . S
C415 H418 0.930 . S
N416 Co396 2.194 . S
N416 C411 1.328 . S
N416 C415 1.315 . S
H417 C411 0.929 . S
H418 C415 0.930 . S
H419 C407 0.929 . S
H420 C409 0.929 . S
O421 Co396 2.351 . S
O421 C424 1.244 . S
O422 Co396 2.155 . S
O422 C424 1.240 . S
O423 Co396 2.096 . S
O423 C404 1.247 . S
C424 O421 1.244 . S
C424 O422 1.240 . S
H425 C399 0.931 1_554 S
H426 C408 0.931 . S
H427 C412 0.929 . S
H428 C414 0.930 . S
Co429 N433 2.148 . S
Co429 N439 2.128 . S
Co429 N449 2.194 . S
Co429 O454 2.351 . S
Co429 O455 2.155 . S
Co429 O456 2.096 . S
C430 N433 1.301 . S
C430 N434 1.328 . S
C430 H435 0.930 . S
C431 C432 1.333 . S
C431 N433 1.317 . S
C431 H436 0.930 . S
C432 C431 1.333 . S
C432 N434 1.350 . S
C432 H458 0.931 . S
N433 Co429 2.148 . S
N433 C430 1.301 . S
N433 C431 1.317 . S
N434 C430 1.328 . S
N434 C432 1.350 . S
H435 C430 0.930 . S
H436 C431 0.930 . S
C437 O438 1.224 . S
C437 O456 1.247 . S
O438 C437 1.224 . S
N439 Co429 2.128 . S
N439 C440 1.355 . S
N439 C442 1.311 . S
C440 N439 1.355 . S
C440 C441 1.363 . S
C440 H452 0.929 . S
C441 C440 1.363 . S
C441 N443 1.375 . S
C441 H459 0.931 . S
C442 N439 1.311 . S
C442 N443 1.347 . S
C442 H453 0.929 . S
N443 C441 1.375 . S
N443 C442 1.347 . S
C444 C447 1.365 . S
C444 N449 1.328 . S
C444 H450 0.929 . S
C445 C446 1.362 . S
C445 C448 1.378 . S
C445 H460 0.929 . S
C446 C445 1.362 . S
C446 C447 1.366 . S
C447 C444 1.365 . S
C447 C446 1.366 . S
C447 H461 0.930 . S
C448 C445 1.378 . S
C448 N449 1.315 . S
C448 H451 0.930 . S
N449 Co429 2.194 . S
N449 C444 1.328 . S
N449 C448 1.315 . S
H450 C444 0.929 . S
H451 C448 0.930 . S
H452 C440 0.929 . S
H453 C442 0.929 . S
O454 Co429 2.351 . S
O454 C457 1.244 . S
O455 Co429 2.155 . S
O455 C457 1.240 . S
O456 Co429 2.096 . S
O456 C437 1.247 . S
C457 O454 1.244 . S
C457 O455 1.240 . S
H458 C432 0.931 . S
H459 C441 0.931 . S
H460 C445 0.929 . S
H461 C447 0.930 . S
Co462 N466 2.148 . S
Co462 N472 2.128 . S
Co462 N482 2.194 . S
Co462 O487 2.351 . S
Co462 O488 2.155 . S
Co462 O489 2.096 . S
C463 N466 1.301 . S
C463 N467 1.328 1_554 S
C463 H468 0.930 . S
C464 C465 1.333 . S
C464 N466 1.317 . S
C464 H469 0.930 . S
C465 C464 1.333 . S
C465 N467 1.350 1_554 S
C465 H491 0.931 1_554 S
N466 Co462 2.148 . S
N466 C463 1.301 . S
N466 C464 1.317 . S
N467 C463 1.328 1_556 S
N467 C465 1.350 1_556 S
H468 C463 0.930 . S
H469 C464 0.930 . S
C470 O471 1.224 . S
C470 O489 1.247 . S
O471 C470 1.224 . S
N472 Co462 2.128 . S
N472 C473 1.355 . S
N472 C475 1.311 . S
C473 N472 1.355 . S
C473 C474 1.363 . S
C473 H485 0.929 . S
C474 C473 1.363 . S
C474 N476 1.375 . S
C474 H492 0.931 . S
C475 N472 1.311 . S
C475 N476 1.347 . S
C475 H486 0.929 . S
N476 C474 1.375 . S
N476 C475 1.347 . S
C477 C480 1.365 . S
C477 N482 1.328 . S
C477 H483 0.929 . S
C478 C479 1.362 . S
C478 C481 1.378 . S
C478 H493 0.929 . S
C479 C478 1.362 . S
C479 C480 1.366 . S
C480 C477 1.365 . S
C480 C479 1.366 . S
C480 H494 0.930 . S
C481 C478 1.378 . S
C481 N482 1.315 . S
C481 H484 0.930 . S
N482 Co462 2.194 . S
N482 C477 1.328 . S
N482 C481 1.315 . S
H483 C477 0.929 . S
H484 C481 0.930 . S
H485 C473 0.929 . S
H486 C475 0.929 . S
O487 Co462 2.351 . S
O487 C490 1.244 . S
O488 Co462 2.155 . S
O488 C490 1.240 . S
O489 Co462 2.096 . S
O489 C470 1.247 . S
C490 O487 1.244 . S
C490 O488 1.240 . S
H491 C465 0.931 1_556 S
H492 C474 0.931 . S
H493 C478 0.929 . S
H494 C480 0.930 . S
Co495 N499 2.148 . S
Co495 N505 2.128 . S
Co495 N515 2.194 . S
Co495 O520 2.351 . S
Co495 O521 2.155 . S
Co495 O522 2.096 . S
C496 N499 1.301 . S
C496 N500 1.328 . S
C496 H501 0.930 . S
C497 C498 1.333 . S
C497 N499 1.317 . S
C497 H502 0.930 . S
C498 C497 1.333 . S
C498 N500 1.350 . S
C498 H524 0.931 . S
N499 Co495 2.148 . S
N499 C496 1.301 . S
N499 C497 1.317 . S
N500 C496 1.328 . S
N500 C498 1.350 . S
H501 C496 0.930 . S
H502 C497 0.930 . S
C503 O504 1.224 . S
C503 O522 1.247 . S
O504 C503 1.224 . S
N505 Co495 2.128 . S
N505 C506 1.355 . S
N505 C508 1.311 . S
C506 N505 1.355 . S
C506 C507 1.363 . S
C506 H518 0.929 . S
C507 C506 1.363 . S
C507 N509 1.375 . S
C507 H525 0.931 . S
C508 N505 1.311 . S
C508 N509 1.347 . S
C508 H519 0.929 . S
N509 C507 1.375 . S
N509 C508 1.347 . S
C510 C513 1.365 . S
C510 N515 1.328 . S
C510 H516 0.929 . S
C511 C512 1.362 . S
C511 C514 1.378 . S
C511 H526 0.929 . S
C512 C511 1.362 . S
C512 C513 1.366 . S
C513 C510 1.365 . S
C513 C512 1.366 . S
C513 H527 0.930 . S
C514 C511 1.378 . S
C514 N515 1.315 . S
C514 H517 0.930 . S
N515 Co495 2.194 . S
N515 C510 1.328 . S
N515 C514 1.315 . S
H516 C510 0.929 . S
H517 C514 0.930 . S
H518 C506 0.929 . S
H519 C508 0.929 . S
O520 Co495 2.351 . S
O520 C523 1.244 . S
O521 Co495 2.155 . S
O521 C523 1.240 . S
O522 Co495 2.096 . S
O522 C503 1.247 . S
C523 O520 1.244 . S
C523 O521 1.240 . S
H524 C498 0.931 . S
H525 C507 0.931 . S
H526 C511 0.929 . S
H527 C513 0.930 . S
C528 C529 1.349 . S
C528 C530 1.327 . S
C528 H553 0.950 . S
C529 C528 1.349 . S
C529 C545 1.349 . S
C530 C528 1.327 . S
C530 C549 1.429 . S
C530 H554 0.950 . S
C531 C548 1.574 . S
C531 C550 1.368 . S
C531 H555 0.949 . S
H532 C536 0.949 . S
C533 C534 1.349 . S
C533 C535 1.327 . S
C533 H556 0.950 . S
C534 C533 1.349 . S
C534 C546 1.349 . S
C535 C533 1.327 . S
C535 C551 1.429 . S
C535 H557 0.950 . S
C536 H532 0.949 . S
C536 C544 1.574 . S
C536 C552 1.368 . S
H537 C545 0.950 . S
H538 C543 0.950 . S
H539 C544 0.949 . S
H540 C546 0.950 . S
H541 C547 0.950 . S
H542 C548 0.949 . S
C543 H538 0.950 . S
C543 C545 1.327 . S
C543 C549 1.429 . S
C544 C536 1.574 . S
C544 H539 0.949 . S
C544 C550 1.368 . S
C545 C529 1.349 . S
C545 H537 0.950 . S
C545 C543 1.327 . S
C546 C534 1.349 . S
C546 H540 0.950 . S
C546 C547 1.327 . S
C547 H541 0.950 . S
C547 C546 1.327 . S
C547 C551 1.429 . S
C548 C531 1.574 . S
C548 H542 0.949 . S
C548 C552 1.368 . S
C549 C530 1.429 . S
C549 C543 1.429 . S
C549 C550 1.523 . S
C550 C531 1.368 . S
C550 C544 1.368 . S
C550 C549 1.523 . S
C551 C535 1.429 . S
C551 C547 1.429 . S
C551 C552 1.523 . S
C552 C536 1.368 . S
C552 C548 1.368 . S
C552 C551 1.523 . S
H553 C528 0.950 . S
H554 C530 0.950 . S
H555 C531 0.949 . S
H556 C533 0.950 . S
H557 C535 0.950 . S
C558 C559 1.349 . S
C558 C560 1.327 . S
C558 H583 0.950 . S
C559 C558 1.349 . S
C559 C575 1.349 . S
C560 C558 1.327 . S
C560 C579 1.429 . S
C560 H584 0.950 . S
C561 C578 1.574 . S
C561 C580 1.368 . S
C561 H585 0.949 . S
H562 C566 0.949 . S
C563 C564 1.349 . S
C563 C565 1.327 . S
C563 H586 0.950 . S
C564 C563 1.349 . S
C564 C576 1.349 . S
C565 C563 1.327 . S
C565 C581 1.429 . S
C565 H587 0.950 . S
C566 H562 0.949 . S
C566 C574 1.574 . S
C566 C582 1.368 . S
H567 C575 0.950 . S
H568 C573 0.950 . S
H569 C574 0.949 . S
H570 C576 0.950 . S
H571 C577 0.950 . S
H572 C578 0.949 . S
C573 H568 0.950 . S
C573 C575 1.327 . S
C573 C579 1.429 . S
C574 C566 1.574 . S
C574 H569 0.949 . S
C574 C580 1.368 . S
C575 C559 1.349 . S
C575 H567 0.950 . S
C575 C573 1.327 . S
C576 C564 1.349 . S
C576 H570 0.950 . S
C576 C577 1.327 . S
C577 H571 0.950 . S
C577 C576 1.327 . S
C577 C581 1.429 . S
C578 C561 1.574 . S
C578 H572 0.949 . S
C578 C582 1.368 . S
C579 C560 1.429 . S
C579 C573 1.429 . S
C579 C580 1.523 . S
C580 C561 1.368 . S
C580 C574 1.368 . S
C580 C579 1.523 . S
C581 C565 1.429 . S
C581 C577 1.429 . S
C581 C582 1.523 . S
C582 C566 1.368 . S
C582 C578 1.368 . S
C582 C581 1.523 . S
H583 C558 0.950 . S
H584 C560 0.950 . S
H585 C561 0.949 . S
H586 C563 0.950 . S
H587 C565 0.950 . S
C588 C589 1.349 . S
C588 C590 1.327 . S
C588 H613 0.950 . S
C589 C588 1.349 . S
C589 C605 1.349 . S
C590 C588 1.327 . S
C590 C609 1.429 . S
C590 H614 0.950 . S
C591 C608 1.574 . S
C591 C610 1.368 . S
C591 H615 0.949 . S
H592 C596 0.949 . S
C593 C594 1.349 . S
C593 C595 1.327 . S
C593 H616 0.950 . S
C594 C593 1.349 . S
C594 C606 1.349 . S
C595 C593 1.327 . S
C595 C611 1.429 . S
C595 H617 0.950 . S
C596 H592 0.949 . S
C596 C604 1.574 . S
C596 C612 1.368 . S
H597 C605 0.950 . S
H598 C603 0.950 . S
H599 C604 0.949 . S
H600 C606 0.950 . S
H601 C607 0.950 . S
H602 C608 0.949 . S
C603 H598 0.950 . S
C603 C605 1.327 . S
C603 C609 1.429 . S
C604 C596 1.574 . S
C604 H599 0.949 . S
C604 C610 1.368 . S
C605 C589 1.349 . S
C605 H597 0.950 . S
C605 C603 1.327 . S
C606 C594 1.349 . S
C606 H600 0.950 . S
C606 C607 1.327 . S
C607 H601 0.950 . S
C607 C606 1.327 . S
C607 C611 1.429 . S
C608 C591 1.574 . S
C608 H602 0.949 . S
C608 C612 1.368 . S
C609 C590 1.429 . S
C609 C603 1.429 . S
C609 C610 1.523 . S
C610 C591 1.368 . S
C610 C604 1.368 . S
C610 C609 1.523 . S
C611 C595 1.429 . S
C611 C607 1.429 . S
C611 C612 1.523 . S
C612 C596 1.368 . S
C612 C608 1.368 . S
C612 C611 1.523 . S
H613 C588 0.950 . S
H614 C590 0.950 . S
H615 C591 0.949 . S
H616 C593 0.950 . S
H617 C595 0.950 . S
C618 C619 1.349 . S
C618 C620 1.327 . S
C618 H643 0.950 . S
C619 C618 1.349 . S
C619 C635 1.349 . S
C620 C618 1.327 . S
C620 C639 1.429 . S
C620 H644 0.950 . S
C621 C638 1.574 . S
C621 C640 1.368 . S
C621 H645 0.949 . S
H622 C626 0.949 . S
C623 C624 1.349 1_556 S
C623 C625 1.327 1_556 S
C623 H646 0.950 . S
C624 C623 1.349 1_554 S
C624 C636 1.349 . S
C625 C623 1.327 1_554 S
C625 C641 1.429 . S
C625 H647 0.950 1_554 S
C626 H622 0.949 . S
C626 C634 1.574 . S
C626 C642 1.368 . S
H627 C635 0.950 . S
H628 C633 0.950 . S
H629 C634 0.949 . S
H630 C636 0.950 . S
H631 C637 0.950 . S
H632 C638 0.949 1_556 S
C633 H628 0.950 . S
C633 C635 1.327 . S
C633 C639 1.429 . S
C634 C626 1.574 . S
C634 H629 0.949 . S
C634 C640 1.368 . S
C635 C619 1.349 . S
C635 H627 0.950 . S
C635 C633 1.327 . S
C636 C624 1.349 . S
C636 H630 0.950 . S
C636 C637 1.327 . S
C637 H631 0.950 . S
C637 C636 1.327 . S
C637 C641 1.429 . S
C638 C621 1.574 . S
C638 H632 0.949 1_554 S
C638 C642 1.368 . S
C639 C620 1.429 . S
C639 C633 1.429 . S
C639 C640 1.523 . S
C640 C621 1.368 . S
C640 C634 1.368 . S
C640 C639 1.523 . S
C641 C625 1.429 . S
C641 C637 1.429 . S
C641 C642 1.523 . S
C642 C626 1.368 . S
C642 C638 1.368 . S
C642 C641 1.523 . S
H643 C618 0.950 . S
H644 C620 0.950 . S
H645 C621 0.949 . S
H646 C623 0.950 . S
H647 C625 0.950 1_556 S
C648 C649 1.349 . S
C648 C650 1.327 . S
C648 H673 0.950 . S
C649 C648 1.349 . S
C649 C665 1.349 . S
C650 C648 1.327 . S
C650 C669 1.429 . S
C650 H674 0.950 . S
C651 C668 1.574 . S
C651 C670 1.368 . S
C651 H675 0.949 . S
H652 C656 0.949 . S
C653 C654 1.349 . S
C653 C655 1.327 . S
C653 H676 0.950 . S
C654 C653 1.349 . S
C654 C666 1.349 . S
C655 C653 1.327 . S
C655 C671 1.433 . S
C655 H677 0.950 . S
C656 H652 0.949 . S
C656 C664 1.574 . S
C656 C672 1.368 . S
H657 C665 0.950 . S
H658 C663 0.950 . S
H659 C664 0.949 . S
H660 C666 0.950 . S
H661 C667 0.950 1_655 S
H662 C668 0.949 . S
C663 H658 0.950 . S
C663 C665 1.327 . S
C663 C669 1.429 . S
C664 C656 1.574 . S
C664 H659 0.949 . S
C664 C670 1.368 . S
C665 C649 1.349 . S
C665 H657 0.950 . S
C665 C663 1.327 . S
C666 C654 1.349 . S
C666 H660 0.950 . S
C666 C667 1.327 . S
C667 H661 0.950 1_455 S
C667 C666 1.327 . S
C667 C671 1.429 . S
C668 C651 1.574 . S
C668 H662 0.949 . S
C668 C672 1.368 . S
C669 C650 1.429 . S
C669 C663 1.429 . S
C669 C670 1.523 . S
C670 C651 1.368 . S
C670 C664 1.368 . S
C670 C669 1.523 . S
C671 C655 1.433 . S
C671 C667 1.429 . S
C671 C672 1.518 1_455 S
C672 C656 1.368 . S
C672 C668 1.368 . S
C672 C671 1.518 1_655 S
H673 C648 0.950 . S
H674 C650 0.950 . S
H675 C651 0.949 . S
H676 C653 0.950 . S
H677 C655 0.950 . S
C678 C679 1.349 . S
C678 C680 1.327 . S
C678 H703 0.950 . S
C679 C678 1.349 . S
C679 C695 1.349 . S
C680 C678 1.327 . S
C680 C699 1.429 . S
C680 H704 0.950 . S
C681 C698 1.574 . S
C681 C700 1.368 . S
C681 H705 0.949 . S
H682 C686 0.949 . S
C683 C684 1.349 . S
C683 C685 1.327 . S
C683 H706 0.950 . S
C684 C683 1.349 . S
C684 C696 1.349 . S
C685 C683 1.327 . S
C685 C701 1.429 . S
C685 H707 0.950 1_455 S
C686 H682 0.949 . S
C686 C694 1.574 . S
C686 C702 1.368 . S
H687 C695 0.950 . S
H688 C693 0.950 . S
H689 C694 0.949 . S
H690 C696 0.950 . S
H691 C697 0.950 . S
H692 C698 0.949 . S
C693 H688 0.950 . S
C693 C695 1.327 . S
C693 C699 1.429 . S
C694 C686 1.574 . S
C694 H689 0.949 . S
C694 C700 1.368 . S
C695 C679 1.349 . S
C695 H687 0.950 . S
C695 C693 1.327 . S
C696 C684 1.349 . S
C696 H690 0.950 . S
C696 C697 1.327 . S
C697 H691 0.950 . S
C697 C696 1.327 . S
C697 C701 1.433 . S
C698 C681 1.574 . S
C698 H692 0.949 . S
C698 C702 1.368 . S
C699 C680 1.429 . S
C699 C693 1.429 . S
C699 C700 1.523 . S
C700 C681 1.368 . S
C700 C694 1.368 . S
C700 C699 1.523 . S
C701 C685 1.429 . S
C701 C697 1.433 . S
C701 C702 1.518 1_455 S
C702 C686 1.368 . S
C702 C698 1.368 . S
C702 C701 1.518 1_655 S
H703 C678 0.950 . S
H704 C680 0.950 . S
H705 C681 0.949 . S
H706 C683 0.950 . S
H707 C685 0.950 1_655 S
C708 C709 1.349 . S
C708 C710 1.327 . S
C708 H733 0.950 . S
C709 C708 1.349 . S
C709 C725 1.349 . S
C710 C708 1.327 . S
C710 C729 1.429 . S
C710 H734 0.950 . S
C711 C728 1.574 . S
C711 C730 1.368 . S
C711 H735 0.949 . S
H712 C716 0.949 . S
C713 C714 1.349 1_556 S
C713 C715 1.327 1_556 S
C713 H736 0.950 . S
C714 C713 1.349 1_554 S
C714 C726 1.349 . S
C715 C713 1.327 1_554 S
C715 C731 1.429 . S
C715 H737 0.950 1_554 S
C716 H712 0.949 . S
C716 C724 1.574 . S
C716 C732 1.368 . S
H717 C725 0.950 . S
H718 C723 0.950 . S
H719 C724 0.949 . S
H720 C726 0.950 . S
H721 C727 0.950 . S
H722 C728 0.949 1_556 S
C723 H718 0.950 . S
C723 C725 1.327 . S
C723 C729 1.429 . S
C724 C716 1.574 . S
C724 H719 0.949 . S
C724 C730 1.368 . S
C725 C709 1.349 . S
C725 H717 0.950 . S
C725 C723 1.327 . S
C726 C714 1.349 . S
C726 H720 0.950 . S
C726 C727 1.327 . S
C727 H721 0.950 . S
C727 C726 1.327 . S
C727 C731 1.429 . S
C728 C711 1.574 . S
C728 H722 0.949 1_554 S
C728 C732 1.368 . S
C729 C710 1.429 . S
C729 C723 1.429 . S
C729 C730 1.523 . S
C730 C711 1.368 . S
C730 C724 1.368 . S
C730 C729 1.523 . S
C731 C715 1.429 . S
C731 C727 1.429 . S
C731 C732 1.523 . S
C732 C716 1.368 . S
C732 C728 1.368 . S
C732 C731 1.523 . S
H733 C708 0.950 . S
H734 C710 0.950 . S
H735 C711 0.949 . S
H736 C713 0.950 . S
H737 C715 0.950 1_556 S
C738 C739 1.349 . S
C738 C740 1.327 . S
C738 H763 0.950 . S
C739 C738 1.349 . S
C739 C755 1.349 . S
C740 C738 1.327 . S
C740 C759 1.429 . S
C740 H764 0.950 . S
C741 C758 1.574 . S
C741 C760 1.368 . S
C741 H765 0.949 . S
H742 C746 0.949 1_554 S
C743 C744 1.349 . S
C743 C745 1.327 . S
C743 H766 0.950 . S
C744 C743 1.349 . S
C744 C756 1.349 1_556 S
C745 C743 1.327 . S
C745 C761 1.429 . S
C745 H767 0.950 . S
C746 H742 0.949 1_556 S
C746 C754 1.574 . S
C746 C762 1.368 . S
H747 C755 0.950 . S
H748 C753 0.950 . S
H749 C754 0.949 . S
H750 C756 0.950 . S
H751 C757 0.950 1_554 S
H752 C758 0.949 . S
C753 H748 0.950 . S
C753 C755 1.327 . S
C753 C759 1.429 . S
C754 C746 1.574 . S
C754 H749 0.949 . S
C754 C760 1.368 . S
C755 C739 1.349 . S
C755 H747 0.950 . S
C755 C753 1.327 . S
C756 C744 1.349 1_554 S
C756 H750 0.950 . S
C756 C757 1.327 1_554 S
C757 H751 0.950 1_556 S
C757 C756 1.327 1_556 S
C757 C761 1.429 . S
C758 C741 1.574 . S
C758 H752 0.949 . S
C758 C762 1.368 . S
C759 C740 1.429 . S
C759 C753 1.429 . S
C759 C760 1.523 . S
C760 C741 1.368 . S
C760 C754 1.368 . S
C760 C759 1.523 . S
C761 C745 1.429 . S
C761 C757 1.429 . S
C761 C762 1.523 . S
C762 C746 1.368 . S
C762 C758 1.368 . S
C762 C761 1.523 . S
H763 C738 0.950 . S
H764 C740 0.950 . S
H765 C741 0.949 . S
H766 C743 0.950 . S
H767 C745 0.950 . S
C768 C769 1.349 . S
C768 C770 1.327 . S
C768 H793 0.950 1_556 S
C769 C768 1.349 . S
C769 C785 1.349 . S
C770 C768 1.327 . S
C770 C789 1.429 . S
C770 H794 0.950 1_556 S
C771 C788 1.574 . S
C771 C790 1.368 . S
C771 H795 0.949 . S
H772 C776 0.949 . S
C773 C774 1.349 . S
C773 C775 1.327 . S
C773 H796 0.950 . S
C774 C773 1.349 . S
C774 C786 1.349 . S
C775 C773 1.327 . S
C775 C791 1.429 . S
C775 H797 0.950 . S
C776 H772 0.949 . S
C776 C784 1.574 . S
C776 C792 1.368 . S
H777 C785 0.950 . S
H778 C783 0.950 . S
H779 C784 0.949 . S
H780 C786 0.950 . S
H781 C787 0.950 . S
H782 C788 0.949 . S
C783 H778 0.950 . S
C783 C785 1.327 . S
C783 C789 1.429 . S
C784 C776 1.574 . S
C784 H779 0.949 . S
C784 C790 1.368 . S
C785 C769 1.349 . S
C785 H777 0.950 . S
C785 C783 1.327 . S
C786 C774 1.349 . S
C786 H780 0.950 . S
C786 C787 1.327 . S
C787 H781 0.950 . S
C787 C786 1.327 . S
C787 C791 1.429 . S
C788 C771 1.574 . S
C788 H782 0.949 . S
C788 C792 1.368 . S
C789 C770 1.429 . S
C789 C783 1.429 . S
C789 C790 1.523 . S
C790 C771 1.368 . S
C790 C784 1.368 . S
C790 C789 1.523 . S
C791 C775 1.429 . S
C791 C787 1.429 . S
C791 C792 1.523 . S
C792 C776 1.368 . S
C792 C788 1.368 . S
C792 C791 1.523 . S
H793 C768 0.950 1_554 S
H794 C770 0.950 1_554 S
H795 C771 0.949 . S
H796 C773 0.950 . S
H797 C775 0.950 . S
C798 C799 1.349 . S
C798 C800 1.327 . S
C798 H823 0.950 . S
C799 C798 1.349 . S
C799 C815 1.349 . S
C800 C798 1.327 . S
C800 C819 1.429 . S
C800 H824 0.950 . S
C801 C818 1.574 . S
C801 C820 1.368 . S
C801 H825 0.949 . S
H802 C806 0.949 . S
C803 C804 1.350 . S
C803 C805 1.327 . S
C803 H826 0.948 1_554 S
C804 C803 1.350 . S
C804 C816 1.349 . S
C805 C803 1.327 . S
C805 C821 1.429 . S
C805 H827 0.950 1_554 S
C806 H802 0.949 . S
C806 C814 1.574 . S
C806 C822 1.368 . S
H807 C815 0.950 . S
H808 C813 0.950 . S
H809 C814 0.949 . S
H810 C816 0.950 . S
H811 C817 0.950 . S
H812 C818 0.949 1_556 S
C813 H808 0.950 . S
C813 C815 1.327 . S
C813 C819 1.429 . S
C814 C806 1.574 . S
C814 H809 0.949 . S
C814 C820 1.368 . S
C815 C799 1.349 . S
C815 H807 0.950 . S
C815 C813 1.327 . S
C816 C804 1.349 . S
C816 H810 0.950 . S
C816 C817 1.327 . S
C817 H811 0.950 . S
C817 C816 1.327 . S
C817 C821 1.429 . S
C818 C801 1.574 . S
C818 H812 0.949 1_554 S
C818 C822 1.368 . S
C819 C800 1.429 . S
C819 C813 1.429 . S
C819 C820 1.523 . S
C820 C801 1.368 . S
C820 C814 1.368 . S
C820 C819 1.523 . S
C821 C805 1.429 . S
C821 C817 1.429 . S
C821 C822 1.523 . S
C822 C806 1.368 . S
C822 C818 1.368 . S
C822 C821 1.523 . S
H823 C798 0.950 . S
H824 C800 0.950 . S
H825 C801 0.949 . S
H826 C803 0.948 1_556 S
H827 C805 0.950 1_556 S
C828 C829 1.349 . S
C828 C830 1.327 1_455 S
C828 H853 0.950 . S
C829 C828 1.349 . S
C829 C845 1.349 . S
C830 C828 1.327 1_655 S
C830 C849 1.429 . S
C830 H854 0.950 . S
C831 C848 1.574 . S
C831 C850 1.368 . S
C831 H855 0.949 . S
H832 C836 0.949 . S
C833 C834 1.349 . S
C833 C835 1.327 . S
C833 H856 0.950 . S
C834 C833 1.349 . S
C834 C846 1.349 . S
C835 C833 1.327 . S
C835 C851 1.429 . S
C835 H857 0.950 . S
C836 H832 0.949 . S
C836 C844 1.574 . S
C836 C852 1.368 . S
H837 C845 0.950 . S
H838 C843 0.950 . S
H839 C844 0.949 . S
H840 C846 0.950 . S
H841 C847 0.950 . S
H842 C848 0.949 . S
C843 H838 0.950 . S
C843 C845 1.327 1_655 S
C843 C849 1.429 . S
C844 C836 1.574 . S
C844 H839 0.949 . S
C844 C850 1.368 . S
C845 C829 1.349 . S
C845 H837 0.950 . S
C845 C843 1.327 1_455 S
C846 C834 1.349 . S
C846 H840 0.950 . S
C846 C847 1.327 . S
C847 H841 0.950 . S
C847 C846 1.327 . S
C847 C851 1.429 . S
C848 C831 1.574 . S
C848 H842 0.949 . S
C848 C852 1.368 . S
C849 C830 1.429 . S
C849 C843 1.429 . S
C849 C850 1.523 . S
C850 C831 1.368 . S
C850 C844 1.368 . S
C850 C849 1.523 . S
C851 C835 1.429 . S
C851 C847 1.429 . S
C851 C852 1.523 . S
C852 C836 1.368 . S
C852 C848 1.368 . S
C852 C851 1.523 . S
H853 C828 0.950 . S
H854 C830 0.950 . S
H855 C831 0.949 . S
H856 C833 0.950 . S
H857 C835 0.950 . S
C858 C859 1.349 . S
C858 C860 1.327 . S
C858 H883 0.950 . S
C859 C858 1.349 . S
C859 C875 1.349 . S
C860 C858 1.327 . S
C860 C879 1.429 . S
C860 H884 0.950 . S
C861 C878 1.574 . S
C861 C880 1.368 . S
C861 H885 0.949 . S
H862 C866 0.949 . S
C863 C864 1.349 1_655 S
C863 C865 1.327 . S
C863 H886 0.950 . S
C864 C863 1.349 1_455 S
C864 C876 1.349 . S
C865 C863 1.327 . S
C865 C881 1.429 . S
C865 H887 0.950 . S
C866 H862 0.949 . S
C866 C874 1.574 . S
C866 C882 1.368 . S
H867 C875 0.950 . S
H868 C873 0.950 . S
H869 C874 0.949 . S
H870 C876 0.950 . S
H871 C877 0.950 . S
H872 C878 0.949 . S
C873 H868 0.950 . S
C873 C875 1.327 . S
C873 C879 1.429 . S
C874 C866 1.574 . S
C874 H869 0.949 . S
C874 C880 1.368 . S
C875 C859 1.349 . S
C875 H867 0.950 . S
C875 C873 1.327 . S
C876 C864 1.349 . S
C876 H870 0.950 . S
C876 C877 1.327 . S
C877 H871 0.950 . S
C877 C876 1.327 . S
C877 C881 1.429 1_455 S
C878 C861 1.574 . S
C878 H872 0.949 . S
C878 C882 1.368 . S
C879 C860 1.429 . S
C879 C873 1.429 . S
C879 C880 1.523 . S
C880 C861 1.368 . S
C880 C874 1.368 . S
C880 C879 1.523 . S
C881 C865 1.429 . S
C881 C877 1.429 1_655 S
C881 C882 1.523 . S
C882 C866 1.368 . S
C882 C878 1.368 . S
C882 C881 1.523 . S
H883 C858 0.950 . S
H884 C860 0.950 . S
H885 C861 0.949 . S
H886 C863 0.950 . S
H887 C865 0.950 . S
C888 C889 1.349 1_556 S
C888 C890 1.327 1_556 S
C888 H913 0.950 . S
C889 C888 1.349 1_554 S
C889 C905 1.349 . S
C890 C888 1.327 1_554 S
C890 C909 1.429 . S
C890 H914 0.950 1_554 S
C891 C908 1.574 . S
C891 C910 1.368 . S
C891 H915 0.949 . S
H892 C896 0.949 . S
C893 C894 1.349 . S
C893 C895 1.327 . S
C893 H916 0.950 . S
C894 C893 1.349 . S
C894 C906 1.349 . S
C895 C893 1.327 . S
C895 C911 1.429 . S
C895 H917 0.950 . S
C896 H892 0.949 . S
C896 C904 1.574 . S
C896 C912 1.368 . S
H897 C905 0.950 . S
H898 C903 0.950 . S
H899 C904 0.949 1_556 S
H900 C906 0.950 . S
H901 C907 0.950 . S
H902 C908 0.949 . S
C903 H898 0.950 . S
C903 C905 1.327 . S
C903 C909 1.429 . S
C904 C896 1.574 . S
C904 H899 0.949 1_554 S
C904 C910 1.368 . S
C905 C889 1.349 . S
C905 H897 0.950 . S
C905 C903 1.327 . S
C906 C894 1.349 . S
C906 H900 0.950 . S
C906 C907 1.327 . S
C907 H901 0.950 . S
C907 C906 1.327 . S
C907 C911 1.429 . S
C908 C891 1.574 . S
C908 H902 0.949 . S
C908 C912 1.368 . S
C909 C890 1.429 . S
C909 C903 1.429 . S
C909 C910 1.523 . S
C910 C891 1.368 . S
C910 C904 1.368 . S
C910 C909 1.523 . S
C911 C895 1.429 . S
C911 C907 1.429 . S
C911 C912 1.523 . S
C912 C896 1.368 . S
C912 C908 1.368 . S
C912 C911 1.523 . S
H913 C888 0.950 . S
H914 C890 0.950 1_556 S
H915 C891 0.949 . S
H916 C893 0.950 . S
H917 C895 0.950 . S
C918 C919 1.349 . S
C918 C920 1.327 . S
C918 H943 0.950 1_556 S
C919 C918 1.349 . S
C919 C935 1.349 . S
C920 C918 1.327 . S
C920 C939 1.429 . S
C920 H944 0.950 1_556 S
C921 C938 1.574 . S
C921 C940 1.368 . S
C921 H945 0.949 . S
H922 C926 0.949 . S
C923 C924 1.349 . S
C923 C925 1.327 . S
C923 H946 0.950 . S
C924 C923 1.349 . S
C924 C936 1.349 . S
C925 C923 1.327 . S
C925 C941 1.429 . S
C925 H947 0.950 . S
C926 H922 0.949 . S
C926 C934 1.574 . S
C926 C942 1.368 . S
H927 C935 0.950 . S
H928 C933 0.950 . S
H929 C934 0.949 . S
H930 C936 0.950 . S
H931 C937 0.950 . S
H932 C938 0.949 . S
C933 H928 0.950 . S
C933 C935 1.327 . S
C933 C939 1.429 . S
C934 C926 1.574 . S
C934 H929 0.949 . S
C934 C940 1.368 . S
C935 C919 1.349 . S
C935 H927 0.950 . S
C935 C933 1.327 . S
C936 C924 1.349 . S
C936 H930 0.950 . S
C936 C937 1.327 . S
C937 H931 0.950 . S
C937 C936 1.327 . S
C937 C941 1.429 . S
C938 C921 1.574 . S
C938 H932 0.949 . S
C938 C942 1.368 . S
C939 C920 1.429 . S
C939 C933 1.429 . S
C939 C940 1.523 . S
C940 C921 1.368 . S
C940 C934 1.368 . S
C940 C939 1.523 . S
C941 C925 1.429 . S
C941 C937 1.429 . S
C941 C942 1.523 . S
C942 C926 1.368 . S
C942 C938 1.368 . S
C942 C941 1.523 . S
H943 C918 0.950 1_554 S
H944 C920 0.950 1_554 S
H945 C921 0.949 . S
H946 C923 0.950 . S
H947 C925 0.950 . S
C948 C949 1.349 . S
C948 C950 1.327 . S
C948 H973 0.950 . S
C949 C948 1.349 . S
C949 C965 1.349 . S
C950 C948 1.327 . S
C950 C969 1.429 . S
C950 H974 0.950 . S
C951 C968 1.574 . S
C951 C970 1.368 . S
C951 H975 0.949 . S
H952 C956 0.949 . S
C953 C954 1.349 . S
C953 C955 1.327 . S
C953 H976 0.950 . S
C954 C953 1.349 . S
C954 C966 1.349 . S
C955 C953 1.327 . S
C955 C971 1.429 . S
C955 H977 0.950 . S
C956 H952 0.949 . S
C956 C964 1.574 . S
C956 C972 1.368 . S
H957 C965 0.950 . S
H958 C963 0.950 . S
H959 C964 0.949 . S
H960 C966 0.950 . S
H961 C967 0.950 . S
H962 C968 0.949 . S
C963 H958 0.950 . S
C963 C965 1.327 . S
C963 C969 1.429 . S
C964 C956 1.574 . S
C964 H959 0.949 . S
C964 C970 1.368 . S
C965 C949 1.349 . S
C965 H957 0.950 . S
C965 C963 1.327 . S
C966 C954 1.349 . S
C966 H960 0.950 . S
C966 C967 1.327 . S
C967 H961 0.950 . S
C967 C966 1.327 . S
C967 C971 1.429 . S
C968 C951 1.574 . S
C968 H962 0.949 . S
C968 C972 1.368 . S
C969 C950 1.429 . S
C969 C963 1.429 . S
C969 C970 1.523 . S
C970 C951 1.368 . S
C970 C964 1.368 . S
C970 C969 1.523 . S
C971 C955 1.429 . S
C971 C967 1.429 . S
C971 C972 1.523 . S
C972 C956 1.368 . S
C972 C968 1.368 . S
C972 C971 1.523 . S
H973 C948 0.950 . S
H974 C950 0.950 . S
H975 C951 0.949 . S
H976 C953 0.950 . S
H977 C955 0.950 . S
C978 C979 1.349 . S
C978 C980 1.327 . S
C978 H1003 0.950 . S
C979 C978 1.349 . S
C979 C995 1.349 . S
C980 C978 1.327 . S
C980 C999 1.429 . S
C980 H1004 0.950 . S
C981 C998 1.574 . S
C981 C1000 1.368 . S
C981 H1005 0.949 . S
H982 C986 0.949 . S
C983 C984 1.349 . S
C983 C985 1.327 . S
C983 H1006 0.950 . S
C984 C983 1.349 . S
C984 C996 1.349 . S
C985 C983 1.327 . S
C985 C1001 1.429 . S
C985 H1007 0.950 . S
C986 H982 0.949 . S
C986 C994 1.574 . S
C986 C1002 1.368 . S
H987 C995 0.950 . S
H988 C993 0.950 . S
H989 C994 0.949 . S
H990 C996 0.950 . S
H991 C997 0.950 . S
H992 C998 0.949 . S
C993 H988 0.950 . S
C993 C995 1.327 . S
C993 C999 1.429 . S
C994 C986 1.574 . S
C994 H989 0.949 . S
C994 C1000 1.368 . S
C995 C979 1.349 . S
C995 H987 0.950 . S
C995 C993 1.327 . S
C996 C984 1.349 . S
C996 H990 0.950 . S
C996 C997 1.327 . S
C997 H991 0.950 . S
C997 C996 1.327 . S
C997 C1001 1.429 . S
C998 C981 1.574 . S
C998 H992 0.949 . S
C998 C1002 1.368 . S
C999 C980 1.429 . S
C999 C993 1.429 . S
C999 C1000 1.523 . S
C1000 C981 1.368 . S
C1000 C994 1.368 . S
C1000 C999 1.523 . S
C1001 C985 1.429 . S
C1001 C997 1.429 . S
C1001 C1002 1.523 . S
C1002 C986 1.368 . S
C1002 C998 1.368 . S
C1002 C1001 1.523 . S
H1003 C978 0.950 . S
H1004 C980 0.950 . S
H1005 C981 0.949 . S
H1006 C983 0.950 . S
H1007 C985 0.950 . S
C1008 C1009 1.349 . S
C1008 C1010 1.327 . S
C1008 H1033 0.950 . S
C1009 C1008 1.349 . S
C1009 C1025 1.349 . S
C1010 C1008 1.327 . S
C1010 C1029 1.429 . S
C1010 H1034 0.950 . S
C1011 C1028 1.574 . S
C1011 C1030 1.368 1_556 S
C1011 H1035 0.949 1_556 S
H1012 C1016 0.949 1_556 S
C1013 C1014 1.349 . S
C1013 C1015 1.327 . S
C1013 H1036 0.950 . S
C1014 C1013 1.349 . S
C1014 C1026 1.349 . S
C1015 C1013 1.327 . S
C1015 C1031 1.429 . S
C1015 H1037 0.950 . S
C1016 H1012 0.949 1_554 S
C1016 C1024 1.574 . S
C1016 C1032 1.368 1_554 S
H1017 C1025 0.950 . S
H1018 C1023 0.950 . S
H1019 C1024 0.949 . S
H1020 C1026 0.950 . S
H1021 C1027 0.950 . S
H1022 C1028 0.949 . S
C1023 H1018 0.950 . S
C1023 C1025 1.327 . S
C1023 C1029 1.429 . S
C1024 C1016 1.574 . S
C1024 H1019 0.949 . S
C1024 C1030 1.368 1_565 S
C1025 C1009 1.349 . S
C1025 H1017 0.950 . S
C1025 C1023 1.327 . S
C1026 C1014 1.349 . S
C1026 H1020 0.950 . S
C1026 C1027 1.327 . S
C1027 H1021 0.950 . S
C1027 C1026 1.327 . S
C1027 C1031 1.429 . S
C1028 C1011 1.574 . S
C1028 H1022 0.949 . S
C1028 C1032 1.368 1_545 S
C1029 C1010 1.429 . S
C1029 C1023 1.429 . S
C1029 C1030 1.523 . S
C1030 C1011 1.368 1_554 S
C1030 C1024 1.368 1_545 S
C1030 C1029 1.523 . S
C1031 C1015 1.429 . S
C1031 C1027 1.429 . S
C1031 C1032 1.523 . S
C1032 C1016 1.368 1_556 S
C1032 C1028 1.368 1_565 S
C1032 C1031 1.523 . S
H1033 C1008 0.950 . S
H1034 C1010 0.950 . S
H1035 C1011 0.949 1_554 S
H1036 C1013 0.950 . S
H1037 C1015 0.950 . S
C1038 C1039 1.349 . S
C1038 C1040 1.327 . S
C1038 H1063 0.950 . S
C1039 C1038 1.349 . S
C1039 C1055 1.349 . S
C1040 C1038 1.327 . S
C1040 C1059 1.429 . S
C1040 H1064 0.950 . S
C1041 C1058 1.574 . S
C1041 C1060 1.368 . S
C1041 H1065 0.949 . S
H1042 C1046 0.949 . S
C1043 C1044 1.349 . S
C1043 C1045 1.327 . S
C1043 H1066 0.950 . S
C1044 C1043 1.349 . S
C1044 C1056 1.349 . S
C1045 C1043 1.327 . S
C1045 C1061 1.429 . S
C1045 H1067 0.950 . S
C1046 H1042 0.949 . S
C1046 C1054 1.574 . S
C1046 C1062 1.368 . S
H1047 C1055 0.950 . S
H1048 C1053 0.950 . S
H1049 C1054 0.949 . S
H1050 C1056 0.950 . S
H1051 C1057 0.950 . S
H1052 C1058 0.949 . S
C1053 H1048 0.950 . S
C1053 C1055 1.327 . S
C1053 C1059 1.429 . S
C1054 C1046 1.574 . S
C1054 H1049 0.949 . S
C1054 C1060 1.368 . S
C1055 C1039 1.349 . S
C1055 H1047 0.950 . S
C1055 C1053 1.327 . S
C1056 C1044 1.349 . S
C1056 H1050 0.950 . S
C1056 C1057 1.327 . S
C1057 H1051 0.950 . S
C1057 C1056 1.327 . S
C1057 C1061 1.429 . S
C1058 C1041 1.574 . S
C1058 H1052 0.949 . S
C1058 C1062 1.368 . S
C1059 C1040 1.429 . S
C1059 C1053 1.429 . S
C1059 C1060 1.523 . S
C1060 C1041 1.368 . S
C1060 C1054 1.368 . S
C1060 C1059 1.523 . S
C1061 C1045 1.429 . S
C1061 C1057 1.429 . S
C1061 C1062 1.523 . S
C1062 C1046 1.368 . S
C1062 C1058 1.368 . S
C1062 C1061 1.523 . S
H1063 C1038 0.950 . S
H1064 C1040 0.950 . S
H1065 C1041 0.949 . S
H1066 C1043 0.950 . S
H1067 C1045 0.950 . S
C1068 C1069 1.349 . S
C1068 C1070 1.327 . S
C1068 H1093 0.950 . S
C1069 C1068 1.349 . S
C1069 C1085 1.349 . S
C1070 C1068 1.327 . S
C1070 C1089 1.429 . S
C1070 H1094 0.950 . S
C1071 C1088 1.574 . S
C1071 C1090 1.368 . S
C1071 H1095 0.949 . S
H1072 C1076 0.949 . S
C1073 C1074 1.349 . S
C1073 C1075 1.327 . S
C1073 H1096 0.950 . S
C1074 C1073 1.349 . S
C1074 C1086 1.349 . S
C1075 C1073 1.327 . S
C1075 C1091 1.429 . S
C1075 H1097 0.950 . S
C1076 H1072 0.949 . S
C1076 C1084 1.574 . S
C1076 C1092 1.368 . S
H1077 C1085 0.950 . S
H1078 C1083 0.950 . S
H1079 C1084 0.949 . S
H1080 C1086 0.950 . S
H1081 C1087 0.950 . S
H1082 C1088 0.949 . S
C1083 H1078 0.950 . S
C1083 C1085 1.327 . S
C1083 C1089 1.429 . S
C1084 C1076 1.574 . S
C1084 H1079 0.949 . S
C1084 C1090 1.368 1_565 S
C1085 C1069 1.349 . S
C1085 H1077 0.950 . S
C1085 C1083 1.327 . S
C1086 C1074 1.349 . S
C1086 H1080 0.950 . S
C1086 C1087 1.327 . S
C1087 H1081 0.950 . S
C1087 C1086 1.327 . S
C1087 C1091 1.429 . S
C1088 C1071 1.574 . S
C1088 H1082 0.949 . S
C1088 C1092 1.368 1_545 S
C1089 C1070 1.429 . S
C1089 C1083 1.429 . S
C1089 C1090 1.523 . S
C1090 C1071 1.368 . S
C1090 C1084 1.368 1_545 S
C1090 C1089 1.523 . S
C1091 C1075 1.429 . S
C1091 C1087 1.429 . S
C1091 C1092 1.523 . S
C1092 C1076 1.368 . S
C1092 C1088 1.368 1_565 S
C1092 C1091 1.523 . S
H1093 C1068 0.950 . S
H1094 C1070 0.950 . S
H1095 C1071 0.949 . S
H1096 C1073 0.950 . S
H1097 C1075 0.950 . S
C1098 C1099 1.349 . S
C1098 C1100 1.327 . S
C1098 H1123 0.950 . S
C1099 C1098 1.349 . S
C1099 C1115 1.349 . S
C1100 C1098 1.327 . S
C1100 C1119 1.429 . S
C1100 H1124 0.950 . S
C1101 C1118 1.574 . S
C1101 C1120 1.368 . S
C1101 H1125 0.949 . S
H1102 C1106 0.949 . S
C1103 C1104 1.349 . S
C1103 C1105 1.327 . S
C1103 H1126 0.950 . S
C1104 C1103 1.349 . S
C1104 C1116 1.349 . S
C1105 C1103 1.327 . S
C1105 C1121 1.429 . S
C1105 H1127 0.950 . S
C1106 H1102 0.949 . S
C1106 C1114 1.574 . S
C1106 C1122 1.368 . S
H1107 C1115 0.950 . S
H1108 C1113 0.950 . S
H1109 C1114 0.949 . S
H1110 C1116 0.950 . S
H1111 C1117 0.950 . S
H1112 C1118 0.949 . S
C1113 H1108 0.950 . S
C1113 C1115 1.327 . S
C1113 C1119 1.429 . S
C1114 C1106 1.574 . S
C1114 H1109 0.949 . S
C1114 C1120 1.368 . S
C1115 C1099 1.349 . S
C1115 H1107 0.950 . S
C1115 C1113 1.327 . S
C1116 C1104 1.349 . S
C1116 H1110 0.950 . S
C1116 C1117 1.327 . S
C1117 H1111 0.950 . S
C1117 C1116 1.327 . S
C1117 C1121 1.429 . S
C1118 C1101 1.574 . S
C1118 H1112 0.949 . S
C1118 C1122 1.368 . S
C1119 C1100 1.429 . S
C1119 C1113 1.429 . S
C1119 C1120 1.523 . S
C1120 C1101 1.368 . S
C1120 C1114 1.368 . S
C1120 C1119 1.523 . S
C1121 C1105 1.429 . S
C1121 C1117 1.429 . S
C1121 C1122 1.523 . S
C1122 C1106 1.368 . S
C1122 C1118 1.368 . S
C1122 C1121 1.523 . S
H1123 C1098 0.950 . S
H1124 C1100 0.950 . S
H1125 C1101 0.949 . S
H1126 C1103 0.950 . S
H1127 C1105 0.950 . S
C1128 C1129 1.349 . S
C1128 C1130 1.327 . S
C1128 H1153 0.950 . S
C1129 C1128 1.349 . S
C1129 C1145 1.349 . S
C1130 C1128 1.327 . S
C1130 C1149 1.429 . S
C1130 H1154 0.950 . S
C1131 C1148 1.574 . S
C1131 C1150 1.368 . S
C1131 H1155 0.949 . S
H1132 C1136 0.949 . S
C1133 C1134 1.349 . S
C1133 C1135 1.327 . S
C1133 H1156 0.950 . S
C1134 C1133 1.349 . S
C1134 C1146 1.349 . S
C1135 C1133 1.327 . S
C1135 C1151 1.429 . S
C1135 H1157 0.950 . S
C1136 H1132 0.949 . S
C1136 C1144 1.574 . S
C1136 C1152 1.368 . S
H1137 C1145 0.950 . S
H1138 C1143 0.950 . S
H1139 C1144 0.949 . S
H1140 C1146 0.950 . S
H1141 C1147 0.950 . S
H1142 C1148 0.949 . S
C1143 H1138 0.950 . S
C1143 C1145 1.327 . S
C1143 C1149 1.429 . S
C1144 C1136 1.574 . S
C1144 H1139 0.949 . S
C1144 C1150 1.368 . S
C1145 C1129 1.349 . S
C1145 H1137 0.950 . S
C1145 C1143 1.327 . S
C1146 C1134 1.349 . S
C1146 H1140 0.950 . S
C1146 C1147 1.327 . S
C1147 H1141 0.950 . S
C1147 C1146 1.327 . S
C1147 C1151 1.429 . S
C1148 C1131 1.574 . S
C1148 H1142 0.949 . S
C1148 C1152 1.368 . S
C1149 C1130 1.429 . S
C1149 C1143 1.429 . S
C1149 C1150 1.523 . S
C1150 C1131 1.368 . S
C1150 C1144 1.368 . S
C1150 C1149 1.523 . S
C1151 C1135 1.429 . S
C1151 C1147 1.429 . S
C1151 C1152 1.523 . S
C1152 C1136 1.368 . S
C1152 C1148 1.368 . S
C1152 C1151 1.523 . S
H1153 C1128 0.950 . S
H1154 C1130 0.950 . S
H1155 C1131 0.949 . S
H1156 C1133 0.950 . S
H1157 C1135 0.950 . S
C1158 C1159 1.349 . S
C1158 C1160 1.327 . S
C1158 H1183 0.950 . S
C1159 C1158 1.349 . S
C1159 C1175 1.349 . S
C1160 C1158 1.327 . S
C1160 C1179 1.429 . S
C1160 H1184 0.950 . S
C1161 C1178 1.574 . S
C1161 C1180 1.368 . S
C1161 H1185 0.949 . S
H1162 C1166 0.949 . S
C1163 C1164 1.349 . S
C1163 C1165 1.327 . S
C1163 H1186 0.950 . S
C1164 C1163 1.349 . S
C1164 C1176 1.349 . S
C1165 C1163 1.327 . S
C1165 C1181 1.429 . S
C1165 H1187 0.950 . S
C1166 H1162 0.949 . S
C1166 C1174 1.574 . S
C1166 C1182 1.368 . S
H1167 C1175 0.950 . S
H1168 C1173 0.950 . S
H1169 C1174 0.949 . S
H1170 C1176 0.950 . S
H1171 C1177 0.950 . S
H1172 C1178 0.949 . S
C1173 H1168 0.950 . S
C1173 C1175 1.327 . S
C1173 C1179 1.429 . S
C1174 C1166 1.574 . S
C1174 H1169 0.949 . S
C1174 C1180 1.368 . S
C1175 C1159 1.349 . S
C1175 H1167 0.950 . S
C1175 C1173 1.327 . S
C1176 C1164 1.349 . S
C1176 H1170 0.950 . S
C1176 C1177 1.327 . S
C1177 H1171 0.950 . S
C1177 C1176 1.327 . S
C1177 C1181 1.429 . S
C1178 C1161 1.574 . S
C1178 H1172 0.949 . S
C1178 C1182 1.368 . S
C1179 C1160 1.429 . S
C1179 C1173 1.429 . S
C1179 C1180 1.523 . S
C1180 C1161 1.368 . S
C1180 C1174 1.368 . S
C1180 C1179 1.523 . S
C1181 C1165 1.429 . S
C1181 C1177 1.429 . S
C1181 C1182 1.523 . S
C1182 C1166 1.368 . S
C1182 C1178 1.368 . S
C1182 C1181 1.523 . S
H1183 C1158 0.950 . S
H1184 C1160 0.950 . S
H1185 C1161 0.949 . S
H1186 C1163 0.950 . S
H1187 C1165 0.950 . S
C1188 C1189 1.349 . S
C1188 C1190 1.327 . S
C1188 H1213 0.950 . S
C1189 C1188 1.349 . S
C1189 C1205 1.349 . S
C1190 C1188 1.327 . S
C1190 C1209 1.429 . S
C1190 H1214 0.950 . S
C1191 C1208 1.574 . S
C1191 C1210 1.368 . S
C1191 H1215 0.949 . S
H1192 C1196 0.949 . S
C1193 C1194 1.349 . S
C1193 C1195 1.327 . S
C1193 H1216 0.950 . S
C1194 C1193 1.349 . S
C1194 C1206 1.349 . S
C1195 C1193 1.327 . S
C1195 C1211 1.429 . S
C1195 H1217 0.950 . S
C1196 H1192 0.949 . S
C1196 C1204 1.574 . S
C1196 C1212 1.368 . S
H1197 C1205 0.950 . S
H1198 C1203 0.950 . S
H1199 C1204 0.949 . S
H1200 C1206 0.950 . S
H1201 C1207 0.950 . S
H1202 C1208 0.949 . S
C1203 H1198 0.950 . S
C1203 C1205 1.327 . S
C1203 C1209 1.429 . S
C1204 C1196 1.574 . S
C1204 H1199 0.949 . S
C1204 C1210 1.368 . S
C1205 C1189 1.349 . S
C1205 H1197 0.950 . S
C1205 C1203 1.327 . S
C1206 C1194 1.349 . S
C1206 H1200 0.950 . S
C1206 C1207 1.327 . S
C1207 H1201 0.950 . S
C1207 C1206 1.327 . S
C1207 C1211 1.429 . S
C1208 C1191 1.574 . S
C1208 H1202 0.949 . S
C1208 C1212 1.368 . S
C1209 C1190 1.429 . S
C1209 C1203 1.429 . S
C1209 C1210 1.523 . S
C1210 C1191 1.368 . S
C1210 C1204 1.368 . S
C1210 C1209 1.523 . S
C1211 C1195 1.429 . S
C1211 C1207 1.429 . S
C1211 C1212 1.523 . S
C1212 C1196 1.368 . S
C1212 C1208 1.368 . S
C1212 C1211 1.523 . S
H1213 C1188 0.950 . S
H1214 C1190 0.950 . S
H1215 C1191 0.949 . S
H1216 C1193 0.950 . S
H1217 C1195 0.950 . S
C1218 C1219 1.349 . S
C1218 C1220 1.327 . S
C1218 H1243 0.950 . S
C1219 C1218 1.349 . S
C1219 C1235 1.349 . S
C1220 C1218 1.327 . S
C1220 C1239 1.429 . S
C1220 H1244 0.950 . S
C1221 C1238 1.574 1_556 S
C1221 C1240 1.368 . S
C1221 H1245 0.949 . S
H1222 C1226 0.949 . S
C1223 C1224 1.349 . S
C1223 C1225 1.327 . S
C1223 H1246 0.950 . S
C1224 C1223 1.349 . S
C1224 C1236 1.349 . S
C1225 C1223 1.327 . S
C1225 C1241 1.429 . S
C1225 H1247 0.950 . S
C1226 H1222 0.949 . S
C1226 C1234 1.574 1_554 S
C1226 C1242 1.368 . S
H1227 C1235 0.950 . S
H1228 C1233 0.950 . S
H1229 C1234 0.949 . S
H1230 C1236 0.950 . S
H1231 C1237 0.950 . S
H1232 C1238 0.949 . S
C1233 H1228 0.950 . S
C1233 C1235 1.327 . S
C1233 C1239 1.429 . S
C1234 C1226 1.574 1_556 S
C1234 H1229 0.949 . S
C1234 C1240 1.368 . S
C1235 C1219 1.349 . S
C1235 H1227 0.950 . S
C1235 C1233 1.327 . S
C1236 C1224 1.349 . S
C1236 H1230 0.950 . S
C1236 C1237 1.327 . S
C1237 H1231 0.950 . S
C1237 C1236 1.327 . S
C1237 C1241 1.429 . S
C1238 C1221 1.574 1_554 S
C1238 H1232 0.949 . S
C1238 C1242 1.368 . S
C1239 C1220 1.429 . S
C1239 C1233 1.429 . S
C1239 C1240 1.523 . S
C1240 C1221 1.368 . S
C1240 C1234 1.368 . S
C1240 C1239 1.523 . S
C1241 C1225 1.429 . S
C1241 C1237 1.429 . S
C1241 C1242 1.523 . S
C1242 C1226 1.368 . S
C1242 C1238 1.368 . S
C1242 C1241 1.523 . S
H1243 C1218 0.950 . S
H1244 C1220 0.950 . S
H1245 C1221 0.949 . S
H1246 C1223 0.950 . S
H1247 C1225 0.950 . S
C1248 C1249 1.349 . S
C1248 C1250 1.327 1_554 S
C1248 H1273 0.950 . S
C1249 C1248 1.349 . S
C1249 C1265 1.349 . S
C1250 C1248 1.327 1_556 S
C1250 C1269 1.429 . S
C1250 H1274 0.950 . S
C1251 C1268 1.574 . S
C1251 C1270 1.368 . S
C1251 H1275 0.949 . S
H1252 C1256 0.949 . S
C1253 C1254 1.349 . S
C1253 C1255 1.327 . S
C1253 H1276 0.950 . S
C1254 C1253 1.349 . S
C1254 C1266 1.349 . S
C1255 C1253 1.327 . S
C1255 C1271 1.429 . S
C1255 H1277 0.950 . S
C1256 H1252 0.949 . S
C1256 C1264 1.574 . S
C1256 C1272 1.368 . S
H1257 C1265 0.950 . S
H1258 C1263 0.950 . S
H1259 C1264 0.949 . S
H1260 C1266 0.950 . S
H1261 C1267 0.950 . S
H1262 C1268 0.949 . S
C1263 H1258 0.950 . S
C1263 C1265 1.327 1_556 S
C1263 C1269 1.429 . S
C1264 C1256 1.574 . S
C1264 H1259 0.949 . S
C1264 C1270 1.368 . S
C1265 C1249 1.349 . S
C1265 H1257 0.950 . S
C1265 C1263 1.327 1_554 S
C1266 C1254 1.349 . S
C1266 H1260 0.950 . S
C1266 C1267 1.327 . S
C1267 H1261 0.950 . S
C1267 C1266 1.327 . S
C1267 C1271 1.429 . S
C1268 C1251 1.574 . S
C1268 H1262 0.949 . S
C1268 C1272 1.368 . S
C1269 C1250 1.429 . S
C1269 C1263 1.429 . S
C1269 C1270 1.523 . S
C1270 C1251 1.368 . S
C1270 C1264 1.368 . S
C1270 C1269 1.523 . S
C1271 C1255 1.429 . S
C1271 C1267 1.429 . S
C1271 C1272 1.523 . S
C1272 C1256 1.368 . S
C1272 C1268 1.368 . S
C1272 C1271 1.523 . S
H1273 C1248 0.950 . S
H1274 C1250 0.950 . S
H1275 C1251 0.949 . S
H1276 C1253 0.950 . S
H1277 C1255 0.950 . S
C1278 C1279 1.349 . S
C1278 C1280 1.327 . S
C1278 H1303 0.950 . S
C1279 C1278 1.349 . S
C1279 C1295 1.349 . S
C1280 C1278 1.327 . S
C1280 C1299 1.429 . S
C1280 H1304 0.950 . S
C1281 C1298 1.574 . S
C1281 C1300 1.368 . S
C1281 H1305 0.949 . S
H1282 C1286 0.949 1_556 S
C1283 C1284 1.349 . S
C1283 C1285 1.327 . S
C1283 H1306 0.950 . S
C1284 C1283 1.349 . S
C1284 C1296 1.349 . S
C1285 C1283 1.327 . S
C1285 C1301 1.429 . S
C1285 H1307 0.950 . S
C1286 H1282 0.949 1_554 S
C1286 C1294 1.574 . S
C1286 C1302 1.368 1_554 S
H1287 C1295 0.950 . S
H1288 C1293 0.950 . S
H1289 C1294 0.949 . S
H1290 C1296 0.950 . S
H1291 C1297 0.950 . S
H1292 C1298 0.949 1_556 S
C1293 H1288 0.950 . S
C1293 C1295 1.327 . S
C1293 C1299 1.429 . S
C1294 C1286 1.574 . S
C1294 H1289 0.949 . S
C1294 C1300 1.368 . S
C1295 C1279 1.349 . S
C1295 H1287 0.950 . S
C1295 C1293 1.327 . S
C1296 C1284 1.349 . S
C1296 H1290 0.950 . S
C1296 C1297 1.327 . S
C1297 H1291 0.950 . S
C1297 C1296 1.327 . S
C1297 C1301 1.429 . S
C1298 C1281 1.574 . S
C1298 H1292 0.949 1_554 S
C1298 C1302 1.368 1_554 S
C1299 C1280 1.429 . S
C1299 C1293 1.429 . S
C1299 C1300 1.523 . S
C1300 C1281 1.368 . S
C1300 C1294 1.368 . S
C1300 C1299 1.523 . S
C1301 C1285 1.429 . S
C1301 C1297 1.429 . S
C1301 C1302 1.523 . S
C1302 C1286 1.368 1_556 S
C1302 C1298 1.368 1_556 S
C1302 C1301 1.523 . S
H1303 C1278 0.950 . S
H1304 C1280 0.950 . S
H1305 C1281 0.949 . S
H1306 C1283 0.950 . S
H1307 C1285 0.950 . S
C1308 C1309 1.349 . S
C1308 C1310 1.327 . S
C1308 H1333 0.950 . S
C1309 C1308 1.349 . S
C1309 C1325 1.349 . S
C1310 C1308 1.327 . S
C1310 C1329 1.429 . S
C1310 H1334 0.950 . S
C1311 C1328 1.574 . S
C1311 C1330 1.368 . S
C1311 H1335 0.949 . S
H1312 C1316 0.949 . S
C1313 C1314 1.349 . S
C1313 C1315 1.327 . S
C1313 H1336 0.950 . S
C1314 C1313 1.349 . S
C1314 C1326 1.349 . S
C1315 C1313 1.327 . S
C1315 C1331 1.429 . S
C1315 H1337 0.950 . S
C1316 H1312 0.949 . S
C1316 C1324 1.574 . S
C1316 C1332 1.368 . S
H1317 C1325 0.950 . S
H1318 C1323 0.950 . S
H1319 C1324 0.949 . S
H1320 C1326 0.950 . S
H1321 C1327 0.950 . S
H1322 C1328 0.949 . S
C1323 H1318 0.950 . S
C1323 C1325 1.327 . S
C1323 C1329 1.429 . S
C1324 C1316 1.574 . S
C1324 H1319 0.949 . S
C1324 C1330 1.368 . S
C1325 C1309 1.349 . S
C1325 H1317 0.950 . S
C1325 C1323 1.327 . S
C1326 C1314 1.349 . S
C1326 H1320 0.950 . S
C1326 C1327 1.327 . S
C1327 H1321 0.950 . S
C1327 C1326 1.327 . S
C1327 C1331 1.429 . S
C1328 C1311 1.574 . S
C1328 H1322 0.949 . S
C1328 C1332 1.368 . S
C1329 C1310 1.429 . S
C1329 C1323 1.429 . S
C1329 C1330 1.523 . S
C1330 C1311 1.368 . S
C1330 C1324 1.368 . S
C1330 C1329 1.523 . S
C1331 C1315 1.429 . S
C1331 C1327 1.429 . S
C1331 C1332 1.523 . S
C1332 C1316 1.368 . S
C1332 C1328 1.368 . S
C1332 C1331 1.523 . S
H1333 C1308 0.950 . S
H1334 C1310 0.950 . S
H1335 C1311 0.949 . S
H1336 C1313 0.950 . S
H1337 C1315 0.950 . S
C1338 C1339 1.349 . S
C1338 C1340 1.327 . S
C1338 H1363 0.950 . S
C1339 C1338 1.349 . S
C1339 C1355 1.349 . S
C1340 C1338 1.327 . S
C1340 C1359 1.429 . S
C1340 H1364 0.950 . S
C1341 C1358 1.574 . S
C1341 C1360 1.368 . S
C1341 H1365 0.949 . S
H1342 C1346 0.949 . S
C1343 C1344 1.349 . S
C1343 C1345 1.327 . S
C1343 H1366 0.950 . S
C1344 C1343 1.349 . S
C1344 C1356 1.349 . S
C1345 C1343 1.327 . S
C1345 C1361 1.429 . S
C1345 H1367 0.950 . S
C1346 H1342 0.949 . S
C1346 C1354 1.574 . S
C1346 C1362 1.368 . S
H1347 C1355 0.950 . S
H1348 C1353 0.950 . S
H1349 C1354 0.949 . S
H1350 C1356 0.950 . S
H1351 C1357 0.950 . S
H1352 C1358 0.949 . S
C1353 H1348 0.950 . S
C1353 C1355 1.327 . S
C1353 C1359 1.429 . S
C1354 C1346 1.574 . S
C1354 H1349 0.949 . S
C1354 C1360 1.368 . S
C1355 C1339 1.349 . S
C1355 H1347 0.950 . S
C1355 C1353 1.327 . S
C1356 C1344 1.349 . S
C1356 H1350 0.950 . S
C1356 C1357 1.327 . S
C1357 H1351 0.950 . S
C1357 C1356 1.327 . S
C1357 C1361 1.429 . S
C1358 C1341 1.574 . S
C1358 H1352 0.949 . S
C1358 C1362 1.368 . S
C1359 C1340 1.429 . S
C1359 C1353 1.429 . S
C1359 C1360 1.523 . S
C1360 C1341 1.368 . S
C1360 C1354 1.368 . S
C1360 C1359 1.523 . S
C1361 C1345 1.429 . S
C1361 C1357 1.429 . S
C1361 C1362 1.523 . S
C1362 C1346 1.368 . S
C1362 C1358 1.368 . S
C1362 C1361 1.523 . S
H1363 C1338 0.950 . S
H1364 C1340 0.950 . S
H1365 C1341 0.949 . S
H1366 C1343 0.950 . S
H1367 C1345 0.950 . S
C1368 C1369 1.349 . S
C1368 C1370 1.327 . S
C1368 H1393 0.950 . S
C1369 C1368 1.349 . S
C1369 C1385 1.349 . S
C1370 C1368 1.327 . S
C1370 C1389 1.429 . S
C1370 H1394 0.950 . S
C1371 C1388 1.574 . S
C1371 C1390 1.368 . S
C1371 H1395 0.949 . S
H1372 C1376 0.949 . S
C1373 C1374 1.349 . S
C1373 C1375 1.327 1_556 S
C1373 H1396 0.950 . S
C1374 C1373 1.349 . S
C1374 C1386 1.349 . S
C1375 C1373 1.327 1_554 S
C1375 C1391 1.429 . S
C1375 H1397 0.950 . S
C1376 H1372 0.949 . S
C1376 C1384 1.574 . S
C1376 C1392 1.368 . S
H1377 C1385 0.950 . S
H1378 C1383 0.950 . S
H1379 C1384 0.949 . S
H1380 C1386 0.950 . S
H1381 C1387 0.950 . S
H1382 C1388 0.949 . S
C1383 H1378 0.950 . S
C1383 C1385 1.327 . S
C1383 C1389 1.429 . S
C1384 C1376 1.574 . S
C1384 H1379 0.949 . S
C1384 C1390 1.368 . S
C1385 C1369 1.349 . S
C1385 H1377 0.950 . S
C1385 C1383 1.327 . S
C1386 C1374 1.349 . S
C1386 H1380 0.950 . S
C1386 C1387 1.327 1_556 S
C1387 H1381 0.950 . S
C1387 C1386 1.327 1_554 S
C1387 C1391 1.429 . S
C1388 C1371 1.574 . S
C1388 H1382 0.949 . S
C1388 C1392 1.368 . S
C1389 C1370 1.429 . S
C1389 C1383 1.429 . S
C1389 C1390 1.523 . S
C1390 C1371 1.368 . S
C1390 C1384 1.368 . S
C1390 C1389 1.523 . S
C1391 C1375 1.429 . S
C1391 C1387 1.429 . S
C1391 C1392 1.523 . S
C1392 C1376 1.368 . S
C1392 C1388 1.368 . S
C1392 C1391 1.523 . S
H1393 C1368 0.950 . S
H1394 C1370 0.950 . S
H1395 C1371 0.949 . S
H1396 C1373 0.950 . S
H1397 C1375 0.950 . S
C1398 C1399 1.349 . S
C1398 C1400 1.327 . S
C1398 H1423 0.950 . S
C1399 C1398 1.349 . S
C1399 C1415 1.349 . S
C1400 C1398 1.327 . S
C1400 C1419 1.429 . S
C1400 H1424 0.950 . S
C1401 C1418 1.574 . S
C1401 C1420 1.368 . S
C1401 H1425 0.949 . S
H1402 C1406 0.949 . S
C1403 C1404 1.349 . S
C1403 C1405 1.327 . S
C1403 H1426 0.950 . S
C1404 C1403 1.349 . S
C1404 C1416 1.349 . S
C1405 C1403 1.327 . S
C1405 C1421 1.429 . S
C1405 H1427 0.950 . S
C1406 H1402 0.949 . S
C1406 C1414 1.574 . S
C1406 C1422 1.368 . S
H1407 C1415 0.950 . S
H1408 C1413 0.950 . S
H1409 C1414 0.949 . S
H1410 C1416 0.950 . S
H1411 C1417 0.950 . S
H1412 C1418 0.949 . S
C1413 H1408 0.950 . S
C1413 C1415 1.327 . S
C1413 C1419 1.429 . S
C1414 C1406 1.574 . S
C1414 H1409 0.949 . S
C1414 C1420 1.368 . S
C1415 C1399 1.349 . S
C1415 H1407 0.950 . S
C1415 C1413 1.327 . S
C1416 C1404 1.349 . S
C1416 H1410 0.950 . S
C1416 C1417 1.327 . S
C1417 H1411 0.950 . S
C1417 C1416 1.327 . S
C1417 C1421 1.429 . S
C1418 C1401 1.574 . S
C1418 H1412 0.949 . S
C1418 C1422 1.368 . S
C1419 C1400 1.429 . S
C1419 C1413 1.429 . S
C1419 C1420 1.523 . S
C1420 C1401 1.368 . S
C1420 C1414 1.368 . S
C1420 C1419 1.523 . S
C1421 C1405 1.429 . S
C1421 C1417 1.429 . S
C1421 C1422 1.523 . S
C1422 C1406 1.368 . S
C1422 C1418 1.368 . S
C1422 C1421 1.523 . S
H1423 C1398 0.950 . S
H1424 C1400 0.950 . S
H1425 C1401 0.949 . S
H1426 C1403 0.950 . S
H1427 C1405 0.950 . S
C1428 C1429 1.349 . S
C1428 C1430 1.327 . S
C1428 H1453 0.950 . S
C1429 C1428 1.349 . S
C1429 C1445 1.349 . S
C1430 C1428 1.327 . S
C1430 C1449 1.429 . S
C1430 H1454 0.950 . S
C1431 C1448 1.574 . S
C1431 C1450 1.368 . S
C1431 H1455 0.949 . S
H1432 C1436 0.949 . S
C1433 C1434 1.349 . S
C1433 C1435 1.327 . S
C1433 H1456 0.950 . S
C1434 C1433 1.349 . S
C1434 C1446 1.349 . S
C1435 C1433 1.327 . S
C1435 C1451 1.429 . S
C1435 H1457 0.950 . S
C1436 H1432 0.949 . S
C1436 C1444 1.574 . S
C1436 C1452 1.368 . S
H1437 C1445 0.950 . S
H1438 C1443 0.950 . S
H1439 C1444 0.949 . S
H1440 C1446 0.950 . S
H1441 C1447 0.950 . S
H1442 C1448 0.949 . S
C1443 H1438 0.950 . S
C1443 C1445 1.327 . S
C1443 C1449 1.429 . S
C1444 C1436 1.574 . S
C1444 H1439 0.949 . S
C1444 C1450 1.368 . S
C1445 C1429 1.349 . S
C1445 H1437 0.950 . S
C1445 C1443 1.327 . S
C1446 C1434 1.349 . S
C1446 H1440 0.950 . S
C1446 C1447 1.327 . S
C1447 H1441 0.950 . S
C1447 C1446 1.327 . S
C1447 C1451 1.429 . S
C1448 C1431 1.574 . S
C1448 H1442 0.949 . S
C1448 C1452 1.368 . S
C1449 C1430 1.429 . S
C1449 C1443 1.429 . S
C1449 C1450 1.523 . S
C1450 C1431 1.368 . S
C1450 C1444 1.368 . S
C1450 C1449 1.523 . S
C1451 C1435 1.429 . S
C1451 C1447 1.429 . S
C1451 C1452 1.523 . S
C1452 C1436 1.368 . S
C1452 C1448 1.368 . S
C1452 C1451 1.523 . S
H1453 C1428 0.950 . S
H1454 C1430 0.950 . S
H1455 C1431 0.949 . S
H1456 C1433 0.950 . S
H1457 C1435 0.950 . S
C1458 C1459 1.349 . S
C1458 C1460 1.327 . S
C1458 H1483 0.950 . S
C1459 C1458 1.349 . S
C1459 C1475 1.349 . S
C1460 C1458 1.327 . S
C1460 C1479 1.429 . S
C1460 H1484 0.950 . S
C1461 C1478 1.574 . S
C1461 C1480 1.368 . S
C1461 H1485 0.949 . S
H1462 C1466 0.949 1_554 S
C1463 C1464 1.349 . S
C1463 C1465 1.327 . S
C1463 H1486 0.950 . S
C1464 C1463 1.349 . S
C1464 C1476 1.349 . S
C1465 C1463 1.327 . S
C1465 C1481 1.429 . S
C1465 H1487 0.950 . S
C1466 H1462 0.949 1_556 S
C1466 C1474 1.574 . S
C1466 C1482 1.368 1_556 S
H1467 C1475 0.950 . S
H1468 C1473 0.950 . S
H1469 C1474 0.949 . S
H1470 C1476 0.950 . S
H1471 C1477 0.950 . S
H1472 C1478 0.949 1_554 S
C1473 H1468 0.950 . S
C1473 C1475 1.327 . S
C1473 C1479 1.429 . S
C1474 C1466 1.574 . S
C1474 H1469 0.949 . S
C1474 C1480 1.368 . S
C1475 C1459 1.349 . S
C1475 H1467 0.950 . S
C1475 C1473 1.327 . S
C1476 C1464 1.349 . S
C1476 H1470 0.950 . S
C1476 C1477 1.327 . S
C1477 H1471 0.950 . S
C1477 C1476 1.327 . S
C1477 C1481 1.429 . S
C1478 C1461 1.574 . S
C1478 H1472 0.949 1_556 S
C1478 C1482 1.368 1_556 S
C1479 C1460 1.429 . S
C1479 C1473 1.429 . S
C1479 C1480 1.523 . S
C1480 C1461 1.368 . S
C1480 C1474 1.368 . S
C1480 C1479 1.523 . S
C1481 C1465 1.429 . S
C1481 C1477 1.429 . S
C1481 C1482 1.523 . S
C1482 C1466 1.368 1_554 S
C1482 C1478 1.368 1_554 S
C1482 C1481 1.523 . S
H1483 C1458 0.950 . S
H1484 C1460 0.950 . S
H1485 C1461 0.949 . S
H1486 C1463 0.950 . S
H1487 C1465 0.950 . S
C1488 C1489 1.349 . S
C1488 C1490 1.327 . S
C1488 H1513 0.950 . S
C1489 C1488 1.349 . S
C1489 C1505 1.349 . S
C1490 C1488 1.327 . S
C1490 C1509 1.429 . S
C1490 H1514 0.950 . S
C1491 C1508 1.574 . S
C1491 C1510 1.368 1_556 S
C1491 H1515 0.949 1_556 S
H1492 C1496 0.949 . S
C1493 C1494 1.349 . S
C1493 C1495 1.327 . S
C1493 H1516 0.950 . S
C1494 C1493 1.349 . S
C1494 C1506 1.349 . S
C1495 C1493 1.327 . S
C1495 C1511 1.429 . S
C1495 H1517 0.950 . S
C1496 H1492 0.949 . S
C1496 C1504 1.574 . S
C1496 C1512 1.368 . S
H1497 C1505 0.950 . S
H1498 C1503 0.950 . S
H1499 C1504 0.949 1_554 S
H1500 C1506 0.950 . S
H1501 C1507 0.950 . S
H1502 C1508 0.949 . S
C1503 H1498 0.950 . S
C1503 C1505 1.327 . S
C1503 C1509 1.429 . S
C1504 C1496 1.574 . S
C1504 H1499 0.949 1_556 S
C1504 C1510 1.368 1_556 S
C1505 C1489 1.349 . S
C1505 H1497 0.950 . S
C1505 C1503 1.327 . S
C1506 C1494 1.349 . S
C1506 H1500 0.950 . S
C1506 C1507 1.327 . S
C1507 H1501 0.950 . S
C1507 C1506 1.327 . S
C1507 C1511 1.429 . S
C1508 C1491 1.574 . S
C1508 H1502 0.949 . S
C1508 C1512 1.368 . S
C1509 C1490 1.429 . S
C1509 C1503 1.429 . S
C1509 C1510 1.523 . S
C1510 C1491 1.368 1_554 S
C1510 C1504 1.368 1_554 S
C1510 C1509 1.523 . S
C1511 C1495 1.429 . S
C1511 C1507 1.429 . S
C1511 C1512 1.523 . S
C1512 C1496 1.368 . S
C1512 C1508 1.368 . S
C1512 C1511 1.523 . S
H1513 C1488 0.950 . S
H1514 C1490 0.950 . S
H1515 C1491 0.949 1_554 S
H1516 C1493 0.950 . S
H1517 C1495 0.950 . S
C1518 C1519 1.349 . S
C1518 C1520 1.327 . S
C1518 H1543 0.950 . S
C1519 C1518 1.349 . S
C1519 C1535 1.349 . S
C1520 C1518 1.327 . S
C1520 C1539 1.429 . S
C1520 H1544 0.950 . S
C1521 C1538 1.574 . S
C1521 C1540 1.368 . S
C1521 H1545 0.949 . S
H1522 C1526 0.949 . S
C1523 C1524 1.349 . S
C1523 C1525 1.327 . S
C1523 H1546 0.950 . S
C1524 C1523 1.349 . S
C1524 C1536 1.349 . S
C1525 C1523 1.327 . S
C1525 C1541 1.429 . S
C1525 H1547 0.950 . S
C1526 H1522 0.949 . S
C1526 C1534 1.574 . S
C1526 C1542 1.368 . S
H1527 C1535 0.950 . S
H1528 C1533 0.950 . S
H1529 C1534 0.949 . S
H1530 C1536 0.950 . S
H1531 C1537 0.950 . S
H1532 C1538 0.949 . S
C1533 H1528 0.950 . S
C1533 C1535 1.327 . S
C1533 C1539 1.429 . S
C1534 C1526 1.574 . S
C1534 H1529 0.949 . S
C1534 C1540 1.368 . S
C1535 C1519 1.349 . S
C1535 H1527 0.950 . S
C1535 C1533 1.327 . S
C1536 C1524 1.349 . S
C1536 H1530 0.950 . S
C1536 C1537 1.327 . S
C1537 H1531 0.950 . S
C1537 C1536 1.327 . S
C1537 C1541 1.429 . S
C1538 C1521 1.574 . S
C1538 H1532 0.949 . S
C1538 C1542 1.368 . S
C1539 C1520 1.429 . S
C1539 C1533 1.429 . S
C1539 C1540 1.523 . S
C1540 C1521 1.368 . S
C1540 C1534 1.368 . S
C1540 C1539 1.523 . S
C1541 C1525 1.429 . S
C1541 C1537 1.429 . S
C1541 C1542 1.523 . S
C1542 C1526 1.368 . S
C1542 C1538 1.368 . S
C1542 C1541 1.523 . S
H1543 C1518 0.950 . S
H1544 C1520 0.950 . S
H1545 C1521 0.949 . S
H1546 C1523 0.950 . S
H1547 C1525 0.950 . S
C1548 C1549 1.349 . S
C1548 C1550 1.327 . S
C1548 H1573 0.950 . S
C1549 C1548 1.349 . S
C1549 C1565 1.349 . S
C1550 C1548 1.327 . S
C1550 C1569 1.429 . S
C1550 H1574 0.950 . S
C1551 C1568 1.574 . S
C1551 C1570 1.368 . S
C1551 H1575 0.949 . S
H1552 C1556 0.949 . S
C1553 C1554 1.349 . S
C1553 C1555 1.327 . S
C1553 H1576 0.950 . S
C1554 C1553 1.349 . S
C1554 C1566 1.349 . S
C1555 C1553 1.327 . S
C1555 C1571 1.429 . S
C1555 H1577 0.950 . S
C1556 H1552 0.949 . S
C1556 C1564 1.574 . S
C1556 C1572 1.368 . S
H1557 C1565 0.950 . S
H1558 C1563 0.950 . S
H1559 C1564 0.949 . S
H1560 C1566 0.950 . S
H1561 C1567 0.950 . S
H1562 C1568 0.949 . S
C1563 H1558 0.950 . S
C1563 C1565 1.327 . S
C1563 C1569 1.429 . S
C1564 C1556 1.574 . S
C1564 H1559 0.949 . S
C1564 C1570 1.368 . S
C1565 C1549 1.349 . S
C1565 H1557 0.950 . S
C1565 C1563 1.327 . S
C1566 C1554 1.349 . S
C1566 H1560 0.950 . S
C1566 C1567 1.327 . S
C1567 H1561 0.950 . S
C1567 C1566 1.327 . S
C1567 C1571 1.429 . S
C1568 C1551 1.574 . S
C1568 H1562 0.949 . S
C1568 C1572 1.368 . S
C1569 C1550 1.429 . S
C1569 C1563 1.429 . S
C1569 C1570 1.523 . S
C1570 C1551 1.368 . S
C1570 C1564 1.368 . S
C1570 C1569 1.523 . S
C1571 C1555 1.429 . S
C1571 C1567 1.429 . S
C1571 C1572 1.523 . S
C1572 C1556 1.368 . S
C1572 C1568 1.368 . S
C1572 C1571 1.523 . S
H1573 C1548 0.950 . S
H1574 C1550 0.950 . S
H1575 C1551 0.949 . S
H1576 C1553 0.950 . S
H1577 C1555 0.950 . S
C1578 C1579 1.349 . S
C1578 C1580 1.327 . S
C1578 H1603 0.950 . S
C1579 C1578 1.349 . S
C1579 C1595 1.349 . S
C1580 C1578 1.327 . S
C1580 C1599 1.429 . S
C1580 H1604 0.950 . S
C1581 C1598 1.574 . S
C1581 C1600 1.368 . S
C1581 H1605 0.949 . S
H1582 C1586 0.949 1_556 S
C1583 C1584 1.349 . S
C1583 C1585 1.327 . S
C1583 H1606 0.950 . S
C1584 C1583 1.349 . S
C1584 C1596 1.349 . S
C1585 C1583 1.327 . S
C1585 C1601 1.429 . S
C1585 H1607 0.950 . S
C1586 H1582 0.949 1_554 S
C1586 C1594 1.574 . S
C1586 C1602 1.368 1_554 S
H1587 C1595 0.950 . S
H1588 C1593 0.950 . S
H1589 C1594 0.949 . S
H1590 C1596 0.950 . S
H1591 C1597 0.950 . S
H1592 C1598 0.949 1_556 S
C1593 H1588 0.950 . S
C1593 C1595 1.327 . S
C1593 C1599 1.429 . S
C1594 C1586 1.574 . S
C1594 H1589 0.949 . S
C1594 C1600 1.368 . S
C1595 C1579 1.349 . S
C1595 H1587 0.950 . S
C1595 C1593 1.327 . S
C1596 C1584 1.349 . S
C1596 H1590 0.950 . S
C1596 C1597 1.327 . S
C1597 H1591 0.950 . S
C1597 C1596 1.327 . S
C1597 C1601 1.429 . S
C1598 C1581 1.574 . S
C1598 H1592 0.949 1_554 S
C1598 C1602 1.368 1_554 S
C1599 C1580 1.429 . S
C1599 C1593 1.429 . S
C1599 C1600 1.523 . S
C1600 C1581 1.368 . S
C1600 C1594 1.368 . S
C1600 C1599 1.523 . S
C1601 C1585 1.429 . S
C1601 C1597 1.429 . S
C1601 C1602 1.523 . S
C1602 C1586 1.368 1_556 S
C1602 C1598 1.368 1_556 S
C1602 C1601 1.523 . S
H1603 C1578 0.950 . S
H1604 C1580 0.950 . S
H1605 C1581 0.949 . S
H1606 C1583 0.950 . S
H1607 C1585 0.950 . S
C1608 C1609 1.349 . S
C1608 C1610 1.327 . S
C1608 H1633 0.950 . S
C1609 C1608 1.349 . S
C1609 C1625 1.349 . S
C1610 C1608 1.327 . S
C1610 C1629 1.429 . S
C1610 H1634 0.950 . S
C1611 C1628 1.574 . S
C1611 C1630 1.368 . S
C1611 H1635 0.949 . S
H1612 C1616 0.949 . S
C1613 C1614 1.349 . S
C1613 C1615 1.327 . S
C1613 H1636 0.950 . S
C1614 C1613 1.349 . S
C1614 C1626 1.349 . S
C1615 C1613 1.327 . S
C1615 C1631 1.429 . S
C1615 H1637 0.950 . S
C1616 H1612 0.949 . S
C1616 C1624 1.574 . S
C1616 C1632 1.368 . S
H1617 C1625 0.950 . S
H1618 C1623 0.950 . S
H1619 C1624 0.949 . S
H1620 C1626 0.950 . S
H1621 C1627 0.950 . S
H1622 C1628 0.949 . S
C1623 H1618 0.950 . S
C1623 C1625 1.327 . S
C1623 C1629 1.429 . S
C1624 C1616 1.574 . S
C1624 H1619 0.949 . S
C1624 C1630 1.368 . S
C1625 C1609 1.349 . S
C1625 H1617 0.950 . S
C1625 C1623 1.327 . S
C1626 C1614 1.349 . S
C1626 H1620 0.950 . S
C1626 C1627 1.327 . S
C1627 H1621 0.950 . S
C1627 C1626 1.327 . S
C1627 C1631 1.429 . S
C1628 C1611 1.574 . S
C1628 H1622 0.949 . S
C1628 C1632 1.368 . S
C1629 C1610 1.429 . S
C1629 C1623 1.429 . S
C1629 C1630 1.523 . S
C1630 C1611 1.368 . S
C1630 C1624 1.368 . S
C1630 C1629 1.523 . S
C1631 C1615 1.429 . S
C1631 C1627 1.429 . S
C1631 C1632 1.523 . S
C1632 C1616 1.368 . S
C1632 C1628 1.368 . S
C1632 C1631 1.523 . S
H1633 C1608 0.950 . S
H1634 C1610 0.950 . S
H1635 C1611 0.949 . S
H1636 C1613 0.950 . S
H1637 C1615 0.950 . S
C1638 C1639 1.349 . S
C1638 C1640 1.327 1_554 S
C1638 H1663 0.950 . S
C1639 C1638 1.349 . S
C1639 C1655 1.349 . S
C1640 C1638 1.327 1_556 S
C1640 C1659 1.429 . S
C1640 H1664 0.950 . S
C1641 C1658 1.574 . S
C1641 C1660 1.368 . S
C1641 H1665 0.949 . S
H1642 C1646 0.949 . S
C1643 C1644 1.349 . S
C1643 C1645 1.327 . S
C1643 H1666 0.950 . S
C1644 C1643 1.349 . S
C1644 C1656 1.349 . S
C1645 C1643 1.327 . S
C1645 C1661 1.429 . S
C1645 H1667 0.950 . S
C1646 H1642 0.949 . S
C1646 C1654 1.574 . S
C1646 C1662 1.368 . S
H1647 C1655 0.950 . S
H1648 C1653 0.950 . S
H1649 C1654 0.949 . S
H1650 C1656 0.950 . S
H1651 C1657 0.950 . S
H1652 C1658 0.949 . S
C1653 H1648 0.950 . S
C1653 C1655 1.327 1_556 S
C1653 C1659 1.429 . S
C1654 C1646 1.574 . S
C1654 H1649 0.949 . S
C1654 C1660 1.368 . S
C1655 C1639 1.349 . S
C1655 H1647 0.950 . S
C1655 C1653 1.327 1_554 S
C1656 C1644 1.349 . S
C1656 H1650 0.950 . S
C1656 C1657 1.327 . S
C1657 H1651 0.950 . S
C1657 C1656 1.327 . S
C1657 C1661 1.429 . S
C1658 C1641 1.574 . S
C1658 H1652 0.949 . S
C1658 C1662 1.368 . S
C1659 C1640 1.429 . S
C1659 C1653 1.429 . S
C1659 C1660 1.523 . S
C1660 C1641 1.368 . S
C1660 C1654 1.368 . S
C1660 C1659 1.523 . S
C1661 C1645 1.429 . S
C1661 C1657 1.429 . S
C1661 C1662 1.523 . S
C1662 C1646 1.368 . S
C1662 C1658 1.368 . S
C1662 C1661 1.523 . S
H1663 C1638 0.950 . S
H1664 C1640 0.950 . S
H1665 C1641 0.949 . S
H1666 C1643 0.950 . S
H1667 C1645 0.950 . S
C1668 C1669 1.349 . S
C1668 C1670 1.327 . S
C1668 H1693 0.950 . S
C1669 C1668 1.349 . S
C1669 C1685 1.349 . S
C1670 C1668 1.327 . S
C1670 C1689 1.429 . S
C1670 H1694 0.950 . S
C1671 C1688 1.574 . S
C1671 C1690 1.368 . S
C1671 H1695 0.949 . S
H1672 C1676 0.949 . S
C1673 C1674 1.349 . S
C1673 C1675 1.327 . S
C1673 H1696 0.950 . S
C1674 C1673 1.349 . S
C1674 C1686 1.349 . S
C1675 C1673 1.327 . S
C1675 C1691 1.429 . S
C1675 H1697 0.950 . S
C1676 H1672 0.949 . S
C1676 C1684 1.574 . S
C1676 C1692 1.368 . S
H1677 C1685 0.950 . S
H1678 C1683 0.950 . S
H1679 C1684 0.949 . S
H1680 C1686 0.950 . S
H1681 C1687 0.950 . S
H1682 C1688 0.949 . S
C1683 H1678 0.950 . S
C1683 C1685 1.327 . S
C1683 C1689 1.429 . S
C1684 C1676 1.574 . S
C1684 H1679 0.949 . S
C1684 C1690 1.368 . S
C1685 C1669 1.349 . S
C1685 H1677 0.950 . S
C1685 C1683 1.327 . S
C1686 C1674 1.349 . S
C1686 H1680 0.950 . S
C1686 C1687 1.327 . S
C1687 H1681 0.950 . S
C1687 C1686 1.327 . S
C1687 C1691 1.429 . S
C1688 C1671 1.574 . S
C1688 H1682 0.949 . S
C1688 C1692 1.368 . S
C1689 C1670 1.429 . S
C1689 C1683 1.429 . S
C1689 C1690 1.523 . S
C1690 C1671 1.368 . S
C1690 C1684 1.368 . S
C1690 C1689 1.523 . S
C1691 C1675 1.429 . S
C1691 C1687 1.429 . S
C1691 C1692 1.523 . S
C1692 C1676 1.368 . S
C1692 C1688 1.368 . S
C1692 C1691 1.523 . S
H1693 C1668 0.950 . S
H1694 C1670 0.950 . S
H1695 C1671 0.949 . S
H1696 C1673 0.950 . S
H1697 C1675 0.950 . S
C1698 C1699 1.349 . S
C1698 C1700 1.327 . S
C1698 H1723 0.950 . S
C1699 C1698 1.349 . S
C1699 C1715 1.349 . S
C1700 C1698 1.327 . S
C1700 C1719 1.429 . S
C1700 H1724 0.950 . S
C1701 C1718 1.574 . S
C1701 C1720 1.368 . S
C1701 H1725 0.949 . S
H1702 C1706 0.949 . S
C1703 C1704 1.349 . S
C1703 C1705 1.327 1_556 S
C1703 H1726 0.950 . S
C1704 C1703 1.349 . S
C1704 C1716 1.349 . S
C1705 C1703 1.327 1_554 S
C1705 C1721 1.429 . S
C1705 H1727 0.950 . S
C1706 H1702 0.949 . S
C1706 C1714 1.574 . S
C1706 C1722 1.368 . S
H1707 C1715 0.950 . S
H1708 C1713 0.950 . S
H1709 C1714 0.949 . S
H1710 C1716 0.950 . S
H1711 C1717 0.950 . S
H1712 C1718 0.949 . S
C1713 H1708 0.950 . S
C1713 C1715 1.327 . S
C1713 C1719 1.429 . S
C1714 C1706 1.574 . S
C1714 H1709 0.949 . S
C1714 C1720 1.368 . S
C1715 C1699 1.349 . S
C1715 H1707 0.950 . S
C1715 C1713 1.327 . S
C1716 C1704 1.349 . S
C1716 H1710 0.950 . S
C1716 C1717 1.327 1_556 S
C1717 H1711 0.950 . S
C1717 C1716 1.327 1_554 S
C1717 C1721 1.429 . S
C1718 C1701 1.574 . S
C1718 H1712 0.949 . S
C1718 C1722 1.368 . S
C1719 C1700 1.429 . S
C1719 C1713 1.429 . S
C1719 C1720 1.523 . S
C1720 C1701 1.368 . S
C1720 C1714 1.368 . S
C1720 C1719 1.523 . S
C1721 C1705 1.429 . S
C1721 C1717 1.429 . S
C1721 C1722 1.523 . S
C1722 C1706 1.368 . S
C1722 C1718 1.368 . S
C1722 C1721 1.523 . S
H1723 C1698 0.950 . S
H1724 C1700 0.950 . S
H1725 C1701 0.949 . S
H1726 C1703 0.950 . S
H1727 C1705 0.950 . S
C529 C259 1.454 . S
C534 C28 1.455 . S
C559 C61 1.454 . S
C564 C160 1.455 . S
C589 C94 1.522 . S
C594 C193 1.526 . S
C619 C226 1.522 . S
C624 C127 1.526 . S
C649 C380 1.547 . S
C654 C149 1.549 . S
C679 C281 1.547 . S
C684 C17 1.549 . S
C709 C215 1.603 . S
C714 C347 1.606 . S
C739 C83 1.603 . S
C744 C314 1.606 . S
C769 C325 1.525 . S
C774 C424 1.523 . S
C799 C490 1.522 . S
C804 C358 1.526 . S
C829 C457 1.455 . S
C834 C292 1.454 . S
C859 C391 1.454 . S
C864 C523 1.455 . S
C889 C116 1.605 . S
C894 C479 1.603 . S
C919 C182 1.605 . S
C924 C413 1.603 . S
C949 C50 1.547 . S
C954 C512 1.549 . S
C979 C248 1.547 . S
C984 C446 1.549 . S
C1009 C8 1.078 . S
C1014 C140 1.078 . S
C1039 C173 1.106 . S
C1044 C41 1.104 . S
C1069 C206 1.330 . S
C1074 C74 1.330 . S
C1099 C107 1.106 . S
C1104 C239 1.104 . S
C1129 C338 1.106 . S
C1134 C272 1.104 . S
C1159 C305 1.106 . S
C1164 C371 1.104 . S
C1189 C404 1.330 . S
C1194 C470 1.330 . S
C1219 C503 1.078 . S
C1224 C437 1.078 . S
C1249 N14 0.777 . S
C1254 N5 0.777 . S
C1279 N47 0.771 . S
C1284 N38 0.771 . S
C1309 N71 0.801 . S
C1314 N80 0.801 . S
C1339 N104 0.779 . S
C1344 N113 0.779 . S
C1369 N137 0.777 . S
C1374 N146 0.777 . S
C1399 N170 0.779 . S
C1404 N179 0.779 . S
C1429 N212 0.801 . S
C1434 N203 0.801 . S
C1459 N245 0.771 . S
C1464 N236 0.771 . S
C1489 N269 0.771 . S
C1494 N278 0.771 . S
C1519 N302 0.779 . S
C1524 N311 0.779 . S
C1549 N344 0.779 . S
C1554 N335 0.779 . S
C1579 N377 0.771 . S
C1584 N368 0.771 . S
C1609 N410 0.801 . S
C1614 N401 0.801 . S
C1639 N443 0.777 . S
C1644 N434 0.777 . S
C1669 N476 0.801 . S
C1674 N467 0.801 . S
C1699 N500 0.777 . S
C1704 N509 0.777 . S
