# Generated by pormake.
# Topology qtz-e, (6)-cn, num edge types: 1
# Building blocks:
#     Node 0, Type 0, BuildingBlock: BETDIP_clean_sbu_0, # of connection points: 6
#     Node 1, Type 0, BuildingBlock: BETDIP_clean_sbu_0, # of connection points: 6
#     Node 2, Type 0, BuildingBlock: BETDIP_clean_sbu_0, # of connection points: 6
#     Node 3, Type 0, BuildingBlock: BETDIP_clean_sbu_0, # of connection points: 6
#     Node 4, Type 0, BuildingBlock: BETDIP_clean_sbu_0, # of connection points: 6
#     Node 5, Type 0, BuildingBlock: BETDIP_clean_sbu_0, # of connection points: 6
#     Edge 6, Type (0, 0), BuildingBlock: FUNLAD_clean_linker_0, # of connection points: 2
#     Edge 7, Type (0, 0), BuildingBlock: FUNLAD_clean_linker_0, # of connection points: 2
#     Edge 8, Type (0, 0), BuildingBlock: FUNLAD_clean_linker_0, # of connection points: 2
#     Edge 9, Type (0, 0), BuildingBlock: FUNLAD_clean_linker_0, # of connection points: 2
#     Edge 10, Type (0, 0), BuildingBlock: FUNLAD_clean_linker_0, # of connection points: 2
#     Edge 11, Type (0, 0), BuildingBlock: FUNLAD_clean_linker_0, # of connection points: 2
#     Edge 12, Type (0, 0), BuildingBlock: FUNLAD_clean_linker_0, # of connection points: 2
#     Edge 13, Type (0, 0), BuildingBlock: FUNLAD_clean_linker_0, # of connection points: 2
#     Edge 14, Type (0, 0), BuildingBlock: FUNLAD_clean_linker_0, # of connection points: 2
#     Edge 15, Type (0, 0), BuildingBlock: FUNLAD_clean_linker_0, # of connection points: 2
#     Edge 16, Type (0, 0), BuildingBlock: FUNLAD_clean_linker_0, # of connection points: 2
#     Edge 17, Type (0, 0), BuildingBlock: FUNLAD_clean_linker_0, # of connection points: 2
#     Edge 18, Type (0, 0), BuildingBlock: FUNLAD_clean_linker_0, # of connection points: 2
#     Edge 19, Type (0, 0), BuildingBlock: FUNLAD_clean_linker_0, # of connection points: 2
#     Edge 20, Type (0, 0), BuildingBlock: FUNLAD_clean_linker_0, # of connection points: 2
#     Edge 21, Type (0, 0), BuildingBlock: FUNLAD_clean_linker_0, # of connection points: 2
#     Edge 22, Type (0, 0), BuildingBlock: FUNLAD_clean_linker_0, # of connection points: 2
#     Edge 23, Type (0, 0), BuildingBlock: FUNLAD_clean_linker_0, # of connection points: 2
# Relax obj value: 0.126
# Max RMSD: 0.192
# Mean RMSD: 0.192
data_MOF--net-qtz-e--node1-BETDIP_clean_sbu_0--edge1-FUNLAD_clean_linker_0
_symmetry_space_group_name_H-M    P1
_symmetry_Int_Tables_number       1
_symmetry_cell_setting            triclinic
loop_
_symmetry_equiv_pos_as_xyz
'x, y, z'
_cell_length_a     29.133668
_cell_length_b     29.286157
_cell_length_c     57.836954
_cell_angle_alpha  89.99014
_cell_angle_beta   90.007477
_cell_angle_gamma 119.85296
loop_
_atom_site_label
_atom_site_type_symbol
_atom_site_fract_x
_atom_site_fract_y
_atom_site_fract_z
_atom_type_partial_charge
Tb0 Tb 0.16765 0.44974 0.0581 0.0
Tb1 Tb 0.15819 0.34439 0.04621 0.0
C2 C 0.14872 0.51903 0.07347 0.0
C3 C 0.14566 0.53548 0.09731 0.0
C4 C 0.12668 0.57029 0.10147 0.0
C5 C 0.12598 0.58769 0.12401 0.0
C6 C 0.14441 0.57065 0.14282 0.0
C7 C 0.16263 0.53504 0.13853 0.0
C8 C 0.16327 0.51769 0.11603 0.0
C9 C 0.25226 0.44322 0.06593 0.0
C10 C 0.12081 0.35327 0.09507 0.0
C11 C 0.17697 0.27577 0.03008 0.0
C12 C 0.1983 0.27106 1.00748 0.0
C13 C 0.24904 0.30927 0.99997 0.0
C14 C 0.2665 0.30686 0.9777 0.0
C15 C 0.23377 0.26612 0.96242 0.0
C16 C 0.1836 0.22716 0.97022 0.0
C17 C 0.16615 0.2296 0.99249 0.0
C18 C 0.07562 0.35478 0.03703 0.0
C19 C 0.20899 0.44107 1.01015 0.0
O20 O 0.11153 0.47176 0.0674 0.0
O21 O 0.19572 0.52861 0.06696 0.0
O22 O 0.20541 0.40723 0.06912 0.0
O23 O 0.25324 0.48621 0.05987 0.0
O24 O 0.12625 0.39894 0.08807 0.0
O25 O 0.13653 0.32624 0.08221 0.0
O26 O 0.20948 0.31359 0.04391 0.0
O27 O 0.13024 0.27185 0.02936 0.0
O28 O 0.12322 0.38851 0.0344 0.0
O29 O 0.07164 0.31124 0.04455 0.0
O30 O 0.20734 0.39804 1.01847 0.0
O31 O 0.1863 0.46423 0.02133 0.0
H32 H 0.11306 0.58461 0.08727 0.0
H33 H 0.11217 0.61547 0.1266 0.0
H34 H 0.17632 0.52041 0.15258 0.0
H35 H 0.17808 0.49077 0.11323 0.0
H36 H 0.27499 0.3417 1.01111 0.0
H37 H 0.3057 0.33706 0.97246 0.0
H38 H 0.15709 0.1955 0.95889 0.0
H39 H 0.12686 0.19968 0.99781 0.0
Tb40 Tb 0.73172 0.18819 0.39892 0.0
Tb41 Tb 0.82304 0.17358 0.38336 0.0
C42 C 0.64712 0.1846 0.41031 0.0
C43 C 0.62533 0.18262 0.43359 0.0
C44 C 0.63725 0.15892 0.452 0.0
C45 C 0.61963 0.15972 0.47437 0.0
C46 C 0.58985 0.18451 0.47896 0.0
C47 C 0.57754 0.20786 0.46044 0.0
C48 C 0.59514 0.2069 0.43796 0.0
C49 C 0.82551 0.25726 0.41552 0.0
C50 C 0.77604 0.13465 0.43214 0.0
C51 C 0.90673 0.18406 0.36601 0.0
C52 C 0.93602 0.20924 0.34465 0.0
C53 C 0.93731 0.25446 0.3357 0.0
C54 C 0.95813 0.27306 0.31368 0.0
C55 C -0.02221 0.24661 0.30016 0.0
C56 C -0.02183 0.2025 0.30958 0.0
C57 C 0.95745 0.18402 0.3316 0.0
C58 C 0.7275 0.09156 0.37946 0.0
C59 C 0.77648 0.22576 0.34854 0.0
O60 O 0.65002 0.14287 0.4043 0.0
O61 O 0.6903 0.22869 0.40511 0.0
O62 O 0.81542 0.23837 0.39544 0.0
O63 O 0.78158 0.23833 0.42684 0.0
O64 O 0.73303 0.13374 0.42419 0.0
O65 O 0.82101 0.15702 0.42032 0.0
O66 O 0.90619 0.21499 0.38232 0.0
O67 O 0.86003 0.14297 0.36256 0.0
O68 O 0.74189 0.1387 0.37547 0.0
O69 O 0.76789 0.08795 0.38643 0.0
O70 O 0.81197 0.21097 0.3527 0.0
O71 O 0.74024 0.21973 0.36399 0.0
H72 H 0.66098 0.14042 0.44921 0.0
H73 H 0.63067 0.14212 0.4882 0.0
H74 H 0.5543 0.2269 0.46332 0.0
H75 H 0.58574 0.22568 0.42406 0.0
H76 H 0.92045 0.27429 0.34534 0.0
H77 H 0.95674 0.30679 0.30685 0.0
H78 H -0.00628 0.18172 0.29976 0.0
H79 H 0.95652 0.14888 0.33813 0.0
Tb80 Tb 0.5003 0.70943 0.7262 0.0
Tb81 Tb 0.59494 0.81474 0.71706 0.0
C82 C 0.43986 0.61792 0.74075 0.0
C83 C 0.41966 0.60202 0.76445 0.0
C84 C 0.38936 0.54886 0.77066 0.0
C85 C 0.36827 0.53491 0.79305 0.0
C86 C 0.377 0.57401 0.80946 0.0
C87 C 0.40839 0.62719 0.80317 0.0
C88 C 0.42943 0.641 0.78094 0.0
C89 C 0.48626 0.78908 0.73591 0.0
C90 C 0.58995 0.76826 0.76539 0.0
C91 C 0.65585 0.90686 0.70322 0.0
C92 C 0.66673 0.93123 0.67993 0.0
C93 C 0.62845 0.93792 0.66798 0.0
C94 C 0.63749 0.95649 0.64523 0.0
C95 C 0.68492 0.96868 0.63381 0.0
C96 C 0.72383 0.9635 0.64605 0.0
C97 C 0.71488 0.94519 0.66886 0.0
C98 C 0.60542 0.73269 0.7076 0.0
C99 C 0.50566 0.75598 0.6778 0.0
O100 O 0.49094 0.63743 0.73816 0.0
O101 O 0.42308 0.64651 0.73033 0.0
O102 O 0.52787 0.78724 0.73934 0.0
O103 O 0.44963 0.74395 0.72852 0.0
O104 O 0.55134 0.72372 0.75668 0.0
O105 O 0.60949 0.81298 0.75376 0.0
O106 O 0.609 0.89165 0.7121 0.0
O107 O 0.67095 0.87209 0.70648 0.0
O108 O 0.56617 0.73795 0.70391 0.0
O109 O 0.64279 0.7752 0.71689 0.0
O110 O 0.54334 0.80108 0.68663 0.0
O111 O 0.48835 0.71118 0.68922 0.0
H112 H 0.38137 0.51825 0.75815 0.0
H113 H 0.34405 0.4936 0.79733 0.0
H114 H 0.41667 0.65826 0.81547 0.0
H115 H 0.45278 0.68233 0.77649 0.0
H116 H 0.59097 0.92784 0.67598 0.0
H117 H 0.60706 0.961 0.63654 0.0
H118 H 0.76063 0.97205 0.63781 0.0
H119 H 0.74517 0.94058 0.67766 0.0
Tb120 Tb 0.77913 0.52169 0.06651 0.0
Tb121 Tb 0.77902 0.61782 0.04619 0.0
C122 C 0.79056 0.446 0.07949 0.0
C123 C 0.79304 0.42717 0.10281 0.0
C124 C 0.8022 0.38489 0.10578 0.0
C125 C 0.80423 0.36705 0.12805 0.0
C126 C 0.79706 0.39124 0.14772 0.0
C127 C 0.78825 0.43391 0.14454 0.0
C128 C 0.78627 0.45165 0.12233 0.0
C129 C 0.69919 0.5345 0.07879 0.0
C130 C 0.8228 0.62225 0.09728 0.0
C131 C 0.76354 0.69025 0.03242 0.0
C132 C 0.74375 0.69757 1.00999 0.0
C133 C 0.70319 0.65431 0.99822 0.0
C134 C 0.68842 0.66021 0.97593 0.0
C135 C 0.71397 0.70947 0.9648 0.0
C136 C 0.75359 0.75306 0.97688 0.0
C137 C 0.76842 0.74709 0.99924 0.0
C138 C 0.85715 0.6025 0.03336 0.0
C139 C 0.73443 0.51696 1.01591 0.0
O140 O 0.83007 0.49235 0.07403 0.0
O141 O 0.74483 0.44106 0.07374 0.0
O142 O 0.72079 0.54341 0.05927 0.0
O143 O 0.72068 0.51469 0.092 0.0
O144 O 0.8228 0.57785 0.09329 0.0
O145 O 0.80408 0.64298 0.0821 0.0
O146 O 0.7296 0.65085 0.04522 0.0
O147 O 0.80987 0.69322 0.03168 0.0
O148 O 0.83664 0.59555 0.05303 0.0
O149 O 0.83482 0.62094 1.01984 0.0
O150 O 0.73017 0.55862 0.02114 0.0
O151 O 0.75885 0.49976 0.02984 0.0
H152 H 0.80757 0.36556 0.0909 0.0
H153 H 0.81063 0.33383 0.12984 0.0
H154 H 0.78349 0.45408 0.15924 0.0
H155 H 0.77946 0.48458 0.1204 0.0
H156 H 0.68347 0.6156 1.00606 0.0
H157 H 0.65714 0.62597 0.96734 0.0
H158 H 0.77438 0.79145 0.96876 0.0
H159 H 0.80013 0.78088 1.00791 0.0
Tb160 Tb 0.2333 0.77694 0.39524 0.0
Tb161 Tb 0.15634 0.81114 0.37858 0.0
C162 C 0.31128 0.76765 0.40658 0.0
C163 C 0.33333 0.76476 0.42925 0.0
C164 C 0.38505 0.80344 0.43517 0.0
C165 C 0.4051 0.80457 0.45729 0.0
C166 C 0.37394 0.76679 0.47401 0.0
C167 C 0.32255 0.72729 0.46782 0.0
C168 C 0.30239 0.7264 0.44575 0.0
C169 C 0.13516 0.71776 0.40973 0.0
C170 C 0.19605 0.83657 0.42899 0.0
C171 C 0.08308 0.8187 0.35945 0.0
C172 C 0.06214 0.80719 0.33566 0.0
C173 C 0.00742 0.78125 0.33168 0.0
C174 C -0.01237 0.76849 0.3091 0.0
C175 C 0.02236 0.78139 0.29019 0.0
C176 C 0.07715 0.80829 0.29429 0.0
C177 C 0.09681 0.82094 0.31674 0.0
C178 C 0.25757 0.88214 0.37752 0.0
C179 C 0.19155 0.74921 0.34366 0.0
O180 O 0.31447 0.813 0.40207 0.0
O181 O 0.26536 0.72751 0.40054 0.0
O182 O 0.14958 0.73868 0.39011 0.0
O183 O 0.17687 0.72793 0.42157 0.0
O184 O 0.23644 0.83099 0.42214 0.0
O185 O 0.15408 0.82226 0.41566 0.0
O186 O 0.07471 0.77812 0.37211 0.0
O187 O 0.1315 0.85789 0.3615 0.0
O188 O 0.23641 0.8345 0.37239 0.0
O189 O 0.22125 0.89265 0.38398 0.0
O190 O 0.16453 0.77409 0.3471 0.0
O191 O 0.22152 0.74555 0.36003 0.0
H192 H 0.40955 0.83374 0.42284 0.0
H193 H 0.44452 0.83603 0.46145 0.0
H194 H 0.29769 0.69702 0.48006 0.0
H195 H 0.26224 0.69618 0.4418 0.0
H196 H -0.01997 0.77022 0.34603 0.0
H197 H 0.94518 0.74732 0.30651 0.0
H198 H 0.10498 0.81941 0.2801 0.0
H199 H 0.13927 0.84092 0.31927 0.0
Tb200 Tb 0.45687 0.23235 0.72995 0.0
Tb201 Tb 0.34516 0.16066 0.71366 0.0
C202 C 0.53965 0.30799 0.74648 0.0
C203 C 0.56015 0.32533 0.77018 0.0
C204 C 0.5328 0.33896 0.78625 0.0
C205 C 0.55141 0.3527 0.8089 0.0
C206 C 0.59809 0.35362 0.81597 0.0
C207 C 0.62587 0.34081 0.79974 0.0
C208 C 0.60709 0.32685 0.7771 0.0
C209 C 0.42057 0.13215 0.73869 0.0
C210 C 0.35704 0.20719 0.76295 0.0
C211 C 0.26376 0.0872 0.69522 0.0
C212 C 0.25518 0.05813 0.67325 0.0
C213 C 0.28373 0.03241 0.66796 0.0
C214 C 0.27888 0.0095 0.64623 0.0
C215 C 0.24558 0.01192 0.62923 0.0
C216 C 0.21597 0.03644 0.63481 0.0
C217 C 0.22068 0.0592 0.65659 0.0
C218 C 0.38451 0.26172 0.70614 0.0
C219 C 0.44343 0.18349 0.68125 0.0
O220 O 0.49819 0.31143 0.7403 0.0
O221 O 0.53631 0.26378 0.73974 0.0
O222 O 0.39448 0.15568 0.73965 0.0
O223 O 0.46969 0.16623 0.73487 0.0
O224 O 0.40819 0.23748 0.75808 0.0
O225 O 0.32443 0.16936 0.74877 0.0
O226 O 0.29107 0.07975 0.71129 0.0
O227 O 0.27767 0.1369 0.69306 0.0
O228 O 0.40777 0.23581 0.7042 0.0
O229 O 0.33553 0.23053 0.71181 0.0
O230 O 0.3945 0.14947 0.68788 0.0
O231 O 0.4737 0.22585 0.69378 0.0
H232 H 0.49673 0.33861 0.78143 0.0
H233 H 0.52865 0.36178 0.82096 0.0
H234 H 0.6624 0.34196 0.80446 0.0
H235 H 0.62913 0.31687 0.76501 0.0
H236 H 0.31077 0.03093 0.68039 0.0
H237 H 0.30161 -0.00982 0.64272 0.0
H238 H 0.19035 0.03957 0.62211 0.0
H239 H 0.19839 0.07895 0.66021 0.0
C240 C 0.15797 0.72998 0.3027 0.0
C241 C 0.18885 0.72593 0.32043 0.0
C242 C 0.15557 0.70873 0.28074 0.0
C243 C 0.18366 0.68216 0.27591 0.0
C244 C 0.21457 0.67822 0.29367 0.0
C245 C 0.21711 0.69969 0.31561 0.0
C246 C 0.1834 0.65948 0.25263 0.0
C247 C 0.14867 0.65199 0.23548 0.0
C248 C 0.14869 0.63009 0.21204 0.0
C249 C 0.10545 0.61671 0.19725 0.0
C250 C 0.10386 0.59728 0.17495 0.0
C251 C 0.14559 0.59064 0.16674 0.0
H252 H 0.22548 0.63443 0.21406 0.0
C253 C 0.18892 0.60398 0.18147 0.0
C254 C 0.19064 0.62363 0.20375 0.0
H255 H 0.22224 0.60033 0.1756 0.0
H256 H 0.13569 0.74992 0.30568 0.0
H257 H 0.13226 0.71422 0.26767 0.0
H258 H 0.237 0.6584 0.29057 0.0
H259 H 0.24139 0.69578 0.32877 0.0
H260 H 0.21264 0.64742 0.24997 0.0
H261 H 0.11744 0.66108 0.23869 0.0
H262 H 0.07255 0.62131 0.20295 0.0
H263 H 0.06961 0.58701 0.16421 0.0
C264 C 0.50869 0.21686 0.64839 0.0
C265 C 0.46171 0.17665 0.65821 0.0
C266 C 0.52353 0.21184 0.6259 0.0
C267 C 0.49159 0.16642 0.6127 0.0
C268 C 0.44575 0.12555 0.62287 0.0
C269 C 0.43081 0.13066 0.64527 0.0
C270 C 0.50492 0.15973 0.58849 0.0
C271 C 0.53464 0.20037 0.5742 0.0
C272 C 0.54661 0.19416 0.54966 0.0
C273 C 0.56372 0.23722 0.53457 0.0
C274 C 0.57671 0.23381 0.51158 0.0
C275 C 0.57333 0.18724 0.5031 0.0
H276 H 0.53142 0.11363 0.55222 0.0
C277 C 0.55611 0.14403 0.51817 0.0
C278 C 0.54309 0.14742 0.54117 0.0
H279 H 0.55279 0.10745 0.51221 0.0
H280 H 0.53365 0.25266 0.65792 0.0
H281 H 0.56014 0.24351 0.61904 0.0
H282 H 0.42075 0.08983 0.61329 0.0
H283 H 0.39466 0.09868 0.65232 0.0
H284 H 0.48659 0.11977 0.58192 0.0
H285 H 0.54897 0.24029 0.58027 0.0
H286 H 0.56733 0.27389 0.5406 0.0
H287 H 0.59067 0.26817 0.50061 0.0
C288 C 0.22451 0.49491 0.97394 0.0
C289 C 0.23423 0.46051 0.98727 0.0
C290 C 0.24614 0.50983 0.95168 0.0
C291 C 0.27804 0.49057 0.94235 0.0
C292 C 0.28889 0.45759 0.9561 0.0
C293 C 0.26727 0.4427 0.97818 0.0
C294 C 0.30141 0.50371 0.91865 0.0
C295 C 0.28572 0.52451 0.90169 0.0
C296 C 0.30926 0.53591 0.87805 0.0
C297 C 0.30826 0.5758 0.865 0.0
C298 C 0.33004 0.58793 0.84279 0.0
C299 C 0.35282 0.55995 0.83292 0.0
H300 H 0.33114 0.4749 0.87718 0.0
C301 C 0.35266 0.51905 0.84571 0.0
C302 C 0.33115 0.50713 0.86803 0.0
H303 H 0.36981 0.49671 0.8386 0.0
H304 H 0.19946 0.50956 0.98053 0.0
H305 H 0.2378 0.5365 0.94206 0.0
H306 H 0.31376 0.4426 0.94962 0.0
H307 H 0.27647 0.41698 0.98811 0.0
H308 H 0.3327 0.49482 0.915 0.0
H309 H 0.25532 0.5347 0.90509 0.0
H310 H 0.29104 0.59811 0.87211 0.0
H311 H 0.32863 0.61903 0.83325 0.0
C312 C 0.81084 0.24937 0.30793 0.0
C313 C 0.77608 0.24731 0.32532 0.0
C314 C 0.80952 0.26787 0.28578 0.0
C315 C 0.77345 0.28515 0.28045 0.0
C316 C 0.73873 0.28305 0.29785 0.0
C317 C 0.74009 0.26454 0.32002 0.0
C318 C 0.76905 0.30345 0.25687 0.0
C319 C 0.80735 0.32005 0.2406 0.0
C320 C 0.8028 0.33762 0.21687 0.0
C321 C 0.83844 0.34059 0.19974 0.0
C322 C 0.83636 0.35747 0.17732 0.0
C323 C 0.79873 0.37224 0.17146 0.0
H324 H 0.73775 0.35241 0.22362 0.0
C325 C 0.76318 0.36953 0.18859 0.0
C326 C 0.76522 0.35264 0.21101 0.0
H327 H 0.73343 0.38027 0.18465 0.0
H328 H 0.83861 0.23574 0.31124 0.0
H329 H 0.83595 0.26709 0.27288 0.0
H330 H 0.71026 0.2957 0.29428 0.0
H331 H 0.71259 0.26339 0.33292 0.0
H332 H 0.73244 0.30306 0.25303 0.0
H333 H 0.84401 0.32058 0.24454 0.0
H334 H 0.86816 0.3298 0.20371 0.0
H335 H 0.8649 0.35982 0.16469 0.0
C336 C 0.51067 0.79988 0.63977 0.0
C337 C 0.48567 0.75526 0.65413 0.0
C338 C 0.49213 0.79875 0.61731 0.0
C339 C 0.44798 0.75291 0.60874 0.0
C340 C 0.42259 0.70873 0.62324 0.0
C341 C 0.4414 0.70969 0.64559 0.0
C342 C 0.42611 0.75012 0.58516 0.0
C343 C 0.45537 0.77934 0.56713 0.0
C344 C 0.43332 0.77512 0.54346 0.0
C345 C 0.46716 0.78811 0.52429 0.0
C346 C 0.44795 0.78492 0.50181 0.0
C347 C 0.39442 0.76932 0.49794 0.0
H348 H 0.35288 0.75133 0.55398 0.0
C349 C 0.36073 0.75708 0.5172 0.0
C350 C 0.37987 0.75992 0.53966 0.0
H351 H 0.31964 0.74628 0.515 0.0
H352 H 0.54476 0.83571 0.64582 0.0
H353 H 0.51195 0.83411 0.60692 0.0
H354 H 0.38823 0.67306 0.6172 0.0
H355 H 0.42098 0.67472 0.6562 0.0
H356 H 0.38495 0.7206 0.58235 0.0
H357 H 0.49766 0.80522 0.56935 0.0
H358 H 0.50857 0.80025 0.52669 0.0
H359 H 0.47504 0.7942 0.48746 0.0
C360 C 0.72709 0.45685 0.98315 0.0
C361 C 0.71153 0.49028 0.99367 0.0
C362 C 0.70773 0.43543 0.96119 0.0
C363 C 0.67224 0.44698 0.94946 0.0
C364 C 0.65562 0.47896 0.96045 0.0
C365 C 0.67511 0.50049 0.98215 0.0
C366 C 0.65156 0.42767 0.92578 0.0
C367 C 0.67269 0.40834 0.9106 0.0
C368 C 0.65314 0.39461 0.88639 0.0
C369 C 0.65768 0.35499 0.87476 0.0
C370 C 0.63985 0.34157 0.85195 0.0
C371 C 0.61766 0.36803 0.84016 0.0
H372 H 0.62969 0.45403 0.88244 0.0
C373 C 0.61424 0.4085 0.85167 0.0
C374 C 0.63185 0.42173 0.87445 0.0
H375 H 0.5987 0.43067 0.84295 0.0
H376 H 0.75507 0.44823 0.99163 0.0
H377 H 0.72074 0.41005 0.95363 0.0
H378 H 0.62811 0.48833 0.95201 0.0
H379 H 0.66176 0.5256 0.98981 0.0
H380 H 0.61803 0.43162 0.9203 0.0
H381 H 0.70509 0.40232 0.91575 0.0
H382 H 0.67442 0.33384 0.88345 0.0
H383 H 0.64276 0.30993 0.84369 0.0
C384 C 0.30895 0.40969 0.08193 0.0
C385 C 0.29796 0.43577 0.06436 0.0
C386 C 0.35726 0.4104 0.08199 0.0
C387 C 0.39389 0.43595 0.06408 0.0
C388 C 0.38054 0.45789 0.04556 0.0
C389 C 0.33324 0.45867 0.0459 0.0
C390 C 0.44821 0.44512 0.06509 0.0
C391 C 0.47736 0.46233 0.08448 0.0
C392 C 0.53536 0.48527 0.08393 0.0
C393 C 0.56153 0.47878 0.1029 0.0
C394 C 0.61596 0.49753 0.10187 0.0
C395 C 0.6447 0.52347 0.08194 0.0
H396 H 0.54638 0.52261 0.0503 0.0
C397 C 0.61912 0.5333 0.06372 0.0
C398 C 0.56498 0.51458 0.06473 0.0
H399 H 0.64046 0.55363 0.04825 0.0
H400 H 0.28167 0.39154 0.0962 0.0
H401 H 0.36657 0.39242 0.09624 0.0
H402 H 0.40818 0.47741 0.03154 0.0
H403 H 0.32482 0.47834 0.03204 0.0
H404 H 0.46689 0.44544 0.04878 0.0
H405 H 0.45891 0.46196 0.10086 0.0
H406 H 0.53957 0.45746 0.11809 0.0
H407 H 0.63505 0.48984 0.11623 0.0
C408 C 0.07529 0.64372 0.43516 0.0
C409 C 0.08442 0.66978 0.41387 0.0
C410 C 0.03436 0.59186 0.43742 0.0
C411 C 0.00233 0.56525 0.41828 0.0
C412 C 0.00798 0.59344 0.39783 0.0
C413 C 0.04879 0.6454 0.3956 0.0
C414 C 0.96625 0.50756 0.41805 0.0
C415 C 0.97049 0.47404 0.43264 0.0
C416 C 0.93917 0.4168 0.42891 0.0
C417 C 0.91138 0.38342 0.44734 0.0
C418 C 0.87647 0.33006 0.44326 0.0
C419 C 0.87014 0.30955 0.4208 0.0
H420 H 0.95815 0.42053 0.39245 0.0
C421 C 0.90171 0.34212 0.40279 0.0
C422 C 0.93571 0.39553 0.40678 0.0
H423 H 0.89778 0.32711 0.38534 0.0
H424 H 0.10172 0.66231 0.44965 0.0
H425 H 0.02965 0.57245 0.45386 0.0
H426 H -0.01689 0.57418 0.38297 0.0
H427 H 0.0547 0.66499 0.37907 0.0
H428 H 0.93805 0.49141 0.40386 0.0
H429 H -0.00282 0.48784 0.44731 0.0
H430 H 0.91439 0.39913 0.46459 0.0
H431 H 0.85267 0.3054 0.45742 0.0
C432 C 0.43804 0.08555 0.76995 0.0
C433 C 0.4059 0.08399 0.75158 0.0
C434 C 0.43087 0.03897 0.77964 0.0
C435 C 0.39231 -0.00968 0.77059 0.0
C436 C 0.3565 -0.01099 0.75398 0.0
C437 C 0.36337 0.0358 0.74444 0.0
C438 C 0.39536 0.94209 0.77441 0.0
C439 C 0.44276 0.94447 0.77411 0.0
C440 C 0.4507 0.90044 0.76683 0.0
C441 C 0.50138 0.90633 0.76926 0.0
C442 C 0.51332 0.87018 0.7592 0.0
C443 C 0.47467 0.8276 0.74652 0.0
H444 H 0.37278 0.85141 0.75141 0.0
C445 C 0.42377 0.82092 0.74446 0.0
C446 C 0.41181 0.85695 0.75445 0.0
H447 H 0.39327 0.78826 0.73474 0.0
H448 H 0.47034 0.12272 0.77603 0.0
H449 H 0.45787 0.04107 0.79302 0.0
H450 H 0.32628 0.95186 0.74687 0.0
H451 H 0.33817 0.03401 0.73032 0.0
H452 H 0.35905 0.90473 0.77252 0.0
H453 H 0.4786 0.9824 0.77596 0.0
H454 H 0.53229 0.93985 0.77841 0.0
H455 H 0.55283 0.87588 0.76112 0.0
C456 C 0.57187 0.64995 0.68645 0.0
C457 C 0.60366 0.68248 0.70437 0.0
C458 C 0.55679 0.597 0.6862 0.0
C459 C 0.57275 0.57563 0.70407 0.0
C460 C 0.60897 0.60911 0.72073 0.0
C461 C 0.62437 0.66269 0.72093 0.0
C462 C 0.54772 0.51807 0.70638 0.0
C463 C 0.49508 0.4876 0.70351 0.0
C464 C 0.46727 0.42967 0.7044 0.0
C465 C 0.41382 0.40208 0.71107 0.0
C466 C 0.38617 0.34709 0.71145 0.0
C467 C 0.4116 0.31925 0.70484 0.0
H468 H 0.5328 0.42168 0.69132 0.0
C469 C 0.4645 0.34687 0.69746 0.0
C470 C 0.49224 0.40159 0.69735 0.0
H471 H 0.48474 0.32617 0.69191 0.0
H472 H 0.55599 0.66483 0.67338 0.0
H473 H 0.53023 0.57216 0.67273 0.0
H474 H 0.62215 0.59321 0.73447 0.0
H475 H 0.64871 0.68739 0.73496 0.0
H476 H 0.5719 0.50117 0.71162 0.0
H477 H 0.47098 0.50599 0.7008 0.0
H478 H 0.39365 0.42312 0.71621 0.0
H479 H 0.34529 0.32649 0.71709 0.0
C480 C 0.04232 0.40309 1.01426 0.0
C481 C 0.03253 0.36449 0.03089 0.0
C482 C 0.00645 0.42059 1.01084 0.0
C483 C 0.96006 0.40001 0.0242 0.0
C484 C 0.9487 0.35887 0.03982 0.0
C485 C -0.01542 0.34077 0.04301 0.0
C486 C 0.9288 0.42719 0.02529 0.0
C487 C 0.93114 0.4612 1.00904 0.0
C488 C 0.9156 0.50086 1.01438 0.0
C489 C 0.8904 0.51543 0.99767 0.0
C490 C 0.87401 0.55161 1.00322 0.0
C491 C 0.88341 0.57381 0.02544 0.0
H492 H 0.94983 0.51743 0.04884 0.0
C493 C 0.91244 0.5625 0.0414 0.0
C494 C 0.92822 0.52614 0.03599 0.0
H495 H 0.9209 0.58008 0.05848 0.0
H496 H 0.07909 0.42167 1.00461 0.0
H497 H 0.01752 0.45299 0.999 0.0
H498 H 0.91344 0.34273 0.05047 0.0
H499 H 0.97655 0.31103 0.05599 0.0
H500 H 0.90763 0.42349 0.04131 0.0
H501 H 0.94724 0.46219 0.992 0.0
H502 H 0.88156 0.49732 0.98071 0.0
H503 H 0.85167 0.56 0.99062 0.0
C504 C 0.34815 0.90071 0.37001 0.0
C505 C 0.31448 0.91442 0.38156 0.0
C506 C 0.4012 0.92426 0.37597 0.0
C507 C 0.42188 0.96279 0.39333 0.0
C508 C 0.389 0.97899 0.40395 0.0
C509 C 0.33518 0.95444 0.39826 0.0
C510 C 0.47895 -0.01005 0.39831 0.0
C511 C 0.50677 0.96456 0.39758 0.0
C512 C 0.56363 -0.00648 0.39225 0.0
C513 C 0.5816 0.03056 0.37428 0.0
C514 C 0.63505 0.05938 0.36916 0.0
C515 C 0.67165 0.05211 0.382 0.0
H516 H 0.58604 0.95366 0.41755 0.0
C517 C 0.65381 0.01277 0.39903 0.0
C518 C 0.59959 -0.01692 0.404 0.0
H519 H 0.6817 0.00691 0.40918 0.0
H520 H 0.33298 0.8703 0.35686 0.0
H521 H 0.42616 0.91269 0.36674 0.0
H522 H 0.40473 0.00978 0.41691 0.0
H523 H 0.30965 0.96547 0.40736 0.0
H524 H 0.49945 0.03265 0.39971 0.0
H525 H 0.48679 0.92181 0.39797 0.0
H526 H 0.5543 0.03777 0.36435 0.0
H527 H 0.64806 0.08927 0.35581 0.0
C528 C 0.37164 0.25039 0.80189 0.0
C529 C 0.33713 0.21312 0.78577 0.0
C530 C 0.35373 0.25411 0.82388 0.0
C531 C 0.3006 0.2207 0.83029 0.0
C532 C 0.26607 0.18372 0.81413 0.0
C533 C 0.28397 0.18009 0.79211 0.0
C534 C 0.28052 0.22108 0.85398 0.0
C535 C 0.3034 0.26268 0.86846 0.0
C536 C 0.28406 0.26217 0.89239 0.0
C537 C 0.29623 0.31015 0.90288 0.0
C538 C 0.27989 0.31146 0.9255 0.0
C539 C 0.25142 0.26475 0.93834 0.0
H540 H 0.24726 0.1778 0.89815 0.0
C541 C 0.23972 0.21674 0.92792 0.0
C542 C 0.2559 0.21542 0.90526 0.0
H543 H 0.21882 0.18012 0.93742 0.0
H544 H 0.41292 0.2761 0.79775 0.0
H545 H 0.38216 0.28214 0.83595 0.0
H546 H 0.22505 0.15719 0.81859 0.0
H547 H 0.25622 0.15079 0.78022 0.0
H548 H 0.24444 0.18604 0.85931 0.0
H549 H 0.3365 0.29946 0.86242 0.0
H550 H 0.31813 0.34682 0.89347 0.0
H551 H 0.28904 0.34909 0.93282 0.0
C552 C -0.01911 0.2257 0.25829 0.0
C553 C -0.00444 0.26339 0.27597 0.0
C554 C -0.0035 0.24111 0.23543 0.0
C555 C 0.02774 0.29478 0.22969 0.0
C556 C 0.04189 0.33241 0.24736 0.0
C557 C 0.02607 0.31697 0.27022 0.0
C558 C 0.04501 0.31327 0.20554 0.0
C559 C 0.04645 0.28251 0.18849 0.0
C560 C 0.06452 0.30131 0.16446 0.0
C561 C 0.08069 0.27278 0.15039 0.0
C562 C 0.09836 0.28914 0.12779 0.0
C563 C 0.1 0.33441 0.11866 0.0
H564 H 0.05108 0.36808 0.16495 0.0
C565 C 0.08267 0.36233 0.13254 0.0
C566 C 0.06493 0.34592 0.15511 0.0
H567 H 0.08277 0.39705 0.126 0.0
H568 H 0.95626 0.18415 0.26204 0.0
H569 H -0.01708 0.21073 0.22237 0.0
H570 H 0.06554 0.37403 0.24349 0.0
H571 H 0.03815 0.34699 0.28343 0.0
H572 H 0.05928 0.35462 0.20213 0.0
H573 H 0.03654 0.24239 0.19237 0.0
H574 H 0.08026 0.23794 0.15699 0.0
H575 H 0.11121 0.26655 0.1176 0.0
C576 C 0.74306 0.02398 0.60096 0.0
C577 C 0.69307 -0.01469 0.60909 0.0
C578 C 0.75039 0.03941 0.5777 0.0
C579 C 0.70778 0.01647 0.56206 0.0
C580 C 0.65793 0.97804 0.57021 0.0
C581 C 0.6507 0.96233 0.59335 0.0
C582 C 0.71266 0.03326 0.53749 0.0
C583 C 0.75809 0.05421 0.52521 0.0
C584 C 0.76227 0.07153 0.50063 0.0
C585 C 0.81242 0.10661 0.49139 0.0
C586 C 0.81758 0.12591 0.46878 0.0
C587 C 0.77254 0.11054 0.45501 0.0
H588 H 0.67842 0.0253 0.49201 0.0
C589 C 0.7227 0.07376 0.46386 0.0
C590 C 0.7176 0.05411 0.48625 0.0
H591 H 0.68727 0.06028 0.4535 0.0
H592 H 0.77638 0.04318 0.61265 0.0
H593 H 0.78904 0.07026 0.57227 0.0
H594 H 0.62436 0.9598 0.55857 0.0
H595 H 0.61188 0.93175 0.59882 0.0
H596 H 0.67658 0.02742 0.52939 0.0
H597 H 0.79405 0.06001 0.53349 0.0
H598 H 0.84765 0.12018 0.50189 0.0
H599 H 0.85652 0.15416 0.46241 0.0
C600 C 0.5847 0.72121 0.80235 0.0
C601 C 0.60875 0.76779 0.7892 0.0
C602 C 0.6014 0.72043 0.82492 0.0
C603 C 0.64308 0.76618 0.8349 0.0
C604 C 0.6667 0.81287 0.82185 0.0
C605 C 0.6499 0.81368 0.79923 0.0
C606 C 0.66153 0.76701 0.85906 0.0
C607 C 0.65528 0.7236 0.87005 0.0
C608 C 0.67249 0.72278 0.89427 0.0
C609 C 0.67675 0.67922 0.90144 0.0
C610 C 0.6906 0.67526 0.92417 0.0
C611 C 0.70026 0.71466 0.94048 0.0
H612 H 0.67822 0.79606 0.906 0.0
C613 C 0.69631 0.75851 0.93334 0.0
C614 C 0.68239 0.76249 0.91053 0.0
H615 H 0.70278 0.78922 0.94554 0.0
H616 H 0.5524 0.68523 0.79533 0.0
H617 H 0.58067 0.68406 0.83457 0.0
H618 H 0.69848 0.84885 0.82914 0.0
H619 H 0.66912 0.85031 0.78965 0.0
H620 H 0.68272 0.80502 0.86754 0.0
H621 H 0.63826 0.68663 0.86066 0.0
H622 H 0.6693 0.64794 0.88939 0.0
H623 H 0.69409 0.64133 0.92892 0.0
C624 C 0.95888 0.7698 0.25818 0.0
C625 C 0.00193 0.76531 0.26631 0.0
C626 C 0.93962 0.7539 0.23571 0.0
C627 C 0.96322 0.73322 0.22093 0.0
C628 C 0.0062 0.72883 0.22915 0.0
C629 C 0.02539 0.74472 0.25151 0.0
C630 C 0.94241 0.71228 0.19752 0.0
C631 C 0.90919 0.7227 0.18535 0.0
C632 C 0.88681 0.69696 0.16277 0.0
C633 C 0.87264 0.72267 0.1461 0.0
C634 C 0.85175 0.69878 0.12469 0.0
C635 C 0.8444 0.64858 0.11972 0.0
H636 H 0.88605 0.62397 0.17065 0.0
C637 C 0.85743 0.62254 0.13669 0.0
C638 C 0.87797 0.64617 0.15793 0.0
H639 H 0.85141 0.58341 0.13373 0.0
H640 H 0.94013 0.78571 0.26916 0.0
H641 H 0.90564 0.7568 0.2303 0.0
H642 H 0.02477 0.71246 0.2183 0.0
H643 H 0.05801 0.73984 0.25736 0.0
H644 H 0.956 0.68728 0.18981 0.0
H645 H 0.89905 0.75149 0.19162 0.0
H646 H 0.87831 0.76151 0.14953 0.0
H647 H 0.8417 0.7197 0.11207 0.0
C648 C 0.19488 0.9644 0.59341 0.0
C649 C 0.24301 -0.00961 0.6056 0.0
C650 C 0.19282 0.94478 0.57112 0.0
C651 C 0.23901 0.95087 0.56047 0.0
C652 C 0.28689 0.97633 0.57275 0.0
C653 C 0.28898 -0.00388 0.59495 0.0
C654 C 0.23885 0.92973 0.53702 0.0
C655 C 0.20254 0.92119 0.52057 0.0
C656 C 0.20246 0.90024 0.49701 0.0
C657 C 0.15614 0.88001 0.48362 0.0
C658 C 0.15401 0.85968 0.46149 0.0
C659 C 0.19832 0.85923 0.45218 0.0
H660 H 0.28441 0.91753 0.4966 0.0
C661 C 0.245 0.88028 0.46537 0.0
C662 C 0.24721 0.90078 0.48743 0.0
H663 H 0.28015 0.88123 0.45863 0.0
H664 H 0.15851 0.95838 0.60123 0.0
H665 H 0.15479 0.92391 0.5626 0.0
H666 H 0.32306 0.98143 0.56505 0.0
H667 H 0.32689 0.01654 0.60363 0.0
H668 H 0.27075 0.92188 0.53333 0.0
H669 H 0.17093 0.92946 0.52441 0.0
H670 H 0.12117 0.87945 0.49037 0.0
H671 H 0.11743 0.8439 0.45179 0.0
loop_
_geom_bond_atom_site_label_1
_geom_bond_atom_site_label_2
_geom_bond_distance
_geom_bond_site_symmetry_2
_ccdc_geom_bond_type
Tb0 C2 2.809 . S
Tb0 O20 2.484 . S
Tb0 O21 2.440 . S
Tb0 O22 2.658 . S
Tb0 O23 2.409 . S
Tb0 O24 2.378 . S
Tb0 O28 2.325 . S
Tb0 O31 2.341 . S
Tb1 C11 2.809 1_554 S
Tb1 O22 2.325 . S
Tb1 O25 2.341 . S
Tb1 O26 2.484 1_554 S
Tb1 O27 2.440 1_554 S
Tb1 O28 2.658 . S
Tb1 O29 2.409 . S
Tb1 O30 2.378 1_554 S
C2 Tb0 2.809 . S
C2 C3 1.514 . S
C2 O20 1.248 . S
C2 O21 1.266 . S
C3 C2 1.514 . S
C3 C4 1.359 . S
C3 C8 1.348 . S
C4 C3 1.359 . S
C4 C5 1.380 . S
C4 H32 0.929 . S
C5 C4 1.380 . S
C5 C6 1.347 . S
C5 H33 0.931 . S
C6 C5 1.347 . S
C6 C7 1.369 . S
C7 C6 1.369 . S
C7 C8 1.408 . S
C7 H34 0.930 . S
C8 C3 1.348 . S
C8 C7 1.408 . S
C8 H35 0.930 . S
C9 O22 1.281 . S
C9 O23 1.254 . S
C10 O24 1.236 . S
C10 O25 1.266 . S
C11 Tb1 2.809 1_556 S
C11 C12 1.514 . S
C11 O26 1.248 . S
C11 O27 1.266 . S
C12 C11 1.514 . S
C12 C13 1.359 . S
C12 C17 1.348 . S
C13 C12 1.359 . S
C13 C14 1.380 . S
C13 H36 0.929 . S
C14 C13 1.380 . S
C14 C15 1.347 . S
C14 H37 0.931 . S
C15 C14 1.347 . S
C15 C16 1.369 . S
C16 C15 1.369 . S
C16 C17 1.408 . S
C16 H38 0.930 . S
C17 C12 1.348 . S
C17 C16 1.408 . S
C17 H39 0.930 . S
C18 O28 1.281 . S
C18 O29 1.254 . S
C19 O30 1.236 . S
C19 O31 1.266 1_556 S
O20 Tb0 2.484 . S
O20 C2 1.248 . S
O21 Tb0 2.440 . S
O21 C2 1.266 . S
O22 Tb0 2.658 . S
O22 Tb1 2.325 . S
O22 C9 1.281 . S
O23 Tb0 2.409 . S
O23 C9 1.254 . S
O24 Tb0 2.378 . S
O24 C10 1.236 . S
O25 Tb1 2.341 . S
O25 C10 1.266 . S
O26 Tb1 2.484 1_556 S
O26 C11 1.248 . S
O27 Tb1 2.440 1_556 S
O27 C11 1.266 . S
O28 Tb0 2.325 . S
O28 Tb1 2.658 . S
O28 C18 1.281 . S
O29 Tb1 2.409 . S
O29 C18 1.254 . S
O30 Tb1 2.378 1_556 S
O30 C19 1.236 . S
O31 Tb0 2.341 . S
O31 C19 1.266 1_554 S
H32 C4 0.929 . S
H33 C5 0.931 . S
H34 C7 0.930 . S
H35 C8 0.930 . S
H36 C13 0.929 . S
H37 C14 0.931 . S
H38 C16 0.930 . S
H39 C17 0.930 . S
Tb40 C42 2.809 . S
Tb40 O60 2.484 . S
Tb40 O61 2.440 . S
Tb40 O62 2.658 . S
Tb40 O63 2.409 . S
Tb40 O64 2.378 . S
Tb40 O68 2.325 . S
Tb40 O71 2.341 . S
Tb41 C51 2.809 . S
Tb41 O62 2.325 . S
Tb41 O65 2.341 . S
Tb41 O66 2.484 . S
Tb41 O67 2.440 . S
Tb41 O68 2.658 . S
Tb41 O69 2.409 . S
Tb41 O70 2.378 . S
C42 Tb40 2.809 . S
C42 C43 1.514 . S
C42 O60 1.248 . S
C42 O61 1.266 . S
C43 C42 1.514 . S
C43 C44 1.359 . S
C43 C48 1.348 . S
C44 C43 1.359 . S
C44 C45 1.380 . S
C44 H72 0.929 . S
C45 C44 1.380 . S
C45 C46 1.347 . S
C45 H73 0.931 . S
C46 C45 1.347 . S
C46 C47 1.369 . S
C47 C46 1.369 . S
C47 C48 1.408 . S
C47 H74 0.930 . S
C48 C43 1.348 . S
C48 C47 1.408 . S
C48 H75 0.930 . S
C49 O62 1.281 . S
C49 O63 1.254 . S
C50 O64 1.236 . S
C50 O65 1.266 . S
C51 Tb41 2.809 . S
C51 C52 1.514 . S
C51 O66 1.248 . S
C51 O67 1.266 . S
C52 C51 1.514 . S
C52 C53 1.359 . S
C52 C57 1.348 . S
C53 C52 1.359 . S
C53 C54 1.380 . S
C53 H76 0.929 . S
C54 C53 1.380 . S
C54 C55 1.347 . S
C54 H77 0.922 1_655 S
C55 C54 1.347 . S
C55 C56 1.369 . S
C56 C55 1.369 . S
C56 C57 1.408 . S
C56 H78 0.930 . S
C57 C52 1.348 . S
C57 C56 1.408 . S
C57 H79 0.930 . S
C58 O68 1.281 . S
C58 O69 1.254 . S
C59 O70 1.236 . S
C59 O71 1.266 . S
O60 Tb40 2.484 . S
O60 C42 1.248 . S
O61 Tb40 2.440 . S
O61 C42 1.266 . S
O62 Tb40 2.658 . S
O62 Tb41 2.325 . S
O62 C49 1.281 . S
O63 Tb40 2.409 . S
O63 C49 1.254 . S
O64 Tb40 2.378 . S
O64 C50 1.236 . S
O65 Tb41 2.341 . S
O65 C50 1.266 . S
O66 Tb41 2.484 . S
O66 C51 1.248 . S
O67 Tb41 2.440 . S
O67 C51 1.266 . S
O68 Tb40 2.325 . S
O68 Tb41 2.658 . S
O68 C58 1.281 . S
O69 Tb41 2.409 . S
O69 C58 1.254 . S
O70 Tb41 2.378 . S
O70 C59 1.236 . S
O71 Tb40 2.341 . S
O71 C59 1.266 . S
H72 C44 0.929 . S
H73 C45 0.931 . S
H74 C47 0.930 . S
H75 C48 0.930 . S
H76 C53 0.929 . S
H77 C54 0.922 1_455 S
H78 C56 0.930 . S
H79 C57 0.930 . S
Tb80 C82 2.809 . S
Tb80 O100 2.484 . S
Tb80 O101 2.440 . S
Tb80 O102 2.658 . S
Tb80 O103 2.409 . S
Tb80 O104 2.378 . S
Tb80 O108 2.325 . S
Tb80 O111 2.341 . S
Tb81 C91 2.809 . S
Tb81 O102 2.325 . S
Tb81 O105 2.341 . S
Tb81 O106 2.484 . S
Tb81 O107 2.440 . S
Tb81 O108 2.658 . S
Tb81 O109 2.409 . S
Tb81 O110 2.378 . S
C82 Tb80 2.809 . S
C82 C83 1.514 . S
C82 O100 1.248 . S
C82 O101 1.266 . S
C83 C82 1.514 . S
C83 C84 1.359 . S
C83 C88 1.348 . S
C84 C83 1.359 . S
C84 C85 1.380 . S
C84 H112 0.929 . S
C85 C84 1.380 . S
C85 C86 1.347 . S
C85 H113 0.931 . S
C86 C85 1.347 . S
C86 C87 1.369 . S
C87 C86 1.369 . S
C87 C88 1.408 . S
C87 H114 0.930 . S
C88 C83 1.348 . S
C88 C87 1.408 . S
C88 H115 0.930 . S
C89 O102 1.281 . S
C89 O103 1.254 . S
C90 O104 1.236 . S
C90 O105 1.266 . S
C91 Tb81 2.809 . S
C91 C92 1.514 . S
C91 O106 1.248 . S
C91 O107 1.266 . S
C92 C91 1.514 . S
C92 C93 1.359 . S
C92 C97 1.348 . S
C93 C92 1.359 . S
C93 C94 1.380 . S
C93 H116 0.929 . S
C94 C93 1.380 . S
C94 C95 1.347 . S
C94 H117 0.907 1_565 S
C95 C94 1.347 . S
C95 C96 1.369 . S
C96 C95 1.369 . S
C96 C97 1.408 . S
C96 H118 0.930 . S
C97 C92 1.348 . S
C97 C96 1.408 . S
C97 H119 0.930 . S
C98 O108 1.281 . S
C98 O109 1.254 . S
C99 O110 1.236 . S
C99 O111 1.266 . S
O100 Tb80 2.484 . S
O100 C82 1.248 . S
O101 Tb80 2.440 . S
O101 C82 1.266 . S
O102 Tb80 2.658 . S
O102 Tb81 2.325 . S
O102 C89 1.281 . S
O103 Tb80 2.409 . S
O103 C89 1.254 . S
O104 Tb80 2.378 . S
O104 C90 1.236 . S
O105 Tb81 2.341 . S
O105 C90 1.266 . S
O106 Tb81 2.484 . S
O106 C91 1.248 . S
O107 Tb81 2.440 . S
O107 C91 1.266 . S
O108 Tb80 2.325 . S
O108 Tb81 2.658 . S
O108 C98 1.281 . S
O109 Tb81 2.409 . S
O109 C98 1.254 . S
O110 Tb81 2.378 . S
O110 C99 1.236 . S
O111 Tb80 2.341 . S
O111 C99 1.266 . S
H112 C84 0.929 . S
H113 C85 0.931 . S
H114 C87 0.930 . S
H115 C88 0.930 . S
H116 C93 0.929 . S
H117 C94 0.907 1_545 S
H118 C96 0.930 . S
H119 C97 0.930 . S
Tb120 C122 2.809 . S
Tb120 O140 2.484 . S
Tb120 O141 2.440 . S
Tb120 O142 2.658 . S
Tb120 O143 2.409 . S
Tb120 O144 2.378 . S
Tb120 O148 2.325 . S
Tb120 O151 2.341 . S
Tb121 C131 2.809 1_554 S
Tb121 O142 2.325 . S
Tb121 O145 2.341 . S
Tb121 O146 2.484 1_554 S
Tb121 O147 2.440 1_554 S
Tb121 O148 2.658 . S
Tb121 O149 2.409 . S
Tb121 O150 2.378 1_554 S
C122 Tb120 2.809 . S
C122 C123 1.514 . S
C122 O140 1.248 . S
C122 O141 1.266 . S
C123 C122 1.514 . S
C123 C124 1.359 . S
C123 C128 1.348 . S
C124 C123 1.359 . S
C124 C125 1.380 . S
C124 H152 0.929 . S
C125 C124 1.380 . S
C125 C126 1.347 . S
C125 H153 0.931 . S
C126 C125 1.347 . S
C126 C127 1.369 . S
C127 C126 1.369 . S
C127 C128 1.408 . S
C127 H154 0.930 . S
C128 C123 1.348 . S
C128 C127 1.408 . S
C128 H155 0.930 . S
C129 O142 1.281 . S
C129 O143 1.254 . S
C130 O144 1.236 . S
C130 O145 1.266 . S
C131 Tb121 2.809 1_556 S
C131 C132 1.514 . S
C131 O146 1.248 . S
C131 O147 1.266 . S
C132 C131 1.514 . S
C132 C133 1.359 . S
C132 C137 1.348 . S
C133 C132 1.359 . S
C133 C134 1.380 . S
C133 H156 0.929 . S
C134 C133 1.380 . S
C134 C135 1.347 . S
C134 H157 0.931 . S
C135 C134 1.347 . S
C135 C136 1.369 . S
C136 C135 1.369 . S
C136 C137 1.408 . S
C136 H158 0.930 . S
C137 C132 1.348 . S
C137 C136 1.408 . S
C137 H159 0.930 . S
C138 O148 1.281 . S
C138 O149 1.254 . S
C139 O150 1.236 . S
C139 O151 1.266 1_556 S
O140 Tb120 2.484 . S
O140 C122 1.248 . S
O141 Tb120 2.440 . S
O141 C122 1.266 . S
O142 Tb120 2.658 . S
O142 Tb121 2.325 . S
O142 C129 1.281 . S
O143 Tb120 2.409 . S
O143 C129 1.254 . S
O144 Tb120 2.378 . S
O144 C130 1.236 . S
O145 Tb121 2.341 . S
O145 C130 1.266 . S
O146 Tb121 2.484 1_556 S
O146 C131 1.248 . S
O147 Tb121 2.440 1_556 S
O147 C131 1.266 . S
O148 Tb120 2.325 . S
O148 Tb121 2.658 . S
O148 C138 1.281 . S
O149 Tb121 2.409 . S
O149 C138 1.254 . S
O150 Tb121 2.378 1_556 S
O150 C139 1.236 . S
O151 Tb120 2.341 . S
O151 C139 1.266 1_554 S
H152 C124 0.929 . S
H153 C125 0.931 . S
H154 C127 0.930 . S
H155 C128 0.930 . S
H156 C133 0.929 . S
H157 C134 0.931 . S
H158 C136 0.930 . S
H159 C137 0.930 . S
Tb160 C162 2.809 . S
Tb160 O180 2.484 . S
Tb160 O181 2.440 . S
Tb160 O182 2.658 . S
Tb160 O183 2.409 . S
Tb160 O184 2.378 . S
Tb160 O188 2.325 . S
Tb160 O191 2.341 . S
Tb161 C171 2.809 . S
Tb161 O182 2.325 . S
Tb161 O185 2.341 . S
Tb161 O186 2.484 . S
Tb161 O187 2.440 . S
Tb161 O188 2.658 . S
Tb161 O189 2.409 . S
Tb161 O190 2.378 . S
C162 Tb160 2.809 . S
C162 C163 1.514 . S
C162 O180 1.248 . S
C162 O181 1.266 . S
C163 C162 1.514 . S
C163 C164 1.359 . S
C163 C168 1.348 . S
C164 C163 1.359 . S
C164 C165 1.380 . S
C164 H192 0.929 . S
C165 C164 1.380 . S
C165 C166 1.347 . S
C165 H193 0.931 . S
C166 C165 1.347 . S
C166 C167 1.369 . S
C167 C166 1.369 . S
C167 C168 1.408 . S
C167 H194 0.930 . S
C168 C163 1.348 . S
C168 C167 1.408 . S
C168 H195 0.930 . S
C169 O182 1.281 . S
C169 O183 1.254 . S
C170 O184 1.236 . S
C170 O185 1.266 . S
C171 Tb161 2.809 . S
C171 C172 1.514 . S
C171 O186 1.248 . S
C171 O187 1.266 . S
C172 C171 1.514 . S
C172 C173 1.359 . S
C172 C177 1.348 . S
C173 C172 1.359 . S
C173 C174 1.380 . S
C173 H196 0.929 . S
C174 C173 1.380 . S
C174 C175 1.347 . S
C174 H197 0.922 1_455 S
C175 C174 1.347 . S
C175 C176 1.369 . S
C176 C175 1.369 . S
C176 C177 1.408 . S
C176 H198 0.930 . S
C177 C172 1.348 . S
C177 C176 1.408 . S
C177 H199 0.930 . S
C178 O188 1.281 . S
C178 O189 1.254 . S
C179 O190 1.236 . S
C179 O191 1.266 . S
O180 Tb160 2.484 . S
O180 C162 1.248 . S
O181 Tb160 2.440 . S
O181 C162 1.266 . S
O182 Tb160 2.658 . S
O182 Tb161 2.325 . S
O182 C169 1.281 . S
O183 Tb160 2.409 . S
O183 C169 1.254 . S
O184 Tb160 2.378 . S
O184 C170 1.236 . S
O185 Tb161 2.341 . S
O185 C170 1.266 . S
O186 Tb161 2.484 . S
O186 C171 1.248 . S
O187 Tb161 2.440 . S
O187 C171 1.266 . S
O188 Tb160 2.325 . S
O188 Tb161 2.658 . S
O188 C178 1.281 . S
O189 Tb161 2.409 . S
O189 C178 1.254 . S
O190 Tb161 2.378 . S
O190 C179 1.236 . S
O191 Tb160 2.341 . S
O191 C179 1.266 . S
H192 C164 0.929 . S
H193 C165 0.931 . S
H194 C167 0.930 . S
H195 C168 0.930 . S
H196 C173 0.929 . S
H197 C174 0.922 1_655 S
H198 C176 0.930 . S
H199 C177 0.930 . S
Tb200 C202 2.809 . S
Tb200 O220 2.484 . S
Tb200 O221 2.440 . S
Tb200 O222 2.658 . S
Tb200 O223 2.409 . S
Tb200 O224 2.378 . S
Tb200 O228 2.325 . S
Tb200 O231 2.341 . S
Tb201 C211 2.809 . S
Tb201 O222 2.325 . S
Tb201 O225 2.341 . S
Tb201 O226 2.484 . S
Tb201 O227 2.440 . S
Tb201 O228 2.658 . S
Tb201 O229 2.409 . S
Tb201 O230 2.378 . S
C202 Tb200 2.809 . S
C202 C203 1.514 . S
C202 O220 1.248 . S
C202 O221 1.266 . S
C203 C202 1.514 . S
C203 C204 1.359 . S
C203 C208 1.348 . S
C204 C203 1.359 . S
C204 C205 1.380 . S
C204 H232 0.929 . S
C205 C204 1.380 . S
C205 C206 1.347 . S
C205 H233 0.931 . S
C206 C205 1.347 . S
C206 C207 1.369 . S
C207 C206 1.369 . S
C207 C208 1.408 . S
C207 H234 0.930 . S
C208 C203 1.348 . S
C208 C207 1.408 . S
C208 H235 0.930 . S
C209 O222 1.281 . S
C209 O223 1.254 . S
C210 O224 1.236 . S
C210 O225 1.266 . S
C211 Tb201 2.809 . S
C211 C212 1.514 . S
C211 O226 1.248 . S
C211 O227 1.266 . S
C212 C211 1.514 . S
C212 C213 1.359 . S
C212 C217 1.348 . S
C213 C212 1.359 . S
C213 C214 1.380 . S
C213 H236 0.929 . S
C214 C213 1.380 . S
C214 C215 1.347 . S
C214 H237 0.907 1_545 S
C215 C214 1.347 . S
C215 C216 1.369 . S
C216 C215 1.369 . S
C216 C217 1.408 . S
C216 H238 0.930 . S
C217 C212 1.348 . S
C217 C216 1.408 . S
C217 H239 0.930 . S
C218 O228 1.281 . S
C218 O229 1.254 . S
C219 O230 1.236 . S
C219 O231 1.266 . S
O220 Tb200 2.484 . S
O220 C202 1.248 . S
O221 Tb200 2.440 . S
O221 C202 1.266 . S
O222 Tb200 2.658 . S
O222 Tb201 2.325 . S
O222 C209 1.281 . S
O223 Tb200 2.409 . S
O223 C209 1.254 . S
O224 Tb200 2.378 . S
O224 C210 1.236 . S
O225 Tb201 2.341 . S
O225 C210 1.266 . S
O226 Tb201 2.484 . S
O226 C211 1.248 . S
O227 Tb201 2.440 . S
O227 C211 1.266 . S
O228 Tb200 2.325 . S
O228 Tb201 2.658 . S
O228 C218 1.281 . S
O229 Tb201 2.409 . S
O229 C218 1.254 . S
O230 Tb201 2.378 . S
O230 C219 1.236 . S
O231 Tb200 2.341 . S
O231 C219 1.266 . S
H232 C204 0.929 . S
H233 C205 0.931 . S
H234 C207 0.930 . S
H235 C208 0.930 . S
H236 C213 0.929 . S
H237 C214 0.907 1_565 S
H238 C216 0.930 . S
H239 C217 0.930 . S
C240 C241 1.386 . S
C240 C242 1.383 . S
C240 H256 0.951 . S
C241 C240 1.386 . S
C241 C245 1.383 . S
C242 C240 1.383 . S
C242 C243 1.402 . S
C242 H257 0.951 . S
C243 C242 1.402 . S
C243 C244 1.375 . S
C243 C246 1.481 . S
C244 C243 1.375 . S
C244 C245 1.367 . S
C244 H258 0.951 . S
C245 C241 1.383 . S
C245 C244 1.367 . S
C245 H259 0.950 . S
C246 C243 1.481 . S
C246 C247 1.297 . S
C246 H260 0.950 . S
C247 C246 1.297 . S
C247 C248 1.479 . S
C247 H261 0.950 . S
C248 C247 1.479 . S
C248 C249 1.375 . S
C248 C254 1.404 . S
C249 C248 1.375 . S
C249 C250 1.369 . S
C249 H262 0.950 . S
C250 C249 1.369 . S
C250 C251 1.392 . S
C250 H263 0.951 . S
C251 C250 1.392 . S
C251 C253 1.384 . S
H252 C254 0.949 . S
C253 C251 1.384 . S
C253 C254 1.385 . S
C253 H255 0.950 . S
C254 C248 1.404 . S
C254 H252 0.949 . S
C254 C253 1.385 . S
H255 C253 0.950 . S
H256 C240 0.951 . S
H257 C242 0.951 . S
H258 C244 0.951 . S
H259 C245 0.950 . S
H260 C246 0.950 . S
H261 C247 0.950 . S
H262 C249 0.950 . S
H263 C250 0.951 . S
C264 C265 1.386 . S
C264 C266 1.383 . S
C264 H280 0.951 . S
C265 C264 1.386 . S
C265 C269 1.383 . S
C266 C264 1.383 . S
C266 C267 1.402 . S
C266 H281 0.951 . S
C267 C266 1.402 . S
C267 C268 1.375 . S
C267 C270 1.481 . S
C268 C267 1.375 . S
C268 C269 1.367 . S
C268 H282 0.951 . S
C269 C265 1.383 . S
C269 C268 1.367 . S
C269 H283 0.950 . S
C270 C267 1.481 . S
C270 C271 1.297 . S
C270 H284 0.950 . S
C271 C270 1.297 . S
C271 C272 1.479 . S
C271 H285 0.950 . S
C272 C271 1.479 . S
C272 C273 1.375 . S
C272 C278 1.404 . S
C273 C272 1.375 . S
C273 C274 1.369 . S
C273 H286 0.950 . S
C274 C273 1.369 . S
C274 C275 1.392 . S
C274 H287 0.951 . S
C275 C274 1.392 . S
C275 C277 1.384 . S
H276 C278 0.949 . S
C277 C275 1.384 . S
C277 C278 1.385 . S
C277 H279 0.950 . S
C278 C272 1.404 . S
C278 H276 0.949 . S
C278 C277 1.385 . S
H279 C277 0.950 . S
H280 C264 0.951 . S
H281 C266 0.951 . S
H282 C268 0.951 . S
H283 C269 0.950 . S
H284 C270 0.950 . S
H285 C271 0.950 . S
H286 C273 0.950 . S
H287 C274 0.951 . S
C288 C289 1.386 . S
C288 C290 1.383 . S
C288 H304 0.951 . S
C289 C288 1.386 . S
C289 C293 1.383 . S
C290 C288 1.383 . S
C290 C291 1.402 . S
C290 H305 0.951 . S
C291 C290 1.402 . S
C291 C292 1.375 . S
C291 C294 1.481 . S
C292 C291 1.375 . S
C292 C293 1.367 . S
C292 H306 0.951 . S
C293 C289 1.383 . S
C293 C292 1.367 . S
C293 H307 0.950 . S
C294 C291 1.481 . S
C294 C295 1.297 . S
C294 H308 0.950 . S
C295 C294 1.297 . S
C295 C296 1.479 . S
C295 H309 0.950 . S
C296 C295 1.479 . S
C296 C297 1.375 . S
C296 C302 1.404 . S
C297 C296 1.375 . S
C297 C298 1.369 . S
C297 H310 0.950 . S
C298 C297 1.369 . S
C298 C299 1.392 . S
C298 H311 0.951 . S
C299 C298 1.392 . S
C299 C301 1.384 . S
H300 C302 0.949 . S
C301 C299 1.384 . S
C301 C302 1.385 . S
C301 H303 0.950 . S
C302 C296 1.404 . S
C302 H300 0.949 . S
C302 C301 1.385 . S
H303 C301 0.950 . S
H304 C288 0.951 . S
H305 C290 0.951 . S
H306 C292 0.951 . S
H307 C293 0.950 . S
H308 C294 0.950 . S
H309 C295 0.950 . S
H310 C297 0.950 . S
H311 C298 0.951 . S
C312 C313 1.386 . S
C312 C314 1.383 . S
C312 H328 0.951 . S
C313 C312 1.386 . S
C313 C317 1.383 . S
C314 C312 1.383 . S
C314 C315 1.402 . S
C314 H329 0.951 . S
C315 C314 1.402 . S
C315 C316 1.375 . S
C315 C318 1.481 . S
C316 C315 1.375 . S
C316 C317 1.367 . S
C316 H330 0.951 . S
C317 C313 1.383 . S
C317 C316 1.367 . S
C317 H331 0.950 . S
C318 C315 1.481 . S
C318 C319 1.297 . S
C318 H332 0.950 . S
C319 C318 1.297 . S
C319 C320 1.479 . S
C319 H333 0.950 . S
C320 C319 1.479 . S
C320 C321 1.375 . S
C320 C326 1.404 . S
C321 C320 1.375 . S
C321 C322 1.369 . S
C321 H334 0.950 . S
C322 C321 1.369 . S
C322 C323 1.392 . S
C322 H335 0.951 . S
C323 C322 1.392 . S
C323 C325 1.384 . S
H324 C326 0.949 . S
C325 C323 1.384 . S
C325 C326 1.385 . S
C325 H327 0.950 . S
C326 C320 1.404 . S
C326 H324 0.949 . S
C326 C325 1.385 . S
H327 C325 0.950 . S
H328 C312 0.951 . S
H329 C314 0.951 . S
H330 C316 0.951 . S
H331 C317 0.950 . S
H332 C318 0.950 . S
H333 C319 0.950 . S
H334 C321 0.950 . S
H335 C322 0.951 . S
C336 C337 1.386 . S
C336 C338 1.383 . S
C336 H352 0.951 . S
C337 C336 1.386 . S
C337 C341 1.383 . S
C338 C336 1.383 . S
C338 C339 1.402 . S
C338 H353 0.951 . S
C339 C338 1.402 . S
C339 C340 1.375 . S
C339 C342 1.481 . S
C340 C339 1.375 . S
C340 C341 1.367 . S
C340 H354 0.951 . S
C341 C337 1.383 . S
C341 C340 1.367 . S
C341 H355 0.950 . S
C342 C339 1.481 . S
C342 C343 1.297 . S
C342 H356 0.950 . S
C343 C342 1.297 . S
C343 C344 1.479 . S
C343 H357 0.950 . S
C344 C343 1.479 . S
C344 C345 1.375 . S
C344 C350 1.404 . S
C345 C344 1.375 . S
C345 C346 1.369 . S
C345 H358 0.950 . S
C346 C345 1.369 . S
C346 C347 1.392 . S
C346 H359 0.951 . S
C347 C346 1.392 . S
C347 C349 1.384 . S
H348 C350 0.949 . S
C349 C347 1.384 . S
C349 C350 1.385 . S
C349 H351 0.950 . S
C350 C344 1.404 . S
C350 H348 0.949 . S
C350 C349 1.385 . S
H351 C349 0.950 . S
H352 C336 0.951 . S
H353 C338 0.951 . S
H354 C340 0.951 . S
H355 C341 0.950 . S
H356 C342 0.950 . S
H357 C343 0.950 . S
H358 C345 0.950 . S
H359 C346 0.951 . S
C360 C361 1.386 . S
C360 C362 1.383 . S
C360 H376 0.951 . S
C361 C360 1.386 . S
C361 C365 1.383 . S
C362 C360 1.383 . S
C362 C363 1.402 . S
C362 H377 0.951 . S
C363 C362 1.402 . S
C363 C364 1.375 . S
C363 C366 1.481 . S
C364 C363 1.375 . S
C364 C365 1.367 . S
C364 H378 0.951 . S
C365 C361 1.383 . S
C365 C364 1.367 . S
C365 H379 0.950 . S
C366 C363 1.481 . S
C366 C367 1.297 . S
C366 H380 0.950 . S
C367 C366 1.297 . S
C367 C368 1.479 . S
C367 H381 0.950 . S
C368 C367 1.479 . S
C368 C369 1.375 . S
C368 C374 1.404 . S
C369 C368 1.375 . S
C369 C370 1.369 . S
C369 H382 0.950 . S
C370 C369 1.369 . S
C370 C371 1.392 . S
C370 H383 0.951 . S
C371 C370 1.392 . S
C371 C373 1.384 . S
H372 C374 0.949 . S
C373 C371 1.384 . S
C373 C374 1.385 . S
C373 H375 0.950 . S
C374 C368 1.404 . S
C374 H372 0.949 . S
C374 C373 1.385 . S
H375 C373 0.950 . S
H376 C360 0.951 . S
H377 C362 0.951 . S
H378 C364 0.951 . S
H379 C365 0.950 . S
H380 C366 0.950 . S
H381 C367 0.950 . S
H382 C369 0.950 . S
H383 C370 0.951 . S
C384 C385 1.386 . S
C384 C386 1.383 . S
C384 H400 0.951 . S
C385 C384 1.386 . S
C385 C389 1.383 . S
C386 C384 1.383 . S
C386 C387 1.402 . S
C386 H401 0.951 . S
C387 C386 1.402 . S
C387 C388 1.375 . S
C387 C390 1.481 . S
C388 C387 1.375 . S
C388 C389 1.367 . S
C388 H402 0.951 . S
C389 C385 1.383 . S
C389 C388 1.367 . S
C389 H403 0.950 . S
C390 C387 1.481 . S
C390 C391 1.297 . S
C390 H404 0.950 . S
C391 C390 1.297 . S
C391 C392 1.479 . S
C391 H405 0.950 . S
C392 C391 1.479 . S
C392 C393 1.375 . S
C392 C398 1.404 . S
C393 C392 1.375 . S
C393 C394 1.369 . S
C393 H406 0.950 . S
C394 C393 1.369 . S
C394 C395 1.392 . S
C394 H407 0.951 . S
C395 C394 1.392 . S
C395 C397 1.384 . S
H396 C398 0.949 . S
C397 C395 1.384 . S
C397 C398 1.385 . S
C397 H399 0.950 . S
C398 C392 1.404 . S
C398 H396 0.949 . S
C398 C397 1.385 . S
H399 C397 0.950 . S
H400 C384 0.951 . S
H401 C386 0.951 . S
H402 C388 0.951 . S
H403 C389 0.950 . S
H404 C390 0.950 . S
H405 C391 0.950 . S
H406 C393 0.950 . S
H407 C394 0.951 . S
C408 C409 1.386 . S
C408 C410 1.383 . S
C408 H424 0.951 . S
C409 C408 1.386 . S
C409 C413 1.383 . S
C410 C408 1.383 . S
C410 C411 1.402 . S
C410 H425 0.951 . S
C411 C410 1.402 . S
C411 C412 1.375 . S
C411 C414 1.481 1_455 S
C412 C411 1.375 . S
C412 C413 1.367 . S
C412 H426 0.951 1_455 S
C413 C409 1.383 . S
C413 C412 1.367 . S
C413 H427 0.950 . S
C414 C411 1.481 1_655 S
C414 C415 1.297 . S
C414 H428 0.950 . S
C415 C414 1.297 . S
C415 C416 1.479 . S
C415 H429 0.950 1_655 S
C416 C415 1.479 . S
C416 C417 1.375 . S
C416 C422 1.404 . S
C417 C416 1.375 . S
C417 C418 1.369 . S
C417 H430 0.950 1_655 S
C418 C417 1.369 . S
C418 C419 1.392 . S
C418 H431 0.951 . S
C419 C418 1.392 . S
C419 C421 1.384 . S
H420 C422 0.949 . S
C421 C419 1.384 . S
C421 C422 1.385 . S
C421 H423 0.950 . S
C422 C416 1.404 . S
C422 H420 0.949 . S
C422 C421 1.385 . S
H423 C421 0.950 . S
H424 C408 0.951 . S
H425 C410 0.951 . S
H426 C412 0.951 1_655 S
H427 C413 0.950 . S
H428 C414 0.950 . S
H429 C415 0.950 1_455 S
H430 C417 0.950 1_455 S
H431 C418 0.951 . S
C432 C433 1.386 . S
C432 C434 1.383 . S
C432 H448 0.951 . S
C433 C432 1.386 . S
C433 C437 1.383 . S
C434 C432 1.383 . S
C434 C435 1.402 . S
C434 H449 0.951 . S
C435 C434 1.402 . S
C435 C436 1.375 . S
C435 C438 1.481 1_545 S
C436 C435 1.375 . S
C436 C437 1.367 . S
C436 H450 0.951 . S
C437 C433 1.383 . S
C437 C436 1.367 . S
C437 H451 0.950 . S
C438 C435 1.481 1_565 S
C438 C439 1.297 . S
C438 H452 0.950 . S
C439 C438 1.297 . S
C439 C440 1.479 . S
C439 H453 0.950 . S
C440 C439 1.479 . S
C440 C441 1.375 . S
C440 C446 1.404 . S
C441 C440 1.375 . S
C441 C442 1.369 . S
C441 H454 0.950 . S
C442 C441 1.369 . S
C442 C443 1.392 . S
C442 H455 0.951 . S
C443 C442 1.392 . S
C443 C445 1.384 . S
H444 C446 0.949 . S
C445 C443 1.384 . S
C445 C446 1.385 . S
C445 H447 0.950 . S
C446 C440 1.404 . S
C446 H444 0.949 . S
C446 C445 1.385 . S
H447 C445 0.950 . S
H448 C432 0.951 . S
H449 C434 0.951 . S
H450 C436 0.951 . S
H451 C437 0.950 . S
H452 C438 0.950 . S
H453 C439 0.950 . S
H454 C441 0.950 . S
H455 C442 0.951 . S
C456 C457 1.386 . S
C456 C458 1.383 . S
C456 H472 0.951 . S
C457 C456 1.386 . S
C457 C461 1.383 . S
C458 C456 1.383 . S
C458 C459 1.402 . S
C458 H473 0.951 . S
C459 C458 1.402 . S
C459 C460 1.375 . S
C459 C462 1.481 . S
C460 C459 1.375 . S
C460 C461 1.367 . S
C460 H474 0.951 . S
C461 C457 1.383 . S
C461 C460 1.367 . S
C461 H475 0.950 . S
C462 C459 1.481 . S
C462 C463 1.297 . S
C462 H476 0.950 . S
C463 C462 1.297 . S
C463 C464 1.479 . S
C463 H477 0.950 . S
C464 C463 1.479 . S
C464 C465 1.375 . S
C464 C470 1.404 . S
C465 C464 1.375 . S
C465 C466 1.369 . S
C465 H478 0.950 . S
C466 C465 1.369 . S
C466 C467 1.392 . S
C466 H479 0.951 . S
C467 C466 1.392 . S
C467 C469 1.384 . S
H468 C470 0.949 . S
C469 C467 1.384 . S
C469 C470 1.385 . S
C469 H471 0.950 . S
C470 C464 1.404 . S
C470 H468 0.949 . S
C470 C469 1.385 . S
H471 C469 0.950 . S
H472 C456 0.951 . S
H473 C458 0.951 . S
H474 C460 0.951 . S
H475 C461 0.950 . S
H476 C462 0.950 . S
H477 C463 0.950 . S
H478 C465 0.950 . S
H479 C466 0.951 . S
C480 C481 1.386 . S
C480 C482 1.383 . S
C480 H496 0.951 1_554 S
C481 C480 1.386 . S
C481 C485 1.383 . S
C482 C480 1.383 . S
C482 C483 1.402 . S
C482 H497 0.915 1_554 S
C483 C482 1.402 . S
C483 C484 1.375 . S
C483 C486 1.481 1_455 S
C484 C483 1.375 . S
C484 C485 1.367 . S
C484 H498 0.951 . S
C485 C481 1.383 . S
C485 C484 1.367 . S
C485 H499 0.950 . S
C486 C483 1.481 1_655 S
C486 C487 1.297 . S
C486 H500 0.950 . S
C487 C486 1.297 . S
C487 C488 1.479 . S
C487 H501 0.950 . S
C488 C487 1.479 . S
C488 C489 1.375 . S
C488 C494 1.404 . S
C489 C488 1.375 . S
C489 C490 1.369 . S
C489 H502 0.950 1_554 S
C490 C489 1.369 . S
C490 C491 1.392 . S
C490 H503 0.951 1_554 S
C491 C490 1.392 . S
C491 C493 1.384 . S
H492 C494 0.949 . S
C493 C491 1.384 . S
C493 C494 1.385 . S
C493 H495 0.950 . S
C494 C488 1.404 . S
C494 H492 0.949 . S
C494 C493 1.385 . S
H495 C493 0.950 . S
H496 C480 0.951 1_556 S
H497 C482 0.915 1_556 S
H498 C484 0.951 . S
H499 C485 0.950 . S
H500 C486 0.950 . S
H501 C487 0.950 . S
H502 C489 0.950 1_556 S
H503 C490 0.951 1_556 S
C504 C505 1.386 . S
C504 C506 1.383 . S
C504 H520 0.951 . S
C505 C504 1.386 . S
C505 C509 1.383 . S
C506 C504 1.383 . S
C506 C507 1.402 . S
C506 H521 0.951 . S
C507 C506 1.402 . S
C507 C508 1.375 . S
C507 C510 1.481 . S
C508 C507 1.375 . S
C508 C509 1.367 . S
C508 H522 0.951 . S
C509 C505 1.383 . S
C509 C508 1.367 . S
C509 H523 0.950 . S
C510 C507 1.481 . S
C510 C511 1.297 1_565 S
C510 H524 0.950 . S
C511 C510 1.297 1_545 S
C511 C512 1.479 . S
C511 H525 0.950 . S
C512 C511 1.479 . S
C512 C513 1.375 . S
C512 C518 1.404 . S
C513 C512 1.375 . S
C513 C514 1.369 . S
C513 H526 0.950 . S
C514 C513 1.369 . S
C514 C515 1.392 . S
C514 H527 0.951 . S
C515 C514 1.392 . S
C515 C517 1.384 . S
H516 C518 0.949 . S
C517 C515 1.384 . S
C517 C518 1.385 . S
C517 H519 0.950 . S
C518 C512 1.404 . S
C518 H516 0.949 . S
C518 C517 1.385 . S
H519 C517 0.950 . S
H520 C504 0.951 . S
H521 C506 0.951 . S
H522 C508 0.951 . S
H523 C509 0.950 . S
H524 C510 0.950 . S
H525 C511 0.950 . S
H526 C513 0.950 . S
H527 C514 0.951 . S
C528 C529 1.386 . S
C528 C530 1.383 . S
C528 H544 0.951 . S
C529 C528 1.386 . S
C529 C533 1.383 . S
C530 C528 1.383 . S
C530 C531 1.402 . S
C530 H545 0.951 . S
C531 C530 1.402 . S
C531 C532 1.375 . S
C531 C534 1.481 . S
C532 C531 1.375 . S
C532 C533 1.367 . S
C532 H546 0.951 . S
C533 C529 1.383 . S
C533 C532 1.367 . S
C533 H547 0.950 . S
C534 C531 1.481 . S
C534 C535 1.297 . S
C534 H548 0.950 . S
C535 C534 1.297 . S
C535 C536 1.479 . S
C535 H549 0.950 . S
C536 C535 1.479 . S
C536 C537 1.375 . S
C536 C542 1.404 . S
C537 C536 1.375 . S
C537 C538 1.369 . S
C537 H550 0.950 . S
C538 C537 1.369 . S
C538 C539 1.392 . S
C538 H551 0.951 . S
C539 C538 1.392 . S
C539 C541 1.384 . S
H540 C542 0.949 . S
C541 C539 1.384 . S
C541 C542 1.385 . S
C541 H543 0.950 . S
C542 C536 1.404 . S
C542 H540 0.949 . S
C542 C541 1.385 . S
H543 C541 0.950 . S
H544 C528 0.951 . S
H545 C530 0.951 . S
H546 C532 0.951 . S
H547 C533 0.950 . S
H548 C534 0.950 . S
H549 C535 0.950 . S
H550 C537 0.950 . S
H551 C538 0.951 . S
C552 C553 1.386 . S
C552 C554 1.383 . S
C552 H568 0.951 . S
C553 C552 1.386 . S
C553 C557 1.383 1_655 S
C554 C552 1.383 . S
C554 C555 1.402 1_655 S
C554 H569 0.951 . S
C555 C554 1.402 1_455 S
C555 C556 1.375 . S
C555 C558 1.481 . S
C556 C555 1.375 . S
C556 C557 1.367 . S
C556 H570 0.951 . S
C557 C553 1.383 1_455 S
C557 C556 1.367 . S
C557 H571 0.950 . S
C558 C555 1.481 . S
C558 C559 1.297 . S
C558 H572 0.950 . S
C559 C558 1.297 . S
C559 C560 1.479 . S
C559 H573 0.950 . S
C560 C559 1.479 . S
C560 C561 1.375 . S
C560 C566 1.404 . S
C561 C560 1.375 . S
C561 C562 1.369 . S
C561 H574 0.950 . S
C562 C561 1.369 . S
C562 C563 1.392 . S
C562 H575 0.951 . S
C563 C562 1.392 . S
C563 C565 1.384 . S
H564 C566 0.949 . S
C565 C563 1.384 . S
C565 C566 1.385 . S
C565 H567 0.950 . S
C566 C560 1.404 . S
C566 H564 0.949 . S
C566 C565 1.385 . S
H567 C565 0.950 . S
H568 C552 0.951 . S
H569 C554 0.951 . S
H570 C556 0.951 . S
H571 C557 0.950 . S
H572 C558 0.950 . S
H573 C559 0.950 . S
H574 C561 0.950 . S
H575 C562 0.951 . S
C576 C577 1.386 1_545 S
C576 C578 1.383 . S
C576 H592 0.951 . S
C577 C576 1.386 1_565 S
C577 C581 1.383 . S
C578 C576 1.383 . S
C578 C579 1.402 . S
C578 H593 0.951 . S
C579 C578 1.402 . S
C579 C580 1.375 1_545 S
C579 C582 1.481 . S
C580 C579 1.375 1_565 S
C580 C581 1.367 . S
C580 H594 0.951 . S
C581 C577 1.383 . S
C581 C580 1.367 . S
C581 H595 0.950 . S
C582 C579 1.481 . S
C582 C583 1.297 . S
C582 H596 0.950 . S
C583 C582 1.297 . S
C583 C584 1.479 . S
C583 H597 0.950 . S
C584 C583 1.479 . S
C584 C585 1.375 . S
C584 C590 1.404 . S
C585 C584 1.375 . S
C585 C586 1.369 . S
C585 H598 0.950 . S
C586 C585 1.369 . S
C586 C587 1.392 . S
C586 H599 0.951 . S
C587 C586 1.392 . S
C587 C589 1.384 . S
H588 C590 0.949 . S
C589 C587 1.384 . S
C589 C590 1.385 . S
C589 H591 0.950 . S
C590 C584 1.404 . S
C590 H588 0.949 . S
C590 C589 1.385 . S
H591 C589 0.950 . S
H592 C576 0.951 . S
H593 C578 0.951 . S
H594 C580 0.951 . S
H595 C581 0.950 . S
H596 C582 0.950 . S
H597 C583 0.950 . S
H598 C585 0.950 . S
H599 C586 0.951 . S
C600 C601 1.386 . S
C600 C602 1.383 . S
C600 H616 0.951 . S
C601 C600 1.386 . S
C601 C605 1.383 . S
C602 C600 1.383 . S
C602 C603 1.402 . S
C602 H617 0.951 . S
C603 C602 1.402 . S
C603 C604 1.375 . S
C603 C606 1.481 . S
C604 C603 1.375 . S
C604 C605 1.367 . S
C604 H618 0.951 . S
C605 C601 1.383 . S
C605 C604 1.367 . S
C605 H619 0.950 . S
C606 C603 1.481 . S
C606 C607 1.297 . S
C606 H620 0.950 . S
C607 C606 1.297 . S
C607 C608 1.479 . S
C607 H621 0.950 . S
C608 C607 1.479 . S
C608 C609 1.375 . S
C608 C614 1.404 . S
C609 C608 1.375 . S
C609 C610 1.369 . S
C609 H622 0.950 . S
C610 C609 1.369 . S
C610 C611 1.392 . S
C610 H623 0.951 . S
C611 C610 1.392 . S
C611 C613 1.384 . S
H612 C614 0.949 . S
C613 C611 1.384 . S
C613 C614 1.385 . S
C613 H615 0.950 . S
C614 C608 1.404 . S
C614 H612 0.949 . S
C614 C613 1.385 . S
H615 C613 0.950 . S
H616 C600 0.951 . S
H617 C602 0.951 . S
H618 C604 0.951 . S
H619 C605 0.950 . S
H620 C606 0.950 . S
H621 C607 0.950 . S
H622 C609 0.950 . S
H623 C610 0.951 . S
C624 C625 1.386 1_655 S
C624 C626 1.383 . S
C624 H640 0.951 . S
C625 C624 1.386 1_455 S
C625 C629 1.383 . S
C626 C624 1.383 . S
C626 C627 1.402 . S
C626 H641 0.951 . S
C627 C626 1.402 . S
C627 C628 1.375 1_655 S
C627 C630 1.481 . S
C628 C627 1.375 1_455 S
C628 C629 1.367 . S
C628 H642 0.951 . S
C629 C625 1.383 . S
C629 C628 1.367 . S
C629 H643 0.950 . S
C630 C627 1.481 . S
C630 C631 1.297 . S
C630 H644 0.950 . S
C631 C630 1.297 . S
C631 C632 1.479 . S
C631 H645 0.950 . S
C632 C631 1.479 . S
C632 C633 1.375 . S
C632 C638 1.404 . S
C633 C632 1.375 . S
C633 C634 1.369 . S
C633 H646 0.950 . S
C634 C633 1.369 . S
C634 C635 1.392 . S
C634 H647 0.951 . S
C635 C634 1.392 . S
C635 C637 1.384 . S
H636 C638 0.949 . S
C637 C635 1.384 . S
C637 C638 1.385 . S
C637 H639 0.950 . S
C638 C632 1.404 . S
C638 H636 0.949 . S
C638 C637 1.385 . S
H639 C637 0.950 . S
H640 C624 0.951 . S
H641 C626 0.951 . S
H642 C628 0.951 . S
H643 C629 0.950 . S
H644 C630 0.950 . S
H645 C631 0.950 . S
H646 C633 0.950 . S
H647 C634 0.951 . S
C648 C649 1.385 1_565 S
C648 C650 1.387 . S
C648 H664 0.948 . S
C649 C648 1.385 1_545 S
C649 C653 1.383 . S
C650 C648 1.387 . S
C650 C651 1.402 . S
C650 H665 0.951 . S
C651 C650 1.402 . S
C651 C652 1.375 1_565 S
C651 C654 1.481 . S
C652 C651 1.375 1_545 S
C652 C653 1.367 . S
C652 H666 0.951 . S
C653 C649 1.383 . S
C653 C652 1.367 . S
C653 H667 0.950 . S
C654 C651 1.481 . S
C654 C655 1.297 . S
C654 H668 0.950 . S
C655 C654 1.297 . S
C655 C656 1.479 . S
C655 H669 0.950 . S
C656 C655 1.479 . S
C656 C657 1.375 . S
C656 C662 1.404 . S
C657 C656 1.375 . S
C657 C658 1.369 . S
C657 H670 0.950 . S
C658 C657 1.369 . S
C658 C659 1.392 . S
C658 H671 0.951 . S
C659 C658 1.392 . S
C659 C661 1.384 . S
H660 C662 0.949 . S
C661 C659 1.384 . S
C661 C662 1.385 . S
C661 H663 0.950 . S
C662 C656 1.404 . S
C662 H660 0.949 . S
C662 C661 1.385 . S
H663 C661 0.950 . S
H664 C648 0.948 . S
H665 C650 0.951 . S
H666 C652 0.951 . S
H667 C653 0.950 . S
H668 C654 0.950 . S
H669 C655 0.950 . S
H670 C657 0.950 . S
H671 C658 0.951 . S
C241 C179 1.159 . S
C251 C6 1.168 . S
C265 C219 1.179 . S
C275 C46 1.169 . S
C289 C19 1.180 . S
C299 C86 1.164 . S
C313 C59 1.161 . S
C323 C126 1.172 . S
C337 C99 1.163 . S
C347 C166 1.165 . S
C361 C139 1.181 . S
C371 C206 1.167 . S
C385 C9 0.791 . S
C395 C129 0.569 . S
C409 C169 0.788 . S
C419 C49 0.648 . S
C433 C209 0.776 . S
C443 C89 0.521 . S
C457 C98 0.694 . S
C467 C218 0.693 . S
C481 C18 0.696 . S
C491 C138 0.696 . S
C505 C178 0.696 . S
C515 C58 0.697 . S
C529 C210 1.221 . S
C539 C15 1.218 . S
C553 C55 1.184 . S
C563 C10 1.216 . S
C577 C95 1.197 . S
C587 C50 1.222 . S
C601 C90 1.220 . S
C611 C135 1.223 . S
C625 C175 1.220 . S
C635 C130 1.213 . S
C649 C215 1.195 . S
C659 C170 1.222 . S
