# Generated by pormake.
# Topology loh, (5)-cn, num edge types: 1
# Building blocks:
#     Node 0, Type 0, BuildingBlock: XOMCOT_clean_sbu_0, # of connection points: 5
#     Node 1, Type 0, BuildingBlock: XOMCOT_clean_sbu_0, # of connection points: 5
#     Node 2, Type 0, BuildingBlock: XOMCOT_clean_sbu_0, # of connection points: 5
#     Node 3, Type 0, BuildingBlock: XOMCOT_clean_sbu_0, # of connection points: 5
#     Node 4, Type 0, BuildingBlock: XOMCOT_clean_sbu_0, # of connection points: 5
#     Node 5, Type 0, BuildingBlock: XOMCOT_clean_sbu_0, # of connection points: 5
#     Node 6, Type 0, BuildingBlock: XOMCOT_clean_sbu_0, # of connection points: 5
#     Node 7, Type 0, BuildingBlock: XOMCOT_clean_sbu_0, # of connection points: 5
#     Edge 8, Type (0, 0), BuildingBlock: EZIPEK_clean_linker_0, # of connection points: 2
#     Edge 9, Type (0, 0), BuildingBlock: EZIPEK_clean_linker_0, # of connection points: 2
#     Edge 10, Type (0, 0), BuildingBlock: EZIPEK_clean_linker_0, # of connection points: 2
#     Edge 11, Type (0, 0), BuildingBlock: EZIPEK_clean_linker_0, # of connection points: 2
#     Edge 12, Type (0, 0), BuildingBlock: EZIPEK_clean_linker_0, # of connection points: 2
#     Edge 13, Type (0, 0), BuildingBlock: EZIPEK_clean_linker_0, # of connection points: 2
#     Edge 14, Type (0, 0), BuildingBlock: EZIPEK_clean_linker_0, # of connection points: 2
#     Edge 15, Type (0, 0), BuildingBlock: EZIPEK_clean_linker_0, # of connection points: 2
#     Edge 16, Type (0, 0), BuildingBlock: EZIPEK_clean_linker_0, # of connection points: 2
#     Edge 17, Type (0, 0), BuildingBlock: EZIPEK_clean_linker_0, # of connection points: 2
#     Edge 18, Type (0, 0), BuildingBlock: EZIPEK_clean_linker_0, # of connection points: 2
#     Edge 19, Type (0, 0), BuildingBlock: EZIPEK_clean_linker_0, # of connection points: 2
#     Edge 20, Type (0, 0), BuildingBlock: EZIPEK_clean_linker_0, # of connection points: 2
#     Edge 21, Type (0, 0), BuildingBlock: EZIPEK_clean_linker_0, # of connection points: 2
#     Edge 22, Type (0, 0), BuildingBlock: EZIPEK_clean_linker_0, # of connection points: 2
#     Edge 23, Type (0, 0), BuildingBlock: EZIPEK_clean_linker_0, # of connection points: 2
#     Edge 24, Type (0, 0), BuildingBlock: EZIPEK_clean_linker_0, # of connection points: 2
#     Edge 25, Type (0, 0), BuildingBlock: EZIPEK_clean_linker_0, # of connection points: 2
#     Edge 26, Type (0, 0), BuildingBlock: EZIPEK_clean_linker_0, # of connection points: 2
#     Edge 27, Type (0, 0), BuildingBlock: EZIPEK_clean_linker_0, # of connection points: 2
# Relax obj value: 0.203
# Max RMSD: 0.133
# Mean RMSD: 0.133
data_MOF--net-loh--node1-XOMCOT_clean_sbu_0--edge1-EZIPEK_clean_linker_0
_symmetry_space_group_name_H-M    P1
_symmetry_Int_Tables_number       1
_symmetry_cell_setting            triclinic
loop_
_symmetry_equiv_pos_as_xyz
'x, y, z'
_cell_length_a     20.259096
_cell_length_b     18.468594
_cell_length_c     31.616013
_cell_angle_alpha  89.981933
_cell_angle_beta   91.041595
_cell_angle_gamma 88.88771
loop_
_atom_site_label
_atom_site_type_symbol
_atom_site_fract_x
_atom_site_fract_y
_atom_site_fract_z
_atom_type_partial_charge
Co0 Co 0.1973 0.29055 0.16087 0.0
C1 C 0.17348 0.1484 0.20415 0.0
C2 C 0.2751 0.17924 0.20695 0.0
C3 C 0.26919 0.11473 0.22836 0.0
N4 N 0.21521 0.20078 0.19191 0.0
N5 N 0.20543 0.09515 0.22657 0.0
H6 H 0.12093 0.14936 0.19732 0.0
H7 H 0.32013 0.20876 0.20288 0.0
C8 C 0.27184 0.2687 0.07766 0.0
O9 O 0.22026 0.28144 0.05313 0.0
N10 N 0.17933 0.3804 0.12913 0.0
C11 C 0.19232 0.4501 0.13909 0.0
C12 C 0.16443 0.49566 0.10872 0.0
C13 C 0.14423 0.38565 0.09258 0.0
N14 N 0.13473 0.45393 0.07969 0.0
C15 C 0.06075 0.2799 0.14102 0.0
C16 C 0.0706 0.19349 0.07009 0.0
C17 C 1.013 0.23678 0.07497 0.0
C18 C 1.0075 0.27674 0.11246 0.0
C19 C 0.12401 0.19965 0.09929 0.0
N20 N 0.12028 0.24769 0.13215 0.0
H21 H 0.05642 0.3166 0.16738 0.0
H22 H 0.16969 0.17044 0.09351 0.0
H23 H 0.21778 0.46788 0.16696 0.0
H24 H 0.12197 0.34127 0.07609 0.0
O25 O 0.15402 0.33217 0.2104 0.0
O26 O 0.25969 0.34035 0.1976 0.0
O27 O 0.26637 0.26034 0.1177 0.0
C28 C 0.21122 0.35697 0.22222 0.0
H29 H 0.30873 0.0843 0.24411 0.0
H30 H 0.16309 0.55428 0.10904 0.0
H31 H 0.076 0.15931 0.0425 0.0
H32 H 0.96373 0.30954 0.11838 0.0
Co33 Co 0.66016 0.7512 0.67194 0.0
C34 C 0.66462 0.89367 0.71871 0.0
C35 C 0.65042 0.90665 0.65176 0.0
C36 C 0.65184 0.97417 0.6698 0.0
N37 N 0.65784 0.85565 0.68216 0.0
N38 N 0.66078 0.96622 0.71177 0.0
H39 H 0.67179 0.86932 0.74961 0.0
H40 H 0.64569 0.89627 0.61841 0.0
C41 C 0.57783 0.77867 0.58821 0.0
O42 O 0.62803 0.80051 0.56625 0.0
N43 N 0.66267 0.64787 0.66243 0.0
C44 C 0.71164 0.60019 0.67326 0.0
C45 C 0.69944 0.53503 0.65375 0.0
C46 C 0.62094 0.61093 0.63777 0.0
N47 N 0.64394 0.54385 0.63011 0.0
C48 C 0.78413 0.80469 0.64067 0.0
C49 C 0.7895 0.71654 0.57001 0.0
C50 C 0.84235 0.76215 0.57843 0.0
C51 C 0.83918 0.80706 0.61424 0.0
C52 C 0.73486 0.71761 0.59626 0.0
N53 N 0.73187 0.76137 0.63118 0.0
H54 H 0.78411 0.83683 0.66924 0.0
H55 H 0.695 0.68254 0.58811 0.0
H56 H 0.75576 0.61328 0.69121 0.0
H57 H 0.5783 0.63442 0.62158 0.0
O58 O 0.71205 0.73148 0.72335 0.0
O59 O 0.60346 0.73407 0.71916 0.0
O60 O 0.58481 0.76259 0.62762 0.0
C61 C 0.65613 0.71512 0.74072 0.0
H62 H 0.64706 0.02553 0.65339 0.0
H63 H 0.73259 0.48844 0.65275 0.0
H64 H 0.79019 0.68058 0.54294 0.0
H65 H 0.87959 0.84243 0.62218 0.0
Co66 Co 0.94186 0.75299 0.90541 0.0
C67 C 0.94497 0.87843 0.84282 0.0
C68 C 0.96582 0.90643 0.9075 0.0
C69 C 0.96771 0.96832 0.88383 0.0
N70 N 0.95238 0.84957 0.88216 0.0
N71 N 0.95466 0.95115 0.84329 0.0
H72 H 0.933 0.84765 0.81471 0.0
H73 H 0.97277 0.90348 0.94142 0.0
C74 C 1.03968 0.74401 0.9809 0.0
O75 O 1.00701 0.69254 0.99931 0.0
N76 N 0.92979 0.65834 0.93017 0.0
C77 C 0.87604 0.63504 0.94989 0.0
C78 C 0.88999 0.56908 0.96756 0.0
C79 C 0.97464 0.60403 0.93431 0.0
N80 N 0.95275 0.54875 0.95834 0.0
C81 C 0.81104 0.80477 0.92368 0.0
C82 C 0.82353 0.78941 1.01031 0.0
C83 C 0.76004 0.78988 0.99196 0.0
C84 C 0.754 0.8039 0.94835 0.0
C85 C 0.87874 0.79327 0.98474 0.0
N86 N 0.87214 0.79268 0.94167 0.0
H87 H 0.80581 0.80901 0.88975 0.0
H88 H 0.92597 0.79007 1.00005 0.0
H89 H 0.83018 0.66444 0.95264 0.0
H90 H 1.02454 0.60928 0.92379 0.0
O91 O 0.88851 0.7204 0.85694 0.0
O92 O 0.99647 0.70766 0.86206 0.0
O93 O 1.01752 0.77523 0.9471 0.0
C94 C 0.94244 0.69226 0.84146 0.0
H95 H 0.97797 1.02222 0.89539 0.0
H96 H 0.8569 0.5431 0.98875 0.0
H97 H 0.83072 0.78158 0.04406 0.0
H98 H 0.7058 0.80752 0.93304 0.0
Co99 Co 0.4646 0.29489 0.40287 0.0
C100 C 0.47241 0.14572 0.36558 0.0
C101 C 0.37342 0.18908 0.36726 0.0
C102 C 0.3722 0.12382 0.34635 0.0
N103 N 0.43601 0.20284 0.37968 0.0
N104 N 0.43428 0.09662 0.34518 0.0
H105 H 0.5257 0.14178 0.3682 0.0
H106 H 0.33169 0.22548 0.37169 0.0
C107 C 0.37506 0.23555 0.47187 0.0
O108 O 0.38257 0.16823 0.45915 0.0
N109 N 0.49218 0.38641 0.42579 0.0
C110 C 0.51216 0.44794 0.40699 0.0
C111 C 0.53794 0.4929 0.43758 0.0
C112 C 0.50655 0.39485 0.46695 0.0
N113 N 0.53442 0.45837 0.47489 0.0
C114 C 0.60198 0.2812 0.41783 0.0
C115 C 0.59779 0.2101 0.49447 0.0
C116 C 0.65351 0.25132 0.48555 0.0
C117 C 0.65651 0.28318 0.44544 0.0
C118 C 0.54296 0.21179 0.46643 0.0
N119 N 0.54395 0.25161 0.42995 0.0
H120 H 0.60382 0.31228 0.38898 0.0
H121 H 0.49883 0.18569 0.47598 0.0
H122 H 0.51308 0.45826 0.37348 0.0
H123 H 0.50215 0.35285 0.49031 0.0
O124 O 0.50009 0.32077 0.34823 0.0
O125 O 0.39916 0.34512 0.36864 0.0
O126 O 0.4074 0.28613 0.45481 0.0
C127 C 0.44342 0.35303 0.34002 0.0
H128 H 0.3294 0.09934 0.33164 0.0
H129 H 0.56159 0.54419 0.4326 0.0
H130 H 0.59444 0.18211 0.52444 0.0
H131 H 0.69916 0.31382 0.43654 0.0
Co132 Co 0.46327 0.79948 0.17157 0.0
C133 C 0.47067 0.66613 0.22789 0.0
C134 C 0.42674 0.64708 0.16689 0.0
C135 C 0.43027 0.5829 0.188 0.0
N136 N 0.45219 0.70011 0.19132 0.0
N137 N 0.45612 0.59453 0.22671 0.0
H138 H 0.49294 0.69288 0.25489 0.0
H139 H 0.40551 0.65355 0.13561 0.0
C140 C 0.54316 0.71906 0.10192 0.0
O141 O 0.49352 0.6801 0.08886 0.0
N142 N 0.47525 0.8963 0.15018 0.0
C143 C 0.42849 0.94715 0.14092 0.0
C144 C 0.45604 0.99924 0.11563 0.0
C145 C 0.53045 0.91915 0.13181 0.0
N146 N 0.51993 0.98063 0.10991 0.0
C147 C 0.32906 0.77674 0.14799 0.0
C148 C 0.34159 0.79576 0.06181 0.0
C149 C 0.27911 0.78334 0.07822 0.0
C150 C 0.273 0.77357 0.12181 0.0
C151 C 0.39642 0.79791 0.08919 0.0
N152 N 0.38989 0.78825 0.13162 0.0
H153 H 0.32405 0.7687 0.18158 0.0
H154 H 0.44407 0.80686 0.07637 0.0
H155 H 0.37684 0.94304 0.14849 0.0
H156 H 0.57614 0.88848 0.13113 0.0
O157 O 0.41369 0.84079 0.21784 0.0
O158 O 0.52181 0.82241 0.21876 0.0
O159 O 0.53423 0.76489 0.1316 0.0
C160 C 0.47035 0.85164 0.2366 0.0
H161 H 0.41344 0.5313 0.17614 0.0
H162 H 0.42988 0.04312 0.09946 0.0
H163 H 0.34787 0.8032 1.02815 0.0
H164 H 0.22536 0.76342 0.13543 0.0
Co165 Co 0.9753 0.25563 0.66147 0.0
C166 C 0.97965 0.3971 0.71027 0.0
C167 C 0.88374 0.3498 0.70617 0.0
C168 C 0.87829 0.41408 0.7276 0.0
N169 N 0.9467 0.33938 0.69435 0.0
N170 N 0.93836 0.44395 0.73053 0.0
H171 H 1.03241 0.40385 0.70817 0.0
H172 H 0.84435 0.31253 0.69977 0.0
C173 C 0.86781 0.3302 0.60278 0.0
O174 O 0.87384 0.3955 0.61862 0.0
N175 N 1.0015 0.1725 0.62815 0.0
C176 C 0.06222 0.14168 0.6263 0.0
C177 C 0.06441 0.09633 0.59194 0.0
C178 C 0.9677 0.14532 0.59472 0.0
N179 N 1.00579 0.1011 0.57145 0.0
C180 C 0.10834 0.30313 0.65399 0.0
C181 C 0.09892 0.33689 0.56915 0.0
C182 C 0.16129 0.3172 0.58623 0.0
C183 C 0.16593 0.30487 0.62993 0.0
C184 C 1.04244 0.3326 0.59422 0.0
N185 N 1.04703 0.30951 0.6352 0.0
H186 H 0.11337 0.28768 0.6868 0.0
H187 H 0.99516 0.34173 0.57947 0.0
H188 H 0.10426 0.15665 0.6456 0.0
H189 H 0.91869 0.16274 0.58466 0.0
O190 O 1.02416 0.21575 0.71045 0.0
O191 O 0.9204 0.19243 0.69502 0.0
O192 O 0.90609 0.27815 0.61513 0.0
C193 C 0.97194 0.17923 0.71912 0.0
H194 H 0.83377 0.43629 0.7413 0.0
H195 H 0.10818 0.06958 0.57982 0.0
H196 H 0.09309 0.34853 0.5357 0.0
H197 H 0.213 0.29058 0.64476 0.0
Co198 Co 0.68614 0.25759 0.89416 0.0
C199 C 0.67683 0.41099 0.86166 0.0
C200 C 0.77111 0.36026 0.85085 0.0
C201 C 0.76967 0.42753 0.83189 0.0
N202 N 0.71293 0.34952 0.86972 0.0
N203 N 0.71071 0.45948 0.83887 0.0
H204 H 0.62612 0.41967 0.8703 0.0
H205 H 0.81078 0.32043 0.84918 0.0
C206 C 0.79673 0.30762 0.95524 0.0
O207 O 0.78235 0.37618 0.9481 0.0
N208 N 0.65826 0.16693 0.91792 0.0
C209 C 0.59653 0.14206 0.91299 0.0
C210 C 0.58513 0.09301 0.94415 0.0
C211 C 0.68413 0.13107 0.95187 0.0
N212 N 0.63938 0.08741 0.96926 0.0
C213 C 0.56226 0.32398 0.9159 0.0
C214 C 0.57598 0.2955 1.0014 0.0
C215 C 0.51281 0.30956 0.98453 0.0
C216 C 0.50661 0.32759 0.94161 0.0
C217 C 0.63039 0.29372 0.97473 0.0
N218 N 0.62325 0.30485 0.93217 0.0
H219 H 0.55457 0.32935 0.88217 0.0
H220 H 0.67618 0.27337 0.98751 0.0
H221 H 0.55927 0.16432 0.89168 0.0
H222 H 0.73278 0.14 0.96514 0.0
O223 O 0.62738 0.24212 0.84587 0.0
O224 O 0.73048 0.20362 0.84962 0.0
O225 O 0.76322 0.25795 0.93712 0.0
C226 C 0.67425 0.20375 0.82898 0.0
H227 H 0.80754 0.45001 0.81262 0.0
H228 H 0.53826 0.06819 0.95033 0.0
H229 H 0.5825 0.28095 0.03441 0.0
H230 H 0.45836 0.33833 0.9274 0.0
Co231 Co 0.15112 0.79364 0.39169 0.0
C232 C 0.1944 0.64901 0.35315 0.0
C233 C 0.09036 0.66461 0.362 0.0
C234 C 0.09991 0.59976 0.34203 0.0
N235 N 0.14901 0.69608 0.36905 0.0
N236 N 0.165 0.58947 0.33631 0.0
H237 H 0.24676 0.65912 0.35243 0.0
H238 H 1.04299 0.68892 0.36941 0.0
C239 C 0.07216 0.7874 0.47198 0.0
O240 O 0.11307 0.83391 0.48904 0.0
N241 N 0.14409 0.89153 0.41288 0.0
C242 C 0.18731 0.94218 0.42514 0.0
C243 C 0.15163 1.0033 0.43686 0.0
C244 C 0.08414 0.92349 0.41568 0.0
N245 N 0.08639 0.99133 0.43076 0.0
C246 C 0.28525 0.80118 0.42155 0.0
C247 C 0.27616 0.71883 0.49397 0.0
C248 C 0.33499 0.75582 0.48681 0.0
C249 C 0.3395 0.79546 0.44944 0.0
C250 C 0.22275 0.7254 0.46471 0.0
N251 N 0.22644 0.76969 0.43009 0.0
H252 H 0.28997 0.83416 0.39377 0.0
H253 H 0.1785 0.6956 0.4704 0.0
H254 H 0.24029 0.93572 0.42678 0.0
H255 H 1.03966 0.89517 0.40805 0.0
O256 O 0.20039 0.82937 0.3441 0.0
O257 O 0.09225 0.82624 0.34528 0.0
O258 O 0.08303 0.76248 0.43481 0.0
C259 C 0.14464 0.84779 0.32596 0.0
H260 H 0.06172 0.56355 0.33124 0.0
H261 H 0.17212 0.05096 0.45148 0.0
H262 H 0.27142 0.68567 0.52196 0.0
H263 H 0.38454 0.82326 0.44234 0.0
C264 C 0.41723 0.23222 1.00576 0.0
C265 C 0.45312 0.29741 1.01067 0.0
C266 C 0.3739 0.34015 0.0636 0.0
C267 C 0.33844 0.27472 0.05885 0.0
N268 N 0.33261 0.15317 0.0324 0.0
N269 N 0.47202 0.4086 0.04842 0.0
C270 C 0.36207 0.21917 0.03194 0.0
C271 C 0.43348 0.34975 0.04105 0.0
N272 N 0.43512 0.18336 0.97539 0.0
N273 N 0.34899 0.3945 0.08833 0.0
H274 H 0.51374 0.41965 1.03086 0.0
H275 H 0.46527 0.44435 0.07347 0.0
H276 H 0.30791 0.38821 0.10714 0.0
H277 H 0.36687 0.44694 0.08891 0.0
H278 H 0.40712 0.13894 0.96673 0.0
H279 H 0.4764 0.18947 0.9567 0.0
H280 H 0.35107 0.10747 1.01703 0.0
H281 H 0.29236 0.14231 0.05139 0.0
C282 C 0.45706 0.81306 0.57487 0.0
C283 C 0.51253 0.76759 0.56582 0.0
C284 C 0.4454 0.70401 0.51177 0.0
C285 C 0.39266 0.75446 0.5176 0.0
N286 N 0.34832 0.85945 0.55299 0.0
N287 N 0.56048 0.67034 0.52489 0.0
C288 C 0.3983 0.80919 0.54905 0.0
C289 C 0.50676 0.713 0.53414 0.0
N290 N 0.46065 0.86035 0.60807 0.0
N291 N 0.43619 0.6466 0.48517 0.0
H292 H 0.60441 0.67101 0.54247 0.0
H293 H 0.56304 0.63669 0.49858 0.0
H294 H 0.39228 0.6388 0.46818 0.0
H295 H 0.46963 0.60363 0.48232 0.0
H296 H 0.42023 0.88932 0.61954 0.0
H297 H 0.50357 0.86757 0.62614 0.0
H298 H 0.35181 0.90603 0.57133 0.0
H299 H 0.30384 0.85658 0.53597 0.0
C300 C 0.17117 0.83423 0.04949 0.0
C301 C 0.22026 0.7782 0.04974 0.0
C302 C 0.15816 0.71348 0.99503 0.0
C303 C 0.10468 0.76325 0.99953 0.0
N304 N 0.05819 0.87041 0.03164 0.0
N305 N 0.25687 0.65957 1.02685 0.0
C306 C 0.11075 0.82396 1.02667 0.0
C307 C 0.21301 0.7166 1.02342 0.0
N308 N 0.18294 0.89761 0.0704 0.0
N309 N 0.15718 0.66439 0.96276 0.0
H310 H 0.29741 0.65913 0.04766 0.0
H311 H 0.24995 0.61016 1.01173 0.0
H312 H 0.11926 0.6639 0.94008 0.0
H313 H 0.19718 0.6307 0.95547 0.0
H314 H 0.15203 0.94318 0.06817 0.0
H315 H 0.22662 0.90678 0.0874 0.0
H316 H 0.05639 0.91048 0.05477 0.0
H317 H 1.01473 0.86659 1.01372 0.0
C318 C 0.33452 0.30256 0.53735 0.0
C319 C 0.32221 0.25515 0.50267 0.0
C320 C 0.21013 0.24027 0.52796 0.0
C321 C 0.21791 0.29709 0.55776 0.0
N322 N 0.28796 0.38918 0.58703 0.0
N323 N 0.24036 0.19402 0.45983 0.0
C324 C 0.28037 0.33046 0.56136 0.0
C325 C 0.25782 0.22834 0.49649 0.0
N326 N 0.39795 0.31735 0.54905 0.0
N327 N 0.1592 0.19398 0.53115 0.0
H328 H 0.27168 0.18741 0.43435 0.0
H329 H 0.1919 0.17978 0.45303 0.0
H330 H 0.12482 0.19907 0.55491 0.0
H331 H 0.15642 0.1464 0.5135 0.0
H332 H 0.41019 0.34673 0.57611 0.0
H333 H 0.43818 0.29211 0.53472 0.0
H334 H 0.33087 0.41935 0.58806 0.0
H335 H 0.24922 0.41138 0.60439 0.0
C336 C 0.65377 0.77463 0.08867 0.0
C337 C 0.60565 0.72339 0.07661 0.0
C338 C 0.6654 0.70639 1.00985 0.0
C339 C 0.70232 0.77003 1.01856 0.0
N340 N 0.72039 0.87239 0.06458 0.0
N341 N 0.57557 0.62814 1.02779 0.0
C342 C 0.69274 0.80662 0.05739 0.0
C343 C 0.614 0.68587 0.03761 0.0
N344 N 0.66654 0.78837 0.13039 0.0
N345 N 0.68241 0.66224 0.97699 0.0
H346 H 0.55232 0.59774 0.05071 0.0
H347 H 0.56941 0.60851 0.99711 0.0
H348 H 0.71985 0.6738 0.95633 0.0
H349 H 0.66321 0.61102 0.97199 0.0
H350 H 0.70445 0.82204 0.1405 0.0
H351 H 0.64554 0.75846 0.15453 0.0
H352 H 0.71008 0.90315 0.09143 0.0
H353 H 0.74723 0.89926 0.0417 0.0
C354 C 0.74506 0.31767 0.58622 0.0
C355 C 0.8117 0.3133 0.57272 0.0
C356 C 0.77399 0.25265 0.50762 0.0
C357 C 0.70706 0.26609 0.51803 0.0
N358 N 0.62903 0.32147 0.56589 0.0
N359 N 0.88574 0.29375 0.51495 0.0
C360 C 0.69251 0.30102 0.55713 0.0
C361 C 0.82509 0.28522 0.53192 0.0
N362 N 0.73177 0.33662 0.62699 0.0
N363 N 0.78912 0.20713 0.475 0.0
H364 H 0.92223 0.32331 0.53016 0.0
H365 H 0.89643 0.28021 0.48378 0.0
H366 H 0.75309 0.18005 0.45749 0.0
H367 H 0.83732 0.19018 0.46864 0.0
H368 H 0.68548 0.33195 0.64039 0.0
H369 H 0.76808 0.35217 0.64862 0.0
H370 H 0.61578 0.34995 0.59288 0.0
H371 H 0.58968 0.31602 0.54463 0.0
C372 C 0.97257 0.273 1.0002 0.0
C373 C 0.95926 0.24504 0.04127 0.0
C374 C 0.84107 0.26899 1.02745 0.0
C375 C 0.85313 0.28697 0.98474 0.0
N376 N 0.93146 0.29643 0.92865 0.0
N377 N 0.87752 0.19852 0.0882 0.0
C378 C 0.91926 0.28519 0.97045 0.0
C379 C 0.89236 0.23684 0.05282 0.0
N380 N 1.03495 0.29319 0.99035 0.0
N381 N 0.78257 0.28839 0.04521 0.0
H382 H 0.91371 0.1722 0.10679 0.0
H383 H 0.82915 0.1866 0.09608 0.0
H384 H 0.74809 0.32168 1.02951 0.0
H385 H 0.77315 0.2809 0.07721 0.0
H386 H 1.04568 0.32128 0.96282 0.0
H387 H 0.07502 0.2886 1.01129 0.0
H388 H 0.97797 0.28873 0.91564 0.0
H389 H 0.89404 0.30807 0.90646 0.0
C390 C 0.89266 0.7805 0.50652 0.0
C391 C 0.90085 0.76158 0.54991 0.0
C392 C 1.02061 0.74678 0.53993 0.0
C393 C 1.01262 0.76641 0.49653 0.0
N394 N 0.93776 0.7808 0.43619 0.0
N395 N 0.96947 0.70668 0.60448 0.0
C396 C 0.94765 0.77558 0.47897 0.0
C397 C 0.96402 0.73903 0.56565 0.0
N398 N 0.83319 0.80803 0.4921 0.0
N399 N 0.08258 0.73488 0.55665 0.0
H400 H 0.92897 0.69809 0.6236 0.0
H401 H 1.01276 0.68198 0.61602 0.0
H402 H 0.12451 0.73051 0.53814 0.0
H403 H 0.09273 0.73141 0.58901 0.0
H404 H 0.82534 0.82911 0.46185 0.0
H405 H 0.79282 0.81678 0.51154 0.0
H406 H 0.89128 0.77822 0.42173 0.0
H407 H 0.9754 0.78178 0.41439 0.0
C408 C 0.18384 0.39846 0.29656 0.0
C409 C 0.21793 0.40965 0.25835 0.0
C410 C 0.22632 0.53883 0.27517 0.0
C411 C 0.19228 0.52842 0.31325 0.0
N412 N 0.15608 0.44542 0.36609 0.0
N413 N 0.29945 0.48371 0.225 0.0
C414 C 0.1767 0.45695 0.32584 0.0
C415 C 0.24844 0.47738 0.25206 0.0
N416 N 0.15863 0.33205 0.30489 0.0
N417 N 0.23431 0.60688 0.25946 0.0
H418 H 0.32301 0.43971 0.21086 0.0
H419 H 0.32314 0.53244 0.221 0.0
H420 H 0.21653 0.6533 0.27438 0.0
H421 H 0.25267 0.6165 0.22941 0.0
H422 H 0.12676 0.32233 0.32964 0.0
H423 H 0.1687 0.28681 0.28613 0.0
H424 H 0.14864 0.39419 0.37868 0.0
H425 H 0.15277 0.48733 0.38815 0.0
C426 C 0.62238 0.58879 0.76334 0.0
C427 C 0.65445 0.65529 0.77327 0.0
C428 C 0.70703 0.5938 0.83481 0.0
C429 C 0.68641 0.52596 0.81918 0.0
N430 N 0.63175 0.45778 0.76475 0.0
N431 N 0.72576 0.72109 0.82032 0.0
C432 C 0.64582 0.52321 0.7825 0.0
C433 C 0.69619 0.65773 0.80977 0.0
N434 N 0.56868 0.5872 0.73661 0.0
N435 N 0.73589 0.59685 0.874 0.0
H436 H 0.71497 0.76971 0.8046 0.0
H437 H 0.76236 0.72468 0.84357 0.0
H438 H 0.74342 0.55073 0.89273 0.0
H439 H 0.74852 0.64506 0.88874 0.0
H440 H 0.54165 0.54052 0.73137 0.0
H441 H 0.54468 0.63296 0.72445 0.0
H442 H 0.60936 0.4527 0.73497 0.0
H443 H 0.64792 0.4087 0.778 0.0
C444 C 0.96571 0.57449 0.74112 0.0
C445 C 0.95327 0.50482 0.75787 0.0
C446 C 0.924 0.5602 0.82503 0.0
C447 C 0.9415 0.63002 0.8104 0.0
N448 N 0.98945 0.70128 0.75548 0.0
N449 N 0.94185 0.43058 0.81927 0.0
C450 C 0.96625 0.6364 0.76874 0.0
C451 C 0.94055 0.49776 0.80125 0.0
N452 N 0.97455 0.58167 0.69873 0.0
N453 N 0.88658 0.55347 0.85996 0.0
H454 H 0.9536 0.38403 0.80201 0.0
H455 H 0.93794 0.42234 0.85175 0.0
H456 H 0.86203 0.59793 0.87244 0.0
H457 H 0.8717 0.50414 0.87215 0.0
H458 H 0.97756 0.63162 0.6838 0.0
H459 H 0.97529 0.5372 0.67838 0.0
H460 H 1.01351 0.70799 0.72696 0.0
H461 H 0.988 0.74752 0.77442 0.0
C462 C 0.39926 0.47583 0.31451 0.0
C463 C 0.43742 0.41141 0.30675 0.0
C464 C 0.49568 0.47469 0.25058 0.0
C465 C 0.45925 0.53911 0.25906 0.0
N466 N 0.38129 0.60473 0.30153 0.0
N467 N 0.50618 0.34429 0.25897 0.0
C468 C 0.41339 0.54104 0.29238 0.0
C469 C 0.48151 0.40955 0.27244 0.0
N470 N 0.34614 0.4734 0.34046 0.0
N471 N 0.54508 0.47701 0.22182 0.0
H472 H 0.49169 0.29534 0.27207 0.0
H473 H 0.53449 0.33769 0.23207 0.0
H474 H 0.55686 0.52482 0.20626 0.0
H475 H 0.57806 0.43428 0.21634 0.0
H476 H 0.31956 0.51827 0.35099 0.0
H477 H 0.3219 0.42553 0.34667 0.0
H478 H 0.35238 0.61309 0.32793 0.0
H479 H 0.3864 0.65186 0.28403 0.0
C480 C 0.50956 0.97337 0.26272 0.0
C481 C 0.47564 0.90783 0.27069 0.0
C482 C 0.42942 0.96393 0.33463 0.0
C483 C 0.45411 0.03195 0.3224 0.0
N484 N 0.50769 0.10392 0.27028 0.0
N485 N 0.40249 0.84075 0.31448 0.0
C486 C 0.49213 0.03726 0.28548 0.0
C487 C 0.43553 0.9031 0.30694 0.0
N488 N 0.5583 0.97552 0.23348 0.0
N489 N 0.40091 0.95772 0.37319 0.0
H490 H 0.40982 0.79371 0.29675 0.0
H491 H 0.36608 0.83648 0.33706 0.0
H492 H 0.39692 1.00123 0.39411 0.0
H493 H 0.38687 0.90862 0.3859 0.0
H494 H 0.58792 1.02037 0.22937 0.0
H495 H 0.57507 0.93056 0.21687 0.0
H496 H 0.52824 0.1118 0.2407 0.0
H497 H 0.49391 0.15205 0.28519 0.0
C498 C 0.9103 0.06203 0.80891 0.0
C499 C 0.95576 1.00279 0.80895 0.0
C500 C 1.01568 0.06035 0.75152 0.0
C501 C 0.97157 0.1216 0.75276 0.0
N502 N 0.89127 0.18893 0.79255 0.0
N503 N 0.05913 0.95187 0.78635 0.0
C504 C 0.92261 0.12461 0.78416 0.0
C505 C 1.01018 1.00334 0.78161 0.0
N506 N 0.85474 0.05785 0.83245 0.0
N507 N 0.06315 0.05608 0.72166 0.0
H508 H 0.05684 0.9095 0.80801 0.0
H509 H 0.10429 0.954 0.77124 0.0
H510 H 0.07662 0.10037 0.70411 0.0
H511 H 0.08875 1.00843 0.71426 0.0
H512 H 0.81665 0.09647 0.83095 0.0
H513 H 0.84427 1.01205 0.8503 0.0
H514 H 0.86106 0.19661 0.81856 0.0
H515 H 0.90082 0.23639 0.776 0.0
C516 C 0.60812 0.04205 0.76684 0.0
C517 C 0.66344 0.0256 0.74159 0.0
C518 C 0.71449 0.13946 0.76392 0.0
C519 C 0.66281 0.15235 0.79266 0.0
N520 N 0.54751 0.13206 0.80695 0.0
N521 N 0.77214 0.05419 0.71859 0.0
C522 C 0.60577 0.10816 0.79031 0.0
C523 C 0.71716 0.07356 0.74056 0.0
N524 N 0.55762 0.9942 0.76823 0.0
N525 N 0.75783 0.19338 0.75637 0.0
H526 H 0.77587 1.00541 0.70206 0.0
H527 H 0.81578 0.08305 0.71982 0.0
H528 H 0.75474 0.24347 0.7716 0.0
H529 H 0.79147 0.19158 0.73186 0.0
H530 H 0.51993 0.9971 0.79013 0.0
H531 H 0.55564 0.9482 0.74922 0.0
H532 H 0.50339 0.10446 0.80421 0.0
H533 H 0.53982 0.18447 0.81787 0.0
C534 C 0.13132 0.03481 0.27746 0.0
C535 C 0.17909 0.0301 0.24532 0.0
C536 C 0.19182 0.89916 0.25902 0.0
C537 C 0.14362 0.90378 0.29113 0.0
N538 N 1.04996 0.97205 0.31793 0.0
N539 N 0.24107 0.95497 0.19778 0.0
C540 C 0.10743 0.97016 0.29607 0.0
C541 C 0.205 0.96116 0.2337 0.0
N542 N 0.11165 0.10108 0.29224 0.0
N543 N 0.22593 0.83561 0.2532 0.0
H544 H 0.24945 0.99912 0.17811 0.0
H545 H 0.25692 0.90555 0.18536 0.0
H546 H 0.21301 0.78749 0.26794 0.0
H547 H 0.26836 0.83162 0.23524 0.0
H548 H 0.08241 0.10775 0.31877 0.0
H549 H 0.12983 0.14945 0.28064 0.0
H550 H 1.01997 1.01833 0.32007 0.0
H551 H 1.02721 0.92573 0.32863 0.0
C552 C 0.97451 0.47143 1.02135 0.0
C553 C 0.995 0.49802 0.98197 0.0
C554 C 0.11018 0.48101 1.00496 0.0
C555 C 0.0883 0.47404 0.04701 0.0
N556 N 0.99953 0.46091 0.09594 0.0
N557 N 0.0791 0.48599 0.93018 0.0
C558 C 1.02028 0.46862 0.05539 0.0
C559 C 0.06244 0.48998 0.97171 0.0
N560 N 0.91416 0.4411 1.02465 0.0
N561 N 0.17629 0.47987 0.99738 0.0
H562 H 1.04277 0.48597 0.90627 0.0
H563 H 0.12684 0.4764 0.91969 0.0
H564 H 0.21155 0.47253 1.02157 0.0
H565 H 0.19627 0.48963 0.96789 0.0
H566 H 0.89838 0.41567 0.052 0.0
H567 H 0.88482 0.43198 0.99781 0.0
H568 H 0.94982 0.46277 0.10389 0.0
H569 H 1.03217 0.45851 0.12182 0.0
C570 C 0.55531 0.48813 0.59068 0.0
C571 C 0.62289 0.50494 0.59345 0.0
C572 C 0.63401 0.47948 0.51821 0.0
C573 C 0.56455 0.47641 0.51447 0.0
N574 N 0.45752 0.48552 0.54587 0.0
N575 N 0.72543 0.52826 0.55743 0.0
C576 C 0.52464 0.48231 0.55048 0.0
C577 C 0.66252 0.50296 0.55674 0.0
N578 N 0.52078 0.47942 0.62692 0.0
N579 N 0.67281 0.45799 0.4855 0.0
H580 H 0.74932 0.54782 0.58426 0.0
H581 H 0.7524 0.53553 0.53004 0.0
H582 H 0.65355 0.43944 0.45682 0.0
H583 H 0.72391 0.45147 0.48855 0.0
H584 H 0.47226 0.46173 0.62724 0.0
H585 H 0.54344 0.48328 0.65674 0.0
H586 H 0.42608 0.49744 0.57072 0.0
H587 H 0.43368 0.48289 0.5164 0.0
C588 C 0.63664 0.09317 0.0477 0.0
C589 C 0.63915 0.05172 1.00977 0.0
C590 C 0.56811 0.96203 0.03973 0.0
C591 C 0.56149 1.00482 0.07662 0.0
N592 N 0.60019 0.10105 0.12071 0.0
N593 N 0.63092 0.93614 0.97684 0.0
C594 C 0.59961 0.06728 0.08229 0.0
C595 C 0.61452 0.98123 1.00927 0.0
N596 N 0.66782 0.15767 0.05014 0.0
N597 N 0.52531 0.90755 0.03199 0.0
H598 H 0.66393 0.95197 0.95372 0.0
H599 H 0.61701 0.88218 0.97531 0.0
H600 H 0.48415 0.90132 0.05056 0.0
H601 H 0.52508 0.87639 1.00454 0.0
H602 H 0.66093 0.19517 0.07429 0.0
H603 H 0.70235 0.17281 1.0282 0.0
H604 H 0.6309 0.14369 0.12854 0.0
H605 H 0.57219 0.08297 0.14589 0.0
C606 C 1.03963 0.10643 0.45699 0.0
C607 C 1.03242 0.032 0.4493 0.0
C608 C 0.97529 1.01661 0.51506 0.0
C609 C 0.99655 0.08543 0.52742 0.0
N610 N 1.02039 0.20678 0.50521 0.0
N611 N 0.94476 0.94683 0.45381 0.0
C612 C 1.01827 0.13478 0.49633 0.0
C613 C 0.9852 0.99506 0.47292 0.0
N614 N 0.06926 0.1476 0.42735 0.0
N615 N 0.94733 0.97175 0.54351 0.0
H616 H 0.9443 0.93984 0.42107 0.0
H617 H 0.90495 0.92504 0.46944 0.0
H618 H 0.93821 0.98797 0.57454 0.0
H619 H 0.93607 0.91831 0.53621 0.0
H620 H 0.07917 0.20232 0.43101 0.0
H621 H 0.08345 0.12523 0.39847 0.0
H622 H 1.03355 0.24617 0.48358 0.0
H623 H 1.00578 0.22719 0.53428 0.0
loop_
_geom_bond_atom_site_label_1
_geom_bond_atom_site_label_2
_geom_bond_distance
_geom_bond_site_symmetry_2
_ccdc_geom_bond_type
Co0 N4 2.148 . S
Co0 N10 2.128 . S
Co0 N20 2.194 1_455 S
Co0 O25 2.351 1_455 S
Co0 O26 2.155 . S
Co0 O27 2.096 . S
C1 N4 1.301 . S
C1 N5 1.328 . S
C1 H6 0.930 1_455 S
C2 C3 1.333 . S
C2 N4 1.317 . S
C2 H7 0.930 . S
C3 C2 1.333 . S
C3 N5 1.350 . S
C3 H29 0.931 . S
N4 Co0 2.148 . S
N4 C1 1.301 . S
N4 C2 1.317 . S
N5 C1 1.328 . S
N5 C3 1.350 . S
H6 C1 0.930 1_655 S
H7 C2 0.930 . S
C8 O9 1.224 . S
C8 O27 1.247 . S
O9 C8 1.224 . S
N10 Co0 2.128 . S
N10 C11 1.355 1_455 S
N10 C13 1.311 . S
C11 N10 1.355 1_655 S
C11 C12 1.363 . S
C11 H23 0.929 . S
C12 C11 1.363 . S
C12 N14 1.375 1_655 S
C12 H30 0.931 . S
C13 N10 1.311 . S
C13 N14 1.347 . S
C13 H24 0.929 . S
N14 C12 1.375 1_455 S
N14 C13 1.347 . S
C15 C18 1.365 . S
C15 N20 1.328 . S
C15 H21 0.929 . S
C16 C17 1.362 . S
C16 C19 1.378 . S
C16 H31 0.929 . S
C17 C16 1.362 . S
C17 C18 1.366 . S
C18 C15 1.365 . S
C18 C17 1.366 . S
C18 H32 0.930 . S
C19 C16 1.378 . S
C19 N20 1.315 . S
C19 H22 0.930 . S
N20 Co0 2.194 1_655 S
N20 C15 1.328 . S
N20 C19 1.315 . S
H21 C15 0.929 . S
H22 C19 0.930 . S
H23 C11 0.929 . S
H24 C13 0.929 . S
O25 Co0 2.351 1_655 S
O25 C28 1.244 1_655 S
O26 Co0 2.155 . S
O26 C28 1.240 . S
O27 Co0 2.096 . S
O27 C8 1.247 . S
C28 O25 1.244 1_455 S
C28 O26 1.240 . S
H29 C3 0.931 . S
H30 C12 0.931 . S
H31 C16 0.929 . S
H32 C18 0.930 . S
Co33 N37 2.148 . S
Co33 N43 2.128 . S
Co33 N53 2.194 . S
Co33 O58 2.351 . S
Co33 O59 2.155 . S
Co33 O60 2.096 . S
C34 N37 1.301 . S
C34 N38 1.328 . S
C34 H39 0.930 . S
C35 C36 1.333 . S
C35 N37 1.317 . S
C35 H40 0.930 . S
C36 C35 1.333 . S
C36 N38 1.350 . S
C36 H62 0.931 . S
N37 Co33 2.148 . S
N37 C34 1.301 . S
N37 C35 1.317 . S
N38 C34 1.328 . S
N38 C36 1.350 . S
H39 C34 0.930 . S
H40 C35 0.930 . S
C41 O42 1.224 . S
C41 O60 1.247 . S
O42 C41 1.224 . S
N43 Co33 2.128 . S
N43 C44 1.355 . S
N43 C46 1.311 . S
C44 N43 1.355 . S
C44 C45 1.363 . S
C44 H56 0.929 . S
C45 C44 1.363 . S
C45 N47 1.375 . S
C45 H63 0.931 . S
C46 N43 1.311 . S
C46 N47 1.347 . S
C46 H57 0.929 . S
N47 C45 1.375 . S
N47 C46 1.347 . S
C48 C51 1.365 . S
C48 N53 1.328 . S
C48 H54 0.929 . S
C49 C50 1.362 . S
C49 C52 1.378 . S
C49 H64 0.929 . S
C50 C49 1.362 . S
C50 C51 1.366 . S
C51 C48 1.365 . S
C51 C50 1.366 . S
C51 H65 0.930 . S
C52 C49 1.378 . S
C52 N53 1.315 . S
C52 H55 0.930 . S
N53 Co33 2.194 . S
N53 C48 1.328 . S
N53 C52 1.315 . S
H54 C48 0.929 . S
H55 C52 0.930 . S
H56 C44 0.929 . S
H57 C46 0.929 . S
O58 Co33 2.351 . S
O58 C61 1.244 . S
O59 Co33 2.155 . S
O59 C61 1.240 . S
O60 Co33 2.096 . S
O60 C41 1.247 . S
C61 O58 1.244 . S
C61 O59 1.240 . S
H62 C36 0.931 . S
H63 C45 0.931 . S
H64 C49 0.929 . S
H65 C51 0.930 . S
Co66 N70 2.148 . S
Co66 N76 2.128 . S
Co66 N86 2.194 1_455 S
Co66 O91 2.351 1_455 S
Co66 O92 2.155 . S
Co66 O93 2.096 . S
C67 N70 1.301 . S
C67 N71 1.328 . S
C67 H72 0.930 1_455 S
C68 C69 1.333 . S
C68 N70 1.317 . S
C68 H73 0.930 . S
C69 C68 1.333 . S
C69 N71 1.350 . S
C69 H95 0.931 . S
N70 Co66 2.148 . S
N70 C67 1.301 . S
N70 C68 1.317 . S
N71 C67 1.328 . S
N71 C69 1.350 . S
H72 C67 0.930 1_655 S
H73 C68 0.930 . S
C74 O75 1.224 . S
C74 O93 1.247 . S
O75 C74 1.224 . S
N76 Co66 2.128 . S
N76 C77 1.355 1_455 S
N76 C79 1.311 . S
C77 N76 1.355 1_655 S
C77 C78 1.363 . S
C77 H89 0.929 . S
C78 C77 1.363 . S
C78 N80 1.375 1_655 S
C78 H96 0.931 . S
C79 N76 1.311 . S
C79 N80 1.347 . S
C79 H90 0.929 . S
N80 C78 1.375 1_455 S
N80 C79 1.347 . S
C81 C84 1.365 . S
C81 N86 1.328 . S
C81 H87 0.929 . S
C82 C83 1.362 . S
C82 C85 1.378 . S
C82 H97 0.929 . S
C83 C82 1.362 . S
C83 C84 1.366 . S
C84 C81 1.365 . S
C84 C83 1.366 . S
C84 H98 0.930 . S
C85 C82 1.378 . S
C85 N86 1.315 . S
C85 H88 0.930 . S
N86 Co66 2.194 1_655 S
N86 C81 1.328 . S
N86 C85 1.315 . S
H87 C81 0.929 . S
H88 C85 0.930 . S
H89 C77 0.929 . S
H90 C79 0.929 . S
O91 Co66 2.351 1_655 S
O91 C94 1.244 1_655 S
O92 Co66 2.155 . S
O92 C94 1.240 . S
O93 Co66 2.096 . S
O93 C74 1.247 . S
C94 O91 1.244 1_455 S
C94 O92 1.240 . S
H95 C69 0.931 . S
H96 C78 0.931 . S
H97 C82 0.929 . S
H98 C84 0.930 . S
Co99 N103 2.148 . S
Co99 N109 2.128 . S
Co99 N119 2.194 . S
Co99 O124 2.351 . S
Co99 O125 2.155 . S
Co99 O126 2.096 . S
C100 N103 1.301 . S
C100 N104 1.328 . S
C100 H105 0.930 . S
C101 C102 1.333 . S
C101 N103 1.317 . S
C101 H106 0.930 . S
C102 C101 1.333 . S
C102 N104 1.350 . S
C102 H128 0.931 . S
N103 Co99 2.148 . S
N103 C100 1.301 . S
N103 C101 1.317 . S
N104 C100 1.328 . S
N104 C102 1.350 . S
H105 C100 0.930 . S
H106 C101 0.930 . S
C107 O108 1.224 . S
C107 O126 1.247 . S
O108 C107 1.224 . S
N109 Co99 2.128 . S
N109 C110 1.355 . S
N109 C112 1.311 . S
C110 N109 1.355 . S
C110 C111 1.363 . S
C110 H122 0.929 . S
C111 C110 1.363 . S
C111 N113 1.375 . S
C111 H129 0.931 . S
C112 N109 1.311 . S
C112 N113 1.347 . S
C112 H123 0.929 . S
N113 C111 1.375 . S
N113 C112 1.347 . S
C114 C117 1.365 . S
C114 N119 1.328 . S
C114 H120 0.929 . S
C115 C116 1.362 . S
C115 C118 1.378 . S
C115 H130 0.929 . S
C116 C115 1.362 . S
C116 C117 1.366 . S
C117 C114 1.365 . S
C117 C116 1.366 . S
C117 H131 0.930 . S
C118 C115 1.378 . S
C118 N119 1.315 . S
C118 H121 0.930 . S
N119 Co99 2.194 . S
N119 C114 1.328 . S
N119 C118 1.315 . S
H120 C114 0.929 . S
H121 C118 0.930 . S
H122 C110 0.929 . S
H123 C112 0.929 . S
O124 Co99 2.351 . S
O124 C127 1.244 . S
O125 Co99 2.155 . S
O125 C127 1.240 . S
O126 Co99 2.096 . S
O126 C107 1.247 . S
C127 O124 1.244 . S
C127 O125 1.240 . S
H128 C102 0.931 . S
H129 C111 0.931 . S
H130 C115 0.929 . S
H131 C117 0.930 . S
Co132 N136 2.148 . S
Co132 N142 2.128 . S
Co132 N152 2.194 . S
Co132 O157 2.351 . S
Co132 O158 2.155 . S
Co132 O159 2.096 . S
C133 N136 1.301 . S
C133 N137 1.328 . S
C133 H138 0.930 . S
C134 C135 1.333 . S
C134 N136 1.317 . S
C134 H139 0.930 . S
C135 C134 1.333 . S
C135 N137 1.350 . S
C135 H161 0.931 . S
N136 Co132 2.148 . S
N136 C133 1.301 . S
N136 C134 1.317 . S
N137 C133 1.328 . S
N137 C135 1.350 . S
H138 C133 0.930 . S
H139 C134 0.930 . S
C140 O141 1.224 . S
C140 O159 1.247 . S
O141 C140 1.224 . S
N142 Co132 2.128 . S
N142 C143 1.355 . S
N142 C145 1.311 . S
C143 N142 1.355 . S
C143 C144 1.363 . S
C143 H155 0.929 . S
C144 C143 1.363 . S
C144 N146 1.375 . S
C144 H162 0.931 . S
C145 N142 1.311 . S
C145 N146 1.347 . S
C145 H156 0.929 . S
N146 C144 1.375 . S
N146 C145 1.347 . S
C147 C150 1.365 . S
C147 N152 1.328 . S
C147 H153 0.929 . S
C148 C149 1.362 . S
C148 C151 1.378 . S
C148 H163 0.929 . S
C149 C148 1.362 . S
C149 C150 1.366 . S
C150 C147 1.365 . S
C150 C149 1.366 . S
C150 H164 0.930 . S
C151 C148 1.378 . S
C151 N152 1.315 . S
C151 H154 0.930 . S
N152 Co132 2.194 . S
N152 C147 1.328 . S
N152 C151 1.315 . S
H153 C147 0.929 . S
H154 C151 0.930 . S
H155 C143 0.929 . S
H156 C145 0.929 . S
O157 Co132 2.351 . S
O157 C160 1.244 . S
O158 Co132 2.155 . S
O158 C160 1.240 . S
O159 Co132 2.096 . S
O159 C140 1.247 . S
C160 O157 1.244 . S
C160 O158 1.240 . S
H161 C135 0.931 . S
H162 C144 0.931 . S
H163 C148 0.929 . S
H164 C150 0.930 . S
Co165 N169 2.148 . S
Co165 N175 2.128 1_655 S
Co165 N185 2.194 1_655 S
Co165 O190 2.351 1_655 S
Co165 O191 2.155 . S
Co165 O192 2.096 . S
C166 N169 1.301 1_455 S
C166 N170 1.328 1_455 S
C166 H171 0.930 . S
C167 C168 1.333 . S
C167 N169 1.317 . S
C167 H172 0.930 . S
C168 C167 1.333 . S
C168 N170 1.350 . S
C168 H194 0.931 . S
N169 Co165 2.148 . S
N169 C166 1.301 1_655 S
N169 C167 1.317 . S
N170 C166 1.328 1_655 S
N170 C168 1.350 . S
H171 C166 0.930 . S
H172 C167 0.930 . S
C173 O174 1.224 . S
C173 O192 1.247 . S
O174 C173 1.224 . S
N175 Co165 2.128 1_455 S
N175 C176 1.355 . S
N175 C178 1.311 1_455 S
C176 N175 1.355 . S
C176 C177 1.363 . S
C176 H188 0.929 . S
C177 C176 1.363 . S
C177 N179 1.375 1_455 S
C177 H195 0.931 . S
C178 N175 1.311 1_655 S
C178 N179 1.347 . S
C178 H189 0.929 . S
N179 C177 1.375 1_655 S
N179 C178 1.347 . S
C180 C183 1.365 . S
C180 N185 1.328 . S
C180 H186 0.929 . S
C181 C182 1.362 . S
C181 C184 1.378 . S
C181 H196 0.929 . S
C182 C181 1.362 . S
C182 C183 1.366 . S
C183 C180 1.365 . S
C183 C182 1.366 . S
C183 H197 0.930 . S
C184 C181 1.378 . S
C184 N185 1.315 . S
C184 H187 0.930 . S
N185 Co165 2.194 1_455 S
N185 C180 1.328 . S
N185 C184 1.315 . S
H186 C180 0.929 . S
H187 C184 0.930 . S
H188 C176 0.929 . S
H189 C178 0.929 . S
O190 Co165 2.351 1_455 S
O190 C193 1.244 . S
O191 Co165 2.155 . S
O191 C193 1.240 1_655 S
O192 Co165 2.096 . S
O192 C173 1.247 . S
C193 O190 1.244 . S
C193 O191 1.240 1_455 S
H194 C168 0.931 . S
H195 C177 0.931 . S
H196 C181 0.929 . S
H197 C183 0.930 . S
Co198 N202 2.148 . S
Co198 N208 2.128 . S
Co198 N218 2.194 . S
Co198 O223 2.351 . S
Co198 O224 2.155 . S
Co198 O225 2.096 . S
C199 N202 1.301 . S
C199 N203 1.328 . S
C199 H204 0.930 . S
C200 C201 1.333 . S
C200 N202 1.317 . S
C200 H205 0.930 . S
C201 C200 1.333 . S
C201 N203 1.350 . S
C201 H227 0.931 . S
N202 Co198 2.148 . S
N202 C199 1.301 . S
N202 C200 1.317 . S
N203 C199 1.328 . S
N203 C201 1.350 . S
H204 C199 0.930 . S
H205 C200 0.930 . S
C206 O207 1.224 . S
C206 O225 1.247 . S
O207 C206 1.224 . S
N208 Co198 2.128 . S
N208 C209 1.355 . S
N208 C211 1.311 . S
C209 N208 1.355 . S
C209 C210 1.363 . S
C209 H221 0.929 . S
C210 C209 1.363 . S
C210 N212 1.375 . S
C210 H228 0.931 . S
C211 N208 1.311 . S
C211 N212 1.347 . S
C211 H222 0.929 . S
N212 C210 1.375 . S
N212 C211 1.347 . S
C213 C216 1.365 . S
C213 N218 1.328 . S
C213 H219 0.929 . S
C214 C215 1.362 . S
C214 C217 1.378 . S
C214 H229 0.929 . S
C215 C214 1.362 . S
C215 C216 1.366 . S
C216 C213 1.365 . S
C216 C215 1.366 . S
C216 H230 0.930 . S
C217 C214 1.378 . S
C217 N218 1.315 . S
C217 H220 0.930 . S
N218 Co198 2.194 . S
N218 C213 1.328 . S
N218 C217 1.315 . S
H219 C213 0.929 . S
H220 C217 0.930 . S
H221 C209 0.929 . S
H222 C211 0.929 . S
O223 Co198 2.351 . S
O223 C226 1.244 . S
O224 Co198 2.155 . S
O224 C226 1.240 . S
O225 Co198 2.096 . S
O225 C206 1.247 . S
C226 O223 1.244 . S
C226 O224 1.240 . S
H227 C201 0.931 . S
H228 C210 0.931 . S
H229 C214 0.929 . S
H230 C216 0.930 . S
Co231 N235 2.148 . S
Co231 N241 2.128 1_655 S
Co231 N251 2.194 1_655 S
Co231 O256 2.351 1_655 S
Co231 O257 2.155 . S
Co231 O258 2.096 . S
C232 N235 1.301 1_455 S
C232 N236 1.328 1_455 S
C232 H237 0.930 . S
C233 C234 1.333 . S
C233 N235 1.317 . S
C233 H238 0.930 . S
C234 C233 1.333 . S
C234 N236 1.350 . S
C234 H260 0.931 . S
N235 Co231 2.148 . S
N235 C232 1.301 1_655 S
N235 C233 1.317 . S
N236 C232 1.328 1_655 S
N236 C234 1.350 . S
H237 C232 0.930 . S
H238 C233 0.930 . S
C239 O240 1.224 . S
C239 O258 1.247 . S
O240 C239 1.224 . S
N241 Co231 2.128 1_455 S
N241 C242 1.355 . S
N241 C244 1.311 1_455 S
C242 N241 1.355 . S
C242 C243 1.363 . S
C242 H254 0.929 . S
C243 C242 1.363 . S
C243 N245 1.375 1_455 S
C243 H261 0.931 . S
C244 N241 1.311 1_655 S
C244 N245 1.347 . S
C244 H255 0.929 . S
N245 C243 1.375 1_655 S
N245 C244 1.347 . S
C246 C249 1.365 . S
C246 N251 1.328 . S
C246 H252 0.929 . S
C247 C248 1.362 . S
C247 C250 1.378 . S
C247 H262 0.929 . S
C248 C247 1.362 . S
C248 C249 1.366 . S
C249 C246 1.365 . S
C249 C248 1.366 . S
C249 H263 0.930 . S
C250 C247 1.378 . S
C250 N251 1.315 . S
C250 H253 0.930 . S
N251 Co231 2.194 1_455 S
N251 C246 1.328 . S
N251 C250 1.315 . S
H252 C246 0.929 . S
H253 C250 0.930 . S
H254 C242 0.929 . S
H255 C244 0.929 . S
O256 Co231 2.351 1_455 S
O256 C259 1.244 . S
O257 Co231 2.155 . S
O257 C259 1.240 1_655 S
O258 Co231 2.096 . S
O258 C239 1.247 . S
C259 O256 1.244 . S
C259 O257 1.240 1_455 S
H260 C234 0.931 . S
H261 C243 0.931 . S
H262 C247 0.929 . S
H263 C249 0.930 . S
C264 C265 1.363 . S
C264 C270 1.379 . S
C264 N272 1.356 . S
C265 C264 1.363 . S
C265 C271 1.363 1_556 S
C266 C267 1.363 . S
C266 C271 1.379 . S
C266 N273 1.356 . S
C267 C266 1.363 . S
C267 C270 1.363 1_554 S
N268 C270 1.356 . S
N268 H280 0.984 . S
N268 H281 0.985 1_556 S
N269 C271 1.356 . S
N269 H274 0.984 1_554 S
N269 H275 0.985 . S
C270 C264 1.379 . S
C270 C267 1.363 1_556 S
C270 N268 1.356 . S
C271 C265 1.363 1_554 S
C271 C266 1.379 . S
C271 N269 1.356 . S
N272 C264 1.356 . S
N272 H278 0.984 . S
N272 H279 0.984 . S
N273 C266 1.356 . S
N273 H276 0.984 . S
N273 H277 0.985 . S
H274 N269 0.984 1_556 S
H275 N269 0.985 . S
H276 N273 0.984 . S
H277 N273 0.985 . S
H278 N272 0.984 . S
H279 N272 0.984 . S
H280 N268 0.984 . S
H281 N268 0.985 1_554 S
C282 C283 1.363 . S
C282 C288 1.379 . S
C282 N290 1.356 . S
C283 C282 1.363 . S
C283 C289 1.363 . S
C284 C285 1.363 . S
C284 C289 1.379 . S
C284 N291 1.356 . S
C285 C284 1.363 . S
C285 C288 1.363 . S
N286 C288 1.356 . S
N286 H298 0.984 . S
N286 H299 0.985 . S
N287 C289 1.356 . S
N287 H292 0.984 . S
N287 H293 0.985 . S
C288 C282 1.379 . S
C288 C285 1.363 . S
C288 N286 1.356 . S
C289 C283 1.363 . S
C289 C284 1.379 . S
C289 N287 1.356 . S
N290 C282 1.356 . S
N290 H296 0.984 . S
N290 H297 0.984 . S
N291 C284 1.356 . S
N291 H294 0.984 . S
N291 H295 0.985 . S
H292 N287 0.984 . S
H293 N287 0.985 . S
H294 N291 0.984 . S
H295 N291 0.985 . S
H296 N290 0.984 . S
H297 N290 0.984 . S
H298 N286 0.984 . S
H299 N286 0.985 . S
C300 C301 1.363 . S
C300 C306 1.379 . S
C300 N308 1.356 . S
C301 C300 1.363 . S
C301 C307 1.363 1_554 S
C302 C303 1.363 . S
C302 C307 1.379 . S
C302 N309 1.356 . S
C303 C302 1.363 . S
C303 C306 1.363 1_556 S
N304 C306 1.356 1_556 S
N304 H316 0.984 1_556 S
N304 H317 0.985 . S
N305 C307 1.356 . S
N305 H310 0.984 1_556 S
N305 H311 0.985 . S
C306 C300 1.379 . S
C306 C303 1.363 1_554 S
C306 N304 1.356 1_554 S
C307 C301 1.363 1_556 S
C307 C302 1.379 . S
C307 N305 1.356 . S
N308 C300 1.356 . S
N308 H314 0.984 . S
N308 H315 0.984 . S
N309 C302 1.356 . S
N309 H312 0.984 . S
N309 H313 0.985 . S
H310 N305 0.984 1_554 S
H311 N305 0.985 . S
H312 N309 0.984 . S
H313 N309 0.985 . S
H314 N308 0.984 . S
H315 N308 0.984 . S
H316 N304 0.984 1_554 S
H317 N304 0.985 . S
C318 C319 1.363 . S
C318 C324 1.379 . S
C318 N326 1.356 . S
C319 C318 1.363 . S
C319 C325 1.363 . S
C320 C321 1.363 . S
C320 C325 1.379 . S
C320 N327 1.356 . S
C321 C320 1.363 . S
C321 C324 1.363 . S
N322 C324 1.356 . S
N322 H334 0.984 . S
N322 H335 0.985 . S
N323 C325 1.356 . S
N323 H328 0.984 . S
N323 H329 0.985 . S
C324 C318 1.379 . S
C324 C321 1.363 . S
C324 N322 1.356 . S
C325 C319 1.363 . S
C325 C320 1.379 . S
C325 N323 1.356 . S
N326 C318 1.356 . S
N326 H332 0.984 . S
N326 H333 0.984 . S
N327 C320 1.356 . S
N327 H330 0.984 . S
N327 H331 0.985 . S
H328 N323 0.984 . S
H329 N323 0.985 . S
H330 N327 0.984 . S
H331 N327 0.985 . S
H332 N326 0.984 . S
H333 N326 0.984 . S
H334 N322 0.984 . S
H335 N322 0.985 . S
C336 C337 1.363 . S
C336 C342 1.379 1_554 S
C336 N344 1.356 . S
C337 C336 1.363 . S
C337 C343 1.363 . S
C338 C339 1.363 . S
C338 C343 1.379 1_556 S
C338 N345 1.356 . S
C339 C338 1.363 . S
C339 C342 1.363 . S
N340 C342 1.356 . S
N340 H352 0.984 . S
N340 H353 0.985 . S
N341 C343 1.356 . S
N341 H346 0.984 . S
N341 H347 0.985 . S
C342 C336 1.379 1_556 S
C342 C339 1.363 . S
C342 N340 1.356 . S
C343 C337 1.363 . S
C343 C338 1.379 1_554 S
C343 N341 1.356 . S
N344 C336 1.356 . S
N344 H350 0.984 . S
N344 H351 0.984 . S
N345 C338 1.356 . S
N345 H348 0.984 . S
N345 H349 0.985 . S
H346 N341 0.984 . S
H347 N341 0.985 . S
H348 N345 0.984 . S
H349 N345 0.985 . S
H350 N344 0.984 . S
H351 N344 0.984 . S
H352 N340 0.984 . S
H353 N340 0.985 . S
C354 C355 1.363 . S
C354 C360 1.379 . S
C354 N362 1.356 . S
C355 C354 1.363 . S
C355 C361 1.363 . S
C356 C357 1.363 . S
C356 C361 1.379 . S
C356 N363 1.356 . S
C357 C356 1.363 . S
C357 C360 1.363 . S
N358 C360 1.356 . S
N358 H370 0.984 . S
N358 H371 0.985 . S
N359 C361 1.356 . S
N359 H364 0.984 . S
N359 H365 0.985 . S
C360 C354 1.379 . S
C360 C357 1.363 . S
C360 N358 1.356 . S
C361 C355 1.363 . S
C361 C356 1.379 . S
C361 N359 1.356 . S
N362 C354 1.356 . S
N362 H368 0.984 . S
N362 H369 0.984 . S
N363 C356 1.356 . S
N363 H366 0.984 . S
N363 H367 0.985 . S
H364 N359 0.984 . S
H365 N359 0.985 . S
H366 N363 0.984 . S
H367 N363 0.985 . S
H368 N362 0.984 . S
H369 N362 0.984 . S
H370 N358 0.984 . S
H371 N358 0.985 . S
C372 C373 1.363 1_556 S
C372 C378 1.379 . S
C372 N380 1.356 . S
C373 C372 1.363 1_554 S
C373 C379 1.363 . S
C374 C375 1.363 1_554 S
C374 C379 1.379 . S
C374 N381 1.356 . S
C375 C374 1.363 1_556 S
C375 C378 1.363 . S
N376 C378 1.356 . S
N376 H388 0.984 . S
N376 H389 0.985 . S
N377 C379 1.356 . S
N377 H382 0.984 . S
N377 H383 0.985 . S
C378 C372 1.379 . S
C378 C375 1.363 . S
C378 N376 1.356 . S
C379 C373 1.363 . S
C379 C374 1.379 . S
C379 N377 1.356 . S
N380 C372 1.356 . S
N380 H386 0.984 . S
N380 H387 0.984 1_556 S
N381 C374 1.356 . S
N381 H384 0.984 1_554 S
N381 H385 0.985 . S
H382 N377 0.984 . S
H383 N377 0.985 . S
H384 N381 0.984 1_556 S
H385 N381 0.985 . S
H386 N380 0.984 . S
H387 N380 0.984 1_554 S
H388 N376 0.984 . S
H389 N376 0.985 . S
C390 C391 1.363 . S
C390 C396 1.379 . S
C390 N398 1.356 . S
C391 C390 1.363 . S
C391 C397 1.363 . S
C392 C393 1.363 . S
C392 C397 1.379 . S
C392 N399 1.356 . S
C393 C392 1.363 . S
C393 C396 1.363 . S
N394 C396 1.356 . S
N394 H406 0.984 . S
N394 H407 0.985 . S
N395 C397 1.356 . S
N395 H400 0.984 . S
N395 H401 0.985 . S
C396 C390 1.379 . S
C396 C393 1.363 . S
C396 N394 1.356 . S
C397 C391 1.363 . S
C397 C392 1.379 . S
C397 N395 1.356 . S
N398 C390 1.356 . S
N398 H404 0.984 . S
N398 H405 0.984 . S
N399 C392 1.356 . S
N399 H402 0.984 . S
N399 H403 0.985 . S
H400 N395 0.984 . S
H401 N395 0.985 . S
H402 N399 0.984 . S
H403 N399 0.985 . S
H404 N398 0.984 . S
H405 N398 0.984 . S
H406 N394 0.984 . S
H407 N394 0.985 . S
C408 C409 1.363 . S
C408 C414 1.379 1_455 S
C408 N416 1.356 1_455 S
C409 C408 1.363 . S
C409 C415 1.363 . S
C410 C411 1.363 . S
C410 C415 1.379 . S
C410 N417 1.356 . S
C411 C410 1.363 . S
C411 C414 1.363 1_455 S
N412 C414 1.356 . S
N412 H424 0.984 . S
N412 H425 0.985 . S
N413 C415 1.356 . S
N413 H418 0.984 . S
N413 H419 0.985 . S
C414 C408 1.379 1_655 S
C414 C411 1.363 1_655 S
C414 N412 1.356 . S
C415 C409 1.363 . S
C415 C410 1.379 . S
C415 N413 1.356 . S
N416 C408 1.356 1_655 S
N416 H422 0.984 . S
N416 H423 0.984 1_655 S
N417 C410 1.356 . S
N417 H420 0.984 . S
N417 H421 0.985 . S
H418 N413 0.984 . S
H419 N413 0.985 . S
H420 N417 0.984 . S
H421 N417 0.985 . S
H422 N416 0.984 . S
H423 N416 0.984 1_455 S
H424 N412 0.984 . S
H425 N412 0.985 . S
C426 C427 1.363 . S
C426 C432 1.379 . S
C426 N434 1.356 . S
C427 C426 1.363 . S
C427 C433 1.363 . S
C428 C429 1.363 . S
C428 C433 1.379 . S
C428 N435 1.356 . S
C429 C428 1.363 . S
C429 C432 1.363 . S
N430 C432 1.356 . S
N430 H442 0.984 . S
N430 H443 0.985 . S
N431 C433 1.356 . S
N431 H436 0.984 . S
N431 H437 0.985 . S
C432 C426 1.379 . S
C432 C429 1.363 . S
C432 N430 1.356 . S
C433 C427 1.363 . S
C433 C428 1.379 . S
C433 N431 1.356 . S
N434 C426 1.356 . S
N434 H440 0.984 . S
N434 H441 0.984 . S
N435 C428 1.356 . S
N435 H438 0.984 . S
N435 H439 0.985 . S
H436 N431 0.984 . S
H437 N431 0.985 . S
H438 N435 0.984 . S
H439 N435 0.985 . S
H440 N434 0.984 . S
H441 N434 0.984 . S
H442 N430 0.984 . S
H443 N430 0.985 . S
C444 C445 1.363 . S
C444 C450 1.379 . S
C444 N452 1.356 . S
C445 C444 1.363 . S
C445 C451 1.363 1_455 S
C446 C447 1.363 1_655 S
C446 C451 1.379 . S
C446 N453 1.356 . S
C447 C446 1.363 1_455 S
C447 C450 1.363 . S
N448 C450 1.356 . S
N448 H460 0.984 . S
N448 H461 0.985 . S
N449 C451 1.356 . S
N449 H454 0.984 . S
N449 H455 0.985 . S
C450 C444 1.379 . S
C450 C447 1.363 . S
C450 N448 1.356 . S
C451 C445 1.363 1_655 S
C451 C446 1.379 . S
C451 N449 1.356 . S
N452 C444 1.356 . S
N452 H458 0.984 . S
N452 H459 0.984 . S
N453 C446 1.356 . S
N453 H456 0.984 . S
N453 H457 0.985 . S
H454 N449 0.984 . S
H455 N449 0.985 . S
H456 N453 0.984 . S
H457 N453 0.985 . S
H458 N452 0.984 . S
H459 N452 0.984 . S
H460 N448 0.984 . S
H461 N448 0.985 . S
C462 C463 1.363 . S
C462 C468 1.379 . S
C462 N470 1.356 . S
C463 C462 1.363 . S
C463 C469 1.363 . S
C464 C465 1.363 . S
C464 C469 1.379 . S
C464 N471 1.356 . S
C465 C464 1.363 . S
C465 C468 1.363 . S
N466 C468 1.356 . S
N466 H478 0.984 . S
N466 H479 0.985 . S
N467 C469 1.356 . S
N467 H472 0.984 . S
N467 H473 0.985 . S
C468 C462 1.379 . S
C468 C465 1.363 . S
C468 N466 1.356 . S
C469 C463 1.363 . S
C469 C464 1.379 . S
C469 N467 1.356 . S
N470 C462 1.356 . S
N470 H476 0.984 . S
N470 H477 0.984 . S
N471 C464 1.356 . S
N471 H474 0.984 . S
N471 H475 0.985 . S
H472 N467 0.984 . S
H473 N467 0.985 . S
H474 N471 0.984 . S
H475 N471 0.985 . S
H476 N470 0.984 . S
H477 N470 0.984 . S
H478 N466 0.984 . S
H479 N466 0.985 . S
C480 C481 1.363 . S
C480 C486 1.379 1_565 S
C480 N488 1.356 . S
C481 C480 1.363 . S
C481 C487 1.363 . S
C482 C483 1.363 1_565 S
C482 C487 1.379 . S
C482 N489 1.356 . S
C483 C482 1.363 1_545 S
C483 C486 1.363 . S
N484 C486 1.356 . S
N484 H496 0.984 . S
N484 H497 0.985 . S
N485 C487 1.356 . S
N485 H490 0.984 . S
N485 H491 0.985 . S
C486 C480 1.379 1_545 S
C486 C483 1.363 . S
C486 N484 1.356 . S
C487 C481 1.363 . S
C487 C482 1.379 . S
C487 N485 1.356 . S
N488 C480 1.356 . S
N488 H494 0.984 1_565 S
N488 H495 0.984 . S
N489 C482 1.356 . S
N489 H492 0.984 1_565 S
N489 H493 0.985 . S
H490 N485 0.984 . S
H491 N485 0.985 . S
H492 N489 0.984 1_545 S
H493 N489 0.985 . S
H494 N488 0.984 1_545 S
H495 N488 0.984 . S
H496 N484 0.984 . S
H497 N484 0.985 . S
C498 C499 1.363 1_645 S
C498 C504 1.379 . S
C498 N506 1.356 1_545 S
C499 C498 1.363 1_465 S
C499 C505 1.363 . S
C500 C501 1.363 . S
C500 C505 1.379 1_545 S
C500 N507 1.356 . S
C501 C500 1.363 . S
C501 C504 1.363 1_455 S
N502 C504 1.356 . S
N502 H514 0.984 . S
N502 H515 0.985 . S
N503 C505 1.356 . S
N503 H508 0.984 . S
N503 H509 0.985 . S
C504 C498 1.379 . S
C504 C501 1.363 1_655 S
C504 N502 1.356 . S
C505 C499 1.363 . S
C505 C500 1.379 1_565 S
C505 N503 1.356 . S
N506 C498 1.356 1_565 S
N506 H512 0.984 1_565 S
N506 H513 0.984 . S
N507 C500 1.356 . S
N507 H510 0.984 . S
N507 H511 0.985 1_545 S
H508 N503 0.984 . S
H509 N503 0.985 . S
H510 N507 0.984 . S
H511 N507 0.985 1_565 S
H512 N506 0.984 1_545 S
H513 N506 0.984 . S
H514 N502 0.984 . S
H515 N502 0.985 . S
C516 C517 1.363 . S
C516 C522 1.379 1_565 S
C516 N524 1.356 . S
C517 C516 1.363 . S
C517 C523 1.363 1_565 S
C518 C519 1.363 . S
C518 C523 1.379 . S
C518 N525 1.356 . S
C519 C518 1.363 . S
C519 C522 1.363 . S
N520 C522 1.356 . S
N520 H532 0.984 . S
N520 H533 0.985 . S
N521 C523 1.356 1_565 S
N521 H526 0.984 . S
N521 H527 0.985 . S
C522 C516 1.379 1_545 S
C522 C519 1.363 . S
C522 N520 1.356 . S
C523 C517 1.363 1_545 S
C523 C518 1.379 . S
C523 N521 1.356 1_545 S
N524 C516 1.356 . S
N524 H530 0.984 . S
N524 H531 0.984 . S
N525 C518 1.356 . S
N525 H528 0.984 . S
N525 H529 0.985 . S
H526 N521 0.984 . S
H527 N521 0.985 . S
H528 N525 0.984 . S
H529 N525 0.985 . S
H530 N524 0.984 . S
H531 N524 0.984 . S
H532 N520 0.984 . S
H533 N520 0.985 . S
C534 C535 1.363 . S
C534 C540 1.379 1_545 S
C534 N542 1.356 . S
C535 C534 1.363 . S
C535 C541 1.363 1_545 S
C536 C537 1.363 . S
C536 C541 1.379 . S
C536 N543 1.356 . S
C537 C536 1.363 . S
C537 C540 1.363 . S
N538 C540 1.356 1_655 S
N538 H550 0.984 1_565 S
N538 H551 0.985 . S
N539 C541 1.356 . S
N539 H544 0.984 1_565 S
N539 H545 0.985 . S
C540 C534 1.379 1_565 S
C540 C537 1.363 . S
C540 N538 1.356 1_455 S
C541 C535 1.363 1_565 S
C541 C536 1.379 . S
C541 N539 1.356 . S
N542 C534 1.356 . S
N542 H548 0.984 1_455 S
N542 H549 0.984 . S
N543 C536 1.356 . S
N543 H546 0.984 . S
N543 H547 0.985 . S
H544 N539 0.984 1_545 S
H545 N539 0.985 . S
H546 N543 0.984 . S
H547 N543 0.985 . S
H548 N542 0.984 1_655 S
H549 N542 0.984 . S
H550 N538 0.984 1_545 S
H551 N538 0.985 . S
C552 C553 1.363 . S
C552 C558 1.379 . S
C552 N560 1.356 . S
C553 C552 1.363 . S
C553 C559 1.363 1_556 S
C554 C555 1.363 . S
C554 C559 1.379 . S
C554 N561 1.356 . S
C555 C554 1.363 . S
C555 C558 1.363 1_554 S
N556 C558 1.356 . S
N556 H568 0.984 . S
N556 H569 0.985 1_556 S
N557 C559 1.356 . S
N557 H562 0.984 1_554 S
N557 H563 0.985 . S
C558 C552 1.379 . S
C558 C555 1.363 1_556 S
C558 N556 1.356 . S
C559 C553 1.363 1_554 S
C559 C554 1.379 . S
C559 N557 1.356 . S
N560 C552 1.356 . S
N560 H566 0.984 . S
N560 H567 0.984 . S
N561 C554 1.356 . S
N561 H564 0.984 . S
N561 H565 0.985 . S
H562 N557 0.984 1_556 S
H563 N557 0.985 . S
H564 N561 0.984 . S
H565 N561 0.985 . S
H566 N560 0.984 . S
H567 N560 0.984 . S
H568 N556 0.984 . S
H569 N556 0.985 1_554 S
C570 C571 1.363 . S
C570 C576 1.379 . S
C570 N578 1.356 . S
C571 C570 1.363 . S
C571 C577 1.363 . S
C572 C573 1.363 . S
C572 C577 1.379 . S
C572 N579 1.356 . S
C573 C572 1.363 . S
C573 C576 1.363 . S
N574 C576 1.356 . S
N574 H586 0.984 . S
N574 H587 0.985 . S
N575 C577 1.356 . S
N575 H580 0.984 . S
N575 H581 0.985 . S
C576 C570 1.379 . S
C576 C573 1.363 . S
C576 N574 1.356 . S
C577 C571 1.363 . S
C577 C572 1.379 . S
C577 N575 1.356 . S
N578 C570 1.356 . S
N578 H584 0.984 . S
N578 H585 0.984 . S
N579 C572 1.356 . S
N579 H582 0.984 . S
N579 H583 0.985 . S
H580 N575 0.984 . S
H581 N575 0.985 . S
H582 N579 0.984 . S
H583 N579 0.985 . S
H584 N578 0.984 . S
H585 N578 0.984 . S
H586 N574 0.984 . S
H587 N574 0.985 . S
C588 C589 1.363 1_554 S
C588 C594 1.393 . S
C588 N596 1.356 . S
C589 C588 1.363 1_556 S
C589 C595 1.348 1_545 S
C590 C591 1.363 1_556 S
C590 C595 1.393 . S
C590 N597 1.356 . S
C591 C590 1.363 1_554 S
C591 C594 1.348 1_565 S
N592 C594 1.352 1_565 S
N592 H604 0.984 1_565 S
N592 H605 0.985 . S
N593 C595 1.352 1_545 S
N593 H598 0.984 . S
N593 H599 0.985 1_545 S
C594 C588 1.393 . S
C594 C591 1.348 1_545 S
C594 N592 1.352 1_545 S
C595 C589 1.348 1_565 S
C595 C590 1.393 . S
C595 N593 1.352 1_565 S
N596 C588 1.356 . S
N596 H602 0.984 . S
N596 H603 0.984 1_554 S
N597 C590 1.356 . S
N597 H600 0.984 1_556 S
N597 H601 0.985 . S
H598 N593 0.984 . S
H599 N593 0.985 1_565 S
H600 N597 0.984 1_554 S
H601 N597 0.985 . S
H602 N596 0.984 . S
H603 N596 0.984 1_556 S
H604 N592 0.984 1_545 S
H605 N592 0.985 . S
C606 C607 1.363 1_455 S
C606 C612 1.379 1_565 S
C606 N614 1.356 . S
C607 C606 1.363 1_655 S
C607 C613 1.363 . S
C608 C609 1.363 . S
C608 C613 1.379 1_545 S
C608 N615 1.356 . S
C609 C608 1.363 . S
C609 C612 1.363 1_655 S
N610 C612 1.356 . S
N610 H622 0.984 . S
N610 H623 0.985 . S
N611 C613 1.356 . S
N611 H616 0.984 . S
N611 H617 0.985 . S
C612 C606 1.379 1_545 S
C612 C609 1.363 1_455 S
C612 N610 1.356 . S
C613 C607 1.363 . S
C613 C608 1.379 1_565 S
C613 N611 1.356 . S
N614 C606 1.356 . S
N614 H620 0.984 . S
N614 H621 0.984 . S
N615 C608 1.356 . S
N615 H618 0.984 . S
N615 H619 0.985 . S
H616 N611 0.984 . S
H617 N611 0.985 . S
H618 N615 0.984 . S
H619 N615 0.985 . S
H620 N614 0.984 . S
H621 N614 0.984 . S
H622 N610 0.984 . S
H623 N610 0.985 . S
C265 C215 1.850 . S
C267 C8 1.852 . S
C283 C41 1.852 . S
C285 C248 1.850 . S
C301 C149 1.850 . S
C303 C74 1.852 . S
C319 C107 1.852 . S
C321 C182 1.850 . S
C337 C140 1.852 . S
C339 C83 1.850 . S
C355 C173 1.852 . S
C357 C116 1.850 . S
C373 C17 1.850 . S
C375 C206 1.852 . S
C391 C50 1.850 . S
C393 C239 1.852 . S
C409 C28 1.870 . S
C411 N236 1.864 1_455 S
C427 C61 1.870 . S
C429 N203 1.864 . S
C445 N170 1.864 1_455 S
C447 C94 1.870 . S
C463 C127 1.870 . S
C465 N137 1.864 . S
C481 C160 1.870 . S
C483 N104 1.864 . S
C499 N71 1.864 . S
C501 C193 1.870 . S
C517 N38 1.864 . S
C519 C226 1.870 . S
C535 N5 1.864 . S
C537 C259 1.870 . S
C553 N80 0.403 . S
C555 N14 0.403 . S
C571 N47 0.403 . S
C573 N113 0.403 . S
C589 N212 0.403 . S
C591 N146 0.403 . S
C607 N245 0.403 . S
C609 N179 0.403 . S
