# Generated by pormake.
# Topology sxa, (6)-cn, num edge types: 1
# Building blocks:
#     Node 0, Type 0, BuildingBlock: LEVNOQ01_clean_sbu_1, # of connection points: 6
#     Node 1, Type 0, BuildingBlock: LEVNOQ01_clean_sbu_1, # of connection points: 6
#     Node 2, Type 0, BuildingBlock: LEVNOQ01_clean_sbu_1, # of connection points: 6
#     Node 3, Type 0, BuildingBlock: LEVNOQ01_clean_sbu_1, # of connection points: 6
#     Edge 4, Type (0, 0), BuildingBlock: FUNLAD_clean_linker_1, # of connection points: 2
#     Edge 5, Type (0, 0), BuildingBlock: FUNLAD_clean_linker_1, # of connection points: 2
#     Edge 6, Type (0, 0), BuildingBlock: FUNLAD_clean_linker_1, # of connection points: 2
#     Edge 7, Type (0, 0), BuildingBlock: FUNLAD_clean_linker_1, # of connection points: 2
#     Edge 8, Type (0, 0), BuildingBlock: FUNLAD_clean_linker_1, # of connection points: 2
#     Edge 9, Type (0, 0), BuildingBlock: FUNLAD_clean_linker_1, # of connection points: 2
#     Edge 10, Type (0, 0), BuildingBlock: FUNLAD_clean_linker_1, # of connection points: 2
#     Edge 11, Type (0, 0), BuildingBlock: FUNLAD_clean_linker_1, # of connection points: 2
#     Edge 12, Type (0, 0), BuildingBlock: FUNLAD_clean_linker_1, # of connection points: 2
#     Edge 13, Type (0, 0), BuildingBlock: FUNLAD_clean_linker_1, # of connection points: 2
#     Edge 14, Type (0, 0), BuildingBlock: FUNLAD_clean_linker_1, # of connection points: 2
#     Edge 15, Type (0, 0), BuildingBlock: FUNLAD_clean_linker_1, # of connection points: 2
# Relax obj value: 0.188
# Max RMSD: 0.231
# Mean RMSD: 0.231
data_MOF--net-sxa--node1-LEVNOQ01_clean_sbu_1--edge1-FUNLAD_clean_linker_1
_symmetry_space_group_name_H-M    P1
_symmetry_Int_Tables_number       1
_symmetry_cell_setting            triclinic
loop_
_symmetry_equiv_pos_as_xyz
'x, y, z'
_cell_length_a     26.336727
_cell_length_b     30.814949
_cell_length_c     16.364358
_cell_angle_alpha  89.87389
_cell_angle_beta   90.087665
_cell_angle_gamma 90.183921
loop_
_atom_site_label
_atom_site_type_symbol
_atom_site_fract_x
_atom_site_fract_y
_atom_site_fract_z
_atom_type_partial_charge
O0 O 0.07581 0.74082 0.03939 0.0
Mg1 Mg 0.06571 0.7206 0.16208 0.0
O2 O 0.04678 0.79528 0.10859 0.0
Mg3 Mg 0.98764 0.76926 0.20127 0.0
O4 O -0.00253 0.69134 0.19043 0.0
O5 O 0.07094 0.65567 0.16987 0.0
O6 O 0.92104 0.75403 0.29652 0.0
O7 O 0.9373 0.74794 0.09382 0.0
Mg8 Mg 0.91249 0.8202 0.15133 0.0
O9 O 0.97887 0.84743 0.1945 0.0
O10 O 0.86078 0.79009 0.2323 0.0
O11 O 0.90854 0.80298 0.02584 0.0
O12 O 0.90784 0.88466 0.16312 0.0
C13 C 0.09153 0.77157 0.31206 0.0
C14 C 0.06993 0.78116 0.04654 0.0
C15 C 0.02248 0.6551 0.18011 0.0
C16 C 0.8744 0.76524 0.2897 0.0
C17 C 0.91482 0.76262 0.03124 0.0
C18 C 0.95527 0.88424 0.18228 0.0
O19 O 0.11092 0.75031 0.2539 0.0
O20 O 0.04408 0.78017 0.31165 0.0
O21 O 0.56135 0.22526 0.00625 0.0
Mg22 Mg 0.56574 0.20578 0.13111 0.0
O23 O 0.54812 0.27978 0.0859 0.0
Mg24 Mg 0.49822 0.25503 0.19165 0.0
O25 O 0.50386 0.17604 0.18287 0.0
O26 O 0.57243 0.14131 0.13262 0.0
O27 O 0.44205 0.24229 0.30343 0.0
O28 O 0.43881 0.23463 0.09586 0.0
Mg29 Mg 0.41715 0.30988 0.16656 0.0
O30 O 0.49023 0.33267 0.18328 0.0
O31 O 0.37712 0.28267 0.26551 0.0
O32 O 0.39732 0.28997 0.04711 0.0
O33 O 0.42069 0.37486 0.1762 0.0
C34 C 0.61218 0.25396 0.27196 0.0
C35 C 0.56209 0.26559 0.01712 0.0
C36 C 0.52725 0.14022 0.16234 0.0
C37 C 0.39677 0.25601 0.31514 0.0
C38 C 0.40932 0.25047 0.04266 0.0
C39 C 0.46938 0.37111 0.17835 0.0
O40 O 0.62255 0.23166 0.20936 0.0
O41 O 0.56633 0.2659 0.28504 0.0
O42 O 0.08055 0.29963 0.01353 0.0
Mg43 Mg 0.06955 0.31954 0.89139 0.0
O44 O 0.05052 0.24308 0.95129 0.0
Mg45 Mg 0.99275 0.26354 0.85193 0.0
O46 O -0.00197 0.34151 0.86348 0.0
O47 O 0.06584 0.38439 0.88676 0.0
O48 O 0.93028 0.277 0.74755 0.0
O49 O 0.93446 0.27782 0.95019 0.0
Mg50 Mg 0.90812 0.19597 0.859 0.0
O51 O 0.98465 0.18737 0.86351 0.0
O52 O 0.87896 0.22003 0.74783 0.0
O53 O 0.8819 0.22336 0.97057 0.0
O54 O 0.9289 0.13261 0.85963 0.0
C55 C 0.10055 0.26731 0.7456 0.0
C56 C 0.07631 0.25905 0.00932 0.0
C57 C 0.01758 0.38009 0.87558 0.0
C58 C 0.8924 0.25608 0.71742 0.0
C59 C 0.89766 0.26101 0.98877 0.0
C60 C 0.97519 0.14582 0.868 0.0
O61 O 0.11694 0.29375 0.79867 0.0
O62 O 0.05479 0.25341 0.74941 0.0
O63 O 0.38487 0.68634 0.93758 0.0
Mg64 Mg 0.41323 0.66658 0.82252 0.0
O65 O 0.43503 0.74347 0.92951 0.0
Mg66 Mg 0.4992 0.7372 0.83626 0.0
O67 O 0.49003 0.66217 0.82892 0.0
O68 O 0.44029 0.60487 0.8076 0.0
O69 O 0.56724 0.73576 0.74186 0.0
O70 O 0.55219 0.70463 0.93185 0.0
Mg71 Mg 0.56043 0.78044 0.91237 0.0
O72 O 0.50277 0.81586 0.86143 0.0
O73 O 0.62097 0.76172 0.83263 0.0
O74 O 0.55154 0.75052 0.03019 0.0
O75 O 0.56697 0.84366 0.93604 0.0
C76 C 0.40175 0.73947 0.69915 0.0
C77 C 0.39769 0.72385 0.96192 0.0
C78 C 0.48474 0.62024 0.82471 0.0
C79 C 0.61264 0.74596 0.76243 0.0
C80 C 0.56215 0.71305 0.0057 0.0
C81 C 0.52442 0.84877 0.8984 0.0
O82 O 0.38612 0.70254 0.72264 0.0
O83 O 0.44137 0.75705 0.73083 0.0
H84 H 0.94368 0.41538 0.88486 0.0
C85 C 0.98448 0.41807 0.89333 0.0
H86 H 0.04541 0.45567 0.93898 0.0
H87 H 0.97859 0.6422 0.95828 0.0
H88 H 0.00604 0.64352 0.81745 0.0
H89 H 0.01885 0.57556 0.74093 0.0
H90 H 0.00426 0.50552 0.80578 0.0
C91 C 0.00459 0.45348 0.93017 0.0
C92 C 0.9757 0.49135 0.96276 0.0
C93 C 0.98207 0.5321 0.92411 0.0
C94 C 0.97386 0.57128 0.96833 0.0
C95 C 0.98335 0.61131 0.92825 0.0
C96 C -0.00072 0.6126 0.84708 0.0
C97 C 0.00659 0.57435 0.804 0.0
C98 C -0.00166 0.53447 0.84189 0.0
H99 H 0.01726 0.58424 0.18132 0.0
C100 C 0.99668 0.6133 0.16347 0.0
H101 H 0.94459 0.63943 0.08025 0.0
H102 H 0.94964 0.41899 0.04955 0.0
H103 H 0.91418 0.41693 0.18661 0.0
H104 H 0.89755 0.48465 0.26212 0.0
H105 H 0.91665 0.55497 0.20125 0.0
C106 C 0.96188 0.60995 0.10326 0.0
C107 C 0.95886 0.56959 0.0518 0.0
C108 C 0.946 0.52883 0.08678 0.0
C109 C 0.95475 0.48969 0.04248 0.0
C110 C 0.94356 0.44953 0.08039 0.0
C111 C 0.92307 0.44795 0.15883 0.0
C112 C 0.91372 0.4861 0.20139 0.0
C113 C 0.92506 0.52617 0.1661 0.0
H114 H 0.47857 0.44115 0.16486 0.0
C115 C 0.49868 0.41066 0.15721 0.0
H116 H 0.55684 0.37898 0.09436 0.0
H117 H 0.53275 0.4958 0.77996 0.0
H118 H 0.53083 0.4221 0.72652 0.0
H119 H 0.53506 0.35918 0.81982 0.0
H120 H 0.54162 0.36931 0.96572 0.0
C121 C 0.53857 0.40984 0.10579 0.0
C122 C 0.54755 0.44715 0.04774 0.0
C123 C 0.54339 0.44036 0.96202 0.0
C124 C 0.53924 0.47653 0.90808 0.0
C125 C 0.53492 0.46913 0.82305 0.0
C126 C 0.53397 0.42717 0.79177 0.0
C127 C 0.53647 0.39178 0.84429 0.0
C128 C 0.54063 0.3981 0.92833 0.0
H129 H 0.56145 0.60146 0.87231 0.0
C130 C 0.52284 0.59035 0.86157 0.0
H131 H 0.4679 0.54139 0.88001 0.0
H132 H 0.57272 0.47169 0.20233 0.0
H133 H 0.57899 0.5457 0.25335 0.0
H134 H 0.56503 0.60814 0.16138 0.0
H135 H 0.54575 0.59718 0.01789 0.0
C136 C 0.50683 0.5516 0.89125 0.0
C137 C 0.53691 0.51927 0.93924 0.0
C138 C 0.5478 0.52632 0.02309 0.0
C139 C 0.55417 0.49019 0.07697 0.0
C140 C 0.56594 0.49805 0.1599 0.0
C141 C 0.56991 0.54026 0.18965 0.0
C142 C 0.5621 0.57543 0.13781 0.0
C143 C 0.55091 0.56872 0.05552 0.0
H144 H 0.46512 0.89834 0.8691 0.0
C145 C 0.49852 0.89146 0.90584 0.0
H146 H 0.54645 0.91199 1.00216 0.0
H147 H 0.51018 0.11167 0.95215 0.0
H148 H 0.55178 0.10328 0.82157 0.0
H149 H 0.56508 0.03073 0.76214 0.0
H150 H 0.53676 0.96593 0.83365 0.0
C151 C 0.51453 0.92016 0.96295 0.0
C152 C 0.49006 0.96259 0.98189 0.0
C153 C 0.50485 1.00028 0.9384 0.0
C154 C 0.49647 0.04221 0.97258 0.0
C155 C 0.51437 0.07905 0.92912 0.0
C156 C 0.53862 0.07472 0.85395 0.0
C157 C 0.54619 0.03387 0.82054 0.0
C158 C 0.52986 0.99697 0.86223 0.0
H159 H 0.51943 0.0709 0.18731 0.0
C160 C 0.50084 0.09806 0.15731 0.0
H161 H 0.45661 0.11721 0.05686 0.0
H162 H 0.4491 0.89748 0.07328 0.0
H163 H 0.40219 0.90528 0.20042 0.0
H164 H 0.38637 0.97773 0.25897 0.0
H165 H 0.41736 0.04287 0.19102 0.0
C166 C 0.47144 0.08988 0.0915 0.0
C167 C 0.47275 0.04638 0.05036 0.0
C168 C 0.45358 0.00875 0.08979 0.0
C169 C 0.4624 0.96692 0.05566 0.0
C170 C 0.44371 0.92988 0.09717 0.0
C171 C 0.41659 0.93395 0.16979 0.0
C172 C 0.40766 0.97476 0.20274 0.0
C173 C 0.42583 0.01185 0.16345 0.0
H174 H 0.95854 0.95471 0.17789 0.0
C175 C 0.98238 0.92609 0.17312 0.0
H176 H 0.04894 0.90047 0.12341 0.0
H177 H 0.04329 0.0259 0.81852 0.0
H178 H 0.0643 0.95557 0.76019 0.0
H179 H 0.07353 0.89108 0.84857 0.0
H180 H 0.06187 0.89625 0.99454 0.0
C181 C 0.02679 0.92964 0.1326 0.0
C182 C 0.03783 0.96966 0.08208 0.0
C183 C 0.04584 0.96592 0.99634 0.0
C184 C 0.04006 1.00298 0.94481 0.0
C185 C 0.04671 0.99842 0.85953 0.0
C186 C 0.05893 0.95843 0.82553 0.0
C187 C 0.06413 0.92214 0.87531 0.0
C188 C 0.05731 0.92559 0.9595 0.0
H189 H 0.05025 0.12669 0.92063 0.0
C190 C 0.01289 0.11495 0.90301 0.0
H191 H 0.96034 0.06307 0.90616 0.0
H192 H 0.04057 0.99119 0.24329 0.0
H193 H 0.02562 0.06274 0.30126 0.0
H194 H 0.00992 0.12589 0.2118 0.0
H195 H 0.01024 0.11827 0.06424 0.0
C196 C -0.0024 0.07459 0.92496 0.0
C197 C 0.02605 0.04352 0.97816 0.0
C198 C 0.02569 0.04858 0.0643 0.0
C199 C 0.03276 0.01179 0.11617 0.0
C200 C 0.03336 0.01787 0.20175 0.0
C201 C 0.02522 0.0587 0.23556 0.0
C202 C 0.01645 0.09427 0.18515 0.0
C203 C 0.01656 0.08945 0.10048 0.0
H204 H 0.38801 0.78914 0.60202 0.0
C205 C 0.37133 0.76237 0.63601 0.0
H206 H 0.30588 0.7241 0.65754 0.0
H207 H 0.14368 0.84388 0.49114 0.0
H208 H 0.13702 0.87193 0.62906 0.0
H209 H 0.20005 0.85224 0.73435 0.0
H210 H 0.27077 0.80493 0.7018 0.0
C211 C 0.32302 0.74965 0.62095 0.0
C212 C 0.29032 0.76741 0.5545 0.0
C213 C 0.24861 0.79434 0.57439 0.0
C214 C 0.21112 0.80439 0.51429 0.0
C215 C 0.17165 0.83335 0.53524 0.0
C216 C 0.16775 0.85012 0.614 0.0
C217 C 0.20333 0.83916 0.67323 0.0
C218 C 0.24355 0.81181 0.65389 0.0
H219 H 0.11014 0.77326 0.44385 0.0
C220 C 0.12424 0.78135 0.38336 0.0
H221 H 0.18541 0.80113 0.31062 0.0
H222 H 0.36692 0.71687 0.49499 0.0
H223 H 0.37318 0.68699 0.35884 0.0
H224 H 0.3066 0.70093 0.25615 0.0
H225 H 0.23367 0.74458 0.28872 0.0
C226 C 0.17334 0.79262 0.3721 0.0
C227 C 0.2141 0.78575 0.43504 0.0
C228 C 0.25693 0.75975 0.41459 0.0
C229 C 0.29517 0.75105 0.4741 0.0
C230 C 0.33687 0.72453 0.45234 0.0
C231 C 0.34096 0.70708 0.37431 0.0
C232 C 0.30353 0.71498 0.31651 0.0
C233 C 0.26185 0.74062 0.33612 0.0
H234 H 0.11832 0.23801 0.62473 0.0
C235 C 0.13457 0.25433 0.67747 0.0
H236 H 0.20038 0.28145 0.73072 0.0
H237 H 0.31399 0.1715 0.43649 0.0
H238 H 0.28833 0.1068 0.51084 0.0
H239 H 0.23148 0.1118 0.63013 0.0
H240 H 0.19915 0.18151 0.67513 0.0
C241 C 0.1845 0.26456 0.67838 0.0
C242 C 0.21829 0.26044 0.60548 0.0
C243 C 0.23767 0.21961 0.58074 0.0
C244 C 0.2717 0.21684 0.51302 0.0
C245 C 0.28899 0.17552 0.48825 0.0
C246 C 0.27447 0.13814 0.53034 0.0
C247 C 0.24238 0.14095 0.59747 0.0
C248 C 0.22403 0.18112 0.6226 0.0
H249 H 0.38727 0.232 0.44299 0.0
C250 C 0.36733 0.24428 0.38964 0.0
H251 H 0.2979 0.26559 0.33965 0.0
H252 H 0.18966 0.344 0.63787 0.0
H253 H 0.21778 0.40884 0.56712 0.0
H254 H 0.27832 0.40433 0.45267 0.0
H255 H 0.31115 0.33496 0.40831 0.0
C256 C 0.31706 0.25301 0.39358 0.0
C257 C 0.28712 0.25501 0.47111 0.0
C258 C 0.26879 0.29595 0.49754 0.0
C259 C 0.23439 0.29864 0.56437 0.0
C260 C 0.2163 0.34 0.58821 0.0
C261 C 0.23202 0.37756 0.54799 0.0
C262 C 0.26602 0.37501 0.48348 0.0
C263 C 0.28436 0.33486 0.45837 0.0
H264 H 0.86229 0.31003 0.64026 0.0
C265 C 0.85941 0.27547 0.65267 0.0
H266 H 0.8203 0.21701 0.63024 0.0
H267 H 0.60445 0.26154 0.52602 0.0
H268 H 0.59113 0.23123 0.66074 0.0
H269 H 0.66308 0.21892 0.75395 0.0
H270 H 0.7492 0.23668 0.7123 0.0
C271 C 0.82284 0.25139 0.61567 0.0
C272 C 0.77966 0.26893 0.56517 0.0
C273 C 0.72899 0.26009 0.59075 0.0
C274 C 0.68714 0.26803 0.53746 0.0
C275 C 0.63757 0.25689 0.56408 0.0
C276 C 0.62929 0.23939 0.64141 0.0
C277 C 0.66986 0.23242 0.69388 0.0
C278 C 0.71907 0.24257 0.66915 0.0
H279 H 0.68949 0.24425 0.31789 0.0
C280 C 0.65446 0.26165 0.33028 0.0
H281 H 0.61755 0.30329 0.41278 0.0
H282 H 0.87071 0.29072 0.49494 0.0
H283 H 0.88309 0.32638 0.36445 0.0
H284 H 0.80999 0.34559 0.27734 0.0
H285 H 0.72388 0.32838 0.31977 0.0
C286 C 0.65239 0.28634 0.39778 0.0
C287 C 0.69547 0.28542 0.45838 0.0
C288 C 0.74554 0.29788 0.43541 0.0
C289 C 0.78773 0.2887 0.48777 0.0
C290 C 0.83725 0.29847 0.45969 0.0
C291 C 0.84493 0.31876 0.38452 0.0
C292 C 0.80378 0.32945 0.33532 0.0
C293 C 0.75462 0.31914 0.36009 0.0
H294 H 0.79528 0.75096 0.32128 0.0
C295 C 0.83373 0.75026 0.3457 0.0
H296 H 0.87681 0.7459 0.4541 0.0
H297 H 0.67876 0.8175 0.63868 0.0
H298 H 0.73027 0.88256 0.63223 0.0
H299 H 0.81155 0.88323 0.55763 0.0
H300 H 0.84148 0.81884 0.48815 0.0
C301 C 0.83951 0.74307 0.42614 0.0
C302 C 0.79336 0.7403 0.47982 0.0
C303 C 0.7773 0.77751 0.52356 0.0
C304 C 0.73105 0.77667 0.56896 0.0
C305 C 0.71454 0.81547 0.60671 0.0
C306 C 0.74352 0.8533 0.60272 0.0
C307 C 0.7892 0.85371 0.56054 0.0
C308 C 0.80596 0.81647 0.52102 0.0
H309 H 0.69414 0.74697 0.73434 0.0
C310 C 0.65695 0.74168 0.70699 0.0
H311 H 0.61799 0.7303 0.59619 0.0
H312 H 0.81243 0.66358 0.4032 0.0
H313 H 0.76053 0.59834 0.40821 0.0
H314 H 0.68185 0.59606 0.48973 0.0
H315 H 0.65423 0.65904 0.56635 0.0
C316 C 0.65441 0.73604 0.62555 0.0
C317 C 0.70166 0.7379 0.57382 0.0
C318 C 0.71757 0.70082 0.52942 0.0
C319 C 0.76323 0.70206 0.48238 0.0
C320 C 0.778 0.66446 0.43915 0.0
C321 C 0.74867 0.62679 0.44177 0.0
C322 C 0.70436 0.6255 0.4877 0.0
C323 C 0.68889 0.66191 0.53133 0.0
H324 H 0.36688 0.78586 0.99798 0.0
C325 C 0.36003 0.75115 1.00347 0.0
H326 H 0.30571 0.70226 0.01799 0.0
H327 H 0.1712 0.88557 0.96525 0.0
H328 H 0.22133 0.92158 0.07236 0.0
H329 H 0.2905 0.88226 0.14276 0.0
H330 H 0.31236 0.8085 0.10342 0.0
C331 C 0.31217 0.73701 0.01235 0.0
C332 C 0.26999 0.76248 0.97553 0.0
C333 C 0.25548 0.80367 0.00632 0.0
C334 C 0.21264 0.82485 0.97201 0.0
C335 C 0.20198 0.86801 0.99422 0.0
C336 C 0.2303 0.88863 0.05488 0.0
C337 C 0.26937 0.8665 0.09433 0.0
C338 C 0.28181 0.82431 0.0709 0.0
H339 H 0.11991 0.83585 0.04111 0.0
C340 C 0.10359 0.81101 1.00263 0.0
H341 H 0.10304 0.77625 0.89561 0.0
H342 H 0.29761 0.69246 0.87993 0.0
H343 H 0.25547 0.66746 0.75738 0.0
H344 H 0.17977 0.70525 0.70411 0.0
H345 H 0.14555 0.76825 0.77552 0.0
C346 C 0.12437 0.79997 0.93089 0.0
C347 C 0.18066 0.80195 0.91755 0.0
C348 C 0.2018 0.76736 0.87332 0.0
C349 C 0.24589 0.74648 0.90352 0.0
C350 C 0.26435 0.70991 0.86055 0.0
C351 C 0.24045 0.69521 0.7897 0.0
C352 C 0.19778 0.71639 0.75977 0.0
C353 C 0.17832 0.75201 0.80129 0.0
H354 H 0.11665 0.19886 0.01983 0.0
C355 C 0.11529 0.23116 0.0464 0.0
H356 H 0.1569 0.28014 0.10321 0.0
H357 H 0.32464 0.14534 0.92315 0.0
H358 H 0.28958 0.08491 1.00324 0.0
H359 H 0.21791 0.09697 0.09772 0.0
H360 H 0.1795 0.16834 0.11039 0.0
C361 C 0.15894 0.24912 0.07203 0.0
C362 C 0.20534 0.24135 0.02227 0.0
C363 C 0.22864 0.19984 0.0202 0.0
C364 C 0.27208 0.19333 0.9705 0.0
C365 C 0.29279 0.15138 0.96337 0.0
C366 C 0.27302 0.11688 0.00855 0.0
C367 C 0.23255 0.12367 0.06158 0.0
C368 C 0.2106 0.16469 0.0679 0.0
H369 H 0.36845 0.19106 0.026 0.0
C370 C 0.37878 0.22043 0.99352 0.0
H371 H 0.36679 0.26303 0.89901 0.0
H372 H 0.16752 0.32467 0.9999 0.0
H373 H 0.194 0.37649 0.89806 0.0
H374 H 0.26495 0.36021 0.80475 0.0
H375 H 0.31037 0.29168 0.81561 0.0
C376 C 0.35131 0.23476 0.92994 0.0
C377 C 0.29481 0.22906 0.93025 0.0
C378 C 0.26564 0.26671 0.91771 0.0
C379 C 0.22267 0.2744 0.96764 0.0
C380 C 0.19835 0.31526 0.9609 0.0
C381 C 0.21367 0.3458 0.90293 0.0
C382 C 0.25379 0.3368 0.85082 0.0
C383 C 0.27987 0.2978 0.85828 0.0
H384 H 0.60312 0.28363 0.90471 0.0
C385 C 0.59731 0.29192 0.96853 0.0
H386 H 0.62689 0.32192 0.07395 0.0
H387 H 0.83109 0.2704 0.86127 0.0
H388 H 0.79461 0.19844 0.83586 0.0
H389 H 0.70934 0.18018 0.88807 0.0
H390 H 0.6597 0.23323 0.95868 0.0
C391 C 0.63298 0.31417 0.00987 0.0
C392 C 0.68545 0.32154 0.98031 0.0
C393 C 0.71467 0.28691 0.94721 0.0
C394 C 0.76642 0.29422 0.92992 0.0
C395 C 0.79336 0.26336 0.88361 0.0
C396 C 0.77281 0.22256 0.86839 0.0
C397 C 0.72468 0.21247 0.89699 0.0
C398 C 0.69574 0.24409 0.9358 0.0
H399 H 0.83399 0.27474 0.06842 0.0
C400 C 0.86149 0.29031 0.02826 0.0
H401 H 0.87243 0.34083 0.94201 0.0
H402 H 0.64056 0.39745 0.02759 0.0
H403 H 0.68379 0.46388 0.06896 0.0
H404 H 0.77752 0.46867 0.06629 0.0
H405 H 0.82828 0.40743 0.01917 0.0
C406 C 0.84652 0.32549 0.98503 0.0
C407 C 0.79167 0.3299 0.96594 0.0
C408 C 0.76333 0.3652 0.99503 0.0
C409 C 0.70961 0.36172 0.999 0.0
C410 C 0.68152 0.3981 0.02545 0.0
C411 C 0.70594 0.43632 0.04903 0.0
C412 C 0.75871 0.43904 0.04746 0.0
C413 C 0.78737 0.40382 0.02091 0.0
H414 H 0.85847 0.74771 0.9367 0.0
C415 C 0.87867 0.73405 0.9887 0.0
H416 H 0.87544 0.68842 0.08564 0.0
H417 H 0.64676 0.75835 0.98521 0.0
H418 H 0.67775 0.8286 0.02639 0.0
H419 H 0.76431 0.83664 0.08296 0.0
H420 H 0.82027 0.77469 0.09071 0.0
C421 C 0.85674 0.70172 0.032 0.0
C422 C 0.80134 0.69335 0.02658 0.0
C423 C 0.76691 0.7282 0.03716 0.0
C424 C 0.71499 0.72213 0.01897 0.0
C425 C 0.68434 0.75963 0.01026 0.0
C426 C 0.70218 0.80056 0.03207 0.0
C427 C 0.75092 0.80518 0.06279 0.0
C428 C 0.78305 0.76948 0.06541 0.0
H429 H 0.61663 0.70188 0.10472 0.0
C430 C 0.60514 0.69053 0.04457 0.0
H431 H 0.6296 0.66068 0.93524 0.0
H432 H 0.85666 0.61889 0.01165 0.0
H433 H 0.82303 0.54597 0.99359 0.0
H434 H 0.73054 0.53327 0.9841 0.0
H435 H 0.67119 0.59336 0.99188 0.0
C436 C 0.64022 0.67235 0.99556 0.0
C437 C 0.69549 0.67932 0.00886 0.0
C438 C 0.72936 0.64365 0.00648 0.0
C439 C 0.7826 0.65084 0.01345 0.0
C440 C 0.81588 0.61502 0.0077 0.0
C441 C 0.79706 0.57307 0.9973 0.0
C442 C 0.74499 0.56591 0.992 0.0
C443 C 0.71133 0.60067 0.99639 0.0
loop_
_geom_bond_atom_site_label_1
_geom_bond_atom_site_label_2
_geom_bond_distance
_geom_bond_site_symmetry_2
_ccdc_geom_bond_type
O0 Mg1 1.990 . S
O0 C14 1.253 . S
Mg1 O0 1.990 . S
Mg1 O4 2.180 . S
Mg1 O5 2.117 . S
Mg1 O19 2.030 . S
O2 Mg3 2.072 . S
O2 C14 1.260 . S
Mg3 O2 2.072 . S
Mg3 O4 2.099 . S
Mg3 O6 2.079 1_455 S
Mg3 O7 2.072 1_455 S
Mg3 O9 2.099 1_455 S
Mg3 O20 2.079 . S
O4 Mg1 2.180 . S
O4 Mg3 2.099 . S
O4 C15 1.279 . S
O5 Mg1 2.117 . S
O5 C15 1.250 . S
O6 Mg3 2.079 1_655 S
O6 C16 1.264 . S
O7 Mg3 2.072 1_655 S
O7 C17 1.260 . S
Mg8 O9 2.180 . S
Mg8 O10 2.030 . S
Mg8 O11 1.990 . S
Mg8 O12 2.117 . S
O9 Mg3 2.099 1_655 S
O9 Mg8 2.180 . S
O9 C18 1.279 . S
O10 Mg8 2.030 . S
O10 C16 1.248 . S
O11 Mg8 1.990 . S
O11 C17 1.253 . S
O12 Mg8 2.117 . S
O12 C18 1.250 . S
C13 O19 1.248 . S
C13 O20 1.264 . S
C14 O0 1.253 . S
C14 O2 1.260 . S
C15 O4 1.279 . S
C15 O5 1.250 . S
C16 O6 1.264 . S
C16 O10 1.248 . S
C17 O7 1.260 . S
C17 O11 1.253 . S
C18 O9 1.279 . S
C18 O12 1.250 . S
O19 Mg1 2.030 . S
O19 C13 1.248 . S
O20 Mg3 2.079 . S
O20 C13 1.264 . S
O21 Mg22 1.990 . S
O21 C35 1.253 . S
Mg22 O21 1.990 . S
Mg22 O25 2.180 . S
Mg22 O26 2.117 . S
Mg22 O40 2.030 . S
O23 Mg24 2.072 . S
O23 C35 1.260 . S
Mg24 O23 2.072 . S
Mg24 O25 2.099 . S
Mg24 O27 2.079 . S
Mg24 O28 2.072 . S
Mg24 O30 2.099 . S
Mg24 O41 2.079 . S
O25 Mg22 2.180 . S
O25 Mg24 2.099 . S
O25 C36 1.279 . S
O26 Mg22 2.117 . S
O26 C36 1.250 . S
O27 Mg24 2.079 . S
O27 C37 1.264 . S
O28 Mg24 2.072 . S
O28 C38 1.260 . S
Mg29 O30 2.180 . S
Mg29 O31 2.030 . S
Mg29 O32 1.990 . S
Mg29 O33 2.117 . S
O30 Mg24 2.099 . S
O30 Mg29 2.180 . S
O30 C39 1.279 . S
O31 Mg29 2.030 . S
O31 C37 1.248 . S
O32 Mg29 1.990 . S
O32 C38 1.253 . S
O33 Mg29 2.117 . S
O33 C39 1.250 . S
C34 O40 1.248 . S
C34 O41 1.264 . S
C35 O21 1.253 . S
C35 O23 1.260 . S
C36 O25 1.279 . S
C36 O26 1.250 . S
C37 O27 1.264 . S
C37 O31 1.248 . S
C38 O28 1.260 . S
C38 O32 1.253 . S
C39 O30 1.279 . S
C39 O33 1.250 . S
O40 Mg22 2.030 . S
O40 C34 1.248 . S
O41 Mg24 2.079 . S
O41 C34 1.264 . S
O42 Mg43 1.990 . S
O42 C56 1.253 . S
Mg43 O42 1.990 . S
Mg43 O46 2.180 . S
Mg43 O47 2.117 . S
Mg43 O61 2.030 . S
O44 Mg45 2.072 . S
O44 C56 1.260 . S
Mg45 O44 2.072 . S
Mg45 O46 2.099 . S
Mg45 O48 2.079 1_455 S
Mg45 O49 2.072 1_455 S
Mg45 O51 2.099 1_455 S
Mg45 O62 2.079 . S
O46 Mg43 2.180 . S
O46 Mg45 2.099 . S
O46 C57 1.279 . S
O47 Mg43 2.117 . S
O47 C57 1.250 . S
O48 Mg45 2.079 1_655 S
O48 C58 1.264 . S
O49 Mg45 2.072 1_655 S
O49 C59 1.260 . S
Mg50 O51 2.180 . S
Mg50 O52 2.030 . S
Mg50 O53 1.990 . S
Mg50 O54 2.117 . S
O51 Mg45 2.099 1_655 S
O51 Mg50 2.180 . S
O51 C60 1.279 . S
O52 Mg50 2.030 . S
O52 C58 1.248 . S
O53 Mg50 1.990 . S
O53 C59 1.253 . S
O54 Mg50 2.117 . S
O54 C60 1.250 . S
C55 O61 1.248 . S
C55 O62 1.264 . S
C56 O42 1.253 . S
C56 O44 1.260 . S
C57 O46 1.279 . S
C57 O47 1.250 . S
C58 O48 1.264 . S
C58 O52 1.248 . S
C59 O49 1.260 . S
C59 O53 1.253 . S
C60 O51 1.279 . S
C60 O54 1.250 . S
O61 Mg43 2.030 . S
O61 C55 1.248 . S
O62 Mg45 2.079 . S
O62 C55 1.264 . S
O63 Mg64 1.990 . S
O63 C77 1.253 . S
Mg64 O63 1.990 . S
Mg64 O67 2.180 . S
Mg64 O68 2.117 . S
Mg64 O82 2.030 . S
O65 Mg66 2.072 . S
O65 C77 1.260 . S
Mg66 O65 2.072 . S
Mg66 O67 2.099 . S
Mg66 O69 2.079 . S
Mg66 O70 2.072 . S
Mg66 O72 2.099 . S
Mg66 O83 2.079 . S
O67 Mg64 2.180 . S
O67 Mg66 2.099 . S
O67 C78 1.279 . S
O68 Mg64 2.117 . S
O68 C78 1.250 . S
O69 Mg66 2.079 . S
O69 C79 1.264 . S
O70 Mg66 2.072 . S
O70 C80 1.260 . S
Mg71 O72 2.180 . S
Mg71 O73 2.030 . S
Mg71 O74 1.990 . S
Mg71 O75 2.117 . S
O72 Mg66 2.099 . S
O72 Mg71 2.180 . S
O72 C81 1.279 . S
O73 Mg71 2.030 . S
O73 C79 1.248 . S
O74 Mg71 1.990 . S
O74 C80 1.253 . S
O75 Mg71 2.117 . S
O75 C81 1.250 . S
C76 O82 1.248 . S
C76 O83 1.264 . S
C77 O63 1.253 . S
C77 O65 1.260 . S
C78 O67 1.279 . S
C78 O68 1.250 . S
C79 O69 1.264 . S
C79 O73 1.248 . S
C80 O70 1.260 . S
C80 O74 1.253 . S
C81 O72 1.279 . S
C81 O75 1.250 . S
O82 Mg64 2.030 . S
O82 C76 1.248 . S
O83 Mg66 2.079 . S
O83 C76 1.264 . S
H84 C85 0.951 . S
C85 H84 0.951 . S
C85 C91 1.265 1_655 S
H86 C91 0.950 . S
H87 C95 0.954 . S
H88 C96 0.950 . S
H89 C97 0.951 . S
H90 C98 0.951 . S
C91 C85 1.265 1_455 S
C91 H86 0.950 . S
C91 C92 1.478 1_455 S
C92 C91 1.478 1_655 S
C92 C93 1.397 1_655 S
C92 C109 1.394 1_556 S
C93 C92 1.397 1_455 S
C93 C94 1.438 1_455 S
C93 C98 1.429 . S
C94 C93 1.438 1_655 S
C94 C95 1.431 . S
C94 C107 1.394 1_556 S
C95 H87 0.954 . S
C95 C94 1.431 . S
C95 C96 1.338 1_655 S
C96 H88 0.950 . S
C96 C95 1.338 1_455 S
C96 C97 1.424 . S
C97 H89 0.951 . S
C97 C96 1.424 . S
C97 C98 1.347 . S
C98 H90 0.951 . S
C98 C93 1.429 . S
C98 C97 1.347 . S
H99 C100 0.951 1_455 S
C100 H99 0.951 1_655 S
C100 C106 1.265 . S
H101 C106 0.950 . S
H102 C110 0.949 . S
H103 C111 0.950 . S
H104 C112 0.951 . S
H105 C113 0.951 . S
C106 C100 1.265 . S
C106 H101 0.950 . S
C106 C107 1.478 . S
C107 C94 1.394 1_554 S
C107 C106 1.478 . S
C107 C108 1.397 . S
C108 C107 1.397 . S
C108 C109 1.438 . S
C108 C113 1.429 . S
C109 C92 1.394 1_554 S
C109 C108 1.438 . S
C109 C110 1.428 . S
C110 H102 0.949 . S
C110 C109 1.428 . S
C110 C111 1.345 . S
C111 H103 0.950 . S
C111 C110 1.345 . S
C111 C112 1.424 . S
C112 H104 0.951 . S
C112 C111 1.424 . S
C112 C113 1.347 . S
C113 H105 0.951 . S
C113 C108 1.429 . S
C113 C112 1.347 . S
H114 C115 0.951 . S
C115 H114 0.951 . S
C115 C121 1.265 . S
H116 C121 0.950 . S
H117 C125 0.949 . S
H118 C126 0.950 . S
H119 C127 0.951 . S
H120 C128 0.951 . S
C121 C115 1.265 . S
C121 H116 0.950 . S
C121 C122 1.478 . S
C122 C121 1.478 . S
C122 C123 1.397 1_554 S
C122 C139 1.394 . S
C123 C122 1.397 1_556 S
C123 C124 1.438 . S
C123 C128 1.429 . S
C124 C123 1.438 . S
C124 C125 1.428 . S
C124 C137 1.394 . S
C125 H117 0.949 . S
C125 C124 1.428 . S
C125 C126 1.345 . S
C126 H118 0.950 . S
C126 C125 1.345 . S
C126 C127 1.424 . S
C127 H119 0.951 . S
C127 C126 1.424 . S
C127 C128 1.347 . S
C128 H120 0.951 . S
C128 C123 1.429 . S
C128 C127 1.347 . S
H129 C130 0.951 . S
C130 H129 0.951 . S
C130 C136 1.265 . S
H131 C136 0.950 . S
H132 C140 0.949 . S
H133 C141 0.950 . S
H134 C142 0.951 . S
H135 C143 0.951 . S
C136 C130 1.265 . S
C136 H131 0.950 . S
C136 C137 1.478 . S
C137 C124 1.394 . S
C137 C136 1.478 . S
C137 C138 1.397 1_556 S
C138 C137 1.397 1_554 S
C138 C139 1.438 . S
C138 C143 1.429 . S
C139 C122 1.394 . S
C139 C138 1.438 . S
C139 C140 1.428 . S
C140 H132 0.949 . S
C140 C139 1.428 . S
C140 C141 1.345 . S
C141 H133 0.950 . S
C141 C140 1.345 . S
C141 C142 1.424 . S
C142 H134 0.951 . S
C142 C141 1.424 . S
C142 C143 1.347 . S
C143 H135 0.951 . S
C143 C138 1.429 . S
C143 C142 1.347 . S
H144 C145 0.951 . S
C145 H144 0.951 . S
C145 C151 1.265 . S
H146 C151 0.950 . S
H147 C155 0.949 . S
H148 C156 0.950 . S
H149 C157 0.951 . S
H150 C158 0.951 1_565 S
C151 C145 1.265 . S
C151 H146 0.950 . S
C151 C152 1.478 . S
C152 C151 1.478 . S
C152 C153 1.397 1_565 S
C152 C169 1.394 1_556 S
C153 C152 1.397 1_545 S
C153 C154 1.438 . S
C153 C158 1.429 . S
C154 C153 1.438 . S
C154 C155 1.428 . S
C154 C167 1.394 1_556 S
C155 H147 0.949 . S
C155 C154 1.428 . S
C155 C156 1.345 . S
C156 H148 0.950 . S
C156 C155 1.345 . S
C156 C157 1.424 . S
C157 H149 0.951 . S
C157 C156 1.424 . S
C157 C158 1.347 . S
C158 H150 0.951 1_545 S
C158 C153 1.429 . S
C158 C157 1.347 . S
H159 C160 0.951 . S
C160 H159 0.951 . S
C160 C166 1.265 . S
H161 C166 0.950 . S
H162 C170 0.949 . S
H163 C171 0.950 . S
H164 C172 0.951 . S
H165 C173 0.951 1_545 S
C166 C160 1.265 . S
C166 H161 0.950 . S
C166 C167 1.478 . S
C167 C154 1.394 1_554 S
C167 C166 1.478 . S
C167 C168 1.397 1_545 S
C168 C167 1.397 1_565 S
C168 C169 1.438 . S
C168 C173 1.429 . S
C169 C152 1.394 1_554 S
C169 C168 1.438 . S
C169 C170 1.428 . S
C170 H162 0.949 . S
C170 C169 1.428 . S
C170 C171 1.345 . S
C171 H163 0.950 . S
C171 C170 1.345 . S
C171 C172 1.424 . S
C172 H164 0.951 . S
C172 C171 1.424 . S
C172 C173 1.347 . S
C173 H165 0.951 1_565 S
C173 C168 1.429 . S
C173 C172 1.347 . S
H174 C175 0.951 1_655 S
C175 H174 0.951 1_455 S
C175 C181 1.265 . S
H176 C181 0.950 . S
H177 C185 0.949 . S
H178 C186 0.950 . S
H179 C187 0.951 . S
H180 C188 0.951 . S
C181 C175 1.265 . S
C181 H176 0.950 . S
C181 C182 1.478 . S
C182 C181 1.478 . S
C182 C183 1.397 1_554 S
C182 C199 1.394 1_455 S
C183 C182 1.397 1_556 S
C183 C184 1.438 1_565 S
C183 C188 1.429 . S
C184 C183 1.438 1_545 S
C184 C185 1.428 . S
C184 C197 1.394 . S
C185 H177 0.949 . S
C185 C184 1.428 . S
C185 C186 1.345 1_545 S
C186 H178 0.950 . S
C186 C185 1.345 1_565 S
C186 C187 1.424 . S
C187 H179 0.951 . S
C187 C186 1.424 . S
C187 C188 1.347 . S
C188 H180 0.951 . S
C188 C183 1.429 . S
C188 C187 1.347 . S
H189 C190 0.951 . S
C190 H189 0.951 . S
C190 C196 1.265 1_455 S
H191 C196 0.950 . S
H192 C200 0.949 . S
H193 C201 0.950 . S
H194 C202 0.951 . S
H195 C203 0.951 . S
C196 C190 1.265 1_655 S
C196 H191 0.950 . S
C196 C197 1.478 1_655 S
C197 C184 1.394 . S
C197 C196 1.478 1_455 S
C197 C198 1.397 1_456 S
C198 C197 1.397 1_654 S
C198 C199 1.438 1_545 S
C198 C203 1.429 . S
C199 C182 1.394 1_655 S
C199 C198 1.438 1_565 S
C199 C200 1.428 . S
C200 H192 0.949 . S
C200 C199 1.428 . S
C200 C201 1.345 1_565 S
C201 H193 0.950 . S
C201 C200 1.345 1_545 S
C201 C202 1.424 . S
C202 H194 0.951 . S
C202 C201 1.424 . S
C202 C203 1.347 . S
C203 H195 0.951 . S
C203 C198 1.429 . S
C203 C202 1.347 . S
H204 C205 0.951 . S
C205 H204 0.951 . S
C205 C211 1.265 . S
H206 C211 0.950 . S
H207 C215 0.949 . S
H208 C216 0.950 . S
H209 C217 0.951 . S
H210 C218 0.951 . S
C211 C205 1.265 . S
C211 H206 0.950 . S
C211 C212 1.478 . S
C212 C211 1.478 . S
C212 C213 1.397 . S
C212 C229 1.394 . S
C213 C212 1.397 . S
C213 C214 1.438 . S
C213 C218 1.429 . S
C214 C213 1.438 . S
C214 C215 1.428 . S
C214 C227 1.394 . S
C215 H207 0.949 . S
C215 C214 1.428 . S
C215 C216 1.345 . S
C216 H208 0.950 . S
C216 C215 1.345 . S
C216 C217 1.424 . S
C217 H209 0.951 . S
C217 C216 1.424 . S
C217 C218 1.347 . S
C218 H210 0.951 . S
C218 C213 1.429 . S
C218 C217 1.347 . S
H219 C220 0.951 . S
C220 H219 0.951 . S
C220 C226 1.265 . S
H221 C226 0.950 . S
H222 C230 0.949 . S
H223 C231 0.950 . S
H224 C232 0.951 . S
H225 C233 0.951 . S
C226 C220 1.265 . S
C226 H221 0.950 . S
C226 C227 1.478 . S
C227 C214 1.394 . S
C227 C226 1.478 . S
C227 C228 1.397 . S
C228 C227 1.397 . S
C228 C229 1.438 . S
C228 C233 1.429 . S
C229 C212 1.394 . S
C229 C228 1.438 . S
C229 C230 1.428 . S
C230 H222 0.949 . S
C230 C229 1.428 . S
C230 C231 1.345 . S
C231 H223 0.950 . S
C231 C230 1.345 . S
C231 C232 1.424 . S
C232 H224 0.951 . S
C232 C231 1.424 . S
C232 C233 1.347 . S
C233 H225 0.951 . S
C233 C228 1.429 . S
C233 C232 1.347 . S
H234 C235 0.951 . S
C235 H234 0.951 . S
C235 C241 1.265 . S
H236 C241 0.950 . S
H237 C245 0.949 . S
H238 C246 0.950 . S
H239 C247 0.951 . S
H240 C248 0.951 . S
C241 C235 1.265 . S
C241 H236 0.950 . S
C241 C242 1.478 . S
C242 C241 1.478 . S
C242 C243 1.397 . S
C242 C259 1.394 . S
C243 C242 1.397 . S
C243 C244 1.438 . S
C243 C248 1.429 . S
C244 C243 1.438 . S
C244 C245 1.428 . S
C244 C257 1.394 . S
C245 H237 0.949 . S
C245 C244 1.428 . S
C245 C246 1.345 . S
C246 H238 0.950 . S
C246 C245 1.345 . S
C246 C247 1.424 . S
C247 H239 0.951 . S
C247 C246 1.424 . S
C247 C248 1.347 . S
C248 H240 0.951 . S
C248 C243 1.429 . S
C248 C247 1.347 . S
H249 C250 0.951 . S
C250 H249 0.951 . S
C250 C256 1.265 . S
H251 C256 0.950 . S
H252 C260 0.949 . S
H253 C261 0.950 . S
H254 C262 0.951 . S
H255 C263 0.951 . S
C256 C250 1.265 . S
C256 H251 0.950 . S
C256 C257 1.478 . S
C257 C244 1.394 . S
C257 C256 1.478 . S
C257 C258 1.397 . S
C258 C257 1.397 . S
C258 C259 1.438 . S
C258 C263 1.429 . S
C259 C242 1.394 . S
C259 C258 1.438 . S
C259 C260 1.428 . S
C260 H252 0.949 . S
C260 C259 1.428 . S
C260 C261 1.345 . S
C261 H253 0.950 . S
C261 C260 1.345 . S
C261 C262 1.424 . S
C262 H254 0.951 . S
C262 C261 1.424 . S
C262 C263 1.347 . S
C263 H255 0.951 . S
C263 C258 1.429 . S
C263 C262 1.347 . S
H264 C265 0.951 . S
C265 H264 0.951 . S
C265 C271 1.265 . S
H266 C271 0.950 . S
H267 C275 0.949 . S
H268 C276 0.950 . S
H269 C277 0.951 . S
H270 C278 0.951 . S
C271 C265 1.265 . S
C271 H266 0.950 . S
C271 C272 1.478 . S
C272 C271 1.478 . S
C272 C273 1.397 . S
C272 C289 1.394 . S
C273 C272 1.397 . S
C273 C274 1.438 . S
C273 C278 1.429 . S
C274 C273 1.438 . S
C274 C275 1.428 . S
C274 C287 1.394 . S
C275 H267 0.949 . S
C275 C274 1.428 . S
C275 C276 1.345 . S
C276 H268 0.950 . S
C276 C275 1.345 . S
C276 C277 1.424 . S
C277 H269 0.951 . S
C277 C276 1.424 . S
C277 C278 1.347 . S
C278 H270 0.951 . S
C278 C273 1.429 . S
C278 C277 1.347 . S
H279 C280 0.951 . S
C280 H279 0.951 . S
C280 C286 1.265 . S
H281 C286 0.950 . S
H282 C290 0.949 . S
H283 C291 0.950 . S
H284 C292 0.951 . S
H285 C293 0.951 . S
C286 C280 1.265 . S
C286 H281 0.950 . S
C286 C287 1.478 . S
C287 C274 1.394 . S
C287 C286 1.478 . S
C287 C288 1.397 . S
C288 C287 1.397 . S
C288 C289 1.438 . S
C288 C293 1.429 . S
C289 C272 1.394 . S
C289 C288 1.438 . S
C289 C290 1.428 . S
C290 H282 0.949 . S
C290 C289 1.428 . S
C290 C291 1.345 . S
C291 H283 0.950 . S
C291 C290 1.345 . S
C291 C292 1.424 . S
C292 H284 0.951 . S
C292 C291 1.424 . S
C292 C293 1.347 . S
C293 H285 0.951 . S
C293 C288 1.429 . S
C293 C292 1.347 . S
H294 C295 0.951 . S
C295 H294 0.951 . S
C295 C301 1.265 . S
H296 C301 0.950 . S
H297 C305 0.949 . S
H298 C306 0.950 . S
H299 C307 0.951 . S
H300 C308 0.951 . S
C301 C295 1.265 . S
C301 H296 0.950 . S
C301 C302 1.478 . S
C302 C301 1.478 . S
C302 C303 1.397 . S
C302 C319 1.394 . S
C303 C302 1.397 . S
C303 C304 1.438 . S
C303 C308 1.429 . S
C304 C303 1.438 . S
C304 C305 1.428 . S
C304 C317 1.394 . S
C305 H297 0.949 . S
C305 C304 1.428 . S
C305 C306 1.345 . S
C306 H298 0.950 . S
C306 C305 1.345 . S
C306 C307 1.424 . S
C307 H299 0.951 . S
C307 C306 1.424 . S
C307 C308 1.347 . S
C308 H300 0.951 . S
C308 C303 1.429 . S
C308 C307 1.347 . S
H309 C310 0.951 . S
C310 H309 0.951 . S
C310 C316 1.265 . S
H311 C316 0.950 . S
H312 C320 0.949 . S
H313 C321 0.950 . S
H314 C322 0.951 . S
H315 C323 0.951 . S
C316 C310 1.265 . S
C316 H311 0.950 . S
C316 C317 1.478 . S
C317 C304 1.394 . S
C317 C316 1.478 . S
C317 C318 1.397 . S
C318 C317 1.397 . S
C318 C319 1.438 . S
C318 C323 1.429 . S
C319 C302 1.394 . S
C319 C318 1.438 . S
C319 C320 1.428 . S
C320 H312 0.949 . S
C320 C319 1.428 . S
C320 C321 1.345 . S
C321 H313 0.950 . S
C321 C320 1.345 . S
C321 C322 1.424 . S
C322 H314 0.951 . S
C322 C321 1.424 . S
C322 C323 1.347 . S
C323 H315 0.951 . S
C323 C318 1.429 . S
C323 C322 1.347 . S
H324 C325 0.951 . S
C325 H324 0.951 . S
C325 C331 1.265 1_556 S
H326 C331 0.950 . S
H327 C335 0.949 . S
H328 C336 0.950 . S
H329 C337 0.951 . S
H330 C338 0.951 . S
C331 C325 1.265 1_554 S
C331 H326 0.950 . S
C331 C332 1.478 . S
C332 C331 1.478 . S
C332 C333 1.397 . S
C332 C349 1.394 1_554 S
C333 C332 1.397 . S
C333 C334 1.438 . S
C333 C338 1.429 . S
C334 C333 1.438 . S
C334 C335 1.428 . S
C334 C347 1.394 1_554 S
C335 H327 0.949 . S
C335 C334 1.428 . S
C335 C336 1.345 . S
C336 H328 0.950 . S
C336 C335 1.345 . S
C336 C337 1.424 . S
C337 H329 0.951 . S
C337 C336 1.424 . S
C337 C338 1.347 . S
C338 H330 0.951 . S
C338 C333 1.429 . S
C338 C337 1.347 . S
H339 C340 0.951 . S
C340 H339 0.951 . S
C340 C346 1.265 1_554 S
H341 C346 0.950 . S
H342 C350 0.949 . S
H343 C351 0.950 . S
H344 C352 0.951 . S
H345 C353 0.951 . S
C346 C340 1.265 1_556 S
C346 H341 0.950 . S
C346 C347 1.478 . S
C347 C334 1.394 1_556 S
C347 C346 1.478 . S
C347 C348 1.397 . S
C348 C347 1.397 . S
C348 C349 1.438 . S
C348 C353 1.429 . S
C349 C332 1.394 1_556 S
C349 C348 1.438 . S
C349 C350 1.428 . S
C350 H342 0.949 . S
C350 C349 1.428 . S
C350 C351 1.345 . S
C351 H343 0.950 . S
C351 C350 1.345 . S
C351 C352 1.424 . S
C352 H344 0.951 . S
C352 C351 1.424 . S
C352 C353 1.347 . S
C353 H345 0.951 . S
C353 C348 1.429 . S
C353 C352 1.347 . S
H354 C355 0.951 . S
C355 H354 0.951 . S
C355 C361 1.265 1_556 S
H356 C361 0.950 . S
H357 C365 0.949 . S
H358 C366 0.950 . S
H359 C367 0.951 . S
H360 C368 0.951 . S
C361 C355 1.265 1_554 S
C361 H356 0.950 . S
C361 C362 1.478 . S
C362 C361 1.478 . S
C362 C363 1.397 . S
C362 C379 1.394 1_554 S
C363 C362 1.397 . S
C363 C364 1.438 . S
C363 C368 1.429 . S
C364 C363 1.438 . S
C364 C365 1.428 . S
C364 C377 1.394 1_554 S
C365 H357 0.949 . S
C365 C364 1.428 . S
C365 C366 1.345 . S
C366 H358 0.950 . S
C366 C365 1.345 . S
C366 C367 1.424 . S
C367 H359 0.951 . S
C367 C366 1.424 . S
C367 C368 1.347 . S
C368 H360 0.951 . S
C368 C363 1.429 . S
C368 C367 1.347 . S
H369 C370 0.951 . S
C370 H369 0.951 . S
C370 C376 1.265 1_554 S
H371 C376 0.950 . S
H372 C380 0.949 . S
H373 C381 0.950 . S
H374 C382 0.951 . S
H375 C383 0.951 . S
C376 C370 1.265 1_556 S
C376 H371 0.950 . S
C376 C377 1.478 . S
C377 C364 1.394 1_556 S
C377 C376 1.478 . S
C377 C378 1.397 . S
C378 C377 1.397 . S
C378 C379 1.438 . S
C378 C383 1.429 . S
C379 C362 1.394 1_556 S
C379 C378 1.438 . S
C379 C380 1.428 . S
C380 H372 0.949 . S
C380 C379 1.428 . S
C380 C381 1.345 . S
C381 H373 0.950 . S
C381 C380 1.345 . S
C381 C382 1.424 . S
C382 H374 0.951 . S
C382 C381 1.424 . S
C382 C383 1.347 . S
C383 H375 0.951 . S
C383 C378 1.429 . S
C383 C382 1.347 . S
H384 C385 0.951 1_556 S
C385 H384 0.951 1_554 S
C385 C391 1.265 . S
H386 C391 0.950 . S
H387 C395 0.949 1_556 S
H388 C396 0.950 . S
H389 C397 0.951 . S
H390 C398 0.951 . S
C391 C385 1.265 . S
C391 H386 0.950 . S
C391 C392 1.478 . S
C392 C391 1.478 . S
C392 C393 1.397 . S
C392 C409 1.394 1_554 S
C393 C392 1.397 . S
C393 C394 1.438 . S
C393 C398 1.429 . S
C394 C393 1.438 . S
C394 C395 1.428 . S
C394 C407 1.394 1_554 S
C395 H387 0.949 1_554 S
C395 C394 1.428 . S
C395 C396 1.345 . S
C396 H388 0.950 . S
C396 C395 1.345 . S
C396 C397 1.424 . S
C397 H389 0.951 . S
C397 C396 1.424 . S
C397 C398 1.347 . S
C398 H390 0.951 . S
C398 C393 1.429 . S
C398 C397 1.347 . S
H399 C400 0.951 1_554 S
C400 H399 0.951 1_556 S
C400 C406 1.265 . S
H401 C406 0.950 . S
H402 C410 0.949 1_554 S
H403 C411 0.950 . S
H404 C412 0.951 . S
H405 C413 0.951 . S
C406 C400 1.265 . S
C406 H401 0.950 . S
C406 C407 1.478 . S
C407 C394 1.394 1_556 S
C407 C406 1.478 . S
C407 C408 1.397 . S
C408 C407 1.397 . S
C408 C409 1.438 . S
C408 C413 1.429 . S
C409 C392 1.394 1_556 S
C409 C408 1.438 . S
C409 C410 1.428 . S
C410 H402 0.949 1_556 S
C410 C409 1.428 . S
C410 C411 1.345 . S
C411 H403 0.950 . S
C411 C410 1.345 . S
C411 C412 1.424 . S
C412 H404 0.951 . S
C412 C411 1.424 . S
C412 C413 1.347 . S
C413 H405 0.951 . S
C413 C408 1.429 . S
C413 C412 1.347 . S
H414 C415 0.951 1_556 S
C415 H414 0.951 1_554 S
C415 C421 1.265 . S
H416 C421 0.950 . S
H417 C425 0.949 1_556 S
H418 C426 0.950 . S
H419 C427 0.951 . S
H420 C428 0.951 . S
C421 C415 1.265 . S
C421 H416 0.950 . S
C421 C422 1.478 . S
C422 C421 1.478 . S
C422 C423 1.397 . S
C422 C439 1.394 1_554 S
C423 C422 1.397 . S
C423 C424 1.438 . S
C423 C428 1.429 . S
C424 C423 1.438 . S
C424 C425 1.428 . S
C424 C437 1.394 1_554 S
C425 H417 0.949 1_554 S
C425 C424 1.428 . S
C425 C426 1.345 . S
C426 H418 0.950 . S
C426 C425 1.345 . S
C426 C427 1.424 . S
C427 H419 0.951 . S
C427 C426 1.424 . S
C427 C428 1.347 . S
C428 H420 0.951 . S
C428 C423 1.429 . S
C428 C427 1.347 . S
H429 C430 0.951 1_554 S
C430 H429 0.951 1_556 S
C430 C436 1.265 . S
H431 C436 0.950 . S
H432 C440 0.949 1_554 S
H433 C441 0.950 . S
H434 C442 0.951 . S
H435 C443 0.951 . S
C436 C430 1.265 . S
C436 H431 0.950 . S
C436 C437 1.478 . S
C437 C424 1.394 1_556 S
C437 C436 1.478 . S
C437 C438 1.397 . S
C438 C437 1.397 . S
C438 C439 1.438 . S
C438 C443 1.429 . S
C439 C422 1.394 1_556 S
C439 C438 1.438 . S
C439 C440 1.428 . S
C440 H432 0.949 1_556 S
C440 C439 1.428 . S
C440 C441 1.345 . S
C441 H433 0.950 . S
C441 C440 1.345 . S
C441 C442 1.424 . S
C442 H434 0.951 . S
C442 C441 1.424 . S
C442 C443 1.347 . S
C443 H435 0.951 . S
C443 C438 1.429 . S
C443 C442 1.347 . S
C85 C57 1.801 1_655 S
C100 C15 1.663 1_655 S
C115 C39 1.668 . S
C130 C78 1.805 . S
C145 C81 1.802 . S
C160 C36 1.663 . S
C175 C18 1.662 1_455 S
C190 C60 1.800 1_455 S
C205 C76 1.517 . S
C220 C13 1.469 . S
C235 C55 1.489 . S
C250 C37 1.506 . S
C265 C58 1.489 . S
C280 C34 1.423 . S
C295 C16 1.448 . S
C310 C79 1.439 . S
C325 C77 0.710 . S
C340 C14 0.667 . S
C355 C56 0.687 . S
C370 C38 0.687 . S
C385 C35 0.863 . S
C400 C59 0.854 . S
C415 C17 0.870 . S
C430 C80 0.845 . S
