# Generated by pormake.
# Topology wne, (6)-cn, num edge types: 1
# Building blocks:
#     Node 0, Type 0, BuildingBlock: BETGAK_clean_sbu_0, # of connection points: 6
#     Node 1, Type 0, BuildingBlock: BETGAK_clean_sbu_0, # of connection points: 6
#     Node 2, Type 0, BuildingBlock: BETGAK_clean_sbu_0, # of connection points: 6
#     Node 3, Type 0, BuildingBlock: BETGAK_clean_sbu_0, # of connection points: 6
#     Node 4, Type 0, BuildingBlock: BETGAK_clean_sbu_0, # of connection points: 6
#     Node 5, Type 0, BuildingBlock: BETGAK_clean_sbu_0, # of connection points: 6
#     Node 6, Type 0, BuildingBlock: BETGAK_clean_sbu_0, # of connection points: 6
#     Node 7, Type 0, BuildingBlock: BETGAK_clean_sbu_0, # of connection points: 6
#     Node 8, Type 0, BuildingBlock: BETGAK_clean_sbu_0, # of connection points: 6
#     Node 9, Type 0, BuildingBlock: BETGAK_clean_sbu_0, # of connection points: 6
#     Node 10, Type 0, BuildingBlock: BETGAK_clean_sbu_0, # of connection points: 6
#     Node 11, Type 0, BuildingBlock: BETGAK_clean_sbu_0, # of connection points: 6
#     Node 12, Type 0, BuildingBlock: BETGAK_clean_sbu_0, # of connection points: 6
#     Node 13, Type 0, BuildingBlock: BETGAK_clean_sbu_0, # of connection points: 6
#     Node 14, Type 0, BuildingBlock: BETGAK_clean_sbu_0, # of connection points: 6
#     Node 15, Type 0, BuildingBlock: BETGAK_clean_sbu_0, # of connection points: 6
#     Node 16, Type 0, BuildingBlock: BETGAK_clean_sbu_0, # of connection points: 6
#     Node 17, Type 0, BuildingBlock: BETGAK_clean_sbu_0, # of connection points: 6
#     Node 18, Type 0, BuildingBlock: BETGAK_clean_sbu_0, # of connection points: 6
#     Node 19, Type 0, BuildingBlock: BETGAK_clean_sbu_0, # of connection points: 6
#     Node 20, Type 0, BuildingBlock: BETGAK_clean_sbu_0, # of connection points: 6
#     Node 21, Type 0, BuildingBlock: BETGAK_clean_sbu_0, # of connection points: 6
#     Node 22, Type 0, BuildingBlock: BETGAK_clean_sbu_0, # of connection points: 6
#     Node 23, Type 0, BuildingBlock: BETGAK_clean_sbu_0, # of connection points: 6
#     Node 24, Type 0, BuildingBlock: BETGAK_clean_sbu_0, # of connection points: 6
#     Node 25, Type 0, BuildingBlock: BETGAK_clean_sbu_0, # of connection points: 6
#     Node 26, Type 0, BuildingBlock: BETGAK_clean_sbu_0, # of connection points: 6
#     Node 27, Type 0, BuildingBlock: BETGAK_clean_sbu_0, # of connection points: 6
#     Node 28, Type 0, BuildingBlock: BETGAK_clean_sbu_0, # of connection points: 6
#     Node 29, Type 0, BuildingBlock: BETGAK_clean_sbu_0, # of connection points: 6
#     Node 30, Type 0, BuildingBlock: BETGAK_clean_sbu_0, # of connection points: 6
#     Node 31, Type 0, BuildingBlock: BETGAK_clean_sbu_0, # of connection points: 6
#     Node 32, Type 0, BuildingBlock: BETGAK_clean_sbu_0, # of connection points: 6
#     Node 33, Type 0, BuildingBlock: BETGAK_clean_sbu_0, # of connection points: 6
#     Node 34, Type 0, BuildingBlock: BETGAK_clean_sbu_0, # of connection points: 6
#     Node 35, Type 0, BuildingBlock: BETGAK_clean_sbu_0, # of connection points: 6
#     Edge 36, Type (0, 0), BuildingBlock: CIFDUS_clean_linker_0, # of connection points: 2
#     Edge 37, Type (0, 0), BuildingBlock: CIFDUS_clean_linker_0, # of connection points: 2
#     Edge 38, Type (0, 0), BuildingBlock: CIFDUS_clean_linker_0, # of connection points: 2
#     Edge 39, Type (0, 0), BuildingBlock: CIFDUS_clean_linker_0, # of connection points: 2
#     Edge 40, Type (0, 0), BuildingBlock: CIFDUS_clean_linker_0, # of connection points: 2
#     Edge 41, Type (0, 0), BuildingBlock: CIFDUS_clean_linker_0, # of connection points: 2
#     Edge 42, Type (0, 0), BuildingBlock: CIFDUS_clean_linker_0, # of connection points: 2
#     Edge 43, Type (0, 0), BuildingBlock: CIFDUS_clean_linker_0, # of connection points: 2
#     Edge 44, Type (0, 0), BuildingBlock: CIFDUS_clean_linker_0, # of connection points: 2
#     Edge 45, Type (0, 0), BuildingBlock: CIFDUS_clean_linker_0, # of connection points: 2
#     Edge 46, Type (0, 0), BuildingBlock: CIFDUS_clean_linker_0, # of connection points: 2
#     Edge 47, Type (0, 0), BuildingBlock: CIFDUS_clean_linker_0, # of connection points: 2
#     Edge 48, Type (0, 0), BuildingBlock: CIFDUS_clean_linker_0, # of connection points: 2
#     Edge 49, Type (0, 0), BuildingBlock: CIFDUS_clean_linker_0, # of connection points: 2
#     Edge 50, Type (0, 0), BuildingBlock: CIFDUS_clean_linker_0, # of connection points: 2
#     Edge 51, Type (0, 0), BuildingBlock: CIFDUS_clean_linker_0, # of connection points: 2
#     Edge 52, Type (0, 0), BuildingBlock: CIFDUS_clean_linker_0, # of connection points: 2
#     Edge 53, Type (0, 0), BuildingBlock: CIFDUS_clean_linker_0, # of connection points: 2
#     Edge 54, Type (0, 0), BuildingBlock: CIFDUS_clean_linker_0, # of connection points: 2
#     Edge 55, Type (0, 0), BuildingBlock: CIFDUS_clean_linker_0, # of connection points: 2
#     Edge 56, Type (0, 0), BuildingBlock: CIFDUS_clean_linker_0, # of connection points: 2
#     Edge 57, Type (0, 0), BuildingBlock: CIFDUS_clean_linker_0, # of connection points: 2
#     Edge 58, Type (0, 0), BuildingBlock: CIFDUS_clean_linker_0, # of connection points: 2
#     Edge 59, Type (0, 0), BuildingBlock: CIFDUS_clean_linker_0, # of connection points: 2
#     Edge 60, Type (0, 0), BuildingBlock: CIFDUS_clean_linker_0, # of connection points: 2
#     Edge 61, Type (0, 0), BuildingBlock: CIFDUS_clean_linker_0, # of connection points: 2
#     Edge 62, Type (0, 0), BuildingBlock: CIFDUS_clean_linker_0, # of connection points: 2
#     Edge 63, Type (0, 0), BuildingBlock: CIFDUS_clean_linker_0, # of connection points: 2
#     Edge 64, Type (0, 0), BuildingBlock: CIFDUS_clean_linker_0, # of connection points: 2
#     Edge 65, Type (0, 0), BuildingBlock: CIFDUS_clean_linker_0, # of connection points: 2
#     Edge 66, Type (0, 0), BuildingBlock: CIFDUS_clean_linker_0, # of connection points: 2
#     Edge 67, Type (0, 0), BuildingBlock: CIFDUS_clean_linker_0, # of connection points: 2
#     Edge 68, Type (0, 0), BuildingBlock: CIFDUS_clean_linker_0, # of connection points: 2
#     Edge 69, Type (0, 0), BuildingBlock: CIFDUS_clean_linker_0, # of connection points: 2
#     Edge 70, Type (0, 0), BuildingBlock: CIFDUS_clean_linker_0, # of connection points: 2
#     Edge 71, Type (0, 0), BuildingBlock: CIFDUS_clean_linker_0, # of connection points: 2
#     Edge 72, Type (0, 0), BuildingBlock: CIFDUS_clean_linker_0, # of connection points: 2
#     Edge 73, Type (0, 0), BuildingBlock: CIFDUS_clean_linker_0, # of connection points: 2
#     Edge 74, Type (0, 0), BuildingBlock: CIFDUS_clean_linker_0, # of connection points: 2
#     Edge 75, Type (0, 0), BuildingBlock: CIFDUS_clean_linker_0, # of connection points: 2
#     Edge 76, Type (0, 0), BuildingBlock: CIFDUS_clean_linker_0, # of connection points: 2
#     Edge 77, Type (0, 0), BuildingBlock: CIFDUS_clean_linker_0, # of connection points: 2
#     Edge 78, Type (0, 0), BuildingBlock: CIFDUS_clean_linker_0, # of connection points: 2
#     Edge 79, Type (0, 0), BuildingBlock: CIFDUS_clean_linker_0, # of connection points: 2
#     Edge 80, Type (0, 0), BuildingBlock: CIFDUS_clean_linker_0, # of connection points: 2
#     Edge 81, Type (0, 0), BuildingBlock: CIFDUS_clean_linker_0, # of connection points: 2
#     Edge 82, Type (0, 0), BuildingBlock: CIFDUS_clean_linker_0, # of connection points: 2
#     Edge 83, Type (0, 0), BuildingBlock: CIFDUS_clean_linker_0, # of connection points: 2
#     Edge 84, Type (0, 0), BuildingBlock: CIFDUS_clean_linker_0, # of connection points: 2
#     Edge 85, Type (0, 0), BuildingBlock: CIFDUS_clean_linker_0, # of connection points: 2
#     Edge 86, Type (0, 0), BuildingBlock: CIFDUS_clean_linker_0, # of connection points: 2
#     Edge 87, Type (0, 0), BuildingBlock: CIFDUS_clean_linker_0, # of connection points: 2
#     Edge 88, Type (0, 0), BuildingBlock: CIFDUS_clean_linker_0, # of connection points: 2
#     Edge 89, Type (0, 0), BuildingBlock: CIFDUS_clean_linker_0, # of connection points: 2
#     Edge 90, Type (0, 0), BuildingBlock: CIFDUS_clean_linker_0, # of connection points: 2
#     Edge 91, Type (0, 0), BuildingBlock: CIFDUS_clean_linker_0, # of connection points: 2
#     Edge 92, Type (0, 0), BuildingBlock: CIFDUS_clean_linker_0, # of connection points: 2
#     Edge 93, Type (0, 0), BuildingBlock: CIFDUS_clean_linker_0, # of connection points: 2
#     Edge 94, Type (0, 0), BuildingBlock: CIFDUS_clean_linker_0, # of connection points: 2
#     Edge 95, Type (0, 0), BuildingBlock: CIFDUS_clean_linker_0, # of connection points: 2
#     Edge 96, Type (0, 0), BuildingBlock: CIFDUS_clean_linker_0, # of connection points: 2
#     Edge 97, Type (0, 0), BuildingBlock: CIFDUS_clean_linker_0, # of connection points: 2
#     Edge 98, Type (0, 0), BuildingBlock: CIFDUS_clean_linker_0, # of connection points: 2
#     Edge 99, Type (0, 0), BuildingBlock: CIFDUS_clean_linker_0, # of connection points: 2
#     Edge 100, Type (0, 0), BuildingBlock: CIFDUS_clean_linker_0, # of connection points: 2
#     Edge 101, Type (0, 0), BuildingBlock: CIFDUS_clean_linker_0, # of connection points: 2
#     Edge 102, Type (0, 0), BuildingBlock: CIFDUS_clean_linker_0, # of connection points: 2
#     Edge 103, Type (0, 0), BuildingBlock: CIFDUS_clean_linker_0, # of connection points: 2
#     Edge 104, Type (0, 0), BuildingBlock: CIFDUS_clean_linker_0, # of connection points: 2
#     Edge 105, Type (0, 0), BuildingBlock: CIFDUS_clean_linker_0, # of connection points: 2
#     Edge 106, Type (0, 0), BuildingBlock: CIFDUS_clean_linker_0, # of connection points: 2
#     Edge 107, Type (0, 0), BuildingBlock: CIFDUS_clean_linker_0, # of connection points: 2
#     Edge 108, Type (0, 0), BuildingBlock: CIFDUS_clean_linker_0, # of connection points: 2
#     Edge 109, Type (0, 0), BuildingBlock: CIFDUS_clean_linker_0, # of connection points: 2
#     Edge 110, Type (0, 0), BuildingBlock: CIFDUS_clean_linker_0, # of connection points: 2
#     Edge 111, Type (0, 0), BuildingBlock: CIFDUS_clean_linker_0, # of connection points: 2
#     Edge 112, Type (0, 0), BuildingBlock: CIFDUS_clean_linker_0, # of connection points: 2
#     Edge 113, Type (0, 0), BuildingBlock: CIFDUS_clean_linker_0, # of connection points: 2
#     Edge 114, Type (0, 0), BuildingBlock: CIFDUS_clean_linker_0, # of connection points: 2
#     Edge 115, Type (0, 0), BuildingBlock: CIFDUS_clean_linker_0, # of connection points: 2
#     Edge 116, Type (0, 0), BuildingBlock: CIFDUS_clean_linker_0, # of connection points: 2
#     Edge 117, Type (0, 0), BuildingBlock: CIFDUS_clean_linker_0, # of connection points: 2
#     Edge 118, Type (0, 0), BuildingBlock: CIFDUS_clean_linker_0, # of connection points: 2
#     Edge 119, Type (0, 0), BuildingBlock: CIFDUS_clean_linker_0, # of connection points: 2
#     Edge 120, Type (0, 0), BuildingBlock: CIFDUS_clean_linker_0, # of connection points: 2
#     Edge 121, Type (0, 0), BuildingBlock: CIFDUS_clean_linker_0, # of connection points: 2
#     Edge 122, Type (0, 0), BuildingBlock: CIFDUS_clean_linker_0, # of connection points: 2
#     Edge 123, Type (0, 0), BuildingBlock: CIFDUS_clean_linker_0, # of connection points: 2
#     Edge 124, Type (0, 0), BuildingBlock: CIFDUS_clean_linker_0, # of connection points: 2
#     Edge 125, Type (0, 0), BuildingBlock: CIFDUS_clean_linker_0, # of connection points: 2
#     Edge 126, Type (0, 0), BuildingBlock: CIFDUS_clean_linker_0, # of connection points: 2
#     Edge 127, Type (0, 0), BuildingBlock: CIFDUS_clean_linker_0, # of connection points: 2
#     Edge 128, Type (0, 0), BuildingBlock: CIFDUS_clean_linker_0, # of connection points: 2
#     Edge 129, Type (0, 0), BuildingBlock: CIFDUS_clean_linker_0, # of connection points: 2
#     Edge 130, Type (0, 0), BuildingBlock: CIFDUS_clean_linker_0, # of connection points: 2
#     Edge 131, Type (0, 0), BuildingBlock: CIFDUS_clean_linker_0, # of connection points: 2
#     Edge 132, Type (0, 0), BuildingBlock: CIFDUS_clean_linker_0, # of connection points: 2
#     Edge 133, Type (0, 0), BuildingBlock: CIFDUS_clean_linker_0, # of connection points: 2
#     Edge 134, Type (0, 0), BuildingBlock: CIFDUS_clean_linker_0, # of connection points: 2
#     Edge 135, Type (0, 0), BuildingBlock: CIFDUS_clean_linker_0, # of connection points: 2
#     Edge 136, Type (0, 0), BuildingBlock: CIFDUS_clean_linker_0, # of connection points: 2
#     Edge 137, Type (0, 0), BuildingBlock: CIFDUS_clean_linker_0, # of connection points: 2
#     Edge 138, Type (0, 0), BuildingBlock: CIFDUS_clean_linker_0, # of connection points: 2
#     Edge 139, Type (0, 0), BuildingBlock: CIFDUS_clean_linker_0, # of connection points: 2
#     Edge 140, Type (0, 0), BuildingBlock: CIFDUS_clean_linker_0, # of connection points: 2
#     Edge 141, Type (0, 0), BuildingBlock: CIFDUS_clean_linker_0, # of connection points: 2
#     Edge 142, Type (0, 0), BuildingBlock: CIFDUS_clean_linker_0, # of connection points: 2
#     Edge 143, Type (0, 0), BuildingBlock: CIFDUS_clean_linker_0, # of connection points: 2
# Relax obj value: 0.422
# Max RMSD: 0.261
# Mean RMSD: 0.261
data_MOF--net-wne--node1-BETGAK_clean_sbu_0--edge1-CIFDUS_clean_linker_0
_symmetry_space_group_name_H-M    P1
_symmetry_Int_Tables_number       1
_symmetry_cell_setting            triclinic
loop_
_symmetry_equiv_pos_as_xyz
'x, y, z'
_cell_length_a     77.909205
_cell_length_b     77.764299
_cell_length_c     27.726141
_cell_angle_alpha  90.163131
_cell_angle_beta   89.772001
_cell_angle_gamma 120.04031
loop_
_atom_site_label
_atom_site_type_symbol
_atom_site_fract_x
_atom_site_fract_y
_atom_site_fract_z
_atom_type_partial_charge
La0 La 0.31471 0.21886 0.10423 0.0
La1 La 0.34203 0.25853 0.12492 0.0
C2 C 0.29553 0.18171 0.08133 0.0
C3 C 0.29587 0.16264 0.06961 0.0
C4 C 0.28728 0.14621 0.10144 0.0
C5 C 0.28514 0.1275 0.08875 0.0
C6 C 0.29147 0.12423 0.04345 0.0
C7 C 0.30017 0.14079 1.01176 0.0
C8 C 0.30225 0.15945 0.02442 0.0
C9 C 0.30257 0.23492 0.17814 0.0
C10 C 0.35565 0.22688 0.15038 0.0
C11 C 0.36114 0.29241 0.16237 0.0
C12 C 0.35719 0.30885 0.15561 0.0
C13 C 0.37277 0.32757 0.14242 0.0
C14 C 0.36868 0.34187 0.12453 0.0
C15 C 0.349 0.3376 0.11955 0.0
C16 C 0.33342 0.31939 0.13547 0.0
C17 C 0.3375 0.30509 0.15367 0.0
C18 C 0.34808 0.2518 0.03362 0.0
C19 C 0.30261 0.24907 0.06777 0.0
O20 O 0.29866 0.1885 0.12559 0.0
O21 O 0.30265 0.19641 0.05031 0.0
O22 O 0.29143 0.22256 0.14509 0.0
O23 O 0.31954 0.23671 0.17002 0.0
O24 O 0.33753 0.21377 0.1365 0.0
O25 O 0.3612 0.2461 0.14912 0.0
O26 O 0.36708 0.28726 0.12373 0.0
O27 O 0.34742 0.27696 0.18511 0.0
O28 O 0.34579 0.26625 0.04907 0.0
O29 O 0.34408 0.23961 0.06925 0.0
O30 O 0.31605 0.2611 0.09954 0.0
O31 O 0.3023 0.23237 0.05611 0.0
H32 H 0.28178 0.14769 0.13622 0.0
H33 H 0.27854 0.11558 0.11485 0.0
H34 H 0.305 0.13928 0.97616 0.0
H35 H 0.30851 0.1713 0.99808 0.0
H36 H 0.38797 0.33068 0.14311 0.0
H37 H 0.38085 0.35593 0.11206 0.0
H38 H 0.31818 0.31589 0.13161 0.0
H39 H 0.32515 0.29071 0.16354 0.0
La40 La 0.88939 0.11955 0.09892 0.0
La41 La 0.84912 0.10793 0.121 0.0
C42 C 0.92603 0.13819 0.07146 0.0
C43 C 0.94488 0.15791 0.05916 0.0
C44 C 0.96039 0.16793 0.09299 0.0
C45 C 0.97898 0.1847 0.08004 0.0
C46 C 0.98314 0.19236 0.03242 0.0
C47 C 0.96749 0.1823 0.99874 0.0
C48 C 0.94897 0.16555 1.01169 0.0
C49 C 0.87328 0.09098 0.17136 0.0
C50 C 0.88186 0.15187 0.15219 0.0
C51 C 0.81586 0.09476 0.16088 0.0
C52 C 0.79852 0.07458 0.15625 0.0
C53 C 0.78647 0.06957 0.11524 0.0
C54 C 0.77273 0.04984 0.10547 0.0
C55 C 0.77056 1.03464 0.13659 0.0
C56 C 0.78157 1.03963 0.17932 0.0
C57 C 0.79554 0.05949 0.18892 0.0
C58 C 0.857 0.12308 0.03176 0.0
C59 C 0.85718 0.07633 0.06603 0.0
O60 O 0.92009 0.134 0.11637 0.0
O61 O 0.91075 0.13064 0.04214 0.0
O62 O 0.88687 0.09334 0.14044 0.0
O63 O 0.87085 0.10584 0.16307 0.0
O64 O 0.89478 0.14645 0.13866 0.0
O65 O 0.8626 0.13908 0.14784 0.0
O66 O 0.82112 0.1057 0.12201 0.0
O67 O 0.8312 0.09583 0.18251 0.0
O68 O 0.8418 0.10633 0.04478 0.0
O69 O 0.86906 0.12941 0.0681 0.0
O70 O 0.84513 0.07927 0.09446 0.0
O71 O 0.87492 0.09171 0.05507 0.0
H72 H 0.95833 0.16254 0.12973 0.0
H73 H 0.99011 0.19169 0.10779 0.0
H74 H 0.96965 0.18697 0.96144 0.0
H75 H 0.93794 0.15825 0.98382 0.0
H76 H 0.78811 0.08078 0.08959 0.0
H77 H 0.76377 0.04647 0.07325 0.0
H78 H 0.77971 1.0282 0.20451 0.0
H79 H 0.80453 0.06298 0.22104 0.0
La80 La 0.98528 0.79012 0.10601 0.0
La81 La 1.0004 0.76459 0.1261 0.0
C82 C 0.96555 0.80751 0.08321 0.0
C83 C 0.94659 0.80841 0.07331 0.0
C84 C 0.93823 0.81479 0.10963 0.0
C85 C 0.92278 0.81894 0.09984 0.0
C86 C 0.91472 0.81697 0.05305 0.0
C87 C 0.92265 0.80997 1.01685 0.0
C88 C 0.93832 0.80598 0.02663 0.0
C89 C 1.01415 0.80477 0.17778 0.0
C90 C 0.95505 0.74799 0.1549 0.0
C91 C 1.01654 0.74661 0.16281 0.0
C92 C 1.03731 0.75153 0.15841 0.0
C93 C 1.04206 0.73641 0.15663 0.0
C94 C 1.06141 0.74099 0.14556 0.0
C95 C 0.07613 0.76071 0.13591 0.0
C96 C 0.07155 0.77587 0.13906 0.0
C97 C 1.0523 0.7713 0.15032 0.0
C98 C 0.9865 0.75752 0.03565 0.0
C99 C 1.0292 0.80477 0.07095 0.0
O100 O 0.96979 0.80491 0.1273 0.0
O101 O 0.97289 0.80023 0.05172 0.0
O102 O 1.01045 0.81489 0.14672 0.0
O103 O 1.0001 0.78689 0.17087 0.0
O104 O 0.95811 0.76556 0.14041 0.0
O105 O 0.96989 0.74426 0.15268 0.0
O106 O 1.00639 0.74103 0.1229 0.0
O107 O 1.01366 0.75955 0.1861 0.0
O108 O 1.00378 0.76095 0.04962 0.0
O109 O 0.97832 0.76103 0.07221 0.0
O110 O 1.02773 0.79086 0.10077 0.0
O111 O 1.01282 0.8054 0.06042 0.0
H112 H 0.94411 0.81725 0.14591 0.0
H113 H 0.91725 0.82391 0.12943 0.0
H114 H 0.91728 0.80828 0.98021 0.0
H115 H 0.94435 0.80152 0.99705 0.0
H116 H 1.03071 0.72106 0.16219 0.0
H117 H 0.06469 0.72904 0.14232 0.0
H118 H 0.08263 0.79108 0.1308 0.0
H119 H 1.04902 0.78318 0.1503 0.0
La120 La 0.23907 0.29825 0.4406 0.0
La121 La 0.2796 0.32498 0.41574 0.0
C122 C 0.20237 0.28066 0.46716 0.0
C123 C 0.18345 0.28118 0.4801 0.0
C124 C 0.16706 0.2733 0.44831 0.0
C125 C 0.14843 0.2711 0.462 0.0
C126 C 0.14514 0.27663 0.50836 0.0
C127 C 0.16168 0.28469 0.53997 0.0
C128 C 0.18027 0.28681 0.52631 0.0
C129 C 0.25392 0.28433 0.36837 0.0
C130 C 0.24926 0.33955 0.38835 0.0
C131 C 0.31234 0.34171 0.37262 0.0
C132 C 0.32909 0.33825 0.38001 0.0
C133 C 0.33827 0.34194 0.42523 0.0
C134 C 0.35187 0.33584 0.43493 0.0
C135 C 0.35663 0.32577 0.39984 0.0
C136 C 0.34781 0.32241 0.35413 0.0
C137 C 0.33406 0.32854 0.34436 0.0
C138 C 0.27335 0.3335 0.50607 0.0
C139 C 0.27022 0.28591 0.47449 0.0
O140 O 0.20845 0.28298 0.42225 0.0
O141 O 0.21751 0.28791 0.49689 0.0
O142 O 0.24051 0.27376 0.40014 0.0
O143 O 0.25654 0.30178 0.37484 0.0
O144 O 0.2354 0.32229 0.40647 0.0
O145 O 0.26794 0.34362 0.38724 0.0
O146 O 0.30802 0.35004 0.40809 0.0
O147 O 0.2965 0.32647 0.35515 0.0
O148 O 0.28851 0.33234 0.49077 0.0
O149 O 0.26089 0.32789 0.47069 0.0
O150 O 0.28232 0.29998 0.44422 0.0
O151 O 0.25292 0.28459 0.48573 0.0
H152 H 0.16847 0.26835 0.41274 0.0
H153 H 0.13657 0.26504 0.4358 0.0
H154 H 0.1602 0.28892 0.57629 0.0
H155 H 0.19207 0.29249 0.55268 0.0
H156 H 0.33471 0.34922 0.45372 0.0
H157 H 0.35894 0.33938 0.46996 0.0
H158 H 0.35142 0.31495 0.32623 0.0
H159 H 0.32694 0.32526 0.30939 0.0
La160 La 0.81217 0.9647 0.43673 0.0
La161 La 0.78633 0.97881 0.41496 0.0
C162 C 0.83002 0.9456 0.46083 0.0
C163 C 0.83115 0.92671 0.46992 0.0
C164 C 0.84094 0.92084 0.43631 0.0
C165 C 0.84508 0.9054 0.44619 0.0
C166 C 0.83965 0.89483 0.49032 0.0
C167 C 0.82927 0.90025 0.52356 0.0
C168 C 0.82531 0.91596 0.51382 0.0
C169 C 0.82765 0.99412 0.36595 0.0
C170 C 0.77048 0.93349 0.38844 0.0
C171 C 0.76755 0.99188 0.36838 0.0
C172 C 0.77482 1.01124 0.34544 0.0
C173 C 0.76163 1.01577 0.32269 0.0
C174 C 0.76806 1.03522 0.30812 0.0
C175 C 0.78784 0.05044 0.31613 0.0
C176 C 0.80145 0.04522 0.33401 0.0
C177 C 0.79488 1.02584 0.3493 0.0
C178 C 0.77679 0.96269 0.50469 0.0
C179 C 0.82571 1.00875 0.4692 0.0
O180 O 0.82817 0.95034 0.41665 0.0
O181 O 0.82175 0.95212 0.49176 0.0
O182 O 0.83725 0.99057 0.39882 0.0
O183 O 0.80974 0.97993 0.3715 0.0
O184 O 0.78868 0.93748 0.39951 0.0
O185 O 0.76588 0.94761 0.39415 0.0
O186 O 0.76877 0.9923 0.41532 0.0
O187 O 0.77409 0.9809 0.34941 0.0
O188 O 0.77924 0.97969 0.49089 0.0
O189 O 0.78238 0.95633 0.46799 0.0
O190 O 0.81215 1.00681 0.4378 0.0
O191 O 0.82621 0.99246 0.48215 0.0
H192 H 0.84605 0.9287 0.40239 0.0
H193 H 0.85279 0.90185 0.41888 0.0
H194 H 0.82483 0.89284 0.55814 0.0
H195 H 0.81808 0.92001 0.54137 0.0
H196 H 0.74613 1.00459 0.31898 0.0
H197 H 0.75699 1.03852 0.29475 0.0
H198 H 0.81681 0.0564 0.33981 0.0
H199 H 0.80531 1.02251 0.36637 0.0
La200 La 0.13985 0.87088 0.44113 0.0
La201 La 0.1297 0.83169 0.42036 0.0
C202 C 0.15694 0.90765 0.46688 0.0
C203 C 0.1762 0.92695 0.4779 0.0
C204 C 0.18292 0.94369 0.44741 0.0
C205 C 0.19941 0.96249 0.45958 0.0
C206 C 0.21007 0.96552 0.50297 0.0
C207 C 0.20332 0.94866 0.53335 0.0
C208 C 0.18679 0.92991 0.52124 0.0
C209 C 0.11156 0.85443 0.36838 0.0
C210 C 0.17408 0.86454 0.39445 0.0
C211 C 0.12038 0.80067 0.37319 0.0
C212 C 0.10235 0.78801 0.34542 0.0
C213 C 0.08357 0.78098 0.36621 0.0
C214 C 0.06659 0.76812 0.34063 0.0
C215 C 0.06801 0.76202 0.29356 0.0
C216 C 0.08668 0.77135 0.27076 0.0
C217 C 0.10377 0.78395 0.29676 0.0
C218 C 0.14493 0.83955 0.51024 0.0
C219 C 0.09674 0.83805 0.47185 0.0
O220 O 0.15293 0.90137 0.42225 0.0
O221 O 0.15014 0.8926 0.49692 0.0
O222 O 0.1132 0.86747 0.40008 0.0
O223 O 0.12673 0.85258 0.37638 0.0
O224 O 0.16748 0.87705 0.40248 0.0
O225 O 0.16189 0.84537 0.40269 0.0
O226 O 0.11833 0.80088 0.41994 0.0
O227 O 0.13143 0.81847 0.35581 0.0
O228 O 0.12868 0.82406 0.49624 0.0
O229 O 0.15066 0.85156 0.47376 0.0
O230 O 0.1001 0.82695 0.44104 0.0
O231 O 0.11206 0.85547 0.48525 0.0
H232 H 0.17512 0.94237 0.41413 0.0
H233 H 0.20386 0.97465 0.43453 0.0
H234 H 0.21052 0.94997 0.56755 0.0
H235 H 0.18208 0.91777 0.54655 0.0
H236 H 0.08197 0.78469 0.40302 0.0
H237 H 1.05262 0.76161 0.35986 0.0
H238 H 0.08827 0.76767 0.23408 0.0
H239 H 0.11811 0.79006 0.27929 0.0
La240 La 0.78482 0.82908 0.91551 0.0
La241 La 0.81181 0.86846 0.93897 0.0
C242 C 0.76477 0.79853 0.86475 0.0
C243 C 0.7708 0.78668 0.83593 0.0
C244 C 0.79072 0.79148 0.83473 0.0
C245 C 0.79591 0.77813 0.81524 0.0
C246 C 0.78106 0.75943 0.79867 0.0
C247 C 0.76154 0.75608 0.794 0.0
C248 C 0.75648 0.76959 0.81275 0.0
C249 C 0.7758 0.83507 1.00616 0.0
C250 C 0.82396 0.83673 0.969 0.0
C251 C 0.83078 0.9055 0.96301 0.0
C252 C 0.83156 0.92542 0.97109 0.0
C253 C 0.84086 0.94074 0.93658 0.0
C254 C 0.84469 0.96031 0.94554 0.0
C255 C 0.83944 0.96574 0.9896 0.0
C256 C 0.82952 0.95026 0.02374 0.0
C257 C 0.82585 0.9306 1.0149 0.0
C258 C 0.82482 0.85346 0.86496 0.0
C259 C 0.77013 0.85967 0.89333 0.0
O260 O 0.76703 0.79804 0.91126 0.0
O261 O 0.77136 0.81656 0.84933 0.0
O262 O 0.77741 0.82019 0.99061 0.0
O263 O 0.7819 0.84759 0.97074 0.0
O264 O 0.81023 0.82561 0.93695 0.0
O265 O 0.82501 0.8537 0.9831 0.0
O266 O 0.8291 0.89873 0.919 0.0
O267 O 0.82206 0.89079 0.9939 0.0
O268 O 0.83563 0.8654 0.89899 0.0
O269 O 0.80779 0.85152 0.87239 0.0
O270 O 0.78869 0.8734 0.9035 0.0
O271 O 0.76487 0.84076 0.89902 0.0
H272 H 0.80202 0.80485 0.85196 0.0
H273 H 0.81119 0.78161 0.8178 0.0
H274 H 0.7495 0.74208 0.78111 0.0
H275 H 0.7411 0.76593 0.81247 0.0
H276 H 0.84584 0.93778 0.90267 0.0
H277 H 0.85205 0.97133 0.91759 0.0
H278 H 0.82525 0.95349 0.0583 0.0
H279 H 0.81899 0.91959 0.04308 0.0
La280 La 0.27665 0.98185 0.9236 0.0
La281 La 0.23694 0.96657 0.94137 0.0
C282 C 0.31205 0.99862 0.89659 0.0
C283 C 0.32818 1.01606 0.92098 0.0
C284 C 0.34096 1.01333 0.95133 0.0
C285 C 0.35227 1.02771 0.98541 0.0
C286 C 0.35123 0.04518 0.98939 0.0
C287 C 0.33975 0.04873 0.95663 0.0
C288 C 0.3282 1.03422 0.92275 0.0
C289 C 0.26995 0.96676 1.0136 0.0
C290 C 0.26466 1.00973 0.98032 0.0
C291 C 0.19953 0.94743 0.96091 0.0
C292 C 0.17927 0.92897 0.96979 0.0
C293 C 0.16314 0.92545 0.94009 0.0
C294 C 0.1435 0.91023 0.95023 0.0
C295 C 0.13885 0.89756 0.9906 0.0
C296 C 0.15509 0.90064 0.0197 0.0
C297 C 0.17485 0.91615 1.00983 0.0
C298 C 0.25191 0.99571 0.86949 0.0
C299 C 0.24829 0.9367 0.89131 0.0
O300 O 0.30387 0.98234 0.92212 0.0
O301 O 0.2987 1.00143 0.87563 0.0
O302 O 0.2821 0.98493 1.00101 0.0
O303 O 0.2585 0.95905 0.97656 0.0
O304 O 0.27753 1.00932 0.94976 0.0
O305 O 0.24832 0.99267 0.9904 0.0
O306 O 0.20702 0.95164 0.91734 0.0
O307 O 0.21359 0.95422 0.99353 0.0
O308 O 0.23851 0.99259 0.90146 0.0
O309 O 0.25508 0.98127 0.87593 0.0
O310 O 0.23397 0.93903 0.9099 0.0
O311 O 0.26657 0.95221 0.89011 0.0
H312 H 0.34126 0.99955 0.95077 0.0
H313 H 0.36166 1.02502 1.00929 0.0
H314 H 0.33915 0.06234 0.95842 0.0
H315 H 0.31854 1.03685 0.89984 0.0
H316 H 0.16563 0.93497 0.90929 0.0
H317 H 0.13183 0.90851 0.92617 0.0
H318 H 0.15246 0.89149 0.05131 0.0
H319 H 0.18659 0.91834 0.03424 0.0
La320 La 0.12815 0.32068 0.91562 0.0
La321 La 0.14077 0.29368 0.94061 0.0
C322 C 0.11547 0.33916 0.86614 0.0
C323 C 0.09514 0.33288 0.85117 0.0
C324 C 0.09 0.34715 0.8392 0.0
C325 C 0.07007 0.34194 0.83754 0.0
C326 C 1.05514 0.32249 0.84913 0.0
C327 C 1.06028 0.30776 0.85572 0.0
C328 C 0.0802 0.31292 0.85645 0.0
C329 C 0.14387 0.33025 1.00477 0.0
C330 C 0.09792 0.28201 0.97501 0.0
C331 C 0.15937 0.27585 0.96863 0.0
C332 C 0.17915 0.27713 0.98072 0.0
C333 C 0.1888 0.27092 0.94747 0.0
C334 C 0.20569 0.26949 0.96051 0.0
C335 C 0.21377 0.27412 1.00759 0.0
C336 C 0.20411 0.28047 0.04065 0.0
C337 C 0.18724 0.28186 0.02762 0.0
C338 C 0.11228 0.27992 0.86826 0.0
C339 C 0.17323 0.33389 0.88955 0.0
O340 O 0.11848 0.3415 0.91254 0.0
O341 O 0.12313 0.32911 0.84752 0.0
O342 O 0.12741 0.32897 0.99074 0.0
O343 O 0.1501 0.32407 0.96907 0.0
O344 O 0.09946 0.29499 0.94171 0.0
O345 O 0.11434 0.28204 0.98811 0.0
O346 O 0.15503 0.27716 0.92369 0.0
O347 O 0.15196 0.28388 0.99764 0.0
O348 O 0.11373 0.26932 0.90234 0.0
O349 O 0.12739 0.29706 0.87461 0.0
O350 O 0.16785 0.31543 0.9018 0.0
O351 O 0.16009 0.33998 0.89431 0.0
H352 H 0.10135 0.36259 0.83495 0.0
H353 H 0.06653 0.35364 0.83275 0.0
H354 H 1.04904 0.29271 0.86488 0.0
H355 H 0.08393 0.30164 0.86519 0.0
H356 H 0.18303 0.26671 0.91125 0.0
H357 H 0.21242 0.26474 0.93328 0.0
H358 H 0.2092 0.28388 0.07755 0.0
H359 H 0.18021 0.28621 0.05502 0.0
La360 La 0.84789 0.76282 0.62651 0.0
La361 La 0.88837 0.78986 0.60603 0.0
C362 C 0.81458 0.74366 0.66693 0.0
C363 C 0.79827 0.74796 0.66785 0.0
C364 C 0.77913 0.73284 0.6564 0.0
C365 C 0.7642 0.73736 0.64834 0.0
C366 C 0.76832 0.75711 0.65077 0.0
C367 C 0.78721 0.7722 0.66411 0.0
C368 C 0.8021 0.76761 0.67301 0.0
C369 C 0.85597 0.75522 0.53706 0.0
C370 C 0.8573 0.80249 0.57199 0.0
C371 C 0.92548 0.80839 0.583 0.0
C372 C 0.94538 0.80928 0.57375 0.0
C373 C 0.96025 0.81672 0.60956 0.0
C374 C 0.97985 0.82082 0.59995 0.0
C375 C 0.9858 0.81775 0.55386 0.0
C376 C 0.97075 0.80969 0.51826 0.0
C377 C 0.95107 0.80573 0.52784 0.0
C378 C 0.87252 0.80286 0.67767 0.0
C379 C 0.87793 0.74804 0.65553 0.0
O380 O 0.81849 0.7391 0.62458 0.0
O381 O 0.83069 0.75632 0.68948 0.0
O382 O 0.84098 0.75716 0.54965 0.0
O383 O 0.86746 0.76025 0.57417 0.0
O384 O 0.84515 0.78823 0.60175 0.0
O385 O 0.87465 0.80381 0.56083 0.0
O386 O 0.91856 0.80609 0.6271 0.0
O387 O 0.91092 0.8004 0.55166 0.0
O388 O 0.88572 0.81379 0.6459 0.0
O389 O 0.8702 0.78557 0.67077 0.0
O390 O 0.89204 0.76591 0.64114 0.0
O391 O 0.85914 0.7435 0.65266 0.0
H392 H 0.77594 0.71767 0.65176 0.0
H393 H 0.7497 0.72559 0.63722 0.0
H394 H 0.79069 0.78754 0.66522 0.0
H395 H 0.81685 0.77957 0.68118 0.0
H396 H 0.95693 0.82004 0.64519 0.0
H397 H 0.99049 0.82665 0.62907 0.0
H398 H 0.97433 0.80713 0.48216 0.0
H399 H 0.94045 0.80041 0.49864 0.0
La400 La 0.3391 0.10644 0.61749 0.0
La401 La 0.31357 0.1227 0.60824 0.0
C402 C 0.35517 0.0865 0.6386 0.0
C403 C 0.34916 0.06729 0.61548 0.0
C404 C 0.33849 0.06269 0.57211 0.0
C405 C 0.33055 0.044 0.5514 0.0
C406 C 0.33381 1.02957 0.57242 0.0
C407 C 0.34414 1.03393 0.61665 0.0
C408 C 0.35155 0.05262 0.63834 0.0
C409 C 0.34562 0.12434 0.53049 0.0
C410 C 0.29756 0.08005 0.56534 0.0
C411 C 0.29602 0.14282 0.59268 0.0
C412 C 0.29521 0.16183 0.58347 0.0
C413 C 0.28547 0.16786 0.61675 0.0
C414 C 0.28156 0.18343 0.60642 0.0
C415 C 0.28718 0.19391 0.56215 0.0
C416 C 0.29754 0.18832 0.52932 0.0
C417 C 0.30129 0.17253 0.53953 0.0
C418 C 0.30183 0.0934 0.67903 0.0
C419 C 0.35662 0.15089 0.65524 0.0
O420 O 0.36355 0.102 0.61027 0.0
O421 O 0.34119 0.08646 0.6646 0.0
O422 O 0.34342 0.10709 0.53941 0.0
O423 O 0.3418 0.13027 0.57044 0.0
O424 O 0.31126 0.08003 0.59315 0.0
O425 O 0.29809 0.09717 0.558 0.0
O426 O 0.30007 0.1388 0.63565 0.0
O427 O 0.30193 0.13512 0.55883 0.0
O428 O 0.29031 0.09636 0.65083 0.0
O429 O 0.31911 0.10764 0.66843 0.0
O430 O 0.33968 0.14911 0.63981 0.0
O431 O 0.3594 0.13535 0.65269 0.0
H432 H 0.33624 0.07354 0.55372 0.0
H433 H 0.32253 1.04114 0.51777 0.0
H434 H 0.34729 1.02326 0.63348 0.0
H435 H 0.35932 0.05568 0.67239 0.0
H436 H 0.28022 0.16003 0.65067 0.0
H437 H 0.27387 0.18713 0.63346 0.0
H438 H 0.30212 0.19565 0.49467 0.0
H439 H 0.30852 0.16836 0.51227 0.0
La440 La 0.99947 0.258 0.62562 0.0
La441 La 0.98631 0.21539 0.60475 0.0
C442 C 1.01123 0.28882 0.67573 0.0
C443 C 1.03086 0.30116 0.69682 0.0
C444 C 1.03771 0.32105 0.70821 0.0
C445 C 1.05806 0.33413 0.71296 0.0
C446 C 0.07165 0.32741 0.70503 0.0
C447 C 0.06443 0.307 0.70027 0.0
C448 C 1.04414 0.294 0.696 0.0
C449 C 0.98284 0.24922 0.53825 0.0
C450 C 1.02972 0.24724 0.57153 0.0
C451 C 0.96914 0.17915 0.57501 0.0
C452 C 0.95029 0.15919 0.56601 0.0
C453 C 0.94343 0.14414 0.60151 0.0
C454 C 0.928 0.12451 0.59232 0.0
C455 C 0.91846 0.11875 0.54705 0.0
C456 C 0.92486 0.13393 0.51176 0.0
C457 C 0.94057 0.15365 0.52086 0.0
C458 C 1.01419 0.22997 0.68054 0.0
C459 C 0.95449 0.22446 0.65487 0.0
O460 O 1.01118 0.28883 0.62847 0.0
O461 O 1.00112 0.27083 0.69336 0.0
O462 O 0.99834 0.2657 0.55158 0.0
O463 O 0.97738 0.23703 0.5749 0.0
O464 O 1.02792 0.26 0.60072 0.0
O465 O 1.01373 0.22986 0.56079 0.0
O466 O 0.97385 0.18493 0.61974 0.0
O467 O 0.97504 0.19452 0.54612 0.0
O468 O 1.0051 0.21202 0.66338 0.0
O469 O 1.00604 0.2375 0.65546 0.0
O470 O 0.95954 0.21111 0.64275 0.0
O471 O 0.96763 0.24376 0.64984 0.0
H472 H 1.02761 0.32682 0.70888 0.0
H473 H 1.06314 0.34984 0.71647 0.0
H474 H 0.07451 0.30151 0.69347 0.0
H475 H 1.03889 0.27873 0.68651 0.0
H476 H 0.95048 0.14736 0.63655 0.0
H477 H 0.92363 0.11371 0.62107 0.0
H478 H 0.91822 0.1304 0.47626 0.0
H479 H 0.94544 0.16444 0.49197 0.0
La480 La 0.97886 0.54837 0.43726 0.0
La481 La 1.00719 0.58793 0.45634 0.0
C482 C 0.95983 0.51128 0.41394 0.0
C483 C 0.95989 0.4918 0.40561 0.0
C484 C 0.9528 0.47702 0.44175 0.0
C485 C 0.94969 0.4577 0.43286 0.0
C486 C 0.95344 0.45199 0.38723 0.0
C487 C 0.96117 0.46698 0.35136 0.0
C488 C 0.96415 0.48637 0.36021 0.0
C489 C 0.96731 0.56511 0.51002 0.0
C490 C 1.01867 0.5555 0.4887 0.0
C491 C 1.02923 0.62282 0.48441 0.0
C492 C 1.03134 0.64015 0.45811 0.0
C493 C 1.04984 0.65376 0.43865 0.0
C494 C 1.05106 0.66594 0.40047 0.0
C495 C 1.03376 0.66454 0.38065 0.0
C496 C 1.01544 0.65206 0.40279 0.0
C497 C 1.01429 0.64015 0.44151 0.0
C498 C 1.01338 0.5798 0.36588 0.0
C499 C 0.96722 0.5798 0.40316 0.0
O500 O 0.96169 0.51816 0.45793 0.0
O501 O 0.96809 0.52592 0.38278 0.0
O502 O 0.95596 0.55178 0.47897 0.0
O503 O 0.98442 0.56694 0.50286 0.0
O504 O 1.00075 0.54255 0.47305 0.0
O505 O 1.02445 0.57472 0.4874 0.0
O506 O 1.03582 0.61279 0.46069 0.0
O507 O 1.01182 0.61112 0.50346 0.0
O508 O 1.01129 0.59461 0.37913 0.0
O509 O 1.0084 0.56813 0.40276 0.0
O510 O 0.98229 0.59184 0.4312 0.0
O511 O 0.96493 0.56204 0.39268 0.0
H512 H 0.949 0.48018 0.47701 0.0
H513 H 0.94406 0.44709 0.46214 0.0
H514 H 0.96421 0.46352 0.3156 0.0
H515 H 0.96927 0.49694 0.33083 0.0
H516 H 1.06317 0.65399 0.45073 0.0
H517 H 0.06556 0.67609 0.38568 0.0
H518 H 1.00187 0.6508 0.389 0.0
H519 H 0.99983 0.62996 0.45622 0.0
La520 La 0.55443 0.45206 0.43474 0.0
La521 La 0.51572 0.44084 0.46259 0.0
C522 C 0.59117 0.46991 0.40773 0.0
C523 C 0.61125 0.48896 0.4001 0.0
C524 C 0.62647 0.49494 0.43474 0.0
C525 C 0.64612 0.51054 0.42586 0.0
C526 C 0.65178 0.52113 0.38173 0.0
C527 C 0.6364 0.51557 0.34745 0.0
C528 C 0.61668 0.49974 0.35623 0.0
C529 C 0.53992 0.42405 0.50847 0.0
C530 C 0.54794 0.4853 0.48643 0.0
C531 C 0.48478 0.42816 0.51318 0.0
C532 C 0.4717 0.4076 0.52901 0.0
C533 C 0.47839 0.39386 0.52605 0.0
C534 C 0.46501 0.3735 0.52871 0.0
C535 C 0.4448 0.3667 0.53536 0.0
C536 C 0.43847 0.38054 0.54376 0.0
C537 C 0.45182 0.40089 0.5398 0.0
C538 C 0.52055 0.45514 0.37178 0.0
C539 C 0.5221 0.40913 0.40409 0.0
O540 O 0.58483 0.46403 0.45168 0.0
O541 O 0.57617 0.46481 0.37846 0.0
O542 O 0.55111 0.42477 0.47288 0.0
O543 O 0.53838 0.43949 0.50258 0.0
O544 O 0.56055 0.47928 0.47446 0.0
O545 O 0.52867 0.47275 0.48174 0.0
O546 O 0.48517 0.43086 0.4667 0.0
O547 O 0.50261 0.4368 0.53112 0.0
O548 O 0.50625 0.43841 0.38798 0.0
O549 O 0.5336 0.46193 0.40617 0.0
O550 O 0.51149 0.41192 0.43742 0.0
O551 O 0.53907 0.42472 0.38967 0.0
H552 H 0.62336 0.48709 0.46872 0.0
H553 H 0.65701 0.51419 0.45399 0.0
H554 H 0.63975 0.52295 0.3128 0.0
H555 H 0.60578 0.49561 0.32789 0.0
H556 H 0.49368 0.39878 0.51771 0.0
H557 H 0.47015 0.36313 0.52139 0.0
H558 H 0.42284 0.37559 0.54806 0.0
H559 H 0.44635 0.41124 0.54165 0.0
La560 La 0.65187 0.12604 0.43832 0.0
La561 La 0.66707 0.10029 0.45546 0.0
C562 C 0.63182 0.14309 0.41609 0.0
C563 C 0.61205 0.14183 0.40354 0.0
C564 C 0.60214 0.14764 0.43708 0.0
C565 C 0.58535 0.14926 0.42403 0.0
C566 C 0.57756 0.14523 0.3766 0.0
C567 C 0.58744 0.13922 0.34324 0.0
C568 C 0.60424 0.13766 0.35628 0.0
C569 C 0.68123 0.13969 0.50911 0.0
C570 C 0.62235 0.08449 0.48934 0.0
C571 C 0.68439 0.08258 0.48433 0.0
C572 C 0.70255 0.08487 0.46135 0.0
C573 C 0.70084 0.07169 0.42458 0.0
C574 C 0.71654 0.07668 0.39291 0.0
C575 C 0.73434 0.09486 0.3975 0.0
C576 C 0.73668 0.10739 0.43638 0.0
C577 C 0.72092 0.10242 0.46813 0.0
C578 C 0.65101 0.09245 0.36642 0.0
C579 C 0.695 0.14054 0.3992 0.0
O580 O 0.63535 0.1398 0.46032 0.0
O581 O 0.64056 0.13724 0.38482 0.0
O582 O 0.6776 0.15035 0.47948 0.0
O583 O 0.66681 0.12209 0.50181 0.0
O584 O 0.62478 0.10131 0.47134 0.0
O585 O 0.63758 0.08129 0.48952 0.0
O586 O 0.66842 0.07398 0.45777 0.0
O587 O 0.68628 0.09847 0.50544 0.0
O588 O 0.66811 0.09485 0.37851 0.0
O589 O 0.64435 0.09705 0.40416 0.0
O590 O 0.69435 0.12674 0.42823 0.0
O591 O 0.6782 0.14046 0.38999 0.0
H592 H 0.60767 0.15142 0.4736 0.0
H593 H 0.57846 0.15371 0.45154 0.0
H594 H 0.58259 0.13625 0.30611 0.0
H595 H 0.61144 0.13361 0.32865 0.0
H596 H 0.687 0.05801 0.41862 0.0
H597 H 0.71467 0.06628 0.36451 0.0
H598 H 0.75046 0.12122 0.44145 0.0
H599 H 0.72285 0.11283 0.49648 0.0
La600 La 0.90465 0.62754 0.77572 0.0
La601 La 0.94583 0.65451 0.75849 0.0
C602 C 0.86726 0.60936 0.79589 0.0
C603 C 0.84732 0.60841 0.80472 0.0
C604 C 0.83212 0.59968 0.76986 0.0
C605 C 0.81252 0.59562 0.77931 0.0
C606 C 0.80691 0.60006 0.82425 0.0
C607 C 0.82228 0.60942 0.85879 0.0
C608 C 0.84195 0.61331 0.84943 0.0
C609 C 0.92084 0.61572 0.70186 0.0
C610 C 0.9168 0.67024 0.72771 0.0
C611 C 0.98051 0.67199 0.72545 0.0
C612 C 0.99451 0.66478 0.73249 0.0
C613 C 0.99173 0.65233 0.7718 0.0
C614 C 1.00265 0.64274 0.7759 0.0
C615 C 1.01783 0.64653 0.74277 0.0
C616 C 1.02055 0.65905 0.70304 0.0
C617 C 1.00872 0.66778 0.69752 0.0
C618 C 0.93687 0.66124 0.84802 0.0
C619 C 0.93404 0.61308 0.80903 0.0
O620 O 0.87469 0.6123 0.75221 0.0
O621 O 0.88143 0.61661 0.82831 0.0
O622 O 0.90731 0.60423 0.73239 0.0
O623 O 0.92365 0.63299 0.71204 0.0
O624 O 0.90235 0.65262 0.74276 0.0
O625 O 0.93547 0.67424 0.7297 0.0
O626 O 0.97539 0.67785 0.76432 0.0
O627 O 0.96508 0.66007 0.69986 0.0
O628 O 0.95186 0.65933 0.83554 0.0
O629 O 0.92569 0.6566 0.81033 0.0
O630 O 0.94637 0.62749 0.78002 0.0
O631 O 0.91701 0.61225 0.82077 0.0
H632 H 0.83521 0.59531 0.73524 0.0
H633 H 0.80162 0.58873 0.751 0.0
H634 H 0.81895 0.61307 0.89401 0.0
H635 H 0.85285 0.6197 0.87791 0.0
H636 H 0.98101 0.64992 0.79965 0.0
H637 H 0.99949 0.63283 0.80616 0.0
H638 H 1.03228 0.66281 0.677 0.0
H639 H 1.01083 0.67703 0.66639 0.0
La640 La 0.47765 0.29903 0.7738 0.0
La641 La 0.4508 0.31255 0.75002 0.0
C642 C 0.4958 0.28021 0.79813 0.0
C643 C 0.49655 0.26109 0.80756 0.0
C644 C 0.50433 0.25368 0.77223 0.0
C645 C 0.50826 0.23807 0.78209 0.0
C646 C 0.50469 0.22888 0.82797 0.0
C647 C 0.49627 0.23582 0.86306 0.0
C648 C 0.49249 0.25166 0.85324 0.0
C649 C 0.49098 0.32729 0.70066 0.0
C650 C 0.43571 0.26731 0.72529 0.0
C651 C 0.43279 0.32617 0.70211 0.0
C652 C 0.43932 0.34667 0.68779 0.0
C653 C 0.42526 0.3522 0.67694 0.0
C654 C 0.43105 0.37224 0.6725 0.0
C655 C 0.45088 0.38702 0.68059 0.0
C656 C 0.4652 0.3814 0.68778 0.0
C657 C 0.45944 0.3613 0.69098 0.0
C658 C 0.44195 0.29744 0.83995 0.0
C659 C 0.49019 0.34286 0.80592 0.0
O660 O 0.49395 0.28492 0.75389 0.0
O661 O 0.4876 0.28685 0.82891 0.0
O662 O 0.50175 0.32558 0.73369 0.0
O663 O 0.47375 0.31239 0.70803 0.0
O664 O 0.4537 0.27126 0.7388 0.0
O665 O 0.43104 0.28147 0.72833 0.0
O666 O 0.43048 0.32286 0.74842 0.0
O667 O 0.44253 0.31832 0.68261 0.0
O668 O 0.44261 0.3135 0.82467 0.0
O669 O 0.44793 0.29084 0.80453 0.0
O670 O 0.47642 0.34072 0.77468 0.0
O671 O 0.49118 0.32681 0.81861 0.0
H672 H 0.50804 0.26044 0.73681 0.0
H673 H 0.51438 0.23333 0.75332 0.0
H674 H 0.49331 0.22955 0.89898 0.0
H675 H 0.48688 0.25691 0.88211 0.0
H676 H 0.40967 0.34112 0.67472 0.0
H677 H 0.41964 0.37617 0.66778 0.0
H678 H 0.4805 0.39251 0.69478 0.0
H679 H 0.47048 0.35726 0.69942 0.0
La680 La 0.80692 0.20339 0.77309 0.0
La681 La 0.79556 0.16479 0.74936 0.0
C682 C 0.82469 0.24036 0.79807 0.0
C683 C 0.84381 0.2602 0.80667 0.0
C684 C 0.84979 0.27589 0.77328 0.0
C685 C 0.86557 0.29535 0.783 0.0
C686 C 0.87632 0.30029 0.82677 0.0
C687 C 0.87077 0.28444 0.85975 0.0
C688 C 0.85476 0.2649 0.85014 0.0
C689 C 0.7794 0.18834 0.69799 0.0
C690 C 0.84018 0.1966 0.72299 0.0
C691 C 0.78084 0.13077 0.71409 0.0
C692 C 0.76095 0.1148 0.72868 0.0
C693 C 0.75915 0.10333 0.76937 0.0
C694 C 0.74134 0.09366 0.79463 0.0
C695 C 0.72482 0.09494 0.77936 0.0
C696 C 0.72594 0.10461 0.73591 0.0
C697 C 0.74389 0.11455 0.71081 0.0
C698 C 0.80802 0.16985 0.84107 0.0
C699 C 0.76371 0.1722 0.805 0.0
O700 O 0.8197 0.23377 0.75394 0.0
O701 O 0.8187 0.22551 0.82844 0.0
O702 O 0.78014 0.19997 0.73255 0.0
O703 O 0.79474 0.1867 0.70525 0.0
O704 O 0.83488 0.20946 0.73762 0.0
O705 O 0.82683 0.17739 0.72418 0.0
O706 O 0.79433 0.13713 0.74779 0.0
O707 O 0.78115 0.14556 0.69126 0.0
O708 O 0.79052 0.15715 0.82538 0.0
O709 O 0.8161 0.18259 0.80627 0.0
O710 O 0.76658 0.16079 0.77414 0.0
O711 O 0.77934 0.18943 0.8177 0.0
H712 H 0.8418 0.27329 0.7397 0.0
H713 H 0.86922 0.30665 0.75587 0.0
H714 H 0.87831 0.28727 0.89405 0.0
H715 H 0.85064 0.25358 0.8775 0.0
H716 H 0.77188 0.10298 0.78374 0.0
H717 H 0.74058 0.08533 0.82661 0.0
H718 H 0.7132 0.10521 0.72253 0.0
H719 H 0.7447 0.12313 0.6793 0.0
La720 La 0.45168 0.16489 0.25279 0.0
La721 La 0.47907 0.20291 0.27949 0.0
C722 C 0.43594 0.13002 0.22026 0.0
C723 C 0.44311 0.11594 0.21515 0.0
C724 C 0.42939 0.0957 0.21862 0.0
C725 C 0.43586 0.08203 0.22204 0.0
C726 C 0.45621 0.08844 0.22363 0.0
C727 C 0.47009 0.10869 0.21879 0.0
C728 C 0.46353 0.1224 0.21395 0.0
C729 C 0.43608 0.17367 0.3291 0.0
C730 C 0.49016 0.1727 0.31733 0.0
C731 C 0.4985 0.24003 0.30276 0.0
C732 C 0.49874 0.25966 0.30956 0.0
C733 C 0.50692 0.27449 0.27363 0.0
C734 C 0.51031 0.29393 0.28175 0.0
C735 C 0.50576 0.29965 0.32635 0.0
C736 C 0.49695 0.28462 0.3619 0.0
C737 C 0.49367 0.26512 0.35382 0.0
C738 C 0.4919 0.188 0.20504 0.0
C739 C 0.43999 0.19688 0.22537 0.0
O740 O 0.43408 0.1343 0.26479 0.0
O741 O 0.44435 0.14582 0.19298 0.0
O742 O 0.427 0.16456 0.29022 0.0
O743 O 0.45467 0.17884 0.32373 0.0
O744 O 0.47594 0.16086 0.28665 0.0
O745 O 0.49234 0.19034 0.32661 0.0
O746 O 0.49734 0.23308 0.25921 0.0
O747 O 0.48921 0.22547 0.33351 0.0
O748 O 0.50235 0.19873 0.24107 0.0
O749 O 0.47513 0.18707 0.21035 0.0
O750 O 0.45517 0.20803 0.25356 0.0
O751 O 0.43642 0.17873 0.21467 0.0
H752 H 0.41363 0.09051 0.22042 0.0
H753 H 0.42493 0.06647 0.22687 0.0
H754 H 0.48582 0.11393 0.22113 0.0
H755 H 0.47433 0.13806 0.21208 0.0
H756 H 0.51136 0.27126 0.23927 0.0
H757 H 0.51679 0.30462 0.25278 0.0
H758 H 0.49328 0.28812 0.3969 0.0
H759 H 0.48769 0.25447 0.383 0.0
La760 La 0.9435 0.31001 0.25119 0.0
La761 La 0.90467 0.2994 0.27918 0.0
C762 C 0.97343 0.32119 0.19739 0.0
C763 C 0.98651 0.34114 0.17802 0.0
C764 C 1.00569 0.34667 0.16258 0.0
C765 C 1.01984 0.36679 0.15793 0.0
C766 C 1.01495 0.38146 0.16976 0.0
C767 C 0.99507 0.37576 0.17851 0.0
C768 C 0.98096 0.35569 0.18273 0.0
C769 C 0.93869 0.29703 0.34249 0.0
C770 C 0.93752 0.34242 0.30857 0.0
C771 C 0.86811 0.28182 0.30701 0.0
C772 C 0.84883 0.26237 0.31761 0.0
C773 C 0.83262 0.25485 0.28527 0.0
C774 C 0.81378 0.23828 0.29703 0.0
C775 C 0.81011 0.22835 0.34186 0.0
C776 C 0.82643 0.23591 0.37408 0.0
C777 C 0.84523 0.25251 0.36237 0.0
C778 C 0.91955 0.32724 0.20539 0.0
C779 C 0.91086 0.26546 0.22961 0.0
O780 O 0.97393 0.31984 0.24421 0.0
O781 O 0.95526 0.31243 0.18154 0.0
O782 O 0.95417 0.31231 0.32449 0.0
O783 O 0.92528 0.28973 0.30909 0.0
O784 O 0.94818 0.3393 0.27584 0.0
O785 O 0.92042 0.32701 0.32312 0.0
O786 O 0.87408 0.28648 0.26233 0.0
O787 O 0.88336 0.28825 0.33614 0.0
O788 O 0.90813 0.32657 0.24036 0.0
O789 O 0.92089 0.3117 0.2117 0.0
O790 O 0.89837 0.27173 0.2409 0.0
O791 O 0.93015 0.2779 0.2342 0.0
H792 H 1.01018 0.33562 0.15839 0.0
H793 H 1.0351 0.37079 0.15118 0.0
H794 H 0.99094 0.38676 0.18767 0.0
H795 H 0.96618 0.35166 0.19429 0.0
H796 H 0.83437 0.26206 0.25079 0.0
H797 H 0.80206 0.23322 0.27054 0.0
H798 H 0.82464 0.22934 0.4094 0.0
H799 H 0.85688 0.25787 0.38912 0.0
La800 La 0.79261 0.65399 0.24891 0.0
La801 La 0.80632 0.62759 0.27192 0.0
C802 C 0.7789 0.67217 0.20204 0.0
C803 C 0.75835 0.66494 0.18729 0.0
C804 C 0.75207 0.67842 0.17609 0.0
C805 C 0.73183 0.67195 0.17409 0.0
C806 C 0.71774 0.65201 0.18428 0.0
C807 C 0.72409 0.63818 0.19016 0.0
C808 C 0.7443 0.64462 0.19134 0.0
C809 C 0.80741 0.66275 0.33934 0.0
C810 C 0.76219 0.61416 0.30323 0.0
C811 C 0.8251 0.60927 0.29522 0.0
C812 C 0.84399 0.6081 0.30402 0.0
C813 C 0.85057 0.59941 0.26899 0.0
C814 C 0.86598 0.59517 0.27837 0.0
C815 C 0.87581 0.59935 0.32342 0.0
C816 C 0.86968 0.60863 0.35817 0.0
C817 C 0.85402 0.61271 0.34888 0.0
C818 C 0.7784 0.61437 0.198 0.0
C819 C 0.83804 0.66983 0.22458 0.0
O820 O 0.78186 0.674 0.24851 0.0
O821 O 0.78739 0.66315 0.18207 0.0
O822 O 0.79029 0.65972 0.32484 0.0
O823 O 0.81437 0.65742 0.30337 0.0
O824 O 0.76442 0.62803 0.27213 0.0
O825 O 0.77828 0.61334 0.3162 0.0
O826 O 0.82035 0.61131 0.25119 0.0
O827 O 0.81864 0.6175 0.32643 0.0
O828 O 0.77989 0.60349 0.23119 0.0
O829 O 0.79318 0.63156 0.20617 0.0
O830 O 0.83405 0.65168 0.23705 0.0
O831 O 0.82383 0.67441 0.22846 0.0
H832 H 0.76271 0.69413 0.17268 0.0
H833 H 0.7273 0.68297 0.17011 0.0
H834 H 0.71352 0.6228 0.19839 0.0
H835 H 0.74889 0.63395 0.19928 0.0
H836 H 0.84331 0.59524 0.23423 0.0
H837 H 0.87008 0.58836 0.24987 0.0
H838 H 0.87646 0.61209 0.3935 0.0
H839 H 0.84942 0.61902 0.37752 0.0
La840 La 0.51961 0.09994 0.96656 0.0
La841 La 0.55777 0.12819 0.94094 0.0
C842 C 0.48965 0.07893 1.01841 0.0
C843 C 0.47717 0.0845 0.04606 0.0
C844 C 0.45917 0.0698 0.06501 0.0
C845 C 0.4454 0.07482 0.08211 0.0
C846 C 0.44945 0.09467 0.08015 0.0
C847 C 0.46856 0.10962 0.06667 0.0
C848 C 0.48222 0.10451 0.04909 0.0
C849 C 0.52526 0.09084 0.87583 0.0
C850 C 0.52467 0.13801 0.91087 0.0
C851 C 0.5944 0.14766 0.91372 0.0
C852 C 0.61415 0.14819 0.90544 0.0
C853 C 0.62934 0.15672 0.94035 0.0
C854 C 0.64877 0.16028 0.93106 0.0
C855 C 0.65418 0.15555 0.88624 0.0
C856 C 0.63882 0.14641 0.85167 0.0
C857 C 0.61931 0.14298 0.86089 0.0
C858 C 0.54242 0.14108 1.01433 0.0
C859 C 0.55239 0.0884 0.9896 0.0
O860 O 0.48889 0.08048 0.97172 0.0
O861 O 0.50783 0.08672 0.03356 0.0
O862 O 0.51019 0.09191 0.89205 0.0
O863 O 0.5381 0.09761 0.91052 0.0
O864 O 0.51419 0.12421 0.94366 0.0
O865 O 0.54189 0.13988 0.89656 0.0
O866 O 0.58812 0.1469 0.95792 0.0
O867 O 0.57936 0.13799 0.88435 0.0
O868 O 0.55379 0.15175 0.97922 0.0
O869 O 0.54131 0.12425 1.00855 0.0
O870 O 0.56467 0.10746 0.98046 0.0
O871 O 0.5332 0.0813 0.98258 0.0
H872 H 0.45516 0.05431 0.06333 0.0
H873 H 0.43088 0.06274 0.09194 0.0
H874 H 0.47232 0.12504 0.06552 0.0
H875 H 0.49617 0.11601 0.03462 0.0
H876 H 0.6264 0.16128 0.97488 0.0
H877 H 0.65969 0.16701 0.95939 0.0
H878 H 0.64202 0.14257 0.81653 0.0
H879 H 0.60841 0.13674 0.8324 0.0
La880 La 1.00902 0.4393 0.96623 0.0
La881 La 0.98298 0.4531 0.94283 0.0
C882 C 1.02719 0.42522 1.01189 0.0
C883 C 1.02173 0.40448 0.0203 0.0
C884 C 1.0365 0.39966 0.02859 0.0
C885 C 1.03191 0.37987 0.02662 0.0
C886 C 1.01259 0.36477 1.01499 0.0
C887 C 0.99748 0.36947 1.01078 0.0
C888 C 1.00202 0.38922 1.01389 0.0
C889 C 1.01824 0.45441 0.87598 0.0
C890 C 0.96991 0.4093 0.90949 0.0
C891 C 0.96455 0.47176 0.9196 0.0
C892 C 0.96333 0.49062 0.91039 0.0
C893 C 0.95773 0.4993 0.94766 0.0
C894 C 0.9533 0.51465 0.93859 0.0
C895 C 0.95415 0.52222 0.89164 0.0
C896 C 0.96032 0.51392 0.85444 0.0
C897 C 0.96462 0.49841 0.86353 0.0
C898 C 0.96924 0.42472 1.01583 0.0
C899 C 1.0247 0.48469 0.99148 0.0
O900 O 1.03092 0.431 0.96707 0.0
O901 O 1.01567 0.4308 0.03223 0.0
O902 O 1.01475 0.43704 0.89018 0.0
O903 O 1.01289 0.46139 0.9119 0.0
O904 O 0.9835 0.4112 0.94096 0.0
O905 O 0.9692 0.42553 0.8972 0.0
O906 O 0.96682 0.46722 0.96366 0.0
O907 O 0.97265 0.46519 0.88832 0.0
O908 O 0.95871 0.42639 0.98212 0.0
O909 O 0.98645 0.43969 1.00913 0.0
O910 O 1.00685 0.48089 0.97739 0.0
O911 O 1.02911 0.47032 0.989 0.0
H912 H 1.05178 0.41125 0.0335 0.0
H913 H 1.04388 0.37664 0.02933 0.0
H914 H 0.98254 0.3581 1.00143 0.0
H915 H 0.99038 0.39267 1.00795 0.0
H916 H 0.95614 0.4938 0.98419 0.0
H917 H 0.94904 0.52049 0.96891 0.0
H918 H 0.96112 0.51887 0.81764 0.0
H919 H 0.96841 0.49208 0.8333 0.0
La920 La 0.66437 0.58872 0.95982 0.0
La921 La 0.65291 0.5497 0.93695 0.0
C922 C 0.67862 0.6231 0.99269 0.0
C923 C 0.696 0.64035 0.97088 0.0
C924 C 0.6929 0.65233 0.93844 0.0
C925 C 0.70743 0.66381 0.90471 0.0
C926 C 0.72544 0.66377 0.90321 0.0
C927 C 0.72941 0.65348 0.93876 0.0
C928 C 0.71479 0.64183 0.97237 0.0
C929 C 0.65303 0.58305 0.86728 0.0
C930 C 0.69625 0.58109 0.90476 0.0
C931 C 0.63506 0.51259 0.91324 0.0
C932 C 0.61595 0.49272 0.9049 0.0
C933 C 0.60966 0.47735 0.93933 0.0
C934 C 0.59391 0.45782 0.93011 0.0
C935 C 0.5835 0.4525 0.88584 0.0
C936 C 0.58935 0.46804 0.85178 0.0
C937 C 0.60533 0.48764 0.8609 0.0
C938 C 0.6805 0.56509 1.01094 0.0
C939 C 0.61986 0.55709 0.98738 0.0
O940 O 0.66282 0.61485 0.96552 0.0
O941 O 0.68197 0.60978 1.01211 0.0
O942 O 0.66945 0.59726 0.8844 0.0
O943 O 0.64443 0.57043 0.90184 0.0
O944 O 0.69325 0.59272 0.93456 0.0
O945 O 0.68075 0.5636 0.8929 0.0
O946 O 0.63988 0.51943 0.95722 0.0
O947 O 0.64121 0.52726 0.88227 0.0
O948 O 0.67931 0.55287 0.97753 0.0
O949 O 0.66516 0.56681 1.00444 0.0
O950 O 0.62482 0.54414 0.97116 0.0
O951 O 0.63348 0.57619 0.98753 0.0
H952 H 0.67868 0.65165 0.93666 0.0
H953 H 0.70435 0.67235 0.87889 0.0
H954 H 0.74342 0.65368 0.93907 0.0
H955 H 0.71779 0.63293 0.9972 0.0
H956 H 0.61739 0.48024 0.97339 0.0
H957 H 0.59002 0.44677 0.95803 0.0
H958 H 0.58207 0.4649 0.81706 0.0
H959 H 0.6097 0.4987 0.83277 0.0
La960 La 0.64978 0.88342 0.77477 0.0
La961 La 0.6759 0.92753 0.78527 0.0
C962 C 0.63285 0.84665 0.74941 0.0
C963 C 0.63268 0.8272 0.7389 0.0
C964 C 0.6279 0.81303 0.7759 0.0
C965 C 0.62423 0.79358 0.76626 0.0
C966 C 0.62515 0.78714 0.71904 0.0
C967 C 0.63064 0.80151 0.68202 0.0
C968 C 0.63411 0.82103 0.69166 0.0
C969 C 0.63584 0.89809 0.84964 0.0
C970 C 0.69253 0.8988 0.82279 0.0
C971 C 0.69283 0.96164 0.82244 0.0
C972 C 0.68438 0.97408 0.83645 0.0
C973 C 0.69572 0.99208 0.8606 0.0
C974 C 0.68793 1.00457 0.86906 0.0
C975 C 0.66864 0.99924 0.85323 0.0
C976 C 0.65693 0.98049 0.83233 0.0
C977 C 0.66489 0.96829 0.82336 0.0
C978 C 0.68419 0.91574 0.70131 0.0
C979 C 0.63318 0.91085 0.73628 0.0
O980 O 0.6355 0.85314 0.79394 0.0
O981 O 0.63973 0.8615 0.71855 0.0
O982 O 0.62886 0.87965 0.83719 0.0
O983 O 0.65054 0.90631 0.82108 0.0
O984 O 0.67527 0.88341 0.80982 0.0
O985 O 0.69582 0.91729 0.81695 0.0
O986 O 0.69273 0.95841 0.77605 0.0
O987 O 0.68645 0.9453 0.84742 0.0
O988 O 0.68257 0.93137 0.70841 0.0
O989 O 0.67922 0.90598 0.74176 0.0
O990 O 0.6477 0.92533 0.76144 0.0
O991 O 0.63307 0.89377 0.72964 0.0
H992 H 0.62627 0.81672 0.81269 0.0
H993 H 0.62039 0.78341 0.79627 0.0
H994 H 0.63145 0.79743 0.64507 0.0
H995 H 0.63732 0.83111 0.66171 0.0
H996 H 0.71092 0.99696 0.87045 0.0
H997 H 0.69771 1.01908 0.88433 0.0
H998 H 0.64211 0.97583 0.81957 0.0
H999 H 0.65608 0.95476 0.80387 0.0
La1000 La 0.22441 0.79143 0.77462 0.0
La1001 La 0.18066 0.77474 0.78565 0.0
C1002 C 0.2609 0.81005 0.7476 0.0
C1003 C 0.2799 0.82917 0.73411 0.0
C1004 C 0.29638 0.83724 0.76559 0.0
C1005 C 0.31506 0.85352 0.7521 0.0
C1006 C 0.31825 0.86262 0.70634 0.0
C1007 C 0.30166 0.8546 0.67495 0.0
C1008 C 0.28298 0.83821 0.68837 0.0
C1009 C 0.20896 0.76263 0.84863 0.0
C1010 C 0.21039 0.81987 0.82345 0.0
C1011 C 0.14644 0.75773 0.82005 0.0
C1012 C 0.13316 0.73607 0.82478 0.0
C1013 C 0.12134 0.72527 0.78557 0.0
C1014 C 0.11097 0.70466 0.78632 0.0
C1015 C 0.11181 0.69414 0.82666 0.0
C1016 C 0.12316 0.70493 0.86662 0.0
C1017 C 0.13391 0.72571 0.86552 0.0
C1018 C 0.19298 0.79448 0.7017 0.0
C1019 C 0.19558 0.74739 0.73628 0.0
O1020 O 0.25487 0.80737 0.79258 0.0
O1021 O 0.24578 0.80151 0.71774 0.0
O1022 O 0.22748 0.77367 0.83639 0.0
O1023 O 0.20127 0.76976 0.82073 0.0
O1024 O 0.22541 0.81768 0.80884 0.0
O1025 O 0.19178 0.80478 0.81926 0.0
O1026 O 0.15043 0.76441 0.77573 0.0
O1027 O 0.16233 0.76554 0.84707 0.0
O1028 O 0.17741 0.77715 0.70841 0.0
O1029 O 0.20256 0.79917 0.74223 0.0
O1030 O 0.18128 0.74782 0.76166 0.0
O1031 O 0.21286 0.76412 0.72948 0.0
H1032 H 0.29496 0.83065 0.80079 0.0
H1033 H 0.32703 0.85903 0.77798 0.0
H1034 H 0.30316 0.86067 0.6391 0.0
H1035 H 0.27104 0.83239 0.66237 0.0
H1036 H 0.12027 0.73272 0.75373 0.0
H1037 H 0.10164 0.69706 0.75566 0.0
H1038 H 0.12352 0.69732 0.89884 0.0
H1039 H 0.14298 0.73364 0.89629 0.0
La1040 La 0.32019 0.46069 0.76919 0.0
La1041 La 0.33287 0.43402 0.79421 0.0
C1042 C 0.30172 0.47897 0.74292 0.0
C1043 C 0.28218 0.47847 0.73184 0.0
C1044 C 0.27393 0.48637 0.76466 0.0
C1045 C 0.25732 0.48847 0.75255 0.0
C1046 C 0.24807 0.4828 0.70684 0.0
C1047 C 0.25635 0.4748 0.67415 0.0
C1048 C 0.27297 0.47277 0.68623 0.0
C1049 C 0.34791 0.47408 0.84316 0.0
C1050 C 0.28751 0.4201 0.818 0.0
C1051 C 0.34634 0.4153 0.83947 0.0
C1052 C 0.36686 0.41927 0.84271 0.0
C1053 C 0.37102 0.40443 0.82879 0.0
C1054 C 0.39059 0.40894 0.82281 0.0
C1055 C 0.40628 0.42836 0.83038 0.0
C1056 C 0.40231 0.44306 0.84664 0.0
C1057 C 0.38267 0.43848 0.85312 0.0
C1058 C 0.32084 0.42677 0.70251 0.0
C1059 C 0.36345 0.47311 0.73636 0.0
O1060 O 0.30608 0.47723 0.7875 0.0
O1061 O 0.30883 0.47089 0.71316 0.0
O1062 O 0.34673 0.48477 0.80894 0.0
O1063 O 0.33284 0.45691 0.83643 0.0
O1064 O 0.29265 0.43839 0.80501 0.0
O1065 O 0.30098 0.41441 0.81524 0.0
O1066 O 0.33826 0.41008 0.7969 0.0
O1067 O 0.34283 0.42844 0.85939 0.0
O1068 O 0.3374 0.42919 0.71944 0.0
O1069 O 0.31223 0.43103 0.73685 0.0
O1070 O 0.36173 0.45979 0.76898 0.0
O1071 O 0.34713 0.47331 0.72336 0.0
H1072 H 0.28061 0.49139 0.79983 0.0
H1073 H 0.25171 0.49453 0.77945 0.0
H1074 H 0.25033 0.47051 0.63819 0.0
H1075 H 0.2789 0.46711 0.65909 0.0
H1076 H 0.35912 0.3896 0.82034 0.0
H1077 H 0.39348 0.39749 0.80964 0.0
H1078 H 0.41426 0.45815 0.8521 0.0
H1079 H 0.37986 0.45021 0.86383 0.0
La1080 La 0.57186 0.96153 0.11081 0.0
La1081 La 0.61148 0.98819 0.08673 0.0
C1082 C 0.53478 0.94314 0.13492 0.0
C1083 C 0.51485 0.94239 0.14229 0.0
C1084 C 0.49977 0.93343 0.10717 0.0
C1085 C 0.48017 0.92957 0.11568 0.0
C1086 C 0.47443 0.93441 0.15991 0.0
C1087 C 0.48967 0.94397 0.19467 0.0
C1088 C 0.50934 0.94769 0.18625 0.0
C1089 C 0.58669 0.94792 0.0375 0.0
C1090 C 0.58067 1.00257 0.06227 0.0
C1091 C 0.6429 1.00601 0.03756 0.0
C1092 C 0.65538 0.99814 0.01991 0.0
C1093 C 0.6746 1.01101 1.00344 0.0
C1094 C 0.68773 1.00393 0.99626 0.0
C1095 C 0.68189 0.98401 1.00676 0.0
C1096 C 0.66209 0.97078 1.01894 0.0
C1097 C 0.64893 0.97783 0.02529 0.0
C1098 C 0.60613 0.99672 0.17723 0.0
C1099 C 0.60218 0.94897 0.14505 0.0
O1100 O 0.54157 0.94417 0.09118 0.0
O1101 O 0.54947 0.95227 0.16548 0.0
O1102 O 0.57464 0.93727 0.07168 0.0
O1103 O 0.58889 0.9651 0.0447 0.0
O1104 O 0.56737 0.98395 0.07276 0.0
O1105 O 0.59977 1.00845 0.06806 0.0
O1106 O 0.64235 1.00745 0.08434 0.0
O1107 O 0.6252 0.99782 1.01904 0.0
O1108 O 0.62085 0.99506 0.16107 0.0
O1109 O 0.59328 0.99156 0.1426 0.0
O1110 O 0.61372 0.96195 0.11178 0.0
O1111 O 0.58581 0.9491 0.15823 0.0
H1112 H 0.50294 0.92875 0.07309 0.0
H1113 H 0.46938 0.92252 0.08722 0.0
H1114 H 0.48625 0.94793 0.22939 0.0
H1115 H 0.52013 0.95424 0.21493 0.0
H1116 H 0.67988 1.02673 0.99951 0.0
H1117 H 0.70304 1.01454 0.98767 0.0
H1118 H 0.65732 0.95547 0.02784 0.0
H1119 H 0.63414 0.96766 0.03789 0.0
La1120 La 0.14356 0.63419 0.10493 0.0
La1121 La 0.11718 0.64757 0.08292 0.0
C1122 C 0.16212 0.61566 0.1282 0.0
C1123 C 0.16357 0.59691 0.13709 0.0
C1124 C 0.17321 0.59104 0.10303 0.0
C1125 C 0.17761 0.57573 0.11268 0.0
C1126 C 0.1726 0.56531 0.15703 0.0
C1127 C 0.1624 0.57075 0.19077 0.0
C1128 C 0.15818 0.58631 0.18124 0.0
C1129 C 0.157 0.66228 0.03096 0.0
C1130 C 0.10161 0.60221 0.0582 0.0
C1131 C 0.09809 0.66022 0.03604 0.0
C1132 C 0.10546 0.67964 1.01334 0.0
C1133 C 0.09222 0.68534 0.99631 0.0
C1134 C 0.09921 0.70504 0.98291 0.0
C1135 C 0.11948 0.71933 0.98767 0.0
C1136 C 0.13291 0.71304 0.99996 0.0
C1137 C 0.12588 0.69335 1.01315 0.0
C1138 C 0.10786 0.63206 0.17286 0.0
C1139 C 0.15699 0.67832 0.13582 0.0
O1140 O 0.15999 0.62032 0.08417 0.0
O1141 O 0.15379 0.622 0.15941 0.0
O1142 O 0.16771 0.6606 0.06422 0.0
O1143 O 0.13971 0.64759 0.03902 0.0
O1144 O 0.11989 0.60646 0.06946 0.0
O1145 O 0.09679 0.61621 0.06343 0.0
O1146 O 0.09915 0.66058 0.083 0.0
O1147 O 0.10481 0.64936 1.0173 0.0
O1148 O 0.11092 0.64926 0.15884 0.0
O1149 O 0.11357 0.62547 0.1368 0.0
O1150 O 0.14323 0.67603 0.10441 0.0
O1151 O 0.15759 0.66216 0.14942 0.0
H1152 H 0.178 0.59877 0.06889 0.0
H1153 H 0.18515 0.57217 0.08496 0.0
H1154 H 0.15828 0.56348 0.22554 0.0
H1155 H 0.15109 0.59037 0.20916 0.0
H1156 H 0.07642 0.67491 0.99607 0.0
H1157 H 0.08842 0.70944 0.97414 0.0
H1158 H 0.14853 0.72373 1.00428 0.0
H1159 H 0.13627 0.6892 0.02662 0.0
La1160 La 0.47175 0.53582 0.10951 0.0
La1161 La 0.4614 0.4969 0.08406 0.0
C1162 C 0.48876 0.57258 0.13574 0.0
C1163 C 0.50757 0.59267 0.14404 0.0
C1164 C 0.51246 0.60855 0.11189 0.0
C1165 C 0.52798 0.62814 0.12152 0.0
C1166 C 0.53955 0.63302 0.16393 0.0
C1167 C 0.53507 0.61701 0.19562 0.0
C1168 C 0.51932 0.59733 0.18614 0.0
C1169 C 0.44401 0.52056 0.03581 0.0
C1170 C 0.50604 0.52966 0.06153 0.0
C1171 C 0.45221 0.46697 0.03165 0.0
C1172 C 0.43423 0.4542 1.00414 0.0
C1173 C 0.41862 0.4583 1.00295 0.0
C1174 C 0.39994 0.44394 0.98642 0.0
C1175 C 0.39662 0.42516 0.97206 0.0
C1176 C 0.41303 0.42226 0.96744 0.0
C1177 C 0.4317 0.43667 0.98364 0.0
C1178 C 0.47593 0.50296 0.17452 0.0
C1179 C 0.4285 0.50284 0.13876 0.0
O1180 O 0.4836 0.56617 0.09155 0.0
O1181 O 0.4834 0.55764 0.16558 0.0
O1182 O 0.44475 0.53224 0.07021 0.0
O1183 O 0.45941 0.51903 0.0425 0.0
O1184 O 0.49963 0.54221 0.07141 0.0
O1185 O 0.4936 0.5104 0.06746 0.0
O1186 O 0.44992 0.46612 0.07842 0.0
O1187 O 0.46248 0.48523 1.0165 0.0
O1188 O 0.46031 0.48728 0.15854 0.0
O1189 O 0.48209 0.51578 0.13969 0.0
O1190 O 0.43184 0.49212 0.10654 0.0
O1191 O 0.44392 0.51998 0.15338 0.0
H1192 H 0.50381 0.60596 0.07942 0.0
H1193 H 0.53079 0.63958 0.09539 0.0
H1194 H 0.54329 0.61978 0.22887 0.0
H1195 H 0.51605 0.58585 0.21253 0.0
H1196 H 0.42045 0.47192 1.0183 0.0
H1197 H 0.38769 0.44674 0.98974 0.0
H1198 H 0.41112 0.40802 0.95661 0.0
H1199 H 0.44371 0.43344 0.98369 0.0
La1200 La 0.12011 0.49803 0.59152 0.0
La1201 La 0.14625 0.53841 0.61034 0.0
C1202 C 0.10207 0.46408 0.55307 0.0
C1203 C 0.10834 0.44912 0.55312 0.0
C1204 C 0.09419 0.42887 0.55298 0.0
C1205 C 0.0997 0.41496 0.56617 0.0
C1206 C 0.11932 0.42127 0.58021 0.0
C1207 C 0.13375 0.44127 0.576 0.0
C1208 C 0.1283 0.45505 0.56227 0.0
C1209 C 0.11169 0.50587 0.68003 0.0
C1210 C 0.15993 0.50942 0.64878 0.0
C1211 C 0.1639 0.57538 0.63454 0.0
C1212 C 0.16345 0.59439 0.64605 0.0
C1213 C 0.17298 0.61112 0.61538 0.0
C1214 C 0.17515 0.62981 0.62825 0.0
C1215 C 0.16789 0.63273 0.67256 0.0
C1216 C 0.15818 0.61586 0.70304 0.0
C1217 C 0.1561 0.59721 0.69022 0.0
C1218 C 0.16056 0.52319 0.5397 0.0
C1219 C 0.10542 0.52846 0.56048 0.0
O1220 O 0.09764 0.46802 0.59548 0.0
O1221 O 0.11348 0.48032 0.52924 0.0
O1222 O 0.11448 0.49129 0.66837 0.0
O1223 O 0.1166 0.51736 0.64273 0.0
O1224 O 0.1465 0.49681 0.61813 0.0
O1225 O 0.15976 0.526 0.65922 0.0
O1226 O 0.16158 0.5689 0.59005 0.0
O1227 O 0.1565 0.56051 0.66511 0.0
O1228 O 0.17081 0.53703 0.57083 0.0
O1229 O 0.14288 0.51986 0.54623 0.0
O1230 O 0.12362 0.54221 0.57238 0.0
O1231 O 0.10014 0.50939 0.5659 0.0
H1232 H 0.07872 0.42396 0.54637 0.0
H1233 H 0.08826 0.39953 0.56996 0.0
H1234 H 0.14888 0.44638 0.587 0.0
H1235 H 0.13952 0.47049 0.56253 0.0
H1236 H 0.17924 0.60991 0.58147 0.0
H1237 H 0.18253 0.642 0.60307 0.0
H1238 H 0.15257 0.61709 0.73785 0.0
H1239 H 0.14907 0.58507 0.71568 0.0
La1240 La 0.6113 0.6438 0.5817 0.0
La1241 La 0.57235 0.63333 0.61136 0.0
C1242 C 0.64103 0.65466 0.52737 0.0
C1243 C 0.65425 0.67437 0.50697 0.0
C1244 C 0.64949 0.68946 0.5124 0.0
C1245 C 0.6639 0.70928 0.50538 0.0
C1246 C 0.68339 0.71426 0.49373 0.0
C1247 C 0.68737 0.69894 0.48202 0.0
C1248 C 0.67289 0.67907 0.48901 0.0
C1249 C 0.60659 0.62975 0.67222 0.0
C1250 C 0.60569 0.67643 0.63915 0.0
C1251 C 0.53605 0.61546 0.64141 0.0
C1252 C 0.51705 0.59579 0.65292 0.0
C1253 C 0.50103 0.58707 0.62003 0.0
C1254 C 0.48238 0.57033 0.63252 0.0
C1255 C 0.47869 0.56139 0.67872 0.0
C1256 C 0.49485 0.57012 0.71146 0.0
C1257 C 0.51345 0.58688 0.69898 0.0
C1258 C 0.58697 0.66105 0.53718 0.0
C1259 C 0.57811 0.59945 0.55987 0.0
O1260 O 0.6417 0.65371 0.57425 0.0
O1261 O 0.62281 0.64589 0.51188 0.0
O1262 O 0.62217 0.64495 0.65428 0.0
O1263 O 0.59299 0.62339 0.63922 0.0
O1264 O 0.61614 0.67309 0.60629 0.0
O1265 O 0.58861 0.66117 0.65446 0.0
O1266 O 0.54156 0.62015 0.59644 0.0
O1267 O 0.55162 0.62219 0.66961 0.0
O1268 O 0.57538 0.66025 0.57199 0.0
O1269 O 0.58847 0.64561 0.54379 0.0
O1270 O 0.56576 0.60579 0.57216 0.0
O1271 O 0.59745 0.61176 0.56373 0.0
H1272 H 0.63518 0.6861 0.52621 0.0
H1273 H 0.6604 0.72075 0.51436 0.0
H1274 H 0.70228 0.70228 0.47307 0.0
H1275 H 0.67677 0.66759 0.48441 0.0
H1276 H 0.50274 0.59347 0.58448 0.0
H1277 H 0.47084 0.56437 0.60552 0.0
H1278 H 0.49306 0.56438 0.74774 0.0
H1279 H 0.52493 0.59315 0.72616 0.0
La1280 La 0.4608 0.99172 0.59706 0.0
La1281 La 0.47671 0.96355 0.60561 0.0
C1282 C 0.44455 1.00913 0.56038 0.0
C1283 C 0.42318 1.00012 0.55072 0.0
C1284 C 0.40955 0.99264 0.58899 0.0
C1285 C 0.38931 0.98193 0.58012 0.0
C1286 C 0.38196 0.97826 0.5326 0.0
C1287 C 0.39573 0.98531 0.49421 0.0
C1288 C 0.4161 0.99621 0.50317 0.0
C1289 C 0.48012 0.9983 0.68086 0.0
C1290 C 0.43309 0.94917 0.64506 0.0
C1291 C 0.49497 0.94502 0.63002 0.0
C1292 C 0.51381 0.94463 0.64364 0.0
C1293 C 0.52144 0.93551 0.61275 0.0
C1294 C 0.53745 0.93274 0.62652 0.0
C1295 C 0.54674 0.939 0.67199 0.0
C1296 C 0.53911 0.94823 0.70282 0.0
C1297 C 0.523 0.95087 0.68912 0.0
C1298 C 0.44753 0.95182 0.53237 0.0
C1299 C 0.50578 1.00657 0.55957 0.0
O1300 O 0.4497 1.01113 0.60591 0.0
O1301 O 0.45357 1.00187 0.53458 0.0
O1302 O 0.46324 0.99747 0.67402 0.0
O1303 O 0.48476 0.99314 0.64031 0.0
O1304 O 0.4338 0.96423 0.62074 0.0
O1305 O 0.44958 0.94819 0.65125 0.0
O1306 O 0.49263 0.94907 0.58544 0.0
O1307 O 0.48634 0.95128 0.66072 0.0
O1308 O 0.45699 0.94264 0.54472 0.0
O1309 O 0.45624 0.96662 0.56031 0.0
O1310 O 0.50306 0.98885 0.57164 0.0
O1311 O 0.49118 1.01068 0.56584 0.0
H1312 H 0.41443 0.99495 0.62617 0.0
H1313 H 0.37954 0.97741 0.61111 0.0
H1314 H 0.39081 0.98245 0.45718 0.0
H1315 H 0.42632 1.00124 0.47295 0.0
H1316 H 0.51471 0.93008 0.57779 0.0
H1317 H 0.54264 0.92576 0.60105 0.0
H1318 H 0.54527 0.95308 0.73847 0.0
H1319 H 0.51753 0.95755 0.71474 0.0
La1320 La 0.17953 0.4317 0.28664 0.0
La1321 La 0.22051 0.45858 0.27035 0.0
C1322 C 0.14537 0.4108 0.32299 0.0
C1323 C 0.13034 0.41617 0.33548 0.0
C1324 C 0.1345 0.43579 0.32888 0.0
C1325 C 0.11921 0.44015 0.32794 0.0
C1326 C 0.09954 0.42491 0.33399 0.0
C1327 C 0.09566 0.40573 0.34625 0.0
C1328 C 0.11099 0.40134 0.34658 0.0
C1329 C 0.18884 0.42425 0.19785 0.0
C1330 C 0.19059 0.47288 0.2378 0.0
C1331 C 0.25776 0.47638 0.24792 0.0
C1332 C 0.27746 0.47675 0.23854 0.0
C1333 C 0.29206 0.4831 0.27493 0.0
C1334 C 0.31154 0.48672 0.26554 0.0
C1335 C 0.31769 0.48425 0.21908 0.0
C1336 C 0.30289 0.47726 0.18283 0.0
C1337 C 0.28334 0.47379 0.1922 0.0
C1338 C 0.20455 0.47118 0.34348 0.0
C1339 C 0.20911 0.4163 0.31721 0.0
O1340 O 0.14919 0.41149 0.27706 0.0
O1341 O 0.16161 0.41934 0.34817 0.0
O1342 O 0.17462 0.42763 0.20898 0.0
O1343 O 0.19962 0.42905 0.23632 0.0
O1344 O 0.17819 0.4584 0.26671 0.0
O1345 O 0.20773 0.47381 0.22624 0.0
O1346 O 0.25071 0.47393 0.29192 0.0
O1347 O 0.24326 0.46901 0.21633 0.0
O1348 O 0.21877 0.4824 0.31402 0.0
O1349 O 0.20123 0.45371 0.33331 0.0
O1350 O 0.22349 0.43452 0.30632 0.0
O1351 O 0.19038 0.41164 0.31078 0.0
H1352 H 0.14936 0.44746 0.32081 0.0
H1353 H 0.12254 0.455 0.31821 0.0
H1354 H 0.08055 0.39364 0.35042 0.0
H1355 H 0.10752 0.38613 0.35179 0.0
H1356 H 0.28864 0.48593 0.31095 0.0
H1357 H 0.32194 0.49171 0.2952 0.0
H1358 H 0.30661 0.47519 0.14643 0.0
H1359 H 0.27298 0.46932 0.16254 0.0
La1360 La 0.67663 0.77121 0.28812 0.0
La1361 La 0.64891 0.78743 0.27426 0.0
C1362 C 0.69551 0.75657 0.32728 0.0
C1363 C 0.68915 0.73599 0.34039 0.0
C1364 C 0.70312 0.73041 0.35187 0.0
C1365 C 0.69737 0.7103 0.35455 0.0
C1366 C 0.67766 0.6956 0.34449 0.0
C1367 C 0.66342 0.70129 0.33709 0.0
C1368 C 0.66921 0.72137 0.33498 0.0
C1369 C 0.68378 0.7898 0.20264 0.0
C1370 C 0.63388 0.74239 0.24173 0.0
C1371 C 0.63179 0.80661 0.24536 0.0
C1372 C 0.63244 0.82603 0.23095 0.0
C1373 C 0.62782 0.83686 0.2647 0.0
C1374 C 0.62567 0.85332 0.25091 0.0
C1375 C 0.628 0.85989 0.20248 0.0
C1376 C 0.63277 0.84909 0.1688 0.0
C1377 C 0.63481 0.83257 0.18259 0.0
C1378 C 0.63596 0.75986 0.35063 0.0
C1379 C 0.6916 0.81651 0.32239 0.0
O1380 O 0.69572 0.75967 0.28086 0.0
O1381 O 0.68708 0.76485 0.35145 0.0
O1382 O 0.68295 0.773 0.21124 0.0
O1383 O 0.67857 0.79484 0.24236 0.0
O1384 O 0.64935 0.74411 0.26604 0.0
O1385 O 0.63223 0.75851 0.23372 0.0
O1386 O 0.63474 0.80394 0.29057 0.0
O1387 O 0.63815 0.79754 0.21625 0.0
O1388 O 0.62823 0.77053 0.33714 0.0
O1389 O 0.65084 0.7667 0.32256 0.0
O1390 O 0.67416 0.81393 0.30848 0.0
O1391 O 0.69544 0.80167 0.31828 0.0
H1392 H 0.71864 0.74153 0.35558 0.0
H1393 H 0.70874 0.70634 0.35949 0.0
H1394 H 0.64826 0.69031 0.32844 0.0
H1395 H 0.65847 0.72554 0.32509 0.0
H1396 H 0.6254 0.83234 0.30216 0.0
H1397 H 0.62222 0.86094 0.27866 0.0
H1398 H 0.63442 0.853 0.13098 0.0
H1399 H 0.63783 0.8246 0.15486 0.0
La1400 La 0.33288 0.92478 0.2935 0.0
La1401 La 0.32068 0.88535 0.26989 0.0
C1402 C 0.34574 0.95693 0.33943 0.0
C1403 C 0.36622 0.97139 0.35269 0.0
C1404 C 0.38103 0.96611 0.35023 0.0
C1405 C 0.40102 0.98065 0.35348 0.0
C1406 C 0.4064 1.0006 0.36014 0.0
C1407 C 0.39147 1.00561 0.36605 0.0
C1408 C 0.37153 0.99113 0.36161 0.0
C1409 C 0.31707 0.91827 0.20467 0.0
C1410 C 0.364 0.9171 0.2365 0.0
C1411 C 0.302 0.84848 0.2437 0.0
C1412 C 0.28275 0.82865 0.23533 0.0
C1413 C 0.27533 0.81373 0.2712 0.0
C1414 C 0.25954 0.79418 0.26208 0.0
C1415 C 0.2502 0.78832 0.21646 0.0
C1416 C 0.25721 0.80342 0.18084 0.0
C1417 C 0.27321 0.82304 0.18991 0.0
C1418 C 0.35045 0.90011 0.33914 0.0
C1419 C 0.28844 0.89305 0.32267 0.0
O1420 O 0.3423 0.95526 0.29323 0.0
O1421 O 0.33822 0.9396 0.36009 0.0
O1422 O 0.33374 0.93334 0.21824 0.0
O1423 O 0.31079 0.90579 0.24022 0.0
O1424 O 0.36145 0.92858 0.26768 0.0
O1425 O 0.34819 0.89983 0.22413 0.0
O1426 O 0.30746 0.85483 0.28784 0.0
O1427 O 0.30791 0.86352 0.21387 0.0
O1428 O 0.34732 0.88727 0.30544 0.0
O1429 O 0.33564 0.90299 0.33532 0.0
O1430 O 0.2942 0.88008 0.31205 0.0
O1431 O 0.3012 0.91222 0.31583 0.0
H1432 H 0.3772 0.95094 0.34296 0.0
H1433 H 0.41226 0.97651 0.34808 0.0
H1434 H 0.39527 1.02097 0.37013 0.0
H1435 H 0.36032 0.99548 0.36298 0.0
H1436 H 0.28218 0.81697 0.30647 0.0
H1437 H 0.25475 0.78353 0.29124 0.0
H1438 H 0.25084 0.79992 0.14506 0.0
H1439 H 0.27847 0.83368 0.16066 0.0
H1440 H 0.26229 0.08527 0.0694 0.0
H1441 H 0.31593 0.11672 0.98503 0.0
H1442 H 0.31274 0.08527 0.95948 0.0
H1443 H 0.29469 0.04828 0.95921 0.0
H1444 H 0.24126 1.01658 0.04376 0.0
H1445 H 0.24467 0.04814 0.07086 0.0
C1446 C 0.27347 0.08543 0.04574 0.0
C1447 C 0.28931 0.10403 0.02919 0.0
C1448 C 0.27163 0.06688 0.03091 0.0
C1449 C 0.30329 0.10317 0.99804 0.0
C1450 C 0.30157 0.08496 0.98348 0.0
C1451 C 0.28381 0.04815 0.98389 0.0
C1452 C 0.2677 1.02958 0.99929 0.0
C1453 C 0.28577 0.06664 0.99935 0.0
C1454 C 0.25385 1.03026 0.03108 0.0
C1455 C 0.25579 0.04849 0.04664 0.0
H1456 H 1.05946 0.27001 0.94136 0.0
H1457 H 0.08994 0.25571 0.04951 0.0
H1458 H 1.05839 0.22783 0.07674 0.0
H1459 H 1.02169 0.20627 0.0694 0.0
H1460 H 0.99113 0.22065 0.9614 0.0
H1461 H 1.02251 0.24879 0.93524 0.0
C1462 C 1.05929 0.26099 0.97128 0.0
C1463 C 0.07762 0.26553 0.99327 0.0
C1464 C 1.04073 0.24445 0.98688 0.0
C1465 C 0.07651 0.25307 0.03156 0.0
C1466 C 1.05827 0.23689 0.04728 0.0
C1467 C 1.02166 0.21555 0.04041 0.0
C1468 C 1.00331 0.21054 1.01766 0.0
C1469 C 1.04017 0.23224 0.0252 0.0
C1470 C 1.00446 0.22323 0.97965 0.0
C1471 C 1.02265 0.2397 0.96464 0.0
H1472 H 0.85633 0.8539 0.03496 0.0
H1473 H 0.82765 0.80608 0.9321 0.0
H1474 H 0.85223 0.79623 0.94682 0.0
H1475 H 0.88238 0.80052 0.98869 0.0
H1476 H 0.91102 0.84771 0.09291 0.0
H1477 H 0.88648 0.85784 0.07824 0.0
C1478 C 0.8553 0.84123 1.01591 0.0
C1479 C 0.83956 0.83087 0.98234 0.0
C1480 C 0.86978 0.83526 0.0249 0.0
C1481 C 0.83909 0.81452 0.9584 0.0
C1482 C 0.85338 0.80878 0.9667 0.0
C1483 C 0.88343 0.81309 1.00826 0.0
C1484 C 0.89898 0.82305 0.04247 0.0
C1485 C 0.8689 0.81897 0.99982 0.0
C1486 C 0.8994 0.83925 0.06707 0.0
C1487 C 0.88525 0.84525 0.05842 0.0
H1488 H 0.06828 0.27749 0.59693 0.0
H1489 H 1.03787 0.22617 0.50466 0.0
H1490 H 0.06958 0.23052 0.47725 0.0
H1491 H 0.10642 0.24814 0.47998 0.0
H1492 H 0.13714 0.29947 0.57217 0.0
H1493 H 0.10549 0.29557 0.59865 0.0
C1494 C 0.06848 0.26727 0.57059 0.0
C1495 C 1.05011 0.25143 0.55319 0.0
C1496 C 0.08718 0.26971 0.55487 0.0
C1497 C 1.0513 0.2385 0.51916 0.0
C1498 C 0.06965 0.24097 0.50329 0.0
C1499 C 0.10641 0.2587 0.50553 0.0
C1500 C 0.12487 0.27411 0.52375 0.0
C1501 C 0.08779 0.25643 0.52094 0.0
C1502 C 0.12372 0.2872 0.55753 0.0
C1503 C 0.10538 0.28508 0.57268 0.0
H1504 H 0.81903 0.85854 0.54037 0.0
H1505 H 0.87436 0.89519 0.46634 0.0
H1506 H 0.88461 0.87079 0.48245 0.0
H1507 H 0.87846 0.83858 0.51904 0.0
H1508 H 0.82254 0.80188 0.59103 0.0
H1509 H 0.81251 0.82622 0.5746 0.0
C1510 C 0.83339 0.86135 0.52777 0.0
C1511 C 0.84568 0.87912 0.50162 0.0
C1512 C 0.83933 0.8469 0.53691 0.0
C1513 C 0.86418 0.88184 0.48576 0.0
C1514 C 0.87021 0.86777 0.49527 0.0
C1515 C 0.864 0.83573 0.5308 0.0
C1516 C 0.85146 0.81789 0.55656 0.0
C1517 C 0.85796 0.85011 0.52081 0.0
C1518 C 0.8328 0.81509 0.57126 0.0
C1519 C 0.82691 0.82921 0.56189 0.0
H1520 H 0.21825 1.00446 0.48239 0.0
H1521 H 0.24364 0.9732 0.55406 0.0
H1522 H 0.27208 1.00472 0.57817 0.0
H1523 H 0.29023 1.04162 0.58087 0.0
H1524 H 0.26547 0.07328 0.50895 0.0
H1525 H 0.23704 1.04167 0.4832 0.0
C1526 C 0.23 1.00437 0.50296 0.0
C1527 C 0.22811 0.98579 0.51645 0.0
C1528 C 0.2468 1.02296 0.51696 0.0
C1529 C 0.24389 0.98672 0.54361 0.0
C1530 C 0.26046 1.00497 0.55731 0.0
C1531 C 0.27875 1.04175 0.55921 0.0
C1532 C 0.28044 0.06031 0.54696 0.0
C1533 C 0.26213 1.02325 0.54454 0.0
C1534 C 0.26499 0.05961 0.51909 0.0
C1535 C 0.24854 1.04135 0.50433 0.0
H1536 H 0.87776 0.06094 1.01357 0.0
H1537 H 0.82244 1.04227 0.08797 0.0
H1538 H 0.81235 1.00763 0.07295 0.0
H1539 H 0.81884 0.98157 0.03945 0.0
H1540 H 0.87379 1.00002 0.96372 0.0
H1541 H 0.88387 1.03477 0.97815 0.0
C1542 C 0.8634 0.04937 0.02617 0.0
C1543 C 0.85102 0.05486 0.05196 0.0
C1544 C 0.85741 1.02891 1.0172 0.0
C1545 C 0.83251 1.03912 0.06792 0.0
C1546 C 0.82663 1.019 0.05943 0.0
C1547 C 0.83307 0.9931 0.02611 0.0
C1548 C 0.84531 0.98753 0.99996 0.0
C1549 C 0.83893 1.01356 0.03433 0.0
C1550 C 0.86365 1.00326 0.98314 0.0
C1551 C 0.86959 1.02341 0.99167 0.0
H1552 H 0.12265 0.85873 0.02649 0.0
H1553 H 0.10527 0.90092 0.98239 0.0
H1554 H 0.07064 0.87683 1.00022 0.0
H1555 H 1.04433 0.84331 0.03048 0.0
H1556 H 1.06221 0.80116 0.07165 0.0
H1557 H 0.09654 0.82517 0.05337 0.0
C1558 C 0.11138 0.8628 0.02084 0.0
C1559 C 0.11717 0.88204 1.00266 0.0
C1560 C 0.09104 0.84857 0.03088 0.0
C1561 C 0.10179 0.88643 0.99554 0.0
C1562 C 0.08172 0.87253 1.00603 0.0
C1563 C 1.05564 0.83924 0.03495 0.0
C1564 C 1.05008 0.82003 0.0532 0.0
C1565 C 0.07599 0.85343 0.02376 0.0
C1566 C 0.0655 0.81559 0.05858 0.0
C1567 C 0.08543 0.82946 0.04791 0.0
H1568 H 0.29187 0.27703 0.09741 0.0
H1569 H 0.27544 0.22902 0.99647 0.0
H1570 H 0.24755 0.2324 0.96904 0.0
H1571 H 0.22658 0.24812 0.97447 0.0
H1572 H 0.24304 0.29642 0.07475 0.0
H1573 H 0.27131 0.29353 0.10105 0.0
C1574 C 0.28237 0.26741 0.06902 0.0
C1575 C 0.28625 0.25278 0.04918 0.0
C1576 C 0.26586 0.2693 0.05324 0.0
C1577 C 0.27325 0.24046 1.01276 0.0
C1578 C 0.25708 0.24235 0.99692 0.0
C1579 C 0.23636 0.25825 1.00175 0.0
C1580 C 0.23197 0.27242 0.02241 0.0
C1581 C 0.25305 0.25662 1.01697 0.0
C1582 C 0.24522 0.28502 0.05828 0.0
C1583 C 0.26173 0.2835 0.07334 0.0
H1584 H 0.08106 0.85599 0.53346 0.0
H1585 H 1.06276 0.80557 0.43924 0.0
H1586 H 1.0281 0.79519 0.45432 0.0
H1587 H 1.00193 0.79997 0.49386 0.0
H1588 H 1.01997 0.85002 0.58914 0.0
H1589 H 1.05472 0.86043 0.57437 0.0
C1590 C 0.06956 0.84264 0.51641 0.0
C1591 C 0.07517 0.83169 0.48517 0.0
C1592 C 1.04907 0.83645 0.52548 0.0
C1593 C 1.05951 0.81447 0.46367 0.0
C1594 C 1.03939 0.80844 0.47218 0.0
C1595 C 1.01336 0.81322 0.51143 0.0
C1596 C 1.00764 0.82392 0.5432 0.0
C1597 C 1.03383 0.81927 0.50292 0.0
C1598 C 1.02328 0.841 0.5653 0.0
C1599 C 1.04344 0.84715 0.55657 0.0
H1600 H 0.30796 0.22971 0.51034 0.0
H1601 H 0.2528 0.19423 0.58612 0.0
H1602 H 0.24286 0.21873 0.56845 0.0
H1603 H 0.24919 0.25061 0.52979 0.0
H1604 H 0.30477 0.28604 0.45526 0.0
H1605 H 0.31465 0.26172 0.47382 0.0
C1606 C 0.29371 0.22718 0.523 0.0
C1607 C 0.28137 0.20971 0.55013 0.0
C1608 C 0.28793 0.24166 0.51281 0.0
C1609 C 0.26302 0.20735 0.56602 0.0
C1610 C 0.25717 0.22147 0.55559 0.0
C1611 C 0.26355 0.25318 0.51792 0.0
C1612 C 0.27605 0.27065 0.49092 0.0
C1613 C 0.26944 0.2388 0.52897 0.0
C1614 C 0.29457 0.27312 0.47604 0.0
C1615 C 0.30034 0.25902 0.48661 0.0
H1616 H 0.88341 0.10311 0.49329 0.0
H1617 H 0.91749 0.08442 0.57769 0.0
H1618 H 0.89268 0.04964 0.56354 0.0
H1619 H 0.86075 1.02349 0.52591 0.0
H1620 H 0.82682 1.04309 0.44338 0.0
H1621 H 0.85159 0.07744 0.45787 0.0
C1622 C 0.88557 0.09152 0.50855 0.0
C1623 C 0.90269 0.09698 0.53694 0.0
C1624 C 0.87092 0.07114 0.50058 0.0
C1625 C 0.90462 0.08121 0.55633 0.0
C1626 C 0.89032 0.06106 0.54801 0.0
C1627 C 0.85862 1.03521 0.51143 0.0
C1628 C 0.84141 1.03001 0.48341 0.0
C1629 C 0.87326 0.05566 0.5202 0.0
C1630 C 0.83951 0.04596 0.46509 0.0
C1631 C 0.85387 0.06595 0.47329 0.0
H1632 H 0.97289 0.43697 0.32957 0.0
H1633 H 0.9217 0.41728 0.4217 0.0
H1634 H 0.91268 0.3828 0.40797 0.0
H1635 H 0.91859 0.35721 0.3687 0.0
H1636 H 0.97002 0.37692 0.27741 0.0
H1637 H 0.97921 0.41143 0.29171 0.0
C1638 C 0.9597 0.42522 0.34667 0.0
C1639 C 0.94822 0.43038 0.37726 0.0
C1640 C 0.95447 0.40491 0.33875 0.0
C1641 C 0.93126 0.41439 0.3988 0.0
C1642 C 0.92593 0.39438 0.39068 0.0
C1643 C 0.93194 0.36899 0.35224 0.0
C1644 C 0.94352 0.36387 0.322 0.0
C1645 C 0.93737 0.38931 0.36078 0.0
C1646 C 0.96068 0.37984 0.30108 0.0
C1647 C 0.966 0.39985 0.30913 0.0
H1648 H 0.7471 0.57863 0.35879 0.0
H1649 H 0.72794 0.61357 0.279 0.0
H1650 H 0.69353 0.58894 0.29401 0.0
H1651 H 0.66768 0.55688 0.32923 0.0
H1652 H 0.68618 0.52182 0.41046 0.0
H1653 H 0.72088 0.54654 0.39594 0.0
C1654 C 0.73547 0.58102 0.34497 0.0
C1655 C 0.74083 0.59849 0.31753 0.0
C1656 C 0.71501 0.56644 0.35405 0.0
C1657 C 0.72496 0.60068 0.30015 0.0
C1658 C 0.70493 0.58639 0.3087 0.0
C1659 C 0.67919 0.55447 0.34376 0.0
C1660 C 0.67361 0.53705 0.37149 0.0
C1661 C 0.6996 0.56909 0.33542 0.0
C1662 C 0.68937 0.53488 0.3898 0.0
C1663 C 0.70952 0.54914 0.3812 0.0
H1664 H 0.5003 0.14427 0.28621 0.0
H1665 H 0.51643 0.19089 0.39112 0.0
H1666 H 0.54376 0.18664 0.41863 0.0
H1667 H 0.56456 0.1708 0.41191 0.0
H1668 H 0.54877 0.12414 0.30713 0.0
H1669 H 0.52077 0.12759 0.28111 0.0
C1670 C 0.50959 0.15337 0.31551 0.0
C1671 C 0.50578 0.16792 0.33638 0.0
C1672 C 0.52589 0.15106 0.33119 0.0
C1673 C 0.51855 0.17956 0.37397 0.0
C1674 C 0.53442 0.17717 0.38985 0.0
C1675 C 0.55498 0.16113 0.38371 0.0
C1676 C 0.5595 0.14725 0.36179 0.0
C1677 C 0.53847 0.16311 0.36859 0.0
C1678 C 0.5465 0.13528 0.32471 0.0
C1679 C 0.53013 0.13713 0.30979 0.0
H1680 H 0.79094 0.61956 0.87844 0.0
H1681 H 0.77265 0.56635 0.79489 0.0
H1682 H 0.73793 0.55601 0.80996 0.0
H1683 H 0.71168 0.56141 0.84812 0.0
H1684 H 0.73031 0.61502 0.93033 0.0
H1685 H 0.76488 0.62535 0.91473 0.0
C1686 C 0.77946 0.60565 0.86351 0.0
C1687 C 0.7851 0.59399 0.83497 0.0
C1688 C 0.75902 0.59964 0.87212 0.0
C1689 C 0.7694 0.57606 0.81619 0.0
C1690 C 0.74925 0.56997 0.82509 0.0
C1691 C 0.72323 0.57545 0.86236 0.0
C1692 C 0.71772 0.5873 0.89052 0.0
C1693 C 0.7437 0.58159 0.853 0.0
C1694 C 0.73346 0.60539 0.90843 0.0
C1695 C 0.75355 0.61139 0.89961 0.0
H1696 H 0.54288 0.1718 0.85006 0.0
H1697 H 0.49154 0.139 0.94098 0.0
H1698 H 0.4812 0.16331 0.92564 0.0
H1699 H 0.48632 0.19457 0.8868 0.0
H1700 H 0.53729 0.22711 0.79463 0.0
H1701 H 0.54759 0.20273 0.80967 0.0
C1702 C 0.52931 0.16977 0.86626 0.0
C1703 C 0.51813 0.15304 0.89679 0.0
C1704 C 0.52314 0.18409 0.85699 0.0
C1705 C 0.50064 0.15128 0.91717 0.0
C1706 C 0.49463 0.16541 0.9085 0.0
C1707 C 0.49974 0.19648 0.86995 0.0
C1708 C 0.51074 0.21311 0.83894 0.0
C1709 C 0.50573 0.18201 0.8786 0.0
C1710 C 0.52804 0.21466 0.81783 0.0
C1711 C 0.53412 0.2006 0.82672 0.0
H1712 H 0.91243 0.31517 0.87667 0.0
H1713 H 0.87697 0.33518 0.80306 0.0
H1714 H 0.90195 0.36965 0.81932 0.0
H1715 H 0.93429 0.39517 0.85607 0.0
H1716 H 0.96971 0.37469 0.92824 0.0
H1717 H 0.94486 0.34043 0.91131 0.0
C1718 C 0.91001 0.32697 0.86419 0.0
C1719 C 0.8924 0.32192 0.83807 0.0
C1720 C 0.92477 0.34725 0.87353 0.0
C1721 C 0.89018 0.338 0.82239 0.0
C1722 C 0.90458 0.35801 0.832 0.0
C1723 C 0.93675 0.38329 0.86772 0.0
C1724 C 0.95436 0.38817 0.89369 0.0
C1725 C 0.92207 0.36299 0.85755 0.0
C1726 C 0.95667 0.37202 0.90833 0.0
C1727 C 0.94227 0.35211 0.89867 0.0
H1728 H 0.48562 0.31481 0.38002 0.0
H1729 H 0.53861 0.33416 0.29489 0.0
H1730 H 0.54795 0.36875 0.30868 0.0
H1731 H 0.54181 0.39445 0.3465 0.0
H1732 H 0.48859 0.37486 0.43091 0.0
H1733 H 0.47908 0.34036 0.4161 0.0
C1734 C 0.49927 0.32651 0.36448 0.0
C1735 C 0.51118 0.32128 0.33589 0.0
C1736 C 0.5047 0.34681 0.37248 0.0
C1737 C 0.52874 0.33717 0.31622 0.0
C1738 C 0.53425 0.35721 0.32439 0.0
C1739 C 0.52801 0.38269 0.36126 0.0
C1740 C 0.51603 0.38781 0.38985 0.0
C1741 C 0.5224 0.36236 0.35247 0.0
C1742 C 0.49828 0.3719 0.40867 0.0
C1743 C 0.49276 0.3519 0.4003 0.0
H1744 H 0.7333 0.1487 0.42134 0.0
H1745 H 0.70256 0.17135 0.33709 0.0
H1746 H 0.73435 0.19959 0.3118 0.0
H1747 H 0.77143 0.21893 0.31473 0.0
H1748 H 0.80192 0.19591 0.39905 0.0
H1749 H 0.77025 0.16755 0.42274 0.0
C1750 C 0.73343 0.15967 0.39706 0.0
C1751 C 0.71503 0.1574 0.38119 0.0
C1752 C 0.75206 0.17627 0.38272 0.0
C1753 C 0.71607 0.17224 0.35007 0.0
C1754 C 0.73445 0.1886 0.33556 0.0
C1755 C 0.77133 0.20771 0.33798 0.0
C1756 C 0.78975 0.21027 0.35505 0.0
C1757 C 0.75265 0.19094 0.35175 0.0
C1758 C 0.78854 0.19517 0.38565 0.0
C1759 C 0.7702 0.17861 0.39914 0.0
H1760 H 0.91084 0.61827 0.37893 0.0
H1761 H 0.87666 0.56586 0.29239 0.0
H1762 H 0.90093 0.55539 0.30706 0.0
H1763 H 0.93236 0.56046 0.3456 0.0
H1764 H 0.96644 0.61325 0.43104 0.0
H1765 H 0.94233 0.62366 0.41581 0.0
C1766 C 0.90853 0.60449 0.36324 0.0
C1767 C 0.89148 0.59314 0.33397 0.0
C1768 C 0.92292 0.5984 0.37164 0.0
C1769 C 0.88944 0.57538 0.31427 0.0
C1770 C 0.90344 0.5692 0.32295 0.0
C1771 C 0.93469 0.57434 0.36067 0.0
C1772 C 0.95186 0.58596 0.38945 0.0
C1773 C 0.92038 0.58054 0.35157 0.0
C1774 C 0.95393 0.60383 0.40842 0.0
C1775 C 0.93988 0.60988 0.39986 0.0
H1776 H 0.74902 0.19226 0.86218 0.0
H1777 H 0.72936 0.13871 0.77922 0.0
H1778 H 0.69492 0.12894 0.79527 0.0
H1779 H 0.66937 0.1354 0.83196 0.0
H1780 H 0.68882 0.18878 0.91575 0.0
H1781 H 0.72332 0.19835 0.9006 0.0
C1782 C 0.73727 0.17835 0.84788 0.0
C1783 C 0.74239 0.1663 0.81941 0.0
C1784 C 0.71694 0.17264 0.85737 0.0
C1785 C 0.72644 0.14842 0.80137 0.0
C1786 C 0.70646 0.14277 0.81044 0.0
C1787 C 0.68107 0.14919 0.84693 0.0
C1788 C 0.67583 0.16112 0.87557 0.0
C1789 C 0.70137 0.15476 0.83818 0.0
C1790 C 0.69177 0.17886 0.8944 0.0
C1791 C 0.71179 0.18451 0.88544 0.0
H1792 H 0.91799 0.58158 0.87867 0.0
H1793 H 0.96182 0.60689 0.76532 0.0
H1794 H 0.97165 0.58233 0.77946 0.0
H1795 H 0.96857 0.55318 0.82351 0.0
H1796 H 0.92512 0.5273 0.93727 0.0
H1797 H 0.91497 0.55193 0.9236 0.0
C1798 C 0.92971 0.58181 0.85705 0.0
C1799 C 0.93913 0.59679 0.82105 0.0
C1800 C 0.93564 0.56721 0.86546 0.0
C1801 C 0.95427 0.59622 0.79385 0.0
C1802 C 0.95997 0.58189 0.80171 0.0
C1803 C 0.95679 0.55272 0.84538 0.0
C1804 C 0.94793 0.53795 0.88192 0.0
C1805 C 0.95086 0.56724 0.8374 0.0
C1806 C 0.93276 0.53831 0.90949 0.0
C1807 C 0.92673 0.55251 0.90142 0.0
H1808 H 0.54775 0.43725 0.83423 0.0
H1809 H 0.58259 0.41781 0.9129 0.0
H1810 H 0.55765 0.38321 0.8978 0.0
H1811 H 0.52552 0.35742 0.86077 0.0
H1812 H 0.4907 0.37735 0.78354 0.0
H1813 H 0.51552 0.41173 0.79924 0.0
C1814 C 0.55004 0.42554 0.84807 0.0
C1815 C 0.56746 0.43079 0.87523 0.0
C1816 C 0.5353 0.4052 0.83942 0.0
C1817 C 0.56953 0.41483 0.89268 0.0
C1818 C 0.55515 0.39476 0.88376 0.0
C1819 C 0.52319 0.36921 0.84773 0.0
C1820 C 0.50574 0.36412 0.8208 0.0
C1821 C 0.53785 0.38958 0.85717 0.0
C1822 C 0.50359 0.38017 0.80437 0.0
C1823 C 0.51798 0.40014 0.81326 0.0
H1824 H 0.64172 0.77119 0.655 0.0
H1825 H 0.59493 0.75311 0.76023 0.0
H1826 H 0.58506 0.71835 0.74687 0.0
H1827 H 0.58911 0.69207 0.70456 0.0
H1828 H 0.63657 0.71041 0.60097 0.0
H1829 H 0.64632 0.74507 0.61433 0.0
C1830 C 0.62931 0.75972 0.67503 0.0
C1831 C 0.61931 0.76538 0.70907 0.0
C1832 C 0.62366 0.7393 0.66749 0.0
C1833 C 0.60332 0.74978 0.73442 0.0
C1834 C 0.59752 0.72963 0.72657 0.0
C1835 C 0.60171 0.70359 0.68514 0.0
C1836 C 0.612 0.69803 0.65178 0.0
C1837 C 0.60754 0.72405 0.69326 0.0
C1838 C 0.62823 0.71367 0.62715 0.0
C1839 C 0.63387 0.73378 0.63464 0.0
H1840 H 0.35679 0.87131 0.73058 0.0
H1841 H 0.32618 0.89476 0.6484 0.0
H1842 H 0.3579 0.92292 0.62355 0.0
H1843 H 0.39487 0.94149 0.62407 0.0
H1844 H 0.42556 0.91794 0.70532 0.0
H1845 H 0.39378 0.88997 0.73141 0.0
C1846 C 0.35689 0.88258 0.70754 0.0
C1847 C 0.33849 0.88034 0.6916 0.0
C1848 C 0.37553 0.8991 0.693 0.0
C1849 C 0.33961 0.8954 0.66107 0.0
C1850 C 0.35796 0.9118 0.64692 0.0
C1851 C 0.39472 0.93036 0.6478 0.0
C1852 C 0.41308 0.93228 0.6627 0.0
C1853 C 0.3761 0.91389 0.66248 0.0
C1854 C 0.41206 0.91726 0.69306 0.0
C1855 C 0.3937 0.90108 0.70808 0.0
H1856 H 0.16922 0.48016 0.62343 0.0
H1857 H 0.18939 0.53161 0.7147 0.0
H1858 H 0.21747 0.52811 0.74078 0.0
H1859 H 0.2374 0.51101 0.73673 0.0
H1860 H 0.21681 0.45928 0.6457 0.0
H1861 H 0.18859 0.46251 0.62109 0.0
C1862 C 0.17958 0.49053 0.64944 0.0
C1863 C 0.17666 0.50612 0.667 0.0
C1864 C 0.1961 0.48852 0.66434 0.0
C1865 C 0.19078 0.5194 0.70031 0.0
C1866 C 0.20705 0.51742 0.71531 0.0
C1867 C 0.22675 0.50025 0.7118 0.0
C1868 C 0.22998 0.48495 0.69315 0.0
C1869 C 0.21004 0.5021 0.69749 0.0
C1870 C 0.21557 0.47152 0.66041 0.0
C1871 C 0.19908 0.47325 0.64636 0.0
H1872 H 0.37919 0.89683 0.18096 0.0
H1873 H 0.3982 0.95094 0.26151 0.0
H1874 H 0.43268 0.96073 0.24707 0.0
H1875 H 0.45858 0.95443 0.21228 0.0
H1876 H 0.44006 0.90078 0.13037 0.0
H1877 H 0.40537 0.89091 0.1442 0.0
C1878 C 0.3908 0.91088 0.195 0.0
C1879 C 0.3854 0.923 0.22238 0.0
C1880 C 0.41125 0.91673 0.18632 0.0
C1881 C 0.40123 0.94107 0.24021 0.0
C1882 C 0.42128 0.94678 0.23205 0.0
C1883 C 0.44705 0.94051 0.19744 0.0
C1884 C 0.45263 0.92861 0.16974 0.0
C1885 C 0.42664 0.93477 0.20535 0.0
C1886 C 0.43687 0.91069 0.15103 0.0
C1887 C 0.41673 0.90487 0.15923 0.0
H1888 H 0.15274 0.52951 0.20928 0.0
H1889 H 0.20691 0.56522 0.13006 0.0
H1890 H 0.21727 0.54086 0.14571 0.0
H1891 H 0.21148 0.50882 0.1832 0.0
H1892 H 0.1566 0.47321 0.26031 0.0
H1893 H 0.14662 0.49757 0.24455 0.0
C1894 C 0.16688 0.53215 0.19544 0.0
C1895 C 0.17878 0.54964 0.16798 0.0
C1896 C 0.17289 0.51774 0.20436 0.0
C1897 C 0.197 0.5521 0.15054 0.0
C1898 C 0.2031 0.53804 0.1598 0.0
C1899 C 0.19728 0.50624 0.19636 0.0
C1900 C 0.18503 0.48864 0.22337 0.0
C1901 C 0.19122 0.52065 0.18668 0.0
C1902 C 0.16668 0.4862 0.23969 0.0
C1903 C 0.1608 0.50033 0.23065 0.0
H1904 H 0.59665 0.72798 0.19482 0.0
H1905 H 0.63422 0.70784 0.25705 0.0
H1906 H 0.60942 0.67365 0.24079 0.0
H1907 H 0.5766 0.64825 0.209 0.0
H1908 H 0.53883 0.66763 0.14495 0.0
H1909 H 0.56364 0.7022 0.16118 0.0
C1910 C 0.59955 0.71619 0.2046 0.0
C1911 C 0.61782 0.72121 0.22749 0.0
C1912 C 0.58488 0.69584 0.19465 0.0
C1913 C 0.6207 0.70514 0.23959 0.0
C1914 C 0.60632 0.68523 0.23027 0.0
C1915 C 0.57363 0.65993 0.19866 0.0
C1916 C 0.55544 0.65469 0.17522 0.0
C1917 C 0.58826 0.68023 0.20794 0.0
C1918 C 0.5525 0.67063 0.16218 0.0
C1919 C 0.56681 0.69067 0.17179 0.0
H1920 H 0.16449 0.70894 0.75403 0.0
H1921 H 0.22029 0.74028 0.67831 0.0
H1922 H 0.21683 0.70864 0.65193 0.0
H1923 H 0.19837 0.67156 0.65115 0.0
H1924 H 0.14247 0.64037 0.72684 0.0
H1925 H 0.14578 0.67193 0.75208 0.0
C1926 C 0.1759 0.70897 0.73143 0.0
C1927 C 0.19268 0.72748 0.71824 0.0
C1928 C 0.17389 0.69043 0.7164 0.0
C1929 C 0.20719 0.72667 0.68925 0.0
C1930 C 0.20521 0.70839 0.67407 0.0
C1931 C 0.18674 0.6715 0.67281 0.0
C1932 C 0.17018 0.65295 0.68696 0.0
C1933 C 0.18867 0.69008 0.68746 0.0
C1934 C 0.15562 0.65388 0.71569 0.0
C1935 C 0.15742 0.67215 0.73005 0.0
H1936 H 0.44 0.54997 0.6472 0.0
H1937 H 0.4707 0.53075 0.74274 0.0
H1938 H 0.43914 0.50247 0.76768 0.0
H1939 H 0.40204 0.48246 0.76374 0.0
H1940 H 0.37151 0.50185 0.66828 0.0
H1941 H 0.40317 0.52975 0.64209 0.0
C1942 C 0.44002 0.5396 0.67317 0.0
C1943 C 0.45845 0.54324 0.69286 0.0
C1944 C 0.42142 0.52289 0.68765 0.0
C1945 C 0.4573 0.52919 0.72704 0.0
C1946 C 0.43901 0.51266 0.74129 0.0
C1947 C 0.4022 0.49269 0.73705 0.0
C1948 C 0.38381 0.48956 0.71838 0.0
C1949 C 0.42085 0.50926 0.72212 0.0
C1950 C 0.38496 0.50339 0.68371 0.0
C1951 C 0.40327 0.5196 0.66861 0.0
H1952 H 0.62513 0.9413 0.75589 0.0
H1953 H 0.60179 0.88638 0.67659 0.0
H1954 H 0.57385 0.89004 0.64967 0.0
H1955 H 0.55524 0.90862 0.64905 0.0
H1956 H 0.57892 0.96345 0.72926 0.0
H1957 H 0.6068 0.95983 0.75502 0.0
C1958 C 0.61407 0.9301 0.73245 0.0
C1959 C 0.61607 0.91355 0.71834 0.0
C1960 C 0.59768 0.93221 0.71722 0.0
C1961 C 0.60108 0.89931 0.68827 0.0
C1962 C 0.58493 0.90141 0.67277 0.0
C1963 C 0.5665 0.91993 0.67189 0.0
C1964 C 0.56434 0.93633 0.68703 0.0
C1965 C 0.58294 0.91779 0.68699 0.0
C1966 C 0.57942 0.95046 0.71724 0.0
C1967 C 0.59568 0.94848 0.73192 0.0
H1968 H 0.33365 0.46695 0.1563 0.0
H1969 H 0.3521 0.51498 0.25819 0.0
H1970 H 0.38671 0.52463 0.24457 0.0
H1971 H 0.4129 0.52014 0.20292 0.0
H1972 H 0.39428 0.4717 0.10216 0.0
H1973 H 0.35971 0.46206 0.11593 0.0
C1974 C 0.34514 0.47959 0.1756 0.0
C1975 C 0.33951 0.48994 0.2089 0.0
C1976 C 0.36557 0.4852 0.16776 0.0
C1977 C 0.35526 0.50623 0.23312 0.0
C1978 C 0.37538 0.51194 0.22506 0.0
C1979 C 0.40135 0.50735 0.18418 0.0
C1980 C 0.40688 0.49674 0.15151 0.0
C1981 C 0.38089 0.50159 0.19253 0.0
C1982 C 0.39112 0.48029 0.12782 0.0
C1983 C 0.37104 0.4747 0.13556 0.0
H1984 H 0.60373 0.87409 0.24082 0.0
H1985 H 0.64711 0.88713 0.12867 0.0
H1986 H 0.64355 0.91506 0.1022 0.0
H1987 H 0.62801 0.93645 0.10939 0.0
H1988 H 0.58451 0.92325 0.2211 0.0
H1989 H 0.58852 0.89562 0.24863 0.0
C1990 C 0.61262 0.88303 0.2108 0.0
C1991 C 0.62568 0.87779 0.1871 0.0
C1992 C 0.61055 0.89952 0.19531 0.0
C1993 C 0.63664 0.88998 0.14776 0.0
C1994 C 0.63473 0.9063 0.13255 0.0
C1995 C 0.61951 0.92771 0.14012 0.0
C1996 C 0.606 0.9325 0.16309 0.0
C1997 C 0.6217 0.91132 0.15582 0.0
C1998 C 0.59507 0.9204 0.2024 0.0
C1999 C 0.59734 0.90438 0.21829 0.0
H2000 H 0.21632 0.77286 0.15725 0.0
H2001 H 0.24714 0.75357 0.25197 0.0
H2002 H 0.22201 0.71897 0.2377 0.0
H2003 H 0.19073 0.69304 0.19727 0.0
H2004 H 0.16007 0.71295 0.10357 0.0
H2005 H 0.18513 0.7473 0.11824 0.0
C2006 C 0.21772 0.76119 0.17481 0.0
C2007 C 0.23406 0.76654 0.20626 0.0
C2008 C 0.20287 0.74083 0.16655 0.0
C2009 C 0.23492 0.75059 0.22836 0.0
C2010 C 0.22043 0.73049 0.21991 0.0
C2011 C 0.18937 0.70482 0.18025 0.0
C2012 C 0.17294 0.6997 0.14925 0.0
C2013 C 0.20419 0.72524 0.18909 0.0
C2014 C 0.17207 0.71576 0.12779 0.0
C2015 C 0.18663 0.73574 0.13607 0.0
H2016 H 0.39624 0.24703 0.17825 0.0
H2017 H 0.34689 0.18813 0.15309 0.0
H2018 H 0.36764 0.17383 0.17068 0.0
H2019 H 0.40012 0.17719 0.19421 0.0
H2020 H 0.44934 0.2358 0.22188 0.0
H2021 H 0.42881 0.25038 0.20258 0.0
C2022 C 0.38992 0.23106 0.17677 0.0
C2023 C 0.36958 0.21896 0.16412 0.0
C2024 C 0.40218 0.22254 0.18734 0.0
C2025 C 0.36221 0.19821 0.16259 0.0
C2026 C 0.37421 0.18982 0.17265 0.0
C2027 C 0.40649 0.19317 0.19558 0.0
C2028 C 0.42667 0.20516 0.20941 0.0
C2029 C 0.39429 0.20172 0.18504 0.0
C2030 C 0.4341 0.2259 0.21142 0.0
C2031 C 0.42223 0.23439 0.20038 0.0
H2032 H 0.8617 0.17279 0.17045 0.0
H2033 H 0.92036 0.18012 0.1716 0.0
H2034 H 0.93441 0.21491 0.19404 0.0
H2035 H 0.93066 0.24422 0.21313 0.0
H2036 H 0.87209 0.23706 0.21224 0.0
H2037 H 0.85792 0.20213 0.19032 0.0
C2038 C 0.87755 0.18189 0.17594 0.0
C2039 C 0.88974 0.17326 0.16922 0.0
C2040 C 0.88581 0.2024 0.18884 0.0
C2041 C 0.91032 0.18583 0.17635 0.0
C2042 C 0.91851 0.20599 0.18922 0.0
C2043 C 0.9148 0.23511 0.20798 0.0
C2044 C 0.90267 0.24382 0.2144 0.0
C2045 C 0.9065 0.2146 0.1954 0.0
C2046 C 0.88206 0.23126 0.20766 0.0
C2047 C 0.87382 0.21105 0.19508 0.0
H2048 H 0.87419 0.6696 0.22282 0.0
H2049 H 0.84982 0.70737 0.1914 0.0
H2050 H 0.88264 0.73423 0.16869 0.0
H2051 H 0.91896 0.74786 0.15711 0.0
H2052 H 0.94362 0.71037 0.18851 0.0
H2053 H 0.91076 0.68336 0.21135 0.0
C2054 C 0.87595 0.68364 0.21082 0.0
C2055 C 0.85894 0.68598 0.20903 0.0
C2056 C 0.89533 0.69951 0.19771 0.0
C2057 C 0.86214 0.70466 0.19345 0.0
C2058 C 0.88114 0.72026 0.18034 0.0
C2059 C 0.91728 0.73385 0.16916 0.0
C2060 C 0.93434 0.73163 0.17093 0.0
C2061 C 0.89796 0.718 0.18234 0.0
C2062 C 0.93124 0.71299 0.18658 0.0
C2063 C 0.91222 0.69733 0.19971 0.0
H2064 H 0.2453 0.41662 0.31803 0.0
H2065 H 0.18344 0.37897 0.35284 0.0
H2066 H 0.18976 0.35241 0.37669 0.0
H2067 H 0.21287 0.33912 0.3882 0.0
H2068 H 0.27461 0.37669 0.35169 0.0
H2069 H 0.26826 0.40322 0.32847 0.0
C2070 C 0.23315 0.40267 0.33106 0.0
C2071 C 0.2138 0.40026 0.33357 0.0
C2072 C 0.23686 0.38703 0.34449 0.0
C2073 C 0.19847 0.3817 0.3503 0.0
C2074 C 0.20209 0.3663 0.36403 0.0
C2075 C 0.22499 0.35304 0.37494 0.0
C2076 C 0.24433 0.35543 0.37194 0.0
C2077 C 0.22122 0.36865 0.36126 0.0
C2078 C 0.25957 0.37393 0.35464 0.0
C2079 C 0.25595 0.38935 0.34129 0.0
H2080 H 0.69199 0.85265 0.32489 0.0
H2081 H 0.72927 0.82764 0.35461 0.0
H2082 H 0.75657 0.86058 0.37597 0.0
H2083 H 0.77058 0.89728 0.3865 0.0
H2084 H 0.73296 0.92193 0.3566 0.0
H2085 H 0.70584 0.88904 0.3354 0.0
C2086 C 0.70601 0.85426 0.33633 0.0
C2087 C 0.70811 0.83712 0.33814 0.0
C2088 C 0.722 0.87359 0.34851 0.0
C2089 C 0.72676 0.84011 0.35282 0.0
C2090 C 0.74258 0.85916 0.36504 0.0
C2091 C 0.75652 0.89556 0.37508 0.0
C2092 C 0.75427 0.91264 0.37325 0.0
C2093 C 0.74052 0.87615 0.36294 0.0
C2094 C 0.73558 0.90952 0.35856 0.0
C2095 C 0.71985 0.8905 0.34638 0.0
H2096 H 0.26694 0.9132 0.33452 0.0
H2097 H 0.26028 0.85489 0.34662 0.0
H2098 H 0.22545 0.84102 0.36831 0.0
H2099 H 0.19587 0.84479 0.3839 0.0
H2100 H 0.20233 0.90301 0.37181 0.0
H2101 H 0.23727 0.917 0.35054 0.0
C2102 C 0.25799 0.89747 0.34222 0.0
C2103 C 0.26688 0.88534 0.33884 0.0
C2104 C 0.23741 0.88929 0.35466 0.0
C2105 C 0.25442 0.8649 0.34876 0.0
C2106 C 0.23423 0.85682 0.36121 0.0
C2107 C 0.20481 0.86054 0.37642 0.0
C2108 C 0.19583 0.8726 0.37954 0.0
C2109 C 0.22538 0.86876 0.36417 0.0
C2110 C 0.20826 0.89306 0.36982 0.0
C2111 C 0.22851 0.9012 0.35761 0.0
H2112 H 0.7715 0.89684 0.88751 0.0
H2113 H 0.73203 0.83405 0.86554 0.0
H2114 H 0.70539 0.84024 0.84392 0.0
H2115 H 0.69239 0.86306 0.83049 0.0
H2116 H 0.73102 0.92595 0.85131 0.0
H2117 H 0.75812 0.9201 0.87374 0.0
C2118 C 0.75712 0.88447 0.87781 0.0
C2119 C 0.75426 0.86484 0.87841 0.0
C2120 C 0.74132 0.88813 0.86518 0.0
C2121 C 0.73517 0.84929 0.86574 0.0
C2122 C 0.71969 0.85282 0.85325 0.0
C2123 C 0.70666 0.8756 0.84017 0.0
C2124 C 0.70919 0.89504 0.8392 0.0
C2125 C 0.72245 0.87212 0.85287 0.0
C2126 C 0.72817 0.91082 0.85173 0.0
C2127 C 0.74386 0.90745 0.86454 0.0
H2128 H 0.24582 0.85622 0.82188 0.0
H2129 H 0.18423 0.83072 0.86122 0.0
H2130 H 0.1901 0.86366 0.88422 0.0
H2131 H 0.2127 0.90031 0.89347 0.0
H2132 H 0.27419 0.92574 0.853 0.0
H2133 H 0.26831 0.8928 0.83041 0.0
C2134 C 0.23361 0.85772 0.83578 0.0
C2135 C 0.21449 0.84044 0.83989 0.0
C2136 C 0.23707 0.87705 0.84867 0.0
C2137 C 0.19909 0.84329 0.85761 0.0
C2138 C 0.20246 0.86233 0.87077 0.0
C2139 C 0.22488 0.89877 0.87946 0.0
C2140 C 0.244 0.91605 0.87504 0.0
C2141 C 0.22138 0.87943 0.8664 0.0
C2142 C 0.25934 0.91318 0.85691 0.0
C2143 C 0.25597 0.89414 0.84399 0.0
H2144 H 0.19446 0.37544 0.87489 0.0
H2145 H 0.20185 0.32409 0.87025 0.0
H2146 H 0.23679 0.34509 0.84986 0.0
H2147 H 0.26633 0.37849 0.83284 0.0
H2148 H 0.25884 0.42979 0.83717 0.0
H2149 H 0.22394 0.40879 0.8577 0.0
C2150 C 0.2036 0.36874 0.8691 0.0
C2151 C 0.19487 0.3478 0.87419 0.0
C2152 C 0.22423 0.38114 0.85732 0.0
C2153 C 0.20757 0.33991 0.86675 0.0
C2154 C 0.22784 0.35204 0.85503 0.0
C2155 C 0.25717 0.38518 0.83854 0.0
C2156 C 0.26587 0.40611 0.8333 0.0
C2157 C 0.23653 0.37276 0.85029 0.0
C2158 C 0.25315 0.41398 0.84071 0.0
C2159 C 0.2329 0.40185 0.85253 0.0
H2160 H 0.91413 0.74796 0.6557 0.0
H2161 H 0.85234 0.7111 0.6926 0.0
H2162 H 0.85829 0.68438 0.71651 0.0
H2163 H 0.88089 0.6706 0.72751 0.0
H2164 H 0.9427 0.70729 0.69076 0.0
H2165 H 0.93682 0.73412 0.66681 0.0
C2166 C 0.90192 0.73416 0.66921 0.0
C2167 C 0.88269 0.73204 0.67215 0.0
C2168 C 0.90543 0.71838 0.68303 0.0
C2169 C 0.8673 0.71365 0.68964 0.0
C2170 C 0.87069 0.69813 0.70343 0.0
C2171 C 0.89314 0.68439 0.71405 0.0
C2172 C 0.91233 0.68644 0.71112 0.0
C2173 C 0.88967 0.70017 0.70025 0.0
C2174 C 0.92776 0.70481 0.69367 0.0
C2175 C 0.9244 0.72037 0.67988 0.0
H2176 H 0.35794 0.18729 0.65595 0.0
H2177 H 0.39366 0.16111 0.69161 0.0
H2178 H 0.42099 0.19385 0.7151 0.0
H2179 H 0.43537 0.23074 0.72577 0.0
H2180 H 0.399 0.25617 0.68901 0.0
H2181 H 0.37205 0.22355 0.66612 0.0
C2182 C 0.37162 0.18858 0.6691 0.0
C2183 C 0.3733 0.17123 0.67197 0.0
C2184 C 0.38757 0.20773 0.68239 0.0
C2185 C 0.39152 0.1738 0.68892 0.0
C2186 C 0.40733 0.19272 0.70237 0.0
C2187 C 0.42162 0.22923 0.71252 0.0
C2188 C 0.41968 0.24648 0.70937 0.0
C2189 C 0.40567 0.20994 0.6992 0.0
C2190 C 0.40139 0.24365 0.69219 0.0
C2191 C 0.38574 0.22478 0.67898 0.0
H2192 H 0.93344 0.24501 0.66844 0.0
H2193 H 0.92576 0.18615 0.67502 0.0
H2194 H 0.89077 0.17234 0.69417 0.0
H2195 H 0.86129 0.1763 0.70929 0.0
H2196 H 0.86888 0.23511 0.70384 0.0
H2197 H 0.90393 0.24901 0.68435 0.0
C2198 C 0.92423 0.22918 0.67441 0.0
C2199 C 0.93289 0.21688 0.67014 0.0
C2200 C 0.90355 0.22101 0.68551 0.0
C2201 C 0.9201 0.1963 0.67785 0.0
C2202 C 0.8998 0.18823 0.68883 0.0
C2203 C 0.8705 0.19214 0.70349 0.0
C2204 C 0.86183 0.2044 0.70799 0.0
C2205 C 0.89117 0.20033 0.69259 0.0
C2206 C 0.8746 0.225 0.70071 0.0
C2207 C 0.89491 0.23311 0.68954 0.0
H2208 H 1.06006 0.57578 0.50177 0.0
H2209 H 1.00878 0.51717 0.51115 0.0
H2210 H 1.02989 0.50341 0.53217 0.0
H2211 H 1.06352 0.5075 0.54827 0.0
H2212 H 0.11463 0.56627 0.5371 0.0
H2213 H 0.09343 0.57981 0.51685 0.0
C2214 C 1.05339 0.56001 0.50883 0.0
C2215 C 1.03245 0.54779 0.50499 0.0
C2216 C 0.06585 0.55189 0.5205 0.0
C2217 C 1.0246 0.52727 0.51378 0.0
C2218 C 1.0368 0.51924 0.52582 0.0
C2219 C 0.07012 0.52324 0.54102 0.0
C2220 C 0.0911 0.53558 0.54442 0.0
C2221 C 1.05756 0.53131 0.52915 0.0
C2222 C 0.09881 0.55605 0.53506 0.0
C2223 C 0.08656 0.56399 0.52341 0.0
H2224 H 0.59761 0.57802 0.54284 0.0
H2225 H 0.53919 0.57124 0.54353 0.0
H2226 H 0.5247 0.53618 0.52258 0.0
H2227 H 0.52816 0.50661 0.50364 0.0
H2228 H 0.58666 0.51353 0.5034 0.0
H2229 H 0.60106 0.54852 0.52431 0.0
C2230 C 0.58171 0.56897 0.5382 0.0
C2231 C 0.56971 0.57779 0.54481 0.0
C2232 C 0.57324 0.54839 0.52626 0.0
C2233 C 0.54905 0.56533 0.53876 0.0
C2234 C 0.54064 0.54505 0.52676 0.0
C2235 C 0.54405 0.51568 0.50841 0.0
C2236 C 0.5561 0.5069 0.50183 0.0
C2237 C 0.5525 0.53627 0.52047 0.0
C2238 C 0.57674 0.51939 0.50808 0.0
C2239 C 0.58512 0.53964 0.52007 0.0
H2240 H 0.58639 0.08445 0.49053 0.0
H2241 H 0.61106 0.04722 0.52519 0.0
H2242 H 0.57813 1.02033 0.54802 0.0
H2243 H 0.54173 1.0067 0.55828 0.0
H2244 H 0.51708 0.04405 0.52492 0.0
H2245 H 0.55001 0.07093 0.50178 0.0
C2246 C 0.5847 0.07052 0.50333 0.0
C2247 C 0.60174 0.06828 0.50602 0.0
C2248 C 0.56536 0.05479 0.51658 0.0
C2249 C 0.59867 0.04981 0.52265 0.0
C2250 C 0.57963 1.03423 0.53569 0.0
C2251 C 0.54342 1.02065 0.54568 0.0
C2252 C 0.52638 1.0229 0.54328 0.0
C2253 C 0.56276 1.03642 0.53271 0.0
C2254 C 0.52947 1.04145 0.52721 0.0
C2255 C 0.5485 0.05701 0.51395 0.0
H2256 H 0.60122 0.04437 0.04871 0.0
H2257 H 0.54261 0.99292 0.04089 0.0
H2258 H 0.52888 1.01389 1.01943 0.0
H2259 H 0.53273 0.0471 1.00262 0.0
H2260 H 0.59107 0.09881 1.00983 0.0
H2261 H 0.6051 0.0779 0.03128 0.0
C2262 C 0.58545 1.03766 0.04207 0.0
C2263 C 0.57321 1.01666 0.04666 0.0
C2264 C 0.57731 0.05008 0.02959 0.0
C2265 C 0.55273 1.00875 0.03794 0.0
C2266 C 0.5447 1.02087 0.02556 0.0
C2267 C 0.54853 0.05391 1.00905 0.0
C2268 C 0.5606 0.07489 1.00452 0.0
C2269 C 0.55673 1.0416 0.02136 0.0
C2270 C 0.58111 0.08295 1.01293 0.0
C2271 C 0.58927 0.07087 0.02525 0.0
H2272 H 1.02405 0.52052 0.99318 0.0
H2273 H 1.06239 0.49681 0.02398 0.0
H2274 H 0.08909 0.52992 0.04569 0.0
H2275 H 0.10237 0.56639 0.05639 0.0
H2276 H 0.06392 0.59002 0.02602 0.0
H2277 H 1.03727 0.55693 1.00417 0.0
C2278 C 1.03818 0.52248 1.00485 0.0
C2279 C 1.04075 0.50562 1.00676 0.0
C2280 C 1.05388 0.54197 1.01743 0.0
C2281 C 1.05952 0.50905 0.02192 0.0
C2282 C 0.07501 0.5282 0.03441 0.0
C2283 C 0.08822 0.56441 0.04477 0.0
C2284 C 0.08561 0.58125 0.043 0.0
C2285 C 0.07251 0.54491 0.03227 0.0
C2286 C 0.06682 0.5778 0.028 0.0
C2287 C 1.05135 0.55865 1.0154 0.0
H2288 H 0.5268 0.50932 0.04383 0.0
H2289 H 0.53539 0.56855 0.04722 0.0
H2290 H 0.5704 0.58228 0.02687 0.0
H2291 H 0.59951 0.57794 1.00717 0.0
H2292 H 0.59055 0.51855 1.003 0.0
H2293 H 0.55573 0.50498 0.02423 0.0
C2294 C 0.53622 0.52525 0.03997 0.0
C2295 C 0.52784 0.53767 0.04716 0.0
C2296 C 0.5568 0.53328 0.02807 0.0
C2297 C 0.54086 0.55833 0.04199 0.0
C2298 C 0.56115 0.56631 0.03031 0.0
C2299 C 0.59005 0.56203 1.0112 0.0
C2300 C 0.5983 0.5495 1.00337 0.0
C2301 C 0.56946 0.55402 0.02324 0.0
C2302 C 0.5852 0.52886 1.0086 0.0
C2303 C 0.56501 0.52095 0.0208 0.0
H2304 H 0.38319 0.24806 0.01982 0.0
H2305 H 0.34728 0.26843 0.94978 0.0
H2306 H 0.37177 0.28332 0.88568 0.0
H2307 H 0.40459 0.29317 0.8502 0.0
H2308 H 0.44113 0.27259 0.91485 0.0
H2309 H 0.4158 0.25557 0.97817 0.0
C2310 C 0.38037 0.25523 0.98992 0.0
C2311 C 0.3626 0.25657 0.99057 0.0
C2312 C 0.39507 0.26421 0.95161 0.0
C2313 C 0.36021 0.26665 0.95116 0.0
C2314 C 0.37447 0.27544 0.9141 0.0
C2315 C 0.4071 0.28478 0.87767 0.0
C2316 C 0.42528 0.28447 0.87652 0.0
C2317 C 0.39217 0.27472 0.91408 0.0
C2318 C 0.4276 0.27327 0.91341 0.0
C2319 C 0.41295 0.2635 0.95021 0.0
H2320 H 0.82929 0.11105 0.95857 0.0
H2321 H 0.87478 0.16493 0.02341 0.0
H2322 H 0.86514 0.18444 0.97145 0.0
H2323 H 0.84198 0.18636 0.90777 0.0
H2324 H 0.79703 0.13075 0.84636 0.0
H2325 H 0.80817 0.1128 0.89527 0.0
C2326 C 0.83743 0.12711 0.96132 0.0
C2327 C 0.8531 0.1361 0.9957 0.0
C2328 C 0.83163 0.13838 0.93121 0.0
C2329 C 0.86293 0.15713 0.99766 0.0
C2330 C 0.85722 0.16843 0.96771 0.0
C2331 C 0.83469 0.17035 0.90444 0.0
C2332 C 0.8182 0.16047 0.8717 0.0
C2333 C 0.84134 0.15931 0.9342 0.0
C2334 C 0.80944 0.13948 0.87002 0.0
C2335 C 0.81588 0.12884 0.89855 0.0
H2336 H 0.97045 0.69857 0.85616 0.0
H2337 H 0.91334 0.66316 0.92284 0.0
H2338 H 0.92211 0.68917 0.98458 0.0
H2339 H 0.94751 0.72218 0.02413 0.0
H2340 H 1.0038 0.75695 0.95224 0.0
H2341 H 0.99386 0.73172 0.88987 0.0
C2342 C 0.95967 0.69647 0.88373 0.0
C2343 C 0.94101 0.6784 0.88358 0.0
C2344 C 0.96482 0.7118 0.91929 0.0
C2345 C 0.92766 0.67659 0.92061 0.0
C2346 C 0.93281 0.69164 0.95652 0.0
C2347 C 0.95746 0.72457 0.99425 0.0
C2348 C 0.97668 0.74225 0.99392 0.0
C2349 C 0.95152 0.70943 0.95691 0.0
C2350 C 0.98905 0.74409 0.95448 0.0
C2351 C 0.98336 0.7294 0.91838 0.0
H2352 H 0.30786 0.36934 0.52208 0.0
H2353 H 0.24813 0.33583 0.57591 0.0
H2354 H 0.25607 0.36119 0.63904 0.0
H2355 H 0.28131 0.39303 0.68352 0.0
H2356 H 0.34021 0.4261 0.6232 0.0
H2357 H 0.33124 0.40148 0.5598 0.0
C2358 C 0.29635 0.36747 0.5472 0.0
C2359 C 0.27723 0.35011 0.54313 0.0
C2360 C 0.301 0.38247 0.58331 0.0
C2361 C 0.2629 0.34868 0.57688 0.0
C2362 C 0.26755 0.36336 0.61355 0.0
C2363 C 0.29208 0.3952 0.65589 0.0
C2364 C 0.31172 0.41219 0.65925 0.0
C2365 C 0.2867 0.38044 0.61779 0.0
C2366 C 0.32511 0.41377 0.62262 0.0
C2367 C 0.31999 0.39942 0.58593 0.0
H2368 H 0.69032 0.92596 0.60395 0.0
H2369 H 0.71898 0.91524 0.72294 0.0
H2370 H 0.74944 0.92757 0.67453 0.0
H2371 H 0.76964 0.94443 0.59866 0.0
H2372 H 0.73932 0.95266 0.47904 0.0
H2373 H 0.70874 0.93847 0.52617 0.0
C2374 C 0.70299 0.92572 0.61917 0.0
C2375 C 0.70161 0.91904 0.66781 0.0
C2376 C 0.72073 0.93278 0.59043 0.0
C2377 C 0.71884 0.91959 0.68595 0.0
C2378 C 0.73658 0.92697 0.658 0.0
C2379 C 0.75627 0.94267 0.58221 0.0
C2380 C 0.75738 0.94976 0.53384 0.0
C2381 C 0.73799 0.93399 0.61015 0.0
C2382 C 0.73946 0.9474 0.51511 0.0
C2383 C 0.72173 0.93928 0.54252 0.0
H2384 H 0.15823 0.84711 0.60826 0.0
H2385 H 0.16191 0.81839 0.47873 0.0
H2386 H 0.17764 0.80304 0.52375 0.0
H2387 H 0.18795 0.79483 0.6019 0.0
H2388 H 0.18706 0.82527 0.73088 0.0
H2389 H 0.17327 0.84255 0.68511 0.0
C2390 C 0.16299 0.838 0.58936 0.0
C2391 C 0.15885 0.83443 0.53884 0.0
C2392 C 0.17259 0.82915 0.61603 0.0
C2393 C 0.16497 0.82198 0.51665 0.0
C2394 C 0.17393 0.81293 0.54281 0.0
C2395 C 0.18539 0.80572 0.61998 0.0
C2396 C 0.18921 0.80875 0.67057 0.0
C2397 C 0.17755 0.81602 0.59278 0.0
C2398 C 0.18501 0.8227 0.69238 0.0
C2399 C 0.17679 0.83254 0.66593 0.0
H2400 H 0.68931 0.78636 0.10454 0.0
H2401 H 0.71884 0.82446 0.22551 0.0
H2402 H 0.74933 0.84247 0.17728 0.0
H2403 H 0.76924 0.84586 0.101 0.0
H2404 H 0.73812 0.80879 0.97936 0.0
H2405 H 0.70751 0.79263 0.02635 0.0
C2406 C 0.70218 0.799 0.12021 0.0
C2407 C 0.70108 0.80399 0.16929 0.0
C2408 C 0.71993 0.80961 0.09159 0.0
C2409 C 0.71853 0.82027 0.18811 0.0
C2410 C 0.73627 0.83055 0.16029 0.0
C2411 C 0.7557 0.83464 0.08415 0.0
C2412 C 0.75655 0.82894 0.03533 0.0
C2413 C 0.73743 0.82523 0.11195 0.0
C2414 C 0.73843 0.81392 1.01589 0.0
C2415 C 0.72069 0.80444 0.04318 0.0
H2416 H 0.25379 0.93267 0.07965 0.0
H2417 H 0.30912 0.97834 1.01888 0.0
H2418 H 0.32728 0.96746 0.06819 0.0
H2419 H 0.32913 0.94634 0.13185 0.0
H2420 H 0.27535 0.90013 0.19557 0.0
H2421 H 0.25581 0.90955 0.14325 0.0
C2422 C 0.26978 0.94015 0.0765 0.0
C2423 C 0.27956 0.95672 0.04385 0.0
C2424 C 0.28089 0.93367 0.10646 0.0
C2425 C 0.30053 0.9658 0.04242 0.0
C2426 C 0.31126 0.95952 0.0712 0.0
C2427 C 0.31309 0.93802 0.13428 0.0
C2428 C 0.30413 0.9222 0.1685 0.0
C2429 C 0.3018 0.94366 0.10384 0.0
C2430 C 0.28313 0.91211 0.17 0.0
C2431 C 0.27181 0.91768 0.13983 0.0
H2432 H 0.20167 0.41532 0.1082 0.0
H2433 H 0.15853 0.38771 0.22191 0.0
H2434 H 0.1415 0.35711 0.17518 0.0
H2435 H 0.13668 0.33795 0.099 0.0
H2436 H 0.18085 0.36354 0.98719 0.0
H2437 H 0.19914 0.39409 0.03513 0.0
C2438 C 0.18885 0.40251 0.12351 0.0
C2439 C 0.18175 0.40446 0.1699 0.0
C2440 C 0.17893 0.38416 0.096 0.0
C2441 C 0.16474 0.38724 0.18726 0.0
C2442 C 0.15478 0.36949 0.16009 0.0
C2443 C 0.15056 0.34997 0.08531 0.0
C2444 C 0.15718 0.34776 0.0388 0.0
C2445 C 0.16141 0.36771 0.11398 0.0
C2446 C 0.17522 0.36411 0.02259 0.0
C2447 C 0.18573 0.38189 0.05022 0.0
H2448 H 0.83858 0.74715 0.44609 0.0
H2449 H 0.86257 0.72325 0.54813 0.0
H2450 H 0.85102 0.69337 0.49771 0.0
H2451 H 0.83158 0.67218 0.42523 0.0
H2452 H 0.81014 0.69835 0.32196 0.0
H2453 H 0.82306 0.72825 0.37084 0.0
C2454 C 0.84173 0.73565 0.45711 0.0
C2455 C 0.85186 0.73812 0.50161 0.0
C2456 C 0.83517 0.71833 0.42712 0.0
C2457 C 0.85528 0.72247 0.51435 0.0
C2458 C 0.84842 0.70507 0.4853 0.0
C2459 C 0.83008 0.68453 0.41266 0.0
C2460 C 0.81953 0.68231 0.36859 0.0
C2461 C 0.83804 0.70253 0.44155 0.0
C2462 C 0.81791 0.69896 0.3548 0.0
C2463 C 0.82535 0.71634 0.3832 0.0
H2464 H 0.38599 0.13531 0.52617 0.0
H2465 H 0.34223 0.14251 0.44855 0.0
H2466 H 0.36605 0.15885 0.38257 0.0
H2467 H 0.39884 0.16931 0.34294 0.0
H2468 H 0.44342 0.1637 0.42112 0.0
H2469 H 0.42031 0.14909 0.48956 0.0
C2470 C 0.38171 0.14083 0.49534 0.0
C2471 C 0.3619 0.13766 0.49373 0.0
C2472 C 0.39587 0.15058 0.45681 0.0
C2473 C 0.35707 0.1448 0.45229 0.0
C2474 C 0.37082 0.15412 0.41398 0.0
C2475 C 0.4038 0.16533 0.37531 0.0
C2476 C 0.42344 0.1681 0.37587 0.0
C2477 C 0.39022 0.1569 0.41526 0.0
C2478 C 0.42893 0.16236 0.41874 0.0
C2479 C 0.41545 0.15372 0.45813 0.0
H2480 H 0.97306 0.27892 0.53428 0.0
H2481 H 0.96268 0.22667 0.45638 0.0
H2482 H 0.94676 0.23518 0.39117 0.0
H2483 H 0.9381 0.25968 0.35148 0.0
H2484 H 0.94927 0.31165 0.43241 0.0
H2485 H 0.96201 0.30109 0.49936 0.0
C2486 C 0.96693 0.26898 0.50367 0.0
C2487 C 0.96906 0.25173 0.50199 0.0
C2488 C 0.9578 0.27414 0.46565 0.0
C2489 C 0.96113 0.23968 0.46055 0.0
C2490 C 0.9521 0.24476 0.42253 0.0
C2491 C 0.94267 0.2684 0.38432 0.0
C2492 C 0.94191 0.28652 0.38618 0.0
C2493 C 0.95054 0.2622 0.42395 0.0
C2494 C 0.94894 0.2976 0.4292 0.0
C2495 C 0.95652 0.29159 0.46787 0.0
H2496 H 0.09716 0.60556 0.25542 0.0
H2497 H 0.07284 0.63071 0.15716 0.0
H2498 H 1.04264 0.61708 0.20489 0.0
H2499 H 1.02282 0.59969 0.27775 0.0
H2500 H 1.04483 0.57221 0.37488 0.0
H2501 H 0.07507 0.58455 0.32552 0.0
C2502 C 0.08516 0.60777 0.24364 0.0
C2503 C 0.08806 0.61959 0.20134 0.0
C2504 C 0.06693 0.59938 0.27188 0.0
C2505 C 0.07179 0.62202 0.18865 0.0
C2506 C 1.0542 0.61414 0.21639 0.0
C2507 C 1.03397 0.59595 0.2879 0.0
C2508 C 1.0308 0.58453 0.3307 0.0
C2509 C 1.05155 0.60303 0.25856 0.0
C2510 C 1.04609 0.58045 0.34236 0.0
C2511 C 0.06372 0.58777 0.31392 0.0
H2512 H 0.53484 0.47867 0.28406 0.0
H2513 H 0.48857 0.45914 0.39132 0.0
H2514 H 0.47154 0.47203 0.34312 0.0
H2515 H 0.46753 0.48682 0.26727 0.0
H2516 H 0.51426 0.50917 0.16142 0.0
H2517 H 0.53272 0.49773 0.21109 0.0
C2518 C 0.52131 0.47762 0.29772 0.0
C2519 C 0.51338 0.46757 0.34279 0.0
C2520 C 0.51124 0.48561 0.2692 0.0
C2521 C 0.49546 0.46651 0.35777 0.0
C2522 C 0.48547 0.47394 0.32973 0.0
C2523 C 0.482 0.4897 0.25528 0.0
C2524 C 0.48927 0.49938 0.20991 0.0
C2525 C 0.49289 0.48323 0.2849 0.0
C2526 C 0.50807 0.50233 0.19592 0.0
C2527 C 0.51869 0.49551 0.22456 0.0
H2528 H 0.64775 0.05527 0.35771 0.0
H2529 H 0.62558 0.09029 0.29192 0.0
H2530 H 0.60868 0.06434 0.23 0.0
H2531 H 0.6016 1.03156 0.18982 0.0
H2532 H 0.62346 0.99707 0.26083 0.0
H2533 H 0.63833 1.02218 0.32359 0.0
C2534 C 0.63902 0.05728 0.33033 0.0
C2535 C 0.6382 0.07524 0.3308 0.0
C2536 C 0.62899 1.04195 0.29467 0.0
C2537 C 0.62664 0.07695 0.29394 0.0
C2538 C 0.61692 0.06192 0.25792 0.0
C2539 C 0.60907 1.02916 0.21968 0.0
C2540 C 0.6108 1.01157 0.21967 0.0
C2541 C 0.61805 0.04424 0.25723 0.0
C2542 C 0.62133 1.0098 0.25897 0.0
C2543 C 0.63012 1.02444 0.29526 0.0
H2544 H 0.47804 1.00369 0.7797 0.0
H2545 H 0.51379 1.03393 0.6558 0.0
H2546 H 0.53158 0.06467 0.70324 0.0
H2547 H 0.53525 0.08456 0.77979 0.0
H2548 H 0.50064 0.05284 0.90422 0.0
H2549 H 0.48485 1.02201 0.85792 0.0
C2550 C 0.49016 1.01678 0.76319 0.0
C2551 C 0.49454 1.01577 0.7135 0.0
C2552 C 0.50066 1.03471 0.79134 0.0
C2553 C 0.51012 1.03352 0.69365 0.0
C2554 C 0.52025 0.05142 0.72103 0.0
C2555 C 0.52469 0.07085 0.7974 0.0
C2556 C 0.51959 0.07161 0.84685 0.0
C2557 C 0.5155 0.05246 0.76996 0.0
C2558 C 0.50536 0.05325 0.86721 0.0
C2559 C 0.49608 1.03538 0.84031 0.0
H2560 H 0.10216 0.48525 0.7668 0.0
H2561 H 0.08086 0.51463 0.67371 0.0
H2562 H 1.05101 0.50271 0.7245 0.0
H2563 H 1.02908 0.4816 0.79478 0.0
H2564 H 1.05268 0.45419 0.88819 0.0
H2565 H 0.0825 0.4675 0.8393 0.0
C2566 C 0.09124 0.48946 0.75778 0.0
C2567 C 0.09446 0.50126 0.7157 0.0
C2568 C 0.07389 0.48257 0.78783 0.0
C2569 C 0.07952 0.50602 0.70558 0.0
C2570 C 1.06212 0.49895 0.73485 0.0
C2571 C 1.04083 0.47879 0.8052 0.0
C2572 C 1.03785 0.46646 0.84655 0.0
C2573 C 1.05884 0.48692 0.77613 0.0
C2574 C 1.05379 0.46328 0.8575 0.0
C2575 C 0.07117 0.47097 0.82908 0.0
H2576 H 0.64023 0.62684 0.6863 0.0
H2577 H 0.58133 0.60323 0.74399 0.0
H2578 H 0.58902 0.58572 0.80703 0.0
H2579 H 0.61393 0.57841 0.85031 0.0
H2580 H 0.672 0.60188 0.78654 0.0
H2581 H 0.66314 0.61746 0.72306 0.0
C2582 C 0.62882 0.61775 0.71222 0.0
C2583 C 0.61003 0.61676 0.70922 0.0
C2584 C 0.63333 0.60739 0.74833 0.0
C2585 C 0.59583 0.60455 0.74405 0.0
C2586 C 0.60036 0.59447 0.78067 0.0
C2587 C 0.62451 0.58644 0.82189 0.0
C2588 C 0.64388 0.58842 0.82419 0.0
C2589 C 0.61921 0.59583 0.78385 0.0
C2590 C 0.65708 0.59959 0.78666 0.0
C2591 C 0.65203 0.60878 0.74996 0.0
H2592 H 0.29098 0.28531 0.35429 0.0
H2593 H 0.23368 0.26242 0.28833 0.0
H2594 H 0.2429 0.24598 0.22614 0.0
H2595 H 0.26701 0.23675 0.18919 0.0
H2596 H 0.32378 0.25834 0.25704 0.0
H2597 H 0.31522 0.27609 0.31703 0.0
C2598 C 0.2805 0.27702 0.32597 0.0
C2599 C 0.26145 0.27591 0.32678 0.0
C2600 C 0.28591 0.26695 0.28961 0.0
C2601 C 0.2484 0.26427 0.28951 0.0
C2602 C 0.25373 0.25461 0.25351 0.0
C2603 C 0.27766 0.2453 0.21697 0.0
C2604 C 0.29647 0.24592 0.21662 0.0
C2605 C 0.2724 0.25559 0.25294 0.0
C2606 C 0.30949 0.2574 0.25422 0.0
C2607 C 0.30445 0.26764 0.28938 0.0
H2608 H 0.88673 0.07513 0.24527 0.0
H2609 H 0.8327 0.06308 0.17545 0.0
H2610 H 0.81407 1.03312 0.22452 0.0
H2611 H 0.81238 1.00867 0.28858 0.0
H2612 H 0.86663 1.02264 0.36138 0.0
H2613 H 0.8849 0.05204 0.31129 0.0
C2614 C 0.87082 0.06621 0.24081 0.0
C2615 C 0.86152 0.07254 0.20592 0.0
C2616 C 0.85978 0.04853 0.27047 0.0
C2617 C 0.84074 0.05981 0.20195 0.0
C2618 C 0.82989 1.04218 0.23022 0.0
C2619 C 0.82817 1.01812 0.29412 0.0
C2620 C 0.83762 1.01253 0.33057 0.0
C2621 C 0.83908 1.03613 0.265 0.0
C2622 C 0.85835 1.02568 0.33482 0.0
C2623 C 0.86906 1.04291 0.30571 0.0
H2624 H 1.04268 0.79483 0.2163 0.0
H2625 H 1.02371 0.83777 0.23296 0.0
H2626 H 1.05008 0.85588 0.29198 0.0
H2627 H 0.08009 0.86093 0.3391 0.0
H2628 H 0.10257 0.82141 0.31154 0.0
H2629 H 0.07453 0.80158 0.2575 0.0
C2630 C 1.04418 0.80814 0.23224 0.0
C2631 C 1.03022 0.81428 0.21885 0.0
C2632 C 1.06064 0.81954 0.26515 0.0
C2633 C 1.03339 0.83198 0.24164 0.0
C2634 C 1.04884 0.84261 0.27578 0.0
C2635 C 0.07902 0.84798 0.32149 0.0
C2636 C 0.09398 0.8428 0.33177 0.0
C2637 C 1.06283 0.83679 0.28789 0.0
C2638 C 0.09165 0.8259 0.30665 0.0
C2639 C 0.07537 0.81443 0.27507 0.0
H2640 H 0.84319 0.81447 0.67583 0.0
H2641 H 0.88351 0.81015 0.77401 0.0
H2642 H 0.87351 0.82537 0.8379 0.0
H2643 H 0.85372 0.84121 0.86735 0.0
H2644 H 0.81053 0.84174 0.77192 0.0
H2645 H 0.82082 0.8269 0.70782 0.0
C2646 C 0.84964 0.81645 0.71135 0.0
C2647 C 0.86425 0.81059 0.71885 0.0
C2648 C 0.84324 0.82492 0.74935 0.0
C2649 C 0.87224 0.81397 0.76592 0.0
C2650 C 0.86649 0.8229 0.80293 0.0
C2651 C 0.84646 0.83814 0.8326 0.0
C2652 C 0.8313 0.8433 0.82556 0.0
C2653 C 0.8521 0.82868 0.79537 0.0
C2654 C 0.82221 0.83846 0.77963 0.0
C2655 C 0.82818 0.82983 0.74243 0.0
H2656 H 0.29054 1.02858 0.84606 0.0
H2657 H 0.22969 1.00134 0.80085 0.0
H2658 H 0.23888 1.02749 0.74034 0.0
H2659 H 0.26419 0.05922 0.69896 0.0
H2660 H 0.32476 0.08755 0.74713 0.0
H2661 H 0.31588 0.06062 0.80522 0.0
C2662 C 0.27923 1.02792 0.82241 0.0
C2663 C 0.25918 1.01182 0.82844 0.0
C2664 C 0.2847 0.04378 0.78729 0.0
C2665 C 0.24516 1.01268 0.7977 0.0
C2666 C 0.25049 1.02796 0.76268 0.0
C2667 C 0.27561 0.05967 0.72196 0.0
C2668 C 0.29554 0.07606 0.71662 0.0
C2669 C 0.27021 0.0438 0.75689 0.0
C2670 C 0.30953 0.07557 0.74828 0.0
C2671 C 0.30433 0.05993 0.78229 0.0
H2672 H 1.05544 0.26067 0.67831 0.0
H2673 H 1.01152 0.21776 0.7746 0.0
H2674 H 1.03643 0.22833 0.83862 0.0
H2675 H 0.07148 0.24969 0.86949 0.0
H2676 H 0.11495 0.29416 0.77514 0.0
H2677 H 0.09029 0.28311 0.71041 0.0
C2678 C 1.05098 0.25392 0.71359 0.0
C2679 C 1.03065 0.2386 0.72066 0.0
C2680 C 0.0658 0.26038 0.75164 0.0
C2681 C 1.02639 0.22973 0.76693 0.0
C2682 C 1.04089 0.23583 0.80412 0.0
C2683 C 0.07568 0.25718 0.83495 0.0
C2684 C 0.0958 0.27299 0.82852 0.0
C2685 C 1.06078 0.25114 0.79734 0.0
C2686 C 0.10008 0.28216 0.78264 0.0
C2687 C 0.08569 0.27581 0.74508 0.0
H2688 H 0.92054 0.57922 0.6887 0.0
H2689 H 0.94602 0.6375 0.6258 0.0
H2690 H 0.96326 0.62835 0.56567 0.0
H2691 H 0.97088 0.60319 0.52689 0.0
H2692 H 0.9443 0.54459 0.58836 0.0
H2693 H 0.92836 0.55431 0.65071 0.0
C2694 C 0.92985 0.59008 0.66201 0.0
C2695 C 0.9317 0.60945 0.66363 0.0
C2696 C 0.9399 0.58453 0.62616 0.0
C2697 C 0.94413 0.62275 0.62749 0.0
C2698 C 0.95408 0.61738 0.5923 0.0
C2699 C 0.96195 0.59255 0.55439 0.0
C2700 C 0.95963 0.57297 0.55234 0.0
C2701 C 0.95219 0.59827 0.5908 0.0
C2702 C 0.94711 0.55971 0.58834 0.0
C2703 C 0.93773 0.56533 0.62437 0.0
H2704 H 0.52129 0.38176 0.50471 0.0
H2705 H 0.53731 0.42914 0.60696 0.0
H2706 H 0.52493 0.40488 0.67314 0.0
H2707 H 0.51 0.36958 0.70443 0.0
H2708 H 0.48906 0.32188 0.60128 0.0
H2709 H 0.50247 0.3462 0.53526 0.0
C2710 C 0.52216 0.38695 0.5414 0.0
C2711 C 0.53095 0.408 0.54949 0.0
C2712 C 0.51392 0.37245 0.58021 0.0
C2713 C 0.53107 0.41356 0.59818 0.0
C2714 C 0.52388 0.39946 0.63661 0.0
C2715 C 0.50819 0.36433 0.66758 0.0
C2716 C 0.49834 0.34322 0.65932 0.0
C2717 C 0.51535 0.37875 0.62855 0.0
C2718 C 0.49631 0.33752 0.61024 0.0
C2719 C 0.50416 0.35167 0.57192 0.0
H2720 H 0.71783 0.13961 0.52044 0.0
H2721 H 0.68272 0.16084 0.59099 0.0
H2722 H 0.70838 0.17698 0.65293 0.0
H2723 H 0.74183 0.18622 0.68872 0.0
H2724 H 0.77742 0.16566 0.61737 0.0
H2725 H 0.75129 0.14856 0.55691 0.0
C2726 C 0.71543 0.14733 0.54986 0.0
C2727 C 0.69729 0.14805 0.55034 0.0
C2728 C 0.73087 0.15714 0.58623 0.0
C2729 C 0.69572 0.15923 0.58876 0.0
C2730 C 0.71072 0.16872 0.62466 0.0
C2731 C 0.74407 0.17804 0.66007 0.0
C2732 C 0.76237 0.17761 0.65939 0.0
C2733 C 0.72855 0.168 0.62409 0.0
C2734 C 0.76405 0.16656 0.62076 0.0
C2735 C 0.74884 0.15665 0.58542 0.0
H2736 H 0.51329 0.16723 0.20955 0.0
H2737 H 0.48752 0.18855 0.10541 0.0
H2738 H 0.50096 0.17742 0.0397 0.0
H2739 H 0.52127 0.16218 1.00968 0.0
H2740 H 0.54206 0.13583 0.11363 0.0
H2741 H 0.5296 0.14795 0.17936 0.0
C2742 C 0.51042 0.16942 0.17255 0.0
C2743 C 0.49924 0.17926 0.16389 0.0
C2744 C 0.51759 0.16196 0.13386 0.0
C2745 C 0.49584 0.1813 0.1147 0.0
C2746 C 0.50371 0.17488 0.07654 0.0
C2747 C 0.5231 0.15894 0.04661 0.0
C2748 C 0.53326 0.14805 0.05527 0.0
C2749 C 0.51483 0.16529 0.08525 0.0
C2750 C 0.53472 0.14407 0.10438 0.0
C2751 C 0.52749 0.15113 0.14254 0.0
H2752 H 0.93508 0.36909 0.20899 0.0
H2753 H 0.92665 0.32312 0.10883 0.0
H2754 H 0.94016 0.34774 0.04349 0.0
H2755 H 0.9538 0.38286 1.01211 0.0
H2756 H 0.96668 0.42949 0.1144 0.0
H2757 H 0.95243 0.40477 0.17939 0.0
C2758 C 0.93613 0.36429 0.17294 0.0
C2759 C 0.92912 0.34351 0.16504 0.0
C2760 C 0.94492 0.37905 0.13485 0.0
C2761 C 0.93143 0.33846 0.11733 0.0
C2762 C 0.93928 0.35277 0.0794 0.0
C2763 C 0.95375 0.38781 0.04862 0.0
C2764 C 0.9616 0.40871 0.05691 0.0
C2765 C 0.946 0.3732 0.08721 0.0
C2766 C 0.96107 0.41402 0.10549 0.0
C2767 C 0.95274 0.39964 0.14319 0.0
H2768 H 0.73949 0.58048 0.19374 0.0
H2769 H 0.77796 0.63356 0.11388 0.0
H2770 H 0.75217 0.62426 0.0525 0.0
H2771 H 0.7183 0.60033 1.01791 0.0
H2772 H 0.67956 0.54763 0.09853 0.0
H2773 H 0.70506 0.55734 0.16098 0.0
C2774 C 0.74241 0.59012 0.16296 0.0
C2775 C 0.76144 0.60797 0.15972 0.0
C2776 C 0.72699 0.58464 0.12692 0.0
C2777 C 0.76402 0.61989 0.11879 0.0
C2778 C 0.74902 0.61447 0.08308 0.0
C2779 C 0.71515 0.59102 0.04944 0.0
C2780 C 0.69616 0.57313 0.05261 0.0
C2781 C 0.73034 0.59682 0.08623 0.0
C2782 C 0.69336 0.5615 0.0942 0.0
C2783 C 0.70824 0.56709 0.1303 0.0
H2784 H 0.63309 0.93387 0.85648 0.0
H2785 H 0.61678 0.88002 0.9338 0.0
H2786 H 0.60089 0.88965 0.99622 0.0
H2787 H 0.5906 0.91331 0.03095 0.0
H2788 H 0.60669 0.96723 0.95353 0.0
H2789 H 0.62321 0.95797 0.89194 0.0
C2790 C 0.62672 0.92448 0.88751 0.0
C2791 C 0.62719 0.90622 0.8895 0.0
C2792 C 0.61705 0.93017 0.92433 0.0
C2793 C 0.61735 0.89415 0.93 0.0
C2794 C 0.60803 0.89972 0.96632 0.0
C2795 C 0.59768 0.92317 1.00067 0.0
C2796 C 0.59698 0.9413 0.99847 0.0
C2797 C 0.60758 0.91767 0.96421 0.0
C2798 C 0.60663 0.95338 0.95788 0.0
C2799 C 0.61631 0.948 0.922 0.0
H2800 H 0.19135 0.70074 0.0267 0.0
H2801 H 0.13861 0.6632 0.94537 0.0
H2802 H 0.14886 0.68926 0.88398 0.0
H2803 H 0.17247 0.72432 0.85251 0.0
H2804 H 0.22587 0.76073 0.93307 0.0
H2805 H 0.21537 0.73474 0.99416 0.0
C2806 C 0.18187 0.69812 0.99581 0.0
C2807 C 0.16385 0.67929 0.99229 0.0
C2808 C 0.18778 0.71376 0.96005 0.0
C2809 C 0.15234 0.67703 0.95077 0.0
C2810 C 0.15819 0.69231 0.9153 0.0
C2811 C 0.1818 0.72683 0.88364 0.0
C2812 C 0.20017 0.74546 0.88721 0.0
C2813 C 0.17578 0.71103 0.91939 0.0
C2814 C 0.21175 0.74725 0.92818 0.0
C2815 C 0.20568 0.7321 0.9637 0.0
H2816 H 0.40295 0.50846 0.03678 0.0
H2817 H 0.44767 0.51056 0.94128 0.0
H2818 H 0.42338 0.49746 0.8754 0.0
H2819 H 0.38899 0.48598 0.84211 0.0
H2820 H 0.3433 0.47979 0.94017 0.0
H2821 H 0.36775 0.49356 1.00561 0.0
C2822 C 0.40755 0.50609 1.00164 0.0
C2823 C 0.4279 0.51118 0.9952 0.0
C2824 C 0.39294 0.49765 0.96329 0.0
C2825 C 0.43267 0.50727 0.94866 0.0
C2826 C 0.41855 0.49966 0.9104 0.0
C2827 C 0.38418 0.48741 0.87779 0.0
C2828 C 0.36364 0.4815 0.88474 0.0
C2829 C 0.39856 0.49488 0.91675 0.0
C2830 C 0.35849 0.48381 0.93232 0.0
C2831 C 0.37272 0.49187 0.97028 0.0
H2832 H 0.14646 0.48533 0.49081 0.0
H2833 H 0.19667 0.54459 0.49463 0.0
H2834 H 0.21384 0.53505 0.43556 0.0
H2835 H 0.21579 0.50947 0.38245 0.0
H2836 H 0.16878 0.44881 0.39324 0.0
H2837 H 0.15012 0.45885 0.44586 0.0
C2838 C 0.16125 0.49622 0.47989 0.0
C2839 C 0.16979 0.51605 0.49902 0.0
C2840 C 0.17201 0.49016 0.44737 0.0
C2841 C 0.18913 0.52941 0.4817 0.0
C2842 C 0.1992 0.52384 0.4475 0.0
C2843 C 0.20147 0.49827 0.39618 0.0
C2844 C 0.19381 0.47801 0.38085 0.0
C2845 C 0.19101 0.50418 0.43 0.0
C2846 C 0.17527 0.46434 0.40151 0.0
C2847 C 0.16445 0.47021 0.43257 0.0
H2848 H 0.62975 0.71993 0.35205 0.0
H2849 H 0.62082 0.76048 0.43968 0.0
H2850 H 0.60551 0.73509 0.50249 0.0
H2851 H 0.59381 0.70058 0.53471 0.0
H2852 H 0.60381 0.66022 0.44877 0.0
H2853 H 0.61963 0.68577 0.38613 0.0
C2854 C 0.62545 0.72373 0.38562 0.0
C2855 C 0.62776 0.74322 0.39046 0.0
C2856 C 0.61635 0.70856 0.4229 0.0
C2857 C 0.62001 0.74631 0.43381 0.0
C2858 C 0.61104 0.73153 0.47031 0.0
C2859 C 0.59939 0.69719 0.50235 0.0
C2860 C 0.59714 0.67774 0.49784 0.0
C2861 C 0.60895 0.71244 0.46562 0.0
C2862 C 0.60494 0.67451 0.45472 0.0
C2863 C 0.61416 0.68939 0.4183 0.0
H2864 H 0.43413 0.92612 0.4504 0.0
H2865 H 0.4159 0.95923 0.54056 0.0
H2866 H 0.38498 0.94613 0.49454 0.0
H2867 H 0.36269 0.92657 0.42406 0.0
H2868 H 0.38224 0.89465 0.33289 0.0
H2869 H 0.41219 0.90663 0.38083 0.0
C2870 C 0.42367 0.93089 0.46 0.0
C2871 C 0.42832 0.94418 0.50031 0.0
C2872 C 0.40573 0.92385 0.43135 0.0
C2873 C 0.41373 0.94952 0.51046 0.0
C2874 C 0.39578 0.94207 0.48338 0.0
C2875 C 0.37337 0.92211 0.41433 0.0
C2876 C 0.36921 0.90917 0.37328 0.0
C2877 C 0.39148 0.92939 0.44296 0.0
C2878 C 0.3841 0.90422 0.36326 0.0
C2879 C 0.40165 0.91122 0.39114 0.0
H2880 H 0.34716 0.3395 0.02384 0.0
H2881 H 0.34391 0.36729 0.15529 0.0
H2882 H 0.35177 0.39756 0.11099 0.0
H2883 H 0.37003 0.41823 0.04273 0.0
H2884 H 0.379 0.39155 0.91569 0.0
H2885 H 0.35737 0.35863 0.9486 0.0
C2886 C 0.34724 0.35191 0.04207 0.0
C2887 C 0.34528 0.35154 0.09241 0.0
C2888 C 0.35305 0.36957 1.01688 0.0
C2889 C 0.34546 0.3675 0.11641 0.0
C2890 C 0.35013 0.3848 0.09111 0.0
C2891 C 0.36645 0.40524 0.02099 0.0
C2892 C 0.37666 0.40737 0.97737 0.0
C2893 C 0.35555 0.38647 0.04224 0.0
C2894 C 0.37153 0.39035 0.9495 0.0
C2895 C 0.35945 0.37148 0.96886 0.0
H2896 H 0.68707 0.97265 0.09365 0.0
H2897 H 0.71214 0.9865 0.95082 0.0
H2898 H 0.74515 0.99802 0.98374 0.0
H2899 H 0.76639 1.01547 0.05255 0.0
H2900 H 0.74079 1.00782 0.19435 0.0
H2901 H 0.70879 0.98203 0.16372 0.0
C2902 C 0.69963 0.97713 0.06961 0.0
C2903 C 0.69748 0.97947 0.02014 0.0
C2904 C 0.71866 0.98549 0.08932 0.0
C2905 C 0.71366 0.98503 0.98909 0.0
C2906 C 0.73255 0.99187 1.0081 0.0
C2907 C 0.75394 1.00748 0.07694 0.0
C2908 C 0.75551 1.01397 0.12491 0.0
C2909 C 0.73531 0.99402 0.0582 0.0
C2910 C 0.73971 1.00329 0.15697 0.0
C2911 C 0.72135 0.98872 0.13927 0.0
H2912 H 0.08744 0.77038 0.0444 0.0
H2913 H 0.10612 0.75857 0.18025 0.0
H2914 H 0.1308 0.75323 0.13914 0.0
H2915 H 0.13754 0.74065 0.06606 0.0
H2916 H 0.11207 0.74406 0.93135 0.0
H2917 H 0.10087 0.76522 0.96889 0.0
C2918 C 0.09761 0.76752 0.06485 0.0
C2919 C 0.09503 0.76463 0.11487 0.0
C2920 C 0.11046 0.76276 0.04056 0.0
C2921 C 0.10794 0.76078 0.14163 0.0
C2922 C 0.12194 0.7576 0.11803 0.0
C2923 C 0.13049 0.74692 0.04423 0.0
C2924 C 0.1247 0.74009 0.99681 0.0
C2925 C 0.12206 0.75689 0.06747 0.0
C2926 C 0.11614 0.74874 0.96842 0.0
C2927 C 0.10938 0.76047 0.99022 0.0
H2928 H 0.44126 0.35285 0.44591 0.0
H2929 H 0.41445 0.33685 0.58662 0.0
H2930 H 0.3824 0.31407 0.55067 0.0
H2931 H 0.36134 0.30935 0.48112 0.0
H2932 H 0.38808 0.33262 0.34258 0.0
H2933 H 0.42044 0.34077 0.37407 0.0
C2934 C 0.42858 0.34351 0.46862 0.0
C2935 C 0.42991 0.34675 0.51867 0.0
C2936 C 0.40993 0.33206 0.44735 0.0
C2937 C 0.41358 0.3347 0.54805 0.0
C2938 C 0.39522 0.32188 0.52731 0.0
C2939 C 0.3742 0.31555 0.4575 0.0
C2940 C 0.37262 0.32133 0.41048 0.0
C2941 C 0.39297 0.32203 0.47716 0.0
C2942 C 0.38903 0.32849 0.37933 0.0
C2943 C 0.40762 0.33342 0.39759 0.0
H2944 H 0.77516 0.0696 0.25575 0.0
H2945 H 0.81068 0.07892 0.38264 0.0
H2946 H 0.80102 0.10183 0.41438 0.0
H2947 H 0.7722 0.10641 0.421 0.0
H2948 H 0.73332 0.093 0.29922 0.0
H2949 H 0.75446 0.08484 0.25069 0.0
C2950 C 0.78155 0.07738 0.28924 0.0
C2951 C 0.79239 0.07141 0.31826 0.0
C2952 C 0.77457 0.08926 0.30931 0.0
C2953 C 0.80154 0.08247 0.36018 0.0
C2954 C 0.79575 0.09544 0.37898 0.0
C2955 C 0.76896 0.10272 0.38311 0.0
C2956 C 0.75085 0.09931 0.36416 0.0
C2957 C 0.78056 0.097 0.35639 0.0
C2958 C 0.74692 0.09497 0.31483 0.0
C2959 C 0.75895 0.09024 0.28717 0.0
H2960 H 0.07204 0.73398 0.24371 0.0
H2961 H 1.02711 0.74479 0.30336 0.0
H2962 H 1.00825 0.71031 0.32999 0.0
H2963 H 1.01252 0.68313 0.36247 0.0
H2964 H 1.05774 0.67283 0.30172 0.0
H2965 H 0.06847 0.7013 0.24868 0.0
C2966 C 1.05764 0.72876 0.26024 0.0
C2967 C 1.05196 0.74238 0.27625 0.0
C2968 C 1.04738 0.70923 0.27694 0.0
C2969 C 1.03254 0.73483 0.29405 0.0
C2970 C 1.02184 0.71514 0.30978 0.0
C2971 C 1.02416 0.68653 0.33629 0.0
C2972 C 1.03525 0.67677 0.33826 0.0
C2973 C 1.03037 0.70302 0.30605 0.0
C2974 C 1.04982 0.68097 0.30292 0.0
C2975 C 1.05584 0.69712 0.27222 0.0
H2976 H 0.76452 0.69011 0.91496 0.0
H2977 H 0.71908 0.66297 0.80661 0.0
H2978 H 0.73915 0.68978 0.75048 0.0
H2979 H 0.76289 0.72511 0.74571 0.0
H2980 H 0.80582 0.75363 0.85901 0.0
H2981 H 0.79463 0.72191 0.8974 0.0
C2982 C 0.75945 0.68965 0.87834 0.0
C2983 C 0.7401 0.67524 0.8654 0.0
C2984 C 0.77066 0.70556 0.84709 0.0
C2985 C 0.73372 0.67446 0.81769 0.0
C2986 C 0.74519 0.68975 0.78561 0.0
C2987 C 0.77051 0.72432 0.77739 0.0
C2988 C 0.78404 0.74194 0.80113 0.0
C2989 C 0.76279 0.7062 0.80168 0.0
C2990 C 0.79458 0.74051 0.84072 0.0
C2991 C 0.78794 0.72228 0.8635 0.0
H2992 H 0.37867 0.08368 0.97504 0.0
H2993 H 0.351 1.03929 0.08582 0.0
H2994 H 0.37993 0.05738 0.1374 0.0
H2995 H 0.41579 0.07728 0.13444 0.0
H2996 H 0.44446 0.11981 0.02008 0.0
H2997 H 0.41246 0.11167 0.98756 0.0
C2998 C 0.37863 0.0786 1.01149 0.0
C2999 C 0.36332 0.05991 0.0262 0.0
C3000 C 0.39572 0.08854 0.03982 0.0
C3001 C 0.36305 0.05346 0.07359 0.0
C3002 C 0.37961 0.06373 0.10289 0.0
C3003 C 0.41513 0.08575 0.10439 0.0
C3004 C 0.43252 0.09841 0.07876 0.0
C3005 C 0.39666 0.08013 0.08421 0.0
C3006 C 0.43135 0.10949 0.04008 0.0
C3007 C 0.41295 0.10464 0.02082 0.0
H3008 H 1.00108 0.35152 0.92528 0.0
H3009 H 1.01984 0.33748 0.05811 0.0
H3010 H 1.02901 0.31585 1.01446 0.0
H3011 H 1.04097 0.31015 0.93798 0.0
H3012 H 1.02826 0.33019 0.80525 0.0
H3013 H 1.00683 0.33963 0.8486 0.0
C3014 C 1.00626 0.34292 0.94485 0.0
C3015 C 1.01001 0.34612 0.99456 0.0
C3016 C 1.01298 0.33192 0.91899 0.0
C3017 C 1.01693 0.33519 0.01976 0.0
C3018 C 1.02237 0.32304 0.99468 0.0
C3019 C 1.03269 0.31565 0.91826 0.0
C3020 C 1.03627 0.3197 0.86868 0.0
C3021 C 1.02187 0.32258 0.94405 0.0
C3022 C 1.02569 0.32701 0.84343 0.0
C3023 C 1.01368 0.33264 0.86839 0.0
H3024 H 0.76757 0.76763 0.56014 0.0
H3025 H 0.736 0.75475 0.69497 0.0
H3026 H 0.70537 0.74647 0.65234 0.0
H3027 H 0.68683 0.73252 0.57838 0.0
H3028 H 0.7179 0.73861 0.44494 0.0
H3029 H 0.74941 0.76059 0.48412 0.0
C3030 C 0.75414 0.76404 0.58001 0.0
C3031 C 0.75374 0.76162 0.63018 0.0
C3032 C 0.73639 0.75761 0.55498 0.0
C3033 C 0.73645 0.75672 0.65622 0.0
C3034 C 0.71894 0.75173 0.63173 0.0
C3035 C 0.70039 0.73947 0.55723 0.0
C3036 C 0.70011 0.7337 0.50893 0.0
C3037 C 0.71849 0.75053 0.58115 0.0
C3038 C 0.71778 0.74277 0.48208 0.0
C3039 C 0.73583 0.75511 0.50478 0.0
H3040 H 0.36512 0.98752 0.45838 0.0
H3041 H 0.34896 0.95198 0.58719 0.0
H3042 H 0.32464 0.96192 0.60693 0.0
H3043 H 0.32043 0.99151 0.60374 0.0
H3044 H 0.33928 1.02797 0.47561 0.0
H3045 H 0.34899 1.00611 0.4383 0.0
C3046 C 0.3556 0.98088 0.48928 0.0
C3047 C 0.3605 0.9711 0.52442 0.0
C3048 C 0.34232 0.98734 0.50115 0.0
C3049 C 0.34677 0.9613 0.56193 0.0
C3050 C 0.33288 0.96705 0.57344 0.0
C3051 C 0.32591 0.99416 0.56693 0.0
C3052 C 0.33027 1.01197 0.54381 0.0
C3053 C 0.33251 0.98202 0.54626 0.0
C3054 C 0.33631 1.01472 0.49513 0.0
C3055 C 0.34207 1.00224 0.47361 0.0
H3056 H 0.11765 0.38684 0.55421 0.0
H3057 H 0.12858 0.42617 0.6744 0.0
H3058 H 0.12024 0.39911 0.73089 0.0
H3059 H 0.09927 0.36313 0.74228 0.0
H3060 H 0.08787 0.32384 0.62152 0.0
H3061 H 0.10797 0.35193 0.56958 0.0
C3062 C 0.11918 0.3896 0.59277 0.0
C3063 C 0.1231 0.40808 0.61048 0.0
C3064 C 0.11403 0.3739 0.62498 0.0
C3065 C 0.12533 0.41184 0.6603 0.0
C3066 C 0.1204 0.39635 0.69259 0.0
C3067 C 0.10216 0.3607 0.70535 0.0
C3068 C 0.0914 0.34163 0.6853 0.0
C3069 C 0.11313 0.37703 0.67506 0.0
C3070 C 0.09562 0.33848 0.6377 0.0
C3071 C 0.10689 0.35461 0.60756 0.0
H3072 H 1.029 0.64081 0.83216 0.0
H3073 H 1.04119 0.63875 0.68066 0.0
H3074 H 0.07468 0.64621 0.70043 0.0
H3075 H 0.10215 0.66604 0.75612 0.0
H3076 H 0.08922 0.67266 0.90366 0.0
H3077 H 1.0545 0.64877 0.89145 0.0
C3078 C 1.03839 0.64096 0.80312 0.0
C3079 C 1.03302 0.64084 0.75453 0.0
C3080 C 1.05783 0.64612 0.81456 0.0
C3081 C 1.04543 0.64026 0.71825 0.0
C3082 C 0.06459 0.6444 0.72955 0.0
C3083 C 0.09178 0.66148 0.78608 0.0
C3084 C 0.09772 0.67243 0.82935 0.0
C3085 C 0.07146 0.6495 0.77701 0.0
C3086 C 0.0848 0.66536 0.86909 0.0
C3087 C 0.06475 0.6519 0.86177 0.0
H3088 H 0.46456 0.40408 0.7663 0.0
H3089 H 0.44415 0.41321 0.62989 0.0
H3090 H 0.43424 0.43519 0.66805 0.0
H3091 H 0.42071 0.44083 0.74233 0.0
H3092 H 0.43466 0.42492 0.8791 0.0
H3093 H 0.45812 0.41716 0.83994 0.0
C3094 C 0.45895 0.41179 0.74459 0.0
C3095 C 0.45473 0.40685 0.6956 0.0
C3096 C 0.45153 0.42276 0.76771 0.0
C3097 C 0.44744 0.4168 0.66765 0.0
C3098 C 0.44146 0.42909 0.68974 0.0
C3099 C 0.42977 0.4367 0.76357 0.0
C3100 C 0.42603 0.43324 0.81314 0.0
C3101 C 0.44179 0.43061 0.74019 0.0
C3102 C 0.43745 0.42768 0.84085 0.0
C3103 C 0.45063 0.42299 0.81828 0.0
H3104 H 0.68841 0.06995 0.74384 0.0
H3105 H 0.71927 0.09563 0.87664 0.0
H3106 H 0.69524 0.06632 0.92109 0.0
H3107 H 0.6759 1.0301 0.9134 0.0
H3108 H 0.64901 1.00406 0.7769 0.0
H3109 H 0.65944 1.03653 0.74412 0.0
C3110 C 0.68919 0.06961 0.78286 0.0
C3111 C 0.7061 0.08414 0.80675 0.0
C3112 C 0.67604 0.05224 0.80757 0.0
C3113 C 0.70671 0.084 0.85742 0.0
C3114 C 0.69304 0.06719 0.88279 0.0
C3115 C 0.67156 1.03152 0.87725 0.0
C3116 C 0.66325 1.01491 0.84661 0.0
C3117 C 0.67915 0.05046 0.85715 0.0
C3118 C 0.65636 1.01666 0.80096 0.0
C3119 C 0.6626 1.0354 0.78165 0.0
H3120 H 0.46629 0.08546 0.31341 0.0
H3121 H 0.45642 0.05846 0.17312 0.0
H3122 H 0.44513 1.02603 0.2099 0.0
H3123 H 0.42694 1.00526 0.27888 0.0
H3124 H 0.43055 1.03231 0.41703 0.0
H3125 H 0.45567 0.06459 0.38551 0.0
C3126 C 0.46282 0.07262 0.29116 0.0
C3127 C 0.46177 0.07407 0.24093 0.0
C3128 C 0.45444 0.05383 0.31269 0.0
C3129 C 0.45723 0.05753 0.21194 0.0
C3130 C 0.45039 1.03893 0.23308 0.0
C3131 C 0.43404 1.01806 0.30264 0.0
C3132 C 0.42677 1.01667 0.34977 0.0
C3133 C 0.44718 1.03674 0.2831 0.0
C3134 C 0.43588 1.03323 0.38044 0.0
C3135 C 0.45007 0.05169 0.36221 0.0
H3136 H 1.01645 0.39562 0.2585 0.0
H3137 H 1.04939 0.40892 0.12543 0.0
H3138 H 0.08005 0.4308 0.16841 0.0
H3139 H 0.09761 0.43658 0.24472 0.0
H3140 H 0.06474 0.41682 0.37785 0.0
H3141 H 1.03393 0.40748 0.33476 0.0
C3142 C 1.03021 0.4041 0.23858 0.0
C3143 C 1.0308 0.40056 0.18897 0.0
C3144 C 1.04788 0.41508 0.26422 0.0
C3145 C 1.04866 0.41144 0.16356 0.0
C3146 C 0.06621 0.42371 0.18835 0.0
C3147 C 0.08381 0.43113 0.26454 0.0
C3148 C 0.08325 0.42714 0.31412 0.0
C3149 C 0.06611 0.42428 0.23896 0.0
C3150 C 0.06536 0.41988 0.33959 0.0
C3151 C 1.04778 0.41437 0.31483 0.0
H3152 H 0.66309 0.67931 0.25846 0.0
H3153 H 0.68509 0.669 0.39119 0.0
H3154 H 0.69313 0.64614 0.34967 0.0
H3155 H 0.70423 0.63943 0.27321 0.0
H3156 H 0.68896 0.65656 0.13964 0.0
H3157 H 0.66725 0.66563 0.18307 0.0
C3158 C 0.6687 0.67125 0.27875 0.0
C3159 C 0.67388 0.67601 0.32749 0.0
C3160 C 0.67491 0.65966 0.25374 0.0
C3161 C 0.68118 0.66561 0.35353 0.0
C3162 C 0.68598 0.65275 0.3296 0.0
C3163 C 0.6953 0.64415 0.25345 0.0
C3164 C 0.69836 0.64774 0.20362 0.0
C3165 C 0.6845 0.65112 0.27915 0.0
C3166 C 0.68686 0.65388 0.17812 0.0
C3167 C 0.67471 0.65932 0.2031 0.0
loop_
_geom_bond_atom_site_label_1
_geom_bond_atom_site_label_2
_geom_bond_distance
_geom_bond_site_symmetry_2
_ccdc_geom_bond_type
La0 C2 2.928 . S
La0 O20 2.521 . S
La0 O21 2.628 . S
La0 O22 2.554 . S
La0 O23 2.757 . S
La0 O24 2.470 . S
La0 O29 2.482 . S
La0 O31 2.503 . S
La1 C11 2.928 . S
La1 O23 2.482 . S
La1 O25 2.503 . S
La1 O26 2.521 . S
La1 O27 2.628 . S
La1 O28 2.554 . S
La1 O29 2.757 . S
La1 O30 2.470 . S
C2 La0 2.928 . S
C2 C3 1.503 . S
C2 O20 1.261 . S
C2 O21 1.243 . S
C3 C2 1.503 . S
C3 C4 1.394 . S
C3 C8 1.373 . S
C4 C3 1.394 . S
C4 C5 1.380 . S
C4 H32 0.930 . S
C5 C4 1.380 . S
C5 C6 1.376 . S
C5 H33 0.930 . S
C6 C5 1.376 . S
C6 C7 1.370 . S
C7 C6 1.370 . S
C7 C8 1.396 . S
C7 H34 0.929 . S
C8 C3 1.373 . S
C8 C7 1.396 . S
C8 H35 0.929 . S
C9 O22 1.240 . S
C9 O23 1.289 . S
C10 O24 1.258 . S
C10 O25 1.256 . S
C11 La1 2.928 . S
C11 C12 1.503 . S
C11 O26 1.261 . S
C11 O27 1.243 . S
C12 C11 1.503 . S
C12 C13 1.394 . S
C12 C17 1.373 . S
C13 C12 1.394 . S
C13 C14 1.380 . S
C13 H36 0.930 . S
C14 C13 1.380 . S
C14 C15 1.376 . S
C14 H37 0.930 . S
C15 C14 1.376 . S
C15 C16 1.370 . S
C16 C15 1.370 . S
C16 C17 1.396 . S
C16 H38 0.929 . S
C17 C12 1.373 . S
C17 C16 1.396 . S
C17 H39 0.929 . S
C18 O28 1.240 . S
C18 O29 1.289 . S
C19 O30 1.258 . S
C19 O31 1.256 . S
O20 La0 2.521 . S
O20 C2 1.261 . S
O21 La0 2.628 . S
O21 C2 1.243 . S
O22 La0 2.554 . S
O22 C9 1.240 . S
O23 La0 2.757 . S
O23 La1 2.482 . S
O23 C9 1.289 . S
O24 La0 2.470 . S
O24 C10 1.258 . S
O25 La1 2.503 . S
O25 C10 1.256 . S
O26 La1 2.521 . S
O26 C11 1.261 . S
O27 La1 2.628 . S
O27 C11 1.243 . S
O28 La1 2.554 . S
O28 C18 1.240 . S
O29 La0 2.482 . S
O29 La1 2.757 . S
O29 C18 1.289 . S
O30 La1 2.470 . S
O30 C19 1.258 . S
O31 La0 2.503 . S
O31 C19 1.256 . S
H32 C4 0.930 . S
H33 C5 0.930 . S
H34 C7 0.929 . S
H35 C8 0.929 . S
H36 C13 0.930 . S
H37 C14 0.930 . S
H38 C16 0.929 . S
H39 C17 0.929 . S
La40 C42 2.928 . S
La40 O60 2.521 . S
La40 O61 2.628 . S
La40 O62 2.554 . S
La40 O63 2.757 . S
La40 O64 2.470 . S
La40 O69 2.482 . S
La40 O71 2.503 . S
La41 C51 2.928 . S
La41 O63 2.482 . S
La41 O65 2.503 . S
La41 O66 2.521 . S
La41 O67 2.628 . S
La41 O68 2.554 . S
La41 O69 2.757 . S
La41 O70 2.470 . S
C42 La40 2.928 . S
C42 C43 1.503 . S
C42 O60 1.261 . S
C42 O61 1.243 . S
C43 C42 1.503 . S
C43 C44 1.394 . S
C43 C48 1.373 . S
C44 C43 1.394 . S
C44 C45 1.380 . S
C44 H72 0.930 . S
C45 C44 1.380 . S
C45 C46 1.376 . S
C45 H73 0.930 . S
C46 C45 1.376 . S
C46 C47 1.370 . S
C47 C46 1.370 . S
C47 C48 1.396 . S
C47 H74 0.929 . S
C48 C43 1.373 . S
C48 C47 1.396 . S
C48 H75 0.929 . S
C49 O62 1.240 . S
C49 O63 1.289 . S
C50 O64 1.258 . S
C50 O65 1.256 . S
C51 La41 2.928 . S
C51 C52 1.503 . S
C51 O66 1.261 . S
C51 O67 1.243 . S
C52 C51 1.503 . S
C52 C53 1.394 . S
C52 C57 1.373 . S
C53 C52 1.394 . S
C53 C54 1.380 . S
C53 H76 0.930 . S
C54 C53 1.380 . S
C54 C55 1.376 1_545 S
C54 H77 0.930 . S
C55 C54 1.376 1_565 S
C55 C56 1.370 . S
C56 C55 1.370 . S
C56 C57 1.396 1_565 S
C56 H78 0.929 . S
C57 C52 1.373 . S
C57 C56 1.396 1_545 S
C57 H79 0.929 . S
C58 O68 1.240 . S
C58 O69 1.289 . S
C59 O70 1.258 . S
C59 O71 1.256 . S
O60 La40 2.521 . S
O60 C42 1.261 . S
O61 La40 2.628 . S
O61 C42 1.243 . S
O62 La40 2.554 . S
O62 C49 1.240 . S
O63 La40 2.757 . S
O63 La41 2.482 . S
O63 C49 1.289 . S
O64 La40 2.470 . S
O64 C50 1.258 . S
O65 La41 2.503 . S
O65 C50 1.256 . S
O66 La41 2.521 . S
O66 C51 1.261 . S
O67 La41 2.628 . S
O67 C51 1.243 . S
O68 La41 2.554 . S
O68 C58 1.240 . S
O69 La40 2.482 . S
O69 La41 2.757 . S
O69 C58 1.289 . S
O70 La41 2.470 . S
O70 C59 1.258 . S
O71 La40 2.503 . S
O71 C59 1.256 . S
H72 C44 0.930 . S
H73 C45 0.930 . S
H74 C47 0.929 . S
H75 C48 0.929 . S
H76 C53 0.930 . S
H77 C54 0.930 . S
H78 C56 0.929 . S
H79 C57 0.929 . S
La80 C82 2.928 . S
La80 O100 2.521 . S
La80 O101 2.628 . S
La80 O102 2.554 . S
La80 O103 2.757 . S
La80 O104 2.470 . S
La80 O109 2.482 . S
La80 O111 2.503 . S
La81 C91 2.928 . S
La81 O103 2.482 . S
La81 O105 2.503 . S
La81 O106 2.521 . S
La81 O107 2.628 . S
La81 O108 2.554 . S
La81 O109 2.757 . S
La81 O110 2.470 . S
C82 La80 2.928 . S
C82 C83 1.503 . S
C82 O100 1.261 . S
C82 O101 1.243 . S
C83 C82 1.503 . S
C83 C84 1.394 . S
C83 C88 1.373 . S
C84 C83 1.394 . S
C84 C85 1.380 . S
C84 H112 0.930 . S
C85 C84 1.380 . S
C85 C86 1.376 . S
C85 H113 0.930 . S
C86 C85 1.376 . S
C86 C87 1.370 . S
C87 C86 1.370 . S
C87 C88 1.396 . S
C87 H114 0.929 . S
C88 C83 1.373 . S
C88 C87 1.396 . S
C88 H115 0.929 . S
C89 O102 1.240 . S
C89 O103 1.289 . S
C90 O104 1.258 . S
C90 O105 1.256 . S
C91 La81 2.928 . S
C91 C92 1.503 . S
C91 O106 1.261 . S
C91 O107 1.243 . S
C92 C91 1.503 . S
C92 C93 1.394 . S
C92 C97 1.373 . S
C93 C92 1.394 . S
C93 C94 1.380 . S
C93 H116 0.930 . S
C94 C93 1.380 . S
C94 C95 1.376 1_655 S
C94 H117 0.930 . S
C95 C94 1.376 1_455 S
C95 C96 1.370 . S
C96 C95 1.370 . S
C96 C97 1.396 1_455 S
C96 H118 0.929 . S
C97 C92 1.373 . S
C97 C96 1.396 1_655 S
C97 H119 0.929 . S
C98 O108 1.240 . S
C98 O109 1.289 . S
C99 O110 1.258 . S
C99 O111 1.256 . S
O100 La80 2.521 . S
O100 C82 1.261 . S
O101 La80 2.628 . S
O101 C82 1.243 . S
O102 La80 2.554 . S
O102 C89 1.240 . S
O103 La80 2.757 . S
O103 La81 2.482 . S
O103 C89 1.289 . S
O104 La80 2.470 . S
O104 C90 1.258 . S
O105 La81 2.503 . S
O105 C90 1.256 . S
O106 La81 2.521 . S
O106 C91 1.261 . S
O107 La81 2.628 . S
O107 C91 1.243 . S
O108 La81 2.554 . S
O108 C98 1.240 . S
O109 La80 2.482 . S
O109 La81 2.757 . S
O109 C98 1.289 . S
O110 La81 2.470 . S
O110 C99 1.258 . S
O111 La80 2.503 . S
O111 C99 1.256 . S
H112 C84 0.930 . S
H113 C85 0.930 . S
H114 C87 0.929 . S
H115 C88 0.929 . S
H116 C93 0.930 . S
H117 C94 0.930 . S
H118 C96 0.929 . S
H119 C97 0.929 . S
La120 C122 2.928 . S
La120 O140 2.521 . S
La120 O141 2.628 . S
La120 O142 2.554 . S
La120 O143 2.757 . S
La120 O144 2.470 . S
La120 O149 2.482 . S
La120 O151 2.503 . S
La121 C131 2.928 . S
La121 O143 2.482 . S
La121 O145 2.503 . S
La121 O146 2.521 . S
La121 O147 2.628 . S
La121 O148 2.554 . S
La121 O149 2.757 . S
La121 O150 2.470 . S
C122 La120 2.928 . S
C122 C123 1.503 . S
C122 O140 1.261 . S
C122 O141 1.243 . S
C123 C122 1.503 . S
C123 C124 1.394 . S
C123 C128 1.373 . S
C124 C123 1.394 . S
C124 C125 1.380 . S
C124 H152 0.930 . S
C125 C124 1.380 . S
C125 C126 1.376 . S
C125 H153 0.930 . S
C126 C125 1.376 . S
C126 C127 1.370 . S
C127 C126 1.370 . S
C127 C128 1.396 . S
C127 H154 0.929 . S
C128 C123 1.373 . S
C128 C127 1.396 . S
C128 H155 0.929 . S
C129 O142 1.240 . S
C129 O143 1.289 . S
C130 O144 1.258 . S
C130 O145 1.256 . S
C131 La121 2.928 . S
C131 C132 1.503 . S
C131 O146 1.261 . S
C131 O147 1.243 . S
C132 C131 1.503 . S
C132 C133 1.394 . S
C132 C137 1.373 . S
C133 C132 1.394 . S
C133 C134 1.380 . S
C133 H156 0.930 . S
C134 C133 1.380 . S
C134 C135 1.376 . S
C134 H157 0.930 . S
C135 C134 1.376 . S
C135 C136 1.370 . S
C136 C135 1.370 . S
C136 C137 1.396 . S
C136 H158 0.929 . S
C137 C132 1.373 . S
C137 C136 1.396 . S
C137 H159 0.929 . S
C138 O148 1.240 . S
C138 O149 1.289 . S
C139 O150 1.258 . S
C139 O151 1.256 . S
O140 La120 2.521 . S
O140 C122 1.261 . S
O141 La120 2.628 . S
O141 C122 1.243 . S
O142 La120 2.554 . S
O142 C129 1.240 . S
O143 La120 2.757 . S
O143 La121 2.482 . S
O143 C129 1.289 . S
O144 La120 2.470 . S
O144 C130 1.258 . S
O145 La121 2.503 . S
O145 C130 1.256 . S
O146 La121 2.521 . S
O146 C131 1.261 . S
O147 La121 2.628 . S
O147 C131 1.243 . S
O148 La121 2.554 . S
O148 C138 1.240 . S
O149 La120 2.482 . S
O149 La121 2.757 . S
O149 C138 1.289 . S
O150 La121 2.470 . S
O150 C139 1.258 . S
O151 La120 2.503 . S
O151 C139 1.256 . S
H152 C124 0.930 . S
H153 C125 0.930 . S
H154 C127 0.929 . S
H155 C128 0.929 . S
H156 C133 0.930 . S
H157 C134 0.930 . S
H158 C136 0.929 . S
H159 C137 0.929 . S
La160 C162 2.928 . S
La160 O180 2.521 . S
La160 O181 2.628 . S
La160 O182 2.554 . S
La160 O183 2.757 . S
La160 O184 2.470 . S
La160 O189 2.482 . S
La160 O191 2.503 . S
La161 C171 2.928 . S
La161 O183 2.482 . S
La161 O185 2.503 . S
La161 O186 2.521 . S
La161 O187 2.628 . S
La161 O188 2.554 . S
La161 O189 2.757 . S
La161 O190 2.470 . S
C162 La160 2.928 . S
C162 C163 1.503 . S
C162 O180 1.261 . S
C162 O181 1.243 . S
C163 C162 1.503 . S
C163 C164 1.394 . S
C163 C168 1.373 . S
C164 C163 1.394 . S
C164 C165 1.380 . S
C164 H192 0.930 . S
C165 C164 1.380 . S
C165 C166 1.376 . S
C165 H193 0.930 . S
C166 C165 1.376 . S
C166 C167 1.370 . S
C167 C166 1.370 . S
C167 C168 1.396 . S
C167 H194 0.929 . S
C168 C163 1.373 . S
C168 C167 1.396 . S
C168 H195 0.929 . S
C169 O182 1.240 . S
C169 O183 1.289 . S
C170 O184 1.258 . S
C170 O185 1.256 . S
C171 La161 2.928 . S
C171 C172 1.503 . S
C171 O186 1.261 . S
C171 O187 1.243 . S
C172 C171 1.503 . S
C172 C173 1.394 . S
C172 C177 1.373 . S
C173 C172 1.394 . S
C173 C174 1.380 . S
C173 H196 0.930 . S
C174 C173 1.380 . S
C174 C175 1.376 1_565 S
C174 H197 0.930 . S
C175 C174 1.376 1_545 S
C175 C176 1.370 . S
C176 C175 1.370 . S
C176 C177 1.396 1_545 S
C176 H198 0.929 . S
C177 C172 1.373 . S
C177 C176 1.396 1_565 S
C177 H199 0.929 . S
C178 O188 1.240 . S
C178 O189 1.289 . S
C179 O190 1.258 . S
C179 O191 1.256 . S
O180 La160 2.521 . S
O180 C162 1.261 . S
O181 La160 2.628 . S
O181 C162 1.243 . S
O182 La160 2.554 . S
O182 C169 1.240 . S
O183 La160 2.757 . S
O183 La161 2.482 . S
O183 C169 1.289 . S
O184 La160 2.470 . S
O184 C170 1.258 . S
O185 La161 2.503 . S
O185 C170 1.256 . S
O186 La161 2.521 . S
O186 C171 1.261 . S
O187 La161 2.628 . S
O187 C171 1.243 . S
O188 La161 2.554 . S
O188 C178 1.240 . S
O189 La160 2.482 . S
O189 La161 2.757 . S
O189 C178 1.289 . S
O190 La161 2.470 . S
O190 C179 1.258 . S
O191 La160 2.503 . S
O191 C179 1.256 . S
H192 C164 0.930 . S
H193 C165 0.930 . S
H194 C167 0.929 . S
H195 C168 0.929 . S
H196 C173 0.930 . S
H197 C174 0.930 . S
H198 C176 0.929 . S
H199 C177 0.929 . S
La200 C202 2.928 . S
La200 O220 2.521 . S
La200 O221 2.628 . S
La200 O222 2.554 . S
La200 O223 2.757 . S
La200 O224 2.470 . S
La200 O229 2.482 . S
La200 O231 2.503 . S
La201 C211 2.928 . S
La201 O223 2.482 . S
La201 O225 2.503 . S
La201 O226 2.521 . S
La201 O227 2.628 . S
La201 O228 2.554 . S
La201 O229 2.757 . S
La201 O230 2.470 . S
C202 La200 2.928 . S
C202 C203 1.503 . S
C202 O220 1.261 . S
C202 O221 1.243 . S
C203 C202 1.503 . S
C203 C204 1.394 . S
C203 C208 1.373 . S
C204 C203 1.394 . S
C204 C205 1.380 . S
C204 H232 0.930 . S
C205 C204 1.380 . S
C205 C206 1.376 . S
C205 H233 0.930 . S
C206 C205 1.376 . S
C206 C207 1.370 . S
C207 C206 1.370 . S
C207 C208 1.396 . S
C207 H234 0.929 . S
C208 C203 1.373 . S
C208 C207 1.396 . S
C208 H235 0.929 . S
C209 O222 1.240 . S
C209 O223 1.289 . S
C210 O224 1.258 . S
C210 O225 1.256 . S
C211 La201 2.928 . S
C211 C212 1.503 . S
C211 O226 1.261 . S
C211 O227 1.243 . S
C212 C211 1.503 . S
C212 C213 1.394 . S
C212 C217 1.373 . S
C213 C212 1.394 . S
C213 C214 1.380 . S
C213 H236 0.930 . S
C214 C213 1.380 . S
C214 C215 1.376 1_455 S
C214 H237 0.930 . S
C215 C214 1.376 1_655 S
C215 C216 1.370 . S
C216 C215 1.370 . S
C216 C217 1.396 1_655 S
C216 H238 0.929 . S
C217 C212 1.373 . S
C217 C216 1.396 1_455 S
C217 H239 0.929 . S
C218 O228 1.240 . S
C218 O229 1.289 . S
C219 O230 1.258 . S
C219 O231 1.256 . S
O220 La200 2.521 . S
O220 C202 1.261 . S
O221 La200 2.628 . S
O221 C202 1.243 . S
O222 La200 2.554 . S
O222 C209 1.240 . S
O223 La200 2.757 . S
O223 La201 2.482 . S
O223 C209 1.289 . S
O224 La200 2.470 . S
O224 C210 1.258 . S
O225 La201 2.503 . S
O225 C210 1.256 . S
O226 La201 2.521 . S
O226 C211 1.261 . S
O227 La201 2.628 . S
O227 C211 1.243 . S
O228 La201 2.554 . S
O228 C218 1.240 . S
O229 La200 2.482 . S
O229 La201 2.757 . S
O229 C218 1.289 . S
O230 La201 2.470 . S
O230 C219 1.258 . S
O231 La200 2.503 . S
O231 C219 1.256 . S
H232 C204 0.930 . S
H233 C205 0.930 . S
H234 C207 0.929 . S
H235 C208 0.929 . S
H236 C213 0.930 . S
H237 C214 0.930 . S
H238 C216 0.929 . S
H239 C217 0.929 . S
La240 C242 2.928 . S
La240 O260 2.521 . S
La240 O261 2.628 . S
La240 O262 2.554 . S
La240 O263 2.757 . S
La240 O264 2.470 . S
La240 O269 2.482 . S
La240 O271 2.503 . S
La241 C251 2.928 . S
La241 O263 2.482 . S
La241 O265 2.503 . S
La241 O266 2.521 . S
La241 O267 2.628 . S
La241 O268 2.554 . S
La241 O269 2.757 . S
La241 O270 2.470 . S
C242 La240 2.928 . S
C242 C243 1.503 . S
C242 O260 1.261 . S
C242 O261 1.243 . S
C243 C242 1.503 . S
C243 C244 1.394 . S
C243 C248 1.373 . S
C244 C243 1.394 . S
C244 C245 1.380 . S
C244 H272 0.930 . S
C245 C244 1.380 . S
C245 C246 1.376 . S
C245 H273 0.930 . S
C246 C245 1.376 . S
C246 C247 1.370 . S
C247 C246 1.370 . S
C247 C248 1.396 . S
C247 H274 0.929 . S
C248 C243 1.373 . S
C248 C247 1.396 . S
C248 H275 0.929 . S
C249 O262 1.240 . S
C249 O263 1.289 . S
C250 O264 1.258 . S
C250 O265 1.256 . S
C251 La241 2.928 . S
C251 C252 1.503 . S
C251 O266 1.261 . S
C251 O267 1.243 . S
C252 C251 1.503 . S
C252 C253 1.394 . S
C252 C257 1.373 . S
C253 C252 1.394 . S
C253 C254 1.380 . S
C253 H276 0.930 . S
C254 C253 1.380 . S
C254 C255 1.376 . S
C254 H277 0.930 . S
C255 C254 1.376 . S
C255 C256 1.370 . S
C256 C255 1.370 . S
C256 C257 1.396 . S
C256 H278 0.929 . S
C257 C252 1.373 . S
C257 C256 1.396 . S
C257 H279 0.929 . S
C258 O268 1.240 . S
C258 O269 1.289 . S
C259 O270 1.258 . S
C259 O271 1.256 . S
O260 La240 2.521 . S
O260 C242 1.261 . S
O261 La240 2.628 . S
O261 C242 1.243 . S
O262 La240 2.554 . S
O262 C249 1.240 . S
O263 La240 2.757 . S
O263 La241 2.482 . S
O263 C249 1.289 . S
O264 La240 2.470 . S
O264 C250 1.258 . S
O265 La241 2.503 . S
O265 C250 1.256 . S
O266 La241 2.521 . S
O266 C251 1.261 . S
O267 La241 2.628 . S
O267 C251 1.243 . S
O268 La241 2.554 . S
O268 C258 1.240 . S
O269 La240 2.482 . S
O269 La241 2.757 . S
O269 C258 1.289 . S
O270 La241 2.470 . S
O270 C259 1.258 . S
O271 La240 2.503 . S
O271 C259 1.256 . S
H272 C244 0.930 . S
H273 C245 0.930 . S
H274 C247 0.929 . S
H275 C248 0.929 . S
H276 C253 0.930 . S
H277 C254 0.930 . S
H278 C256 0.929 . S
H279 C257 0.929 . S
La280 C282 2.928 . S
La280 O300 2.521 . S
La280 O301 2.628 . S
La280 O302 2.554 . S
La280 O303 2.757 . S
La280 O304 2.470 . S
La280 O309 2.482 . S
La280 O311 2.503 . S
La281 C291 2.928 . S
La281 O303 2.482 . S
La281 O305 2.503 . S
La281 O306 2.521 . S
La281 O307 2.628 . S
La281 O308 2.554 . S
La281 O309 2.757 . S
La281 O310 2.470 . S
C282 La280 2.928 . S
C282 C283 1.503 . S
C282 O300 1.261 . S
C282 O301 1.243 . S
C283 C282 1.503 . S
C283 C284 1.394 . S
C283 C288 1.373 . S
C284 C283 1.394 . S
C284 C285 1.380 . S
C284 H312 0.930 . S
C285 C284 1.380 . S
C285 C286 1.376 1_565 S
C285 H313 0.930 . S
C286 C285 1.376 1_545 S
C286 C287 1.370 . S
C287 C286 1.370 . S
C287 C288 1.396 1_545 S
C287 H314 0.929 . S
C288 C283 1.373 . S
C288 C287 1.396 1_565 S
C288 H315 0.929 . S
C289 O302 1.240 . S
C289 O303 1.289 . S
C290 O304 1.258 . S
C290 O305 1.256 . S
C291 La281 2.928 . S
C291 C292 1.503 . S
C291 O306 1.261 . S
C291 O307 1.243 . S
C292 C291 1.503 . S
C292 C293 1.394 . S
C292 C297 1.373 . S
C293 C292 1.394 . S
C293 C294 1.380 . S
C293 H316 0.930 . S
C294 C293 1.380 . S
C294 C295 1.376 . S
C294 H317 0.930 . S
C295 C294 1.376 . S
C295 C296 1.370 . S
C296 C295 1.370 . S
C296 C297 1.396 . S
C296 H318 0.929 . S
C297 C292 1.373 . S
C297 C296 1.396 . S
C297 H319 0.929 . S
C298 O308 1.240 . S
C298 O309 1.289 . S
C299 O310 1.258 . S
C299 O311 1.256 . S
O300 La280 2.521 . S
O300 C282 1.261 . S
O301 La280 2.628 . S
O301 C282 1.243 . S
O302 La280 2.554 . S
O302 C289 1.240 . S
O303 La280 2.757 . S
O303 La281 2.482 . S
O303 C289 1.289 . S
O304 La280 2.470 . S
O304 C290 1.258 . S
O305 La281 2.503 . S
O305 C290 1.256 . S
O306 La281 2.521 . S
O306 C291 1.261 . S
O307 La281 2.628 . S
O307 C291 1.243 . S
O308 La281 2.554 . S
O308 C298 1.240 . S
O309 La280 2.482 . S
O309 La281 2.757 . S
O309 C298 1.289 . S
O310 La281 2.470 . S
O310 C299 1.258 . S
O311 La280 2.503 . S
O311 C299 1.256 . S
H312 C284 0.930 . S
H313 C285 0.930 . S
H314 C287 0.929 . S
H315 C288 0.929 . S
H316 C293 0.930 . S
H317 C294 0.930 . S
H318 C296 0.929 . S
H319 C297 0.929 . S
La320 C322 2.928 . S
La320 O340 2.521 . S
La320 O341 2.628 . S
La320 O342 2.554 . S
La320 O343 2.757 . S
La320 O344 2.470 . S
La320 O349 2.482 . S
La320 O351 2.503 . S
La321 C331 2.928 . S
La321 O343 2.482 . S
La321 O345 2.503 . S
La321 O346 2.521 . S
La321 O347 2.628 . S
La321 O348 2.554 . S
La321 O349 2.757 . S
La321 O350 2.470 . S
C322 La320 2.928 . S
C322 C323 1.503 . S
C322 O340 1.261 . S
C322 O341 1.243 . S
C323 C322 1.503 . S
C323 C324 1.394 . S
C323 C328 1.373 . S
C324 C323 1.394 . S
C324 C325 1.380 . S
C324 H352 0.930 . S
C325 C324 1.380 . S
C325 C326 1.376 1_455 S
C325 H353 0.930 . S
C326 C325 1.376 1_655 S
C326 C327 1.370 . S
C327 C326 1.370 . S
C327 C328 1.396 1_655 S
C327 H354 0.929 . S
C328 C323 1.373 . S
C328 C327 1.396 1_455 S
C328 H355 0.929 . S
C329 O342 1.240 . S
C329 O343 1.289 . S
C330 O344 1.258 . S
C330 O345 1.256 . S
C331 La321 2.928 . S
C331 C332 1.503 . S
C331 O346 1.261 . S
C331 O347 1.243 . S
C332 C331 1.503 . S
C332 C333 1.394 . S
C332 C337 1.373 . S
C333 C332 1.394 . S
C333 C334 1.380 . S
C333 H356 0.930 . S
C334 C333 1.380 . S
C334 C335 1.376 . S
C334 H357 0.930 . S
C335 C334 1.376 . S
C335 C336 1.370 . S
C336 C335 1.370 . S
C336 C337 1.396 . S
C336 H358 0.929 . S
C337 C332 1.373 . S
C337 C336 1.396 . S
C337 H359 0.929 . S
C338 O348 1.240 . S
C338 O349 1.289 . S
C339 O350 1.258 . S
C339 O351 1.256 . S
O340 La320 2.521 . S
O340 C322 1.261 . S
O341 La320 2.628 . S
O341 C322 1.243 . S
O342 La320 2.554 . S
O342 C329 1.240 . S
O343 La320 2.757 . S
O343 La321 2.482 . S
O343 C329 1.289 . S
O344 La320 2.470 . S
O344 C330 1.258 . S
O345 La321 2.503 . S
O345 C330 1.256 . S
O346 La321 2.521 . S
O346 C331 1.261 . S
O347 La321 2.628 . S
O347 C331 1.243 . S
O348 La321 2.554 . S
O348 C338 1.240 . S
O349 La320 2.482 . S
O349 La321 2.757 . S
O349 C338 1.289 . S
O350 La321 2.470 . S
O350 C339 1.258 . S
O351 La320 2.503 . S
O351 C339 1.256 . S
H352 C324 0.930 . S
H353 C325 0.930 . S
H354 C327 0.929 . S
H355 C328 0.929 . S
H356 C333 0.930 . S
H357 C334 0.930 . S
H358 C336 0.929 . S
H359 C337 0.929 . S
La360 C362 2.928 . S
La360 O380 2.521 . S
La360 O381 2.628 . S
La360 O382 2.554 . S
La360 O383 2.757 . S
La360 O384 2.470 . S
La360 O389 2.482 . S
La360 O391 2.503 . S
La361 C371 2.928 . S
La361 O383 2.482 . S
La361 O385 2.503 . S
La361 O386 2.521 . S
La361 O387 2.628 . S
La361 O388 2.554 . S
La361 O389 2.757 . S
La361 O390 2.470 . S
C362 La360 2.928 . S
C362 C363 1.503 . S
C362 O380 1.261 . S
C362 O381 1.243 . S
C363 C362 1.503 . S
C363 C364 1.394 . S
C363 C368 1.373 . S
C364 C363 1.394 . S
C364 C365 1.380 . S
C364 H392 0.930 . S
C365 C364 1.380 . S
C365 C366 1.376 . S
C365 H393 0.930 . S
C366 C365 1.376 . S
C366 C367 1.370 . S
C367 C366 1.370 . S
C367 C368 1.396 . S
C367 H394 0.929 . S
C368 C363 1.373 . S
C368 C367 1.396 . S
C368 H395 0.929 . S
C369 O382 1.240 . S
C369 O383 1.289 . S
C370 O384 1.258 . S
C370 O385 1.256 . S
C371 La361 2.928 . S
C371 C372 1.503 . S
C371 O386 1.261 . S
C371 O387 1.243 . S
C372 C371 1.503 . S
C372 C373 1.394 . S
C372 C377 1.373 . S
C373 C372 1.394 . S
C373 C374 1.380 . S
C373 H396 0.930 . S
C374 C373 1.380 . S
C374 C375 1.376 . S
C374 H397 0.930 . S
C375 C374 1.376 . S
C375 C376 1.370 . S
C376 C375 1.370 . S
C376 C377 1.396 . S
C376 H398 0.929 . S
C377 C372 1.373 . S
C377 C376 1.396 . S
C377 H399 0.929 . S
C378 O388 1.240 . S
C378 O389 1.289 . S
C379 O390 1.258 . S
C379 O391 1.256 . S
O380 La360 2.521 . S
O380 C362 1.261 . S
O381 La360 2.628 . S
O381 C362 1.243 . S
O382 La360 2.554 . S
O382 C369 1.240 . S
O383 La360 2.757 . S
O383 La361 2.482 . S
O383 C369 1.289 . S
O384 La360 2.470 . S
O384 C370 1.258 . S
O385 La361 2.503 . S
O385 C370 1.256 . S
O386 La361 2.521 . S
O386 C371 1.261 . S
O387 La361 2.628 . S
O387 C371 1.243 . S
O388 La361 2.554 . S
O388 C378 1.240 . S
O389 La360 2.482 . S
O389 La361 2.757 . S
O389 C378 1.289 . S
O390 La361 2.470 . S
O390 C379 1.258 . S
O391 La360 2.503 . S
O391 C379 1.256 . S
H392 C364 0.930 . S
H393 C365 0.930 . S
H394 C367 0.929 . S
H395 C368 0.929 . S
H396 C373 0.930 . S
H397 C374 0.930 . S
H398 C376 0.929 . S
H399 C377 0.929 . S
La400 C402 2.928 . S
La400 O420 2.521 . S
La400 O421 2.628 . S
La400 O422 2.554 . S
La400 O423 2.757 . S
La400 O424 2.470 . S
La400 O429 2.482 . S
La400 O431 2.503 . S
La401 C411 2.928 . S
La401 O423 2.482 . S
La401 O425 2.503 . S
La401 O426 2.521 . S
La401 O427 2.628 . S
La401 O428 2.554 . S
La401 O429 2.757 . S
La401 O430 2.470 . S
C402 La400 2.928 . S
C402 C403 1.503 . S
C402 O420 1.261 . S
C402 O421 1.243 . S
C403 C402 1.503 . S
C403 C404 1.394 . S
C403 C408 1.373 . S
C404 C403 1.394 . S
C404 C405 1.380 . S
C404 H432 0.930 . S
C405 C404 1.380 . S
C405 C406 1.376 1_545 S
C405 H433 0.930 . S
C406 C405 1.376 1_565 S
C406 C407 1.370 . S
C407 C406 1.370 . S
C407 C408 1.396 1_565 S
C407 H434 0.929 . S
C408 C403 1.373 . S
C408 C407 1.396 1_545 S
C408 H435 0.929 . S
C409 O422 1.240 . S
C409 O423 1.289 . S
C410 O424 1.258 . S
C410 O425 1.256 . S
C411 La401 2.928 . S
C411 C412 1.503 . S
C411 O426 1.261 . S
C411 O427 1.243 . S
C412 C411 1.503 . S
C412 C413 1.394 . S
C412 C417 1.373 . S
C413 C412 1.394 . S
C413 C414 1.380 . S
C413 H436 0.930 . S
C414 C413 1.380 . S
C414 C415 1.376 . S
C414 H437 0.930 . S
C415 C414 1.376 . S
C415 C416 1.370 . S
C416 C415 1.370 . S
C416 C417 1.396 . S
C416 H438 0.929 . S
C417 C412 1.373 . S
C417 C416 1.396 . S
C417 H439 0.929 . S
C418 O428 1.240 . S
C418 O429 1.289 . S
C419 O430 1.258 . S
C419 O431 1.256 . S
O420 La400 2.521 . S
O420 C402 1.261 . S
O421 La400 2.628 . S
O421 C402 1.243 . S
O422 La400 2.554 . S
O422 C409 1.240 . S
O423 La400 2.757 . S
O423 La401 2.482 . S
O423 C409 1.289 . S
O424 La400 2.470 . S
O424 C410 1.258 . S
O425 La401 2.503 . S
O425 C410 1.256 . S
O426 La401 2.521 . S
O426 C411 1.261 . S
O427 La401 2.628 . S
O427 C411 1.243 . S
O428 La401 2.554 . S
O428 C418 1.240 . S
O429 La400 2.482 . S
O429 La401 2.757 . S
O429 C418 1.289 . S
O430 La401 2.470 . S
O430 C419 1.258 . S
O431 La400 2.503 . S
O431 C419 1.256 . S
H432 C404 0.930 . S
H433 C405 0.930 . S
H434 C407 0.929 . S
H435 C408 0.929 . S
H436 C413 0.930 . S
H437 C414 0.930 . S
H438 C416 0.929 . S
H439 C417 0.929 . S
La440 C442 2.928 . S
La440 O460 2.521 . S
La440 O461 2.628 . S
La440 O462 2.554 . S
La440 O463 2.757 . S
La440 O464 2.470 . S
La440 O469 2.482 . S
La440 O471 2.503 . S
La441 C451 2.928 . S
La441 O463 2.482 . S
La441 O465 2.503 . S
La441 O466 2.521 . S
La441 O467 2.628 . S
La441 O468 2.554 . S
La441 O469 2.757 . S
La441 O470 2.470 . S
C442 La440 2.928 . S
C442 C443 1.503 . S
C442 O460 1.261 . S
C442 O461 1.243 . S
C443 C442 1.503 . S
C443 C444 1.394 . S
C443 C448 1.373 . S
C444 C443 1.394 . S
C444 C445 1.380 . S
C444 H472 0.930 . S
C445 C444 1.380 . S
C445 C446 1.376 1_655 S
C445 H473 0.930 . S
C446 C445 1.376 1_455 S
C446 C447 1.370 . S
C447 C446 1.370 . S
C447 C448 1.396 1_455 S
C447 H474 0.929 . S
C448 C443 1.373 . S
C448 C447 1.396 1_655 S
C448 H475 0.929 . S
C449 O462 1.240 . S
C449 O463 1.289 . S
C450 O464 1.258 . S
C450 O465 1.256 . S
C451 La441 2.928 . S
C451 C452 1.503 . S
C451 O466 1.261 . S
C451 O467 1.243 . S
C452 C451 1.503 . S
C452 C453 1.394 . S
C452 C457 1.373 . S
C453 C452 1.394 . S
C453 C454 1.380 . S
C453 H476 0.930 . S
C454 C453 1.380 . S
C454 C455 1.376 . S
C454 H477 0.930 . S
C455 C454 1.376 . S
C455 C456 1.370 . S
C456 C455 1.370 . S
C456 C457 1.396 . S
C456 H478 0.929 . S
C457 C452 1.373 . S
C457 C456 1.396 . S
C457 H479 0.929 . S
C458 O468 1.240 . S
C458 O469 1.289 . S
C459 O470 1.258 . S
C459 O471 1.256 . S
O460 La440 2.521 . S
O460 C442 1.261 . S
O461 La440 2.628 . S
O461 C442 1.243 . S
O462 La440 2.554 . S
O462 C449 1.240 . S
O463 La440 2.757 . S
O463 La441 2.482 . S
O463 C449 1.289 . S
O464 La440 2.470 . S
O464 C450 1.258 . S
O465 La441 2.503 . S
O465 C450 1.256 . S
O466 La441 2.521 . S
O466 C451 1.261 . S
O467 La441 2.628 . S
O467 C451 1.243 . S
O468 La441 2.554 . S
O468 C458 1.240 . S
O469 La440 2.482 . S
O469 La441 2.757 . S
O469 C458 1.289 . S
O470 La441 2.470 . S
O470 C459 1.258 . S
O471 La440 2.503 . S
O471 C459 1.256 . S
H472 C444 0.930 . S
H473 C445 0.930 . S
H474 C447 0.929 . S
H475 C448 0.929 . S
H476 C453 0.930 . S
H477 C454 0.930 . S
H478 C456 0.929 . S
H479 C457 0.929 . S
La480 C482 2.928 . S
La480 O500 2.521 . S
La480 O501 2.628 . S
La480 O502 2.554 . S
La480 O503 2.757 . S
La480 O504 2.470 . S
La480 O509 2.482 . S
La480 O511 2.503 . S
La481 C491 2.928 . S
La481 O503 2.482 . S
La481 O505 2.503 . S
La481 O506 2.521 . S
La481 O507 2.628 . S
La481 O508 2.554 . S
La481 O509 2.757 . S
La481 O510 2.470 . S
C482 La480 2.928 . S
C482 C483 1.503 . S
C482 O500 1.261 . S
C482 O501 1.243 . S
C483 C482 1.503 . S
C483 C484 1.394 . S
C483 C488 1.373 . S
C484 C483 1.394 . S
C484 C485 1.380 . S
C484 H512 0.930 . S
C485 C484 1.380 . S
C485 C486 1.376 . S
C485 H513 0.930 . S
C486 C485 1.376 . S
C486 C487 1.370 . S
C487 C486 1.370 . S
C487 C488 1.396 . S
C487 H514 0.929 . S
C488 C483 1.373 . S
C488 C487 1.396 . S
C488 H515 0.929 . S
C489 O502 1.240 . S
C489 O503 1.289 . S
C490 O504 1.258 . S
C490 O505 1.256 . S
C491 La481 2.928 . S
C491 C492 1.503 . S
C491 O506 1.261 . S
C491 O507 1.243 . S
C492 C491 1.503 . S
C492 C493 1.394 . S
C492 C497 1.373 . S
C493 C492 1.394 . S
C493 C494 1.380 . S
C493 H516 0.930 . S
C494 C493 1.380 . S
C494 C495 1.376 . S
C494 H517 0.930 . S
C495 C494 1.376 . S
C495 C496 1.370 . S
C496 C495 1.370 . S
C496 C497 1.396 . S
C496 H518 0.929 . S
C497 C492 1.373 . S
C497 C496 1.396 . S
C497 H519 0.929 . S
C498 O508 1.240 . S
C498 O509 1.289 . S
C499 O510 1.258 . S
C499 O511 1.256 . S
O500 La480 2.521 . S
O500 C482 1.261 . S
O501 La480 2.628 . S
O501 C482 1.243 . S
O502 La480 2.554 . S
O502 C489 1.240 . S
O503 La480 2.757 . S
O503 La481 2.482 . S
O503 C489 1.289 . S
O504 La480 2.470 . S
O504 C490 1.258 . S
O505 La481 2.503 . S
O505 C490 1.256 . S
O506 La481 2.521 . S
O506 C491 1.261 . S
O507 La481 2.628 . S
O507 C491 1.243 . S
O508 La481 2.554 . S
O508 C498 1.240 . S
O509 La480 2.482 . S
O509 La481 2.757 . S
O509 C498 1.289 . S
O510 La481 2.470 . S
O510 C499 1.258 . S
O511 La480 2.503 . S
O511 C499 1.256 . S
H512 C484 0.930 . S
H513 C485 0.930 . S
H514 C487 0.929 . S
H515 C488 0.929 . S
H516 C493 0.930 . S
H517 C494 0.930 . S
H518 C496 0.929 . S
H519 C497 0.929 . S
La520 C522 2.928 . S
La520 O540 2.521 . S
La520 O541 2.628 . S
La520 O542 2.554 . S
La520 O543 2.757 . S
La520 O544 2.470 . S
La520 O549 2.482 . S
La520 O551 2.503 . S
La521 C531 2.928 . S
La521 O543 2.482 . S
La521 O545 2.503 . S
La521 O546 2.521 . S
La521 O547 2.628 . S
La521 O548 2.554 . S
La521 O549 2.757 . S
La521 O550 2.470 . S
C522 La520 2.928 . S
C522 C523 1.503 . S
C522 O540 1.261 . S
C522 O541 1.243 . S
C523 C522 1.503 . S
C523 C524 1.394 . S
C523 C528 1.373 . S
C524 C523 1.394 . S
C524 C525 1.380 . S
C524 H552 0.930 . S
C525 C524 1.380 . S
C525 C526 1.376 . S
C525 H553 0.930 . S
C526 C525 1.376 . S
C526 C527 1.370 . S
C527 C526 1.370 . S
C527 C528 1.396 . S
C527 H554 0.929 . S
C528 C523 1.373 . S
C528 C527 1.396 . S
C528 H555 0.929 . S
C529 O542 1.240 . S
C529 O543 1.289 . S
C530 O544 1.258 . S
C530 O545 1.256 . S
C531 La521 2.928 . S
C531 C532 1.503 . S
C531 O546 1.261 . S
C531 O547 1.243 . S
C532 C531 1.503 . S
C532 C533 1.394 . S
C532 C537 1.373 . S
C533 C532 1.394 . S
C533 C534 1.380 . S
C533 H556 0.930 . S
C534 C533 1.380 . S
C534 C535 1.376 . S
C534 H557 0.930 . S
C535 C534 1.376 . S
C535 C536 1.370 . S
C536 C535 1.370 . S
C536 C537 1.396 . S
C536 H558 0.929 . S
C537 C532 1.373 . S
C537 C536 1.396 . S
C537 H559 0.929 . S
C538 O548 1.240 . S
C538 O549 1.289 . S
C539 O550 1.258 . S
C539 O551 1.256 . S
O540 La520 2.521 . S
O540 C522 1.261 . S
O541 La520 2.628 . S
O541 C522 1.243 . S
O542 La520 2.554 . S
O542 C529 1.240 . S
O543 La520 2.757 . S
O543 La521 2.482 . S
O543 C529 1.289 . S
O544 La520 2.470 . S
O544 C530 1.258 . S
O545 La521 2.503 . S
O545 C530 1.256 . S
O546 La521 2.521 . S
O546 C531 1.261 . S
O547 La521 2.628 . S
O547 C531 1.243 . S
O548 La521 2.554 . S
O548 C538 1.240 . S
O549 La520 2.482 . S
O549 La521 2.757 . S
O549 C538 1.289 . S
O550 La521 2.470 . S
O550 C539 1.258 . S
O551 La520 2.503 . S
O551 C539 1.256 . S
H552 C524 0.930 . S
H553 C525 0.930 . S
H554 C527 0.929 . S
H555 C528 0.929 . S
H556 C533 0.930 . S
H557 C534 0.930 . S
H558 C536 0.929 . S
H559 C537 0.929 . S
La560 C562 2.928 . S
La560 O580 2.521 . S
La560 O581 2.628 . S
La560 O582 2.554 . S
La560 O583 2.757 . S
La560 O584 2.470 . S
La560 O589 2.482 . S
La560 O591 2.503 . S
La561 C571 2.928 . S
La561 O583 2.482 . S
La561 O585 2.503 . S
La561 O586 2.521 . S
La561 O587 2.628 . S
La561 O588 2.554 . S
La561 O589 2.757 . S
La561 O590 2.470 . S
C562 La560 2.928 . S
C562 C563 1.503 . S
C562 O580 1.261 . S
C562 O581 1.243 . S
C563 C562 1.503 . S
C563 C564 1.394 . S
C563 C568 1.373 . S
C564 C563 1.394 . S
C564 C565 1.380 . S
C564 H592 0.930 . S
C565 C564 1.380 . S
C565 C566 1.376 . S
C565 H593 0.930 . S
C566 C565 1.376 . S
C566 C567 1.370 . S
C567 C566 1.370 . S
C567 C568 1.396 . S
C567 H594 0.929 . S
C568 C563 1.373 . S
C568 C567 1.396 . S
C568 H595 0.929 . S
C569 O582 1.240 . S
C569 O583 1.289 . S
C570 O584 1.258 . S
C570 O585 1.256 . S
C571 La561 2.928 . S
C571 C572 1.503 . S
C571 O586 1.261 . S
C571 O587 1.243 . S
C572 C571 1.503 . S
C572 C573 1.394 . S
C572 C577 1.373 . S
C573 C572 1.394 . S
C573 C574 1.380 . S
C573 H596 0.930 . S
C574 C573 1.380 . S
C574 C575 1.376 . S
C574 H597 0.930 . S
C575 C574 1.376 . S
C575 C576 1.370 . S
C576 C575 1.370 . S
C576 C577 1.396 . S
C576 H598 0.929 . S
C577 C572 1.373 . S
C577 C576 1.396 . S
C577 H599 0.929 . S
C578 O588 1.240 . S
C578 O589 1.289 . S
C579 O590 1.258 . S
C579 O591 1.256 . S
O580 La560 2.521 . S
O580 C562 1.261 . S
O581 La560 2.628 . S
O581 C562 1.243 . S
O582 La560 2.554 . S
O582 C569 1.240 . S
O583 La560 2.757 . S
O583 La561 2.482 . S
O583 C569 1.289 . S
O584 La560 2.470 . S
O584 C570 1.258 . S
O585 La561 2.503 . S
O585 C570 1.256 . S
O586 La561 2.521 . S
O586 C571 1.261 . S
O587 La561 2.628 . S
O587 C571 1.243 . S
O588 La561 2.554 . S
O588 C578 1.240 . S
O589 La560 2.482 . S
O589 La561 2.757 . S
O589 C578 1.289 . S
O590 La561 2.470 . S
O590 C579 1.258 . S
O591 La560 2.503 . S
O591 C579 1.256 . S
H592 C564 0.930 . S
H593 C565 0.930 . S
H594 C567 0.929 . S
H595 C568 0.929 . S
H596 C573 0.930 . S
H597 C574 0.930 . S
H598 C576 0.929 . S
H599 C577 0.929 . S
La600 C602 2.928 . S
La600 O620 2.521 . S
La600 O621 2.628 . S
La600 O622 2.554 . S
La600 O623 2.757 . S
La600 O624 2.470 . S
La600 O629 2.482 . S
La600 O631 2.503 . S
La601 C611 2.928 . S
La601 O623 2.482 . S
La601 O625 2.503 . S
La601 O626 2.521 . S
La601 O627 2.628 . S
La601 O628 2.554 . S
La601 O629 2.757 . S
La601 O630 2.470 . S
C602 La600 2.928 . S
C602 C603 1.503 . S
C602 O620 1.261 . S
C602 O621 1.243 . S
C603 C602 1.503 . S
C603 C604 1.394 . S
C603 C608 1.373 . S
C604 C603 1.394 . S
C604 C605 1.380 . S
C604 H632 0.930 . S
C605 C604 1.380 . S
C605 C606 1.376 . S
C605 H633 0.930 . S
C606 C605 1.376 . S
C606 C607 1.370 . S
C607 C606 1.370 . S
C607 C608 1.396 . S
C607 H634 0.929 . S
C608 C603 1.373 . S
C608 C607 1.396 . S
C608 H635 0.929 . S
C609 O622 1.240 . S
C609 O623 1.289 . S
C610 O624 1.258 . S
C610 O625 1.256 . S
C611 La601 2.928 . S
C611 C612 1.503 . S
C611 O626 1.261 . S
C611 O627 1.243 . S
C612 C611 1.503 . S
C612 C613 1.394 . S
C612 C617 1.373 . S
C613 C612 1.394 . S
C613 C614 1.380 . S
C613 H636 0.930 . S
C614 C613 1.380 . S
C614 C615 1.376 . S
C614 H637 0.930 . S
C615 C614 1.376 . S
C615 C616 1.370 . S
C616 C615 1.370 . S
C616 C617 1.396 . S
C616 H638 0.929 . S
C617 C612 1.373 . S
C617 C616 1.396 . S
C617 H639 0.929 . S
C618 O628 1.240 . S
C618 O629 1.289 . S
C619 O630 1.258 . S
C619 O631 1.256 . S
O620 La600 2.521 . S
O620 C602 1.261 . S
O621 La600 2.628 . S
O621 C602 1.243 . S
O622 La600 2.554 . S
O622 C609 1.240 . S
O623 La600 2.757 . S
O623 La601 2.482 . S
O623 C609 1.289 . S
O624 La600 2.470 . S
O624 C610 1.258 . S
O625 La601 2.503 . S
O625 C610 1.256 . S
O626 La601 2.521 . S
O626 C611 1.261 . S
O627 La601 2.628 . S
O627 C611 1.243 . S
O628 La601 2.554 . S
O628 C618 1.240 . S
O629 La600 2.482 . S
O629 La601 2.757 . S
O629 C618 1.289 . S
O630 La601 2.470 . S
O630 C619 1.258 . S
O631 La600 2.503 . S
O631 C619 1.256 . S
H632 C604 0.930 . S
H633 C605 0.930 . S
H634 C607 0.929 . S
H635 C608 0.929 . S
H636 C613 0.930 . S
H637 C614 0.930 . S
H638 C616 0.929 . S
H639 C617 0.929 . S
La640 C642 2.928 . S
La640 O660 2.521 . S
La640 O661 2.628 . S
La640 O662 2.554 . S
La640 O663 2.757 . S
La640 O664 2.470 . S
La640 O669 2.482 . S
La640 O671 2.503 . S
La641 C651 2.928 . S
La641 O663 2.482 . S
La641 O665 2.503 . S
La641 O666 2.521 . S
La641 O667 2.628 . S
La641 O668 2.554 . S
La641 O669 2.757 . S
La641 O670 2.470 . S
C642 La640 2.928 . S
C642 C643 1.503 . S
C642 O660 1.261 . S
C642 O661 1.243 . S
C643 C642 1.503 . S
C643 C644 1.394 . S
C643 C648 1.373 . S
C644 C643 1.394 . S
C644 C645 1.380 . S
C644 H672 0.930 . S
C645 C644 1.380 . S
C645 C646 1.376 . S
C645 H673 0.930 . S
C646 C645 1.376 . S
C646 C647 1.370 . S
C647 C646 1.370 . S
C647 C648 1.396 . S
C647 H674 0.929 . S
C648 C643 1.373 . S
C648 C647 1.396 . S
C648 H675 0.929 . S
C649 O662 1.240 . S
C649 O663 1.289 . S
C650 O664 1.258 . S
C650 O665 1.256 . S
C651 La641 2.928 . S
C651 C652 1.503 . S
C651 O666 1.261 . S
C651 O667 1.243 . S
C652 C651 1.503 . S
C652 C653 1.394 . S
C652 C657 1.373 . S
C653 C652 1.394 . S
C653 C654 1.380 . S
C653 H676 0.930 . S
C654 C653 1.380 . S
C654 C655 1.376 . S
C654 H677 0.930 . S
C655 C654 1.376 . S
C655 C656 1.370 . S
C656 C655 1.370 . S
C656 C657 1.396 . S
C656 H678 0.929 . S
C657 C652 1.373 . S
C657 C656 1.396 . S
C657 H679 0.929 . S
C658 O668 1.240 . S
C658 O669 1.289 . S
C659 O670 1.258 . S
C659 O671 1.256 . S
O660 La640 2.521 . S
O660 C642 1.261 . S
O661 La640 2.628 . S
O661 C642 1.243 . S
O662 La640 2.554 . S
O662 C649 1.240 . S
O663 La640 2.757 . S
O663 La641 2.482 . S
O663 C649 1.289 . S
O664 La640 2.470 . S
O664 C650 1.258 . S
O665 La641 2.503 . S
O665 C650 1.256 . S
O666 La641 2.521 . S
O666 C651 1.261 . S
O667 La641 2.628 . S
O667 C651 1.243 . S
O668 La641 2.554 . S
O668 C658 1.240 . S
O669 La640 2.482 . S
O669 La641 2.757 . S
O669 C658 1.289 . S
O670 La641 2.470 . S
O670 C659 1.258 . S
O671 La640 2.503 . S
O671 C659 1.256 . S
H672 C644 0.930 . S
H673 C645 0.930 . S
H674 C647 0.929 . S
H675 C648 0.929 . S
H676 C653 0.930 . S
H677 C654 0.930 . S
H678 C656 0.929 . S
H679 C657 0.929 . S
La680 C682 2.928 . S
La680 O700 2.521 . S
La680 O701 2.628 . S
La680 O702 2.554 . S
La680 O703 2.757 . S
La680 O704 2.470 . S
La680 O709 2.482 . S
La680 O711 2.503 . S
La681 C691 2.928 . S
La681 O703 2.482 . S
La681 O705 2.503 . S
La681 O706 2.521 . S
La681 O707 2.628 . S
La681 O708 2.554 . S
La681 O709 2.757 . S
La681 O710 2.470 . S
C682 La680 2.928 . S
C682 C683 1.503 . S
C682 O700 1.261 . S
C682 O701 1.243 . S
C683 C682 1.503 . S
C683 C684 1.394 . S
C683 C688 1.373 . S
C684 C683 1.394 . S
C684 C685 1.380 . S
C684 H712 0.930 . S
C685 C684 1.380 . S
C685 C686 1.376 . S
C685 H713 0.930 . S
C686 C685 1.376 . S
C686 C687 1.370 . S
C687 C686 1.370 . S
C687 C688 1.396 . S
C687 H714 0.929 . S
C688 C683 1.373 . S
C688 C687 1.396 . S
C688 H715 0.929 . S
C689 O702 1.240 . S
C689 O703 1.289 . S
C690 O704 1.258 . S
C690 O705 1.256 . S
C691 La681 2.928 . S
C691 C692 1.503 . S
C691 O706 1.261 . S
C691 O707 1.243 . S
C692 C691 1.503 . S
C692 C693 1.394 . S
C692 C697 1.373 . S
C693 C692 1.394 . S
C693 C694 1.380 . S
C693 H716 0.930 . S
C694 C693 1.380 . S
C694 C695 1.376 . S
C694 H717 0.930 . S
C695 C694 1.376 . S
C695 C696 1.370 . S
C696 C695 1.370 . S
C696 C697 1.396 . S
C696 H718 0.929 . S
C697 C692 1.373 . S
C697 C696 1.396 . S
C697 H719 0.929 . S
C698 O708 1.240 . S
C698 O709 1.289 . S
C699 O710 1.258 . S
C699 O711 1.256 . S
O700 La680 2.521 . S
O700 C682 1.261 . S
O701 La680 2.628 . S
O701 C682 1.243 . S
O702 La680 2.554 . S
O702 C689 1.240 . S
O703 La680 2.757 . S
O703 La681 2.482 . S
O703 C689 1.289 . S
O704 La680 2.470 . S
O704 C690 1.258 . S
O705 La681 2.503 . S
O705 C690 1.256 . S
O706 La681 2.521 . S
O706 C691 1.261 . S
O707 La681 2.628 . S
O707 C691 1.243 . S
O708 La681 2.554 . S
O708 C698 1.240 . S
O709 La680 2.482 . S
O709 La681 2.757 . S
O709 C698 1.289 . S
O710 La681 2.470 . S
O710 C699 1.258 . S
O711 La680 2.503 . S
O711 C699 1.256 . S
H712 C684 0.930 . S
H713 C685 0.930 . S
H714 C687 0.929 . S
H715 C688 0.929 . S
H716 C693 0.930 . S
H717 C694 0.930 . S
H718 C696 0.929 . S
H719 C697 0.929 . S
La720 C722 2.928 . S
La720 O740 2.521 . S
La720 O741 2.628 . S
La720 O742 2.554 . S
La720 O743 2.757 . S
La720 O744 2.470 . S
La720 O749 2.482 . S
La720 O751 2.503 . S
La721 C731 2.928 . S
La721 O743 2.482 . S
La721 O745 2.503 . S
La721 O746 2.521 . S
La721 O747 2.628 . S
La721 O748 2.554 . S
La721 O749 2.757 . S
La721 O750 2.470 . S
C722 La720 2.928 . S
C722 C723 1.503 . S
C722 O740 1.261 . S
C722 O741 1.243 . S
C723 C722 1.503 . S
C723 C724 1.394 . S
C723 C728 1.373 . S
C724 C723 1.394 . S
C724 C725 1.380 . S
C724 H752 0.930 . S
C725 C724 1.380 . S
C725 C726 1.376 . S
C725 H753 0.930 . S
C726 C725 1.376 . S
C726 C727 1.370 . S
C727 C726 1.370 . S
C727 C728 1.396 . S
C727 H754 0.929 . S
C728 C723 1.373 . S
C728 C727 1.396 . S
C728 H755 0.929 . S
C729 O742 1.240 . S
C729 O743 1.289 . S
C730 O744 1.258 . S
C730 O745 1.256 . S
C731 La721 2.928 . S
C731 C732 1.503 . S
C731 O746 1.261 . S
C731 O747 1.243 . S
C732 C731 1.503 . S
C732 C733 1.394 . S
C732 C737 1.373 . S
C733 C732 1.394 . S
C733 C734 1.380 . S
C733 H756 0.930 . S
C734 C733 1.380 . S
C734 C735 1.376 . S
C734 H757 0.930 . S
C735 C734 1.376 . S
C735 C736 1.370 . S
C736 C735 1.370 . S
C736 C737 1.396 . S
C736 H758 0.929 . S
C737 C732 1.373 . S
C737 C736 1.396 . S
C737 H759 0.929 . S
C738 O748 1.240 . S
C738 O749 1.289 . S
C739 O750 1.258 . S
C739 O751 1.256 . S
O740 La720 2.521 . S
O740 C722 1.261 . S
O741 La720 2.628 . S
O741 C722 1.243 . S
O742 La720 2.554 . S
O742 C729 1.240 . S
O743 La720 2.757 . S
O743 La721 2.482 . S
O743 C729 1.289 . S
O744 La720 2.470 . S
O744 C730 1.258 . S
O745 La721 2.503 . S
O745 C730 1.256 . S
O746 La721 2.521 . S
O746 C731 1.261 . S
O747 La721 2.628 . S
O747 C731 1.243 . S
O748 La721 2.554 . S
O748 C738 1.240 . S
O749 La720 2.482 . S
O749 La721 2.757 . S
O749 C738 1.289 . S
O750 La721 2.470 . S
O750 C739 1.258 . S
O751 La720 2.503 . S
O751 C739 1.256 . S
H752 C724 0.930 . S
H753 C725 0.930 . S
H754 C727 0.929 . S
H755 C728 0.929 . S
H756 C733 0.930 . S
H757 C734 0.930 . S
H758 C736 0.929 . S
H759 C737 0.929 . S
La760 C762 2.928 . S
La760 O780 2.521 . S
La760 O781 2.628 . S
La760 O782 2.554 . S
La760 O783 2.757 . S
La760 O784 2.470 . S
La760 O789 2.482 . S
La760 O791 2.503 . S
La761 C771 2.928 . S
La761 O783 2.482 . S
La761 O785 2.503 . S
La761 O786 2.521 . S
La761 O787 2.628 . S
La761 O788 2.554 . S
La761 O789 2.757 . S
La761 O790 2.470 . S
C762 La760 2.928 . S
C762 C763 1.503 . S
C762 O780 1.261 . S
C762 O781 1.243 . S
C763 C762 1.503 . S
C763 C764 1.394 . S
C763 C768 1.373 . S
C764 C763 1.394 . S
C764 C765 1.380 . S
C764 H792 0.930 . S
C765 C764 1.380 . S
C765 C766 1.376 . S
C765 H793 0.930 . S
C766 C765 1.376 . S
C766 C767 1.370 . S
C767 C766 1.370 . S
C767 C768 1.396 . S
C767 H794 0.929 . S
C768 C763 1.373 . S
C768 C767 1.396 . S
C768 H795 0.929 . S
C769 O782 1.240 . S
C769 O783 1.289 . S
C770 O784 1.258 . S
C770 O785 1.256 . S
C771 La761 2.928 . S
C771 C772 1.503 . S
C771 O786 1.261 . S
C771 O787 1.243 . S
C772 C771 1.503 . S
C772 C773 1.394 . S
C772 C777 1.373 . S
C773 C772 1.394 . S
C773 C774 1.380 . S
C773 H796 0.930 . S
C774 C773 1.380 . S
C774 C775 1.376 . S
C774 H797 0.930 . S
C775 C774 1.376 . S
C775 C776 1.370 . S
C776 C775 1.370 . S
C776 C777 1.396 . S
C776 H798 0.929 . S
C777 C772 1.373 . S
C777 C776 1.396 . S
C777 H799 0.929 . S
C778 O788 1.240 . S
C778 O789 1.289 . S
C779 O790 1.258 . S
C779 O791 1.256 . S
O780 La760 2.521 . S
O780 C762 1.261 . S
O781 La760 2.628 . S
O781 C762 1.243 . S
O782 La760 2.554 . S
O782 C769 1.240 . S
O783 La760 2.757 . S
O783 La761 2.482 . S
O783 C769 1.289 . S
O784 La760 2.470 . S
O784 C770 1.258 . S
O785 La761 2.503 . S
O785 C770 1.256 . S
O786 La761 2.521 . S
O786 C771 1.261 . S
O787 La761 2.628 . S
O787 C771 1.243 . S
O788 La761 2.554 . S
O788 C778 1.240 . S
O789 La760 2.482 . S
O789 La761 2.757 . S
O789 C778 1.289 . S
O790 La761 2.470 . S
O790 C779 1.258 . S
O791 La760 2.503 . S
O791 C779 1.256 . S
H792 C764 0.930 . S
H793 C765 0.930 . S
H794 C767 0.929 . S
H795 C768 0.929 . S
H796 C773 0.930 . S
H797 C774 0.930 . S
H798 C776 0.929 . S
H799 C777 0.929 . S
La800 C802 2.928 . S
La800 O820 2.521 . S
La800 O821 2.628 . S
La800 O822 2.554 . S
La800 O823 2.757 . S
La800 O824 2.470 . S
La800 O829 2.482 . S
La800 O831 2.503 . S
La801 C811 2.928 . S
La801 O823 2.482 . S
La801 O825 2.503 . S
La801 O826 2.521 . S
La801 O827 2.628 . S
La801 O828 2.554 . S
La801 O829 2.757 . S
La801 O830 2.470 . S
C802 La800 2.928 . S
C802 C803 1.503 . S
C802 O820 1.261 . S
C802 O821 1.243 . S
C803 C802 1.503 . S
C803 C804 1.394 . S
C803 C808 1.373 . S
C804 C803 1.394 . S
C804 C805 1.380 . S
C804 H832 0.930 . S
C805 C804 1.380 . S
C805 C806 1.376 . S
C805 H833 0.930 . S
C806 C805 1.376 . S
C806 C807 1.370 . S
C807 C806 1.370 . S
C807 C808 1.396 . S
C807 H834 0.929 . S
C808 C803 1.373 . S
C808 C807 1.396 . S
C808 H835 0.929 . S
C809 O822 1.240 . S
C809 O823 1.289 . S
C810 O824 1.258 . S
C810 O825 1.256 . S
C811 La801 2.928 . S
C811 C812 1.503 . S
C811 O826 1.261 . S
C811 O827 1.243 . S
C812 C811 1.503 . S
C812 C813 1.394 . S
C812 C817 1.373 . S
C813 C812 1.394 . S
C813 C814 1.380 . S
C813 H836 0.930 . S
C814 C813 1.380 . S
C814 C815 1.376 . S
C814 H837 0.930 . S
C815 C814 1.376 . S
C815 C816 1.370 . S
C816 C815 1.370 . S
C816 C817 1.396 . S
C816 H838 0.929 . S
C817 C812 1.373 . S
C817 C816 1.396 . S
C817 H839 0.929 . S
C818 O828 1.240 . S
C818 O829 1.289 . S
C819 O830 1.258 . S
C819 O831 1.256 . S
O820 La800 2.521 . S
O820 C802 1.261 . S
O821 La800 2.628 . S
O821 C802 1.243 . S
O822 La800 2.554 . S
O822 C809 1.240 . S
O823 La800 2.757 . S
O823 La801 2.482 . S
O823 C809 1.289 . S
O824 La800 2.470 . S
O824 C810 1.258 . S
O825 La801 2.503 . S
O825 C810 1.256 . S
O826 La801 2.521 . S
O826 C811 1.261 . S
O827 La801 2.628 . S
O827 C811 1.243 . S
O828 La801 2.554 . S
O828 C818 1.240 . S
O829 La800 2.482 . S
O829 La801 2.757 . S
O829 C818 1.289 . S
O830 La801 2.470 . S
O830 C819 1.258 . S
O831 La800 2.503 . S
O831 C819 1.256 . S
H832 C804 0.930 . S
H833 C805 0.930 . S
H834 C807 0.929 . S
H835 C808 0.929 . S
H836 C813 0.930 . S
H837 C814 0.930 . S
H838 C816 0.929 . S
H839 C817 0.929 . S
La840 C842 2.928 . S
La840 O860 2.521 . S
La840 O861 2.628 . S
La840 O862 2.554 . S
La840 O863 2.757 . S
La840 O864 2.470 . S
La840 O869 2.482 . S
La840 O871 2.503 . S
La841 C851 2.928 . S
La841 O863 2.482 . S
La841 O865 2.503 . S
La841 O866 2.521 . S
La841 O867 2.628 . S
La841 O868 2.554 . S
La841 O869 2.757 . S
La841 O870 2.470 . S
C842 La840 2.928 . S
C842 C843 1.503 . S
C842 O860 1.261 . S
C842 O861 1.243 . S
C843 C842 1.503 . S
C843 C844 1.394 . S
C843 C848 1.373 . S
C844 C843 1.394 . S
C844 C845 1.380 . S
C844 H872 0.930 . S
C845 C844 1.380 . S
C845 C846 1.376 . S
C845 H873 0.930 . S
C846 C845 1.376 . S
C846 C847 1.370 . S
C847 C846 1.370 . S
C847 C848 1.396 . S
C847 H874 0.929 . S
C848 C843 1.373 . S
C848 C847 1.396 . S
C848 H875 0.929 . S
C849 O862 1.240 . S
C849 O863 1.289 . S
C850 O864 1.258 . S
C850 O865 1.256 . S
C851 La841 2.928 . S
C851 C852 1.503 . S
C851 O866 1.261 . S
C851 O867 1.243 . S
C852 C851 1.503 . S
C852 C853 1.394 . S
C852 C857 1.373 . S
C853 C852 1.394 . S
C853 C854 1.380 . S
C853 H876 0.930 . S
C854 C853 1.380 . S
C854 C855 1.376 . S
C854 H877 0.930 . S
C855 C854 1.376 . S
C855 C856 1.370 . S
C856 C855 1.370 . S
C856 C857 1.396 . S
C856 H878 0.929 . S
C857 C852 1.373 . S
C857 C856 1.396 . S
C857 H879 0.929 . S
C858 O868 1.240 . S
C858 O869 1.289 . S
C859 O870 1.258 . S
C859 O871 1.256 . S
O860 La840 2.521 . S
O860 C842 1.261 . S
O861 La840 2.628 . S
O861 C842 1.243 . S
O862 La840 2.554 . S
O862 C849 1.240 . S
O863 La840 2.757 . S
O863 La841 2.482 . S
O863 C849 1.289 . S
O864 La840 2.470 . S
O864 C850 1.258 . S
O865 La841 2.503 . S
O865 C850 1.256 . S
O866 La841 2.521 . S
O866 C851 1.261 . S
O867 La841 2.628 . S
O867 C851 1.243 . S
O868 La841 2.554 . S
O868 C858 1.240 . S
O869 La840 2.482 . S
O869 La841 2.757 . S
O869 C858 1.289 . S
O870 La841 2.470 . S
O870 C859 1.258 . S
O871 La840 2.503 . S
O871 C859 1.256 . S
H872 C844 0.930 . S
H873 C845 0.930 . S
H874 C847 0.929 . S
H875 C848 0.929 . S
H876 C853 0.930 . S
H877 C854 0.930 . S
H878 C856 0.929 . S
H879 C857 0.929 . S
La880 C882 2.928 . S
La880 O900 2.521 . S
La880 O901 2.628 . S
La880 O902 2.554 . S
La880 O903 2.757 . S
La880 O904 2.470 . S
La880 O909 2.482 . S
La880 O911 2.503 . S
La881 C891 2.928 . S
La881 O903 2.482 . S
La881 O905 2.503 . S
La881 O906 2.521 . S
La881 O907 2.628 . S
La881 O908 2.554 . S
La881 O909 2.757 . S
La881 O910 2.470 . S
C882 La880 2.928 . S
C882 C883 1.503 . S
C882 O900 1.261 . S
C882 O901 1.243 . S
C883 C882 1.503 . S
C883 C884 1.394 . S
C883 C888 1.373 . S
C884 C883 1.394 . S
C884 C885 1.380 . S
C884 H912 0.930 . S
C885 C884 1.380 . S
C885 C886 1.376 . S
C885 H913 0.930 . S
C886 C885 1.376 . S
C886 C887 1.370 . S
C887 C886 1.370 . S
C887 C888 1.396 . S
C887 H914 0.929 . S
C888 C883 1.373 . S
C888 C887 1.396 . S
C888 H915 0.929 . S
C889 O902 1.240 . S
C889 O903 1.289 . S
C890 O904 1.258 . S
C890 O905 1.256 . S
C891 La881 2.928 . S
C891 C892 1.503 . S
C891 O906 1.261 . S
C891 O907 1.243 . S
C892 C891 1.503 . S
C892 C893 1.394 . S
C892 C897 1.373 . S
C893 C892 1.394 . S
C893 C894 1.380 . S
C893 H916 0.930 . S
C894 C893 1.380 . S
C894 C895 1.376 . S
C894 H917 0.930 . S
C895 C894 1.376 . S
C895 C896 1.370 . S
C896 C895 1.370 . S
C896 C897 1.396 . S
C896 H918 0.929 . S
C897 C892 1.373 . S
C897 C896 1.396 . S
C897 H919 0.929 . S
C898 O908 1.240 . S
C898 O909 1.289 . S
C899 O910 1.258 . S
C899 O911 1.256 . S
O900 La880 2.521 . S
O900 C882 1.261 . S
O901 La880 2.628 . S
O901 C882 1.243 . S
O902 La880 2.554 . S
O902 C889 1.240 . S
O903 La880 2.757 . S
O903 La881 2.482 . S
O903 C889 1.289 . S
O904 La880 2.470 . S
O904 C890 1.258 . S
O905 La881 2.503 . S
O905 C890 1.256 . S
O906 La881 2.521 . S
O906 C891 1.261 . S
O907 La881 2.628 . S
O907 C891 1.243 . S
O908 La881 2.554 . S
O908 C898 1.240 . S
O909 La880 2.482 . S
O909 La881 2.757 . S
O909 C898 1.289 . S
O910 La881 2.470 . S
O910 C899 1.258 . S
O911 La880 2.503 . S
O911 C899 1.256 . S
H912 C884 0.930 . S
H913 C885 0.930 . S
H914 C887 0.929 . S
H915 C888 0.929 . S
H916 C893 0.930 . S
H917 C894 0.930 . S
H918 C896 0.929 . S
H919 C897 0.929 . S
La920 C922 2.928 . S
La920 O940 2.521 . S
La920 O941 2.628 . S
La920 O942 2.554 . S
La920 O943 2.757 . S
La920 O944 2.470 . S
La920 O949 2.482 . S
La920 O951 2.503 . S
La921 C931 2.928 . S
La921 O943 2.482 . S
La921 O945 2.503 . S
La921 O946 2.521 . S
La921 O947 2.628 . S
La921 O948 2.554 . S
La921 O949 2.757 . S
La921 O950 2.470 . S
C922 La920 2.928 . S
C922 C923 1.503 . S
C922 O940 1.261 . S
C922 O941 1.243 . S
C923 C922 1.503 . S
C923 C924 1.394 . S
C923 C928 1.373 . S
C924 C923 1.394 . S
C924 C925 1.380 . S
C924 H952 0.930 . S
C925 C924 1.380 . S
C925 C926 1.376 . S
C925 H953 0.930 . S
C926 C925 1.376 . S
C926 C927 1.370 . S
C927 C926 1.370 . S
C927 C928 1.396 . S
C927 H954 0.929 . S
C928 C923 1.373 . S
C928 C927 1.396 . S
C928 H955 0.929 . S
C929 O942 1.240 . S
C929 O943 1.289 . S
C930 O944 1.258 . S
C930 O945 1.256 . S
C931 La921 2.928 . S
C931 C932 1.503 . S
C931 O946 1.261 . S
C931 O947 1.243 . S
C932 C931 1.503 . S
C932 C933 1.394 . S
C932 C937 1.373 . S
C933 C932 1.394 . S
C933 C934 1.380 . S
C933 H956 0.930 . S
C934 C933 1.380 . S
C934 C935 1.376 . S
C934 H957 0.930 . S
C935 C934 1.376 . S
C935 C936 1.370 . S
C936 C935 1.370 . S
C936 C937 1.396 . S
C936 H958 0.929 . S
C937 C932 1.373 . S
C937 C936 1.396 . S
C937 H959 0.929 . S
C938 O948 1.240 . S
C938 O949 1.289 . S
C939 O950 1.258 . S
C939 O951 1.256 . S
O940 La920 2.521 . S
O940 C922 1.261 . S
O941 La920 2.628 . S
O941 C922 1.243 . S
O942 La920 2.554 . S
O942 C929 1.240 . S
O943 La920 2.757 . S
O943 La921 2.482 . S
O943 C929 1.289 . S
O944 La920 2.470 . S
O944 C930 1.258 . S
O945 La921 2.503 . S
O945 C930 1.256 . S
O946 La921 2.521 . S
O946 C931 1.261 . S
O947 La921 2.628 . S
O947 C931 1.243 . S
O948 La921 2.554 . S
O948 C938 1.240 . S
O949 La920 2.482 . S
O949 La921 2.757 . S
O949 C938 1.289 . S
O950 La921 2.470 . S
O950 C939 1.258 . S
O951 La920 2.503 . S
O951 C939 1.256 . S
H952 C924 0.930 . S
H953 C925 0.930 . S
H954 C927 0.929 . S
H955 C928 0.929 . S
H956 C933 0.930 . S
H957 C934 0.930 . S
H958 C936 0.929 . S
H959 C937 0.929 . S
La960 C962 2.928 . S
La960 O980 2.521 . S
La960 O981 2.628 . S
La960 O982 2.554 . S
La960 O983 2.757 . S
La960 O984 2.470 . S
La960 O989 2.482 . S
La960 O991 2.503 . S
La961 C971 2.928 . S
La961 O983 2.482 . S
La961 O985 2.503 . S
La961 O986 2.521 . S
La961 O987 2.628 . S
La961 O988 2.554 . S
La961 O989 2.757 . S
La961 O990 2.470 . S
C962 La960 2.928 . S
C962 C963 1.503 . S
C962 O980 1.261 . S
C962 O981 1.243 . S
C963 C962 1.503 . S
C963 C964 1.394 . S
C963 C968 1.373 . S
C964 C963 1.394 . S
C964 C965 1.380 . S
C964 H992 0.930 . S
C965 C964 1.380 . S
C965 C966 1.376 . S
C965 H993 0.930 . S
C966 C965 1.376 . S
C966 C967 1.370 . S
C967 C966 1.370 . S
C967 C968 1.396 . S
C967 H994 0.929 . S
C968 C963 1.373 . S
C968 C967 1.396 . S
C968 H995 0.929 . S
C969 O982 1.240 . S
C969 O983 1.289 . S
C970 O984 1.258 . S
C970 O985 1.256 . S
C971 La961 2.928 . S
C971 C972 1.503 . S
C971 O986 1.261 . S
C971 O987 1.243 . S
C972 C971 1.503 . S
C972 C973 1.394 . S
C972 C977 1.373 . S
C973 C972 1.394 . S
C973 C974 1.380 . S
C973 H996 0.930 . S
C974 C973 1.380 . S
C974 C975 1.376 . S
C974 H997 0.930 . S
C975 C974 1.376 . S
C975 C976 1.370 . S
C976 C975 1.370 . S
C976 C977 1.396 . S
C976 H998 0.929 . S
C977 C972 1.373 . S
C977 C976 1.396 . S
C977 H999 0.929 . S
C978 O988 1.240 . S
C978 O989 1.289 . S
C979 O990 1.258 . S
C979 O991 1.256 . S
O980 La960 2.521 . S
O980 C962 1.261 . S
O981 La960 2.628 . S
O981 C962 1.243 . S
O982 La960 2.554 . S
O982 C969 1.240 . S
O983 La960 2.757 . S
O983 La961 2.482 . S
O983 C969 1.289 . S
O984 La960 2.470 . S
O984 C970 1.258 . S
O985 La961 2.503 . S
O985 C970 1.256 . S
O986 La961 2.521 . S
O986 C971 1.261 . S
O987 La961 2.628 . S
O987 C971 1.243 . S
O988 La961 2.554 . S
O988 C978 1.240 . S
O989 La960 2.482 . S
O989 La961 2.757 . S
O989 C978 1.289 . S
O990 La961 2.470 . S
O990 C979 1.258 . S
O991 La960 2.503 . S
O991 C979 1.256 . S
H992 C964 0.930 . S
H993 C965 0.930 . S
H994 C967 0.929 . S
H995 C968 0.929 . S
H996 C973 0.930 . S
H997 C974 0.930 . S
H998 C976 0.929 . S
H999 C977 0.929 . S
La1000 C1002 2.928 . S
La1000 O1020 2.521 . S
La1000 O1021 2.628 . S
La1000 O1022 2.554 . S
La1000 O1023 2.757 . S
La1000 O1024 2.470 . S
La1000 O1029 2.482 . S
La1000 O1031 2.503 . S
La1001 C1011 2.928 . S
La1001 O1023 2.482 . S
La1001 O1025 2.503 . S
La1001 O1026 2.521 . S
La1001 O1027 2.628 . S
La1001 O1028 2.554 . S
La1001 O1029 2.757 . S
La1001 O1030 2.470 . S
C1002 La1000 2.928 . S
C1002 C1003 1.503 . S
C1002 O1020 1.261 . S
C1002 O1021 1.243 . S
C1003 C1002 1.503 . S
C1003 C1004 1.394 . S
C1003 C1008 1.373 . S
C1004 C1003 1.394 . S
C1004 C1005 1.380 . S
C1004 H1032 0.930 . S
C1005 C1004 1.380 . S
C1005 C1006 1.376 . S
C1005 H1033 0.930 . S
C1006 C1005 1.376 . S
C1006 C1007 1.370 . S
C1007 C1006 1.370 . S
C1007 C1008 1.396 . S
C1007 H1034 0.929 . S
C1008 C1003 1.373 . S
C1008 C1007 1.396 . S
C1008 H1035 0.929 . S
C1009 O1022 1.240 . S
C1009 O1023 1.289 . S
C1010 O1024 1.258 . S
C1010 O1025 1.256 . S
C1011 La1001 2.928 . S
C1011 C1012 1.503 . S
C1011 O1026 1.261 . S
C1011 O1027 1.243 . S
C1012 C1011 1.503 . S
C1012 C1013 1.394 . S
C1012 C1017 1.373 . S
C1013 C1012 1.394 . S
C1013 C1014 1.380 . S
C1013 H1036 0.930 . S
C1014 C1013 1.380 . S
C1014 C1015 1.376 . S
C1014 H1037 0.930 . S
C1015 C1014 1.376 . S
C1015 C1016 1.370 . S
C1016 C1015 1.370 . S
C1016 C1017 1.396 . S
C1016 H1038 0.929 . S
C1017 C1012 1.373 . S
C1017 C1016 1.396 . S
C1017 H1039 0.929 . S
C1018 O1028 1.240 . S
C1018 O1029 1.289 . S
C1019 O1030 1.258 . S
C1019 O1031 1.256 . S
O1020 La1000 2.521 . S
O1020 C1002 1.261 . S
O1021 La1000 2.628 . S
O1021 C1002 1.243 . S
O1022 La1000 2.554 . S
O1022 C1009 1.240 . S
O1023 La1000 2.757 . S
O1023 La1001 2.482 . S
O1023 C1009 1.289 . S
O1024 La1000 2.470 . S
O1024 C1010 1.258 . S
O1025 La1001 2.503 . S
O1025 C1010 1.256 . S
O1026 La1001 2.521 . S
O1026 C1011 1.261 . S
O1027 La1001 2.628 . S
O1027 C1011 1.243 . S
O1028 La1001 2.554 . S
O1028 C1018 1.240 . S
O1029 La1000 2.482 . S
O1029 La1001 2.757 . S
O1029 C1018 1.289 . S
O1030 La1001 2.470 . S
O1030 C1019 1.258 . S
O1031 La1000 2.503 . S
O1031 C1019 1.256 . S
H1032 C1004 0.930 . S
H1033 C1005 0.930 . S
H1034 C1007 0.929 . S
H1035 C1008 0.929 . S
H1036 C1013 0.930 . S
H1037 C1014 0.930 . S
H1038 C1016 0.929 . S
H1039 C1017 0.929 . S
La1040 C1042 2.928 . S
La1040 O1060 2.521 . S
La1040 O1061 2.628 . S
La1040 O1062 2.554 . S
La1040 O1063 2.757 . S
La1040 O1064 2.470 . S
La1040 O1069 2.482 . S
La1040 O1071 2.503 . S
La1041 C1051 2.928 . S
La1041 O1063 2.482 . S
La1041 O1065 2.503 . S
La1041 O1066 2.521 . S
La1041 O1067 2.628 . S
La1041 O1068 2.554 . S
La1041 O1069 2.757 . S
La1041 O1070 2.470 . S
C1042 La1040 2.928 . S
C1042 C1043 1.503 . S
C1042 O1060 1.261 . S
C1042 O1061 1.243 . S
C1043 C1042 1.503 . S
C1043 C1044 1.394 . S
C1043 C1048 1.373 . S
C1044 C1043 1.394 . S
C1044 C1045 1.380 . S
C1044 H1072 0.930 . S
C1045 C1044 1.380 . S
C1045 C1046 1.376 . S
C1045 H1073 0.930 . S
C1046 C1045 1.376 . S
C1046 C1047 1.370 . S
C1047 C1046 1.370 . S
C1047 C1048 1.396 . S
C1047 H1074 0.929 . S
C1048 C1043 1.373 . S
C1048 C1047 1.396 . S
C1048 H1075 0.929 . S
C1049 O1062 1.240 . S
C1049 O1063 1.289 . S
C1050 O1064 1.258 . S
C1050 O1065 1.256 . S
C1051 La1041 2.928 . S
C1051 C1052 1.503 . S
C1051 O1066 1.261 . S
C1051 O1067 1.243 . S
C1052 C1051 1.503 . S
C1052 C1053 1.394 . S
C1052 C1057 1.373 . S
C1053 C1052 1.394 . S
C1053 C1054 1.380 . S
C1053 H1076 0.930 . S
C1054 C1053 1.380 . S
C1054 C1055 1.376 . S
C1054 H1077 0.930 . S
C1055 C1054 1.376 . S
C1055 C1056 1.370 . S
C1056 C1055 1.370 . S
C1056 C1057 1.396 . S
C1056 H1078 0.929 . S
C1057 C1052 1.373 . S
C1057 C1056 1.396 . S
C1057 H1079 0.929 . S
C1058 O1068 1.240 . S
C1058 O1069 1.289 . S
C1059 O1070 1.258 . S
C1059 O1071 1.256 . S
O1060 La1040 2.521 . S
O1060 C1042 1.261 . S
O1061 La1040 2.628 . S
O1061 C1042 1.243 . S
O1062 La1040 2.554 . S
O1062 C1049 1.240 . S
O1063 La1040 2.757 . S
O1063 La1041 2.482 . S
O1063 C1049 1.289 . S
O1064 La1040 2.470 . S
O1064 C1050 1.258 . S
O1065 La1041 2.503 . S
O1065 C1050 1.256 . S
O1066 La1041 2.521 . S
O1066 C1051 1.261 . S
O1067 La1041 2.628 . S
O1067 C1051 1.243 . S
O1068 La1041 2.554 . S
O1068 C1058 1.240 . S
O1069 La1040 2.482 . S
O1069 La1041 2.757 . S
O1069 C1058 1.289 . S
O1070 La1041 2.470 . S
O1070 C1059 1.258 . S
O1071 La1040 2.503 . S
O1071 C1059 1.256 . S
H1072 C1044 0.930 . S
H1073 C1045 0.930 . S
H1074 C1047 0.929 . S
H1075 C1048 0.929 . S
H1076 C1053 0.930 . S
H1077 C1054 0.930 . S
H1078 C1056 0.929 . S
H1079 C1057 0.929 . S
La1080 C1082 2.928 . S
La1080 O1100 2.521 . S
La1080 O1101 2.628 . S
La1080 O1102 2.554 . S
La1080 O1103 2.757 . S
La1080 O1104 2.470 . S
La1080 O1109 2.482 . S
La1080 O1111 2.503 . S
La1081 C1091 2.928 . S
La1081 O1103 2.482 . S
La1081 O1105 2.503 . S
La1081 O1106 2.521 . S
La1081 O1107 2.628 . S
La1081 O1108 2.554 . S
La1081 O1109 2.757 . S
La1081 O1110 2.470 . S
C1082 La1080 2.928 . S
C1082 C1083 1.503 . S
C1082 O1100 1.261 . S
C1082 O1101 1.243 . S
C1083 C1082 1.503 . S
C1083 C1084 1.394 . S
C1083 C1088 1.373 . S
C1084 C1083 1.394 . S
C1084 C1085 1.380 . S
C1084 H1112 0.930 . S
C1085 C1084 1.380 . S
C1085 C1086 1.376 . S
C1085 H1113 0.930 . S
C1086 C1085 1.376 . S
C1086 C1087 1.370 . S
C1087 C1086 1.370 . S
C1087 C1088 1.396 . S
C1087 H1114 0.929 . S
C1088 C1083 1.373 . S
C1088 C1087 1.396 . S
C1088 H1115 0.929 . S
C1089 O1102 1.240 . S
C1089 O1103 1.289 . S
C1090 O1104 1.258 . S
C1090 O1105 1.256 . S
C1091 La1081 2.928 . S
C1091 C1092 1.503 . S
C1091 O1106 1.261 . S
C1091 O1107 1.243 . S
C1092 C1091 1.503 . S
C1092 C1093 1.394 . S
C1092 C1097 1.373 . S
C1093 C1092 1.394 . S
C1093 C1094 1.380 . S
C1093 H1116 0.930 . S
C1094 C1093 1.380 . S
C1094 C1095 1.376 . S
C1094 H1117 0.930 . S
C1095 C1094 1.376 . S
C1095 C1096 1.370 . S
C1096 C1095 1.370 . S
C1096 C1097 1.396 . S
C1096 H1118 0.929 . S
C1097 C1092 1.373 . S
C1097 C1096 1.396 . S
C1097 H1119 0.929 . S
C1098 O1108 1.240 . S
C1098 O1109 1.289 . S
C1099 O1110 1.258 . S
C1099 O1111 1.256 . S
O1100 La1080 2.521 . S
O1100 C1082 1.261 . S
O1101 La1080 2.628 . S
O1101 C1082 1.243 . S
O1102 La1080 2.554 . S
O1102 C1089 1.240 . S
O1103 La1080 2.757 . S
O1103 La1081 2.482 . S
O1103 C1089 1.289 . S
O1104 La1080 2.470 . S
O1104 C1090 1.258 . S
O1105 La1081 2.503 . S
O1105 C1090 1.256 . S
O1106 La1081 2.521 . S
O1106 C1091 1.261 . S
O1107 La1081 2.628 . S
O1107 C1091 1.243 . S
O1108 La1081 2.554 . S
O1108 C1098 1.240 . S
O1109 La1080 2.482 . S
O1109 La1081 2.757 . S
O1109 C1098 1.289 . S
O1110 La1081 2.470 . S
O1110 C1099 1.258 . S
O1111 La1080 2.503 . S
O1111 C1099 1.256 . S
H1112 C1084 0.930 . S
H1113 C1085 0.930 . S
H1114 C1087 0.929 . S
H1115 C1088 0.929 . S
H1116 C1093 0.930 . S
H1117 C1094 0.930 . S
H1118 C1096 0.929 . S
H1119 C1097 0.929 . S
La1120 C1122 2.928 . S
La1120 O1140 2.521 . S
La1120 O1141 2.628 . S
La1120 O1142 2.554 . S
La1120 O1143 2.757 . S
La1120 O1144 2.470 . S
La1120 O1149 2.482 . S
La1120 O1151 2.503 . S
La1121 C1131 2.928 . S
La1121 O1143 2.482 . S
La1121 O1145 2.503 . S
La1121 O1146 2.521 . S
La1121 O1147 2.628 . S
La1121 O1148 2.554 . S
La1121 O1149 2.757 . S
La1121 O1150 2.470 . S
C1122 La1120 2.928 . S
C1122 C1123 1.503 . S
C1122 O1140 1.261 . S
C1122 O1141 1.243 . S
C1123 C1122 1.503 . S
C1123 C1124 1.394 . S
C1123 C1128 1.373 . S
C1124 C1123 1.394 . S
C1124 C1125 1.380 . S
C1124 H1152 0.930 . S
C1125 C1124 1.380 . S
C1125 C1126 1.376 . S
C1125 H1153 0.930 . S
C1126 C1125 1.376 . S
C1126 C1127 1.370 . S
C1127 C1126 1.370 . S
C1127 C1128 1.396 . S
C1127 H1154 0.929 . S
C1128 C1123 1.373 . S
C1128 C1127 1.396 . S
C1128 H1155 0.929 . S
C1129 O1142 1.240 . S
C1129 O1143 1.289 . S
C1130 O1144 1.258 . S
C1130 O1145 1.256 . S
C1131 La1121 2.928 . S
C1131 C1132 1.503 . S
C1131 O1146 1.261 . S
C1131 O1147 1.243 . S
C1132 C1131 1.503 . S
C1132 C1133 1.394 . S
C1132 C1137 1.373 . S
C1133 C1132 1.394 . S
C1133 C1134 1.380 . S
C1133 H1156 0.930 . S
C1134 C1133 1.380 . S
C1134 C1135 1.376 . S
C1134 H1157 0.930 . S
C1135 C1134 1.376 . S
C1135 C1136 1.370 . S
C1136 C1135 1.370 . S
C1136 C1137 1.396 . S
C1136 H1158 0.929 . S
C1137 C1132 1.373 . S
C1137 C1136 1.396 . S
C1137 H1159 0.929 . S
C1138 O1148 1.240 . S
C1138 O1149 1.289 . S
C1139 O1150 1.258 . S
C1139 O1151 1.256 . S
O1140 La1120 2.521 . S
O1140 C1122 1.261 . S
O1141 La1120 2.628 . S
O1141 C1122 1.243 . S
O1142 La1120 2.554 . S
O1142 C1129 1.240 . S
O1143 La1120 2.757 . S
O1143 La1121 2.482 . S
O1143 C1129 1.289 . S
O1144 La1120 2.470 . S
O1144 C1130 1.258 . S
O1145 La1121 2.503 . S
O1145 C1130 1.256 . S
O1146 La1121 2.521 . S
O1146 C1131 1.261 . S
O1147 La1121 2.628 . S
O1147 C1131 1.243 . S
O1148 La1121 2.554 . S
O1148 C1138 1.240 . S
O1149 La1120 2.482 . S
O1149 La1121 2.757 . S
O1149 C1138 1.289 . S
O1150 La1121 2.470 . S
O1150 C1139 1.258 . S
O1151 La1120 2.503 . S
O1151 C1139 1.256 . S
H1152 C1124 0.930 . S
H1153 C1125 0.930 . S
H1154 C1127 0.929 . S
H1155 C1128 0.929 . S
H1156 C1133 0.930 . S
H1157 C1134 0.930 . S
H1158 C1136 0.929 . S
H1159 C1137 0.929 . S
La1160 C1162 2.928 . S
La1160 O1180 2.521 . S
La1160 O1181 2.628 . S
La1160 O1182 2.554 . S
La1160 O1183 2.757 . S
La1160 O1184 2.470 . S
La1160 O1189 2.482 . S
La1160 O1191 2.503 . S
La1161 C1171 2.928 . S
La1161 O1183 2.482 . S
La1161 O1185 2.503 . S
La1161 O1186 2.521 . S
La1161 O1187 2.628 . S
La1161 O1188 2.554 . S
La1161 O1189 2.757 . S
La1161 O1190 2.470 . S
C1162 La1160 2.928 . S
C1162 C1163 1.503 . S
C1162 O1180 1.261 . S
C1162 O1181 1.243 . S
C1163 C1162 1.503 . S
C1163 C1164 1.394 . S
C1163 C1168 1.373 . S
C1164 C1163 1.394 . S
C1164 C1165 1.380 . S
C1164 H1192 0.930 . S
C1165 C1164 1.380 . S
C1165 C1166 1.376 . S
C1165 H1193 0.930 . S
C1166 C1165 1.376 . S
C1166 C1167 1.370 . S
C1167 C1166 1.370 . S
C1167 C1168 1.396 . S
C1167 H1194 0.929 . S
C1168 C1163 1.373 . S
C1168 C1167 1.396 . S
C1168 H1195 0.929 . S
C1169 O1182 1.240 . S
C1169 O1183 1.289 . S
C1170 O1184 1.258 . S
C1170 O1185 1.256 . S
C1171 La1161 2.928 . S
C1171 C1172 1.503 . S
C1171 O1186 1.261 . S
C1171 O1187 1.243 . S
C1172 C1171 1.503 . S
C1172 C1173 1.394 . S
C1172 C1177 1.373 . S
C1173 C1172 1.394 . S
C1173 C1174 1.380 . S
C1173 H1196 0.930 . S
C1174 C1173 1.380 . S
C1174 C1175 1.376 . S
C1174 H1197 0.930 . S
C1175 C1174 1.376 . S
C1175 C1176 1.370 . S
C1176 C1175 1.370 . S
C1176 C1177 1.396 . S
C1176 H1198 0.929 . S
C1177 C1172 1.373 . S
C1177 C1176 1.396 . S
C1177 H1199 0.929 . S
C1178 O1188 1.240 . S
C1178 O1189 1.289 . S
C1179 O1190 1.258 . S
C1179 O1191 1.256 . S
O1180 La1160 2.521 . S
O1180 C1162 1.261 . S
O1181 La1160 2.628 . S
O1181 C1162 1.243 . S
O1182 La1160 2.554 . S
O1182 C1169 1.240 . S
O1183 La1160 2.757 . S
O1183 La1161 2.482 . S
O1183 C1169 1.289 . S
O1184 La1160 2.470 . S
O1184 C1170 1.258 . S
O1185 La1161 2.503 . S
O1185 C1170 1.256 . S
O1186 La1161 2.521 . S
O1186 C1171 1.261 . S
O1187 La1161 2.628 . S
O1187 C1171 1.243 . S
O1188 La1161 2.554 . S
O1188 C1178 1.240 . S
O1189 La1160 2.482 . S
O1189 La1161 2.757 . S
O1189 C1178 1.289 . S
O1190 La1161 2.470 . S
O1190 C1179 1.258 . S
O1191 La1160 2.503 . S
O1191 C1179 1.256 . S
H1192 C1164 0.930 . S
H1193 C1165 0.930 . S
H1194 C1167 0.929 . S
H1195 C1168 0.929 . S
H1196 C1173 0.930 . S
H1197 C1174 0.930 . S
H1198 C1176 0.929 . S
H1199 C1177 0.929 . S
La1200 C1202 2.928 . S
La1200 O1220 2.521 . S
La1200 O1221 2.628 . S
La1200 O1222 2.554 . S
La1200 O1223 2.757 . S
La1200 O1224 2.470 . S
La1200 O1229 2.482 . S
La1200 O1231 2.503 . S
La1201 C1211 2.928 . S
La1201 O1223 2.482 . S
La1201 O1225 2.503 . S
La1201 O1226 2.521 . S
La1201 O1227 2.628 . S
La1201 O1228 2.554 . S
La1201 O1229 2.757 . S
La1201 O1230 2.470 . S
C1202 La1200 2.928 . S
C1202 C1203 1.503 . S
C1202 O1220 1.261 . S
C1202 O1221 1.243 . S
C1203 C1202 1.503 . S
C1203 C1204 1.394 . S
C1203 C1208 1.373 . S
C1204 C1203 1.394 . S
C1204 C1205 1.380 . S
C1204 H1232 0.930 . S
C1205 C1204 1.380 . S
C1205 C1206 1.376 . S
C1205 H1233 0.930 . S
C1206 C1205 1.376 . S
C1206 C1207 1.370 . S
C1207 C1206 1.370 . S
C1207 C1208 1.396 . S
C1207 H1234 0.929 . S
C1208 C1203 1.373 . S
C1208 C1207 1.396 . S
C1208 H1235 0.929 . S
C1209 O1222 1.240 . S
C1209 O1223 1.289 . S
C1210 O1224 1.258 . S
C1210 O1225 1.256 . S
C1211 La1201 2.928 . S
C1211 C1212 1.503 . S
C1211 O1226 1.261 . S
C1211 O1227 1.243 . S
C1212 C1211 1.503 . S
C1212 C1213 1.394 . S
C1212 C1217 1.373 . S
C1213 C1212 1.394 . S
C1213 C1214 1.380 . S
C1213 H1236 0.930 . S
C1214 C1213 1.380 . S
C1214 C1215 1.376 . S
C1214 H1237 0.930 . S
C1215 C1214 1.376 . S
C1215 C1216 1.370 . S
C1216 C1215 1.370 . S
C1216 C1217 1.396 . S
C1216 H1238 0.929 . S
C1217 C1212 1.373 . S
C1217 C1216 1.396 . S
C1217 H1239 0.929 . S
C1218 O1228 1.240 . S
C1218 O1229 1.289 . S
C1219 O1230 1.258 . S
C1219 O1231 1.256 . S
O1220 La1200 2.521 . S
O1220 C1202 1.261 . S
O1221 La1200 2.628 . S
O1221 C1202 1.243 . S
O1222 La1200 2.554 . S
O1222 C1209 1.240 . S
O1223 La1200 2.757 . S
O1223 La1201 2.482 . S
O1223 C1209 1.289 . S
O1224 La1200 2.470 . S
O1224 C1210 1.258 . S
O1225 La1201 2.503 . S
O1225 C1210 1.256 . S
O1226 La1201 2.521 . S
O1226 C1211 1.261 . S
O1227 La1201 2.628 . S
O1227 C1211 1.243 . S
O1228 La1201 2.554 . S
O1228 C1218 1.240 . S
O1229 La1200 2.482 . S
O1229 La1201 2.757 . S
O1229 C1218 1.289 . S
O1230 La1201 2.470 . S
O1230 C1219 1.258 . S
O1231 La1200 2.503 . S
O1231 C1219 1.256 . S
H1232 C1204 0.930 . S
H1233 C1205 0.930 . S
H1234 C1207 0.929 . S
H1235 C1208 0.929 . S
H1236 C1213 0.930 . S
H1237 C1214 0.930 . S
H1238 C1216 0.929 . S
H1239 C1217 0.929 . S
La1240 C1242 2.928 . S
La1240 O1260 2.521 . S
La1240 O1261 2.628 . S
La1240 O1262 2.554 . S
La1240 O1263 2.757 . S
La1240 O1264 2.470 . S
La1240 O1269 2.482 . S
La1240 O1271 2.503 . S
La1241 C1251 2.928 . S
La1241 O1263 2.482 . S
La1241 O1265 2.503 . S
La1241 O1266 2.521 . S
La1241 O1267 2.628 . S
La1241 O1268 2.554 . S
La1241 O1269 2.757 . S
La1241 O1270 2.470 . S
C1242 La1240 2.928 . S
C1242 C1243 1.503 . S
C1242 O1260 1.261 . S
C1242 O1261 1.243 . S
C1243 C1242 1.503 . S
C1243 C1244 1.394 . S
C1243 C1248 1.373 . S
C1244 C1243 1.394 . S
C1244 C1245 1.380 . S
C1244 H1272 0.930 . S
C1245 C1244 1.380 . S
C1245 C1246 1.376 . S
C1245 H1273 0.930 . S
C1246 C1245 1.376 . S
C1246 C1247 1.370 . S
C1247 C1246 1.370 . S
C1247 C1248 1.396 . S
C1247 H1274 0.929 . S
C1248 C1243 1.373 . S
C1248 C1247 1.396 . S
C1248 H1275 0.929 . S
C1249 O1262 1.240 . S
C1249 O1263 1.289 . S
C1250 O1264 1.258 . S
C1250 O1265 1.256 . S
C1251 La1241 2.928 . S
C1251 C1252 1.503 . S
C1251 O1266 1.261 . S
C1251 O1267 1.243 . S
C1252 C1251 1.503 . S
C1252 C1253 1.394 . S
C1252 C1257 1.373 . S
C1253 C1252 1.394 . S
C1253 C1254 1.380 . S
C1253 H1276 0.930 . S
C1254 C1253 1.380 . S
C1254 C1255 1.376 . S
C1254 H1277 0.930 . S
C1255 C1254 1.376 . S
C1255 C1256 1.370 . S
C1256 C1255 1.370 . S
C1256 C1257 1.396 . S
C1256 H1278 0.929 . S
C1257 C1252 1.373 . S
C1257 C1256 1.396 . S
C1257 H1279 0.929 . S
C1258 O1268 1.240 . S
C1258 O1269 1.289 . S
C1259 O1270 1.258 . S
C1259 O1271 1.256 . S
O1260 La1240 2.521 . S
O1260 C1242 1.261 . S
O1261 La1240 2.628 . S
O1261 C1242 1.243 . S
O1262 La1240 2.554 . S
O1262 C1249 1.240 . S
O1263 La1240 2.757 . S
O1263 La1241 2.482 . S
O1263 C1249 1.289 . S
O1264 La1240 2.470 . S
O1264 C1250 1.258 . S
O1265 La1241 2.503 . S
O1265 C1250 1.256 . S
O1266 La1241 2.521 . S
O1266 C1251 1.261 . S
O1267 La1241 2.628 . S
O1267 C1251 1.243 . S
O1268 La1241 2.554 . S
O1268 C1258 1.240 . S
O1269 La1240 2.482 . S
O1269 La1241 2.757 . S
O1269 C1258 1.289 . S
O1270 La1241 2.470 . S
O1270 C1259 1.258 . S
O1271 La1240 2.503 . S
O1271 C1259 1.256 . S
H1272 C1244 0.930 . S
H1273 C1245 0.930 . S
H1274 C1247 0.929 . S
H1275 C1248 0.929 . S
H1276 C1253 0.930 . S
H1277 C1254 0.930 . S
H1278 C1256 0.929 . S
H1279 C1257 0.929 . S
La1280 C1282 2.928 . S
La1280 O1300 2.521 . S
La1280 O1301 2.628 . S
La1280 O1302 2.554 . S
La1280 O1303 2.757 . S
La1280 O1304 2.470 . S
La1280 O1309 2.482 . S
La1280 O1311 2.503 . S
La1281 C1291 2.928 . S
La1281 O1303 2.482 . S
La1281 O1305 2.503 . S
La1281 O1306 2.521 . S
La1281 O1307 2.628 . S
La1281 O1308 2.554 . S
La1281 O1309 2.757 . S
La1281 O1310 2.470 . S
C1282 La1280 2.928 . S
C1282 C1283 1.503 . S
C1282 O1300 1.261 . S
C1282 O1301 1.243 . S
C1283 C1282 1.503 . S
C1283 C1284 1.394 . S
C1283 C1288 1.373 . S
C1284 C1283 1.394 . S
C1284 C1285 1.380 . S
C1284 H1312 0.930 . S
C1285 C1284 1.380 . S
C1285 C1286 1.376 . S
C1285 H1313 0.930 . S
C1286 C1285 1.376 . S
C1286 C1287 1.370 . S
C1287 C1286 1.370 . S
C1287 C1288 1.396 . S
C1287 H1314 0.929 . S
C1288 C1283 1.373 . S
C1288 C1287 1.396 . S
C1288 H1315 0.929 . S
C1289 O1302 1.240 . S
C1289 O1303 1.289 . S
C1290 O1304 1.258 . S
C1290 O1305 1.256 . S
C1291 La1281 2.928 . S
C1291 C1292 1.503 . S
C1291 O1306 1.261 . S
C1291 O1307 1.243 . S
C1292 C1291 1.503 . S
C1292 C1293 1.394 . S
C1292 C1297 1.373 . S
C1293 C1292 1.394 . S
C1293 C1294 1.380 . S
C1293 H1316 0.930 . S
C1294 C1293 1.380 . S
C1294 C1295 1.376 . S
C1294 H1317 0.930 . S
C1295 C1294 1.376 . S
C1295 C1296 1.370 . S
C1296 C1295 1.370 . S
C1296 C1297 1.396 . S
C1296 H1318 0.929 . S
C1297 C1292 1.373 . S
C1297 C1296 1.396 . S
C1297 H1319 0.929 . S
C1298 O1308 1.240 . S
C1298 O1309 1.289 . S
C1299 O1310 1.258 . S
C1299 O1311 1.256 . S
O1300 La1280 2.521 . S
O1300 C1282 1.261 . S
O1301 La1280 2.628 . S
O1301 C1282 1.243 . S
O1302 La1280 2.554 . S
O1302 C1289 1.240 . S
O1303 La1280 2.757 . S
O1303 La1281 2.482 . S
O1303 C1289 1.289 . S
O1304 La1280 2.470 . S
O1304 C1290 1.258 . S
O1305 La1281 2.503 . S
O1305 C1290 1.256 . S
O1306 La1281 2.521 . S
O1306 C1291 1.261 . S
O1307 La1281 2.628 . S
O1307 C1291 1.243 . S
O1308 La1281 2.554 . S
O1308 C1298 1.240 . S
O1309 La1280 2.482 . S
O1309 La1281 2.757 . S
O1309 C1298 1.289 . S
O1310 La1281 2.470 . S
O1310 C1299 1.258 . S
O1311 La1280 2.503 . S
O1311 C1299 1.256 . S
H1312 C1284 0.930 . S
H1313 C1285 0.930 . S
H1314 C1287 0.929 . S
H1315 C1288 0.929 . S
H1316 C1293 0.930 . S
H1317 C1294 0.930 . S
H1318 C1296 0.929 . S
H1319 C1297 0.929 . S
La1320 C1322 2.928 . S
La1320 O1340 2.521 . S
La1320 O1341 2.628 . S
La1320 O1342 2.554 . S
La1320 O1343 2.757 . S
La1320 O1344 2.470 . S
La1320 O1349 2.482 . S
La1320 O1351 2.503 . S
La1321 C1331 2.928 . S
La1321 O1343 2.482 . S
La1321 O1345 2.503 . S
La1321 O1346 2.521 . S
La1321 O1347 2.628 . S
La1321 O1348 2.554 . S
La1321 O1349 2.757 . S
La1321 O1350 2.470 . S
C1322 La1320 2.928 . S
C1322 C1323 1.503 . S
C1322 O1340 1.261 . S
C1322 O1341 1.243 . S
C1323 C1322 1.503 . S
C1323 C1324 1.394 . S
C1323 C1328 1.373 . S
C1324 C1323 1.394 . S
C1324 C1325 1.380 . S
C1324 H1352 0.930 . S
C1325 C1324 1.380 . S
C1325 C1326 1.376 . S
C1325 H1353 0.930 . S
C1326 C1325 1.376 . S
C1326 C1327 1.370 . S
C1327 C1326 1.370 . S
C1327 C1328 1.396 . S
C1327 H1354 0.929 . S
C1328 C1323 1.373 . S
C1328 C1327 1.396 . S
C1328 H1355 0.929 . S
C1329 O1342 1.240 . S
C1329 O1343 1.289 . S
C1330 O1344 1.258 . S
C1330 O1345 1.256 . S
C1331 La1321 2.928 . S
C1331 C1332 1.503 . S
C1331 O1346 1.261 . S
C1331 O1347 1.243 . S
C1332 C1331 1.503 . S
C1332 C1333 1.394 . S
C1332 C1337 1.373 . S
C1333 C1332 1.394 . S
C1333 C1334 1.380 . S
C1333 H1356 0.930 . S
C1334 C1333 1.380 . S
C1334 C1335 1.376 . S
C1334 H1357 0.930 . S
C1335 C1334 1.376 . S
C1335 C1336 1.370 . S
C1336 C1335 1.370 . S
C1336 C1337 1.396 . S
C1336 H1358 0.929 . S
C1337 C1332 1.373 . S
C1337 C1336 1.396 . S
C1337 H1359 0.929 . S
C1338 O1348 1.240 . S
C1338 O1349 1.289 . S
C1339 O1350 1.258 . S
C1339 O1351 1.256 . S
O1340 La1320 2.521 . S
O1340 C1322 1.261 . S
O1341 La1320 2.628 . S
O1341 C1322 1.243 . S
O1342 La1320 2.554 . S
O1342 C1329 1.240 . S
O1343 La1320 2.757 . S
O1343 La1321 2.482 . S
O1343 C1329 1.289 . S
O1344 La1320 2.470 . S
O1344 C1330 1.258 . S
O1345 La1321 2.503 . S
O1345 C1330 1.256 . S
O1346 La1321 2.521 . S
O1346 C1331 1.261 . S
O1347 La1321 2.628 . S
O1347 C1331 1.243 . S
O1348 La1321 2.554 . S
O1348 C1338 1.240 . S
O1349 La1320 2.482 . S
O1349 La1321 2.757 . S
O1349 C1338 1.289 . S
O1350 La1321 2.470 . S
O1350 C1339 1.258 . S
O1351 La1320 2.503 . S
O1351 C1339 1.256 . S
H1352 C1324 0.930 . S
H1353 C1325 0.930 . S
H1354 C1327 0.929 . S
H1355 C1328 0.929 . S
H1356 C1333 0.930 . S
H1357 C1334 0.930 . S
H1358 C1336 0.929 . S
H1359 C1337 0.929 . S
La1360 C1362 2.928 . S
La1360 O1380 2.521 . S
La1360 O1381 2.628 . S
La1360 O1382 2.554 . S
La1360 O1383 2.757 . S
La1360 O1384 2.470 . S
La1360 O1389 2.482 . S
La1360 O1391 2.503 . S
La1361 C1371 2.928 . S
La1361 O1383 2.482 . S
La1361 O1385 2.503 . S
La1361 O1386 2.521 . S
La1361 O1387 2.628 . S
La1361 O1388 2.554 . S
La1361 O1389 2.757 . S
La1361 O1390 2.470 . S
C1362 La1360 2.928 . S
C1362 C1363 1.503 . S
C1362 O1380 1.261 . S
C1362 O1381 1.243 . S
C1363 C1362 1.503 . S
C1363 C1364 1.394 . S
C1363 C1368 1.373 . S
C1364 C1363 1.394 . S
C1364 C1365 1.380 . S
C1364 H1392 0.930 . S
C1365 C1364 1.380 . S
C1365 C1366 1.376 . S
C1365 H1393 0.930 . S
C1366 C1365 1.376 . S
C1366 C1367 1.370 . S
C1367 C1366 1.370 . S
C1367 C1368 1.396 . S
C1367 H1394 0.929 . S
C1368 C1363 1.373 . S
C1368 C1367 1.396 . S
C1368 H1395 0.929 . S
C1369 O1382 1.240 . S
C1369 O1383 1.289 . S
C1370 O1384 1.258 . S
C1370 O1385 1.256 . S
C1371 La1361 2.928 . S
C1371 C1372 1.503 . S
C1371 O1386 1.261 . S
C1371 O1387 1.243 . S
C1372 C1371 1.503 . S
C1372 C1373 1.394 . S
C1372 C1377 1.373 . S
C1373 C1372 1.394 . S
C1373 C1374 1.380 . S
C1373 H1396 0.930 . S
C1374 C1373 1.380 . S
C1374 C1375 1.376 . S
C1374 H1397 0.930 . S
C1375 C1374 1.376 . S
C1375 C1376 1.370 . S
C1376 C1375 1.370 . S
C1376 C1377 1.396 . S
C1376 H1398 0.929 . S
C1377 C1372 1.373 . S
C1377 C1376 1.396 . S
C1377 H1399 0.929 . S
C1378 O1388 1.240 . S
C1378 O1389 1.289 . S
C1379 O1390 1.258 . S
C1379 O1391 1.256 . S
O1380 La1360 2.521 . S
O1380 C1362 1.261 . S
O1381 La1360 2.628 . S
O1381 C1362 1.243 . S
O1382 La1360 2.554 . S
O1382 C1369 1.240 . S
O1383 La1360 2.757 . S
O1383 La1361 2.482 . S
O1383 C1369 1.289 . S
O1384 La1360 2.470 . S
O1384 C1370 1.258 . S
O1385 La1361 2.503 . S
O1385 C1370 1.256 . S
O1386 La1361 2.521 . S
O1386 C1371 1.261 . S
O1387 La1361 2.628 . S
O1387 C1371 1.243 . S
O1388 La1361 2.554 . S
O1388 C1378 1.240 . S
O1389 La1360 2.482 . S
O1389 La1361 2.757 . S
O1389 C1378 1.289 . S
O1390 La1361 2.470 . S
O1390 C1379 1.258 . S
O1391 La1360 2.503 . S
O1391 C1379 1.256 . S
H1392 C1364 0.930 . S
H1393 C1365 0.930 . S
H1394 C1367 0.929 . S
H1395 C1368 0.929 . S
H1396 C1373 0.930 . S
H1397 C1374 0.930 . S
H1398 C1376 0.929 . S
H1399 C1377 0.929 . S
La1400 C1402 2.928 . S
La1400 O1420 2.521 . S
La1400 O1421 2.628 . S
La1400 O1422 2.554 . S
La1400 O1423 2.757 . S
La1400 O1424 2.470 . S
La1400 O1429 2.482 . S
La1400 O1431 2.503 . S
La1401 C1411 2.928 . S
La1401 O1423 2.482 . S
La1401 O1425 2.503 . S
La1401 O1426 2.521 . S
La1401 O1427 2.628 . S
La1401 O1428 2.554 . S
La1401 O1429 2.757 . S
La1401 O1430 2.470 . S
C1402 La1400 2.928 . S
C1402 C1403 1.503 . S
C1402 O1420 1.261 . S
C1402 O1421 1.243 . S
C1403 C1402 1.503 . S
C1403 C1404 1.394 . S
C1403 C1408 1.373 . S
C1404 C1403 1.394 . S
C1404 C1405 1.380 . S
C1404 H1432 0.930 . S
C1405 C1404 1.380 . S
C1405 C1406 1.376 . S
C1405 H1433 0.930 . S
C1406 C1405 1.376 . S
C1406 C1407 1.370 . S
C1407 C1406 1.370 . S
C1407 C1408 1.396 . S
C1407 H1434 0.929 . S
C1408 C1403 1.373 . S
C1408 C1407 1.396 . S
C1408 H1435 0.929 . S
C1409 O1422 1.240 . S
C1409 O1423 1.289 . S
C1410 O1424 1.258 . S
C1410 O1425 1.256 . S
C1411 La1401 2.928 . S
C1411 C1412 1.503 . S
C1411 O1426 1.261 . S
C1411 O1427 1.243 . S
C1412 C1411 1.503 . S
C1412 C1413 1.394 . S
C1412 C1417 1.373 . S
C1413 C1412 1.394 . S
C1413 C1414 1.380 . S
C1413 H1436 0.930 . S
C1414 C1413 1.380 . S
C1414 C1415 1.376 . S
C1414 H1437 0.930 . S
C1415 C1414 1.376 . S
C1415 C1416 1.370 . S
C1416 C1415 1.370 . S
C1416 C1417 1.396 . S
C1416 H1438 0.929 . S
C1417 C1412 1.373 . S
C1417 C1416 1.396 . S
C1417 H1439 0.929 . S
C1418 O1428 1.240 . S
C1418 O1429 1.289 . S
C1419 O1430 1.258 . S
C1419 O1431 1.256 . S
O1420 La1400 2.521 . S
O1420 C1402 1.261 . S
O1421 La1400 2.628 . S
O1421 C1402 1.243 . S
O1422 La1400 2.554 . S
O1422 C1409 1.240 . S
O1423 La1400 2.757 . S
O1423 La1401 2.482 . S
O1423 C1409 1.289 . S
O1424 La1400 2.470 . S
O1424 C1410 1.258 . S
O1425 La1401 2.503 . S
O1425 C1410 1.256 . S
O1426 La1401 2.521 . S
O1426 C1411 1.261 . S
O1427 La1401 2.628 . S
O1427 C1411 1.243 . S
O1428 La1401 2.554 . S
O1428 C1418 1.240 . S
O1429 La1400 2.482 . S
O1429 La1401 2.757 . S
O1429 C1418 1.289 . S
O1430 La1401 2.470 . S
O1430 C1419 1.258 . S
O1431 La1400 2.503 . S
O1431 C1419 1.256 . S
H1432 C1404 0.930 . S
H1433 C1405 0.930 . S
H1434 C1407 0.929 . S
H1435 C1408 0.929 . S
H1436 C1413 0.930 . S
H1437 C1414 0.930 . S
H1438 C1416 0.929 . S
H1439 C1417 0.929 . S
H1440 C1446 0.930 . S
H1441 C1449 0.930 . S
H1442 C1450 0.930 . S
H1443 C1451 0.930 . S
H1444 C1454 0.930 . S
H1445 C1455 0.930 . S
C1446 H1440 0.930 . S
C1446 C1447 1.355 . S
C1446 C1448 1.415 . S
C1447 C1446 1.355 . S
C1447 C1449 1.419 . S
C1448 C1446 1.415 . S
C1448 C1453 1.425 . S
C1448 C1455 1.409 1_545 S
C1449 H1441 0.930 . S
C1449 C1447 1.419 . S
C1449 C1450 1.362 1_554 S
C1450 H1442 0.930 . S
C1450 C1449 1.362 1_556 S
C1450 C1453 1.409 1_556 S
C1451 H1443 0.930 . S
C1451 C1452 1.355 . S
C1451 C1453 1.415 1_566 S
C1452 C1451 1.355 . S
C1452 C1454 1.419 1_556 S
C1453 C1448 1.425 . S
C1453 C1450 1.409 1_554 S
C1453 C1451 1.415 1_544 S
C1454 H1444 0.930 . S
C1454 C1452 1.419 1_554 S
C1454 C1455 1.362 . S
C1455 H1445 0.930 . S
C1455 C1448 1.409 1_565 S
C1455 C1454 1.362 . S
H1456 C1462 0.930 . S
H1457 C1465 0.930 . S
H1458 C1466 0.930 . S
H1459 C1467 0.930 . S
H1460 C1470 0.930 1_556 S
H1461 C1471 0.930 . S
C1462 H1456 0.930 . S
C1462 C1463 1.355 . S
C1462 C1464 1.415 1_455 S
C1463 C1462 1.355 . S
C1463 C1465 1.419 1_556 S
C1464 C1462 1.415 1_655 S
C1464 C1469 1.425 1_556 S
C1464 C1471 1.409 . S
C1465 H1457 0.930 . S
C1465 C1463 1.419 1_554 S
C1465 C1466 1.362 . S
C1466 H1458 0.930 . S
C1466 C1465 1.362 . S
C1466 C1469 1.409 1_455 S
C1467 H1459 0.930 . S
C1467 C1468 1.355 . S
C1467 C1469 1.415 . S
C1468 C1467 1.355 . S
C1468 C1470 1.419 . S
C1469 C1464 1.425 1_554 S
C1469 C1466 1.409 1_655 S
C1469 C1467 1.415 . S
C1470 H1460 0.930 1_554 S
C1470 C1468 1.419 . S
C1470 C1471 1.362 1_554 S
C1471 H1461 0.930 . S
C1471 C1464 1.409 . S
C1471 C1470 1.362 1_556 S
H1472 C1478 0.930 . S
H1473 C1481 0.930 . S
H1474 C1482 0.930 . S
H1475 C1483 0.930 . S
H1476 C1486 0.930 . S
H1477 C1487 0.930 . S
C1478 H1472 0.930 . S
C1478 C1479 1.355 . S
C1478 C1480 1.415 1_556 S
C1479 C1478 1.355 . S
C1479 C1481 1.419 . S
C1480 C1478 1.415 1_554 S
C1480 C1485 1.425 . S
C1480 C1487 1.409 . S
C1481 H1473 0.930 . S
C1481 C1479 1.419 . S
C1481 C1482 1.362 1_556 S
C1482 H1474 0.930 . S
C1482 C1481 1.362 1_554 S
C1482 C1485 1.409 . S
C1483 H1475 0.930 . S
C1483 C1484 1.355 . S
C1483 C1485 1.415 . S
C1484 C1483 1.355 . S
C1484 C1486 1.419 . S
C1485 C1480 1.425 . S
C1485 C1482 1.409 . S
C1485 C1483 1.415 . S
C1486 H1476 0.930 . S
C1486 C1484 1.419 . S
C1486 C1487 1.362 . S
C1487 H1477 0.930 . S
C1487 C1480 1.409 . S
C1487 C1486 1.362 . S
H1488 C1494 0.930 . S
H1489 C1497 0.930 . S
H1490 C1498 0.930 . S
H1491 C1499 0.930 . S
H1492 C1502 0.930 . S
H1493 C1503 0.930 . S
C1494 H1488 0.930 . S
C1494 C1495 1.355 . S
C1494 C1496 1.415 1_655 S
C1495 C1494 1.355 . S
C1495 C1497 1.419 . S
C1496 C1494 1.415 1_455 S
C1496 C1501 1.425 . S
C1496 C1503 1.409 . S
C1497 H1489 0.930 . S
C1497 C1495 1.419 . S
C1497 C1498 1.362 . S
C1498 H1490 0.930 . S
C1498 C1497 1.362 . S
C1498 C1501 1.409 1_655 S
C1499 H1491 0.930 . S
C1499 C1500 1.355 . S
C1499 C1501 1.415 . S
C1500 C1499 1.355 . S
C1500 C1502 1.419 . S
C1501 C1496 1.425 . S
C1501 C1498 1.409 1_455 S
C1501 C1499 1.415 . S
C1502 H1492 0.930 . S
C1502 C1500 1.419 . S
C1502 C1503 1.362 . S
C1503 H1493 0.930 . S
C1503 C1496 1.409 . S
C1503 C1502 1.362 . S
H1504 C1510 0.930 . S
H1505 C1513 0.930 . S
H1506 C1514 0.930 . S
H1507 C1515 0.930 . S
H1508 C1518 0.930 . S
H1509 C1519 0.930 . S
C1510 H1504 0.930 . S
C1510 C1511 1.355 . S
C1510 C1512 1.415 . S
C1511 C1510 1.355 . S
C1511 C1513 1.419 . S
C1512 C1510 1.415 . S
C1512 C1517 1.425 . S
C1512 C1519 1.409 . S
C1513 H1505 0.930 . S
C1513 C1511 1.419 . S
C1513 C1514 1.362 . S
C1514 H1506 0.930 . S
C1514 C1513 1.362 . S
C1514 C1517 1.409 . S
C1515 H1507 0.930 . S
C1515 C1516 1.355 . S
C1515 C1517 1.415 . S
C1516 C1515 1.355 . S
C1516 C1518 1.419 . S
C1517 C1512 1.425 . S
C1517 C1514 1.409 . S
C1517 C1515 1.415 . S
C1518 H1508 0.930 . S
C1518 C1516 1.419 . S
C1518 C1519 1.362 . S
C1519 H1509 0.930 . S
C1519 C1512 1.409 . S
C1519 C1518 1.362 . S
H1520 C1526 0.930 . S
H1521 C1529 0.930 . S
H1522 C1530 0.930 . S
H1523 C1531 0.930 . S
H1524 C1534 0.930 . S
H1525 C1535 0.930 . S
C1526 H1520 0.930 . S
C1526 C1527 1.355 . S
C1526 C1528 1.415 . S
C1527 C1526 1.355 . S
C1527 C1529 1.419 . S
C1528 C1526 1.415 . S
C1528 C1533 1.425 . S
C1528 C1535 1.409 1_565 S
C1529 H1521 0.930 . S
C1529 C1527 1.419 . S
C1529 C1530 1.362 . S
C1530 H1522 0.930 . S
C1530 C1529 1.362 . S
C1530 C1533 1.409 . S
C1531 H1523 0.930 . S
C1531 C1532 1.355 . S
C1531 C1533 1.415 1_545 S
C1532 C1531 1.355 . S
C1532 C1534 1.419 . S
C1533 C1528 1.425 . S
C1533 C1530 1.409 . S
C1533 C1531 1.415 1_565 S
C1534 H1524 0.930 . S
C1534 C1532 1.419 . S
C1534 C1535 1.362 . S
C1535 H1525 0.930 . S
C1535 C1528 1.409 1_545 S
C1535 C1534 1.362 . S
H1536 C1542 0.930 . S
H1537 C1545 0.930 . S
H1538 C1546 0.930 . S
H1539 C1547 0.930 1_554 S
H1540 C1550 0.930 . S
H1541 C1551 0.935 1_545 S
C1542 H1536 0.930 . S
C1542 C1543 1.355 1_556 S
C1542 C1544 1.415 1_545 S
C1543 C1542 1.355 1_554 S
C1543 C1545 1.419 . S
C1544 C1542 1.415 1_565 S
C1544 C1549 1.425 . S
C1544 C1551 1.409 . S
C1545 H1537 0.930 . S
C1545 C1543 1.419 . S
C1545 C1546 1.362 1_545 S
C1546 H1538 0.930 . S
C1546 C1545 1.362 1_565 S
C1546 C1549 1.409 1_554 S
C1547 H1539 0.930 1_556 S
C1547 C1548 1.355 . S
C1547 C1549 1.415 . S
C1548 C1547 1.355 . S
C1548 C1550 1.419 . S
C1549 C1544 1.425 . S
C1549 C1546 1.409 1_556 S
C1549 C1547 1.415 . S
C1550 H1540 0.930 . S
C1550 C1548 1.419 . S
C1550 C1551 1.362 . S
C1551 H1541 0.935 1_565 S
C1551 C1544 1.409 . S
C1551 C1550 1.362 . S
H1552 C1558 0.930 . S
H1553 C1561 0.930 . S
H1554 C1562 0.885 1_655 S
H1555 C1563 0.930 . S
H1556 C1566 0.930 . S
H1557 C1567 0.930 . S
C1558 H1552 0.930 . S
C1558 C1559 1.355 . S
C1558 C1560 1.415 . S
C1559 C1558 1.355 . S
C1559 C1561 1.419 . S
C1560 C1558 1.415 . S
C1560 C1565 1.425 . S
C1560 C1567 1.409 1_556 S
C1561 H1553 0.930 . S
C1561 C1559 1.419 . S
C1561 C1562 1.362 . S
C1562 H1554 0.885 1_455 S
C1562 C1561 1.362 . S
C1562 C1565 1.409 . S
C1563 H1555 0.930 . S
C1563 C1564 1.355 1_556 S
C1563 C1565 1.415 1_655 S
C1564 C1563 1.355 1_554 S
C1564 C1566 1.419 . S
C1565 C1560 1.425 . S
C1565 C1562 1.409 . S
C1565 C1563 1.415 1_455 S
C1566 H1556 0.930 . S
C1566 C1564 1.419 . S
C1566 C1567 1.362 1_655 S
C1567 H1557 0.930 . S
C1567 C1560 1.409 1_554 S
C1567 C1566 1.362 1_455 S
H1568 C1574 0.930 . S
H1569 C1577 0.930 . S
H1570 C1578 0.930 . S
H1571 C1579 0.930 . S
H1572 C1582 0.930 . S
H1573 C1583 0.930 . S
C1574 H1568 0.930 . S
C1574 C1575 1.355 1_556 S
C1574 C1576 1.415 . S
C1575 C1574 1.355 1_554 S
C1575 C1577 1.419 . S
C1576 C1574 1.415 . S
C1576 C1581 1.425 . S
C1576 C1583 1.409 . S
C1577 H1569 0.930 . S
C1577 C1575 1.419 . S
C1577 C1578 1.362 . S
C1578 H1570 0.930 . S
C1578 C1577 1.362 . S
C1578 C1581 1.409 1_554 S
C1579 H1571 0.930 . S
C1579 C1580 1.355 . S
C1579 C1581 1.415 . S
C1580 C1579 1.355 . S
C1580 C1582 1.419 . S
C1581 C1576 1.425 . S
C1581 C1578 1.409 1_556 S
C1581 C1579 1.415 . S
C1582 H1572 0.930 . S
C1582 C1580 1.419 . S
C1582 C1583 1.362 . S
C1583 H1573 0.930 . S
C1583 C1576 1.409 . S
C1583 C1582 1.362 . S
H1584 C1590 0.930 . S
H1585 C1593 0.930 . S
H1586 C1594 0.930 . S
H1587 C1595 0.930 . S
H1588 C1598 0.930 . S
H1589 C1599 0.911 1_455 S
C1590 H1584 0.930 . S
C1590 C1591 1.355 . S
C1590 C1592 1.415 1_455 S
C1591 C1590 1.355 . S
C1591 C1593 1.419 . S
C1592 C1590 1.415 1_655 S
C1592 C1597 1.425 . S
C1592 C1599 1.409 . S
C1593 H1585 0.930 . S
C1593 C1591 1.419 . S
C1593 C1594 1.362 1_455 S
C1594 H1586 0.930 . S
C1594 C1593 1.362 1_655 S
C1594 C1597 1.409 . S
C1595 H1587 0.930 . S
C1595 C1596 1.355 . S
C1595 C1597 1.415 . S
C1596 C1595 1.355 . S
C1596 C1598 1.419 . S
C1597 C1592 1.425 . S
C1597 C1594 1.409 . S
C1597 C1595 1.415 . S
C1598 H1588 0.930 . S
C1598 C1596 1.419 . S
C1598 C1599 1.362 . S
C1599 H1589 0.911 1_655 S
C1599 C1592 1.409 . S
C1599 C1598 1.362 . S
H1600 C1606 0.930 . S
H1601 C1609 0.930 . S
H1602 C1610 0.930 . S
H1603 C1611 0.930 . S
H1604 C1614 0.930 . S
H1605 C1615 0.930 . S
C1606 H1600 0.930 . S
C1606 C1607 1.355 . S
C1606 C1608 1.415 . S
C1607 C1606 1.355 . S
C1607 C1609 1.419 . S
C1608 C1606 1.415 . S
C1608 C1613 1.425 . S
C1608 C1615 1.409 . S
C1609 H1601 0.930 . S
C1609 C1607 1.419 . S
C1609 C1610 1.362 . S
C1610 H1602 0.930 . S
C1610 C1609 1.362 . S
C1610 C1613 1.409 . S
C1611 H1603 0.930 . S
C1611 C1612 1.355 . S
C1611 C1613 1.415 . S
C1612 C1611 1.355 . S
C1612 C1614 1.419 . S
C1613 C1608 1.425 . S
C1613 C1610 1.409 . S
C1613 C1611 1.415 . S
C1614 H1604 0.930 . S
C1614 C1612 1.419 . S
C1614 C1615 1.362 . S
C1615 H1605 0.930 . S
C1615 C1608 1.409 . S
C1615 C1614 1.362 . S
H1616 C1622 0.930 . S
H1617 C1625 0.930 . S
H1618 C1626 0.930 . S
H1619 C1627 0.930 . S
H1620 C1630 0.930 . S
H1621 C1631 0.930 . S
C1622 H1616 0.930 . S
C1622 C1623 1.355 . S
C1622 C1624 1.415 . S
C1623 C1622 1.355 . S
C1623 C1625 1.419 . S
C1624 C1622 1.415 . S
C1624 C1629 1.425 . S
C1624 C1631 1.409 . S
C1625 H1617 0.930 . S
C1625 C1623 1.419 . S
C1625 C1626 1.362 . S
C1626 H1618 0.930 . S
C1626 C1625 1.362 . S
C1626 C1629 1.409 . S
C1627 H1619 0.930 . S
C1627 C1628 1.355 . S
C1627 C1629 1.415 1_565 S
C1628 C1627 1.355 . S
C1628 C1630 1.419 . S
C1629 C1624 1.425 . S
C1629 C1626 1.409 . S
C1629 C1627 1.415 1_545 S
C1630 H1620 0.930 . S
C1630 C1628 1.419 . S
C1630 C1631 1.362 1_565 S
C1631 H1621 0.930 . S
C1631 C1624 1.409 . S
C1631 C1630 1.362 1_545 S
H1632 C1638 0.930 . S
H1633 C1641 0.930 . S
H1634 C1642 0.930 . S
H1635 C1643 0.930 . S
H1636 C1646 0.930 . S
H1637 C1647 0.930 . S
C1638 H1632 0.930 . S
C1638 C1639 1.355 . S
C1638 C1640 1.415 . S
C1639 C1638 1.355 . S
C1639 C1641 1.419 . S
C1640 C1638 1.415 . S
C1640 C1645 1.425 . S
C1640 C1647 1.409 . S
C1641 H1633 0.930 . S
C1641 C1639 1.419 . S
C1641 C1642 1.362 . S
C1642 H1634 0.930 . S
C1642 C1641 1.362 . S
C1642 C1645 1.409 . S
C1643 H1635 0.930 . S
C1643 C1644 1.355 . S
C1643 C1645 1.415 . S
C1644 C1643 1.355 . S
C1644 C1646 1.419 . S
C1645 C1640 1.425 . S
C1645 C1642 1.409 . S
C1645 C1643 1.415 . S
C1646 H1636 0.930 . S
C1646 C1644 1.419 . S
C1646 C1647 1.362 . S
C1647 H1637 0.930 . S
C1647 C1640 1.409 . S
C1647 C1646 1.362 . S
H1648 C1654 0.930 . S
H1649 C1657 0.930 . S
H1650 C1658 0.930 . S
H1651 C1659 0.930 . S
H1652 C1662 0.930 . S
H1653 C1663 0.930 . S
C1654 H1648 0.930 . S
C1654 C1655 1.355 . S
C1654 C1656 1.415 . S
C1655 C1654 1.355 . S
C1655 C1657 1.419 . S
C1656 C1654 1.415 . S
C1656 C1661 1.425 . S
C1656 C1663 1.409 . S
C1657 H1649 0.930 . S
C1657 C1655 1.419 . S
C1657 C1658 1.362 . S
C1658 H1650 0.930 . S
C1658 C1657 1.362 . S
C1658 C1661 1.409 . S
C1659 H1651 0.930 . S
C1659 C1660 1.355 . S
C1659 C1661 1.415 . S
C1660 C1659 1.355 . S
C1660 C1662 1.419 . S
C1661 C1656 1.425 . S
C1661 C1658 1.409 . S
C1661 C1659 1.415 . S
C1662 H1652 0.930 . S
C1662 C1660 1.419 . S
C1662 C1663 1.362 . S
C1663 H1653 0.930 . S
C1663 C1656 1.409 . S
C1663 C1662 1.362 . S
H1664 C1670 0.930 . S
H1665 C1673 0.930 . S
H1666 C1674 0.930 . S
H1667 C1675 0.930 . S
H1668 C1678 0.930 . S
H1669 C1679 0.930 . S
C1670 H1664 0.930 . S
C1670 C1671 1.355 . S
C1670 C1672 1.415 . S
C1671 C1670 1.355 . S
C1671 C1673 1.419 . S
C1672 C1670 1.415 . S
C1672 C1677 1.425 . S
C1672 C1679 1.409 . S
C1673 H1665 0.930 . S
C1673 C1671 1.419 . S
C1673 C1674 1.362 . S
C1674 H1666 0.930 . S
C1674 C1673 1.362 . S
C1674 C1677 1.409 . S
C1675 H1667 0.930 . S
C1675 C1676 1.355 . S
C1675 C1677 1.415 . S
C1676 C1675 1.355 . S
C1676 C1678 1.419 . S
C1677 C1672 1.425 . S
C1677 C1674 1.409 . S
C1677 C1675 1.415 . S
C1678 H1668 0.930 . S
C1678 C1676 1.419 . S
C1678 C1679 1.362 . S
C1679 H1669 0.930 . S
C1679 C1672 1.409 . S
C1679 C1678 1.362 . S
H1680 C1686 0.930 . S
H1681 C1689 0.930 . S
H1682 C1690 0.930 . S
H1683 C1691 0.930 . S
H1684 C1694 0.930 . S
H1685 C1695 0.930 . S
C1686 H1680 0.930 . S
C1686 C1687 1.355 . S
C1686 C1688 1.415 . S
C1687 C1686 1.355 . S
C1687 C1689 1.419 . S
C1688 C1686 1.415 . S
C1688 C1693 1.425 . S
C1688 C1695 1.409 . S
C1689 H1681 0.930 . S
C1689 C1687 1.419 . S
C1689 C1690 1.362 . S
C1690 H1682 0.930 . S
C1690 C1689 1.362 . S
C1690 C1693 1.409 . S
C1691 H1683 0.930 . S
C1691 C1692 1.355 . S
C1691 C1693 1.415 . S
C1692 C1691 1.355 . S
C1692 C1694 1.419 . S
C1693 C1688 1.425 . S
C1693 C1690 1.409 . S
C1693 C1691 1.415 . S
C1694 H1684 0.930 . S
C1694 C1692 1.419 . S
C1694 C1695 1.362 . S
C1695 H1685 0.930 . S
C1695 C1688 1.409 . S
C1695 C1694 1.362 . S
H1696 C1702 0.930 . S
H1697 C1705 0.930 . S
H1698 C1706 0.930 . S
H1699 C1707 0.930 . S
H1700 C1710 0.930 . S
H1701 C1711 0.930 . S
C1702 H1696 0.930 . S
C1702 C1703 1.355 . S
C1702 C1704 1.415 . S
C1703 C1702 1.355 . S
C1703 C1705 1.419 . S
C1704 C1702 1.415 . S
C1704 C1709 1.425 . S
C1704 C1711 1.409 . S
C1705 H1697 0.930 . S
C1705 C1703 1.419 . S
C1705 C1706 1.362 . S
C1706 H1698 0.930 . S
C1706 C1705 1.362 . S
C1706 C1709 1.409 . S
C1707 H1699 0.930 . S
C1707 C1708 1.355 . S
C1707 C1709 1.415 . S
C1708 C1707 1.355 . S
C1708 C1710 1.419 . S
C1709 C1704 1.425 . S
C1709 C1706 1.409 . S
C1709 C1707 1.415 . S
C1710 H1700 0.930 . S
C1710 C1708 1.419 . S
C1710 C1711 1.362 . S
C1711 H1701 0.930 . S
C1711 C1704 1.409 . S
C1711 C1710 1.362 . S
H1712 C1718 0.930 . S
H1713 C1721 0.930 . S
H1714 C1722 0.930 . S
H1715 C1723 0.930 . S
H1716 C1726 0.930 . S
H1717 C1727 0.930 . S
C1718 H1712 0.930 . S
C1718 C1719 1.355 . S
C1718 C1720 1.415 . S
C1719 C1718 1.355 . S
C1719 C1721 1.419 . S
C1720 C1718 1.415 . S
C1720 C1725 1.425 . S
C1720 C1727 1.409 . S
C1721 H1713 0.930 . S
C1721 C1719 1.419 . S
C1721 C1722 1.362 . S
C1722 H1714 0.930 . S
C1722 C1721 1.362 . S
C1722 C1725 1.409 . S
C1723 H1715 0.930 . S
C1723 C1724 1.355 . S
C1723 C1725 1.415 . S
C1724 C1723 1.355 . S
C1724 C1726 1.419 . S
C1725 C1720 1.425 . S
C1725 C1722 1.409 . S
C1725 C1723 1.415 . S
C1726 H1716 0.930 . S
C1726 C1724 1.419 . S
C1726 C1727 1.362 . S
C1727 H1717 0.930 . S
C1727 C1720 1.409 . S
C1727 C1726 1.362 . S
H1728 C1734 0.930 . S
H1729 C1737 0.930 . S
H1730 C1738 0.930 . S
H1731 C1739 0.930 . S
H1732 C1742 0.930 . S
H1733 C1743 0.930 . S
C1734 H1728 0.930 . S
C1734 C1735 1.355 . S
C1734 C1736 1.415 . S
C1735 C1734 1.355 . S
C1735 C1737 1.419 . S
C1736 C1734 1.415 . S
C1736 C1741 1.425 . S
C1736 C1743 1.409 . S
C1737 H1729 0.930 . S
C1737 C1735 1.419 . S
C1737 C1738 1.362 . S
C1738 H1730 0.930 . S
C1738 C1737 1.362 . S
C1738 C1741 1.409 . S
C1739 H1731 0.930 . S
C1739 C1740 1.355 . S
C1739 C1741 1.415 . S
C1740 C1739 1.355 . S
C1740 C1742 1.419 . S
C1741 C1736 1.425 . S
C1741 C1738 1.409 . S
C1741 C1739 1.415 . S
C1742 H1732 0.930 . S
C1742 C1740 1.419 . S
C1742 C1743 1.362 . S
C1743 H1733 0.930 . S
C1743 C1736 1.409 . S
C1743 C1742 1.362 . S
H1744 C1750 0.930 . S
H1745 C1753 0.930 . S
H1746 C1754 0.930 . S
H1747 C1755 0.930 . S
H1748 C1758 0.930 . S
H1749 C1759 0.930 . S
C1750 H1744 0.930 . S
C1750 C1751 1.355 . S
C1750 C1752 1.415 . S
C1751 C1750 1.355 . S
C1751 C1753 1.419 . S
C1752 C1750 1.415 . S
C1752 C1757 1.425 . S
C1752 C1759 1.409 . S
C1753 H1745 0.930 . S
C1753 C1751 1.419 . S
C1753 C1754 1.362 . S
C1754 H1746 0.930 . S
C1754 C1753 1.362 . S
C1754 C1757 1.409 . S
C1755 H1747 0.930 . S
C1755 C1756 1.355 . S
C1755 C1757 1.415 . S
C1756 C1755 1.355 . S
C1756 C1758 1.419 . S
C1757 C1752 1.425 . S
C1757 C1754 1.409 . S
C1757 C1755 1.415 . S
C1758 H1748 0.930 . S
C1758 C1756 1.419 . S
C1758 C1759 1.362 . S
C1759 H1749 0.930 . S
C1759 C1752 1.409 . S
C1759 C1758 1.362 . S
H1760 C1766 0.930 . S
H1761 C1769 0.930 . S
H1762 C1770 0.930 . S
H1763 C1771 0.930 . S
H1764 C1774 0.930 . S
H1765 C1775 0.930 . S
C1766 H1760 0.930 . S
C1766 C1767 1.355 . S
C1766 C1768 1.415 . S
C1767 C1766 1.355 . S
C1767 C1769 1.419 . S
C1768 C1766 1.415 . S
C1768 C1773 1.425 . S
C1768 C1775 1.409 . S
C1769 H1761 0.930 . S
C1769 C1767 1.419 . S
C1769 C1770 1.362 . S
C1770 H1762 0.930 . S
C1770 C1769 1.362 . S
C1770 C1773 1.409 . S
C1771 H1763 0.930 . S
C1771 C1772 1.355 . S
C1771 C1773 1.415 . S
C1772 C1771 1.355 . S
C1772 C1774 1.419 . S
C1773 C1768 1.425 . S
C1773 C1770 1.409 . S
C1773 C1771 1.415 . S
C1774 H1764 0.930 . S
C1774 C1772 1.419 . S
C1774 C1775 1.362 . S
C1775 H1765 0.930 . S
C1775 C1768 1.409 . S
C1775 C1774 1.362 . S
H1776 C1782 0.930 . S
H1777 C1785 0.930 . S
H1778 C1786 0.930 . S
H1779 C1787 0.930 . S
H1780 C1790 0.930 . S
H1781 C1791 0.930 . S
C1782 H1776 0.930 . S
C1782 C1783 1.355 . S
C1782 C1784 1.415 . S
C1783 C1782 1.355 . S
C1783 C1785 1.419 . S
C1784 C1782 1.415 . S
C1784 C1789 1.425 . S
C1784 C1791 1.409 . S
C1785 H1777 0.930 . S
C1785 C1783 1.419 . S
C1785 C1786 1.362 . S
C1786 H1778 0.930 . S
C1786 C1785 1.362 . S
C1786 C1789 1.409 . S
C1787 H1779 0.930 . S
C1787 C1788 1.355 . S
C1787 C1789 1.415 . S
C1788 C1787 1.355 . S
C1788 C1790 1.419 . S
C1789 C1784 1.425 . S
C1789 C1786 1.409 . S
C1789 C1787 1.415 . S
C1790 H1780 0.930 . S
C1790 C1788 1.419 . S
C1790 C1791 1.362 . S
C1791 H1781 0.930 . S
C1791 C1784 1.409 . S
C1791 C1790 1.362 . S
H1792 C1798 0.930 . S
H1793 C1801 0.930 . S
H1794 C1802 0.930 . S
H1795 C1803 0.930 . S
H1796 C1806 0.930 . S
H1797 C1807 0.930 . S
C1798 H1792 0.930 . S
C1798 C1799 1.355 . S
C1798 C1800 1.415 . S
C1799 C1798 1.355 . S
C1799 C1801 1.419 . S
C1800 C1798 1.415 . S
C1800 C1805 1.425 . S
C1800 C1807 1.409 . S
C1801 H1793 0.930 . S
C1801 C1799 1.419 . S
C1801 C1802 1.362 . S
C1802 H1794 0.930 . S
C1802 C1801 1.362 . S
C1802 C1805 1.409 . S
C1803 H1795 0.930 . S
C1803 C1804 1.355 . S
C1803 C1805 1.415 . S
C1804 C1803 1.355 . S
C1804 C1806 1.419 . S
C1805 C1800 1.425 . S
C1805 C1802 1.409 . S
C1805 C1803 1.415 . S
C1806 H1796 0.930 . S
C1806 C1804 1.419 . S
C1806 C1807 1.362 . S
C1807 H1797 0.930 . S
C1807 C1800 1.409 . S
C1807 C1806 1.362 . S
H1808 C1814 0.930 . S
H1809 C1817 0.930 . S
H1810 C1818 0.930 . S
H1811 C1819 0.930 . S
H1812 C1822 0.930 . S
H1813 C1823 0.930 . S
C1814 H1808 0.930 . S
C1814 C1815 1.355 . S
C1814 C1816 1.415 . S
C1815 C1814 1.355 . S
C1815 C1817 1.419 . S
C1816 C1814 1.415 . S
C1816 C1821 1.425 . S
C1816 C1823 1.409 . S
C1817 H1809 0.930 . S
C1817 C1815 1.419 . S
C1817 C1818 1.362 . S
C1818 H1810 0.930 . S
C1818 C1817 1.362 . S
C1818 C1821 1.409 . S
C1819 H1811 0.930 . S
C1819 C1820 1.355 . S
C1819 C1821 1.415 . S
C1820 C1819 1.355 . S
C1820 C1822 1.419 . S
C1821 C1816 1.425 . S
C1821 C1818 1.409 . S
C1821 C1819 1.415 . S
C1822 H1812 0.930 . S
C1822 C1820 1.419 . S
C1822 C1823 1.362 . S
C1823 H1813 0.930 . S
C1823 C1816 1.409 . S
C1823 C1822 1.362 . S
H1824 C1830 0.930 . S
H1825 C1833 0.930 . S
H1826 C1834 0.930 . S
H1827 C1835 0.930 . S
H1828 C1838 0.930 . S
H1829 C1839 0.930 . S
C1830 H1824 0.930 . S
C1830 C1831 1.355 . S
C1830 C1832 1.415 . S
C1831 C1830 1.355 . S
C1831 C1833 1.419 . S
C1832 C1830 1.415 . S
C1832 C1837 1.425 . S
C1832 C1839 1.409 . S
C1833 H1825 0.930 . S
C1833 C1831 1.419 . S
C1833 C1834 1.362 . S
C1834 H1826 0.930 . S
C1834 C1833 1.362 . S
C1834 C1837 1.409 . S
C1835 H1827 0.930 . S
C1835 C1836 1.355 . S
C1835 C1837 1.415 . S
C1836 C1835 1.355 . S
C1836 C1838 1.419 . S
C1837 C1832 1.425 . S
C1837 C1834 1.409 . S
C1837 C1835 1.415 . S
C1838 H1828 0.930 . S
C1838 C1836 1.419 . S
C1838 C1839 1.362 . S
C1839 H1829 0.930 . S
C1839 C1832 1.409 . S
C1839 C1838 1.362 . S
H1840 C1846 0.930 . S
H1841 C1849 0.930 . S
H1842 C1850 0.930 . S
H1843 C1851 0.930 . S
H1844 C1854 0.930 . S
H1845 C1855 0.930 . S
C1846 H1840 0.930 . S
C1846 C1847 1.355 . S
C1846 C1848 1.415 . S
C1847 C1846 1.355 . S
C1847 C1849 1.419 . S
C1848 C1846 1.415 . S
C1848 C1853 1.425 . S
C1848 C1855 1.409 . S
C1849 H1841 0.930 . S
C1849 C1847 1.419 . S
C1849 C1850 1.362 . S
C1850 H1842 0.930 . S
C1850 C1849 1.362 . S
C1850 C1853 1.409 . S
C1851 H1843 0.930 . S
C1851 C1852 1.355 . S
C1851 C1853 1.415 . S
C1852 C1851 1.355 . S
C1852 C1854 1.419 . S
C1853 C1848 1.425 . S
C1853 C1850 1.409 . S
C1853 C1851 1.415 . S
C1854 H1844 0.930 . S
C1854 C1852 1.419 . S
C1854 C1855 1.362 . S
C1855 H1845 0.930 . S
C1855 C1848 1.409 . S
C1855 C1854 1.362 . S
H1856 C1862 0.930 . S
H1857 C1865 0.930 . S
H1858 C1866 0.930 . S
H1859 C1867 0.930 . S
H1860 C1870 0.930 . S
H1861 C1871 0.930 . S
C1862 H1856 0.930 . S
C1862 C1863 1.355 . S
C1862 C1864 1.415 . S
C1863 C1862 1.355 . S
C1863 C1865 1.419 . S
C1864 C1862 1.415 . S
C1864 C1869 1.425 . S
C1864 C1871 1.409 . S
C1865 H1857 0.930 . S
C1865 C1863 1.419 . S
C1865 C1866 1.362 . S
C1866 H1858 0.930 . S
C1866 C1865 1.362 . S
C1866 C1869 1.409 . S
C1867 H1859 0.930 . S
C1867 C1868 1.355 . S
C1867 C1869 1.415 . S
C1868 C1867 1.355 . S
C1868 C1870 1.419 . S
C1869 C1864 1.425 . S
C1869 C1866 1.409 . S
C1869 C1867 1.415 . S
C1870 H1860 0.930 . S
C1870 C1868 1.419 . S
C1870 C1871 1.362 . S
C1871 H1861 0.930 . S
C1871 C1864 1.409 . S
C1871 C1870 1.362 . S
H1872 C1878 0.930 . S
H1873 C1881 0.930 . S
H1874 C1882 0.930 . S
H1875 C1883 0.930 . S
H1876 C1886 0.930 . S
H1877 C1887 0.930 . S
C1878 H1872 0.930 . S
C1878 C1879 1.355 . S
C1878 C1880 1.415 . S
C1879 C1878 1.355 . S
C1879 C1881 1.419 . S
C1880 C1878 1.415 . S
C1880 C1885 1.425 . S
C1880 C1887 1.409 . S
C1881 H1873 0.930 . S
C1881 C1879 1.419 . S
C1881 C1882 1.362 . S
C1882 H1874 0.930 . S
C1882 C1881 1.362 . S
C1882 C1885 1.409 . S
C1883 H1875 0.930 . S
C1883 C1884 1.355 . S
C1883 C1885 1.415 . S
C1884 C1883 1.355 . S
C1884 C1886 1.419 . S
C1885 C1880 1.425 . S
C1885 C1882 1.409 . S
C1885 C1883 1.415 . S
C1886 H1876 0.930 . S
C1886 C1884 1.419 . S
C1886 C1887 1.362 . S
C1887 H1877 0.930 . S
C1887 C1880 1.409 . S
C1887 C1886 1.362 . S
H1888 C1894 0.930 . S
H1889 C1897 0.930 . S
H1890 C1898 0.930 . S
H1891 C1899 0.930 . S
H1892 C1902 0.930 . S
H1893 C1903 0.930 . S
C1894 H1888 0.930 . S
C1894 C1895 1.355 . S
C1894 C1896 1.415 . S
C1895 C1894 1.355 . S
C1895 C1897 1.419 . S
C1896 C1894 1.415 . S
C1896 C1901 1.425 . S
C1896 C1903 1.409 . S
C1897 H1889 0.930 . S
C1897 C1895 1.419 . S
C1897 C1898 1.362 . S
C1898 H1890 0.930 . S
C1898 C1897 1.362 . S
C1898 C1901 1.409 . S
C1899 H1891 0.930 . S
C1899 C1900 1.355 . S
C1899 C1901 1.415 . S
C1900 C1899 1.355 . S
C1900 C1902 1.419 . S
C1901 C1896 1.425 . S
C1901 C1898 1.409 . S
C1901 C1899 1.415 . S
C1902 H1892 0.930 . S
C1902 C1900 1.419 . S
C1902 C1903 1.362 . S
C1903 H1893 0.930 . S
C1903 C1896 1.409 . S
C1903 C1902 1.362 . S
H1904 C1910 0.930 . S
H1905 C1913 0.930 . S
H1906 C1914 0.930 . S
H1907 C1915 0.930 . S
H1908 C1918 0.930 . S
H1909 C1919 0.930 . S
C1910 H1904 0.930 . S
C1910 C1911 1.355 . S
C1910 C1912 1.415 . S
C1911 C1910 1.355 . S
C1911 C1913 1.419 . S
C1912 C1910 1.415 . S
C1912 C1917 1.425 . S
C1912 C1919 1.409 . S
C1913 H1905 0.930 . S
C1913 C1911 1.419 . S
C1913 C1914 1.362 . S
C1914 H1906 0.930 . S
C1914 C1913 1.362 . S
C1914 C1917 1.409 . S
C1915 H1907 0.930 . S
C1915 C1916 1.355 . S
C1915 C1917 1.415 . S
C1916 C1915 1.355 . S
C1916 C1918 1.419 . S
C1917 C1912 1.425 . S
C1917 C1914 1.409 . S
C1917 C1915 1.415 . S
C1918 H1908 0.930 . S
C1918 C1916 1.419 . S
C1918 C1919 1.362 . S
C1919 H1909 0.930 . S
C1919 C1912 1.409 . S
C1919 C1918 1.362 . S
H1920 C1926 0.930 . S
H1921 C1929 0.930 . S
H1922 C1930 0.930 . S
H1923 C1931 0.930 . S
H1924 C1934 0.930 . S
H1925 C1935 0.930 . S
C1926 H1920 0.930 . S
C1926 C1927 1.355 . S
C1926 C1928 1.415 . S
C1927 C1926 1.355 . S
C1927 C1929 1.419 . S
C1928 C1926 1.415 . S
C1928 C1933 1.425 . S
C1928 C1935 1.409 . S
C1929 H1921 0.930 . S
C1929 C1927 1.419 . S
C1929 C1930 1.362 . S
C1930 H1922 0.930 . S
C1930 C1929 1.362 . S
C1930 C1933 1.409 . S
C1931 H1923 0.930 . S
C1931 C1932 1.355 . S
C1931 C1933 1.415 . S
C1932 C1931 1.355 . S
C1932 C1934 1.419 . S
C1933 C1928 1.425 . S
C1933 C1930 1.409 . S
C1933 C1931 1.415 . S
C1934 H1924 0.930 . S
C1934 C1932 1.419 . S
C1934 C1935 1.362 . S
C1935 H1925 0.930 . S
C1935 C1928 1.409 . S
C1935 C1934 1.362 . S
H1936 C1942 0.930 . S
H1937 C1945 0.930 . S
H1938 C1946 0.930 . S
H1939 C1947 0.930 . S
H1940 C1950 0.930 . S
H1941 C1951 0.930 . S
C1942 H1936 0.930 . S
C1942 C1943 1.355 . S
C1942 C1944 1.415 . S
C1943 C1942 1.355 . S
C1943 C1945 1.419 . S
C1944 C1942 1.415 . S
C1944 C1949 1.425 . S
C1944 C1951 1.409 . S
C1945 H1937 0.930 . S
C1945 C1943 1.419 . S
C1945 C1946 1.362 . S
C1946 H1938 0.930 . S
C1946 C1945 1.362 . S
C1946 C1949 1.409 . S
C1947 H1939 0.930 . S
C1947 C1948 1.355 . S
C1947 C1949 1.415 . S
C1948 C1947 1.355 . S
C1948 C1950 1.419 . S
C1949 C1944 1.425 . S
C1949 C1946 1.409 . S
C1949 C1947 1.415 . S
C1950 H1940 0.930 . S
C1950 C1948 1.419 . S
C1950 C1951 1.362 . S
C1951 H1941 0.930 . S
C1951 C1944 1.409 . S
C1951 C1950 1.362 . S
H1952 C1958 0.930 . S
H1953 C1961 0.930 . S
H1954 C1962 0.930 . S
H1955 C1963 0.930 . S
H1956 C1966 0.930 . S
H1957 C1967 0.930 . S
C1958 H1952 0.930 . S
C1958 C1959 1.355 . S
C1958 C1960 1.415 . S
C1959 C1958 1.355 . S
C1959 C1961 1.419 . S
C1960 C1958 1.415 . S
C1960 C1965 1.425 . S
C1960 C1967 1.409 . S
C1961 H1953 0.930 . S
C1961 C1959 1.419 . S
C1961 C1962 1.362 . S
C1962 H1954 0.930 . S
C1962 C1961 1.362 . S
C1962 C1965 1.409 . S
C1963 H1955 0.930 . S
C1963 C1964 1.355 . S
C1963 C1965 1.415 . S
C1964 C1963 1.355 . S
C1964 C1966 1.419 . S
C1965 C1960 1.425 . S
C1965 C1962 1.409 . S
C1965 C1963 1.415 . S
C1966 H1956 0.930 . S
C1966 C1964 1.419 . S
C1966 C1967 1.362 . S
C1967 H1957 0.930 . S
C1967 C1960 1.409 . S
C1967 C1966 1.362 . S
H1968 C1974 0.930 . S
H1969 C1977 0.930 . S
H1970 C1978 0.930 . S
H1971 C1979 0.930 . S
H1972 C1982 0.930 . S
H1973 C1983 0.930 . S
C1974 H1968 0.930 . S
C1974 C1975 1.355 . S
C1974 C1976 1.415 . S
C1975 C1974 1.355 . S
C1975 C1977 1.419 . S
C1976 C1974 1.415 . S
C1976 C1981 1.425 . S
C1976 C1983 1.409 . S
C1977 H1969 0.930 . S
C1977 C1975 1.419 . S
C1977 C1978 1.362 . S
C1978 H1970 0.930 . S
C1978 C1977 1.362 . S
C1978 C1981 1.409 . S
C1979 H1971 0.930 . S
C1979 C1980 1.355 . S
C1979 C1981 1.415 . S
C1980 C1979 1.355 . S
C1980 C1982 1.419 . S
C1981 C1976 1.425 . S
C1981 C1978 1.409 . S
C1981 C1979 1.415 . S
C1982 H1972 0.930 . S
C1982 C1980 1.419 . S
C1982 C1983 1.362 . S
C1983 H1973 0.930 . S
C1983 C1976 1.409 . S
C1983 C1982 1.362 . S
H1984 C1990 0.930 . S
H1985 C1993 0.930 . S
H1986 C1994 0.930 . S
H1987 C1995 0.930 . S
H1988 C1998 0.930 . S
H1989 C1999 0.930 . S
C1990 H1984 0.930 . S
C1990 C1991 1.355 . S
C1990 C1992 1.415 . S
C1991 C1990 1.355 . S
C1991 C1993 1.419 . S
C1992 C1990 1.415 . S
C1992 C1997 1.425 . S
C1992 C1999 1.409 . S
C1993 H1985 0.930 . S
C1993 C1991 1.419 . S
C1993 C1994 1.362 . S
C1994 H1986 0.930 . S
C1994 C1993 1.362 . S
C1994 C1997 1.409 . S
C1995 H1987 0.930 . S
C1995 C1996 1.355 . S
C1995 C1997 1.415 . S
C1996 C1995 1.355 . S
C1996 C1998 1.419 . S
C1997 C1992 1.425 . S
C1997 C1994 1.409 . S
C1997 C1995 1.415 . S
C1998 H1988 0.930 . S
C1998 C1996 1.419 . S
C1998 C1999 1.362 . S
C1999 H1989 0.930 . S
C1999 C1992 1.409 . S
C1999 C1998 1.362 . S
H2000 C2006 0.930 . S
H2001 C2009 0.930 . S
H2002 C2010 0.930 . S
H2003 C2011 0.930 . S
H2004 C2014 0.930 . S
H2005 C2015 0.930 . S
C2006 H2000 0.930 . S
C2006 C2007 1.355 . S
C2006 C2008 1.415 . S
C2007 C2006 1.355 . S
C2007 C2009 1.419 . S
C2008 C2006 1.415 . S
C2008 C2013 1.425 . S
C2008 C2015 1.409 . S
C2009 H2001 0.930 . S
C2009 C2007 1.419 . S
C2009 C2010 1.362 . S
C2010 H2002 0.930 . S
C2010 C2009 1.362 . S
C2010 C2013 1.409 . S
C2011 H2003 0.930 . S
C2011 C2012 1.355 . S
C2011 C2013 1.415 . S
C2012 C2011 1.355 . S
C2012 C2014 1.419 . S
C2013 C2008 1.425 . S
C2013 C2010 1.409 . S
C2013 C2011 1.415 . S
C2014 H2004 0.930 . S
C2014 C2012 1.419 . S
C2014 C2015 1.362 . S
C2015 H2005 0.930 . S
C2015 C2008 1.409 . S
C2015 C2014 1.362 . S
H2016 C2022 0.930 . S
H2017 C2025 0.930 . S
H2018 C2026 0.930 . S
H2019 C2027 0.930 . S
H2020 C2030 0.930 . S
H2021 C2031 0.930 . S
C2022 H2016 0.930 . S
C2022 C2023 1.355 . S
C2022 C2024 1.415 . S
C2023 C2022 1.355 . S
C2023 C2025 1.419 . S
C2024 C2022 1.415 . S
C2024 C2029 1.425 . S
C2024 C2031 1.409 . S
C2025 H2017 0.930 . S
C2025 C2023 1.419 . S
C2025 C2026 1.362 . S
C2026 H2018 0.930 . S
C2026 C2025 1.362 . S
C2026 C2029 1.409 . S
C2027 H2019 0.930 . S
C2027 C2028 1.355 . S
C2027 C2029 1.415 . S
C2028 C2027 1.355 . S
C2028 C2030 1.419 . S
C2029 C2024 1.425 . S
C2029 C2026 1.409 . S
C2029 C2027 1.415 . S
C2030 H2020 0.930 . S
C2030 C2028 1.419 . S
C2030 C2031 1.362 . S
C2031 H2021 0.930 . S
C2031 C2024 1.409 . S
C2031 C2030 1.362 . S
H2032 C2038 0.930 . S
H2033 C2041 0.930 . S
H2034 C2042 0.930 . S
H2035 C2043 0.930 . S
H2036 C2046 0.930 . S
H2037 C2047 0.930 . S
C2038 H2032 0.930 . S
C2038 C2039 1.355 . S
C2038 C2040 1.415 . S
C2039 C2038 1.355 . S
C2039 C2041 1.419 . S
C2040 C2038 1.415 . S
C2040 C2045 1.425 . S
C2040 C2047 1.409 . S
C2041 H2033 0.930 . S
C2041 C2039 1.419 . S
C2041 C2042 1.362 . S
C2042 H2034 0.930 . S
C2042 C2041 1.362 . S
C2042 C2045 1.409 . S
C2043 H2035 0.930 . S
C2043 C2044 1.355 . S
C2043 C2045 1.415 . S
C2044 C2043 1.355 . S
C2044 C2046 1.419 . S
C2045 C2040 1.425 . S
C2045 C2042 1.409 . S
C2045 C2043 1.415 . S
C2046 H2036 0.930 . S
C2046 C2044 1.419 . S
C2046 C2047 1.362 . S
C2047 H2037 0.930 . S
C2047 C2040 1.409 . S
C2047 C2046 1.362 . S
H2048 C2054 0.930 . S
H2049 C2057 0.930 . S
H2050 C2058 0.930 . S
H2051 C2059 0.930 . S
H2052 C2062 0.930 . S
H2053 C2063 0.930 . S
C2054 H2048 0.930 . S
C2054 C2055 1.355 . S
C2054 C2056 1.415 . S
C2055 C2054 1.355 . S
C2055 C2057 1.419 . S
C2056 C2054 1.415 . S
C2056 C2061 1.425 . S
C2056 C2063 1.409 . S
C2057 H2049 0.930 . S
C2057 C2055 1.419 . S
C2057 C2058 1.362 . S
C2058 H2050 0.930 . S
C2058 C2057 1.362 . S
C2058 C2061 1.409 . S
C2059 H2051 0.930 . S
C2059 C2060 1.355 . S
C2059 C2061 1.415 . S
C2060 C2059 1.355 . S
C2060 C2062 1.419 . S
C2061 C2056 1.425 . S
C2061 C2058 1.409 . S
C2061 C2059 1.415 . S
C2062 H2052 0.930 . S
C2062 C2060 1.419 . S
C2062 C2063 1.362 . S
C2063 H2053 0.930 . S
C2063 C2056 1.409 . S
C2063 C2062 1.362 . S
H2064 C2070 0.930 . S
H2065 C2073 0.930 . S
H2066 C2074 0.930 . S
H2067 C2075 0.930 . S
H2068 C2078 0.930 . S
H2069 C2079 0.930 . S
C2070 H2064 0.930 . S
C2070 C2071 1.355 . S
C2070 C2072 1.415 . S
C2071 C2070 1.355 . S
C2071 C2073 1.419 . S
C2072 C2070 1.415 . S
C2072 C2077 1.425 . S
C2072 C2079 1.409 . S
C2073 H2065 0.930 . S
C2073 C2071 1.419 . S
C2073 C2074 1.362 . S
C2074 H2066 0.930 . S
C2074 C2073 1.362 . S
C2074 C2077 1.409 . S
C2075 H2067 0.930 . S
C2075 C2076 1.355 . S
C2075 C2077 1.415 . S
C2076 C2075 1.355 . S
C2076 C2078 1.419 . S
C2077 C2072 1.425 . S
C2077 C2074 1.409 . S
C2077 C2075 1.415 . S
C2078 H2068 0.930 . S
C2078 C2076 1.419 . S
C2078 C2079 1.362 . S
C2079 H2069 0.930 . S
C2079 C2072 1.409 . S
C2079 C2078 1.362 . S
H2080 C2086 0.930 . S
H2081 C2089 0.930 . S
H2082 C2090 0.930 . S
H2083 C2091 0.930 . S
H2084 C2094 0.930 . S
H2085 C2095 0.930 . S
C2086 H2080 0.930 . S
C2086 C2087 1.355 . S
C2086 C2088 1.415 . S
C2087 C2086 1.355 . S
C2087 C2089 1.419 . S
C2088 C2086 1.415 . S
C2088 C2093 1.425 . S
C2088 C2095 1.409 . S
C2089 H2081 0.930 . S
C2089 C2087 1.419 . S
C2089 C2090 1.362 . S
C2090 H2082 0.930 . S
C2090 C2089 1.362 . S
C2090 C2093 1.409 . S
C2091 H2083 0.930 . S
C2091 C2092 1.355 . S
C2091 C2093 1.415 . S
C2092 C2091 1.355 . S
C2092 C2094 1.419 . S
C2093 C2088 1.425 . S
C2093 C2090 1.409 . S
C2093 C2091 1.415 . S
C2094 H2084 0.930 . S
C2094 C2092 1.419 . S
C2094 C2095 1.362 . S
C2095 H2085 0.930 . S
C2095 C2088 1.409 . S
C2095 C2094 1.362 . S
H2096 C2102 0.930 . S
H2097 C2105 0.930 . S
H2098 C2106 0.930 . S
H2099 C2107 0.930 . S
H2100 C2110 0.930 . S
H2101 C2111 0.930 . S
C2102 H2096 0.930 . S
C2102 C2103 1.355 . S
C2102 C2104 1.415 . S
C2103 C2102 1.355 . S
C2103 C2105 1.419 . S
C2104 C2102 1.415 . S
C2104 C2109 1.425 . S
C2104 C2111 1.409 . S
C2105 H2097 0.930 . S
C2105 C2103 1.419 . S
C2105 C2106 1.362 . S
C2106 H2098 0.930 . S
C2106 C2105 1.362 . S
C2106 C2109 1.409 . S
C2107 H2099 0.930 . S
C2107 C2108 1.355 . S
C2107 C2109 1.415 . S
C2108 C2107 1.355 . S
C2108 C2110 1.419 . S
C2109 C2104 1.425 . S
C2109 C2106 1.409 . S
C2109 C2107 1.415 . S
C2110 H2100 0.930 . S
C2110 C2108 1.419 . S
C2110 C2111 1.362 . S
C2111 H2101 0.930 . S
C2111 C2104 1.409 . S
C2111 C2110 1.362 . S
H2112 C2118 0.930 . S
H2113 C2121 0.930 . S
H2114 C2122 0.930 . S
H2115 C2123 0.930 . S
H2116 C2126 0.930 . S
H2117 C2127 0.930 . S
C2118 H2112 0.930 . S
C2118 C2119 1.355 . S
C2118 C2120 1.415 . S
C2119 C2118 1.355 . S
C2119 C2121 1.419 . S
C2120 C2118 1.415 . S
C2120 C2125 1.425 . S
C2120 C2127 1.409 . S
C2121 H2113 0.930 . S
C2121 C2119 1.419 . S
C2121 C2122 1.362 . S
C2122 H2114 0.930 . S
C2122 C2121 1.362 . S
C2122 C2125 1.409 . S
C2123 H2115 0.930 . S
C2123 C2124 1.355 . S
C2123 C2125 1.415 . S
C2124 C2123 1.355 . S
C2124 C2126 1.419 . S
C2125 C2120 1.425 . S
C2125 C2122 1.409 . S
C2125 C2123 1.415 . S
C2126 H2116 0.930 . S
C2126 C2124 1.419 . S
C2126 C2127 1.362 . S
C2127 H2117 0.930 . S
C2127 C2120 1.409 . S
C2127 C2126 1.362 . S
H2128 C2134 0.930 . S
H2129 C2137 0.930 . S
H2130 C2138 0.930 . S
H2131 C2139 0.930 . S
H2132 C2142 0.930 . S
H2133 C2143 0.930 . S
C2134 H2128 0.930 . S
C2134 C2135 1.355 . S
C2134 C2136 1.415 . S
C2135 C2134 1.355 . S
C2135 C2137 1.419 . S
C2136 C2134 1.415 . S
C2136 C2141 1.425 . S
C2136 C2143 1.409 . S
C2137 H2129 0.930 . S
C2137 C2135 1.419 . S
C2137 C2138 1.362 . S
C2138 H2130 0.930 . S
C2138 C2137 1.362 . S
C2138 C2141 1.409 . S
C2139 H2131 0.930 . S
C2139 C2140 1.355 . S
C2139 C2141 1.415 . S
C2140 C2139 1.355 . S
C2140 C2142 1.419 . S
C2141 C2136 1.425 . S
C2141 C2138 1.409 . S
C2141 C2139 1.415 . S
C2142 H2132 0.930 . S
C2142 C2140 1.419 . S
C2142 C2143 1.362 . S
C2143 H2133 0.930 . S
C2143 C2136 1.409 . S
C2143 C2142 1.362 . S
H2144 C2150 0.930 . S
H2145 C2153 0.930 . S
H2146 C2154 0.930 . S
H2147 C2155 0.930 . S
H2148 C2158 0.930 . S
H2149 C2159 0.930 . S
C2150 H2144 0.930 . S
C2150 C2151 1.355 . S
C2150 C2152 1.415 . S
C2151 C2150 1.355 . S
C2151 C2153 1.419 . S
C2152 C2150 1.415 . S
C2152 C2157 1.425 . S
C2152 C2159 1.409 . S
C2153 H2145 0.930 . S
C2153 C2151 1.419 . S
C2153 C2154 1.362 . S
C2154 H2146 0.930 . S
C2154 C2153 1.362 . S
C2154 C2157 1.409 . S
C2155 H2147 0.930 . S
C2155 C2156 1.355 . S
C2155 C2157 1.415 . S
C2156 C2155 1.355 . S
C2156 C2158 1.419 . S
C2157 C2152 1.425 . S
C2157 C2154 1.409 . S
C2157 C2155 1.415 . S
C2158 H2148 0.930 . S
C2158 C2156 1.419 . S
C2158 C2159 1.362 . S
C2159 H2149 0.930 . S
C2159 C2152 1.409 . S
C2159 C2158 1.362 . S
H2160 C2166 0.930 . S
H2161 C2169 0.930 . S
H2162 C2170 0.930 . S
H2163 C2171 0.930 . S
H2164 C2174 0.930 . S
H2165 C2175 0.930 . S
C2166 H2160 0.930 . S
C2166 C2167 1.355 . S
C2166 C2168 1.415 . S
C2167 C2166 1.355 . S
C2167 C2169 1.419 . S
C2168 C2166 1.415 . S
C2168 C2173 1.425 . S
C2168 C2175 1.409 . S
C2169 H2161 0.930 . S
C2169 C2167 1.419 . S
C2169 C2170 1.362 . S
C2170 H2162 0.930 . S
C2170 C2169 1.362 . S
C2170 C2173 1.409 . S
C2171 H2163 0.930 . S
C2171 C2172 1.355 . S
C2171 C2173 1.415 . S
C2172 C2171 1.355 . S
C2172 C2174 1.419 . S
C2173 C2168 1.425 . S
C2173 C2170 1.409 . S
C2173 C2171 1.415 . S
C2174 H2164 0.930 . S
C2174 C2172 1.419 . S
C2174 C2175 1.362 . S
C2175 H2165 0.930 . S
C2175 C2168 1.409 . S
C2175 C2174 1.362 . S
H2176 C2182 0.930 . S
H2177 C2185 0.930 . S
H2178 C2186 0.930 . S
H2179 C2187 0.930 . S
H2180 C2190 0.930 . S
H2181 C2191 0.930 . S
C2182 H2176 0.930 . S
C2182 C2183 1.355 . S
C2182 C2184 1.415 . S
C2183 C2182 1.355 . S
C2183 C2185 1.419 . S
C2184 C2182 1.415 . S
C2184 C2189 1.425 . S
C2184 C2191 1.409 . S
C2185 H2177 0.930 . S
C2185 C2183 1.419 . S
C2185 C2186 1.362 . S
C2186 H2178 0.930 . S
C2186 C2185 1.362 . S
C2186 C2189 1.409 . S
C2187 H2179 0.930 . S
C2187 C2188 1.355 . S
C2187 C2189 1.415 . S
C2188 C2187 1.355 . S
C2188 C2190 1.419 . S
C2189 C2184 1.425 . S
C2189 C2186 1.409 . S
C2189 C2187 1.415 . S
C2190 H2180 0.930 . S
C2190 C2188 1.419 . S
C2190 C2191 1.362 . S
C2191 H2181 0.930 . S
C2191 C2184 1.409 . S
C2191 C2190 1.362 . S
H2192 C2198 0.930 . S
H2193 C2201 0.930 . S
H2194 C2202 0.930 . S
H2195 C2203 0.930 . S
H2196 C2206 0.930 . S
H2197 C2207 0.930 . S
C2198 H2192 0.930 . S
C2198 C2199 1.355 . S
C2198 C2200 1.415 . S
C2199 C2198 1.355 . S
C2199 C2201 1.419 . S
C2200 C2198 1.415 . S
C2200 C2205 1.425 . S
C2200 C2207 1.409 . S
C2201 H2193 0.930 . S
C2201 C2199 1.419 . S
C2201 C2202 1.362 . S
C2202 H2194 0.930 . S
C2202 C2201 1.362 . S
C2202 C2205 1.409 . S
C2203 H2195 0.930 . S
C2203 C2204 1.355 . S
C2203 C2205 1.415 . S
C2204 C2203 1.355 . S
C2204 C2206 1.419 . S
C2205 C2200 1.425 . S
C2205 C2202 1.409 . S
C2205 C2203 1.415 . S
C2206 H2196 0.930 . S
C2206 C2204 1.419 . S
C2206 C2207 1.362 . S
C2207 H2197 0.930 . S
C2207 C2200 1.409 . S
C2207 C2206 1.362 . S
H2208 C2214 0.930 . S
H2209 C2217 0.930 . S
H2210 C2218 0.930 . S
H2211 C2219 0.930 . S
H2212 C2222 0.930 . S
H2213 C2223 0.930 . S
C2214 H2208 0.930 . S
C2214 C2215 1.355 . S
C2214 C2216 1.422 1_655 S
C2215 C2214 1.355 . S
C2215 C2217 1.419 . S
C2216 C2214 1.422 1_455 S
C2216 C2221 1.418 1_455 S
C2216 C2223 1.405 . S
C2217 H2209 0.930 . S
C2217 C2215 1.419 . S
C2217 C2218 1.362 . S
C2218 H2210 0.930 . S
C2218 C2217 1.362 . S
C2218 C2221 1.405 . S
C2219 H2211 0.930 . S
C2219 C2220 1.355 . S
C2219 C2221 1.422 1_455 S
C2220 C2219 1.355 . S
C2220 C2222 1.419 . S
C2221 C2216 1.418 1_655 S
C2221 C2218 1.405 . S
C2221 C2219 1.422 1_655 S
C2222 H2212 0.930 . S
C2222 C2220 1.419 . S
C2222 C2223 1.362 . S
C2223 H2213 0.930 . S
C2223 C2216 1.405 . S
C2223 C2222 1.362 . S
H2224 C2230 0.930 . S
H2225 C2233 0.930 . S
H2226 C2234 0.930 . S
H2227 C2235 0.930 . S
H2228 C2238 0.930 . S
H2229 C2239 0.930 . S
C2230 H2224 0.930 . S
C2230 C2231 1.355 . S
C2230 C2232 1.415 . S
C2231 C2230 1.355 . S
C2231 C2233 1.419 . S
C2232 C2230 1.415 . S
C2232 C2237 1.425 . S
C2232 C2239 1.409 . S
C2233 H2225 0.930 . S
C2233 C2231 1.419 . S
C2233 C2234 1.362 . S
C2234 H2226 0.930 . S
C2234 C2233 1.362 . S
C2234 C2237 1.409 . S
C2235 H2227 0.930 . S
C2235 C2236 1.355 . S
C2235 C2237 1.415 . S
C2236 C2235 1.355 . S
C2236 C2238 1.419 . S
C2237 C2232 1.425 . S
C2237 C2234 1.409 . S
C2237 C2235 1.415 . S
C2238 H2228 0.930 . S
C2238 C2236 1.419 . S
C2238 C2239 1.362 . S
C2239 H2229 0.930 . S
C2239 C2232 1.409 . S
C2239 C2238 1.362 . S
H2240 C2246 0.930 . S
H2241 C2249 0.930 . S
H2242 C2250 0.925 1_565 S
H2243 C2251 0.930 . S
H2244 C2254 0.930 . S
H2245 C2255 0.925 1_545 S
C2246 H2240 0.930 . S
C2246 C2247 1.355 . S
C2246 C2248 1.415 . S
C2247 C2246 1.355 . S
C2247 C2249 1.419 . S
C2248 C2246 1.415 . S
C2248 C2253 1.425 1_545 S
C2248 C2255 1.409 1_545 S
C2249 H2241 0.930 . S
C2249 C2247 1.419 . S
C2249 C2250 1.368 . S
C2250 H2242 0.925 1_545 S
C2250 C2249 1.368 . S
C2250 C2253 1.409 1_545 S
C2251 H2243 0.930 . S
C2251 C2252 1.355 . S
C2251 C2253 1.415 . S
C2252 C2251 1.355 . S
C2252 C2254 1.419 . S
C2253 C2248 1.425 1_565 S
C2253 C2250 1.409 1_565 S
C2253 C2251 1.415 . S
C2254 H2244 0.930 . S
C2254 C2252 1.419 . S
C2254 C2255 1.368 . S
C2255 H2245 0.925 1_565 S
C2255 C2248 1.409 1_565 S
C2255 C2254 1.368 . S
H2256 C2262 0.930 . S
H2257 C2265 0.930 . S
H2258 C2266 0.930 1_556 S
H2259 C2267 0.930 . S
H2260 C2270 0.930 . S
H2261 C2271 0.930 1_554 S
C2262 H2256 0.930 . S
C2262 C2263 1.355 . S
C2262 C2264 1.415 1_565 S
C2263 C2262 1.355 . S
C2263 C2265 1.419 . S
C2264 C2262 1.415 1_545 S
C2264 C2269 1.425 1_544 S
C2264 C2271 1.409 1_554 S
C2265 H2257 0.930 . S
C2265 C2263 1.419 . S
C2265 C2266 1.362 . S
C2266 H2258 0.930 1_554 S
C2266 C2265 1.362 . S
C2266 C2269 1.409 1_554 S
C2267 H2259 0.930 . S
C2267 C2268 1.355 . S
C2267 C2269 1.415 1_545 S
C2268 C2267 1.355 . S
C2268 C2270 1.419 . S
C2269 C2264 1.425 1_566 S
C2269 C2266 1.409 1_556 S
C2269 C2267 1.415 1_565 S
C2270 H2260 0.930 . S
C2270 C2268 1.419 . S
C2270 C2271 1.362 . S
C2271 H2261 0.930 1_556 S
C2271 C2264 1.409 1_556 S
C2271 C2270 1.362 . S
H2272 C2278 0.930 . S
H2273 C2281 0.930 . S
H2274 C2282 0.930 . S
H2275 C2283 0.930 . S
H2276 C2286 0.930 . S
H2277 C2287 0.930 . S
C2278 H2272 0.930 . S
C2278 C2279 1.355 . S
C2278 C2280 1.415 . S
C2279 C2278 1.355 . S
C2279 C2281 1.419 1_556 S
C2280 C2278 1.415 . S
C2280 C2285 1.425 1_656 S
C2280 C2287 1.409 1_655 S
C2281 H2273 0.930 . S
C2281 C2279 1.419 1_554 S
C2281 C2282 1.362 . S
C2282 H2274 0.930 . S
C2282 C2281 1.362 . S
C2282 C2285 1.409 1_655 S
C2283 H2275 0.930 . S
C2283 C2284 1.355 . S
C2283 C2285 1.415 . S
C2284 C2283 1.355 . S
C2284 C2286 1.419 1_554 S
C2285 C2280 1.425 1_454 S
C2285 C2282 1.409 1_455 S
C2285 C2283 1.415 . S
C2286 H2276 0.930 . S
C2286 C2284 1.419 1_556 S
C2286 C2287 1.362 . S
C2287 H2277 0.930 . S
C2287 C2280 1.409 1_455 S
C2287 C2286 1.362 . S
H2288 C2294 0.930 . S
H2289 C2297 0.930 . S
H2290 C2298 0.930 . S
H2291 C2299 0.930 . S
H2292 C2302 0.930 . S
H2293 C2303 0.930 . S
C2294 H2288 0.930 . S
C2294 C2295 1.355 . S
C2294 C2296 1.415 . S
C2295 C2294 1.355 . S
C2295 C2297 1.419 1_554 S
C2296 C2294 1.415 . S
C2296 C2301 1.425 1_554 S
C2296 C2303 1.409 . S
C2297 H2289 0.930 . S
C2297 C2295 1.419 1_556 S
C2297 C2298 1.362 . S
C2298 H2290 0.930 . S
C2298 C2297 1.362 . S
C2298 C2301 1.409 . S
C2299 H2291 0.930 . S
C2299 C2300 1.355 . S
C2299 C2301 1.415 . S
C2300 C2299 1.355 . S
C2300 C2302 1.419 1_556 S
C2301 C2296 1.425 1_556 S
C2301 C2298 1.409 . S
C2301 C2299 1.415 . S
C2302 H2292 0.930 . S
C2302 C2300 1.419 1_554 S
C2302 C2303 1.362 . S
C2303 H2293 0.930 . S
C2303 C2296 1.409 . S
C2303 C2302 1.362 . S
H2304 C2310 0.930 . S
H2305 C2313 0.930 . S
H2306 C2314 0.930 . S
H2307 C2315 0.930 . S
H2308 C2318 0.930 . S
H2309 C2319 0.930 . S
C2310 H2304 0.930 . S
C2310 C2311 1.355 . S
C2310 C2312 1.415 . S
C2311 C2310 1.355 . S
C2311 C2313 1.419 . S
C2312 C2310 1.415 . S
C2312 C2317 1.425 . S
C2312 C2319 1.409 . S
C2313 H2305 0.930 . S
C2313 C2311 1.419 . S
C2313 C2314 1.362 . S
C2314 H2306 0.930 . S
C2314 C2313 1.362 . S
C2314 C2317 1.409 . S
C2315 H2307 0.930 . S
C2315 C2316 1.355 . S
C2315 C2317 1.415 . S
C2316 C2315 1.355 . S
C2316 C2318 1.419 . S
C2317 C2312 1.425 . S
C2317 C2314 1.409 . S
C2317 C2315 1.415 . S
C2318 H2308 0.930 . S
C2318 C2316 1.419 . S
C2318 C2319 1.362 . S
C2319 H2309 0.930 . S
C2319 C2312 1.409 . S
C2319 C2318 1.362 . S
H2320 C2326 0.930 . S
H2321 C2329 0.930 . S
H2322 C2330 0.930 . S
H2323 C2331 0.930 . S
H2324 C2334 0.930 . S
H2325 C2335 0.930 . S
C2326 H2320 0.930 . S
C2326 C2327 1.355 . S
C2326 C2328 1.415 . S
C2327 C2326 1.355 . S
C2327 C2329 1.419 . S
C2328 C2326 1.415 . S
C2328 C2333 1.425 . S
C2328 C2335 1.409 . S
C2329 H2321 0.930 . S
C2329 C2327 1.419 . S
C2329 C2330 1.362 . S
C2330 H2322 0.930 . S
C2330 C2329 1.362 . S
C2330 C2333 1.409 . S
C2331 H2323 0.930 . S
C2331 C2332 1.355 . S
C2331 C2333 1.415 . S
C2332 C2331 1.355 . S
C2332 C2334 1.419 . S
C2333 C2328 1.425 . S
C2333 C2330 1.409 . S
C2333 C2331 1.415 . S
C2334 H2324 0.930 . S
C2334 C2332 1.419 . S
C2334 C2335 1.362 . S
C2335 H2325 0.930 . S
C2335 C2328 1.409 . S
C2335 C2334 1.362 . S
H2336 C2342 0.930 . S
H2337 C2345 0.930 . S
H2338 C2346 0.930 . S
H2339 C2347 0.930 . S
H2340 C2350 0.930 . S
H2341 C2351 0.930 . S
C2342 H2336 0.930 . S
C2342 C2343 1.355 . S
C2342 C2344 1.415 . S
C2343 C2342 1.355 . S
C2343 C2345 1.419 . S
C2344 C2342 1.415 . S
C2344 C2349 1.425 . S
C2344 C2351 1.409 . S
C2345 H2337 0.930 . S
C2345 C2343 1.419 . S
C2345 C2346 1.362 . S
C2346 H2338 0.930 . S
C2346 C2345 1.362 . S
C2346 C2349 1.409 . S
C2347 H2339 0.930 . S
C2347 C2348 1.355 . S
C2347 C2349 1.415 . S
C2348 C2347 1.355 . S
C2348 C2350 1.419 . S
C2349 C2344 1.425 . S
C2349 C2346 1.409 . S
C2349 C2347 1.415 . S
C2350 H2340 0.930 . S
C2350 C2348 1.419 . S
C2350 C2351 1.362 . S
C2351 H2341 0.930 . S
C2351 C2344 1.409 . S
C2351 C2350 1.362 . S
H2352 C2358 0.930 . S
H2353 C2361 0.930 . S
H2354 C2362 0.930 . S
H2355 C2363 0.930 . S
H2356 C2366 0.930 . S
H2357 C2367 0.930 . S
C2358 H2352 0.930 . S
C2358 C2359 1.355 . S
C2358 C2360 1.415 . S
C2359 C2358 1.355 . S
C2359 C2361 1.419 . S
C2360 C2358 1.415 . S
C2360 C2365 1.425 . S
C2360 C2367 1.409 . S
C2361 H2353 0.930 . S
C2361 C2359 1.419 . S
C2361 C2362 1.362 . S
C2362 H2354 0.930 . S
C2362 C2361 1.362 . S
C2362 C2365 1.409 . S
C2363 H2355 0.930 . S
C2363 C2364 1.355 . S
C2363 C2365 1.415 . S
C2364 C2363 1.355 . S
C2364 C2366 1.419 . S
C2365 C2360 1.425 . S
C2365 C2362 1.409 . S
C2365 C2363 1.415 . S
C2366 H2356 0.930 . S
C2366 C2364 1.419 . S
C2366 C2367 1.362 . S
C2367 H2357 0.930 . S
C2367 C2360 1.409 . S
C2367 C2366 1.362 . S
H2368 C2374 0.930 . S
H2369 C2377 0.930 . S
H2370 C2378 0.930 . S
H2371 C2379 0.930 . S
H2372 C2382 0.930 . S
H2373 C2383 0.930 . S
C2374 H2368 0.930 . S
C2374 C2375 1.355 . S
C2374 C2376 1.415 . S
C2375 C2374 1.355 . S
C2375 C2377 1.419 . S
C2376 C2374 1.415 . S
C2376 C2381 1.425 . S
C2376 C2383 1.409 . S
C2377 H2369 0.930 . S
C2377 C2375 1.419 . S
C2377 C2378 1.362 . S
C2378 H2370 0.930 . S
C2378 C2377 1.362 . S
C2378 C2381 1.409 . S
C2379 H2371 0.930 . S
C2379 C2380 1.355 . S
C2379 C2381 1.415 . S
C2380 C2379 1.355 . S
C2380 C2382 1.419 . S
C2381 C2376 1.425 . S
C2381 C2378 1.409 . S
C2381 C2379 1.415 . S
C2382 H2372 0.930 . S
C2382 C2380 1.419 . S
C2382 C2383 1.362 . S
C2383 H2373 0.930 . S
C2383 C2376 1.409 . S
C2383 C2382 1.362 . S
H2384 C2390 0.930 . S
H2385 C2393 0.930 . S
H2386 C2394 0.930 . S
H2387 C2395 0.930 . S
H2388 C2398 0.930 . S
H2389 C2399 0.930 . S
C2390 H2384 0.930 . S
C2390 C2391 1.355 . S
C2390 C2392 1.415 . S
C2391 C2390 1.355 . S
C2391 C2393 1.419 . S
C2392 C2390 1.415 . S
C2392 C2397 1.425 . S
C2392 C2399 1.409 . S
C2393 H2385 0.930 . S
C2393 C2391 1.419 . S
C2393 C2394 1.362 . S
C2394 H2386 0.930 . S
C2394 C2393 1.362 . S
C2394 C2397 1.409 . S
C2395 H2387 0.930 . S
C2395 C2396 1.355 . S
C2395 C2397 1.415 . S
C2396 C2395 1.355 . S
C2396 C2398 1.419 . S
C2397 C2392 1.425 . S
C2397 C2394 1.409 . S
C2397 C2395 1.415 . S
C2398 H2388 0.930 . S
C2398 C2396 1.419 . S
C2398 C2399 1.362 . S
C2399 H2389 0.930 . S
C2399 C2392 1.409 . S
C2399 C2398 1.362 . S
H2400 C2406 0.930 . S
H2401 C2409 0.930 . S
H2402 C2410 0.930 . S
H2403 C2411 0.930 . S
H2404 C2414 0.930 1_556 S
H2405 C2415 0.930 . S
C2406 H2400 0.930 . S
C2406 C2407 1.355 . S
C2406 C2408 1.415 . S
C2407 C2406 1.355 . S
C2407 C2409 1.419 . S
C2408 C2406 1.415 . S
C2408 C2413 1.425 . S
C2408 C2415 1.409 . S
C2409 H2401 0.930 . S
C2409 C2407 1.419 . S
C2409 C2410 1.362 . S
C2410 H2402 0.930 . S
C2410 C2409 1.362 . S
C2410 C2413 1.409 . S
C2411 H2403 0.930 . S
C2411 C2412 1.355 . S
C2411 C2413 1.415 . S
C2412 C2411 1.355 . S
C2412 C2414 1.419 . S
C2413 C2408 1.425 . S
C2413 C2410 1.409 . S
C2413 C2411 1.415 . S
C2414 H2404 0.930 1_554 S
C2414 C2412 1.419 . S
C2414 C2415 1.362 . S
C2415 H2405 0.930 . S
C2415 C2408 1.409 . S
C2415 C2414 1.362 . S
H2416 C2422 0.930 . S
H2417 C2425 0.930 . S
H2418 C2426 0.930 . S
H2419 C2427 0.930 . S
H2420 C2430 0.930 . S
H2421 C2431 0.930 . S
C2422 H2416 0.930 . S
C2422 C2423 1.355 . S
C2422 C2424 1.415 . S
C2423 C2422 1.355 . S
C2423 C2425 1.419 . S
C2424 C2422 1.415 . S
C2424 C2429 1.425 . S
C2424 C2431 1.409 . S
C2425 H2417 0.930 . S
C2425 C2423 1.419 . S
C2425 C2426 1.362 . S
C2426 H2418 0.930 . S
C2426 C2425 1.362 . S
C2426 C2429 1.409 . S
C2427 H2419 0.930 . S
C2427 C2428 1.355 . S
C2427 C2429 1.415 . S
C2428 C2427 1.355 . S
C2428 C2430 1.419 . S
C2429 C2424 1.425 . S
C2429 C2426 1.409 . S
C2429 C2427 1.415 . S
C2430 H2420 0.930 . S
C2430 C2428 1.419 . S
C2430 C2431 1.362 . S
C2431 H2421 0.930 . S
C2431 C2424 1.409 . S
C2431 C2430 1.362 . S
H2432 C2438 0.930 . S
H2433 C2441 0.930 . S
H2434 C2442 0.930 . S
H2435 C2443 0.930 . S
H2436 C2446 0.930 1_556 S
H2437 C2447 0.930 . S
C2438 H2432 0.930 . S
C2438 C2439 1.355 . S
C2438 C2440 1.415 . S
C2439 C2438 1.355 . S
C2439 C2441 1.419 . S
C2440 C2438 1.415 . S
C2440 C2445 1.425 . S
C2440 C2447 1.409 . S
C2441 H2433 0.930 . S
C2441 C2439 1.419 . S
C2441 C2442 1.362 . S
C2442 H2434 0.930 . S
C2442 C2441 1.362 . S
C2442 C2445 1.409 . S
C2443 H2435 0.930 . S
C2443 C2444 1.355 . S
C2443 C2445 1.415 . S
C2444 C2443 1.355 . S
C2444 C2446 1.419 . S
C2445 C2440 1.425 . S
C2445 C2442 1.409 . S
C2445 C2443 1.415 . S
C2446 H2436 0.930 1_554 S
C2446 C2444 1.419 . S
C2446 C2447 1.362 . S
C2447 H2437 0.930 . S
C2447 C2440 1.409 . S
C2447 C2446 1.362 . S
H2448 C2454 0.930 . S
H2449 C2457 0.930 . S
H2450 C2458 0.930 . S
H2451 C2459 0.930 . S
H2452 C2462 0.930 . S
H2453 C2463 0.930 . S
C2454 H2448 0.930 . S
C2454 C2455 1.355 . S
C2454 C2456 1.415 . S
C2455 C2454 1.355 . S
C2455 C2457 1.419 . S
C2456 C2454 1.415 . S
C2456 C2461 1.425 . S
C2456 C2463 1.409 . S
C2457 H2449 0.930 . S
C2457 C2455 1.419 . S
C2457 C2458 1.362 . S
C2458 H2450 0.930 . S
C2458 C2457 1.362 . S
C2458 C2461 1.409 . S
C2459 H2451 0.930 . S
C2459 C2460 1.355 . S
C2459 C2461 1.415 . S
C2460 C2459 1.355 . S
C2460 C2462 1.419 . S
C2461 C2456 1.425 . S
C2461 C2458 1.409 . S
C2461 C2459 1.415 . S
C2462 H2452 0.930 . S
C2462 C2460 1.419 . S
C2462 C2463 1.362 . S
C2463 H2453 0.930 . S
C2463 C2456 1.409 . S
C2463 C2462 1.362 . S
H2464 C2470 0.930 . S
H2465 C2473 0.930 . S
H2466 C2474 0.930 . S
H2467 C2475 0.930 . S
H2468 C2478 0.930 . S
H2469 C2479 0.930 . S
C2470 H2464 0.930 . S
C2470 C2471 1.355 . S
C2470 C2472 1.415 . S
C2471 C2470 1.355 . S
C2471 C2473 1.419 . S
C2472 C2470 1.415 . S
C2472 C2477 1.425 . S
C2472 C2479 1.409 . S
C2473 H2465 0.930 . S
C2473 C2471 1.419 . S
C2473 C2474 1.362 . S
C2474 H2466 0.930 . S
C2474 C2473 1.362 . S
C2474 C2477 1.409 . S
C2475 H2467 0.930 . S
C2475 C2476 1.355 . S
C2475 C2477 1.415 . S
C2476 C2475 1.355 . S
C2476 C2478 1.419 . S
C2477 C2472 1.425 . S
C2477 C2474 1.409 . S
C2477 C2475 1.415 . S
C2478 H2468 0.930 . S
C2478 C2476 1.419 . S
C2478 C2479 1.362 . S
C2479 H2469 0.930 . S
C2479 C2472 1.409 . S
C2479 C2478 1.362 . S
H2480 C2486 0.930 . S
H2481 C2489 0.930 . S
H2482 C2490 0.930 . S
H2483 C2491 0.930 . S
H2484 C2494 0.930 . S
H2485 C2495 0.930 . S
C2486 H2480 0.930 . S
C2486 C2487 1.355 . S
C2486 C2488 1.415 . S
C2487 C2486 1.355 . S
C2487 C2489 1.419 . S
C2488 C2486 1.415 . S
C2488 C2493 1.425 . S
C2488 C2495 1.409 . S
C2489 H2481 0.930 . S
C2489 C2487 1.419 . S
C2489 C2490 1.362 . S
C2490 H2482 0.930 . S
C2490 C2489 1.362 . S
C2490 C2493 1.409 . S
C2491 H2483 0.930 . S
C2491 C2492 1.355 . S
C2491 C2493 1.415 . S
C2492 C2491 1.355 . S
C2492 C2494 1.419 . S
C2493 C2488 1.425 . S
C2493 C2490 1.409 . S
C2493 C2491 1.415 . S
C2494 H2484 0.930 . S
C2494 C2492 1.419 . S
C2494 C2495 1.362 . S
C2495 H2485 0.930 . S
C2495 C2488 1.409 . S
C2495 C2494 1.362 . S
H2496 C2502 0.930 . S
H2497 C2505 0.930 . S
H2498 C2506 0.930 . S
H2499 C2507 0.930 . S
H2500 C2510 0.930 . S
H2501 C2511 0.930 . S
C2502 H2496 0.930 . S
C2502 C2503 1.355 . S
C2502 C2504 1.415 . S
C2503 C2502 1.355 . S
C2503 C2505 1.419 . S
C2504 C2502 1.415 . S
C2504 C2509 1.425 1_455 S
C2504 C2511 1.409 . S
C2505 H2497 0.930 . S
C2505 C2503 1.419 . S
C2505 C2506 1.362 1_455 S
C2506 H2498 0.930 . S
C2506 C2505 1.362 1_655 S
C2506 C2509 1.409 . S
C2507 H2499 0.930 . S
C2507 C2508 1.355 . S
C2507 C2509 1.415 . S
C2508 C2507 1.355 . S
C2508 C2510 1.419 . S
C2509 C2504 1.425 1_655 S
C2509 C2506 1.409 . S
C2509 C2507 1.415 . S
C2510 H2500 0.930 . S
C2510 C2508 1.419 . S
C2510 C2511 1.362 1_655 S
C2511 H2501 0.930 . S
C2511 C2504 1.409 . S
C2511 C2510 1.362 1_455 S
H2512 C2518 0.930 . S
H2513 C2521 0.930 . S
H2514 C2522 0.930 . S
H2515 C2523 0.930 . S
H2516 C2526 0.930 . S
H2517 C2527 0.930 . S
C2518 H2512 0.930 . S
C2518 C2519 1.355 . S
C2518 C2520 1.415 . S
C2519 C2518 1.355 . S
C2519 C2521 1.419 . S
C2520 C2518 1.415 . S
C2520 C2525 1.425 . S
C2520 C2527 1.409 . S
C2521 H2513 0.930 . S
C2521 C2519 1.419 . S
C2521 C2522 1.362 . S
C2522 H2514 0.930 . S
C2522 C2521 1.362 . S
C2522 C2525 1.409 . S
C2523 H2515 0.930 . S
C2523 C2524 1.355 . S
C2523 C2525 1.415 . S
C2524 C2523 1.355 . S
C2524 C2526 1.419 . S
C2525 C2520 1.425 . S
C2525 C2522 1.409 . S
C2525 C2523 1.415 . S
C2526 H2516 0.930 . S
C2526 C2524 1.419 . S
C2526 C2527 1.362 . S
C2527 H2517 0.930 . S
C2527 C2520 1.409 . S
C2527 C2526 1.362 . S
H2528 C2534 0.930 . S
H2529 C2537 0.930 . S
H2530 C2538 0.930 . S
H2531 C2539 0.930 . S
H2532 C2542 0.930 . S
H2533 C2543 0.930 . S
C2534 H2528 0.930 . S
C2534 C2535 1.355 . S
C2534 C2536 1.382 1_545 S
C2535 C2534 1.355 . S
C2535 C2537 1.419 . S
C2536 C2534 1.382 1_565 S
C2536 C2541 1.390 1_565 S
C2536 C2543 1.462 . S
C2537 H2529 0.930 . S
C2537 C2535 1.419 . S
C2537 C2538 1.362 . S
C2538 H2530 0.930 . S
C2538 C2537 1.362 . S
C2538 C2541 1.462 . S
C2539 H2531 0.930 . S
C2539 C2540 1.355 . S
C2539 C2541 1.381 1_565 S
C2540 C2539 1.355 . S
C2540 C2542 1.419 . S
C2541 C2536 1.390 1_545 S
C2541 C2538 1.462 . S
C2541 C2539 1.381 1_545 S
C2542 H2532 0.930 . S
C2542 C2540 1.419 . S
C2542 C2543 1.362 . S
C2543 H2533 0.930 . S
C2543 C2536 1.462 . S
C2543 C2542 1.362 . S
H2544 C2550 0.930 . S
H2545 C2553 0.930 . S
H2546 C2554 0.926 . S
H2547 C2555 0.930 . S
H2548 C2558 0.930 . S
H2549 C2559 0.926 . S
C2550 H2544 0.930 . S
C2550 C2551 1.355 . S
C2550 C2552 1.415 . S
C2551 C2550 1.355 . S
C2551 C2553 1.419 . S
C2552 C2550 1.415 . S
C2552 C2557 1.425 1_565 S
C2552 C2559 1.409 1_565 S
C2553 H2545 0.930 . S
C2553 C2551 1.419 . S
C2553 C2554 1.362 . S
C2554 H2546 0.926 . S
C2554 C2553 1.362 . S
C2554 C2557 1.409 1_565 S
C2555 H2547 0.930 . S
C2555 C2556 1.355 . S
C2555 C2557 1.415 . S
C2556 C2555 1.355 . S
C2556 C2558 1.419 . S
C2557 C2552 1.425 1_545 S
C2557 C2554 1.409 1_545 S
C2557 C2555 1.415 . S
C2558 H2548 0.930 . S
C2558 C2556 1.419 . S
C2558 C2559 1.362 . S
C2559 H2549 0.926 . S
C2559 C2552 1.409 1_545 S
C2559 C2558 1.362 . S
H2560 C2566 0.930 . S
H2561 C2569 0.930 . S
H2562 C2570 0.930 . S
H2563 C2571 0.930 . S
H2564 C2574 0.930 . S
H2565 C2575 0.930 . S
C2566 H2560 0.930 . S
C2566 C2567 1.355 . S
C2566 C2568 1.415 . S
C2567 C2566 1.355 . S
C2567 C2569 1.419 . S
C2568 C2566 1.415 . S
C2568 C2573 1.425 1_455 S
C2568 C2575 1.409 1_455 S
C2569 H2561 0.930 . S
C2569 C2567 1.419 . S
C2569 C2570 1.362 . S
C2570 H2562 0.930 . S
C2570 C2569 1.362 . S
C2570 C2573 1.409 1_455 S
C2571 H2563 0.930 . S
C2571 C2572 1.355 . S
C2571 C2573 1.415 . S
C2572 C2571 1.355 . S
C2572 C2574 1.419 . S
C2573 C2568 1.425 1_655 S
C2573 C2570 1.409 1_655 S
C2573 C2571 1.415 . S
C2574 H2564 0.930 . S
C2574 C2572 1.419 . S
C2574 C2575 1.362 . S
C2575 H2565 0.930 . S
C2575 C2568 1.409 1_655 S
C2575 C2574 1.362 . S
H2576 C2582 0.930 . S
H2577 C2585 0.930 . S
H2578 C2586 0.930 . S
H2579 C2587 0.930 . S
H2580 C2590 0.930 . S
H2581 C2591 0.930 . S
C2582 H2576 0.930 . S
C2582 C2583 1.355 . S
C2582 C2584 1.415 . S
C2583 C2582 1.355 . S
C2583 C2585 1.419 . S
C2584 C2582 1.415 . S
C2584 C2589 1.425 . S
C2584 C2591 1.409 . S
C2585 H2577 0.930 . S
C2585 C2583 1.419 . S
C2585 C2586 1.362 . S
C2586 H2578 0.930 . S
C2586 C2585 1.362 . S
C2586 C2589 1.409 . S
C2587 H2579 0.930 . S
C2587 C2588 1.355 . S
C2587 C2589 1.415 . S
C2588 C2587 1.355 . S
C2588 C2590 1.419 . S
C2589 C2584 1.425 . S
C2589 C2586 1.409 . S
C2589 C2587 1.415 . S
C2590 H2580 0.930 . S
C2590 C2588 1.419 . S
C2590 C2591 1.362 . S
C2591 H2581 0.930 . S
C2591 C2584 1.409 . S
C2591 C2590 1.362 . S
H2592 C2598 0.930 . S
H2593 C2601 0.930 . S
H2594 C2602 0.930 . S
H2595 C2603 0.930 . S
H2596 C2606 0.930 . S
H2597 C2607 0.930 . S
C2598 H2592 0.930 . S
C2598 C2599 1.355 . S
C2598 C2600 1.415 . S
C2599 C2598 1.355 . S
C2599 C2601 1.419 . S
C2600 C2598 1.415 . S
C2600 C2605 1.425 . S
C2600 C2607 1.409 . S
C2601 H2593 0.930 . S
C2601 C2599 1.419 . S
C2601 C2602 1.362 . S
C2602 H2594 0.930 . S
C2602 C2601 1.362 . S
C2602 C2605 1.409 . S
C2603 H2595 0.930 . S
C2603 C2604 1.355 . S
C2603 C2605 1.415 . S
C2604 C2603 1.355 . S
C2604 C2606 1.419 . S
C2605 C2600 1.425 . S
C2605 C2602 1.409 . S
C2605 C2603 1.415 . S
C2606 H2596 0.930 . S
C2606 C2604 1.419 . S
C2606 C2607 1.362 . S
C2607 H2597 0.930 . S
C2607 C2600 1.409 . S
C2607 C2606 1.362 . S
H2608 C2614 0.930 . S
H2609 C2617 0.930 . S
H2610 C2618 0.930 1_565 S
H2611 C2619 0.930 . S
H2612 C2622 0.930 . S
H2613 C2623 0.930 1_545 S
C2614 H2608 0.930 . S
C2614 C2615 1.355 . S
C2614 C2616 1.415 . S
C2615 C2614 1.355 . S
C2615 C2617 1.419 . S
C2616 C2614 1.415 . S
C2616 C2621 1.425 1_545 S
C2616 C2623 1.409 1_545 S
C2617 H2609 0.930 . S
C2617 C2615 1.419 . S
C2617 C2618 1.362 . S
C2618 H2610 0.930 1_545 S
C2618 C2617 1.362 . S
C2618 C2621 1.409 1_545 S
C2619 H2611 0.930 . S
C2619 C2620 1.355 . S
C2619 C2621 1.415 . S
C2620 C2619 1.355 . S
C2620 C2622 1.419 . S
C2621 C2616 1.425 1_565 S
C2621 C2618 1.409 1_565 S
C2621 C2619 1.415 . S
C2622 H2612 0.930 . S
C2622 C2620 1.419 . S
C2622 C2623 1.362 . S
C2623 H2613 0.930 1_565 S
C2623 C2616 1.409 1_565 S
C2623 C2622 1.362 . S
H2624 C2630 0.930 . S
H2625 C2633 0.930 . S
H2626 C2634 0.917 1_455 S
H2627 C2635 0.930 . S
H2628 C2638 0.930 . S
H2629 C2639 0.917 1_655 S
C2630 H2624 0.930 . S
C2630 C2631 1.355 . S
C2630 C2632 1.415 . S
C2631 C2630 1.355 . S
C2631 C2633 1.419 . S
C2632 C2630 1.415 . S
C2632 C2637 1.425 1_655 S
C2632 C2639 1.369 1_655 S
C2633 H2625 0.930 . S
C2633 C2631 1.419 . S
C2633 C2634 1.421 . S
C2634 H2626 0.917 1_655 S
C2634 C2633 1.421 . S
C2634 C2637 1.369 1_655 S
C2635 H2627 0.930 . S
C2635 C2636 1.355 . S
C2635 C2637 1.415 . S
C2636 C2635 1.355 . S
C2636 C2638 1.419 . S
C2637 C2632 1.425 1_455 S
C2637 C2634 1.369 1_455 S
C2637 C2635 1.415 . S
C2638 H2628 0.930 . S
C2638 C2636 1.419 . S
C2638 C2639 1.420 . S
C2639 H2629 0.917 1_455 S
C2639 C2632 1.369 1_455 S
C2639 C2638 1.420 . S
H2640 C2646 0.930 . S
H2641 C2649 0.930 . S
H2642 C2650 0.930 . S
H2643 C2651 0.930 . S
H2644 C2654 0.930 . S
H2645 C2655 0.930 . S
C2646 H2640 0.930 . S
C2646 C2647 1.355 . S
C2646 C2648 1.415 . S
C2647 C2646 1.355 . S
C2647 C2649 1.419 . S
C2648 C2646 1.415 . S
C2648 C2653 1.425 . S
C2648 C2655 1.409 . S
C2649 H2641 0.930 . S
C2649 C2647 1.419 . S
C2649 C2650 1.362 . S
C2650 H2642 0.930 . S
C2650 C2649 1.362 . S
C2650 C2653 1.409 . S
C2651 H2643 0.930 . S
C2651 C2652 1.355 . S
C2651 C2653 1.415 . S
C2652 C2651 1.355 . S
C2652 C2654 1.419 . S
C2653 C2648 1.425 . S
C2653 C2650 1.409 . S
C2653 C2651 1.415 . S
C2654 H2644 0.930 . S
C2654 C2652 1.419 . S
C2654 C2655 1.362 . S
C2655 H2645 0.930 . S
C2655 C2648 1.409 . S
C2655 C2654 1.362 . S
H2656 C2662 0.930 . S
H2657 C2665 0.930 . S
H2658 C2666 0.930 1_545 S
H2659 C2667 0.930 . S
H2660 C2670 0.930 . S
H2661 C2671 0.930 1_565 S
C2662 H2656 0.930 . S
C2662 C2663 1.355 . S
C2662 C2664 1.415 . S
C2663 C2662 1.355 . S
C2663 C2665 1.419 . S
C2664 C2662 1.415 . S
C2664 C2669 1.425 1_565 S
C2664 C2671 1.409 1_565 S
C2665 H2657 0.930 . S
C2665 C2663 1.419 . S
C2665 C2666 1.362 . S
C2666 H2658 0.930 1_565 S
C2666 C2665 1.362 . S
C2666 C2669 1.409 1_565 S
C2667 H2659 0.930 . S
C2667 C2668 1.355 . S
C2667 C2669 1.415 . S
C2668 C2667 1.355 . S
C2668 C2670 1.419 . S
C2669 C2664 1.425 1_545 S
C2669 C2666 1.409 1_545 S
C2669 C2667 1.415 . S
C2670 H2660 0.930 . S
C2670 C2668 1.419 . S
C2670 C2671 1.362 . S
C2671 H2661 0.930 1_545 S
C2671 C2664 1.409 1_545 S
C2671 C2670 1.362 . S
H2672 C2678 0.930 . S
H2673 C2681 0.930 . S
H2674 C2682 0.930 . S
H2675 C2683 0.930 . S
H2676 C2686 0.930 . S
H2677 C2687 0.930 . S
C2678 H2672 0.930 . S
C2678 C2679 1.355 . S
C2678 C2680 1.412 . S
C2679 C2678 1.355 . S
C2679 C2681 1.419 . S
C2680 C2678 1.412 . S
C2680 C2685 1.428 1_655 S
C2680 C2687 1.411 1_655 S
C2681 H2673 0.930 . S
C2681 C2679 1.419 . S
C2681 C2682 1.362 . S
C2682 H2674 0.930 . S
C2682 C2681 1.362 . S
C2682 C2685 1.411 1_655 S
C2683 H2675 0.930 . S
C2683 C2684 1.355 . S
C2683 C2685 1.412 . S
C2684 C2683 1.355 . S
C2684 C2686 1.419 . S
C2685 C2680 1.428 1_455 S
C2685 C2682 1.411 1_455 S
C2685 C2683 1.412 . S
C2686 H2676 0.930 . S
C2686 C2684 1.419 . S
C2686 C2687 1.362 . S
C2687 H2677 0.930 . S
C2687 C2680 1.411 1_455 S
C2687 C2686 1.362 . S
H2688 C2694 0.930 . S
H2689 C2697 0.930 . S
H2690 C2698 0.930 . S
H2691 C2699 0.930 . S
H2692 C2702 0.930 . S
H2693 C2703 0.930 . S
C2694 H2688 0.930 . S
C2694 C2695 1.355 . S
C2694 C2696 1.415 . S
C2695 C2694 1.355 . S
C2695 C2697 1.419 . S
C2696 C2694 1.415 . S
C2696 C2701 1.425 . S
C2696 C2703 1.409 . S
C2697 H2689 0.930 . S
C2697 C2695 1.419 . S
C2697 C2698 1.362 . S
C2698 H2690 0.930 . S
C2698 C2697 1.362 . S
C2698 C2701 1.409 . S
C2699 H2691 0.930 . S
C2699 C2700 1.355 . S
C2699 C2701 1.415 . S
C2700 C2699 1.355 . S
C2700 C2702 1.419 . S
C2701 C2696 1.425 . S
C2701 C2698 1.409 . S
C2701 C2699 1.415 . S
C2702 H2692 0.930 . S
C2702 C2700 1.419 . S
C2702 C2703 1.362 . S
C2703 H2693 0.930 . S
C2703 C2696 1.409 . S
C2703 C2702 1.362 . S
H2704 C2710 0.930 . S
H2705 C2713 0.930 . S
H2706 C2714 0.930 . S
H2707 C2715 0.930 . S
H2708 C2718 0.930 . S
H2709 C2719 0.930 . S
C2710 H2704 0.930 . S
C2710 C2711 1.355 . S
C2710 C2712 1.415 . S
C2711 C2710 1.355 . S
C2711 C2713 1.419 . S
C2712 C2710 1.415 . S
C2712 C2717 1.425 . S
C2712 C2719 1.409 . S
C2713 H2705 0.930 . S
C2713 C2711 1.419 . S
C2713 C2714 1.362 . S
C2714 H2706 0.930 . S
C2714 C2713 1.362 . S
C2714 C2717 1.409 . S
C2715 H2707 0.930 . S
C2715 C2716 1.355 . S
C2715 C2717 1.415 . S
C2716 C2715 1.355 . S
C2716 C2718 1.419 . S
C2717 C2712 1.425 . S
C2717 C2714 1.409 . S
C2717 C2715 1.415 . S
C2718 H2708 0.930 . S
C2718 C2716 1.419 . S
C2718 C2719 1.362 . S
C2719 H2709 0.930 . S
C2719 C2712 1.409 . S
C2719 C2718 1.362 . S
H2720 C2726 0.930 . S
H2721 C2729 0.930 . S
H2722 C2730 0.930 . S
H2723 C2731 0.930 . S
H2724 C2734 0.930 . S
H2725 C2735 0.930 . S
C2726 H2720 0.930 . S
C2726 C2727 1.355 . S
C2726 C2728 1.415 . S
C2727 C2726 1.355 . S
C2727 C2729 1.419 . S
C2728 C2726 1.415 . S
C2728 C2733 1.425 . S
C2728 C2735 1.409 . S
C2729 H2721 0.930 . S
C2729 C2727 1.419 . S
C2729 C2730 1.362 . S
C2730 H2722 0.930 . S
C2730 C2729 1.362 . S
C2730 C2733 1.409 . S
C2731 H2723 0.930 . S
C2731 C2732 1.355 . S
C2731 C2733 1.415 . S
C2732 C2731 1.355 . S
C2732 C2734 1.419 . S
C2733 C2728 1.425 . S
C2733 C2730 1.409 . S
C2733 C2731 1.415 . S
C2734 H2724 0.930 . S
C2734 C2732 1.419 . S
C2734 C2735 1.362 . S
C2735 H2725 0.930 . S
C2735 C2728 1.409 . S
C2735 C2734 1.362 . S
H2736 C2742 0.930 . S
H2737 C2745 0.930 . S
H2738 C2746 0.930 . S
H2739 C2747 0.930 . S
H2740 C2750 0.930 1_556 S
H2741 C2751 0.930 . S
C2742 H2736 0.930 . S
C2742 C2743 1.355 . S
C2742 C2744 1.415 . S
C2743 C2742 1.355 . S
C2743 C2745 1.419 . S
C2744 C2742 1.415 . S
C2744 C2749 1.425 . S
C2744 C2751 1.409 . S
C2745 H2737 0.930 . S
C2745 C2743 1.419 . S
C2745 C2746 1.362 . S
C2746 H2738 0.930 . S
C2746 C2745 1.362 . S
C2746 C2749 1.409 . S
C2747 H2739 0.930 . S
C2747 C2748 1.355 . S
C2747 C2749 1.415 . S
C2748 C2747 1.355 . S
C2748 C2750 1.419 . S
C2749 C2744 1.425 . S
C2749 C2746 1.409 . S
C2749 C2747 1.415 . S
C2750 H2740 0.930 1_554 S
C2750 C2748 1.419 . S
C2750 C2751 1.362 . S
C2751 H2741 0.930 . S
C2751 C2744 1.409 . S
C2751 C2750 1.362 . S
H2752 C2758 0.930 . S
H2753 C2761 0.930 . S
H2754 C2762 0.930 . S
H2755 C2763 0.930 . S
H2756 C2766 0.930 . S
H2757 C2767 0.930 . S
C2758 H2752 0.930 . S
C2758 C2759 1.355 . S
C2758 C2760 1.415 . S
C2759 C2758 1.355 . S
C2759 C2761 1.419 . S
C2760 C2758 1.415 . S
C2760 C2765 1.425 . S
C2760 C2767 1.409 . S
C2761 H2753 0.930 . S
C2761 C2759 1.419 . S
C2761 C2762 1.362 . S
C2762 H2754 0.930 . S
C2762 C2761 1.362 . S
C2762 C2765 1.409 . S
C2763 H2755 0.930 . S
C2763 C2764 1.355 . S
C2763 C2765 1.415 . S
C2764 C2763 1.355 . S
C2764 C2766 1.419 . S
C2765 C2760 1.425 . S
C2765 C2762 1.409 . S
C2765 C2763 1.415 . S
C2766 H2756 0.930 . S
C2766 C2764 1.419 . S
C2766 C2767 1.362 . S
C2767 H2757 0.930 . S
C2767 C2760 1.409 . S
C2767 C2766 1.362 . S
H2768 C2774 0.930 . S
H2769 C2777 0.930 . S
H2770 C2778 0.930 . S
H2771 C2779 0.930 . S
H2772 C2782 0.930 . S
H2773 C2783 0.930 . S
C2774 H2768 0.930 . S
C2774 C2775 1.355 . S
C2774 C2776 1.415 . S
C2775 C2774 1.355 . S
C2775 C2777 1.419 . S
C2776 C2774 1.415 . S
C2776 C2781 1.425 . S
C2776 C2783 1.409 . S
C2777 H2769 0.930 . S
C2777 C2775 1.419 . S
C2777 C2778 1.362 . S
C2778 H2770 0.930 . S
C2778 C2777 1.362 . S
C2778 C2781 1.409 . S
C2779 H2771 0.930 . S
C2779 C2780 1.355 . S
C2779 C2781 1.415 . S
C2780 C2779 1.355 . S
C2780 C2782 1.419 . S
C2781 C2776 1.425 . S
C2781 C2778 1.409 . S
C2781 C2779 1.415 . S
C2782 H2772 0.930 . S
C2782 C2780 1.419 . S
C2782 C2783 1.362 . S
C2783 H2773 0.930 . S
C2783 C2776 1.409 . S
C2783 C2782 1.362 . S
H2784 C2790 0.930 . S
H2785 C2793 0.930 . S
H2786 C2794 0.930 . S
H2787 C2795 0.941 . S
H2788 C2798 0.930 . S
H2789 C2799 0.930 . S
C2790 H2784 0.930 . S
C2790 C2791 1.355 . S
C2790 C2792 1.415 . S
C2791 C2790 1.355 . S
C2791 C2793 1.419 . S
C2792 C2790 1.415 . S
C2792 C2797 1.425 . S
C2792 C2799 1.409 . S
C2793 H2785 0.930 . S
C2793 C2791 1.419 . S
C2793 C2794 1.362 . S
C2794 H2786 0.930 . S
C2794 C2793 1.362 . S
C2794 C2797 1.409 . S
C2795 H2787 0.941 . S
C2795 C2796 1.355 . S
C2795 C2797 1.415 . S
C2796 C2795 1.355 . S
C2796 C2798 1.419 . S
C2797 C2792 1.425 . S
C2797 C2794 1.409 . S
C2797 C2795 1.415 . S
C2798 H2788 0.930 . S
C2798 C2796 1.419 . S
C2798 C2799 1.362 . S
C2799 H2789 0.930 . S
C2799 C2792 1.409 . S
C2799 C2798 1.362 . S
H2800 C2806 0.930 . S
H2801 C2809 0.930 . S
H2802 C2810 0.930 . S
H2803 C2811 0.930 . S
H2804 C2814 0.930 . S
H2805 C2815 0.930 . S
C2806 H2800 0.930 . S
C2806 C2807 1.355 . S
C2806 C2808 1.415 . S
C2807 C2806 1.355 . S
C2807 C2809 1.419 . S
C2808 C2806 1.415 . S
C2808 C2813 1.425 . S
C2808 C2815 1.409 . S
C2809 H2801 0.930 . S
C2809 C2807 1.419 . S
C2809 C2810 1.362 . S
C2810 H2802 0.930 . S
C2810 C2809 1.362 . S
C2810 C2813 1.409 . S
C2811 H2803 0.930 . S
C2811 C2812 1.355 . S
C2811 C2813 1.415 . S
C2812 C2811 1.355 . S
C2812 C2814 1.419 . S
C2813 C2808 1.425 . S
C2813 C2810 1.409 . S
C2813 C2811 1.415 . S
C2814 H2804 0.930 . S
C2814 C2812 1.419 . S
C2814 C2815 1.362 . S
C2815 H2805 0.930 . S
C2815 C2808 1.409 . S
C2815 C2814 1.362 . S
H2816 C2822 0.930 . S
H2817 C2825 0.930 . S
H2818 C2826 0.930 . S
H2819 C2827 0.930 . S
H2820 C2830 0.930 . S
H2821 C2831 0.930 . S
C2822 H2816 0.930 . S
C2822 C2823 1.355 . S
C2822 C2824 1.415 . S
C2823 C2822 1.355 . S
C2823 C2825 1.419 . S
C2824 C2822 1.415 . S
C2824 C2829 1.425 . S
C2824 C2831 1.409 . S
C2825 H2817 0.930 . S
C2825 C2823 1.419 . S
C2825 C2826 1.362 . S
C2826 H2818 0.930 . S
C2826 C2825 1.362 . S
C2826 C2829 1.409 . S
C2827 H2819 0.930 . S
C2827 C2828 1.355 . S
C2827 C2829 1.415 . S
C2828 C2827 1.355 . S
C2828 C2830 1.419 . S
C2829 C2824 1.425 . S
C2829 C2826 1.409 . S
C2829 C2827 1.415 . S
C2830 H2820 0.930 . S
C2830 C2828 1.419 . S
C2830 C2831 1.362 . S
C2831 H2821 0.930 . S
C2831 C2824 1.409 . S
C2831 C2830 1.362 . S
H2832 C2838 0.930 . S
H2833 C2841 0.930 . S
H2834 C2842 0.930 . S
H2835 C2843 0.930 . S
H2836 C2846 0.930 . S
H2837 C2847 0.930 . S
C2838 H2832 0.930 . S
C2838 C2839 1.355 . S
C2838 C2840 1.415 . S
C2839 C2838 1.355 . S
C2839 C2841 1.419 . S
C2840 C2838 1.415 . S
C2840 C2845 1.425 . S
C2840 C2847 1.409 . S
C2841 H2833 0.930 . S
C2841 C2839 1.419 . S
C2841 C2842 1.362 . S
C2842 H2834 0.930 . S
C2842 C2841 1.362 . S
C2842 C2845 1.409 . S
C2843 H2835 0.930 . S
C2843 C2844 1.355 . S
C2843 C2845 1.415 . S
C2844 C2843 1.355 . S
C2844 C2846 1.419 . S
C2845 C2840 1.425 . S
C2845 C2842 1.409 . S
C2845 C2843 1.415 . S
C2846 H2836 0.930 . S
C2846 C2844 1.419 . S
C2846 C2847 1.362 . S
C2847 H2837 0.930 . S
C2847 C2840 1.409 . S
C2847 C2846 1.362 . S
H2848 C2854 0.930 . S
H2849 C2857 0.930 . S
H2850 C2858 0.930 . S
H2851 C2859 0.930 . S
H2852 C2862 0.930 . S
H2853 C2863 0.930 . S
C2854 H2848 0.930 . S
C2854 C2855 1.355 . S
C2854 C2856 1.415 . S
C2855 C2854 1.355 . S
C2855 C2857 1.419 . S
C2856 C2854 1.415 . S
C2856 C2861 1.425 . S
C2856 C2863 1.409 . S
C2857 H2849 0.930 . S
C2857 C2855 1.419 . S
C2857 C2858 1.362 . S
C2858 H2850 0.930 . S
C2858 C2857 1.362 . S
C2858 C2861 1.409 . S
C2859 H2851 0.930 . S
C2859 C2860 1.355 . S
C2859 C2861 1.415 . S
C2860 C2859 1.355 . S
C2860 C2862 1.419 . S
C2861 C2856 1.425 . S
C2861 C2858 1.409 . S
C2861 C2859 1.415 . S
C2862 H2852 0.930 . S
C2862 C2860 1.419 . S
C2862 C2863 1.362 . S
C2863 H2853 0.930 . S
C2863 C2856 1.409 . S
C2863 C2862 1.362 . S
H2864 C2870 0.930 . S
H2865 C2873 0.930 . S
H2866 C2874 0.930 . S
H2867 C2875 0.930 . S
H2868 C2878 0.930 . S
H2869 C2879 0.930 . S
C2870 H2864 0.930 . S
C2870 C2871 1.355 . S
C2870 C2872 1.415 . S
C2871 C2870 1.355 . S
C2871 C2873 1.419 . S
C2872 C2870 1.415 . S
C2872 C2877 1.425 . S
C2872 C2879 1.409 . S
C2873 H2865 0.930 . S
C2873 C2871 1.419 . S
C2873 C2874 1.362 . S
C2874 H2866 0.930 . S
C2874 C2873 1.362 . S
C2874 C2877 1.409 . S
C2875 H2867 0.930 . S
C2875 C2876 1.355 . S
C2875 C2877 1.415 . S
C2876 C2875 1.355 . S
C2876 C2878 1.419 . S
C2877 C2872 1.425 . S
C2877 C2874 1.409 . S
C2877 C2875 1.415 . S
C2878 H2868 0.930 . S
C2878 C2876 1.419 . S
C2878 C2879 1.362 . S
C2879 H2869 0.930 . S
C2879 C2872 1.409 . S
C2879 C2878 1.362 . S
H2880 C2886 0.930 . S
H2881 C2889 0.930 . S
H2882 C2890 0.930 . S
H2883 C2891 0.930 . S
H2884 C2894 0.930 . S
H2885 C2895 0.930 . S
C2886 H2880 0.930 . S
C2886 C2887 1.355 . S
C2886 C2888 1.415 . S
C2887 C2886 1.355 . S
C2887 C2889 1.419 . S
C2888 C2886 1.415 . S
C2888 C2893 1.425 . S
C2888 C2895 1.409 . S
C2889 H2881 0.930 . S
C2889 C2887 1.419 . S
C2889 C2890 1.362 . S
C2890 H2882 0.930 . S
C2890 C2889 1.362 . S
C2890 C2893 1.409 . S
C2891 H2883 0.930 . S
C2891 C2892 1.355 . S
C2891 C2893 1.415 . S
C2892 C2891 1.355 . S
C2892 C2894 1.419 . S
C2893 C2888 1.425 . S
C2893 C2890 1.409 . S
C2893 C2891 1.415 . S
C2894 H2884 0.930 . S
C2894 C2892 1.419 . S
C2894 C2895 1.362 . S
C2895 H2885 0.930 . S
C2895 C2888 1.409 . S
C2895 C2894 1.362 . S
H2896 C2902 0.930 . S
H2897 C2905 0.930 . S
H2898 C2906 0.930 . S
H2899 C2907 0.930 . S
H2900 C2910 0.930 1_545 S
H2901 C2911 0.930 . S
C2902 H2896 0.930 . S
C2902 C2903 1.355 . S
C2902 C2904 1.415 . S
C2903 C2902 1.355 . S
C2903 C2905 1.419 . S
C2904 C2902 1.415 . S
C2904 C2909 1.425 . S
C2904 C2911 1.409 . S
C2905 H2897 0.930 . S
C2905 C2903 1.419 . S
C2905 C2906 1.362 . S
C2906 H2898 0.930 . S
C2906 C2905 1.362 . S
C2906 C2909 1.409 . S
C2907 H2899 0.930 . S
C2907 C2908 1.355 . S
C2907 C2909 1.415 . S
C2908 C2907 1.355 . S
C2908 C2910 1.419 . S
C2909 C2904 1.425 . S
C2909 C2906 1.409 . S
C2909 C2907 1.415 . S
C2910 H2900 0.930 1_565 S
C2910 C2908 1.419 . S
C2910 C2911 1.362 . S
C2911 H2901 0.930 . S
C2911 C2904 1.409 . S
C2911 C2910 1.362 . S
H2912 C2918 0.930 1_655 S
H2913 C2921 0.930 . S
H2914 C2922 0.930 . S
H2915 C2923 0.930 . S
H2916 C2926 0.930 1_556 S
H2917 C2927 0.930 . S
C2918 H2912 0.930 1_455 S
C2918 C2919 1.355 . S
C2918 C2920 1.415 . S
C2919 C2918 1.355 . S
C2919 C2921 1.419 . S
C2920 C2918 1.415 . S
C2920 C2925 1.425 . S
C2920 C2927 1.409 . S
C2921 H2913 0.930 . S
C2921 C2919 1.419 . S
C2921 C2922 1.362 . S
C2922 H2914 0.930 . S
C2922 C2921 1.362 . S
C2922 C2925 1.409 . S
C2923 H2915 0.930 . S
C2923 C2924 1.355 . S
C2923 C2925 1.415 . S
C2924 C2923 1.355 . S
C2924 C2926 1.419 . S
C2925 C2920 1.425 . S
C2925 C2922 1.409 . S
C2925 C2923 1.415 . S
C2926 H2916 0.930 1_554 S
C2926 C2924 1.419 . S
C2926 C2927 1.362 . S
C2927 H2917 0.930 . S
C2927 C2920 1.409 . S
C2927 C2926 1.362 . S
H2928 C2934 0.930 . S
H2929 C2937 0.930 . S
H2930 C2938 0.930 . S
H2931 C2939 0.930 . S
H2932 C2942 0.930 . S
H2933 C2943 0.930 . S
C2934 H2928 0.930 . S
C2934 C2935 1.355 . S
C2934 C2936 1.415 . S
C2935 C2934 1.355 . S
C2935 C2937 1.419 . S
C2936 C2934 1.415 . S
C2936 C2941 1.425 . S
C2936 C2943 1.409 . S
C2937 H2929 0.930 . S
C2937 C2935 1.419 . S
C2937 C2938 1.362 . S
C2938 H2930 0.930 . S
C2938 C2937 1.362 . S
C2938 C2941 1.409 . S
C2939 H2931 0.930 . S
C2939 C2940 1.355 . S
C2939 C2941 1.415 . S
C2940 C2939 1.355 . S
C2940 C2942 1.419 . S
C2941 C2936 1.425 . S
C2941 C2938 1.409 . S
C2941 C2939 1.415 . S
C2942 H2932 0.930 . S
C2942 C2940 1.419 . S
C2942 C2943 1.362 . S
C2943 H2933 0.930 . S
C2943 C2936 1.409 . S
C2943 C2942 1.362 . S
H2944 C2950 0.930 . S
H2945 C2953 0.930 . S
H2946 C2954 0.930 1_565 S
H2947 C2955 0.930 . S
H2948 C2958 0.930 . S
H2949 C2959 0.930 . S
C2950 H2944 0.930 . S
C2950 C2951 1.355 . S
C2950 C2952 1.415 . S
C2951 C2950 1.355 . S
C2951 C2953 1.419 1_545 S
C2952 C2950 1.415 . S
C2952 C2957 1.425 . S
C2952 C2959 1.409 . S
C2953 H2945 0.930 . S
C2953 C2951 1.419 1_565 S
C2953 C2954 1.362 1_565 S
C2954 H2946 0.930 1_545 S
C2954 C2953 1.362 1_545 S
C2954 C2957 1.409 . S
C2955 H2947 0.930 . S
C2955 C2956 1.355 . S
C2955 C2957 1.415 . S
C2956 C2955 1.355 . S
C2956 C2958 1.419 . S
C2957 C2952 1.425 . S
C2957 C2954 1.409 . S
C2957 C2955 1.415 . S
C2958 H2948 0.930 . S
C2958 C2956 1.419 . S
C2958 C2959 1.362 . S
C2959 H2949 0.930 . S
C2959 C2952 1.409 . S
C2959 C2958 1.362 . S
H2960 C2966 0.930 . S
H2961 C2969 0.930 1_455 S
H2962 C2970 0.930 . S
H2963 C2971 0.930 . S
H2964 C2974 0.930 . S
H2965 C2975 0.930 . S
C2966 H2960 0.930 . S
C2966 C2967 1.355 . S
C2966 C2968 1.415 . S
C2967 C2966 1.355 . S
C2967 C2969 1.419 . S
C2968 C2966 1.415 . S
C2968 C2973 1.425 . S
C2968 C2975 1.409 . S
C2969 H2961 0.930 1_655 S
C2969 C2967 1.419 . S
C2969 C2970 1.362 . S
C2970 H2962 0.930 . S
C2970 C2969 1.362 . S
C2970 C2973 1.409 . S
C2971 H2963 0.930 . S
C2971 C2972 1.355 . S
C2971 C2973 1.415 . S
C2972 C2971 1.355 . S
C2972 C2974 1.419 . S
C2973 C2968 1.425 . S
C2973 C2970 1.409 . S
C2973 C2971 1.415 . S
C2974 H2964 0.930 . S
C2974 C2972 1.419 . S
C2974 C2975 1.362 . S
C2975 H2965 0.930 . S
C2975 C2968 1.409 . S
C2975 C2974 1.362 . S
H2976 C2982 0.930 . S
H2977 C2985 0.930 . S
H2978 C2986 0.930 . S
H2979 C2987 0.930 . S
H2980 C2990 0.930 . S
H2981 C2991 0.930 . S
C2982 H2976 0.930 . S
C2982 C2983 1.355 . S
C2982 C2984 1.415 . S
C2983 C2982 1.355 . S
C2983 C2985 1.419 . S
C2984 C2982 1.415 . S
C2984 C2989 1.425 . S
C2984 C2991 1.409 . S
C2985 H2977 0.930 . S
C2985 C2983 1.419 . S
C2985 C2986 1.362 . S
C2986 H2978 0.930 . S
C2986 C2985 1.362 . S
C2986 C2989 1.409 . S
C2987 H2979 0.930 . S
C2987 C2988 1.355 . S
C2987 C2989 1.415 . S
C2988 C2987 1.355 . S
C2988 C2990 1.419 . S
C2989 C2984 1.425 . S
C2989 C2986 1.409 . S
C2989 C2987 1.415 . S
C2990 H2980 0.930 . S
C2990 C2988 1.419 . S
C2990 C2991 1.362 . S
C2991 H2981 0.930 . S
C2991 C2984 1.409 . S
C2991 C2990 1.362 . S
H2992 C2998 0.930 1_565 S
H2993 C3001 0.930 . S
H2994 C3002 0.930 . S
H2995 C3003 0.930 . S
H2996 C3006 0.930 . S
H2997 C3007 0.930 . S
C2998 H2992 0.930 1_545 S
C2998 C2999 1.355 . S
C2998 C3000 1.415 . S
C2999 C2998 1.355 . S
C2999 C3001 1.419 . S
C3000 C2998 1.415 . S
C3000 C3005 1.425 . S
C3000 C3007 1.409 . S
C3001 H2993 0.930 . S
C3001 C2999 1.419 . S
C3001 C3002 1.362 . S
C3002 H2994 0.930 . S
C3002 C3001 1.362 . S
C3002 C3005 1.409 . S
C3003 H2995 0.930 . S
C3003 C3004 1.355 . S
C3003 C3005 1.415 . S
C3004 C3003 1.355 . S
C3004 C3006 1.419 . S
C3005 C3000 1.425 . S
C3005 C3002 1.409 . S
C3005 C3003 1.415 . S
C3006 H2996 0.930 . S
C3006 C3004 1.419 . S
C3006 C3007 1.362 . S
C3007 H2997 0.930 . S
C3007 C3000 1.409 . S
C3007 C3006 1.362 . S
H3008 C3014 0.930 . S
H3009 C3017 0.930 1_554 S
H3010 C3018 0.919 1_554 S
H3011 C3019 0.930 . S
H3012 C3022 0.960 . S
H3013 C3023 0.930 . S
C3014 H3008 0.930 . S
C3014 C3015 1.355 . S
C3014 C3016 1.415 . S
C3015 C3014 1.355 . S
C3015 C3017 1.419 . S
C3016 C3014 1.415 . S
C3016 C3021 1.425 . S
C3016 C3023 1.409 . S
C3017 H3009 0.930 1_556 S
C3017 C3015 1.419 . S
C3017 C3018 1.362 . S
C3018 H3010 0.919 1_556 S
C3018 C3017 1.362 . S
C3018 C3021 1.409 . S
C3019 H3011 0.930 . S
C3019 C3020 1.355 . S
C3019 C3021 1.415 . S
C3020 C3019 1.355 . S
C3020 C3022 1.419 . S
C3021 C3016 1.425 . S
C3021 C3018 1.409 . S
C3021 C3019 1.415 . S
C3022 H3012 0.960 . S
C3022 C3020 1.419 . S
C3022 C3023 1.362 . S
C3023 H3013 0.930 . S
C3023 C3016 1.409 . S
C3023 C3022 1.362 . S
H3024 C3030 0.930 . S
H3025 C3033 0.930 . S
H3026 C3034 0.930 . S
H3027 C3035 0.930 . S
H3028 C3038 0.930 . S
H3029 C3039 0.930 . S
C3030 H3024 0.930 . S
C3030 C3031 1.355 . S
C3030 C3032 1.415 . S
C3031 C3030 1.355 . S
C3031 C3033 1.419 . S
C3032 C3030 1.415 . S
C3032 C3037 1.425 . S
C3032 C3039 1.409 . S
C3033 H3025 0.930 . S
C3033 C3031 1.419 . S
C3033 C3034 1.362 . S
C3034 H3026 0.930 . S
C3034 C3033 1.362 . S
C3034 C3037 1.409 . S
C3035 H3027 0.930 . S
C3035 C3036 1.355 . S
C3035 C3037 1.415 . S
C3036 C3035 1.355 . S
C3036 C3038 1.419 . S
C3037 C3032 1.425 . S
C3037 C3034 1.409 . S
C3037 C3035 1.415 . S
C3038 H3028 0.930 . S
C3038 C3036 1.419 . S
C3038 C3039 1.362 . S
C3039 H3029 0.930 . S
C3039 C3032 1.409 . S
C3039 C3038 1.362 . S
H3040 C3046 0.930 . S
H3041 C3049 0.930 . S
H3042 C3050 0.930 . S
H3043 C3051 0.930 . S
H3044 C3054 0.930 . S
H3045 C3055 0.930 1_545 S
C3046 H3040 0.930 . S
C3046 C3047 1.355 . S
C3046 C3048 1.415 . S
C3047 C3046 1.355 . S
C3047 C3049 1.419 . S
C3048 C3046 1.415 . S
C3048 C3053 1.425 . S
C3048 C3055 1.409 . S
C3049 H3041 0.930 . S
C3049 C3047 1.419 . S
C3049 C3050 1.362 . S
C3050 H3042 0.930 . S
C3050 C3049 1.362 . S
C3050 C3053 1.409 . S
C3051 H3043 0.930 . S
C3051 C3052 1.355 . S
C3051 C3053 1.415 . S
C3052 C3051 1.355 . S
C3052 C3054 1.419 1_565 S
C3053 C3048 1.425 . S
C3053 C3050 1.409 . S
C3053 C3051 1.415 . S
C3054 H3044 0.930 . S
C3054 C3052 1.419 1_545 S
C3054 C3055 1.362 1_545 S
C3055 H3045 0.930 1_565 S
C3055 C3048 1.409 . S
C3055 C3054 1.362 1_565 S
H3056 C3062 0.930 . S
H3057 C3065 0.930 . S
H3058 C3066 0.930 . S
H3059 C3067 0.930 . S
H3060 C3070 0.930 . S
H3061 C3071 0.930 . S
C3062 H3056 0.930 . S
C3062 C3063 1.355 . S
C3062 C3064 1.415 . S
C3063 C3062 1.355 . S
C3063 C3065 1.419 . S
C3064 C3062 1.415 . S
C3064 C3069 1.425 . S
C3064 C3071 1.409 . S
C3065 H3057 0.930 . S
C3065 C3063 1.419 . S
C3065 C3066 1.362 . S
C3066 H3058 0.930 . S
C3066 C3065 1.362 . S
C3066 C3069 1.409 . S
C3067 H3059 0.930 . S
C3067 C3068 1.355 . S
C3067 C3069 1.415 . S
C3068 C3067 1.355 . S
C3068 C3070 1.419 . S
C3069 C3064 1.425 . S
C3069 C3066 1.409 . S
C3069 C3067 1.415 . S
C3070 H3060 0.930 . S
C3070 C3068 1.419 . S
C3070 C3071 1.362 . S
C3071 H3061 0.930 . S
C3071 C3064 1.409 . S
C3071 C3070 1.362 . S
H3072 C3078 0.930 . S
H3073 C3081 0.930 . S
H3074 C3082 0.930 . S
H3075 C3083 0.930 . S
H3076 C3086 0.930 . S
H3077 C3087 0.930 . S
C3078 H3072 0.930 . S
C3078 C3079 1.355 . S
C3078 C3080 1.415 . S
C3079 C3078 1.355 . S
C3079 C3081 1.419 . S
C3080 C3078 1.415 . S
C3080 C3085 1.425 1_655 S
C3080 C3087 1.409 1_655 S
C3081 H3073 0.930 . S
C3081 C3079 1.419 . S
C3081 C3082 1.362 . S
C3082 H3074 0.930 . S
C3082 C3081 1.362 . S
C3082 C3085 1.409 1_655 S
C3083 H3075 0.930 . S
C3083 C3084 1.355 . S
C3083 C3085 1.415 . S
C3084 C3083 1.355 . S
C3084 C3086 1.419 . S
C3085 C3080 1.425 1_455 S
C3085 C3082 1.409 1_455 S
C3085 C3083 1.415 . S
C3086 H3076 0.930 . S
C3086 C3084 1.419 . S
C3086 C3087 1.362 . S
C3087 H3077 0.930 . S
C3087 C3080 1.409 1_455 S
C3087 C3086 1.362 . S
H3088 C3094 0.930 . S
H3089 C3097 0.930 . S
H3090 C3098 0.930 . S
H3091 C3099 0.930 . S
H3092 C3102 0.930 . S
H3093 C3103 0.930 . S
C3094 H3088 0.930 . S
C3094 C3095 1.355 . S
C3094 C3096 1.415 . S
C3095 C3094 1.355 . S
C3095 C3097 1.419 . S
C3096 C3094 1.415 . S
C3096 C3101 1.425 . S
C3096 C3103 1.409 . S
C3097 H3089 0.930 . S
C3097 C3095 1.419 . S
C3097 C3098 1.362 . S
C3098 H3090 0.930 . S
C3098 C3097 1.362 . S
C3098 C3101 1.409 . S
C3099 H3091 0.930 . S
C3099 C3100 1.355 . S
C3099 C3101 1.415 . S
C3100 C3099 1.355 . S
C3100 C3102 1.419 . S
C3101 C3096 1.425 . S
C3101 C3098 1.409 . S
C3101 C3099 1.415 . S
C3102 H3092 0.930 . S
C3102 C3100 1.419 . S
C3102 C3103 1.362 . S
C3103 H3093 0.930 . S
C3103 C3096 1.409 . S
C3103 C3102 1.362 . S
H3104 C3110 0.930 . S
H3105 C3113 0.930 . S
H3106 C3114 0.930 . S
H3107 C3115 0.930 . S
H3108 C3118 0.930 . S
H3109 C3119 0.930 . S
C3110 H3104 0.930 . S
C3110 C3111 1.355 . S
C3110 C3112 1.415 . S
C3111 C3110 1.355 . S
C3111 C3113 1.419 . S
C3112 C3110 1.415 . S
C3112 C3117 1.425 1_545 S
C3112 C3119 1.409 1_545 S
C3113 H3105 0.930 . S
C3113 C3111 1.419 . S
C3113 C3114 1.362 . S
C3114 H3106 0.930 . S
C3114 C3113 1.362 . S
C3114 C3117 1.409 1_545 S
C3115 H3107 0.930 . S
C3115 C3116 1.355 . S
C3115 C3117 1.415 . S
C3116 C3115 1.355 . S
C3116 C3118 1.419 . S
C3117 C3112 1.425 1_565 S
C3117 C3114 1.409 1_565 S
C3117 C3115 1.415 . S
C3118 H3108 0.930 . S
C3118 C3116 1.419 . S
C3118 C3119 1.362 . S
C3119 H3109 0.930 . S
C3119 C3112 1.409 1_565 S
C3119 C3118 1.362 . S
H3120 C3126 0.930 . S
H3121 C3129 0.930 . S
H3122 C3130 0.930 . S
H3123 C3131 0.930 . S
H3124 C3134 0.930 . S
H3125 C3135 0.930 . S
C3126 H3120 0.930 . S
C3126 C3127 1.355 . S
C3126 C3128 1.415 . S
C3127 C3126 1.355 . S
C3127 C3129 1.419 . S
C3128 C3126 1.415 . S
C3128 C3133 1.425 1_545 S
C3128 C3135 1.409 1_545 S
C3129 H3121 0.930 . S
C3129 C3127 1.419 . S
C3129 C3130 1.362 . S
C3130 H3122 0.930 . S
C3130 C3129 1.362 . S
C3130 C3133 1.409 1_545 S
C3131 H3123 0.930 . S
C3131 C3132 1.355 . S
C3131 C3133 1.415 . S
C3132 C3131 1.355 . S
C3132 C3134 1.419 . S
C3133 C3128 1.425 1_565 S
C3133 C3130 1.409 1_565 S
C3133 C3131 1.415 . S
C3134 H3124 0.930 . S
C3134 C3132 1.419 . S
C3134 C3135 1.362 . S
C3135 H3125 0.930 . S
C3135 C3128 1.409 1_565 S
C3135 C3134 1.362 . S
H3136 C3142 0.930 . S
H3137 C3145 0.930 . S
H3138 C3146 0.930 . S
H3139 C3147 0.930 . S
H3140 C3150 0.930 . S
H3141 C3151 0.930 . S
C3142 H3136 0.930 . S
C3142 C3143 1.355 . S
C3142 C3144 1.415 . S
C3143 C3142 1.355 . S
C3143 C3145 1.419 . S
C3144 C3142 1.415 . S
C3144 C3149 1.425 1_655 S
C3144 C3151 1.409 1_655 S
C3145 H3137 0.930 . S
C3145 C3143 1.419 . S
C3145 C3146 1.362 . S
C3146 H3138 0.930 . S
C3146 C3145 1.362 . S
C3146 C3149 1.409 1_655 S
C3147 H3139 0.930 . S
C3147 C3148 1.355 . S
C3147 C3149 1.415 . S
C3148 C3147 1.355 . S
C3148 C3150 1.419 . S
C3149 C3144 1.425 1_455 S
C3149 C3146 1.409 1_455 S
C3149 C3147 1.415 . S
C3150 H3140 0.930 . S
C3150 C3148 1.419 . S
C3150 C3151 1.362 . S
C3151 H3141 0.930 . S
C3151 C3144 1.409 1_455 S
C3151 C3150 1.362 . S
H3152 C3158 0.930 . S
H3153 C3161 0.930 . S
H3154 C3162 0.930 . S
H3155 C3163 0.930 . S
H3156 C3166 0.930 . S
H3157 C3167 0.930 . S
C3158 H3152 0.930 . S
C3158 C3159 1.355 . S
C3158 C3160 1.415 . S
C3159 C3158 1.355 . S
C3159 C3161 1.419 . S
C3160 C3158 1.415 . S
C3160 C3165 1.425 . S
C3160 C3167 1.409 . S
C3161 H3153 0.930 . S
C3161 C3159 1.419 . S
C3161 C3162 1.362 . S
C3162 H3154 0.930 . S
C3162 C3161 1.362 . S
C3162 C3165 1.409 . S
C3163 H3155 0.930 . S
C3163 C3164 1.355 . S
C3163 C3165 1.415 . S
C3164 C3163 1.355 . S
C3164 C3166 1.419 . S
C3165 C3160 1.425 . S
C3165 C3162 1.409 . S
C3165 C3163 1.415 . S
C3166 H3156 0.930 . S
C3166 C3164 1.419 . S
C3166 C3167 1.362 . S
C3167 H3157 0.930 . S
C3167 C3160 1.409 . S
C3167 C3166 1.362 . S
C1447 C6 1.921 . S
C1452 C290 1.916 . S
C1463 C330 1.918 . S
C1468 C46 1.908 . S
C1479 C250 1.949 . S
C1484 C86 1.932 . S
C1495 C450 1.915 . S
C1500 C126 1.910 . S
C1511 C166 1.936 . S
C1516 C370 1.951 . S
C1527 C206 1.931 . S
C1532 C410 1.921 . S
C1543 C59 1.951 . S
C1548 C255 1.947 . S
C1559 C295 1.944 . S
C1564 C99 1.953 . S
C1575 C19 1.939 . S
C1580 C335 1.946 . S
C1591 C219 1.950 . S
C1596 C375 1.933 . S
C1607 C415 1.927 . S
C1612 C139 1.947 . S
C1623 C455 1.947 . S
C1628 C179 1.939 . S
C1639 C486 1.910 . S
C1644 C770 1.929 . S
C1655 C810 1.943 . S
C1660 C526 1.948 . S
C1671 C730 1.924 . S
C1676 C566 1.908 . S
C1687 C606 1.948 . S
C1692 C930 1.949 . S
C1703 C850 1.946 . S
C1708 C646 1.927 . S
C1719 C686 1.910 . S
C1724 C890 1.928 . S
C1735 C735 1.916 . S
C1740 C539 1.936 . S
C1751 C579 1.926 . S
C1756 C775 1.937 . S
C1767 C815 1.915 . S
C1772 C499 1.936 . S
C1783 C699 1.952 . S
C1788 C855 1.945 . S
C1799 C619 1.939 . S
C1804 C895 1.918 . S
C1815 C935 1.935 . S
C1820 C659 1.951 . S
C1831 C966 1.918 . S
C1836 C1250 1.939 . S
C1847 C1006 1.948 . S
C1852 C1290 1.942 . S
C1863 C1210 1.919 . S
C1868 C1046 1.927 . S
C1879 C1410 1.952 . S
C1884 C1086 1.944 . S
C1895 C1126 1.935 . S
C1900 C1330 1.951 . S
C1911 C1370 1.950 . S
C1916 C1166 1.948 . S
C1927 C1019 1.915 . S
C1932 C1215 1.912 . S
C1943 C1255 1.908 . S
C1948 C1059 1.920 . S
C1959 C979 1.915 . S
C1964 C1295 1.909 . S
C1975 C1335 1.927 . S
C1980 C1179 1.947 . S
C1991 C1375 1.936 . S
C1996 C1099 1.926 . S
C2007 C1415 1.935 . S
C2012 C1139 1.951 . S
C2023 C10 2.304 . S
C2028 C739 2.304 . S
C2039 C50 2.310 . S
C2044 C779 2.310 . S
C2055 C819 2.297 . S
C2060 C90 2.297 . S
C2071 C1339 2.294 . S
C2076 C130 2.294 . S
C2087 C1379 2.280 . S
C2092 C170 2.280 . S
C2103 C1419 2.312 . S
C2108 C210 2.312 . S
C2119 C259 2.299 . S
C2124 C970 2.299 . S
C2135 C1010 2.274 . S
C2140 C299 2.274 . S
C2151 C339 2.318 . S
C2156 C1050 2.318 . S
C2167 C379 2.273 . S
C2172 C610 2.273 . S
C2183 C419 2.284 . S
C2188 C650 2.284 . S
C2199 C459 2.320 . S
C2204 C690 2.320 . S
C2215 C490 2.314 . S
C2220 C1219 2.314 . S
C2231 C1259 2.318 . S
C2236 C530 2.318 . S
C2247 C570 2.279 . S
C2252 C1299 2.279 . S
C2263 C1090 2.319 . S
C2268 C859 2.319 . S
C2279 C899 2.281 . S
C2284 C1130 2.281 . S
C2295 C1170 2.319 . S
C2300 C939 2.319 . S
C2311 C18 2.217 1_556 S
C2316 C658 2.261 . S
C2327 C58 2.254 1_556 S
C2332 C698 2.208 . S
C2343 C618 2.270 . S
C2348 C98 2.238 1_556 S
C2359 C138 2.269 . S
C2364 C1058 2.236 . S
C2375 C978 2.200 . S
C2380 C178 2.199 . S
C2391 C218 2.220 . S
C2396 C1018 2.192 . S
C2407 C1369 2.193 . S
C2412 C249 2.229 1_554 S
C2423 C289 2.258 1_554 S
C2428 C1409 2.267 . S
C2439 C1329 2.199 . S
C2444 C329 2.200 1_554 S
C2455 C369 2.233 . S
C2460 C809 2.195 . S
C2471 C409 2.270 . S
C2476 C729 2.249 . S
C2487 C449 2.270 . S
C2492 C769 2.246 . S
C2503 C1138 2.199 . S
C2508 C498 2.199 . S
C2519 C538 2.193 . S
C2524 C1178 2.226 . S
C2535 C578 2.269 . S
C2540 C1098 2.254 . S
C2551 C1289 2.234 . S
C2556 C849 2.195 . S
C2567 C1209 2.236 . S
C2572 C889 2.196 . S
C2583 C1249 2.269 . S
C2588 C929 2.234 . S
C2599 C129 2.771 . S
C2604 C9 2.783 . S
C2615 C49 2.771 . S
C2620 C169 2.763 . S
C2631 C89 2.768 . S
C2636 C209 2.778 . S
C2647 C378 2.762 . S
C2652 C258 2.765 . S
C2663 C298 2.763 . S
C2668 C418 2.769 . S
C2679 C458 2.788 . S
C2684 C338 2.799 . S
C2695 C609 2.782 . S
C2700 C489 2.770 . S
C2711 C529 2.789 . S
C2716 C649 2.776 . S
C2727 C569 2.767 . S
C2732 C689 2.778 . S
C2743 C738 2.762 . S
C2748 C858 2.766 1_554 S
C2759 C778 2.799 . S
C2764 C898 2.788 1_554 S
C2775 C818 2.798 . S
C2780 C938 2.787 1_554 S
C2791 C969 2.805 . S
C2796 C1089 2.804 1_556 S
C2807 C1129 2.804 1_556 S
C2812 C1009 2.796 . S
C2823 C1169 2.791 1_556 S
C2828 C1049 2.779 . S
C2839 C1218 2.763 . S
C2844 C1338 2.770 . S
C2855 C1378 2.785 . S
C2860 C1258 2.797 . S
C2871 C1298 2.784 . S
C2876 C1418 2.772 . S
C2887 C15 0.201 . S
C2892 C1175 0.398 . S
C2903 C1095 0.411 . S
C2908 C55 0.355 . S
C2919 C95 0.402 . S
C2924 C1135 0.371 . S
C2935 C535 0.412 . S
C2940 C135 0.233 . S
C2951 C175 0.170 . S
C2956 C575 0.303 . S
C2967 C215 0.243 . S
C2972 C495 0.218 . S
C2983 C926 0.225 . S
C2988 C246 0.235 . S
C2999 C286 0.288 . S
C3004 C846 0.180 . S
C3015 C886 0.422 . S
C3020 C326 0.316 . S
C3031 C366 0.264 . S
C3036 C1246 0.420 . S
C3047 C1286 0.330 . S
C3052 C406 0.160 . S
C3063 C1206 0.172 . S
C3068 C446 0.301 . S
C3079 C615 0.423 . S
C3084 C1015 0.287 . S
C3095 C655 0.396 . S
C3100 C1055 0.380 . S
C3111 C695 0.315 . S
C3116 C975 0.165 . S
C3127 C726 0.270 . S
C3132 C1406 0.421 . S
C3143 C766 0.249 . S
C3148 C1326 0.417 . S
C3159 C1366 0.394 . S
C3164 C806 0.383 . S
