# Generated by pormake.
# Topology smc, (6)-cn, num edge types: 1
# Building blocks:
#     Node 0, Type 0, BuildingBlock: BETDEL_clean_sbu_0, # of connection points: 6
#     Node 1, Type 0, BuildingBlock: BETDEL_clean_sbu_0, # of connection points: 6
#     Node 2, Type 0, BuildingBlock: BETDEL_clean_sbu_0, # of connection points: 6
#     Node 3, Type 0, BuildingBlock: BETDEL_clean_sbu_0, # of connection points: 6
#     Node 4, Type 0, BuildingBlock: BETDEL_clean_sbu_0, # of connection points: 6
#     Node 5, Type 0, BuildingBlock: BETDEL_clean_sbu_0, # of connection points: 6
#     Node 6, Type 0, BuildingBlock: BETDEL_clean_sbu_0, # of connection points: 6
#     Node 7, Type 0, BuildingBlock: BETDEL_clean_sbu_0, # of connection points: 6
#     Node 8, Type 0, BuildingBlock: BETDEL_clean_sbu_0, # of connection points: 6
#     Edge 9, Type (0, 0), BuildingBlock: CIFDUS_clean_linker_0, # of connection points: 2
#     Edge 10, Type (0, 0), BuildingBlock: CIFDUS_clean_linker_0, # of connection points: 2
#     Edge 11, Type (0, 0), BuildingBlock: CIFDUS_clean_linker_0, # of connection points: 2
#     Edge 12, Type (0, 0), BuildingBlock: CIFDUS_clean_linker_0, # of connection points: 2
#     Edge 13, Type (0, 0), BuildingBlock: CIFDUS_clean_linker_0, # of connection points: 2
#     Edge 14, Type (0, 0), BuildingBlock: CIFDUS_clean_linker_0, # of connection points: 2
#     Edge 15, Type (0, 0), BuildingBlock: CIFDUS_clean_linker_0, # of connection points: 2
#     Edge 16, Type (0, 0), BuildingBlock: CIFDUS_clean_linker_0, # of connection points: 2
#     Edge 17, Type (0, 0), BuildingBlock: CIFDUS_clean_linker_0, # of connection points: 2
#     Edge 18, Type (0, 0), BuildingBlock: CIFDUS_clean_linker_0, # of connection points: 2
#     Edge 19, Type (0, 0), BuildingBlock: CIFDUS_clean_linker_0, # of connection points: 2
#     Edge 20, Type (0, 0), BuildingBlock: CIFDUS_clean_linker_0, # of connection points: 2
#     Edge 21, Type (0, 0), BuildingBlock: CIFDUS_clean_linker_0, # of connection points: 2
#     Edge 22, Type (0, 0), BuildingBlock: CIFDUS_clean_linker_0, # of connection points: 2
#     Edge 23, Type (0, 0), BuildingBlock: CIFDUS_clean_linker_0, # of connection points: 2
#     Edge 24, Type (0, 0), BuildingBlock: CIFDUS_clean_linker_0, # of connection points: 2
#     Edge 25, Type (0, 0), BuildingBlock: CIFDUS_clean_linker_0, # of connection points: 2
#     Edge 26, Type (0, 0), BuildingBlock: CIFDUS_clean_linker_0, # of connection points: 2
#     Edge 27, Type (0, 0), BuildingBlock: CIFDUS_clean_linker_0, # of connection points: 2
#     Edge 28, Type (0, 0), BuildingBlock: CIFDUS_clean_linker_0, # of connection points: 2
#     Edge 29, Type (0, 0), BuildingBlock: CIFDUS_clean_linker_0, # of connection points: 2
#     Edge 30, Type (0, 0), BuildingBlock: CIFDUS_clean_linker_0, # of connection points: 2
#     Edge 31, Type (0, 0), BuildingBlock: CIFDUS_clean_linker_0, # of connection points: 2
#     Edge 32, Type (0, 0), BuildingBlock: CIFDUS_clean_linker_0, # of connection points: 2
#     Edge 33, Type (0, 0), BuildingBlock: CIFDUS_clean_linker_0, # of connection points: 2
#     Edge 34, Type (0, 0), BuildingBlock: CIFDUS_clean_linker_0, # of connection points: 2
#     Edge 35, Type (0, 0), BuildingBlock: CIFDUS_clean_linker_0, # of connection points: 2
# Relax obj value: 0.157
# Max RMSD: 0.268
# Mean RMSD: 0.268
data_MOF--net-smc--node1-BETDEL_clean_sbu_0--edge1-CIFDUS_clean_linker_0
_symmetry_space_group_name_H-M    P1
_symmetry_Int_Tables_number       1
_symmetry_cell_setting            triclinic
loop_
_symmetry_equiv_pos_as_xyz
'x, y, z'
_cell_length_a     28.454568
_cell_length_b     28.474302
_cell_length_c     34.635396
_cell_angle_alpha  90.129233
_cell_angle_beta   90.156206
_cell_angle_gamma 119.90477
loop_
_atom_site_label
_atom_site_type_symbol
_atom_site_fract_x
_atom_site_fract_y
_atom_site_fract_z
_atom_type_partial_charge
Dy0 Dy 0.05564 0.50513 1.02553 0.0
C1 C 0.87777 0.29437 1.02467 0.0
C2 C 0.12974 0.61454 1.02241 0.0
Dy3 Dy 0.97482 0.38745 0.03723 0.0
O4 O 0.13358 0.57612 1.00518 0.0
O5 O 0.08539 0.59316 0.04256 0.0
O6 O 0.07249 0.48596 0.96578 0.0
O7 O 0.99464 0.44063 0.98769 0.0
C8 C 0.02472 0.44488 0.95964 0.0
C9 C 0.0185 0.4218 0.10755 0.0
O10 O 0.05252 0.38761 1.01949 0.0
O11 O 0.1025 0.4701 0.04919 0.0
O12 O 0.92144 0.29535 0.03762 0.0
O13 O 0.88906 0.34316 1.01655 0.0
O14 O 0.97878 0.37372 0.09957 0.0
O15 O 0.03196 0.45214 0.07754 0.0
O16 O 0.98424 0.51554 0.03273 0.0
O17 O 0.92514 0.42715 0.05043 0.0
C18 C 0.09983 0.42674 0.03344 0.0
C19 C 0.93617 0.47746 0.04408 0.0
Dy20 Dy 0.52152 0.55011 1.02522 0.0
C21 C 0.72853 0.58797 0.03173 0.0
C22 C 0.41471 0.52255 1.01752 0.0
Dy23 Dy 0.63524 0.59106 0.0418 0.0
O24 O 0.43212 0.48832 1.01812 0.0
O25 O 0.45561 0.57133 1.02049 0.0
O26 O 0.53421 0.51885 0.9676 0.0
O27 O 0.59549 0.59121 0.98897 0.0
C28 C 0.58337 0.55762 0.96208 0.0
C29 C 0.59648 0.59054 0.11184 0.0
O30 O 0.63795 0.67172 1.02896 0.0
O31 O 0.54571 0.63407 0.03757 0.0
O32 O 0.72706 0.63087 0.04346 0.0
O33 O 0.68004 0.54932 1.0238 0.0
O34 O 0.64593 0.603 0.10462 0.0
O35 O 0.56754 0.57592 0.08097 0.0
O36 O 0.51173 0.48251 0.06039 0.0
O37 O 0.59217 0.49845 0.03692 0.0
C38 C 0.59381 0.6768 0.03263 0.0
C39 C 0.54416 0.46441 0.05155 0.0
Dy40 Dy 0.47011 0.97638 1.02043 0.0
C41 C 0.41451 0.14305 0.04746 0.0
C42 C 0.50305 0.90103 1.0219 0.0
Dy43 Dy 0.42838 0.05482 0.04043 0.0
O44 O 0.52874 0.94812 0.03874 0.0
O45 O 0.45975 0.89544 1.00495 0.0
O46 O 0.48293 0.99408 0.95539 0.0
O47 O 0.4558 0.03403 0.98929 0.0
C48 C 0.46652 0.02925 0.95485 0.0
C49 C 0.43528 1.00155 0.1038 0.0
O50 O 0.34729 0.97928 1.02492 0.0
O51 O 0.38158 0.91966 1.02289 0.0
O52 O 0.41133 0.11107 0.0752 0.0
O53 O 0.41882 0.12249 1.01503 0.0
O54 O 0.45355 0.05326 0.10167 0.0
O55 O 0.42269 0.98346 0.0695 0.0
O56 O 0.54486 0.04499 0.04536 0.0
O57 O 0.51896 0.10821 0.03326 0.0
C58 C 0.34059 0.92932 1.021 0.0
C59 C 0.55702 0.09567 0.04105 0.0
Dy60 Dy 0.72187 0.83744 0.36185 0.0
C61 C 0.55077 0.61886 0.37729 0.0
C62 C 0.78886 0.94824 0.36137 0.0
Dy63 Dy 0.64104 0.72155 0.37584 0.0
O64 O 0.76568 0.91786 0.33146 0.0
O65 O 0.77671 0.91787 0.39186 0.0
O66 O 0.72754 0.81901 0.29942 0.0
O67 O 0.65311 0.77487 0.32765 0.0
C68 C 0.67838 0.77858 0.29666 0.0
C69 C 0.69148 0.77452 0.44223 0.0
O70 O 0.71367 0.71371 0.35619 0.0
O71 O 0.77818 0.8051 0.36413 0.0
O72 O 0.5805 0.6456 0.40667 0.0
O73 O 0.57394 0.64701 0.3467 0.0
O74 O 0.64004 0.7407 0.43853 0.0
O75 O 0.71286 0.78095 0.40914 0.0
O76 O 0.65383 0.84793 0.38351 0.0
O77 O 0.58846 0.7595 0.3731 0.0
C78 C 0.76515 0.75433 0.35688 0.0
C79 C 0.60255 0.81026 0.38095 0.0
Dy80 Dy 0.18372 0.88236 0.35872 0.0
C81 C 0.40121 0.92923 0.3771 0.0
C82 C 0.07362 0.84072 0.36361 0.0
Dy83 Dy 0.30122 0.92117 0.37926 0.0
O84 O 0.09874 0.83883 0.33279 0.0
O85 O 0.10876 0.866 0.39085 0.0
O86 O 0.20711 0.91098 0.29657 0.0
O87 O 0.25266 0.88558 0.32816 0.0
C88 C 0.25122 0.90781 0.29696 0.0
C89 C 0.24123 0.90772 0.44344 0.0
O90 O 0.30451 1.00201 0.36483 0.0
O91 O 0.21099 0.96881 0.36254 0.0
O92 O 0.39106 0.96278 0.39624 0.0
O93 O 0.3583 0.89516 0.35849 0.0
O94 O 0.27972 0.89604 0.44066 0.0
O95 O 0.23579 0.92412 0.41044 0.0
O96 O 0.17361 0.80318 0.37714 0.0
O97 O 0.26457 0.83039 0.37881 0.0
C98 C 0.26137 0.00942 0.36301 0.0
C99 C 0.21306 0.79207 0.3801 0.0
Dy100 Dy 0.13862 0.30413 0.36523 0.0
C101 C 0.09489 0.472 0.38073 0.0
C102 C 0.17765 0.23414 0.35303 0.0
Dy103 Dy 0.10577 0.3824 0.38807 0.0
O104 O 0.19398 0.27977 0.33556 0.0
O105 O 0.13804 0.22535 0.37602 0.0
O106 O 0.16178 0.34823 0.30622 0.0
O107 O 0.09582 0.33951 0.33533 0.0
C108 C 0.12301 0.35957 0.30563 0.0
C109 C 0.12195 0.34034 0.45322 0.0
O110 O 0.0221 0.30568 0.38465 0.0
O111 O 0.05098 0.24446 0.36698 0.0
O112 O 0.07045 0.43479 0.40703 0.0
O113 O 0.12148 0.45778 0.35772 0.0
O114 O 0.13726 0.39116 0.44801 0.0
O115 O 0.10487 0.31581 0.42101 0.0
O116 O 0.2103 0.36292 0.39761 0.0
O117 O 0.19695 0.43006 0.37635 0.0
C118 C 0.01231 0.25539 0.37647 0.0
C119 C 0.23045 0.41353 0.3882 0.0
Dy120 Dy 0.37807 0.17374 0.68988 0.0
C121 C 0.21917 0.94778 0.70381 0.0
C122 C 0.44196 0.28441 0.68914 0.0
Dy123 Dy 0.30433 0.05165 0.70918 0.0
O124 O 0.39694 0.25688 0.67015 0.0
O125 O 0.45235 0.25145 0.70851 0.0
O126 O 0.36573 0.16629 0.62431 0.0
O127 O 0.3265 0.09954 0.65822 0.0
C128 C 0.33243 0.11445 0.62358 0.0
C129 C 0.34649 0.11331 0.77366 0.0
O130 O 0.38692 0.05615 0.70027 0.0
O131 O 0.4395 0.149 0.68593 0.0
O132 O 0.25637 0.96499 0.7307 0.0
O133 O 0.23177 0.9861 0.67898 0.0
O134 O 0.29722 0.07305 0.77008 0.0
O135 O 0.36948 0.12078 0.74088 0.0
O136 O 0.3097 0.17496 0.71879 0.0
O137 O 0.24768 0.086 0.70575 0.0
C138 C 0.43474 0.10119 0.69323 0.0
C139 C 0.25934 0.13594 0.71472 0.0
Dy140 Dy 0.85061 0.21083 0.69686 0.0
C141 C 0.07196 0.27032 0.70164 0.0
C142 C 0.73933 0.16178 0.69717 0.0
Dy143 Dy 0.96754 0.2505 0.70815 0.0
O144 O 0.76717 0.14565 0.67718 0.0
O145 O 0.77234 0.20506 0.71652 0.0
O146 O 0.86715 0.24166 0.63559 0.0
O147 O 0.91394 0.21168 0.65961 0.0
C148 C 0.90856 0.23496 0.63032 0.0
C149 C 0.91727 0.24062 0.77691 0.0
O150 O 0.96933 0.32987 0.69256 0.0
O151 O 0.87709 0.2977 0.7011 0.0
O152 O 0.05346 0.28551 0.73046 0.0
O153 O 0.03445 0.24848 0.67551 0.0
O154 O 0.95307 0.22609 0.77012 0.0
O155 O 0.90732 0.25613 0.74513 0.0
O156 O 0.84585 0.13714 0.72275 0.0
O157 O 0.9326 0.15981 0.70683 0.0
C158 C 0.92673 0.33778 0.6945 0.0
C159 C 0.8829 0.12319 0.71714 0.0
Dy160 Dy 0.80513 0.63707 0.69591 0.0
C161 C 0.74751 0.80028 0.7095 0.0
C162 C 0.8416 0.56425 0.68681 0.0
Dy163 Dy 0.76857 0.71581 0.71354 0.0
O164 O 0.8039 0.56586 0.66676 0.0
O165 O 0.85998 0.60291 0.71244 0.0
O166 O 0.77351 0.63165 0.63471 0.0
O167 O 0.80748 0.70487 0.6637 0.0
C168 C 0.78468 0.68148 0.63267 0.0
C169 C 0.78347 0.67423 0.7797 0.0
O170 O 0.68705 0.63681 0.70167 0.0
O171 O 0.72168 0.57992 0.71321 0.0
O172 O 0.73943 0.76987 0.7395 0.0
O173 O 0.76354 0.78179 0.68128 0.0
O174 O 0.79782 0.72474 0.77437 0.0
O175 O 0.76508 0.64889 0.7479 0.0
O176 O 0.88566 0.70563 0.71287 0.0
O177 O 0.85966 0.77048 0.71226 0.0
C178 C 0.6799 0.58695 0.70699 0.0
C179 C 0.89771 0.75662 0.71477 0.0
H180 H 0.32069 0.42958 0.99498 0.0
H181 H 0.38134 0.58543 0.05053 0.0
H182 H 0.2896 0.56528 0.06354 0.0
H183 H 0.19488 0.50627 0.05955 0.0
H184 H 0.12647 0.35459 0.99718 0.0
H185 H 0.21903 0.36959 0.98717 0.0
C186 C 0.31339 0.45897 1.0097 0.0
C187 C 0.35776 0.50901 1.02187 0.0
C188 C 0.25964 0.4477 1.0162 0.0
C189 C 0.34808 0.54695 0.04068 0.0
C190 C 0.2956 0.53533 0.04837 0.0
C191 C 0.1991 0.47578 0.04358 0.0
C192 C 0.15309 0.42905 1.0292 0.0
C193 C 0.25142 0.48608 0.03632 0.0
C194 C 0.16088 0.39069 1.00889 0.0
C195 C 0.21385 0.3996 1.00293 0.0
H196 H 0.60329 0.90664 1.03053 0.0
H197 H 0.43097 0.79604 1.01956 0.0
H198 H 0.44587 0.7196 1.02114 0.0
H199 H 0.50467 0.6841 1.02306 0.0
H200 H 0.67808 0.78644 0.03517 0.0
H201 H 0.66613 0.86693 0.03393 0.0
C202 C 0.56932 0.86567 1.02864 0.0
C203 C 0.51592 0.85689 1.02465 0.0
C204 C 0.57834 0.82091 1.02896 0.0
C205 C 0.47225 0.80387 1.02212 0.0
C206 C 0.48074 0.76008 1.02303 0.0
C207 C 0.54072 0.72357 1.02597 0.0
C208 C 0.59244 0.72857 1.02982 0.0
C209 C 0.53332 0.76823 1.02599 0.0
C210 C 0.63776 0.78099 0.03232 0.0
C211 C 0.63073 0.82691 0.03183 0.0
H212 H 0.31745 0.84559 0.97549 0.0
H213 H 0.24549 0.89849 0.06201 0.0
H214 H 0.17123 0.80438 0.0699 0.0
H215 H 0.13263 0.7046 0.05658 0.0
H216 H 0.21452 0.65636 0.97421 0.0
H217 H 0.27963 0.75048 0.96128 0.0
C218 C 0.28473 0.83685 0.99545 0.0
C219 C 0.28687 0.87916 1.01786 0.0
C220 C 0.24468 0.78285 1.00141 0.0
C221 C 0.24444 0.86702 0.04382 0.0
C222 C 0.20253 0.81293 0.04882 0.0
C223 C 0.16468 0.71494 0.03577 0.0
C224 C 0.16859 0.67317 1.01641 0.0
C225 C 0.2032 0.77012 1.02864 0.0
C226 C 0.21043 0.6873 0.98959 0.0
C227 C 0.24766 0.74129 0.98196 0.0
H228 H 0.39354 0.21639 1.01224 0.0
H229 H 0.49962 0.20207 0.09436 0.0
H230 H 0.55342 0.3005 0.10043 0.0
H231 H 0.56949 0.3918 0.08349 0.0
H232 H 0.45921 0.40543 1.00504 0.0
H233 H 0.4081 0.30725 0.9966 0.0
C234 C 0.42791 0.23503 0.03184 0.0
C235 C 0.44183 0.20221 0.05347 0.0
C236 C 0.45826 0.29185 0.03574 0.0
C237 C 0.48713 0.22665 0.07829 0.0
C238 C 0.51833 0.28297 0.08149 0.0
C239 C 0.5347 0.37305 0.06427 0.0
C240 C 0.51835 0.40554 0.04465 0.0
C241 C 0.50427 0.31615 0.06047 0.0
C242 C 0.47263 0.38098 1.02027 0.0
C243 C 0.44323 0.32485 1.01551 0.0
H244 H 0.64712 0.08392 0.04449 0.0
H245 H 0.59814 0.20496 0.03703 0.0
H246 H 0.69258 0.27563 1.03032 0.0
H247 H 0.78816 0.30306 1.02405 0.0
H248 H 0.84004 0.18483 0.03388 0.0
H249 H 0.74505 0.11273 0.04157 0.0
C250 C 0.65706 0.1258 0.04169 0.0
C251 C 0.61515 0.13885 0.04092 0.0
C252 C 0.71181 0.16655 0.03762 0.0
C253 C 0.62915 0.19346 0.03741 0.0
C254 C 0.68325 0.23399 0.03344 0.0
C255 C 0.77884 0.26144 1.02757 0.0
C256 C 0.82105 0.24912 1.0277 0.0
C257 C 0.7247 0.22089 0.03287 0.0
C258 C 0.80824 0.19521 0.0332 0.0
C259 C 0.75398 0.15414 0.03777 0.0
H260 H 0.94485 0.57748 0.04291 0.0
H261 H 0.82771 0.40666 0.05034 0.0
H262 H 0.754 0.42667 0.04662 0.0
H263 H 0.72267 0.49161 0.03812 0.0
H264 H 0.83763 0.66276 0.03359 0.0
H265 H 0.91276 0.64368 0.03897 0.0
C266 C 0.9032 0.54464 0.04402 0.0
C267 C 0.89195 0.49054 0.0466 0.0
C268 C 0.86078 0.55644 0.04187 0.0
C269 C 0.83771 0.4486 0.0484 0.0
C270 C 0.79544 0.45997 0.04603 0.0
C271 C 0.76421 0.52485 0.03809 0.0
C272 C 0.77489 0.57852 0.03468 0.0
C273 C 0.80656 0.51357 0.0421 0.0
C274 C 0.82867 0.62116 0.03571 0.0
C275 C 0.87143 0.61018 0.0389 0.0
H276 H 0.8355 0.77137 0.41296 0.0
H277 H 0.80198 0.72374 0.29371 0.0
H278 H 0.89597 0.74347 0.28504 0.0
H279 H 0.99141 0.78718 0.31 0.0
H280 H 0.02256 0.84155 0.42862 0.0
H281 H 0.92652 0.80769 0.43877 0.0
C282 C 0.84833 0.76358 0.38542 0.0
C283 C 0.81179 0.74528 0.35426 0.0
C284 C 0.90275 0.77811 0.38029 0.0
C285 C 0.82903 0.73635 0.31843 0.0
C286 C 0.8831 0.74877 0.31334 0.0
C287 C 0.97692 0.7911 0.33807 0.0
C288 C 0.01429 0.8173 0.36845 0.0
C289 C 0.92098 0.77182 0.34374 0.0
C290 C 0.99491 0.82195 0.40469 0.0
C291 C 0.93985 0.80236 0.41063 0.0
H292 H 0.16872 0.15814 0.40341 0.0
H293 H 0.25038 0.23915 0.29904 0.0
H294 H 0.29386 0.18327 0.29543 0.0
H295 H 0.29935 0.10258 0.31865 0.0
H296 H 0.21992 0.02806 0.42542 0.0
H297 H 0.18659 0.09056 0.43188 0.0
C298 C 0.19606 0.16361 0.37988 0.0
C299 C 0.20487 0.20132 0.35089 0.0
C300 C 0.22223 0.13283 0.37874 0.0
C301 C 0.24175 0.20917 0.3212 0.0
C302 C 0.26693 0.17748 0.31927 0.0
C303 C 0.27728 0.10209 0.34425 0.0
C304 C 0.26403 0.06154 0.37221 0.0
C305 C 0.25663 0.13817 0.34754 0.0
C306 C 0.23349 0.0604 0.40454 0.0
C307 C 0.21278 0.09529 0.40775 0.0
H308 H 0.9352 0.19676 0.32334 0.0
H309 H 0.97563 0.20316 0.44372 0.0
H310 H 0.9081 0.10716 0.45081 0.0
H311 H 0.84525 0.01848 0.42048 0.0
H312 H 0.80622 0.01286 0.29954 0.0
H313 H 0.86424 0.1109 0.29503 0.0
C314 C 0.92716 0.17762 0.35146 0.0
C315 C 0.95898 0.20725 0.38321 0.0
C316 C 0.88926 0.12199 0.35499 0.0
C317 C 0.95003 0.18157 0.41922 0.0
C318 C 0.91215 0.12638 0.42309 0.0
C319 C 0.84918 0.03888 0.39327 0.0
C320 C 0.82221 0.00824 0.36022 0.0
C321 C 0.88282 0.09566 0.39083 0.0
C322 C 0.82728 0.03531 0.32525 0.0
C323 C 0.8603 0.0915 0.32265 0.0
H324 H 0.12125 0.70433 0.40778 0.0
H325 H 0.27314 0.75052 0.3512 0.0
H326 H 0.24739 0.65547 0.34396 0.0
H327 H 0.18203 0.5597 0.35282 0.0
H328 H 0.03381 0.51121 0.41492 0.0
H329 H 0.05738 0.60673 0.42061 0.0
C330 C 0.14879 0.69345 0.39415 0.0
C331 C 0.19906 0.73449 0.38 0.0
C332 C 0.1341 0.63843 0.39071 0.0
C333 C 0.23451 0.71988 0.36266 0.0
C334 C 0.21963 0.66548 0.35822 0.0
C335 C 0.15449 0.56987 0.36731 0.0
C336 C 0.1057 0.52846 0.38281 0.0
C337 C 0.16945 0.62452 0.37185 0.0
C338 C 0.07122 0.5424 0.40235 0.0
C339 C 0.08489 0.59696 0.40574 0.0
H340 H 0.2981 0.52373 0.39702 0.0
H341 H 0.29718 0.37582 0.36817 0.0
H342 H 0.39519 0.42511 0.36108 0.0
H343 H 0.4829 0.51048 0.36418 0.0
H344 H 0.48545 0.65758 0.397 0.0
H345 H 0.38644 0.60922 0.40137 0.0
C346 C 0.31948 0.50254 0.38908 0.0
C347 C 0.2902 0.44616 0.38335 0.0
C348 C 0.37663 0.5311 0.38589 0.0
C349 C 0.31862 0.41917 0.37323 0.0
C350 C 0.37487 0.44733 0.36903 0.0
C351 C 0.46156 0.53162 0.37238 0.0
C352 C 0.49109 0.58727 0.38038 0.0
C353 C 0.40451 0.50324 0.37558 0.0
C354 C 0.46322 0.61452 0.39087 0.0
C355 C 0.40663 0.58692 0.39334 0.0
H356 H 0.3953 0.8339 0.3697 0.0
H357 H 0.50904 1.00089 0.39668 0.0
H358 H 0.58242 0.97864 0.40148 0.0
H359 H 0.61347 0.91067 0.39549 0.0
H360 H 0.49463 0.74383 0.37027 0.0
H361 H 0.42375 0.76725 0.36768 0.0
C362 C 0.43619 0.86577 0.37658 0.0
C363 C 0.44705 0.91916 0.38223 0.0
C364 C 0.47708 0.8525 0.37976 0.0
C365 C 0.49987 0.95955 0.392 0.0
C366 C 0.54164 0.94673 0.39468 0.0
C367 C 0.57199 0.87943 0.38974 0.0
C368 C 0.55968 0.82544 0.38291 0.0
C369 C 0.5307 0.89321 0.3883 0.0
C370 C 0.50561 0.78555 0.37565 0.0
C371 C 0.46487 0.79891 0.37401 0.0
H372 H 0.68092 0.20148 0.72985 0.0
H373 H 0.66333 0.06479 0.66458 0.0
H374 H 0.56464 0.02767 0.66094 0.0
H375 H 0.48381 0.04049 0.67067 0.0
H376 H 0.5064 0.17659 0.74005 0.0
H377 H 0.60179 0.20754 0.74694 0.0
C378 C 0.65551 0.16331 0.71508 0.0
C379 C 0.67942 0.13653 0.69692 0.0
C380 C 0.59928 0.14232 0.71329 0.0
C381 C 0.64586 0.08682 0.67816 0.0
C382 C 0.58939 0.06552 0.67616 0.0
C383 C 0.50937 0.07575 0.68824 0.0
C384 C 0.48777 0.10652 0.7042 0.0
C385 C 0.5655 0.09363 0.69285 0.0
C386 C 0.52182 0.15234 0.72694 0.0
C387 C 0.5767 0.17043 0.73095 0.0
H388 H 0.8606 0.35746 0.65214 0.0
H389 H 0.99918 0.43699 0.72761 0.0
H390 H 0.98663 0.5166 0.73143 0.0
H391 H 0.92888 0.55904 0.71821 0.0
H392 H 0.789 0.47395 0.64382 0.0
H393 H 0.80854 0.40077 0.6355 0.0
C394 C 0.88891 0.39277 0.66878 0.0
C395 C 0.93092 0.39149 0.68936 0.0
C396 C 0.88018 0.43692 0.67182 0.0
C397 C 0.96711 0.43734 0.71093 0.0
C398 C 0.95928 0.48244 0.71358 0.0
C399 C 0.90307 0.52459 0.70002 0.0
C400 C 0.85728 0.52199 0.68178 0.0
C401 C 0.91481 0.48201 0.69505 0.0
C402 C 0.8244 0.4772 0.65816 0.0
C403 C 0.83558 0.43521 0.65328 0.0
H404 H 0.58818 0.53725 0.66011 0.0
H405 H 0.65677 0.5208 0.76705 0.0
H406 H 0.58726 0.42777 0.77232 0.0
H407 H 0.51544 0.34638 0.74265 0.0
H408 H 0.44396 0.35634 0.63556 0.0
H409 H 0.50576 0.45486 0.63381 0.0
C410 C 0.58619 0.51387 0.68534 0.0
C411 C 0.62676 0.53755 0.71402 0.0
C412 C 0.54667 0.45799 0.68743 0.0
C413 C 0.62472 0.50552 0.74569 0.0
C414 C 0.5856 0.45123 0.74827 0.0
C415 C 0.51306 0.37019 0.7191 0.0
C416 C 0.47607 0.3442 0.68902 0.0
C417 C 0.5478 0.42651 0.71867 0.0
C418 C 0.47272 0.37558 0.65895 0.0
C419 C 0.50798 0.43195 0.65798 0.0
H420 H 0.84695 0.88597 0.7007 0.0
H421 H 0.68246 0.84333 0.72647 0.0
H422 H 0.71029 0.93991 0.73256 0.0
H423 H 0.78166 0.03634 0.72958 0.0
H424 H 0.94704 0.07777 0.70652 0.0
H425 H 0.91888 0.98176 0.70129 0.0
C426 C 0.8172 0.898 0.70743 0.0
C427 C 0.76259 0.85795 0.71246 0.0
C428 C 0.83387 0.95327 0.71187 0.0
C429 C 0.72456 0.87363 0.7221 0.0
C430 C 0.74058 0.92876 0.72569 0.0
C431 C 0.81175 0.0245 0.72376 0.0
C432 C 0.86654 0.06464 0.71826 0.0
C433 C 0.79519 0.96897 0.72063 0.0
C434 C 0.9047 0.04812 0.71078 0.0
C435 C 0.88856 0.9931 0.7076 0.0
H436 H 0.98583 0.74437 0.72838 0.0
H437 H 0.94078 0.86529 0.70311 0.0
H438 H 0.0362 0.93402 0.69735 0.0
H439 H 0.13192 0.95904 0.69612 0.0
H440 H 0.17917 0.84125 0.72496 0.0
H441 H 0.08312 0.77157 0.73235 0.0
C442 C 0.99683 0.78582 0.72185 0.0
C443 C 0.95588 0.79935 0.71574 0.0
C444 C 0.05205 0.82541 0.71872 0.0
C445 C 0.97113 0.85349 0.70783 0.0
C446 C 0.02578 0.89286 0.70433 0.0
C447 C 0.12115 0.91797 0.70387 0.0
C448 C 0.16224 0.90472 0.70919 0.0
C449 C 0.0664 0.87904 0.70902 0.0
C450 C 0.14806 0.85201 0.72033 0.0
C451 C 0.09326 0.81239 0.72458 0.0
H452 H 0.27136 0.23531 0.72993 0.0
H453 H 0.1504 0.07088 0.70088 0.0
H454 H 0.08253 0.09905 0.69353 0.0
H455 H 0.0589 0.17123 0.69176 0.0
H456 H 0.17807 0.33452 0.7235 0.0
H457 H 0.2461 0.3062 0.73258 0.0
C458 C 0.23008 0.20535 0.72228 0.0
C459 C 0.21626 0.15098 0.71553 0.0
C460 C 0.19141 0.22194 0.71779 0.0
C461 C 0.16235 0.11292 0.70604 0.0
C462 C 0.12358 0.1291 0.7016 0.0
C463 C 0.1 0.20067 0.70032 0.0
C464 C 0.11423 0.25517 0.70602 0.0
C465 C 0.13799 0.18366 0.70657 0.0
C466 C 0.16677 0.29264 0.71838 0.0
C467 C 0.20538 0.27632 0.72373 0.0
H468 H 0.17407 0.42167 0.23962 0.0
H469 H 0.01821 0.32867 0.2946 0.0
H470 H 0.97425 0.3461 0.24112 0.0
H471 H 0.97727 0.38168 0.17687 0.0
H472 H 0.13044 0.47789 0.12022 0.0
H473 H 0.1777 0.46671 0.17583 0.0
C474 C 0.13057 0.40531 0.23978 0.0
C475 C 0.09968 0.37302 0.27125 0.0
C476 C 0.10476 0.41657 0.20861 0.0
C477 C 0.04336 0.35321 0.27103 0.0
C478 C 0.01787 0.36328 0.24034 0.0
C479 C 0.02122 0.40154 0.17702 0.0
C480 C 0.04993 0.43064 0.1442 0.0
C481 C 0.04788 0.39434 0.20886 0.0
C482 C 0.10691 0.45568 0.14499 0.0
C483 C 0.13401 0.44861 0.17679 0.0
H484 H 0.61411 0.66893 0.28282 0.0
H485 H 0.69153 0.82343 0.22581 0.0
H486 H 0.6626 0.77817 0.16305 0.0
H487 H 0.62501 0.69461 0.12399 0.0
H488 H 0.55301 0.53977 0.18033 0.0
H489 H 0.56754 0.58447 0.24351 0.0
C490 C 0.62266 0.69268 0.25691 0.0
C491 C 0.65398 0.74974 0.25939 0.0
C492 C 0.60663 0.66601 0.22059 0.0
C493 C 0.66725 0.77963 0.22495 0.0
C494 C 0.65066 0.75369 0.18896 0.0
C495 C 0.61033 0.67053 0.15004 0.0
C496 C 0.58625 0.61367 0.14728 0.0
C497 C 0.6214 0.69688 0.18632 0.0
C498 C 0.56979 0.58327 0.18145 0.0
C499 C 0.57909 0.60905 0.21767 0.0
H500 H 0.45019 0.98289 0.18034 0.0
H501 H 0.32746 0.96372 0.09872 0.0
H502 H 0.25993 0.93282 0.14967 0.0
H503 H 0.23549 0.9154 0.21896 0.0
H504 H 0.35846 0.93764 0.30086 0.0
H505 H 0.42441 0.961 0.24945 0.0
C506 C 0.4084 0.97067 0.17361 0.0
C507 C 0.39399 0.97422 0.13513 0.0
C508 C 0.36918 0.95322 0.20361 0.0
C509 C 0.33965 0.95951 0.12747 0.0
C510 C 0.30088 0.9425 0.15691 0.0
C511 C 0.27664 0.92511 0.22556 0.0
C512 C 0.29117 0.92293 0.26428 0.0
C513 C 0.31513 0.93983 0.19531 0.0
C514 C 0.34502 0.93619 0.27175 0.0
C515 C 0.38331 0.95069 0.24208 0.0
H516 H 0.4021 0.07645 0.94487 0.0
H517 H 0.50524 0.03189 0.88294 0.0
H518 H 0.48379 0.06091 0.82228 0.0
H519 H 0.42959 0.09177 0.78537 0.0
H520 H 0.32207 0.13133 0.8462 0.0
H521 H 0.35178 0.11281 0.90801 0.0
C522 C 0.42067 0.07406 0.91824 0.0
C523 C 0.45569 0.05213 0.91888 0.0
C524 C 0.40727 0.09016 0.88287 0.0
C525 C 0.47829 0.04849 0.88365 0.0
C526 C 0.46598 0.06515 0.84875 0.0
C527 C 0.41401 0.09818 0.81218 0.0
C528 C 0.37451 0.11453 0.81088 0.0
C529 C 0.42988 0.08533 0.84778 0.0
C530 C 0.35332 0.12016 0.84615 0.0
C531 C 0.36993 0.10891 0.88161 0.0
H532 H 0.92336 0.36253 0.93411 0.0
H533 H 0.0935 0.44784 0.90537 0.0
H534 H 0.07509 0.39289 0.84754 0.0
H535 H 0.01206 0.32059 0.80467 0.0
H536 H 0.84121 0.23519 0.82929 0.0
H537 H 0.85814 0.28972 0.88858 0.0
C538 C 0.95627 0.36892 0.91516 0.0
C539 C 0.00998 0.40948 0.92446 0.0
C540 C 0.94527 0.33699 0.88106 0.0
C541 C 0.05192 0.41723 0.89926 0.0
C542 C 0.04146 0.38568 0.86601 0.0
C543 C 0.97842 0.3136 0.82311 0.0
C544 C 0.92548 0.2732 0.81283 0.0
C545 C 0.98851 0.34543 0.85663 0.0
C546 C 0.88236 0.26564 0.83665 0.0
C547 C 0.89216 0.2969 0.87058 0.0
H548 H 0.67769 0.59951 0.79217 0.0
H549 H 0.8266 0.70215 0.85237 0.0
H550 H 0.77857 0.67497 0.91429 0.0
H551 H 0.69238 0.62493 0.9511 0.0
H552 H 0.54542 0.51505 0.89033 0.0
H553 H 0.59465 0.53918 0.82905 0.0
C554 C 0.70038 0.61268 0.81881 0.0
C555 C 0.75647 0.65027 0.8174 0.0
C556 C 0.67245 0.59597 0.85432 0.0
C557 C 0.78394 0.67188 0.85248 0.0
C558 C 0.75629 0.65656 0.88792 0.0
C559 C 0.67127 0.60587 0.92447 0.0
C560 C 0.6149 0.56866 0.92539 0.0
C561 C 0.70029 0.61914 0.88922 0.0
C562 C 0.58848 0.54394 0.8906 0.0
C563 C 0.61669 0.55787 0.85546 0.0
H564 H 0.64669 0.73054 0.51222 0.0
H565 H 0.80035 0.81305 0.45378 0.0
H566 H 0.84375 0.7935 0.50783 0.0
H567 H 0.83643 0.74631 0.57029 0.0
H568 H 0.6819 0.66331 0.62743 0.0
H569 H 0.64092 0.6903 0.57619 0.0
C570 C 0.6899 0.74515 0.51149 0.0
C571 C 0.71992 0.77262 0.47837 0.0
C572 C 0.71451 0.73336 0.54272 0.0
C573 C 0.77597 0.79126 0.47842 0.0
C574 C 0.80083 0.77996 0.50944 0.0
C575 C 0.79396 0.73478 0.57164 0.0
C576 C 0.76222 0.70281 0.6028 0.0
C577 C 0.77031 0.74993 0.54146 0.0
C578 C 0.70719 0.68785 0.60395 0.0
C579 C 0.6837 0.70324 0.57452 0.0
H580 H 0.28545 0.016 0.45415 0.0
H581 H 0.2062 0.86506 0.51546 0.0
H582 H 0.22533 0.91444 0.5771 0.0
H583 H 0.27217 1.00188 0.61382 0.0
H584 H 0.34683 0.1519 0.55058 0.0
H585 H 0.32105 0.102 0.48977 0.0
C586 C 0.2695 0.99381 0.48074 0.0
C587 C 0.242 0.93668 0.4798 0.0
C588 C 0.28098 0.02263 0.51603 0.0
C589 C 0.22592 0.90887 0.51511 0.0
C590 C 0.23739 0.93724 0.55045 0.0
C591 C 0.28166 0.02366 0.58689 0.0
C592 C 0.31158 0.08099 0.58729 0.0
C593 C 0.26596 0.99433 0.55142 0.0
C594 C 0.32425 0.10805 0.55157 0.0
C595 C 0.30943 0.07946 0.51656 0.0
H596 H 0.9836 0.20808 0.60077 0.0
H597 H 0.92063 0.31673 0.58471 0.0
H598 H 0.98166 0.35925 0.53063 0.0
H599 H 0.05205 0.36604 0.48706 0.0
H600 H 0.11305 0.25537 0.49777 0.0
H601 H 0.05416 0.21338 0.55421 0.0
C602 C 0.98352 0.24121 0.5855 0.0
C603 C 0.9474 0.25925 0.59725 0.0
C604 C 0.01861 0.26532 0.55334 0.0
C605 C 0.94756 0.30177 0.57657 0.0
C606 C 0.98269 0.32633 0.54553 0.0
C607 C 0.05325 0.33321 0.502 0.0
C608 C 0.08839 0.31502 0.48866 0.0
C609 C 0.01836 0.30859 0.53364 0.0
C610 C 0.08743 0.27101 0.50772 0.0
C611 C 0.05349 0.24689 0.53998 0.0
loop_
_geom_bond_atom_site_label_1
_geom_bond_atom_site_label_2
_geom_bond_distance
_geom_bond_site_symmetry_2
_ccdc_geom_bond_type
Dy0 O4 2.398 . S
Dy0 O5 2.491 1_556 S
Dy0 O6 2.403 . S
Dy0 O7 2.664 1_455 S
Dy0 O11 2.326 . S
Dy0 O15 2.310 1_556 S
Dy0 O16 2.351 1_456 S
C1 O12 1.185 . S
C1 O13 1.355 1_554 S
C2 O4 1.209 . S
C2 O5 1.330 1_556 S
Dy3 O7 2.310 1_554 S
Dy3 O10 2.351 1_655 S
Dy3 O12 2.398 . S
Dy3 O13 2.491 1_554 S
Dy3 O14 2.403 . S
Dy3 O15 2.664 1_655 S
Dy3 O17 2.326 . S
O4 Dy0 2.398 . S
O4 C2 1.209 . S
O5 Dy0 2.491 1_554 S
O5 C2 1.330 1_554 S
O6 Dy0 2.403 . S
O6 C8 1.254 1_455 S
O7 Dy0 2.664 1_655 S
O7 Dy3 2.310 1_556 S
O7 C8 1.268 . S
C8 O6 1.254 1_655 S
C8 O7 1.268 . S
C9 O14 1.254 1_455 S
C9 O15 1.268 . S
O10 Dy3 2.351 1_455 S
O10 C18 1.249 1_554 S
O11 Dy0 2.326 . S
O11 C18 1.267 . S
O12 C1 1.185 . S
O12 Dy3 2.398 . S
O13 C1 1.355 1_556 S
O13 Dy3 2.491 1_556 S
O14 Dy3 2.403 . S
O14 C9 1.254 1_655 S
O15 Dy0 2.310 1_554 S
O15 Dy3 2.664 1_455 S
O15 C9 1.268 . S
O16 Dy0 2.351 1_654 S
O16 C19 1.249 . S
O17 Dy3 2.326 . S
O17 C19 1.267 . S
C18 O10 1.249 1_556 S
C18 O11 1.267 . S
C19 O16 1.249 . S
C19 O17 1.267 . S
Dy20 O24 2.398 . S
Dy20 O25 2.491 1_556 S
Dy20 O26 2.403 . S
Dy20 O27 2.664 . S
Dy20 O31 2.326 . S
Dy20 O35 2.310 1_556 S
Dy20 O36 2.351 1_556 S
C21 O32 1.185 . S
C21 O33 1.355 1_554 S
C22 O24 1.209 . S
C22 O25 1.330 1_556 S
Dy23 O27 2.310 1_554 S
Dy23 O30 2.351 . S
Dy23 O32 2.398 . S
Dy23 O33 2.491 1_554 S
Dy23 O34 2.403 . S
Dy23 O35 2.664 . S
Dy23 O37 2.326 . S
O24 Dy20 2.398 . S
O24 C22 1.209 . S
O25 Dy20 2.491 1_554 S
O25 C22 1.330 1_554 S
O26 Dy20 2.403 . S
O26 C28 1.254 . S
O27 Dy20 2.664 . S
O27 Dy23 2.310 1_556 S
O27 C28 1.268 . S
C28 O26 1.254 . S
C28 O27 1.268 . S
C29 O34 1.254 . S
C29 O35 1.268 . S
O30 Dy23 2.351 . S
O30 C38 1.249 1_554 S
O31 Dy20 2.326 . S
O31 C38 1.267 . S
O32 C21 1.185 . S
O32 Dy23 2.398 . S
O33 C21 1.355 1_556 S
O33 Dy23 2.491 1_556 S
O34 Dy23 2.403 . S
O34 C29 1.254 . S
O35 Dy20 2.310 1_554 S
O35 Dy23 2.664 . S
O35 C29 1.268 . S
O36 Dy20 2.351 1_554 S
O36 C39 1.249 . S
O37 Dy23 2.326 . S
O37 C39 1.267 . S
C38 O30 1.249 1_556 S
C38 O31 1.267 . S
C39 O36 1.249 . S
C39 O37 1.267 . S
Dy40 O44 2.398 . S
Dy40 O45 2.491 1_556 S
Dy40 O46 2.403 . S
Dy40 O47 2.664 1_565 S
Dy40 O51 2.326 . S
Dy40 O55 2.310 1_556 S
Dy40 O56 2.351 1_566 S
C41 O52 1.185 . S
C41 O53 1.355 1_554 S
C42 O44 1.209 . S
C42 O45 1.330 1_556 S
Dy43 O47 2.310 1_554 S
Dy43 O50 2.351 1_545 S
Dy43 O52 2.398 . S
Dy43 O53 2.491 1_554 S
Dy43 O54 2.403 . S
Dy43 O55 2.664 1_545 S
Dy43 O57 2.326 . S
O44 Dy40 2.398 . S
O44 C42 1.209 . S
O45 Dy40 2.491 1_554 S
O45 C42 1.330 1_554 S
O46 Dy40 2.403 . S
O46 C48 1.254 1_565 S
O47 Dy40 2.664 1_545 S
O47 Dy43 2.310 1_556 S
O47 C48 1.268 . S
C48 O46 1.254 1_545 S
C48 O47 1.268 . S
C49 O54 1.254 1_565 S
C49 O55 1.268 . S
O50 Dy43 2.351 1_565 S
O50 C58 1.249 1_554 S
O51 Dy40 2.326 . S
O51 C58 1.267 . S
O52 C41 1.185 . S
O52 Dy43 2.398 . S
O53 C41 1.355 1_556 S
O53 Dy43 2.491 1_556 S
O54 Dy43 2.403 . S
O54 C49 1.254 1_545 S
O55 Dy40 2.310 1_554 S
O55 Dy43 2.664 1_565 S
O55 C49 1.268 . S
O56 Dy40 2.351 1_544 S
O56 C59 1.249 . S
O57 Dy43 2.326 . S
O57 C59 1.267 . S
C58 O50 1.249 1_556 S
C58 O51 1.267 . S
C59 O56 1.249 . S
C59 O57 1.267 . S
Dy60 O64 2.398 . S
Dy60 O65 2.491 . S
Dy60 O66 2.403 . S
Dy60 O67 2.664 . S
Dy60 O71 2.326 . S
Dy60 O75 2.310 . S
Dy60 O76 2.351 . S
C61 O72 1.185 . S
C61 O73 1.355 . S
C62 O64 1.185 . S
C62 O65 1.355 . S
Dy63 O67 2.310 . S
Dy63 O70 2.351 . S
Dy63 O72 2.398 . S
Dy63 O73 2.491 . S
Dy63 O74 2.403 . S
Dy63 O75 2.664 . S
Dy63 O77 2.326 . S
O64 Dy60 2.398 . S
O64 C62 1.185 . S
O65 Dy60 2.491 . S
O65 C62 1.355 . S
O66 Dy60 2.403 . S
O66 C68 1.254 . S
O67 Dy60 2.664 . S
O67 Dy63 2.310 . S
O67 C68 1.268 . S
C68 O66 1.254 . S
C68 O67 1.268 . S
C69 O74 1.254 . S
C69 O75 1.268 . S
O70 Dy63 2.351 . S
O70 C78 1.249 . S
O71 Dy60 2.326 . S
O71 C78 1.267 . S
O72 C61 1.185 . S
O72 Dy63 2.398 . S
O73 C61 1.355 . S
O73 Dy63 2.491 . S
O74 Dy63 2.403 . S
O74 C69 1.254 . S
O75 Dy60 2.310 . S
O75 Dy63 2.664 . S
O75 C69 1.268 . S
O76 Dy60 2.351 . S
O76 C79 1.249 . S
O77 Dy63 2.326 . S
O77 C79 1.267 . S
C78 O70 1.249 . S
C78 O71 1.267 . S
C79 O76 1.249 . S
C79 O77 1.267 . S
Dy80 O84 2.398 . S
Dy80 O85 2.491 . S
Dy80 O86 2.403 . S
Dy80 O87 2.664 . S
Dy80 O91 2.326 . S
Dy80 O95 2.310 . S
Dy80 O96 2.351 . S
C81 O92 1.185 . S
C81 O93 1.355 . S
C82 O84 1.185 . S
C82 O85 1.355 . S
Dy83 O87 2.310 . S
Dy83 O90 2.351 . S
Dy83 O92 2.398 . S
Dy83 O93 2.491 . S
Dy83 O94 2.403 . S
Dy83 O95 2.664 . S
Dy83 O97 2.326 . S
O84 Dy80 2.398 . S
O84 C82 1.185 . S
O85 Dy80 2.491 . S
O85 C82 1.355 . S
O86 Dy80 2.403 . S
O86 C88 1.254 . S
O87 Dy80 2.664 . S
O87 Dy83 2.310 . S
O87 C88 1.268 . S
C88 O86 1.254 . S
C88 O87 1.268 . S
C89 O94 1.254 . S
C89 O95 1.268 . S
O90 Dy83 2.351 . S
O90 C98 1.249 . S
O91 Dy80 2.326 . S
O91 C98 1.267 . S
O92 C81 1.185 . S
O92 Dy83 2.398 . S
O93 C81 1.355 . S
O93 Dy83 2.491 . S
O94 Dy83 2.403 . S
O94 C89 1.254 . S
O95 Dy80 2.310 . S
O95 Dy83 2.664 . S
O95 C89 1.268 . S
O96 Dy80 2.351 . S
O96 C99 1.249 . S
O97 Dy83 2.326 . S
O97 C99 1.267 . S
C98 O90 1.249 . S
C98 O91 1.267 . S
C99 O96 1.249 . S
C99 O97 1.267 . S
Dy100 O104 2.398 . S
Dy100 O105 2.491 . S
Dy100 O106 2.403 . S
Dy100 O107 2.664 . S
Dy100 O111 2.326 . S
Dy100 O115 2.310 . S
Dy100 O116 2.351 . S
C101 O112 1.185 . S
C101 O113 1.355 . S
C102 O104 1.185 . S
C102 O105 1.355 . S
Dy103 O107 2.310 . S
Dy103 O110 2.351 . S
Dy103 O112 2.398 . S
Dy103 O113 2.491 . S
Dy103 O114 2.403 . S
Dy103 O115 2.664 . S
Dy103 O117 2.326 . S
O104 Dy100 2.398 . S
O104 C102 1.185 . S
O105 Dy100 2.491 . S
O105 C102 1.355 . S
O106 Dy100 2.403 . S
O106 C108 1.254 . S
O107 Dy100 2.664 . S
O107 Dy103 2.310 . S
O107 C108 1.268 . S
C108 O106 1.254 . S
C108 O107 1.268 . S
C109 O114 1.254 . S
C109 O115 1.268 . S
O110 Dy103 2.351 . S
O110 C118 1.249 . S
O111 Dy100 2.326 . S
O111 C118 1.267 . S
O112 C101 1.185 . S
O112 Dy103 2.398 . S
O113 C101 1.355 . S
O113 Dy103 2.491 . S
O114 Dy103 2.403 . S
O114 C109 1.254 . S
O115 Dy100 2.310 . S
O115 Dy103 2.664 . S
O115 C109 1.268 . S
O116 Dy100 2.351 . S
O116 C119 1.249 . S
O117 Dy103 2.326 . S
O117 C119 1.267 . S
C118 O110 1.249 . S
C118 O111 1.267 . S
C119 O116 1.249 . S
C119 O117 1.267 . S
Dy120 O124 2.398 . S
Dy120 O125 2.491 . S
Dy120 O126 2.403 . S
Dy120 O127 2.664 . S
Dy120 O131 2.326 . S
Dy120 O135 2.310 . S
Dy120 O136 2.351 . S
C121 O132 1.185 . S
C121 O133 1.355 . S
C122 O124 1.185 . S
C122 O125 1.355 . S
Dy123 O127 2.310 . S
Dy123 O130 2.351 . S
Dy123 O132 2.398 1_545 S
Dy123 O133 2.491 1_545 S
Dy123 O134 2.403 . S
Dy123 O135 2.664 . S
Dy123 O137 2.326 . S
O124 Dy120 2.398 . S
O124 C122 1.185 . S
O125 Dy120 2.491 . S
O125 C122 1.355 . S
O126 Dy120 2.403 . S
O126 C128 1.254 . S
O127 Dy120 2.664 . S
O127 Dy123 2.310 . S
O127 C128 1.268 . S
C128 O126 1.254 . S
C128 O127 1.268 . S
C129 O134 1.254 . S
C129 O135 1.268 . S
O130 Dy123 2.351 . S
O130 C138 1.249 . S
O131 Dy120 2.326 . S
O131 C138 1.267 . S
O132 C121 1.185 . S
O132 Dy123 2.398 1_565 S
O133 C121 1.355 . S
O133 Dy123 2.491 1_565 S
O134 Dy123 2.403 . S
O134 C129 1.254 . S
O135 Dy120 2.310 . S
O135 Dy123 2.664 . S
O135 C129 1.268 . S
O136 Dy120 2.351 . S
O136 C139 1.249 . S
O137 Dy123 2.326 . S
O137 C139 1.267 . S
C138 O130 1.249 . S
C138 O131 1.267 . S
C139 O136 1.249 . S
C139 O137 1.267 . S
Dy140 O144 2.398 . S
Dy140 O145 2.491 . S
Dy140 O146 2.403 . S
Dy140 O147 2.664 . S
Dy140 O151 2.326 . S
Dy140 O155 2.310 . S
Dy140 O156 2.351 . S
C141 O152 1.185 . S
C141 O153 1.355 . S
C142 O144 1.185 . S
C142 O145 1.355 . S
Dy143 O147 2.310 . S
Dy143 O150 2.351 . S
Dy143 O152 2.398 1_655 S
Dy143 O153 2.491 1_655 S
Dy143 O154 2.403 . S
Dy143 O155 2.664 . S
Dy143 O157 2.326 . S
O144 Dy140 2.398 . S
O144 C142 1.185 . S
O145 Dy140 2.491 . S
O145 C142 1.355 . S
O146 Dy140 2.403 . S
O146 C148 1.254 . S
O147 Dy140 2.664 . S
O147 Dy143 2.310 . S
O147 C148 1.268 . S
C148 O146 1.254 . S
C148 O147 1.268 . S
C149 O154 1.254 . S
C149 O155 1.268 . S
O150 Dy143 2.351 . S
O150 C158 1.249 . S
O151 Dy140 2.326 . S
O151 C158 1.267 . S
O152 C141 1.185 . S
O152 Dy143 2.398 1_455 S
O153 C141 1.355 . S
O153 Dy143 2.491 1_455 S
O154 Dy143 2.403 . S
O154 C149 1.254 . S
O155 Dy140 2.310 . S
O155 Dy143 2.664 . S
O155 C149 1.268 . S
O156 Dy140 2.351 . S
O156 C159 1.249 . S
O157 Dy143 2.326 . S
O157 C159 1.267 . S
C158 O150 1.249 . S
C158 O151 1.267 . S
C159 O156 1.249 . S
C159 O157 1.267 . S
Dy160 O164 2.398 . S
Dy160 O165 2.491 . S
Dy160 O166 2.403 . S
Dy160 O167 2.664 . S
Dy160 O171 2.326 . S
Dy160 O175 2.310 . S
Dy160 O176 2.351 . S
C161 O172 1.185 . S
C161 O173 1.355 . S
C162 O164 1.185 . S
C162 O165 1.355 . S
Dy163 O167 2.310 . S
Dy163 O170 2.351 . S
Dy163 O172 2.398 . S
Dy163 O173 2.491 . S
Dy163 O174 2.403 . S
Dy163 O175 2.664 . S
Dy163 O177 2.326 . S
O164 Dy160 2.398 . S
O164 C162 1.185 . S
O165 Dy160 2.491 . S
O165 C162 1.355 . S
O166 Dy160 2.403 . S
O166 C168 1.254 . S
O167 Dy160 2.664 . S
O167 Dy163 2.310 . S
O167 C168 1.268 . S
C168 O166 1.254 . S
C168 O167 1.268 . S
C169 O174 1.254 . S
C169 O175 1.268 . S
O170 Dy163 2.351 . S
O170 C178 1.249 . S
O171 Dy160 2.326 . S
O171 C178 1.267 . S
O172 C161 1.185 . S
O172 Dy163 2.398 . S
O173 C161 1.355 . S
O173 Dy163 2.491 . S
O174 Dy163 2.403 . S
O174 C169 1.254 . S
O175 Dy160 2.310 . S
O175 Dy163 2.664 . S
O175 C169 1.268 . S
O176 Dy160 2.351 . S
O176 C179 1.249 . S
O177 Dy163 2.326 . S
O177 C179 1.267 . S
C178 O170 1.249 . S
C178 O171 1.267 . S
C179 O176 1.249 . S
C179 O177 1.267 . S
H180 C186 0.930 . S
H181 C189 0.930 . S
H182 C190 0.930 . S
H183 C191 0.930 . S
H184 C194 0.930 . S
H185 C195 0.930 . S
C186 H180 0.930 . S
C186 C187 1.354 . S
C186 C188 1.415 . S
C187 C186 1.354 . S
C187 C189 1.420 1_556 S
C188 C186 1.415 . S
C188 C193 1.425 1_556 S
C188 C195 1.409 . S
C189 H181 0.930 . S
C189 C187 1.420 1_554 S
C189 C190 1.362 . S
C190 H182 0.930 . S
C190 C189 1.362 . S
C190 C193 1.409 . S
C191 H183 0.930 . S
C191 C192 1.356 1_554 S
C191 C193 1.415 . S
C192 C191 1.356 1_556 S
C192 C194 1.418 . S
C193 C188 1.425 1_554 S
C193 C190 1.409 . S
C193 C191 1.415 . S
C194 H184 0.930 . S
C194 C192 1.418 . S
C194 C195 1.362 . S
C195 H185 0.930 . S
C195 C188 1.409 . S
C195 C194 1.362 . S
H196 C202 0.930 . S
H197 C205 0.930 . S
H198 C206 0.930 . S
H199 C207 0.930 . S
H200 C210 0.930 . S
H201 C211 0.930 . S
C202 H196 0.930 . S
C202 C203 1.355 1_554 S
C202 C204 1.415 . S
C203 C202 1.355 1_556 S
C203 C205 1.419 . S
C204 C202 1.415 . S
C204 C209 1.425 1_554 S
C204 C211 1.409 . S
C205 H197 0.930 . S
C205 C203 1.419 . S
C205 C206 1.362 . S
C206 H198 0.930 . S
C206 C205 1.362 . S
C206 C209 1.409 . S
C207 H199 0.930 . S
C207 C208 1.355 1_556 S
C207 C209 1.415 . S
C208 C207 1.355 1_554 S
C208 C210 1.419 . S
C209 C204 1.425 1_556 S
C209 C206 1.409 . S
C209 C207 1.415 . S
C210 H200 0.930 . S
C210 C208 1.419 . S
C210 C211 1.362 . S
C211 H201 0.930 . S
C211 C204 1.409 . S
C211 C210 1.362 . S
H212 C218 0.930 . S
H213 C221 0.930 . S
H214 C222 0.930 . S
H215 C223 0.930 . S
H216 C226 0.930 . S
H217 C227 0.930 . S
C218 H212 0.930 . S
C218 C219 1.355 1_556 S
C218 C220 1.415 . S
C219 C218 1.355 1_554 S
C219 C221 1.419 . S
C220 C218 1.415 . S
C220 C225 1.425 1_556 S
C220 C227 1.409 . S
C221 H213 0.930 . S
C221 C219 1.419 . S
C221 C222 1.362 . S
C222 H214 0.930 . S
C222 C221 1.362 . S
C222 C225 1.409 . S
C223 H215 0.930 . S
C223 C224 1.355 1_554 S
C223 C225 1.415 . S
C224 C223 1.355 1_556 S
C224 C226 1.419 . S
C225 C220 1.425 1_554 S
C225 C222 1.409 . S
C225 C223 1.415 . S
C226 H216 0.930 . S
C226 C224 1.419 . S
C226 C227 1.362 . S
C227 H217 0.930 . S
C227 C220 1.409 . S
C227 C226 1.362 . S
H228 C234 0.930 1_556 S
H229 C237 0.930 . S
H230 C238 0.930 . S
H231 C239 0.930 . S
H232 C242 0.930 . S
H233 C243 0.930 . S
C234 H228 0.930 1_554 S
C234 C235 1.355 . S
C234 C236 1.415 . S
C235 C234 1.355 . S
C235 C237 1.419 . S
C236 C234 1.415 . S
C236 C241 1.425 . S
C236 C243 1.409 1_554 S
C237 H229 0.930 . S
C237 C235 1.419 . S
C237 C238 1.362 . S
C238 H230 0.930 . S
C238 C237 1.362 . S
C238 C241 1.409 . S
C239 H231 0.930 . S
C239 C240 1.355 . S
C239 C241 1.415 . S
C240 C239 1.355 . S
C240 C242 1.419 1_554 S
C241 C236 1.425 . S
C241 C238 1.409 . S
C241 C239 1.415 . S
C242 H232 0.930 . S
C242 C240 1.419 1_556 S
C242 C243 1.362 . S
C243 H233 0.930 . S
C243 C236 1.409 1_556 S
C243 C242 1.362 . S
H244 C250 0.930 . S
H245 C253 0.930 . S
H246 C254 0.930 . S
H247 C255 0.930 . S
H248 C258 0.930 . S
H249 C259 0.930 . S
C250 H244 0.930 . S
C250 C251 1.355 . S
C250 C252 1.415 . S
C251 C250 1.355 . S
C251 C253 1.419 . S
C252 C250 1.415 . S
C252 C257 1.425 . S
C252 C259 1.409 . S
C253 H245 0.930 . S
C253 C251 1.419 . S
C253 C254 1.362 . S
C254 H246 0.930 . S
C254 C253 1.362 . S
C254 C257 1.409 . S
C255 H247 0.930 . S
C255 C256 1.355 . S
C255 C257 1.415 . S
C256 C255 1.355 . S
C256 C258 1.419 . S
C257 C252 1.425 . S
C257 C254 1.409 . S
C257 C255 1.415 . S
C258 H248 0.930 . S
C258 C256 1.419 . S
C258 C259 1.362 . S
C259 H249 0.930 . S
C259 C252 1.409 . S
C259 C258 1.362 . S
H260 C266 0.930 . S
H261 C269 0.930 . S
H262 C270 0.930 . S
H263 C271 0.930 . S
H264 C274 0.930 . S
H265 C275 0.930 . S
C266 H260 0.930 . S
C266 C267 1.355 . S
C266 C268 1.415 . S
C267 C266 1.355 . S
C267 C269 1.419 . S
C268 C266 1.415 . S
C268 C273 1.425 . S
C268 C275 1.409 . S
C269 H261 0.930 . S
C269 C267 1.419 . S
C269 C270 1.362 . S
C270 H262 0.930 . S
C270 C269 1.362 . S
C270 C273 1.409 . S
C271 H263 0.930 . S
C271 C272 1.355 . S
C271 C273 1.415 . S
C272 C271 1.355 . S
C272 C274 1.419 . S
C273 C268 1.425 . S
C273 C270 1.409 . S
C273 C271 1.415 . S
C274 H264 0.930 . S
C274 C272 1.419 . S
C274 C275 1.362 . S
C275 H265 0.930 . S
C275 C268 1.409 . S
C275 C274 1.362 . S
H276 C282 0.930 . S
H277 C285 0.930 . S
H278 C286 0.930 . S
H279 C287 0.930 . S
H280 C290 0.934 . S
H281 C291 0.930 . S
C282 H276 0.930 . S
C282 C283 1.355 . S
C282 C284 1.415 . S
C283 C282 1.355 . S
C283 C285 1.419 . S
C284 C282 1.415 . S
C284 C289 1.425 . S
C284 C291 1.409 . S
C285 H277 0.930 . S
C285 C283 1.419 . S
C285 C286 1.362 . S
C286 H278 0.930 . S
C286 C285 1.362 . S
C286 C289 1.409 . S
C287 H279 0.930 . S
C287 C288 1.355 1_655 S
C287 C289 1.415 . S
C288 C287 1.355 1_455 S
C288 C290 1.422 . S
C289 C284 1.425 . S
C289 C286 1.409 . S
C289 C287 1.415 . S
C290 H280 0.934 . S
C290 C288 1.422 . S
C290 C291 1.356 1_455 S
C291 H281 0.930 . S
C291 C284 1.409 . S
C291 C290 1.356 1_655 S
H292 C298 0.930 . S
H293 C301 0.930 . S
H294 C302 0.930 . S
H295 C303 0.930 . S
H296 C306 0.930 . S
H297 C307 0.930 1_565 S
C298 H292 0.930 . S
C298 C299 1.355 . S
C298 C300 1.415 . S
C299 C298 1.355 . S
C299 C301 1.419 . S
C300 C298 1.415 . S
C300 C305 1.425 . S
C300 C307 1.409 . S
C301 H293 0.930 . S
C301 C299 1.419 . S
C301 C302 1.362 . S
C302 H294 0.930 . S
C302 C301 1.362 . S
C302 C305 1.409 . S
C303 H295 0.930 . S
C303 C304 1.355 . S
C303 C305 1.415 . S
C304 C303 1.355 . S
C304 C306 1.419 1_545 S
C305 C300 1.425 . S
C305 C302 1.409 . S
C305 C303 1.415 . S
C306 H296 0.930 . S
C306 C304 1.419 1_565 S
C306 C307 1.362 1_565 S
C307 H297 0.930 1_545 S
C307 C300 1.409 . S
C307 C306 1.362 1_545 S
H308 C314 0.930 . S
H309 C317 0.930 . S
H310 C318 0.930 1_455 S
H311 C319 0.930 . S
H312 C322 0.930 1_565 S
H313 C323 0.930 . S
C314 H308 0.930 . S
C314 C315 1.355 . S
C314 C316 1.415 . S
C315 C314 1.355 . S
C315 C317 1.419 1_655 S
C316 C314 1.415 . S
C316 C321 1.425 . S
C316 C323 1.409 . S
C317 H309 0.930 . S
C317 C315 1.419 1_455 S
C317 C318 1.362 1_455 S
C318 H310 0.930 1_655 S
C318 C317 1.362 1_655 S
C318 C321 1.409 . S
C319 H311 0.930 . S
C319 C320 1.355 1_545 S
C319 C321 1.415 . S
C320 C319 1.355 1_565 S
C320 C322 1.419 1_565 S
C321 C316 1.425 . S
C321 C318 1.409 . S
C321 C319 1.415 . S
C322 H312 0.930 1_545 S
C322 C320 1.419 1_545 S
C322 C323 1.362 . S
C323 H313 0.930 . S
C323 C316 1.409 . S
C323 C322 1.362 . S
H324 C330 0.930 . S
H325 C333 0.930 . S
H326 C334 0.930 . S
H327 C335 0.930 . S
H328 C338 0.930 . S
H329 C339 0.930 . S
C330 H324 0.930 . S
C330 C331 1.355 . S
C330 C332 1.415 . S
C331 C330 1.355 . S
C331 C333 1.419 . S
C332 C330 1.415 . S
C332 C337 1.425 . S
C332 C339 1.409 . S
C333 H325 0.930 . S
C333 C331 1.419 . S
C333 C334 1.362 . S
C334 H326 0.930 . S
C334 C333 1.362 . S
C334 C337 1.409 . S
C335 H327 0.930 . S
C335 C336 1.355 . S
C335 C337 1.415 . S
C336 C335 1.355 . S
C336 C338 1.419 . S
C337 C332 1.425 . S
C337 C334 1.409 . S
C337 C335 1.415 . S
C338 H328 0.930 . S
C338 C336 1.419 . S
C338 C339 1.362 . S
C339 H329 0.930 . S
C339 C332 1.409 . S
C339 C338 1.362 . S
H340 C346 0.930 . S
H341 C349 0.930 . S
H342 C350 0.930 . S
H343 C351 0.930 . S
H344 C354 0.930 . S
H345 C355 0.930 . S
C346 H340 0.930 . S
C346 C347 1.355 . S
C346 C348 1.415 . S
C347 C346 1.355 . S
C347 C349 1.419 . S
C348 C346 1.415 . S
C348 C353 1.425 . S
C348 C355 1.409 . S
C349 H341 0.930 . S
C349 C347 1.419 . S
C349 C350 1.362 . S
C350 H342 0.930 . S
C350 C349 1.362 . S
C350 C353 1.409 . S
C351 H343 0.930 . S
C351 C352 1.355 . S
C351 C353 1.415 . S
C352 C351 1.355 . S
C352 C354 1.419 . S
C353 C348 1.425 . S
C353 C350 1.409 . S
C353 C351 1.415 . S
C354 H344 0.930 . S
C354 C352 1.419 . S
C354 C355 1.362 . S
C355 H345 0.930 . S
C355 C348 1.409 . S
C355 C354 1.362 . S
H356 C362 0.930 . S
H357 C365 0.930 . S
H358 C366 0.930 . S
H359 C367 0.930 . S
H360 C370 0.930 . S
H361 C371 0.930 . S
C362 H356 0.930 . S
C362 C363 1.355 . S
C362 C364 1.415 . S
C363 C362 1.355 . S
C363 C365 1.419 . S
C364 C362 1.415 . S
C364 C369 1.425 . S
C364 C371 1.409 . S
C365 H357 0.930 . S
C365 C363 1.419 . S
C365 C366 1.362 . S
C366 H358 0.930 . S
C366 C365 1.362 . S
C366 C369 1.409 . S
C367 H359 0.930 . S
C367 C368 1.355 . S
C367 C369 1.415 . S
C368 C367 1.355 . S
C368 C370 1.419 . S
C369 C364 1.425 . S
C369 C366 1.409 . S
C369 C367 1.415 . S
C370 H360 0.930 . S
C370 C368 1.419 . S
C370 C371 1.362 . S
C371 H361 0.930 . S
C371 C364 1.409 . S
C371 C370 1.362 . S
H372 C378 0.930 . S
H373 C381 0.930 . S
H374 C382 0.930 . S
H375 C383 0.930 . S
H376 C386 0.930 . S
H377 C387 0.930 . S
C378 H372 0.930 . S
C378 C379 1.355 . S
C378 C380 1.415 . S
C379 C378 1.355 . S
C379 C381 1.419 . S
C380 C378 1.415 . S
C380 C385 1.425 . S
C380 C387 1.409 . S
C381 H373 0.930 . S
C381 C379 1.419 . S
C381 C382 1.362 . S
C382 H374 0.930 . S
C382 C381 1.362 . S
C382 C385 1.409 . S
C383 H375 0.930 . S
C383 C384 1.355 . S
C383 C385 1.415 . S
C384 C383 1.355 . S
C384 C386 1.419 . S
C385 C380 1.425 . S
C385 C382 1.409 . S
C385 C383 1.415 . S
C386 H376 0.930 . S
C386 C384 1.419 . S
C386 C387 1.362 . S
C387 H377 0.930 . S
C387 C380 1.409 . S
C387 C386 1.362 . S
H388 C394 0.930 . S
H389 C397 0.930 . S
H390 C398 0.930 . S
H391 C399 0.930 . S
H392 C402 0.930 . S
H393 C403 0.930 . S
C394 H388 0.930 . S
C394 C395 1.355 . S
C394 C396 1.415 . S
C395 C394 1.355 . S
C395 C397 1.419 . S
C396 C394 1.415 . S
C396 C401 1.425 . S
C396 C403 1.409 . S
C397 H389 0.930 . S
C397 C395 1.419 . S
C397 C398 1.362 . S
C398 H390 0.930 . S
C398 C397 1.362 . S
C398 C401 1.409 . S
C399 H391 0.930 . S
C399 C400 1.355 . S
C399 C401 1.415 . S
C400 C399 1.355 . S
C400 C402 1.419 . S
C401 C396 1.425 . S
C401 C398 1.409 . S
C401 C399 1.415 . S
C402 H392 0.930 . S
C402 C400 1.419 . S
C402 C403 1.362 . S
C403 H393 0.930 . S
C403 C396 1.409 . S
C403 C402 1.362 . S
H404 C410 0.930 . S
H405 C413 0.930 . S
H406 C414 0.930 . S
H407 C415 0.930 . S
H408 C418 0.930 . S
H409 C419 0.930 . S
C410 H404 0.930 . S
C410 C411 1.355 . S
C410 C412 1.415 . S
C411 C410 1.355 . S
C411 C413 1.419 . S
C412 C410 1.415 . S
C412 C417 1.425 . S
C412 C419 1.409 . S
C413 H405 0.930 . S
C413 C411 1.419 . S
C413 C414 1.362 . S
C414 H406 0.930 . S
C414 C413 1.362 . S
C414 C417 1.409 . S
C415 H407 0.930 . S
C415 C416 1.355 . S
C415 C417 1.415 . S
C416 C415 1.355 . S
C416 C418 1.419 . S
C417 C412 1.425 . S
C417 C414 1.409 . S
C417 C415 1.415 . S
C418 H408 0.930 . S
C418 C416 1.419 . S
C418 C419 1.362 . S
C419 H409 0.930 . S
C419 C412 1.409 . S
C419 C418 1.362 . S
H420 C426 0.930 . S
H421 C429 0.930 . S
H422 C430 0.930 . S
H423 C431 0.930 . S
H424 C434 0.930 . S
H425 C435 0.930 . S
C426 H420 0.930 . S
C426 C427 1.355 . S
C426 C428 1.415 . S
C427 C426 1.355 . S
C427 C429 1.419 . S
C428 C426 1.415 . S
C428 C433 1.425 . S
C428 C435 1.409 1_565 S
C429 H421 0.930 . S
C429 C427 1.419 . S
C429 C430 1.362 . S
C430 H422 0.930 . S
C430 C429 1.362 . S
C430 C433 1.409 . S
C431 H423 0.930 . S
C431 C432 1.355 . S
C431 C433 1.415 1_545 S
C432 C431 1.355 . S
C432 C434 1.419 . S
C433 C428 1.425 . S
C433 C430 1.409 . S
C433 C431 1.415 1_565 S
C434 H424 0.930 . S
C434 C432 1.419 . S
C434 C435 1.362 . S
C435 H425 0.930 . S
C435 C428 1.409 1_545 S
C435 C434 1.362 . S
H436 C442 0.930 . S
H437 C445 0.930 . S
H438 C446 0.930 1_455 S
H439 C447 0.930 . S
H440 C450 0.930 . S
H441 C451 0.930 . S
C442 H436 0.930 . S
C442 C443 1.355 . S
C442 C444 1.415 1_655 S
C443 C442 1.355 . S
C443 C445 1.419 . S
C444 C442 1.415 1_455 S
C444 C449 1.425 . S
C444 C451 1.409 . S
C445 H437 0.930 . S
C445 C443 1.419 . S
C445 C446 1.362 . S
C446 H438 0.930 1_655 S
C446 C445 1.362 . S
C446 C449 1.409 1_655 S
C447 H439 0.930 . S
C447 C448 1.355 . S
C447 C449 1.415 . S
C448 C447 1.355 . S
C448 C450 1.419 . S
C449 C444 1.425 . S
C449 C446 1.409 1_455 S
C449 C447 1.415 . S
C450 H440 0.930 . S
C450 C448 1.419 . S
C450 C451 1.362 . S
C451 H441 0.930 . S
C451 C444 1.409 . S
C451 C450 1.362 . S
H452 C458 0.930 . S
H453 C461 0.930 . S
H454 C462 0.930 . S
H455 C463 0.930 . S
H456 C466 0.930 . S
H457 C467 0.930 . S
C458 H452 0.930 . S
C458 C459 1.355 . S
C458 C460 1.415 . S
C459 C458 1.355 . S
C459 C461 1.419 . S
C460 C458 1.415 . S
C460 C465 1.425 . S
C460 C467 1.409 . S
C461 H453 0.930 . S
C461 C459 1.419 . S
C461 C462 1.362 . S
C462 H454 0.930 . S
C462 C461 1.362 . S
C462 C465 1.409 . S
C463 H455 0.930 . S
C463 C464 1.355 . S
C463 C465 1.415 . S
C464 C463 1.355 . S
C464 C466 1.419 . S
C465 C460 1.425 . S
C465 C462 1.409 . S
C465 C463 1.415 . S
C466 H456 0.930 . S
C466 C464 1.419 . S
C466 C467 1.362 . S
C467 H457 0.930 . S
C467 C460 1.409 . S
C467 C466 1.362 . S
H468 C474 0.930 . S
H469 C477 0.930 . S
H470 C478 0.930 1_655 S
H471 C479 0.930 1_655 S
H472 C482 0.930 . S
H473 C483 0.930 . S
C474 H468 0.930 . S
C474 C475 1.355 . S
C474 C476 1.415 . S
C475 C474 1.355 . S
C475 C477 1.419 . S
C476 C474 1.415 . S
C476 C481 1.425 . S
C476 C483 1.409 . S
C477 H469 0.930 . S
C477 C475 1.419 . S
C477 C478 1.362 . S
C478 H470 0.930 1_455 S
C478 C477 1.362 . S
C478 C481 1.409 . S
C479 H471 0.930 1_455 S
C479 C480 1.355 . S
C479 C481 1.415 . S
C480 C479 1.355 . S
C480 C482 1.419 . S
C481 C476 1.425 . S
C481 C478 1.409 . S
C481 C479 1.415 . S
C482 H472 0.930 . S
C482 C480 1.419 . S
C482 C483 1.362 . S
C483 H473 0.930 . S
C483 C476 1.409 . S
C483 C482 1.362 . S
H484 C490 0.930 . S
H485 C493 0.930 . S
H486 C494 0.930 . S
H487 C495 0.930 . S
H488 C498 0.930 . S
H489 C499 0.930 . S
C490 H484 0.930 . S
C490 C491 1.355 . S
C490 C492 1.415 . S
C491 C490 1.355 . S
C491 C493 1.419 . S
C492 C490 1.415 . S
C492 C497 1.425 . S
C492 C499 1.409 . S
C493 H485 0.930 . S
C493 C491 1.419 . S
C493 C494 1.362 . S
C494 H486 0.930 . S
C494 C493 1.362 . S
C494 C497 1.409 . S
C495 H487 0.930 . S
C495 C496 1.355 . S
C495 C497 1.415 . S
C496 C495 1.355 . S
C496 C498 1.419 . S
C497 C492 1.425 . S
C497 C494 1.409 . S
C497 C495 1.415 . S
C498 H488 0.930 . S
C498 C496 1.419 . S
C498 C499 1.362 . S
C499 H489 0.930 . S
C499 C492 1.409 . S
C499 C498 1.362 . S
H500 C506 0.930 . S
H501 C509 0.930 . S
H502 C510 0.930 . S
H503 C511 0.930 . S
H504 C514 0.930 . S
H505 C515 0.930 . S
C506 H500 0.930 . S
C506 C507 1.355 . S
C506 C508 1.415 . S
C507 C506 1.355 . S
C507 C509 1.419 . S
C508 C506 1.415 . S
C508 C513 1.425 . S
C508 C515 1.409 . S
C509 H501 0.930 . S
C509 C507 1.419 . S
C509 C510 1.362 . S
C510 H502 0.930 . S
C510 C509 1.362 . S
C510 C513 1.409 . S
C511 H503 0.930 . S
C511 C512 1.355 . S
C511 C513 1.415 . S
C512 C511 1.355 . S
C512 C514 1.419 . S
C513 C508 1.425 . S
C513 C510 1.409 . S
C513 C511 1.415 . S
C514 H504 0.930 . S
C514 C512 1.419 . S
C514 C515 1.362 . S
C515 H505 0.930 . S
C515 C508 1.409 . S
C515 C514 1.362 . S
H516 C522 0.930 . S
H517 C525 0.930 . S
H518 C526 0.930 . S
H519 C527 0.930 . S
H520 C530 0.930 . S
H521 C531 0.930 . S
C522 H516 0.930 . S
C522 C523 1.355 . S
C522 C524 1.415 . S
C523 C522 1.355 . S
C523 C525 1.419 . S
C524 C522 1.415 . S
C524 C529 1.425 . S
C524 C531 1.409 . S
C525 H517 0.930 . S
C525 C523 1.419 . S
C525 C526 1.362 . S
C526 H518 0.930 . S
C526 C525 1.362 . S
C526 C529 1.409 . S
C527 H519 0.930 . S
C527 C528 1.355 . S
C527 C529 1.415 . S
C528 C527 1.355 . S
C528 C530 1.419 . S
C529 C524 1.425 . S
C529 C526 1.409 . S
C529 C527 1.415 . S
C530 H520 0.930 . S
C530 C528 1.419 . S
C530 C531 1.362 . S
C531 H521 0.930 . S
C531 C524 1.409 . S
C531 C530 1.362 . S
H532 C538 0.930 . S
H533 C541 0.930 . S
H534 C542 0.930 . S
H535 C543 0.930 . S
H536 C546 0.930 . S
H537 C547 0.930 . S
C538 H532 0.930 . S
C538 C539 1.355 . S
C538 C540 1.415 . S
C539 C538 1.355 . S
C539 C541 1.419 1_655 S
C540 C538 1.415 . S
C540 C545 1.425 . S
C540 C547 1.409 . S
C541 H533 0.930 . S
C541 C539 1.419 1_455 S
C541 C542 1.362 . S
C542 H534 0.930 . S
C542 C541 1.362 . S
C542 C545 1.409 1_455 S
C543 H535 0.930 . S
C543 C544 1.355 . S
C543 C545 1.415 . S
C544 C543 1.355 . S
C544 C546 1.419 . S
C545 C540 1.425 . S
C545 C542 1.409 1_655 S
C545 C543 1.415 . S
C546 H536 0.930 . S
C546 C544 1.419 . S
C546 C547 1.362 . S
C547 H537 0.930 . S
C547 C540 1.409 . S
C547 C546 1.362 . S
H548 C554 0.930 . S
H549 C557 0.930 . S
H550 C558 0.930 . S
H551 C559 0.930 . S
H552 C562 0.930 . S
H553 C563 0.930 . S
C554 H548 0.930 . S
C554 C555 1.355 . S
C554 C556 1.415 . S
C555 C554 1.355 . S
C555 C557 1.419 . S
C556 C554 1.415 . S
C556 C561 1.425 . S
C556 C563 1.409 . S
C557 H549 0.930 . S
C557 C555 1.419 . S
C557 C558 1.362 . S
C558 H550 0.930 . S
C558 C557 1.362 . S
C558 C561 1.409 . S
C559 H551 0.930 . S
C559 C560 1.355 . S
C559 C561 1.415 . S
C560 C559 1.355 . S
C560 C562 1.419 . S
C561 C556 1.425 . S
C561 C558 1.409 . S
C561 C559 1.415 . S
C562 H552 0.930 . S
C562 C560 1.419 . S
C562 C563 1.362 . S
C563 H553 0.930 . S
C563 C556 1.409 . S
C563 C562 1.362 . S
H564 C570 0.930 . S
H565 C573 0.930 . S
H566 C574 0.930 . S
H567 C575 0.930 . S
H568 C578 0.930 . S
H569 C579 0.930 . S
C570 H564 0.930 . S
C570 C571 1.355 . S
C570 C572 1.415 . S
C571 C570 1.355 . S
C571 C573 1.419 . S
C572 C570 1.415 . S
C572 C577 1.425 . S
C572 C579 1.409 . S
C573 H565 0.930 . S
C573 C571 1.419 . S
C573 C574 1.362 . S
C574 H566 0.930 . S
C574 C573 1.362 . S
C574 C577 1.409 . S
C575 H567 0.930 . S
C575 C576 1.355 . S
C575 C577 1.415 . S
C576 C575 1.355 . S
C576 C578 1.419 . S
C577 C572 1.425 . S
C577 C574 1.409 . S
C577 C575 1.415 . S
C578 H568 0.930 . S
C578 C576 1.419 . S
C578 C579 1.362 . S
C579 H569 0.930 . S
C579 C572 1.409 . S
C579 C578 1.362 . S
H580 C586 0.930 1_545 S
H581 C589 0.930 . S
H582 C590 0.930 . S
H583 C591 0.930 . S
H584 C594 0.930 . S
H585 C595 0.930 . S
C586 H580 0.930 1_565 S
C586 C587 1.355 . S
C586 C588 1.415 1_565 S
C587 C586 1.355 . S
C587 C589 1.419 . S
C588 C586 1.415 1_545 S
C588 C593 1.425 1_545 S
C588 C595 1.409 . S
C589 H581 0.930 . S
C589 C587 1.419 . S
C589 C590 1.362 . S
C590 H582 0.930 . S
C590 C589 1.362 . S
C590 C593 1.409 . S
C591 H583 0.930 . S
C591 C592 1.355 . S
C591 C593 1.415 1_545 S
C592 C591 1.355 . S
C592 C594 1.419 . S
C593 C588 1.425 1_565 S
C593 C590 1.409 . S
C593 C591 1.415 1_565 S
C594 H584 0.930 . S
C594 C592 1.419 . S
C594 C595 1.362 . S
C595 H585 0.930 . S
C595 C588 1.409 . S
C595 C594 1.362 . S
H596 C602 0.930 . S
H597 C605 0.930 . S
H598 C606 0.930 . S
H599 C607 0.930 . S
H600 C610 0.930 . S
H601 C611 0.930 . S
C602 H596 0.930 . S
C602 C603 1.355 . S
C602 C604 1.415 1_655 S
C603 C602 1.355 . S
C603 C605 1.419 . S
C604 C602 1.415 1_455 S
C604 C609 1.425 . S
C604 C611 1.409 . S
C605 H597 0.930 . S
C605 C603 1.419 . S
C605 C606 1.362 . S
C606 H598 0.930 . S
C606 C605 1.362 . S
C606 C609 1.409 1_655 S
C607 H599 0.930 . S
C607 C608 1.355 . S
C607 C609 1.415 . S
C608 C607 1.355 . S
C608 C610 1.419 . S
C609 C604 1.425 . S
C609 C606 1.409 1_455 S
C609 C607 1.415 . S
C610 H600 0.930 . S
C610 C608 1.419 . S
C610 C611 1.362 . S
C611 H601 0.930 . S
C611 C604 1.409 . S
C611 C610 1.362 . S
C187 C22 1.385 . S
C192 C18 1.425 . S
C203 C42 1.381 . S
C208 C38 1.429 1_554 S
C219 C58 1.429 1_554 S
C224 C2 1.383 . S
C235 C41 1.401 . S
C240 C39 1.329 . S
C251 C59 1.392 . S
C256 C1 1.418 . S
C267 C19 1.394 . S
C272 C21 1.418 . S
C283 C78 1.390 . S
C288 C82 1.332 . S
C299 C102 1.286 . S
C304 C98 1.378 1_545 S
C315 C118 1.393 1_655 S
C320 C62 1.297 . S
C331 C99 1.401 . S
C336 C101 1.417 . S
C347 C119 1.339 . S
C352 C61 1.402 . S
C363 C81 1.417 . S
C368 C79 1.401 . S
C379 C142 1.289 . S
C384 C138 1.377 . S
C395 C158 1.428 . S
C400 C162 1.384 . S
C411 C178 1.396 . S
C416 C122 1.300 . S
C427 C161 1.418 . S
C432 C159 1.402 . S
C443 C179 1.395 . S
C448 C121 1.419 . S
C459 C139 1.395 . S
C464 C141 1.419 . S
C475 C108 2.187 . S
C480 C9 1.931 . S
C491 C68 2.201 . S
C496 C29 1.984 . S
C507 C49 1.896 . S
C512 C88 2.188 . S
C523 C48 2.203 . S
C528 C129 1.978 . S
C539 C8 2.194 . S
C544 C149 1.971 . S
C555 C169 1.951 . S
C560 C28 2.203 . S
C571 C69 1.943 . S
C576 C168 2.189 . S
C587 C89 1.975 . S
C592 C128 2.204 . S
C603 C148 2.193 . S
C608 C109 1.967 . S
