# Generated by pormake.
# Topology rkf, (6)-cn, num edge types: 1
# Building blocks:
#     Node 0, Type 0, BuildingBlock: VOLQOD_clean_sbu_1, # of connection points: 6
#     Node 1, Type 0, BuildingBlock: VOLQOD_clean_sbu_1, # of connection points: 6
#     Node 2, Type 0, BuildingBlock: VOLQOD_clean_sbu_1, # of connection points: 6
#     Node 3, Type 0, BuildingBlock: VOLQOD_clean_sbu_1, # of connection points: 6
#     Node 4, Type 0, BuildingBlock: VOLQOD_clean_sbu_1, # of connection points: 6
#     Node 5, Type 0, BuildingBlock: VOLQOD_clean_sbu_1, # of connection points: 6
#     Edge 6, Type (0, 0), BuildingBlock: CIFDUS_clean_linker_0, # of connection points: 2
#     Edge 7, Type (0, 0), BuildingBlock: CIFDUS_clean_linker_0, # of connection points: 2
#     Edge 8, Type (0, 0), BuildingBlock: CIFDUS_clean_linker_0, # of connection points: 2
#     Edge 9, Type (0, 0), BuildingBlock: CIFDUS_clean_linker_0, # of connection points: 2
#     Edge 10, Type (0, 0), BuildingBlock: CIFDUS_clean_linker_0, # of connection points: 2
#     Edge 11, Type (0, 0), BuildingBlock: CIFDUS_clean_linker_0, # of connection points: 2
#     Edge 12, Type (0, 0), BuildingBlock: CIFDUS_clean_linker_0, # of connection points: 2
#     Edge 13, Type (0, 0), BuildingBlock: CIFDUS_clean_linker_0, # of connection points: 2
#     Edge 14, Type (0, 0), BuildingBlock: CIFDUS_clean_linker_0, # of connection points: 2
#     Edge 15, Type (0, 0), BuildingBlock: CIFDUS_clean_linker_0, # of connection points: 2
#     Edge 16, Type (0, 0), BuildingBlock: CIFDUS_clean_linker_0, # of connection points: 2
#     Edge 17, Type (0, 0), BuildingBlock: CIFDUS_clean_linker_0, # of connection points: 2
#     Edge 18, Type (0, 0), BuildingBlock: CIFDUS_clean_linker_0, # of connection points: 2
#     Edge 19, Type (0, 0), BuildingBlock: CIFDUS_clean_linker_0, # of connection points: 2
#     Edge 20, Type (0, 0), BuildingBlock: CIFDUS_clean_linker_0, # of connection points: 2
#     Edge 21, Type (0, 0), BuildingBlock: CIFDUS_clean_linker_0, # of connection points: 2
#     Edge 22, Type (0, 0), BuildingBlock: CIFDUS_clean_linker_0, # of connection points: 2
#     Edge 23, Type (0, 0), BuildingBlock: CIFDUS_clean_linker_0, # of connection points: 2
# Relax obj value: 0.814
# Max RMSD: 0.323
# Mean RMSD: 0.323
data_MOF--net-rkf--node1-VOLQOD_clean_sbu_1--edge1-CIFDUS_clean_linker_0
_symmetry_space_group_name_H-M    P1
_symmetry_Int_Tables_number       1
_symmetry_cell_setting            triclinic
loop_
_symmetry_equiv_pos_as_xyz
'x, y, z'
_cell_length_a     25.32851
_cell_length_b     24.588891
_cell_length_c     32.751691
_cell_angle_alpha  90.470931
_cell_angle_beta   90.372354
_cell_angle_gamma 119.17766
loop_
_atom_site_label
_atom_site_type_symbol
_atom_site_fract_x
_atom_site_fract_y
_atom_site_fract_z
_atom_type_partial_charge
O0 O 0.23462 0.10881 0.08207 0.0
Zn1 Zn 0.22875 0.03388 0.05242 0.0
O2 O 0.30933 0.05742 0.0382 0.0
Zn3 Zn 0.30438 0.03206 0.98357 0.0
Zn4 Zn 0.35908 0.14673 0.03756 0.0
Zn5 Zn 0.34022 0.00947 0.06748 0.0
O6 O 0.37245 0.01493 0.97207 0.0
O7 O 0.36633 0.963 0.02859 0.0
O8 O 0.17804 1.00717 0.99932 0.0
O9 O 0.22521 0.95615 0.98003 0.0
O10 O 0.30183 0.09532 0.94515 0.0
O11 O 0.34913 0.18206 0.98231 0.0
O12 O 0.43708 0.15174 0.05609 0.0
O13 O 0.19674 0.96328 0.093 0.0
O14 O 0.41837 0.07258 0.09512 0.0
O15 O 0.27664 0.95242 0.10946 0.0
C16 C 0.27696 0.16297 0.09285 0.0
C17 C 0.38735 0.98094 0.99297 0.0
C18 C 0.32137 0.15366 0.94944 0.0
C19 C 0.18121 0.96684 0.9761 0.0
C20 C 0.43587 0.13046 0.09182 0.0
C21 C 0.22116 0.93811 0.11437 0.0
O22 O 0.33018 0.18525 0.07916 0.0
O23 O 0.11515 0.20562 0.33776 0.0
Zn24 Zn 0.2024 0.22478 0.33634 0.0
O25 O 0.24734 0.31305 0.33829 0.0
Zn26 Zn 0.28739 0.34844 0.28915 0.0
Zn27 Zn 0.19643 0.35009 0.34649 0.0
Zn28 Zn 0.3106 0.33752 0.37711 0.0
O29 O 0.37239 0.41785 0.3017 0.0
O30 O 0.38818 0.36135 0.34793 0.0
O31 O 0.22995 0.19256 0.28732 0.0
O32 O 0.29841 0.28364 0.26249 0.0
O33 O 0.23341 0.36376 0.25004 0.0
O34 O 0.16408 0.36238 0.2916 0.0
O35 O 0.23494 0.41868 0.3891 0.0
O36 O 0.21681 0.18704 0.38807 0.0
O37 O 0.32206 0.41992 0.39717 0.0
O38 O 0.29006 0.26857 0.42098 0.0
C39 C 0.09209 0.23188 0.35993 0.0
C40 C 0.40832 0.40621 0.32279 0.0
C41 C 0.18357 0.36381 0.25553 0.0
C42 C 0.27297 0.22462 0.26279 0.0
C43 C 0.28109 0.43015 0.4112 0.0
C44 C 0.25192 0.21001 0.4191 0.0
O45 O 0.12291 0.28732 0.37303 0.0
O46 O 0.02274 0.12247 0.67429 0.0
Zn47 Zn 0.1047 0.20069 0.67928 0.0
O48 O 0.08825 0.26837 0.67845 0.0
Zn49 Zn 0.13106 0.31238 0.6336 0.0
Zn50 Zn 0.00592 0.23986 0.66386 0.0
Zn51 Zn 0.11948 0.32332 0.7238 0.0
O52 O 0.14459 0.40106 0.6376 0.0
O53 O 0.16432 0.41415 0.70446 0.0
O54 O 0.15895 0.21157 0.6303 0.0
O55 O 0.20727 0.31092 0.64375 0.0
O56 O 0.08526 0.25397 0.58448 0.0
O57 O 0.99014 0.21927 0.60228 0.0
O58 O 0.97868 0.29378 0.69336 0.0
O59 O 0.14952 0.20602 0.73117 0.0
O60 O 0.04401 0.31856 0.74596 0.0
O61 O 0.16633 0.2929 0.76406 0.0
C62 C 0.96864 0.11168 0.68055 0.0
C63 C 0.16207 0.43621 0.66955 0.0
C64 C 0.02864 0.21948 0.57717 0.0
C65 C 0.2028 0.26558 0.62262 0.0
C66 C 0.99563 0.31405 0.72991 0.0
C67 C 0.1725 0.24393 0.76134 0.0
O68 O 0.95631 0.1554 0.68586 0.0
O69 O 0.00625 0.11633 0.01151 0.0
Zn70 Zn 0.94403 0.1416 1.00316 0.0
O71 O 0.86688 0.06904 1.00538 0.0
Zn72 Zn 0.8302 0.04464 0.9527 0.0
Zn73 Zn 0.87753 1.00271 0.02366 0.0
Zn74 Zn 0.82052 0.08814 0.04299 0.0
O75 O 0.74231 0.02062 0.95999 0.0
O76 O 0.75423 0.09021 0.00923 0.0
O77 O 0.94802 0.19017 0.95395 0.0
O78 O 0.86399 0.12317 0.92054 0.0
O79 O 0.84986 0.97984 0.92405 0.0
O80 O 0.8908 0.95689 0.97669 0.0
O81 O 0.809 0.94864 0.06011 0.0
O82 O 0.96169 0.19696 0.05162 0.0
O83 O 0.77778 0.01525 0.07905 0.0
O84 O 0.87452 0.16218 0.08302 0.0
C85 C 0.00193 0.09057 0.04593 0.0
C86 C 0.72324 0.05216 0.98036 0.0
C87 C 0.87698 0.95172 0.93879 0.0
C88 C 0.90993 0.17718 0.92485 0.0
C89 C 0.7756 0.96265 0.08187 0.0
C90 C 0.9316 0.19942 0.08165 0.0
O91 O 0.95201 0.04526 0.05728 0.0
O92 O 0.99715 0.90812 0.32953 0.0
Zn93 Zn 0.91014 0.87879 0.3409 0.0
O94 O 0.89402 0.80042 0.35977 0.0
Zn95 Zn 0.85633 0.73874 0.31878 0.0
Zn96 Zn 0.9699 0.80264 0.37173 0.0
Zn97 Zn 0.84657 0.78274 0.40629 0.0
O98 O 0.78309 0.66688 0.34362 0.0
O99 O 0.76158 0.7262 0.38521 0.0
O100 O 0.85759 0.86971 0.29193 0.0
O101 O 0.81799 0.76835 0.27924 0.0
O102 O 0.91977 0.73145 0.28334 0.0
O103 O 0.00378 0.79016 0.31908 0.0
O104 O 0.95145 0.73568 0.41387 0.0
O105 O 0.90021 0.93041 0.38677 0.0
O106 O 0.86601 0.72728 0.4387 0.0
O107 O 0.86591 0.86484 0.43843 0.0
C108 C 0.02662 0.93014 0.36266 0.0
C109 C 0.74491 0.67664 0.3635 0.0
C110 C 0.97762 0.76092 0.28627 0.0
C111 C 0.82216 0.82069 0.27158 0.0
C112 C 0.90602 0.71014 0.43763 0.0
C113 C 0.88644 0.91991 0.42432 0.0
O114 O 0.02404 0.89177 0.38963 0.0
O115 O 0.92774 0.78157 0.64277 0.0
Zn116 Zn 0.98283 0.76169 0.67498 0.0
O117 O 0.06461 0.82851 0.67026 0.0
Zn118 Zn 0.10941 0.81318 0.62993 0.0
Zn119 Zn 0.06813 0.90719 0.66278 0.0
Zn120 Zn 0.09925 0.83065 0.72187 0.0
O121 O 0.16669 0.78662 0.65593 0.0
O122 O 0.13168 0.76917 0.71942 0.0
O123 O 0.97782 0.68304 0.65097 0.0
O124 O 0.05094 0.73128 0.60525 0.0
O125 O 0.14485 0.88585 0.58725 0.0
O126 O 0.12192 0.95476 0.61502 0.0
O127 O 0.09764 0.95382 0.71763 0.0
O128 O 0.95107 0.76037 0.73257 0.0
O129 O 0.16218 0.91939 0.72754 0.0
O130 O 0.03693 0.81657 0.76639 0.0
C131 C 0.93251 0.8353 0.64015 0.0
C132 C 0.1598 0.75959 0.69029 0.0
C133 C 0.14681 0.93917 0.58685 0.0
C134 C 0.00693 0.6817 0.61951 0.0
C135 C 0.13978 0.95336 0.73906 0.0
C136 C 0.97927 0.7893 0.76504 0.0
O137 O 0.98155 0.88494 0.64981 0.0
H138 H 0.10216 0.20392 0.04153 0.0
H139 H 0.01113 0.04366 0.11903 0.0
H140 H 0.10039 0.08266 0.16288 0.0
H141 H 0.20993 0.13829 0.16149 0.0
H142 H 0.30312 0.28276 0.07513 0.0
H143 H 0.20892 0.28043 0.05577 0.0
C144 C 0.10163 0.17802 0.06833 0.0
C145 C 0.05199 0.11909 0.07561 0.0
C146 C 0.15371 0.1995 0.09251 0.0
C147 C 0.05025 0.0877 0.1117 0.0
C148 C 0.10093 0.11036 0.13714 0.0
C149 C 0.2098 0.17203 0.14045 0.0
C150 C 0.25978 0.20387 0.11519 0.0
C151 C 0.1543 0.16309 0.12564 0.0
C152 C 0.26256 0.25276 0.09185 0.0
C153 C 0.2083 0.25003 0.07976 0.0
H154 H 0.98558 0.99756 0.32319 0.0
H155 H 0.07903 0.99592 0.43364 0.0
H156 H 0.08516 0.09473 0.45551 0.0
H157 H 0.07378 0.1859 0.4367 0.0
H158 H 0.97569 0.17956 0.32839 0.0
H159 H 0.94826 0.07086 0.31636 0.0
C160 C 0.00687 0.01782 0.35239 0.0
C161 C 0.03378 0.99049 0.37627 0.0
C162 C 0.00412 0.06951 0.36656 0.0
C163 C 0.05995 0.01737 0.41424 0.0
C164 C 0.06185 0.07262 0.42721 0.0
C165 C 0.04389 0.15928 0.4116 0.0
C166 C 0.03483 0.19103 0.37927 0.0
C167 C 0.03481 0.09946 0.40312 0.0
C168 C 0.98873 0.15618 0.35095 0.0
C169 C 0.97518 0.09502 0.34312 0.0
H170 H 0.88894 0.88395 0.58238 0.0
H171 H 0.8505 0.79937 0.69995 0.0
H172 H 0.84869 0.88948 0.73004 0.0
H173 H 0.90224 1.0058 0.72414 0.0
H174 H 0.92457 0.08466 0.60459 0.0
H175 H 0.88539 0.9818 0.57282 0.0
C176 C 0.87509 0.88297 0.61379 0.0
C177 C 0.87722 0.8401 0.64056 0.0
C178 C 0.87366 0.93488 0.63033 0.0
C179 C 0.85417 0.83573 0.67996 0.0
C180 C 0.85426 0.88778 0.69735 0.0
C181 C 0.89535 0.99983 0.69133 0.0
C182 C 0.91977 0.05191 0.66617 0.0
C183 C 0.87113 0.94042 0.67333 0.0
C184 C 0.90894 0.04445 0.62391 0.0
C185 C 0.88638 0.98589 0.6058 0.0
H186 H 0.29888 0.12503 0.86836 0.0
H187 H 0.30244 0.25417 0.95944 0.0
H188 H 0.25862 0.29601 0.91003 0.0
H189 H 0.21201 0.29068 0.84101 0.0
H190 H 0.21511 0.16302 0.7508 0.0
H191 H 0.26437 0.12799 0.79899 0.0
C192 C 0.29113 0.16311 0.87732 0.0
C193 C 0.30423 0.18624 0.91774 0.0
C194 C 0.26642 0.18739 0.84865 0.0
C195 C 0.29357 0.23566 0.92851 0.0
C196 C 0.26793 0.25936 0.90024 0.0
C197 C 0.2238 0.25554 0.83184 0.0
C198 C 0.20803 0.22893 0.79209 0.0
C199 C 0.25298 0.23483 0.86022 0.0
C200 C 0.2249 0.1839 0.78108 0.0
C201 C 0.25354 0.16362 0.80873 0.0
H202 H 0.05932 0.3102 0.25296 0.0
H203 H 0.21614 0.38823 0.17575 0.0
H204 H 0.15103 0.35011 0.11527 0.0
H205 H 0.0512 0.28563 0.08446 0.0
H206 H 0.89325 0.20151 0.16042 0.0
H207 H 0.95688 0.25212 0.22084 0.0
C208 C 0.07925 0.32054 0.22288 0.0
C209 C 0.14304 0.35269 0.21922 0.0
C210 C 0.0412 0.29688 0.18784 0.0
C211 C 0.16759 0.36416 0.17978 0.0
C212 C 0.13025 0.342 0.14504 0.0
C213 C 0.03009 0.27903 0.11406 0.0
C214 C 0.96698 0.23938 0.11752 0.0
C215 C 0.06717 0.30692 0.14873 0.0
C216 C 0.94129 0.23186 0.15645 0.0
C217 C 0.97792 0.26052 0.19116 0.0
H218 H 0.94589 0.17756 0.5117 0.0
H219 H 0.06293 0.13237 0.58235 0.0
H220 H 0.02686 0.03478 0.54451 0.0
H221 H 0.9604 0.95962 0.49179 0.0
H222 H 0.85004 1.00726 0.41595 0.0
H223 H 0.88325 0.10418 0.45531 0.0
C224 C 0.96408 0.14675 0.51831 0.0
C225 C 0.00897 0.16392 0.54916 0.0
C226 C 0.94276 0.08963 0.49604 0.0
C227 C 0.03088 0.12237 0.5576 0.0
C228 C 0.00922 0.06558 0.53643 0.0
C229 C 0.94263 0.9906 0.48445 0.0
C230 C 0.90097 0.97481 0.45175 0.0
C231 C 0.96474 0.04822 0.50581 0.0
C232 C 0.88075 0.01719 0.4416 0.0
C233 C 0.90028 0.07309 0.46393 0.0
H234 H 0.82632 0.88377 0.86718 0.0
H235 H 0.97848 0.94259 0.94971 0.0
H236 H 0.02031 0.89253 0.90629 0.0
H237 H 0.01882 0.83891 0.84198 0.0
H238 H 0.86297 0.77019 0.76264 0.0
H239 H 0.81811 0.8165 0.80712 0.0
C240 C 0.86867 0.8857 0.87559 0.0
C241 C 0.89933 0.9179 0.91164 0.0
C242 C 0.89258 0.85551 0.85062 0.0
C243 C 0.95368 0.91857 0.92225 0.0
C244 C 0.97809 0.89018 0.89724 0.0
C245 C 0.97496 0.8337 0.83452 0.0
C246 C 0.9459 0.80322 0.79776 0.0
C247 C 0.94862 0.85938 0.86099 0.0
C248 C 0.88771 0.79506 0.78975 0.0
C249 C 0.86182 0.82163 0.81537 0.0
H250 H 0.10087 0.81151 0.28086 0.0
H251 H 0.93908 0.74315 0.20651 0.0
H252 H 0.00038 0.78852 0.14616 0.0
H253 H 0.09948 0.85871 0.11579 0.0
H254 H 0.26157 0.92448 0.18918 0.0
H255 H 0.20086 0.86912 0.24824 0.0
C256 C 0.07892 0.80511 0.25131 0.0
C257 C 0.01503 0.77399 0.24864 0.0
C258 C 0.11464 0.83184 0.21647 0.0
C259 C 0.98784 0.76634 0.20984 0.0
C260 C 0.023 0.79295 0.17519 0.0
C261 C 0.1216 0.86003 0.14455 0.0
C262 C 0.18511 0.8961 0.14803 0.0
C263 C 0.08633 0.82753 0.17836 0.0
C264 C 0.21295 0.89688 0.18547 0.0
C265 C 0.17812 0.86547 0.21938 0.0
H266 H 0.21411 0.06712 0.58699 0.0
H267 H 0.1362 0.90747 0.50586 0.0
H268 H 0.16348 0.97623 0.44688 0.0
H269 H 0.20021 0.08202 0.41852 0.0
H270 H 0.29216 0.24195 0.49856 0.0
H271 H 0.26848 0.17334 0.55733 0.0
C272 C 0.20372 0.04737 0.55636 0.0
C273 C 0.17246 0.98181 0.5511 0.0
C274 C 0.22082 0.08748 0.52228 0.0
C275 C 0.16023 0.95741 0.51103 0.0
C276 C 0.17537 0.99689 0.47721 0.0
C277 C 0.2155 0.10206 0.44877 0.0
C278 C 0.24566 0.16769 0.45403 0.0
C279 C 0.20413 0.06203 0.48245 0.0
C280 C 0.26718 0.19205 0.49342 0.0
C281 C 0.25372 0.15263 0.52719 0.0
H282 H 0.4865 0.06868 0.9565 0.0
H283 H 0.40873 0.8836 1.00545 0.0
H284 H 0.50649 0.88633 1.00005 0.0
H285 H 0.61695 0.94755 0.99054 0.0
H286 H 0.69573 0.1379 0.95148 0.0
H287 H 0.59491 0.12743 0.94365 0.0
C288 C 0.49055 0.02822 0.96478 0.0
C289 C 0.44063 0.97575 0.98094 0.0
C290 C 0.54744 0.0318 0.96404 0.0
C291 C 0.44667 0.92424 0.99264 0.0
C292 C 0.50257 0.92605 0.98987 0.0
C293 C 0.61153 0.9861 0.97961 0.0
C294 C 0.66285 0.04328 0.97139 0.0
C295 C 0.55371 0.98048 0.97705 0.0
C296 C 0.65629 0.09359 0.95791 0.0
C297 C 0.59886 0.08756 0.95347 0.0
H298 H 0.4614 0.52848 0.34022 0.0
H299 H 0.49958 0.38047 0.31005 0.0
H300 H 0.6083 0.45168 0.31942 0.0
H301 H 0.69175 0.55527 0.33872 0.0
H302 H 0.65168 0.70032 0.37501 0.0
H303 H 0.54437 0.63095 0.36142 0.0
C304 C 0.49386 0.51243 0.33503 0.0
C305 C 0.47338 0.4502 0.32364 0.0
C306 C 0.55564 0.55273 0.34232 0.0
C307 C 0.51504 0.42874 0.31825 0.0
C308 C 0.5769 0.46923 0.32387 0.0
C309 C 0.65947 0.57158 0.34372 0.0
C310 C 0.67966 0.6328 0.35789 0.0
C311 C 0.59765 0.53115 0.33641 0.0
C312 C 0.63729 0.65321 0.36449 0.0
C313 C 0.57593 0.61375 0.35644 0.0
H314 H 0.17442 0.51647 0.73227 0.0
H315 H 0.17454 0.50409 0.60073 0.0
H316 H 0.18103 0.60623 0.59582 0.0
H317 H 0.17739 0.6949 0.62846 0.0
H318 H 0.17179 0.70487 0.75983 0.0
H319 H 0.17765 0.60878 0.76508 0.0
C320 C 0.17689 0.53643 0.70248 0.0
C321 C 0.17385 0.502 0.66691 0.0
C322 C 0.17946 0.59503 0.6998 0.0
C323 C 0.17661 0.52896 0.62867 0.0
C324 C 0.18026 0.58756 0.62581 0.0
C325 C 0.17891 0.677 0.65834 0.0
C326 C 0.17447 0.70774 0.69374 0.0
C327 C 0.18049 0.62051 0.66112 0.0
C328 C 0.17534 0.68269 0.73206 0.0
C329 C 0.17838 0.62739 0.73508 0.0
H330 H 0.34807 0.0675 0.14797 0.0
H331 H 0.47931 0.25252 0.11024 0.0
H332 H 0.44079 0.29743 0.16108 0.0
H333 H 0.3673 0.28387 0.21237 0.0
H334 H 0.23409 0.09951 0.25004 0.0
H335 H 0.27623 0.05397 0.20203 0.0
C336 C 0.36896 0.11769 0.15117 0.0
C337 C 0.4165 0.15693 0.12526 0.0
C338 C 0.34589 0.14294 0.17982 0.0
C339 C 0.44268 0.2217 0.12976 0.0
C340 C 0.42056 0.2472 0.15865 0.0
C341 C 0.34716 0.23359 0.2104 0.0
C342 C 0.29705 0.19505 0.23455 0.0
C343 C 0.3716 0.20819 0.1832 0.0
C344 C 0.27235 0.13015 0.23164 0.0
C345 C 0.29654 0.10422 0.20433 0.0
H346 H 0.20209 0.31803 0.43769 0.0
H347 H 0.33859 0.50049 0.47814 0.0
H348 H 0.33431 0.46132 0.54744 0.0
H349 H 0.29144 0.37514 0.59551 0.0
H350 H 0.15815 0.19161 0.5538 0.0
H351 H 0.16285 0.23073 0.48503 0.0
C352 C 0.22929 0.34952 0.46213 0.0
C353 C 0.26867 0.41247 0.45381 0.0
C354 C 0.22851 0.32605 0.5009 0.0
C355 C 0.30643 0.45243 0.4847 0.0
C356 C 0.30479 0.42975 0.52386 0.0
C357 C 0.26444 0.3433 0.57115 0.0
C358 C 0.2228 0.28097 0.58007 0.0
C359 C 0.26659 0.36646 0.53204 0.0
C360 C 0.18908 0.24012 0.54808 0.0
C361 C 0.19118 0.26267 0.50887 0.0
H362 H 0.0194 0.38517 0.79775 0.0
H363 H 0.87215 0.24316 0.72714 0.0
H364 H 0.8216 0.1909 0.78946 0.0
H365 H 0.84036 0.16581 0.85847 0.0
H366 H 0.99862 0.29905 0.92616 0.0
H367 H 0.02476 0.37332 0.87105 0.0
C368 C 0.97468 0.3445 0.79631 0.0
C369 C 0.95159 0.31503 0.75845 0.0
C370 C 0.95 0.31087 0.83183 0.0
C371 C 0.89221 0.26504 0.75623 0.0
C372 C 0.86402 0.23414 0.7919 0.0
C373 C 0.87997 0.21151 0.86152 0.0
C374 C 0.91923 0.22579 0.89532 0.0
C375 C 0.89601 0.25303 0.82911 0.0
C376 C 0.96903 0.286 0.89961 0.0
C377 C 0.98374 0.32877 0.86828 0.0
H378 H 0.74891 0.84342 0.09532 0.0
H379 H 0.73967 0.99837 0.15071 0.0
H380 H 0.7438 0.96055 0.21833 0.0
H381 H 0.77951 0.90128 0.25951 0.0
H382 H 0.79054 0.74757 0.20372 0.0
H383 H 0.75635 0.76707 0.13864 0.0
C384 C 0.74538 0.86749 0.1222 0.0
C385 C 0.74738 0.92515 0.11819 0.0
C386 C 0.75028 0.84697 0.16096 0.0
C387 C 0.74013 0.95468 0.15303 0.0
C388 C 0.74332 0.9336 0.19183 0.0
C389 C 0.77311 0.87141 0.23324 0.0
C390 C 0.78957 0.82481 0.2357 0.0
C391 C 0.75354 0.88287 0.19588 0.0
C392 C 0.77927 0.78473 0.20213 0.0
C393 C 0.75969 0.79573 0.16491 0.0
H394 H 0.98606 0.66795 0.45264 0.0
H395 H 0.81164 0.64273 0.48809 0.0
H396 H 0.81711 0.59504 0.55131 0.0
H397 H 0.88836 0.60195 0.60424 0.0
H398 H 0.06572 0.63659 0.57128 0.0
H399 H 0.04043 0.63287 0.49908 0.0
C400 C 0.94837 0.65005 0.47352 0.0
C401 C 0.9007 0.66287 0.46722 0.0
C402 C 0.95234 0.62389 0.51048 0.0
C403 C 0.85067 0.63663 0.49344 0.0
C404 C 0.8534 0.60878 0.52958 0.0
C405 C 0.92006 0.60463 0.58114 0.0
C406 C 0.98068 0.62681 0.59216 0.0
C407 C 0.90666 0.60818 0.54005 0.0
C408 C 0.01971 0.62414 0.56281 0.0
C409 C 0.00584 0.62375 0.52146 0.0
H410 H 0.14492 0.8821 0.79817 0.0
H411 H 0.13371 0.04941 0.7793 0.0
H412 H 0.13651 0.06598 0.85392 0.0
H413 H 0.15193 0.03536 0.92413 0.0
H414 H 0.14311 0.85676 0.93892 0.0
H415 H 0.13478 0.84011 0.86546 0.0
C416 C 0.14285 0.9223 0.8101 0.0
C417 C 0.14151 0.96588 0.78335 0.0
C418 C 0.13969 0.92857 0.85214 0.0
C419 C 0.13674 0.01637 0.79949 0.0
C420 C 0.13759 0.0253 0.84199 0.0
C421 C 0.14526 0.99163 0.91131 0.0
C422 C 0.14914 0.94763 0.9367 0.0
C423 C 0.13989 0.9819 0.86867 0.0
C424 C 0.14061 0.89125 0.91981 0.0
C425 C 0.13703 0.88223 0.87784 0.0
loop_
_geom_bond_atom_site_label_1
_geom_bond_atom_site_label_2
_geom_bond_distance
_geom_bond_site_symmetry_2
_ccdc_geom_bond_type
O0 Zn1 1.952 1_546 S
O0 C16 1.225 1_556 S
Zn1 O0 1.952 1_564 S
Zn1 O2 1.952 1_565 S
Zn1 O8 1.902 1_554 S
Zn1 O13 1.942 . S
O2 Zn1 1.952 1_545 S
O2 Zn3 1.923 1_554 S
O2 Zn4 1.950 . S
O2 Zn5 1.945 . S
Zn3 O2 1.923 1_556 S
Zn3 O6 1.933 . S
Zn3 O9 1.941 . S
Zn3 O10 1.965 . S
Zn4 O2 1.950 . S
Zn4 O11 1.938 1_554 S
Zn4 O12 1.906 . S
Zn4 O22 1.953 . S
Zn5 O2 1.945 . S
Zn5 O7 1.932 . S
Zn5 O14 1.977 . S
Zn5 O15 1.910 1_545 S
O6 Zn3 1.933 . S
O6 C17 1.226 1_556 S
O7 Zn5 1.932 . S
O7 C17 1.307 . S
O8 Zn1 1.902 1_556 S
O8 C19 1.253 . S
O9 Zn3 1.941 . S
O9 C19 1.283 1_545 S
O10 Zn3 1.965 . S
O10 C18 1.303 . S
O11 Zn4 1.938 1_556 S
O11 C18 1.247 . S
O12 Zn4 1.906 . S
O12 C20 1.304 . S
O13 Zn1 1.942 . S
O13 C21 1.311 . S
O14 Zn5 1.977 . S
O14 C20 1.272 . S
O15 Zn5 1.910 1_565 S
O15 C21 1.231 . S
C16 O0 1.225 1_554 S
C16 O22 1.298 . S
C17 O6 1.226 1_554 S
C17 O7 1.307 . S
C18 O10 1.303 . S
C18 O11 1.247 . S
C19 O8 1.253 . S
C19 O9 1.283 1_565 S
C20 O12 1.304 . S
C20 O14 1.272 . S
C21 O13 1.311 . S
C21 O15 1.231 . S
O22 Zn4 1.953 . S
O22 C16 1.298 . S
O23 Zn24 1.953 . S
O23 C39 1.225 . S
Zn24 O23 1.953 . S
Zn24 O25 1.949 . S
Zn24 O31 1.919 . S
Zn24 O36 1.924 . S
O25 Zn24 1.949 . S
O25 Zn26 1.923 . S
O25 Zn27 1.950 . S
O25 Zn28 1.945 . S
Zn26 O25 1.923 . S
Zn26 O29 1.933 . S
Zn26 O32 1.941 . S
Zn26 O33 1.965 . S
Zn27 O25 1.950 . S
Zn27 O34 1.938 . S
Zn27 O35 1.906 . S
Zn27 O45 1.953 . S
Zn28 O25 1.945 . S
Zn28 O30 1.932 . S
Zn28 O37 1.977 . S
Zn28 O38 1.910 . S
O29 Zn26 1.933 . S
O29 C40 1.226 . S
O30 Zn28 1.932 . S
O30 C40 1.307 . S
O31 Zn24 1.919 . S
O31 C42 1.253 . S
O32 Zn26 1.941 . S
O32 C42 1.283 . S
O33 Zn26 1.965 . S
O33 C41 1.303 . S
O34 Zn27 1.938 . S
O34 C41 1.247 . S
O35 Zn27 1.906 . S
O35 C43 1.304 . S
O36 Zn24 1.924 . S
O36 C44 1.311 . S
O37 Zn28 1.977 . S
O37 C43 1.272 . S
O38 Zn28 1.910 . S
O38 C44 1.231 . S
C39 O23 1.225 . S
C39 O45 1.298 . S
C40 O29 1.226 . S
C40 O30 1.307 . S
C41 O33 1.303 . S
C41 O34 1.247 . S
C42 O31 1.253 . S
C42 O32 1.283 . S
C43 O35 1.304 . S
C43 O37 1.272 . S
C44 O36 1.311 . S
C44 O38 1.231 . S
O45 Zn27 1.953 . S
O45 C39 1.298 . S
O46 Zn47 1.953 . S
O46 C62 1.225 . S
Zn47 O46 1.953 . S
Zn47 O48 1.949 . S
Zn47 O54 1.919 . S
Zn47 O59 1.924 . S
O48 Zn47 1.949 . S
O48 Zn49 1.923 . S
O48 Zn50 1.950 1_455 S
O48 Zn51 1.945 . S
Zn49 O48 1.923 . S
Zn49 O52 1.933 . S
Zn49 O55 1.941 . S
Zn49 O56 1.965 1_455 S
Zn50 O48 1.950 1_655 S
Zn50 O57 1.938 . S
Zn50 O58 1.906 . S
Zn50 O68 1.953 1_655 S
Zn51 O48 1.945 . S
Zn51 O53 1.932 . S
Zn51 O60 1.977 1_455 S
Zn51 O61 1.910 . S
O52 Zn49 1.933 . S
O52 C63 1.226 . S
O53 Zn51 1.932 . S
O53 C63 1.307 . S
O54 Zn47 1.919 . S
O54 C65 1.253 . S
O55 Zn49 1.941 . S
O55 C65 1.283 . S
O56 Zn49 1.965 1_655 S
O56 C64 1.303 . S
O57 Zn50 1.938 . S
O57 C64 1.247 . S
O58 Zn50 1.906 . S
O58 C66 1.304 . S
O59 Zn47 1.924 . S
O59 C67 1.311 . S
O60 Zn51 1.977 1_655 S
O60 C66 1.272 . S
O61 Zn51 1.910 . S
O61 C67 1.231 . S
C62 O46 1.225 . S
C62 O68 1.298 . S
C63 O52 1.226 . S
C63 O53 1.307 . S
C64 O56 1.303 . S
C64 O57 1.247 . S
C65 O54 1.253 . S
C65 O55 1.283 . S
C66 O58 1.304 . S
C66 O60 1.272 . S
C67 O59 1.311 . S
C67 O61 1.231 . S
O68 Zn50 1.953 1_455 S
O68 C62 1.298 . S
O69 Zn70 1.952 1_556 S
O69 C85 1.225 1_556 S
Zn70 O69 1.952 1_554 S
Zn70 O71 1.952 . S
Zn70 O77 1.901 1_554 S
Zn70 O82 1.942 . S
O71 Zn70 1.952 . S
O71 Zn72 1.923 1_554 S
O71 Zn73 1.950 1_545 S
O71 Zn74 1.945 . S
Zn72 O71 1.923 1_556 S
Zn72 O75 1.933 . S
Zn72 O78 1.941 . S
Zn72 O79 1.965 1_545 S
Zn73 O71 1.950 1_565 S
Zn73 O80 1.938 1_554 S
Zn73 O81 1.906 . S
Zn73 O91 1.953 . S
Zn74 O71 1.945 . S
Zn74 O76 1.932 . S
Zn74 O83 1.977 1_545 S
Zn74 O84 1.910 . S
O75 Zn72 1.933 . S
O75 C86 1.226 1_556 S
O76 Zn74 1.932 . S
O76 C86 1.307 . S
O77 Zn70 1.901 1_556 S
O77 C88 1.253 . S
O78 Zn72 1.941 . S
O78 C88 1.283 . S
O79 Zn72 1.965 1_565 S
O79 C87 1.303 . S
O80 Zn73 1.938 1_556 S
O80 C87 1.247 . S
O81 Zn73 1.906 . S
O81 C89 1.304 . S
O82 Zn70 1.942 . S
O82 C90 1.311 . S
O83 Zn74 1.977 1_565 S
O83 C89 1.272 . S
O84 Zn74 1.910 . S
O84 C90 1.231 . S
C85 O69 1.225 1_554 S
C85 O91 1.298 1_545 S
C86 O75 1.226 1_554 S
C86 O76 1.307 . S
C87 O79 1.303 . S
C87 O80 1.247 . S
C88 O77 1.253 . S
C88 O78 1.283 . S
C89 O81 1.304 . S
C89 O83 1.272 . S
C90 O82 1.311 . S
C90 O84 1.231 . S
O91 Zn73 1.953 . S
O91 C85 1.298 1_565 S
O92 Zn93 1.953 . S
O92 C108 1.212 1_655 S
Zn93 O92 1.953 . S
Zn93 O94 1.949 . S
Zn93 O100 1.919 . S
Zn93 O105 1.924 . S
O94 Zn93 1.949 . S
O94 Zn95 1.923 . S
O94 Zn96 1.950 . S
O94 Zn97 1.945 . S
Zn95 O94 1.923 . S
Zn95 O98 1.933 . S
Zn95 O101 1.941 . S
Zn95 O102 1.965 . S
Zn96 O94 1.950 . S
Zn96 O103 1.938 . S
Zn96 O104 1.906 . S
Zn96 O114 1.953 1_655 S
Zn97 O94 1.945 . S
Zn97 O99 1.932 . S
Zn97 O106 1.977 . S
Zn97 O107 1.910 . S
O98 Zn95 1.933 . S
O98 C109 1.226 . S
O99 Zn97 1.932 . S
O99 C109 1.307 . S
O100 Zn93 1.919 . S
O100 C111 1.253 . S
O101 Zn95 1.941 . S
O101 C111 1.283 . S
O102 Zn95 1.965 . S
O102 C110 1.303 . S
O103 Zn96 1.938 . S
O103 C110 1.247 . S
O104 Zn96 1.906 . S
O104 C112 1.304 . S
O105 Zn93 1.924 . S
O105 C113 1.311 . S
O106 Zn97 1.977 . S
O106 C112 1.272 . S
O107 Zn97 1.910 . S
O107 C113 1.231 . S
C108 O92 1.212 1_455 S
C108 O114 1.306 . S
C109 O98 1.226 . S
C109 O99 1.307 . S
C110 O102 1.303 . S
C110 O103 1.247 . S
C111 O100 1.253 . S
C111 O101 1.283 . S
C112 O104 1.304 . S
C112 O106 1.272 . S
C113 O105 1.311 . S
C113 O107 1.231 . S
O114 Zn96 1.953 1_455 S
O114 C108 1.306 . S
O115 Zn116 1.953 . S
O115 C131 1.225 . S
Zn116 O115 1.953 . S
Zn116 O117 1.949 . S
Zn116 O123 1.919 1_455 S
Zn116 O128 1.924 1_455 S
O117 Zn116 1.949 . S
O117 Zn118 1.923 . S
O117 Zn119 1.950 . S
O117 Zn120 1.945 . S
Zn118 O117 1.923 . S
Zn118 O121 1.933 . S
Zn118 O124 1.941 . S
Zn118 O125 1.965 . S
Zn119 O117 1.950 . S
Zn119 O126 1.938 . S
Zn119 O127 1.906 . S
Zn119 O137 1.953 . S
Zn120 O117 1.945 . S
Zn120 O122 1.932 . S
Zn120 O129 1.977 . S
Zn120 O130 1.910 . S
O121 Zn118 1.933 . S
O121 C132 1.226 . S
O122 Zn120 1.932 . S
O122 C132 1.307 . S
O123 Zn116 1.919 1_655 S
O123 C134 1.253 . S
O124 Zn118 1.941 . S
O124 C134 1.283 1_455 S
O125 Zn118 1.965 . S
O125 C133 1.303 . S
O126 Zn119 1.938 . S
O126 C133 1.247 . S
O127 Zn119 1.906 . S
O127 C135 1.304 . S
O128 Zn116 1.924 1_655 S
O128 C136 1.311 . S
O129 Zn120 1.977 . S
O129 C135 1.272 . S
O130 Zn120 1.910 . S
O130 C136 1.231 1_455 S
C131 O115 1.225 . S
C131 O137 1.298 . S
C132 O121 1.226 . S
C132 O122 1.307 . S
C133 O125 1.303 . S
C133 O126 1.247 . S
C134 O123 1.253 . S
C134 O124 1.283 1_655 S
C135 O127 1.304 . S
C135 O129 1.272 . S
C136 O128 1.311 . S
C136 O130 1.231 1_655 S
O137 Zn119 1.953 . S
O137 C131 1.298 . S
H138 C144 0.930 . S
H139 C147 0.930 . S
H140 C148 0.930 . S
H141 C149 0.930 1_566 S
H142 C152 0.930 . S
H143 C153 0.930 . S
C144 H138 0.930 . S
C144 C145 1.355 1_455 S
C144 C146 1.415 . S
C145 C144 1.355 1_655 S
C145 C147 1.419 1_544 S
C146 C144 1.415 . S
C146 C151 1.425 . S
C146 C153 1.409 . S
C147 H139 0.930 . S
C147 C145 1.419 1_566 S
C147 C148 1.362 1_655 S
C148 H140 0.930 . S
C148 C147 1.362 1_455 S
C148 C151 1.409 1_566 S
C149 H141 0.930 1_544 S
C149 C150 1.355 . S
C149 C151 1.415 . S
C150 C149 1.355 . S
C150 C152 1.419 . S
C151 C146 1.425 . S
C151 C148 1.409 1_544 S
C151 C149 1.415 . S
C152 H142 0.930 . S
C152 C150 1.419 . S
C152 C153 1.362 . S
C153 H143 0.930 . S
C153 C146 1.409 . S
C153 C152 1.362 . S
H154 C160 0.930 . S
H155 C163 0.930 . S
H156 C164 0.930 . S
H157 C165 0.930 . S
H158 C168 0.930 . S
H159 C169 0.930 . S
C160 H154 0.930 . S
C160 C161 1.355 . S
C160 C162 1.415 1_665 S
C161 C160 1.355 . S
C161 C163 1.419 1_655 S
C162 C160 1.415 1_445 S
C162 C167 1.425 . S
C162 C169 1.409 . S
C163 H155 0.930 . S
C163 C161 1.419 1_455 S
C163 C164 1.362 . S
C164 H156 0.930 . S
C164 C163 1.362 . S
C164 C167 1.409 1_565 S
C165 H157 0.930 . S
C165 C166 1.355 . S
C165 C167 1.415 . S
C166 C165 1.355 . S
C166 C168 1.419 . S
C167 C162 1.425 . S
C167 C164 1.409 1_545 S
C167 C165 1.415 . S
C168 H158 0.930 . S
C168 C166 1.419 . S
C168 C169 1.362 . S
C169 H159 0.930 . S
C169 C162 1.409 . S
C169 C168 1.362 . S
H170 C176 0.930 . S
H171 C179 0.930 . S
H172 C180 0.930 . S
H173 C181 0.930 . S
H174 C184 0.930 . S
H175 C185 0.930 1_565 S
C176 H170 0.930 . S
C176 C177 1.355 . S
C176 C178 1.415 1_565 S
C177 C176 1.355 . S
C177 C179 1.419 1_565 S
C178 C176 1.415 1_545 S
C178 C183 1.425 . S
C178 C185 1.409 1_455 S
C179 H171 0.930 . S
C179 C177 1.419 1_545 S
C179 C180 1.362 . S
C180 H172 0.930 . S
C180 C179 1.362 . S
C180 C183 1.409 . S
C181 H173 0.930 . S
C181 C182 1.355 . S
C181 C183 1.415 . S
C182 C181 1.355 . S
C182 C184 1.419 1_455 S
C183 C178 1.425 . S
C183 C180 1.409 . S
C183 C181 1.415 . S
C184 H174 0.930 . S
C184 C182 1.419 1_655 S
C184 C185 1.362 . S
C185 H175 0.930 1_545 S
C185 C178 1.409 1_655 S
C185 C184 1.362 . S
H186 C192 0.930 . S
H187 C195 0.930 . S
H188 C196 0.930 . S
H189 C197 0.930 . S
H190 C200 0.930 . S
H191 C201 0.930 . S
C192 H186 0.930 . S
C192 C193 1.355 . S
C192 C194 1.415 . S
C193 C192 1.355 . S
C193 C195 1.419 . S
C194 C192 1.415 . S
C194 C199 1.425 . S
C194 C201 1.409 . S
C195 H187 0.930 . S
C195 C193 1.419 . S
C195 C196 1.362 . S
C196 H188 0.930 . S
C196 C195 1.362 . S
C196 C199 1.409 . S
C197 H189 0.930 . S
C197 C198 1.355 . S
C197 C199 1.415 . S
C198 C197 1.355 . S
C198 C200 1.419 . S
C199 C194 1.425 . S
C199 C196 1.409 . S
C199 C197 1.415 . S
C200 H190 0.930 . S
C200 C198 1.419 . S
C200 C201 1.362 . S
C201 H191 0.930 . S
C201 C194 1.409 . S
C201 C200 1.362 . S
H202 C208 0.930 . S
H203 C211 0.930 . S
H204 C212 0.930 . S
H205 C213 0.930 . S
H206 C216 0.930 . S
H207 C217 0.930 . S
C208 H202 0.930 . S
C208 C209 1.355 . S
C208 C210 1.415 . S
C209 C208 1.355 . S
C209 C211 1.419 . S
C210 C208 1.415 . S
C210 C215 1.425 . S
C210 C217 1.409 1_455 S
C211 H203 0.930 . S
C211 C209 1.419 . S
C211 C212 1.362 . S
C212 H204 0.930 . S
C212 C211 1.362 . S
C212 C215 1.409 . S
C213 H205 0.930 . S
C213 C214 1.355 1_455 S
C213 C215 1.415 . S
C214 C213 1.355 1_655 S
C214 C216 1.419 . S
C215 C210 1.425 . S
C215 C212 1.409 . S
C215 C213 1.415 . S
C216 H206 0.930 . S
C216 C214 1.419 . S
C216 C217 1.362 . S
C217 H207 0.930 . S
C217 C210 1.409 1_655 S
C217 C216 1.362 . S
H218 C224 0.930 . S
H219 C227 0.930 . S
H220 C228 0.930 . S
H221 C229 0.930 . S
H222 C232 0.930 . S
H223 C233 0.930 . S
C224 H218 0.930 . S
C224 C225 1.355 . S
C224 C226 1.415 . S
C225 C224 1.355 . S
C225 C227 1.419 . S
C226 C224 1.415 . S
C226 C231 1.425 . S
C226 C233 1.409 . S
C227 H219 0.930 . S
C227 C225 1.419 . S
C227 C228 1.362 . S
C228 H220 0.930 . S
C228 C227 1.362 . S
C228 C231 1.409 . S
C229 H221 0.930 . S
C229 C230 1.355 . S
C229 C231 1.415 1_565 S
C230 C229 1.355 . S
C230 C232 1.419 . S
C231 C226 1.425 . S
C231 C228 1.409 . S
C231 C229 1.415 1_545 S
C232 H222 0.930 . S
C232 C230 1.419 . S
C232 C233 1.362 1_565 S
C233 H223 0.930 . S
C233 C226 1.409 . S
C233 C232 1.362 1_545 S
H234 C240 0.930 . S
H235 C243 0.930 . S
H236 C244 0.930 . S
H237 C245 0.930 . S
H238 C248 0.930 . S
H239 C249 0.930 . S
C240 H234 0.930 . S
C240 C241 1.355 . S
C240 C242 1.415 . S
C241 C240 1.355 . S
C241 C243 1.419 . S
C242 C240 1.415 . S
C242 C247 1.425 . S
C242 C249 1.409 . S
C243 H235 0.930 . S
C243 C241 1.419 . S
C243 C244 1.362 . S
C244 H236 0.930 . S
C244 C243 1.362 . S
C244 C247 1.409 . S
C245 H237 0.930 . S
C245 C246 1.355 . S
C245 C247 1.415 . S
C246 C245 1.355 . S
C246 C248 1.419 . S
C247 C242 1.425 . S
C247 C244 1.409 . S
C247 C245 1.415 . S
C248 H238 0.930 . S
C248 C246 1.419 . S
C248 C249 1.362 . S
C249 H239 0.930 . S
C249 C242 1.409 . S
C249 C248 1.362 . S
H250 C256 0.930 . S
H251 C259 0.930 . S
H252 C260 0.929 1_655 S
H253 C261 0.930 . S
H254 C264 0.930 . S
H255 C265 0.930 . S
C256 H250 0.930 . S
C256 C257 1.357 . S
C256 C258 1.415 . S
C257 C256 1.357 . S
C257 C259 1.419 1_455 S
C258 C256 1.415 . S
C258 C263 1.425 . S
C258 C265 1.409 . S
C259 H251 0.930 . S
C259 C257 1.419 1_655 S
C259 C260 1.362 1_655 S
C260 H252 0.929 1_455 S
C260 C259 1.362 1_455 S
C260 C263 1.409 . S
C261 H253 0.930 . S
C261 C262 1.355 . S
C261 C263 1.415 . S
C262 C261 1.355 . S
C262 C264 1.419 . S
C263 C258 1.425 . S
C263 C260 1.409 . S
C263 C261 1.415 . S
C264 H254 0.930 . S
C264 C262 1.419 . S
C264 C265 1.362 . S
C265 H255 0.930 . S
C265 C258 1.409 . S
C265 C264 1.362 . S
H266 C272 0.930 . S
H267 C275 0.930 . S
H268 C276 0.930 . S
H269 C277 0.930 . S
H270 C280 0.930 . S
H271 C281 0.930 . S
C272 H266 0.930 . S
C272 C273 1.355 1_545 S
C272 C274 1.415 . S
C273 C272 1.355 1_565 S
C273 C275 1.419 . S
C274 C272 1.415 . S
C274 C279 1.425 . S
C274 C281 1.409 . S
C275 H267 0.930 . S
C275 C273 1.419 . S
C275 C276 1.362 . S
C276 H268 0.930 . S
C276 C275 1.362 . S
C276 C279 1.409 1_565 S
C277 H269 0.930 . S
C277 C278 1.355 . S
C277 C279 1.415 . S
C278 C277 1.355 . S
C278 C280 1.419 . S
C279 C274 1.425 . S
C279 C276 1.409 1_545 S
C279 C277 1.415 . S
C280 H270 0.930 . S
C280 C278 1.419 . S
C280 C281 1.362 . S
C281 H271 0.930 . S
C281 C274 1.409 . S
C281 C280 1.362 . S
H282 C288 0.930 . S
H283 C291 0.930 1_565 S
H284 C292 0.930 . S
H285 C293 0.930 . S
H286 C296 0.930 . S
H287 C297 0.930 . S
C288 H282 0.930 . S
C288 C289 1.355 1_556 S
C288 C290 1.415 1_556 S
C289 C288 1.355 1_554 S
C289 C291 1.419 . S
C290 C288 1.415 1_554 S
C290 C295 1.425 . S
C290 C297 1.409 1_554 S
C291 H283 0.930 1_545 S
C291 C289 1.419 . S
C291 C292 1.362 1_545 S
C292 H284 0.930 . S
C292 C291 1.362 1_565 S
C292 C295 1.409 1_565 S
C293 H285 0.930 . S
C293 C294 1.355 1_565 S
C293 C295 1.415 1_565 S
C294 C293 1.355 1_545 S
C294 C296 1.419 1_554 S
C295 C290 1.425 . S
C295 C292 1.409 1_545 S
C295 C293 1.415 1_545 S
C296 H286 0.930 . S
C296 C294 1.419 1_556 S
C296 C297 1.362 . S
C297 H287 0.930 . S
C297 C290 1.409 1_556 S
C297 C296 1.362 . S
H298 C304 0.930 . S
H299 C307 0.930 . S
H300 C308 0.930 . S
H301 C309 0.930 . S
H302 C312 0.930 . S
H303 C313 0.930 . S
C304 H298 0.930 . S
C304 C305 1.355 . S
C304 C306 1.415 . S
C305 C304 1.355 . S
C305 C307 1.419 . S
C306 C304 1.415 . S
C306 C311 1.425 . S
C306 C313 1.409 . S
C307 H299 0.930 . S
C307 C305 1.419 . S
C307 C308 1.362 . S
C308 H300 0.930 . S
C308 C307 1.362 . S
C308 C311 1.409 . S
C309 H301 0.930 . S
C309 C310 1.355 . S
C309 C311 1.415 . S
C310 C309 1.355 . S
C310 C312 1.419 . S
C311 C306 1.425 . S
C311 C308 1.409 . S
C311 C309 1.415 . S
C312 H302 0.930 . S
C312 C310 1.419 . S
C312 C313 1.362 . S
C313 H303 0.930 . S
C313 C306 1.409 . S
C313 C312 1.362 . S
H314 C320 0.930 1_655 S
H315 C323 0.930 . S
H316 C324 0.930 . S
H317 C325 0.930 . S
H318 C328 0.930 . S
H319 C329 0.930 1_655 S
C320 H314 0.930 1_455 S
C320 C321 1.355 . S
C320 C322 1.415 . S
C321 C320 1.355 . S
C321 C323 1.419 . S
C322 C320 1.415 . S
C322 C327 1.425 . S
C322 C329 1.409 . S
C323 H315 0.930 . S
C323 C321 1.419 . S
C323 C324 1.362 . S
C324 H316 0.930 . S
C324 C323 1.362 . S
C324 C327 1.409 . S
C325 H317 0.930 . S
C325 C326 1.355 . S
C325 C327 1.415 . S
C326 C325 1.355 . S
C326 C328 1.419 . S
C327 C322 1.425 . S
C327 C324 1.409 . S
C327 C325 1.415 . S
C328 H318 0.930 . S
C328 C326 1.419 . S
C328 C329 1.362 . S
C329 H319 0.930 1_455 S
C329 C322 1.409 . S
C329 C328 1.362 . S
H330 C336 0.930 . S
H331 C339 0.930 . S
H332 C340 0.930 . S
H333 C341 0.930 . S
H334 C344 0.930 . S
H335 C345 0.930 . S
C336 H330 0.930 . S
C336 C337 1.355 . S
C336 C338 1.415 . S
C337 C336 1.355 . S
C337 C339 1.419 . S
C338 C336 1.415 . S
C338 C343 1.425 . S
C338 C345 1.409 . S
C339 H331 0.930 . S
C339 C337 1.419 . S
C339 C340 1.362 . S
C340 H332 0.930 . S
C340 C339 1.362 . S
C340 C343 1.409 . S
C341 H333 0.930 . S
C341 C342 1.355 . S
C341 C343 1.415 . S
C342 C341 1.355 . S
C342 C344 1.419 . S
C343 C338 1.425 . S
C343 C340 1.409 . S
C343 C341 1.415 . S
C344 H334 0.930 . S
C344 C342 1.419 . S
C344 C345 1.362 . S
C345 H335 0.930 . S
C345 C338 1.409 . S
C345 C344 1.362 . S
H346 C352 0.930 . S
H347 C355 0.930 . S
H348 C356 0.930 . S
H349 C357 0.930 . S
H350 C360 0.930 . S
H351 C361 0.930 . S
C352 H346 0.930 . S
C352 C353 1.355 . S
C352 C354 1.415 . S
C353 C352 1.355 . S
C353 C355 1.419 . S
C354 C352 1.415 . S
C354 C359 1.425 . S
C354 C361 1.409 . S
C355 H347 0.930 . S
C355 C353 1.419 . S
C355 C356 1.362 . S
C356 H348 0.930 . S
C356 C355 1.362 . S
C356 C359 1.409 . S
C357 H349 0.930 . S
C357 C358 1.355 . S
C357 C359 1.415 . S
C358 C357 1.355 . S
C358 C360 1.419 . S
C359 C354 1.425 . S
C359 C356 1.409 . S
C359 C357 1.415 . S
C360 H350 0.930 . S
C360 C358 1.419 . S
C360 C361 1.362 . S
C361 H351 0.930 . S
C361 C354 1.409 . S
C361 C360 1.362 . S
H362 C368 0.930 . S
H363 C371 0.930 . S
H364 C372 0.930 . S
H365 C373 0.930 . S
H366 C376 0.930 . S
H367 C377 0.930 1_455 S
C368 H362 0.930 . S
C368 C369 1.355 . S
C368 C370 1.415 . S
C369 C368 1.355 . S
C369 C371 1.419 . S
C370 C368 1.415 . S
C370 C375 1.425 . S
C370 C377 1.409 . S
C371 H363 0.930 . S
C371 C369 1.419 . S
C371 C372 1.362 . S
C372 H364 0.930 . S
C372 C371 1.362 . S
C372 C375 1.409 . S
C373 H365 0.930 . S
C373 C374 1.355 . S
C373 C375 1.415 . S
C374 C373 1.355 . S
C374 C376 1.419 . S
C375 C370 1.425 . S
C375 C372 1.409 . S
C375 C373 1.415 . S
C376 H366 0.930 . S
C376 C374 1.419 . S
C376 C377 1.362 . S
C377 H367 0.930 1_655 S
C377 C370 1.409 . S
C377 C376 1.362 . S
H378 C384 0.930 . S
H379 C387 0.930 . S
H380 C388 0.930 . S
H381 C389 0.930 . S
H382 C392 0.930 . S
H383 C393 0.930 . S
C384 H378 0.930 . S
C384 C385 1.355 . S
C384 C386 1.415 . S
C385 C384 1.355 . S
C385 C387 1.419 . S
C386 C384 1.415 . S
C386 C391 1.425 . S
C386 C393 1.409 . S
C387 H379 0.930 . S
C387 C385 1.419 . S
C387 C388 1.362 . S
C388 H380 0.930 . S
C388 C387 1.362 . S
C388 C391 1.409 . S
C389 H381 0.930 . S
C389 C390 1.355 . S
C389 C391 1.415 . S
C390 C389 1.355 . S
C390 C392 1.419 . S
C391 C386 1.425 . S
C391 C388 1.409 . S
C391 C389 1.415 . S
C392 H382 0.930 . S
C392 C390 1.419 . S
C392 C393 1.362 . S
C393 H383 0.930 . S
C393 C386 1.409 . S
C393 C392 1.362 . S
H394 C400 0.930 . S
H395 C403 0.930 . S
H396 C404 0.930 . S
H397 C405 0.930 . S
H398 C408 0.930 . S
H399 C409 0.930 . S
C400 H394 0.930 . S
C400 C401 1.355 . S
C400 C402 1.415 . S
C401 C400 1.355 . S
C401 C403 1.419 . S
C402 C400 1.415 . S
C402 C407 1.425 . S
C402 C409 1.409 1_655 S
C403 H395 0.930 . S
C403 C401 1.419 . S
C403 C404 1.362 . S
C404 H396 0.930 . S
C404 C403 1.362 . S
C404 C407 1.409 . S
C405 H397 0.930 . S
C405 C406 1.355 . S
C405 C407 1.415 . S
C406 C405 1.355 . S
C406 C408 1.419 1_655 S
C407 C402 1.425 . S
C407 C404 1.409 . S
C407 C405 1.415 . S
C408 H398 0.930 . S
C408 C406 1.419 1_455 S
C408 C409 1.362 . S
C409 H399 0.930 . S
C409 C402 1.409 1_455 S
C409 C408 1.362 . S
H410 C416 0.930 . S
H411 C419 0.930 . S
H412 C420 0.930 . S
H413 C421 0.930 . S
H414 C424 0.930 . S
H415 C425 0.930 . S
C416 H410 0.930 . S
C416 C417 1.355 . S
C416 C418 1.415 . S
C417 C416 1.355 . S
C417 C419 1.419 . S
C418 C416 1.415 . S
C418 C423 1.425 . S
C418 C425 1.409 . S
C419 H411 0.930 . S
C419 C417 1.419 . S
C419 C420 1.362 . S
C420 H412 0.930 . S
C420 C419 1.362 . S
C420 C423 1.409 . S
C421 H413 0.930 . S
C421 C422 1.355 . S
C421 C423 1.415 . S
C422 C421 1.355 . S
C422 C424 1.419 . S
C423 C418 1.425 . S
C423 C420 1.409 . S
C423 C421 1.415 . S
C424 H414 0.930 . S
C424 C422 1.419 . S
C424 C425 1.362 . S
C425 H415 0.930 . S
C425 C418 1.409 . S
C425 C424 1.362 . S
C145 C85 0.619 . S
C150 C16 0.621 . S
C161 C108 0.631 1_655 S
C166 C39 0.627 . S
C177 C131 0.624 . S
C182 C62 0.625 . S
C193 C18 1.954 . S
C198 C67 1.942 . S
C209 C41 1.954 . S
C214 C90 1.951 . S
C225 C64 1.924 . S
C230 C113 1.960 . S
C241 C87 1.923 . S
C246 C136 1.952 . S
C257 C110 1.949 1_455 S
C262 C21 1.955 . S
C273 C133 1.941 . S
C278 C44 1.962 . S
C289 C17 1.004 . S
C294 C86 1.004 . S
C305 C40 1.003 . S
C310 C109 1.003 . S
C321 C63 1.012 . S
C326 C132 1.014 . S
C337 C20 0.811 . S
C342 C42 0.852 . S
C353 C43 0.890 . S
C358 C65 0.715 . S
C369 C66 0.854 . S
C374 C88 0.813 . S
C385 C89 0.758 . S
C390 C111 0.761 . S
C401 C112 0.803 . S
C406 C134 0.726 . S
C417 C135 0.697 . S
C422 C19 0.828 . S
