# Generated by pormake.
# Topology ung, (4)-cn, num edge types: 1
# Building blocks:
#     Node 0, Type 0, BuildingBlock: ICAMEG_clean_sbu_1, # of connection points: 4
#     Node 1, Type 0, BuildingBlock: ICAMEG_clean_sbu_1, # of connection points: 4
#     Node 2, Type 0, BuildingBlock: ICAMEG_clean_sbu_1, # of connection points: 4
#     Node 3, Type 0, BuildingBlock: ICAMEG_clean_sbu_1, # of connection points: 4
#     Node 4, Type 0, BuildingBlock: ICAMEG_clean_sbu_1, # of connection points: 4
#     Node 5, Type 0, BuildingBlock: ICAMEG_clean_sbu_1, # of connection points: 4
#     Node 6, Type 0, BuildingBlock: ICAMEG_clean_sbu_1, # of connection points: 4
#     Node 7, Type 0, BuildingBlock: ICAMEG_clean_sbu_1, # of connection points: 4
#     Node 8, Type 0, BuildingBlock: ICAMEG_clean_sbu_1, # of connection points: 4
#     Node 9, Type 0, BuildingBlock: ICAMEG_clean_sbu_1, # of connection points: 4
#     Node 10, Type 0, BuildingBlock: ICAMEG_clean_sbu_1, # of connection points: 4
#     Node 11, Type 0, BuildingBlock: ICAMEG_clean_sbu_1, # of connection points: 4
#     Node 12, Type 0, BuildingBlock: ICAMEG_clean_sbu_1, # of connection points: 4
#     Node 13, Type 0, BuildingBlock: ICAMEG_clean_sbu_1, # of connection points: 4
#     Node 14, Type 0, BuildingBlock: ICAMEG_clean_sbu_1, # of connection points: 4
#     Node 15, Type 0, BuildingBlock: ICAMEG_clean_sbu_1, # of connection points: 4
#     Node 16, Type 0, BuildingBlock: ICAMEG_clean_sbu_1, # of connection points: 4
#     Node 17, Type 0, BuildingBlock: ICAMEG_clean_sbu_1, # of connection points: 4
#     Edge 18, Type (0, 0), BuildingBlock: EZIPEK_clean_linker_0, # of connection points: 2
#     Edge 19, Type (0, 0), BuildingBlock: EZIPEK_clean_linker_0, # of connection points: 2
#     Edge 20, Type (0, 0), BuildingBlock: EZIPEK_clean_linker_0, # of connection points: 2
#     Edge 21, Type (0, 0), BuildingBlock: EZIPEK_clean_linker_0, # of connection points: 2
#     Edge 22, Type (0, 0), BuildingBlock: EZIPEK_clean_linker_0, # of connection points: 2
#     Edge 23, Type (0, 0), BuildingBlock: EZIPEK_clean_linker_0, # of connection points: 2
#     Edge 24, Type (0, 0), BuildingBlock: EZIPEK_clean_linker_0, # of connection points: 2
#     Edge 25, Type (0, 0), BuildingBlock: EZIPEK_clean_linker_0, # of connection points: 2
#     Edge 26, Type (0, 0), BuildingBlock: EZIPEK_clean_linker_0, # of connection points: 2
#     Edge 27, Type (0, 0), BuildingBlock: EZIPEK_clean_linker_0, # of connection points: 2
#     Edge 28, Type (0, 0), BuildingBlock: EZIPEK_clean_linker_0, # of connection points: 2
#     Edge 29, Type (0, 0), BuildingBlock: EZIPEK_clean_linker_0, # of connection points: 2
#     Edge 30, Type (0, 0), BuildingBlock: EZIPEK_clean_linker_0, # of connection points: 2
#     Edge 31, Type (0, 0), BuildingBlock: EZIPEK_clean_linker_0, # of connection points: 2
#     Edge 32, Type (0, 0), BuildingBlock: EZIPEK_clean_linker_0, # of connection points: 2
#     Edge 33, Type (0, 0), BuildingBlock: EZIPEK_clean_linker_0, # of connection points: 2
#     Edge 34, Type (0, 0), BuildingBlock: EZIPEK_clean_linker_0, # of connection points: 2
#     Edge 35, Type (0, 0), BuildingBlock: EZIPEK_clean_linker_0, # of connection points: 2
#     Edge 36, Type (0, 0), BuildingBlock: EZIPEK_clean_linker_0, # of connection points: 2
#     Edge 37, Type (0, 0), BuildingBlock: EZIPEK_clean_linker_0, # of connection points: 2
#     Edge 38, Type (0, 0), BuildingBlock: EZIPEK_clean_linker_0, # of connection points: 2
#     Edge 39, Type (0, 0), BuildingBlock: EZIPEK_clean_linker_0, # of connection points: 2
#     Edge 40, Type (0, 0), BuildingBlock: EZIPEK_clean_linker_0, # of connection points: 2
#     Edge 41, Type (0, 0), BuildingBlock: EZIPEK_clean_linker_0, # of connection points: 2
#     Edge 42, Type (0, 0), BuildingBlock: EZIPEK_clean_linker_0, # of connection points: 2
#     Edge 43, Type (0, 0), BuildingBlock: EZIPEK_clean_linker_0, # of connection points: 2
#     Edge 44, Type (0, 0), BuildingBlock: EZIPEK_clean_linker_0, # of connection points: 2
#     Edge 45, Type (0, 0), BuildingBlock: EZIPEK_clean_linker_0, # of connection points: 2
#     Edge 46, Type (0, 0), BuildingBlock: EZIPEK_clean_linker_0, # of connection points: 2
#     Edge 47, Type (0, 0), BuildingBlock: EZIPEK_clean_linker_0, # of connection points: 2
#     Edge 48, Type (0, 0), BuildingBlock: EZIPEK_clean_linker_0, # of connection points: 2
#     Edge 49, Type (0, 0), BuildingBlock: EZIPEK_clean_linker_0, # of connection points: 2
#     Edge 50, Type (0, 0), BuildingBlock: EZIPEK_clean_linker_0, # of connection points: 2
#     Edge 51, Type (0, 0), BuildingBlock: EZIPEK_clean_linker_0, # of connection points: 2
#     Edge 52, Type (0, 0), BuildingBlock: EZIPEK_clean_linker_0, # of connection points: 2
#     Edge 53, Type (0, 0), BuildingBlock: EZIPEK_clean_linker_0, # of connection points: 2
# Relax obj value: 0.025
# Max RMSD: 0.111
# Mean RMSD: 0.111
data_MOF--net-ung--node1-ICAMEG_clean_sbu_1--edge1-EZIPEK_clean_linker_0
_symmetry_space_group_name_H-M    P1
_symmetry_Int_Tables_number       1
_symmetry_cell_setting            triclinic
loop_
_symmetry_equiv_pos_as_xyz
'x, y, z'
_cell_length_a     56.819567
_cell_length_b     56.824879
_cell_length_c     18.493191
_cell_angle_alpha  90.054133
_cell_angle_beta   90.203797
_cell_angle_gamma 119.95715
loop_
_atom_site_label
_atom_site_type_symbol
_atom_site_fract_x
_atom_site_fract_y
_atom_site_fract_z
_atom_type_partial_charge
Co0 Co 0.09238 0.64952 0.21237 0.0
Co1 Co 0.03942 0.63071 0.33387 0.0
O2 O 0.06329 0.62305 0.27448 0.0
C3 C 0.06677 0.59536 0.1319 0.0
O4 O 0.04934 0.58325 0.18409 0.0
C5 C 0.06426 0.60828 0.43376 0.0
O6 O 0.08753 0.62613 0.40531 0.0
O7 O 0.07099 0.6646 0.37206 0.0
O8 O 0.10264 0.67947 0.28624 0.0
H9 H 0.00684 0.69082 0.43934 0.0
H10 H 0.09014 0.59842 0.26494 0.0
O11 O 0.08392 0.62078 0.13517 0.0
H12 H 0.18116 0.67263 0.33207 0.0
H13 H 0.16972 0.67936 0.03648 0.0
H14 H 0.11023 0.70564 0.16263 0.0
H15 H 0.1491 0.68238 0.26734 0.0
H16 H 0.13528 0.64811 0.12241 0.0
O17 O 0.04286 0.60866 0.41495 0.0
H18 H 0.03445 0.67948 0.35941 0.0
H19 H 0.99503 0.59876 0.43962 0.0
H20 H 0.14421 0.73764 0.07699 0.0
H21 H 0.12156 0.58778 0.32902 0.0
H22 H 0.17437 0.72454 0.01311 0.0
H23 H 0.16753 0.62501 0.36319 0.0
O24 O 0.06602 0.65868 0.16568 0.0
H25 H 0.98717 0.53172 0.26649 0.0
H26 H 0.98478 0.61718 0.2783 0.0
H27 H 0.9448 0.57567 0.23224 0.0
H28 H 0.94586 0.53253 0.22589 0.0
H29 H 0.02667 0.57373 0.3121 0.0
H30 H 0.9672 0.60931 0.521 0.0
H31 H 0.97301 0.65562 0.52111 0.0
O32 O 0.03513 0.65177 0.25222 0.0
C33 C 0.094 0.68247 0.34737 0.0
C34 C 0.00405 0.67053 0.43959 0.0
C35 C 0.98184 0.6248 0.4855 0.0
N36 N 0.01624 0.63843 0.39446 0.0
C37 C 0.01954 0.66396 0.39422 0.0
C38 C 0.99771 0.61896 0.43943 0.0
C39 C 0.9851 0.65079 0.48553 0.0
C40 C 0.11019 0.61475 0.27787 0.0
N41 N 0.1179 0.64095 0.25982 0.0
C42 C 0.12789 0.60859 0.31491 0.0
C43 C 0.15364 0.62947 0.33428 0.0
C44 C 0.16129 0.65618 0.3168 0.0
C45 C 0.14302 0.66156 0.27985 0.0
C46 C 0.15676 0.68536 0.06406 0.0
C47 C 0.12313 0.69984 0.13512 0.0
C48 C 0.13718 0.66772 0.11288 0.0
N49 N 0.12076 0.67514 0.14827 0.0
C50 C 0.14245 0.71804 0.08671 0.0
C51 C 0.15936 0.71069 0.05094 0.0
C52 C 0.04549 0.65992 0.18944 0.0
C53 C 0.98647 0.55039 0.26876 0.0
C54 C 0.9854 0.59849 0.27568 0.0
C55 C 0.96269 0.57504 0.24961 0.0
C56 C 0.9633 0.55086 0.24605 0.0
N57 N 0.00815 0.59793 0.29727 0.0
C58 C 0.00878 0.57425 0.29451 0.0
Co59 Co 0.50419 0.47612 0.31896 0.0
Co60 Co 0.48014 0.50292 0.19059 0.0
O61 O 0.50857 0.50564 0.25574 0.0
C62 C 0.52704 0.52607 0.40957 0.0
O63 O 0.51051 0.5323 0.37621 0.0
C64 C 0.53062 0.52544 0.10361 0.0
O65 O 0.53582 0.50773 0.13422 0.0
O66 O 0.47661 0.46906 0.14773 0.0
O67 O 0.48243 0.44782 0.24307 0.0
H68 H 0.39261 0.45373 0.05036 0.0
H69 H 0.56001 0.52194 0.29345 0.0
O70 O 0.52649 0.50383 0.3954 0.0
H71 H 0.5608 0.44033 0.20661 0.0
H72 H 0.53547 0.43305 0.50552 0.0
H73 H 0.45827 0.42193 0.35718 0.0
H74 H 0.51937 0.43664 0.2597 0.0
H75 H 0.54095 0.46903 0.42109 0.0
O76 O 0.50868 0.52546 0.11731 0.0
H77 H 0.42781 0.45776 0.13576 0.0
H78 H 0.47437 0.54247 0.09672 0.0
H79 H 0.45194 0.38533 0.44037 0.0
H80 H 0.60198 0.52656 0.2416 0.0
H81 H 0.49073 0.39077 0.51522 0.0
H82 H 0.60252 0.48554 0.1973 0.0
O83 O 0.47016 0.47281 0.35916 0.0
H84 H 0.53189 0.60006 0.27521 0.0
H85 H 0.44122 0.51866 0.25132 0.0
H86 H 0.44567 0.55998 0.30778 0.0
H87 H 0.49124 0.60111 0.31993 0.0
H88 H 0.52656 0.55818 0.22026 0.0
H89 H 0.43986 0.53939 0.00997 0.0
H90 H 0.3985 0.49479 0.98677 0.0
O91 O 0.45076 0.481 0.26358 0.0
C92 C 0.47553 0.44826 0.17741 0.0
C93 C 0.41034 0.47335 0.06079 0.0
C94 C 0.43689 0.5214 0.03803 0.0
N95 N 0.45261 0.50044 0.12349 0.0
C96 C 0.4302 0.47578 0.10981 0.0
C97 C 0.45632 0.52303 0.08743 0.0
C98 C 0.41371 0.49638 0.02495 0.0
C99 C 0.56014 0.50399 0.27506 0.0
N100 N 0.53719 0.4791 0.27942 0.0
C101 C 0.58395 0.50673 0.24544 0.0
C102 C 0.58422 0.48372 0.22049 0.0
C103 C 0.56082 0.45836 0.22563 0.0
C104 C 0.53737 0.45641 0.25551 0.0
C105 C 0.51844 0.4304 0.47296 0.0
C106 C 0.4753 0.42434 0.38909 0.0
C107 C 0.52141 0.45071 0.42512 0.0
N108 N 0.50001 0.44744 0.38366 0.0
C109 C 0.47157 0.4036 0.43633 0.0
C110 C 0.49333 0.40668 0.47842 0.0
C111 C 0.44999 0.47294 0.32873 0.0
C112 C 0.51191 0.58229 0.2702 0.0
C113 C 0.46118 0.53634 0.25709 0.0
C114 C 0.46354 0.55975 0.28873 0.0
C115 C 0.48911 0.58284 0.2954 0.0
N116 N 0.48367 0.53587 0.2329 0.0
C117 C 0.50876 0.55852 0.23877 0.0
Co118 Co 0.62946 0.03885 0.19607 0.0
Co119 Co 0.65776 0.09406 0.31185 0.0
O120 O 0.62756 0.06636 0.25507 0.0
C121 C 0.60643 0.06492 0.10287 0.0
O122 O 0.62427 0.0882 0.13164 0.0
C123 C 0.61044 0.06778 0.40993 0.0
O124 O 0.60569 0.04431 0.38392 0.0
O125 O 0.66378 0.06583 0.3578 0.0
O126 O 0.65248 0.03389 0.27165 0.0
H127 H 0.75026 0.13881 0.42824 0.0
H128 H 0.57432 0.03072 0.22344 0.0
O129 O 0.60612 0.04307 0.12052 0.0
H130 H 0.57412 0.95166 0.33315 0.0
H131 H 0.58971 0.95746 0.03058 0.0
H132 H 0.67348 0.02922 0.14436 0.0
H133 H 0.61467 0.98658 0.26993 0.0
H134 H 0.58834 0.99128 0.11138 0.0
O135 O 0.63121 0.08977 0.38972 0.0
H136 H 0.71313 0.10527 0.3511 0.0
H137 H 0.6648 0.14064 0.40208 0.0
H138 H 0.67582 0.99566 0.06493 0.0
H139 H 0.53325 0.99617 0.28539 0.0
H140 H 0.63368 0.95945 0.00703 0.0
H141 H 0.533 0.9563 0.34121 0.0
O142 O 0.66296 0.06738 0.14766 0.0
H143 H 0.60257 0.13619 0.22978 0.0
H144 H 0.69401 0.14651 0.2378 0.0
H145 H 0.68737 0.18141 0.1774 0.0
H146 H 0.64139 0.1764 0.17316 0.0
H147 H 0.61007 0.10163 0.28861 0.0
H148 H 0.70124 0.17441 0.48061 0.0
H149 H 0.74438 0.17366 0.49402 0.0
O150 O 0.68462 0.09906 0.23404 0.0
C151 C 0.66279 0.04431 0.33351 0.0
C152 C 0.73165 0.1395 0.42242 0.0
C153 C 0.70412 0.15944 0.45189 0.0
N154 N 0.68707 0.12133 0.37074 0.0
C155 C 0.71064 0.12067 0.3783 0.0
C156 C 0.68357 0.14028 0.40726 0.0
C157 C 0.72832 0.15901 0.45939 0.0
C158 C 0.57438 0.01345 0.24722 0.0
N159 N 0.59705 0.01096 0.24373 0.0
C160 C 0.55105 0.99393 0.28239 0.0
C161 C 0.55094 0.9716 0.31377 0.0
C162 C 0.57402 0.96901 0.30939 0.0
C163 C 0.597 0.98897 0.27389 0.0
C164 C 0.60817 0.97294 0.05613 0.0
C165 C 0.65501 0.01312 0.1213 0.0
C166 C 0.60751 0.99209 0.10223 0.0
N167 N 0.63072 0.01166 0.13498 0.0
C168 C 0.65647 0.99433 0.07553 0.0
C169 C 0.63284 0.97407 0.04292 0.0
C170 C 0.68373 0.08883 0.17164 0.0
C171 C 0.62272 0.13862 0.23128 0.0
C172 C 0.67387 0.144 0.23561 0.0
C173 C 0.67028 0.16393 0.20166 0.0
C174 C 0.64449 0.16114 0.19942 0.0
N175 N 0.65238 0.12185 0.26634 0.0
C176 C 0.6271 0.11913 0.26486 0.0
Co177 Co 0.04324 0.47754 0.80124 0.0
Co178 Co 0.09924 0.5025 0.68567 0.0
O179 O 0.07231 0.50622 0.74328 0.0
C180 C 0.06656 0.52953 0.89031 0.0
O181 O 0.08427 0.54301 0.83978 0.0
C182 C 0.07202 0.52264 0.58562 0.0
O183 O 0.04904 0.5038 0.61323 0.0
O184 O 0.07043 0.46722 0.64373 0.0
O185 O 0.03528 0.45026 0.72156 0.0
H186 H 0.14944 0.45572 0.59693 0.0
H187 H 0.04429 0.52882 0.75591 0.0
O188 O 0.0501 0.50404 0.8837 0.0
H189 H 0.95314 0.45452 0.6901 0.0
H190 H 0.96683 0.44042 0.98234 0.0
H191 H 0.02182 0.41811 0.82174 0.0
H192 H 0.9863 0.44457 0.74756 0.0
H193 H 1.00168 0.47543 0.90458 0.0
O194 O 0.09396 0.52342 0.60472 0.0
H195 H 0.11757 0.46149 0.67358 0.0
H196 H 0.14094 0.53745 0.57611 0.0
H197 H 0.9872 0.38245 0.89838 0.0
H198 H 0.01188 0.53958 0.69815 0.0
H199 H 0.95939 0.39349 0.97992 0.0
H200 H 0.96581 0.50232 0.66483 0.0
O201 O 0.06988 0.46835 0.84584 0.0
H202 H 0.14168 0.60088 0.75711 0.0
H203 H 0.1543 0.52118 0.74724 0.0
H204 H 0.19085 0.56437 0.79708 0.0
H205 H 0.18465 0.60463 0.80237 0.0
H206 H 0.1056 0.55721 0.70835 0.0
H207 H 0.17314 0.53262 0.49824 0.0
H208 H 0.17751 0.49138 0.50774 0.0
O209 O 0.1049 0.48248 0.76764 0.0
C210 C 0.04694 0.44861 0.66423 0.0
C211 C 0.1474 0.47358 0.59127 0.0
C212 C 0.16069 0.51668 0.53594 0.0
N213 N 0.12607 0.49914 0.62741 0.0
C214 C 0.12903 0.4768 0.63422 0.0
C215 C 0.14207 0.51917 0.57981 0.0
C216 C 0.16319 0.4936 0.54142 0.0
C217 C 0.02429 0.51241 0.7428 0.0
N218 N 0.01715 0.48609 0.75736 0.0
C219 C 0.00599 0.51867 0.70957 0.0
C220 C 0.98018 0.49777 0.69079 0.0
C221 C 0.97304 0.47097 0.70509 0.0
C222 C 0.9919 0.46549 0.73827 0.0
C223 C 0.97903 0.43541 0.9477 0.0
C224 C 0.01026 0.4233 0.8575 0.0
C225 C 0.99906 0.45528 0.90387 0.0
N226 N 0.01464 0.44921 0.85989 0.0
C227 C 0.99044 0.4029 0.90059 0.0
C228 C 0.97482 0.40908 0.94622 0.0
C229 C 0.09264 0.47086 0.82622 0.0
C230 C 0.14462 0.58348 0.75532 0.0
C231 C 0.1514 0.53856 0.74958 0.0
C232 C 0.1722 0.56299 0.77775 0.0
C233 C 0.16871 0.58557 0.78068 0.0
N234 N 0.1277 0.53658 0.72553 0.0
C235 C 0.12427 0.5587 0.72763 0.0
Co236 Co 0.62674 0.65425 0.69761 0.0
Co237 Co 0.65619 0.62898 0.81766 0.0
O238 O 0.62588 0.62564 0.75873 0.0
C239 C 0.60915 0.60603 0.60177 0.0
O240 O 0.62844 0.60263 0.6301 0.0
C241 C 0.6092 0.6103 0.91762 0.0
O242 O 0.60407 0.62846 0.8894 0.0
O243 O 0.66325 0.66466 0.85736 0.0
O244 O 0.64696 0.68232 0.7751 0.0
H245 H 0.75138 0.67583 0.91915 0.0
H246 H 0.57284 0.60482 0.7196 0.0
O247 O 0.60635 0.62607 0.62063 0.0
H248 H 0.56337 0.68084 0.81326 0.0
H249 H 0.58895 0.68822 0.50277 0.0
H250 H 0.66313 0.71466 0.67879 0.0
H251 H 0.60664 0.68907 0.76091 0.0
H252 H 0.58861 0.6545 0.58619 0.0
O253 O 0.62991 0.60892 0.89787 0.0
H254 H 0.71454 0.67072 0.83875 0.0
H255 H 0.66148 0.59287 0.92608 0.0
H256 H 0.66427 0.74889 0.59628 0.0
H257 H 0.52906 0.59563 0.77059 0.0
H258 H 0.62709 0.73583 0.50672 0.0
H259 H 0.52416 0.6338 0.81849 0.0
O260 O 0.66216 0.66198 0.65447 0.0
H261 H 0.59852 0.53061 0.74846 0.0
H262 H 0.69182 0.60843 0.76237 0.0
H263 H 0.68416 0.56456 0.7149 0.0
H264 H 0.63718 0.52528 0.70733 0.0
H265 H 0.60725 0.57486 0.79558 0.0
H266 H 0.69769 0.59715 0.00786 0.0
H267 H 0.74303 0.6389 0.00507 0.0
O268 O 0.68256 0.64839 0.73632 0.0
C269 C 0.65954 0.68373 0.83395 0.0
C270 C 0.73165 0.6576 0.92128 0.0
C271 C 0.70153 0.61348 0.97107 0.0
N272 N 0.68563 0.63185 0.87832 0.0
C273 C 0.71065 0.65467 0.87586 0.0
C274 C 0.68102 0.61127 0.92483 0.0
C275 C 0.72697 0.63688 0.96941 0.0
C276 C 0.5709 0.6215 0.7403 0.0
N277 N 0.5925 0.64734 0.73871 0.0
C278 C 0.54603 0.61619 0.7691 0.0
C279 C 0.5433 0.63762 0.79594 0.0
C280 C 0.56529 0.66399 0.79312 0.0
C281 C 0.58981 0.66851 0.76378 0.0
C282 C 0.60558 0.69406 0.54051 0.0
C283 C 0.64727 0.70838 0.63913 0.0
C284 C 0.60572 0.67492 0.58757 0.0
N285 N 0.62675 0.68197 0.63514 0.0
C286 C 0.64782 0.72808 0.59291 0.0
C287 C 0.62692 0.72077 0.54287 0.0
C288 C 0.68228 0.65959 0.67632 0.0
C289 C 0.61907 0.54761 0.75094 0.0
C290 C 0.67132 0.59148 0.75882 0.0
C291 C 0.66711 0.56666 0.73212 0.0
C292 C 0.64076 0.54463 0.72795 0.0
N293 N 0.6499 0.5944 0.78 0.0
C294 C 0.6241 0.57275 0.77734 0.0
Co295 Co 0.50836 0.09444 0.81208 0.0
Co296 Co 0.4817 0.04036 0.68981 0.0
O297 O 0.51086 0.06751 0.75124 0.0
C298 C 0.52526 0.06377 0.9093 0.0
O299 O 0.50671 0.04127 0.87835 0.0
C300 C 0.52981 0.07103 0.59487 0.0
O301 O 0.53377 0.09364 0.62504 0.0
O302 O 0.47393 0.0685 0.64969 0.0
O303 O 0.4891 0.10251 0.73192 0.0
H304 H 0.38677 0.98639 0.58691 0.0
H305 H 0.56253 0.09933 0.79304 0.0
O306 O 0.52789 0.08662 0.89144 0.0
H307 H 0.57322 0.18642 0.70961 0.0
H308 H 0.54231 0.16625 0.00674 0.0
H309 H 0.46854 0.11373 0.8328 0.0
H310 H 0.52926 0.15049 0.75634 0.0
H311 H 0.54501 0.13384 0.92374 0.0
O312 O 0.50934 0.04831 0.61188 0.0
H313 H 0.4218 0.01856 0.67019 0.0
H314 H 0.48008 1.0019 0.57686 0.0
H315 H 0.46498 0.14589 0.9146 0.0
H316 H 0.60693 0.13464 0.74713 0.0
H317 H 0.50202 0.17241 0.0029 0.0
H318 H 0.61245 0.17856 0.70448 0.0
O319 O 0.4726 0.06613 0.85088 0.0
H320 H 0.54056 1.00095 0.75959 0.0
H321 H 0.44685 0.98447 0.74678 0.0
H322 H 0.45516 0.94888 0.79546 0.0
H323 H 0.50234 0.95705 0.80237 0.0
H324 H 0.53122 0.03593 0.71171 0.0
H325 H 0.44562 0.96947 0.49251 0.0
H326 H 0.39856 0.96162 0.49656 0.0
O327 O 0.45418 0.0321 0.76875 0.0
C328 C 0.47706 0.0912 0.6724 0.0
C329 C 0.40732 0.98997 0.58371 0.0
C330 C 0.44032 0.98047 0.53079 0.0
N331 N 0.45348 0.01337 0.62673 0.0
C332 C 0.42742 0.00851 0.63048 0.0
C333 C 0.45988 0.99917 0.57842 0.0
C334 C 0.41391 0.97602 0.53319 0.0
C335 C 0.56473 0.11826 0.77421 0.0
N336 N 0.54311 0.12249 0.7754 0.0
C337 C 0.58995 0.13825 0.74847 0.0
C338 C 0.59304 0.16288 0.72461 0.0
C339 C 0.57103 0.16729 0.72737 0.0
C340 C 0.54614 0.1468 0.7535 0.0
C341 C 0.52588 0.15459 0.96909 0.0
C342 C 0.48452 0.12477 0.87135 0.0
C343 C 0.52717 0.13598 0.9222 0.0
N344 N 0.50647 0.12107 0.87456 0.0
C345 C 0.48251 0.14319 0.9174 0.0
C346 C 0.50331 0.15808 0.96683 0.0
C347 C 0.45333 0.04335 0.828 0.0
C348 C 0.51993 0.99719 0.75731 0.0
C349 C 0.46745 0.98827 0.75013 0.0
C350 C 0.47202 0.96799 0.77748 0.0
C351 C 0.49848 0.97257 0.78127 0.0
N352 N 0.48863 0.01256 0.72791 0.0
C353 C 0.51455 0.01698 0.73034 0.0
Co354 Co 0.7065 0.96275 0.65088 0.0
Co355 Co 0.75899 0.98488 0.5284 0.0
O356 O 0.73127 0.95707 0.58997 0.0
C357 C 0.73224 0.94014 0.74666 0.0
O358 O 0.75563 0.95776 0.7183 0.0
C359 C 0.7277 0.9361 0.4356 0.0
O360 O 0.70537 0.93282 0.46553 0.0
O361 O 0.73169 0.99298 0.48513 0.0
O362 O 0.70169 0.98521 0.57386 0.0
H363 H 0.80544 0.07422 0.39782 0.0
H364 H 0.69428 0.90591 0.62808 0.0
O365 O 0.71052 0.93995 0.72803 0.0
H366 H 0.61518 0.90897 0.52949 0.0
H367 H 0.63012 0.93232 0.82943 0.0
H368 H 0.70147 0.01023 0.69645 0.0
H369 H 0.6533 0.94969 0.58497 0.0
H370 H 0.66022 0.92614 0.74542 0.0
O371 O 0.75069 0.95647 0.452 0.0
H372 H 0.77275 0.04033 0.48285 0.0
H373 H 0.80246 0.98683 0.43432 0.0
H374 H 0.67168 0.01737 0.77907 0.0
H375 H 0.65649 0.86463 0.57397 0.0
H376 H 0.63569 0.97819 0.8466 0.0
H377 H 0.61659 0.86602 0.52378 0.0
O378 O 0.73751 0.99638 0.69274 0.0
H379 H 0.79457 0.9237 0.60709 0.0
H380 H 0.81439 0.01843 0.5938 0.0
H381 H 0.84781 0.00852 0.64979 0.0
H382 H 0.83804 0.96082 0.65673 0.0
H383 H 0.76159 0.93457 0.5525 0.0
H384 H 0.83553 0.02016 0.34894 0.0
H385 H 0.83715 0.06423 0.3302 0.0
O386 O 0.76826 0.01377 0.60466 0.0
C387 C 0.71137 0.99396 0.51075 0.0
C388 C 0.80505 0.05517 0.40583 0.0
C389 C 0.82195 0.02484 0.37846 0.0
N390 N 0.78609 0.01187 0.46476 0.0
C391 C 0.78661 0.03591 0.45398 0.0
C392 C 0.80325 0.00608 0.42711 0.0
C393 C 0.82283 0.04955 0.3679 0.0
C394 C 0.67695 0.90666 0.60698 0.0
N395 N 0.67617 0.93028 0.60937 0.0
C396 C 0.65562 0.88322 0.57614 0.0
C397 C 0.63327 0.88402 0.54788 0.0
C398 C 0.63249 0.90813 0.55096 0.0
C399 C 0.65423 0.93118 0.5821 0.0
C400 C 0.64554 0.9495 0.79979 0.0
C401 C 0.68548 0.99303 0.72402 0.0
C402 C 0.6626 0.94612 0.75193 0.0
N403 N 0.68208 0.96771 0.71411 0.0
C404 C 0.66881 0.99721 0.77143 0.0
C405 C 0.64868 0.97524 0.80942 0.0
C406 C 0.75994 0.01536 0.66765 0.0
C407 C 0.79906 0.94457 0.60459 0.0
C408 C 0.80974 0.99763 0.59737 0.0
C409 C 0.82888 0.99214 0.62875 0.0
C410 C 0.82342 0.96539 0.63249 0.0
N411 N 0.78577 0.97709 0.57064 0.0
C412 C 0.78044 0.95085 0.57357 0.0
Co413 Co 0.17234 0.81033 0.65695 0.0
Co414 Co 0.14843 0.83873 0.53254 0.0
O415 O 0.17703 0.8402 0.59496 0.0
C416 C 0.19796 0.86007 0.7476 0.0
O417 O 0.18063 0.86628 0.71917 0.0
C418 C 0.20159 0.86883 0.45135 0.0
O419 O 0.21305 0.86114 0.50016 0.0
O420 O 0.14322 0.80437 0.48789 0.0
O421 O 0.14827 0.78254 0.58304 0.0
H422 H 0.05881 0.79175 0.40085 0.0
H423 H 0.22989 0.8534 0.63156 0.0
O424 O 0.19686 0.83773 0.73134 0.0
H425 H 0.22183 0.76954 0.52957 0.0
H426 H 0.20372 0.76465 0.83498 0.0
H427 H 0.12532 0.75765 0.70095 0.0
H428 H 0.18272 0.76879 0.58856 0.0
H429 H 0.20949 0.80102 0.75163 0.0
O430 O 0.1762 0.86089 0.45484 0.0
H431 H 0.09473 0.7946 0.48156 0.0
H432 H 0.14266 0.87917 0.44241 0.0
H433 H 0.11863 0.72068 0.78311 0.0
H434 H 0.26968 0.85491 0.5746 0.0
H435 H 0.15803 0.72409 0.85105 0.0
H436 H 0.26576 0.81282 0.5223 0.0
O437 O 0.13992 0.80896 0.70172 0.0
H438 H 0.20263 0.93398 0.63126 0.0
H439 H 0.11072 0.85584 0.59313 0.0
H440 H 0.11618 0.89686 0.65396 0.0
H441 H 0.1624 0.9364 0.67315 0.0
H442 H 0.19619 0.89245 0.57154 0.0
H443 H 0.1075 0.87726 0.3602 0.0
H444 H 0.06506 0.83333 0.33948 0.0
O445 O 0.11982 0.81723 0.60785 0.0
C446 C 0.14096 0.78303 0.51777 0.0
C447 C 0.07705 0.81108 0.41018 0.0
C448 C 0.10439 0.85904 0.38723 0.0
N449 N 0.12037 0.83714 0.46885 0.0
C450 C 0.09733 0.81284 0.45654 0.0
C451 C 0.12423 0.86 0.43396 0.0
C452 C 0.0806 0.8344 0.37557 0.0
C453 C 0.22799 0.83493 0.60976 0.0
N454 N 0.20375 0.81117 0.6125 0.0
C455 C 0.25062 0.83593 0.57719 0.0
C456 C 0.2484 0.81233 0.54777 0.0
C457 C 0.22375 0.78807 0.55168 0.0
C458 C 0.20157 0.78784 0.58467 0.0
C459 C 0.18642 0.76287 0.80547 0.0
C460 C 0.14259 0.7591 0.72951 0.0
C461 C 0.18956 0.7834 0.7582 0.0
N462 N 0.16781 0.78126 0.72063 0.0
C463 C 0.13867 0.73817 0.77629 0.0
C464 C 0.16078 0.74012 0.81445 0.0
C465 C 0.11963 0.80932 0.67294 0.0
C466 C 0.18236 0.91698 0.62279 0.0
C467 C 0.13093 0.87291 0.60124 0.0
C468 C 0.13387 0.89613 0.63568 0.0
C469 C 0.1598 0.9183 0.64641 0.0
N470 N 0.15316 0.87181 0.57765 0.0
C471 C 0.1786 0.89342 0.58858 0.0
Co472 Co 0.32106 0.42598 0.64569 0.0
Co473 Co 0.29904 0.37368 0.52031 0.0
O474 O 0.29333 0.39829 0.58231 0.0
C475 C 0.27215 0.39567 0.73775 0.0
O476 O 0.26887 0.3728 0.71109 0.0
C477 C 0.27612 0.40002 0.42665 0.0
O478 O 0.29251 0.42309 0.45898 0.0
O479 O 0.33332 0.40458 0.48223 0.0
O480 O 0.35068 0.43526 0.57191 0.0
H481 H 0.35451 0.33714 0.40663 0.0
H482 H 0.27148 0.42994 0.61918 0.0
O483 O 0.29237 0.41831 0.71954 0.0
H484 H 0.34706 0.51449 0.52103 0.0
H485 H 0.35552 0.50538 0.81757 0.0
H486 H 0.37408 0.43729 0.70942 0.0
H487 H 0.3558 0.48061 0.57909 0.0
H488 H 0.32306 0.47133 0.73207 0.0
O489 O 0.27718 0.37866 0.44165 0.0
H490 H 0.34587 0.3659 0.48998 0.0
H491 H 0.26469 0.33065 0.41291 0.0
H492 H 0.40731 0.47102 0.79389 0.0
H493 H 0.26191 0.46352 0.56273 0.0
H494 H 0.39821 0.50562 0.84852 0.0
H495 H 0.29984 0.50611 0.51266 0.0
O496 O 0.3282 0.3978 0.68954 0.0
H497 H 0.20051 0.32485 0.59094 0.0
H498 H 0.28356 0.31823 0.57264 0.0
H499 H 0.24153 0.27926 0.61906 0.0
H500 H 0.19961 0.28246 0.62876 0.0
H501 H 0.243 0.3632 0.54465 0.0
H502 H 0.27255 0.30175 0.32817 0.0
H503 H 0.31771 0.30488 0.32469 0.0
O504 O 0.31995 0.36767 0.59943 0.0
C505 C 0.35248 0.42652 0.50942 0.0
C506 C 0.33471 0.33552 0.40783 0.0
C507 C 0.28872 0.31569 0.36371 0.0
N508 N 0.30474 0.34979 0.4568 0.0
C509 C 0.32966 0.35166 0.45515 0.0
C510 C 0.28441 0.33215 0.41173 0.0
C511 C 0.31407 0.31744 0.36181 0.0
C512 C 0.28814 0.44847 0.5981 0.0
N513 N 0.31412 0.45305 0.60181 0.0
C514 C 0.28258 0.4674 0.56594 0.0
C515 C 0.30385 0.49126 0.53775 0.0
C516 C 0.33034 0.49594 0.54228 0.0
C517 C 0.33513 0.47654 0.57474 0.0
C518 C 0.36002 0.49078 0.793 0.0
C519 C 0.37037 0.45265 0.73078 0.0
C520 C 0.34179 0.47153 0.74393 0.0
N521 N 0.34739 0.45316 0.71192 0.0
C522 C 0.38909 0.47155 0.77962 0.0
C523 C 0.38392 0.49087 0.8105 0.0
C524 C 0.32838 0.37702 0.66313 0.0
C525 C 0.21865 0.32321 0.58721 0.0
C526 C 0.26541 0.31979 0.57671 0.0
C527 C 0.24166 0.29764 0.60296 0.0
C528 C 0.21816 0.29944 0.60839 0.0
N529 N 0.26582 0.34314 0.55677 0.0
C530 C 0.24277 0.34491 0.56112 0.0
Co531 Co 0.70546 0.80803 0.14784 0.0
Co532 Co 0.76058 0.84031 0.03192 0.0
O533 O 0.73094 0.83894 0.08929 0.0
C534 C 0.73006 0.85642 0.24402 0.0
O535 O 0.7533 0.86349 0.21271 0.0
C536 C 0.72964 0.85699 0.93402 0.0
O537 O 0.70696 0.83675 0.95894 0.0
O538 O 0.73457 0.80488 0.98418 0.0
O539 O 0.70142 0.78211 0.06649 0.0
H540 H 0.82508 0.81017 0.93859 0.0
H541 H 0.69524 0.85351 0.12009 0.0
O542 O 0.70885 0.83407 0.22719 0.0
H543 H 0.61159 0.77125 0.04271 0.0
H544 H 0.63068 0.7601 0.33019 0.0
H545 H 0.69731 0.75314 0.17475 0.0
H546 H 0.65028 0.7681 0.09227 0.0
H547 H 0.66092 0.79803 0.25074 0.0
O548 O 0.75256 0.86054 0.95513 0.0
H549 H 0.78931 0.80782 0.01645 0.0
H550 H 0.79893 0.8806 0.92508 0.0
H551 H 0.66716 0.71454 0.25263 0.0
H552 H 0.65734 0.85784 0.06988 0.0
H553 H 0.63363 0.71794 0.33133 0.0
H554 H 0.61507 0.81642 0.03061 0.0
O555 O 0.73564 0.80477 0.1922 0.0
H556 H 0.79366 0.93646 0.11297 0.0
H557 H 0.81407 0.86175 0.10652 0.0
H558 H 0.84614 0.90485 0.16626 0.0
H559 H 0.83605 0.94262 0.16984 0.0
H560 H 0.762 0.89291 0.0547 0.0
H561 H 0.8349 0.8837 0.84615 0.0
H562 H 0.84816 0.84821 0.85173 0.0
O563 O 0.7689 0.82026 0.10956 0.0
C564 C 0.71294 0.78359 0.00546 0.0
C565 C 0.81905 0.82542 0.93429 0.0
C566 C 0.82455 0.86664 0.88249 0.0
N567 N 0.79026 0.84288 0.97267 0.0
C568 C 0.79833 0.82395 0.97787 0.0
C569 C 0.80374 0.86448 0.92692 0.0
C570 C 0.83205 0.8468 0.88579 0.0
C571 C 0.67714 0.83555 0.1022 0.0
N572 N 0.67534 0.81074 0.10722 0.0
C573 C 0.65563 0.83805 0.07423 0.0
C574 C 0.63192 0.81481 0.05234 0.0
C575 C 0.62996 0.78948 0.0591 0.0
C576 C 0.65195 0.78782 0.08711 0.0
C577 C 0.64516 0.75835 0.29602 0.0
C578 C 0.68251 0.75461 0.20812 0.0
C579 C 0.6624 0.7798 0.25107 0.0
N580 N 0.68068 0.77769 0.20761 0.0
C581 C 0.6656 0.73275 0.25238 0.0
C582 C 0.64682 0.73469 0.2966 0.0
C583 C 0.75853 0.80881 0.16996 0.0
C584 C 0.79828 0.92015 0.11191 0.0
C585 C 0.80932 0.87793 0.10839 0.0
C586 C 0.82767 0.90237 0.14201 0.0
C587 C 0.82203 0.92357 0.14388 0.0
N588 N 0.7859 0.87459 0.0778 0.0
C589 C 0.78042 0.89542 0.07873 0.0
Co590 Co 0.32878 0.96708 0.14695 0.0
Co591 Co 0.30037 0.99167 0.02041 0.0
O592 O 0.29911 0.96346 0.08424 0.0
C593 C 0.27683 0.94039 0.23401 0.0
O594 O 0.26479 0.94619 0.18245 0.0
C595 C 0.2829 0.94241 0.92849 0.0
O596 O 0.30179 0.93899 0.95933 0.0
O597 O 0.33604 0.99903 0.9809 0.0
O598 O 0.35542 0.98536 0.06554 0.0
H599 H 0.34113 0.08487 0.90888 0.0
H600 H 0.28002 0.91278 0.12003 0.0
O601 O 0.30223 0.94837 0.22993 0.0
H602 H 0.35839 0.90257 0.05479 0.0
H603 H 0.3702 0.93892 0.34736 0.0
H604 H 0.38793 0.00783 0.16223 0.0
H605 H 0.36515 0.94634 0.09971 0.0
H606 H 0.33397 0.93343 0.26449 0.0
O607 O 0.28054 0.96301 0.94396 0.0
H608 H 0.33876 0.05088 0.99489 0.0
H609 H 0.2627 0.99185 0.90746 0.0
H610 H 0.42478 0.01424 0.24392 0.0
H611 H 0.2722 0.8687 0.07452 0.0
H612 H 0.41607 0.97967 0.33795 0.0
H613 H 0.31161 0.86333 0.0416 0.0
O614 O 0.33552 0.00307 0.18283 0.0
H615 H 0.20165 0.93376 0.08619 0.0
H616 H 0.27944 0.02702 0.07432 0.0
H617 H 0.23551 0.01943 0.12005 0.0
H618 H 0.19619 0.97248 0.12641 0.0
H619 H 0.24607 0.94232 0.04218 0.0
H620 H 0.26422 0.02524 0.82037 0.0
H621 H 0.30371 0.07214 0.82018 0.0
O622 O 0.3198 0.02036 0.09782 0.0
C623 C 0.35568 0.99626 0.00466 0.0
C624 C 0.32397 0.0644 0.90771 0.0
C625 C 0.28084 0.03095 0.85807 0.0
N626 N 0.30121 0.01897 0.95494 0.0
C627 C 0.32266 0.04492 0.95611 0.0
C628 C 0.28024 0.01202 0.90729 0.0
C629 C 0.30296 0.05727 0.85808 0.0
C630 C 0.29721 0.91071 0.10531 0.0
N631 N 0.32293 0.93221 0.11243 0.0
C632 C 0.29269 0.88563 0.07986 0.0
C633 C 0.31479 0.88263 0.0615 0.0
C634 C 0.34103 0.90461 0.06899 0.0
C635 C 0.34472 0.92936 0.09471 0.0
C636 C 0.37417 0.95433 0.30731 0.0
C637 C 0.38365 0.99296 0.20339 0.0
C638 C 0.35355 0.95146 0.26042 0.0
N639 N 0.35824 0.97084 0.20976 0.0
C640 C 0.40477 0.99656 0.24933 0.0
C641 C 0.39991 0.97715 0.30193 0.0
C642 C 0.33189 0.02201 0.15793 0.0
C643 C 0.21866 0.95429 0.08422 0.0
C644 C 0.26258 0.00649 0.07797 0.0
C645 C 0.23767 1.00234 0.10341 0.0
C646 C 0.21562 0.97602 0.10679 0.0
N647 N 0.26561 0.98505 0.05751 0.0
C648 C 0.24389 0.95926 0.05911 0.0
Co649 Co 0.17241 0.42401 0.14345 0.0
Co650 Co 0.14457 0.36976 0.02159 0.0
O651 O 0.17418 0.39672 0.08235 0.0
C652 C 0.19096 0.394 0.23896 0.0
O653 O 0.17245 0.37115 0.20942 0.0
C654 C 0.19253 0.39928 0.92568 0.0
O655 O 0.19719 0.42213 0.95582 0.0
O656 O 0.13744 0.39829 0.98141 0.0
O657 O 0.15274 0.43206 0.06438 0.0
H658 H 0.04944 0.31799 0.91935 0.0
H659 H 0.22609 0.42826 0.12018 0.0
O660 O 0.19261 0.41648 0.22158 0.0
H661 H 0.23703 0.5156 0.03831 0.0
H662 H 0.20814 0.49621 0.33733 0.0
H663 H 0.13331 0.4442 0.16583 0.0
H664 H 0.19331 0.48005 0.08729 0.0
H665 H 0.21002 0.46355 0.25367 0.0
O666 O 0.17173 0.37686 0.94294 0.0
H667 H 0.08519 0.35004 1.00141 0.0
H668 H 0.14149 0.33008 0.9105 0.0
H669 H 0.1306 0.47664 0.24833 0.0
H670 H 0.2702 0.46313 0.07165 0.0
H671 H 0.16816 0.50289 0.33549 0.0
H672 H 0.27586 0.5072 0.0299 0.0
O673 O 0.13674 0.39592 0.18408 0.0
H674 H 0.20209 0.32893 0.0921 0.0
H675 H 0.10896 0.31405 0.0789 0.0
H676 H 0.11651 0.27803 0.12803 0.0
H677 H 0.1634 0.2854 0.13521 0.0
H678 H 0.19346 0.3643 0.04353 0.0
H679 H 0.10632 0.29776 0.82731 0.0
H680 H 0.05989 0.2916 0.83086 0.0
O681 O 0.11745 0.36226 0.10097 0.0
C682 C 0.14074 0.42098 0.00466 0.0
C683 C 0.0697 0.32077 0.91648 0.0
C684 C 0.1016 0.30942 0.86487 0.0
N685 N 0.11587 0.34302 0.95928 0.0
C686 C 0.09018 0.33919 0.9626 0.0
C687 C 0.12155 0.32803 0.91184 0.0
C688 C 0.07555 0.30593 0.86699 0.0
C689 C 0.22834 0.44724 0.10173 0.0
N690 N 0.20694 0.45177 0.10483 0.0
C691 C 0.2534 0.46698 0.0745 0.0
C692 C 0.25656 0.4917 0.05114 0.0
C693 C 0.23479 0.49641 0.05578 0.0
C694 C 0.21004 0.47615 0.08329 0.0
C695 C 0.19147 0.48464 0.30028 0.0
C696 C 0.1495 0.45507 0.20394 0.0
C697 C 0.19227 0.46586 0.25303 0.0
N698 N 0.17124 0.45101 0.20619 0.0
C699 C 0.14798 0.47367 0.25036 0.0
C700 C 0.16907 0.48842 0.29913 0.0
C701 C 0.11702 0.37344 0.16077 0.0
C702 C 0.18158 0.32551 0.08972 0.0
C703 C 0.12944 0.31749 0.08227 0.0
C704 C 0.13357 0.29697 0.1099 0.0
C705 C 0.15987 0.3011 0.11385 0.0
N706 N 0.15087 0.34157 0.0599 0.0
C707 C 0.17662 0.34554 0.0624 0.0
Co708 Co 0.42631 0.3205 0.8544 0.0
Co709 Co 0.3738 0.29709 0.97978 0.0
O710 O 0.39958 0.29284 0.91887 0.0
C711 C 0.39488 0.27043 0.76516 0.0
O712 O 0.3724 0.26655 0.79556 0.0
C713 C 0.4029 0.2773 0.07492 0.0
O714 O 0.42575 0.29842 0.05405 0.0
O715 O 0.40376 0.33309 0.0167 0.0
O716 O 0.43557 0.34984 0.9298 0.0
H717 H 0.319 0.33988 0.06568 0.0
H718 H 0.42963 0.27051 0.87889 0.0
O719 O 0.41749 0.29168 0.77895 0.0
H720 H 0.5193 0.34605 0.95025 0.0
H721 H 0.4987 0.35333 0.66284 0.0
H722 H 0.44432 0.37816 0.81815 0.0
H723 H 0.48299 0.35468 0.91069 0.0
H724 H 0.46603 0.3204 0.74927 0.0
O725 O 0.38081 0.27663 0.0584 0.0
H726 H 0.3496 0.33417 0.98487 0.0
H727 H 0.33867 0.26594 0.10626 0.0
H728 H 0.47663 0.41176 0.73248 0.0
H729 H 0.46605 0.26098 0.91144 0.0
H730 H 0.50424 0.39945 0.654 0.0
H731 H 0.51121 0.29887 0.94892 0.0
O732 O 0.39826 0.3282 0.81316 0.0
H733 H 0.33106 0.19866 0.90922 0.0
H734 H 0.31702 0.27729 0.9287 0.0
H735 H 0.27986 0.23367 0.8832 0.0
H736 H 0.28678 0.19395 0.87284 0.0
H737 H 0.36758 0.24268 0.95511 0.0
H738 H 0.30808 0.27122 0.18833 0.0
H739 H 0.29807 0.30855 0.16924 0.0
O740 O 0.36624 0.31624 0.89922 0.0
C741 C 0.42575 0.35248 0.98962 0.0
C742 C 0.32368 0.32389 0.07565 0.0
C743 C 0.31758 0.28543 0.14442 0.0
N744 N 0.34793 0.30078 0.04245 0.0
C745 C 0.34146 0.32066 0.03019 0.0
C746 C 0.33547 0.28283 0.09786 0.0
C747 C 0.31188 0.30629 0.13357 0.0
C748 C 0.44925 0.28716 0.89375 0.0
N749 N 0.45393 0.31321 0.89335 0.0
C750 C 0.46987 0.28164 0.91225 0.0
C751 C 0.49515 0.30287 0.93353 0.0
C752 C 0.49964 0.3293 0.93468 0.0
C753 C 0.47878 0.3341 0.91364 0.0
C754 C 0.48672 0.35893 0.69654 0.0
C755 C 0.45589 0.37253 0.78384 0.0
C756 C 0.46805 0.34031 0.74549 0.0
N757 N 0.45285 0.3472 0.78846 0.0
C758 C 0.47434 0.3917 0.73556 0.0
C759 C 0.48982 0.38479 0.69158 0.0
C760 C 0.3765 0.32658 0.8379 0.0
C761 C 0.3278 0.21582 0.91324 0.0
C762 C 0.3202 0.26012 0.92475 0.0
C763 C 0.29906 0.23545 0.89878 0.0
C764 C 0.30296 0.21319 0.89292 0.0
N765 N 0.3446 0.26263 0.94398 0.0
C766 C 0.34845 0.24082 0.93889 0.0
Co767 Co 0.83465 0.14295 0.97973 0.0
Co768 Co 0.81092 0.17002 0.85244 0.0
O769 O 0.83961 0.1728 0.91693 0.0
C770 C 0.859 0.19203 0.07384 0.0
O771 O 0.84125 0.19807 0.04724 0.0
C772 C 0.86203 0.19577 0.76611 0.0
O773 O 0.86868 0.17952 0.79921 0.0
O774 O 0.80792 0.13661 0.80799 0.0
O775 O 0.81115 0.11486 0.90569 0.0
H776 H 0.72388 0.11951 0.71077 0.0
H777 H 0.89115 0.18696 0.95091 0.0
O778 O 0.85861 0.17031 0.05463 0.0
H779 H 0.8865 0.10305 0.86084 0.0
H780 H 0.86491 0.098 0.16329 0.0
H781 H 0.78753 0.09007 0.02191 0.0
H782 H 0.84658 0.1016 0.91723 0.0
H783 H 0.87126 0.13399 0.0778 0.0
O784 O 0.83894 0.19352 0.77814 0.0
H785 H 0.75867 0.12433 0.79898 0.0
H786 H 0.80381 0.20926 0.76051 0.0
H787 H 0.78031 0.05349 0.10629 0.0
H788 H 0.93174 0.18923 0.89642 0.0
H789 H 0.81917 0.05738 0.17794 0.0
H790 H 0.92952 0.14709 0.85034 0.0
O791 O 0.80185 0.1414 0.02241 0.0
H792 H 0.86184 0.26484 0.95311 0.0
H793 H 0.77118 0.18555 0.90872 0.0
H794 H 0.77501 0.22603 0.96889 0.0
H795 H 0.82061 0.26613 0.99127 0.0
H796 H 0.85696 0.22375 0.89371 0.0
H797 H 0.76945 0.20537 0.67207 0.0
H798 H 0.72911 0.16024 0.6467 0.0
O799 O 0.7819 0.14737 0.92557 0.0
C800 C 0.80506 0.11531 0.83928 0.0
C801 C 0.74128 0.13931 0.72166 0.0
C802 C 0.76684 0.1875 0.70001 0.0
N803 N 0.78297 0.16713 0.78615 0.0
C804 C 0.76105 0.14218 0.7716 0.0
C805 C 0.78619 0.18959 0.75036 0.0
C806 C 0.74423 0.16217 0.68573 0.0
C807 C 0.89011 0.16847 0.93209 0.0
N808 N 0.86646 0.1442 0.93725 0.0
C809 C 0.91313 0.16991 0.90081 0.0
C810 C 0.91186 0.14627 0.87483 0.0
C811 C 0.88772 0.12157 0.8806 0.0
C812 C 0.86512 0.1209 0.91227 0.0
C813 C 0.84784 0.09603 0.1322 0.0
C814 C 0.8046 0.09175 0.05219 0.0
C815 C 0.85131 0.11635 0.08372 0.0
N816 N 0.82984 0.11398 0.04426 0.0
C817 C 0.80037 0.07103 0.10015 0.0
C818 C 0.82217 0.07324 0.14039 0.0
C819 C 0.78147 0.14118 0.99226 0.0
C820 C 0.84184 0.24756 0.94339 0.0
C821 C 0.79108 0.20284 0.91837 0.0
C822 C 0.79313 0.22576 0.95237 0.0
C823 C 0.81871 0.24825 0.96488 0.0
N824 N 0.81386 0.20236 0.89709 0.0
C825 C 0.83897 0.22429 0.90957 0.0
Co826 Co 0.97105 0.70582 0.85784 0.0
Co827 Co 0.98943 0.75643 0.98812 0.0
O828 O 0.96336 0.72871 0.92128 0.0
C829 C 0.93564 0.72263 0.77555 0.0
O830 O 0.93333 0.73395 0.83441 0.0
C831 C 0.93412 0.72965 0.05977 0.0
O832 O 0.92428 0.71186 0.00722 0.0
O833 O 0.99613 0.72817 0.03259 0.0
O834 O 0.99213 0.70069 0.93882 0.0
H835 H 0.07412 0.80155 0.1419 0.0
H836 H 0.91162 0.68863 0.88248 0.0
O837 O 0.94979 0.7107 0.77493 0.0
H838 H 0.92046 0.60938 0.94581 0.0
H839 H 0.95216 0.63709 0.66084 0.0
H840 H 0.02071 0.70268 0.83066 0.0
H841 H 0.96023 0.6516 0.90474 0.0
H842 H 0.94039 0.66296 0.74617 0.0
O843 O 0.95934 0.74774 0.06113 0.0
H844 H 0.04206 0.76832 0.05426 0.0
H845 H 0.98989 0.80108 0.07516 0.0
H846 H 0.03332 0.67707 0.74669 0.0
H847 H 0.87158 0.64703 0.92289 0.0
H848 H 0.99893 0.64408 0.66074 0.0
H849 H 0.87565 0.60682 0.9553 0.0
O850 O 0.00435 0.73836 0.82369 0.0
H851 H 0.93299 0.79432 0.88289 0.0
H852 H 0.0258 0.81218 0.9316 0.0
H853 H 0.01929 0.84653 0.8682 0.0
H854 H 0.97261 0.83777 0.8433 0.0
H855 H 0.94039 0.76047 0.94554 0.0
H856 H 0.02108 0.83456 0.1638 0.0
H857 H 0.06376 0.83517 0.19733 0.0
O858 O 0.02043 0.7668 0.91822 0.0
C859 C 0.99853 0.70885 0.00445 0.0
C860 C 0.0558 0.8018 0.12698 0.0
C861 C 0.02603 0.82026 0.13937 0.0
N862 N 0.01461 0.78326 0.05702 0.0
C863 C 0.03771 0.78313 0.07665 0.0
C864 C 0.00844 0.80125 0.08885 0.0
C865 C 0.04994 0.82057 0.15824 0.0
C866 C 0.91394 0.67156 0.89566 0.0
N867 N 0.93861 0.673 0.89079 0.0
C868 C 0.89098 0.64785 0.91893 0.0
C869 C 0.89327 0.62531 0.93713 0.0
C870 C 0.91837 0.62673 0.93179 0.0
C871 C 0.94087 0.65081 0.90844 0.0
C872 C 0.96731 0.65139 0.69806 0.0
C873 C 0.00556 0.68815 0.79395 0.0
C874 C 0.96077 0.66616 0.74636 0.0
N875 N 0.97979 0.68421 0.79361 0.0
C876 C 0.01285 0.67378 0.74634 0.0
C877 C 0.99356 0.6553 0.69807 0.0
C878 C 0.02289 0.7598 0.85413 0.0
C879 C 0.95345 0.79839 0.89329 0.0
C880 C 0.00536 0.80796 0.92065 0.0
C881 C 1.00183 0.82764 0.88493 0.0
C882 C 0.97566 0.82274 0.87106 0.0
N883 N 0.98345 0.78397 0.94214 0.0
C884 C 0.95779 0.7792 0.92885 0.0
Co885 Co 0.37564 0.14423 0.48131 0.0
Co886 Co 0.43138 0.17452 0.36517 0.0
O887 O 0.40318 0.17518 0.42547 0.0
C888 C 0.40221 0.19101 0.58378 0.0
O889 O 0.42595 0.19672 0.55785 0.0
C890 C 0.40454 0.19858 0.27737 0.0
O891 O 0.38117 0.17786 0.29704 0.0
O892 O 0.40329 0.14031 0.3165 0.0
O893 O 0.36986 0.1186 0.39854 0.0
H894 H 0.48382 0.13326 0.25569 0.0
H895 H 0.36817 0.19233 0.46475 0.0
O896 O 0.38066 0.16993 0.5626 0.0
H897 H 0.28329 0.11414 0.37526 0.0
H898 H 0.30138 0.10116 0.66743 0.0
H899 H 0.35738 0.08502 0.49429 0.0
H900 H 0.32126 0.10822 0.41654 0.0
H901 H 0.33396 0.1381 0.58981 0.0
O902 O 0.42611 0.19778 0.29132 0.0
H903 H 0.45071 0.13506 0.33687 0.0
H904 H 0.47372 0.21432 0.26433 0.0
H905 H 0.32506 0.04751 0.57071 0.0
H906 H 0.33009 0.1989 0.42836 0.0
H907 H 0.29681 0.05545 0.6587 0.0
H908 H 0.28741 0.15972 0.38194 0.0
O909 O 0.40423 0.13747 0.52321 0.0
H910 H 0.47118 0.26996 0.45994 0.0
H911 H 0.4865 0.19261 0.42592 0.0
H912 H 0.52198 0.23442 0.48439 0.0
H913 H 0.51436 0.27345 0.50225 0.0
H914 H 0.43645 0.22778 0.40097 0.0
H915 H 0.50717 0.21354 0.18221 0.0
H916 H 0.51235 0.17269 0.1769 0.0
O917 O 0.43773 0.15244 0.44043 0.0
C918 C 0.38099 0.1198 0.33744 0.0
C919 C 0.48146 0.15102 0.25652 0.0
C920 C 0.49455 0.19602 0.21532 0.0
N921 N 0.45907 0.17418 0.30348 0.0
C922 C 0.46241 0.15199 0.30208 0.0
C923 C 0.47525 0.19622 0.26154 0.0
C924 C 0.4975 0.17315 0.2125 0.0
C925 C 0.34962 0.17514 0.44551 0.0
N926 N 0.34716 0.15 0.44212 0.0
C927 C 0.32807 0.17896 0.42489 0.0
C928 C 0.30415 0.15698 0.39878 0.0
C929 C 0.30185 0.13144 0.39485 0.0
C930 C 0.32357 0.12828 0.41759 0.0
C931 C 0.31385 0.09753 0.63004 0.0
C932 C 0.34567 0.0889 0.53288 0.0
C933 C 0.33261 0.11849 0.58622 0.0
N934 N 0.3486 0.11418 0.53902 0.0
C935 C 0.32712 0.06744 0.5758 0.0
C936 C 0.31124 0.07188 0.62502 0.0
C937 C 0.42671 0.14046 0.49982 0.0
C938 C 0.47465 0.25301 0.4532 0.0
C939 C 0.48297 0.20944 0.4337 0.0
C940 C 0.50318 0.2331 0.46674 0.0
C941 C 0.49889 0.25498 0.47675 0.0
N942 N 0.45904 0.20748 0.41187 0.0
C943 C 0.45493 0.22901 0.42042 0.0
Co944 Co 0.96307 0.31803 0.36004 0.0
Co945 Co 0.99416 0.29378 0.47784 0.0
O946 O 0.96335 0.28982 0.42019 0.0
C947 C 0.94457 0.26974 0.26282 0.0
O948 O 0.96394 0.26597 0.28889 0.0
C949 C 0.94687 0.27363 0.57727 0.0
O950 O 0.94093 0.29065 0.54546 0.0
O951 O 1.00089 0.3294 0.51772 0.0
O952 O 0.98316 0.34631 0.43735 0.0
H953 H 0.09116 0.34056 0.56746 0.0
H954 H 0.91178 0.26733 0.3943 0.0
O955 O 0.94227 0.28989 0.28334 0.0
H956 H 0.89705 0.34191 0.47226 0.0
H957 H 0.92213 0.35187 0.17354 0.0
H958 H 1.00039 0.37739 0.33463 0.0
H959 H 0.94049 0.3517 0.41738 0.0
H960 H 0.9229 0.31818 0.25534 0.0
O961 O 0.96862 0.27378 0.56013 0.0
H962 H 0.05343 0.3348 0.49024 0.0
H963 H 1.00079 0.25901 0.58849 0.0
H964 H 1.00047 0.4117 0.25389 0.0
H965 H 0.86798 0.25656 0.44852 0.0
H966 H 0.96115 0.39904 0.17205 0.0
H967 H 0.86042 0.29403 0.48832 0.0
O968 O 0.99853 0.32654 0.31516 0.0
H969 H 0.93687 0.19611 0.40227 0.0
H970 H 0.03011 0.2738 0.42098 0.0
H971 H 0.02267 0.23033 0.37121 0.0
H972 H 0.97575 0.19109 0.3614 0.0
H973 H 0.94536 0.23999 0.45202 0.0
H974 H 0.03795 0.26389 0.66689 0.0
H975 H 0.08357 0.30499 0.65723 0.0
O976 O 0.0196 0.31314 0.39546 0.0
C977 C 0.99635 0.3481 0.4954 0.0
C978 C 0.07126 0.32274 0.57306 0.0
C979 C 0.04143 0.27975 0.6288 0.0
N980 N 0.02439 0.29722 0.53648 0.0
C981 C 0.04965 0.31952 0.52974 0.0
C982 C 0.0203 0.27725 0.58458 0.0
C983 C 0.06703 0.30276 0.62326 0.0
C984 C 0.90861 0.28372 0.41102 0.0
N985 N 0.92876 0.31009 0.40309 0.0
C986 C 0.88377 0.27751 0.44189 0.0
C987 C 0.87956 0.29854 0.46424 0.0
C988 C 0.90009 0.3254 0.45528 0.0
C989 C 0.92467 0.33081 0.42423 0.0
C990 C 0.93955 0.35757 0.20826 0.0
C991 C 0.98346 0.37149 0.29874 0.0
C992 C 0.94025 0.33847 0.2544 0.0
N993 N 0.96221 0.34542 0.29839 0.0
C994 C 0.98348 0.39113 0.25334 0.0
C995 C 0.96141 0.38403 0.20755 0.0
C996 C 0.01886 0.32428 0.33598 0.0
C997 C 0.95742 0.21305 0.40616 0.0
C998 C 0.00965 0.25679 0.41723 0.0
C999 C 0.00556 0.23223 0.38887 0.0
C1000 C 0.97923 0.21024 0.3833 0.0
N1001 N 0.98814 0.25943 0.43926 0.0
C1002 C 0.96232 0.23794 0.43409 0.0
Co1003 Co 0.83611 0.75521 0.48634 0.0
Co1004 Co 0.80482 0.70521 0.35465 0.0
O1005 O 0.83523 0.72817 0.41889 0.0
C1006 C 0.86609 0.7295 0.55737 0.0
O1007 O 0.85926 0.71245 0.50329 0.0
C1008 C 0.85716 0.72219 0.27455 0.0
O1009 O 0.87068 0.73381 0.33349 0.0
O1010 O 0.80405 0.73775 0.31975 0.0
O1011 O 0.81498 0.7652 0.41604 0.0
H1012 H 0.71403 0.6759 0.23965 0.0
H1013 H 0.88984 0.76093 0.44404 0.0
O1014 O 0.85799 0.74687 0.5595 0.0
H1015 H 0.89461 0.84639 0.37024 0.0
H1016 H 0.88014 0.83232 0.66584 0.0
H1017 H 0.79405 0.76506 0.55196 0.0
H1018 H 0.85417 0.81102 0.43225 0.0
H1019 H 0.87926 0.80003 0.57556 0.0
O1020 O 0.83112 0.71004 0.27314 0.0
H1021 H 0.75209 0.702 0.32416 0.0
H1022 H 0.79301 0.66202 0.24469 0.0
H1023 H 0.79389 0.7971 0.64121 0.0
H1024 H 0.93065 0.79576 0.38261 0.0
H1025 H 0.83724 0.83115 0.69901 0.0
H1026 H 0.93329 0.83893 0.34483 0.0
O1027 O 0.80158 0.72617 0.52972 0.0
H1028 H 0.84555 0.6467 0.42419 0.0
H1029 H 0.76151 0.65129 0.40338 0.0
H1030 H 0.75919 0.60946 0.44795 0.0
H1031 H 0.80142 0.60689 0.45875 0.0
H1032 H 0.847 0.68796 0.38052 0.0
H1033 H 0.75556 0.63569 0.15876 0.0
H1034 H 0.71569 0.64254 0.15591 0.0
O1035 O 0.77835 0.70012 0.43367 0.0
C1036 C 0.80615 0.75874 0.35104 0.0
C1037 C 0.73127 0.67268 0.24048 0.0
C1038 C 0.7546 0.65015 0.195 0.0
N1039 N 0.77471 0.68344 0.28963 0.0
C1040 C 0.75283 0.68733 0.2884 0.0
C1041 C 0.7758 0.66518 0.24362 0.0
C1042 C 0.73222 0.65398 0.19347 0.0
C1043 C 0.89063 0.7795 0.42807 0.0
N1044 N 0.86932 0.78355 0.4416 0.0
C1045 C 0.91392 0.79926 0.39322 0.0
C1046 C 0.91539 0.82345 0.37201 0.0
C1047 C 0.8937 0.82763 0.38618 0.0
C1048 C 0.87075 0.80739 0.42112 0.0
C1049 C 0.86116 0.81782 0.64041 0.0
C1050 C 0.813 0.78014 0.57527 0.0
C1051 C 0.86054 0.7995 0.58895 0.0
N1052 N 0.83671 0.78125 0.55597 0.0
C1053 C 0.81279 0.79811 0.62651 0.0
C1054 C 0.83709 0.81714 0.65904 0.0
C1055 C 0.77996 0.70733 0.49994 0.0
C1056 C 0.82699 0.64753 0.4197 0.0
C1057 C 0.78008 0.65052 0.4078 0.0
C1058 C 0.77858 0.62665 0.43305 0.0
C1059 C 0.80225 0.62522 0.43911 0.0
N1060 N 0.80445 0.67249 0.389 0.0
C1061 C 0.82767 0.67104 0.39457 0.0
C1062 C 0.08937 0.55874 0.99886 0.0
C1063 C 0.06568 0.54462 0.95534 0.0
C1064 C 0.04311 0.56449 0.02617 0.0
C1065 C 0.06693 0.57886 0.06919 0.0
N1066 N 0.11143 0.58706 0.10356 0.0
N1067 N 0.02096 0.53593 0.92174 0.0
C1068 C 0.08984 0.57551 0.0569 0.0
C1069 C 0.04264 0.54768 0.96813 0.0
N1070 N 0.11166 0.55631 0.98389 0.0
N1071 N 0.02079 0.56685 0.04124 0.0
H1072 H 0.01941 0.523 0.88003 0.0
H1073 H 0.00498 0.53991 0.92146 0.0
H1074 H 0.02113 0.58099 0.07783 0.0
H1075 H 1.00153 0.55423 0.01984 0.0
H1076 H 0.13092 0.56886 0.00542 0.0
H1077 H 0.11127 0.54215 0.94726 0.0
H1078 H 0.1273 0.58292 0.10403 0.0
H1079 H 0.11292 0.59985 0.14552 0.0
C1080 C 0.59573 0.58766 0.03915 0.0
C1081 C 0.58902 0.58872 0.96569 0.0
C1082 C 0.54517 0.5466 0.98125 0.0
C1083 C 0.55108 0.54673 0.05581 0.0
N1084 N 0.58027 0.56856 0.15853 0.0
N1085 N 0.55755 0.56977 0.86582 0.0
C1086 C 0.57599 0.56747 0.08547 0.0
C1087 C 0.5637 0.5684 0.93661 0.0
N1088 N 0.62112 0.60582 0.06444 0.0
N1089 N 0.52241 0.5249 0.9526 0.0
H1090 H 0.57163 0.58359 0.82972 0.0
H1091 H 0.53835 0.55799 0.84307 0.0
H1092 H 0.50852 0.50853 0.98364 0.0
H1093 H 0.51806 0.52189 0.89758 0.0
H1094 H 0.62857 0.60416 0.11453 0.0
H1095 H 0.63556 0.62184 0.03351 0.0
H1096 H 0.59641 0.5848 0.18496 0.0
H1097 H 0.56654 0.554 0.19404 0.0
C1098 C 0.56555 0.0701 0.08116 0.0
C1099 C 0.58517 0.06385 0.05374 0.0
C1100 C 0.56513 0.05702 0.93232 0.0
C1101 C 0.54538 0.0631 0.95964 0.0
N1102 N 0.5279 0.07797 0.05708 0.0
N1103 N 0.60209 0.04822 0.9565 0.0
C1104 C 0.54591 0.07035 0.03334 0.0
C1105 C 0.58441 0.05627 0.9803 0.0
N1106 N 0.56482 0.0743 0.1538 0.0
N1107 N 0.5667 0.05395 0.85946 0.0
H1108 H 0.61778 0.04928 0.9883 0.0
H1109 H 0.60043 0.03902 0.90661 0.0
H1110 H 0.55348 0.05513 0.82256 0.0
H1111 H 0.58229 0.05251 0.83439 0.0
H1112 H 0.54964 0.07632 0.1793 0.0
H1113 H 0.5786 0.07398 0.19045 0.0
H1114 H 0.52897 0.08665 0.10738 0.0
H1115 H 0.51224 0.07682 0.02485 0.0
C1116 C 0.59655 0.07739 0.53012 0.0
C1117 C 0.58997 0.06901 0.45708 0.0
C1118 C 0.54437 0.0633 0.47321 0.0
C1119 C 0.55083 0.07128 0.54665 0.0
N1120 N 0.58077 0.08097 0.64893 0.0
N1121 N 0.55969 0.058 0.35505 0.0
C1122 C 0.57644 0.07731 0.57601 0.0
C1123 C 0.56431 0.0628 0.42764 0.0
N1124 N 0.6222 0.08571 0.55544 0.0
N1125 N 0.51892 0.05573 0.44756 0.0
H1126 H 0.57391 0.05787 0.32006 0.0
H1127 H 0.54274 0.05602 0.32789 0.0
H1128 H 0.50445 0.05757 0.47779 0.0
H1129 H 0.51144 0.04645 0.39771 0.0
H1130 H 0.62957 0.09544 0.60491 0.0
H1131 H 0.63695 0.08441 0.52507 0.0
H1132 H 0.5976 0.08237 0.67552 0.0
H1133 H 0.5663 0.08025 0.68443 0.0
C1134 C 0.08678 0.59308 0.52437 0.0
C1135 C 0.06351 0.58646 0.48176 0.0
C1136 C 0.04835 0.53792 0.49785 0.0
C1137 C 0.07194 0.54457 0.53956 0.0
N1138 N 0.11828 0.57973 0.56739 0.0
N1139 N 0.01721 0.55189 0.4537 0.0
C1140 C 0.0925 0.57246 0.5461 0.0
C1141 C 0.04283 0.5587 0.4755 0.0
N1142 N 0.10266 0.61915 0.54836 0.0
N1143 N 0.03211 0.51174 0.47493 0.0
H1144 H 0.01092 0.56599 0.44627 0.0
H1145 H 1.00093 0.53206 0.45411 0.0
H1146 H 0.03678 0.49646 0.48506 0.0
H1147 H 0.01626 0.50596 0.43801 0.0
H1148 H 0.11815 0.62484 0.58642 0.0
H1149 H 0.09784 0.63427 0.53801 0.0
H1150 H 0.13435 0.59967 0.56636 0.0
H1151 H 0.12504 0.56607 0.57491 0.0
C1152 C 0.56882 0.55956 0.58002 0.0
C1153 C 0.58877 0.58515 0.55207 0.0
C1154 C 0.56852 0.57173 0.43078 0.0
C1155 C 0.54831 0.54628 0.45883 0.0
N1156 N 0.53018 0.51453 0.55743 0.0
N1157 N 0.60604 0.61725 0.45415 0.0
C1158 C 0.54882 0.53976 0.53271 0.0
C1159 C 0.58815 0.59168 0.47833 0.0
N1160 N 0.56795 0.55498 0.65281 0.0
N1161 N 0.56996 0.57616 0.35779 0.0
H1162 H 0.62173 0.63186 0.48603 0.0
H1163 H 0.60454 0.62468 0.40399 0.0
H1164 H 0.55634 0.56197 0.32103 0.0
H1165 H 0.58582 0.59285 0.33243 0.0
H1166 H 0.55259 0.5381 0.67881 0.0
H1167 H 0.58189 0.56914 0.68899 0.0
H1168 H 0.53119 0.50696 0.60781 0.0
H1169 H 0.51398 0.50032 0.52616 0.0
C1170 C 0.72077 0.86944 0.36655 0.0
C1171 C 0.72797 0.87611 0.29289 0.0
C1172 C 0.73366 0.92154 0.3123 0.0
C1173 C 0.72658 0.915 0.38594 0.0
N1174 N 0.71571 0.88422 0.4862 0.0
N1175 N 0.73579 0.90594 0.19186 0.0
C1176 C 0.72035 0.88916 0.41372 0.0
C1177 C 0.7331 0.90154 0.26483 0.0
N1178 N 0.71437 0.84421 0.3911 0.0
N1179 N 0.74146 0.94715 0.28802 0.0
H1180 H 0.73501 0.89169 0.15516 0.0
H1181 H 0.73647 0.9226 0.16651 0.0
H1182 H 0.74036 0.9618 0.31954 0.0
H1183 H 0.75049 0.95456 0.23806 0.0
H1184 H 0.70631 0.83664 0.44176 0.0
H1185 H 0.7162 0.83001 0.35949 0.0
H1186 H 0.71329 0.86696 0.51226 0.0
H1187 H 0.7156 0.89822 0.52229 0.0
C1188 C 0.22284 0.91321 0.38159 0.0
C1189 C 0.21902 0.8867 0.39177 0.0
C1190 C 0.25677 0.89737 0.30879 0.0
C1191 C 0.25966 0.92333 0.29509 0.0
N1192 N 0.24527 0.95608 0.31707 0.0
N1193 N 0.22836 0.85169 0.35361 0.0
C1194 C 0.24259 0.93121 0.3312 0.0
C1195 C 0.235 0.87838 0.35239 0.0
N1196 N 0.20838 0.92167 0.42204 0.0
N1197 N 0.27479 0.89061 0.28068 0.0
H1198 H 0.21218 0.83706 0.38346 0.0
H1199 H 0.23688 0.84339 0.31955 0.0
H1200 H 0.29016 0.90288 0.24551 0.0
H1201 H 0.276 0.8737 0.29694 0.0
H1202 H 0.21293 0.94178 0.42605 0.0
H1203 H 0.19204 0.90863 0.45382 0.0
H1204 H 0.23105 0.96163 0.33187 0.0
H1205 H 0.26158 0.9712 0.28832 0.0
C1206 C 0.25325 0.3907 0.30467 0.0
C1207 C 0.25414 0.39804 0.37844 0.0
C1208 C 0.21308 0.40175 0.36126 0.0
C1209 C 0.21207 0.39432 0.2876 0.0
N1210 N 0.23273 0.38518 0.18584 0.0
N1211 N 0.23219 0.40517 0.48077 0.0
C1212 C 0.23239 0.38936 0.25858 0.0
C1213 C 0.23344 0.40234 0.40766 0.0
N1214 N 0.27231 0.38484 0.27895 0.0
N1215 N 0.19479 0.40875 0.3866 0.0
H1216 H 0.24622 0.40501 0.51674 0.0
H1217 H 0.21608 0.4053 0.50695 0.0
H1218 H 0.1785 0.40684 0.35587 0.0
H1219 H 0.19654 0.41795 0.43654 0.0
H1220 H 0.27126 0.37617 0.22866 0.0
H1221 H 0.28897 0.38753 0.30941 0.0
H1222 H 0.24822 0.38416 0.15894 0.0
H1223 H 0.2181 0.38444 0.15053 0.0
C1224 C 0.23844 0.40398 0.90596 0.0
C1225 C 0.21307 0.39883 0.87711 0.0
C1226 C 0.22549 0.38912 0.75815 0.0
C1227 C 0.25143 0.39574 0.78625 0.0
N1228 N 0.28415 0.41272 0.88371 0.0
N1229 N 0.18316 0.38937 0.77521 0.0
C1230 C 0.25837 0.40423 0.85918 0.0
C1231 C 0.2067 0.39198 0.80307 0.0
N1232 N 0.24296 0.40724 0.97887 0.0
N1233 N 0.21897 0.38039 0.68819 0.0
H1234 H 0.16903 0.39137 0.80659 0.0
H1235 H 0.17829 0.3871 0.72043 0.0
H1236 H 0.23292 0.38033 0.652 0.0
H1237 H 0.19952 0.3721 0.6664 0.0
H1238 H 0.25955 0.40784 0.00467 0.0
H1239 H 0.22889 0.40713 0.01483 0.0
H1240 H 0.29162 0.42259 0.93299 0.0
H1241 H 0.2988 0.41139 0.85299 0.0
C1242 C 0.73674 0.87883 0.81217 0.0
C1243 C 0.72889 0.87744 0.88543 0.0
C1244 C 0.72281 0.91712 0.86797 0.0
C1245 C 0.7306 0.91836 0.79458 0.0
N1246 N 0.73886 0.89711 0.69253 0.0
N1247 N 0.71673 0.89609 0.98615 0.0
C1248 C 0.73608 0.89841 0.76559 0.0
C1249 C 0.72218 0.89663 0.91399 0.0
N1250 N 0.74535 0.8617 0.78741 0.0
N1251 N 0.71589 0.93551 0.89321 0.0
H1252 H 0.71643 0.88164 0.02116 0.0
H1253 H 0.71377 0.91047 0.013 0.0
H1254 H 0.71754 0.95158 0.8622 0.0
H1255 H 0.70756 0.93462 0.94375 0.0
H1256 H 0.75478 0.86396 0.73771 0.0
H1257 H 0.74464 0.84605 0.81847 0.0
H1258 H 0.73995 0.88143 0.66656 0.0
H1259 H 0.73752 0.91045 0.65654 0.0
C1260 C 0.26097 0.92588 0.80664 0.0
C1261 C 0.26207 0.92072 0.88126 0.0
C1262 C 0.22197 0.87505 0.86745 0.0
C1263 C 0.22057 0.88045 0.79324 0.0
N1264 N 0.24126 0.90828 0.68841 0.0
N1265 N 0.24144 0.89254 0.98562 0.0
C1266 C 0.24067 0.90523 0.76185 0.0
C1267 C 0.24219 0.8957 0.91229 0.0
N1268 N 0.27905 0.9508 0.77904 0.0
N1269 N 0.204 0.85007 0.89495 0.0
H1270 H 0.25531 0.90751 0.0201 0.0
H1271 H 0.22598 0.87627 0.01328 0.0
H1272 H 0.18783 0.83507 0.86518 0.0
H1273 H 0.20588 0.8434 0.94586 0.0
H1274 H 0.27745 0.95735 0.72772 0.0
H1275 H 0.29515 0.9658 0.80906 0.0
H1276 H 0.25668 0.92453 0.66058 0.0
H1277 H 0.22732 0.89327 0.65389 0.0
C1278 C 0.39044 0.22436 0.74825 0.0
C1279 C 0.39472 0.2492 0.71792 0.0
C1280 C 0.40446 0.23612 0.60017 0.0
C1281 C 0.39965 0.21102 0.63014 0.0
N1282 N 0.38372 0.17914 0.72873 0.0
N1283 N 0.40186 0.27734 0.61394 0.0
C1284 C 0.39119 0.20447 0.70294 0.0
C1285 C 0.40078 0.25474 0.64355 0.0
N1286 N 0.38711 0.22039 0.82118 0.0
N1287 N 0.41222 0.24195 0.52967 0.0
H1288 H 0.39905 0.29125 0.64416 0.0
H1289 H 0.40354 0.2815 0.55886 0.0
H1290 H 0.41184 0.22758 0.49427 0.0
H1291 H 0.41972 0.26104 0.50653 0.0
H1292 H 0.38718 0.20437 0.8482 0.0
H1293 H 0.38631 0.23434 0.85593 0.0
H1294 H 0.37408 0.17183 0.77811 0.0
H1295 H 0.38552 0.16458 0.69873 0.0
C1296 C 0.89021 0.24401 0.71657 0.0
C1297 C 0.88151 0.21579 0.71258 0.0
C1298 C 0.91869 0.22561 0.62842 0.0
C1299 C 0.92734 0.25389 0.63145 0.0
N1300 N 0.92641 0.29024 0.69577 0.0
N1301 N 0.88161 0.17971 0.64518 0.0
C1302 C 0.91437 0.2631 0.68017 0.0
C1303 C 0.89419 0.20666 0.66308 0.0
N1304 N 0.87478 0.25269 0.75149 0.0
N1305 N 0.93436 0.21657 0.59657 0.0
H1306 H 0.86258 0.16568 0.66538 0.0
H1307 H 0.88804 0.17196 0.60345 0.0
H1308 H 0.95364 0.22922 0.5767 0.0
H1309 H 0.93004 0.1965 0.59933 0.0
H1310 H 0.87867 0.27263 0.74995 0.0
H1311 H 0.85605 0.23963 0.774 0.0
H1312 H 0.91988 0.29822 0.7366 0.0
H1313 H 0.94506 0.30457 0.67404 0.0
C1314 C 0.89619 0.70018 0.68955 0.0
C1315 C 0.92052 0.72374 0.7113 0.0
C1316 C 0.90961 0.75169 0.63184 0.0
C1317 C 0.88408 0.72845 0.61486 0.0
N1318 N 0.85088 0.68172 0.63911 0.0
N1319 N 0.94934 0.77243 0.70964 0.0
C1320 C 0.87686 0.70295 0.64655 0.0
C1321 C 0.92692 0.7496 0.68406 0.0
N1322 N 0.89133 0.67512 0.71073 0.0
N1323 N 0.91799 0.77561 0.59635 0.0
H1324 H 0.96371 0.77177 0.74354 0.0
H1325 H 0.95298 0.79206 0.70068 0.0
H1326 H 0.90565 0.77884 0.5613 0.0
H1327 H 0.9378 0.79188 0.59838 0.0
H1328 H 0.87547 0.65701 0.69034 0.0
H1329 H 0.9045 0.67234 0.74412 0.0
H1330 H 0.84344 0.66344 0.66675 0.0
H1331 H 0.83575 0.6833 0.61112 0.0
C1332 C 0.89237 0.7492 0.18302 0.0
C1333 C 0.87343 0.72334 0.21097 0.0
C1334 C 0.8972 0.70309 0.14912 0.0
C1335 C 0.91497 0.72853 0.11649 0.0
N1336 N 0.92702 0.7753 0.09548 0.0
N1337 N 0.85495 0.67485 0.21217 0.0
C1338 C 0.91197 0.75149 0.13172 0.0
C1339 C 0.87483 0.7 0.19081 0.0
N1340 N 0.89206 0.77184 0.20705 0.0
N1341 N 0.90271 0.6823 0.14387 0.0
H1342 H 0.83868 0.67187 0.24419 0.0
H1343 H 0.85324 0.65683 0.19292 0.0
H1344 H 0.91971 0.6842 0.11715 0.0
H1345 H 0.89221 0.66417 0.17233 0.0
H1346 H 0.9077 0.79159 0.19766 0.0
H1347 H 0.87678 0.77093 0.24005 0.0
H1348 H 0.92288 0.7912 0.09607 0.0
H1349 H 0.94283 0.77881 0.06142 0.0
C1350 C 0.38132 0.2225 0.22113 0.0
C1351 C 0.40543 0.22152 0.23332 0.0
C1352 C 0.4275 0.25543 0.13742 0.0
C1353 C 0.40288 0.25553 0.12288 0.0
N1354 N 0.35369 0.22788 0.13239 0.0
N1355 N 0.45437 0.249 0.22744 0.0
C1356 C 0.37897 0.236 0.15952 0.0
C1357 C 0.42946 0.2413 0.19841 0.0
N1358 N 0.36151 0.21293 0.27227 0.0
N1359 N 0.44835 0.26647 0.08927 0.0
H1360 H 0.45673 0.2434 0.27919 0.0
H1361 H 0.47236 0.26481 0.20664 0.0
H1362 H 0.44618 0.27289 0.03856 0.0
H1363 H 0.46574 0.2648 0.09427 0.0
H1364 H 0.34434 0.21505 0.26867 0.0
H1365 H 0.36487 0.20759 0.32341 0.0
H1366 H 0.33604 0.21243 0.15577 0.0
H1367 H 0.35039 0.23244 0.08045 0.0
C1368 C 0.90363 0.22357 0.24114 0.0
C1369 C 0.92353 0.24924 0.21345 0.0
C1370 C 0.90142 0.23705 0.09398 0.0
C1371 C 0.88116 0.21167 0.12209 0.0
N1372 N 0.86417 0.17905 0.21884 0.0
N1373 N 0.94002 0.28196 0.11687 0.0
C1374 C 0.88268 0.20442 0.19467 0.0
C1375 C 0.92201 0.25639 0.14076 0.0
N1376 N 0.90374 0.21829 0.31322 0.0
N1377 N 0.90195 0.2419 0.0214 0.0
H1378 H 0.95642 0.29608 0.14782 0.0
H1379 H 0.93801 0.28988 0.06804 0.0
H1380 H 0.88776 0.22794 0.98521 0.0
H1381 H 0.91763 0.2586 0.99556 0.0
H1382 H 0.88846 0.20142 0.33944 0.0
H1383 H 0.91848 0.23188 0.34879 0.0
H1384 H 0.86582 0.17094 0.2677 0.0
H1385 H 0.84746 0.16523 0.18829 0.0
C1386 C 0.10355 0.70781 0.46675 0.0
C1387 C 0.11049 0.70814 0.39254 0.0
C1388 C 0.14216 0.75762 0.4065 0.0
C1389 C 0.1303 0.75747 0.47404 0.0
N1390 N 0.09613 0.73178 0.56346 0.0
N1391 N 0.13995 0.7353 0.2942 0.0
C1392 C 0.10996 0.73239 0.50264 0.0
C1393 C 0.13075 0.73359 0.36295 0.0
N1394 N 0.09255 0.68421 0.50517 0.0
N1395 N 0.16579 0.78014 0.38624 0.0
H1396 H 0.14035 0.71936 0.26831 0.0
H1397 H 0.14929 0.75346 0.26533 0.0
H1398 H 0.17576 0.79737 0.4187 0.0
H1399 H 0.17711 0.78069 0.34142 0.0
H1400 H 0.08914 0.68334 0.56072 0.0
H1401 H 0.09083 0.66646 0.48401 0.0
H1402 H 0.07922 0.71411 0.58192 0.0
H1403 H 0.09976 0.74923 0.59117 0.0
C1404 C 0.4271 0.47156 0.44702 0.0
C1405 C 0.4247 0.46402 0.37298 0.0
C1406 C 0.37516 0.44116 0.38714 0.0
C1407 C 0.37773 0.44249 0.46391 0.0
N1408 N 0.40914 0.45775 0.5662 0.0
N1409 N 0.39447 0.43708 0.27566 0.0
C1410 C 0.4045 0.45749 0.49384 0.0
C1411 C 0.39818 0.44766 0.34364 0.0
N1412 N 0.4506 0.49301 0.47264 0.0
N1413 N 0.35104 0.43487 0.35502 0.0
H1414 H 0.41042 0.43993 0.24293 0.0
H1415 H 0.37541 0.42295 0.2553 0.0
H1416 H 0.3345 0.4328 0.38429 0.0
H1417 H 0.34883 0.43562 0.2992 0.0
H1418 H 0.45252 0.50077 0.5248 0.0
H1419 H 0.46674 0.50529 0.43903 0.0
H1420 H 0.42858 0.46571 0.58821 0.0
H1421 H 0.39397 0.44804 0.60373 0.0
C1422 C 0.69601 1.00259 0.38903 0.0
C1423 C 0.69878 0.00665 0.46517 0.0
C1424 C 0.6738 0.03139 0.45601 0.0
C1425 C 0.67499 0.03114 0.3791 0.0
N1426 N 0.69744 0.02448 0.27658 0.0
N1427 N 0.69891 0.03448 0.56427 0.0
C1428 C 0.68894 0.01894 0.34648 0.0
C1429 C 0.6901 0.02377 0.49701 0.0
N1430 N 0.6994 0.98289 0.35676 0.0
N1431 N 0.65672 0.038 0.49068 0.0
H1432 H 0.71408 0.03271 0.59126 0.0
H1433 H 0.69429 0.04842 0.5875 0.0
H1434 H 0.64255 0.0413 0.46359 0.0
H1435 H 0.65431 0.03664 0.5467 0.0
H1436 H 0.69567 0.97833 0.30179 0.0
H1437 H 0.70254 0.96904 0.38586 0.0
H1438 H 0.70919 0.01727 0.25247 0.0
H1439 H 0.69649 0.03958 0.24724 0.0
C1440 C 0.7345 0.1121 0.15369 0.0
C1441 C 0.70827 0.10297 0.12433 0.0
C1442 C 0.72928 0.12104 0.00583 0.0
C1443 C 0.75586 0.13164 0.03695 0.0
N1444 N 0.78119 0.14766 0.14919 0.0
N1445 N 0.68173 0.10559 0.02568 0.0
C1446 C 0.75773 0.13031 0.11354 0.0
C1447 C 0.7059 0.10915 0.05119 0.0
N1448 N 0.73756 0.10267 0.21884 0.0
N1449 N 0.72568 0.12247 0.93346 0.0
H1450 H 0.66443 0.09832 0.05727 0.0
H1451 H 0.67951 0.11257 0.97544 0.0
H1452 H 0.7397 0.1379 0.90112 0.0
H1453 H 0.70743 0.10948 0.90716 0.0
H1454 H 0.75651 0.10729 0.23942 0.0
H1455 H 0.72118 0.08771 0.24754 0.0
H1456 H 0.78275 0.14839 0.20546 0.0
H1457 H 0.79746 0.16396 0.12355 0.0
C1458 C 0.99382 0.66905 0.07764 0.0
C1459 C 0.01035 0.69565 0.05014 0.0
C1460 C 0.0482 0.69992 0.12328 0.0
C1461 C 0.03314 0.67209 0.1418 0.0
N1462 N 0.99328 0.62848 0.12016 0.0
N1463 N 0.05589 0.73221 0.02904 0.0
C1464 C 0.00634 0.65606 0.11427 0.0
C1465 C 0.03838 0.70992 0.06767 0.0
N1466 N 0.96626 0.65653 0.07111 0.0
N1467 N 0.07101 0.7172 0.16117 0.0
H1468 H 0.0495 0.73825 0.98337 0.0
H1469 H 0.07686 0.74226 0.03725 0.0
H1470 H 0.07696 0.71103 0.20752 0.0
H1471 H 0.08166 0.73809 0.15191 0.0
H1472 H 0.95324 0.63789 0.09512 0.0
H1473 H 0.95652 0.66622 0.04842 0.0
H1474 H 0.97444 0.61578 0.09629 0.0
H1475 H 1.00281 0.61839 0.14159 0.0
C1476 C 0.42424 0.38493 0.08067 0.0
C1477 C 0.43987 0.37946 0.03083 0.0
C1478 C 0.48051 0.42109 0.07657 0.0
C1479 C 0.46473 0.42302 0.13306 0.0
N1480 N 0.42255 0.40216 0.19837 0.0
N1481 N 0.48381 0.39683 0.97358 0.0
C1482 C 0.437 0.40329 0.13851 0.0
C1483 C 0.46836 0.39877 0.02664 0.0
N1484 N 0.39744 0.37536 0.06706 0.0
N1485 N 0.50696 0.44119 0.0692 0.0
H1486 H 0.47585 0.38894 0.92305 0.0
H1487 H 0.50483 0.40553 0.97714 0.0
H1488 H 0.5168 0.4566 0.10742 0.0
H1489 H 0.51895 0.44324 0.02461 0.0
H1490 H 0.38526 0.38005 0.09912 0.0
H1491 H 0.38936 0.36731 0.01646 0.0
H1492 H 0.4025 0.38681 0.20616 0.0
H1493 H 0.43157 0.41468 0.24314 0.0
C1494 C 0.99285 0.38518 0.5639 0.0
C1495 C 0.00877 0.37416 0.53736 0.0
C1496 C 0.04764 0.40903 0.60487 0.0
C1497 C 0.03326 0.42277 0.62125 0.0
N1498 N 0.99329 0.42641 0.5997 0.0
N1499 N 0.05397 0.38215 0.51487 0.0
C1500 C 0.00609 0.41157 0.59603 0.0
C1501 C 0.03699 0.38802 0.55259 0.0
N1502 N 0.96522 0.3701 0.56189 0.0
N1503 N 0.07059 0.41475 0.64219 0.0
H1504 H 0.04716 0.36908 0.47054 0.0
H1505 H 0.07502 0.39305 0.52147 0.0
H1506 H 0.07679 0.42742 0.68734 0.0
H1507 H 0.0808 0.40394 0.63474 0.0
H1508 H 0.95274 0.37655 0.58529 0.0
H1509 H 0.95512 0.34991 0.54487 0.0
H1510 H 0.97412 0.4198 0.57733 0.0
H1511 H 1.00329 0.44655 0.6171 0.0
C1512 C 0.71929 0.65571 0.60977 0.0
C1513 C 0.70719 0.67139 0.62997 0.0
C1514 C 0.73958 0.70791 0.55172 0.0
C1515 C 0.75462 0.69443 0.54322 0.0
N1516 N 0.76088 0.65675 0.57489 0.0
N1517 N 0.71148 0.71587 0.63346 0.0
C1518 C 0.74518 0.66869 0.57573 0.0
C1519 C 0.71886 0.69849 0.60446 0.0
N1520 N 0.70532 0.62823 0.61813 0.0
N1521 N 0.74439 0.72916 0.50806 0.0
H1522 H 0.69874 0.7105 0.67793 0.0
H1523 H 0.72089 0.7364 0.61993 0.0
H1524 H 0.75823 0.73528 0.46565 0.0
H1525 H 0.73246 0.73838 0.50895 0.0
H1526 H 0.7125 0.61564 0.59969 0.0
H1527 H 0.68509 0.61798 0.63432 0.0
H1528 H 0.75571 0.63891 0.60286 0.0
H1529 H 0.78021 0.66611 0.55196 0.0
C1530 C 0.46649 0.14453 0.57321 0.0
C1531 C 0.44018 0.12819 0.54307 0.0
C1532 C 0.43675 0.08915 0.60816 0.0
C1533 C 0.46455 0.10433 0.62847 0.0
N1534 N 0.50759 0.14531 0.61184 0.0
N1535 N 0.40391 0.08289 0.51637 0.0
C1536 C 0.48 0.13178 0.6058 0.0
C1537 C 0.42635 0.09985 0.55593 0.0
N1538 N 0.47808 0.17208 0.57413 0.0
N1539 N 0.41979 0.06522 0.64147 0.0
H1540 H 0.39732 0.08991 0.47327 0.0
H1541 H 0.39426 0.06179 0.52049 0.0
H1542 H 0.42614 0.05842 0.68552 0.0
H1543 H 0.39891 0.05439 0.63185 0.0
H1544 H 0.4965 0.18478 0.60004 0.0
H1545 H 0.46754 0.18172 0.55697 0.0
H1546 H 0.51985 0.16481 0.59145 0.0
H1547 H 0.51811 0.13563 0.62871 0.0
C1548 C 0.39381 0.03545 0.93917 0.0
C1549 C 0.38085 0.00778 0.95997 0.0
C1550 C 0.41731 0.00385 0.90046 0.0
C1551 C 0.42778 0.03029 0.87115 0.0
N1552 N 0.42006 0.06758 0.84657 0.0
N1553 N 0.37709 0.96389 0.94402 0.0
C1554 C 0.41427 0.04503 0.88573 0.0
C1555 C 0.39169 0.99139 0.93601 0.0
N1556 N 0.38767 0.05303 0.97288 0.0
N1557 N 0.43222 0.9911 0.8974 0.0
H1558 H 0.35743 0.95409 0.96461 0.0
H1559 H 0.38321 0.95086 0.92245 0.0
H1560 H 0.45179 1.00051 0.87633 0.0
H1561 H 0.42638 0.97268 0.92307 0.0
H1562 H 0.39816 0.07388 0.96318 0.0
H1563 H 0.37463 0.04718 0.01691 0.0
H1564 H 0.40916 0.07779 0.85166 0.0
H1565 H 0.43341 0.07389 0.80309 0.0
C1566 C 0.09038 0.43046 0.88952 0.0
C1567 C 0.10513 0.45853 0.87301 0.0
C1568 C 0.14475 0.46144 0.93523 0.0
C1569 C 0.12861 0.43447 0.96086 0.0
N1570 N 0.08337 0.39669 0.97853 0.0
N1571 N 0.1446 0.50215 0.89751 0.0
C1572 C 0.10059 0.41993 0.94276 0.0
C1573 C 0.13188 0.47452 0.90093 0.0
N1574 N 0.06738 0.41347 0.85188 0.0
N1575 N 0.17235 0.4741 0.93989 0.0
H1576 H 0.13481 0.51226 0.87808 0.0
H1577 H 0.16339 0.51474 0.92178 0.0
H1578 H 0.18233 0.46407 0.95834 0.0
H1579 H 0.18507 0.49309 0.91718 0.0
H1580 H 0.05703 0.39245 0.85872 0.0
H1581 H 0.06099 0.4201 0.80751 0.0
H1582 H 0.06239 0.38643 0.97056 0.0
H1583 H 0.08981 0.38992 0.02252 0.0
C1584 C 0.70189 0.7253 0.87722 0.0
C1585 C 0.67314 0.7101 0.87396 0.0
C1586 C 0.67176 0.74704 0.93863 0.0
C1587 C 0.69985 0.75927 0.95562 0.0
N1588 N 0.74134 0.75755 0.94388 0.0
N1589 N 0.6303 0.70518 0.91125 0.0
C1590 C 0.71487 0.74777 0.92534 0.0
C1591 C 0.6579 0.72058 0.90745 0.0
N1592 N 0.71694 0.71911 0.83192 0.0
N1593 N 0.65879 0.76156 0.94663 0.0
H1594 H 0.61967 0.68533 0.8916 0.0
H1595 H 0.61851 0.71121 0.94032 0.0
H1596 H 0.66942 0.78214 0.95997 0.0
H1597 H 0.63876 0.75435 0.93016 0.0
H1598 H 0.73793 0.7312 0.82672 0.0
H1599 H 0.70809 0.70358 0.79376 0.0
H1600 H 0.75223 0.74789 0.93027 0.0
H1601 H 0.7516 0.774 0.97797 0.0
C1602 C 0.79681 0.06644 0.68596 0.0
C1603 C 0.77596 0.04084 0.71383 0.0
C1604 C 0.77385 0.06484 0.82246 0.0
C1605 C 0.79507 0.08982 0.7961 0.0
N1606 N 0.83293 0.11188 0.71493 0.0
N1607 N 0.757 0.01673 0.82605 0.0
C1608 C 0.80824 0.08996 0.73116 0.0
C1609 C 0.76812 0.0403 0.78738 0.0
N1610 N 0.80645 0.06903 0.61734 0.0
N1611 N 0.75862 0.06433 0.88002 0.0
H1612 H 0.75645 0.99922 0.80667 0.0
H1613 H 0.75252 0.0159 0.88094 0.0
H1614 H 0.76127 0.08193 0.90521 0.0
H1615 H 0.74151 0.04655 0.89715 0.0
H1616 H 0.81678 0.08777 0.59133 0.0
H1617 H 0.80576 0.05332 0.58758 0.0
H1618 H 0.84494 0.11204 0.67224 0.0
H1619 H 0.84292 0.12862 0.74915 0.0
C1620 C 0.06807 0.78388 0.68915 0.0
C1621 C 0.09463 0.80003 0.71832 0.0
C1622 C 0.07475 0.79204 0.83995 0.0
C1623 C 0.04799 0.77727 0.80996 0.0
N1624 N 0.02106 0.77129 0.70253 0.0
N1625 N 0.12085 0.82784 0.81943 0.0
C1626 C 0.04525 0.77713 0.73342 0.0
C1627 C 0.09725 0.80672 0.7931 0.0
N1628 N 0.06415 0.77335 0.62105 0.0
N1629 N 0.07943 0.79153 0.91207 0.0
H1630 H 0.13692 0.8405 0.78603 0.0
H1631 H 0.12294 0.83495 0.8724 0.0
H1632 H 0.06428 0.78156 0.94965 0.0
H1633 H 0.0989 0.79932 0.93375 0.0
H1634 H 0.04493 0.75967 0.60062 0.0
H1635 H 0.07994 0.77536 0.58886 0.0
H1636 H 0.01881 0.7728 0.647 0.0
H1637 H 0.00452 0.76866 0.73302 0.0
C1638 C 0.32358 0.337 0.73577 0.0
C1639 C 0.34017 0.36356 0.70792 0.0
C1640 C 0.37841 0.367 0.77708 0.0
C1641 C 0.36335 0.33909 0.79472 0.0
N1642 N 0.32259 0.29595 0.77594 0.0
N1643 N 0.38577 0.39947 0.68397 0.0
C1644 C 0.3361 0.32353 0.76995 0.0
C1645 C 0.36834 0.37737 0.72329 0.0
N1646 N 0.296 0.325 0.73194 0.0
N1647 N 0.40149 0.38402 0.81435 0.0
H1648 H 0.37913 0.40553 0.63884 0.0
H1649 H 0.4068 0.40918 0.69079 0.0
H1650 H 0.40747 0.3776 0.86015 0.0
H1651 H 0.41222 0.40494 0.80551 0.0
H1652 H 0.28299 0.30642 0.75627 0.0
H1653 H 0.28638 0.33511 0.71141 0.0
H1654 H 0.30334 0.28355 0.75383 0.0
H1655 H 0.33202 0.28551 0.7955 0.0
C1656 C 0.05687 0.36443 0.2722 0.0
C1657 C 0.0437 0.33645 0.28985 0.0
C1658 C 0.08079 0.33348 0.23104 0.0
C1659 C 0.09153 0.3603 0.20432 0.0
N1660 N 0.08408 0.39798 0.18341 0.0
N1661 N 0.04012 0.29286 0.2693 0.0
C1662 C 0.07789 0.37484 0.22015 0.0
C1663 C 0.05478 0.32046 0.26442 0.0
N1664 N 0.05048 0.38149 0.30781 0.0
N1665 N 0.09585 0.32089 0.22793 0.0
H1666 H 0.02022 0.28274 0.28824 0.0
H1667 H 0.04652 0.2802 0.24668 0.0
H1668 H 0.1158 0.33079 0.20936 0.0
H1669 H 0.08971 0.30208 0.25166 0.0
H1670 H 0.06104 0.40247 0.30035 0.0
H1671 H 0.03718 0.37499 0.35136 0.0
H1672 H 0.0732 0.40817 0.18949 0.0
H1673 H 0.09771 0.40481 0.14059 0.0
C1674 C 0.79936 0.7754 0.23053 0.0
C1675 C 0.79786 0.77603 0.30736 0.0
C1676 C 0.77736 0.80518 0.29161 0.0
C1677 C 0.77335 0.79879 0.21674 0.0
N1678 N 0.77406 0.7702 0.12151 0.0
N1679 N 0.78128 0.79039 0.41042 0.0
C1680 C 0.78269 0.7819 0.18776 0.0
C1681 C 0.78592 0.7908 0.33805 0.0
N1682 N 0.81716 0.76933 0.19774 0.0
N1683 N 0.77364 0.82544 0.31865 0.0
H1684 H 0.78699 0.78078 0.44798 0.0
H1685 H 0.76949 0.79788 0.4327 0.0
H1686 H 0.76831 0.83696 0.28611 0.0
H1687 H 0.7789 0.83278 0.37137 0.0
H1688 H 0.81967 0.77015 0.14175 0.0
H1689 H 0.83184 0.76728 0.22658 0.0
H1690 H 0.77905 0.75622 0.1004 0.0
H1691 H 0.75894 0.7716 0.0933 0.0
C1692 C 0.37226 0.06139 0.21749 0.0
C1693 C 0.34421 0.04806 0.19997 0.0
C1694 C 0.34138 0.08483 0.2619 0.0
C1695 C 0.3681 0.09519 0.28968 0.0
N1696 N 0.40536 0.087 0.30946 0.0
N1697 N 0.30066 0.04435 0.22189 0.0
C1698 C 0.38259 0.08171 0.2718 0.0
C1699 C 0.32827 0.05903 0.22655 0.0
N1700 N 0.38936 0.0555 0.18046 0.0
N1701 N 0.32889 0.09994 0.26664 0.0
H1702 H 0.29051 0.02446 0.20252 0.0
H1703 H 0.28808 0.0507 0.24527 0.0
H1704 H 0.33891 0.11973 0.28689 0.0
H1705 H 0.3101 0.09405 0.24274 0.0
H1706 H 0.41036 0.0661 0.18829 0.0
H1707 H 0.38278 0.04255 0.13589 0.0
H1708 H 0.41553 0.07619 0.30143 0.0
H1709 H 0.41159 0.09946 0.35498 0.0
loop_
_geom_bond_atom_site_label_1
_geom_bond_atom_site_label_2
_geom_bond_distance
_geom_bond_site_symmetry_2
_ccdc_geom_bond_type
Co0 O2 2.143 . S
Co0 O8 2.074 . S
Co0 O11 2.093 . S
Co0 O24 2.097 . S
Co0 N41 2.151 . S
Co0 N49 2.214 . S
Co1 O2 2.160 . S
Co1 O7 2.058 . S
Co1 O17 2.057 . S
Co1 O32 2.037 . S
Co1 N36 2.145 . S
Co1 N57 2.257 . S
O2 Co0 2.143 . S
O2 Co1 2.160 . S
C3 O4 1.278 . S
C3 O11 1.224 . S
O4 C3 1.278 . S
C5 O6 1.245 . S
C5 O17 1.232 . S
O6 C5 1.245 . S
O7 Co1 2.058 . S
O7 C33 1.269 . S
O8 Co0 2.074 . S
O8 C33 1.257 . S
H9 C34 0.930 . S
H10 C40 0.930 . S
O11 Co0 2.093 . S
O11 C3 1.224 . S
H12 C44 0.929 . S
H13 C46 0.930 1_556 S
H14 C47 0.930 . S
H15 C45 0.929 . S
H16 C48 0.928 . S
O17 Co1 2.057 . S
O17 C5 1.232 . S
H18 C37 0.929 . S
H19 C38 0.929 . S
H20 C50 0.931 . S
H21 C42 0.929 . S
H22 C51 0.930 1_556 S
H23 C43 0.931 . S
O24 Co0 2.097 . S
O24 C52 1.214 . S
H25 C53 0.929 . S
H26 C54 0.929 . S
H27 C55 0.930 . S
H28 C56 0.929 . S
H29 C58 0.930 . S
H30 C35 0.930 . S
H31 C39 0.930 . S
O32 Co1 2.037 . S
O32 C52 1.234 . S
C33 O7 1.269 . S
C33 O8 1.257 . S
C34 H9 0.930 . S
C34 C37 1.388 1_655 S
C34 C39 1.418 . S
C35 H30 0.930 . S
C35 C38 1.404 1_655 S
C35 C39 1.353 . S
N36 Co1 2.145 . S
N36 C37 1.397 . S
N36 C38 1.334 . S
C37 H18 0.929 . S
C37 C34 1.388 1_455 S
C37 N36 1.397 . S
C38 H19 0.929 . S
C38 C35 1.404 1_455 S
C38 N36 1.334 . S
C39 H31 0.930 . S
C39 C34 1.418 . S
C39 C35 1.353 . S
C40 H10 0.930 . S
C40 N41 1.330 . S
C40 C42 1.446 . S
N41 Co0 2.151 . S
N41 C40 1.330 . S
N41 C45 1.418 . S
C42 H21 0.929 . S
C42 C40 1.446 . S
C42 C43 1.332 . S
C43 H23 0.931 . S
C43 C42 1.332 . S
C43 C44 1.267 . S
C44 H12 0.929 . S
C44 C43 1.267 . S
C44 C45 1.251 . S
C45 H15 0.929 . S
C45 N41 1.418 . S
C45 C44 1.251 . S
C46 H13 0.930 1_554 S
C46 C48 1.406 . S
C46 C51 1.261 . S
C47 H14 0.930 . S
C47 N49 1.325 . S
C47 C50 1.357 . S
C48 H16 0.928 . S
C48 C46 1.406 . S
C48 N49 1.261 . S
N49 Co0 2.214 . S
N49 C47 1.325 . S
N49 C48 1.261 . S
C50 H20 0.931 . S
C50 C47 1.357 . S
C50 C51 1.312 . S
C51 H22 0.930 1_554 S
C51 C46 1.261 . S
C51 C50 1.312 . S
C52 O24 1.214 . S
C52 O32 1.234 . S
C53 H25 0.929 . S
C53 C56 1.391 . S
C53 C58 1.391 1_655 S
C54 H26 0.929 . S
C54 C55 1.390 . S
C54 N57 1.391 1_655 S
C55 H27 0.930 . S
C55 C54 1.390 . S
C55 C56 1.392 . S
C56 H28 0.929 . S
C56 C53 1.391 . S
C56 C55 1.392 . S
N57 Co1 2.257 . S
N57 C54 1.391 1_455 S
N57 C58 1.388 . S
C58 H29 0.930 . S
C58 C53 1.391 1_455 S
C58 N57 1.388 . S
Co59 O61 2.143 . S
Co59 O67 2.074 . S
Co59 O70 2.093 . S
Co59 O83 2.097 . S
Co59 N100 2.151 . S
Co59 N108 2.214 . S
Co60 O61 2.160 . S
Co60 O66 2.058 . S
Co60 O76 2.057 . S
Co60 O91 2.037 . S
Co60 N95 2.145 . S
Co60 N116 2.257 . S
O61 Co59 2.143 . S
O61 Co60 2.160 . S
C62 O63 1.278 . S
C62 O70 1.224 . S
O63 C62 1.278 . S
C64 O65 1.245 . S
C64 O76 1.232 . S
O65 C64 1.245 . S
O66 Co60 2.058 . S
O66 C92 1.269 . S
O67 Co59 2.074 . S
O67 C92 1.257 . S
H68 C93 0.930 . S
H69 C99 0.930 . S
O70 Co59 2.093 . S
O70 C62 1.224 . S
H71 C103 0.929 . S
H72 C105 0.930 . S
H73 C106 0.930 . S
H74 C104 0.929 . S
H75 C107 0.928 . S
O76 Co60 2.057 . S
O76 C64 1.232 . S
H77 C96 0.929 . S
H78 C97 0.929 . S
H79 C109 0.931 . S
H80 C101 0.929 . S
H81 C110 0.930 . S
H82 C102 0.931 . S
O83 Co59 2.097 . S
O83 C111 1.214 . S
H84 C112 0.929 . S
H85 C113 0.929 . S
H86 C114 0.930 . S
H87 C115 0.929 . S
H88 C117 0.930 . S
H89 C94 0.930 1_556 S
H90 C98 0.930 1_556 S
O91 Co60 2.037 . S
O91 C111 1.234 . S
C92 O66 1.269 . S
C92 O67 1.257 . S
C93 H68 0.930 . S
C93 C96 1.388 . S
C93 C98 1.418 . S
C94 H89 0.930 1_554 S
C94 C97 1.404 . S
C94 C98 1.353 . S
N95 Co60 2.145 . S
N95 C96 1.397 . S
N95 C97 1.334 . S
C96 H77 0.929 . S
C96 C93 1.388 . S
C96 N95 1.397 . S
C97 H78 0.929 . S
C97 C94 1.404 . S
C97 N95 1.334 . S
C98 H90 0.930 1_554 S
C98 C93 1.418 . S
C98 C94 1.353 . S
C99 H69 0.930 . S
C99 N100 1.330 . S
C99 C101 1.446 . S
N100 Co59 2.151 . S
N100 C99 1.330 . S
N100 C104 1.418 . S
C101 H80 0.929 . S
C101 C99 1.446 . S
C101 C102 1.332 . S
C102 H82 0.931 . S
C102 C101 1.332 . S
C102 C103 1.267 . S
C103 H71 0.929 . S
C103 C102 1.267 . S
C103 C104 1.251 . S
C104 H74 0.929 . S
C104 N100 1.418 . S
C104 C103 1.251 . S
C105 H72 0.930 . S
C105 C107 1.406 . S
C105 C110 1.261 . S
C106 H73 0.930 . S
C106 N108 1.325 . S
C106 C109 1.357 . S
C107 H75 0.928 . S
C107 C105 1.406 . S
C107 N108 1.261 . S
N108 Co59 2.214 . S
N108 C106 1.325 . S
N108 C107 1.261 . S
C109 H79 0.931 . S
C109 C106 1.357 . S
C109 C110 1.312 . S
C110 H81 0.930 . S
C110 C105 1.261 . S
C110 C109 1.312 . S
C111 O83 1.214 . S
C111 O91 1.234 . S
C112 H84 0.929 . S
C112 C115 1.391 . S
C112 C117 1.391 . S
C113 H85 0.929 . S
C113 C114 1.390 . S
C113 N116 1.391 . S
C114 H86 0.930 . S
C114 C113 1.390 . S
C114 C115 1.392 . S
C115 H87 0.929 . S
C115 C112 1.391 . S
C115 C114 1.392 . S
N116 Co60 2.257 . S
N116 C113 1.391 . S
N116 C117 1.388 . S
C117 H88 0.930 . S
C117 C112 1.391 . S
C117 N116 1.388 . S
Co118 O120 2.143 . S
Co118 O126 2.074 . S
Co118 O129 2.093 . S
Co118 O142 2.097 . S
Co118 N159 2.160 . S
Co118 N167 2.214 . S
Co119 O120 2.160 . S
Co119 O125 2.058 . S
Co119 O135 2.057 . S
Co119 O150 2.037 . S
Co119 N154 2.145 . S
Co119 N175 2.257 . S
O120 Co118 2.143 . S
O120 Co119 2.160 . S
C121 O122 1.278 . S
C121 O129 1.224 . S
O122 C121 1.278 . S
C123 O124 1.245 . S
C123 O135 1.232 . S
O124 C123 1.245 . S
O125 Co119 2.058 . S
O125 C151 1.269 . S
O126 Co118 2.074 . S
O126 C151 1.257 . S
H127 C152 0.930 . S
H128 C158 0.930 1_545 S
O129 Co118 2.093 . S
O129 C121 1.224 . S
H130 C162 0.929 . S
H131 C164 0.930 1_556 S
H132 C165 0.930 . S
H133 C163 0.929 . S
H134 C166 0.918 . S
O135 Co119 2.057 . S
O135 C123 1.232 . S
H136 C155 0.929 . S
H137 C156 0.929 . S
H138 C168 0.931 . S
H139 C160 0.929 . S
H140 C169 0.930 1_556 S
H141 C161 0.931 . S
O142 Co118 2.097 . S
O142 C170 1.214 . S
H143 C171 0.929 . S
H144 C172 0.929 . S
H145 C173 0.930 . S
H146 C174 0.929 . S
H147 C176 0.930 . S
H148 C153 0.930 . S
H149 C157 0.930 . S
O150 Co119 2.037 . S
O150 C170 1.234 . S
C151 O125 1.269 . S
C151 O126 1.257 . S
C152 H127 0.930 . S
C152 C155 1.388 . S
C152 C157 1.418 . S
C153 H148 0.930 . S
C153 C156 1.404 . S
C153 C157 1.353 . S
N154 Co119 2.145 . S
N154 C155 1.397 . S
N154 C156 1.334 . S
C155 H136 0.929 . S
C155 C152 1.388 . S
C155 N154 1.397 . S
C156 H137 0.929 . S
C156 C153 1.404 . S
C156 N154 1.334 . S
C157 H149 0.930 . S
C157 C152 1.418 . S
C157 C153 1.353 . S
C158 H128 0.930 1_565 S
C158 N159 1.337 1_565 S
C158 C160 1.446 . S
N159 Co118 2.160 . S
N159 C158 1.337 1_545 S
N159 C163 1.400 1_545 S
C160 H139 0.929 . S
C160 C158 1.446 . S
C160 C161 1.332 . S
C161 H141 0.931 . S
C161 C160 1.332 . S
C161 C162 1.267 . S
C162 H130 0.929 . S
C162 C161 1.267 . S
C162 C163 1.251 . S
C163 H133 0.929 . S
C163 N159 1.400 1_565 S
C163 C162 1.251 . S
C164 H131 0.930 1_554 S
C164 C166 1.432 . S
C164 C169 1.261 . S
C165 H132 0.930 . S
C165 N167 1.325 . S
C165 C168 1.357 . S
C166 H134 0.918 . S
C166 C164 1.432 . S
C166 N167 1.245 1_565 S
N167 Co118 2.214 . S
N167 C165 1.325 . S
N167 C166 1.245 1_545 S
C168 H138 0.931 . S
C168 C165 1.357 . S
C168 C169 1.312 1_545 S
C169 H140 0.930 1_554 S
C169 C164 1.261 . S
C169 C168 1.312 1_565 S
C170 O142 1.214 . S
C170 O150 1.234 . S
C171 H143 0.929 . S
C171 C174 1.391 . S
C171 C176 1.391 . S
C172 H144 0.929 . S
C172 C173 1.390 . S
C172 N175 1.391 . S
C173 H145 0.930 . S
C173 C172 1.390 . S
C173 C174 1.392 . S
C174 H146 0.929 . S
C174 C171 1.391 . S
C174 C173 1.392 . S
N175 Co119 2.257 . S
N175 C172 1.391 . S
N175 C176 1.388 . S
C176 H147 0.930 . S
C176 C171 1.391 . S
C176 N175 1.388 . S
Co177 O179 2.143 . S
Co177 O185 2.074 . S
Co177 O188 2.093 . S
Co177 O201 2.097 . S
Co177 N218 2.151 . S
Co177 N226 2.214 . S
Co178 O179 2.160 . S
Co178 O184 2.058 . S
Co178 O194 2.057 . S
Co178 O209 2.037 . S
Co178 N213 2.145 . S
Co178 N234 2.257 . S
O179 Co177 2.143 . S
O179 Co178 2.160 . S
C180 O181 1.278 . S
C180 O188 1.224 . S
O181 C180 1.278 . S
C182 O183 1.245 . S
C182 O194 1.232 . S
O183 C182 1.245 . S
O184 Co178 2.058 . S
O184 C210 1.269 . S
O185 Co177 2.074 . S
O185 C210 1.257 . S
H186 C211 0.930 . S
H187 C217 0.930 1_455 S
O188 Co177 2.093 . S
O188 C180 1.224 . S
H189 C221 0.929 . S
H190 C223 0.930 1_554 S
H191 C224 0.930 . S
H192 C222 0.929 . S
H193 C225 0.926 1_655 S
O194 Co178 2.057 . S
O194 C182 1.232 . S
H195 C214 0.929 . S
H196 C215 0.929 . S
H197 C227 0.931 . S
H198 C219 0.929 . S
H199 C228 0.930 1_554 S
H200 C220 0.931 . S
O201 Co177 2.097 . S
O201 C229 1.214 . S
H202 C230 0.929 . S
H203 C231 0.929 . S
H204 C232 0.930 . S
H205 C233 0.929 . S
H206 C235 0.930 . S
H207 C212 0.930 . S
H208 C216 0.930 . S
O209 Co178 2.037 . S
O209 C229 1.234 . S
C210 O184 1.269 . S
C210 O185 1.257 . S
C211 H186 0.930 . S
C211 C214 1.388 . S
C211 C216 1.418 . S
C212 H207 0.930 . S
C212 C215 1.404 . S
C212 C216 1.353 . S
N213 Co178 2.145 . S
N213 C214 1.397 . S
N213 C215 1.334 . S
C214 H195 0.929 . S
C214 C211 1.388 . S
C214 N213 1.397 . S
C215 H196 0.929 . S
C215 C212 1.404 . S
C215 N213 1.334 . S
C216 H208 0.930 . S
C216 C211 1.418 . S
C216 C212 1.353 . S
C217 H187 0.930 1_655 S
C217 N218 1.330 1_655 S
C217 C219 1.446 . S
N218 Co177 2.151 . S
N218 C217 1.330 1_455 S
N218 C222 1.418 1_455 S
C219 H198 0.929 . S
C219 C217 1.446 . S
C219 C220 1.332 . S
C220 H200 0.931 . S
C220 C219 1.332 . S
C220 C221 1.267 . S
C221 H189 0.929 . S
C221 C220 1.267 . S
C221 C222 1.251 . S
C222 H192 0.929 . S
C222 N218 1.418 1_655 S
C222 C221 1.251 . S
C223 H190 0.930 1_556 S
C223 C225 1.405 1_655 S
C223 C228 1.261 . S
C224 H191 0.930 . S
C224 N226 1.325 . S
C224 C227 1.357 . S
C225 H193 0.926 1_455 S
C225 C223 1.405 1_455 S
C225 N226 1.263 . S
N226 Co177 2.214 . S
N226 C224 1.325 . S
N226 C225 1.263 . S
C227 H197 0.931 . S
C227 C224 1.357 . S
C227 C228 1.312 1_455 S
C228 H199 0.930 1_556 S
C228 C223 1.261 . S
C228 C227 1.312 1_655 S
C229 O201 1.214 . S
C229 O209 1.234 . S
C230 H202 0.929 . S
C230 C233 1.391 . S
C230 C235 1.391 . S
C231 H203 0.929 . S
C231 C232 1.390 . S
C231 N234 1.391 . S
C232 H204 0.930 . S
C232 C231 1.390 . S
C232 C233 1.392 . S
C233 H205 0.929 . S
C233 C230 1.391 . S
C233 C232 1.392 . S
N234 Co178 2.257 . S
N234 C231 1.391 . S
N234 C235 1.388 . S
C235 H206 0.930 . S
C235 C230 1.391 . S
C235 N234 1.388 . S
Co236 O238 2.143 . S
Co236 O244 2.074 . S
Co236 O247 2.093 . S
Co236 O260 2.097 . S
Co236 N277 2.151 . S
Co236 N285 2.214 . S
Co237 O238 2.160 . S
Co237 O243 2.058 . S
Co237 O253 2.057 . S
Co237 O268 2.037 . S
Co237 N272 2.145 . S
Co237 N293 2.257 . S
O238 Co236 2.143 . S
O238 Co237 2.160 . S
C239 O240 1.278 . S
C239 O247 1.224 . S
O240 C239 1.278 . S
C241 O242 1.245 . S
C241 O253 1.232 . S
O242 C241 1.245 . S
O243 Co237 2.058 . S
O243 C269 1.269 . S
O244 Co236 2.074 . S
O244 C269 1.257 . S
H245 C270 0.930 . S
H246 C276 0.930 . S
O247 Co236 2.093 . S
O247 C239 1.224 . S
H248 C280 0.929 . S
H249 C282 0.930 . S
H250 C283 0.930 . S
H251 C281 0.929 . S
H252 C284 0.928 . S
O253 Co237 2.057 . S
O253 C241 1.232 . S
H254 C273 0.929 . S
H255 C274 0.929 . S
H256 C286 0.931 . S
H257 C278 0.929 . S
H258 C287 0.930 . S
H259 C279 0.931 . S
O260 Co236 2.097 . S
O260 C288 1.214 . S
H261 C289 0.929 . S
H262 C290 0.929 . S
H263 C291 0.930 . S
H264 C292 0.929 . S
H265 C294 0.930 . S
H266 C271 0.930 1_554 S
H267 C275 0.930 1_554 S
O268 Co237 2.037 . S
O268 C288 1.234 . S
C269 O243 1.269 . S
C269 O244 1.257 . S
C270 H245 0.930 . S
C270 C273 1.388 . S
C270 C275 1.418 . S
C271 H266 0.930 1_556 S
C271 C274 1.404 . S
C271 C275 1.353 . S
N272 Co237 2.145 . S
N272 C273 1.397 . S
N272 C274 1.334 . S
C273 H254 0.929 . S
C273 C270 1.388 . S
C273 N272 1.397 . S
C274 H255 0.929 . S
C274 C271 1.404 . S
C274 N272 1.334 . S
C275 H267 0.930 1_556 S
C275 C270 1.418 . S
C275 C271 1.353 . S
C276 H246 0.930 . S
C276 N277 1.330 . S
C276 C278 1.446 . S
N277 Co236 2.151 . S
N277 C276 1.330 . S
N277 C281 1.418 . S
C278 H257 0.929 . S
C278 C276 1.446 . S
C278 C279 1.332 . S
C279 H259 0.931 . S
C279 C278 1.332 . S
C279 C280 1.267 . S
C280 H248 0.929 . S
C280 C279 1.267 . S
C280 C281 1.251 . S
C281 H251 0.929 . S
C281 N277 1.418 . S
C281 C280 1.251 . S
C282 H249 0.930 . S
C282 C284 1.406 . S
C282 C287 1.261 . S
C283 H250 0.930 . S
C283 N285 1.325 . S
C283 C286 1.357 . S
C284 H252 0.928 . S
C284 C282 1.406 . S
C284 N285 1.261 . S
N285 Co236 2.214 . S
N285 C283 1.325 . S
N285 C284 1.261 . S
C286 H256 0.931 . S
C286 C283 1.357 . S
C286 C287 1.312 . S
C287 H258 0.930 . S
C287 C282 1.261 . S
C287 C286 1.312 . S
C288 O260 1.214 . S
C288 O268 1.234 . S
C289 H261 0.929 . S
C289 C292 1.391 . S
C289 C294 1.391 . S
C290 H262 0.929 . S
C290 C291 1.390 . S
C290 N293 1.391 . S
C291 H263 0.930 . S
C291 C290 1.390 . S
C291 C292 1.392 . S
C292 H264 0.929 . S
C292 C289 1.391 . S
C292 C291 1.392 . S
N293 Co237 2.257 . S
N293 C290 1.391 . S
N293 C294 1.388 . S
C294 H265 0.930 . S
C294 C289 1.391 . S
C294 N293 1.388 . S
Co295 O297 2.143 . S
Co295 O303 2.074 . S
Co295 O306 2.093 . S
Co295 O319 2.097 . S
Co295 N336 2.151 . S
Co295 N344 2.214 . S
Co296 O297 2.160 . S
Co296 O302 2.058 . S
Co296 O312 2.057 . S
Co296 O327 2.037 . S
Co296 N331 2.145 . S
Co296 N352 2.257 . S
O297 Co295 2.143 . S
O297 Co296 2.160 . S
C298 O299 1.278 . S
C298 O306 1.224 . S
O299 C298 1.278 . S
C300 O301 1.245 . S
C300 O312 1.232 . S
O301 C300 1.245 . S
O302 Co296 2.058 . S
O302 C328 1.269 . S
O303 Co295 2.074 . S
O303 C328 1.257 . S
H304 C329 0.930 . S
H305 C335 0.930 . S
O306 Co295 2.093 . S
O306 C298 1.224 . S
H307 C339 0.929 . S
H308 C341 0.930 1_554 S
H309 C342 0.930 . S
H310 C340 0.929 . S
H311 C343 0.928 . S
O312 Co296 2.057 . S
O312 C300 1.232 . S
H313 C332 0.929 . S
H314 C333 0.916 . S
H315 C345 0.931 . S
H316 C337 0.929 . S
H317 C346 0.930 1_554 S
H318 C338 0.931 . S
O319 Co295 2.097 . S
O319 C347 1.214 . S
H320 C348 0.929 . S
H321 C349 0.929 . S
H322 C350 0.930 . S
H323 C351 0.929 . S
H324 C353 0.930 . S
H325 C330 0.930 . S
H326 C334 0.930 . S
O327 Co296 2.037 . S
O327 C347 1.234 . S
C328 O302 1.269 . S
C328 O303 1.257 . S
C329 H304 0.930 . S
C329 C332 1.388 1_565 S
C329 C334 1.418 . S
C330 H325 0.930 . S
C330 C333 1.391 1_565 S
C330 C334 1.353 . S
N331 Co296 2.145 . S
N331 C332 1.397 . S
N331 C333 1.361 . S
C332 H313 0.929 . S
C332 C329 1.388 1_545 S
C332 N331 1.397 . S
C333 H314 0.916 . S
C333 C330 1.391 1_545 S
C333 N331 1.361 . S
C334 H326 0.930 . S
C334 C329 1.418 . S
C334 C330 1.353 . S
C335 H305 0.930 . S
C335 N336 1.330 . S
C335 C337 1.446 . S
N336 Co295 2.151 . S
N336 C335 1.330 . S
N336 C340 1.418 . S
C337 H316 0.929 . S
C337 C335 1.446 . S
C337 C338 1.332 . S
C338 H318 0.931 . S
C338 C337 1.332 . S
C338 C339 1.267 . S
C339 H307 0.929 . S
C339 C338 1.267 . S
C339 C340 1.251 . S
C340 H310 0.929 . S
C340 N336 1.418 . S
C340 C339 1.251 . S
C341 H308 0.930 1_556 S
C341 C343 1.406 . S
C341 C346 1.261 . S
C342 H309 0.930 . S
C342 N344 1.325 . S
C342 C345 1.357 . S
C343 H311 0.928 . S
C343 C341 1.406 . S
C343 N344 1.261 . S
N344 Co295 2.214 . S
N344 C342 1.325 . S
N344 C343 1.261 . S
C345 H315 0.931 . S
C345 C342 1.357 . S
C345 C346 1.312 . S
C346 H317 0.930 1_556 S
C346 C341 1.261 . S
C346 C345 1.312 . S
C347 O319 1.214 . S
C347 O327 1.234 . S
C348 H320 0.929 . S
C348 C351 1.391 . S
C348 C353 1.391 1_565 S
C349 H321 0.929 . S
C349 C350 1.390 . S
C349 N352 1.391 1_565 S
C350 H322 0.930 . S
C350 C349 1.390 . S
C350 C351 1.392 . S
C351 H323 0.929 . S
C351 C348 1.391 . S
C351 C350 1.392 . S
N352 Co296 2.257 . S
N352 C349 1.391 1_545 S
N352 C353 1.388 . S
C353 H324 0.930 . S
C353 C348 1.391 1_545 S
C353 N352 1.388 . S
Co354 O356 2.143 . S
Co354 O362 2.074 . S
Co354 O365 2.093 . S
Co354 O378 2.097 . S
Co354 N395 2.151 . S
Co354 N403 2.214 . S
Co355 O356 2.160 . S
Co355 O361 2.058 . S
Co355 O371 2.057 . S
Co355 O386 2.037 1_565 S
Co355 N390 2.145 1_565 S
Co355 N411 2.257 . S
O356 Co354 2.143 . S
O356 Co355 2.160 . S
C357 O358 1.278 . S
C357 O365 1.224 . S
O358 C357 1.278 . S
C359 O360 1.245 . S
C359 O371 1.232 . S
O360 C359 1.245 . S
O361 Co355 2.058 . S
O361 C387 1.269 . S
O362 Co354 2.074 . S
O362 C387 1.257 . S
H363 C388 0.930 . S
H364 C394 0.930 . S
O365 Co354 2.093 . S
O365 C357 1.224 . S
H366 C398 0.929 . S
H367 C400 0.930 . S
H368 C401 0.944 . S
H369 C399 0.929 . S
H370 C402 0.928 . S
O371 Co355 2.057 . S
O371 C359 1.232 . S
H372 C391 0.929 . S
H373 C392 0.929 1_565 S
H374 C404 0.931 . S
H375 C396 0.929 . S
H376 C405 0.898 1_545 S
H377 C397 0.931 . S
O378 Co354 2.097 . S
O378 C406 1.214 1_565 S
H379 C407 0.929 . S
H380 C408 0.929 . S
H381 C409 0.930 . S
H382 C410 0.929 . S
H383 C412 0.930 . S
H384 C389 0.930 . S
H385 C393 0.930 . S
O386 Co355 2.037 1_545 S
O386 C406 1.234 . S
C387 O361 1.269 . S
C387 O362 1.257 . S
C388 H363 0.930 . S
C388 C391 1.388 . S
C388 C393 1.418 . S
C389 H384 0.930 . S
C389 C392 1.404 . S
C389 C393 1.353 . S
N390 Co355 2.145 1_545 S
N390 C391 1.397 . S
N390 C392 1.334 . S
C391 H372 0.929 . S
C391 C388 1.388 . S
C391 N390 1.397 . S
C392 H373 0.929 1_545 S
C392 C389 1.404 . S
C392 N390 1.334 . S
C393 H385 0.930 . S
C393 C388 1.418 . S
C393 C389 1.353 . S
C394 H364 0.930 . S
C394 N395 1.330 . S
C394 C396 1.446 . S
N395 Co354 2.151 . S
N395 C394 1.330 . S
N395 C399 1.418 . S
C396 H375 0.929 . S
C396 C394 1.446 . S
C396 C397 1.332 . S
C397 H377 0.931 . S
C397 C396 1.332 . S
C397 C398 1.267 . S
C398 H366 0.929 . S
C398 C397 1.267 . S
C398 C399 1.251 . S
C399 H369 0.929 . S
C399 N395 1.418 . S
C399 C398 1.251 . S
C400 H367 0.930 . S
C400 C402 1.406 . S
C400 C405 1.261 . S
C401 H368 0.944 . S
C401 N403 1.283 1_545 S
C401 C404 1.388 . S
C402 H370 0.928 . S
C402 C400 1.406 . S
C402 N403 1.261 . S
N403 Co354 2.214 . S
N403 C401 1.283 1_565 S
N403 C402 1.261 . S
C404 H374 0.931 . S
C404 C401 1.388 . S
C404 C405 1.312 1_545 S
C405 H376 0.898 1_565 S
C405 C400 1.261 . S
C405 C404 1.312 1_565 S
C406 O378 1.214 1_545 S
C406 O386 1.234 . S
C407 H379 0.929 . S
C407 C410 1.391 . S
C407 C412 1.391 . S
C408 H380 0.929 . S
C408 C409 1.390 . S
C408 N411 1.391 1_545 S
C409 H381 0.930 . S
C409 C408 1.390 . S
C409 C410 1.392 1_545 S
C410 H382 0.929 . S
C410 C407 1.391 . S
C410 C409 1.392 1_565 S
N411 Co355 2.257 . S
N411 C408 1.391 1_565 S
N411 C412 1.388 . S
C412 H383 0.930 . S
C412 C407 1.391 . S
C412 N411 1.388 . S
Co413 O415 2.143 . S
Co413 O421 2.074 . S
Co413 O424 2.093 . S
Co413 O437 2.097 . S
Co413 N454 2.151 . S
Co413 N462 2.214 . S
Co414 O415 2.160 . S
Co414 O420 2.058 . S
Co414 O430 2.057 . S
Co414 O445 2.037 . S
Co414 N449 2.145 . S
Co414 N470 2.257 . S
O415 Co413 2.143 . S
O415 Co414 2.160 . S
C416 O417 1.278 . S
C416 O424 1.224 . S
O417 C416 1.278 . S
C418 O419 1.245 . S
C418 O430 1.232 . S
O419 C418 1.245 . S
O420 Co414 2.058 . S
O420 C446 1.269 . S
O421 Co413 2.074 . S
O421 C446 1.257 . S
H422 C447 0.930 . S
H423 C453 0.930 . S
O424 Co413 2.093 . S
O424 C416 1.224 . S
H425 C457 0.929 . S
H426 C459 0.930 . S
H427 C460 0.930 . S
H428 C458 0.929 . S
H429 C461 0.928 . S
O430 Co414 2.057 . S
O430 C418 1.232 . S
H431 C450 0.929 . S
H432 C451 0.929 . S
H433 C463 0.931 . S
H434 C455 0.929 . S
H435 C464 0.930 . S
H436 C456 0.931 . S
O437 Co413 2.097 . S
O437 C465 1.214 . S
H438 C466 0.929 . S
H439 C467 0.929 . S
H440 C468 0.930 . S
H441 C469 0.929 . S
H442 C471 0.930 . S
H443 C448 0.930 . S
H444 C452 0.930 . S
O445 Co414 2.037 . S
O445 C465 1.234 . S
C446 O420 1.269 . S
C446 O421 1.257 . S
C447 H422 0.930 . S
C447 C450 1.388 . S
C447 C452 1.418 . S
C448 H443 0.930 . S
C448 C451 1.404 . S
C448 C452 1.353 . S
N449 Co414 2.145 . S
N449 C450 1.397 . S
N449 C451 1.334 . S
C450 H431 0.929 . S
C450 C447 1.388 . S
C450 N449 1.397 . S
C451 H432 0.929 . S
C451 C448 1.404 . S
C451 N449 1.334 . S
C452 H444 0.930 . S
C452 C447 1.418 . S
C452 C448 1.353 . S
C453 H423 0.930 . S
C453 N454 1.330 . S
C453 C455 1.446 . S
N454 Co413 2.151 . S
N454 C453 1.330 . S
N454 C458 1.418 . S
C455 H434 0.929 . S
C455 C453 1.446 . S
C455 C456 1.332 . S
C456 H436 0.931 . S
C456 C455 1.332 . S
C456 C457 1.267 . S
C457 H425 0.929 . S
C457 C456 1.267 . S
C457 C458 1.251 . S
C458 H428 0.929 . S
C458 N454 1.418 . S
C458 C457 1.251 . S
C459 H426 0.930 . S
C459 C461 1.406 . S
C459 C464 1.261 . S
C460 H427 0.930 . S
C460 N462 1.325 . S
C460 C463 1.357 . S
C461 H429 0.928 . S
C461 C459 1.406 . S
C461 N462 1.261 . S
N462 Co413 2.214 . S
N462 C460 1.325 . S
N462 C461 1.261 . S
C463 H433 0.931 . S
C463 C460 1.357 . S
C463 C464 1.312 . S
C464 H435 0.930 . S
C464 C459 1.261 . S
C464 C463 1.312 . S
C465 O437 1.214 . S
C465 O445 1.234 . S
C466 H438 0.929 . S
C466 C469 1.391 . S
C466 C471 1.391 . S
C467 H439 0.929 . S
C467 C468 1.390 . S
C467 N470 1.391 . S
C468 H440 0.930 . S
C468 C467 1.390 . S
C468 C469 1.392 . S
C469 H441 0.929 . S
C469 C466 1.391 . S
C469 C468 1.392 . S
N470 Co414 2.257 . S
N470 C467 1.391 . S
N470 C471 1.388 . S
C471 H442 0.930 . S
C471 C466 1.391 . S
C471 N470 1.388 . S
Co472 O474 2.143 . S
Co472 O480 2.074 . S
Co472 O483 2.093 . S
Co472 O496 2.097 . S
Co472 N513 2.151 . S
Co472 N521 2.214 . S
Co473 O474 2.160 . S
Co473 O479 2.058 . S
Co473 O489 2.057 . S
Co473 O504 2.037 . S
Co473 N508 2.145 . S
Co473 N529 2.257 . S
O474 Co472 2.143 . S
O474 Co473 2.160 . S
C475 O476 1.278 . S
C475 O483 1.224 . S
O476 C475 1.278 . S
C477 O478 1.245 . S
C477 O489 1.232 . S
O478 C477 1.245 . S
O479 Co473 2.058 . S
O479 C505 1.269 . S
O480 Co472 2.074 . S
O480 C505 1.257 . S
H481 C506 0.930 . S
H482 C512 0.930 . S
O483 Co472 2.093 . S
O483 C475 1.224 . S
H484 C516 0.929 . S
H485 C518 0.930 . S
H486 C519 0.930 . S
H487 C517 0.929 . S
H488 C520 0.928 . S
O489 Co473 2.057 . S
O489 C477 1.232 . S
H490 C509 0.929 . S
H491 C510 0.929 . S
H492 C522 0.931 . S
H493 C514 0.929 . S
H494 C523 0.930 . S
H495 C515 0.931 . S
O496 Co472 2.097 . S
O496 C524 1.214 . S
H497 C525 0.929 . S
H498 C526 0.929 . S
H499 C527 0.930 . S
H500 C528 0.929 . S
H501 C530 0.930 . S
H502 C507 0.930 . S
H503 C511 0.930 . S
O504 Co473 2.037 . S
O504 C524 1.234 . S
C505 O479 1.269 . S
C505 O480 1.257 . S
C506 H481 0.930 . S
C506 C509 1.388 . S
C506 C511 1.418 . S
C507 H502 0.930 . S
C507 C510 1.404 . S
C507 C511 1.353 . S
N508 Co473 2.145 . S
N508 C509 1.397 . S
N508 C510 1.334 . S
C509 H490 0.929 . S
C509 C506 1.388 . S
C509 N508 1.397 . S
C510 H491 0.929 . S
C510 C507 1.404 . S
C510 N508 1.334 . S
C511 H503 0.930 . S
C511 C506 1.418 . S
C511 C507 1.353 . S
C512 H482 0.930 . S
C512 N513 1.330 . S
C512 C514 1.446 . S
N513 Co472 2.151 . S
N513 C512 1.330 . S
N513 C517 1.418 . S
C514 H493 0.929 . S
C514 C512 1.446 . S
C514 C515 1.332 . S
C515 H495 0.931 . S
C515 C514 1.332 . S
C515 C516 1.267 . S
C516 H484 0.929 . S
C516 C515 1.267 . S
C516 C517 1.251 . S
C517 H487 0.929 . S
C517 N513 1.418 . S
C517 C516 1.251 . S
C518 H485 0.930 . S
C518 C520 1.406 . S
C518 C523 1.261 . S
C519 H486 0.930 . S
C519 N521 1.325 . S
C519 C522 1.357 . S
C520 H488 0.928 . S
C520 C518 1.406 . S
C520 N521 1.261 . S
N521 Co472 2.214 . S
N521 C519 1.325 . S
N521 C520 1.261 . S
C522 H492 0.931 . S
C522 C519 1.357 . S
C522 C523 1.312 . S
C523 H494 0.930 . S
C523 C518 1.261 . S
C523 C522 1.312 . S
C524 O496 1.214 . S
C524 O504 1.234 . S
C525 H497 0.929 . S
C525 C528 1.391 . S
C525 C530 1.391 . S
C526 H498 0.929 . S
C526 C527 1.390 . S
C526 N529 1.391 . S
C527 H499 0.930 . S
C527 C526 1.390 . S
C527 C528 1.392 . S
C528 H500 0.929 . S
C528 C525 1.391 . S
C528 C527 1.392 . S
N529 Co473 2.257 . S
N529 C526 1.391 . S
N529 C530 1.388 . S
C530 H501 0.930 . S
C530 C525 1.391 . S
C530 N529 1.388 . S
Co531 O533 2.143 . S
Co531 O539 2.074 . S
Co531 O542 2.093 . S
Co531 O555 2.097 . S
Co531 N572 2.151 . S
Co531 N580 2.214 . S
Co532 O533 2.160 . S
Co532 O538 2.058 1_554 S
Co532 O548 2.057 1_554 S
Co532 O563 2.037 . S
Co532 N567 2.145 1_554 S
Co532 N588 2.257 . S
O533 Co531 2.143 . S
O533 Co532 2.160 . S
C534 O535 1.278 . S
C534 O542 1.224 . S
O535 C534 1.278 . S
C536 O537 1.245 . S
C536 O548 1.232 . S
O537 C536 1.245 . S
O538 Co532 2.058 1_556 S
O538 C564 1.269 1_556 S
O539 Co531 2.074 . S
O539 C564 1.257 . S
H540 C565 0.930 . S
H541 C571 0.930 . S
O542 Co531 2.093 . S
O542 C534 1.224 . S
H543 C575 0.929 . S
H544 C577 0.930 . S
H545 C578 0.930 . S
H546 C576 0.929 . S
H547 C579 0.928 . S
O548 Co532 2.057 1_556 S
O548 C536 1.232 . S
H549 C568 0.929 . S
H550 C569 0.929 . S
H551 C581 0.931 . S
H552 C573 0.929 . S
H553 C582 0.930 . S
H554 C574 0.931 . S
O555 Co531 2.097 . S
O555 C583 1.214 . S
H556 C584 0.929 . S
H557 C585 0.929 . S
H558 C586 0.930 . S
H559 C587 0.929 . S
H560 C589 0.930 . S
H561 C566 0.930 . S
H562 C570 0.930 . S
O563 Co532 2.037 . S
O563 C583 1.234 . S
C564 O538 1.269 1_554 S
C564 O539 1.257 . S
C565 H540 0.930 . S
C565 C568 1.388 . S
C565 C570 1.418 . S
C566 H561 0.930 . S
C566 C569 1.404 . S
C566 C570 1.353 . S
N567 Co532 2.145 1_556 S
N567 C568 1.397 . S
N567 C569 1.334 . S
C568 H549 0.929 . S
C568 C565 1.388 . S
C568 N567 1.397 . S
C569 H550 0.929 . S
C569 C566 1.404 . S
C569 N567 1.334 . S
C570 H562 0.930 . S
C570 C565 1.418 . S
C570 C566 1.353 . S
C571 H541 0.930 . S
C571 N572 1.330 . S
C571 C573 1.446 . S
N572 Co531 2.151 . S
N572 C571 1.330 . S
N572 C576 1.418 . S
C573 H552 0.929 . S
C573 C571 1.446 . S
C573 C574 1.332 . S
C574 H554 0.931 . S
C574 C573 1.332 . S
C574 C575 1.267 . S
C575 H543 0.929 . S
C575 C574 1.267 . S
C575 C576 1.251 . S
C576 H546 0.929 . S
C576 N572 1.418 . S
C576 C575 1.251 . S
C577 H544 0.930 . S
C577 C579 1.406 . S
C577 C582 1.261 . S
C578 H545 0.930 . S
C578 N580 1.325 . S
C578 C581 1.357 . S
C579 H547 0.928 . S
C579 C577 1.406 . S
C579 N580 1.261 . S
N580 Co531 2.214 . S
N580 C578 1.325 . S
N580 C579 1.261 . S
C581 H551 0.931 . S
C581 C578 1.357 . S
C581 C582 1.312 . S
C582 H553 0.930 . S
C582 C577 1.261 . S
C582 C581 1.312 . S
C583 O555 1.214 . S
C583 O563 1.234 . S
C584 H556 0.929 . S
C584 C587 1.391 . S
C584 C589 1.391 . S
C585 H557 0.929 . S
C585 C586 1.390 . S
C585 N588 1.391 . S
C586 H558 0.930 . S
C586 C585 1.390 . S
C586 C587 1.392 . S
C587 H559 0.929 . S
C587 C584 1.391 . S
C587 C586 1.392 . S
N588 Co532 2.257 . S
N588 C585 1.391 . S
N588 C589 1.388 . S
C589 H560 0.930 . S
C589 C584 1.391 . S
C589 N588 1.388 . S
Co590 O592 2.143 . S
Co590 O598 2.074 . S
Co590 O601 2.093 . S
Co590 O614 2.097 . S
Co590 N631 2.151 . S
Co590 N639 2.214 . S
Co591 O592 2.160 . S
Co591 O597 2.058 1_554 S
Co591 O607 2.057 1_554 S
Co591 O622 2.037 1_565 S
Co591 N626 2.145 1_564 S
Co591 N647 2.257 . S
O592 Co590 2.143 . S
O592 Co591 2.160 . S
C593 O594 1.278 . S
C593 O601 1.224 . S
O594 C593 1.278 . S
C595 O596 1.245 . S
C595 O607 1.232 . S
O596 C595 1.245 . S
O597 Co591 2.058 1_556 S
O597 C623 1.269 1_556 S
O598 Co590 2.074 . S
O598 C623 1.257 . S
H599 C624 0.930 . S
H600 C630 0.930 . S
O601 Co590 2.093 . S
O601 C593 1.224 . S
H602 C634 0.929 . S
H603 C636 0.930 . S
H604 C637 0.967 . S
H605 C635 0.929 . S
H606 C638 0.928 . S
O607 Co591 2.057 1_556 S
O607 C595 1.232 . S
H608 C627 0.929 . S
H609 C628 0.929 1_565 S
H610 C640 0.931 . S
H611 C632 0.929 . S
H612 C641 0.930 1_545 S
H613 C633 0.931 . S
O614 Co590 2.097 . S
O614 C642 1.214 1_565 S
H615 C643 0.929 . S
H616 C644 0.929 . S
H617 C645 0.930 . S
H618 C646 0.929 . S
H619 C648 0.930 . S
H620 C625 0.930 . S
H621 C629 0.930 . S
O622 Co591 2.037 1_545 S
O622 C642 1.234 . S
C623 O597 1.269 1_554 S
C623 O598 1.257 . S
C624 H599 0.930 . S
C624 C627 1.388 . S
C624 C629 1.418 . S
C625 H620 0.930 . S
C625 C628 1.404 . S
C625 C629 1.353 . S
N626 Co591 2.145 1_546 S
N626 C627 1.397 . S
N626 C628 1.334 . S
C627 H608 0.929 . S
C627 C624 1.388 . S
C627 N626 1.397 . S
C628 H609 0.929 1_545 S
C628 C625 1.404 . S
C628 N626 1.334 . S
C629 H621 0.930 . S
C629 C624 1.418 . S
C629 C625 1.353 . S
C630 H600 0.930 . S
C630 N631 1.330 . S
C630 C632 1.446 . S
N631 Co590 2.151 . S
N631 C630 1.330 . S
N631 C635 1.418 . S
C632 H611 0.929 . S
C632 C630 1.446 . S
C632 C633 1.332 . S
C633 H613 0.931 . S
C633 C632 1.332 . S
C633 C634 1.267 . S
C634 H602 0.929 . S
C634 C633 1.267 . S
C634 C635 1.251 . S
C635 H605 0.929 . S
C635 N631 1.418 . S
C635 C634 1.251 . S
C636 H603 0.930 . S
C636 C638 1.406 . S
C636 C641 1.261 . S
C637 H604 0.967 . S
C637 N639 1.294 1_545 S
C637 C640 1.356 . S
C638 H606 0.928 . S
C638 C636 1.406 . S
C638 N639 1.261 . S
N639 Co590 2.214 . S
N639 C637 1.294 1_565 S
N639 C638 1.261 . S
C640 H610 0.931 . S
C640 C637 1.356 . S
C640 C641 1.312 1_545 S
C641 H612 0.930 1_565 S
C641 C636 1.261 . S
C641 C640 1.312 1_565 S
C642 O614 1.214 1_545 S
C642 O622 1.234 . S
C643 H615 0.929 . S
C643 C646 1.391 . S
C643 C648 1.391 . S
C644 H616 0.929 . S
C644 C645 1.390 . S
C644 N647 1.391 1_545 S
C645 H617 0.930 . S
C645 C644 1.390 . S
C645 C646 1.392 1_545 S
C646 H618 0.929 . S
C646 C643 1.391 . S
C646 C645 1.392 1_565 S
N647 Co591 2.257 . S
N647 C644 1.391 1_565 S
N647 C648 1.388 . S
C648 H619 0.930 . S
C648 C643 1.391 . S
C648 N647 1.388 . S
Co649 O651 2.143 . S
Co649 O657 2.074 . S
Co649 O660 2.093 . S
Co649 O673 2.097 . S
Co649 N690 2.151 . S
Co649 N698 2.214 . S
Co650 O651 2.160 . S
Co650 O656 2.058 1_554 S
Co650 O666 2.057 1_554 S
Co650 O681 2.037 . S
Co650 N685 2.145 1_554 S
Co650 N706 2.257 . S
O651 Co649 2.143 . S
O651 Co650 2.160 . S
C652 O653 1.278 . S
C652 O660 1.224 . S
O653 C652 1.278 . S
C654 O655 1.245 . S
C654 O666 1.232 . S
O655 C654 1.245 . S
O656 Co650 2.058 1_556 S
O656 C682 1.269 1_556 S
O657 Co649 2.074 . S
O657 C682 1.257 . S
H658 C683 0.930 . S
H659 C689 0.930 . S
O660 Co649 2.093 . S
O660 C652 1.224 . S
H661 C693 0.929 . S
H662 C695 0.930 . S
H663 C696 0.930 . S
H664 C694 0.929 . S
H665 C697 0.928 . S
O666 Co650 2.057 1_556 S
O666 C654 1.232 . S
H667 C686 0.929 . S
H668 C687 0.929 . S
H669 C699 0.931 . S
H670 C691 0.929 . S
H671 C700 0.930 . S
H672 C692 0.931 . S
O673 Co649 2.097 . S
O673 C701 1.214 . S
H674 C702 0.929 . S
H675 C703 0.929 . S
H676 C704 0.930 . S
H677 C705 0.929 . S
H678 C707 0.930 . S
H679 C684 0.930 . S
H680 C688 0.930 . S
O681 Co650 2.037 . S
O681 C701 1.234 . S
C682 O656 1.269 1_554 S
C682 O657 1.257 . S
C683 H658 0.930 . S
C683 C686 1.388 . S
C683 C688 1.418 . S
C684 H679 0.930 . S
C684 C687 1.404 . S
C684 C688 1.353 . S
N685 Co650 2.145 1_556 S
N685 C686 1.397 . S
N685 C687 1.334 . S
C686 H667 0.929 . S
C686 C683 1.388 . S
C686 N685 1.397 . S
C687 H668 0.929 . S
C687 C684 1.404 . S
C687 N685 1.334 . S
C688 H680 0.930 . S
C688 C683 1.418 . S
C688 C684 1.353 . S
C689 H659 0.930 . S
C689 N690 1.330 . S
C689 C691 1.446 . S
N690 Co649 2.151 . S
N690 C689 1.330 . S
N690 C694 1.418 . S
C691 H670 0.929 . S
C691 C689 1.446 . S
C691 C692 1.332 . S
C692 H672 0.931 . S
C692 C691 1.332 . S
C692 C693 1.267 . S
C693 H661 0.929 . S
C693 C692 1.267 . S
C693 C694 1.251 . S
C694 H664 0.929 . S
C694 N690 1.418 . S
C694 C693 1.251 . S
C695 H662 0.930 . S
C695 C697 1.406 . S
C695 C700 1.261 . S
C696 H663 0.930 . S
C696 N698 1.325 . S
C696 C699 1.357 . S
C697 H665 0.928 . S
C697 C695 1.406 . S
C697 N698 1.261 . S
N698 Co649 2.214 . S
N698 C696 1.325 . S
N698 C697 1.261 . S
C699 H669 0.931 . S
C699 C696 1.357 . S
C699 C700 1.312 . S
C700 H671 0.930 . S
C700 C695 1.261 . S
C700 C699 1.312 . S
C701 O673 1.214 . S
C701 O681 1.234 . S
C702 H674 0.929 . S
C702 C705 1.391 . S
C702 C707 1.391 . S
C703 H675 0.929 . S
C703 C704 1.390 . S
C703 N706 1.391 . S
C704 H676 0.930 . S
C704 C703 1.390 . S
C704 C705 1.392 . S
C705 H677 0.929 . S
C705 C702 1.391 . S
C705 C704 1.392 . S
N706 Co650 2.257 . S
N706 C703 1.391 . S
N706 C707 1.388 . S
C707 H678 0.930 . S
C707 C702 1.391 . S
C707 N706 1.388 . S
Co708 O710 2.143 . S
Co708 O716 2.074 . S
Co708 O719 2.093 . S
Co708 O732 2.097 . S
Co708 N749 2.151 . S
Co708 N757 2.214 . S
Co709 O710 2.160 . S
Co709 O715 2.058 1_556 S
Co709 O725 2.057 1_556 S
Co709 O740 2.037 . S
Co709 N744 2.145 1_556 S
Co709 N765 2.257 . S
O710 Co708 2.143 . S
O710 Co709 2.160 . S
C711 O712 1.278 . S
C711 O719 1.224 . S
O712 C711 1.278 . S
C713 O714 1.245 . S
C713 O725 1.232 . S
O714 C713 1.245 . S
O715 Co709 2.058 1_554 S
O715 C741 1.269 1_554 S
O716 Co708 2.074 . S
O716 C741 1.257 . S
H717 C742 0.930 . S
H718 C748 0.930 . S
O719 Co708 2.093 . S
O719 C711 1.224 . S
H720 C752 0.929 . S
H721 C754 0.930 . S
H722 C755 0.930 . S
H723 C753 0.929 . S
H724 C756 0.928 . S
O725 Co709 2.057 1_554 S
O725 C713 1.232 . S
H726 C745 0.929 . S
H727 C746 0.929 . S
H728 C758 0.931 . S
H729 C750 0.929 . S
H730 C759 0.930 . S
H731 C751 0.931 . S
O732 Co708 2.097 . S
O732 C760 1.214 . S
H733 C761 0.929 . S
H734 C762 0.929 . S
H735 C763 0.930 . S
H736 C764 0.929 . S
H737 C766 0.930 . S
H738 C743 0.930 . S
H739 C747 0.930 . S
O740 Co709 2.037 . S
O740 C760 1.234 . S
C741 O715 1.269 1_556 S
C741 O716 1.257 . S
C742 H717 0.930 . S
C742 C745 1.388 . S
C742 C747 1.418 . S
C743 H738 0.930 . S
C743 C746 1.404 . S
C743 C747 1.353 . S
N744 Co709 2.145 1_554 S
N744 C745 1.397 . S
N744 C746 1.334 . S
C745 H726 0.929 . S
C745 C742 1.388 . S
C745 N744 1.397 . S
C746 H727 0.929 . S
C746 C743 1.404 . S
C746 N744 1.334 . S
C747 H739 0.930 . S
C747 C742 1.418 . S
C747 C743 1.353 . S
C748 H718 0.930 . S
C748 N749 1.330 . S
C748 C750 1.446 . S
N749 Co708 2.151 . S
N749 C748 1.330 . S
N749 C753 1.418 . S
C750 H729 0.929 . S
C750 C748 1.446 . S
C750 C751 1.332 . S
C751 H731 0.931 . S
C751 C750 1.332 . S
C751 C752 1.267 . S
C752 H720 0.929 . S
C752 C751 1.267 . S
C752 C753 1.251 . S
C753 H723 0.929 . S
C753 N749 1.418 . S
C753 C752 1.251 . S
C754 H721 0.930 . S
C754 C756 1.406 . S
C754 C759 1.261 . S
C755 H722 0.930 . S
C755 N757 1.325 . S
C755 C758 1.357 . S
C756 H724 0.928 . S
C756 C754 1.406 . S
C756 N757 1.261 . S
N757 Co708 2.214 . S
N757 C755 1.325 . S
N757 C756 1.261 . S
C758 H728 0.931 . S
C758 C755 1.357 . S
C758 C759 1.312 . S
C759 H730 0.930 . S
C759 C754 1.261 . S
C759 C758 1.312 . S
C760 O732 1.214 . S
C760 O740 1.234 . S
C761 H733 0.929 . S
C761 C764 1.391 . S
C761 C766 1.391 . S
C762 H734 0.929 . S
C762 C763 1.390 . S
C762 N765 1.391 . S
C763 H735 0.930 . S
C763 C762 1.390 . S
C763 C764 1.392 . S
C764 H736 0.929 . S
C764 C761 1.391 . S
C764 C763 1.392 . S
N765 Co709 2.257 . S
N765 C762 1.391 . S
N765 C766 1.388 . S
C766 H737 0.930 . S
C766 C761 1.391 . S
C766 N765 1.388 . S
Co767 O769 2.143 . S
Co767 O775 2.074 . S
Co767 O778 2.093 1_556 S
Co767 O791 2.097 1_556 S
Co767 N808 2.151 . S
Co767 N816 2.214 1_556 S
Co768 O769 2.160 . S
Co768 O774 2.058 . S
Co768 O784 2.057 . S
Co768 O799 2.037 . S
Co768 N803 2.145 . S
Co768 N824 2.257 . S
O769 Co767 2.143 . S
O769 Co768 2.160 . S
C770 O771 1.278 . S
C770 O778 1.224 . S
O771 C770 1.278 . S
C772 O773 1.245 . S
C772 O784 1.232 . S
O773 C772 1.245 . S
O774 Co768 2.058 . S
O774 C800 1.269 . S
O775 Co767 2.074 . S
O775 C800 1.257 . S
H776 C801 0.930 . S
H777 C807 0.930 . S
O778 Co767 2.093 1_554 S
O778 C770 1.224 . S
H779 C811 0.929 . S
H780 C813 0.930 . S
H781 C814 0.930 . S
H782 C812 0.929 . S
H783 C815 0.928 . S
O784 Co768 2.057 . S
O784 C772 1.232 . S
H785 C804 0.929 . S
H786 C805 0.929 . S
H787 C817 0.931 . S
H788 C809 0.929 . S
H789 C818 0.930 . S
H790 C810 0.931 . S
O791 Co767 2.097 1_554 S
O791 C819 1.214 1_554 S
H792 C820 0.929 . S
H793 C821 0.929 . S
H794 C822 0.930 . S
H795 C823 0.929 . S
H796 C825 0.930 . S
H797 C802 0.930 . S
H798 C806 0.930 . S
O799 Co768 2.037 . S
O799 C819 1.234 . S
C800 O774 1.269 . S
C800 O775 1.257 . S
C801 H776 0.930 . S
C801 C804 1.388 . S
C801 C806 1.418 . S
C802 H797 0.930 . S
C802 C805 1.404 . S
C802 C806 1.353 . S
N803 Co768 2.145 . S
N803 C804 1.397 . S
N803 C805 1.334 . S
C804 H785 0.929 . S
C804 C801 1.388 . S
C804 N803 1.397 . S
C805 H786 0.929 . S
C805 C802 1.404 . S
C805 N803 1.334 . S
C806 H798 0.930 . S
C806 C801 1.418 . S
C806 C802 1.353 . S
C807 H777 0.930 . S
C807 N808 1.330 . S
C807 C809 1.446 . S
N808 Co767 2.151 . S
N808 C807 1.330 . S
N808 C812 1.418 . S
C809 H788 0.929 . S
C809 C807 1.446 . S
C809 C810 1.332 . S
C810 H790 0.931 . S
C810 C809 1.332 . S
C810 C811 1.267 . S
C811 H779 0.929 . S
C811 C810 1.267 . S
C811 C812 1.251 . S
C812 H782 0.929 . S
C812 N808 1.418 . S
C812 C811 1.251 . S
C813 H780 0.930 . S
C813 C815 1.406 . S
C813 C818 1.261 . S
C814 H781 0.930 . S
C814 N816 1.325 . S
C814 C817 1.357 . S
C815 H783 0.928 . S
C815 C813 1.406 . S
C815 N816 1.261 . S
N816 Co767 2.214 1_554 S
N816 C814 1.325 . S
N816 C815 1.261 . S
C817 H787 0.931 . S
C817 C814 1.357 . S
C817 C818 1.312 . S
C818 H789 0.930 . S
C818 C813 1.261 . S
C818 C817 1.312 . S
C819 O791 1.214 1_556 S
C819 O799 1.234 . S
C820 H792 0.929 . S
C820 C823 1.391 . S
C820 C825 1.391 . S
C821 H793 0.929 . S
C821 C822 1.390 . S
C821 N824 1.391 . S
C822 H794 0.930 . S
C822 C821 1.390 . S
C822 C823 1.392 . S
C823 H795 0.929 . S
C823 C820 1.391 . S
C823 C822 1.392 . S
N824 Co768 2.257 . S
N824 C821 1.391 . S
N824 C825 1.388 . S
C825 H796 0.930 . S
C825 C820 1.391 . S
C825 N824 1.388 . S
Co826 O828 2.143 . S
Co826 O834 2.074 . S
Co826 O837 2.093 . S
Co826 O850 2.097 . S
Co826 N867 2.151 . S
Co826 N875 2.214 . S
Co827 O828 2.160 . S
Co827 O833 2.058 1_556 S
Co827 O843 2.057 1_556 S
Co827 O858 2.037 1_655 S
Co827 N862 2.145 1_656 S
Co827 N883 2.257 . S
O828 Co826 2.143 . S
O828 Co827 2.160 . S
C829 O830 1.278 . S
C829 O837 1.224 . S
O830 C829 1.278 . S
C831 O832 1.245 . S
C831 O843 1.232 . S
O832 C831 1.245 . S
O833 Co827 2.058 1_554 S
O833 C859 1.269 1_554 S
O834 Co826 2.074 . S
O834 C859 1.257 . S
H835 C860 0.930 . S
H836 C866 0.930 . S
O837 Co826 2.093 . S
O837 C829 1.224 . S
H838 C870 0.929 . S
H839 C872 0.930 . S
H840 C873 0.930 . S
H841 C871 0.929 . S
H842 C874 0.928 . S
O843 Co827 2.057 1_554 S
O843 C831 1.232 . S
H844 C863 0.929 . S
H845 C864 0.929 1_655 S
H846 C876 0.931 . S
H847 C868 0.929 . S
H848 C877 0.930 1_455 S
H849 C869 0.931 . S
O850 Co826 2.097 . S
O850 C878 1.214 1_655 S
H851 C879 0.929 . S
H852 C880 0.929 . S
H853 C881 0.930 . S
H854 C882 0.929 . S
H855 C884 0.930 . S
H856 C861 0.930 . S
H857 C865 0.930 . S
O858 Co827 2.037 1_455 S
O858 C878 1.234 . S
C859 O833 1.269 1_556 S
C859 O834 1.257 . S
C860 H835 0.930 . S
C860 C863 1.388 . S
C860 C865 1.418 . S
C861 H856 0.930 . S
C861 C864 1.404 . S
C861 C865 1.353 . S
N862 Co827 2.145 1_454 S
N862 C863 1.397 . S
N862 C864 1.334 . S
C863 H844 0.929 . S
C863 C860 1.388 . S
C863 N862 1.397 . S
C864 H845 0.929 1_455 S
C864 C861 1.404 . S
C864 N862 1.334 . S
C865 H857 0.930 . S
C865 C860 1.418 . S
C865 C861 1.353 . S
C866 H836 0.930 . S
C866 N867 1.330 . S
C866 C868 1.446 . S
N867 Co826 2.151 . S
N867 C866 1.330 . S
N867 C871 1.418 . S
C868 H847 0.929 . S
C868 C866 1.446 . S
C868 C869 1.332 . S
C869 H849 0.931 . S
C869 C868 1.332 . S
C869 C870 1.267 . S
C870 H838 0.929 . S
C870 C869 1.267 . S
C870 C871 1.251 . S
C871 H841 0.929 . S
C871 N867 1.418 . S
C871 C870 1.251 . S
C872 H839 0.930 . S
C872 C874 1.406 . S
C872 C877 1.261 . S
C873 H840 0.930 . S
C873 N875 1.325 1_455 S
C873 C876 1.357 . S
C874 H842 0.928 . S
C874 C872 1.406 . S
C874 N875 1.261 . S
N875 Co826 2.214 . S
N875 C873 1.325 1_655 S
N875 C874 1.261 . S
C876 H846 0.931 . S
C876 C873 1.357 . S
C876 C877 1.312 1_455 S
C877 H848 0.930 1_655 S
C877 C872 1.261 . S
C877 C876 1.312 1_655 S
C878 O850 1.214 1_455 S
C878 O858 1.234 . S
C879 H851 0.929 . S
C879 C882 1.391 . S
C879 C884 1.391 . S
C880 H852 0.929 . S
C880 C881 1.390 . S
C880 N883 1.391 1_455 S
C881 H853 0.930 . S
C881 C880 1.390 . S
C881 C882 1.392 1_455 S
C882 H854 0.929 . S
C882 C879 1.391 . S
C882 C881 1.392 1_655 S
N883 Co827 2.257 . S
N883 C880 1.391 1_655 S
N883 C884 1.388 . S
C884 H855 0.930 . S
C884 C879 1.391 . S
C884 N883 1.388 . S
Co885 O887 2.143 . S
Co885 O893 2.074 . S
Co885 O896 2.093 . S
Co885 O909 2.097 . S
Co885 N926 2.151 . S
Co885 N934 2.214 . S
Co886 O887 2.160 . S
Co886 O892 2.058 . S
Co886 O902 2.057 . S
Co886 O917 2.037 . S
Co886 N921 2.145 . S
Co886 N942 2.257 . S
O887 Co885 2.143 . S
O887 Co886 2.160 . S
C888 O889 1.278 . S
C888 O896 1.224 . S
O889 C888 1.278 . S
C890 O891 1.245 . S
C890 O902 1.232 . S
O891 C890 1.245 . S
O892 Co886 2.058 . S
O892 C918 1.269 . S
O893 Co885 2.074 . S
O893 C918 1.257 . S
H894 C919 0.930 . S
H895 C925 0.930 . S
O896 Co885 2.093 . S
O896 C888 1.224 . S
H897 C929 0.929 . S
H898 C931 0.930 . S
H899 C932 0.930 . S
H900 C930 0.929 . S
H901 C933 0.928 . S
O902 Co886 2.057 . S
O902 C890 1.232 . S
H903 C922 0.929 . S
H904 C923 0.929 . S
H905 C935 0.931 . S
H906 C927 0.929 . S
H907 C936 0.930 . S
H908 C928 0.931 . S
O909 Co885 2.097 . S
O909 C937 1.214 . S
H910 C938 0.929 . S
H911 C939 0.929 . S
H912 C940 0.930 . S
H913 C941 0.929 . S
H914 C943 0.930 . S
H915 C920 0.930 . S
H916 C924 0.930 . S
O917 Co886 2.037 . S
O917 C937 1.234 . S
C918 O892 1.269 . S
C918 O893 1.257 . S
C919 H894 0.930 . S
C919 C922 1.388 . S
C919 C924 1.418 . S
C920 H915 0.930 . S
C920 C923 1.404 . S
C920 C924 1.353 . S
N921 Co886 2.145 . S
N921 C922 1.397 . S
N921 C923 1.334 . S
C922 H903 0.929 . S
C922 C919 1.388 . S
C922 N921 1.397 . S
C923 H904 0.929 . S
C923 C920 1.404 . S
C923 N921 1.334 . S
C924 H916 0.930 . S
C924 C919 1.418 . S
C924 C920 1.353 . S
C925 H895 0.930 . S
C925 N926 1.330 . S
C925 C927 1.446 . S
N926 Co885 2.151 . S
N926 C925 1.330 . S
N926 C930 1.418 . S
C927 H906 0.929 . S
C927 C925 1.446 . S
C927 C928 1.332 . S
C928 H908 0.931 . S
C928 C927 1.332 . S
C928 C929 1.267 . S
C929 H897 0.929 . S
C929 C928 1.267 . S
C929 C930 1.251 . S
C930 H900 0.929 . S
C930 N926 1.418 . S
C930 C929 1.251 . S
C931 H898 0.930 . S
C931 C933 1.406 . S
C931 C936 1.261 . S
C932 H899 0.930 . S
C932 N934 1.325 . S
C932 C935 1.357 . S
C933 H901 0.928 . S
C933 C931 1.406 . S
C933 N934 1.261 . S
N934 Co885 2.214 . S
N934 C932 1.325 . S
N934 C933 1.261 . S
C935 H905 0.931 . S
C935 C932 1.357 . S
C935 C936 1.312 . S
C936 H907 0.930 . S
C936 C931 1.261 . S
C936 C935 1.312 . S
C937 O909 1.214 . S
C937 O917 1.234 . S
C938 H910 0.929 . S
C938 C941 1.391 . S
C938 C943 1.391 . S
C939 H911 0.929 . S
C939 C940 1.390 . S
C939 N942 1.391 . S
C940 H912 0.930 . S
C940 C939 1.390 . S
C940 C941 1.392 . S
C941 H913 0.929 . S
C941 C938 1.391 . S
C941 C940 1.392 . S
N942 Co886 2.257 . S
N942 C939 1.391 . S
N942 C943 1.388 . S
C943 H914 0.930 . S
C943 C938 1.391 . S
C943 N942 1.388 . S
Co944 O946 2.143 . S
Co944 O952 2.074 . S
Co944 O955 2.093 . S
Co944 O968 2.097 . S
Co944 N985 2.151 . S
Co944 N993 2.214 . S
Co945 O946 2.160 . S
Co945 O951 2.058 . S
Co945 O961 2.057 . S
Co945 O976 2.037 1_655 S
Co945 N980 2.145 1_655 S
Co945 N1001 2.257 . S
O946 Co944 2.143 . S
O946 Co945 2.160 . S
C947 O948 1.278 . S
C947 O955 1.224 . S
O948 C947 1.278 . S
C949 O950 1.245 . S
C949 O961 1.232 . S
O950 C949 1.245 . S
O951 Co945 2.058 . S
O951 C977 1.269 . S
O952 Co944 2.074 . S
O952 C977 1.257 . S
H953 C978 0.930 . S
H954 C984 0.930 . S
O955 Co944 2.093 . S
O955 C947 1.224 . S
H956 C988 0.929 . S
H957 C990 0.930 . S
H958 C991 0.930 . S
H959 C989 0.929 . S
H960 C992 0.928 . S
O961 Co945 2.057 . S
O961 C949 1.232 . S
H962 C981 0.929 . S
H963 C982 0.929 1_655 S
H964 C994 0.931 . S
H965 C986 0.929 . S
H966 C995 0.930 1_455 S
H967 C987 0.931 . S
O968 Co944 2.097 . S
O968 C996 1.214 1_655 S
H969 C997 0.929 . S
H970 C998 0.929 . S
H971 C999 0.930 . S
H972 C1000 0.929 . S
H973 C1002 0.930 . S
H974 C979 0.930 . S
H975 C983 0.930 . S
O976 Co945 2.037 1_455 S
O976 C996 1.234 . S
C977 O951 1.269 . S
C977 O952 1.257 . S
C978 H953 0.930 . S
C978 C981 1.388 . S
C978 C983 1.418 . S
C979 H974 0.930 . S
C979 C982 1.404 . S
C979 C983 1.353 . S
N980 Co945 2.145 1_455 S
N980 C981 1.397 . S
N980 C982 1.334 . S
C981 H962 0.929 . S
C981 C978 1.388 . S
C981 N980 1.397 . S
C982 H963 0.929 1_455 S
C982 C979 1.404 . S
C982 N980 1.334 . S
C983 H975 0.930 . S
C983 C978 1.418 . S
C983 C979 1.353 . S
C984 H954 0.930 . S
C984 N985 1.330 . S
C984 C986 1.446 . S
N985 Co944 2.151 . S
N985 C984 1.330 . S
N985 C989 1.418 . S
C986 H965 0.929 . S
C986 C984 1.446 . S
C986 C987 1.332 . S
C987 H967 0.931 . S
C987 C986 1.332 . S
C987 C988 1.267 . S
C988 H956 0.929 . S
C988 C987 1.267 . S
C988 C989 1.251 . S
C989 H959 0.929 . S
C989 N985 1.418 . S
C989 C988 1.251 . S
C990 H957 0.930 . S
C990 C992 1.406 . S
C990 C995 1.261 . S
C991 H958 0.930 . S
C991 N993 1.325 1_455 S
C991 C994 1.357 . S
C992 H960 0.928 . S
C992 C990 1.406 . S
C992 N993 1.261 . S
N993 Co944 2.214 . S
N993 C991 1.325 1_655 S
N993 C992 1.261 . S
C994 H964 0.931 . S
C994 C991 1.357 . S
C994 C995 1.312 1_455 S
C995 H966 0.930 1_655 S
C995 C990 1.261 . S
C995 C994 1.312 1_655 S
C996 O968 1.214 1_455 S
C996 O976 1.234 . S
C997 H969 0.929 . S
C997 C1000 1.391 . S
C997 C1002 1.391 . S
C998 H970 0.929 . S
C998 C999 1.390 . S
C998 N1001 1.391 1_455 S
C999 H971 0.930 . S
C999 C998 1.390 . S
C999 C1000 1.392 1_455 S
C1000 H972 0.929 . S
C1000 C997 1.391 . S
C1000 C999 1.392 1_655 S
N1001 Co945 2.257 . S
N1001 C998 1.391 1_655 S
N1001 C1002 1.388 . S
C1002 H973 0.930 . S
C1002 C997 1.391 . S
C1002 N1001 1.388 . S
Co1003 O1005 2.143 . S
Co1003 O1011 2.074 . S
Co1003 O1014 2.093 . S
Co1003 O1027 2.097 . S
Co1003 N1044 2.151 . S
Co1003 N1052 2.214 . S
Co1004 O1005 2.160 . S
Co1004 O1010 2.058 . S
Co1004 O1020 2.057 . S
Co1004 O1035 2.037 . S
Co1004 N1039 2.145 . S
Co1004 N1060 2.257 . S
O1005 Co1003 2.143 . S
O1005 Co1004 2.160 . S
C1006 O1007 1.278 . S
C1006 O1014 1.224 . S
O1007 C1006 1.278 . S
C1008 O1009 1.245 . S
C1008 O1020 1.232 . S
O1009 C1008 1.245 . S
O1010 Co1004 2.058 . S
O1010 C1036 1.269 . S
O1011 Co1003 2.074 . S
O1011 C1036 1.257 . S
H1012 C1037 0.930 . S
H1013 C1043 0.930 . S
O1014 Co1003 2.093 . S
O1014 C1006 1.224 . S
H1015 C1047 0.929 . S
H1016 C1049 0.930 . S
H1017 C1050 0.930 . S
H1018 C1048 0.929 . S
H1019 C1051 0.928 . S
O1020 Co1004 2.057 . S
O1020 C1008 1.232 . S
H1021 C1040 0.929 . S
H1022 C1041 0.929 . S
H1023 C1053 0.931 . S
H1024 C1045 0.929 . S
H1025 C1054 0.930 . S
H1026 C1046 0.931 . S
O1027 Co1003 2.097 . S
O1027 C1055 1.214 . S
H1028 C1056 0.929 . S
H1029 C1057 0.929 . S
H1030 C1058 0.930 . S
H1031 C1059 0.929 . S
H1032 C1061 0.930 . S
H1033 C1038 0.930 . S
H1034 C1042 0.930 . S
O1035 Co1004 2.037 . S
O1035 C1055 1.234 . S
C1036 O1010 1.269 . S
C1036 O1011 1.257 . S
C1037 H1012 0.930 . S
C1037 C1040 1.388 . S
C1037 C1042 1.418 . S
C1038 H1033 0.930 . S
C1038 C1041 1.404 . S
C1038 C1042 1.353 . S
N1039 Co1004 2.145 . S
N1039 C1040 1.397 . S
N1039 C1041 1.334 . S
C1040 H1021 0.929 . S
C1040 C1037 1.388 . S
C1040 N1039 1.397 . S
C1041 H1022 0.929 . S
C1041 C1038 1.404 . S
C1041 N1039 1.334 . S
C1042 H1034 0.930 . S
C1042 C1037 1.418 . S
C1042 C1038 1.353 . S
C1043 H1013 0.930 . S
C1043 N1044 1.330 . S
C1043 C1045 1.446 . S
N1044 Co1003 2.151 . S
N1044 C1043 1.330 . S
N1044 C1048 1.418 . S
C1045 H1024 0.929 . S
C1045 C1043 1.446 . S
C1045 C1046 1.332 . S
C1046 H1026 0.931 . S
C1046 C1045 1.332 . S
C1046 C1047 1.267 . S
C1047 H1015 0.929 . S
C1047 C1046 1.267 . S
C1047 C1048 1.251 . S
C1048 H1018 0.929 . S
C1048 N1044 1.418 . S
C1048 C1047 1.251 . S
C1049 H1016 0.930 . S
C1049 C1051 1.406 . S
C1049 C1054 1.261 . S
C1050 H1017 0.930 . S
C1050 N1052 1.325 . S
C1050 C1053 1.357 . S
C1051 H1019 0.928 . S
C1051 C1049 1.406 . S
C1051 N1052 1.261 . S
N1052 Co1003 2.214 . S
N1052 C1050 1.325 . S
N1052 C1051 1.261 . S
C1053 H1023 0.931 . S
C1053 C1050 1.357 . S
C1053 C1054 1.312 . S
C1054 H1025 0.930 . S
C1054 C1049 1.261 . S
C1054 C1053 1.312 . S
C1055 O1027 1.214 . S
C1055 O1035 1.234 . S
C1056 H1028 0.929 . S
C1056 C1059 1.391 . S
C1056 C1061 1.391 . S
C1057 H1029 0.929 . S
C1057 C1058 1.390 . S
C1057 N1060 1.391 . S
C1058 H1030 0.930 . S
C1058 C1057 1.390 . S
C1058 C1059 1.392 . S
C1059 H1031 0.929 . S
C1059 C1056 1.391 . S
C1059 C1058 1.392 . S
N1060 Co1004 2.257 . S
N1060 C1057 1.391 . S
N1060 C1061 1.388 . S
C1061 H1032 0.930 . S
C1061 C1056 1.391 . S
C1061 N1060 1.388 . S
C1062 C1063 1.363 . S
C1062 C1068 1.379 1_556 S
C1062 N1070 1.356 . S
C1063 C1062 1.363 . S
C1063 C1069 1.363 . S
C1064 C1065 1.363 . S
C1064 C1069 1.379 1_554 S
C1064 N1071 1.356 . S
C1065 C1064 1.363 . S
C1065 C1068 1.363 . S
N1066 C1068 1.356 . S
N1066 H1078 0.984 . S
N1066 H1079 0.985 . S
N1067 C1069 1.356 . S
N1067 H1072 0.984 . S
N1067 H1073 0.985 1_455 S
C1068 C1062 1.379 1_554 S
C1068 C1065 1.363 . S
C1068 N1066 1.356 . S
C1069 C1063 1.363 . S
C1069 C1064 1.379 1_556 S
C1069 N1067 1.356 . S
N1070 C1062 1.356 . S
N1070 H1076 0.984 . S
N1070 H1077 0.984 . S
N1071 C1064 1.356 . S
N1071 H1074 0.984 . S
N1071 H1075 0.985 . S
H1072 N1067 0.984 . S
H1073 N1067 0.985 1_655 S
H1074 N1071 0.984 . S
H1075 N1071 0.985 . S
H1076 N1070 0.984 . S
H1077 N1070 0.984 . S
H1078 N1066 0.984 . S
H1079 N1066 0.985 . S
C1080 C1081 1.363 1_554 S
C1080 C1086 1.379 . S
C1080 N1088 1.356 . S
C1081 C1080 1.363 1_556 S
C1081 C1087 1.363 . S
C1082 C1083 1.363 1_556 S
C1082 C1087 1.379 . S
C1082 N1089 1.356 . S
C1083 C1082 1.363 1_554 S
C1083 C1086 1.363 . S
N1084 C1086 1.356 . S
N1084 H1096 0.984 . S
N1084 H1097 0.985 . S
N1085 C1087 1.356 . S
N1085 H1090 0.984 . S
N1085 H1091 0.985 . S
C1086 C1080 1.379 . S
C1086 C1083 1.363 . S
C1086 N1084 1.356 . S
C1087 C1081 1.363 . S
C1087 C1082 1.379 . S
C1087 N1085 1.356 . S
N1088 C1080 1.356 . S
N1088 H1094 0.984 . S
N1088 H1095 0.984 1_554 S
N1089 C1082 1.356 . S
N1089 H1092 0.984 1_556 S
N1089 H1093 0.985 . S
H1090 N1085 0.984 . S
H1091 N1085 0.985 . S
H1092 N1089 0.984 1_554 S
H1093 N1089 0.985 . S
H1094 N1088 0.984 . S
H1095 N1088 0.984 1_556 S
H1096 N1084 0.984 . S
H1097 N1084 0.985 . S
C1098 C1099 1.363 . S
C1098 C1104 1.379 . S
C1098 N1106 1.356 . S
C1099 C1098 1.363 . S
C1099 C1105 1.363 1_554 S
C1100 C1101 1.363 . S
C1100 C1105 1.379 . S
C1100 N1107 1.356 . S
C1101 C1100 1.363 . S
C1101 C1104 1.363 1_556 S
N1102 C1104 1.356 . S
N1102 H1114 0.984 . S
N1102 H1115 0.985 1_554 S
N1103 C1105 1.356 . S
N1103 H1108 0.984 1_556 S
N1103 H1109 0.985 . S
C1104 C1098 1.379 . S
C1104 C1101 1.363 1_554 S
C1104 N1102 1.356 . S
C1105 C1099 1.363 1_556 S
C1105 C1100 1.379 . S
C1105 N1103 1.356 . S
N1106 C1098 1.356 . S
N1106 H1112 0.984 . S
N1106 H1113 0.984 . S
N1107 C1100 1.356 . S
N1107 H1110 0.984 . S
N1107 H1111 0.985 . S
H1108 N1103 0.984 1_554 S
H1109 N1103 0.985 . S
H1110 N1107 0.984 . S
H1111 N1107 0.985 . S
H1112 N1106 0.984 . S
H1113 N1106 0.984 . S
H1114 N1102 0.984 . S
H1115 N1102 0.985 1_556 S
C1116 C1117 1.363 . S
C1116 C1122 1.379 . S
C1116 N1124 1.356 . S
C1117 C1116 1.363 . S
C1117 C1123 1.363 . S
C1118 C1119 1.363 . S
C1118 C1123 1.379 . S
C1118 N1125 1.356 . S
C1119 C1118 1.363 . S
C1119 C1122 1.363 . S
N1120 C1122 1.356 . S
N1120 H1132 0.984 . S
N1120 H1133 0.985 . S
N1121 C1123 1.356 . S
N1121 H1126 0.984 . S
N1121 H1127 0.985 . S
C1122 C1116 1.379 . S
C1122 C1119 1.363 . S
C1122 N1120 1.356 . S
C1123 C1117 1.363 . S
C1123 C1118 1.379 . S
C1123 N1121 1.356 . S
N1124 C1116 1.356 . S
N1124 H1130 0.984 . S
N1124 H1131 0.984 . S
N1125 C1118 1.356 . S
N1125 H1128 0.984 . S
N1125 H1129 0.985 . S
H1126 N1121 0.984 . S
H1127 N1121 0.985 . S
H1128 N1125 0.984 . S
H1129 N1125 0.985 . S
H1130 N1124 0.984 . S
H1131 N1124 0.984 . S
H1132 N1120 0.984 . S
H1133 N1120 0.985 . S
C1134 C1135 1.363 . S
C1134 C1140 1.379 . S
C1134 N1142 1.356 . S
C1135 C1134 1.363 . S
C1135 C1141 1.363 . S
C1136 C1137 1.363 . S
C1136 C1141 1.379 . S
C1136 N1143 1.356 . S
C1137 C1136 1.363 . S
C1137 C1140 1.363 . S
N1138 C1140 1.356 . S
N1138 H1150 0.984 . S
N1138 H1151 0.985 . S
N1139 C1141 1.356 . S
N1139 H1144 0.984 . S
N1139 H1145 0.985 . S
C1140 C1134 1.379 . S
C1140 C1137 1.363 . S
C1140 N1138 1.356 . S
C1141 C1135 1.363 . S
C1141 C1136 1.379 . S
C1141 N1139 1.356 . S
N1142 C1134 1.356 . S
N1142 H1148 0.984 . S
N1142 H1149 0.984 . S
N1143 C1136 1.356 . S
N1143 H1146 0.984 . S
N1143 H1147 0.985 . S
H1144 N1139 0.984 . S
H1145 N1139 0.985 . S
H1146 N1143 0.984 . S
H1147 N1143 0.985 . S
H1148 N1142 0.984 . S
H1149 N1142 0.984 . S
H1150 N1138 0.984 . S
H1151 N1138 0.985 . S
C1152 C1153 1.363 . S
C1152 C1158 1.379 . S
C1152 N1160 1.356 . S
C1153 C1152 1.363 . S
C1153 C1159 1.363 . S
C1154 C1155 1.363 . S
C1154 C1159 1.379 . S
C1154 N1161 1.356 . S
C1155 C1154 1.363 . S
C1155 C1158 1.363 . S
N1156 C1158 1.356 . S
N1156 H1168 0.984 . S
N1156 H1169 0.985 . S
N1157 C1159 1.356 . S
N1157 H1162 0.984 . S
N1157 H1163 0.985 . S
C1158 C1152 1.379 . S
C1158 C1155 1.363 . S
C1158 N1156 1.356 . S
C1159 C1153 1.363 . S
C1159 C1154 1.379 . S
C1159 N1157 1.356 . S
N1160 C1152 1.356 . S
N1160 H1166 0.984 . S
N1160 H1167 0.984 . S
N1161 C1154 1.356 . S
N1161 H1164 0.984 . S
N1161 H1165 0.985 . S
H1162 N1157 0.984 . S
H1163 N1157 0.985 . S
H1164 N1161 0.984 . S
H1165 N1161 0.985 . S
H1166 N1160 0.984 . S
H1167 N1160 0.984 . S
H1168 N1156 0.984 . S
H1169 N1156 0.985 . S
C1170 C1171 1.363 . S
C1170 C1176 1.379 . S
C1170 N1178 1.356 . S
C1171 C1170 1.363 . S
C1171 C1177 1.363 . S
C1172 C1173 1.363 . S
C1172 C1177 1.379 . S
C1172 N1179 1.356 . S
C1173 C1172 1.363 . S
C1173 C1176 1.363 . S
N1174 C1176 1.356 . S
N1174 H1186 0.984 . S
N1174 H1187 0.985 . S
N1175 C1177 1.356 . S
N1175 H1180 0.984 . S
N1175 H1181 0.985 . S
C1176 C1170 1.379 . S
C1176 C1173 1.363 . S
C1176 N1174 1.356 . S
C1177 C1171 1.363 . S
C1177 C1172 1.379 . S
C1177 N1175 1.356 . S
N1178 C1170 1.356 . S
N1178 H1184 0.984 . S
N1178 H1185 0.984 . S
N1179 C1172 1.356 . S
N1179 H1182 0.984 . S
N1179 H1183 0.985 . S
H1180 N1175 0.984 . S
H1181 N1175 0.985 . S
H1182 N1179 0.984 . S
H1183 N1179 0.985 . S
H1184 N1178 0.984 . S
H1185 N1178 0.984 . S
H1186 N1174 0.984 . S
H1187 N1174 0.985 . S
C1188 C1189 1.363 . S
C1188 C1194 1.379 . S
C1188 N1196 1.356 . S
C1189 C1188 1.363 . S
C1189 C1195 1.363 . S
C1190 C1191 1.363 . S
C1190 C1195 1.379 . S
C1190 N1197 1.356 . S
C1191 C1190 1.363 . S
C1191 C1194 1.363 . S
N1192 C1194 1.356 . S
N1192 H1204 0.984 . S
N1192 H1205 0.985 . S
N1193 C1195 1.356 . S
N1193 H1198 0.984 . S
N1193 H1199 0.985 . S
C1194 C1188 1.379 . S
C1194 C1191 1.363 . S
C1194 N1192 1.356 . S
C1195 C1189 1.363 . S
C1195 C1190 1.379 . S
C1195 N1193 1.356 . S
N1196 C1188 1.356 . S
N1196 H1202 0.984 . S
N1196 H1203 0.984 . S
N1197 C1190 1.356 . S
N1197 H1200 0.984 . S
N1197 H1201 0.985 . S
H1198 N1193 0.984 . S
H1199 N1193 0.985 . S
H1200 N1197 0.984 . S
H1201 N1197 0.985 . S
H1202 N1196 0.984 . S
H1203 N1196 0.984 . S
H1204 N1192 0.984 . S
H1205 N1192 0.985 . S
C1206 C1207 1.363 . S
C1206 C1212 1.379 . S
C1206 N1214 1.356 . S
C1207 C1206 1.363 . S
C1207 C1213 1.363 . S
C1208 C1209 1.363 . S
C1208 C1213 1.379 . S
C1208 N1215 1.356 . S
C1209 C1208 1.363 . S
C1209 C1212 1.363 . S
N1210 C1212 1.356 . S
N1210 H1222 0.984 . S
N1210 H1223 0.985 . S
N1211 C1213 1.356 . S
N1211 H1216 0.984 . S
N1211 H1217 0.985 . S
C1212 C1206 1.379 . S
C1212 C1209 1.363 . S
C1212 N1210 1.356 . S
C1213 C1207 1.363 . S
C1213 C1208 1.379 . S
C1213 N1211 1.356 . S
N1214 C1206 1.356 . S
N1214 H1220 0.984 . S
N1214 H1221 0.984 . S
N1215 C1208 1.356 . S
N1215 H1218 0.984 . S
N1215 H1219 0.985 . S
H1216 N1211 0.984 . S
H1217 N1211 0.985 . S
H1218 N1215 0.984 . S
H1219 N1215 0.985 . S
H1220 N1214 0.984 . S
H1221 N1214 0.984 . S
H1222 N1210 0.984 . S
H1223 N1210 0.985 . S
C1224 C1225 1.363 . S
C1224 C1230 1.379 . S
C1224 N1232 1.356 . S
C1225 C1224 1.363 . S
C1225 C1231 1.363 . S
C1226 C1227 1.363 . S
C1226 C1231 1.379 . S
C1226 N1233 1.356 . S
C1227 C1226 1.363 . S
C1227 C1230 1.363 . S
N1228 C1230 1.356 . S
N1228 H1240 0.984 . S
N1228 H1241 0.985 . S
N1229 C1231 1.356 . S
N1229 H1234 0.984 . S
N1229 H1235 0.985 . S
C1230 C1224 1.379 . S
C1230 C1227 1.363 . S
C1230 N1228 1.356 . S
C1231 C1225 1.363 . S
C1231 C1226 1.379 . S
C1231 N1229 1.356 . S
N1232 C1224 1.356 . S
N1232 H1238 0.984 . S
N1232 H1239 0.984 . S
N1233 C1226 1.356 . S
N1233 H1236 0.984 . S
N1233 H1237 0.985 . S
H1234 N1229 0.984 . S
H1235 N1229 0.985 . S
H1236 N1233 0.984 . S
H1237 N1233 0.985 . S
H1238 N1232 0.984 . S
H1239 N1232 0.984 . S
H1240 N1228 0.984 . S
H1241 N1228 0.985 . S
C1242 C1243 1.363 . S
C1242 C1248 1.379 . S
C1242 N1250 1.356 . S
C1243 C1242 1.363 . S
C1243 C1249 1.363 . S
C1244 C1245 1.363 . S
C1244 C1249 1.379 . S
C1244 N1251 1.356 . S
C1245 C1244 1.363 . S
C1245 C1248 1.363 . S
N1246 C1248 1.356 . S
N1246 H1258 0.984 . S
N1246 H1259 0.985 . S
N1247 C1249 1.356 . S
N1247 H1252 0.984 . S
N1247 H1253 0.985 1_556 S
C1248 C1242 1.379 . S
C1248 C1245 1.363 . S
C1248 N1246 1.356 . S
C1249 C1243 1.363 . S
C1249 C1244 1.379 . S
C1249 N1247 1.356 . S
N1250 C1242 1.356 . S
N1250 H1256 0.984 . S
N1250 H1257 0.984 . S
N1251 C1244 1.356 . S
N1251 H1254 0.984 . S
N1251 H1255 0.985 . S
H1252 N1247 0.984 . S
H1253 N1247 0.985 1_554 S
H1254 N1251 0.984 . S
H1255 N1251 0.985 . S
H1256 N1250 0.984 . S
H1257 N1250 0.984 . S
H1258 N1246 0.984 . S
H1259 N1246 0.985 . S
C1260 C1261 1.363 . S
C1260 C1266 1.379 . S
C1260 N1268 1.356 . S
C1261 C1260 1.363 . S
C1261 C1267 1.363 . S
C1262 C1263 1.363 . S
C1262 C1267 1.379 . S
C1262 N1269 1.356 . S
C1263 C1262 1.363 . S
C1263 C1266 1.363 . S
N1264 C1266 1.356 . S
N1264 H1276 0.984 . S
N1264 H1277 0.985 . S
N1265 C1267 1.356 . S
N1265 H1270 0.984 . S
N1265 H1271 0.985 1_556 S
C1266 C1260 1.379 . S
C1266 C1263 1.363 . S
C1266 N1264 1.356 . S
C1267 C1261 1.363 . S
C1267 C1262 1.379 . S
C1267 N1265 1.356 . S
N1268 C1260 1.356 . S
N1268 H1274 0.984 . S
N1268 H1275 0.984 . S
N1269 C1262 1.356 . S
N1269 H1272 0.984 . S
N1269 H1273 0.985 . S
H1270 N1265 0.984 . S
H1271 N1265 0.985 1_554 S
H1272 N1269 0.984 . S
H1273 N1269 0.985 . S
H1274 N1268 0.984 . S
H1275 N1268 0.984 . S
H1276 N1264 0.984 . S
H1277 N1264 0.985 . S
C1278 C1279 1.363 . S
C1278 C1284 1.379 . S
C1278 N1286 1.356 . S
C1279 C1278 1.363 . S
C1279 C1285 1.363 . S
C1280 C1281 1.363 . S
C1280 C1285 1.379 . S
C1280 N1287 1.356 . S
C1281 C1280 1.363 . S
C1281 C1284 1.363 . S
N1282 C1284 1.356 . S
N1282 H1294 0.984 . S
N1282 H1295 0.985 . S
N1283 C1285 1.356 . S
N1283 H1288 0.984 . S
N1283 H1289 0.985 . S
C1284 C1278 1.379 . S
C1284 C1281 1.363 . S
C1284 N1282 1.356 . S
C1285 C1279 1.363 . S
C1285 C1280 1.379 . S
C1285 N1283 1.356 . S
N1286 C1278 1.356 . S
N1286 H1292 0.984 . S
N1286 H1293 0.984 . S
N1287 C1280 1.356 . S
N1287 H1290 0.984 . S
N1287 H1291 0.985 . S
H1288 N1283 0.984 . S
H1289 N1283 0.985 . S
H1290 N1287 0.984 . S
H1291 N1287 0.985 . S
H1292 N1286 0.984 . S
H1293 N1286 0.984 . S
H1294 N1282 0.984 . S
H1295 N1282 0.985 . S
C1296 C1297 1.363 . S
C1296 C1302 1.379 . S
C1296 N1304 1.356 . S
C1297 C1296 1.363 . S
C1297 C1303 1.363 . S
C1298 C1299 1.363 . S
C1298 C1303 1.379 . S
C1298 N1305 1.356 . S
C1299 C1298 1.363 . S
C1299 C1302 1.363 . S
N1300 C1302 1.356 . S
N1300 H1312 0.984 . S
N1300 H1313 0.985 . S
N1301 C1303 1.356 . S
N1301 H1306 0.984 . S
N1301 H1307 0.985 . S
C1302 C1296 1.379 . S
C1302 C1299 1.363 . S
C1302 N1300 1.356 . S
C1303 C1297 1.363 . S
C1303 C1298 1.379 . S
C1303 N1301 1.356 . S
N1304 C1296 1.356 . S
N1304 H1310 0.984 . S
N1304 H1311 0.984 . S
N1305 C1298 1.356 . S
N1305 H1308 0.984 . S
N1305 H1309 0.985 . S
H1306 N1301 0.984 . S
H1307 N1301 0.985 . S
H1308 N1305 0.984 . S
H1309 N1305 0.985 . S
H1310 N1304 0.984 . S
H1311 N1304 0.984 . S
H1312 N1300 0.984 . S
H1313 N1300 0.985 . S
C1314 C1315 1.363 . S
C1314 C1320 1.379 . S
C1314 N1322 1.356 . S
C1315 C1314 1.363 . S
C1315 C1321 1.363 . S
C1316 C1317 1.363 . S
C1316 C1321 1.379 . S
C1316 N1323 1.356 . S
C1317 C1316 1.363 . S
C1317 C1320 1.363 . S
N1318 C1320 1.356 . S
N1318 H1330 0.984 . S
N1318 H1331 0.985 . S
N1319 C1321 1.356 . S
N1319 H1324 0.984 . S
N1319 H1325 0.985 . S
C1320 C1314 1.379 . S
C1320 C1317 1.363 . S
C1320 N1318 1.356 . S
C1321 C1315 1.363 . S
C1321 C1316 1.379 . S
C1321 N1319 1.356 . S
N1322 C1314 1.356 . S
N1322 H1328 0.984 . S
N1322 H1329 0.984 . S
N1323 C1316 1.356 . S
N1323 H1326 0.984 . S
N1323 H1327 0.985 . S
H1324 N1319 0.984 . S
H1325 N1319 0.985 . S
H1326 N1323 0.984 . S
H1327 N1323 0.985 . S
H1328 N1322 0.984 . S
H1329 N1322 0.984 . S
H1330 N1318 0.984 . S
H1331 N1318 0.985 . S
C1332 C1333 1.363 . S
C1332 C1338 1.379 . S
C1332 N1340 1.356 . S
C1333 C1332 1.363 . S
C1333 C1339 1.363 . S
C1334 C1335 1.363 . S
C1334 C1339 1.379 . S
C1334 N1341 1.356 . S
C1335 C1334 1.363 . S
C1335 C1338 1.363 . S
N1336 C1338 1.356 . S
N1336 H1348 0.984 . S
N1336 H1349 0.985 . S
N1337 C1339 1.356 . S
N1337 H1342 0.984 . S
N1337 H1343 0.985 . S
C1338 C1332 1.379 . S
C1338 C1335 1.363 . S
C1338 N1336 1.356 . S
C1339 C1333 1.363 . S
C1339 C1334 1.379 . S
C1339 N1337 1.356 . S
N1340 C1332 1.356 . S
N1340 H1346 0.984 . S
N1340 H1347 0.984 . S
N1341 C1334 1.356 . S
N1341 H1344 0.984 . S
N1341 H1345 0.985 . S
H1342 N1337 0.984 . S
H1343 N1337 0.985 . S
H1344 N1341 0.984 . S
H1345 N1341 0.985 . S
H1346 N1340 0.984 . S
H1347 N1340 0.984 . S
H1348 N1336 0.984 . S
H1349 N1336 0.985 . S
C1350 C1351 1.363 . S
C1350 C1356 1.379 . S
C1350 N1358 1.356 . S
C1351 C1350 1.363 . S
C1351 C1357 1.363 . S
C1352 C1353 1.363 . S
C1352 C1357 1.379 . S
C1352 N1359 1.356 . S
C1353 C1352 1.363 . S
C1353 C1356 1.363 . S
N1354 C1356 1.356 . S
N1354 H1366 0.984 . S
N1354 H1367 0.985 . S
N1355 C1357 1.356 . S
N1355 H1360 0.984 . S
N1355 H1361 0.985 . S
C1356 C1350 1.379 . S
C1356 C1353 1.363 . S
C1356 N1354 1.356 . S
C1357 C1351 1.363 . S
C1357 C1352 1.379 . S
C1357 N1355 1.356 . S
N1358 C1350 1.356 . S
N1358 H1364 0.984 . S
N1358 H1365 0.984 . S
N1359 C1352 1.356 . S
N1359 H1362 0.984 . S
N1359 H1363 0.985 . S
H1360 N1355 0.984 . S
H1361 N1355 0.985 . S
H1362 N1359 0.984 . S
H1363 N1359 0.985 . S
H1364 N1358 0.984 . S
H1365 N1358 0.984 . S
H1366 N1354 0.984 . S
H1367 N1354 0.985 . S
C1368 C1369 1.363 . S
C1368 C1374 1.379 . S
C1368 N1376 1.356 . S
C1369 C1368 1.363 . S
C1369 C1375 1.363 . S
C1370 C1371 1.363 . S
C1370 C1375 1.379 . S
C1370 N1377 1.356 . S
C1371 C1370 1.363 . S
C1371 C1374 1.363 . S
N1372 C1374 1.356 . S
N1372 H1384 0.984 . S
N1372 H1385 0.985 . S
N1373 C1375 1.356 . S
N1373 H1378 0.984 . S
N1373 H1379 0.985 . S
C1374 C1368 1.379 . S
C1374 C1371 1.363 . S
C1374 N1372 1.356 . S
C1375 C1369 1.363 . S
C1375 C1370 1.379 . S
C1375 N1373 1.356 . S
N1376 C1368 1.356 . S
N1376 H1382 0.984 . S
N1376 H1383 0.984 . S
N1377 C1370 1.356 . S
N1377 H1380 0.984 . S
N1377 H1381 0.985 . S
H1378 N1373 0.984 . S
H1379 N1373 0.985 . S
H1380 N1377 0.984 . S
H1381 N1377 0.985 . S
H1382 N1376 0.984 . S
H1383 N1376 0.984 . S
H1384 N1372 0.984 . S
H1385 N1372 0.985 . S
C1386 C1387 1.363 . S
C1386 C1392 1.379 . S
C1386 N1394 1.356 . S
C1387 C1386 1.363 . S
C1387 C1393 1.363 . S
C1388 C1389 1.363 . S
C1388 C1393 1.379 . S
C1388 N1395 1.356 . S
C1389 C1388 1.363 . S
C1389 C1392 1.363 . S
N1390 C1392 1.356 . S
N1390 H1402 0.984 . S
N1390 H1403 0.985 . S
N1391 C1393 1.356 . S
N1391 H1396 0.984 . S
N1391 H1397 0.985 . S
C1392 C1386 1.379 . S
C1392 C1389 1.363 . S
C1392 N1390 1.356 . S
C1393 C1387 1.363 . S
C1393 C1388 1.379 . S
C1393 N1391 1.356 . S
N1394 C1386 1.356 . S
N1394 H1400 0.984 . S
N1394 H1401 0.984 . S
N1395 C1388 1.356 . S
N1395 H1398 0.984 . S
N1395 H1399 0.985 . S
H1396 N1391 0.984 . S
H1397 N1391 0.985 . S
H1398 N1395 0.984 . S
H1399 N1395 0.985 . S
H1400 N1394 0.984 . S
H1401 N1394 0.984 . S
H1402 N1390 0.984 . S
H1403 N1390 0.985 . S
C1404 C1405 1.363 . S
C1404 C1410 1.379 . S
C1404 N1412 1.356 . S
C1405 C1404 1.363 . S
C1405 C1411 1.363 . S
C1406 C1407 1.363 . S
C1406 C1411 1.379 . S
C1406 N1413 1.356 . S
C1407 C1406 1.363 . S
C1407 C1410 1.363 . S
N1408 C1410 1.356 . S
N1408 H1420 0.984 . S
N1408 H1421 0.985 . S
N1409 C1411 1.356 . S
N1409 H1414 0.984 . S
N1409 H1415 0.985 . S
C1410 C1404 1.379 . S
C1410 C1407 1.363 . S
C1410 N1408 1.356 . S
C1411 C1405 1.363 . S
C1411 C1406 1.379 . S
C1411 N1409 1.356 . S
N1412 C1404 1.356 . S
N1412 H1418 0.984 . S
N1412 H1419 0.984 . S
N1413 C1406 1.356 . S
N1413 H1416 0.984 . S
N1413 H1417 0.985 . S
H1414 N1409 0.984 . S
H1415 N1409 0.985 . S
H1416 N1413 0.984 . S
H1417 N1413 0.985 . S
H1418 N1412 0.984 . S
H1419 N1412 0.984 . S
H1420 N1408 0.984 . S
H1421 N1408 0.985 . S
C1422 C1423 1.363 1_565 S
C1422 C1428 1.379 1_565 S
C1422 N1430 1.356 . S
C1423 C1422 1.363 1_545 S
C1423 C1429 1.363 . S
C1424 C1425 1.363 . S
C1424 C1429 1.379 . S
C1424 N1431 1.356 . S
C1425 C1424 1.363 . S
C1425 C1428 1.363 . S
N1426 C1428 1.356 . S
N1426 H1438 0.984 1_545 S
N1426 H1439 0.985 . S
N1427 C1429 1.356 . S
N1427 H1432 0.984 . S
N1427 H1433 0.985 . S
C1428 C1422 1.379 1_545 S
C1428 C1425 1.363 . S
C1428 N1426 1.356 . S
C1429 C1423 1.363 . S
C1429 C1424 1.379 . S
C1429 N1427 1.356 . S
N1430 C1422 1.356 . S
N1430 H1436 0.984 . S
N1430 H1437 0.984 . S
N1431 C1424 1.356 . S
N1431 H1434 0.984 . S
N1431 H1435 0.985 . S
H1432 N1427 0.984 . S
H1433 N1427 0.985 . S
H1434 N1431 0.984 . S
H1435 N1431 0.985 . S
H1436 N1430 0.984 . S
H1437 N1430 0.984 . S
H1438 N1426 0.984 1_565 S
H1439 N1426 0.985 . S
C1440 C1441 1.363 . S
C1440 C1446 1.379 . S
C1440 N1448 1.356 . S
C1441 C1440 1.363 . S
C1441 C1447 1.363 . S
C1442 C1443 1.363 . S
C1442 C1447 1.379 . S
C1442 N1449 1.356 1_554 S
C1443 C1442 1.363 . S
C1443 C1446 1.363 . S
N1444 C1446 1.356 . S
N1444 H1456 0.984 . S
N1444 H1457 0.985 . S
N1445 C1447 1.356 . S
N1445 H1450 0.984 . S
N1445 H1451 0.985 . S
C1446 C1440 1.379 . S
C1446 C1443 1.363 . S
C1446 N1444 1.356 . S
C1447 C1441 1.363 . S
C1447 C1442 1.379 . S
C1447 N1445 1.356 . S
N1448 C1440 1.356 . S
N1448 H1454 0.984 . S
N1448 H1455 0.984 . S
N1449 C1442 1.356 1_556 S
N1449 H1452 0.984 . S
N1449 H1453 0.985 . S
H1450 N1445 0.984 . S
H1451 N1445 0.985 . S
H1452 N1449 0.984 . S
H1453 N1449 0.985 . S
H1454 N1448 0.984 . S
H1455 N1448 0.984 . S
H1456 N1444 0.984 . S
H1457 N1444 0.985 . S
C1458 C1459 1.363 1_655 S
C1458 C1464 1.379 . S
C1458 N1466 1.356 . S
C1459 C1458 1.363 1_455 S
C1459 C1465 1.363 . S
C1460 C1461 1.363 . S
C1460 C1465 1.379 . S
C1460 N1467 1.356 . S
C1461 C1460 1.363 . S
C1461 C1464 1.363 1_455 S
N1462 C1464 1.356 . S
N1462 H1474 0.984 . S
N1462 H1475 0.988 1_655 S
N1463 C1465 1.356 . S
N1463 H1468 0.984 1_554 S
N1463 H1469 0.985 . S
C1464 C1458 1.379 . S
C1464 C1461 1.363 1_655 S
C1464 N1462 1.356 . S
C1465 C1459 1.363 . S
C1465 C1460 1.379 . S
C1465 N1463 1.356 . S
N1466 C1458 1.356 . S
N1466 H1472 0.984 . S
N1466 H1473 0.991 . S
N1467 C1460 1.356 . S
N1467 H1470 0.984 . S
N1467 H1471 0.985 . S
H1468 N1463 0.984 1_556 S
H1469 N1463 0.985 . S
H1470 N1467 0.984 . S
H1471 N1467 0.985 . S
H1472 N1466 0.984 . S
H1473 N1466 0.991 . S
H1474 N1462 0.984 . S
H1475 N1462 0.988 1_455 S
C1476 C1477 1.363 . S
C1476 C1482 1.379 . S
C1476 N1484 1.356 . S
C1477 C1476 1.363 . S
C1477 C1483 1.363 . S
C1478 C1479 1.363 . S
C1478 C1483 1.379 . S
C1478 N1485 1.356 . S
C1479 C1478 1.363 . S
C1479 C1482 1.363 . S
N1480 C1482 1.356 . S
N1480 H1492 0.984 . S
N1480 H1493 0.985 . S
N1481 C1483 1.356 1_556 S
N1481 H1486 0.984 . S
N1481 H1487 0.985 . S
C1482 C1476 1.379 . S
C1482 C1479 1.363 . S
C1482 N1480 1.356 . S
C1483 C1477 1.363 . S
C1483 C1478 1.379 . S
C1483 N1481 1.356 1_554 S
N1484 C1476 1.356 . S
N1484 H1490 0.984 . S
N1484 H1491 0.984 . S
N1485 C1478 1.356 . S
N1485 H1488 0.984 . S
N1485 H1489 0.985 . S
H1486 N1481 0.984 . S
H1487 N1481 0.985 . S
H1488 N1485 0.984 . S
H1489 N1485 0.985 . S
H1490 N1484 0.984 . S
H1491 N1484 0.984 . S
H1492 N1480 0.984 . S
H1493 N1480 0.985 . S
C1494 C1495 1.363 1_655 S
C1494 C1500 1.379 . S
C1494 N1502 1.356 . S
C1495 C1494 1.363 1_455 S
C1495 C1501 1.363 . S
C1496 C1497 1.363 . S
C1496 C1501 1.379 . S
C1496 N1503 1.356 . S
C1497 C1496 1.363 . S
C1497 C1500 1.363 1_455 S
N1498 C1500 1.356 . S
N1498 H1510 0.984 . S
N1498 H1511 0.986 . S
N1499 C1501 1.356 . S
N1499 H1504 0.984 . S
N1499 H1505 0.985 . S
C1500 C1494 1.379 . S
C1500 C1497 1.363 1_655 S
C1500 N1498 1.356 . S
C1501 C1495 1.363 . S
C1501 C1496 1.379 . S
C1501 N1499 1.356 . S
N1502 C1494 1.356 . S
N1502 H1508 0.984 . S
N1502 H1509 0.984 . S
N1503 C1496 1.356 . S
N1503 H1506 0.984 . S
N1503 H1507 0.985 . S
H1504 N1499 0.984 . S
H1505 N1499 0.985 . S
H1506 N1503 0.984 . S
H1507 N1503 0.985 . S
H1508 N1502 0.984 . S
H1509 N1502 0.984 . S
H1510 N1498 0.984 . S
H1511 N1498 0.986 . S
C1512 C1513 1.363 . S
C1512 C1518 1.379 . S
C1512 N1520 1.356 . S
C1513 C1512 1.363 . S
C1513 C1519 1.363 . S
C1514 C1515 1.363 . S
C1514 C1519 1.379 . S
C1514 N1521 1.356 . S
C1515 C1514 1.363 . S
C1515 C1518 1.363 . S
N1516 C1518 1.356 . S
N1516 H1528 0.984 . S
N1516 H1529 0.985 . S
N1517 C1519 1.356 . S
N1517 H1522 0.984 . S
N1517 H1523 0.985 . S
C1518 C1512 1.379 . S
C1518 C1515 1.363 . S
C1518 N1516 1.356 . S
C1519 C1513 1.363 . S
C1519 C1514 1.379 . S
C1519 N1517 1.356 . S
N1520 C1512 1.356 . S
N1520 H1526 0.984 . S
N1520 H1527 0.984 . S
N1521 C1514 1.356 . S
N1521 H1524 0.984 . S
N1521 H1525 0.985 . S
H1522 N1517 0.984 . S
H1523 N1517 0.985 . S
H1524 N1521 0.984 . S
H1525 N1521 0.985 . S
H1526 N1520 0.984 . S
H1527 N1520 0.984 . S
H1528 N1516 0.984 . S
H1529 N1516 0.985 . S
C1530 C1531 1.363 . S
C1530 C1536 1.379 . S
C1530 N1538 1.356 . S
C1531 C1530 1.363 . S
C1531 C1537 1.363 . S
C1532 C1533 1.363 . S
C1532 C1537 1.379 . S
C1532 N1539 1.356 . S
C1533 C1532 1.363 . S
C1533 C1536 1.363 . S
N1534 C1536 1.356 . S
N1534 H1546 0.984 . S
N1534 H1547 0.985 . S
N1535 C1537 1.356 . S
N1535 H1540 0.984 . S
N1535 H1541 0.985 . S
C1536 C1530 1.379 . S
C1536 C1533 1.363 . S
C1536 N1534 1.356 . S
C1537 C1531 1.363 . S
C1537 C1532 1.379 . S
C1537 N1535 1.356 . S
N1538 C1530 1.356 . S
N1538 H1544 0.984 . S
N1538 H1545 0.984 . S
N1539 C1532 1.356 . S
N1539 H1542 0.984 . S
N1539 H1543 0.985 . S
H1540 N1535 0.984 . S
H1541 N1535 0.985 . S
H1542 N1539 0.984 . S
H1543 N1539 0.985 . S
H1544 N1538 0.984 . S
H1545 N1538 0.984 . S
H1546 N1534 0.984 . S
H1547 N1534 0.985 . S
C1548 C1549 1.363 . S
C1548 C1554 1.379 . S
C1548 N1556 1.356 . S
C1549 C1548 1.363 . S
C1549 C1555 1.363 1_545 S
C1550 C1551 1.363 . S
C1550 C1555 1.379 1_545 S
C1550 N1557 1.356 . S
C1551 C1550 1.363 . S
C1551 C1554 1.363 . S
N1552 C1554 1.356 . S
N1552 H1564 0.984 . S
N1552 H1565 0.985 . S
N1553 C1555 1.356 1_554 S
N1553 H1558 0.984 . S
N1553 H1559 0.985 . S
C1554 C1548 1.379 . S
C1554 C1551 1.363 . S
C1554 N1552 1.356 . S
C1555 C1549 1.363 1_565 S
C1555 C1550 1.379 1_565 S
C1555 N1553 1.356 1_556 S
N1556 C1548 1.356 . S
N1556 H1562 0.984 . S
N1556 H1563 0.984 . S
N1557 C1550 1.356 . S
N1557 H1560 0.984 . S
N1557 H1561 0.985 1_545 S
H1558 N1553 0.984 . S
H1559 N1553 0.985 . S
H1560 N1557 0.984 . S
H1561 N1557 0.985 1_565 S
H1562 N1556 0.984 . S
H1563 N1556 0.984 . S
H1564 N1552 0.984 . S
H1565 N1552 0.985 . S
C1566 C1567 1.363 . S
C1566 C1572 1.379 . S
C1566 N1574 1.356 . S
C1567 C1566 1.363 . S
C1567 C1573 1.363 . S
C1568 C1569 1.363 . S
C1568 C1573 1.379 . S
C1568 N1575 1.356 . S
C1569 C1568 1.363 . S
C1569 C1572 1.363 . S
N1570 C1572 1.356 . S
N1570 H1582 0.984 . S
N1570 H1583 0.985 1_556 S
N1571 C1573 1.356 . S
N1571 H1576 0.984 . S
N1571 H1577 0.985 . S
C1572 C1566 1.379 . S
C1572 C1569 1.363 . S
C1572 N1570 1.356 . S
C1573 C1567 1.363 . S
C1573 C1568 1.379 . S
C1573 N1571 1.356 . S
N1574 C1566 1.356 . S
N1574 H1580 0.984 . S
N1574 H1581 0.984 . S
N1575 C1568 1.356 . S
N1575 H1578 0.984 1_556 S
N1575 H1579 0.985 . S
H1576 N1571 0.984 . S
H1577 N1571 0.985 . S
H1578 N1575 0.984 1_554 S
H1579 N1575 0.985 . S
H1580 N1574 0.984 . S
H1581 N1574 0.984 . S
H1582 N1570 0.984 . S
H1583 N1570 0.985 1_554 S
C1584 C1585 1.363 . S
C1584 C1590 1.379 . S
C1584 N1592 1.356 . S
C1585 C1584 1.363 . S
C1585 C1591 1.363 . S
C1586 C1587 1.363 . S
C1586 C1591 1.379 . S
C1586 N1593 1.356 . S
C1587 C1586 1.363 . S
C1587 C1590 1.363 . S
N1588 C1590 1.356 . S
N1588 H1600 0.984 . S
N1588 H1601 0.985 . S
N1589 C1591 1.356 . S
N1589 H1594 0.984 . S
N1589 H1595 0.985 . S
C1590 C1584 1.379 . S
C1590 C1587 1.363 . S
C1590 N1588 1.356 . S
C1591 C1585 1.363 . S
C1591 C1586 1.379 . S
C1591 N1589 1.356 . S
N1592 C1584 1.356 . S
N1592 H1598 0.984 . S
N1592 H1599 0.984 . S
N1593 C1586 1.356 . S
N1593 H1596 0.984 1_556 S
N1593 H1597 0.985 . S
H1594 N1589 0.984 . S
H1595 N1589 0.985 . S
H1596 N1593 0.984 1_554 S
H1597 N1593 0.985 . S
H1598 N1592 0.984 . S
H1599 N1592 0.984 . S
H1600 N1588 0.984 . S
H1601 N1588 0.985 . S
C1602 C1603 1.363 . S
C1602 C1608 1.379 . S
C1602 N1610 1.356 . S
C1603 C1602 1.363 . S
C1603 C1609 1.363 . S
C1604 C1605 1.363 . S
C1604 C1609 1.379 . S
C1604 N1611 1.356 . S
C1605 C1604 1.363 . S
C1605 C1608 1.363 . S
N1606 C1608 1.356 . S
N1606 H1618 0.984 . S
N1606 H1619 0.985 . S
N1607 C1609 1.356 . S
N1607 H1612 0.984 . S
N1607 H1613 0.985 . S
C1608 C1602 1.379 . S
C1608 C1605 1.363 . S
C1608 N1606 1.356 . S
C1609 C1603 1.363 . S
C1609 C1604 1.379 . S
C1609 N1607 1.356 . S
N1610 C1602 1.356 . S
N1610 H1616 0.984 . S
N1610 H1617 0.984 . S
N1611 C1604 1.356 . S
N1611 H1614 0.984 . S
N1611 H1615 0.985 . S
H1612 N1607 0.984 . S
H1613 N1607 0.985 . S
H1614 N1611 0.984 . S
H1615 N1611 0.985 . S
H1616 N1610 0.984 . S
H1617 N1610 0.984 . S
H1618 N1606 0.984 . S
H1619 N1606 0.985 . S
C1620 C1621 1.363 . S
C1620 C1626 1.379 . S
C1620 N1628 1.356 . S
C1621 C1620 1.363 . S
C1621 C1627 1.363 . S
C1622 C1623 1.363 . S
C1622 C1627 1.379 . S
C1622 N1629 1.356 . S
C1623 C1622 1.363 . S
C1623 C1626 1.363 . S
N1624 C1626 1.356 . S
N1624 H1636 0.984 . S
N1624 H1637 0.996 . S
N1625 C1627 1.356 . S
N1625 H1630 0.984 . S
N1625 H1631 0.985 . S
C1626 C1620 1.379 . S
C1626 C1623 1.363 . S
C1626 N1624 1.356 . S
C1627 C1621 1.363 . S
C1627 C1622 1.379 . S
C1627 N1625 1.356 . S
N1628 C1620 1.356 . S
N1628 H1634 0.984 . S
N1628 H1635 0.984 . S
N1629 C1622 1.356 . S
N1629 H1632 0.984 . S
N1629 H1633 0.985 . S
H1630 N1625 0.984 . S
H1631 N1625 0.985 . S
H1632 N1629 0.984 . S
H1633 N1629 0.985 . S
H1634 N1628 0.984 . S
H1635 N1628 0.984 . S
H1636 N1624 0.984 . S
H1637 N1624 0.996 . S
C1638 C1639 1.363 . S
C1638 C1644 1.379 . S
C1638 N1646 1.356 . S
C1639 C1638 1.363 . S
C1639 C1645 1.363 . S
C1640 C1641 1.363 . S
C1640 C1645 1.379 . S
C1640 N1647 1.356 . S
C1641 C1640 1.363 . S
C1641 C1644 1.363 . S
N1642 C1644 1.356 . S
N1642 H1654 0.984 . S
N1642 H1655 0.985 . S
N1643 C1645 1.356 . S
N1643 H1648 0.984 . S
N1643 H1649 0.985 . S
C1644 C1638 1.379 . S
C1644 C1641 1.363 . S
C1644 N1642 1.356 . S
C1645 C1639 1.363 . S
C1645 C1640 1.379 . S
C1645 N1643 1.356 . S
N1646 C1638 1.356 . S
N1646 H1652 0.984 . S
N1646 H1653 0.984 . S
N1647 C1640 1.356 . S
N1647 H1650 0.984 . S
N1647 H1651 0.985 . S
H1648 N1643 0.984 . S
H1649 N1643 0.985 . S
H1650 N1647 0.984 . S
H1651 N1647 0.985 . S
H1652 N1646 0.984 . S
H1653 N1646 0.984 . S
H1654 N1642 0.984 . S
H1655 N1642 0.985 . S
C1656 C1657 1.363 . S
C1656 C1662 1.379 . S
C1656 N1664 1.356 . S
C1657 C1656 1.363 . S
C1657 C1663 1.363 . S
C1658 C1659 1.363 . S
C1658 C1663 1.379 . S
C1658 N1665 1.356 . S
C1659 C1658 1.363 . S
C1659 C1662 1.363 . S
N1660 C1662 1.356 . S
N1660 H1672 0.984 . S
N1660 H1673 0.985 . S
N1661 C1663 1.356 . S
N1661 H1666 0.984 . S
N1661 H1667 0.985 . S
C1662 C1656 1.379 . S
C1662 C1659 1.363 . S
C1662 N1660 1.356 . S
C1663 C1657 1.363 . S
C1663 C1658 1.379 . S
C1663 N1661 1.356 . S
N1664 C1656 1.356 . S
N1664 H1670 0.984 . S
N1664 H1671 0.984 . S
N1665 C1658 1.356 . S
N1665 H1668 0.984 . S
N1665 H1669 0.985 . S
H1666 N1661 0.984 . S
H1667 N1661 0.985 . S
H1668 N1665 0.984 . S
H1669 N1665 0.985 . S
H1670 N1664 0.984 . S
H1671 N1664 0.984 . S
H1672 N1660 0.984 . S
H1673 N1660 0.985 . S
C1674 C1675 1.363 . S
C1674 C1680 1.379 . S
C1674 N1682 1.356 . S
C1675 C1674 1.363 . S
C1675 C1681 1.363 . S
C1676 C1677 1.363 . S
C1676 C1681 1.379 . S
C1676 N1683 1.356 . S
C1677 C1676 1.363 . S
C1677 C1680 1.363 . S
N1678 C1680 1.356 . S
N1678 H1690 0.984 . S
N1678 H1691 0.985 . S
N1679 C1681 1.356 . S
N1679 H1684 0.984 . S
N1679 H1685 0.985 . S
C1680 C1674 1.379 . S
C1680 C1677 1.363 . S
C1680 N1678 1.356 . S
C1681 C1675 1.363 . S
C1681 C1676 1.379 . S
C1681 N1679 1.356 . S
N1682 C1674 1.356 . S
N1682 H1688 0.984 . S
N1682 H1689 0.984 . S
N1683 C1676 1.356 . S
N1683 H1686 0.984 . S
N1683 H1687 0.985 . S
H1684 N1679 0.984 . S
H1685 N1679 0.985 . S
H1686 N1683 0.984 . S
H1687 N1683 0.985 . S
H1688 N1682 0.984 . S
H1689 N1682 0.984 . S
H1690 N1678 0.984 . S
H1691 N1678 0.985 . S
C1692 C1693 1.363 . S
C1692 C1698 1.379 . S
C1692 N1700 1.356 . S
C1693 C1692 1.363 . S
C1693 C1699 1.363 . S
C1694 C1695 1.363 . S
C1694 C1699 1.379 . S
C1694 N1701 1.356 . S
C1695 C1694 1.363 . S
C1695 C1698 1.363 . S
N1696 C1698 1.356 . S
N1696 H1708 0.984 . S
N1696 H1709 0.985 . S
N1697 C1699 1.356 . S
N1697 H1702 0.984 . S
N1697 H1703 0.985 . S
C1698 C1692 1.379 . S
C1698 C1695 1.363 . S
C1698 N1696 1.356 . S
C1699 C1693 1.363 . S
C1699 C1694 1.379 . S
C1699 N1697 1.356 . S
N1700 C1692 1.356 . S
N1700 H1706 0.984 . S
N1700 H1707 0.984 . S
N1701 C1694 1.356 . S
N1701 H1704 0.984 . S
N1701 H1705 0.985 . S
H1702 N1697 0.984 . S
H1703 N1697 0.985 . S
H1704 N1701 0.984 . S
H1705 N1701 0.985 . S
H1706 N1700 0.984 . S
H1707 N1700 0.984 . S
H1708 N1696 0.984 . S
H1709 N1696 0.985 . S
C1063 C180 1.363 . S
C1065 C3 1.363 . S
C1081 C241 1.364 . S
C1083 C64 1.364 . S
C1099 C121 1.363 . S
C1101 C298 1.363 . S
C1117 C123 1.363 . S
C1119 C300 1.363 . S
C1135 C5 1.362 . S
C1137 C182 1.362 . S
C1153 C239 1.361 . S
C1155 C62 1.361 . S
C1171 C534 1.359 . S
C1173 C359 1.362 . S
C1189 C418 1.363 . S
C1191 C593 1.360 . S
C1207 C477 1.364 . S
C1209 C652 1.360 . S
C1225 C654 1.367 . S
C1227 C475 1.363 . S
C1243 C536 1.365 . S
C1245 C357 1.362 . S
C1261 C595 1.366 . S
C1263 C416 1.362 . S
C1279 C711 1.363 . S
C1281 C888 1.363 . S
C1297 C772 1.364 . S
C1299 C949 1.364 . S
C1315 C829 1.364 . S
C1317 C1006 1.364 . S
C1333 C1008 1.363 . S
C1335 C831 1.363 . S
C1351 C890 1.363 . S
C1353 C713 1.363 . S
C1369 C947 1.362 . S
C1371 C770 1.362 . S
C1387 C33 1.538 . S
C1389 C446 1.539 . S
C1405 C111 1.539 . S
C1407 C505 1.540 . S
C1423 C387 1.538 1_545 S
C1425 C151 1.538 . S
C1441 C170 1.539 . S
C1443 C819 1.539 1_554 S
C1459 C859 1.539 1_454 S
C1461 C52 1.538 . S
C1477 C741 1.537 1_554 S
C1479 C92 1.537 . S
C1495 C977 1.537 1_455 S
C1497 C210 1.537 . S
C1513 C288 1.539 . S
C1515 C1055 1.539 . S
C1531 C937 1.538 . S
C1533 C328 1.539 . S
C1549 C623 1.538 1_546 S
C1551 C347 1.537 . S
C1567 C229 1.537 . S
C1569 C682 1.539 1_556 S
C1585 C269 1.537 . S
C1587 C564 1.537 1_556 S
C1603 C406 1.537 . S
C1605 C800 1.538 . S
C1621 C465 1.538 . S
C1623 C878 1.538 . S
C1639 C524 1.538 . S
C1641 C760 1.538 . S
C1657 C996 1.540 . S
C1659 C701 1.540 . S
C1675 C1036 1.539 . S
C1677 C583 1.538 . S
C1693 C642 1.538 . S
C1695 C918 1.540 . S
