# Generated by pormake.
# Topology mmt, (4)-cn, num edge types: 1
# Building blocks:
#     Node 0, Type 0, BuildingBlock: AZAVOO_clean_sbu_0, # of connection points: 4
#     Node 1, Type 0, BuildingBlock: AZAVOO_clean_sbu_0, # of connection points: 4
#     Node 2, Type 0, BuildingBlock: AZAVOO_clean_sbu_0, # of connection points: 4
#     Node 3, Type 0, BuildingBlock: AZAVOO_clean_sbu_0, # of connection points: 4
#     Node 4, Type 0, BuildingBlock: AZAVOO_clean_sbu_0, # of connection points: 4
#     Node 5, Type 0, BuildingBlock: AZAVOO_clean_sbu_0, # of connection points: 4
#     Node 6, Type 0, BuildingBlock: AZAVOO_clean_sbu_0, # of connection points: 4
#     Node 7, Type 0, BuildingBlock: AZAVOO_clean_sbu_0, # of connection points: 4
#     Edge 8, Type (0, 0), BuildingBlock: ZUJKAS_clean_linker_0, # of connection points: 2
#     Edge 9, Type (0, 0), BuildingBlock: ZUJKAS_clean_linker_0, # of connection points: 2
#     Edge 10, Type (0, 0), BuildingBlock: ZUJKAS_clean_linker_0, # of connection points: 2
#     Edge 11, Type (0, 0), BuildingBlock: ZUJKAS_clean_linker_0, # of connection points: 2
#     Edge 12, Type (0, 0), BuildingBlock: ZUJKAS_clean_linker_0, # of connection points: 2
#     Edge 13, Type (0, 0), BuildingBlock: ZUJKAS_clean_linker_0, # of connection points: 2
#     Edge 14, Type (0, 0), BuildingBlock: ZUJKAS_clean_linker_0, # of connection points: 2
#     Edge 15, Type (0, 0), BuildingBlock: ZUJKAS_clean_linker_0, # of connection points: 2
#     Edge 16, Type (0, 0), BuildingBlock: ZUJKAS_clean_linker_0, # of connection points: 2
#     Edge 17, Type (0, 0), BuildingBlock: ZUJKAS_clean_linker_0, # of connection points: 2
#     Edge 18, Type (0, 0), BuildingBlock: ZUJKAS_clean_linker_0, # of connection points: 2
#     Edge 19, Type (0, 0), BuildingBlock: ZUJKAS_clean_linker_0, # of connection points: 2
#     Edge 20, Type (0, 0), BuildingBlock: ZUJKAS_clean_linker_0, # of connection points: 2
#     Edge 21, Type (0, 0), BuildingBlock: ZUJKAS_clean_linker_0, # of connection points: 2
#     Edge 22, Type (0, 0), BuildingBlock: ZUJKAS_clean_linker_0, # of connection points: 2
#     Edge 23, Type (0, 0), BuildingBlock: ZUJKAS_clean_linker_0, # of connection points: 2
# Relax obj value: 0.101
# Max RMSD: 0.150
# Mean RMSD: 0.150
data_MOF--net-mmt--node1-AZAVOO_clean_sbu_0--edge1-ZUJKAS_clean_linker_0
_symmetry_space_group_name_H-M    P1
_symmetry_Int_Tables_number       1
_symmetry_cell_setting            triclinic
loop_
_symmetry_equiv_pos_as_xyz
'x, y, z'
_cell_length_a     26.549514
_cell_length_b     51.917907
_cell_length_c     55.794435
_cell_angle_alpha  89.975569
_cell_angle_beta   90.01702
_cell_angle_gamma 90.051278
loop_
_atom_site_label
_atom_site_type_symbol
_atom_site_fract_x
_atom_site_fract_y
_atom_site_fract_z
_atom_type_partial_charge
Mg0 Mg 0.24928 0.55551 0.37082 0.0
O1 O 0.19231 0.55685 0.33967 0.0
O2 O 0.23148 0.57402 0.308 0.0
Mg3 Mg 0.31302 0.58291 0.31827 0.0
C4 C 0.19234 0.56441 0.31785 0.0
C5 C 0.19316 0.52966 0.41306 0.0
O6 O 0.23628 0.51726 0.41292 0.0
O7 O 0.24252 0.59928 0.37645 0.0
O8 O 0.28584 0.61345 0.34473 0.0
O9 O 0.27658 0.51663 0.3582 0.0
O10 O 0.30879 0.55369 0.34656 0.0
C11 C 0.26154 0.61764 0.36409 0.0
C12 C 0.30825 0.52903 0.34482 0.0
O13 O 0.18578 0.54717 0.39749 0.0
Mg14 Mg 0.25478 0.94573 0.36747 0.0
O15 O 0.31368 0.94387 0.33717 0.0
O16 O 0.27619 0.9262 0.30528 0.0
Mg17 Mg 0.19401 0.91749 0.31446 0.0
C18 C 0.31481 0.93597 0.31547 0.0
C19 C 0.32966 0.97665 0.40055 0.0
O20 O 0.30841 0.99597 0.38919 0.0
O21 O 0.26068 0.90203 0.37375 0.0
O22 O 0.219 0.8873 0.34178 0.0
O23 O 0.22824 0.98446 0.35382 0.0
O24 O 0.1968 0.94725 0.34226 0.0
C25 C 0.24212 0.88347 0.36154 0.0
C26 C 0.19746 0.97187 0.34016 0.0
O27 O 0.31664 0.95376 0.39524 0.0
Mg28 Mg 0.74696 0.44855 0.13342 0.0
O29 O 0.69124 0.4466 0.16498 0.0
O30 O 0.73114 0.4288 0.19612 0.0
Mg31 Mg 0.8121 0.41985 0.18498 0.0
C32 C 0.69182 0.43866 0.18667 0.0
C33 C 0.68889 0.45447 0.08524 0.0
O34 O 0.73213 0.44519 0.07775 0.0
O35 O 0.73907 0.40493 0.12703 0.0
O36 O 0.78296 0.39003 0.15827 0.0
O37 O 0.77524 0.48704 0.1466 0.0
O38 O 0.80745 0.44966 0.15725 0.0
C39 C 0.75793 0.38628 0.13903 0.0
C40 C 0.80717 0.47428 0.15951 0.0
O41 O 0.68234 0.45777 0.10762 0.0
Mg42 Mg 0.75284 0.05756 0.13114 0.0
O43 O 0.81267 0.05834 0.16115 0.0
O44 O 0.77611 0.07528 0.19361 0.0
Mg45 Mg 0.69398 0.0846 0.18508 0.0
C46 C 0.81436 0.06567 0.18302 0.0
C47 C 0.83754 0.02882 0.10178 0.0
O48 O 0.82892 0.01113 0.11812 0.0
O49 O 0.75952 0.10134 0.12584 0.0
O50 O 0.71962 0.11548 0.15853 0.0
O51 O 0.72604 0.01857 0.14388 0.0
O52 O 0.69559 0.05555 0.1566 0.0
C53 C 0.74229 0.11969 0.13872 0.0
C54 C 0.69585 0.03087 0.15806 0.0
O55 O 0.81342 0.04995 0.10276 0.0
Mg56 Mg 0.76143 0.44332 0.63333 0.0
O57 O 0.81783 0.43959 0.66451 0.0
O58 O 0.77689 0.42256 0.69572 0.0
Mg59 Mg 0.69484 0.41556 0.68489 0.0
C60 C 0.81693 0.43154 0.68616 0.0
C61 C 0.81871 0.46885 0.59146 0.0
O62 O 0.77568 0.48134 0.59149 0.0
O63 O 0.76474 0.39966 0.62636 0.0
O64 O 0.72021 0.38537 0.65766 0.0
O65 O 0.73762 0.48222 0.64746 0.0
O66 O 0.70181 0.44544 0.65743 0.0
C67 C 0.7443 0.38131 0.63821 0.0
C68 C 0.70475 0.46993 0.66024 0.0
O69 O 0.82576 0.45132 0.60704 0.0
Mg70 Mg 0.73791 0.05381 0.63392 0.0
O71 O 0.67708 0.05679 0.66338 0.0
O72 O 0.71402 0.07438 0.69552 0.0
Mg73 Mg 0.79734 0.08155 0.68761 0.0
C74 C 0.67537 0.06503 0.68498 0.0
C75 C 0.66505 0.02402 0.59911 0.0
O76 O 0.6854 0.00445 0.61046 0.0
O77 O 0.73506 0.09755 0.62746 0.0
O78 O 0.77605 0.11189 0.65976 0.0
O79 O 0.76074 0.01451 0.64756 0.0
O80 O 0.79273 0.05111 0.66059 0.0
C81 C 0.75418 0.11592 0.63973 0.0
C82 C 0.78976 0.0265 0.66247 0.0
O83 O 0.67796 0.04678 0.60496 0.0
Mg84 Mg 0.25821 0.55082 0.86809 0.0
O85 O 0.31663 0.55099 0.83758 0.0
O86 O 0.27866 0.56495 0.80427 0.0
Mg87 Mg 0.19733 0.57527 0.81353 0.0
C88 C 0.31749 0.55655 0.81527 0.0
C89 C 0.31109 0.52827 0.91278 0.0
O90 O 0.26582 0.51814 0.91424 0.0
O91 O 0.26529 0.59474 0.87183 0.0
O92 O 0.2255 0.60723 0.83846 0.0
O93 O 0.2311 0.51142 0.85679 0.0
O94 O 0.19948 0.54789 0.84339 0.0
C95 C 0.24859 0.61242 0.85797 0.0
C96 C 0.19985 0.52317 0.84273 0.0
O97 O 0.32086 0.54339 0.89545 0.0
Mg98 Mg 0.24159 0.94329 0.86994 0.0
O99 O 0.18039 0.94476 0.84062 0.0
O100 O 0.214 0.92904 0.80693 0.0
Mg101 Mg 0.29549 0.91751 0.81432 0.0
C102 C 0.17702 0.93869 0.81846 0.0
C103 C 0.15869 0.97205 0.90026 0.0
O104 O 0.16653 0.98963 0.88373 0.0
O105 O 0.23178 0.89957 0.87368 0.0
O106 O 0.26721 0.88589 0.83963 0.0
O107 O 0.27008 0.98222 0.85829 0.0
O108 O 0.29769 0.94531 0.8439 0.0
C109 C 0.24549 0.88144 0.85964 0.0
C110 C 0.2987 0.97005 0.84331 0.0
O111 O 0.18276 0.95091 0.89913 0.0
H112 H 0.38196 0.55076 0.31767 0.0
H113 H 0.44 0.52968 0.2904 0.0
H114 H 0.37253 0.45612 0.30658 0.0
H115 H 0.31259 0.47738 0.3337 0.0
H116 H 0.50921 0.49278 0.30302 0.0
H117 H 0.37875 0.4563 0.23271 0.0
H118 H 0.36034 0.48054 0.25419 0.0
H119 H 0.36423 0.44738 0.26309 0.0
C120 C 0.37854 0.53017 0.31518 0.0
C121 C 0.34213 0.51581 0.3277 0.0
C122 C 0.4121 0.51811 0.29964 0.0
C123 C 0.41034 0.49138 0.29626 0.0
C124 C 0.37396 0.47685 0.3086 0.0
H125 H 0.6728 0.41758 0.23072 0.0
H126 H 0.60189 0.42658 0.2573 0.0
C127 C 0.33998 0.48899 0.32419 0.0
C128 C 0.44872 0.47906 0.28074 0.0
H129 H 0.46524 0.44716 0.22777 0.0
C130 C 0.49962 0.4826 0.28666 0.0
C131 C 0.436 0.46602 0.25932 0.0
C132 C 0.38192 0.46242 0.25174 0.0
C133 C 0.53824 0.47407 0.27151 0.0
C134 C 0.52566 0.46101 0.25006 0.0
C135 C 0.47473 0.457 0.24431 0.0
C136 C 0.56504 0.45283 0.23282 0.0
C137 C 0.59212 0.48014 0.27814 0.0
C138 C 0.56659 0.46361 0.20975 0.0
C139 C 0.60685 0.45829 0.19436 0.0
C140 C 0.64642 0.44215 0.20182 0.0
C141 C 0.6434 0.4304 0.22452 0.0
C142 C 0.60293 0.43556 0.23978 0.0
H143 H 0.59453 0.49548 0.29198 0.0
H144 H 0.61021 0.46259 0.28551 0.0
H145 H 0.61391 0.48642 0.26219 0.0
H146 H 0.5376 0.47692 0.20398 0.0
H147 H 0.60782 0.46758 0.17698 0.0
H148 H 0.89634 0.03593 0.17147 0.0
H149 H 0.96778 0.02505 0.19737 0.0
H150 H 0.90989 0.07545 0.2522 0.0
H151 H 0.83803 0.08605 0.22676 0.0
H152 H 0.04364 0.05376 0.22155 0.0
H153 H 0.91342 0.00484 0.2849 0.0
H154 H 0.89413 0.01483 0.25533 0.0
H155 H 0.89859 0.038 0.27917 0.0
C156 C 0.8991 0.04495 0.18892 0.0
C157 C 0.86098 0.06154 0.19718 0.0
C158 C 0.94002 0.03874 0.20368 0.0
C159 C 0.94358 0.04907 0.22687 0.0
C160 C 0.90729 0.06685 0.23456 0.0
H161 H 0.19359 0.02336 0.32833 0.0
H162 H 0.13484 0.04424 0.30035 0.0
C163 C 0.86625 0.07291 0.21995 0.0
C164 C 0.98299 0.03983 0.24364 0.0
H165 H 0.9988 0.00711 0.29617 0.0
C166 C 0.03398 0.04363 0.23792 0.0
C167 C 0.97017 0.02638 0.26486 0.0
C168 C 0.91617 0.02052 0.2714 0.0
C169 C 0.07254 0.03425 0.25287 0.0
C170 C 0.05959 0.021 0.27416 0.0
C171 C 0.00862 0.01745 0.27993 0.0
C172 C 0.09778 0.00882 0.28992 0.0
C173 C 0.1267 0.03782 0.24543 0.0
C174 C 0.0961 0.98211 0.2935 0.0
C175 C 0.12899 0.97027 0.30953 0.0
C176 C 0.1646 0.98482 0.32238 0.0
C177 C 0.1668 0.0116 0.3186 0.0
C178 C 0.13351 0.02353 0.30251 0.0
H179 H 0.13005 0.0439 0.2264 0.0
H180 H 0.14425 0.0529 0.25679 0.0
H181 H 0.14827 0.01971 0.248 0.0
H182 H 0.06867 0.97041 0.28409 0.0
H183 H 0.12554 0.94971 0.3122 0.0
H184 H 0.88137 0.45187 0.18589 0.0
H185 H 0.93965 0.47222 0.2136 0.0
H186 H 0.87202 0.54615 0.19932 0.0
H187 H 0.81183 0.5256 0.17183 0.0
H188 H 0.00887 0.50907 0.20218 0.0
H189 H 0.87862 0.54446 0.27289 0.0
H190 H 0.85985 0.52095 0.25078 0.0
H191 H 0.86419 0.55438 0.24279 0.0
C192 C 0.87798 0.47238 0.1889 0.0
C193 C 0.84142 0.48704 0.17682 0.0
C194 C 0.91167 0.48403 0.20469 0.0
C195 C 0.90991 0.51065 0.20875 0.0
C196 C 0.87344 0.52548 0.1968 0.0
H197 H 0.17202 0.58508 0.27379 0.0
H198 H 0.10086 0.57543 0.24753 0.0
C199 C 0.83932 0.51375 0.18099 0.0
C200 C 0.94838 0.52261 0.22453 0.0
H201 H 0.96504 0.55428 0.27764 0.0
C202 C 0.99928 0.51911 0.2186 0.0
C203 C 0.93573 0.53546 0.24605 0.0
C204 C 0.88169 0.53893 0.25372 0.0
C205 C 0.03794 0.52763 0.23378 0.0
C206 C 0.02542 0.54065 0.25525 0.0
C207 C 0.9745 0.54449 0.26107 0.0
C208 C 0.06491 0.54918 0.27233 0.0
C209 C 0.0918 0.52168 0.22709 0.0
C210 C 0.06701 0.53863 0.29548 0.0
C211 C 0.10743 0.54432 0.3107 0.0
C212 C 0.14659 0.56062 0.30297 0.0
C213 C 0.14296 0.57214 0.2802 0.0
C214 C 0.10235 0.56661 0.26511 0.0
H215 H 0.09419 0.50622 0.21337 0.0
H216 H 0.10965 0.53922 0.21953 0.0
H217 H 0.11383 0.51562 0.24305 0.0
H218 H 0.03836 0.52521 0.30145 0.0
H219 H 0.1089 0.53519 0.32814 0.0
H220 H 0.62495 0.05242 0.18694 0.0
H221 H 0.56821 0.03103 0.2147 0.0
H222 H 0.63283 0.95751 0.19619 0.0
H223 H 0.69137 0.97905 0.16853 0.0
H224 H 0.4975 0.99461 0.20176 0.0
H225 H 0.62968 0.956 0.2703 0.0
H226 H 0.6476 0.98085 0.2493 0.0
H227 H 0.64329 0.94797 0.23962 0.0
C228 C 0.62806 0.03176 0.18902 0.0
C229 C 0.66316 0.01749 0.17564 0.0
C230 C 0.59526 0.01953 0.20486 0.0
C231 C 0.59656 0.99272 0.2077 0.0
C232 C 0.63179 0.97829 0.19458 0.0
H233 H 0.33656 0.91557 0.27148 0.0
H234 H 0.40795 0.92585 0.24559 0.0
C235 C 0.66496 0.9906 0.17868 0.0
C236 C 0.55852 0.98019 0.22331 0.0
H237 H 0.54322 0.94656 0.27548 0.0
C238 C 0.50749 0.98393 0.21779 0.0
C239 C 0.57174 0.96651 0.24432 0.0
C240 C 0.626 0.96267 0.25146 0.0
C241 C 0.46923 0.97481 0.23289 0.0
C242 C 0.48231 0.96101 0.25386 0.0
C243 C 0.53336 0.95696 0.25929 0.0
C244 C 0.44317 0.95186 0.27083 0.0
C245 C 0.41517 0.98092 0.22667 0.0
C246 C 0.44062 0.96207 0.29408 0.0
C247 C 0.39999 0.95607 0.30907 0.0
C248 C 0.36113 0.93978 0.301 0.0
C249 C 0.36539 0.92848 0.27816 0.0
C250 C 0.40614 0.93436 0.26329 0.0
H251 H 0.41234 0.99668 0.21327 0.0
H252 H 0.39708 0.96354 0.21893 0.0
H253 H 0.39367 0.9866 0.24289 0.0
H254 H 0.46895 0.97555 0.30027 0.0
H255 H 0.39806 0.96502 0.32658 0.0
H256 H 0.41355 0.55087 0.83263 0.0
H257 H 0.49066 0.54337 0.8096 0.0
H258 H 0.40452 0.54459 0.74402 0.0
H259 H 0.32803 0.55309 0.76673 0.0
H260 H 0.51574 0.50448 0.78363 0.0
H261 H 0.5186 0.58907 0.7241 0.0
H262 H 0.47711 0.58709 0.74965 0.0
H263 H 0.45923 0.57295 0.72136 0.0
C264 C 0.41119 0.54985 0.81327 0.0
C265 C 0.36464 0.55269 0.80151 0.0
C266 C 0.45532 0.54562 0.80012 0.0
C267 C 0.45376 0.54399 0.77499 0.0
C268 C 0.40722 0.5467 0.76328 0.0
H269 H 0.62171 0.45043 0.68188 0.0
H270 H 0.56813 0.47074 0.71165 0.0
C271 C 0.3633 0.5513 0.77635 0.0
C272 C 0.49963 0.53718 0.76106 0.0
H273 H 0.56287 0.55115 0.70934 0.0
C274 C 0.52658 0.51503 0.76765 0.0
C275 C 0.51499 0.55121 0.74052 0.0
C276 C 0.49125 0.57656 0.7337 0.0
C277 C 0.56595 0.50555 0.75341 0.0
C278 C 0.5776 0.51804 0.73154 0.0
C279 C 0.55324 0.54123 0.72582 0.0
C280 C 0.61133 0.50607 0.71348 0.0
C281 C 0.59408 0.48197 0.76182 0.0
C282 C 0.65245 0.51957 0.70372 0.0
C283 C 0.68304 0.50804 0.68625 0.0
C284 C 0.67288 0.48285 0.67835 0.0
C285 C 0.63123 0.46966 0.68791 0.0
C286 C 0.60064 0.48121 0.70508 0.0
H287 H 0.59449 0.4808 0.78171 0.0
H288 H 0.57477 0.46447 0.75504 0.0
H289 H 0.63356 0.4819 0.75526 0.0
H290 H 0.66101 0.53893 0.70971 0.0
H291 H 0.71475 0.51871 0.67912 0.0
H292 H 0.83959 0.98077 0.65891 0.0
H293 H 0.89697 0.96187 0.68857 0.0
H294 H 0.85936 0.02239 0.73844 0.0
H295 H 0.80312 0.04145 0.70875 0.0
H296 H 0.95806 0.0186 0.73305 0.0
H297 H 0.88092 0.92098 0.7493 0.0
H298 H 0.89186 0.92732 0.71812 0.0
H299 H 0.84542 0.94577 0.73415 0.0
C300 C 0.84293 0.98967 0.6764 0.0
C301 C 0.81776 0.01281 0.68142 0.0
C302 C 0.87549 0.97881 0.69339 0.0
C303 C 0.88235 0.99063 0.71583 0.0
C304 C 0.85496 0.013 0.72122 0.0
H305 H 0.09549 0.96694 0.83343 0.0
H306 H 0.02059 0.97834 0.81005 0.0
C307 C 0.82309 0.024 0.70417 0.0
C308 C 0.92173 0.98146 0.73274 0.0
H309 H 0.96519 0.92873 0.76307 0.0
C310 C 0.95916 0.99902 0.73984 0.0
C311 C 0.92334 0.95589 0.74154 0.0
C312 C 0.88295 0.93647 0.73558 0.0
C313 C 0.99866 0.99162 0.75502 0.0
C314 C 0.00075 0.966 0.76345 0.0
C315 C 0.96329 0.9484 0.75657 0.0
C316 C 0.04311 0.95704 0.77853 0.0
C317 C 0.03876 0.01107 0.76144 0.0
C318 C 0.07982 0.94082 0.76868 0.0
C319 C 0.12271 0.93439 0.78189 0.0
C320 C 0.12953 0.94391 0.8053 0.0
C321 C 0.09155 0.95933 0.81546 0.0
C322 C 0.04876 0.96589 0.80213 0.0
H323 H 0.03583 0.02891 0.75053 0.0
H324 H 0.03491 0.0164 0.78061 0.0
H325 H 0.07685 0.00268 0.7589 0.0
H326 H 0.07605 0.93382 0.75048 0.0
H327 H 0.15095 0.92231 0.77355 0.0
H328 H 0.12561 0.54351 0.81499 0.0
H329 H 0.067 0.52102 0.78885 0.0
H330 H 0.13649 0.44854 0.80687 0.0
H331 H 0.19661 0.47115 0.83307 0.0
H332 H 0.11352 0.45604 0.75601 0.0
H333 H 0.95049 0.47603 0.81508 0.0
H334 H 0.98651 0.5043 0.80795 0.0
H335 H 0.01489 0.47887 0.82518 0.0
C336 C 0.1291 0.52283 0.81327 0.0
C337 C 0.16598 0.50914 0.82612 0.0
C338 C 0.09518 0.50997 0.79842 0.0
C339 C 0.09695 0.48311 0.7962 0.0
C340 C 0.13442 0.46931 0.80847 0.0
H341 H 0.83424 0.41067 0.73047 0.0
H342 H 0.90609 0.41832 0.75686 0.0
C343 C 0.1686 0.48223 0.82344 0.0
C344 C 0.05866 0.46983 0.78134 0.0
H345 H 0.93151 0.4636 0.77485 0.0
C346 C 0.07373 0.45731 0.76024 0.0
C347 C 0.00687 0.47116 0.7871 0.0
C348 C 0.98865 0.48309 0.81019 0.0
C349 C 0.03803 0.44721 0.74413 0.0
C350 C 0.98604 0.45015 0.74913 0.0
C351 C 0.97128 0.46154 0.77084 0.0
C352 C 0.94601 0.44275 0.73181 0.0
C353 C 0.05638 0.43364 0.7219 0.0
C354 C 0.94471 0.45368 0.70878 0.0
C355 C 0.90375 0.44921 0.69355 0.0
C356 C 0.86284 0.43405 0.70118 0.0
C357 C 0.86492 0.42257 0.72402 0.0
C358 C 0.90605 0.42688 0.73914 0.0
H359 H 0.09464 0.42548 0.72459 0.0
H360 H 0.03042 0.41786 0.71657 0.0
H361 H 0.0586 0.44769 0.70695 0.0
H362 H 0.97439 0.46654 0.70291 0.0
H363 H 0.90331 0.45849 0.67615 0.0
H364 H 0.36875 0.949 0.8136 0.0
H365 H 0.42522 0.97109 0.78602 0.0
H366 H 0.36011 0.04408 0.80576 0.0
H367 H 0.30244 0.02196 0.83348 0.0
H368 H 0.37843 0.03502 0.75334 0.0
H369 H 0.54433 0.01661 0.81142 0.0
H370 H 0.50663 0.98862 0.80527 0.0
H371 H 0.4804 0.0147 0.82234 0.0
C372 C 0.36577 0.96972 0.81194 0.0
C373 C 0.33099 0.98372 0.82577 0.0
C374 C 0.39835 0.98232 0.79623 0.0
C375 C 0.39711 0.00919 0.79405 0.0
C376 C 0.36162 0.02329 0.80727 0.0
H377 H 0.65272 0.08662 0.72832 0.0
H378 H 0.58058 0.07729 0.75396 0.0
C379 C 0.32888 0.01065 0.82312 0.0
C380 C 0.4345 0.02229 0.77857 0.0
H381 H 0.56111 0.03029 0.77156 0.0
C382 C 0.41836 0.03431 0.75739 0.0
C383 C 0.48643 0.02157 0.78408 0.0
C384 C 0.50562 0.00989 0.80712 0.0
C385 C 0.45322 0.04478 0.74106 0.0
C386 C 0.50538 0.04282 0.746 0.0
C387 C 0.52117 0.03166 0.76767 0.0
C388 C 0.54475 0.05137 0.72884 0.0
C389 C 0.43389 0.05779 0.71871 0.0
C390 C 0.54819 0.04028 0.70593 0.0
C391 C 0.58941 0.04568 0.6911 0.0
C392 C 0.62832 0.062 0.69906 0.0
C393 C 0.62368 0.07383 0.72165 0.0
C394 C 0.58238 0.06855 0.73635 0.0
H395 H 0.39458 0.06466 0.72108 0.0
H396 H 0.45802 0.0744 0.71364 0.0
H397 H 0.43411 0.04377 0.70371 0.0
H398 H 0.52023 0.02653 0.69993 0.0
H399 H 0.59188 0.03614 0.67388 0.0
H400 H 0.10037 0.55201 0.41925 0.0
H401 H 0.03735 0.5418 0.44992 0.0
H402 H 0.13462 0.4828 0.47843 0.0
H403 H 0.19793 0.49302 0.44814 0.0
H404 H 0.9881 0.49493 0.45887 0.0
H405 H 0.10047 0.52556 0.53778 0.0
H406 H 0.11715 0.53439 0.50751 0.0
H407 H 0.13183 0.50281 0.51872 0.0
C408 C 0.10843 0.53692 0.43209 0.0
C409 C 0.15436 0.52344 0.43131 0.0
C410 C 0.07236 0.5311 0.44959 0.0
C411 C 0.08165 0.51184 0.46671 0.0
C412 C 0.12711 0.49813 0.46575 0.0
H413 H 0.9114 0.44632 0.58544 0.0
H414 H 0.97466 0.45635 0.55482 0.0
C415 C 0.16316 0.50391 0.4483 0.0
C416 C 0.0434 0.50567 0.48526 0.0
H417 H 0.0243 0.50316 0.54579 0.0
C418 C 0.99588 0.49685 0.47787 0.0
C419 C 0.05374 0.50809 0.51005 0.0
C420 C 0.10338 0.51845 0.51906 0.0
C421 C 0.95868 0.48998 0.49461 0.0
C422 C 0.969 0.49243 0.5194 0.0
C423 C 0.01653 0.50122 0.52678 0.0
C424 C 0.93066 0.48637 0.53794 0.0
C425 C 0.90903 0.47964 0.4856 0.0
C426 C 0.88532 0.50018 0.53883 0.0
C427 C 0.84915 0.49449 0.55625 0.0
C428 C 0.8577 0.47497 0.57327 0.0
C429 C 0.90353 0.46141 0.57257 0.0
C430 C 0.93973 0.46712 0.5551 0.0
H431 H 0.91197 0.47247 0.46689 0.0
H432 H 0.89519 0.46373 0.49718 0.0
H433 H 0.88062 0.4953 0.48588 0.0
H434 H 0.87798 0.51549 0.52612 0.0
H435 H 0.81446 0.50545 0.55635 0.0
H436 H 0.37724 0.94137 0.42932 0.0
H437 H 0.4341 0.94998 0.46296 0.0
H438 H 0.42208 0.03156 0.44971 0.0
H439 H 0.36481 0.02322 0.4163 0.0
H440 H 0.52686 0.97579 0.46403 0.0
H441 H 0.38558 0.02565 0.52077 0.0
H442 H 0.36824 0.00682 0.49485 0.0
H443 H 0.3924 0.03894 0.49123 0.0
C444 C 0.3867 0.96116 0.43354 0.0
C445 C 0.36613 0.98161 0.42019 0.0
C446 C 0.41921 0.96603 0.45277 0.0
C447 C 0.43159 0.99142 0.45913 0.0
C448 C 0.41214 0.01184 0.44548 0.0
H449 H 0.61905 0.05987 0.57033 0.0
H450 H 0.56312 0.05191 0.53619 0.0
C451 C 0.37963 0.007 0.42627 0.0
C452 C 0.46517 0.99654 0.4799 0.0
H453 H 0.47014 0.0264 0.53443 0.0
C454 C 0.51443 0.98676 0.47947 0.0
C455 C 0.44889 0.01092 0.50001 0.0
C456 C 0.39577 0.02101 0.50194 0.0
C457 C 0.54813 0.99131 0.49843 0.0
C458 C 0.53182 0.00563 0.51857 0.0
C459 C 0.4826 0.01547 0.51897 0.0
C460 C 0.56513 0.0104 0.53951 0.0
C461 C 0.60124 0.9812 0.49651 0.0
C462 C 0.58401 0.98974 0.55301 0.0
C463 C 0.61596 0.99421 0.5725 0.0
C464 C 0.62946 0.01948 0.57901 0.0
C465 C 0.60956 0.04018 0.56578 0.0
C466 C 0.57759 0.03567 0.54625 0.0
H467 H 0.61159 0.97681 0.47765 0.0
H468 H 0.62876 0.99526 0.50383 0.0
H469 H 0.60442 0.96311 0.50701 0.0
H470 H 0.57398 0.97011 0.54848 0.0
H471 H 0.63027 0.97781 0.58238 0.0
H472 H 0.69129 0.44922 0.03651 0.0
H473 H 0.62746 0.46258 0.0075 0.0
H474 H 0.53292 0.48952 0.06507 0.0
H475 H 0.59684 0.47643 0.09429 0.0
H476 H 0.52732 0.44684 0.0033 0.0
H477 H 0.54081 0.55206 0.01997 0.0
H478 H 0.58786 0.52956 0.03034 0.0
H479 H 0.52946 0.53297 0.04629 0.0
C480 C 0.65698 0.45801 0.04306 0.0
C481 C 0.64934 0.46187 0.06775 0.0
C482 C 0.62051 0.46563 0.02642 0.0
C483 C 0.57579 0.47741 0.03408 0.0
C484 C 0.5676 0.48093 0.05873 0.0
H485 H 0.30126 0.49646 0.95151 0.0
H486 H 0.36569 0.48442 0.98068 0.0
C487 C 0.60406 0.47328 0.07541 0.0
C488 C 0.53746 0.48556 0.01624 0.0
H489 H 0.47466 0.53803 0.99447 0.0
C490 C 0.51584 0.46678 0.00134 0.0
C491 C 0.52307 0.51164 0.01348 0.0
C492 C 0.54676 0.5328 0.02819 0.0
C493 C 0.47961 0.4733 0.98403 0.0
C494 C 0.46408 0.49926 0.98177 0.0
C495 C 0.48632 0.51812 0.99637 0.0
C496 C 0.42473 0.50717 0.96434 0.0
C497 C 0.4588 0.45239 0.96805 0.0
C498 C 0.43613 0.52455 0.94583 0.0
C499 C 0.39923 0.53161 0.92913 0.0
C500 C 0.35015 0.5215 0.93074 0.0
C501 C 0.33871 0.50448 0.94961 0.0
C502 C 0.37558 0.49746 0.96626 0.0
H503 H 0.4836 0.43516 0.96779 0.0
H504 H 0.42135 0.44634 0.97486 0.0
H505 H 0.454 0.45945 0.9494 0.0
H506 H 0.47379 0.53239 0.94412 0.0
H507 H 0.40928 0.54481 0.91487 0.0
H508 H 0.10316 0.01557 0.90848 0.0
H509 H 0.04956 0.02506 0.94302 0.0
H510 H 0.08215 0.95017 0.97259 0.0
H511 H 0.13631 0.94058 0.93827 0.0
H512 H 0.96419 -0.00085 0.96001 0.0
H513 H 0.11712 0.99892 0.0279 0.0
H514 H 0.12945 0.00032 0.99611 0.0
H515 H 0.11359 0.97018 0.01008 0.0
C516 C 0.09897 0.00108 0.92231 0.0
C517 C 0.12435 0.97737 0.92066 0.0
C518 C 0.06828 0.00655 0.94205 0.0
C519 C 0.06256 0.98851 0.96059 0.0
C520 C 0.0869 0.9646 0.95875 0.0
H521 H 0.89333 0.98533 0.09381 0.0
H522 H 0.94759 0.97587 0.05948 0.0
C523 C 0.1176 0.95909 0.93902 0.0
C524 C 0.03066 0.99464 0.98169 0.0
H525 H 0.03349 0.00179 0.04257 0.0
C526 C 0.97935 -0.00016 0.97805 0.0
C527 C 0.05053 0.99551 0.00523 0.0
C528 C 0.10577 0.99117 0.01014 0.0
C529 C 0.94716 0.00544 0.99734 0.0
C530 C 0.96703 0.00632 0.02088 0.0
C531 C 0.01834 0.0011 0.02452 0.0
C532 C 0.9351 0.01249 0.04196 0.0
C533 C 0.89193 0.00979 0.99243 0.0
C534 C 0.9109 0.03644 0.04376 0.0
C535 C 0.87985 0.04192 0.06336 0.0
C536 C 0.87257 0.02359 0.08163 0.0
C537 C 0.89791 -0.00014 0.08004 0.0
C538 C 0.92897 0.9944 0.06043 0.0
H539 H 0.88058 0.00207 0.97465 0.0
H540 H 0.86824 0.00062 0.00644 0.0
H541 H 0.88411 0.03078 0.99253 0.0
H542 H 0.91595 0.05089 0.02997 0.0
H543 H 0.86118 0.06045 0.06407 0.0
H544 H 0.29628 0.66041 0.34128 0.0
H545 H 0.29398 0.70471 0.35477 0.0
H546 H 0.21666 0.68159 0.41923 0.0
H547 H 0.21852 0.63646 0.40572 0.0
H548 H 0.17359 0.72431 0.39648 0.0
H549 H 0.37791 0.73942 0.40681 0.0
H550 H 0.36448 0.72471 0.37845 0.0
H551 H 0.34999 0.70767 0.40575 0.0
C552 C 0.27888 0.66448 0.35842 0.0
C553 C 0.2578 0.64471 0.37247 0.0
C554 C 0.27809 0.68992 0.36621 0.0
C555 C 0.25651 0.69636 0.38831 0.0
C556 C 0.2343 0.67691 0.40229 0.0
H557 H 0.28644 0.86531 0.40311 0.0
H558 H 0.28787 0.82052 0.41755 0.0
C559 C 0.23519 0.65119 0.39449 0.0
C560 C 0.25469 0.72384 0.39542 0.0
H561 H 0.32904 0.77748 0.39517 0.0
C562 C 0.20759 0.73591 0.39697 0.0
C563 C 0.299 0.73897 0.39668 0.0
C564 C 0.35068 0.72694 0.39711 0.0
C565 C 0.20367 0.76286 0.39701 0.0
C566 C 0.2479 0.77796 0.395 0.0
C567 C 0.29507 0.76591 0.39624 0.0
C568 C 0.24579 0.80532 0.38748 0.0
C569 C 0.15203 0.7749 0.39786 0.0
C570 C 0.22296 0.81142 0.36557 0.0
C571 C 0.22243 0.83668 0.35725 0.0
C572 C 0.24502 0.8566 0.37056 0.0
C573 C 0.26861 0.85046 0.39244 0.0
C574 C 0.26926 0.82494 0.40077 0.0
H575 H 0.12538 0.76264 0.40814 0.0
H576 H 0.15319 0.79436 0.40611 0.0
H577 H 0.13717 0.77672 0.37934 0.0
H578 H 0.20604 0.79649 0.35464 0.0
H579 H 0.20414 0.8405 0.34026 0.0
H580 H 0.77183 0.13812 0.09442 0.0
H581 H 0.77222 0.1833 0.08103 0.0
H582 H 0.72183 0.20726 0.151 0.0
H583 H 0.72096 0.1628 0.1644 0.0
H584 H 0.66607 0.22866 0.11136 0.0
H585 H 0.87419 0.24013 0.10255 0.0
H586 H 0.84342 0.21381 0.08743 0.0
H587 H 0.84718 0.21393 0.11951 0.0
C588 C 0.76122 0.15307 0.10697 0.0
C589 C 0.7463 0.14678 0.13048 0.0
C590 C 0.76137 0.17883 0.09927 0.0
C591 C 0.74686 0.19856 0.11503 0.0
C592 C 0.73269 0.19229 0.1385 0.0
H593 H 0.79057 0.34298 0.16157 0.0
H594 H 0.78582 0.29878 0.1479 0.0
C595 C 0.73244 0.16679 0.14614 0.0
C596 C 0.74662 0.22603 0.10788 0.0
H597 H 0.82548 0.27769 0.10349 0.0
C598 C 0.70072 0.23942 0.10888 0.0
C599 C 0.79193 0.23988 0.10462 0.0
C600 C 0.84217 0.22637 0.1035 0.0
C601 C 0.69934 0.26645 0.10886 0.0
C602 C 0.74506 0.28031 0.1076 0.0
C603 C 0.79051 0.26691 0.10441 0.0
C604 C 0.74772 0.30775 0.11468 0.0
C605 C 0.64962 0.27997 0.11237 0.0
C606 C 0.72738 0.32759 0.10055 0.0
C607 C 0.72985 0.35326 0.10842 0.0
C608 C 0.75273 0.35933 0.13049 0.0
C609 C 0.77272 0.33921 0.14447 0.0
C610 C 0.77029 0.31383 0.13664 0.0
H611 H 0.61773 0.26624 0.11417 0.0
H612 H 0.65114 0.29221 0.12868 0.0
H613 H 0.6421 0.29277 0.09684 0.0
H614 H 0.70992 0.32325 0.08348 0.0
H615 H 0.7143 0.36829 0.09717 0.0
H616 H 0.71377 0.13432 0.59735 0.0
H617 H 0.71491 0.17907 0.58281 0.0
H618 H 0.79277 0.20257 0.64702 0.0
H619 H 0.79225 0.1586 0.66148 0.0
H620 H 0.67339 0.22228 0.6039 0.0
H621 H 0.87824 0.23604 0.59533 0.0
H622 H 0.84975 0.20445 0.59703 0.0
H623 H 0.86377 0.22225 0.62397 0.0
C624 C 0.73133 0.14904 0.60828 0.0
C625 C 0.75308 0.14276 0.63055 0.0
C626 C 0.73214 0.17454 0.5999 0.0
C627 C 0.75523 0.19401 0.61353 0.0
C628 C 0.77625 0.18776 0.63582 0.0
H629 H 0.70292 0.33885 0.65892 0.0
H630 H 0.70442 0.29477 0.64489 0.0
C631 C 0.77537 0.16252 0.64418 0.0
C632 C 0.75441 0.22138 0.60595 0.0
H633 H 0.82982 0.27463 0.60621 0.0
C634 C 0.70766 0.23367 0.60363 0.0
C635 C 0.79908 0.23625 0.60493 0.0
C636 C 0.85052 0.22397 0.60517 0.0
C637 C 0.7043 0.26064 0.6031 0.0
C638 C 0.74871 0.27555 0.60543 0.0
C639 C 0.79567 0.26323 0.60492 0.0
C640 C 0.74675 0.303 0.61265 0.0
C641 C 0.65296 0.27292 0.60139 0.0
C642 C 0.77175 0.32234 0.59962 0.0
C643 C 0.77137 0.34793 0.60777 0.0
C644 C 0.7465 0.35441 0.62923 0.0
C645 C 0.72224 0.33478 0.64226 0.0
C646 C 0.72254 0.30947 0.63412 0.0
H647 H 0.6268 0.26069 0.59079 0.0
H648 H 0.6369 0.2749 0.61966 0.0
H649 H 0.65497 0.29231 0.59304 0.0
H650 H 0.79142 0.31764 0.58319 0.0
H651 H 0.79051 0.36255 0.59733 0.0
H652 H 0.23555 0.65403 0.82912 0.0
H653 H 0.23326 0.69919 0.84046 0.0
H654 H 0.26818 0.67898 0.91355 0.0
H655 H 0.27089 0.63317 0.90228 0.0
H656 H 0.16545 0.71952 0.87662 0.0
H657 H 0.36835 0.73885 0.89559 0.0
H658 H 0.34886 0.71182 0.87744 0.0
H659 H 0.33845 0.71129 0.90917 0.0
C660 C 0.24322 0.65904 0.84761 0.0
C661 C 0.25311 0.63991 0.86483 0.0
C662 C 0.24181 0.68493 0.85405 0.0
C663 C 0.25032 0.6924 0.87783 0.0
C664 C 0.26179 0.67356 0.89506 0.0
H665 H 0.23591 0.86111 0.90499 0.0
H666 H 0.2327 0.81511 0.91585 0.0
C667 C 0.26338 0.64745 0.88858 0.0
C668 C 0.24506 0.71997 0.88409 0.0
H669 H 0.31436 0.77458 0.89282 0.0
C670 C 0.19775 0.73152 0.88081 0.0
C671 C 0.28724 0.7355 0.88961 0.0
C672 C 0.33878 0.72393 0.89312 0.0
C673 C 0.19223 0.75836 0.88123 0.0
C674 C 0.23504 0.77395 0.88496 0.0
C675 C 0.28162 0.76243 0.89007 0.0
C676 C 0.23395 0.8017 0.87917 0.0
C677 C 0.14134 0.77003 0.87614 0.0
C678 C 0.23522 0.80912 0.85505 0.0
C679 C 0.23744 0.83508 0.84885 0.0
C680 C 0.23807 0.85422 0.86666 0.0
C681 C 0.23517 0.84679 0.89089 0.0
C682 C 0.2336 0.82061 0.89712 0.0
H683 H 0.11044 0.75583 0.87862 0.0
H684 H 0.1345 0.78684 0.88799 0.0
H685 H 0.14038 0.77693 0.85731 0.0
H686 H 0.23556 0.79473 0.84099 0.0
H687 H 0.23934 0.84014 0.83003 0.0
loop_
_geom_bond_atom_site_label_1
_geom_bond_atom_site_label_2
_geom_bond_distance
_geom_bond_site_symmetry_2
_ccdc_geom_bond_type
Mg0 O1 2.028 . S
Mg0 O7 1.986 . S
Mg0 O9 2.114 . S
Mg0 O10 2.251 . S
Mg0 O13 2.010 . S
O1 Mg0 2.028 . S
O1 C4 1.250 . S
O2 Mg3 2.028 . S
O2 C4 1.248 . S
Mg3 O2 2.028 . S
Mg3 O8 2.032 . S
Mg3 O10 2.079 . S
C4 O1 1.250 . S
C4 O2 1.248 . S
C5 O6 1.264 . S
C5 O13 1.249 . S
O6 C5 1.264 . S
O7 Mg0 1.986 . S
O7 C11 1.246 . S
O8 Mg3 2.032 . S
O8 C11 1.259 . S
O9 Mg0 2.114 . S
O9 C12 1.252 . S
O10 Mg0 2.251 . S
O10 Mg3 2.079 . S
O10 C12 1.273 . S
C11 O7 1.246 . S
C11 O8 1.259 . S
C12 O9 1.252 . S
C12 O10 1.273 . S
O13 Mg0 2.010 . S
O13 C5 1.249 . S
Mg14 O15 2.028 . S
Mg14 O21 1.986 . S
Mg14 O23 2.114 . S
Mg14 O24 2.251 . S
Mg14 O27 2.010 . S
O15 Mg14 2.028 . S
O15 C18 1.250 . S
O16 Mg17 2.028 . S
O16 C18 1.248 . S
Mg17 O16 2.028 . S
Mg17 O22 2.032 . S
Mg17 O24 2.079 . S
C18 O15 1.250 . S
C18 O16 1.248 . S
C19 O20 1.264 . S
C19 O27 1.249 . S
O20 C19 1.264 . S
O21 Mg14 1.986 . S
O21 C25 1.246 . S
O22 Mg17 2.032 . S
O22 C25 1.259 . S
O23 Mg14 2.114 . S
O23 C26 1.252 . S
O24 Mg14 2.251 . S
O24 Mg17 2.079 . S
O24 C26 1.273 . S
C25 O21 1.246 . S
C25 O22 1.259 . S
C26 O23 1.252 . S
C26 O24 1.273 . S
O27 Mg14 2.010 . S
O27 C19 1.249 . S
Mg28 O29 2.028 . S
Mg28 O35 1.986 . S
Mg28 O37 2.114 . S
Mg28 O38 2.251 . S
Mg28 O41 2.010 . S
O29 Mg28 2.028 . S
O29 C32 1.250 . S
O30 Mg31 2.028 . S
O30 C32 1.248 . S
Mg31 O30 2.028 . S
Mg31 O36 2.032 . S
Mg31 O38 2.079 . S
C32 O29 1.250 . S
C32 O30 1.248 . S
C33 O34 1.264 . S
C33 O41 1.249 . S
O34 C33 1.264 . S
O35 Mg28 1.986 . S
O35 C39 1.246 . S
O36 Mg31 2.032 . S
O36 C39 1.259 . S
O37 Mg28 2.114 . S
O37 C40 1.252 . S
O38 Mg28 2.251 . S
O38 Mg31 2.079 . S
O38 C40 1.273 . S
C39 O35 1.246 . S
C39 O36 1.259 . S
C40 O37 1.252 . S
C40 O38 1.273 . S
O41 Mg28 2.010 . S
O41 C33 1.249 . S
Mg42 O43 2.028 . S
Mg42 O49 1.986 . S
Mg42 O51 2.114 . S
Mg42 O52 2.251 . S
Mg42 O55 2.010 . S
O43 Mg42 2.028 . S
O43 C46 1.250 . S
O44 Mg45 2.028 . S
O44 C46 1.248 . S
Mg45 O44 2.028 . S
Mg45 O50 2.032 . S
Mg45 O52 2.079 . S
C46 O43 1.250 . S
C46 O44 1.248 . S
C47 O48 1.264 . S
C47 O55 1.249 . S
O48 C47 1.264 . S
O49 Mg42 1.986 . S
O49 C53 1.246 . S
O50 Mg45 2.032 . S
O50 C53 1.259 . S
O51 Mg42 2.114 . S
O51 C54 1.252 . S
O52 Mg42 2.251 . S
O52 Mg45 2.079 . S
O52 C54 1.273 . S
C53 O49 1.246 . S
C53 O50 1.259 . S
C54 O51 1.252 . S
C54 O52 1.273 . S
O55 Mg42 2.010 . S
O55 C47 1.249 . S
Mg56 O57 2.028 . S
Mg56 O63 1.986 . S
Mg56 O65 2.114 . S
Mg56 O66 2.251 . S
Mg56 O69 2.010 . S
O57 Mg56 2.028 . S
O57 C60 1.250 . S
O58 Mg59 2.028 . S
O58 C60 1.248 . S
Mg59 O58 2.028 . S
Mg59 O64 2.032 . S
Mg59 O66 2.079 . S
C60 O57 1.250 . S
C60 O58 1.248 . S
C61 O62 1.264 . S
C61 O69 1.249 . S
O62 C61 1.264 . S
O63 Mg56 1.986 . S
O63 C67 1.246 . S
O64 Mg59 2.032 . S
O64 C67 1.259 . S
O65 Mg56 2.114 . S
O65 C68 1.252 . S
O66 Mg56 2.251 . S
O66 Mg59 2.079 . S
O66 C68 1.273 . S
C67 O63 1.246 . S
C67 O64 1.259 . S
C68 O65 1.252 . S
C68 O66 1.273 . S
O69 Mg56 2.010 . S
O69 C61 1.249 . S
Mg70 O71 2.028 . S
Mg70 O77 1.986 . S
Mg70 O79 2.114 . S
Mg70 O80 2.251 . S
Mg70 O83 2.010 . S
O71 Mg70 2.028 . S
O71 C74 1.250 . S
O72 Mg73 2.028 . S
O72 C74 1.248 . S
Mg73 O72 2.028 . S
Mg73 O78 2.032 . S
Mg73 O80 2.079 . S
C74 O71 1.250 . S
C74 O72 1.248 . S
C75 O76 1.264 . S
C75 O83 1.249 . S
O76 C75 1.264 . S
O77 Mg70 1.986 . S
O77 C81 1.246 . S
O78 Mg73 2.032 . S
O78 C81 1.259 . S
O79 Mg70 2.114 . S
O79 C82 1.252 . S
O80 Mg70 2.251 . S
O80 Mg73 2.079 . S
O80 C82 1.273 . S
C81 O77 1.246 . S
C81 O78 1.259 . S
C82 O79 1.252 . S
C82 O80 1.273 . S
O83 Mg70 2.010 . S
O83 C75 1.249 . S
Mg84 O85 2.028 . S
Mg84 O91 1.986 . S
Mg84 O93 2.114 . S
Mg84 O94 2.251 . S
Mg84 O97 2.010 . S
O85 Mg84 2.028 . S
O85 C88 1.250 . S
O86 Mg87 2.028 . S
O86 C88 1.248 . S
Mg87 O86 2.028 . S
Mg87 O92 2.032 . S
Mg87 O94 2.079 . S
C88 O85 1.250 . S
C88 O86 1.248 . S
C89 O90 1.264 . S
C89 O97 1.249 . S
O90 C89 1.264 . S
O91 Mg84 1.986 . S
O91 C95 1.246 . S
O92 Mg87 2.032 . S
O92 C95 1.259 . S
O93 Mg84 2.114 . S
O93 C96 1.252 . S
O94 Mg84 2.251 . S
O94 Mg87 2.079 . S
O94 C96 1.273 . S
C95 O91 1.246 . S
C95 O92 1.259 . S
C96 O93 1.252 . S
C96 O94 1.273 . S
O97 Mg84 2.010 . S
O97 C89 1.249 . S
Mg98 O99 2.028 . S
Mg98 O105 1.986 . S
Mg98 O107 2.114 . S
Mg98 O108 2.251 . S
Mg98 O111 2.010 . S
O99 Mg98 2.028 . S
O99 C102 1.250 . S
O100 Mg101 2.028 . S
O100 C102 1.248 . S
Mg101 O100 2.028 . S
Mg101 O106 2.032 . S
Mg101 O108 2.079 . S
C102 O99 1.250 . S
C102 O100 1.248 . S
C103 O104 1.264 . S
C103 O111 1.249 . S
O104 C103 1.264 . S
O105 Mg98 1.986 . S
O105 C109 1.246 . S
O106 Mg101 2.032 . S
O106 C109 1.259 . S
O107 Mg98 2.114 . S
O107 C110 1.252 . S
O108 Mg98 2.251 . S
O108 Mg101 2.079 . S
O108 C110 1.273 . S
C109 O105 1.246 . S
C109 O106 1.259 . S
C110 O107 1.252 . S
C110 O108 1.273 . S
O111 Mg98 2.010 . S
O111 C103 1.249 . S
H112 C120 0.929 . S
H113 C122 0.930 . S
H114 C124 0.930 . S
H115 C127 0.929 . S
H116 C130 0.930 . S
H117 C132 0.960 . S
H118 C132 0.960 . S
H119 C132 0.960 . S
C120 H112 0.929 . S
C120 C121 1.377 . S
C120 C122 1.384 . S
C121 C120 1.377 . S
C121 C127 1.390 . S
C122 H113 0.930 . S
C122 C120 1.384 . S
C122 C123 1.372 . S
C123 C122 1.372 . S
C123 C124 1.400 . S
C123 C128 1.490 . S
C124 H114 0.930 . S
C124 C123 1.400 . S
C124 C127 1.386 . S
H125 C141 0.930 . S
H126 C142 0.931 . S
C127 H115 0.929 . S
C127 C121 1.390 . S
C127 C124 1.386 . S
C128 C123 1.490 . S
C128 C130 1.395 . S
C128 C131 1.403 . S
H129 C135 0.930 . S
C130 H116 0.930 . S
C130 C128 1.395 . S
C130 C133 1.403 . S
C131 C128 1.403 . S
C131 C132 1.524 . S
C131 C135 1.400 . S
C132 H117 0.960 . S
C132 H118 0.960 . S
C132 H119 0.960 . S
C132 C131 1.524 . S
C133 C130 1.403 . S
C133 C134 1.392 . S
C133 C137 1.495 . S
C134 C133 1.392 . S
C134 C135 1.385 . S
C134 C136 1.478 . S
C135 H129 0.930 . S
C135 C131 1.400 . S
C135 C134 1.385 . S
C136 C134 1.478 . S
C136 C138 1.381 . S
C136 C142 1.383 . S
C137 C133 1.495 . S
C137 H143 0.959 . S
C137 H144 0.961 . S
C137 H145 0.960 . S
C138 C136 1.381 . S
C138 C139 1.394 . S
C138 H146 0.930 . S
C139 C138 1.394 . S
C139 C140 1.383 . S
C139 H147 0.929 . S
C140 C139 1.383 . S
C140 C141 1.377 . S
C141 H125 0.930 . S
C141 C140 1.377 . S
C141 C142 1.379 . S
C142 H126 0.931 . S
C142 C136 1.383 . S
C142 C141 1.379 . S
H143 C137 0.959 . S
H144 C137 0.961 . S
H145 C137 0.960 . S
H146 C138 0.930 . S
H147 C139 0.929 . S
H148 C156 0.929 . S
H149 C158 0.930 . S
H150 C160 0.930 . S
H151 C163 0.929 . S
H152 C166 0.930 . S
H153 C168 0.960 1_565 S
H154 C168 0.960 1_565 S
H155 C168 0.960 . S
C156 H148 0.929 . S
C156 C157 1.377 . S
C156 C158 1.384 1_655 S
C157 C156 1.377 . S
C157 C163 1.390 . S
C158 H149 0.930 . S
C158 C156 1.384 1_455 S
C158 C159 1.372 . S
C159 C158 1.372 . S
C159 C160 1.400 1_455 S
C159 C164 1.490 . S
C160 H150 0.930 . S
C160 C159 1.400 1_655 S
C160 C163 1.386 . S
H161 C177 0.930 . S
H162 C178 0.950 . S
C163 H151 0.929 . S
C163 C157 1.390 . S
C163 C160 1.386 . S
C164 C159 1.490 . S
C164 C166 1.395 . S
C164 C167 1.403 . S
H165 C171 0.930 . S
C166 H152 0.930 . S
C166 C164 1.395 . S
C166 C169 1.403 . S
C167 C164 1.403 . S
C167 C168 1.524 1_455 S
C167 C171 1.400 1_545 S
C168 H153 0.960 1_545 S
C168 H154 0.960 1_545 S
C168 H155 0.960 . S
C168 C167 1.524 1_655 S
C169 C166 1.403 . S
C169 C170 1.382 1_545 S
C169 C173 1.495 . S
C170 C169 1.382 1_565 S
C170 C171 1.387 . S
C170 C172 1.487 . S
C171 H165 0.930 . S
C171 C167 1.400 1_565 S
C171 C170 1.387 . S
C172 C170 1.487 . S
C172 C174 1.381 . S
C172 C178 1.373 1_565 S
C173 C169 1.495 . S
C173 H179 0.959 . S
C173 H180 0.961 . S
C173 H181 0.960 1_545 S
C174 C172 1.381 . S
C174 C175 1.394 . S
C174 H182 0.930 . S
C175 C174 1.394 . S
C175 C176 1.383 . S
C175 H183 0.929 . S
C176 C175 1.383 . S
C176 C177 1.377 . S
C177 H161 0.930 . S
C177 C176 1.377 . S
C177 C178 1.371 1_565 S
C178 H162 0.950 . S
C178 C172 1.373 1_545 S
C178 C177 1.371 1_545 S
H179 C173 0.959 . S
H180 C173 0.961 . S
H181 C173 0.960 1_565 S
H182 C174 0.930 . S
H183 C175 0.929 . S
H184 C192 0.929 . S
H185 C194 0.930 . S
H186 C196 0.930 . S
H187 C199 0.929 . S
H188 C202 0.930 . S
H189 C204 0.960 . S
H190 C204 0.960 . S
H191 C204 0.960 . S
C192 H184 0.929 . S
C192 C193 1.377 . S
C192 C194 1.384 . S
C193 C192 1.377 . S
C193 C199 1.390 . S
C194 H185 0.930 . S
C194 C192 1.384 . S
C194 C195 1.372 . S
C195 C194 1.372 . S
C195 C196 1.400 . S
C195 C200 1.490 . S
C196 H186 0.930 . S
C196 C195 1.400 . S
C196 C199 1.386 . S
H197 C213 0.930 . S
H198 C214 0.931 . S
C199 H187 0.929 . S
C199 C193 1.390 . S
C199 C196 1.386 . S
C200 C195 1.490 . S
C200 C202 1.395 . S
C200 C203 1.403 . S
H201 C207 0.930 . S
C202 H188 0.930 . S
C202 C200 1.395 . S
C202 C205 1.403 . S
C203 C200 1.403 . S
C203 C204 1.524 . S
C203 C207 1.400 . S
C204 H189 0.960 . S
C204 H190 0.960 . S
C204 H191 0.960 . S
C204 C203 1.524 . S
C205 C202 1.403 . S
C205 C206 1.392 . S
C205 C209 1.495 1_655 S
C206 C205 1.392 . S
C206 C207 1.385 . S
C206 C208 1.478 . S
C207 H201 0.930 . S
C207 C203 1.400 . S
C207 C206 1.385 . S
C208 C206 1.478 . S
C208 C210 1.381 1_655 S
C208 C214 1.383 . S
C209 C205 1.495 1_455 S
C209 H215 0.959 . S
C209 H216 0.961 . S
C209 H217 0.960 . S
C210 C208 1.381 1_455 S
C210 C211 1.394 . S
C210 H218 0.930 . S
C211 C210 1.394 . S
C211 C212 1.383 . S
C211 H219 0.929 . S
C212 C211 1.383 . S
C212 C213 1.377 . S
C213 H197 0.930 . S
C213 C212 1.377 . S
C213 C214 1.379 1_455 S
C214 H198 0.931 . S
C214 C208 1.383 . S
C214 C213 1.379 1_655 S
H215 C209 0.959 . S
H216 C209 0.961 . S
H217 C209 0.960 . S
H218 C210 0.930 . S
H219 C211 0.929 . S
H220 C228 0.929 . S
H221 C230 0.930 . S
H222 C232 0.930 . S
H223 C235 0.929 1_565 S
H224 C238 0.930 . S
H225 C240 0.960 . S
H226 C240 0.960 . S
H227 C240 0.960 . S
C228 H220 0.929 . S
C228 C229 1.377 . S
C228 C230 1.384 . S
C229 C228 1.377 . S
C229 C235 1.390 . S
C230 H221 0.930 . S
C230 C228 1.384 . S
C230 C231 1.372 . S
C231 C230 1.372 . S
C231 C232 1.400 1_545 S
C231 C236 1.490 . S
C232 H222 0.930 . S
C232 C231 1.400 1_565 S
C232 C235 1.386 1_565 S
H233 C249 0.930 . S
H234 C250 0.931 . S
C235 H223 0.929 1_545 S
C235 C229 1.390 . S
C235 C232 1.386 1_545 S
C236 C231 1.490 . S
C236 C238 1.395 . S
C236 C239 1.403 1_545 S
H237 C243 0.930 . S
C238 H224 0.930 . S
C238 C236 1.395 . S
C238 C241 1.415 . S
C239 C236 1.403 1_565 S
C239 C240 1.524 . S
C239 C243 1.400 . S
C240 H225 0.960 . S
C240 H226 0.960 . S
C240 H227 0.960 . S
C240 C239 1.524 . S
C241 C238 1.415 . S
C241 C242 1.372 1_545 S
C241 C245 1.505 . S
C242 C241 1.372 1_565 S
C242 C243 1.385 . S
C242 C244 1.478 . S
C243 H237 0.930 . S
C243 C239 1.400 . S
C243 C242 1.385 . S
C244 C242 1.478 . S
C244 C246 1.381 . S
C244 C250 1.383 . S
C245 C241 1.505 . S
C245 H251 0.959 . S
C245 H252 0.961 1_545 S
C245 H253 0.960 . S
C246 C244 1.381 . S
C246 C247 1.394 . S
C246 H254 0.930 1_565 S
C247 C246 1.394 . S
C247 C248 1.383 . S
C247 H255 0.929 . S
C248 C247 1.383 . S
C248 C249 1.377 . S
C249 H233 0.930 . S
C249 C248 1.377 . S
C249 C250 1.379 . S
C250 H234 0.931 . S
C250 C244 1.383 . S
C250 C249 1.379 . S
H251 C245 0.959 . S
H252 C245 0.961 1_565 S
H253 C245 0.960 . S
H254 C246 0.930 1_545 S
H255 C247 0.929 . S
H256 C264 0.929 . S
H257 C266 0.930 . S
H258 C268 0.930 . S
H259 C271 0.929 . S
H260 C274 0.930 . S
H261 C276 0.960 . S
H262 C276 0.960 . S
H263 C276 0.960 . S
C264 H256 0.929 . S
C264 C265 1.377 . S
C264 C266 1.384 . S
C265 C264 1.377 . S
C265 C271 1.390 . S
C266 H257 0.930 . S
C266 C264 1.384 . S
C266 C267 1.372 . S
C267 C266 1.372 . S
C267 C268 1.400 . S
C267 C272 1.490 . S
C268 H258 0.930 . S
C268 C267 1.400 . S
C268 C271 1.386 . S
H269 C285 0.930 . S
H270 C286 0.931 . S
C271 H259 0.929 . S
C271 C265 1.390 . S
C271 C268 1.386 . S
C272 C267 1.490 . S
C272 C274 1.395 . S
C272 C275 1.403 . S
H273 C279 0.930 . S
C274 H260 0.930 . S
C274 C272 1.395 . S
C274 C277 1.403 . S
C275 C272 1.403 . S
C275 C276 1.524 . S
C275 C279 1.400 . S
C276 H261 0.960 . S
C276 H262 0.960 . S
C276 H263 0.960 . S
C276 C275 1.524 . S
C277 C274 1.403 . S
C277 C278 1.392 . S
C277 C281 1.495 . S
C278 C277 1.392 . S
C278 C279 1.385 . S
C278 C280 1.478 . S
C279 H273 0.930 . S
C279 C275 1.400 . S
C279 C278 1.385 . S
C280 C278 1.478 . S
C280 C282 1.381 . S
C280 C286 1.383 . S
C281 C277 1.495 . S
C281 H287 0.959 . S
C281 H288 0.961 . S
C281 H289 0.960 . S
C282 C280 1.381 . S
C282 C283 1.394 . S
C282 H290 0.930 . S
C283 C282 1.394 . S
C283 C284 1.383 . S
C283 H291 0.929 . S
C284 C283 1.383 . S
C284 C285 1.377 . S
C285 H269 0.930 . S
C285 C284 1.377 . S
C285 C286 1.379 . S
C286 H270 0.931 . S
C286 C280 1.383 . S
C286 C285 1.379 . S
H287 C281 0.959 . S
H288 C281 0.961 . S
H289 C281 0.960 . S
H290 C282 0.930 . S
H291 C283 0.929 . S
H292 C300 0.929 . S
H293 C302 0.930 . S
H294 C304 0.930 1_565 S
H295 C307 0.929 . S
H296 C310 0.930 . S
H297 C312 0.960 . S
H298 C312 0.960 . S
H299 C312 0.960 . S
C300 H292 0.929 . S
C300 C301 1.377 . S
C300 C302 1.384 . S
C301 C300 1.377 . S
C301 C307 1.390 . S
C302 H293 0.930 . S
C302 C300 1.384 . S
C302 C303 1.372 . S
C303 C302 1.372 . S
C303 C304 1.400 . S
C303 C308 1.490 . S
C304 H294 0.930 1_545 S
C304 C303 1.400 . S
C304 C307 1.386 . S
H305 C321 0.930 1_655 S
H306 C322 0.931 . S
C307 H295 0.929 . S
C307 C301 1.390 . S
C307 C304 1.386 . S
C308 C303 1.490 . S
C308 C310 1.395 . S
C308 C311 1.403 1_545 S
H309 C315 0.930 . S
C310 H296 0.930 . S
C310 C308 1.395 . S
C310 C313 1.403 . S
C311 C308 1.403 1_565 S
C311 C312 1.524 . S
C311 C315 1.400 . S
C312 H297 0.960 . S
C312 H298 0.960 . S
C312 H299 0.960 . S
C312 C311 1.524 . S
C313 C310 1.403 . S
C313 C314 1.392 1_545 S
C313 C317 1.495 . S
C314 C313 1.392 1_565 S
C314 C315 1.385 . S
C314 C316 1.478 . S
C315 H309 0.930 . S
C315 C311 1.400 . S
C315 C314 1.385 . S
C316 C314 1.478 . S
C316 C318 1.381 1_655 S
C316 C322 1.383 . S
C317 C313 1.495 . S
C317 H323 0.959 . S
C317 H324 0.961 . S
C317 H325 0.960 1_655 S
C318 C316 1.381 1_455 S
C318 C319 1.394 . S
C318 H326 0.930 . S
C319 C318 1.394 . S
C319 C320 1.383 . S
C319 H327 0.929 . S
C320 C319 1.383 . S
C320 C321 1.377 . S
C321 H305 0.930 1_455 S
C321 C320 1.377 . S
C321 C322 1.379 1_455 S
C322 H306 0.931 . S
C322 C316 1.383 . S
C322 C321 1.379 1_655 S
H323 C317 0.959 . S
H324 C317 0.961 . S
H325 C317 0.960 1_455 S
H326 C318 0.930 . S
H327 C319 0.929 . S
H328 C336 0.929 . S
H329 C338 0.930 . S
H330 C340 0.930 . S
H331 C343 0.929 . S
H332 C346 0.930 . S
H333 C348 0.960 . S
H334 C348 0.960 . S
H335 C348 0.960 . S
C336 H328 0.929 . S
C336 C337 1.377 . S
C336 C338 1.384 . S
C337 C336 1.377 . S
C337 C343 1.390 . S
C338 H329 0.930 . S
C338 C336 1.384 . S
C338 C339 1.372 . S
C339 C338 1.372 . S
C339 C340 1.400 . S
C339 C344 1.490 . S
C340 H330 0.930 . S
C340 C339 1.400 . S
C340 C343 1.386 . S
H341 C357 0.930 . S
H342 C358 0.931 . S
C343 H331 0.929 . S
C343 C337 1.390 . S
C343 C340 1.386 . S
C344 C339 1.490 . S
C344 C346 1.395 . S
C344 C347 1.403 . S
H345 C351 0.930 . S
C346 H332 0.930 . S
C346 C344 1.395 . S
C346 C349 1.403 . S
C347 C344 1.403 . S
C347 C348 1.524 . S
C347 C351 1.400 . S
C348 H333 0.960 . S
C348 H334 0.960 . S
C348 H335 0.960 . S
C348 C347 1.524 . S
C349 C346 1.403 . S
C349 C350 1.392 . S
C349 C353 1.495 . S
C350 C349 1.392 . S
C350 C351 1.385 . S
C350 C352 1.478 . S
C351 H345 0.930 . S
C351 C347 1.400 . S
C351 C350 1.385 . S
C352 C350 1.478 . S
C352 C354 1.381 1_455 S
C352 C358 1.383 . S
C353 C349 1.495 . S
C353 H359 0.959 . S
C353 H360 0.961 . S
C353 H361 0.960 . S
C354 C352 1.381 1_655 S
C354 C355 1.394 . S
C354 H362 0.930 1_655 S
C355 C354 1.394 . S
C355 C356 1.383 . S
C355 H363 0.929 . S
C356 C355 1.383 . S
C356 C357 1.377 . S
C357 H341 0.930 . S
C357 C356 1.377 . S
C357 C358 1.379 1_655 S
C358 H342 0.931 . S
C358 C352 1.383 . S
C358 C357 1.379 1_455 S
H359 C353 0.959 . S
H360 C353 0.961 . S
H361 C353 0.960 . S
H362 C354 0.930 1_455 S
H363 C355 0.929 . S
H364 C372 0.929 . S
H365 C374 0.930 . S
H366 C376 0.907 1_545 S
H367 C379 0.929 . S
H368 C382 0.930 . S
H369 C384 0.960 . S
H370 C384 0.960 . S
H371 C384 0.960 1_545 S
C372 H364 0.929 . S
C372 C373 1.377 . S
C372 C374 1.384 . S
C373 C372 1.377 . S
C373 C379 1.390 . S
C374 H365 0.930 . S
C374 C372 1.384 . S
C374 C375 1.372 . S
C375 C374 1.372 . S
C375 C376 1.413 . S
C375 C380 1.490 . S
C376 H366 0.907 1_565 S
C376 C375 1.413 . S
C376 C379 1.396 . S
H377 C393 0.930 . S
H378 C394 0.931 . S
C379 H367 0.929 . S
C379 C373 1.390 . S
C379 C376 1.396 . S
C380 C375 1.490 . S
C380 C382 1.395 1_565 S
C380 C383 1.403 1_565 S
H381 C387 0.930 . S
C382 H368 0.930 . S
C382 C380 1.395 1_545 S
C382 C385 1.403 . S
C383 C380 1.403 1_545 S
C383 C384 1.524 1_545 S
C383 C387 1.400 . S
C384 H369 0.960 . S
C384 H370 0.960 . S
C384 H371 0.960 1_565 S
C384 C383 1.524 1_565 S
C385 C382 1.403 . S
C385 C386 1.392 . S
C385 C389 1.495 . S
C386 C385 1.392 . S
C386 C387 1.385 . S
C386 C388 1.478 . S
C387 H381 0.930 . S
C387 C383 1.400 . S
C387 C386 1.385 . S
C388 C386 1.478 . S
C388 C390 1.381 . S
C388 C394 1.383 . S
C389 C385 1.495 . S
C389 H395 0.959 . S
C389 H396 0.961 . S
C389 H397 0.960 . S
C390 C388 1.381 . S
C390 C391 1.394 . S
C390 H398 0.930 . S
C391 C390 1.394 . S
C391 C392 1.383 . S
C391 H399 0.929 . S
C392 C391 1.383 . S
C392 C393 1.377 . S
C393 H377 0.930 . S
C393 C392 1.377 . S
C393 C394 1.379 . S
C394 H378 0.931 . S
C394 C388 1.383 . S
C394 C393 1.379 . S
H395 C389 0.959 . S
H396 C389 0.961 . S
H397 C389 0.960 . S
H398 C390 0.930 . S
H399 C391 0.929 . S
H400 C408 0.929 . S
H401 C410 0.930 . S
H402 C412 0.930 . S
H403 C415 0.929 . S
H404 C418 0.930 . S
H405 C420 0.960 . S
H406 C420 0.960 . S
H407 C420 0.960 . S
C408 H400 0.929 . S
C408 C409 1.377 . S
C408 C410 1.384 . S
C409 C408 1.377 . S
C409 C415 1.390 . S
C410 H401 0.930 . S
C410 C408 1.384 . S
C410 C411 1.372 . S
C411 C410 1.372 . S
C411 C412 1.400 . S
C411 C416 1.490 . S
C412 H402 0.930 . S
C412 C411 1.400 . S
C412 C415 1.386 . S
H413 C429 0.930 . S
H414 C430 0.931 . S
C415 H403 0.929 . S
C415 C409 1.390 . S
C415 C412 1.386 . S
C416 C411 1.490 . S
C416 C418 1.395 1_455 S
C416 C419 1.403 . S
H417 C423 0.930 . S
C418 H404 0.930 . S
C418 C416 1.395 1_655 S
C418 C421 1.403 . S
C419 C416 1.403 . S
C419 C420 1.524 . S
C419 C423 1.400 . S
C420 H405 0.960 . S
C420 H406 0.960 . S
C420 H407 0.960 . S
C420 C419 1.524 . S
C421 C418 1.403 . S
C421 C422 1.392 . S
C421 C425 1.495 . S
C422 C421 1.392 . S
C422 C423 1.385 1_655 S
C422 C424 1.478 . S
C423 H417 0.930 . S
C423 C419 1.400 . S
C423 C422 1.385 1_455 S
C424 C422 1.478 . S
C424 C426 1.381 . S
C424 C430 1.383 . S
C425 C421 1.495 . S
C425 H431 0.959 . S
C425 H432 0.961 . S
C425 H433 0.960 . S
C426 C424 1.381 . S
C426 C427 1.394 . S
C426 H434 0.930 . S
C427 C426 1.394 . S
C427 C428 1.383 . S
C427 H435 0.929 . S
C428 C427 1.383 . S
C428 C429 1.377 . S
C429 H413 0.930 . S
C429 C428 1.377 . S
C429 C430 1.379 . S
C430 H414 0.931 . S
C430 C424 1.383 . S
C430 C429 1.379 . S
H431 C425 0.959 . S
H432 C425 0.961 . S
H433 C425 0.960 . S
H434 C426 0.930 . S
H435 C427 0.929 . S
H436 C444 0.929 . S
H437 C446 0.930 . S
H438 C448 0.928 . S
H439 C451 0.929 1_545 S
H440 C454 0.930 . S
H441 C456 0.960 . S
H442 C456 0.960 . S
H443 C456 0.960 . S
C444 H436 0.929 . S
C444 C445 1.377 . S
C444 C446 1.384 . S
C445 C444 1.377 . S
C445 C451 1.390 . S
C446 H437 0.930 . S
C446 C444 1.384 . S
C446 C447 1.372 . S
C447 C446 1.372 . S
C447 C448 1.401 1_565 S
C447 C452 1.490 . S
C448 H438 0.928 . S
C448 C447 1.401 1_545 S
C448 C451 1.386 1_545 S
H449 C465 0.930 . S
H450 C466 0.931 . S
C451 H439 0.929 1_565 S
C451 C445 1.390 . S
C451 C448 1.386 1_565 S
C452 C447 1.490 . S
C452 C454 1.395 . S
C452 C455 1.403 1_565 S
H453 C459 0.930 . S
C454 H440 0.930 . S
C454 C452 1.395 . S
C454 C457 1.403 . S
C455 C452 1.403 1_545 S
C455 C456 1.524 . S
C455 C459 1.400 . S
C456 H441 0.960 . S
C456 H442 0.960 . S
C456 H443 0.960 . S
C456 C455 1.524 . S
C457 C454 1.403 . S
C457 C458 1.392 1_565 S
C457 C461 1.495 . S
C458 C457 1.392 1_545 S
C458 C459 1.385 . S
C458 C460 1.478 . S
C459 H453 0.930 . S
C459 C455 1.400 . S
C459 C458 1.385 . S
C460 C458 1.478 . S
C460 C462 1.381 1_545 S
C460 C466 1.383 . S
C461 C457 1.495 . S
C461 H467 0.959 . S
C461 H468 0.961 . S
C461 H469 0.960 . S
C462 C460 1.381 1_565 S
C462 C463 1.394 1_565 S
C462 H470 0.930 . S
C463 C462 1.394 1_545 S
C463 C464 1.383 . S
C463 H471 0.929 1_545 S
C464 C463 1.383 . S
C464 C465 1.377 . S
C465 H449 0.930 . S
C465 C464 1.377 . S
C465 C466 1.379 . S
C466 H450 0.931 . S
C466 C460 1.383 . S
C466 C465 1.379 . S
H467 C461 0.959 . S
H468 C461 0.961 . S
H469 C461 0.960 . S
H470 C462 0.930 . S
H471 C463 0.929 1_565 S
H472 C480 0.929 . S
H473 C482 0.930 . S
H474 C484 0.930 . S
H475 C487 0.929 . S
H476 C490 0.930 . S
H477 C492 0.960 . S
H478 C492 0.960 . S
H479 C492 0.960 . S
C480 H472 0.929 . S
C480 C481 1.377 . S
C480 C482 1.384 . S
C481 C480 1.377 . S
C481 C487 1.390 . S
C482 H473 0.930 . S
C482 C480 1.384 . S
C482 C483 1.372 . S
C483 C482 1.372 . S
C483 C484 1.400 . S
C483 C488 1.490 . S
C484 H474 0.930 . S
C484 C483 1.400 . S
C484 C487 1.386 . S
H485 C501 0.930 . S
H486 C502 0.931 . S
C487 H475 0.929 . S
C487 C481 1.390 . S
C487 C484 1.386 . S
C488 C483 1.490 . S
C488 C490 1.395 . S
C488 C491 1.403 . S
H489 C495 0.930 . S
C490 H476 0.930 . S
C490 C488 1.395 . S
C490 C493 1.403 1_554 S
C491 C488 1.403 . S
C491 C492 1.524 . S
C491 C495 1.400 1_554 S
C492 H477 0.960 . S
C492 H478 0.960 . S
C492 H479 0.960 . S
C492 C491 1.524 . S
C493 C490 1.403 1_556 S
C493 C494 1.392 . S
C493 C497 1.495 . S
C494 C493 1.392 . S
C494 C495 1.385 . S
C494 C496 1.478 . S
C495 H489 0.930 . S
C495 C491 1.400 1_556 S
C495 C494 1.385 . S
C496 C494 1.478 . S
C496 C498 1.381 . S
C496 C502 1.383 . S
C497 C493 1.495 . S
C497 H503 0.959 . S
C497 H504 0.961 . S
C497 H505 0.960 . S
C498 C496 1.381 . S
C498 C499 1.394 . S
C498 H506 0.930 . S
C499 C498 1.394 . S
C499 C500 1.383 . S
C499 H507 0.929 . S
C500 C499 1.383 . S
C500 C501 1.377 . S
C501 H485 0.930 . S
C501 C500 1.377 . S
C501 C502 1.379 . S
C502 H486 0.931 . S
C502 C496 1.383 . S
C502 C501 1.379 . S
H503 C497 0.959 . S
H504 C497 0.961 . S
H505 C497 0.960 . S
H506 C498 0.930 . S
H507 C499 0.929 . S
H508 C516 0.929 1_545 S
H509 C518 0.930 . S
H510 C520 0.930 . S
H511 C523 0.929 . S
H512 C526 0.930 . S
H513 C528 0.960 . S
H514 C528 0.960 1_556 S
H515 C528 0.954 1_556 S
C516 H508 0.929 1_565 S
C516 C517 1.377 . S
C516 C518 1.384 1_565 S
C517 C516 1.377 . S
C517 C523 1.390 . S
C518 H509 0.930 . S
C518 C516 1.384 1_545 S
C518 C519 1.372 1_545 S
C519 C518 1.372 1_565 S
C519 C520 1.400 . S
C519 C524 1.490 . S
C520 H510 0.930 . S
C520 C519 1.400 . S
C520 C523 1.386 . S
H521 C537 0.930 1_565 S
H522 C538 0.896 1_565 S
C523 H511 0.929 . S
C523 C517 1.390 . S
C523 C520 1.386 . S
C524 C519 1.490 . S
C524 C526 1.395 1_465 S
C524 C527 1.403 1_556 S
H525 C531 0.930 . S
C526 H512 0.930 . S
C526 C524 1.395 1_645 S
C526 C529 1.403 . S
C527 C524 1.403 1_554 S
C527 C528 1.524 . S
C527 C531 1.400 . S
C528 H513 0.960 . S
C528 H514 0.960 1_554 S
C528 H515 0.954 1_554 S
C528 C527 1.524 . S
C529 C526 1.403 . S
C529 C530 1.392 1_556 S
C529 C533 1.495 . S
C530 C529 1.392 1_554 S
C530 C531 1.385 1_645 S
C530 C532 1.478 . S
C531 H525 0.930 . S
C531 C527 1.400 . S
C531 C530 1.385 1_465 S
C532 C530 1.478 . S
C532 C534 1.381 . S
C532 C538 1.407 . S
C533 C529 1.495 . S
C533 H539 0.959 . S
C533 H540 0.983 . S
C533 H541 0.960 . S
C534 C532 1.381 . S
C534 C535 1.394 . S
C534 H542 0.930 . S
C535 C534 1.394 . S
C535 C536 1.383 . S
C535 H543 0.929 . S
C536 C535 1.383 . S
C536 C537 1.377 . S
C537 H521 0.930 1_545 S
C537 C536 1.377 . S
C537 C538 1.390 . S
C538 H522 0.896 1_545 S
C538 C532 1.407 . S
C538 C537 1.390 . S
H539 C533 0.959 . S
H540 C533 0.983 . S
H541 C533 0.960 . S
H542 C534 0.930 . S
H543 C535 0.929 . S
H544 C552 0.929 . S
H545 C554 0.930 . S
H546 C556 0.930 . S
H547 C559 0.929 . S
H548 C562 0.930 . S
H549 C564 0.960 . S
H550 C564 0.960 . S
H551 C564 0.960 . S
C552 H544 0.929 . S
C552 C553 1.377 . S
C552 C554 1.384 . S
C553 C552 1.377 . S
C553 C559 1.390 . S
C554 H545 0.930 . S
C554 C552 1.384 . S
C554 C555 1.372 . S
C555 C554 1.372 . S
C555 C556 1.400 . S
C555 C560 1.490 . S
C556 H546 0.930 . S
C556 C555 1.400 . S
C556 C559 1.386 . S
H557 C573 0.930 . S
H558 C574 0.931 . S
C559 H547 0.929 . S
C559 C553 1.390 . S
C559 C556 1.386 . S
C560 C555 1.490 . S
C560 C562 1.395 . S
C560 C563 1.403 . S
H561 C567 0.930 . S
C562 H548 0.930 . S
C562 C560 1.395 . S
C562 C565 1.403 . S
C563 C560 1.403 . S
C563 C564 1.524 . S
C563 C567 1.400 . S
C564 H549 0.960 . S
C564 H550 0.960 . S
C564 H551 0.960 . S
C564 C563 1.524 . S
C565 C562 1.403 . S
C565 C566 1.392 . S
C565 C569 1.495 . S
C566 C565 1.392 . S
C566 C567 1.385 . S
C566 C568 1.478 . S
C567 H561 0.930 . S
C567 C563 1.400 . S
C567 C566 1.385 . S
C568 C566 1.478 . S
C568 C570 1.381 . S
C568 C574 1.383 . S
C569 C565 1.495 . S
C569 H575 0.959 . S
C569 H576 0.961 . S
C569 H577 0.960 . S
C570 C568 1.381 . S
C570 C571 1.394 . S
C570 H578 0.930 . S
C571 C570 1.394 . S
C571 C572 1.383 . S
C571 H579 0.929 . S
C572 C571 1.383 . S
C572 C573 1.377 . S
C573 H557 0.930 . S
C573 C572 1.377 . S
C573 C574 1.379 . S
C574 H558 0.931 . S
C574 C568 1.383 . S
C574 C573 1.379 . S
H575 C569 0.959 . S
H576 C569 0.961 . S
H577 C569 0.960 . S
H578 C570 0.930 . S
H579 C571 0.929 . S
H580 C588 0.929 . S
H581 C590 0.930 . S
H582 C592 0.930 . S
H583 C595 0.929 . S
H584 C598 0.930 . S
H585 C600 0.960 . S
H586 C600 0.960 . S
H587 C600 0.960 . S
C588 H580 0.929 . S
C588 C589 1.377 . S
C588 C590 1.384 . S
C589 C588 1.377 . S
C589 C595 1.390 . S
C590 H581 0.930 . S
C590 C588 1.384 . S
C590 C591 1.372 . S
C591 C590 1.372 . S
C591 C592 1.400 . S
C591 C596 1.490 . S
C592 H582 0.930 . S
C592 C591 1.400 . S
C592 C595 1.386 . S
H593 C609 0.930 . S
H594 C610 0.931 . S
C595 H583 0.929 . S
C595 C589 1.390 . S
C595 C592 1.386 . S
C596 C591 1.490 . S
C596 C598 1.395 . S
C596 C599 1.403 . S
H597 C603 0.930 . S
C598 H584 0.930 . S
C598 C596 1.395 . S
C598 C601 1.403 . S
C599 C596 1.403 . S
C599 C600 1.524 . S
C599 C603 1.400 . S
C600 H585 0.960 . S
C600 H586 0.960 . S
C600 H587 0.960 . S
C600 C599 1.524 . S
C601 C598 1.403 . S
C601 C602 1.392 . S
C601 C605 1.495 . S
C602 C601 1.392 . S
C602 C603 1.385 . S
C602 C604 1.478 . S
C603 H597 0.930 . S
C603 C599 1.400 . S
C603 C602 1.385 . S
C604 C602 1.478 . S
C604 C606 1.381 . S
C604 C610 1.383 . S
C605 C601 1.495 . S
C605 H611 0.959 . S
C605 H612 0.961 . S
C605 H613 0.960 . S
C606 C604 1.381 . S
C606 C607 1.394 . S
C606 H614 0.930 . S
C607 C606 1.394 . S
C607 C608 1.383 . S
C607 H615 0.929 . S
C608 C607 1.383 . S
C608 C609 1.377 . S
C609 H593 0.930 . S
C609 C608 1.377 . S
C609 C610 1.379 . S
C610 H594 0.931 . S
C610 C604 1.383 . S
C610 C609 1.379 . S
H611 C605 0.959 . S
H612 C605 0.961 . S
H613 C605 0.960 . S
H614 C606 0.930 . S
H615 C607 0.929 . S
H616 C624 0.929 . S
H617 C626 0.930 . S
H618 C628 0.930 . S
H619 C631 0.929 . S
H620 C634 0.930 . S
H621 C636 0.960 . S
H622 C636 0.960 . S
H623 C636 0.960 . S
C624 H616 0.929 . S
C624 C625 1.377 . S
C624 C626 1.384 . S
C625 C624 1.377 . S
C625 C631 1.390 . S
C626 H617 0.930 . S
C626 C624 1.384 . S
C626 C627 1.372 . S
C627 C626 1.372 . S
C627 C628 1.400 . S
C627 C632 1.490 . S
C628 H618 0.930 . S
C628 C627 1.400 . S
C628 C631 1.386 . S
H629 C645 0.930 . S
H630 C646 0.931 . S
C631 H619 0.929 . S
C631 C625 1.390 . S
C631 C628 1.386 . S
C632 C627 1.490 . S
C632 C634 1.395 . S
C632 C635 1.403 . S
H633 C639 0.930 . S
C634 H620 0.930 . S
C634 C632 1.395 . S
C634 C637 1.403 . S
C635 C632 1.403 . S
C635 C636 1.524 . S
C635 C639 1.400 . S
C636 H621 0.960 . S
C636 H622 0.960 . S
C636 H623 0.960 . S
C636 C635 1.524 . S
C637 C634 1.403 . S
C637 C638 1.392 . S
C637 C641 1.495 . S
C638 C637 1.392 . S
C638 C639 1.385 . S
C638 C640 1.478 . S
C639 H633 0.930 . S
C639 C635 1.400 . S
C639 C638 1.385 . S
C640 C638 1.478 . S
C640 C642 1.381 . S
C640 C646 1.383 . S
C641 C637 1.495 . S
C641 H647 0.959 . S
C641 H648 0.961 . S
C641 H649 0.960 . S
C642 C640 1.381 . S
C642 C643 1.394 . S
C642 H650 0.930 . S
C643 C642 1.394 . S
C643 C644 1.383 . S
C643 H651 0.929 . S
C644 C643 1.383 . S
C644 C645 1.377 . S
C645 H629 0.930 . S
C645 C644 1.377 . S
C645 C646 1.379 . S
C646 H630 0.931 . S
C646 C640 1.383 . S
C646 C645 1.379 . S
H647 C641 0.959 . S
H648 C641 0.961 . S
H649 C641 0.960 . S
H650 C642 0.930 . S
H651 C643 0.929 . S
H652 C660 0.929 . S
H653 C662 0.930 . S
H654 C664 0.930 . S
H655 C667 0.929 . S
H656 C670 0.930 . S
H657 C672 0.960 . S
H658 C672 0.960 . S
H659 C672 0.960 . S
C660 H652 0.929 . S
C660 C661 1.377 . S
C660 C662 1.384 . S
C661 C660 1.377 . S
C661 C667 1.390 . S
C662 H653 0.930 . S
C662 C660 1.384 . S
C662 C663 1.372 . S
C663 C662 1.372 . S
C663 C664 1.400 . S
C663 C668 1.490 . S
C664 H654 0.930 . S
C664 C663 1.400 . S
C664 C667 1.386 . S
H665 C681 0.930 . S
H666 C682 0.931 . S
C667 H655 0.929 . S
C667 C661 1.390 . S
C667 C664 1.386 . S
C668 C663 1.490 . S
C668 C670 1.395 . S
C668 C671 1.403 . S
H669 C675 0.930 . S
C670 H656 0.930 . S
C670 C668 1.395 . S
C670 C673 1.403 . S
C671 C668 1.403 . S
C671 C672 1.524 . S
C671 C675 1.400 . S
C672 H657 0.960 . S
C672 H658 0.960 . S
C672 H659 0.960 . S
C672 C671 1.524 . S
C673 C670 1.403 . S
C673 C674 1.392 . S
C673 C677 1.495 . S
C674 C673 1.392 . S
C674 C675 1.385 . S
C674 C676 1.478 . S
C675 H669 0.930 . S
C675 C671 1.400 . S
C675 C674 1.385 . S
C676 C674 1.478 . S
C676 C678 1.381 . S
C676 C682 1.383 . S
C677 C673 1.495 . S
C677 H683 0.959 . S
C677 H684 0.961 . S
C677 H685 0.960 . S
C678 C676 1.381 . S
C678 C679 1.394 . S
C678 H686 0.930 . S
C679 C678 1.394 . S
C679 C680 1.383 . S
C679 H687 0.929 . S
C680 C679 1.383 . S
C680 C681 1.377 . S
C681 H665 0.930 . S
C681 C680 1.377 . S
C681 C682 1.379 . S
C682 H666 0.931 . S
C682 C676 1.383 . S
C682 C681 1.379 . S
H683 C677 0.959 . S
H684 C677 0.961 . S
H685 C677 0.960 . S
H686 C678 0.930 . S
H687 C679 0.929 . S
C121 C12 1.029 . S
C140 C32 0.978 . S
C157 C46 1.012 . S
C176 C26 1.020 . S
C193 C40 1.029 . S
C212 C4 0.979 . S
C229 C54 1.028 . S
C248 C18 0.982 . S
C265 C88 1.012 . S
C284 C68 1.016 . S
C301 C82 1.034 . S
C320 C102 1.014 . S
C337 C96 1.032 . S
C356 C60 1.045 . S
C373 C110 1.031 . S
C392 C74 1.043 . S
C409 C5 1.351 . S
C428 C61 1.308 . S
C445 C19 1.347 . S
C464 C75 1.321 . S
C481 C33 1.347 . S
C500 C89 1.348 . S
C517 C103 1.351 . S
C536 C47 1.308 . S
C553 C11 1.481 . S
C572 C25 1.489 . S
C589 C53 1.482 . S
C608 C39 1.464 . S
C625 C81 1.486 . S
C644 C67 1.460 . S
C661 C95 1.482 . S
C680 C109 1.487 . S
