# Generated by pormake.
# Topology whm, (6)-cn, num edge types: 1
# Building blocks:
#     Node 0, Type 0, BuildingBlock: IZENUY_clean_sbu_0, # of connection points: 6
#     Node 1, Type 0, BuildingBlock: IZENUY_clean_sbu_0, # of connection points: 6
#     Node 2, Type 0, BuildingBlock: IZENUY_clean_sbu_0, # of connection points: 6
#     Node 3, Type 0, BuildingBlock: IZENUY_clean_sbu_0, # of connection points: 6
#     Node 4, Type 0, BuildingBlock: IZENUY_clean_sbu_0, # of connection points: 6
#     Node 5, Type 0, BuildingBlock: IZENUY_clean_sbu_0, # of connection points: 6
#     Node 6, Type 0, BuildingBlock: IZENUY_clean_sbu_0, # of connection points: 6
#     Node 7, Type 0, BuildingBlock: IZENUY_clean_sbu_0, # of connection points: 6
#     Node 8, Type 0, BuildingBlock: IZENUY_clean_sbu_0, # of connection points: 6
#     Node 9, Type 0, BuildingBlock: IZENUY_clean_sbu_0, # of connection points: 6
#     Node 10, Type 0, BuildingBlock: IZENUY_clean_sbu_0, # of connection points: 6
#     Node 11, Type 0, BuildingBlock: IZENUY_clean_sbu_0, # of connection points: 6
#     Node 12, Type 0, BuildingBlock: IZENUY_clean_sbu_0, # of connection points: 6
#     Node 13, Type 0, BuildingBlock: IZENUY_clean_sbu_0, # of connection points: 6
#     Node 14, Type 0, BuildingBlock: IZENUY_clean_sbu_0, # of connection points: 6
#     Node 15, Type 0, BuildingBlock: IZENUY_clean_sbu_0, # of connection points: 6
#     Edge 16, Type (0, 0), BuildingBlock: CIFDUS_clean_linker_0, # of connection points: 2
#     Edge 17, Type (0, 0), BuildingBlock: CIFDUS_clean_linker_0, # of connection points: 2
#     Edge 18, Type (0, 0), BuildingBlock: CIFDUS_clean_linker_0, # of connection points: 2
#     Edge 19, Type (0, 0), BuildingBlock: CIFDUS_clean_linker_0, # of connection points: 2
#     Edge 20, Type (0, 0), BuildingBlock: CIFDUS_clean_linker_0, # of connection points: 2
#     Edge 21, Type (0, 0), BuildingBlock: CIFDUS_clean_linker_0, # of connection points: 2
#     Edge 22, Type (0, 0), BuildingBlock: CIFDUS_clean_linker_0, # of connection points: 2
#     Edge 23, Type (0, 0), BuildingBlock: CIFDUS_clean_linker_0, # of connection points: 2
#     Edge 24, Type (0, 0), BuildingBlock: CIFDUS_clean_linker_0, # of connection points: 2
#     Edge 25, Type (0, 0), BuildingBlock: CIFDUS_clean_linker_0, # of connection points: 2
#     Edge 26, Type (0, 0), BuildingBlock: CIFDUS_clean_linker_0, # of connection points: 2
#     Edge 27, Type (0, 0), BuildingBlock: CIFDUS_clean_linker_0, # of connection points: 2
#     Edge 28, Type (0, 0), BuildingBlock: CIFDUS_clean_linker_0, # of connection points: 2
#     Edge 29, Type (0, 0), BuildingBlock: CIFDUS_clean_linker_0, # of connection points: 2
#     Edge 30, Type (0, 0), BuildingBlock: CIFDUS_clean_linker_0, # of connection points: 2
#     Edge 31, Type (0, 0), BuildingBlock: CIFDUS_clean_linker_0, # of connection points: 2
#     Edge 32, Type (0, 0), BuildingBlock: CIFDUS_clean_linker_0, # of connection points: 2
#     Edge 33, Type (0, 0), BuildingBlock: CIFDUS_clean_linker_0, # of connection points: 2
#     Edge 34, Type (0, 0), BuildingBlock: CIFDUS_clean_linker_0, # of connection points: 2
#     Edge 35, Type (0, 0), BuildingBlock: CIFDUS_clean_linker_0, # of connection points: 2
#     Edge 36, Type (0, 0), BuildingBlock: CIFDUS_clean_linker_0, # of connection points: 2
#     Edge 37, Type (0, 0), BuildingBlock: CIFDUS_clean_linker_0, # of connection points: 2
#     Edge 38, Type (0, 0), BuildingBlock: CIFDUS_clean_linker_0, # of connection points: 2
#     Edge 39, Type (0, 0), BuildingBlock: CIFDUS_clean_linker_0, # of connection points: 2
#     Edge 40, Type (0, 0), BuildingBlock: CIFDUS_clean_linker_0, # of connection points: 2
#     Edge 41, Type (0, 0), BuildingBlock: CIFDUS_clean_linker_0, # of connection points: 2
#     Edge 42, Type (0, 0), BuildingBlock: CIFDUS_clean_linker_0, # of connection points: 2
#     Edge 43, Type (0, 0), BuildingBlock: CIFDUS_clean_linker_0, # of connection points: 2
#     Edge 44, Type (0, 0), BuildingBlock: CIFDUS_clean_linker_0, # of connection points: 2
#     Edge 45, Type (0, 0), BuildingBlock: CIFDUS_clean_linker_0, # of connection points: 2
#     Edge 46, Type (0, 0), BuildingBlock: CIFDUS_clean_linker_0, # of connection points: 2
#     Edge 47, Type (0, 0), BuildingBlock: CIFDUS_clean_linker_0, # of connection points: 2
#     Edge 48, Type (0, 0), BuildingBlock: CIFDUS_clean_linker_0, # of connection points: 2
#     Edge 49, Type (0, 0), BuildingBlock: CIFDUS_clean_linker_0, # of connection points: 2
#     Edge 50, Type (0, 0), BuildingBlock: CIFDUS_clean_linker_0, # of connection points: 2
#     Edge 51, Type (0, 0), BuildingBlock: CIFDUS_clean_linker_0, # of connection points: 2
#     Edge 52, Type (0, 0), BuildingBlock: CIFDUS_clean_linker_0, # of connection points: 2
#     Edge 53, Type (0, 0), BuildingBlock: CIFDUS_clean_linker_0, # of connection points: 2
#     Edge 54, Type (0, 0), BuildingBlock: CIFDUS_clean_linker_0, # of connection points: 2
#     Edge 55, Type (0, 0), BuildingBlock: CIFDUS_clean_linker_0, # of connection points: 2
#     Edge 56, Type (0, 0), BuildingBlock: CIFDUS_clean_linker_0, # of connection points: 2
#     Edge 57, Type (0, 0), BuildingBlock: CIFDUS_clean_linker_0, # of connection points: 2
#     Edge 58, Type (0, 0), BuildingBlock: CIFDUS_clean_linker_0, # of connection points: 2
#     Edge 59, Type (0, 0), BuildingBlock: CIFDUS_clean_linker_0, # of connection points: 2
#     Edge 60, Type (0, 0), BuildingBlock: CIFDUS_clean_linker_0, # of connection points: 2
#     Edge 61, Type (0, 0), BuildingBlock: CIFDUS_clean_linker_0, # of connection points: 2
#     Edge 62, Type (0, 0), BuildingBlock: CIFDUS_clean_linker_0, # of connection points: 2
#     Edge 63, Type (0, 0), BuildingBlock: CIFDUS_clean_linker_0, # of connection points: 2
# Relax obj value: 0.317
# Max RMSD: 0.231
# Mean RMSD: 0.231
data_MOF--net-whm--node1-IZENUY_clean_sbu_0--edge1-CIFDUS_clean_linker_0
_symmetry_space_group_name_H-M    P1
_symmetry_Int_Tables_number       1
_symmetry_cell_setting            triclinic
loop_
_symmetry_equiv_pos_as_xyz
'x, y, z'
_cell_length_a     44.58556
_cell_length_b     44.734721
_cell_length_c     24.757127
_cell_angle_alpha  90.291349
_cell_angle_beta   90.02296
_cell_angle_gamma 89.906246
loop_
_atom_site_label
_atom_site_type_symbol
_atom_site_fract_x
_atom_site_fract_y
_atom_site_fract_z
_atom_type_partial_charge
Fe0 Fe 0.53246 0.17472 0.22475 0.0
Fe1 Fe 0.56985 0.11839 0.20214 0.0
O2 O 0.56455 0.15746 0.19596 0.0
Fe3 Fe 0.59107 0.17975 0.16152 0.0
O4 O 0.59803 0.20266 0.2213 0.0
O5 O 0.55034 0.21116 0.23572 0.0
O6 O 0.54512 0.1643 0.29181 0.0
C7 C 0.55191 0.13798 0.30611 0.0
C8 C 0.535 0.20237 0.1271 0.0
O9 O 0.55457 0.11708 0.27141 0.0
C10 C 0.58682 0.13107 0.09378 0.0
O11 O 0.50808 0.1416 0.22118 0.0
O12 O 0.53375 0.1103 0.1716 0.0
O13 O 0.5628 0.2059 0.13582 0.0
O14 O 0.51911 0.18615 0.15779 0.0
C15 C 0.62768 0.13792 0.21636 0.0
O16 O 0.58644 0.1135 0.13395 0.0
O17 O 0.58554 0.15898 0.09999 0.0
C18 C 0.50932 0.11795 0.19316 0.0
O19 O 0.60596 0.12306 0.23396 0.0
O20 O 0.62413 0.15725 0.17985 0.0
C21 C 0.57754 0.21841 0.24221 0.0
Fe22 Fe 0.34854 0.54899 0.72508 0.0
Fe23 Fe 0.40791 0.57694 0.68768 0.0
O24 O 0.36866 0.57279 0.68119 0.0
Fe25 Fe 0.34969 0.59325 0.63104 0.0
O26 O 0.31413 0.59679 0.66802 0.0
O27 O 0.32476 0.5794 0.7483 0.0
O28 O 0.37253 0.5573 0.78458 0.0
C29 C 0.38958 0.57967 0.79263 0.0
C30 C 0.32104 0.54008 0.62127 0.0
O31 O 0.40337 0.59195 0.75441 0.0
C32 C 0.40391 0.57609 0.57945 0.0
O33 O 0.371 0.51651 0.70601 0.0
O34 O 0.41438 0.53925 0.71405 0.0
O35 O 0.33748 0.55917 0.59856 0.0
O36 O 0.32081 0.53766 0.67258 0.0
C37 C 0.38848 0.63562 0.66714 0.0
O38 O 0.41434 0.56254 0.61991 0.0
O39 O 0.38148 0.59332 0.5843 0.0
C40 C 0.39905 0.5155 0.71237 0.0
O41 O 0.40881 0.61589 0.66428 0.0
O42 O 0.36123 0.62855 0.66162 0.0
C43 C 0.30841 0.59489 0.71786 0.0
Fe44 Fe 0.94816 0.40037 0.19284 0.0
Fe45 Fe 0.92227 0.34058 0.15013 0.0
O46 O 0.95022 0.36098 0.18586 0.0
Fe47 Fe 0.98092 0.34144 0.21562 0.0
O48 O 0.96805 0.35215 0.28291 0.0
O49 O 0.96183 0.39991 0.26293 0.0
O50 O 0.91102 0.39944 0.22137 0.0
C51 C 0.88837 0.38539 0.2049 0.0
C52 C 1.00844 0.39689 0.18928 0.0
O53 O 0.89062 0.36399 0.1716 0.0
C54 C 0.97781 0.31561 0.11544 0.0
O55 O 0.93364 0.40699 0.12473 0.0
O56 O 0.92714 0.36209 0.08906 0.0
O57 O 1.00754 0.3729 0.2158 0.0
O58 O 0.98532 0.40537 0.16475 0.0
C59 C 0.93354 0.30066 0.23026 0.0
O60 O 0.94957 0.31387 0.12181 0.0
O61 O 0.9943 0.32987 0.14866 0.0
C62 C 0.92878 0.39008 0.08459 0.0
O63 O 0.91429 0.31716 0.20819 0.0
O64 O 0.96109 0.30596 0.22383 0.0
C65 C 0.96253 0.37888 0.29726 0.0
Fe66 Fe 0.11846 0.93066 0.69553 0.0
Fe67 Fe 0.18056 0.91604 0.64764 0.0
O68 O 0.15718 0.9391 0.68829 0.0
Fe69 Fe 0.17282 0.97066 0.72206 0.0
O70 O 0.16308 0.95519 0.78785 0.0
O71 O 0.11672 0.94265 0.76656 0.0
O72 O 0.12616 0.89359 0.7206 0.0
C73 C 0.14217 0.87405 0.69794 0.0
C74 C 0.11382 0.99121 0.69587 0.0
O75 O 0.16089 0.881 0.66188 0.0
C76 C 0.20042 0.97459 0.62345 0.0
O77 O 0.1136 0.91671 0.62584 0.0
O78 O 0.15792 0.92304 0.58823 0.0
O79 O 0.13824 0.99311 0.72165 0.0
O80 O 0.1071 0.96727 0.67166 0.0
C81 C 0.21931 0.92748 0.73032 0.0
O82 O 0.20447 0.94665 0.62547 0.0
O83 O 0.18402 0.9879 0.65794 0.0
C84 C 0.13003 0.91903 0.58431 0.0
O85 O 0.20523 0.90763 0.70424 0.0
O86 O 0.21021 0.95427 0.73029 0.0
C87 C 0.13708 0.94674 0.80162 0.0
Fe88 Fe 0.59935 0.34283 0.85915 0.0
Fe89 Fe 0.54118 0.34016 0.79288 0.0
O90 O 0.57093 0.36115 0.82222 0.0
Fe91 Fe 0.57188 0.40034 0.814 0.0
O92 O 0.60801 0.39913 0.78163 0.0
O93 O 0.62984 0.36781 0.83757 0.0
O94 O 0.60915 0.31953 0.80203 0.0
C95 C 0.59134 0.3016 0.7797 0.0
C96 C 0.59225 0.39285 0.92171 0.0
O97 O 0.56325 0.3055 0.78395 0.0
C98 C 0.51204 0.39437 0.8243 0.0
O99 O 0.57356 0.31486 0.88735 0.0
O100 O 0.52834 0.32827 0.85941 0.0
O101 O 0.58892 0.40855 0.87983 0.0
O102 O 0.59195 0.36476 0.91902 0.0
C103 C 0.55695 0.37799 0.71154 0.0
O104 O 0.5133 0.37094 0.79527 0.0
O105 O 0.53559 0.40427 0.84594 0.0
C106 C 0.54526 0.31533 0.89318 0.0
O107 O 0.55323 0.35108 0.72556 0.0
O108 O 0.55572 0.39899 0.74599 0.0
C109 C 0.63127 0.38691 0.80002 0.0
Fe110 Fe 0.18052 0.5416 0.28684 0.0
Fe111 Fe 0.11977 0.57072 0.31334 0.0
O112 O 0.15946 0.57028 0.3195 0.0
Fe113 Fe 0.17859 0.59831 0.35652 0.0
O114 O 0.20126 0.60871 0.29867 0.0
O115 O 0.21525 0.56325 0.2791 0.0
O116 O 0.1684 0.55531 0.22118 0.0
C117 C 0.14109 0.55798 0.20778 0.0
C118 C 0.20696 0.54357 0.38602 0.0
O119 O 0.12033 0.55708 0.24291 0.0
C120 C 0.12968 0.59088 0.42208 0.0
O121 O 0.15024 0.51369 0.28717 0.0
O122 O 0.11635 0.53313 0.34034 0.0
O123 O 0.20682 0.57193 0.38249 0.0
O124 O 0.19365 0.52729 0.35145 0.0
C125 C 0.13233 0.63079 0.30342 0.0
O126 O 0.11265 0.58558 0.38209 0.0
O127 O 0.15775 0.5909 0.41713 0.0
C128 C 0.12709 0.51071 0.31607 0.0
O129 O 0.11953 0.6078 0.28527 0.0
O130 O 0.15334 0.62902 0.33763 0.0
C131 C 0.21945 0.59109 0.27644 0.0
Fe132 Fe 0.93984 0.11782 0.79709 0.0
Fe133 Fe 0.9202 0.1777 0.84835 0.0
O134 O 0.94615 0.15642 0.80974 0.0
Fe135 Fe 0.97828 0.1744 0.78322 0.0
O136 O 0.96561 0.16667 0.71481 0.0
O137 O 0.95445 0.11912 0.72775 0.0
O138 O 0.90332 0.1249 0.76771 0.0
C139 C 0.88191 0.13864 0.78962 0.0
C140 C 1.00071 0.11604 0.80532 0.0
O141 O 0.88649 0.15627 0.82881 0.0
C142 C 0.9767 0.19899 0.88412 0.0
O143 O 0.9241 0.11058 0.86496 0.0
O144 O 0.92659 0.15451 0.90604 0.0
O145 O 1.00234 0.14115 0.78251 0.0
O146 O 0.97612 0.10682 0.82384 0.0
C147 C 0.93332 0.2187 0.77232 0.0
O148 O 0.94882 0.20283 0.8768 0.0
O149 O 0.99207 0.18342 0.85126 0.0
C150 C 0.92513 0.12646 0.90761 0.0
O151 O 0.91276 0.2028 0.79217 0.0
O152 O 0.9605 0.21106 0.77735 0.0
C153 C 0.95843 0.14118 0.69656 0.0
Fe154 Fe 0.3952 0.93462 0.30944 0.0
Fe155 Fe 0.33586 0.9197 0.3645 0.0
O156 O 0.35641 0.94167 0.31816 0.0
Fe157 Fe 0.33815 0.97012 0.28085 0.0
O158 O 0.36086 0.96429 0.21937 0.0
O159 O 0.39015 0.92589 0.23869 0.0
O160 O 0.39251 0.89424 0.32274 0.0
C161 C 0.37041 0.87663 0.3176 0.0
C162 C 0.39157 0.99801 0.29813 0.0
O163 O 0.34407 0.88574 0.32657 0.0
C164 C 0.31174 0.97431 0.38659 0.0
O165 O 0.40283 0.94321 0.38004 0.0
O166 O 0.36756 0.91349 0.41047 0.0
O167 O 0.36356 0.9991 0.30573 0.0
O168 O 0.40488 0.97319 0.29299 0.0
C169 C 0.29463 0.92723 0.27877 0.0
O170 O 0.32645 0.9524 0.40466 0.0
O171 O 0.31174 0.98012 0.33624 0.0
C172 C 0.391 0.92882 0.41814 0.0
O173 O 0.30017 0.92172 0.32778 0.0
O174 O 0.31181 0.94365 0.25173 0.0
C175 C 0.37791 0.94296 0.20471 0.0
Fe176 Fe 0.44192 0.89597 0.80816 0.0
Fe177 Fe 0.47586 0.83749 0.78115 0.0
O178 O 0.44791 0.85718 0.81809 0.0
Fe179 Fe 0.42533 0.83802 0.86533 0.0
O180 O 0.39178 0.84634 0.82722 0.0
O181 O 0.40105 0.89439 0.82087 0.0
O182 O 0.43329 0.89027 0.73776 0.0
C183 C 0.44963 0.87679 0.70396 0.0
C184 C 0.43566 0.8932 0.91712 0.0
O185 O 0.47057 0.85933 0.71871 0.0
C186 C 0.47943 0.81298 0.88788 0.0
O187 O 0.48116 0.90434 0.79177 0.0
O188 O 0.5057 0.86227 0.80488 0.0
O189 O 0.41973 0.87024 0.9099 0.0
O190 O 0.45034 0.9044 0.87871 0.0
C191 C 0.43059 0.79605 0.78103 0.0
O192 O 0.48515 0.81184 0.8375 0.0
O193 O 0.45785 0.82849 0.90549 0.0
C194 C 0.50554 0.89025 0.79804 0.0
O195 O 0.44853 0.81142 0.75344 0.0
O196 O 0.42614 0.80205 0.83019 0.0
C197 C 0.38317 0.87243 0.81623 0.0
Fe198 Fe 0.62023 0.43777 0.32367 0.0
Fe199 Fe 0.67883 0.46866 0.2901 0.0
O200 O 0.65959 0.44211 0.33053 0.0
Fe201 Fe 0.67993 0.41979 0.37658 0.0
O202 O 0.65681 0.38615 0.36782 0.0
O203 O 0.62382 0.39871 0.30583 0.0
O204 O 0.62016 0.44531 0.25106 0.0
C205 C 0.64122 0.44222 0.21727 0.0
C206 C 0.62966 0.43135 0.43636 0.0
O207 O 0.66801 0.44856 0.22921 0.0
C208 C 0.70556 0.47772 0.38792 0.0
O209 O 0.61357 0.47689 0.34053 0.0
O210 O 0.64676 0.49429 0.28347 0.0
O211 O 0.65778 0.43293 0.43317 0.0
O212 O 0.61353 0.42854 0.39467 0.0
C213 C 0.72016 0.42076 0.29402 0.0
O214 O 0.69116 0.4897 0.3495 0.0
O215 O 0.70657 0.44956 0.39333 0.0
C216 C 0.62337 0.4979 0.31169 0.0
O217 O 0.71448 0.44823 0.28814 0.0
O218 O 0.70375 0.40479 0.32339 0.0
C219 C 0.63801 0.37906 0.33169 0.0
Fe220 Fe 0.10226 0.6708 0.85505 0.0
Fe221 Fe 0.08195 0.60997 0.80871 0.0
O222 O 0.07566 0.64868 0.81979 0.0
Fe223 Fe 0.04267 0.66569 0.79402 0.0
O224 O 0.05889 0.703 0.78585 0.0
O225 O 0.10686 0.6959 0.79819 0.0
O226 O 0.13538 0.65048 0.8303 0.0
C227 C 0.13865 0.63228 0.7915 0.0
C228 C 0.04572 0.69058 0.89478 0.0
O229 O 0.11704 0.61689 0.77422 0.0
C230 C 0.02194 0.60739 0.82178 0.0
O231 O 0.10017 0.64775 0.91438 0.0
O232 O 0.101 0.60373 0.87389 0.0
O233 O 0.02993 0.67527 0.8622 0.0
O234 O 0.07355 0.69466 0.88682 0.0
C235 C 0.06035 0.63085 0.70853 0.0
O236 O 0.04695 0.59994 0.84141 0.0
O237 O 0.01957 0.63174 0.79634 0.0
C238 C 0.1038 0.61987 0.91581 0.0
O239 O 0.06448 0.60961 0.74137 0.0
O240 O 0.05453 0.65709 0.72503 0.0
C241 C 0.08569 0.71138 0.77963 0.0
Fe242 Fe 0.83897 0.09711 0.36427 0.0
Fe243 Fe 0.89686 0.08437 0.30321 0.0
O244 O 0.8588 0.07581 0.3154 0.0
Fe245 Fe 0.84054 0.04685 0.27859 0.0
O246 O 0.81218 0.07257 0.25369 0.0
O247 O 0.8023 0.09432 0.33115 0.0
O248 O 0.84491 0.13158 0.32683 0.0
C249 C 0.87072 0.14142 0.31608 0.0
C250 C 0.81709 0.04192 0.38667 0.0
O251 O 0.89333 0.12436 0.31876 0.0
C252 C 0.89576 0.02106 0.28688 0.0
O253 O 0.87179 0.10396 0.40734 0.0
O254 O 0.90712 0.07556 0.3725 0.0
O255 O 0.81648 0.03565 0.33636 0.0
O256 O 0.83183 0.06404 0.40397 0.0
C257 C 0.8763 0.07615 0.19993 0.0
O258 O 0.90748 0.04664 0.28387 0.0
O259 O 0.86816 0.01834 0.29811 0.0
C260 C 0.89616 0.08966 0.41211 0.0
O261 O 0.8889 0.09344 0.23353 0.0
O262 O 0.86075 0.05404 0.21525 0.0
C263 C 0.79555 0.08881 0.28261 0.0
Fe264 Fe 0.45031 0.61576 0.20313 0.0
Fe265 Fe 0.48284 0.67503 0.22516 0.0
O266 O 0.4525 0.65513 0.19551 0.0
Fe267 Fe 0.4247 0.67489 0.15901 0.0
O268 O 0.39329 0.65078 0.17912 0.0
O269 O 0.41355 0.61782 0.23378 0.0
O270 O 0.46556 0.6162 0.27201 0.0
C271 C 0.46685 0.63724 0.30645 0.0
C272 C 0.43095 0.62493 0.095 0.0
O273 O 0.47057 0.66405 0.29195 0.0
C274 C 0.47968 0.7017 0.12657 0.0
O275 O 0.48717 0.61019 0.17316 0.0
O276 O 0.5096 0.64377 0.22295 0.0
O277 O 0.43146 0.65303 0.09873 0.0
O278 O 0.43413 0.60861 0.13619 0.0
C279 C 0.4345 0.71545 0.23951 0.0
O280 O 0.49621 0.6874 0.15921 0.0
O281 O 0.45137 0.70219 0.13197 0.0
C282 C 0.51061 0.61995 0.19538 0.0
O283 O 0.46221 0.71007 0.23489 0.0
O284 O 0.41559 0.69869 0.21668 0.0
C285 C 0.39077 0.63071 0.21471 0.0
Fe286 Fe 0.89881 0.43834 0.69191 0.0
Fe287 Fe 0.83958 0.4712 0.71648 0.0
O288 O 0.86003 0.44403 0.67908 0.0
Fe289 Fe 0.84132 0.42192 0.63018 0.0
O290 O 0.86375 0.38806 0.64081 0.0
O291 O 0.89278 0.39972 0.70933 0.0
O292 O 0.89615 0.44662 0.76457 0.0
C293 C 0.87369 0.44518 0.79573 0.0
C294 C 0.89397 0.43247 0.57759 0.0
O295 O 0.84769 0.45165 0.77912 0.0
C296 C 0.81644 0.47986 0.61583 0.0
O297 O 0.90778 0.47687 0.67667 0.0
O298 O 0.8717 0.49647 0.72605 0.0
O299 O 0.86584 0.43499 0.57725 0.0
O300 O 0.90825 0.4285 0.62131 0.0
C301 C 0.79843 0.42347 0.70831 0.0
O302 O 0.82967 0.49191 0.65561 0.0
O303 O 0.81545 0.45171 0.61053 0.0
C304 C 0.89686 0.49866 0.70263 0.0
O305 O 0.80381 0.45101 0.7145 0.0
O306 O 0.81549 0.40726 0.68014 0.0
C307 C 0.87978 0.38046 0.68053 0.0
Fe308 Fe 0.03808 0.83468 0.22003 0.0
Fe309 Fe 0.09291 0.84052 0.14622 0.0
O310 O 0.06555 0.85738 0.18845 0.0
Fe311 Fe 0.06591 0.89647 0.20023 0.0
O312 O 0.05408 0.89324 0.27108 0.0
O313 O 0.05249 0.84473 0.28658 0.0
O314 O 0.0616 0.80105 0.22291 0.0
C315 C 0.08982 0.79812 0.22392 0.0
C316 C 1.00554 0.88859 0.20043 0.0
O317 O 0.10634 0.81689 0.20067 0.0
C318 C 0.08001 0.89077 0.08811 0.0
O319 O 0.02282 0.82325 0.15438 0.0
O320 O 0.06728 0.81161 0.1208 0.0
O321 O 0.02743 0.90073 0.17672 0.0
O322 O 0.00921 0.86397 0.2245 0.0
C323 C 0.12624 0.88391 0.20356 0.0
O324 O 0.08143 0.86269 0.08918 0.0
O325 O 0.07874 0.90618 0.13128 0.0
C326 C 0.03889 0.81083 0.11838 0.0
O327 O 0.12344 0.86656 0.16343 0.0
O328 O 0.10369 0.89523 0.22615 0.0
C329 C 0.05638 0.87128 0.30311 0.0
Fe330 Fe 0.61175 0.07348 0.69561 0.0
Fe331 Fe 0.67231 0.04457 0.72649 0.0
O332 O 0.65121 0.07098 0.68849 0.0
Fe333 Fe 0.6694 0.09569 0.64325 0.0
O334 O 0.65673 0.12846 0.68148 0.0
O335 O 0.60984 0.1137 0.6834 0.0
O336 O 0.61529 0.08239 0.76657 0.0
C337 C 0.62964 0.06772 0.80159 0.0
C338 C 0.61575 0.08142 0.58732 0.0
O339 O 0.64898 0.04821 0.78788 0.0
C340 C 0.69924 0.04374 0.62084 0.0
O341 O 0.60595 0.03411 0.71012 0.0
O342 O 0.6502 0.01272 0.70219 0.0
O343 O 0.63765 0.09864 0.59646 0.0
O344 O 0.60564 0.06488 0.62424 0.0
C345 C 0.712 0.09148 0.72835 0.0
O346 O 0.69937 0.03726 0.67095 0.0
O347 O 0.6829 0.06456 0.60286 0.0
C348 C 0.62193 0.01105 0.70467 0.0
O349 O 0.69631 0.07357 0.75551 0.0
O350 O 0.70499 0.09751 0.68022 0.0
C351 C 0.62924 0.13403 0.68945 0.0
H352 H 0.63043 0.24019 0.28327 0.0
H353 H 0.53955 0.26572 0.24404 0.0
H354 H 0.55026 0.31724 0.26833 0.0
H355 H 0.58553 0.35568 0.29751 0.0
H356 H 0.67568 0.33114 0.3422 0.0
H357 H 0.66519 0.27877 0.31932 0.0
C358 C 0.61299 0.25704 0.28048 0.0
C359 C 0.58428 0.24902 0.26174 0.0
C360 C 0.61915 0.28687 0.29531 0.0
C361 C 0.56181 0.27109 0.25866 0.0
C362 C 0.56791 0.3007 0.27228 0.0
C363 C 0.60286 0.33884 0.30238 0.0
C364 C 0.63136 0.34722 0.3211 0.0
C365 C 0.59652 0.30889 0.29013 0.0
C366 C 0.6535 0.32515 0.32795 0.0
C367 C 0.64754 0.29526 0.31471 0.0
H368 H 0.25617 0.59922 0.66295 0.0
H369 H 0.29566 0.61468 0.81965 0.0
H370 H 0.2467 0.62984 0.85553 0.0
H371 H 0.19221 0.63615 0.84326 0.0
H372 H 0.15237 0.61632 0.68836 0.0
H373 H 0.20192 0.60542 0.6507 0.0
C374 C 0.25411 0.60632 0.70477 0.0
C375 C 0.27945 0.60613 0.73859 0.0
C376 C 0.2258 0.61398 0.72544 0.0
C377 C 0.2764 0.61474 0.79293 0.0
C378 C 0.24845 0.62335 0.81341 0.0
C379 C 0.19448 0.62974 0.80114 0.0
C380 C 0.16877 0.62709 0.76855 0.0
C381 C 0.22293 0.6227 0.7802 0.0
C382 C 0.17188 0.61834 0.71425 0.0
C383 C 0.20017 0.61218 0.69269 0.0
H384 H 0.92209 0.1722 0.32911 0.0
H385 H 0.8304 0.18248 0.27677 0.0
H386 H 0.841 0.23397 0.24879 0.0
H387 H 0.87776 0.27458 0.23293 0.0
H388 H 0.96933 0.26267 0.28606 0.0
H389 H 0.95719 0.21335 0.32022 0.0
C390 C 0.90432 0.18571 0.31182 0.0
C391 C 0.87561 0.17344 0.30438 0.0
C392 C 0.9106 0.21498 0.29574 0.0
C393 C 0.85272 0.19143 0.28283 0.0
C394 C 0.85882 0.2208 0.26664 0.0
C395 C 0.89495 0.26132 0.25252 0.0
C396 C 0.92454 0.27224 0.25615 0.0
C397 C 0.88788 0.23263 0.27196 0.0
C398 C 0.94648 0.25478 0.28202 0.0
C399 C 0.93959 0.22651 0.30163 0.0
H400 H 0.35212 0.92484 0.81846 0.0
H401 H 0.34274 0.83106 0.7805 0.0
H402 H 0.29083 0.83929 0.75266 0.0
H403 H 0.24849 0.87356 0.73591 0.0
H404 H 0.25814 0.96715 0.77611 0.0
H405 H 0.30921 0.9584 0.8065 0.0
C406 C 0.33872 0.90619 0.80417 0.0
C407 C 0.35138 0.87745 0.80131 0.0
C408 C 0.3088 0.911 0.78861 0.0
C409 C 0.33356 0.85346 0.78321 0.0
C410 C 0.30385 0.85813 0.76716 0.0
C411 C 0.26168 0.89199 0.75169 0.0
C412 C 0.24939 0.92098 0.75325 0.0
C413 C 0.29127 0.88686 0.7693 0.0
C414 C 0.26687 0.94456 0.77417 0.0
C415 C 0.29622 0.93965 0.7915 0.0
H416 H 0.55993 0.25304 0.74577 0.0
H417 H 0.65022 0.28631 0.76349 0.0
H418 H 0.67029 0.23786 0.73525 0.0
H419 H 0.66215 0.18483 0.71029 0.0
H420 H 0.57126 0.15244 0.69468 0.0
H421 H 0.55181 0.20151 0.71725 0.0
C422 C 0.584 0.24986 0.74295 0.0
C423 C 0.60344 0.27328 0.7571 0.0
C424 C 0.59544 0.22187 0.72742 0.0
C425 C 0.63464 0.26863 0.75313 0.0
C426 C 0.64619 0.24088 0.73708 0.0
C427 C 0.63813 0.18859 0.71152 0.0
C428 C 0.61835 0.16477 0.70104 0.0
C429 C 0.6268 0.21712 0.72495 0.0
C430 C 0.5872 0.17015 0.70282 0.0
C431 C 0.57591 0.19831 0.71569 0.0
H432 H 0.33663 0.6585 0.20058 0.0
H433 H 0.377 0.57797 0.26322 0.0
H434 H 0.3276 0.55816 0.28456 0.0
H435 H 0.273 0.5634 0.28569 0.0
H436 H 0.23203 0.6449 0.22966 0.0
H437 H 0.28151 0.66452 0.20497 0.0
C438 C 0.33459 0.63663 0.21895 0.0
C439 C 0.36057 0.61975 0.23005 0.0
C440 C 0.30599 0.62544 0.23189 0.0
C441 C 0.3575 0.59156 0.25435 0.0
C442 C 0.3292 0.58009 0.26638 0.0
C443 C 0.27487 0.58532 0.26747 0.0
C444 C 0.24892 0.60252 0.25866 0.0
C445 C 0.30333 0.59675 0.25513 0.0
C446 C 0.25173 0.6312 0.23639 0.0
C447 C 0.27999 0.64242 0.22245 0.0
H448 H 0.9284 0.35653 0.7278 0.0
H449 H 0.84302 0.33309 0.6578 0.0
H450 H 0.85144 0.28042 0.68067 0.0
H451 H 0.88326 0.24114 0.72256 0.0
H452 H 0.96974 0.26602 0.78714 0.0
H453 H 0.96063 0.31795 0.76468 0.0
C454 C 0.91162 0.3399 0.71753 0.0
C455 C 0.88511 0.34857 0.69154 0.0
C456 C 0.9168 0.3099 0.72996 0.0
C457 C 0.86371 0.3268 0.67772 0.0
C458 C 0.86845 0.29676 0.69097 0.0
C459 C 0.9 0.25802 0.73149 0.0
C460 C 0.92707 0.24977 0.75644 0.0
C461 C 0.89491 0.28805 0.71739 0.0
C462 C 0.94879 0.27174 0.76755 0.0
C463 C 0.94361 0.3015 0.7549 0.0
H464 H 0.17879 0.88929 0.14771 0.0
H465 H 0.14071 0.89523 0.30758 0.0
H466 H 0.18959 0.90803 0.34506 0.0
H467 H 0.2429 0.91821 0.33264 0.0
H468 H 0.28124 0.91593 0.17279 0.0
H469 H 0.23264 0.901 0.13495 0.0
C470 C 0.18135 0.89328 0.19072 0.0
C471 C 0.15624 0.89137 0.22486 0.0
C472 C 0.20953 0.90127 0.21195 0.0
C473 C 0.15967 0.89688 0.28045 0.0
C474 C 0.18763 0.90407 0.30197 0.0
C475 C 0.24068 0.91421 0.28955 0.0
C476 C 0.2656 0.91785 0.25557 0.0
C477 C 0.21266 0.90641 0.26812 0.0
C478 C 0.2623 0.9132 0.19971 0.0
C479 C 0.23456 0.90465 0.17812 0.0
H480 H 0.35993 0.67785 0.72665 0.0
H481 H 0.43778 0.66308 0.62678 0.0
H482 H 0.45636 0.71307 0.64863 0.0
H483 H 0.45271 0.75926 0.70264 0.0
H484 H 0.37714 0.77197 0.80901 0.0
H485 H 0.35539 0.7248 0.77816 0.0
C486 C 0.38064 0.6859 0.70894 0.0
C487 C 0.3974 0.66703 0.67501 0.0
C488 C 0.39178 0.7142 0.72339 0.0
C489 C 0.42452 0.67734 0.65305 0.0
C490 C 0.43519 0.70586 0.66562 0.0
C491 C 0.4313 0.75185 0.7184 0.0
C492 C 0.4166 0.76892 0.75811 0.0
C493 C 0.41936 0.72424 0.70172 0.0
C494 C 0.38899 0.75899 0.77869 0.0
C495 C 0.37651 0.73207 0.76105 0.0
H496 H 0.77136 0.45167 0.28198 0.0
H497 H 0.73403 0.36333 0.26406 0.0
H498 H 0.78283 0.34438 0.23301 0.0
H499 H 0.83642 0.35327 0.2118 0.0
H500 H 0.8734 0.4414 0.23715 0.0
H501 H 0.82441 0.46007 0.26467 0.0
C502 C 0.77383 0.42829 0.2709 0.0
C503 C 0.74915 0.40896 0.27461 0.0
C504 C 0.80192 0.41753 0.25469 0.0
C505 C 0.75279 0.37861 0.26129 0.0
C506 C 0.78063 0.36782 0.24357 0.0
C507 C 0.83364 0.37655 0.22323 0.0
C508 C 0.85846 0.39594 0.22221 0.0
C509 C 0.8054 0.3871 0.24021 0.0
C510 C 0.85469 0.42597 0.23778 0.0
C511 C 0.82666 0.43673 0.25337 0.0
H512 H 0.08988 0.84897 0.72825 0.0
H513 H 0.18229 0.82788 0.69348 0.0
H514 H 0.17307 0.77518 0.71451 0.0
H515 H 0.13863 0.73534 0.74487 0.0
H516 H 0.04562 0.75707 0.77438 0.0
H517 H 0.05515 0.80915 0.75279 0.0
C518 C 0.10803 0.83284 0.72547 0.0
C519 C 0.13677 0.84225 0.71002 0.0
C520 C 0.1024 0.80266 0.73635 0.0
C521 C 0.15996 0.82108 0.70547 0.0
C522 C 0.1547 0.791 0.71749 0.0
C523 C 0.12046 0.75147 0.74618 0.0
C524 C 0.09151 0.74228 0.7614 0.0
C525 C 0.126 0.78154 0.73318 0.0
C526 C 0.0681 0.76341 0.76254 0.0
C527 C 0.07353 0.7933 0.7505 0.0
H528 H 0.67951 0.13292 0.15907 0.0
H529 H 0.64295 0.12638 0.31978 0.0
H530 H 0.69206 0.1118 0.3549 0.0
H531 H 0.74487 0.09931 0.33955 0.0
H532 H 0.78092 0.10139 0.178 0.0
H533 H 0.73259 0.11911 0.14335 0.0
C534 C 0.68252 0.1286 0.20181 0.0
C535 C 0.65788 0.13095 0.23698 0.0
C536 C 0.7106 0.1192 0.2214 0.0
C537 C 0.66172 0.12474 0.2921 0.0
C538 C 0.68973 0.11638 0.31215 0.0
C539 C 0.74218 0.10383 0.29679 0.0
C540 C 0.76641 0.09926 0.26139 0.0
C541 C 0.71425 0.11329 0.27712 0.0
C542 C 0.76251 0.10469 0.20597 0.0
C543 C 0.73494 0.1149 0.18621 0.0
H544 H 0.42234 0.84629 0.33135 0.0
H545 H 0.33118 0.83512 0.27662 0.0
H546 H 0.34211 0.78327 0.25072 0.0
H547 H 0.3788 0.74207 0.2385 0.0
H548 H 0.46966 0.75439 0.2951 0.0
H549 H 0.45745 0.80461 0.3257 0.0
C550 C 0.40479 0.83252 0.31389 0.0
C551 C 0.37609 0.84465 0.30538 0.0
C552 C 0.41119 0.80285 0.29936 0.0
C553 C 0.3535 0.82632 0.28353 0.0
C554 C 0.35976 0.7967 0.26859 0.0
C555 C 0.3958 0.75561 0.25813 0.0
C556 C 0.42522 0.74445 0.2638 0.0
C557 C 0.38869 0.78482 0.27563 0.0
C558 C 0.44692 0.76236 0.28958 0.0
C559 C 0.44 0.79119 0.30711 0.0
H560 H 0.68431 0.35643 0.7979 0.0
H561 H 0.64394 0.44132 0.75818 0.0
H562 H 0.69223 0.4601 0.72756 0.0
H563 H 0.74584 0.45282 0.71264 0.0
H564 H 0.7864 0.36723 0.74501 0.0
H565 H 0.73815 0.34821 0.77795 0.0
C566 C 0.6862 0.37904 0.78268 0.0
C567 C 0.66069 0.39754 0.78077 0.0
C568 C 0.71401 0.38955 0.7639 0.0
C569 C 0.66326 0.42663 0.76009 0.0
C570 C 0.69086 0.43744 0.74267 0.0
C571 C 0.74412 0.43003 0.72715 0.0
C572 C 0.76954 0.41151 0.72716 0.0
C573 C 0.71635 0.41916 0.74457 0.0
C574 C 0.767 0.38185 0.74486 0.0
C575 C 0.73949 0.37104 0.76372 0.0
H576 H 0.0621 0.74481 0.2261 0.0
H577 H 0.14652 0.78733 0.26236 0.0
H578 H 0.16728 0.7392 0.29178 0.0
H579 H 0.16114 0.68473 0.30625 0.0
H580 H 0.07697 0.64304 0.26388 0.0
H581 H 0.05644 0.69122 0.23766 0.0
C582 C 0.08498 0.74365 0.24088 0.0
C583 C 0.10268 0.76958 0.24271 0.0
C584 C 0.09683 0.71602 0.25636 0.0
C585 C 0.13248 0.76761 0.26079 0.0
C586 C 0.14431 0.74014 0.27758 0.0
C587 C 0.1383 0.68629 0.29142 0.0
C588 C 0.12061 0.66034 0.2872 0.0
C589 C 0.12667 0.71414 0.27543 0.0
C590 C 0.09115 0.66261 0.26733 0.0
C591 C 0.07931 0.69017 0.25246 0.0
H592 H 0.83089 0.13197 0.84996 0.0
H593 H 0.86395 0.13035 0.68629 0.0
H594 H 0.81405 0.11727 0.65302 0.0
H595 H 0.76159 0.10453 0.67025 0.0
H596 H 0.72868 0.10144 0.83385 0.0
H597 H 0.77779 0.11797 0.86743 0.0
C598 C 0.82698 0.12906 0.80701 0.0
C599 C 0.851 0.1324 0.77053 0.0
C600 C 0.79831 0.12051 0.78823 0.0
C601 C 0.84582 0.12796 0.71509 0.0
C602 C 0.8173 0.12046 0.69606 0.0
C603 C 0.76503 0.10776 0.71328 0.0
C604 C 0.74136 0.10208 0.74948 0.0
C605 C 0.79345 0.11643 0.73223 0.0
C606 C 0.74647 0.10572 0.80515 0.0
C607 C 0.77455 0.11521 0.82431 0.0
H608 H 0.61844 0.08229 0.05631 0.0
H609 H 0.56134 0.1549 0.00544 0.0
H610 H 0.56837 0.14073 0.91133 0.0
H611 H 0.5927 0.11002 0.84323 0.0
H612 H 0.65188 0.03839 0.89081 0.0
H613 H 0.64213 0.04986 0.98612 0.0
C614 C 0.60727 0.09465 0.02453 0.0
C615 C 0.58944 0.11963 0.03781 0.0
C616 C 0.612 0.08678 0.96986 0.0
C617 C 0.57533 0.1357 0.99624 0.0
C618 C 0.57934 0.12764 0.94236 0.0
C619 C 0.60338 0.09667 0.87425 0.0
C620 C 0.62305 0.07338 0.85963 0.0
C621 C 0.598 0.10359 0.92867 0.0
C622 C 0.63669 0.05651 0.90075 0.0
C623 C 0.63111 0.06305 0.95533 0.0
H624 H 0.42458 0.62843 0.54614 0.0
H625 H 0.42535 0.53441 0.50773 0.0
H626 H 0.44931 0.54512 0.42041 0.0
H627 H 0.46343 0.58203 0.35154 0.0
H628 H 0.46069 0.67627 0.39073 0.0
H629 H 0.44458 0.66462 0.48228 0.0
C630 C 0.43053 0.61028 0.5189 0.0
C631 C 0.42306 0.58079 0.53231 0.0
C632 C 0.44369 0.6167 0.46919 0.0
C633 C 0.43099 0.55726 0.49764 0.0
C634 C 0.44445 0.56344 0.44785 0.0
C635 C 0.45974 0.60002 0.38031 0.0
C636 C 0.46269 0.63003 0.36403 0.0
C637 C 0.44992 0.59319 0.43256 0.0
C638 C 0.45834 0.65303 0.40204 0.0
C639 C 0.449 0.64641 0.45432 0.0
H640 H 0.87908 0.38326 0.02386 0.0
H641 H 0.9647 0.42764 0.02828 0.0
H642 H 0.95507 0.44933 0.93904 0.0
H643 H 0.92265 0.45438 0.85884 0.0
H644 H 0.83515 0.41339 0.8581 0.0
H645 H 0.84482 0.39196 0.9472 0.0
C646 C 0.89554 0.39769 0.00503 0.0
C647 C 0.92271 0.40361 0.03169 0.0
C648 C 0.88939 0.41077 0.95476 0.0
C649 C 0.94374 0.42275 0.00795 0.0
C650 C 0.93821 0.43511 0.95711 0.0
C651 C 0.90564 0.44095 0.87849 0.0
C652 C 0.87829 0.43532 0.85199 0.0
C653 C 0.91117 0.42914 0.93003 0.0
C654 C 0.85628 0.41818 0.87795 0.0
C655 C 0.86189 0.40575 0.92867 0.0
H656 H 0.09102 0.91628 0.33974 0.0
H657 H 0.04174 0.83916 0.39362 0.0
H658 H 0.05837 0.84851 0.48672 0.0
H659 H 0.08874 0.8778 0.55219 0.0
H660 H 0.14268 0.95091 0.49459 0.0
H661 H 0.12263 0.94393 0.40341 0.0
C662 C 0.08371 0.90163 0.37193 0.0
C663 C 0.06492 0.87724 0.35997 0.0
C664 C 0.09439 0.9064 0.4246 0.0
C665 C 0.0561 0.85814 0.4019 0.0
C666 C 0.06564 0.86348 0.45506 0.0
C667 C 0.09579 0.89232 0.51964 0.0
C668 C 0.11685 0.91506 0.52999 0.0
C669 C 0.085 0.88743 0.46683 0.0
C670 C 0.12641 0.93335 0.48745 0.0
C671 C 0.11495 0.92938 0.43541 0.0
H672 H 0.59881 0.36623 0.01896 0.0
H673 H 0.60473 0.45198 0.94033 0.0
H674 H 0.62208 0.47488 0.02452 0.0
H675 H 0.6359 0.47035 0.12107 0.0
H676 H 0.629 0.38458 0.19842 0.0
H677 H 0.61205 0.36172 0.11398 0.0
C678 C 0.6038 0.38996 0.02012 0.0
C679 C 0.60052 0.40732 0.97338 0.0
C680 C 0.61393 0.40289 0.06834 0.0
C681 C 0.60695 0.43808 0.97581 0.0
C682 C 0.61704 0.45119 0.02384 0.0
C683 C 0.63103 0.44662 0.11878 0.0
C684 C 0.63398 0.42891 0.16497 0.0
C685 C 0.62081 0.43377 0.07028 0.0
C686 C 0.62709 0.39837 0.16273 0.0
C687 C 0.6173 0.38538 0.11468 0.0
H688 H 0.07934 0.57344 0.47802 0.0
H689 H 0.15251 0.63641 0.48015 0.0
H690 H 0.1347 0.6574 0.56512 0.0
H691 H 0.10066 0.65579 0.64251 0.0
H692 H 0.03091 0.58951 0.64752 0.0
H693 H 0.04442 0.57227 0.55637 0.0
C694 C 0.09115 0.59185 0.4971 0.0
C695 C 0.11733 0.60315 0.47309 0.0
C696 C 0.08122 0.6034 0.5472 0.0
C697 C 0.13256 0.62698 0.49826 0.0
C698 C 0.1223 0.63917 0.54674 0.0
C699 C 0.08796 0.63815 0.62283 0.0
C700 C 0.06443 0.62439 0.65066 0.0
C701 C 0.09693 0.62735 0.57197 0.0
C702 C 0.04877 0.60075 0.62602 0.0
C703 C 0.05667 0.59074 0.57422 0.0
H704 H 0.88276 0.08822 0.94595 0.0
H705 H 0.96298 0.13621 0.9895 0.0
H706 H 0.95557 0.12389 0.08439 0.0
H707 H 0.92392 0.10378 0.15545 0.0
H708 H 0.84292 0.05624 0.11431 0.0
H709 H 0.85281 0.06406 0.01806 0.0
C710 C 0.89892 0.09517 0.97626 0.0
C711 C 0.9234 0.11298 0.96131 0.0
C712 C 0.89403 0.08865 0.0311 0.0
C713 C 0.94402 0.12245 1.0006 0.0
C714 C 0.93969 0.11559 0.05474 0.0
C715 C 0.9084 0.09513 0.12545 0.0
C716 C 0.8825 0.07993 0.14186 0.0
C717 C 0.9143 0.09954 0.07059 0.0
C718 C 0.86294 0.06824 0.10253 0.0
C719 C 0.8686 0.07266 0.04756 0.0
H720 H 0.43647 0.9298 0.65779 0.0
H721 H 0.45134 0.83664 0.62114 0.0
H722 H 0.43624 0.84504 0.52719 0.0
H723 H 0.41437 0.87816 0.45807 0.0
H724 H 0.40205 0.97176 0.49328 0.0
H725 H 0.4209 0.96417 0.58541 0.0
C726 C 0.43671 0.91147 0.62894 0.0
C727 C 0.4446 0.88259 0.64614 0.0
C728 C 0.42843 0.91659 0.57508 0.0
C729 C 0.44534 0.85903 0.60855 0.0
C730 C 0.43658 0.86381 0.55504 0.0
C731 C 0.4164 0.8969 0.48583 0.0
C732 C 0.40689 0.92543 0.46963 0.0
C733 C 0.42747 0.89235 0.53822 0.0
C734 C 0.40951 0.9497 0.50527 0.0
C735 C 0.42007 0.9453 0.55784 0.0
H736 H 0.38639 0.92085 0.95401 0.0
H737 H 0.47729 0.8984 0.9965 0.0
H738 H 0.46769 0.91307 0.09063 0.0
H739 H 0.43161 0.92716 0.162 0.0
H740 H 0.34104 0.95101 0.11859 0.0
H741 H 0.35218 0.94104 0.02333 0.0
C742 C 0.40426 0.92008 0.98377 0.0
C743 C 0.43255 0.90897 0.96886 0.0
C744 C 0.39841 0.92825 0.03751 0.0
C745 C 0.45555 0.90747 0.00732 0.0
C746 C 0.44992 0.91549 0.06108 0.0
C747 C 0.41442 0.93032 0.13152 0.0
C748 C 0.38541 0.93927 0.14707 0.0
C749 C 0.42117 0.92503 0.07689 0.0
C750 C 0.36346 0.94396 0.10737 0.0
C751 C 0.36982 0.93825 0.05303 0.0
H752 H 0.58703 0.39153 0.46392 0.0
H753 H 0.64291 0.46175 0.52839 0.0
H754 H 0.623 0.45274 0.61904 0.0
H755 H 0.59192 0.42331 0.67989 0.0
H756 H 0.54043 0.34908 0.61812 0.0
H757 H 0.55631 0.36122 0.52585 0.0
C758 C 0.59441 0.40511 0.49782 0.0
C759 C 0.61598 0.42755 0.48984 0.0
C760 C 0.58381 0.39894 0.54994 0.0
C761 C 0.62613 0.44454 0.53391 0.0
C762 C 0.61481 0.43935 0.58554 0.0
C763 C 0.58384 0.40999 0.64616 0.0
C764 C 0.56475 0.38556 0.65546 0.0
C765 C 0.59394 0.4164 0.59402 0.0
C766 C 0.55503 0.36805 0.61169 0.0
C767 C 0.56411 0.37499 0.55912 0.0
H768 H 0.07984 0.57728 0.98069 0.0
H769 H 0.15631 0.63497 0.96178 0.0
H770 H 0.17679 0.618 0.04808 0.0
H771 H 0.17084 0.5899 0.13241 0.0
H772 H 0.09178 0.53621 0.15577 0.0
H773 H 0.07453 0.54802 0.06468 0.0
C774 C 0.10115 0.58569 0.99539 0.0
C775 C 0.11669 0.60717 0.96533 0.0
C776 C 0.11224 0.57662 0.046 0.0
C777 C 0.14407 0.6184 0.98468 0.0
C778 C 0.15574 0.60873 0.03391 0.0
C779 C 0.15014 0.58037 0.11705 0.0
C780 C 0.13271 0.56208 0.15055 0.0
C781 C 0.13976 0.58826 0.06542 0.0
C782 C 0.1056 0.55034 0.13071 0.0
C783 C 0.09568 0.55715 0.07863 0.0
H784 H 0.90639 0.14217 0.46137 0.0
H785 H 0.92583 0.04803 0.47236 0.0
H786 H 0.94965 0.05605 0.56079 0.0
H787 H 0.96025 0.08944 0.63827 0.0
H788 H 0.94202 0.18392 0.62463 0.0
H789 H 0.92285 0.17629 0.53325 0.0
C790 C 0.91616 0.12349 0.48301 0.0
C791 C 0.91407 0.09451 0.46127 0.0
C792 C 0.92995 0.12837 0.53312 0.0
C793 C 0.9272 0.07049 0.48875 0.0
C794 C 0.94065 0.07508 0.53923 0.0
C795 C 0.95251 0.1084 0.61491 0.0
C796 C 0.95225 0.13717 0.63835 0.0
C797 C 0.94149 0.10385 0.56234 0.0
C798 C 0.94253 0.16159 0.60748 0.0
C799 C 0.93134 0.15722 0.55539 0.0
H800 H 0.39503 0.54926 0.88785 0.0
H801 H 0.39633 0.63754 0.8184 0.0
H802 H 0.40959 0.65921 0.90551 0.0
H803 H 0.42224 0.65327 1.00006 0.0
H804 H 0.42236 0.56544 0.07158 0.0
H805 H 0.40755 0.5434 0.98497 0.0
C806 C 0.39787 0.57323 0.89227 0.0
C807 C 0.39474 0.59182 0.84709 0.0
C808 C 0.40615 0.58559 0.94249 0.0
C809 C 0.39881 0.62282 0.85278 0.0
C810 C 0.40644 0.63524 0.90246 0.0
C811 C 0.41909 0.62928 0.99692 0.0
C812 C 0.42345 0.61109 0.0423 0.0
C813 C 0.41052 0.61683 0.94736 0.0
C814 C 0.41927 0.58001 0.03722 0.0
C815 C 0.41067 0.56738 0.98776 0.0
H816 H 0.9336 0.42775 0.33477 0.0
H817 H 0.97604 0.34635 0.38823 0.0
H818 H 0.96159 0.3578 0.48167 0.0
H819 H 0.93355 0.38937 0.54708 0.0
H820 H 0.88713 0.46774 0.4902 0.0
H821 H 0.90683 0.45936 0.39918 0.0
C822 C 0.94014 0.41267 0.36689 0.0
C823 C 0.95608 0.38631 0.35454 0.0
C824 C 0.93099 0.41893 0.41993 0.0
C825 C 0.96382 0.36679 0.39663 0.0
C826 C 0.95555 0.37334 0.45003 0.0
C827 C 0.92837 0.40488 0.51484 0.0
C828 C 0.90932 0.42938 0.52515 0.0
C829 C 0.93874 0.39915 0.46206 0.0
C830 C 0.90198 0.44892 0.48303 0.0
C831 C 0.91311 0.44405 0.43106 0.0
H832 H 0.086 0.92281 0.84236 0.0
H833 H 0.17121 0.95969 0.89151 0.0
H834 H 0.15929 0.94908 0.98606 0.0
H835 H 0.12597 0.92579 0.05432 0.0
H836 H 0.04293 0.88573 1.00262 0.0
H837 H 0.05236 0.90155 0.90971 0.0
C838 C 0.10194 0.92886 0.87365 0.0
C839 C 0.12953 0.94204 0.85957 0.0
C840 C 0.09517 0.92222 0.92768 0.0
C841 C 0.14986 0.94947 0.90097 0.0
C842 C 0.14303 0.94343 0.95513 0.0
C843 C 0.10968 0.92131 0.02276 0.0
C844 C 0.08349 0.90521 0.03512 0.0
C845 C 0.11591 0.92944 0.96894 0.0
C846 C 0.06294 0.89855 0.99391 0.0
C847 C 0.06846 0.90738 0.94082 0.0
H848 H 0.60058 0.13413 0.54431 0.0
H849 H 0.59264 0.0392 0.51812 0.0
H850 H 0.56998 0.04824 0.42901 0.0
H851 H 0.55651 0.08356 0.35592 0.0
H852 H 0.56337 0.17856 0.38561 0.0
H853 H 0.58205 0.16906 0.47635 0.0
C854 C 0.59362 0.11542 0.51921 0.0
C855 C 0.59857 0.08605 0.53708 0.0
C856 C 0.58049 0.12084 0.46874 0.0
C857 C 0.58903 0.06197 0.50492 0.0
C858 C 0.57625 0.06719 0.45401 0.0
C859 C 0.5617 0.10218 0.38252 0.0
C860 C 0.55873 0.13176 0.36366 0.0
C861 C 0.57244 0.09657 0.43504 0.0
C862 C 0.56534 0.1556 0.3989 0.0
C863 C 0.57621 0.1502 0.45079 0.0
H864 H 0.43293 1.00119 0.21976 0.0
H865 H 0.38693 0.05564 0.33771 0.0
H866 H 0.41745 0.09899 0.31131 0.0
H867 H 0.45994 0.11989 0.25916 0.0
H868 H 0.50467 0.06439 0.14058 0.0
H869 H 0.47135 0.02303 0.16214 0.0
C870 C 0.42957 0.02255 0.23988 0.0
C871 C 0.40823 0.0251 0.28159 0.0
C872 C 0.44681 0.04716 0.22405 0.0
C873 C 0.40347 0.05309 0.30598 0.0
C874 C 0.4209 0.0778 0.29082 0.0
C875 C 0.46206 0.09895 0.23724 0.0
C876 C 0.48513 0.09527 0.19857 0.0
C877 C 0.44299 0.07496 0.25043 0.0
C878 C 0.48737 0.06791 0.17067 0.0
C879 C 0.46841 0.04414 0.18321 0.0
H880 H 0.46687 0.39345 0.74893 0.0
H881 H 0.49995 0.4432 0.8865 0.0
H882 H 0.46622 0.48436 0.86524 0.0
H883 H 0.43222 0.50881 0.80158 0.0
H884 H 0.39783 0.45994 0.66471 0.0
H885 H 0.42713 0.41577 0.69159 0.0
C886 C 0.46614 0.41294 0.7751 0.0
C887 C 0.48631 0.41532 0.81891 0.0
C888 C 0.4469 0.43692 0.76211 0.0
C889 C 0.48496 0.44083 0.85229 0.0
C890 C 0.46579 0.4645 0.83998 0.0
C891 C 0.43097 0.48834 0.77794 0.0
C892 C 0.41346 0.48762 0.73076 0.0
C893 C 0.44755 0.46323 0.79393 0.0
C894 C 0.41139 0.46094 0.70099 0.0
C895 C 0.42816 0.43578 0.71635 0.0
H896 H 0.05365 0.39311 0.26426 0.0
H897 H 0.01603 0.45179 0.14369 0.0
H898 H 0.04814 0.49229 0.17523 0.0
H899 H 0.0846 0.51201 0.24008 0.0
H900 H 0.12504 0.45385 0.35732 0.0
H901 H 0.0934 0.41226 0.32535 0.0
C902 C 0.05283 0.41458 0.24416 0.0
C903 C 0.03221 0.41928 0.20161 0.0
C904 C 0.07125 0.43804 0.26294 0.0
C905 C 0.03154 0.44739 0.17641 0.0
C906 C 0.04974 0.47071 0.19474 0.0
C907 C 0.08648 0.49023 0.25857 0.0
C908 C 0.10666 0.48601 0.30147 0.0
C909 C 0.06916 0.46646 0.23862 0.0
C910 C 0.10918 0.45766 0.32492 0.0
C911 C 0.09132 0.4339 0.30625 0.0
H912 H 0.11863 0.0435 0.75284 0.0
H913 H 0.05482 0.98938 0.66487 0.0
H914 H 0.01408 0.02176 0.69538 0.0
H915 H 0.99614 0.06469 0.74908 0.0
H916 H 0.05979 0.12072 0.83222 0.0
H917 H 0.10097 0.08795 0.80279 0.0
C918 C 0.09588 0.03893 0.73972 0.0
C919 C 0.08996 0.01384 0.70659 0.0
C920 C 0.07241 0.05757 0.75775 0.0
C921 C 0.06023 0.00848 0.69009 0.0
C922 C 0.0368 0.02685 0.70798 0.0
C923 C 0.019 0.06929 0.76161 0.0
C924 C 0.02497 0.0944 0.79427 0.0
C925 C 0.04255 0.05112 0.74255 0.0
C926 C 0.05472 0.10101 0.80831 0.0
C927 C 0.07821 0.08248 0.79099 0.0
H928 H 0.62311 0.96866 0.78369 0.0
H929 H 0.5825 0.99099 0.63119 0.0
H930 H 0.54372 0.95335 0.64527 0.0
H931 H 0.51731 0.91956 0.70648 0.0
H932 H 0.5566 0.89646 0.85958 0.0
H933 H 0.59994 0.92873 0.84015 0.0
C934 C 0.60649 0.96428 0.75267 0.0
C935 C 0.60593 0.98216 0.70591 0.0
C936 C 0.58358 0.94306 0.76193 0.0
C937 C 0.58368 0.97707 0.66684 0.0
C938 C 0.56127 0.95584 0.67526 0.0
C939 C 0.53563 0.92129 0.73523 0.0
C940 C 0.53371 0.90607 0.78466 0.0
C941 C 0.56033 0.93961 0.72353 0.0
C942 C 0.55763 0.9081 0.82136 0.0
C943 C 0.58232 0.92659 0.81023 0.0
H944 H 0.61014 0.5198 0.21308 0.0
H945 H 0.59105 0.5321 0.38244 0.0
H946 H 0.55633 0.57297 0.36081 0.0
H947 H 0.53011 0.60368 0.29349 0.0
H948 H 0.54429 0.58725 0.12375 0.0
H949 H 0.58252 0.54947 0.14543 0.0
C950 C 0.59863 0.53174 0.24524 0.0
C951 C 0.60344 0.52342 0.2994 0.0
C952 C 0.5779 0.55432 0.23225 0.0
C953 C 0.58782 0.53836 0.34062 0.0
C954 C 0.56801 0.56165 0.3282 0.0
C955 C 0.54192 0.59209 0.26127 0.0
C956 C 0.535 0.59856 0.20705 0.0
C957 C 0.56275 0.56965 0.27417 0.0
C958 C 0.54964 0.58282 0.16564 0.0
C959 C 0.57136 0.56124 0.17812 0.0
H960 H 0.94852 0.49236 0.75718 0.0
H961 H 0.88895 0.55875 0.69145 0.0
H962 H 0.92114 0.59872 0.72732 0.0
H963 H 0.96696 0.61439 0.77517 0.0
H964 H 0.02517 0.54755 0.84468 0.0
H965 H 0.99219 0.50812 0.81118 0.0
C966 C 0.9429 0.51563 0.75018 0.0
C967 C 0.91707 0.52282 0.72032 0.0
C968 C 0.96088 0.5383 0.77256 0.0
C969 C 0.90918 0.55289 0.71325 0.0
C970 C 0.92742 0.57563 0.73413 0.0
C971 C 0.97225 0.59123 0.78379 0.0
C972 C 0.99876 0.58407 0.81215 0.0
C973 C 0.95337 0.56858 0.76378 0.0
C974 C 1.005 0.55386 0.82311 0.0
C975 C 0.9863 0.53122 0.80343 0.0
H976 H 0.89957 0.96046 0.31208 0.0
H977 H 0.93059 0.02697 0.19937 0.0
H978 H 0.96461 0.99125 0.15856 0.0
H979 H 0.98982 0.94298 0.16007 0.0
H980 H 0.96017 0.87536 0.27144 0.0
H981 H 0.92154 0.90908 0.30618 0.0
C982 C 0.9135 0.96689 0.2782 0.0
C983 C 0.91297 0.99664 0.25999 0.0
C984 C 0.93359 0.94601 0.25446 0.0
C985 C 0.93103 1.00448 0.21547 0.0
C986 C 0.95052 0.98401 0.19168 0.0
C987 C 0.97461 0.93535 0.19127 0.0
C988 C 0.97833 0.90673 0.21331 0.0
C989 C 0.95267 0.95499 0.21174 0.0
C990 C 0.95807 0.89731 0.25357 0.0
C991 C 0.93598 0.9167 0.27388 0.0
H992 H 0.53333 0.26209 0.1234 0.0
H993 H 0.51057 0.18321 0.03221 0.0
H994 H 0.5071 0.21297 0.94937 0.0
H995 H 0.52012 0.25993 0.90112 0.0
H996 H 0.54525 0.33774 0.9937 0.0
H997 H 0.53788 0.31033 0.07775 0.0
C998 C 0.52629 0.25174 0.08572 0.0
C999 C 0.52183 0.22067 0.08377 0.0
C1000 C 0.52533 0.26884 0.03833 0.0
C1001 C 0.51345 0.20722 0.03472 0.0
C1002 C 0.51195 0.2242 0.98726 0.0
C1003 C 0.52283 0.27103 0.93986 0.0
C1004 C 0.5329 0.30082 0.94159 0.0
C1005 C 0.51919 0.2548 0.98819 0.0
C1006 C 0.53715 0.31493 0.99172 0.0
C1007 C 0.53313 0.2992 0.03971 0.0
H1008 H 0.20107 0.53836 0.49423 0.0
H1009 H 0.26173 0.52143 0.36227 0.0
H1010 H 0.30291 0.51322 0.42601 0.0
H1011 H 0.32299 0.52002 0.51797 0.0
H1012 H 0.26231 0.53657 0.6503 0.0
H1013 H 0.21965 0.53487 0.58831 0.0
C1014 C 0.22309 0.53172 0.4798 0.0
C1015 C 0.22852 0.53024 0.42394 0.0
C1016 C 0.24664 0.52722 0.51678 0.0
C1017 C 0.25711 0.5222 0.40522 0.0
C1018 C 0.28066 0.51779 0.44164 0.0
C1019 C 0.3003 0.52206 0.53342 0.0
C1020 C 0.2958 0.52851 0.58853 0.0
C1021 C 0.27593 0.52147 0.49736 0.0
C1022 C 0.26635 0.53125 0.60817 0.0
C1023 C 0.24195 0.5307 0.57256 0.0
H1024 H 0.996 0.25764 0.10981 0.0
H1025 H 0.98438 0.33725 0.01504 0.0
H1026 H 0.98827 0.30784 0.93173 0.0
H1027 H 0.9854 0.25855 0.88714 0.0
H1028 H 0.9966 0.17864 0.981 0.0
H1029 H 1.00299 0.20878 0.06323 0.0
C1030 C 0.99573 0.2686 0.07083 0.0
C1031 C 0.99047 0.29961 0.06837 0.0
C1032 C 0.9974 0.25135 0.02298 0.0
C1033 C 0.98911 0.31353 0.01776 0.0
C1034 C 0.99096 0.29664 0.97015 0.0
C1035 C 0.99054 0.24787 0.92529 0.0
C1036 C 0.99078 0.21647 0.92812 0.0
C1037 C 0.99381 0.26541 0.97233 0.0
C1038 C 0.99674 0.20277 0.97784 0.0
C1039 C 1.00008 0.22004 0.02492 0.0
H1040 H 0.31606 0.99061 0.49246 0.0
H1041 H 0.25334 0.98381 0.3605 0.0
H1042 H 0.21141 0.98976 0.42326 0.0
H1043 H 0.19291 0.9868 0.51737 0.0
H1044 H 0.25555 0.99456 0.64895 0.0
H1045 H 0.29706 0.99931 0.58504 0.0
C1046 C 0.29323 0.99153 0.47735 0.0
C1047 C 0.28782 0.98666 0.42196 0.0
C1048 C 0.26916 0.99505 0.51378 0.0
C1049 C 0.25814 0.9878 0.40283 0.0
C1050 C 0.2341 0.99092 0.43884 0.0
C1051 C 0.21545 0.99123 0.53185 0.0
C1052 C 0.22113 0.99089 0.58776 0.0
C1053 C 0.23931 0.9933 0.49465 0.0
C1054 C 0.25056 0.99558 0.60614 0.0
C1055 C 0.27438 0.99772 0.56953 0.0
H1056 H 0.49422 0.69572 0.02065 0.0
H1057 H 0.49074 0.75902 0.15207 0.0
H1058 H 0.49515 0.80049 0.08858 0.0
H1059 H 0.49054 0.81846 0.99518 0.0
H1060 H 0.49423 0.75538 0.86316 0.0
H1061 H 0.49994 0.71419 0.92694 0.0
C1062 C 0.4958 0.71856 0.03528 0.0
C1063 C 0.49259 0.72445 0.09079 0.0
C1064 C 0.49787 0.74233 0.99831 0.0
C1065 C 0.49379 0.75409 0.10951 0.0
C1066 C 0.49594 0.77778 0.07316 0.0
C1067 C 0.49359 0.79578 0.98041 0.0
C1068 C 0.49171 0.78995 0.92462 0.0
C1069 C 0.49662 0.77219 0.01737 0.0
C1070 C 0.49576 0.76049 0.90589 0.0
C1071 C 0.49871 0.73687 0.94242 0.0
H1072 H 0.82292 0.4951 0.51131 0.0
H1073 H 0.76145 0.49902 0.64513 0.0
H1074 H 0.71934 0.50556 0.58295 0.0
H1075 H 0.69981 0.49736 0.49065 0.0
H1076 H 0.76133 0.49286 0.35695 0.0
H1077 H 0.8037 0.50017 0.41832 0.0
C1078 C 0.80048 0.49909 0.52676 0.0
C1079 C 0.79519 0.49688 0.58252 0.0
C1080 C 0.77635 0.50218 0.49056 0.0
C1081 C 0.76602 0.50125 0.60235 0.0
C1082 C 0.74189 0.50452 0.5667 0.0
C1083 C 0.72238 0.49967 0.47486 0.0
C1084 C 0.72757 0.49488 0.41952 0.0
C1085 C 0.74666 0.50326 0.51068 0.0
C1086 C 0.75689 0.49706 0.39935 0.0
C1087 C 0.78114 0.5008 0.43457 0.0
H1088 H 0.02552 0.74756 0.89646 0.0
H1089 H 0.03878 0.67022 0.99642 0.0
H1090 H 0.03185 0.70083 0.07781 0.0
H1091 H 0.03161 0.75104 0.11967 0.0
H1092 H 0.02054 0.82868 0.01967 0.0
H1093 H 0.01629 0.7968 0.93927 0.0
C1094 C 0.02554 0.73731 0.93609 0.0
C1095 C 0.03209 0.70667 0.94071 0.0
C1096 C 0.02227 0.75527 0.98268 0.0
C1097 C 0.0331 0.69365 0.99211 0.0
C1098 C 0.02948 0.71123 0.03859 0.0
C1099 C 0.02684 0.76077 0.08052 0.0
C1100 C 0.02574 0.79204 0.07548 0.0
C1101 C 0.0253 0.74226 0.03439 0.0
C1102 C 0.02067 0.80461 0.02448 0.0
C1103 C 0.01866 0.78638 0.97847 0.0
H1104 H 0.82041 0.03254 0.49509 0.0
H1105 H 0.75975 0.02744 0.35968 0.0
H1106 H 0.71712 0.0239 0.42121 0.0
H1107 H 0.69672 0.03084 0.5133 0.0
H1108 H 0.7574 0.0342 0.6488 0.0
H1109 H 0.80024 0.02943 0.58781 0.0
C1110 C 0.79793 0.02961 0.47914 0.0
C1111 C 0.7933 0.03035 0.42287 0.0
C1112 C 0.77343 0.02772 0.51486 0.0
C1113 C 0.76404 0.0266 0.40273 0.0
C1114 C 0.73956 0.02496 0.43797 0.0
C1115 C 0.7193 0.02961 0.52947 0.0
C1116 C 0.72388 0.033 0.58545 0.0
C1117 C 0.7439 0.02676 0.49407 0.0
C1118 C 0.75324 0.03136 0.60596 0.0
C1119 C 0.77779 0.02892 0.571 0.0
loop_
_geom_bond_atom_site_label_1
_geom_bond_atom_site_label_2
_geom_bond_distance
_geom_bond_site_symmetry_2
_ccdc_geom_bond_type
Fe0 O2 1.918 . S
Fe0 O5 1.997 . S
Fe0 O6 2.002 . S
Fe0 O11 1.976 . S
Fe0 O14 1.996 . S
Fe1 O2 1.918 . S
Fe1 O9 1.997 . S
Fe1 O12 1.996 . S
Fe1 O16 1.976 . S
Fe1 O19 2.002 . S
O2 Fe0 1.918 . S
O2 Fe1 1.918 . S
O2 Fe3 1.918 . S
Fe3 O2 1.918 . S
Fe3 O4 2.002 . S
Fe3 O13 1.976 . S
Fe3 O17 1.996 . S
Fe3 O20 1.997 . S
O4 Fe3 2.002 . S
O4 C21 1.295 . S
O5 Fe0 1.997 . S
O5 C21 1.235 . S
O6 Fe0 2.002 . S
O6 C7 1.295 . S
C7 O6 1.295 . S
C7 O9 1.235 . S
C8 O13 1.287 . S
C8 O14 1.255 . S
O9 Fe1 1.997 . S
O9 C7 1.235 . S
C10 O16 1.287 . S
C10 O17 1.255 . S
O11 Fe0 1.976 . S
O11 C18 1.287 . S
O12 Fe1 1.996 . S
O12 C18 1.255 . S
O13 Fe3 1.976 . S
O13 C8 1.287 . S
O14 Fe0 1.996 . S
O14 C8 1.255 . S
C15 O19 1.295 . S
C15 O20 1.235 . S
O16 Fe1 1.976 . S
O16 C10 1.287 . S
O17 Fe3 1.996 . S
O17 C10 1.255 . S
C18 O11 1.287 . S
C18 O12 1.255 . S
O19 Fe1 2.002 . S
O19 C15 1.295 . S
O20 Fe3 1.997 . S
O20 C15 1.235 . S
C21 O4 1.295 . S
C21 O5 1.235 . S
Fe22 O24 1.918 . S
Fe22 O27 1.997 . S
Fe22 O28 2.002 . S
Fe22 O33 1.976 . S
Fe22 O36 1.996 . S
Fe23 O24 1.918 . S
Fe23 O31 1.997 . S
Fe23 O34 1.996 . S
Fe23 O38 1.976 . S
Fe23 O41 2.002 . S
O24 Fe22 1.918 . S
O24 Fe23 1.918 . S
O24 Fe25 1.918 . S
Fe25 O24 1.918 . S
Fe25 O26 2.002 . S
Fe25 O35 1.976 . S
Fe25 O39 1.996 . S
Fe25 O42 1.997 . S
O26 Fe25 2.002 . S
O26 C43 1.295 . S
O27 Fe22 1.997 . S
O27 C43 1.235 . S
O28 Fe22 2.002 . S
O28 C29 1.295 . S
C29 O28 1.295 . S
C29 O31 1.235 . S
C30 O35 1.287 . S
C30 O36 1.255 . S
O31 Fe23 1.997 . S
O31 C29 1.235 . S
C32 O38 1.287 . S
C32 O39 1.255 . S
O33 Fe22 1.976 . S
O33 C40 1.287 . S
O34 Fe23 1.996 . S
O34 C40 1.255 . S
O35 Fe25 1.976 . S
O35 C30 1.287 . S
O36 Fe22 1.996 . S
O36 C30 1.255 . S
C37 O41 1.295 . S
C37 O42 1.235 . S
O38 Fe23 1.976 . S
O38 C32 1.287 . S
O39 Fe25 1.996 . S
O39 C32 1.255 . S
C40 O33 1.287 . S
C40 O34 1.255 . S
O41 Fe23 2.002 . S
O41 C37 1.295 . S
O42 Fe25 1.997 . S
O42 C37 1.235 . S
C43 O26 1.295 . S
C43 O27 1.235 . S
Fe44 O46 1.918 . S
Fe44 O49 1.997 . S
Fe44 O50 2.002 . S
Fe44 O55 1.976 . S
Fe44 O58 1.996 . S
Fe45 O46 1.918 . S
Fe45 O53 1.997 . S
Fe45 O56 1.996 . S
Fe45 O60 1.976 . S
Fe45 O63 2.002 . S
O46 Fe44 1.918 . S
O46 Fe45 1.918 . S
O46 Fe47 1.918 . S
Fe47 O46 1.918 . S
Fe47 O48 2.002 . S
Fe47 O57 1.976 1_655 S
Fe47 O61 1.996 . S
Fe47 O64 1.997 . S
O48 Fe47 2.002 . S
O48 C65 1.295 . S
O49 Fe44 1.997 . S
O49 C65 1.235 . S
O50 Fe44 2.002 . S
O50 C51 1.295 . S
C51 O50 1.295 . S
C51 O53 1.235 . S
C52 O57 1.287 . S
C52 O58 1.236 1_455 S
O53 Fe45 1.997 . S
O53 C51 1.235 . S
C54 O60 1.287 . S
C54 O61 1.255 . S
O55 Fe44 1.976 . S
O55 C62 1.287 . S
O56 Fe45 1.996 . S
O56 C62 1.255 . S
O57 Fe47 1.976 1_455 S
O57 C52 1.287 . S
O58 Fe44 1.996 . S
O58 C52 1.236 1_655 S
C59 O63 1.295 . S
C59 O64 1.235 . S
O60 Fe45 1.976 . S
O60 C54 1.287 . S
O61 Fe47 1.996 . S
O61 C54 1.255 . S
C62 O55 1.287 . S
C62 O56 1.255 . S
O63 Fe45 2.002 . S
O63 C59 1.295 . S
O64 Fe47 1.997 . S
O64 C59 1.235 . S
C65 O48 1.295 . S
C65 O49 1.235 . S
Fe66 O68 1.918 . S
Fe66 O71 1.997 . S
Fe66 O72 2.002 . S
Fe66 O77 1.976 . S
Fe66 O80 1.996 . S
Fe67 O68 1.918 . S
Fe67 O75 1.997 . S
Fe67 O78 1.996 . S
Fe67 O82 1.976 . S
Fe67 O85 2.002 . S
O68 Fe66 1.918 . S
O68 Fe67 1.918 . S
O68 Fe69 1.918 . S
Fe69 O68 1.918 . S
Fe69 O70 2.002 . S
Fe69 O79 1.976 1_565 S
Fe69 O83 1.996 . S
Fe69 O86 1.997 . S
O70 Fe69 2.002 . S
O70 C87 1.295 . S
O71 Fe66 1.997 . S
O71 C87 1.235 . S
O72 Fe66 2.002 . S
O72 C73 1.295 . S
C73 O72 1.295 . S
C73 O75 1.235 . S
C74 O79 1.287 . S
C74 O80 1.236 1_545 S
O75 Fe67 1.997 . S
O75 C73 1.235 . S
C76 O82 1.287 . S
C76 O83 1.255 . S
O77 Fe66 1.976 . S
O77 C84 1.287 . S
O78 Fe67 1.996 . S
O78 C84 1.255 . S
O79 Fe69 1.976 1_545 S
O79 C74 1.287 . S
O80 Fe66 1.996 . S
O80 C74 1.236 1_565 S
C81 O85 1.295 . S
C81 O86 1.235 . S
O82 Fe67 1.976 . S
O82 C76 1.287 . S
O83 Fe69 1.996 . S
O83 C76 1.255 . S
C84 O77 1.287 . S
C84 O78 1.255 . S
O85 Fe67 2.002 . S
O85 C81 1.295 . S
O86 Fe69 1.997 . S
O86 C81 1.235 . S
C87 O70 1.295 . S
C87 O71 1.235 . S
Fe88 O90 1.918 . S
Fe88 O93 1.997 . S
Fe88 O94 2.002 . S
Fe88 O99 1.976 . S
Fe88 O102 1.996 . S
Fe89 O90 1.918 . S
Fe89 O97 1.997 . S
Fe89 O100 1.996 . S
Fe89 O104 1.976 . S
Fe89 O107 2.002 . S
O90 Fe88 1.918 . S
O90 Fe89 1.918 . S
O90 Fe91 1.918 . S
Fe91 O90 1.918 . S
Fe91 O92 2.002 . S
Fe91 O101 1.976 . S
Fe91 O105 1.996 . S
Fe91 O108 1.997 . S
O92 Fe91 2.002 . S
O92 C109 1.295 . S
O93 Fe88 1.997 . S
O93 C109 1.235 . S
O94 Fe88 2.002 . S
O94 C95 1.295 . S
C95 O94 1.295 . S
C95 O97 1.235 . S
C96 O101 1.287 . S
C96 O102 1.255 . S
O97 Fe89 1.997 . S
O97 C95 1.235 . S
C98 O104 1.287 . S
C98 O105 1.255 . S
O99 Fe88 1.976 . S
O99 C106 1.287 . S
O100 Fe89 1.996 . S
O100 C106 1.255 . S
O101 Fe91 1.976 . S
O101 C96 1.287 . S
O102 Fe88 1.996 . S
O102 C96 1.255 . S
C103 O107 1.295 . S
C103 O108 1.235 . S
O104 Fe89 1.976 . S
O104 C98 1.287 . S
O105 Fe91 1.996 . S
O105 C98 1.255 . S
C106 O99 1.287 . S
C106 O100 1.255 . S
O107 Fe89 2.002 . S
O107 C103 1.295 . S
O108 Fe91 1.997 . S
O108 C103 1.235 . S
C109 O92 1.295 . S
C109 O93 1.235 . S
Fe110 O112 1.918 . S
Fe110 O115 1.997 . S
Fe110 O116 2.002 . S
Fe110 O121 1.976 . S
Fe110 O124 1.996 . S
Fe111 O112 1.918 . S
Fe111 O119 1.997 . S
Fe111 O122 1.996 . S
Fe111 O126 1.976 . S
Fe111 O129 2.002 . S
O112 Fe110 1.918 . S
O112 Fe111 1.918 . S
O112 Fe113 1.918 . S
Fe113 O112 1.918 . S
Fe113 O114 2.002 . S
Fe113 O123 1.976 . S
Fe113 O127 1.996 . S
Fe113 O130 1.997 . S
O114 Fe113 2.002 . S
O114 C131 1.295 . S
O115 Fe110 1.997 . S
O115 C131 1.235 . S
O116 Fe110 2.002 . S
O116 C117 1.295 . S
C117 O116 1.295 . S
C117 O119 1.235 . S
C118 O123 1.287 . S
C118 O124 1.255 . S
O119 Fe111 1.997 . S
O119 C117 1.235 . S
C120 O126 1.287 . S
C120 O127 1.255 . S
O121 Fe110 1.976 . S
O121 C128 1.287 . S
O122 Fe111 1.996 . S
O122 C128 1.255 . S
O123 Fe113 1.976 . S
O123 C118 1.287 . S
O124 Fe110 1.996 . S
O124 C118 1.255 . S
C125 O129 1.295 . S
C125 O130 1.235 . S
O126 Fe111 1.976 . S
O126 C120 1.287 . S
O127 Fe113 1.996 . S
O127 C120 1.255 . S
C128 O121 1.287 . S
C128 O122 1.255 . S
O129 Fe111 2.002 . S
O129 C125 1.295 . S
O130 Fe113 1.997 . S
O130 C125 1.235 . S
C131 O114 1.295 . S
C131 O115 1.235 . S
Fe132 O134 1.918 . S
Fe132 O137 1.997 . S
Fe132 O138 2.002 . S
Fe132 O143 1.976 . S
Fe132 O146 1.996 . S
Fe133 O134 1.918 . S
Fe133 O141 1.997 . S
Fe133 O144 1.996 . S
Fe133 O148 1.976 . S
Fe133 O151 2.002 . S
O134 Fe132 1.918 . S
O134 Fe133 1.918 . S
O134 Fe135 1.918 . S
Fe135 O134 1.918 . S
Fe135 O136 2.002 . S
Fe135 O145 1.976 1_655 S
Fe135 O149 1.996 . S
Fe135 O152 1.997 . S
O136 Fe135 2.002 . S
O136 C153 1.295 . S
O137 Fe132 1.997 . S
O137 C153 1.235 . S
O138 Fe132 2.002 . S
O138 C139 1.295 . S
C139 O138 1.295 . S
C139 O141 1.235 . S
C140 O145 1.287 . S
C140 O146 1.236 1_455 S
O141 Fe133 1.997 . S
O141 C139 1.235 . S
C142 O148 1.287 . S
C142 O149 1.255 . S
O143 Fe132 1.976 . S
O143 C150 1.287 . S
O144 Fe133 1.996 . S
O144 C150 1.255 . S
O145 Fe135 1.976 1_455 S
O145 C140 1.287 . S
O146 Fe132 1.996 . S
O146 C140 1.236 1_655 S
C147 O151 1.295 . S
C147 O152 1.235 . S
O148 Fe133 1.976 . S
O148 C142 1.287 . S
O149 Fe135 1.996 . S
O149 C142 1.255 . S
C150 O143 1.287 . S
C150 O144 1.255 . S
O151 Fe133 2.002 . S
O151 C147 1.295 . S
O152 Fe135 1.997 . S
O152 C147 1.235 . S
C153 O136 1.295 . S
C153 O137 1.235 . S
Fe154 O156 1.918 . S
Fe154 O159 1.997 . S
Fe154 O160 2.002 . S
Fe154 O165 1.976 . S
Fe154 O168 1.996 . S
Fe155 O156 1.918 . S
Fe155 O163 1.997 . S
Fe155 O166 1.996 . S
Fe155 O170 1.976 . S
Fe155 O173 2.002 . S
O156 Fe154 1.918 . S
O156 Fe155 1.918 . S
O156 Fe157 1.918 . S
Fe157 O156 1.918 . S
Fe157 O158 2.002 . S
Fe157 O167 1.976 1_565 S
Fe157 O171 1.996 . S
Fe157 O174 1.997 . S
O158 Fe157 2.002 . S
O158 C175 1.295 . S
O159 Fe154 1.997 . S
O159 C175 1.235 . S
O160 Fe154 2.002 . S
O160 C161 1.295 . S
C161 O160 1.295 . S
C161 O163 1.235 . S
C162 O167 1.287 . S
C162 O168 1.236 1_545 S
O163 Fe155 1.997 . S
O163 C161 1.235 . S
C164 O170 1.287 . S
C164 O171 1.255 . S
O165 Fe154 1.976 . S
O165 C172 1.287 . S
O166 Fe155 1.996 . S
O166 C172 1.255 . S
O167 Fe157 1.976 1_545 S
O167 C162 1.287 . S
O168 Fe154 1.996 . S
O168 C162 1.236 1_565 S
C169 O173 1.295 . S
C169 O174 1.235 . S
O170 Fe155 1.976 . S
O170 C164 1.287 . S
O171 Fe157 1.996 . S
O171 C164 1.255 . S
C172 O165 1.287 . S
C172 O166 1.255 . S
O173 Fe155 2.002 . S
O173 C169 1.295 . S
O174 Fe157 1.997 . S
O174 C169 1.235 . S
C175 O158 1.295 . S
C175 O159 1.235 . S
Fe176 O178 1.918 . S
Fe176 O181 1.997 . S
Fe176 O182 2.002 . S
Fe176 O187 1.976 . S
Fe176 O190 1.996 . S
Fe177 O178 1.918 . S
Fe177 O185 1.997 . S
Fe177 O188 1.996 . S
Fe177 O192 1.976 . S
Fe177 O195 2.002 . S
O178 Fe176 1.918 . S
O178 Fe177 1.918 . S
O178 Fe179 1.918 . S
Fe179 O178 1.918 . S
Fe179 O180 2.002 . S
Fe179 O189 1.976 . S
Fe179 O193 1.996 . S
Fe179 O196 1.997 . S
O180 Fe179 2.002 . S
O180 C197 1.295 . S
O181 Fe176 1.997 . S
O181 C197 1.235 . S
O182 Fe176 2.002 . S
O182 C183 1.295 . S
C183 O182 1.295 . S
C183 O185 1.235 . S
C184 O189 1.287 . S
C184 O190 1.255 . S
O185 Fe177 1.997 . S
O185 C183 1.235 . S
C186 O192 1.287 . S
C186 O193 1.255 . S
O187 Fe176 1.976 . S
O187 C194 1.287 . S
O188 Fe177 1.996 . S
O188 C194 1.255 . S
O189 Fe179 1.976 . S
O189 C184 1.287 . S
O190 Fe176 1.996 . S
O190 C184 1.255 . S
C191 O195 1.295 . S
C191 O196 1.235 . S
O192 Fe177 1.976 . S
O192 C186 1.287 . S
O193 Fe179 1.996 . S
O193 C186 1.255 . S
C194 O187 1.287 . S
C194 O188 1.255 . S
O195 Fe177 2.002 . S
O195 C191 1.295 . S
O196 Fe179 1.997 . S
O196 C191 1.235 . S
C197 O180 1.295 . S
C197 O181 1.235 . S
Fe198 O200 1.918 . S
Fe198 O203 1.997 . S
Fe198 O204 2.002 . S
Fe198 O209 1.976 . S
Fe198 O212 1.996 . S
Fe199 O200 1.918 . S
Fe199 O207 1.997 . S
Fe199 O210 1.996 . S
Fe199 O214 1.976 . S
Fe199 O217 2.002 . S
O200 Fe198 1.918 . S
O200 Fe199 1.918 . S
O200 Fe201 1.918 . S
Fe201 O200 1.918 . S
Fe201 O202 2.002 . S
Fe201 O211 1.976 . S
Fe201 O215 1.996 . S
Fe201 O218 1.997 . S
O202 Fe201 2.002 . S
O202 C219 1.295 . S
O203 Fe198 1.997 . S
O203 C219 1.235 . S
O204 Fe198 2.002 . S
O204 C205 1.295 . S
C205 O204 1.295 . S
C205 O207 1.235 . S
C206 O211 1.287 . S
C206 O212 1.255 . S
O207 Fe199 1.997 . S
O207 C205 1.235 . S
C208 O214 1.287 . S
C208 O215 1.255 . S
O209 Fe198 1.976 . S
O209 C216 1.287 . S
O210 Fe199 1.996 . S
O210 C216 1.255 . S
O211 Fe201 1.976 . S
O211 C206 1.287 . S
O212 Fe198 1.996 . S
O212 C206 1.255 . S
C213 O217 1.295 . S
C213 O218 1.235 . S
O214 Fe199 1.976 . S
O214 C208 1.287 . S
O215 Fe201 1.996 . S
O215 C208 1.255 . S
C216 O209 1.287 . S
C216 O210 1.255 . S
O217 Fe199 2.002 . S
O217 C213 1.295 . S
O218 Fe201 1.997 . S
O218 C213 1.235 . S
C219 O202 1.295 . S
C219 O203 1.235 . S
Fe220 O222 1.918 . S
Fe220 O225 1.997 . S
Fe220 O226 2.002 . S
Fe220 O231 1.976 . S
Fe220 O234 1.996 . S
Fe221 O222 1.918 . S
Fe221 O229 1.997 . S
Fe221 O232 1.996 . S
Fe221 O236 1.976 . S
Fe221 O239 2.002 . S
O222 Fe220 1.918 . S
O222 Fe221 1.918 . S
O222 Fe223 1.918 . S
Fe223 O222 1.918 . S
Fe223 O224 2.002 . S
Fe223 O233 1.976 . S
Fe223 O237 1.996 1_455 S
Fe223 O240 1.997 . S
O224 Fe223 2.002 . S
O224 C241 1.295 . S
O225 Fe220 1.997 . S
O225 C241 1.235 . S
O226 Fe220 2.002 . S
O226 C227 1.295 . S
C227 O226 1.295 . S
C227 O229 1.235 . S
C228 O233 1.287 . S
C228 O234 1.255 . S
O229 Fe221 1.997 . S
O229 C227 1.235 . S
C230 O236 1.287 1_655 S
C230 O237 1.255 . S
O231 Fe220 1.976 . S
O231 C238 1.287 . S
O232 Fe221 1.996 . S
O232 C238 1.255 . S
O233 Fe223 1.976 . S
O233 C228 1.287 . S
O234 Fe220 1.996 . S
O234 C228 1.255 . S
C235 O239 1.295 . S
C235 O240 1.235 . S
O236 Fe221 1.976 . S
O236 C230 1.287 1_455 S
O237 Fe223 1.996 1_655 S
O237 C230 1.255 . S
C238 O231 1.287 . S
C238 O232 1.255 . S
O239 Fe221 2.002 . S
O239 C235 1.295 . S
O240 Fe223 1.997 . S
O240 C235 1.235 . S
C241 O224 1.295 . S
C241 O225 1.235 . S
Fe242 O244 1.918 . S
Fe242 O247 1.997 . S
Fe242 O248 2.002 . S
Fe242 O253 1.976 . S
Fe242 O256 1.996 . S
Fe243 O244 1.918 . S
Fe243 O251 1.997 . S
Fe243 O254 1.996 . S
Fe243 O258 1.976 . S
Fe243 O261 2.002 . S
O244 Fe242 1.918 . S
O244 Fe243 1.918 . S
O244 Fe245 1.918 . S
Fe245 O244 1.918 . S
Fe245 O246 2.002 . S
Fe245 O255 1.976 . S
Fe245 O259 1.996 1_545 S
Fe245 O262 1.997 . S
O246 Fe245 2.002 . S
O246 C263 1.295 . S
O247 Fe242 1.997 . S
O247 C263 1.235 . S
O248 Fe242 2.002 . S
O248 C249 1.295 . S
C249 O248 1.295 . S
C249 O251 1.235 . S
C250 O255 1.287 . S
C250 O256 1.255 . S
O251 Fe243 1.997 . S
O251 C249 1.235 . S
C252 O258 1.287 1_565 S
C252 O259 1.255 . S
O253 Fe242 1.976 . S
O253 C260 1.287 . S
O254 Fe243 1.996 . S
O254 C260 1.255 . S
O255 Fe245 1.976 . S
O255 C250 1.287 . S
O256 Fe242 1.996 . S
O256 C250 1.255 . S
C257 O261 1.295 . S
C257 O262 1.235 . S
O258 Fe243 1.976 . S
O258 C252 1.287 1_545 S
O259 Fe245 1.996 1_565 S
O259 C252 1.255 . S
C260 O253 1.287 . S
C260 O254 1.255 . S
O261 Fe243 2.002 . S
O261 C257 1.295 . S
O262 Fe245 1.997 . S
O262 C257 1.235 . S
C263 O246 1.295 . S
C263 O247 1.235 . S
Fe264 O266 1.918 . S
Fe264 O269 1.997 . S
Fe264 O270 2.002 . S
Fe264 O275 1.976 . S
Fe264 O278 1.996 . S
Fe265 O266 1.918 . S
Fe265 O273 1.997 . S
Fe265 O276 1.996 . S
Fe265 O280 1.976 . S
Fe265 O283 2.002 . S
O266 Fe264 1.918 . S
O266 Fe265 1.918 . S
O266 Fe267 1.918 . S
Fe267 O266 1.918 . S
Fe267 O268 2.002 . S
Fe267 O277 1.976 . S
Fe267 O281 1.996 . S
Fe267 O284 1.997 . S
O268 Fe267 2.002 . S
O268 C285 1.295 . S
O269 Fe264 1.997 . S
O269 C285 1.235 . S
O270 Fe264 2.002 . S
O270 C271 1.295 . S
C271 O270 1.295 . S
C271 O273 1.235 . S
C272 O277 1.287 . S
C272 O278 1.255 . S
O273 Fe265 1.997 . S
O273 C271 1.235 . S
C274 O280 1.287 . S
C274 O281 1.255 . S
O275 Fe264 1.976 . S
O275 C282 1.287 . S
O276 Fe265 1.996 . S
O276 C282 1.255 . S
O277 Fe267 1.976 . S
O277 C272 1.287 . S
O278 Fe264 1.996 . S
O278 C272 1.255 . S
C279 O283 1.295 . S
C279 O284 1.235 . S
O280 Fe265 1.976 . S
O280 C274 1.287 . S
O281 Fe267 1.996 . S
O281 C274 1.255 . S
C282 O275 1.287 . S
C282 O276 1.255 . S
O283 Fe265 2.002 . S
O283 C279 1.295 . S
O284 Fe267 1.997 . S
O284 C279 1.235 . S
C285 O268 1.295 . S
C285 O269 1.235 . S
Fe286 O288 1.918 . S
Fe286 O291 1.997 . S
Fe286 O292 2.002 . S
Fe286 O297 1.976 . S
Fe286 O300 1.996 . S
Fe287 O288 1.918 . S
Fe287 O295 1.997 . S
Fe287 O298 1.996 . S
Fe287 O302 1.976 . S
Fe287 O305 2.002 . S
O288 Fe286 1.918 . S
O288 Fe287 1.918 . S
O288 Fe289 1.918 . S
Fe289 O288 1.918 . S
Fe289 O290 2.002 . S
Fe289 O299 1.976 . S
Fe289 O303 1.996 . S
Fe289 O306 1.997 . S
O290 Fe289 2.002 . S
O290 C307 1.295 . S
O291 Fe286 1.997 . S
O291 C307 1.235 . S
O292 Fe286 2.002 . S
O292 C293 1.295 . S
C293 O292 1.295 . S
C293 O295 1.235 . S
C294 O299 1.287 . S
C294 O300 1.255 . S
O295 Fe287 1.997 . S
O295 C293 1.235 . S
C296 O302 1.287 . S
C296 O303 1.255 . S
O297 Fe286 1.976 . S
O297 C304 1.287 . S
O298 Fe287 1.996 . S
O298 C304 1.255 . S
O299 Fe289 1.976 . S
O299 C294 1.287 . S
O300 Fe286 1.996 . S
O300 C294 1.255 . S
C301 O305 1.295 . S
C301 O306 1.235 . S
O302 Fe287 1.976 . S
O302 C296 1.287 . S
O303 Fe289 1.996 . S
O303 C296 1.255 . S
C304 O297 1.287 . S
C304 O298 1.255 . S
O305 Fe287 2.002 . S
O305 C301 1.295 . S
O306 Fe289 1.997 . S
O306 C301 1.235 . S
C307 O290 1.295 . S
C307 O291 1.235 . S
Fe308 O310 1.918 . S
Fe308 O313 1.997 . S
Fe308 O314 2.002 . S
Fe308 O319 1.976 . S
Fe308 O322 1.996 1_455 S
Fe309 O310 1.918 . S
Fe309 O317 1.997 . S
Fe309 O320 1.996 . S
Fe309 O324 1.976 . S
Fe309 O327 2.002 . S
O310 Fe308 1.918 . S
O310 Fe309 1.918 . S
O310 Fe311 1.918 . S
Fe311 O310 1.918 . S
Fe311 O312 2.002 . S
Fe311 O321 1.976 . S
Fe311 O325 1.996 . S
Fe311 O328 1.997 . S
O312 Fe311 2.002 . S
O312 C329 1.295 . S
O313 Fe308 1.997 . S
O313 C329 1.235 . S
O314 Fe308 2.002 . S
O314 C315 1.295 . S
C315 O314 1.295 . S
C315 O317 1.235 . S
C316 O321 1.287 1_655 S
C316 O322 1.255 . S
O317 Fe309 1.997 . S
O317 C315 1.235 . S
C318 O324 1.287 . S
C318 O325 1.255 . S
O319 Fe308 1.976 . S
O319 C326 1.287 . S
O320 Fe309 1.996 . S
O320 C326 1.255 . S
O321 Fe311 1.976 . S
O321 C316 1.287 1_455 S
O322 Fe308 1.996 1_655 S
O322 C316 1.255 . S
C323 O327 1.295 . S
C323 O328 1.235 . S
O324 Fe309 1.976 . S
O324 C318 1.287 . S
O325 Fe311 1.996 . S
O325 C318 1.255 . S
C326 O319 1.287 . S
C326 O320 1.255 . S
O327 Fe309 2.002 . S
O327 C323 1.295 . S
O328 Fe311 1.997 . S
O328 C323 1.235 . S
C329 O312 1.295 . S
C329 O313 1.235 . S
Fe330 O332 1.918 . S
Fe330 O335 1.997 . S
Fe330 O336 2.002 . S
Fe330 O341 1.976 . S
Fe330 O344 1.996 . S
Fe331 O332 1.918 . S
Fe331 O339 1.997 . S
Fe331 O342 1.996 1_545 S
Fe331 O346 1.976 . S
Fe331 O349 2.002 . S
O332 Fe330 1.918 . S
O332 Fe331 1.918 . S
O332 Fe333 1.918 . S
Fe333 O332 1.918 . S
Fe333 O334 2.002 . S
Fe333 O343 1.976 . S
Fe333 O347 1.996 . S
Fe333 O350 1.997 . S
O334 Fe333 2.002 . S
O334 C351 1.295 . S
O335 Fe330 1.997 . S
O335 C351 1.235 . S
O336 Fe330 2.002 . S
O336 C337 1.295 . S
C337 O336 1.295 . S
C337 O339 1.235 . S
C338 O343 1.287 . S
C338 O344 1.255 . S
O339 Fe331 1.997 . S
O339 C337 1.235 . S
C340 O346 1.287 . S
C340 O347 1.255 . S
O341 Fe330 1.976 . S
O341 C348 1.287 1_545 S
O342 Fe331 1.996 1_565 S
O342 C348 1.255 . S
O343 Fe333 1.976 . S
O343 C338 1.287 . S
O344 Fe330 1.996 . S
O344 C338 1.255 . S
C345 O349 1.295 . S
C345 O350 1.235 . S
O346 Fe331 1.976 . S
O346 C340 1.287 . S
O347 Fe333 1.996 . S
O347 C340 1.255 . S
C348 O341 1.287 1_565 S
C348 O342 1.255 . S
O349 Fe331 2.002 . S
O349 C345 1.295 . S
O350 Fe333 1.997 . S
O350 C345 1.235 . S
C351 O334 1.295 . S
C351 O335 1.235 . S
H352 C358 0.930 . S
H353 C361 0.930 . S
H354 C362 0.930 . S
H355 C363 0.930 . S
H356 C366 0.930 . S
H357 C367 0.930 . S
C358 H352 0.930 . S
C358 C359 1.355 . S
C358 C360 1.415 . S
C359 C358 1.355 . S
C359 C361 1.419 . S
C360 C358 1.415 . S
C360 C365 1.425 . S
C360 C367 1.409 . S
C361 H353 0.930 . S
C361 C359 1.419 . S
C361 C362 1.362 . S
C362 H354 0.930 . S
C362 C361 1.362 . S
C362 C365 1.409 . S
C363 H355 0.930 . S
C363 C364 1.355 . S
C363 C365 1.415 . S
C364 C363 1.355 . S
C364 C366 1.419 . S
C365 C360 1.425 . S
C365 C362 1.409 . S
C365 C363 1.415 . S
C366 H356 0.930 . S
C366 C364 1.419 . S
C366 C367 1.362 . S
C367 H357 0.930 . S
C367 C360 1.409 . S
C367 C366 1.362 . S
H368 C374 0.930 . S
H369 C377 0.930 . S
H370 C378 0.930 . S
H371 C379 0.930 . S
H372 C382 0.930 . S
H373 C383 0.930 . S
C374 H368 0.930 . S
C374 C375 1.355 . S
C374 C376 1.415 . S
C375 C374 1.355 . S
C375 C377 1.419 . S
C376 C374 1.415 . S
C376 C381 1.425 . S
C376 C383 1.409 . S
C377 H369 0.930 . S
C377 C375 1.419 . S
C377 C378 1.362 . S
C378 H370 0.930 . S
C378 C377 1.362 . S
C378 C381 1.409 . S
C379 H371 0.930 . S
C379 C380 1.355 . S
C379 C381 1.415 . S
C380 C379 1.355 . S
C380 C382 1.419 . S
C381 C376 1.425 . S
C381 C378 1.409 . S
C381 C379 1.415 . S
C382 H372 0.930 . S
C382 C380 1.419 . S
C382 C383 1.362 . S
C383 H373 0.930 . S
C383 C376 1.409 . S
C383 C382 1.362 . S
H384 C390 0.930 . S
H385 C393 0.930 . S
H386 C394 0.930 . S
H387 C395 0.930 . S
H388 C398 0.930 . S
H389 C399 0.930 . S
C390 H384 0.930 . S
C390 C391 1.355 . S
C390 C392 1.415 . S
C391 C390 1.355 . S
C391 C393 1.419 . S
C392 C390 1.415 . S
C392 C397 1.425 . S
C392 C399 1.409 . S
C393 H385 0.930 . S
C393 C391 1.419 . S
C393 C394 1.362 . S
C394 H386 0.930 . S
C394 C393 1.362 . S
C394 C397 1.409 . S
C395 H387 0.930 . S
C395 C396 1.355 . S
C395 C397 1.415 . S
C396 C395 1.355 . S
C396 C398 1.419 . S
C397 C392 1.425 . S
C397 C394 1.409 . S
C397 C395 1.415 . S
C398 H388 0.930 . S
C398 C396 1.419 . S
C398 C399 1.362 . S
C399 H389 0.930 . S
C399 C392 1.409 . S
C399 C398 1.362 . S
H400 C406 0.930 . S
H401 C409 0.930 . S
H402 C410 0.930 . S
H403 C411 0.930 . S
H404 C414 0.930 . S
H405 C415 0.930 . S
C406 H400 0.930 . S
C406 C407 1.355 . S
C406 C408 1.415 . S
C407 C406 1.355 . S
C407 C409 1.419 . S
C408 C406 1.415 . S
C408 C413 1.425 . S
C408 C415 1.409 . S
C409 H401 0.930 . S
C409 C407 1.419 . S
C409 C410 1.362 . S
C410 H402 0.930 . S
C410 C409 1.362 . S
C410 C413 1.409 . S
C411 H403 0.930 . S
C411 C412 1.355 . S
C411 C413 1.415 . S
C412 C411 1.355 . S
C412 C414 1.419 . S
C413 C408 1.425 . S
C413 C410 1.409 . S
C413 C411 1.415 . S
C414 H404 0.930 . S
C414 C412 1.419 . S
C414 C415 1.362 . S
C415 H405 0.930 . S
C415 C408 1.409 . S
C415 C414 1.362 . S
H416 C422 0.930 . S
H417 C425 0.930 . S
H418 C426 0.930 . S
H419 C427 0.930 . S
H420 C430 0.930 . S
H421 C431 0.930 . S
C422 H416 0.930 . S
C422 C423 1.355 . S
C422 C424 1.415 . S
C423 C422 1.355 . S
C423 C425 1.419 . S
C424 C422 1.415 . S
C424 C429 1.425 . S
C424 C431 1.409 . S
C425 H417 0.930 . S
C425 C423 1.419 . S
C425 C426 1.362 . S
C426 H418 0.930 . S
C426 C425 1.362 . S
C426 C429 1.409 . S
C427 H419 0.930 . S
C427 C428 1.355 . S
C427 C429 1.415 . S
C428 C427 1.355 . S
C428 C430 1.419 . S
C429 C424 1.425 . S
C429 C426 1.409 . S
C429 C427 1.415 . S
C430 H420 0.930 . S
C430 C428 1.419 . S
C430 C431 1.362 . S
C431 H421 0.930 . S
C431 C424 1.409 . S
C431 C430 1.362 . S
H432 C438 0.930 . S
H433 C441 0.930 . S
H434 C442 0.930 . S
H435 C443 0.930 . S
H436 C446 0.930 . S
H437 C447 0.930 . S
C438 H432 0.930 . S
C438 C439 1.355 . S
C438 C440 1.415 . S
C439 C438 1.355 . S
C439 C441 1.419 . S
C440 C438 1.415 . S
C440 C445 1.425 . S
C440 C447 1.409 . S
C441 H433 0.930 . S
C441 C439 1.419 . S
C441 C442 1.362 . S
C442 H434 0.930 . S
C442 C441 1.362 . S
C442 C445 1.409 . S
C443 H435 0.930 . S
C443 C444 1.355 . S
C443 C445 1.415 . S
C444 C443 1.355 . S
C444 C446 1.419 . S
C445 C440 1.425 . S
C445 C442 1.409 . S
C445 C443 1.415 . S
C446 H436 0.930 . S
C446 C444 1.419 . S
C446 C447 1.362 . S
C447 H437 0.930 . S
C447 C440 1.409 . S
C447 C446 1.362 . S
H448 C454 0.930 . S
H449 C457 0.930 . S
H450 C458 0.930 . S
H451 C459 0.930 . S
H452 C462 0.930 . S
H453 C463 0.930 . S
C454 H448 0.930 . S
C454 C455 1.355 . S
C454 C456 1.415 . S
C455 C454 1.355 . S
C455 C457 1.419 . S
C456 C454 1.415 . S
C456 C461 1.425 . S
C456 C463 1.409 . S
C457 H449 0.930 . S
C457 C455 1.419 . S
C457 C458 1.362 . S
C458 H450 0.930 . S
C458 C457 1.362 . S
C458 C461 1.409 . S
C459 H451 0.930 . S
C459 C460 1.355 . S
C459 C461 1.415 . S
C460 C459 1.355 . S
C460 C462 1.419 . S
C461 C456 1.425 . S
C461 C458 1.409 . S
C461 C459 1.415 . S
C462 H452 0.930 . S
C462 C460 1.419 . S
C462 C463 1.362 . S
C463 H453 0.930 . S
C463 C456 1.409 . S
C463 C462 1.362 . S
H464 C470 0.930 . S
H465 C473 0.930 . S
H466 C474 0.930 . S
H467 C475 0.930 . S
H468 C478 0.930 . S
H469 C479 0.930 . S
C470 H464 0.930 . S
C470 C471 1.355 . S
C470 C472 1.415 . S
C471 C470 1.355 . S
C471 C473 1.419 . S
C472 C470 1.415 . S
C472 C477 1.425 . S
C472 C479 1.409 . S
C473 H465 0.930 . S
C473 C471 1.419 . S
C473 C474 1.362 . S
C474 H466 0.930 . S
C474 C473 1.362 . S
C474 C477 1.409 . S
C475 H467 0.930 . S
C475 C476 1.355 . S
C475 C477 1.415 . S
C476 C475 1.355 . S
C476 C478 1.419 . S
C477 C472 1.425 . S
C477 C474 1.409 . S
C477 C475 1.415 . S
C478 H468 0.930 . S
C478 C476 1.419 . S
C478 C479 1.362 . S
C479 H469 0.930 . S
C479 C472 1.409 . S
C479 C478 1.362 . S
H480 C486 0.930 . S
H481 C489 0.930 . S
H482 C490 0.930 . S
H483 C491 0.930 . S
H484 C494 0.930 . S
H485 C495 0.930 . S
C486 H480 0.930 . S
C486 C487 1.355 . S
C486 C488 1.415 . S
C487 C486 1.355 . S
C487 C489 1.419 . S
C488 C486 1.415 . S
C488 C493 1.425 . S
C488 C495 1.409 . S
C489 H481 0.930 . S
C489 C487 1.419 . S
C489 C490 1.362 . S
C490 H482 0.930 . S
C490 C489 1.362 . S
C490 C493 1.409 . S
C491 H483 0.930 . S
C491 C492 1.355 . S
C491 C493 1.415 . S
C492 C491 1.355 . S
C492 C494 1.419 . S
C493 C488 1.425 . S
C493 C490 1.409 . S
C493 C491 1.415 . S
C494 H484 0.930 . S
C494 C492 1.419 . S
C494 C495 1.362 . S
C495 H485 0.930 . S
C495 C488 1.409 . S
C495 C494 1.362 . S
H496 C502 0.930 . S
H497 C505 0.930 . S
H498 C506 0.930 . S
H499 C507 0.930 . S
H500 C510 0.930 . S
H501 C511 0.930 . S
C502 H496 0.930 . S
C502 C503 1.355 . S
C502 C504 1.415 . S
C503 C502 1.355 . S
C503 C505 1.419 . S
C504 C502 1.415 . S
C504 C509 1.425 . S
C504 C511 1.409 . S
C505 H497 0.930 . S
C505 C503 1.419 . S
C505 C506 1.362 . S
C506 H498 0.930 . S
C506 C505 1.362 . S
C506 C509 1.409 . S
C507 H499 0.930 . S
C507 C508 1.355 . S
C507 C509 1.415 . S
C508 C507 1.355 . S
C508 C510 1.419 . S
C509 C504 1.425 . S
C509 C506 1.409 . S
C509 C507 1.415 . S
C510 H500 0.930 . S
C510 C508 1.419 . S
C510 C511 1.362 . S
C511 H501 0.930 . S
C511 C504 1.409 . S
C511 C510 1.362 . S
H512 C518 0.930 . S
H513 C521 0.930 . S
H514 C522 0.930 . S
H515 C523 0.930 . S
H516 C526 0.930 . S
H517 C527 0.930 . S
C518 H512 0.930 . S
C518 C519 1.355 . S
C518 C520 1.415 . S
C519 C518 1.355 . S
C519 C521 1.419 . S
C520 C518 1.415 . S
C520 C525 1.425 . S
C520 C527 1.409 . S
C521 H513 0.930 . S
C521 C519 1.419 . S
C521 C522 1.362 . S
C522 H514 0.930 . S
C522 C521 1.362 . S
C522 C525 1.409 . S
C523 H515 0.930 . S
C523 C524 1.355 . S
C523 C525 1.415 . S
C524 C523 1.355 . S
C524 C526 1.419 . S
C525 C520 1.425 . S
C525 C522 1.409 . S
C525 C523 1.415 . S
C526 H516 0.930 . S
C526 C524 1.419 . S
C526 C527 1.362 . S
C527 H517 0.930 . S
C527 C520 1.409 . S
C527 C526 1.362 . S
H528 C534 0.930 . S
H529 C537 0.930 . S
H530 C538 0.930 . S
H531 C539 0.930 . S
H532 C542 0.930 . S
H533 C543 0.930 . S
C534 H528 0.930 . S
C534 C535 1.355 . S
C534 C536 1.415 . S
C535 C534 1.355 . S
C535 C537 1.419 . S
C536 C534 1.415 . S
C536 C541 1.425 . S
C536 C543 1.409 . S
C537 H529 0.930 . S
C537 C535 1.419 . S
C537 C538 1.362 . S
C538 H530 0.930 . S
C538 C537 1.362 . S
C538 C541 1.409 . S
C539 H531 0.930 . S
C539 C540 1.355 . S
C539 C541 1.415 . S
C540 C539 1.355 . S
C540 C542 1.419 . S
C541 C536 1.425 . S
C541 C538 1.409 . S
C541 C539 1.415 . S
C542 H532 0.930 . S
C542 C540 1.419 . S
C542 C543 1.362 . S
C543 H533 0.930 . S
C543 C536 1.409 . S
C543 C542 1.362 . S
H544 C550 0.930 . S
H545 C553 0.930 . S
H546 C554 0.930 . S
H547 C555 0.930 . S
H548 C558 0.930 . S
H549 C559 0.930 . S
C550 H544 0.930 . S
C550 C551 1.355 . S
C550 C552 1.415 . S
C551 C550 1.355 . S
C551 C553 1.419 . S
C552 C550 1.415 . S
C552 C557 1.425 . S
C552 C559 1.409 . S
C553 H545 0.930 . S
C553 C551 1.419 . S
C553 C554 1.362 . S
C554 H546 0.930 . S
C554 C553 1.362 . S
C554 C557 1.409 . S
C555 H547 0.930 . S
C555 C556 1.355 . S
C555 C557 1.415 . S
C556 C555 1.355 . S
C556 C558 1.419 . S
C557 C552 1.425 . S
C557 C554 1.409 . S
C557 C555 1.415 . S
C558 H548 0.930 . S
C558 C556 1.419 . S
C558 C559 1.362 . S
C559 H549 0.930 . S
C559 C552 1.409 . S
C559 C558 1.362 . S
H560 C566 0.930 . S
H561 C569 0.930 . S
H562 C570 0.930 . S
H563 C571 0.930 . S
H564 C574 0.930 . S
H565 C575 0.930 . S
C566 H560 0.930 . S
C566 C567 1.355 . S
C566 C568 1.415 . S
C567 C566 1.355 . S
C567 C569 1.419 . S
C568 C566 1.415 . S
C568 C573 1.425 . S
C568 C575 1.409 . S
C569 H561 0.930 . S
C569 C567 1.419 . S
C569 C570 1.362 . S
C570 H562 0.930 . S
C570 C569 1.362 . S
C570 C573 1.409 . S
C571 H563 0.930 . S
C571 C572 1.355 . S
C571 C573 1.415 . S
C572 C571 1.355 . S
C572 C574 1.419 . S
C573 C568 1.425 . S
C573 C570 1.409 . S
C573 C571 1.415 . S
C574 H564 0.930 . S
C574 C572 1.419 . S
C574 C575 1.362 . S
C575 H565 0.930 . S
C575 C568 1.409 . S
C575 C574 1.362 . S
H576 C582 0.930 . S
H577 C585 0.930 . S
H578 C586 0.930 . S
H579 C587 0.930 . S
H580 C590 0.930 . S
H581 C591 0.930 . S
C582 H576 0.930 . S
C582 C583 1.355 . S
C582 C584 1.415 . S
C583 C582 1.355 . S
C583 C585 1.419 . S
C584 C582 1.415 . S
C584 C589 1.425 . S
C584 C591 1.409 . S
C585 H577 0.930 . S
C585 C583 1.419 . S
C585 C586 1.362 . S
C586 H578 0.930 . S
C586 C585 1.362 . S
C586 C589 1.409 . S
C587 H579 0.930 . S
C587 C588 1.355 . S
C587 C589 1.415 . S
C588 C587 1.355 . S
C588 C590 1.419 . S
C589 C584 1.425 . S
C589 C586 1.409 . S
C589 C587 1.415 . S
C590 H580 0.930 . S
C590 C588 1.419 . S
C590 C591 1.362 . S
C591 H581 0.930 . S
C591 C584 1.409 . S
C591 C590 1.362 . S
H592 C598 0.930 . S
H593 C601 0.930 . S
H594 C602 0.930 . S
H595 C603 0.930 . S
H596 C606 0.930 . S
H597 C607 0.930 . S
C598 H592 0.930 . S
C598 C599 1.355 . S
C598 C600 1.415 . S
C599 C598 1.355 . S
C599 C601 1.419 . S
C600 C598 1.415 . S
C600 C605 1.425 . S
C600 C607 1.409 . S
C601 H593 0.930 . S
C601 C599 1.419 . S
C601 C602 1.362 . S
C602 H594 0.930 . S
C602 C601 1.362 . S
C602 C605 1.409 . S
C603 H595 0.930 . S
C603 C604 1.355 . S
C603 C605 1.415 . S
C604 C603 1.355 . S
C604 C606 1.419 . S
C605 C600 1.425 . S
C605 C602 1.409 . S
C605 C603 1.415 . S
C606 H596 0.930 . S
C606 C604 1.419 . S
C606 C607 1.362 . S
C607 H597 0.930 . S
C607 C600 1.409 . S
C607 C606 1.362 . S
H608 C614 0.930 . S
H609 C617 0.930 1_554 S
H610 C618 0.930 . S
H611 C619 0.930 . S
H612 C622 0.930 . S
H613 C623 0.930 . S
C614 H608 0.930 . S
C614 C615 1.355 . S
C614 C616 1.415 1_554 S
C615 C614 1.355 . S
C615 C617 1.419 1_554 S
C616 C614 1.415 1_556 S
C616 C621 1.425 . S
C616 C623 1.409 . S
C617 H609 0.930 1_556 S
C617 C615 1.419 1_556 S
C617 C618 1.362 . S
C618 H610 0.930 . S
C618 C617 1.362 . S
C618 C621 1.409 . S
C619 H611 0.930 . S
C619 C620 1.355 . S
C619 C621 1.415 . S
C620 C619 1.355 . S
C620 C622 1.419 . S
C621 C616 1.425 . S
C621 C618 1.409 . S
C621 C619 1.415 . S
C622 H612 0.930 . S
C622 C620 1.419 . S
C622 C623 1.362 . S
C623 H613 0.930 . S
C623 C616 1.409 . S
C623 C622 1.362 . S
H624 C630 0.930 . S
H625 C633 0.930 . S
H626 C634 0.930 . S
H627 C635 0.930 . S
H628 C638 0.930 . S
H629 C639 0.930 . S
C630 H624 0.930 . S
C630 C631 1.355 . S
C630 C632 1.415 . S
C631 C630 1.355 . S
C631 C633 1.419 . S
C632 C630 1.415 . S
C632 C637 1.425 . S
C632 C639 1.409 . S
C633 H625 0.930 . S
C633 C631 1.419 . S
C633 C634 1.362 . S
C634 H626 0.930 . S
C634 C633 1.362 . S
C634 C637 1.409 . S
C635 H627 0.930 . S
C635 C636 1.355 . S
C635 C637 1.415 . S
C636 C635 1.355 . S
C636 C638 1.419 . S
C637 C632 1.425 . S
C637 C634 1.409 . S
C637 C635 1.415 . S
C638 H628 0.930 . S
C638 C636 1.419 . S
C638 C639 1.362 . S
C639 H629 0.930 . S
C639 C632 1.409 . S
C639 C638 1.362 . S
H640 C646 0.930 . S
H641 C649 0.930 1_554 S
H642 C650 0.930 . S
H643 C651 0.930 . S
H644 C654 0.930 . S
H645 C655 0.930 . S
C646 H640 0.930 . S
C646 C647 1.355 . S
C646 C648 1.415 1_554 S
C647 C646 1.355 . S
C647 C649 1.419 1_554 S
C648 C646 1.415 1_556 S
C648 C653 1.425 . S
C648 C655 1.409 . S
C649 H641 0.930 1_556 S
C649 C647 1.419 1_556 S
C649 C650 1.362 . S
C650 H642 0.930 . S
C650 C649 1.362 . S
C650 C653 1.409 . S
C651 H643 0.930 . S
C651 C652 1.355 . S
C651 C653 1.415 . S
C652 C651 1.355 . S
C652 C654 1.419 . S
C653 C648 1.425 . S
C653 C650 1.409 . S
C653 C651 1.415 . S
C654 H644 0.930 . S
C654 C652 1.419 . S
C654 C655 1.362 . S
C655 H645 0.930 . S
C655 C648 1.409 . S
C655 C654 1.362 . S
H656 C662 0.930 . S
H657 C665 0.930 . S
H658 C666 0.930 . S
H659 C667 0.930 . S
H660 C670 0.930 . S
H661 C671 0.930 . S
C662 H656 0.930 . S
C662 C663 1.355 . S
C662 C664 1.415 . S
C663 C662 1.355 . S
C663 C665 1.419 . S
C664 C662 1.415 . S
C664 C669 1.425 . S
C664 C671 1.409 . S
C665 H657 0.930 . S
C665 C663 1.419 . S
C665 C666 1.362 . S
C666 H658 0.930 . S
C666 C665 1.362 . S
C666 C669 1.409 . S
C667 H659 0.930 . S
C667 C668 1.355 . S
C667 C669 1.415 . S
C668 C667 1.355 . S
C668 C670 1.419 . S
C669 C664 1.425 . S
C669 C666 1.409 . S
C669 C667 1.415 . S
C670 H660 0.930 . S
C670 C668 1.419 . S
C670 C671 1.362 . S
C671 H661 0.930 . S
C671 C664 1.409 . S
C671 C670 1.362 . S
H672 C678 0.930 . S
H673 C681 0.930 . S
H674 C682 0.930 . S
H675 C683 0.930 . S
H676 C686 0.930 . S
H677 C687 0.930 . S
C678 H672 0.930 . S
C678 C679 1.355 1_554 S
C678 C680 1.415 . S
C679 C678 1.355 1_556 S
C679 C681 1.419 . S
C680 C678 1.415 . S
C680 C685 1.425 . S
C680 C687 1.409 . S
C681 H673 0.930 . S
C681 C679 1.419 . S
C681 C682 1.362 . S
C682 H674 0.930 . S
C682 C681 1.362 . S
C682 C685 1.409 1_556 S
C683 H675 0.930 . S
C683 C684 1.355 . S
C683 C685 1.415 . S
C684 C683 1.355 . S
C684 C686 1.419 . S
C685 C680 1.425 . S
C685 C682 1.409 1_554 S
C685 C683 1.415 . S
C686 H676 0.930 . S
C686 C684 1.419 . S
C686 C687 1.362 . S
C687 H677 0.930 . S
C687 C680 1.409 . S
C687 C686 1.362 . S
H688 C694 0.930 . S
H689 C697 0.930 . S
H690 C698 0.930 . S
H691 C699 0.930 . S
H692 C702 0.930 . S
H693 C703 0.930 . S
C694 H688 0.930 . S
C694 C695 1.355 . S
C694 C696 1.415 . S
C695 C694 1.355 . S
C695 C697 1.419 . S
C696 C694 1.415 . S
C696 C701 1.425 . S
C696 C703 1.409 . S
C697 H689 0.930 . S
C697 C695 1.419 . S
C697 C698 1.362 . S
C698 H690 0.930 . S
C698 C697 1.362 . S
C698 C701 1.409 . S
C699 H691 0.930 . S
C699 C700 1.355 . S
C699 C701 1.415 . S
C700 C699 1.355 . S
C700 C702 1.419 . S
C701 C696 1.425 . S
C701 C698 1.409 . S
C701 C699 1.415 . S
C702 H692 0.930 . S
C702 C700 1.419 . S
C702 C703 1.362 . S
C703 H693 0.930 . S
C703 C696 1.409 . S
C703 C702 1.362 . S
H704 C710 0.930 . S
H705 C713 0.929 1_556 S
H706 C714 0.930 . S
H707 C715 0.930 . S
H708 C718 0.930 . S
H709 C719 0.930 . S
C710 H704 0.930 . S
C710 C711 1.355 . S
C710 C712 1.415 1_556 S
C711 C710 1.355 . S
C711 C713 1.419 1_556 S
C712 C710 1.415 1_554 S
C712 C717 1.425 . S
C712 C719 1.409 . S
C713 H705 0.929 1_554 S
C713 C711 1.419 1_554 S
C713 C714 1.362 . S
C714 H706 0.930 . S
C714 C713 1.362 . S
C714 C717 1.409 . S
C715 H707 0.930 . S
C715 C716 1.355 . S
C715 C717 1.415 . S
C716 C715 1.355 . S
C716 C718 1.419 . S
C717 C712 1.425 . S
C717 C714 1.409 . S
C717 C715 1.415 . S
C718 H708 0.930 . S
C718 C716 1.419 . S
C718 C719 1.362 . S
C719 H709 0.930 . S
C719 C712 1.409 . S
C719 C718 1.362 . S
H720 C726 0.930 . S
H721 C729 0.930 . S
H722 C730 0.930 . S
H723 C731 0.930 . S
H724 C734 0.930 . S
H725 C735 0.930 . S
C726 H720 0.930 . S
C726 C727 1.355 . S
C726 C728 1.415 . S
C727 C726 1.355 . S
C727 C729 1.419 . S
C728 C726 1.415 . S
C728 C733 1.425 . S
C728 C735 1.409 . S
C729 H721 0.930 . S
C729 C727 1.419 . S
C729 C730 1.362 . S
C730 H722 0.930 . S
C730 C729 1.362 . S
C730 C733 1.409 . S
C731 H723 0.930 . S
C731 C732 1.355 . S
C731 C733 1.415 . S
C732 C731 1.355 . S
C732 C734 1.419 . S
C733 C728 1.425 . S
C733 C730 1.409 . S
C733 C731 1.415 . S
C734 H724 0.930 . S
C734 C732 1.419 . S
C734 C735 1.362 . S
C735 H725 0.930 . S
C735 C728 1.409 . S
C735 C734 1.362 . S
H736 C742 0.930 . S
H737 C745 0.930 1_556 S
H738 C746 0.930 . S
H739 C747 0.930 . S
H740 C750 0.930 . S
H741 C751 0.930 . S
C742 H736 0.930 . S
C742 C743 1.355 . S
C742 C744 1.415 1_556 S
C743 C742 1.355 . S
C743 C745 1.419 1_556 S
C744 C742 1.415 1_554 S
C744 C749 1.425 . S
C744 C751 1.409 . S
C745 H737 0.930 1_554 S
C745 C743 1.419 1_554 S
C745 C746 1.362 . S
C746 H738 0.930 . S
C746 C745 1.362 . S
C746 C749 1.409 . S
C747 H739 0.930 . S
C747 C748 1.355 . S
C747 C749 1.415 . S
C748 C747 1.355 . S
C748 C750 1.419 . S
C749 C744 1.425 . S
C749 C746 1.409 . S
C749 C747 1.415 . S
C750 H740 0.930 . S
C750 C748 1.419 . S
C750 C751 1.362 . S
C751 H741 0.930 . S
C751 C744 1.409 . S
C751 C750 1.362 . S
H752 C758 0.930 . S
H753 C761 0.930 . S
H754 C762 0.930 . S
H755 C763 0.930 . S
H756 C766 0.930 . S
H757 C767 0.930 . S
C758 H752 0.930 . S
C758 C759 1.355 . S
C758 C760 1.415 . S
C759 C758 1.355 . S
C759 C761 1.419 . S
C760 C758 1.415 . S
C760 C765 1.425 . S
C760 C767 1.409 . S
C761 H753 0.930 . S
C761 C759 1.419 . S
C761 C762 1.362 . S
C762 H754 0.930 . S
C762 C761 1.362 . S
C762 C765 1.409 . S
C763 H755 0.930 . S
C763 C764 1.355 . S
C763 C765 1.415 . S
C764 C763 1.355 . S
C764 C766 1.419 . S
C765 C760 1.425 . S
C765 C762 1.409 . S
C765 C763 1.415 . S
C766 H756 0.930 . S
C766 C764 1.419 . S
C766 C767 1.362 . S
C767 H757 0.930 . S
C767 C760 1.409 . S
C767 C766 1.362 . S
H768 C774 0.930 . S
H769 C777 0.930 . S
H770 C778 0.930 . S
H771 C779 0.930 . S
H772 C782 0.930 . S
H773 C783 0.930 . S
C774 H768 0.930 . S
C774 C775 1.355 . S
C774 C776 1.415 1_556 S
C775 C774 1.355 . S
C775 C777 1.419 . S
C776 C774 1.415 1_554 S
C776 C781 1.425 . S
C776 C783 1.409 . S
C777 H769 0.930 . S
C777 C775 1.419 . S
C777 C778 1.362 1_556 S
C778 H770 0.930 . S
C778 C777 1.362 1_554 S
C778 C781 1.409 . S
C779 H771 0.930 . S
C779 C780 1.355 . S
C779 C781 1.415 . S
C780 C779 1.355 . S
C780 C782 1.419 . S
C781 C776 1.425 . S
C781 C778 1.409 . S
C781 C779 1.415 . S
C782 H772 0.930 . S
C782 C780 1.419 . S
C782 C783 1.362 . S
C783 H773 0.930 . S
C783 C776 1.409 . S
C783 C782 1.362 . S
H784 C790 0.930 . S
H785 C793 0.930 . S
H786 C794 0.930 . S
H787 C795 0.930 . S
H788 C798 0.930 . S
H789 C799 0.930 . S
C790 H784 0.930 . S
C790 C791 1.355 . S
C790 C792 1.415 . S
C791 C790 1.355 . S
C791 C793 1.419 . S
C792 C790 1.415 . S
C792 C797 1.425 . S
C792 C799 1.409 . S
C793 H785 0.930 . S
C793 C791 1.419 . S
C793 C794 1.362 . S
C794 H786 0.930 . S
C794 C793 1.362 . S
C794 C797 1.409 . S
C795 H787 0.930 . S
C795 C796 1.355 . S
C795 C797 1.415 . S
C796 C795 1.355 . S
C796 C798 1.419 . S
C797 C792 1.425 . S
C797 C794 1.409 . S
C797 C795 1.415 . S
C798 H788 0.930 . S
C798 C796 1.419 . S
C798 C799 1.362 . S
C799 H789 0.930 . S
C799 C792 1.409 . S
C799 C798 1.362 . S
H800 C806 0.930 . S
H801 C809 0.930 . S
H802 C810 0.930 . S
H803 C811 0.930 . S
H804 C814 0.930 . S
H805 C815 0.930 . S
C806 H800 0.930 . S
C806 C807 1.355 . S
C806 C808 1.415 . S
C807 C806 1.355 . S
C807 C809 1.419 . S
C808 C806 1.415 . S
C808 C813 1.425 . S
C808 C815 1.409 1_556 S
C809 H801 0.930 . S
C809 C807 1.419 . S
C809 C810 1.362 . S
C810 H802 0.930 . S
C810 C809 1.362 . S
C810 C813 1.409 . S
C811 H803 0.930 . S
C811 C812 1.340 1_556 S
C811 C813 1.429 . S
C812 C811 1.340 1_554 S
C812 C814 1.419 . S
C813 C808 1.425 . S
C813 C810 1.409 . S
C813 C811 1.429 . S
C814 H804 0.930 . S
C814 C812 1.419 . S
C814 C815 1.362 . S
C815 H805 0.930 . S
C815 C808 1.409 1_554 S
C815 C814 1.362 . S
H816 C822 0.930 . S
H817 C825 0.930 . S
H818 C826 0.930 . S
H819 C827 0.930 . S
H820 C830 0.930 . S
H821 C831 0.930 . S
C822 H816 0.930 . S
C822 C823 1.355 . S
C822 C824 1.415 . S
C823 C822 1.355 . S
C823 C825 1.419 . S
C824 C822 1.415 . S
C824 C829 1.425 . S
C824 C831 1.409 . S
C825 H817 0.930 . S
C825 C823 1.419 . S
C825 C826 1.362 . S
C826 H818 0.930 . S
C826 C825 1.362 . S
C826 C829 1.409 . S
C827 H819 0.930 . S
C827 C828 1.355 . S
C827 C829 1.415 . S
C828 C827 1.355 . S
C828 C830 1.419 . S
C829 C824 1.425 . S
C829 C826 1.409 . S
C829 C827 1.415 . S
C830 H820 0.930 . S
C830 C828 1.419 . S
C830 C831 1.362 . S
C831 H821 0.930 . S
C831 C824 1.409 . S
C831 C830 1.362 . S
H832 C838 0.930 . S
H833 C841 0.930 . S
H834 C842 0.930 . S
H835 C843 0.930 . S
H836 C846 0.930 . S
H837 C847 0.930 . S
C838 H832 0.930 . S
C838 C839 1.355 . S
C838 C840 1.415 . S
C839 C838 1.355 . S
C839 C841 1.419 . S
C840 C838 1.415 . S
C840 C845 1.425 . S
C840 C847 1.409 1_556 S
C841 H833 0.930 . S
C841 C839 1.419 . S
C841 C842 1.362 . S
C842 H834 0.930 . S
C842 C841 1.362 . S
C842 C845 1.409 . S
C843 H835 0.930 . S
C843 C844 1.355 1_556 S
C843 C845 1.415 . S
C844 C843 1.355 1_554 S
C844 C846 1.419 . S
C845 C840 1.425 . S
C845 C842 1.409 . S
C845 C843 1.415 . S
C846 H836 0.930 . S
C846 C844 1.419 . S
C846 C847 1.362 . S
C847 H837 0.930 . S
C847 C840 1.409 1_554 S
C847 C846 1.362 . S
H848 C854 0.930 . S
H849 C857 0.930 . S
H850 C858 0.930 . S
H851 C859 0.930 . S
H852 C862 0.930 . S
H853 C863 0.930 . S
C854 H848 0.930 . S
C854 C855 1.355 . S
C854 C856 1.415 . S
C855 C854 1.355 . S
C855 C857 1.419 . S
C856 C854 1.415 . S
C856 C861 1.425 . S
C856 C863 1.409 . S
C857 H849 0.930 . S
C857 C855 1.419 . S
C857 C858 1.362 . S
C858 H850 0.930 . S
C858 C857 1.362 . S
C858 C861 1.409 . S
C859 H851 0.930 . S
C859 C860 1.355 . S
C859 C861 1.415 . S
C860 C859 1.355 . S
C860 C862 1.419 . S
C861 C856 1.425 . S
C861 C858 1.409 . S
C861 C859 1.415 . S
C862 H852 0.930 . S
C862 C860 1.419 . S
C862 C863 1.362 . S
C863 H853 0.930 . S
C863 C856 1.409 . S
C863 C862 1.362 . S
H864 C870 0.930 . S
H865 C873 0.930 1_565 S
H866 C874 0.930 . S
H867 C875 0.930 . S
H868 C878 0.930 . S
H869 C879 0.930 . S
C870 H864 0.930 . S
C870 C871 1.355 . S
C870 C872 1.415 . S
C871 C870 1.355 . S
C871 C873 1.419 . S
C872 C870 1.415 . S
C872 C877 1.425 . S
C872 C879 1.409 . S
C873 H865 0.930 1_545 S
C873 C871 1.419 . S
C873 C874 1.362 . S
C874 H866 0.930 . S
C874 C873 1.362 . S
C874 C877 1.409 . S
C875 H867 0.930 . S
C875 C876 1.355 . S
C875 C877 1.415 . S
C876 C875 1.355 . S
C876 C878 1.419 . S
C877 C872 1.425 . S
C877 C874 1.409 . S
C877 C875 1.415 . S
C878 H868 0.930 . S
C878 C876 1.419 . S
C878 C879 1.362 . S
C879 H869 0.930 . S
C879 C872 1.409 . S
C879 C878 1.362 . S
H880 C886 0.930 . S
H881 C889 0.930 . S
H882 C890 0.930 . S
H883 C891 0.930 . S
H884 C894 0.930 . S
H885 C895 0.930 . S
C886 H880 0.930 . S
C886 C887 1.355 . S
C886 C888 1.415 . S
C887 C886 1.355 . S
C887 C889 1.419 . S
C888 C886 1.415 . S
C888 C893 1.425 . S
C888 C895 1.409 . S
C889 H881 0.930 . S
C889 C887 1.419 . S
C889 C890 1.362 . S
C890 H882 0.930 . S
C890 C889 1.362 . S
C890 C893 1.409 . S
C891 H883 0.930 . S
C891 C892 1.355 . S
C891 C893 1.415 . S
C892 C891 1.355 . S
C892 C894 1.419 . S
C893 C888 1.425 . S
C893 C890 1.409 . S
C893 C891 1.415 . S
C894 H884 0.930 . S
C894 C892 1.419 . S
C894 C895 1.362 . S
C895 H885 0.930 . S
C895 C888 1.409 . S
C895 C894 1.362 . S
H896 C902 0.930 . S
H897 C905 0.930 . S
H898 C906 0.930 . S
H899 C907 0.930 . S
H900 C910 0.930 . S
H901 C911 0.930 . S
C902 H896 0.930 . S
C902 C903 1.355 . S
C902 C904 1.415 . S
C903 C902 1.355 . S
C903 C905 1.419 . S
C904 C902 1.415 . S
C904 C909 1.425 . S
C904 C911 1.409 . S
C905 H897 0.930 . S
C905 C903 1.419 . S
C905 C906 1.362 . S
C906 H898 0.930 . S
C906 C905 1.362 . S
C906 C909 1.409 . S
C907 H899 0.930 . S
C907 C908 1.355 . S
C907 C909 1.415 . S
C908 C907 1.355 . S
C908 C910 1.419 . S
C909 C904 1.425 . S
C909 C906 1.409 . S
C909 C907 1.415 . S
C910 H900 0.930 . S
C910 C908 1.419 . S
C910 C911 1.362 . S
C911 H901 0.930 . S
C911 C904 1.409 . S
C911 C910 1.362 . S
H912 C918 0.930 . S
H913 C921 0.930 1_565 S
H914 C922 0.930 . S
H915 C923 0.930 . S
H916 C926 0.930 . S
H917 C927 0.930 . S
C918 H912 0.930 . S
C918 C919 1.355 . S
C918 C920 1.415 . S
C919 C918 1.355 . S
C919 C921 1.419 . S
C920 C918 1.415 . S
C920 C925 1.425 . S
C920 C927 1.409 . S
C921 H913 0.930 1_545 S
C921 C919 1.419 . S
C921 C922 1.362 . S
C922 H914 0.930 . S
C922 C921 1.362 . S
C922 C925 1.409 . S
C923 H915 0.930 . S
C923 C924 1.355 . S
C923 C925 1.415 . S
C924 C923 1.355 . S
C924 C926 1.419 . S
C925 C920 1.425 . S
C925 C922 1.409 . S
C925 C923 1.415 . S
C926 H916 0.930 . S
C926 C924 1.419 . S
C926 C927 1.362 . S
C927 H917 0.930 . S
C927 C920 1.409 . S
C927 C926 1.362 . S
H928 C934 0.930 . S
H929 C937 0.930 . S
H930 C938 0.930 . S
H931 C939 0.930 . S
H932 C942 0.930 . S
H933 C943 0.930 . S
C934 H928 0.930 . S
C934 C935 1.355 . S
C934 C936 1.415 . S
C935 C934 1.355 . S
C935 C937 1.419 . S
C936 C934 1.415 . S
C936 C941 1.425 . S
C936 C943 1.409 . S
C937 H929 0.930 . S
C937 C935 1.419 . S
C937 C938 1.362 . S
C938 H930 0.930 . S
C938 C937 1.362 . S
C938 C941 1.409 . S
C939 H931 0.930 . S
C939 C940 1.355 . S
C939 C941 1.415 . S
C940 C939 1.355 . S
C940 C942 1.419 . S
C941 C936 1.425 . S
C941 C938 1.409 . S
C941 C939 1.415 . S
C942 H932 0.930 . S
C942 C940 1.419 . S
C942 C943 1.362 . S
C943 H933 0.930 . S
C943 C936 1.409 . S
C943 C942 1.362 . S
H944 C950 0.930 . S
H945 C953 0.930 . S
H946 C954 0.930 . S
H947 C955 0.930 . S
H948 C958 0.930 . S
H949 C959 0.930 . S
C950 H944 0.930 . S
C950 C951 1.355 . S
C950 C952 1.415 . S
C951 C950 1.355 . S
C951 C953 1.419 . S
C952 C950 1.415 . S
C952 C957 1.425 . S
C952 C959 1.409 . S
C953 H945 0.930 . S
C953 C951 1.419 . S
C953 C954 1.362 . S
C954 H946 0.930 . S
C954 C953 1.362 . S
C954 C957 1.409 . S
C955 H947 0.930 . S
C955 C956 1.355 . S
C955 C957 1.415 . S
C956 C955 1.355 . S
C956 C958 1.419 . S
C957 C952 1.425 . S
C957 C954 1.409 . S
C957 C955 1.415 . S
C958 H948 0.930 . S
C958 C956 1.419 . S
C958 C959 1.362 . S
C959 H949 0.930 . S
C959 C952 1.409 . S
C959 C958 1.362 . S
H960 C966 0.930 . S
H961 C969 0.930 . S
H962 C970 0.930 . S
H963 C971 0.930 . S
H964 C974 0.930 1_455 S
H965 C975 0.930 . S
C966 H960 0.930 . S
C966 C967 1.355 . S
C966 C968 1.415 . S
C967 C966 1.355 . S
C967 C969 1.419 . S
C968 C966 1.415 . S
C968 C973 1.425 . S
C968 C975 1.409 . S
C969 H961 0.930 . S
C969 C967 1.419 . S
C969 C970 1.362 . S
C970 H962 0.930 . S
C970 C969 1.362 . S
C970 C973 1.409 . S
C971 H963 0.930 . S
C971 C972 1.355 . S
C971 C973 1.415 . S
C972 C971 1.355 . S
C972 C974 1.419 . S
C973 C968 1.425 . S
C973 C970 1.409 . S
C973 C971 1.415 . S
C974 H964 0.930 1_655 S
C974 C972 1.419 . S
C974 C975 1.362 . S
C975 H965 0.930 . S
C975 C968 1.409 . S
C975 C974 1.362 . S
H976 C982 0.930 . S
H977 C985 0.930 . S
H978 C986 0.930 . S
H979 C987 0.930 . S
H980 C990 0.930 . S
H981 C991 0.930 . S
C982 H976 0.930 . S
C982 C983 1.355 . S
C982 C984 1.415 . S
C983 C982 1.355 . S
C983 C985 1.419 . S
C984 C982 1.415 . S
C984 C989 1.425 . S
C984 C991 1.409 . S
C985 H977 0.930 . S
C985 C983 1.419 . S
C985 C986 1.362 . S
C986 H978 0.930 . S
C986 C985 1.362 . S
C986 C989 1.409 . S
C987 H979 0.930 . S
C987 C988 1.355 . S
C987 C989 1.415 . S
C988 C987 1.355 . S
C988 C990 1.419 . S
C989 C984 1.425 . S
C989 C986 1.409 . S
C989 C987 1.415 . S
C990 H980 0.930 . S
C990 C988 1.419 . S
C990 C991 1.362 . S
C991 H981 0.930 . S
C991 C984 1.409 . S
C991 C990 1.362 . S
H992 C998 0.930 . S
H993 C1001 0.930 . S
H994 C1002 0.930 . S
H995 C1003 0.930 . S
H996 C1006 0.930 . S
H997 C1007 0.930 . S
C998 H992 0.930 . S
C998 C999 1.355 . S
C998 C1000 1.415 . S
C999 C998 1.355 . S
C999 C1001 1.419 . S
C1000 C998 1.415 . S
C1000 C1005 1.425 1_554 S
C1000 C1007 1.409 . S
C1001 H993 0.930 . S
C1001 C999 1.419 . S
C1001 C1002 1.362 1_554 S
C1002 H994 0.930 . S
C1002 C1001 1.362 1_556 S
C1002 C1005 1.409 . S
C1003 H995 0.930 . S
C1003 C1004 1.355 . S
C1003 C1005 1.415 . S
C1004 C1003 1.355 . S
C1004 C1006 1.419 . S
C1005 C1000 1.425 1_556 S
C1005 C1002 1.409 . S
C1005 C1003 1.415 . S
C1006 H996 0.930 . S
C1006 C1004 1.419 . S
C1006 C1007 1.362 1_556 S
C1007 H997 0.930 . S
C1007 C1000 1.409 . S
C1007 C1006 1.362 1_554 S
H1008 C1014 0.930 . S
H1009 C1017 0.930 . S
H1010 C1018 0.930 . S
H1011 C1019 0.930 . S
H1012 C1022 0.930 . S
H1013 C1023 0.930 . S
C1014 H1008 0.930 . S
C1014 C1015 1.355 . S
C1014 C1016 1.415 . S
C1015 C1014 1.355 . S
C1015 C1017 1.419 . S
C1016 C1014 1.415 . S
C1016 C1021 1.425 . S
C1016 C1023 1.409 . S
C1017 H1009 0.930 . S
C1017 C1015 1.419 . S
C1017 C1018 1.362 . S
C1018 H1010 0.930 . S
C1018 C1017 1.362 . S
C1018 C1021 1.409 . S
C1019 H1011 0.930 . S
C1019 C1020 1.355 . S
C1019 C1021 1.415 . S
C1020 C1019 1.355 . S
C1020 C1022 1.419 . S
C1021 C1016 1.425 . S
C1021 C1018 1.409 . S
C1021 C1019 1.415 . S
C1022 H1012 0.930 . S
C1022 C1020 1.419 . S
C1022 C1023 1.362 . S
C1023 H1013 0.930 . S
C1023 C1016 1.409 . S
C1023 C1022 1.362 . S
H1024 C1030 0.930 . S
H1025 C1033 0.930 . S
H1026 C1034 0.930 . S
H1027 C1035 0.930 . S
H1028 C1038 0.930 . S
H1029 C1039 0.930 . S
C1030 H1024 0.930 . S
C1030 C1031 1.355 . S
C1030 C1032 1.415 . S
C1031 C1030 1.355 . S
C1031 C1033 1.419 . S
C1032 C1030 1.415 . S
C1032 C1037 1.425 1_554 S
C1032 C1039 1.409 . S
C1033 H1025 0.930 . S
C1033 C1031 1.419 . S
C1033 C1034 1.362 1_554 S
C1034 H1026 0.930 . S
C1034 C1033 1.362 1_556 S
C1034 C1037 1.409 . S
C1035 H1027 0.930 . S
C1035 C1036 1.355 . S
C1035 C1037 1.415 . S
C1036 C1035 1.355 . S
C1036 C1038 1.419 . S
C1037 C1032 1.425 1_556 S
C1037 C1034 1.409 . S
C1037 C1035 1.415 . S
C1038 H1028 0.930 . S
C1038 C1036 1.419 . S
C1038 C1039 1.362 1_556 S
C1039 H1029 0.930 . S
C1039 C1032 1.409 . S
C1039 C1038 1.362 1_554 S
H1040 C1046 0.958 . S
H1041 C1049 0.930 . S
H1042 C1050 0.930 . S
H1043 C1051 0.930 . S
H1044 C1054 0.930 . S
H1045 C1055 0.930 . S
C1046 H1040 0.958 . S
C1046 C1047 1.332 1_545 S
C1046 C1048 1.411 1_545 S
C1047 C1046 1.332 1_565 S
C1047 C1049 1.419 . S
C1048 C1046 1.411 1_565 S
C1048 C1053 1.425 . S
C1048 C1055 1.409 1_565 S
C1049 H1041 0.930 . S
C1049 C1047 1.419 . S
C1049 C1050 1.362 . S
C1050 H1042 0.930 . S
C1050 C1049 1.362 . S
C1050 C1053 1.409 . S
C1051 H1043 0.930 . S
C1051 C1052 1.355 . S
C1051 C1053 1.415 . S
C1052 C1051 1.355 . S
C1052 C1054 1.419 1_565 S
C1053 C1048 1.425 . S
C1053 C1050 1.409 . S
C1053 C1051 1.415 . S
C1054 H1044 0.930 . S
C1054 C1052 1.419 1_545 S
C1054 C1055 1.362 . S
C1055 H1045 0.930 . S
C1055 C1048 1.409 1_545 S
C1055 C1054 1.362 . S
H1056 C1062 0.930 . S
H1057 C1065 0.930 . S
H1058 C1066 0.930 . S
H1059 C1067 0.930 . S
H1060 C1070 0.930 . S
H1061 C1071 0.930 . S
C1062 H1056 0.930 . S
C1062 C1063 1.355 . S
C1062 C1064 1.415 . S
C1063 C1062 1.355 . S
C1063 C1065 1.419 . S
C1064 C1062 1.415 . S
C1064 C1069 1.425 1_554 S
C1064 C1071 1.409 1_554 S
C1065 H1057 0.930 . S
C1065 C1063 1.419 . S
C1065 C1066 1.362 . S
C1066 H1058 0.930 . S
C1066 C1065 1.362 . S
C1066 C1069 1.409 1_554 S
C1067 H1059 0.930 . S
C1067 C1068 1.355 . S
C1067 C1069 1.415 . S
C1068 C1067 1.355 . S
C1068 C1070 1.419 . S
C1069 C1064 1.425 1_556 S
C1069 C1066 1.409 1_556 S
C1069 C1067 1.415 . S
C1070 H1060 0.930 . S
C1070 C1068 1.419 . S
C1070 C1071 1.362 . S
C1071 H1061 0.930 . S
C1071 C1064 1.409 1_556 S
C1071 C1070 1.362 . S
H1072 C1078 0.930 . S
H1073 C1081 0.930 . S
H1074 C1082 0.930 . S
H1075 C1083 0.930 . S
H1076 C1086 0.930 . S
H1077 C1087 0.930 . S
C1078 H1072 0.930 . S
C1078 C1079 1.355 . S
C1078 C1080 1.415 . S
C1079 C1078 1.355 . S
C1079 C1081 1.419 . S
C1080 C1078 1.415 . S
C1080 C1085 1.425 . S
C1080 C1087 1.409 . S
C1081 H1073 0.930 . S
C1081 C1079 1.419 . S
C1081 C1082 1.362 . S
C1082 H1074 0.930 . S
C1082 C1081 1.362 . S
C1082 C1085 1.409 . S
C1083 H1075 0.930 . S
C1083 C1084 1.355 . S
C1083 C1085 1.415 . S
C1084 C1083 1.355 . S
C1084 C1086 1.419 . S
C1085 C1080 1.425 . S
C1085 C1082 1.409 . S
C1085 C1083 1.415 . S
C1086 H1076 0.930 . S
C1086 C1084 1.419 . S
C1086 C1087 1.362 . S
C1087 H1077 0.930 . S
C1087 C1080 1.409 . S
C1087 C1086 1.362 . S
H1088 C1094 0.930 1_655 S
H1089 C1097 0.930 . S
H1090 C1098 0.930 . S
H1091 C1099 0.930 . S
H1092 C1102 0.930 . S
H1093 C1103 0.930 . S
C1094 H1088 0.930 1_455 S
C1094 C1095 1.355 . S
C1094 C1096 1.415 . S
C1095 C1094 1.355 . S
C1095 C1097 1.419 . S
C1096 C1094 1.415 . S
C1096 C1101 1.425 1_556 S
C1096 C1103 1.409 1_455 S
C1097 H1089 0.930 . S
C1097 C1095 1.419 . S
C1097 C1098 1.362 1_556 S
C1098 H1090 0.930 . S
C1098 C1097 1.362 1_554 S
C1098 C1101 1.409 . S
C1099 H1091 0.930 . S
C1099 C1100 1.355 . S
C1099 C1101 1.415 . S
C1100 C1099 1.355 . S
C1100 C1102 1.419 1_455 S
C1101 C1096 1.425 1_554 S
C1101 C1098 1.409 . S
C1101 C1099 1.415 . S
C1102 H1092 0.930 . S
C1102 C1100 1.419 1_655 S
C1102 C1103 1.362 1_554 S
C1103 H1093 0.930 . S
C1103 C1096 1.409 1_655 S
C1103 C1102 1.362 1_556 S
H1104 C1110 0.930 . S
H1105 C1113 0.930 . S
H1106 C1114 0.930 . S
H1107 C1115 0.930 . S
H1108 C1118 0.936 . S
H1109 C1119 0.930 1_565 S
C1110 H1104 0.930 . S
C1110 C1111 1.355 . S
C1110 C1112 1.415 . S
C1111 C1110 1.355 . S
C1111 C1113 1.419 . S
C1112 C1110 1.415 . S
C1112 C1117 1.425 . S
C1112 C1119 1.409 . S
C1113 H1105 0.930 . S
C1113 C1111 1.419 . S
C1113 C1114 1.362 . S
C1114 H1106 0.930 . S
C1114 C1113 1.362 . S
C1114 C1117 1.409 . S
C1115 H1107 0.930 . S
C1115 C1116 1.355 . S
C1115 C1117 1.415 . S
C1116 C1115 1.355 . S
C1116 C1118 1.419 . S
C1117 C1112 1.425 . S
C1117 C1114 1.409 . S
C1117 C1115 1.415 . S
C1118 H1108 0.936 . S
C1118 C1116 1.419 . S
C1118 C1119 1.362 . S
C1119 H1109 0.930 1_545 S
C1119 C1112 1.409 . S
C1119 C1118 1.362 . S
C359 C21 1.345 . S
C364 C219 1.383 . S
C375 C43 1.345 . S
C380 C227 1.355 . S
C391 C249 1.377 . S
C396 C59 1.337 . S
C407 C197 1.391 . S
C412 C81 1.366 . S
C423 C95 1.381 . S
C428 C351 1.371 . S
C439 C285 1.358 . S
C444 C131 1.360 . S
C455 C307 1.355 . S
C460 C147 1.339 . S
C471 C323 1.358 . S
C476 C169 1.360 . S
C487 C37 1.357 . S
C492 C191 1.330 . S
C503 C213 1.361 . S
C508 C51 1.347 . S
C519 C73 1.386 . S
C524 C241 1.356 . S
C535 C15 1.363 . S
C540 C263 1.381 . S
C551 C161 1.382 . S
C556 C279 1.344 . S
C567 C109 1.364 . S
C572 C301 1.329 . S
C583 C315 1.339 . S
C588 C125 1.348 . S
C599 C139 1.386 . S
C604 C345 1.364 . S
C615 C10 1.370 . S
C620 C337 1.391 . S
C631 C32 1.393 . S
C636 C271 1.347 . S
C647 C62 1.387 . S
C652 C293 1.398 . S
C663 C329 1.357 . S
C668 C84 1.399 . S
C679 C96 1.384 . S
C684 C205 1.341 . S
C695 C120 1.365 . S
C700 C235 1.346 . S
C711 C150 1.376 . S
C716 C257 1.396 . S
C727 C183 1.341 . S
C732 C172 1.384 . S
C743 C184 1.401 . S
C748 C175 1.409 . S
C759 C206 1.397 . S
C764 C103 1.409 . S
C775 C238 1.375 . S
C780 C117 1.385 . S
C791 C260 1.404 . S
C796 C153 1.370 . S
C807 C29 1.376 . S
C812 C272 1.408 . S
C823 C65 1.364 . S
C828 C294 1.398 . S
C839 C87 1.361 . S
C844 C318 1.392 . S
C855 C338 1.409 . S
C860 C7 1.378 . S
C871 C162 1.271 . S
C876 C18 1.298 . S
C887 C98 1.249 . S
C892 C40 1.290 . S
C903 C52 1.300 . S
C908 C128 1.246 . S
C919 C74 1.280 . S
C924 C140 1.327 . S
C935 C348 1.317 . S
C940 C194 1.330 . S
C951 C216 1.276 . S
C956 C282 1.310 . S
C967 C304 1.271 . S
C972 C230 1.258 . S
C983 C252 1.258 . S
C988 C316 1.274 . S
C999 C8 1.379 . S
C1004 C106 1.352 . S
C1015 C118 1.400 . S
C1020 C30 1.346 . S
C1031 C54 1.386 . S
C1036 C142 1.346 . S
C1047 C164 1.333 . S
C1052 C76 1.407 . S
C1063 C274 1.376 . S
C1068 C186 1.300 . S
C1079 C296 1.383 . S
C1084 C208 1.299 . S
C1095 C228 1.303 . S
C1100 C326 1.370 . S
C1111 C250 1.346 . S
C1116 C340 1.349 . S
