# Generated by pormake.
# Topology lcs, (4)-cn, num edge types: 1
# Building blocks:
#     Node 0, Type 0, BuildingBlock: CEKHIL_clean_sbu_0, # of connection points: 4
#     Node 1, Type 0, BuildingBlock: CEKHIL_clean_sbu_0, # of connection points: 4
#     Node 2, Type 0, BuildingBlock: CEKHIL_clean_sbu_0, # of connection points: 4
#     Node 3, Type 0, BuildingBlock: CEKHIL_clean_sbu_0, # of connection points: 4
#     Node 4, Type 0, BuildingBlock: CEKHIL_clean_sbu_0, # of connection points: 4
#     Node 5, Type 0, BuildingBlock: CEKHIL_clean_sbu_0, # of connection points: 4
#     Node 6, Type 0, BuildingBlock: CEKHIL_clean_sbu_0, # of connection points: 4
#     Node 7, Type 0, BuildingBlock: CEKHIL_clean_sbu_0, # of connection points: 4
#     Node 8, Type 0, BuildingBlock: CEKHIL_clean_sbu_0, # of connection points: 4
#     Node 9, Type 0, BuildingBlock: CEKHIL_clean_sbu_0, # of connection points: 4
#     Node 10, Type 0, BuildingBlock: CEKHIL_clean_sbu_0, # of connection points: 4
#     Node 11, Type 0, BuildingBlock: CEKHIL_clean_sbu_0, # of connection points: 4
#     Node 12, Type 0, BuildingBlock: CEKHIL_clean_sbu_0, # of connection points: 4
#     Node 13, Type 0, BuildingBlock: CEKHIL_clean_sbu_0, # of connection points: 4
#     Node 14, Type 0, BuildingBlock: CEKHIL_clean_sbu_0, # of connection points: 4
#     Node 15, Type 0, BuildingBlock: CEKHIL_clean_sbu_0, # of connection points: 4
#     Node 16, Type 0, BuildingBlock: CEKHIL_clean_sbu_0, # of connection points: 4
#     Node 17, Type 0, BuildingBlock: CEKHIL_clean_sbu_0, # of connection points: 4
#     Node 18, Type 0, BuildingBlock: CEKHIL_clean_sbu_0, # of connection points: 4
#     Node 19, Type 0, BuildingBlock: CEKHIL_clean_sbu_0, # of connection points: 4
#     Node 20, Type 0, BuildingBlock: CEKHIL_clean_sbu_0, # of connection points: 4
#     Node 21, Type 0, BuildingBlock: CEKHIL_clean_sbu_0, # of connection points: 4
#     Node 22, Type 0, BuildingBlock: CEKHIL_clean_sbu_0, # of connection points: 4
#     Node 23, Type 0, BuildingBlock: CEKHIL_clean_sbu_0, # of connection points: 4
#     Edge 24, Type (0, 0), BuildingBlock: TEMPAE_clean_linker_10, # of connection points: 2
#     Edge 25, Type (0, 0), BuildingBlock: TEMPAE_clean_linker_10, # of connection points: 2
#     Edge 26, Type (0, 0), BuildingBlock: TEMPAE_clean_linker_10, # of connection points: 2
#     Edge 27, Type (0, 0), BuildingBlock: TEMPAE_clean_linker_10, # of connection points: 2
#     Edge 28, Type (0, 0), BuildingBlock: TEMPAE_clean_linker_10, # of connection points: 2
#     Edge 29, Type (0, 0), BuildingBlock: TEMPAE_clean_linker_10, # of connection points: 2
#     Edge 30, Type (0, 0), BuildingBlock: TEMPAE_clean_linker_10, # of connection points: 2
#     Edge 31, Type (0, 0), BuildingBlock: TEMPAE_clean_linker_10, # of connection points: 2
#     Edge 32, Type (0, 0), BuildingBlock: TEMPAE_clean_linker_10, # of connection points: 2
#     Edge 33, Type (0, 0), BuildingBlock: TEMPAE_clean_linker_10, # of connection points: 2
#     Edge 34, Type (0, 0), BuildingBlock: TEMPAE_clean_linker_10, # of connection points: 2
#     Edge 35, Type (0, 0), BuildingBlock: TEMPAE_clean_linker_10, # of connection points: 2
#     Edge 36, Type (0, 0), BuildingBlock: TEMPAE_clean_linker_10, # of connection points: 2
#     Edge 37, Type (0, 0), BuildingBlock: TEMPAE_clean_linker_10, # of connection points: 2
#     Edge 38, Type (0, 0), BuildingBlock: TEMPAE_clean_linker_10, # of connection points: 2
#     Edge 39, Type (0, 0), BuildingBlock: TEMPAE_clean_linker_10, # of connection points: 2
#     Edge 40, Type (0, 0), BuildingBlock: TEMPAE_clean_linker_10, # of connection points: 2
#     Edge 41, Type (0, 0), BuildingBlock: TEMPAE_clean_linker_10, # of connection points: 2
#     Edge 42, Type (0, 0), BuildingBlock: TEMPAE_clean_linker_10, # of connection points: 2
#     Edge 43, Type (0, 0), BuildingBlock: TEMPAE_clean_linker_10, # of connection points: 2
#     Edge 44, Type (0, 0), BuildingBlock: TEMPAE_clean_linker_10, # of connection points: 2
#     Edge 45, Type (0, 0), BuildingBlock: TEMPAE_clean_linker_10, # of connection points: 2
#     Edge 46, Type (0, 0), BuildingBlock: TEMPAE_clean_linker_10, # of connection points: 2
#     Edge 47, Type (0, 0), BuildingBlock: TEMPAE_clean_linker_10, # of connection points: 2
#     Edge 48, Type (0, 0), BuildingBlock: TEMPAE_clean_linker_10, # of connection points: 2
#     Edge 49, Type (0, 0), BuildingBlock: TEMPAE_clean_linker_10, # of connection points: 2
#     Edge 50, Type (0, 0), BuildingBlock: TEMPAE_clean_linker_10, # of connection points: 2
#     Edge 51, Type (0, 0), BuildingBlock: TEMPAE_clean_linker_10, # of connection points: 2
#     Edge 52, Type (0, 0), BuildingBlock: TEMPAE_clean_linker_10, # of connection points: 2
#     Edge 53, Type (0, 0), BuildingBlock: TEMPAE_clean_linker_10, # of connection points: 2
#     Edge 54, Type (0, 0), BuildingBlock: TEMPAE_clean_linker_10, # of connection points: 2
#     Edge 55, Type (0, 0), BuildingBlock: TEMPAE_clean_linker_10, # of connection points: 2
#     Edge 56, Type (0, 0), BuildingBlock: TEMPAE_clean_linker_10, # of connection points: 2
#     Edge 57, Type (0, 0), BuildingBlock: TEMPAE_clean_linker_10, # of connection points: 2
#     Edge 58, Type (0, 0), BuildingBlock: TEMPAE_clean_linker_10, # of connection points: 2
#     Edge 59, Type (0, 0), BuildingBlock: TEMPAE_clean_linker_10, # of connection points: 2
#     Edge 60, Type (0, 0), BuildingBlock: TEMPAE_clean_linker_10, # of connection points: 2
#     Edge 61, Type (0, 0), BuildingBlock: TEMPAE_clean_linker_10, # of connection points: 2
#     Edge 62, Type (0, 0), BuildingBlock: TEMPAE_clean_linker_10, # of connection points: 2
#     Edge 63, Type (0, 0), BuildingBlock: TEMPAE_clean_linker_10, # of connection points: 2
#     Edge 64, Type (0, 0), BuildingBlock: TEMPAE_clean_linker_10, # of connection points: 2
#     Edge 65, Type (0, 0), BuildingBlock: TEMPAE_clean_linker_10, # of connection points: 2
#     Edge 66, Type (0, 0), BuildingBlock: TEMPAE_clean_linker_10, # of connection points: 2
#     Edge 67, Type (0, 0), BuildingBlock: TEMPAE_clean_linker_10, # of connection points: 2
#     Edge 68, Type (0, 0), BuildingBlock: TEMPAE_clean_linker_10, # of connection points: 2
#     Edge 69, Type (0, 0), BuildingBlock: TEMPAE_clean_linker_10, # of connection points: 2
#     Edge 70, Type (0, 0), BuildingBlock: TEMPAE_clean_linker_10, # of connection points: 2
#     Edge 71, Type (0, 0), BuildingBlock: TEMPAE_clean_linker_10, # of connection points: 2
# Relax obj value: 0.002
# Max RMSD: 0.026
# Mean RMSD: 0.021
data_MOF--net-lcs--node1-CEKHIL_clean_sbu_0--edge1-TEMPAE_clean_linker_10
_symmetry_space_group_name_H-M    P1
_symmetry_Int_Tables_number       1
_symmetry_cell_setting            triclinic
loop_
_symmetry_equiv_pos_as_xyz
'x, y, z'
_cell_length_a     50.049887
_cell_length_b     49.111696
_cell_length_c     49.091543
_cell_angle_alpha  90.799202
_cell_angle_beta   90.322623
_cell_angle_gamma 90.614621
loop_
_atom_site_label
_atom_site_type_symbol
_atom_site_fract_x
_atom_site_fract_y
_atom_site_fract_z
_atom_type_partial_charge
Co0 Co 0.00916 0.26769 0.39064 0.0
O1 O 0.97382 0.28214 0.38595 0.0
O2 O 0.98831 0.26233 0.42332 0.0
C3 C 0.03097 0.30454 0.37385 0.0
O4 O 0.04435 0.25138 0.40376 0.0
Co5 Co 0.04604 0.25681 0.34147 0.0
O6 O 0.07392 0.25044 0.36954 0.0
C7 C 1.00003 0.22018 0.35124 0.0
C8 C 0.96911 0.27473 0.41075 0.0
C9 C 0.06802 0.24709 0.39451 0.0
O10 O 0.99677 0.23125 0.37493 0.0
O11 O 0.01685 0.22921 0.33389 0.0
O12 O 0.02312 0.30424 0.39902 0.0
O13 O 0.02378 0.28359 0.35926 0.0
Co14 Co 0.01874 0.75177 0.63711 0.0
O15 O 0.0526 0.7348 0.6439 0.0
O16 O 0.02999 0.73028 0.60542 0.0
C17 C 0.03276 0.79307 0.653 0.0
O18 O 0.98321 0.76748 0.62281 0.0
Co19 Co 0.98739 0.77711 0.68573 0.0
O20 O 0.96388 0.79123 0.65684 0.0
C21 C 0.9871 0.71723 0.67684 0.0
C22 C 0.05163 0.72517 0.61926 0.0
C23 C 0.96441 0.78292 0.63213 0.0
O24 O 0.99905 0.7197 0.65373 0.0
O25 O 0.98317 0.73736 0.69314 0.0
O26 O 0.03745 0.78571 0.628 0.0
O27 O 0.02126 0.77491 0.66768 0.0
Co28 Co 0.50816 0.76667 0.88957 0.0
O29 O 0.4726 0.7806 0.8848 0.0
O30 O 0.48742 0.76123 0.92229 0.0
C31 C 0.52951 0.80368 0.87256 0.0
O32 O 0.54354 0.7509 0.90287 0.0
Co33 Co 0.54539 0.75596 0.84069 0.0
O34 O 0.57334 0.75046 0.86887 0.0
C35 C 0.49994 0.71856 0.85064 0.0
C36 C 0.46803 0.77326 0.90966 0.0
C37 C 0.56735 0.74706 0.8938 0.0
O38 O 0.49621 0.72999 0.87409 0.0
O39 O 0.51691 0.72754 0.83341 0.0
O40 O 0.52164 0.80344 0.89772 0.0
O41 O 0.52262 0.78255 0.85809 0.0
Co42 Co 0.52009 0.25197 0.13877 0.0
O43 O 0.55436 0.2356 0.14475 0.0
O44 O 0.53138 0.23156 0.10642 0.0
C45 C 0.53323 0.29317 0.15557 0.0
O46 O 0.48414 0.26726 0.1253 0.0
Co47 Co 0.48865 0.2746 0.18846 0.0
O48 O 0.46452 0.28925 0.16029 0.0
C49 C 0.49127 0.21521 0.17846 0.0
C50 C 0.55323 0.22646 0.11993 0.0
C51 C 0.46513 0.282 0.13526 0.0
O52 O 0.50141 0.21901 0.15468 0.0
O53 O 0.48747 0.23457 0.19571 0.0
O54 O 0.53783 0.28656 0.13035 0.0
O55 O 0.52241 0.27432 0.16994 0.0
Co56 Co 0.0157 0.75659 0.13291 0.0
O57 O 0.051 0.77241 0.13613 0.0
O58 O 0.03532 0.75139 0.09922 0.0
C59 C 0.99426 0.79326 0.15055 0.0
O60 O 0.98004 0.73899 0.12136 0.0
Co61 Co 0.98128 0.74596 0.1837 0.0
O62 O 0.95207 0.739 0.15698 0.0
C63 C 0.02578 0.70893 0.1709 0.0
C64 C 0.05473 0.76502 0.11099 0.0
C65 C 0.95675 0.73489 0.13177 0.0
O66 O 0.02908 0.72078 0.14784 0.0
O67 O 0.00926 0.71741 0.18887 0.0
O68 O 1.00102 0.79234 0.12507 0.0
O69 O 1.00236 0.77308 0.16497 0.0
Co70 Co 0.4988 0.76258 0.38599 0.0
O71 O 0.46425 0.7452 0.38218 0.0
O72 O 0.48893 0.74384 0.41944 0.0
C73 C 0.48513 0.80238 0.368 0.0
O74 O 0.53525 0.77911 0.39749 0.0
Co75 Co 0.52858 0.78321 0.33452 0.0
O76 O 0.55373 0.79968 0.36137 0.0
C77 C 0.52747 0.72437 0.34698 0.0
C78 C 0.46655 0.73739 0.40715 0.0
C79 C 0.554 0.79353 0.38651 0.0
O80 O 0.51689 0.72906 0.37049 0.0
O81 O 0.53116 0.7429 0.32924 0.0
O82 O 0.48146 0.79753 0.39366 0.0
O83 O 0.49545 0.78277 0.35412 0.0
Co84 Co 0.51618 0.25691 0.63275 0.0
O85 O 0.5514 0.27286 0.63629 0.0
O86 O 0.53618 0.25167 0.59929 0.0
C87 C 0.49452 0.29359 0.65007 0.0
O88 O 0.48067 0.23919 0.62086 0.0
Co89 Co 0.48113 0.2464 0.68312 0.0
O90 O 0.45216 0.24005 0.65601 0.0
C91 C 0.5256 0.20908 0.67079 0.0
C92 C 0.55541 0.26545 0.6112 0.0
C93 C 0.45715 0.23557 0.63093 0.0
O94 O 0.52948 0.22117 0.64794 0.0
O95 O 0.50867 0.21745 0.68842 0.0
O96 O 0.50152 0.29262 0.62467 0.0
O97 O 0.50248 0.27344 0.66462 0.0
Co98 Co 0.99943 0.2613 0.8872 0.0
O99 O 0.96487 0.24405 0.88299 0.0
O100 O 0.98948 0.24194 0.92026 0.0
C101 C 0.9858 0.30139 0.86987 0.0
O102 O 0.03581 0.27767 0.8991 0.0
Co103 Co 0.02942 0.28292 0.83628 0.0
O104 O 0.05391 0.2996 0.86362 0.0
C105 C 0.02872 0.22384 0.84787 0.0
C106 C 0.96708 0.23584 0.90783 0.0
C107 C 0.05427 0.29279 0.88858 0.0
O108 O 0.01758 0.22804 0.8712 0.0
O109 O 0.03269 0.24272 0.83057 0.0
O110 O 0.98206 0.29611 0.89543 0.0
O111 O 0.99618 0.28203 0.85568 0.0
Co112 Co 0.37626 1.00083 0.26867 0.0
O113 O 0.37233 0.96618 0.28618 0.0
O114 O 0.40861 0.98012 0.26457 0.0
C115 C 0.36007 0.02564 0.30411 0.0
O116 O 0.38875 0.03512 0.24939 0.0
Co117 Co 0.32823 0.03699 0.25555 0.0
O118 O 0.35533 0.0649 0.24572 0.0
C119 C 0.33788 0.98786 0.22183 0.0
C120 C 0.39684 0.96162 0.27906 0.0
C121 C 0.37979 0.0586 0.2428 0.0
O122 O 0.36079 0.98497 0.23353 0.0
O123 O 0.32105 0.00584 0.22945 0.0
O124 O 0.38485 0.01815 0.30366 0.0
O125 O 0.3454 0.01653 0.28412 0.0
Co126 Co 0.25351 0.13105 0.50573 0.0
O127 O 0.21863 0.12779 0.48913 0.0
O128 O 0.23378 0.16463 0.51069 0.0
C129 C 0.27591 0.1136 0.46954 0.0
O130 O 0.28875 0.14257 0.52411 0.0
Co131 Co 0.28707 0.08003 0.5171 0.0
O132 O 0.316 0.10656 0.52625 0.0
C133 C 0.2416 0.09274 0.5528 0.0
C134 C 0.21469 0.15285 0.49662 0.0
C135 C 0.31154 0.13188 0.52967 0.0
O136 O 0.23919 0.116 0.54119 0.0
O137 O 0.25789 0.07453 0.54449 0.0
O138 O 0.26917 0.13905 0.47036 0.0
O139 O 0.26716 0.09909 0.48945 0.0
Co140 Co 0.12887 0.00799 0.77084 0.0
O141 O 0.12444 0.98756 0.80377 0.0
O142 O 0.16121 0.988 0.77912 0.0
C143 C 0.11161 0.04676 0.78845 0.0
O144 O 0.14123 0.02733 0.73614 0.0
Co145 Co 0.07992 0.03226 0.74075 0.0
O146 O 0.1069 0.04959 0.71715 0.0
C147 C 0.09083 0.97319 0.73639 0.0
C148 C 0.14886 0.97957 0.80075 0.0
C149 C 0.13146 0.04303 0.71775 0.0
O150 O 0.1136 0.97652 0.74852 0.0
O151 O 0.07397 0.9924 0.73365 0.0
O152 O 0.13657 0.04099 0.79253 0.0
O153 O 0.09785 0.0285 0.77534 0.0
Co154 Co 0.26087 0.87178 0.99664 0.0
O155 O 0.29638 0.87606 0.98222 0.0
O156 O 0.28107 0.83877 1.00184 0.0
C157 C 0.23957 0.88892 0.95977 0.0
O158 O 0.22542 0.85907 0.01295 0.0
Co159 Co 0.22485 0.92128 0.00765 0.0
O160 O 0.19654 0.89369 0.01477 0.0
C161 C 0.27066 0.91107 0.04407 0.0
C162 C 0.30057 0.85118 0.98955 0.0
C163 C 0.202 0.86862 0.01779 0.0
O164 O 0.27342 0.88727 0.03311 0.0
O165 O 0.25422 0.92863 0.03499 0.0
O166 O 0.24685 0.86362 0.96009 0.0
O167 O 0.24695 0.90339 0.98073 0.0
Co168 Co 0.27443 0.37599 0.00489 0.0
O169 O 0.30976 0.38017 0.02033 0.0
O170 O 0.28523 0.34281 0.02339 0.0
C171 C 0.28577 0.39383 0.96414 0.0
O172 O 0.23733 0.36416 0.99048 0.0
Co173 Co 0.24363 0.42755 0.98663 0.0
O174 O 0.21614 0.40088 0.97418 0.0
C175 C 0.24917 0.41549 0.04498 0.0
C176 C 0.30781 0.35533 0.02865 0.0
C177 C 0.217 0.37547 0.97907 0.0
O178 O 0.258 0.39148 0.03935 0.0
O179 O 0.2453 0.43366 0.02698 0.0
O180 O 0.28996 0.36827 0.96899 0.0
O181 O 0.27656 0.40774 0.98434 0.0
Co182 Co 0.75425 0.12701 0.01294 0.0
O183 O 0.71982 0.12126 0.02919 0.0
O184 O 0.7434 0.1592 0.03392 0.0
C185 C 0.74084 0.11107 0.97156 0.0
O186 O 0.79052 0.14005 0.99777 0.0
Co187 Co 0.78458 0.07708 0.98967 0.0
O188 O 0.80908 0.10504 0.97493 0.0
C189 C 0.78204 0.08636 0.04916 0.0
C190 C 0.72128 0.14588 0.03876 0.0
C191 C 0.80913 0.12996 0.98256 0.0
O192 O 0.77242 0.11034 0.04565 0.0
O193 O 0.78555 0.06927 0.02961 0.0
O194 O 0.73693 0.1363 0.9785 0.0
O195 O 0.75122 0.09619 0.99017 0.0
Co196 Co 0.14366 0.51228 0.26147 0.0
O197 O 0.14819 0.54549 0.24149 0.0
O198 O 0.11168 0.51992 0.24017 0.0
C199 C 0.15962 0.5304 0.30095 0.0
O200 O 0.1312 0.47735 0.28047 0.0
Co201 Co 0.19221 0.48375 0.28804 0.0
O202 O 0.16474 0.46125 0.3061 0.0
C203 C 0.18316 0.47907 0.22843 0.0
C204 C 0.1239 0.54214 0.23274 0.0
C205 C 0.14049 0.46049 0.29805 0.0
O206 O 0.16015 0.49054 0.23059 0.0
O207 O 0.19935 0.4767 0.24853 0.0
O208 O 0.13473 0.53353 0.29417 0.0
O209 O 0.1741 0.51781 0.28329 0.0
Co210 Co 0.77371 0.87794 0.50302 0.0
O211 O 0.80896 0.88177 0.5187 0.0
O212 O 0.78437 0.84439 0.52099 0.0
C213 C 0.78543 0.89634 0.46265 0.0
O214 O 0.7366 0.86655 0.48821 0.0
Co215 Co 0.74335 0.92998 0.4854 0.0
O216 O 0.71612 0.90359 0.47174 0.0
C217 C 0.74846 0.91695 0.54357 0.0
C218 C 0.80695 0.85678 0.52654 0.0
C219 C 0.71659 0.87813 0.47646 0.0
O220 O 0.75717 0.89297 0.53762 0.0
O221 O 0.7448 0.93543 0.52585 0.0
O222 O 0.7894 0.87068 0.46713 0.0
O223 O 0.77616 0.91002 0.48299 0.0
Co224 Co 0.89474 0.99448 0.2633 0.0
O225 O 0.8982 0.97741 0.29821 0.0
O226 O 0.8622 0.99886 0.28378 0.0
C227 C 0.91104 0.95881 0.23895 0.0
O228 O 0.88272 0.01337 0.22874 0.0
Co229 Co 0.94322 0.0072 0.22721 0.0
O230 O 0.91642 0.01672 0.19905 0.0
C231 C 0.93315 0.0415 0.27588 0.0
C232 C 0.8737 0.98464 0.30256 0.0
C233 C 0.89193 0.01972 0.20523 0.0
O234 O 0.9102 0.02979 0.27882 0.0
O235 O 0.95016 0.0337 0.25808 0.0
O236 O 0.88618 0.9593 0.24632 0.0
O237 O 0.92569 0.9789 0.24794 0.0
Co238 Co 0.25423 0.62779 0.51338 0.0
O239 O 0.21982 0.62151 0.52953 0.0
O240 O 0.2431 0.65955 0.53489 0.0
C241 C 0.24087 0.61245 0.47174 0.0
O242 O 0.29047 0.64138 0.49845 0.0
Co243 Co 0.28487 0.57852 0.48906 0.0
O244 O 0.30952 0.60682 0.4753 0.0
C245 C 0.28264 0.58675 0.54878 0.0
C246 C 0.22108 0.64598 0.5395 0.0
C247 C 0.30935 0.63161 0.48336 0.0
O248 O 0.27251 0.61061 0.54581 0.0
O249 O 0.28638 0.57019 0.52883 0.0
O250 O 0.23683 0.63755 0.47909 0.0
O251 O 0.2514 0.59735 0.49008 0.0
Co252 Co 0.39296 0.49304 0.76377 0.0
O253 O 0.39647 0.47524 0.79828 0.0
O254 O 0.36029 0.49666 0.78427 0.0
C255 C 0.40962 0.45805 0.73869 0.0
O256 O 0.38101 0.51262 0.72955 0.0
Co257 Co 0.44181 0.5069 0.72854 0.0
O258 O 0.41523 0.51789 0.70073 0.0
C259 C 0.43122 0.53969 0.77799 0.0
C260 C 0.37191 0.48216 0.80277 0.0
C261 C 0.39058 0.5202 0.70656 0.0
O262 O 0.40809 0.52815 0.78011 0.0
O263 O 0.44858 0.53215 0.76045 0.0
O264 O 0.38473 0.45817 0.74596 0.0
O265 O 0.42408 0.47802 0.74826 0.0
Co266 Co 0.6432 0.01163 0.76118 0.0
O267 O 0.64805 0.04515 0.7418 0.0
O268 O 0.61135 0.0199 0.7399 0.0
C269 C 0.65923 0.02896 0.80097 0.0
O270 O 0.63041 0.97649 0.7796 0.0
Co271 Co 0.69148 0.98228 0.78733 0.0
O272 O 0.66376 0.95992 0.80517 0.0
C273 C 0.68245 0.97852 0.72767 0.0
C274 C 0.62376 0.04217 0.73293 0.0
C275 C 0.63953 0.9594 0.79706 0.0
O276 O 0.65958 0.99025 0.72997 0.0
O277 O 0.69858 0.97566 0.74775 0.0
O278 O 0.63439 0.03243 0.7942 0.0
O279 O 0.67363 0.01654 0.78314 0.0
Co280 Co 0.75301 0.63159 0.00527 0.0
O281 O 0.71822 0.62831 0.9885 0.0
O282 O 0.73315 0.66509 0.0103 0.0
C283 C 0.77556 0.61438 0.96904 0.0
O284 O 0.78817 0.64309 0.02386 0.0
Co285 Co 0.78665 0.5806 0.01648 0.0
O286 O 0.8156 0.60721 0.02531 0.0
C287 C 0.74111 0.59307 0.0522 0.0
C288 C 0.71417 0.65332 0.99607 0.0
C289 C 0.81106 0.63246 0.02909 0.0
O290 O 0.7386 0.61633 0.04061 0.0
O291 O 0.75751 0.57496 0.04391 0.0
O292 O 0.76876 0.6398 0.96998 0.0
O293 O 0.7668 0.59974 0.98886 0.0
Co294 Co 0.87775 0.5004 0.76994 0.0
O295 O 0.87381 0.46633 0.78851 0.0
O296 O 0.91023 0.47973 0.76682 0.0
C297 C 0.86111 0.52629 0.80441 0.0
O298 O 0.89022 0.53409 0.74967 0.0
Co299 Co 0.82934 0.53533 0.75506 0.0
O300 O 0.85598 0.56203 0.7415 0.0
C301 C 0.83959 0.48508 0.72364 0.0
C302 C 0.89837 0.46161 0.78172 0.0
C303 C 0.88072 0.55632 0.74027 0.0
O304 O 0.86271 0.48333 0.73513 0.0
O305 O 0.82227 0.50271 0.73087 0.0
O306 O 0.88593 0.51891 0.80442 0.0
O307 O 0.84665 0.51638 0.78462 0.0
Co308 Co 0.7617 0.37276 0.49751 0.0
O309 O 0.79736 0.3772 0.48349 0.0
O310 O 0.78183 0.33973 0.50261 0.0
C311 C 0.74074 0.39024 0.4606 0.0
O312 O 0.72613 0.35981 0.51341 0.0
Co313 Co 0.7253 0.42191 0.50863 0.0
O314 O 0.69695 0.39416 0.51488 0.0
C315 C 0.77069 0.41146 0.54563 0.0
C316 C 0.80146 0.35225 0.49066 0.0
C317 C 0.70256 0.36913 0.5179 0.0
O318 O 0.77393 0.38794 0.53421 0.0
O319 O 0.75405 0.42892 0.53673 0.0
O320 O 0.74803 0.36494 0.46077 0.0
O321 O 0.74786 0.40453 0.48178 0.0
Co322 Co 0.6297 0.50916 0.2715 0.0
O323 O 0.62568 0.48933 0.30486 0.0
O324 O 0.66221 0.48948 0.27985 0.0
C325 C 0.61234 0.5481 0.28862 0.0
O326 O 0.64164 0.52791 0.23631 0.0
Co327 Co 0.58038 0.53258 0.24142 0.0
O328 O 0.60702 0.54954 0.21715 0.0
C329 C 0.59115 0.47343 0.23879 0.0
C330 C 0.65008 0.48134 0.30173 0.0
C331 C 0.63163 0.54318 0.21769 0.0
O332 O 0.6143 0.47718 0.25 0.0
O333 O 0.57415 0.49252 0.23604 0.0
O334 O 0.63741 0.54263 0.29248 0.0
O335 O 0.59859 0.52952 0.27595 0.0
C336 C 0.09533 0.43784 0.3041 0.0
C337 C 0.12303 0.43836 0.30882 0.0
C338 C 0.07912 0.41666 0.31424 0.0
C339 C 0.0909 0.39536 0.32921 0.0
C340 C 0.1188 0.39574 0.33391 0.0
C341 C 0.13443 0.41718 0.32381 0.0
C342 C 0.04939 0.41708 0.309 0.0
C343 C 0.13227 0.37336 0.34953 0.0
C344 C 0.05025 0.35175 0.37779 0.0
C345 C 0.04608 0.32783 0.36233 0.0
C346 C 0.0641 0.37417 0.36698 0.0
C347 C 0.07426 0.37258 0.34013 0.0
C348 C 0.06996 0.34851 0.32438 0.0
C349 C 0.05585 0.32649 0.33562 0.0
C350 C 0.06815 0.39945 0.38443 0.0
C351 C 0.0807 0.34584 0.2958 0.0
H352 H 0.08627 0.45405 0.29261 0.0
H353 H 0.15579 0.41712 0.32751 0.0
H354 H 0.0431 0.39841 0.29761 0.0
H355 H 0.03852 0.41715 0.32864 0.0
H356 H 0.04325 0.43513 0.2972 0.0
H357 H 0.15423 0.37648 0.35118 0.0
H358 H 0.12392 0.37226 0.37038 0.0
H359 H 0.1283 0.35339 0.33938 0.0
H360 H 0.04261 0.35302 0.39837 0.0
H361 H 0.05266 0.3081 0.32353 0.0
H362 H 0.0607 0.41754 0.37358 0.0
H363 H 0.08979 0.40284 0.38837 0.0
H364 H 0.05776 0.39803 0.40431 0.0
H365 H 0.07338 0.36276 0.28312 0.0
H366 H 0.07479 0.32621 0.28585 0.0
H367 H 0.10284 0.34731 0.29625 0.0
C368 C 0.94172 0.78777 0.58599 0.0
C369 C 0.94136 0.79081 0.61447 0.0
C370 C 0.91989 0.79621 0.56985 0.0
C371 C 0.89709 0.80773 0.58248 0.0
C372 C 0.8964 0.81008 0.61121 0.0
C373 C 0.91839 0.80172 0.62671 0.0
C374 C 0.92147 0.79342 0.53927 0.0
C375 C 0.87261 0.82212 0.62568 0.0
C376 C 0.85314 0.85882 0.54629 0.0
C377 C 0.82996 0.84346 0.54024 0.0
C378 C 0.87538 0.84716 0.55903 0.0
C379 C 0.87468 0.81929 0.566 0.0
C380 C 0.85156 0.80345 0.55949 0.0
C381 C 0.82945 0.81572 0.54675 0.0
C382 C 0.89939 0.86497 0.56574 0.0
C383 C 0.84998 0.77367 0.5665 0.0
H384 H 0.95922 0.77931 0.57627 0.0
H385 H 0.91749 0.80388 0.64868 0.0
H386 H 0.90354 0.78246 0.53121 0.0
H387 H 0.92173 0.81392 0.53005 0.0
H388 H 0.93961 0.78237 0.53262 0.0
H389 H 0.87454 0.82118 0.6482 0.0
H390 H 0.87035 0.84374 0.61992 0.0
H391 H 0.85402 0.81119 0.6194 0.0
H392 H 0.8539 0.88024 0.54128 0.0
H393 H 0.81176 0.80362 0.54197 0.0
H394 H 0.91781 0.85565 0.55753 0.0
H395 H 0.90188 0.86673 0.58818 0.0
H396 H 0.89754 0.88578 0.5574 0.0
H397 H 0.86767 0.76285 0.55844 0.0
H398 H 0.83161 0.76364 0.5582 0.0
H399 H 0.85019 0.77143 0.58896 0.0
C400 C 0.4183 0.58311 0.80188 0.0
C401 C 0.43789 0.564 0.79507 0.0
C402 C 0.4254 0.60838 0.81398 0.0
C403 C 0.45263 0.61436 0.81986 0.0
C404 C 0.47214 0.59427 0.81479 0.0
C405 C 0.46459 0.56952 0.80219 0.0
C406 C 0.404 0.62929 0.81876 0.0
C407 C 0.5013 0.59947 0.82125 0.0
C408 C 0.4813 0.68601 0.81568 0.0
C409 C 0.48488 0.69325 0.84322 0.0
C410 C 0.46948 0.66103 0.80794 0.0
C411 C 0.46138 0.64247 0.82819 0.0
C412 C 0.46397 0.65004 0.85606 0.0
C413 C 0.4755 0.67547 0.86326 0.0
C414 C 0.46665 0.65408 0.77797 0.0
C415 C 0.4558 0.63077 0.87826 0.0
H416 H 0.39765 0.57901 0.79629 0.0
H417 H 0.47976 0.55469 0.79724 0.0
H418 H 0.40614 0.63872 0.83933 0.0
H419 H 0.4062 0.64581 0.80372 0.0
H420 H 0.38359 0.62036 0.81666 0.0
H421 H 0.51341 0.58074 0.81915 0.0
H422 H 0.50943 0.61498 0.80722 0.0
H423 H 0.50369 0.60765 0.84232 0.0
H424 H 0.48814 0.69977 0.80005 0.0
H425 H 0.47822 0.68089 0.88458 0.0
H426 H 0.44596 0.64711 0.77327 0.0
H427 H 0.48021 0.63712 0.77262 0.0
H428 H 0.47155 0.67167 0.76485 0.0
H429 H 0.4354 0.62254 0.87435 0.0
H430 H 0.45629 0.64075 0.89871 0.0
H431 H 0.46958 0.61322 0.87844 0.0
C432 C 0.57976 0.21029 0.07936 0.0
C433 C 0.57691 0.21305 0.10767 0.0
C434 C 0.60353 0.2001 0.06795 0.0
C435 C 0.62484 0.19224 0.08525 0.0
C436 C 0.6218 0.19454 0.11383 0.0
C437 C 0.59801 0.20496 0.12462 0.0
C438 C 0.60597 0.19801 0.03737 0.0
C439 C 0.64374 0.18606 0.13307 0.0
C440 C 0.6756 0.14138 0.05854 0.0
C441 C 0.69766 0.1581 0.05238 0.0
C442 C 0.65191 0.15224 0.06909 0.0
C443 C 0.64998 0.18066 0.07365 0.0
C444 C 0.67227 0.1977 0.06785 0.0
C445 C 0.69588 0.18622 0.05733 0.0
C446 C 0.62885 0.13324 0.07521 0.0
C447 C 0.67105 0.22809 0.07246 0.0
H448 H 0.5637 0.21674 0.06611 0.0
H449 H 0.59604 0.20698 0.14654 0.0
H450 H 0.62341 0.21022 0.03054 0.0
H451 H 0.60955 0.17657 0.03112 0.0
H452 H 0.5878 0.20525 0.0267 0.0
H453 H 0.63827 0.18917 0.15479 0.0
H454 H 0.64837 0.16423 0.12971 0.0
H455 H 0.66227 0.19787 0.12898 0.0
H456 H 0.67669 0.11962 0.05482 0.0
H457 H 0.7127 0.19931 0.05244 0.0
H458 H 0.61103 0.13897 0.06312 0.0
H459 H 0.62341 0.13504 0.09703 0.0
H460 H 0.63354 0.11162 0.07055 0.0
H461 H 0.65448 0.23664 0.06026 0.0
H462 H 0.68997 0.23858 0.06685 0.0
H463 H 0.66677 0.23266 0.09419 0.0
C464 C 0.12404 0.58881 0.21301 0.0
C465 C 0.11027 0.56429 0.21783 0.0
C466 C 0.11087 0.61161 0.20266 0.0
C467 C 0.08321 0.60991 0.19666 0.0
C468 C 0.06948 0.58476 0.20001 0.0
C469 C 0.08313 0.56228 0.21068 0.0
C470 C 0.12631 0.63798 0.19966 0.0
C471 C 0.04007 0.58196 0.1935 0.0
C472 C 0.04354 0.67525 0.20414 0.0
C473 C 0.04113 0.68389 0.17709 0.0
C474 C 0.05707 0.65127 0.21064 0.0
C475 C 0.06828 0.63512 0.18959 0.0
C476 C 0.0659 0.64361 0.1622 0.0
C477 C 0.05255 0.668 0.15629 0.0
C478 C 0.05952 0.64334 0.24017 0.0
C479 C 0.0773 0.62683 0.13915 0.0
H480 H 0.14503 0.59063 0.21837 0.0
H481 H 0.07233 0.54344 0.21426 0.0
H482 H 0.12311 0.64646 0.1791 0.0
H483 H 0.11896 0.65321 0.21468 0.0
H484 H 0.14811 0.63538 0.20299 0.0
H485 H 0.03304 0.56044 0.19413 0.0
H486 H 0.02842 0.59403 0.20845 0.0
H487 H 0.03573 0.59015 0.17301 0.0
H488 H 0.03496 0.68739 0.22043 0.0
H489 H 0.05064 0.67435 0.13532 0.0
H490 H 0.08091 0.64194 0.24598 0.0
H491 H 0.05032 0.62297 0.2432 0.0
H492 H 0.04976 0.65815 0.25413 0.0
H493 H 0.09921 0.62486 0.14185 0.0
H494 H 0.07333 0.63589 0.11893 0.0
H495 H 0.06859 0.60596 0.13935 0.0
C496 C 0.5796 0.79873 0.43112 0.0
C497 C 0.57779 0.80272 0.40288 0.0
C498 C 0.60223 0.80784 0.44613 0.0
C499 C 0.62357 0.82115 0.4326 0.0
C500 C 0.6221 0.82455 0.40407 0.0
C501 C 0.59937 0.81541 0.38969 0.0
C502 C 0.60303 0.80384 0.47653 0.0
C503 C 0.64427 0.83861 0.3887 0.0
C504 C 0.66777 0.8753 0.46596 0.0
C505 C 0.69236 0.86198 0.46843 0.0
C506 C 0.64486 0.86169 0.45607 0.0
C507 C 0.6464 0.83396 0.4481 0.0
C508 C 0.67078 0.81992 0.45181 0.0
C509 C 0.69348 0.83407 0.4621 0.0
C510 C 0.61935 0.8775 0.45275 0.0
C511 C 0.67329 0.79037 0.44355 0.0
H512 H 0.56323 0.78881 0.44155 0.0
H513 H 0.59856 0.81844 0.36788 0.0
H514 H 0.62206 0.79419 0.48258 0.0
H515 H 0.60223 0.82392 0.48712 0.0
H516 H 0.5861 0.79104 0.48367 0.0
H517 H 0.64089 0.83805 0.36631 0.0
H518 H 0.6459 0.86022 0.39546 0.0
H519 H 0.6637 0.82891 0.39312 0.0
H520 H 0.66649 0.89674 0.47131 0.0
H521 H 0.71233 0.82358 0.46406 0.0
H522 H 0.60224 0.86616 0.46155 0.0
H523 H 0.61504 0.88016 0.43075 0.0
H524 H 0.62059 0.89796 0.46264 0.0
H525 H 0.6562 0.7783 0.45139 0.0
H526 H 0.6922 0.78143 0.45107 0.0
H527 H 0.67283 0.78852 0.42099 0.0
C528 C 0.4751 0.31873 0.68996 0.0
C529 C 0.48011 0.31716 0.66191 0.0
C530 C 0.46297 0.34176 0.70166 0.0
C531 C 0.45557 0.36374 0.6849 0.0
C532 C 0.46007 0.362 0.65648 0.0
C533 C 0.47231 0.33877 0.64534 0.0
C534 C 0.45852 0.34279 0.73205 0.0
C535 C 0.45231 0.38487 0.63788 0.0
C536 C 0.40473 0.41356 0.71349 0.0
C537 C 0.42119 0.43496 0.7231 0.0
C538 C 0.41558 0.39051 0.70055 0.0
C539 C 0.4436 0.38872 0.69723 0.0
C540 C 0.46026 0.41055 0.70635 0.0
C541 C 0.44886 0.43343 0.7191 0.0
C542 C 0.39708 0.36782 0.69093 0.0
C543 C 0.49023 0.40946 0.70323 0.0
H544 H 0.48106 0.30213 0.7029 0.0
H545 H 0.47607 0.33771 0.62363 0.0
H546 H 0.46982 0.36022 0.74121 0.0
H547 H 0.43706 0.34608 0.73642 0.0
H548 H 0.4649 0.32382 0.74217 0.0
H549 H 0.45636 0.38001 0.61613 0.0
H550 H 0.43075 0.38935 0.64012 0.0
H551 H 0.46356 0.40368 0.64367 0.0
H552 H 0.38332 0.41461 0.71645 0.0
H553 H 0.46172 0.44986 0.72648 0.0
H554 H 0.40152 0.34894 0.70217 0.0
H555 H 0.40038 0.36337 0.66899 0.0
H556 H 0.37571 0.37284 0.69394 0.0
H557 H 0.4982 0.39204 0.71478 0.0
H558 H 0.50033 0.42842 0.71065 0.0
H559 H 0.49545 0.40609 0.68152 0.0
C560 C 0.91967 0.21923 0.90734 0.0
C561 C 0.94427 0.22162 0.92116 0.0
C562 C 0.89753 0.20623 0.9191 0.0
C563 C 0.89985 0.195 0.94539 0.0
C564 C 0.9245 0.19766 0.95971 0.0
C565 C 0.94639 0.21102 0.94747 0.0
C566 C 0.87175 0.20396 0.90303 0.0
C567 C 0.9279 0.18583 0.98769 0.0
C568 C 0.83453 0.17497 0.98072 0.0
C569 C 0.83236 0.14717 0.97387 0.0
C570 C 0.85669 0.19075 0.97224 0.0
C571 C 0.87719 0.17847 0.9566 0.0
C572 C 0.87525 0.15039 0.95001 0.0
C573 C 0.85301 0.13522 0.95862 0.0
C574 C 0.85795 0.22065 0.97963 0.0
C575 C 0.89649 0.13636 0.93333 0.0
H576 H 0.91764 0.22755 0.8871 0.0
H577 H 0.96523 0.21288 0.95837 0.0
H578 H 0.8673 0.18225 0.89816 0.0
H579 H 0.85489 0.21182 0.91531 0.0
H580 H 0.87261 0.21535 0.88365 0.0
H581 H 0.94764 0.19111 0.99689 0.0
H582 H 0.91195 0.19326 1.00143 0.0
H583 H 0.92592 0.16332 0.98642 0.0
H584 H 0.81887 0.18447 0.99254 0.0
H585 H 0.85187 0.11378 0.95319 0.0
H586 H 0.85723 0.23292 0.96083 0.0
H587 H 0.87714 0.2256 0.99009 0.0
H588 H 0.84124 0.22688 0.99306 0.0
H589 H 0.89733 0.14531 0.91272 0.0
H590 H 0.89271 0.11411 0.93106 0.0
H591 H 0.91641 0.13957 0.94294 0.0
C592 C 0.29971 0.11836 0.4251 0.0
C593 C 0.29049 0.10165 0.4461 0.0
C594 C 0.31198 0.10721 0.40185 0.0
C595 C 0.315 0.07865 0.39945 0.0
C596 C 0.3062 0.06173 0.42084 0.0
C597 C 0.29413 0.07344 0.44393 0.0
C598 C 0.3213 0.12598 0.37965 0.0
C599 C 0.30904 0.03118 0.41908 0.0
C600 C 0.32134 0.04615 0.32889 0.0
C601 C 0.3488 0.04094 0.32757 0.0
C602 C 0.31015 0.05872 0.352 0.0
C603 C 0.32681 0.06637 0.37432 0.0
C604 C 0.35465 0.06176 0.37281 0.0
C605 C 0.36529 0.0491 0.34949 0.0
C606 C 0.28038 0.06331 0.35277 0.0
C607 C 0.37313 0.06975 0.39606 0.0
H608 H 0.29704 0.1402 0.42665 0.0
H609 H 0.28705 0.0604 0.46006 0.0
H610 H 0.34278 0.12269 0.37544 0.0
H611 H 0.31015 0.12133 0.36052 0.0
H612 H 0.31841 0.14779 0.38507 0.0
H613 H 0.30178 0.02092 0.4377 0.0
H614 H 0.29757 0.02304 0.40129 0.0
H615 H 0.33028 0.02581 0.41592 0.0
H616 H 0.30847 0.03991 0.31206 0.0
H617 H 0.38655 0.04518 0.34863 0.0
H618 H 0.27625 0.08517 0.35661 0.0
H619 H 0.27145 0.05175 0.36978 0.0
H620 H 0.27028 0.05687 0.33349 0.0
H621 H 0.37099 0.0917 0.40109 0.0
H622 H 0.39441 0.06572 0.3913 0.0
H623 H 0.36764 0.05824 0.41453 0.0
C624 C 0.17656 0.05304 0.69703 0.0
C625 C 0.14859 0.05236 0.6949 0.0
C626 C 0.1925 0.06105 0.67486 0.0
C627 C 0.18021 0.06787 0.64978 0.0
C628 C 0.15201 0.06727 0.6476 0.0
C629 C 0.13662 0.05984 0.67017 0.0
C630 C 0.22248 0.06197 0.67818 0.0
C631 C 0.13804 0.07372 0.62114 0.0
C632 C 0.21691 0.10766 0.59486 0.0
C633 C 0.2255 0.08669 0.5774 0.0
C634 C 0.20287 0.10183 0.61892 0.0
C635 C 0.19666 0.07443 0.62533 0.0
C636 C 0.20503 0.05323 0.60759 0.0
C637 C 0.21958 0.05959 0.58408 0.0
C638 C 0.19475 0.12498 0.63753 0.0
C639 C 0.19826 0.0238 0.61319 0.0
H640 H 0.18599 0.04741 0.71604 0.0
H641 H 0.11505 0.05913 0.66813 0.0
H642 H 0.23169 0.04662 0.66447 0.0
H643 H 0.23037 0.08223 0.67224 0.0
H644 H 0.22887 0.05789 0.69943 0.0
H645 H 0.11593 0.0726 0.62287 0.0
H646 H 0.14376 0.09443 0.61441 0.0
H647 H 0.14437 0.05918 0.60497 0.0
H648 H 0.22167 0.12862 0.59002 0.0
H649 H 0.22603 0.04326 0.57065 0.0
H650 H 0.20248 0.12158 0.65843 0.0
H651 H 0.17266 0.12578 0.63884 0.0
H652 H 0.20229 0.145 0.63042 0.0
H653 H 0.20645 0.01795 0.63329 0.0
H654 H 0.20625 0.00972 0.59739 0.0
H655 H 0.17625 0.02102 0.61405 0.0
C656 C 0.14706 0.9528 0.84369 0.0
C657 C 0.16214 0.96327 0.82211 0.0
C658 C 0.15931 0.93945 0.8655 0.0
C659 C 0.18742 0.93658 0.86595 0.0
C660 C 0.20273 0.94648 0.84389 0.0
C661 C 0.18989 0.95962 0.82218 0.0
C662 C 0.14219 0.92903 0.88843 0.0
C663 C 0.23275 0.94392 0.84363 0.0
C664 C 0.2207 0.92895 0.9354 0.0
C665 C 0.22551 0.90088 0.93613 0.0
C666 C 0.20853 0.94081 0.91264 0.0
C667 C 0.2008 0.92421 0.89004 0.0
C668 C 0.20537 0.89581 0.89076 0.0
C669 C 0.21772 0.8845 0.91375 0.0
C670 C 0.20406 0.97117 0.91273 0.0
C671 C 0.19722 0.87736 0.86724 0.0
H672 H 0.12558 0.95543 0.84379 0.0
H673 H 0.2017 0.96772 0.80566 0.0
H674 H 0.14611 0.90714 0.89182 0.0
H675 H 0.14738 0.94014 0.90761 0.0
H676 H 0.12051 0.93155 0.88434 0.0
H677 H 0.24166 0.95156 0.82449 0.0
H678 H 0.24154 0.95561 0.86105 0.0
H679 H 0.23845 0.92233 0.84614 0.0
H680 H 0.22671 0.94177 0.95256 0.0
H681 H 0.22138 0.8628 0.91413 0.0
H682 H 0.18243 0.97539 0.91056 0.0
H683 H 0.2143 0.98045 0.8951 0.0
H684 H 0.21154 0.98129 0.93171 0.0
H685 H 0.1754 0.87886 0.86353 0.0
H686 H 0.20213 0.85572 0.87095 0.0
H687 H 0.2074 0.88392 0.84838 0.0
C688 C 0.29165 0.89921 0.08896 0.0
C689 C 0.28606 0.91856 0.06903 0.0
C690 C 0.30277 0.90715 0.11434 0.0
C691 C 0.30892 0.93499 0.1196 0.0
C692 C 0.30493 0.95425 0.0988 0.0
C693 C 0.29327 0.94587 0.07396 0.0
C694 C 0.30641 0.88603 0.13603 0.0
C695 C 0.31174 0.98402 0.10322 0.0
C696 C 0.30389 0.96714 0.19008 0.0
C697 C 0.33082 0.97087 0.19748 0.0
C698 C 0.29657 0.95406 0.16553 0.0
C699 C 0.31665 0.94474 0.14756 0.0
C700 C 0.34388 0.9473 0.15542 0.0
C701 C 0.35065 0.96017 0.18041 0.0
C702 C 0.26729 0.95137 0.15826 0.0
C703 C 0.3659 0.93785 0.13681 0.0
H704 H 0.28602 0.87809 0.08529 0.0
H705 H 0.2893 0.96086 0.05849 0.0
H706 H 0.32649 0.88803 0.14556 0.0
H707 H 0.29148 0.88929 0.15234 0.0
H708 H 0.30386 0.86497 0.12779 0.0
H709 H 0.31026 0.99579 0.08411 0.0
H710 H 0.29788 0.993 0.11836 0.0
H711 H 0.33231 0.9864 0.11154 0.0
H712 H 0.28842 0.97502 0.2033 0.0
H713 H 0.3715 0.96301 0.18593 0.0
H714 H 0.26241 0.93014 0.15181 0.0
H715 H 0.26266 0.96474 0.14086 0.0
H716 H 0.25416 0.95709 0.17554 0.0
H717 H 0.36166 0.91694 0.12901 0.0
H718 H 0.38569 0.93812 0.14719 0.0
H719 H 0.367 0.95139 0.11893 0.0
C720 C 0.32954 0.31524 0.05144 0.0
C721 C 0.33081 0.34228 0.04262 0.0
C722 C 0.35152 0.30326 0.06468 0.0
C723 C 0.37534 0.31866 0.06923 0.0
C724 C 0.37681 0.34577 0.05988 0.0
C725 C 0.35464 0.35718 0.04678 0.0
C726 C 0.34907 0.27432 0.07434 0.0
C727 C 0.40164 0.36307 0.06434 0.0
C728 C 0.42027 0.30367 0.12984 0.0
C729 C 0.44216 0.29049 0.11776 0.0
C730 C 0.39827 0.31215 0.11438 0.0
C731 C 0.39785 0.30756 0.08588 0.0
C732 C 0.41962 0.29396 0.07344 0.0
C733 C 0.44148 0.28554 0.08951 0.0
C734 C 0.37563 0.32654 0.12862 0.0
C735 C 0.42 0.28875 0.04309 0.0
H736 H 0.31132 0.30349 0.04818 0.0
H737 H 0.35599 0.37804 0.03995 0.0
H738 H 0.36603 0.26209 0.06667 0.0
H739 H 0.35 0.27404 0.09692 0.0
H740 H 0.33007 0.26441 0.06756 0.0
H741 H 0.40026 0.38315 0.05432 0.0
H742 H 0.40493 0.36659 0.08649 0.0
H743 H 0.41942 0.35235 0.05638 0.0
H744 H 0.42022 0.30753 0.15162 0.0
H745 H 0.45812 0.27533 0.07989 0.0
H746 H 0.35638 0.31603 0.12397 0.0
H747 H 0.37407 0.34766 0.12107 0.0
H748 H 0.37839 0.32745 0.15109 0.0
H749 H 0.40154 0.2777 0.03658 0.0
H750 H 0.43759 0.2767 0.03667 0.0
H751 H 0.42037 0.30842 0.03225 0.0
C752 C 0.97578 0.8187 0.19074 0.0
C753 C 0.98005 0.81687 0.16257 0.0
C754 C 0.9639 0.84181 0.20255 0.0
C755 C 0.95596 0.86359 0.18578 0.0
C756 C 0.9597 0.86157 0.15726 0.0
C757 C 0.97173 0.83828 0.14601 0.0
C758 C 0.96028 0.84315 0.23306 0.0
C759 C 0.95134 0.88421 0.13864 0.0
C760 C 0.90571 0.91373 0.21492 0.0
C761 C 0.92234 0.93535 0.2237 0.0
C762 C 0.91631 0.89046 0.20218 0.0
C763 C 0.94424 0.88867 0.19818 0.0
C764 C 0.96107 0.91068 0.20652 0.0
C765 C 0.94991 0.93377 0.21911 0.0
C766 C 0.89766 0.86756 0.19342 0.0
C767 C 0.99094 0.9096 0.20264 0.0
H768 H 0.98215 0.80225 0.20368 0.0
H769 H 0.97491 0.83701 0.12421 0.0
H770 H 0.9718 0.8607 0.24171 0.0
H771 H 0.93895 0.84646 0.23801 0.0
H772 H 0.96699 0.8243 0.24318 0.0
H773 H 0.9548 0.87913 0.11683 0.0
H774 H 0.92983 0.88863 0.14145 0.0
H775 H 0.96266 0.90311 0.14392 0.0
H776 H 0.88437 0.91481 0.21835 0.0
H777 H 0.96289 0.95037 0.22585 0.0
H778 H 0.90255 0.84884 0.20472 0.0
H779 H 0.90029 0.86288 0.17143 0.0
H780 H 0.87636 0.87251 0.19706 0.0
H781 H 0.99924 0.89229 0.21413 0.0
H782 H 1.00119 0.92864 0.20964 0.0
H783 H 0.99563 0.90606 0.18083 0.0
C784 C 0.19483 0.68598 0.55753 0.0
C785 C 0.19731 0.65783 0.55322 0.0
C786 C 0.17097 0.69707 0.5679 0.0
C787 C 0.14915 0.6796 0.57426 0.0
C788 C 0.15184 0.65115 0.57045 0.0
C789 C 0.17575 0.64069 0.55997 0.0
C790 C 0.16894 0.72752 0.57166 0.0
C791 C 0.12934 0.6317 0.57723 0.0
C792 C 0.09667 0.70428 0.62458 0.0
C793 C 0.07542 0.71152 0.6074 0.0
C794 C 0.12064 0.69396 0.61407 0.0
C795 C 0.12371 0.69084 0.58556 0.0
C796 C 0.1022 0.69771 0.56806 0.0
C797 C 0.07828 0.70788 0.57918 0.0
C798 C 0.1428 0.68658 0.63355 0.0
C799 C 0.10462 0.69468 0.53755 0.0
H800 H 0.21125 0.69939 0.55216 0.0
H801 H 0.17741 0.61889 0.55676 0.0
H802 H 0.15217 0.73526 0.55918 0.0
H803 H 0.16451 0.73258 0.59325 0.0
H804 H 0.18759 0.73835 0.56578 0.0
H805 H 0.13466 0.61011 0.57328 0.0
H806 H 0.12387 0.63407 0.599 0.0
H807 H 0.11135 0.6365 0.56497 0.0
H808 H 0.09472 0.707 0.64643 0.0
H809 H 0.06211 0.71364 0.56574 0.0
H810 H 0.161 0.69881 0.62917 0.0
H811 H 0.14803 0.66484 0.63074 0.0
H812 H 0.13723 0.69009 0.65518 0.0
H813 H 0.12167 0.70719 0.53027 0.0
H814 H 0.08621 0.70099 0.52669 0.0
H815 H 0.10883 0.67318 0.532 0.0
C816 C 0.96016 0.689 0.70873 0.0
C817 C 0.97552 0.69048 0.68489 0.0
C818 C 0.94693 0.66498 0.71602 0.0
C819 C 0.94919 0.64148 0.69929 0.0
C820 C 0.96539 0.64234 0.6757 0.0
C821 C 0.9783 0.66691 0.66868 0.0
C822 C 0.92976 0.6651 0.74127 0.0
C823 C 0.9685 0.61754 0.65756 0.0
C824 C 0.92626 0.57735 0.73506 0.0
C825 C 0.89918 0.57614 0.72753 0.0
C826 C 0.94336 0.59759 0.72474 0.0
C827 C 0.93321 0.61675 0.70613 0.0
C828 C 0.90632 0.6145 0.69718 0.0
C829 C 0.88958 0.59442 0.70819 0.0
C830 C 0.97181 0.59946 0.73502 0.0
C831 C 0.89479 0.63424 0.67706 0.0
H832 H 0.95777 0.70693 0.72157 0.0
H833 H 0.99016 0.66774 0.6503 0.0
H834 H 0.90857 0.66127 0.7355 0.0
H835 H 0.93585 0.64855 0.75507 0.0
H836 H 0.93102 0.68475 0.75271 0.0
H837 H 0.98345 0.62086 0.64127 0.0
H838 H 0.97465 0.59982 0.66979 0.0
H839 H 0.94901 0.61221 0.6479 0.0
H840 H 0.93384 0.56322 0.74994 0.0
H841 H 0.8688 0.59326 0.70189 0.0
H842 H 0.97407 0.61752 0.74872 0.0
H843 H 0.98584 0.60222 0.71785 0.0
H844 H 0.97763 0.5811 0.74651 0.0
H845 H 0.89293 0.65458 0.68694 0.0
H846 H 0.87474 0.62763 0.66953 0.0
H847 H 0.90826 0.63654 0.65936 0.0
C848 C 0.18812 0.19577 0.49169 0.0
C849 C 0.19072 0.16766 0.48707 0.0
C850 C 0.16716 0.21035 0.47962 0.0
C851 C 0.14845 0.19652 0.46244 0.0
C852 C 0.15032 0.16796 0.45877 0.0
C853 C 0.17135 0.15392 0.47113 0.0
C854 C 0.16574 0.24074 0.48425 0.0
C855 C 0.13085 0.15235 0.44068 0.0
C856 C 0.08287 0.22827 0.43966 0.0
C857 C 0.08903 0.23638 0.41306 0.0
C858 C 0.10221 0.21612 0.45639 0.0
C859 C 0.12836 0.21197 0.44634 0.0
C860 C 0.13493 0.22097 0.41991 0.0
C861 C 0.11527 0.23302 0.40366 0.0
C862 C 0.09442 0.20689 0.48447 0.0
C863 C 0.16255 0.21701 0.40836 0.0
H864 H 0.20296 0.20655 0.504 0.0
H865 H 0.17308 0.13219 0.4675 0.0
H866 H 0.17056 0.25134 0.46505 0.0
H867 H 0.14521 0.24666 0.49011 0.0
H868 H 0.17991 0.248 0.50035 0.0
H869 H 0.13381 0.12999 0.44156 0.0
H870 H 0.11001 0.15687 0.44663 0.0
H871 H 0.13333 0.15881 0.41926 0.0
H872 H 0.06273 0.23076 0.44722 0.0
H873 H 0.12043 0.23934 0.38327 0.0
H874 H 0.10894 0.21481 0.49987 0.0
H875 H 0.0949 0.18433 0.48524 0.0
H876 H 0.07409 0.21368 0.4902 0.0
H877 H 0.17784 0.22587 0.42242 0.0
H878 H 0.1649 0.22651 0.38809 0.0
H879 H 0.16668 0.19493 0.40624 0.0
C880 C 0.55777 0.44171 0.21696 0.0
C881 C 0.58358 0.44612 0.22769 0.0
C882 C 0.55018 0.41658 0.20539 0.0
C883 C 0.56878 0.39515 0.20447 0.0
C884 C 0.59478 0.39922 0.21546 0.0
C885 C 0.60189 0.42469 0.22698 0.0
C886 C 0.52222 0.41303 0.19399 0.0
C887 C 0.6151 0.37673 0.21487 0.0
C888 C 0.53899 0.3242 0.19587 0.0
C889 C 0.54205 0.31943 0.16783 0.0
C890 C 0.54825 0.34847 0.20818 0.0
C891 C 0.56072 0.36852 0.19204 0.0
C892 C 0.56395 0.36379 0.16372 0.0
C893 C 0.55458 0.33925 0.15195 0.0
C894 C 0.54442 0.35278 0.23843 0.0
C895 C 0.57699 0.3848 0.14583 0.0
H896 H 0.54334 0.458 0.21744 0.0
H897 H 0.62186 0.42785 0.23517 0.0
H898 H 0.5231 0.40754 0.17202 0.0
H899 H 0.51178 0.39611 0.20441 0.0
H900 H 0.51012 0.43175 0.19636 0.0
H901 H 0.63435 0.38304 0.22454 0.0
H902 H 0.60717 0.35865 0.2256 0.0
H903 H 0.61896 0.37035 0.1935 0.0
H904 H 0.52946 0.30887 0.2083 0.0
H905 H 0.55711 0.33559 0.13029 0.0
H906 H 0.53124 0.37046 0.24209 0.0
H907 H 0.56389 0.35752 0.24843 0.0
H908 H 0.53543 0.33467 0.2483 0.0
H909 H 0.56506 0.40371 0.14606 0.0
H910 H 0.57892 0.37757 0.12439 0.0
H911 H 0.59717 0.39019 0.15384 0.0
C912 C 0.34861 0.85282 0.97636 0.0
C913 C 0.32577 0.83734 0.98241 0.0
C914 C 0.37194 0.84039 0.9668 0.0
C915 C 0.37229 0.8118 0.96259 0.0
C916 C 0.34953 0.79596 0.96944 0.0
C917 C 0.3266 0.80892 0.97955 0.0
C918 C 0.39593 0.85801 0.96029 0.0
C919 C 0.34894 0.76551 0.96486 0.0
C920 C 0.42073 0.78889 0.90781 0.0
C921 C 0.44257 0.78013 0.92329 0.0
C922 C 0.39732 0.7981 0.92038 0.0
C923 C 0.39579 0.79897 0.94918 0.0
C924 C 0.41745 0.78934 0.96492 0.0
C925 C 0.44053 0.77984 0.95177 0.0
C926 C 0.37456 0.80778 0.9028 0.0
C927 C 0.41672 0.7902 0.99566 0.0
H928 H 0.34813 0.87479 0.97873 0.0
H929 H 0.30892 0.79689 0.98403 0.0
H930 H 0.41409 0.84996 0.97027 0.0
H931 H 0.39945 0.85761 0.938 0.0
H932 H 0.39328 0.87951 0.96698 0.0
H933 H 0.33055 0.75588 0.9731 0.0
H934 H 0.34991 0.7609 0.94269 0.0
H935 H 0.3666 0.75607 0.97449 0.0
H936 H 0.4221 0.789 0.88578 0.0
H937 H 0.45737 0.77319 0.96385 0.0
H938 H 0.37201 0.83004 0.90581 0.0
H939 H 0.35558 0.79772 0.90882 0.0
H940 H 0.37797 0.80364 0.88079 0.0
H941 H 0.4164 0.81171 1.00289 0.0
H942 H 0.43426 0.78011 0.00491 0.0
H943 H 0.39824 0.7802 0.00311 0.0
C944 C 0.89825 0.4156 0.80253 0.0
C945 C 0.91267 0.4379 0.79255 0.0
C946 C 0.91134 0.39383 0.81487 0.0
C947 C 0.9395 0.3947 0.81784 0.0
C948 C 0.9542 0.41713 0.80767 0.0
C949 C 0.9406 0.43835 0.79485 0.0
C950 C 0.89502 0.36997 0.82485 0.0
C951 C 0.98419 0.41896 0.81086 0.0
C952 C 0.96761 0.34871 0.87249 0.0
C953 C 0.97616 0.32642 0.85684 0.0
C954 C 0.95654 0.37161 0.85998 0.0
C955 C 0.95348 0.37186 0.83126 0.0
C956 C 0.96259 0.34961 0.81539 0.0
C957 C 0.97407 0.3273 0.82836 0.0
C958 C 0.94756 0.39524 0.87752 0.0
C959 C 0.95928 0.34886 0.78478 0.0
H960 H 0.87664 0.41518 0.80075 0.0
H961 H 0.95179 0.45573 0.78744 0.0
H962 H 0.90218 0.3508 0.8153 0.0
H963 H 0.89753 0.36802 0.8472 0.0
H964 H 0.87339 0.37205 0.82022 0.0
H965 H 0.99264 0.43786 0.80201 0.0
H966 H 0.98966 0.41842 0.83279 0.0
H967 H 0.99366 0.40118 0.80083 0.0
H968 H 0.96931 0.34814 0.8945 0.0
H969 H 0.98056 0.31008 0.81614 0.0
H970 H 0.92553 0.39711 0.8762 0.0
H971 H 0.95638 0.41455 0.87005 0.0
H972 H 0.95327 0.39284 0.89925 0.0
H973 H 0.93771 0.34917 0.77943 0.0
H974 H 0.96824 0.33043 0.77534 0.0
H975 H 0.96867 0.36715 0.77572 0.0
C976 C 0.35437 0.137 0.55588 0.0
C977 C 0.33327 0.14917 0.54173 0.0
C978 C 0.37456 0.15275 0.56854 0.0
C979 C 0.37402 0.18148 0.56673 0.0
C980 C 0.35322 0.19394 0.55185 0.0
C981 C 0.33293 0.17766 0.53975 0.0
C982 C 0.39607 0.1386 0.58458 0.0
C983 C 0.35219 0.22447 0.54906 0.0
C984 C 0.40989 0.21907 0.62456 0.0
C985 C 0.43522 0.22419 0.61338 0.0
C986 C 0.38953 0.20617 0.60925 0.0
C987 C 0.39438 0.19826 0.58191 0.0
C988 C 0.41945 0.20441 0.57005 0.0
C989 C 0.4396 0.21721 0.58593 0.0
C990 C 0.36317 0.19992 0.62278 0.0
C991 C 0.4253 0.1966 0.54087 0.0
H992 H 0.3548 0.11504 0.55771 0.0
H993 H 0.31685 0.18724 0.52869 0.0
H994 H 0.4161 0.1445 0.57693 0.0
H995 H 0.39516 0.14507 0.6063 0.0
H996 H 0.39407 0.11607 0.5834 0.0
H997 H 0.33587 0.23088 0.5352 0.0
H998 H 0.34908 0.23413 0.56934 0.0
H999 H 0.37148 0.23233 0.54119 0.0
H1000 H 0.40608 0.22448 0.64565 0.0
H1001 H 0.45897 0.22119 0.57697 0.0
H1002 H 0.36039 0.17754 0.6242 0.0
H1003 H 0.34638 0.20773 0.6104 0.0
H1004 H 0.36194 0.20894 0.64361 0.0
H1005 H 0.42611 0.1741 0.53882 0.0
H1006 H 0.4446 0.20529 0.53381 0.0
H1007 H 0.40909 0.20361 0.52724 0.0
C1008 C 0.54058 0.67681 0.35988 0.0
C1009 C 0.53751 0.69681 0.34 0.0
C1010 C 0.55248 0.6517 0.35343 0.0
C1011 C 0.56147 0.64659 0.32653 0.0
C1012 C 0.55785 0.66643 0.30631 0.0
C1013 C 0.54588 0.69116 0.31325 0.0
C1014 C 0.55584 0.63084 0.37543 0.0
C1015 C 0.567 0.66173 0.27734 0.0
C1016 C 0.61495 0.59445 0.31056 0.0
C1017 C 0.59962 0.57309 0.29919 0.0
C1018 C 0.60272 0.61823 0.32044 0.0
C1019 C 0.57453 0.62048 0.3191 0.0
C1020 C 0.55896 0.59864 0.3083 0.0
C1021 C 0.5717 0.5753 0.29833 0.0
C1022 C 0.61998 0.64124 0.33155 0.0
C1023 C 0.52887 0.60019 0.30661 0.0
H1024 H 0.53426 0.68098 0.38059 0.0
H1025 H 0.54345 0.7063 0.2976 0.0
H1026 H 0.54629 0.61128 0.36903 0.0
H1027 H 0.57739 0.62685 0.37869 0.0
H1028 H 0.54703 0.63756 0.3951 0.0
H1029 H 0.56267 0.67928 0.26403 0.0
H1030 H 0.58883 0.65805 0.27705 0.0
H1031 H 0.557 0.64334 0.26853 0.0
H1032 H 0.63652 0.59277 0.31136 0.0
H1033 H 0.5597 0.55873 0.28981 0.0
H1034 H 0.61313 0.64743 0.35215 0.0
H1035 H 0.61813 0.65923 0.31827 0.0
H1036 H 0.6414 0.63563 0.3328 0.0
H1037 H 0.52053 0.60587 0.32677 0.0
H1038 H 0.51957 0.58062 0.29973 0.0
H1039 H 0.52307 0.61626 0.29213 0.0
C1040 C 0.09968 0.78765 0.11022 0.0
C1041 C 0.07877 0.7744 0.09602 0.0
C1042 C 0.12083 0.80025 0.09636 0.0
C1043 C 0.12111 0.79974 0.06751 0.0
C1044 C 0.10078 0.78522 0.05307 0.0
C1045 C 0.07986 0.77266 0.0675 0.0
C1046 C 0.14215 0.81533 0.11263 0.0
C1047 C 0.10037 0.78411 0.02233 0.0
C1048 C 0.15551 0.86055 0.03514 0.0
C1049 C 0.18079 0.85021 0.02864 0.0
C1050 C 0.13579 0.84413 0.04709 0.0
C1051 C 0.14127 0.81653 0.05269 0.0
C1052 C 0.16642 0.80567 0.04549 0.0
C1053 C 0.18588 0.82262 0.0336 0.0
C1054 C 0.10928 0.8566 0.05446 0.0
C1055 C 0.17301 0.77634 0.05102 0.0
H1056 H 0.09911 0.78897 0.13227 0.0
H1057 H 0.06377 0.7625 0.05635 0.0
H1058 H 0.16231 0.809 0.10593 0.0
H1059 H 0.14057 0.83751 0.10904 0.0
H1060 H 0.14039 0.81179 0.13485 0.0
H1061 H 0.08495 0.76966 0.01423 0.0
H1062 H 0.09614 0.80466 0.01437 0.0
H1063 H 0.12017 0.778 0.01442 0.0
H1064 H 0.1512 0.88175 0.03139 0.0
H1065 H 0.20525 0.81432 0.02863 0.0
H1066 H 0.10659 0.85624 0.07687 0.0
H1067 H 0.09265 0.84451 0.04517 0.0
H1068 H 0.10768 0.87799 0.04763 0.0
H1069 H 0.17339 0.77297 0.07332 0.0
H1070 H 0.19267 0.77047 0.0425 0.0
H1071 H 0.15735 0.76265 0.04221 0.0
C1072 C 0.72755 0.90432 0.58789 0.0
C1073 C 0.74057 0.92363 0.57178 0.0
C1074 C 0.71676 0.9118 0.61328 0.0
C1075 C 0.71967 0.93902 0.62289 0.0
C1076 C 0.73357 0.95832 0.60702 0.0
C1077 C 0.74359 0.95045 0.58155 0.0
C1078 C 0.70174 0.89078 0.62951 0.0
C1079 C 0.73771 0.98736 0.61683 0.0
C1080 C 0.67468 0.96912 0.6776 0.0
C1081 C 0.69106 0.96751 0.7008 0.0
C1082 C 0.68335 0.95909 0.65218 0.0
C1083 C 0.70902 0.94737 0.64994 0.0
C1084 C 0.72539 0.94524 0.67333 0.0
C1085 C 0.71622 0.95524 0.69839 0.0
C1086 C 0.66528 0.96152 0.62764 0.0
C1087 C 0.75297 0.9331 0.67177 0.0
H1088 H 0.72484 0.88368 0.58015 0.0
H1089 H 0.7537 0.96539 0.56911 0.0
H1090 H 0.71116 0.88859 0.64986 0.0
H1091 H 0.68093 0.89757 0.63287 0.0
H1092 H 0.70117 0.87053 0.61915 0.0
H1093 H 0.7494 0.9997 0.6022 0.0
H1094 H 0.71811 0.99719 0.62005 0.0
H1095 H 0.74837 0.98767 0.63671 0.0
H1096 H 0.65519 0.97839 0.67921 0.0
H1097 H 0.72911 0.95371 0.7161 0.0
H1098 H 0.66279 0.9414 0.61732 0.0
H1099 H 0.67449 0.97552 0.61274 0.0
H1100 H 0.64524 0.96936 0.6331 0.0
H1101 H 0.75188 0.91235 0.66261 0.0
H1102 H 0.76273 0.93185 0.69209 0.0
H1103 H 0.76581 0.94566 0.65841 0.0
C1104 C 0.87298 0.96518 0.3492 0.0
C1105 C 0.85898 0.97478 0.32656 0.0
C1106 C 0.85947 0.95328 0.37106 0.0
C1107 C 0.83129 0.95038 0.36996 0.0
C1108 C 0.81699 0.96042 0.34731 0.0
C1109 C 0.83101 0.97278 0.32598 0.0
C1110 C 0.87539 0.94342 0.39514 0.0
C1111 C 0.787 0.95734 0.34524 0.0
C1112 C 0.80302 0.89484 0.415 0.0
C1113 C 0.79442 0.91 0.43762 0.0
C1114 C 0.81406 0.90783 0.39227 0.0
C1115 C 0.81697 0.93657 0.39247 0.0
C1116 C 0.80761 0.95198 0.41496 0.0
C1117 C 0.79622 0.93852 0.43714 0.0
C1118 C 0.82333 0.89074 0.36841 0.0
C1119 C 0.81069 0.98261 0.41614 0.0
H1120 H 0.8946 0.96676 0.34973 0.0
H1121 H 0.82013 0.97993 0.30836 0.0
H1122 H 0.86773 0.95269 0.41426 0.0
H1123 H 0.87307 0.92102 0.39687 0.0
H1124 H 0.89702 0.94841 0.39345 0.0
H1125 H 0.7788 0.96677 0.32658 0.0
H1126 H 0.78142 0.9354 0.34504 0.0
H1127 H 0.77738 0.96679 0.36328 0.0
H1128 H 0.80154 0.87281 0.41524 0.0
H1129 H 0.78966 0.95038 0.4546 0.0
H1130 H 0.8454 0.89219 0.36679 0.0
H1131 H 0.81479 0.8985 0.34915 0.0
H1132 H 0.81757 0.86895 0.3704 0.0
H1133 H 0.83224 0.98819 0.4165 0.0
H1134 H 0.80111 0.9917 0.43443 0.0
H1135 H 0.80184 0.99179 0.39771 0.0
C1136 C 0.79432 0.0506 0.08232 0.0
C1137 C 0.79184 0.07833 0.07641 0.0
C1138 C 0.80802 0.04208 0.10561 0.0
C1139 C 0.8197 0.06177 0.12343 0.0
C1140 C 0.81573 0.08984 0.1186 0.0
C1141 C 0.80172 0.09782 0.09514 0.0
C1142 C 0.81143 0.01195 0.11014 0.0
C1143 C 0.82776 0.11144 0.13722 0.0
C1144 C 0.84643 0.03566 0.19085 0.0
C1145 C 0.87347 0.03137 0.18471 0.0
C1146 C 0.82878 0.04633 0.17143 0.0
C1147 C 0.83836 0.05282 0.14522 0.0
C1148 C 0.86569 0.04901 0.13905 0.0
C1149 C 0.88287 0.03836 0.15881 0.0
C1150 C 0.7998 0.05013 0.17876 0.0
C1151 C 0.87671 0.0556 0.11129 0.0
H1152 H 0.78641 0.03541 0.06812 0.0
H1153 H 0.7999 0.11928 0.09068 0.0
H1154 H 0.83263 0.00645 0.10688 0.0
H1155 H 0.80636 0.00672 0.13141 0.0
H1156 H 0.79878 0.99935 0.0961 0.0
H1157 H 0.81994 0.13201 0.13282 0.0
H1158 H 0.82371 0.10669 0.15884 0.0
H1159 H 0.84978 0.1119 0.13465 0.0
H1160 H 0.83892 0.03049 0.21081 0.0
H1161 H 0.90369 0.03527 0.1538 0.0
H1162 H 0.78707 0.0363 0.16605 0.0
H1163 H 0.79358 0.07125 0.17443 0.0
H1164 H 0.79587 0.04588 0.20056 0.0
H1165 H 0.86697 0.04233 0.09559 0.0
H1166 H 0.89866 0.05272 0.11016 0.0
H1167 H 0.8722 0.07699 0.10611 0.0
C1168 C 0.69894 0.0433 0.82846 0.0
C1169 C 0.67111 0.04028 0.82632 0.0
C1170 C 0.71082 0.05524 0.85167 0.0
C1171 C 0.69451 0.06382 0.87352 0.0
C1172 C 0.6664 0.06041 0.87169 0.0
C1173 C 0.65498 0.04892 0.84791 0.0
C1174 C 0.74082 0.05893 0.85267 0.0
C1175 C 0.64843 0.06882 0.89485 0.0
C1176 C 0.72757 0.07082 0.943 0.0
C1177 C 0.73054 0.09915 0.94576 0.0
C1178 C 0.71563 0.05908 0.91969 0.0
C1179 C 0.70698 0.07607 0.89841 0.0
C1180 C 0.71055 0.10466 0.90078 0.0
C1181 C 0.72208 0.1159 0.9246 0.0
C1182 C 0.71186 0.02854 0.91805 0.0
C1183 C 0.70208 0.12335 0.87823 0.0
H1184 H 0.71149 0.03683 0.81169 0.0
H1185 H 0.63347 0.04654 0.8463 0.0
H1186 H 0.74599 0.08077 0.85596 0.0
H1187 H 0.74925 0.04763 0.87007 0.0
H1188 H 0.75059 0.05171 0.83367 0.0
H1189 H 0.62704 0.06425 0.89044 0.0
H1190 H 0.6543 0.05812 0.91369 0.0
H1191 H 0.65073 0.09098 0.89903 0.0
H1192 H 0.7339 0.05779 0.95941 0.0
H1193 H 0.72439 0.1378 0.92669 0.0
H1194 H 0.72248 0.02018 0.90008 0.0
H1195 H 0.69035 0.02343 0.91536 0.0
H1196 H 0.71935 0.01826 0.93656 0.0
H1197 H 0.71208 0.11744 0.85895 0.0
H1198 H 0.70696 0.14504 0.88293 0.0
H1199 H 0.68024 0.12137 0.87469 0.0
C1200 C 0.58207 0.72787 0.93881 0.0
C1201 C 0.58841 0.73671 0.91251 0.0
C1202 C 0.60147 0.71584 0.95557 0.0
C1203 C 0.62787 0.7126 0.94585 0.0
C1204 C 0.63461 0.72244 0.91977 0.0
C1205 C 0.61488 0.73433 0.90348 0.0
C1206 C 0.59348 0.7057 0.98327 0.0
C1207 C 0.6625 0.71949 0.90858 0.0
C1208 C 0.68717 0.69605 0.99172 0.0
C1209 C 0.69023 0.66811 0.98641 0.0
C1210 C 0.66621 0.71067 0.97967 0.0
C1211 C 0.648 0.69705 0.96178 0.0
C1212 C 0.65036 0.66863 0.95734 0.0
C1213 C 0.67134 0.65455 0.96973 0.0
C1214 C 0.66423 0.74088 0.98517 0.0
C1215 C 0.63147 0.65325 0.93843 0.0
H1216 H 0.56174 0.72961 0.94608 0.0
H1217 H 0.62017 0.74126 0.88333 0.0
H1218 H 0.59426 0.68314 0.98339 0.0
H1219 H 0.6077 0.71339 0.99907 0.0
H1220 H 0.57297 0.71204 0.98892 0.0
H1221 H 0.66497 0.72972 0.8887 0.0
H1222 H 0.67738 0.7282 0.92319 0.0
H1223 H 0.66712 0.69758 0.90581 0.0
H1224 H 0.70163 0.7067 0.00461 0.0
H1225 H 0.67344 0.63295 0.96554 0.0
H1226 H 0.64351 0.74628 0.99085 0.0
H1227 H 0.66916 0.75214 0.96638 0.0
H1228 H 0.67803 0.74789 1.00169 0.0
H1229 H 0.61045 0.65714 0.9442 0.0
H1230 H 0.63484 0.63093 0.9386 0.0
H1231 H 0.63413 0.66049 0.91729 0.0
C1232 C 0.07164 0.07585 0.7952 0.0
C1233 C 0.09911 0.07188 0.79902 0.0
C1234 C 0.05915 0.09934 0.80515 0.0
C1235 C 0.07452 0.11946 0.81917 0.0
C1236 C 0.10219 0.11536 0.82356 0.0
C1237 C 0.11418 0.09157 0.81343 0.0
C1238 C 0.02962 0.10297 0.8 0.0
C1239 C 0.11926 0.13646 0.83829 0.0
C1240 C 0.05046 0.19204 0.81486 0.0
C1241 C 0.03898 0.19641 0.84061 0.0
C1242 C 0.06209 0.16717 0.80781 0.0
C1243 C 0.06216 0.14585 0.82684 0.0
C1244 C 0.05022 0.14976 0.85269 0.0
C1245 C 0.03877 0.17505 0.85932 0.0
C1246 C 0.07453 0.16383 0.77998 0.0
C1247 C 0.04979 0.12733 0.87339 0.0
H1248 H 0.05981 0.06061 0.78424 0.0
H1249 H 0.13538 0.0885 0.81659 0.0
H1250 H 0.01924 0.10781 0.81934 0.0
H1251 H 0.02654 0.12035 0.78617 0.0
H1252 H 0.02014 0.08452 0.79062 0.0
H1253 H 0.14 0.12937 0.84171 0.0
H1254 H 0.12008 0.15539 0.82624 0.0
H1255 H 0.11031 0.14173 0.85828 0.0
H1256 H 0.05073 0.20824 0.80011 0.0
H1257 H 0.03002 0.17818 0.87925 0.0
H1258 H 0.06471 0.14671 0.7687 0.0
H1259 H 0.09598 0.15877 0.78214 0.0
H1260 H 0.07289 0.18249 0.76758 0.0
H1261 H 0.03971 0.10895 0.86464 0.0
H1262 H 0.03935 0.13343 0.89239 0.0
H1263 H 0.07054 0.12152 0.87863 0.0
C1264 C 0.92247 0.29223 0.40903 0.0
C1265 C 0.94369 0.28187 0.42435 0.0
C1266 C 0.89913 0.30154 0.42165 0.0
C1267 C 0.897 0.30078 0.45038 0.0
C1268 C 0.91803 0.28961 0.46594 0.0
C1269 C 0.94109 0.28014 0.45272 0.0
C1270 C 0.87706 0.31298 0.40423 0.0
C1271 C 0.91663 0.28867 0.49662 0.0
C1272 C 0.84996 0.35386 0.47929 0.0
C1273 C 0.8267 0.33845 0.4837 0.0
C1274 C 0.87341 0.34156 0.46986 0.0
C1275 C 0.87342 0.31323 0.464 0.0
C1276 C 0.85019 0.29742 0.46918 0.0
C1277 C 0.82718 0.31019 0.4793 0.0
C1278 C 0.89789 0.35909 0.46522 0.0
C1279 C 0.84921 0.26729 0.46274 0.0
H1280 H 0.92426 0.29351 0.38708 0.0
H1281 H 0.95745 0.27224 0.4647 0.0
H1282 H 0.85772 0.30297 0.40907 0.0
H1283 H 0.87493 0.33505 0.40871 0.0
H1284 H 0.88096 0.31027 0.38211 0.0
H1285 H 0.93379 0.27773 0.50562 0.0
H1286 H 0.91646 0.30972 0.50511 0.0
H1287 H 0.89783 0.27852 0.50304 0.0
H1288 H 0.84971 0.3757 0.48287 0.0
H1289 H 0.80916 0.29824 0.4825 0.0
H1290 H 0.90201 0.36015 0.44307 0.0
H1291 H 0.91563 0.35 0.47507 0.0
H1292 H 0.89546 0.38016 0.47329 0.0
H1293 H 0.85071 0.26402 0.44039 0.0
H1294 H 0.83045 0.25751 0.46988 0.0
H1295 H 0.86644 0.25694 0.47223 0.0
C1296 C 0.63309 0.91608 0.82271 0.0
C1297 C 0.62189 0.93732 0.80764 0.0
C1298 C 0.6173 0.89472 0.83271 0.0
C1299 C 0.58943 0.89447 0.82784 0.0
C1300 C 0.57784 0.91582 0.81276 0.0
C1301 C 0.59422 0.93693 0.80273 0.0
C1302 C 0.63056 0.8723 0.84846 0.0
C1303 C 0.54815 0.91636 0.80732 0.0
C1304 C 0.5543 0.82564 0.83427 0.0
C1305 C 0.54447 0.82703 0.86095 0.0
C1306 C 0.56839 0.84767 0.82299 0.0
C1307 C 0.57263 0.87178 0.83869 0.0
C1308 C 0.56236 0.87343 0.86549 0.0
C1309 C 0.54852 0.85102 0.87633 0.0
C1310 C 0.57923 0.84492 0.79445 0.0
C1311 C 0.56634 0.89876 0.88289 0.0
H1312 H 0.65443 0.91592 0.82656 0.0
H1313 H 0.58531 0.95318 0.79118 0.0
H1314 H 0.62209 0.87128 0.86925 0.0
H1315 H 0.62656 0.85233 0.83831 0.0
H1316 H 0.65253 0.87532 0.85024 0.0
H1317 H 0.54219 0.93441 0.79543 0.0
H1318 H 0.54185 0.89769 0.79593 0.0
H1319 H 0.53715 0.91654 0.82688 0.0
H1320 H 0.5512 0.8072 0.82222 0.0
H1321 H 0.54083 0.85234 0.8969 0.0
H1322 H 0.60137 0.84623 0.79502 0.0
H1323 H 0.57209 0.86189 0.78174 0.0
H1324 H 0.57323 0.82533 0.78448 0.0
H1325 H 0.58795 0.90208 0.88702 0.0
H1326 H 0.55576 0.89745 0.90268 0.0
H1327 H 0.55906 0.91685 0.87191 0.0
C1328 C 0.97843 0.17552 0.36322 0.0
C1329 C 0.98474 0.19512 0.3437 0.0
C1330 C 0.96732 0.15008 0.3554 0.0
C1331 C 0.96192 0.14441 0.3275 0.0
C1332 C 0.96666 0.16488 0.30801 0.0
C1333 C 0.97829 0.1898 0.31629 0.0
C1334 C 0.96288 0.12874 0.37677 0.0
C1335 C 0.96063 0.16003 0.27814 0.0
C1336 C 0.96699 0.0734 0.29667 0.0
C1337 C 0.94008 0.06609 0.29256 0.0
C1338 C 0.97425 0.09814 0.30946 0.0
C1339 C 0.95413 0.11637 0.31802 0.0
C1340 C 0.92689 0.10863 0.31503 0.0
C1341 C 0.92017 0.08345 0.30252 0.0
C1342 C 1.00354 0.10528 0.31266 0.0
C1343 C 0.90483 0.12755 0.32364 0.0
H1344 H 0.98346 0.17949 0.38442 0.0
H1345 H 0.98281 0.20501 0.30116 0.0
H1346 H 0.94273 0.11934 0.37449 0.0
H1347 H 0.97768 0.11227 0.37406 0.0
H1348 H 0.96501 0.13727 0.39776 0.0
H1349 H 0.96265 0.17893 0.26612 0.0
H1350 H 0.97458 0.14469 0.26974 0.0
H1351 H 0.94005 0.15178 0.2754 0.0
H1352 H 0.9825 0.05997 0.28935 0.0
H1353 H 0.89933 0.078 0.29934 0.0
H1354 H 0.00794 0.11206 0.33388 0.0
H1355 H 0.0087 0.12241 0.2991 0.0
H1356 H 0.01662 0.08784 0.30751 0.0
H1357 H 0.90858 0.13566 0.34453 0.0
H1358 H 0.88493 0.11732 0.32305 0.0
H1359 H 0.90435 0.14521 0.30979 0.0
C1360 C 0.62338 0.09006 0.71637 0.0
C1361 C 0.61035 0.0647 0.71839 0.0
C1362 C 0.61018 0.11288 0.70613 0.0
C1363 C 0.58332 0.11034 0.69721 0.0
C1364 C 0.57047 0.08445 0.6978 0.0
C1365 C 0.58406 0.06198 0.70859 0.0
C1366 C 0.62459 0.14007 0.70629 0.0
C1367 C 0.54201 0.08075 0.68805 0.0
C1368 C 0.54064 0.17374 0.70376 0.0
C1369 C 0.54077 0.18393 0.67715 0.0
C1370 C 0.55415 0.14979 0.71037 0.0
C1371 C 0.56806 0.13527 0.68986 0.0
C1372 C 0.5682 0.14526 0.6629 0.0
C1373 C 0.55471 0.16955 0.6569 0.0
C1374 C 0.55377 0.14019 0.73948 0.0
C1375 C 0.58259 0.13027 0.64041 0.0
H1376 H 0.64368 0.09247 0.72389 0.0
H1377 H 0.57386 0.04248 0.70998 0.0
H1378 H 0.62326 0.14954 0.68596 0.0
H1379 H 0.6149 0.15409 0.72106 0.0
H1380 H 0.646 0.13829 0.71199 0.0
H1381 H 0.53592 0.05894 0.68686 0.0
H1382 H 0.52835 0.09147 0.70221 0.0
H1383 H 0.5394 0.08986 0.66766 0.0
H1384 H 0.53008 0.18463 0.71967 0.0
H1385 H 0.55483 0.17707 0.63625 0.0
H1386 H 0.57448 0.13936 0.74759 0.0
H1387 H 0.54524 0.11928 0.74033 0.0
H1388 H 0.5419 0.15369 0.753 0.0
H1389 H 0.60424 0.12933 0.64522 0.0
H1390 H 0.58007 0.14014 0.62035 0.0
H1391 H 0.57503 0.10898 0.63881 0.0
C1392 C 0.19454 0.332 0.96234 0.0
C1393 C 0.19284 0.35905 0.97163 0.0
C1394 C 0.17177 0.3181 0.95192 0.0
C1395 C 0.14675 0.33146 0.9512 0.0
C1396 C 0.14472 0.35806 0.9624 0.0
C1397 C 0.16773 0.37153 0.97224 0.0
C1398 C 0.17484 0.2898 0.94011 0.0
C1399 C 0.11852 0.37305 0.96243 0.0
C1400 C 0.09813 0.31756 0.89294 0.0
C1401 C 0.07786 0.30202 0.90523 0.0
C1402 C 0.12087 0.32635 0.90749 0.0
C1403 C 0.1237 0.31967 0.93529 0.0
C1404 C 0.10359 0.30372 0.9479 0.0
C1405 C 0.0809 0.29506 0.93273 0.0
C1406 C 0.14168 0.34335 0.89313 0.0
C1407 C 0.10584 0.29623 0.97752 0.0
H1408 H 0.21385 0.32222 0.96189 0.0
H1409 H 0.16615 0.39227 0.97987 0.0
H1410 H 0.15852 0.27621 0.94718 0.0
H1411 H 0.17343 0.29059 0.91757 0.0
H1412 H 0.19435 0.28077 0.94568 0.0
H1413 H 0.11954 0.39207 0.97492 0.0
H1414 H 0.11309 0.37845 0.94125 0.0
H1415 H 0.10226 0.3599 0.97036 0.0
H1416 H 0.0963 0.32306 0.87172 0.0
H1417 H 0.06554 0.28294 0.94245 0.0
H1418 H 0.16168 0.3341 0.89537 0.0
H1419 H 0.14275 0.36401 0.90255 0.0
H1420 H 0.13726 0.34549 0.87106 0.0
H1421 H 0.12529 0.28635 0.98146 0.0
H1422 H 0.08949 0.28227 0.98388 0.0
H1423 H 0.10523 0.31493 0.99043 0.0
C1424 C 0.44487 0.71628 0.44837 0.0
C1425 C 0.44391 0.72308 0.42071 0.0
C1426 C 0.42298 0.70327 0.46099 0.0
C1427 C 0.39959 0.69685 0.44559 0.0
C1428 C 0.39848 0.70401 0.41778 0.0
C1429 C 0.42054 0.71696 0.40576 0.0
C1430 C 0.42502 0.69597 0.49067 0.0
C1431 C 0.37416 0.69745 0.40044 0.0
C1432 C 0.35531 0.63651 0.46389 0.0
C1433 C 0.33268 0.64897 0.47529 0.0
C1434 C 0.37741 0.65181 0.45513 0.0
C1435 C 0.37718 0.68052 0.4576 0.0
C1436 C 0.35476 0.69335 0.46965 0.0
C1437 C 0.33281 0.67743 0.47844 0.0
C1438 C 0.40077 0.63714 0.44248 0.0
C1439 C 0.35369 0.72393 0.47261 0.0
H1440 H 0.46271 0.72109 0.46016 0.0
H1441 H 0.41943 0.7222 0.38441 0.0
H1442 H 0.40771 0.7042 0.50202 0.0
H1443 H 0.42441 0.6735 0.49273 0.0
H1444 H 0.44373 0.7039 0.50029 0.0
H1445 H 0.3758 0.70577 0.37959 0.0
H1446 H 0.37138 0.67504 0.39875 0.0
H1447 H 0.35598 0.7058 0.41015 0.0
H1448 H 0.35582 0.61455 0.46158 0.0
H1449 H 0.31558 0.68732 0.48726 0.0
H1450 H 0.41964 0.64326 0.45295 0.0
H1451 H 0.40269 0.64289 0.4208 0.0
H1452 H 0.39856 0.61465 0.44347 0.0
H1453 H 0.37192 0.73176 0.48319 0.0
H1454 H 0.33585 0.73072 0.48413 0.0
H1455 H 0.3532 0.73323 0.45215 0.0
C1456 C 0.8659 0.55124 0.84904 0.0
C1457 C 0.84951 0.5419 0.8275 0.0
C1458 C 0.85501 0.56404 0.87218 0.0
C1459 C 0.82702 0.56752 0.8739 0.0
C1460 C 0.81043 0.55871 0.85193 0.0
C1461 C 0.82188 0.54607 0.82898 0.0
C1462 C 0.87342 0.5733 0.89503 0.0
C1463 C 0.7805 0.56207 0.85293 0.0
C1464 C 0.79489 0.57451 0.94381 0.0
C1465 C 0.79023 0.60259 0.94556 0.0
C1466 C 0.80712 0.56289 0.92076 0.0
C1467 C 0.81498 0.57975 0.89895 0.0
C1468 C 0.81087 0.60819 0.90089 0.0
C1469 C 0.79853 0.61925 0.92414 0.0
C1470 C 0.81119 0.53248 0.91953 0.0
C1471 C 0.81911 0.6269 0.87821 0.0
H1472 H 0.88729 0.54815 0.84805 0.0
H1473 H 0.80908 0.53889 0.81244 0.0
H1474 H 0.87037 0.59522 0.89967 0.0
H1475 H 0.86866 0.56192 0.91379 0.0
H1476 H 0.8948 0.57016 0.89007 0.0
H1477 H 0.77048 0.5549 0.83386 0.0
H1478 H 0.77222 0.55042 0.87022 0.0
H1479 H 0.77553 0.58378 0.85647 0.0
H1480 H 0.78854 0.5615 0.96027 0.0
H1481 H 0.79505 0.64098 0.92535 0.0
H1482 H 0.83261 0.52796 0.91625 0.0
H1483 H 0.79989 0.52355 0.902 0.0
H1484 H 0.80454 0.52229 0.93841 0.0
H1485 H 0.84068 0.62448 0.87379 0.0
H1486 H 0.81535 0.64864 0.88324 0.0
H1487 H 0.80795 0.62138 0.8593 0.0
C1488 C 0.67657 0.5533 0.19665 0.0
C1489 C 0.64859 0.55236 0.19464 0.0
C1490 C 0.69235 0.56129 0.17436 0.0
C1491 C 0.67992 0.56786 0.14928 0.0
C1492 C 0.65171 0.56696 0.14721 0.0
C1493 C 0.63646 0.55954 0.16989 0.0
C1494 C 0.72235 0.56252 0.17756 0.0
C1495 C 0.63759 0.57314 0.12076 0.0
C1496 C 0.7162 0.60785 0.09419 0.0
C1497 C 0.725 0.58693 0.07679 0.0
C1498 C 0.70219 0.60195 0.11826 0.0
C1499 C 0.69623 0.57451 0.12475 0.0
C1500 C 0.7048 0.55336 0.10706 0.0
C1501 C 0.71931 0.5598 0.08354 0.0
C1502 C 0.69385 0.62507 0.1368 0.0
C1503 C 0.69831 0.52388 0.11275 0.0
H1504 H 0.68612 0.54792 0.21566 0.0
H1505 H 0.61489 0.55864 0.16794 0.0
H1506 H 0.73165 0.54726 0.16382 0.0
H1507 H 0.73001 0.58285 0.17159 0.0
H1508 H 0.72886 0.55851 0.19879 0.0
H1509 H 0.6155 0.57177 0.12256 0.0
H1510 H 0.64305 0.5939 0.11395 0.0
H1511 H 0.64404 0.55863 0.10463 0.0
H1512 H 0.72077 0.62884 0.08931 0.0
H1513 H 0.72592 0.54349 0.07016 0.0
H1514 H 0.70169 0.62185 0.15769 0.0
H1515 H 0.67175 0.6256 0.13818 0.0
H1516 H 0.70113 0.64516 0.12959 0.0
H1517 H 0.70661 0.51816 0.13283 0.0
H1518 H 0.70639 0.50985 0.09695 0.0
H1519 H 0.67633 0.5209 0.11368 0.0
C1520 C 0.72195 0.43045 0.43644 0.0
C1521 C 0.72687 0.40239 0.43693 0.0
C1522 C 0.70989 0.44248 0.4137 0.0
C1523 C 0.70237 0.42606 0.3909 0.0
C1524 C 0.7071 0.39768 0.39137 0.0
C1525 C 0.71935 0.38621 0.41433 0.0
C1526 C 0.70525 0.47281 0.41407 0.0
C1527 C 0.69919 0.37942 0.36761 0.0
C1528 C 0.6485 0.45455 0.34465 0.0
C1529 C 0.66351 0.46522 0.32313 0.0
C1530 C 0.66082 0.4412 0.36641 0.0
C1531 C 0.68896 0.43857 0.3669 0.0
C1532 C 0.70422 0.44874 0.34493 0.0
C1533 C 0.69131 0.46185 0.32324 0.0
C1534 C 0.64374 0.43047 0.38923 0.0
C1535 C 0.73427 0.44647 0.34473 0.0
H1536 H 0.72777 0.44313 0.45377 0.0
H1537 H 0.72309 0.36451 0.41452 0.0
H1538 H 0.71545 0.48232 0.39653 0.0
H1539 H 0.6836 0.47692 0.41192 0.0
H1540 H 0.71266 0.4828 0.43315 0.0
H1541 H 0.7043 0.35778 0.37109 0.0
H1542 H 0.67737 0.38075 0.36386 0.0
H1543 H 0.70936 0.38629 0.34886 0.0
H1544 H 0.62699 0.45696 0.34471 0.0
H1545 H 0.70307 0.47012 0.30677 0.0
H1546 H 0.64886 0.44141 0.40852 0.0
H1547 H 0.64778 0.40857 0.3924 0.0
H1548 H 0.62205 0.43291 0.38515 0.0
H1549 H 0.74291 0.45805 0.3623 0.0
H1550 H 0.74317 0.4544 0.3257 0.0
H1551 H 0.74016 0.42491 0.34702 0.0
C1552 C 0.80614 0.46065 0.69411 0.0
C1553 C 0.83291 0.46751 0.69967 0.0
C1554 C 0.7986 0.44781 0.6695 0.0
C1555 C 0.81822 0.44215 0.64958 0.0
C1556 C 0.84549 0.44767 0.65566 0.0
C1557 C 0.85256 0.46009 0.68078 0.0
C1558 C 0.76936 0.44178 0.6642 0.0
C1559 C 0.86702 0.44221 0.63496 0.0
C1560 C 0.79471 0.39868 0.58878 0.0
C1561 C 0.78593 0.41875 0.57082 0.0
C1562 C 0.8063 0.40587 0.61416 0.0
C1563 C 0.80957 0.43374 0.62149 0.0
C1564 C 0.80213 0.45397 0.60271 0.0
C1565 C 0.79024 0.44625 0.57779 0.0
C1566 C 0.81377 0.38368 0.63365 0.0
C1567 C 0.80569 0.48392 0.60939 0.0
H1568 H 0.7909 0.46606 0.70877 0.0
H1569 H 0.87327 0.46546 0.6849 0.0
H1570 H 0.7617 0.45579 0.6485 0.0
H1571 H 0.7666 0.42068 0.65622 0.0
H1572 H 0.75712 0.44429 0.68285 0.0
H1573 H 0.88735 0.44387 0.64406 0.0
H1574 H 0.86441 0.42163 0.62565 0.0
H1575 H 0.86549 0.45719 0.61832 0.0
H1576 H 0.79142 0.37738 0.58357 0.0
H1577 H 0.78388 0.46189 0.56388 0.0
H1578 H 0.79978 0.38385 0.6511 0.0
H1579 H 0.83415 0.38731 0.642 0.0
H1580 H 0.81296 0.36318 0.62381 0.0
H1581 H 0.79213 0.48973 0.62625 0.0
H1582 H 0.80128 0.49697 0.59165 0.0
H1583 H 0.82644 0.48824 0.61638 0.0
C1584 C 0.38922 0.10465 0.22337 0.0
C1585 C 0.39851 0.079 0.23109 0.0
C1586 C 0.40666 0.12442 0.2129 0.0
C1587 C 0.43414 0.11851 0.21004 0.0
C1588 C 0.4436 0.09249 0.21714 0.0
C1589 C 0.4257 0.07305 0.2276 0.0
C1590 C 0.39573 0.15195 0.20561 0.0
C1591 C 0.47275 0.08542 0.21434 0.0
C1592 C 0.47227 0.16899 0.16629 0.0
C1593 C 0.48127 0.18784 0.18611 0.0
C1594 C 0.45811 0.14535 0.17379 0.0
C1595 C 0.45305 0.14048 0.20171 0.0
C1596 C 0.46383 0.15845 0.22178 0.0
C1597 C 0.47774 0.18187 0.21374 0.0
C1598 C 0.44712 0.12654 0.1518 0.0
C1599 C 0.4592 0.15393 0.25178 0.0
H1600 H 0.36829 0.1095 0.22578 0.0
H1601 H 0.43313 0.05328 0.23334 0.0
H1602 H 0.40478 0.16788 0.21912 0.0
H1603 H 0.40113 0.15702 0.18437 0.0
H1604 H 0.37366 0.15282 0.2076 0.0
H1605 H 0.47654 0.06364 0.2186 0.0
H1606 H 0.47981 0.08996 0.1935 0.0
H1607 H 0.48487 0.09812 0.22873 0.0
H1608 H 0.47491 0.17346 0.14491 0.0
H1609 H 0.48498 0.19614 0.22921 0.0
H1610 H 0.42514 0.12891 0.1504 0.0
H1611 H 0.45103 0.10498 0.15681 0.0
H1612 H 0.45586 0.13094 0.13155 0.0
H1613 H 0.43774 0.15686 0.25645 0.0
H1614 H 0.47117 0.1682 0.26482 0.0
H1615 H 0.46427 0.13277 0.25727 0.0
C1616 C 0.05696 0.83771 0.64929 0.0
C1617 C 0.04181 0.81947 0.66474 0.0
C1618 C 0.06657 0.86229 0.6608 0.0
C1619 C 0.06079 0.86873 0.68834 0.0
C1620 C 0.04559 0.8503 0.70403 0.0
C1621 C 0.03629 0.82591 0.69204 0.0
C1622 C 0.08269 0.88149 0.64344 0.0
C1623 C 0.03887 0.8565 0.73341 0.0
C1624 C 0.1008 0.92393 0.7261 0.0
C1625 C 0.08357 0.94621 0.72428 0.0
C1626 C 0.09382 0.89857 0.71426 0.0
C1627 C 0.06908 0.89548 0.70032 0.0
C1628 C 0.05171 0.91787 0.69835 0.0
C1629 C 0.05913 0.94286 0.71032 0.0
C1630 C 0.11281 0.87506 0.71678 0.0
C1631 C 0.02512 0.91539 0.6837 0.0
H1632 H 0.06144 0.83273 0.62823 0.0
H1633 H 0.02468 0.81182 0.70413 0.0
H1634 H 0.07198 0.90103 0.64137 0.0
H1635 H 0.10219 0.88618 0.6534 0.0
H1636 H 0.08642 0.87296 0.62275 0.0
H1637 H 0.02777 0.83953 0.74311 0.0
H1638 H 0.05742 0.86065 0.7453 0.0
H1639 H 0.02652 0.8751 0.73468 0.0
H1640 H 0.11972 0.92627 0.73677 0.0
H1641 H 0.04561 0.95985 0.70866 0.0
H1642 H 0.11812 0.86718 0.69624 0.0
H1643 H 0.10296 0.85812 0.72774 0.0
H1644 H 0.13147 0.8809 0.72784 0.0
H1645 H 0.02819 0.90861 0.66231 0.0
H1646 H 0.0141 0.9349 0.68362 0.0
H1647 H 0.01245 0.89976 0.69359 0.0
C1648 C 0.4666 0.84958 0.36987 0.0
C1649 C 0.47542 0.82718 0.35457 0.0
C1650 C 0.45541 0.87221 0.35701 0.0
C1651 C 0.45252 0.8721 0.32826 0.0
C1652 C 0.46193 0.84974 0.31273 0.0
C1653 C 0.4735 0.82769 0.32606 0.0
C1654 C 0.4461 0.89596 0.37421 0.0
C1655 C 0.45884 0.84861 0.2821 0.0
C1656 C 0.39703 0.91529 0.29921 0.0
C1657 C 0.41129 0.93777 0.28939 0.0
C1658 C 0.41027 0.89357 0.31146 0.0
C1659 C 0.43842 0.89466 0.3145 0.0
C1660 C 0.45297 0.91718 0.30434 0.0
C1661 C 0.43923 0.93837 0.29161 0.0
C1662 C 0.39411 0.86959 0.32143 0.0
C1663 C 0.48295 0.91925 0.30757 0.0
H1664 H 0.46816 0.8493 0.3919 0.0
H1665 H 0.48021 0.81038 0.31409 0.0
H1666 H 0.45481 0.91526 0.36658 0.0
H1667 H 0.42405 0.89761 0.37268 0.0
H1668 H 0.45166 0.89385 0.39601 0.0
H1669 H 0.46811 0.83021 0.27293 0.0
H1670 H 0.4373 0.84856 0.2766 0.0
H1671 H 0.46804 0.86692 0.27291 0.0
H1672 H 0.37542 0.91476 0.29748 0.0
H1673 H 0.4503 0.95587 0.28432 0.0
H1674 H 0.39638 0.86788 0.34383 0.0
H1675 H 0.4016 0.85043 0.31214 0.0
H1676 H 0.37251 0.87138 0.31651 0.0
H1677 H 0.48835 0.91919 0.32953 0.0
H1678 H 0.49132 0.93801 0.29838 0.0
H1679 H 0.49256 0.90133 0.29794 0.0
C1680 C 0.83116 0.67824 0.04193 0.0
C1681 C 0.83282 0.64971 0.04125 0.0
C1682 C 0.85133 0.69438 0.05443 0.0
C1683 C 0.87346 0.68169 0.06692 0.0
C1684 C 0.87544 0.65296 0.06589 0.0
C1685 C 0.85526 0.6374 0.05297 0.0
C1686 C 0.8487 0.72496 0.05476 0.0
C1687 C 0.89848 0.63853 0.07923 0.0
C1688 C 0.93806 0.71923 0.08626 0.0
C1689 C 0.9347 0.72349 0.11438 0.0
C1690 C 0.91783 0.70674 0.07025 0.0
C1691 C 0.89377 0.69804 0.08265 0.0
C1692 C 0.88994 0.70304 0.11081 0.0
C1693 C 0.91032 0.71577 0.12625 0.0
C1694 C 0.92254 0.70209 0.04021 0.0
C1695 C 0.86471 0.69394 0.12495 0.0
H1696 H 0.81405 0.68799 0.03279 0.0
H1697 H 0.85681 0.61541 0.05269 0.0
H1698 H 0.84604 0.73241 0.07599 0.0
H1699 H 0.86721 0.73461 0.04692 0.0
H1700 H 0.83147 0.73179 0.04232 0.0
H1701 H 0.89756 0.61613 0.07581 0.0
H1702 H 0.91775 0.64633 0.07125 0.0
H1703 H 0.8984 0.64271 0.1015 0.0
H1704 H 0.95668 0.72526 0.07679 0.0
H1705 H 0.90733 0.71897 0.1479 0.0
H1706 H 0.90536 0.70959 0.02818 0.0
H1707 H 0.92421 0.67995 0.03588 0.0
H1708 H 0.94106 0.7124 0.03314 0.0
H1709 H 0.8469 0.702 0.11435 0.0
H1710 H 0.86417 0.70072 0.14662 0.0
H1711 H 0.86313 0.67138 0.12415 0.0
C1712 C 0.58155 0.27167 0.56805 0.0
C1713 C 0.57949 0.27501 0.5964 0.0
C1714 C 0.60249 0.28413 0.55356 0.0
C1715 C 0.62178 0.30032 0.56775 0.0
C1716 C 0.62049 0.3026 0.5965 0.0
C1717 C 0.59943 0.28994 0.61043 0.0
C1718 C 0.60323 0.28104 0.52295 0.0
C1719 C 0.64063 0.31957 0.6125 0.0
C1720 C 0.68712 0.32348 0.53523 0.0
C1721 C 0.68139 0.35053 0.52849 0.0
C1722 C 0.6677 0.30655 0.5472 0.0
C1723 C 0.64191 0.31685 0.5526 0.0
C1724 C 0.63575 0.3438 0.54506 0.0
C1725 C 0.65548 0.36024 0.53312 0.0
C1726 C 0.67505 0.27792 0.55485 0.0
C1727 C 0.60852 0.35565 0.55041 0.0
H1728 H 0.56625 0.26018 0.55704 0.0
H1729 H 0.59811 0.29256 0.63234 0.0
H1730 H 0.59858 0.30083 0.51349 0.0
H1731 H 0.62352 0.27521 0.51619 0.0
H1732 H 0.58862 0.26553 0.51527 0.0
H1733 H 0.63812 0.31753 0.63485 0.0
H1734 H 0.66125 0.31357 0.60707 0.0
H1735 H 0.63845 0.34134 0.60726 0.0
H1736 H 0.707 0.31567 0.53173 0.0
H1737 H 0.65065 0.381 0.52792 0.0
H1738 H 0.66009 0.26315 0.5465 0.0
H1739 H 0.67488 0.27603 0.57735 0.0
H1740 H 0.69514 0.2722 0.54732 0.0
H1741 H 0.59272 0.34232 0.5413 0.0
H1742 H 0.60645 0.37642 0.54203 0.0
H1743 H 0.60492 0.35671 0.57268 0.0
C1744 C 0.24348 0.44968 0.08222 0.0
C1745 C 0.24134 0.42255 0.07313 0.0
C1746 C 0.23347 0.45779 0.10761 0.0
C1747 C 0.22051 0.4384 0.12415 0.0
C1748 C 0.21852 0.41086 0.11525 0.0
C1749 C 0.22925 0.40318 0.0899 0.0
C1750 C 0.2366 0.4872 0.11663 0.0
C1751 C 0.20455 0.38971 0.13223 0.0
C1752 C 0.21746 0.45646 0.19927 0.0
C1753 C 0.19186 0.46778 0.20171 0.0
C1754 C 0.22666 0.44617 0.17434 0.0
C1755 C 0.2099 0.447 0.15113 0.0
C1756 C 0.18383 0.45777 0.15343 0.0
C1757 C 0.17513 0.46813 0.17869 0.0
C1758 C 0.25468 0.4351 0.17271 0.0
C1759 C 0.16534 0.45881 0.12908 0.0
H1760 H 0.2529 0.46468 0.06931 0.0
H1761 H 0.22722 0.38228 0.08271 0.0
H1762 H 0.21667 0.49631 0.11989 0.0
H1763 H 0.24752 0.48845 0.13635 0.0
H1764 H 0.24759 0.49961 0.10152 0.0
H1765 H 0.20464 0.3692 0.1224 0.0
H1766 H 0.21432 0.38843 0.15251 0.0
H1767 H 0.18353 0.39574 0.13571 0.0
H1768 H 0.23064 0.45593 0.21683 0.0
H1769 H 0.1553 0.47664 0.18034 0.0
H1770 H 0.26686 0.4478 0.15886 0.0
H1771 H 0.25428 0.41411 0.16408 0.0
H1772 H 0.26476 0.43476 0.19292 0.0
H1773 H 0.17381 0.47273 0.11367 0.0
H1774 H 0.14509 0.46599 0.13462 0.0
H1775 H 0.16348 0.43834 0.11934 0.0
C1776 C 0.32944 0.46938 0.8262 0.0
C1777 C 0.35737 0.47185 0.8267 0.0
C1778 C 0.31568 0.45679 0.84758 0.0
C1779 C 0.3302 0.44701 0.87021 0.0
C1780 C 0.35834 0.45028 0.87117 0.0
C1781 C 0.3716 0.46238 0.84926 0.0
C1782 C 0.28572 0.45329 0.84565 0.0
C1783 C 0.37451 0.44071 0.89521 0.0
C1784 C 0.29584 0.4357 0.93786 0.0
C1785 C 0.29438 0.40718 0.93879 0.0
C1786 C 0.30683 0.44896 0.91536 0.0
C1787 C 0.31614 0.43334 0.89299 0.0
C1788 C 0.31354 0.40457 0.89324 0.0
C1789 C 0.3029 0.3918 0.91628 0.0
C1790 C 0.3096 0.47962 0.91609 0.0
C1791 C 0.32275 0.38726 0.86952 0.0
H1792 H 0.31839 0.4764 0.80863 0.0
H1793 H 0.3932 0.46431 0.84973 0.0
H1794 H 0.2804 0.4313 0.84585 0.0
H1795 H 0.27604 0.46293 0.86356 0.0
H1796 H 0.27735 0.4623 0.82685 0.0
H1797 H 0.39609 0.44579 0.8933 0.0
H1798 H 0.36695 0.45013 0.91431 0.0
H1799 H 0.3723 0.41832 0.89717 0.0
H1800 H 0.28933 0.44774 0.95522 0.0
H1801 H 0.30169 0.36976 0.91687 0.0
H1802 H 0.30048 0.48845 0.89762 0.0
H1803 H 0.33109 0.48544 0.91617 0.0
H1804 H 0.30009 0.48887 0.93435 0.0
H1805 H 0.31404 0.39474 0.85021 0.0
H1806 H 0.31713 0.36547 0.87181 0.0
H1807 H 0.3448 0.38881 0.86773 0.0
C1808 C 0.29885 0.55073 0.57997 0.0
C1809 C 0.29257 0.5782 0.57589 0.0
C1810 C 0.31233 0.54244 0.60345 0.0
C1811 C 0.31968 0.56202 0.62359 0.0
C1812 C 0.31189 0.58948 0.62054 0.0
C1813 C 0.29839 0.59729 0.59668 0.0
C1814 C 0.32008 0.51291 0.60589 0.0
C1815 C 0.31908 0.61089 0.64176 0.0
C1816 C 0.34457 0.53264 0.6903 0.0
C1817 C 0.37232 0.53235 0.68615 0.0
C1818 C 0.32716 0.54328 0.67064 0.0
C1819 C 0.33773 0.55393 0.64627 0.0
C1820 C 0.36574 0.55451 0.64236 0.0
C1821 C 0.38265 0.54369 0.66227 0.0
C1822 C 0.29742 0.5423 0.67555 0.0
C1823 C 0.37785 0.56574 0.61668 0.0
H1824 H 0.29409 0.5357 0.56426 0.0
H1825 H 0.29357 0.61852 0.59377 0.0
H1826 H 0.34213 0.51116 0.6046 0.0
H1827 H 0.31395 0.50489 0.62594 0.0
H1828 H 0.31093 0.49987 0.5896 0.0
H1829 H 0.30852 0.63032 0.63827 0.0
H1830 H 0.31422 0.6036 0.66245 0.0
H1831 H 0.34092 0.61496 0.64125 0.0
H1832 H 0.33633 0.52407 0.70871 0.0
H1833 H 0.40403 0.54388 0.65891 0.0
H1834 H 0.28784 0.52766 0.66101 0.0
H1835 H 0.28852 0.56253 0.6719 0.0
H1836 H 0.29253 0.53596 0.69659 0.0
H1837 H 0.37166 0.55287 0.59894 0.0
H1838 H 0.40003 0.56646 0.61758 0.0
H1839 H 0.37047 0.5866 0.61304 0.0
C1840 C 0.15524 0.55052 0.3478 0.0
C1841 C 0.17142 0.54213 0.32614 0.0
C1842 C 0.16658 0.56219 0.37152 0.0
C1843 C 0.19465 0.56605 0.37325 0.0
C1844 C 0.21099 0.55783 0.35128 0.0
C1845 C 0.1992 0.54569 0.32812 0.0
C1846 C 0.14859 0.57019 0.39481 0.0
C1847 C 0.24094 0.56202 0.35215 0.0
C1848 C 0.22181 0.61777 0.42494 0.0
C1849 C 0.23057 0.60082 0.44581 0.0
C1850 C 0.21031 0.60673 0.40101 0.0
C1851 C 0.20707 0.57813 0.39824 0.0
C1852 C 0.21601 0.56095 0.41924 0.0
C1853 C 0.22791 0.5725 0.44265 0.0
C1854 C 0.20154 0.62563 0.37876 0.0
C1855 C 0.21259 0.53039 0.41718 0.0
H1856 H 0.13377 0.54772 0.3463 0.0
H1857 H 0.21177 0.53944 0.3113 0.0
H1858 H 0.15456 0.55928 0.4135 0.0
H1859 H 0.15075 0.59231 0.39928 0.0
H1860 H 0.12722 0.56553 0.39038 0.0
H1861 H 0.25069 0.5553 0.33297 0.0
H1862 H 0.24579 0.58388 0.3558 0.0
H1863 H 0.24965 0.55054 0.36928 0.0
H1864 H 0.22388 0.63967 0.42734 0.0
H1865 H 0.23447 0.5593 0.45883 0.0
H1866 H 0.1797 0.62343 0.37527 0.0
H1867 H 0.21153 0.62011 0.35936 0.0
H1868 H 0.20617 0.64731 0.38375 0.0
H1869 H 0.19113 0.52505 0.41445 0.0
H1870 H 0.22023 0.51994 0.43553 0.0
H1871 H 0.22329 0.52241 0.39908 0.0
loop_
_geom_bond_atom_site_label_1
_geom_bond_atom_site_label_2
_geom_bond_distance
_geom_bond_site_symmetry_2
_ccdc_geom_bond_type
Co0 O1 2.216 1_455 S
Co0 O2 2.091 1_455 S
Co0 O4 2.004 . S
Co0 O10 2.021 1_455 S
Co0 O12 2.137 . S
Co0 O13 2.244 . S
O1 Co0 2.216 1_655 S
O1 C8 1.247 . S
O2 Co0 2.091 1_655 S
O2 C8 1.261 . S
C3 O12 1.247 . S
C3 O13 1.272 . S
O4 Co0 2.004 . S
O4 C9 1.259 . S
Co5 O6 2.061 . S
Co5 O11 2.052 . S
Co5 O13 2.135 . S
O6 Co5 2.061 . S
O6 C9 1.235 . S
C7 O10 1.238 . S
C7 O11 1.241 1_655 S
C8 O1 1.247 . S
C8 O2 1.261 . S
C9 O4 1.259 . S
C9 O6 1.235 . S
O10 Co0 2.021 1_655 S
O10 C7 1.238 . S
O11 Co5 2.052 . S
O11 C7 1.241 1_455 S
O12 Co0 2.137 . S
O12 C3 1.247 . S
O13 Co0 2.244 . S
O13 C3 1.272 . S
O13 Co5 2.135 . S
Co14 O15 2.216 . S
Co14 O16 2.091 . S
Co14 O18 2.004 1_455 S
Co14 O24 2.021 1_455 S
Co14 O26 2.137 . S
Co14 O27 2.244 . S
O15 Co14 2.216 . S
O15 C22 1.247 . S
O16 Co14 2.091 . S
O16 C22 1.261 . S
C17 O26 1.247 . S
C17 O27 1.272 . S
O18 Co14 2.004 1_655 S
O18 C23 1.259 . S
Co19 O20 2.061 . S
Co19 O25 2.052 . S
Co19 O27 2.135 1_655 S
O20 Co19 2.061 . S
O20 C23 1.235 . S
C21 O24 1.238 . S
C21 O25 1.241 . S
C22 O15 1.247 . S
C22 O16 1.261 . S
C23 O18 1.259 . S
C23 O20 1.235 . S
O24 Co14 2.021 1_655 S
O24 C21 1.238 . S
O25 Co19 2.052 . S
O25 C21 1.241 . S
O26 Co14 2.137 . S
O26 C17 1.247 . S
O27 Co14 2.244 . S
O27 C17 1.272 . S
O27 Co19 2.135 1_455 S
Co28 O29 2.216 . S
Co28 O30 2.091 . S
Co28 O32 2.004 . S
Co28 O38 2.021 . S
Co28 O40 2.137 . S
Co28 O41 2.244 . S
O29 Co28 2.216 . S
O29 C36 1.247 . S
O30 Co28 2.091 . S
O30 C36 1.261 . S
C31 O40 1.247 . S
C31 O41 1.272 . S
O32 Co28 2.004 . S
O32 C37 1.259 . S
Co33 O34 2.061 . S
Co33 O39 2.052 . S
Co33 O41 2.135 . S
O34 Co33 2.061 . S
O34 C37 1.235 . S
C35 O38 1.238 . S
C35 O39 1.241 . S
C36 O29 1.247 . S
C36 O30 1.261 . S
C37 O32 1.259 . S
C37 O34 1.235 . S
O38 Co28 2.021 . S
O38 C35 1.238 . S
O39 Co33 2.052 . S
O39 C35 1.241 . S
O40 Co28 2.137 . S
O40 C31 1.247 . S
O41 Co28 2.244 . S
O41 C31 1.272 . S
O41 Co33 2.135 . S
Co42 O43 2.216 . S
Co42 O44 2.091 . S
Co42 O46 2.004 . S
Co42 O52 2.021 . S
Co42 O54 2.137 . S
Co42 O55 2.244 . S
O43 Co42 2.216 . S
O43 C50 1.247 . S
O44 Co42 2.091 . S
O44 C50 1.261 . S
C45 O54 1.247 . S
C45 O55 1.272 . S
O46 Co42 2.004 . S
O46 C51 1.259 . S
Co47 O48 2.061 . S
Co47 O53 2.052 . S
Co47 O55 2.135 . S
O48 Co47 2.061 . S
O48 C51 1.235 . S
C49 O52 1.238 . S
C49 O53 1.241 . S
C50 O43 1.247 . S
C50 O44 1.261 . S
C51 O46 1.259 . S
C51 O48 1.235 . S
O52 Co42 2.021 . S
O52 C49 1.238 . S
O53 Co47 2.052 . S
O53 C49 1.241 . S
O54 Co42 2.137 . S
O54 C45 1.247 . S
O55 Co42 2.244 . S
O55 C45 1.272 . S
O55 Co47 2.135 . S
Co56 O57 2.216 . S
Co56 O58 2.091 . S
Co56 O60 2.004 1_455 S
Co56 O66 2.021 . S
Co56 O68 2.137 1_455 S
Co56 O69 2.244 1_455 S
O57 Co56 2.216 . S
O57 C64 1.247 . S
O58 Co56 2.091 . S
O58 C64 1.261 . S
C59 O68 1.247 . S
C59 O69 1.272 . S
O60 Co56 2.004 1_655 S
O60 C65 1.259 . S
Co61 O62 2.061 . S
Co61 O67 2.052 1_655 S
Co61 O69 2.135 . S
O62 Co61 2.061 . S
O62 C65 1.235 . S
C63 O66 1.238 . S
C63 O67 1.241 . S
C64 O57 1.247 . S
C64 O58 1.261 . S
C65 O60 1.259 . S
C65 O62 1.235 . S
O66 Co56 2.021 . S
O66 C63 1.238 . S
O67 Co61 2.052 1_455 S
O67 C63 1.241 . S
O68 Co56 2.137 1_655 S
O68 C59 1.247 . S
O69 Co56 2.244 1_655 S
O69 C59 1.272 . S
O69 Co61 2.135 . S
Co70 O71 2.216 . S
Co70 O72 2.091 . S
Co70 O74 2.004 . S
Co70 O80 2.021 . S
Co70 O82 2.137 . S
Co70 O83 2.244 . S
O71 Co70 2.216 . S
O71 C78 1.247 . S
O72 Co70 2.091 . S
O72 C78 1.261 . S
C73 O82 1.247 . S
C73 O83 1.272 . S
O74 Co70 2.004 . S
O74 C79 1.259 . S
Co75 O76 2.061 . S
Co75 O81 2.052 . S
Co75 O83 2.135 . S
O76 Co75 2.061 . S
O76 C79 1.235 . S
C77 O80 1.238 . S
C77 O81 1.241 . S
C78 O71 1.247 . S
C78 O72 1.261 . S
C79 O74 1.259 . S
C79 O76 1.235 . S
O80 Co70 2.021 . S
O80 C77 1.238 . S
O81 Co75 2.052 . S
O81 C77 1.241 . S
O82 Co70 2.137 . S
O82 C73 1.247 . S
O83 Co70 2.244 . S
O83 C73 1.272 . S
O83 Co75 2.135 . S
Co84 O85 2.216 . S
Co84 O86 2.091 . S
Co84 O88 2.004 . S
Co84 O94 2.021 . S
Co84 O96 2.137 . S
Co84 O97 2.244 . S
O85 Co84 2.216 . S
O85 C92 1.247 . S
O86 Co84 2.091 . S
O86 C92 1.261 . S
C87 O96 1.247 . S
C87 O97 1.272 . S
O88 Co84 2.004 . S
O88 C93 1.259 . S
Co89 O90 2.061 . S
Co89 O95 2.052 . S
Co89 O97 2.135 . S
O90 Co89 2.061 . S
O90 C93 1.235 . S
C91 O94 1.238 . S
C91 O95 1.241 . S
C92 O85 1.247 . S
C92 O86 1.261 . S
C93 O88 1.259 . S
C93 O90 1.235 . S
O94 Co84 2.021 . S
O94 C91 1.238 . S
O95 Co89 2.052 . S
O95 C91 1.241 . S
O96 Co84 2.137 . S
O96 C87 1.247 . S
O97 Co84 2.244 . S
O97 C87 1.272 . S
O97 Co89 2.135 . S
Co98 O99 2.216 . S
Co98 O100 2.091 . S
Co98 O102 2.004 1_655 S
Co98 O108 2.021 1_655 S
Co98 O110 2.137 . S
Co98 O111 2.244 1_655 S
O99 Co98 2.216 . S
O99 C106 1.247 . S
O100 Co98 2.091 . S
O100 C106 1.261 . S
C101 O110 1.247 . S
C101 O111 1.272 1_655 S
O102 Co98 2.004 1_455 S
O102 C107 1.259 . S
Co103 O104 2.061 . S
Co103 O109 2.052 . S
Co103 O111 2.135 . S
O104 Co103 2.061 . S
O104 C107 1.235 . S
C105 O108 1.238 . S
C105 O109 1.241 . S
C106 O99 1.247 . S
C106 O100 1.261 . S
C107 O102 1.259 . S
C107 O104 1.235 . S
O108 Co98 2.021 1_455 S
O108 C105 1.238 . S
O109 Co103 2.052 . S
O109 C105 1.241 . S
O110 Co98 2.137 . S
O110 C101 1.247 . S
O111 Co98 2.244 1_455 S
O111 C101 1.272 1_455 S
O111 Co103 2.135 . S
Co112 O113 2.216 . S
Co112 O114 2.091 . S
Co112 O116 2.004 1_565 S
Co112 O122 2.021 . S
Co112 O124 2.137 1_565 S
Co112 O125 2.244 1_565 S
O113 Co112 2.216 . S
O113 C120 1.247 . S
O114 Co112 2.091 . S
O114 C120 1.261 . S
C115 O124 1.247 . S
C115 O125 1.272 . S
O116 Co112 2.004 1_545 S
O116 C121 1.259 . S
Co117 O118 2.061 . S
Co117 O123 2.052 . S
Co117 O125 2.135 . S
O118 Co117 2.061 . S
O118 C121 1.235 . S
C119 O122 1.238 . S
C119 O123 1.241 1_565 S
C120 O113 1.247 . S
C120 O114 1.261 . S
C121 O116 1.259 . S
C121 O118 1.235 . S
O122 Co112 2.021 . S
O122 C119 1.238 . S
O123 Co117 2.052 . S
O123 C119 1.241 1_545 S
O124 Co112 2.137 1_545 S
O124 C115 1.247 . S
O125 Co112 2.244 1_545 S
O125 C115 1.272 . S
O125 Co117 2.135 . S
Co126 O127 2.216 . S
Co126 O128 2.091 . S
Co126 O130 2.004 . S
Co126 O136 2.021 . S
Co126 O138 2.137 . S
Co126 O139 2.244 . S
O127 Co126 2.216 . S
O127 C134 1.247 . S
O128 Co126 2.091 . S
O128 C134 1.261 . S
C129 O138 1.247 . S
C129 O139 1.272 . S
O130 Co126 2.004 . S
O130 C135 1.259 . S
Co131 O132 2.061 . S
Co131 O137 2.052 . S
Co131 O139 2.135 . S
O132 Co131 2.061 . S
O132 C135 1.235 . S
C133 O136 1.238 . S
C133 O137 1.241 . S
C134 O127 1.247 . S
C134 O128 1.261 . S
C135 O130 1.259 . S
C135 O132 1.235 . S
O136 Co126 2.021 . S
O136 C133 1.238 . S
O137 Co131 2.052 . S
O137 C133 1.241 . S
O138 Co126 2.137 . S
O138 C129 1.247 . S
O139 Co126 2.244 . S
O139 C129 1.272 . S
O139 Co131 2.135 . S
Co140 O141 2.216 1_545 S
Co140 O142 2.091 1_545 S
Co140 O144 2.004 . S
Co140 O150 2.021 1_545 S
Co140 O152 2.137 . S
Co140 O153 2.244 . S
O141 Co140 2.216 1_565 S
O141 C148 1.247 . S
O142 Co140 2.091 1_565 S
O142 C148 1.261 . S
C143 O152 1.247 . S
C143 O153 1.272 . S
O144 Co140 2.004 . S
O144 C149 1.259 . S
Co145 O146 2.061 . S
Co145 O151 2.052 1_545 S
Co145 O153 2.135 . S
O146 Co145 2.061 . S
O146 C149 1.235 . S
C147 O150 1.238 . S
C147 O151 1.241 . S
C148 O141 1.247 . S
C148 O142 1.261 . S
C149 O144 1.259 . S
C149 O146 1.235 . S
O150 Co140 2.021 1_565 S
O150 C147 1.238 . S
O151 Co145 2.052 1_565 S
O151 C147 1.241 . S
O152 Co140 2.137 . S
O152 C143 1.247 . S
O153 Co140 2.244 . S
O153 C143 1.272 . S
O153 Co145 2.135 . S
Co154 O155 2.216 1_554 S
Co154 O156 2.091 1_554 S
Co154 O158 2.004 . S
Co154 O164 2.021 . S
Co154 O166 2.137 1_554 S
Co154 O167 2.244 1_554 S
O155 Co154 2.216 1_556 S
O155 C162 1.247 . S
O156 Co154 2.091 1_556 S
O156 C162 1.261 . S
C157 O166 1.247 . S
C157 O167 1.272 . S
O158 Co154 2.004 . S
O158 C163 1.259 . S
Co159 O160 2.061 . S
Co159 O165 2.052 . S
Co159 O167 2.135 1_554 S
O160 Co159 2.061 . S
O160 C163 1.235 . S
C161 O164 1.238 . S
C161 O165 1.241 . S
C162 O155 1.247 . S
C162 O156 1.261 . S
C163 O158 1.259 . S
C163 O160 1.235 . S
O164 Co154 2.021 . S
O164 C161 1.238 . S
O165 Co159 2.052 . S
O165 C161 1.241 . S
O166 Co154 2.137 1_556 S
O166 C157 1.247 . S
O167 Co154 2.244 1_556 S
O167 C157 1.272 . S
O167 Co159 2.135 1_556 S
Co168 O169 2.216 . S
Co168 O170 2.091 . S
Co168 O172 2.004 1_554 S
Co168 O178 2.021 . S
Co168 O180 2.137 1_554 S
Co168 O181 2.244 1_554 S
O169 Co168 2.216 . S
O169 C176 1.247 . S
O170 Co168 2.091 . S
O170 C176 1.261 . S
C171 O180 1.247 . S
C171 O181 1.272 . S
O172 Co168 2.004 1_556 S
O172 C177 1.259 . S
Co173 O174 2.061 . S
Co173 O179 2.052 1_556 S
Co173 O181 2.135 . S
O174 Co173 2.061 . S
O174 C177 1.235 . S
C175 O178 1.238 . S
C175 O179 1.241 . S
C176 O169 1.247 . S
C176 O170 1.261 . S
C177 O172 1.259 . S
C177 O174 1.235 . S
O178 Co168 2.021 . S
O178 C175 1.238 . S
O179 Co173 2.052 1_554 S
O179 C175 1.241 . S
O180 Co168 2.137 1_556 S
O180 C171 1.247 . S
O181 Co168 2.244 1_556 S
O181 C171 1.272 . S
O181 Co173 2.135 . S
Co182 O183 2.216 . S
Co182 O184 2.091 . S
Co182 O186 2.004 1_554 S
Co182 O192 2.021 . S
Co182 O194 2.137 1_554 S
Co182 O195 2.244 1_554 S
O183 Co182 2.216 . S
O183 C190 1.247 . S
O184 Co182 2.091 . S
O184 C190 1.261 . S
C185 O194 1.247 . S
C185 O195 1.272 . S
O186 Co182 2.004 1_556 S
O186 C191 1.259 . S
Co187 O188 2.061 . S
Co187 O193 2.052 1_556 S
Co187 O195 2.135 . S
O188 Co187 2.061 . S
O188 C191 1.235 . S
C189 O192 1.238 . S
C189 O193 1.241 . S
C190 O183 1.247 . S
C190 O184 1.261 . S
C191 O186 1.259 . S
C191 O188 1.235 . S
O192 Co182 2.021 . S
O192 C189 1.238 . S
O193 Co187 2.052 1_554 S
O193 C189 1.241 . S
O194 Co182 2.137 1_556 S
O194 C185 1.247 . S
O195 Co182 2.244 1_556 S
O195 C185 1.272 . S
O195 Co187 2.135 . S
Co196 O197 2.216 . S
Co196 O198 2.091 . S
Co196 O200 2.004 . S
Co196 O206 2.021 . S
Co196 O208 2.137 . S
Co196 O209 2.244 . S
O197 Co196 2.216 . S
O197 C204 1.247 . S
O198 Co196 2.091 . S
O198 C204 1.261 . S
C199 O208 1.247 . S
C199 O209 1.272 . S
O200 Co196 2.004 . S
O200 C205 1.259 . S
Co201 O202 2.061 . S
Co201 O207 2.052 . S
Co201 O209 2.135 . S
O202 Co201 2.061 . S
O202 C205 1.235 . S
C203 O206 1.238 . S
C203 O207 1.241 . S
C204 O197 1.247 . S
C204 O198 1.261 . S
C205 O200 1.259 . S
C205 O202 1.235 . S
O206 Co196 2.021 . S
O206 C203 1.238 . S
O207 Co201 2.052 . S
O207 C203 1.241 . S
O208 Co196 2.137 . S
O208 C199 1.247 . S
O209 Co196 2.244 . S
O209 C199 1.272 . S
O209 Co201 2.135 . S
Co210 O211 2.216 . S
Co210 O212 2.091 . S
Co210 O214 2.004 . S
Co210 O220 2.021 . S
Co210 O222 2.137 . S
Co210 O223 2.244 . S
O211 Co210 2.216 . S
O211 C218 1.247 . S
O212 Co210 2.091 . S
O212 C218 1.261 . S
C213 O222 1.247 . S
C213 O223 1.272 . S
O214 Co210 2.004 . S
O214 C219 1.259 . S
Co215 O216 2.061 . S
Co215 O221 2.052 . S
Co215 O223 2.135 . S
O216 Co215 2.061 . S
O216 C219 1.235 . S
C217 O220 1.238 . S
C217 O221 1.241 . S
C218 O211 1.247 . S
C218 O212 1.261 . S
C219 O214 1.259 . S
C219 O216 1.235 . S
O220 Co210 2.021 . S
O220 C217 1.238 . S
O221 Co215 2.052 . S
O221 C217 1.241 . S
O222 Co210 2.137 . S
O222 C213 1.247 . S
O223 Co210 2.244 . S
O223 C213 1.272 . S
O223 Co215 2.135 . S
Co224 O225 2.216 . S
Co224 O226 2.091 . S
Co224 O228 2.004 1_565 S
Co224 O234 2.021 1_565 S
Co224 O236 2.137 . S
Co224 O237 2.244 . S
O225 Co224 2.216 . S
O225 C232 1.247 . S
O226 Co224 2.091 . S
O226 C232 1.261 . S
C227 O236 1.247 . S
C227 O237 1.272 . S
O228 Co224 2.004 1_545 S
O228 C233 1.259 . S
Co229 O230 2.061 . S
Co229 O235 2.052 . S
Co229 O237 2.135 1_545 S
O230 Co229 2.061 . S
O230 C233 1.235 . S
C231 O234 1.238 . S
C231 O235 1.241 . S
C232 O225 1.247 . S
C232 O226 1.261 . S
C233 O228 1.259 . S
C233 O230 1.235 . S
O234 Co224 2.021 1_545 S
O234 C231 1.238 . S
O235 Co229 2.052 . S
O235 C231 1.241 . S
O236 Co224 2.137 . S
O236 C227 1.247 . S
O237 Co224 2.244 . S
O237 C227 1.272 . S
O237 Co229 2.135 1_565 S
Co238 O239 2.216 . S
Co238 O240 2.091 . S
Co238 O242 2.004 . S
Co238 O248 2.021 . S
Co238 O250 2.137 . S
Co238 O251 2.244 . S
O239 Co238 2.216 . S
O239 C246 1.247 . S
O240 Co238 2.091 . S
O240 C246 1.261 . S
C241 O250 1.247 . S
C241 O251 1.272 . S
O242 Co238 2.004 . S
O242 C247 1.259 . S
Co243 O244 2.061 . S
Co243 O249 2.052 . S
Co243 O251 2.135 . S
O244 Co243 2.061 . S
O244 C247 1.235 . S
C245 O248 1.238 . S
C245 O249 1.241 . S
C246 O239 1.247 . S
C246 O240 1.261 . S
C247 O242 1.259 . S
C247 O244 1.235 . S
O248 Co238 2.021 . S
O248 C245 1.238 . S
O249 Co243 2.052 . S
O249 C245 1.241 . S
O250 Co238 2.137 . S
O250 C241 1.247 . S
O251 Co238 2.244 . S
O251 C241 1.272 . S
O251 Co243 2.135 . S
Co252 O253 2.216 . S
Co252 O254 2.091 . S
Co252 O256 2.004 . S
Co252 O262 2.021 . S
Co252 O264 2.137 . S
Co252 O265 2.244 . S
O253 Co252 2.216 . S
O253 C260 1.247 . S
O254 Co252 2.091 . S
O254 C260 1.261 . S
C255 O264 1.247 . S
C255 O265 1.272 . S
O256 Co252 2.004 . S
O256 C261 1.259 . S
Co257 O258 2.061 . S
Co257 O263 2.052 . S
Co257 O265 2.135 . S
O258 Co257 2.061 . S
O258 C261 1.235 . S
C259 O262 1.238 . S
C259 O263 1.241 . S
C260 O253 1.247 . S
C260 O254 1.261 . S
C261 O256 1.259 . S
C261 O258 1.235 . S
O262 Co252 2.021 . S
O262 C259 1.238 . S
O263 Co257 2.052 . S
O263 C259 1.241 . S
O264 Co252 2.137 . S
O264 C255 1.247 . S
O265 Co252 2.244 . S
O265 C255 1.272 . S
O265 Co257 2.135 . S
Co266 O267 2.216 . S
Co266 O268 2.091 . S
Co266 O270 2.004 1_545 S
Co266 O276 2.021 1_545 S
Co266 O278 2.137 . S
Co266 O279 2.244 . S
O267 Co266 2.216 . S
O267 C274 1.247 . S
O268 Co266 2.091 . S
O268 C274 1.261 . S
C269 O278 1.247 . S
C269 O279 1.272 . S
O270 Co266 2.004 1_565 S
O270 C275 1.259 . S
Co271 O272 2.061 . S
Co271 O277 2.052 . S
Co271 O279 2.135 1_565 S
O272 Co271 2.061 . S
O272 C275 1.235 . S
C273 O276 1.238 . S
C273 O277 1.241 . S
C274 O267 1.247 . S
C274 O268 1.261 . S
C275 O270 1.259 . S
C275 O272 1.235 . S
O276 Co266 2.021 1_565 S
O276 C273 1.238 . S
O277 Co271 2.052 . S
O277 C273 1.241 . S
O278 Co266 2.137 . S
O278 C269 1.247 . S
O279 Co266 2.244 . S
O279 C269 1.272 . S
O279 Co271 2.135 1_545 S
Co280 O281 2.227 . S
Co280 O282 2.097 . S
Co280 O284 1.995 1_556 S
Co280 O290 1.997 1_556 S
Co280 O292 2.162 . S
Co280 O293 2.251 . S
O281 Co280 2.227 . S
O281 C288 1.247 . S
O282 Co280 2.097 . S
O282 C288 1.261 . S
C283 O292 1.247 . S
C283 O293 1.272 . S
O284 Co280 1.995 1_554 S
O284 C289 1.259 . S
Co285 O286 2.061 . S
Co285 O291 2.052 . S
Co285 O293 2.135 1_554 S
O286 Co285 2.061 . S
O286 C289 1.235 . S
C287 O290 1.238 . S
C287 O291 1.241 . S
C288 O281 1.247 . S
C288 O282 1.261 . S
C289 O284 1.259 . S
C289 O286 1.235 . S
O290 Co280 1.997 1_554 S
O290 C287 1.238 . S
O291 Co285 2.052 . S
O291 C287 1.241 . S
O292 Co280 2.162 . S
O292 C283 1.247 . S
O293 Co280 2.251 . S
O293 C283 1.272 . S
O293 Co285 2.135 1_556 S
Co294 O295 2.216 . S
Co294 O296 2.091 . S
Co294 O298 2.004 . S
Co294 O304 2.021 . S
Co294 O306 2.137 . S
Co294 O307 2.244 . S
O295 Co294 2.216 . S
O295 C302 1.247 . S
O296 Co294 2.091 . S
O296 C302 1.261 . S
C297 O306 1.247 . S
C297 O307 1.272 . S
O298 Co294 2.004 . S
O298 C303 1.259 . S
Co299 O300 2.061 . S
Co299 O305 2.052 . S
Co299 O307 2.135 . S
O300 Co299 2.061 . S
O300 C303 1.235 . S
C301 O304 1.238 . S
C301 O305 1.241 . S
C302 O295 1.247 . S
C302 O296 1.261 . S
C303 O298 1.259 . S
C303 O300 1.235 . S
O304 Co294 2.021 . S
O304 C301 1.238 . S
O305 Co299 2.052 . S
O305 C301 1.241 . S
O306 Co294 2.137 . S
O306 C297 1.247 . S
O307 Co294 2.244 . S
O307 C297 1.272 . S
O307 Co299 2.135 . S
Co308 O309 2.216 . S
Co308 O310 2.091 . S
Co308 O312 2.004 . S
Co308 O318 2.021 . S
Co308 O320 2.137 . S
Co308 O321 2.244 . S
O309 Co308 2.216 . S
O309 C316 1.247 . S
O310 Co308 2.091 . S
O310 C316 1.261 . S
C311 O320 1.247 . S
C311 O321 1.272 . S
O312 Co308 2.004 . S
O312 C317 1.259 . S
Co313 O314 2.061 . S
Co313 O319 2.052 . S
Co313 O321 2.135 . S
O314 Co313 2.061 . S
O314 C317 1.235 . S
C315 O318 1.238 . S
C315 O319 1.241 . S
C316 O309 1.247 . S
C316 O310 1.261 . S
C317 O312 1.259 . S
C317 O314 1.235 . S
O318 Co308 2.021 . S
O318 C315 1.238 . S
O319 Co313 2.052 . S
O319 C315 1.241 . S
O320 Co308 2.137 . S
O320 C311 1.247 . S
O321 Co308 2.244 . S
O321 C311 1.272 . S
O321 Co313 2.135 . S
Co322 O323 2.216 . S
Co322 O324 2.091 . S
Co322 O326 2.004 . S
Co322 O332 2.021 . S
Co322 O334 2.137 . S
Co322 O335 2.244 . S
O323 Co322 2.216 . S
O323 C330 1.247 . S
O324 Co322 2.091 . S
O324 C330 1.261 . S
C325 O334 1.247 . S
C325 O335 1.272 . S
O326 Co322 2.004 . S
O326 C331 1.259 . S
Co327 O328 2.061 . S
Co327 O333 2.052 . S
Co327 O335 2.135 . S
O328 Co327 2.061 . S
O328 C331 1.235 . S
C329 O332 1.238 . S
C329 O333 1.241 . S
C330 O323 1.247 . S
C330 O324 1.261 . S
C331 O326 1.259 . S
C331 O328 1.235 . S
O332 Co322 2.021 . S
O332 C329 1.238 . S
O333 Co327 2.052 . S
O333 C329 1.241 . S
O334 Co322 2.137 . S
O334 C325 1.247 . S
O335 Co322 2.244 . S
O335 C325 1.272 . S
O335 Co327 2.135 . S
C336 C337 1.391 . S
C336 C338 1.394 . S
C336 H352 0.931 . S
C337 C336 1.391 . S
C337 C341 1.376 . S
C338 C336 1.394 . S
C338 C339 1.369 . S
C338 C342 1.531 . S
C339 C338 1.369 . S
C339 C340 1.410 . S
C339 C347 1.503 . S
C340 C339 1.410 . S
C340 C341 1.392 . S
C340 C343 1.511 . S
C341 C337 1.376 . S
C341 C340 1.392 . S
C341 H353 0.929 . S
C342 C338 1.531 . S
C342 H354 0.960 . S
C342 H355 0.962 . S
C342 H356 0.960 . S
C343 C340 1.511 . S
C343 H357 0.961 . S
C343 H358 0.961 . S
C343 H359 0.961 . S
C344 C345 1.370 . S
C344 C346 1.363 . S
C344 H360 0.931 . S
C345 C344 1.370 . S
C345 C349 1.408 . S
C346 C344 1.363 . S
C346 C347 1.370 . S
C346 C350 1.524 . S
C347 C339 1.503 . S
C347 C346 1.370 . S
C347 C348 1.403 . S
C348 C347 1.403 . S
C348 C349 1.404 . S
C348 C351 1.539 . S
C349 C345 1.408 . S
C349 C348 1.404 . S
C349 H361 0.930 . S
C350 C346 1.524 . S
C350 H362 0.956 . S
C350 H363 0.961 . S
C350 H364 0.961 . S
C351 C348 1.539 . S
C351 H365 0.958 . S
C351 H366 0.961 . S
C351 H367 0.960 . S
H352 C336 0.931 . S
H353 C341 0.929 . S
H354 C342 0.960 . S
H355 C342 0.962 . S
H356 C342 0.960 . S
H357 C343 0.961 . S
H358 C343 0.961 . S
H359 C343 0.961 . S
H360 C344 0.931 . S
H361 C349 0.930 . S
H362 C350 0.956 . S
H363 C350 0.961 . S
H364 C350 0.961 . S
H365 C351 0.958 . S
H366 C351 0.961 . S
H367 C351 0.960 . S
C368 C369 1.391 . S
C368 C370 1.394 . S
C368 H384 0.931 . S
C369 C368 1.391 . S
C369 C373 1.376 . S
C370 C368 1.394 . S
C370 C371 1.369 . S
C370 C374 1.531 . S
C371 C370 1.369 . S
C371 C372 1.410 . S
C371 C379 1.503 . S
C372 C371 1.410 . S
C372 C373 1.392 . S
C372 C375 1.511 . S
C373 C369 1.376 . S
C373 C372 1.392 . S
C373 H385 0.929 . S
C374 C370 1.531 . S
C374 H386 0.960 . S
C374 H387 0.962 . S
C374 H388 0.960 . S
C375 C372 1.511 . S
C375 H389 0.961 . S
C375 H390 0.961 . S
C375 H391 0.961 . S
C376 C377 1.370 . S
C376 C378 1.363 . S
C376 H392 0.931 . S
C377 C376 1.370 . S
C377 C381 1.408 . S
C378 C376 1.363 . S
C378 C379 1.370 . S
C378 C382 1.524 . S
C379 C371 1.503 . S
C379 C378 1.370 . S
C379 C380 1.403 . S
C380 C379 1.403 . S
C380 C381 1.404 . S
C380 C383 1.539 . S
C381 C377 1.408 . S
C381 C380 1.404 . S
C381 H393 0.930 . S
C382 C378 1.524 . S
C382 H394 0.956 . S
C382 H395 0.961 . S
C382 H396 0.961 . S
C383 C380 1.539 . S
C383 H397 0.958 . S
C383 H398 0.961 . S
C383 H399 0.960 . S
H384 C368 0.931 . S
H385 C373 0.929 . S
H386 C374 0.960 . S
H387 C374 0.962 . S
H388 C374 0.960 . S
H389 C375 0.961 . S
H390 C375 0.961 . S
H391 C375 0.961 . S
H392 C376 0.931 . S
H393 C381 0.930 . S
H394 C382 0.956 . S
H395 C382 0.961 . S
H396 C382 0.961 . S
H397 C383 0.958 . S
H398 C383 0.961 . S
H399 C383 0.960 . S
C400 C401 1.391 . S
C400 C402 1.394 . S
C400 H416 0.931 . S
C401 C400 1.391 . S
C401 C405 1.376 . S
C402 C400 1.394 . S
C402 C403 1.369 . S
C402 C406 1.531 . S
C403 C402 1.369 . S
C403 C404 1.410 . S
C403 C411 1.503 . S
C404 C403 1.410 . S
C404 C405 1.392 . S
C404 C407 1.511 . S
C405 C401 1.376 . S
C405 C404 1.392 . S
C405 H417 0.929 . S
C406 C402 1.531 . S
C406 H418 0.960 . S
C406 H419 0.962 . S
C406 H420 0.960 . S
C407 C404 1.511 . S
C407 H421 0.961 . S
C407 H422 0.961 . S
C407 H423 0.961 . S
C408 C409 1.370 . S
C408 C410 1.363 . S
C408 H424 0.931 . S
C409 C408 1.370 . S
C409 C413 1.408 . S
C410 C408 1.363 . S
C410 C411 1.370 . S
C410 C414 1.524 . S
C411 C403 1.503 . S
C411 C410 1.370 . S
C411 C412 1.403 . S
C412 C411 1.403 . S
C412 C413 1.404 . S
C412 C415 1.539 . S
C413 C409 1.408 . S
C413 C412 1.404 . S
C413 H425 0.930 . S
C414 C410 1.524 . S
C414 H426 0.956 . S
C414 H427 0.961 . S
C414 H428 0.961 . S
C415 C412 1.539 . S
C415 H429 0.958 . S
C415 H430 0.961 . S
C415 H431 0.960 . S
H416 C400 0.931 . S
H417 C405 0.929 . S
H418 C406 0.960 . S
H419 C406 0.962 . S
H420 C406 0.960 . S
H421 C407 0.961 . S
H422 C407 0.961 . S
H423 C407 0.961 . S
H424 C408 0.931 . S
H425 C413 0.930 . S
H426 C414 0.956 . S
H427 C414 0.961 . S
H428 C414 0.961 . S
H429 C415 0.958 . S
H430 C415 0.961 . S
H431 C415 0.960 . S
C432 C433 1.391 . S
C432 C434 1.394 . S
C432 H448 0.931 . S
C433 C432 1.391 . S
C433 C437 1.376 . S
C434 C432 1.394 . S
C434 C435 1.369 . S
C434 C438 1.531 . S
C435 C434 1.369 . S
C435 C436 1.410 . S
C435 C443 1.503 . S
C436 C435 1.410 . S
C436 C437 1.392 . S
C436 C439 1.511 . S
C437 C433 1.376 . S
C437 C436 1.392 . S
C437 H449 0.929 . S
C438 C434 1.531 . S
C438 H450 0.960 . S
C438 H451 0.962 . S
C438 H452 0.960 . S
C439 C436 1.511 . S
C439 H453 0.961 . S
C439 H454 0.961 . S
C439 H455 0.961 . S
C440 C441 1.370 . S
C440 C442 1.363 . S
C440 H456 0.931 . S
C441 C440 1.370 . S
C441 C445 1.408 . S
C442 C440 1.363 . S
C442 C443 1.370 . S
C442 C446 1.524 . S
C443 C435 1.503 . S
C443 C442 1.370 . S
C443 C444 1.403 . S
C444 C443 1.403 . S
C444 C445 1.404 . S
C444 C447 1.539 . S
C445 C441 1.408 . S
C445 C444 1.404 . S
C445 H457 0.930 . S
C446 C442 1.524 . S
C446 H458 0.956 . S
C446 H459 0.961 . S
C446 H460 0.961 . S
C447 C444 1.539 . S
C447 H461 0.958 . S
C447 H462 0.961 . S
C447 H463 0.960 . S
H448 C432 0.931 . S
H449 C437 0.929 . S
H450 C438 0.960 . S
H451 C438 0.962 . S
H452 C438 0.960 . S
H453 C439 0.961 . S
H454 C439 0.961 . S
H455 C439 0.961 . S
H456 C440 0.931 . S
H457 C445 0.930 . S
H458 C446 0.956 . S
H459 C446 0.961 . S
H460 C446 0.961 . S
H461 C447 0.958 . S
H462 C447 0.961 . S
H463 C447 0.960 . S
C464 C465 1.391 . S
C464 C466 1.394 . S
C464 H480 0.931 . S
C465 C464 1.391 . S
C465 C469 1.376 . S
C466 C464 1.394 . S
C466 C467 1.369 . S
C466 C470 1.531 . S
C467 C466 1.369 . S
C467 C468 1.410 . S
C467 C475 1.503 . S
C468 C467 1.410 . S
C468 C469 1.392 . S
C468 C471 1.511 . S
C469 C465 1.376 . S
C469 C468 1.392 . S
C469 H481 0.929 . S
C470 C466 1.531 . S
C470 H482 0.960 . S
C470 H483 0.962 . S
C470 H484 0.960 . S
C471 C468 1.511 . S
C471 H485 0.961 . S
C471 H486 0.961 . S
C471 H487 0.961 . S
C472 C473 1.370 . S
C472 C474 1.363 . S
C472 H488 0.931 . S
C473 C472 1.370 . S
C473 C477 1.408 . S
C474 C472 1.363 . S
C474 C475 1.370 . S
C474 C478 1.524 . S
C475 C467 1.503 . S
C475 C474 1.370 . S
C475 C476 1.403 . S
C476 C475 1.403 . S
C476 C477 1.404 . S
C476 C479 1.539 . S
C477 C473 1.408 . S
C477 C476 1.404 . S
C477 H489 0.930 . S
C478 C474 1.524 . S
C478 H490 0.956 . S
C478 H491 0.961 . S
C478 H492 0.961 . S
C479 C476 1.539 . S
C479 H493 0.958 . S
C479 H494 0.961 . S
C479 H495 0.960 . S
H480 C464 0.931 . S
H481 C469 0.929 . S
H482 C470 0.960 . S
H483 C470 0.962 . S
H484 C470 0.960 . S
H485 C471 0.961 . S
H486 C471 0.961 . S
H487 C471 0.961 . S
H488 C472 0.931 . S
H489 C477 0.930 . S
H490 C478 0.956 . S
H491 C478 0.961 . S
H492 C478 0.961 . S
H493 C479 0.958 . S
H494 C479 0.961 . S
H495 C479 0.960 . S
C496 C497 1.391 . S
C496 C498 1.394 . S
C496 H512 0.931 . S
C497 C496 1.391 . S
C497 C501 1.376 . S
C498 C496 1.394 . S
C498 C499 1.369 . S
C498 C502 1.531 . S
C499 C498 1.369 . S
C499 C500 1.410 . S
C499 C507 1.503 . S
C500 C499 1.410 . S
C500 C501 1.392 . S
C500 C503 1.511 . S
C501 C497 1.376 . S
C501 C500 1.392 . S
C501 H513 0.929 . S
C502 C498 1.531 . S
C502 H514 0.960 . S
C502 H515 0.962 . S
C502 H516 0.960 . S
C503 C500 1.511 . S
C503 H517 0.961 . S
C503 H518 0.961 . S
C503 H519 0.961 . S
C504 C505 1.370 . S
C504 C506 1.363 . S
C504 H520 0.931 . S
C505 C504 1.370 . S
C505 C509 1.408 . S
C506 C504 1.363 . S
C506 C507 1.370 . S
C506 C510 1.524 . S
C507 C499 1.503 . S
C507 C506 1.370 . S
C507 C508 1.403 . S
C508 C507 1.403 . S
C508 C509 1.404 . S
C508 C511 1.539 . S
C509 C505 1.408 . S
C509 C508 1.404 . S
C509 H521 0.930 . S
C510 C506 1.524 . S
C510 H522 0.956 . S
C510 H523 0.961 . S
C510 H524 0.961 . S
C511 C508 1.539 . S
C511 H525 0.958 . S
C511 H526 0.961 . S
C511 H527 0.960 . S
H512 C496 0.931 . S
H513 C501 0.929 . S
H514 C502 0.960 . S
H515 C502 0.962 . S
H516 C502 0.960 . S
H517 C503 0.961 . S
H518 C503 0.961 . S
H519 C503 0.961 . S
H520 C504 0.931 . S
H521 C509 0.930 . S
H522 C510 0.956 . S
H523 C510 0.961 . S
H524 C510 0.961 . S
H525 C511 0.958 . S
H526 C511 0.961 . S
H527 C511 0.960 . S
C528 C529 1.391 . S
C528 C530 1.394 . S
C528 H544 0.931 . S
C529 C528 1.391 . S
C529 C533 1.376 . S
C530 C528 1.394 . S
C530 C531 1.369 . S
C530 C534 1.531 . S
C531 C530 1.369 . S
C531 C532 1.410 . S
C531 C539 1.503 . S
C532 C531 1.410 . S
C532 C533 1.392 . S
C532 C535 1.511 . S
C533 C529 1.376 . S
C533 C532 1.392 . S
C533 H545 0.929 . S
C534 C530 1.531 . S
C534 H546 0.960 . S
C534 H547 0.962 . S
C534 H548 0.960 . S
C535 C532 1.511 . S
C535 H549 0.961 . S
C535 H550 0.961 . S
C535 H551 0.961 . S
C536 C537 1.370 . S
C536 C538 1.363 . S
C536 H552 0.931 . S
C537 C536 1.370 . S
C537 C541 1.408 . S
C538 C536 1.363 . S
C538 C539 1.370 . S
C538 C542 1.524 . S
C539 C531 1.503 . S
C539 C538 1.370 . S
C539 C540 1.403 . S
C540 C539 1.403 . S
C540 C541 1.404 . S
C540 C543 1.539 . S
C541 C537 1.408 . S
C541 C540 1.404 . S
C541 H553 0.930 . S
C542 C538 1.524 . S
C542 H554 0.956 . S
C542 H555 0.961 . S
C542 H556 0.961 . S
C543 C540 1.539 . S
C543 H557 0.958 . S
C543 H558 0.961 . S
C543 H559 0.960 . S
H544 C528 0.931 . S
H545 C533 0.929 . S
H546 C534 0.960 . S
H547 C534 0.962 . S
H548 C534 0.960 . S
H549 C535 0.961 . S
H550 C535 0.961 . S
H551 C535 0.961 . S
H552 C536 0.931 . S
H553 C541 0.930 . S
H554 C542 0.956 . S
H555 C542 0.961 . S
H556 C542 0.961 . S
H557 C543 0.958 . S
H558 C543 0.961 . S
H559 C543 0.960 . S
C560 C561 1.391 . S
C560 C562 1.394 . S
C560 H576 0.931 . S
C561 C560 1.391 . S
C561 C565 1.376 . S
C562 C560 1.394 . S
C562 C563 1.369 . S
C562 C566 1.531 . S
C563 C562 1.369 . S
C563 C564 1.410 . S
C563 C571 1.503 . S
C564 C563 1.410 . S
C564 C565 1.392 . S
C564 C567 1.511 . S
C565 C561 1.376 . S
C565 C564 1.392 . S
C565 H577 0.929 . S
C566 C562 1.531 . S
C566 H578 0.960 . S
C566 H579 0.962 . S
C566 H580 0.960 . S
C567 C564 1.511 . S
C567 H581 0.961 . S
C567 H582 0.961 . S
C567 H583 0.961 . S
C568 C569 1.370 . S
C568 C570 1.363 . S
C568 H584 0.931 . S
C569 C568 1.370 . S
C569 C573 1.408 . S
C570 C568 1.363 . S
C570 C571 1.370 . S
C570 C574 1.524 . S
C571 C563 1.503 . S
C571 C570 1.370 . S
C571 C572 1.403 . S
C572 C571 1.403 . S
C572 C573 1.404 . S
C572 C575 1.539 . S
C573 C569 1.408 . S
C573 C572 1.404 . S
C573 H585 0.930 . S
C574 C570 1.524 . S
C574 H586 0.956 . S
C574 H587 0.961 . S
C574 H588 0.961 1_556 S
C575 C572 1.539 . S
C575 H589 0.958 . S
C575 H590 0.961 . S
C575 H591 0.960 . S
H576 C560 0.931 . S
H577 C565 0.929 . S
H578 C566 0.960 . S
H579 C566 0.962 . S
H580 C566 0.960 . S
H581 C567 0.961 . S
H582 C567 0.961 . S
H583 C567 0.961 . S
H584 C568 0.931 . S
H585 C573 0.930 . S
H586 C574 0.956 . S
H587 C574 0.961 . S
H588 C574 0.961 1_554 S
H589 C575 0.958 . S
H590 C575 0.961 . S
H591 C575 0.960 . S
C592 C593 1.391 . S
C592 C594 1.394 . S
C592 H608 0.931 . S
C593 C592 1.391 . S
C593 C597 1.376 . S
C594 C592 1.394 . S
C594 C595 1.369 . S
C594 C598 1.531 . S
C595 C594 1.369 . S
C595 C596 1.410 . S
C595 C603 1.503 . S
C596 C595 1.410 . S
C596 C597 1.392 . S
C596 C599 1.511 . S
C597 C593 1.376 . S
C597 C596 1.392 . S
C597 H609 0.929 . S
C598 C594 1.531 . S
C598 H610 0.960 . S
C598 H611 0.962 . S
C598 H612 0.960 . S
C599 C596 1.511 . S
C599 H613 0.961 . S
C599 H614 0.961 . S
C599 H615 0.961 . S
C600 C601 1.370 . S
C600 C602 1.363 . S
C600 H616 0.931 . S
C601 C600 1.370 . S
C601 C605 1.408 . S
C602 C600 1.363 . S
C602 C603 1.370 . S
C602 C606 1.524 . S
C603 C595 1.503 . S
C603 C602 1.370 . S
C603 C604 1.403 . S
C604 C603 1.403 . S
C604 C605 1.404 . S
C604 C607 1.539 . S
C605 C601 1.408 . S
C605 C604 1.404 . S
C605 H617 0.930 . S
C606 C602 1.524 . S
C606 H618 0.956 . S
C606 H619 0.961 . S
C606 H620 0.961 . S
C607 C604 1.539 . S
C607 H621 0.958 . S
C607 H622 0.961 1_545 S
C607 H623 0.960 . S
H608 C592 0.931 . S
H609 C597 0.929 . S
H610 C598 0.960 . S
H611 C598 0.962 . S
H612 C598 0.960 . S
H613 C599 0.961 . S
H614 C599 0.961 . S
H615 C599 0.961 . S
H616 C600 0.931 . S
H617 C605 0.930 . S
H618 C606 0.956 . S
H619 C606 0.961 . S
H620 C606 0.961 . S
H621 C607 0.958 . S
H622 C607 0.961 1_565 S
H623 C607 0.960 . S
C624 C625 1.391 . S
C624 C626 1.394 . S
C624 H640 0.931 . S
C625 C624 1.391 . S
C625 C629 1.376 . S
C626 C624 1.394 . S
C626 C627 1.369 . S
C626 C630 1.531 . S
C627 C626 1.369 . S
C627 C628 1.410 . S
C627 C635 1.503 . S
C628 C627 1.410 . S
C628 C629 1.392 . S
C628 C631 1.511 . S
C629 C625 1.376 . S
C629 C628 1.392 . S
C629 H641 0.929 . S
C630 C626 1.531 . S
C630 H642 0.960 . S
C630 H643 0.962 . S
C630 H644 0.960 . S
C631 C628 1.511 . S
C631 H645 0.961 . S
C631 H646 0.961 . S
C631 H647 0.961 . S
C632 C633 1.370 . S
C632 C634 1.363 . S
C632 H648 0.931 . S
C633 C632 1.370 . S
C633 C637 1.408 . S
C634 C632 1.363 . S
C634 C635 1.370 . S
C634 C638 1.524 . S
C635 C627 1.503 . S
C635 C634 1.370 . S
C635 C636 1.403 . S
C636 C635 1.403 . S
C636 C637 1.404 . S
C636 C639 1.539 . S
C637 C633 1.408 . S
C637 C636 1.404 . S
C637 H649 0.930 . S
C638 C634 1.524 . S
C638 H650 0.956 . S
C638 H651 0.961 . S
C638 H652 0.961 . S
C639 C636 1.539 . S
C639 H653 0.958 . S
C639 H654 0.961 . S
C639 H655 0.960 . S
H640 C624 0.931 . S
H641 C629 0.929 . S
H642 C630 0.960 . S
H643 C630 0.962 . S
H644 C630 0.960 . S
H645 C631 0.961 . S
H646 C631 0.961 . S
H647 C631 0.961 . S
H648 C632 0.931 . S
H649 C637 0.930 . S
H650 C638 0.956 . S
H651 C638 0.961 . S
H652 C638 0.961 . S
H653 C639 0.958 . S
H654 C639 0.961 . S
H655 C639 0.960 . S
C656 C657 1.391 . S
C656 C658 1.394 . S
C656 H672 0.931 . S
C657 C656 1.391 . S
C657 C661 1.376 . S
C658 C656 1.394 . S
C658 C659 1.369 . S
C658 C662 1.531 . S
C659 C658 1.369 . S
C659 C660 1.410 . S
C659 C667 1.503 . S
C660 C659 1.410 . S
C660 C661 1.392 . S
C660 C663 1.511 . S
C661 C657 1.376 . S
C661 C660 1.392 . S
C661 H673 0.929 . S
C662 C658 1.531 . S
C662 H674 0.960 . S
C662 H675 0.962 . S
C662 H676 0.960 . S
C663 C660 1.511 . S
C663 H677 0.961 . S
C663 H678 0.961 . S
C663 H679 0.961 . S
C664 C665 1.370 . S
C664 C666 1.363 . S
C664 H680 0.931 . S
C665 C664 1.370 . S
C665 C669 1.408 . S
C666 C664 1.363 . S
C666 C667 1.370 . S
C666 C670 1.524 . S
C667 C659 1.503 . S
C667 C666 1.370 . S
C667 C668 1.403 . S
C668 C667 1.403 . S
C668 C669 1.404 . S
C668 C671 1.539 . S
C669 C665 1.408 . S
C669 C668 1.404 . S
C669 H681 0.930 . S
C670 C666 1.524 . S
C670 H682 0.956 . S
C670 H683 0.961 . S
C670 H684 0.961 . S
C671 C668 1.539 . S
C671 H685 0.958 . S
C671 H686 0.961 . S
C671 H687 0.960 . S
H672 C656 0.931 . S
H673 C661 0.929 . S
H674 C662 0.960 . S
H675 C662 0.962 . S
H676 C662 0.960 . S
H677 C663 0.961 . S
H678 C663 0.961 . S
H679 C663 0.961 . S
H680 C664 0.931 . S
H681 C669 0.930 . S
H682 C670 0.956 . S
H683 C670 0.961 . S
H684 C670 0.961 . S
H685 C671 0.958 . S
H686 C671 0.961 . S
H687 C671 0.960 . S
C688 C689 1.391 . S
C688 C690 1.394 . S
C688 H704 0.931 . S
C689 C688 1.391 . S
C689 C693 1.376 . S
C690 C688 1.394 . S
C690 C691 1.369 . S
C690 C694 1.531 . S
C691 C690 1.369 . S
C691 C692 1.410 . S
C691 C699 1.503 . S
C692 C691 1.410 . S
C692 C693 1.392 . S
C692 C695 1.511 . S
C693 C689 1.376 . S
C693 C692 1.392 . S
C693 H705 0.929 . S
C694 C690 1.531 . S
C694 H706 0.960 . S
C694 H707 0.962 . S
C694 H708 0.960 . S
C695 C692 1.511 . S
C695 H709 0.961 . S
C695 H710 0.961 . S
C695 H711 0.961 . S
C696 C697 1.370 . S
C696 C698 1.363 . S
C696 H712 0.931 . S
C697 C696 1.370 . S
C697 C701 1.408 . S
C698 C696 1.363 . S
C698 C699 1.370 . S
C698 C702 1.524 . S
C699 C691 1.503 . S
C699 C698 1.370 . S
C699 C700 1.403 . S
C700 C699 1.403 . S
C700 C701 1.404 . S
C700 C703 1.539 . S
C701 C697 1.408 . S
C701 C700 1.404 . S
C701 H713 0.930 . S
C702 C698 1.524 . S
C702 H714 0.956 . S
C702 H715 0.961 . S
C702 H716 0.961 . S
C703 C700 1.539 . S
C703 H717 0.958 . S
C703 H718 0.961 . S
C703 H719 0.960 . S
H704 C688 0.931 . S
H705 C693 0.929 . S
H706 C694 0.960 . S
H707 C694 0.962 . S
H708 C694 0.960 . S
H709 C695 0.961 . S
H710 C695 0.961 . S
H711 C695 0.961 . S
H712 C696 0.931 . S
H713 C701 0.930 . S
H714 C702 0.956 . S
H715 C702 0.961 . S
H716 C702 0.961 . S
H717 C703 0.958 . S
H718 C703 0.961 . S
H719 C703 0.960 . S
C720 C721 1.391 . S
C720 C722 1.394 . S
C720 H736 0.931 . S
C721 C720 1.391 . S
C721 C725 1.376 . S
C722 C720 1.394 . S
C722 C723 1.369 . S
C722 C726 1.531 . S
C723 C722 1.369 . S
C723 C724 1.410 . S
C723 C731 1.503 . S
C724 C723 1.410 . S
C724 C725 1.392 . S
C724 C727 1.511 . S
C725 C721 1.376 . S
C725 C724 1.392 . S
C725 H737 0.929 . S
C726 C722 1.531 . S
C726 H738 0.960 . S
C726 H739 0.962 . S
C726 H740 0.960 . S
C727 C724 1.511 . S
C727 H741 0.961 . S
C727 H742 0.961 . S
C727 H743 0.961 . S
C728 C729 1.370 . S
C728 C730 1.363 . S
C728 H744 0.931 . S
C729 C728 1.370 . S
C729 C733 1.408 . S
C730 C728 1.363 . S
C730 C731 1.370 . S
C730 C734 1.524 . S
C731 C723 1.503 . S
C731 C730 1.370 . S
C731 C732 1.403 . S
C732 C731 1.403 . S
C732 C733 1.404 . S
C732 C735 1.539 . S
C733 C729 1.408 . S
C733 C732 1.404 . S
C733 H745 0.930 . S
C734 C730 1.524 . S
C734 H746 0.956 . S
C734 H747 0.961 . S
C734 H748 0.961 . S
C735 C732 1.539 . S
C735 H749 0.958 . S
C735 H750 0.961 . S
C735 H751 0.960 . S
H736 C720 0.931 . S
H737 C725 0.929 . S
H738 C726 0.960 . S
H739 C726 0.962 . S
H740 C726 0.960 . S
H741 C727 0.961 . S
H742 C727 0.961 . S
H743 C727 0.961 . S
H744 C728 0.931 . S
H745 C733 0.930 . S
H746 C734 0.956 . S
H747 C734 0.961 . S
H748 C734 0.961 . S
H749 C735 0.958 . S
H750 C735 0.961 . S
H751 C735 0.960 . S
C752 C753 1.391 . S
C752 C754 1.394 . S
C752 H768 0.931 . S
C753 C752 1.391 . S
C753 C757 1.376 . S
C754 C752 1.394 . S
C754 C755 1.369 . S
C754 C758 1.531 . S
C755 C754 1.369 . S
C755 C756 1.410 . S
C755 C763 1.503 . S
C756 C755 1.410 . S
C756 C757 1.392 . S
C756 C759 1.511 . S
C757 C753 1.376 . S
C757 C756 1.392 . S
C757 H769 0.929 . S
C758 C754 1.531 . S
C758 H770 0.960 . S
C758 H771 0.962 . S
C758 H772 0.960 . S
C759 C756 1.511 . S
C759 H773 0.961 . S
C759 H774 0.961 . S
C759 H775 0.961 . S
C760 C761 1.370 . S
C760 C762 1.363 . S
C760 H776 0.931 . S
C761 C760 1.370 . S
C761 C765 1.408 . S
C762 C760 1.363 . S
C762 C763 1.370 . S
C762 C766 1.524 . S
C763 C755 1.503 . S
C763 C762 1.370 . S
C763 C764 1.403 . S
C764 C763 1.403 . S
C764 C765 1.404 . S
C764 C767 1.539 . S
C765 C761 1.408 . S
C765 C764 1.404 . S
C765 H777 0.930 . S
C766 C762 1.524 . S
C766 H778 0.956 . S
C766 H779 0.961 . S
C766 H780 0.961 . S
C767 C764 1.539 . S
C767 H781 0.958 . S
C767 H782 0.961 . S
C767 H783 0.960 . S
H768 C752 0.931 . S
H769 C757 0.929 . S
H770 C758 0.960 . S
H771 C758 0.962 . S
H772 C758 0.960 . S
H773 C759 0.961 . S
H774 C759 0.961 . S
H775 C759 0.961 . S
H776 C760 0.931 . S
H777 C765 0.930 . S
H778 C766 0.956 . S
H779 C766 0.961 . S
H780 C766 0.961 . S
H781 C767 0.958 . S
H782 C767 0.961 . S
H783 C767 0.960 . S
C784 C785 1.391 . S
C784 C786 1.394 . S
C784 H800 0.931 . S
C785 C784 1.391 . S
C785 C789 1.376 . S
C786 C784 1.394 . S
C786 C787 1.369 . S
C786 C790 1.531 . S
C787 C786 1.369 . S
C787 C788 1.410 . S
C787 C795 1.503 . S
C788 C787 1.410 . S
C788 C789 1.392 . S
C788 C791 1.511 . S
C789 C785 1.376 . S
C789 C788 1.392 . S
C789 H801 0.929 . S
C790 C786 1.531 . S
C790 H802 0.960 . S
C790 H803 0.962 . S
C790 H804 0.960 . S
C791 C788 1.511 . S
C791 H805 0.961 . S
C791 H806 0.961 . S
C791 H807 0.961 . S
C792 C793 1.370 . S
C792 C794 1.363 . S
C792 H808 0.931 . S
C793 C792 1.370 . S
C793 C797 1.408 . S
C794 C792 1.363 . S
C794 C795 1.370 . S
C794 C798 1.524 . S
C795 C787 1.503 . S
C795 C794 1.370 . S
C795 C796 1.403 . S
C796 C795 1.403 . S
C796 C797 1.404 . S
C796 C799 1.539 . S
C797 C793 1.408 . S
C797 C796 1.404 . S
C797 H809 0.930 . S
C798 C794 1.524 . S
C798 H810 0.956 . S
C798 H811 0.961 . S
C798 H812 0.961 . S
C799 C796 1.539 . S
C799 H813 0.958 . S
C799 H814 0.961 . S
C799 H815 0.960 . S
H800 C784 0.931 . S
H801 C789 0.929 . S
H802 C790 0.960 . S
H803 C790 0.962 . S
H804 C790 0.960 . S
H805 C791 0.961 . S
H806 C791 0.961 . S
H807 C791 0.961 . S
H808 C792 0.931 . S
H809 C797 0.930 . S
H810 C798 0.956 . S
H811 C798 0.961 . S
H812 C798 0.961 . S
H813 C799 0.958 . S
H814 C799 0.961 . S
H815 C799 0.960 . S
C816 C817 1.391 . S
C816 C818 1.394 . S
C816 H832 0.931 . S
C817 C816 1.391 . S
C817 C821 1.376 . S
C818 C816 1.394 . S
C818 C819 1.369 . S
C818 C822 1.531 . S
C819 C818 1.369 . S
C819 C820 1.410 . S
C819 C827 1.503 . S
C820 C819 1.410 . S
C820 C821 1.392 . S
C820 C823 1.511 . S
C821 C817 1.376 . S
C821 C820 1.392 . S
C821 H833 0.929 1_655 S
C822 C818 1.531 . S
C822 H834 0.960 . S
C822 H835 0.962 . S
C822 H836 0.960 . S
C823 C820 1.511 . S
C823 H837 0.961 1_655 S
C823 H838 0.961 . S
C823 H839 0.961 . S
C824 C825 1.370 . S
C824 C826 1.363 . S
C824 H840 0.931 . S
C825 C824 1.370 . S
C825 C829 1.408 . S
C826 C824 1.363 . S
C826 C827 1.370 . S
C826 C830 1.524 . S
C827 C819 1.503 . S
C827 C826 1.370 . S
C827 C828 1.403 . S
C828 C827 1.403 . S
C828 C829 1.404 . S
C828 C831 1.539 . S
C829 C825 1.408 . S
C829 C828 1.404 . S
C829 H841 0.930 . S
C830 C826 1.524 . S
C830 H842 0.956 . S
C830 H843 0.961 . S
C830 H844 0.961 . S
C831 C828 1.539 . S
C831 H845 0.958 . S
C831 H846 0.961 . S
C831 H847 0.960 . S
H832 C816 0.931 . S
H833 C821 0.929 1_455 S
H834 C822 0.960 . S
H835 C822 0.962 . S
H836 C822 0.960 . S
H837 C823 0.961 1_455 S
H838 C823 0.961 . S
H839 C823 0.961 . S
H840 C824 0.931 . S
H841 C829 0.930 . S
H842 C830 0.956 . S
H843 C830 0.961 . S
H844 C830 0.961 . S
H845 C831 0.958 . S
H846 C831 0.961 . S
H847 C831 0.960 . S
C848 C849 1.391 . S
C848 C850 1.394 . S
C848 H864 0.931 . S
C849 C848 1.391 . S
C849 C853 1.376 . S
C850 C848 1.394 . S
C850 C851 1.369 . S
C850 C854 1.531 . S
C851 C850 1.369 . S
C851 C852 1.410 . S
C851 C859 1.503 . S
C852 C851 1.410 . S
C852 C853 1.392 . S
C852 C855 1.511 . S
C853 C849 1.376 . S
C853 C852 1.392 . S
C853 H865 0.929 . S
C854 C850 1.531 . S
C854 H866 0.960 . S
C854 H867 0.962 . S
C854 H868 0.960 . S
C855 C852 1.511 . S
C855 H869 0.961 . S
C855 H870 0.961 . S
C855 H871 0.961 . S
C856 C857 1.370 . S
C856 C858 1.363 . S
C856 H872 0.931 . S
C857 C856 1.370 . S
C857 C861 1.408 . S
C858 C856 1.363 . S
C858 C859 1.370 . S
C858 C862 1.524 . S
C859 C851 1.503 . S
C859 C858 1.370 . S
C859 C860 1.403 . S
C860 C859 1.403 . S
C860 C861 1.404 . S
C860 C863 1.539 . S
C861 C857 1.408 . S
C861 C860 1.404 . S
C861 H873 0.930 . S
C862 C858 1.524 . S
C862 H874 0.956 . S
C862 H875 0.961 . S
C862 H876 0.961 . S
C863 C860 1.539 . S
C863 H877 0.958 . S
C863 H878 0.961 . S
C863 H879 0.960 . S
H864 C848 0.931 . S
H865 C853 0.929 . S
H866 C854 0.960 . S
H867 C854 0.962 . S
H868 C854 0.960 . S
H869 C855 0.961 . S
H870 C855 0.961 . S
H871 C855 0.961 . S
H872 C856 0.931 . S
H873 C861 0.930 . S
H874 C862 0.956 . S
H875 C862 0.961 . S
H876 C862 0.961 . S
H877 C863 0.958 . S
H878 C863 0.961 . S
H879 C863 0.960 . S
C880 C881 1.391 . S
C880 C882 1.394 . S
C880 H896 0.931 . S
C881 C880 1.391 . S
C881 C885 1.376 . S
C882 C880 1.394 . S
C882 C883 1.369 . S
C882 C886 1.531 . S
C883 C882 1.369 . S
C883 C884 1.410 . S
C883 C891 1.503 . S
C884 C883 1.410 . S
C884 C885 1.392 . S
C884 C887 1.511 . S
C885 C881 1.376 . S
C885 C884 1.392 . S
C885 H897 0.929 . S
C886 C882 1.531 . S
C886 H898 0.960 . S
C886 H899 0.962 . S
C886 H900 0.960 . S
C887 C884 1.511 . S
C887 H901 0.961 . S
C887 H902 0.961 . S
C887 H903 0.961 . S
C888 C889 1.370 . S
C888 C890 1.363 . S
C888 H904 0.931 . S
C889 C888 1.370 . S
C889 C893 1.408 . S
C890 C888 1.363 . S
C890 C891 1.370 . S
C890 C894 1.524 . S
C891 C883 1.503 . S
C891 C890 1.370 . S
C891 C892 1.403 . S
C892 C891 1.403 . S
C892 C893 1.404 . S
C892 C895 1.539 . S
C893 C889 1.408 . S
C893 C892 1.404 . S
C893 H905 0.930 . S
C894 C890 1.524 . S
C894 H906 0.956 . S
C894 H907 0.961 . S
C894 H908 0.961 . S
C895 C892 1.539 . S
C895 H909 0.958 . S
C895 H910 0.961 . S
C895 H911 0.960 . S
H896 C880 0.931 . S
H897 C885 0.929 . S
H898 C886 0.960 . S
H899 C886 0.962 . S
H900 C886 0.960 . S
H901 C887 0.961 . S
H902 C887 0.961 . S
H903 C887 0.961 . S
H904 C888 0.931 . S
H905 C893 0.930 . S
H906 C894 0.956 . S
H907 C894 0.961 . S
H908 C894 0.961 . S
H909 C895 0.958 . S
H910 C895 0.961 . S
H911 C895 0.960 . S
C912 C913 1.391 . S
C912 C914 1.394 . S
C912 H928 0.931 1_556 S
C913 C912 1.391 . S
C913 C917 1.376 . S
C914 C912 1.394 . S
C914 C915 1.369 . S
C914 C918 1.531 . S
C915 C914 1.369 . S
C915 C916 1.410 . S
C915 C923 1.503 . S
C916 C915 1.410 . S
C916 C917 1.392 . S
C916 C919 1.511 . S
C917 C913 1.376 . S
C917 C916 1.392 . S
C917 H929 0.929 . S
C918 C914 1.531 . S
C918 H930 0.960 . S
C918 H931 0.962 . S
C918 H932 0.960 1_556 S
C919 C916 1.511 . S
C919 H933 0.961 . S
C919 H934 0.961 . S
C919 H935 0.961 . S
C920 C921 1.370 . S
C920 C922 1.363 . S
C920 H936 0.931 . S
C921 C920 1.370 . S
C921 C925 1.408 . S
C922 C920 1.363 . S
C922 C923 1.370 . S
C922 C926 1.524 . S
C923 C915 1.503 . S
C923 C922 1.370 . S
C923 C924 1.403 . S
C924 C923 1.403 . S
C924 C925 1.404 . S
C924 C927 1.539 . S
C925 C921 1.408 . S
C925 C924 1.404 . S
C925 H937 0.930 . S
C926 C922 1.524 . S
C926 H938 0.956 . S
C926 H939 0.961 . S
C926 H940 0.961 . S
C927 C924 1.539 . S
C927 H941 0.958 . S
C927 H942 0.961 . S
C927 H943 0.960 . S
H928 C912 0.931 1_554 S
H929 C917 0.929 . S
H930 C918 0.960 . S
H931 C918 0.962 . S
H932 C918 0.960 1_554 S
H933 C919 0.961 . S
H934 C919 0.961 . S
H935 C919 0.961 . S
H936 C920 0.931 . S
H937 C925 0.930 . S
H938 C926 0.956 . S
H939 C926 0.961 . S
H940 C926 0.961 . S
H941 C927 0.958 . S
H942 C927 0.961 . S
H943 C927 0.960 . S
C944 C945 1.391 . S
C944 C946 1.394 . S
C944 H960 0.931 . S
C945 C944 1.391 . S
C945 C949 1.376 . S
C946 C944 1.394 . S
C946 C947 1.369 . S
C946 C950 1.531 . S
C947 C946 1.369 . S
C947 C948 1.410 . S
C947 C955 1.503 . S
C948 C947 1.410 . S
C948 C949 1.392 . S
C948 C951 1.511 . S
C949 C945 1.376 . S
C949 C948 1.392 . S
C949 H961 0.929 . S
C950 C946 1.531 . S
C950 H962 0.960 . S
C950 H963 0.962 . S
C950 H964 0.960 . S
C951 C948 1.511 . S
C951 H965 0.961 . S
C951 H966 0.961 . S
C951 H967 0.961 . S
C952 C953 1.370 . S
C952 C954 1.363 . S
C952 H968 0.931 . S
C953 C952 1.370 . S
C953 C957 1.408 . S
C954 C952 1.363 . S
C954 C955 1.370 . S
C954 C958 1.524 . S
C955 C947 1.503 . S
C955 C954 1.370 . S
C955 C956 1.403 . S
C956 C955 1.403 . S
C956 C957 1.404 . S
C956 C959 1.539 . S
C957 C953 1.408 . S
C957 C956 1.404 . S
C957 H969 0.930 . S
C958 C954 1.524 . S
C958 H970 0.956 . S
C958 H971 0.961 . S
C958 H972 0.961 . S
C959 C956 1.539 . S
C959 H973 0.958 . S
C959 H974 0.961 . S
C959 H975 0.960 . S
H960 C944 0.931 . S
H961 C949 0.929 . S
H962 C950 0.960 . S
H963 C950 0.962 . S
H964 C950 0.960 . S
H965 C951 0.961 . S
H966 C951 0.961 . S
H967 C951 0.961 . S
H968 C952 0.931 . S
H969 C957 0.930 . S
H970 C958 0.956 . S
H971 C958 0.961 . S
H972 C958 0.961 . S
H973 C959 0.958 . S
H974 C959 0.961 . S
H975 C959 0.960 . S
C976 C977 1.391 . S
C976 C978 1.394 . S
C976 H992 0.931 . S
C977 C976 1.391 . S
C977 C981 1.376 . S
C978 C976 1.394 . S
C978 C979 1.369 . S
C978 C982 1.531 . S
C979 C978 1.369 . S
C979 C980 1.410 . S
C979 C987 1.503 . S
C980 C979 1.410 . S
C980 C981 1.392 . S
C980 C983 1.511 . S
C981 C977 1.376 . S
C981 C980 1.392 . S
C981 H993 0.929 . S
C982 C978 1.531 . S
C982 H994 0.960 . S
C982 H995 0.962 . S
C982 H996 0.960 . S
C983 C980 1.511 . S
C983 H997 0.961 . S
C983 H998 0.961 . S
C983 H999 0.961 . S
C984 C985 1.370 . S
C984 C986 1.363 . S
C984 H1000 0.931 . S
C985 C984 1.370 . S
C985 C989 1.408 . S
C986 C984 1.363 . S
C986 C987 1.370 . S
C986 C990 1.524 . S
C987 C979 1.503 . S
C987 C986 1.370 . S
C987 C988 1.403 . S
C988 C987 1.403 . S
C988 C989 1.404 . S
C988 C991 1.539 . S
C989 C985 1.408 . S
C989 C988 1.404 . S
C989 H1001 0.930 . S
C990 C986 1.524 . S
C990 H1002 0.956 . S
C990 H1003 0.961 . S
C990 H1004 0.961 . S
C991 C988 1.539 . S
C991 H1005 0.958 . S
C991 H1006 0.961 . S
C991 H1007 0.960 . S
H992 C976 0.931 . S
H993 C981 0.929 . S
H994 C982 0.960 . S
H995 C982 0.962 . S
H996 C982 0.960 . S
H997 C983 0.961 . S
H998 C983 0.961 . S
H999 C983 0.961 . S
H1000 C984 0.931 . S
H1001 C989 0.930 . S
H1002 C990 0.956 . S
H1003 C990 0.961 . S
H1004 C990 0.961 . S
H1005 C991 0.958 . S
H1006 C991 0.961 . S
H1007 C991 0.960 . S
C1008 C1009 1.391 . S
C1008 C1010 1.394 . S
C1008 H1024 0.931 . S
C1009 C1008 1.391 . S
C1009 C1013 1.376 . S
C1010 C1008 1.394 . S
C1010 C1011 1.369 . S
C1010 C1014 1.531 . S
C1011 C1010 1.369 . S
C1011 C1012 1.410 . S
C1011 C1019 1.503 . S
C1012 C1011 1.410 . S
C1012 C1013 1.392 . S
C1012 C1015 1.511 . S
C1013 C1009 1.376 . S
C1013 C1012 1.392 . S
C1013 H1025 0.929 . S
C1014 C1010 1.531 . S
C1014 H1026 0.960 . S
C1014 H1027 0.962 . S
C1014 H1028 0.960 . S
C1015 C1012 1.511 . S
C1015 H1029 0.961 . S
C1015 H1030 0.961 . S
C1015 H1031 0.961 . S
C1016 C1017 1.370 . S
C1016 C1018 1.363 . S
C1016 H1032 0.931 . S
C1017 C1016 1.370 . S
C1017 C1021 1.408 . S
C1018 C1016 1.363 . S
C1018 C1019 1.370 . S
C1018 C1022 1.524 . S
C1019 C1011 1.503 . S
C1019 C1018 1.370 . S
C1019 C1020 1.403 . S
C1020 C1019 1.403 . S
C1020 C1021 1.404 . S
C1020 C1023 1.539 . S
C1021 C1017 1.408 . S
C1021 C1020 1.404 . S
C1021 H1033 0.930 . S
C1022 C1018 1.524 . S
C1022 H1034 0.956 . S
C1022 H1035 0.961 . S
C1022 H1036 0.961 . S
C1023 C1020 1.539 . S
C1023 H1037 0.958 . S
C1023 H1038 0.961 . S
C1023 H1039 0.960 . S
H1024 C1008 0.931 . S
H1025 C1013 0.929 . S
H1026 C1014 0.960 . S
H1027 C1014 0.962 . S
H1028 C1014 0.960 . S
H1029 C1015 0.961 . S
H1030 C1015 0.961 . S
H1031 C1015 0.961 . S
H1032 C1016 0.931 . S
H1033 C1021 0.930 . S
H1034 C1022 0.956 . S
H1035 C1022 0.961 . S
H1036 C1022 0.961 . S
H1037 C1023 0.958 . S
H1038 C1023 0.961 . S
H1039 C1023 0.960 . S
C1040 C1041 1.391 . S
C1040 C1042 1.394 . S
C1040 H1056 0.931 . S
C1041 C1040 1.391 . S
C1041 C1045 1.376 . S
C1042 C1040 1.394 . S
C1042 C1043 1.369 . S
C1042 C1046 1.531 . S
C1043 C1042 1.369 . S
C1043 C1044 1.410 . S
C1043 C1051 1.503 . S
C1044 C1043 1.410 . S
C1044 C1045 1.392 . S
C1044 C1047 1.511 . S
C1045 C1041 1.376 . S
C1045 C1044 1.392 . S
C1045 H1057 0.929 . S
C1046 C1042 1.531 . S
C1046 H1058 0.960 . S
C1046 H1059 0.962 . S
C1046 H1060 0.960 . S
C1047 C1044 1.511 . S
C1047 H1061 0.961 . S
C1047 H1062 0.961 . S
C1047 H1063 0.961 . S
C1048 C1049 1.370 . S
C1048 C1050 1.363 . S
C1048 H1064 0.931 . S
C1049 C1048 1.370 . S
C1049 C1053 1.408 . S
C1050 C1048 1.363 . S
C1050 C1051 1.370 . S
C1050 C1054 1.524 . S
C1051 C1043 1.503 . S
C1051 C1050 1.370 . S
C1051 C1052 1.403 . S
C1052 C1051 1.403 . S
C1052 C1053 1.404 . S
C1052 C1055 1.539 . S
C1053 C1049 1.408 . S
C1053 C1052 1.404 . S
C1053 H1065 0.930 . S
C1054 C1050 1.524 . S
C1054 H1066 0.956 . S
C1054 H1067 0.961 . S
C1054 H1068 0.961 . S
C1055 C1052 1.539 . S
C1055 H1069 0.958 . S
C1055 H1070 0.961 1_554 S
C1055 H1071 0.960 . S
H1056 C1040 0.931 . S
H1057 C1045 0.929 . S
H1058 C1046 0.960 . S
H1059 C1046 0.962 . S
H1060 C1046 0.960 . S
H1061 C1047 0.961 . S
H1062 C1047 0.961 . S
H1063 C1047 0.961 . S
H1064 C1048 0.931 . S
H1065 C1053 0.930 . S
H1066 C1054 0.956 . S
H1067 C1054 0.961 . S
H1068 C1054 0.961 . S
H1069 C1055 0.958 . S
H1070 C1055 0.961 1_556 S
H1071 C1055 0.960 . S
C1072 C1073 1.391 . S
C1072 C1074 1.394 . S
C1072 H1088 0.931 . S
C1073 C1072 1.391 . S
C1073 C1077 1.376 . S
C1074 C1072 1.394 . S
C1074 C1075 1.369 . S
C1074 C1078 1.531 . S
C1075 C1074 1.369 . S
C1075 C1076 1.410 . S
C1075 C1083 1.503 . S
C1076 C1075 1.410 . S
C1076 C1077 1.392 . S
C1076 C1079 1.511 . S
C1077 C1073 1.376 . S
C1077 C1076 1.392 . S
C1077 H1089 0.929 . S
C1078 C1074 1.531 . S
C1078 H1090 0.960 . S
C1078 H1091 0.962 . S
C1078 H1092 0.960 . S
C1079 C1076 1.511 . S
C1079 H1093 0.961 . S
C1079 H1094 0.961 . S
C1079 H1095 0.961 . S
C1080 C1081 1.370 . S
C1080 C1082 1.363 . S
C1080 H1096 0.931 . S
C1081 C1080 1.370 . S
C1081 C1085 1.408 . S
C1082 C1080 1.363 . S
C1082 C1083 1.370 . S
C1082 C1086 1.524 . S
C1083 C1075 1.503 . S
C1083 C1082 1.370 . S
C1083 C1084 1.403 . S
C1084 C1083 1.403 . S
C1084 C1085 1.404 . S
C1084 C1087 1.539 . S
C1085 C1081 1.408 . S
C1085 C1084 1.404 . S
C1085 H1097 0.930 . S
C1086 C1082 1.524 . S
C1086 H1098 0.956 . S
C1086 H1099 0.961 . S
C1086 H1100 0.942 1_565 S
C1087 C1084 1.539 . S
C1087 H1101 0.958 . S
C1087 H1102 0.961 . S
C1087 H1103 0.960 . S
H1088 C1072 0.931 . S
H1089 C1077 0.929 . S
H1090 C1078 0.960 . S
H1091 C1078 0.962 . S
H1092 C1078 0.960 . S
H1093 C1079 0.961 . S
H1094 C1079 0.961 . S
H1095 C1079 0.961 . S
H1096 C1080 0.931 . S
H1097 C1085 0.930 . S
H1098 C1086 0.956 . S
H1099 C1086 0.961 . S
H1100 C1086 0.942 1_545 S
H1101 C1087 0.958 . S
H1102 C1087 0.961 . S
H1103 C1087 0.960 . S
C1104 C1105 1.391 . S
C1104 C1106 1.394 . S
C1104 H1120 0.931 . S
C1105 C1104 1.391 . S
C1105 C1109 1.376 . S
C1106 C1104 1.394 . S
C1106 C1107 1.369 . S
C1106 C1110 1.531 . S
C1107 C1106 1.369 . S
C1107 C1108 1.410 . S
C1107 C1115 1.503 . S
C1108 C1107 1.410 . S
C1108 C1109 1.392 . S
C1108 C1111 1.511 . S
C1109 C1105 1.376 . S
C1109 C1108 1.392 . S
C1109 H1121 0.929 . S
C1110 C1106 1.531 . S
C1110 H1122 0.960 . S
C1110 H1123 0.962 . S
C1110 H1124 0.960 . S
C1111 C1108 1.511 . S
C1111 H1125 0.961 . S
C1111 H1126 0.961 . S
C1111 H1127 0.961 . S
C1112 C1113 1.370 . S
C1112 C1114 1.363 . S
C1112 H1128 0.931 . S
C1113 C1112 1.370 . S
C1113 C1117 1.408 . S
C1114 C1112 1.363 . S
C1114 C1115 1.370 . S
C1114 C1118 1.524 . S
C1115 C1107 1.503 . S
C1115 C1114 1.370 . S
C1115 C1116 1.403 . S
C1116 C1115 1.403 . S
C1116 C1117 1.404 . S
C1116 C1119 1.539 . S
C1117 C1113 1.408 . S
C1117 C1116 1.404 . S
C1117 H1129 0.930 . S
C1118 C1114 1.524 . S
C1118 H1130 0.956 . S
C1118 H1131 0.961 . S
C1118 H1132 0.961 . S
C1119 C1116 1.539 . S
C1119 H1133 0.958 . S
C1119 H1134 0.961 . S
C1119 H1135 0.960 . S
H1120 C1104 0.931 . S
H1121 C1109 0.929 . S
H1122 C1110 0.960 . S
H1123 C1110 0.962 . S
H1124 C1110 0.960 . S
H1125 C1111 0.961 . S
H1126 C1111 0.961 . S
H1127 C1111 0.961 . S
H1128 C1112 0.931 . S
H1129 C1117 0.930 . S
H1130 C1118 0.956 . S
H1131 C1118 0.961 . S
H1132 C1118 0.961 . S
H1133 C1119 0.958 . S
H1134 C1119 0.961 . S
H1135 C1119 0.960 . S
C1136 C1137 1.391 . S
C1136 C1138 1.394 . S
C1136 H1152 0.931 . S
C1137 C1136 1.391 . S
C1137 C1141 1.376 . S
C1138 C1136 1.394 . S
C1138 C1139 1.369 . S
C1138 C1142 1.531 . S
C1139 C1138 1.369 . S
C1139 C1140 1.410 . S
C1139 C1147 1.503 . S
C1140 C1139 1.410 . S
C1140 C1141 1.392 . S
C1140 C1143 1.511 . S
C1141 C1137 1.376 . S
C1141 C1140 1.392 . S
C1141 H1153 0.929 . S
C1142 C1138 1.531 . S
C1142 H1154 0.960 . S
C1142 H1155 0.962 . S
C1142 H1156 0.960 . S
C1143 C1140 1.511 . S
C1143 H1157 0.961 . S
C1143 H1158 0.961 . S
C1143 H1159 0.961 . S
C1144 C1145 1.370 . S
C1144 C1146 1.363 . S
C1144 H1160 0.931 . S
C1145 C1144 1.370 . S
C1145 C1149 1.408 . S
C1146 C1144 1.363 . S
C1146 C1147 1.370 . S
C1146 C1150 1.524 . S
C1147 C1139 1.503 . S
C1147 C1146 1.370 . S
C1147 C1148 1.403 . S
C1148 C1147 1.403 . S
C1148 C1149 1.404 . S
C1148 C1151 1.539 . S
C1149 C1145 1.408 . S
C1149 C1148 1.404 . S
C1149 H1161 0.930 . S
C1150 C1146 1.524 . S
C1150 H1162 0.956 . S
C1150 H1163 0.961 . S
C1150 H1164 0.961 . S
C1151 C1148 1.539 . S
C1151 H1165 0.987 . S
C1151 H1166 0.961 . S
C1151 H1167 0.960 . S
H1152 C1136 0.931 . S
H1153 C1141 0.929 . S
H1154 C1142 0.960 . S
H1155 C1142 0.962 . S
H1156 C1142 0.960 . S
H1157 C1143 0.961 . S
H1158 C1143 0.961 . S
H1159 C1143 0.961 . S
H1160 C1144 0.931 . S
H1161 C1149 0.930 . S
H1162 C1150 0.956 . S
H1163 C1150 0.961 . S
H1164 C1150 0.961 . S
H1165 C1151 0.987 . S
H1166 C1151 0.961 . S
H1167 C1151 0.960 . S
C1168 C1169 1.391 . S
C1168 C1170 1.394 . S
C1168 H1184 0.931 . S
C1169 C1168 1.391 . S
C1169 C1173 1.376 . S
C1170 C1168 1.394 . S
C1170 C1171 1.369 . S
C1170 C1174 1.531 . S
C1171 C1170 1.369 . S
C1171 C1172 1.410 . S
C1171 C1179 1.503 . S
C1172 C1171 1.410 . S
C1172 C1173 1.392 . S
C1172 C1175 1.511 . S
C1173 C1169 1.376 . S
C1173 C1172 1.392 . S
C1173 H1185 0.929 . S
C1174 C1170 1.531 . S
C1174 H1186 0.960 . S
C1174 H1187 0.962 . S
C1174 H1188 0.960 . S
C1175 C1172 1.511 . S
C1175 H1189 0.961 . S
C1175 H1190 0.961 . S
C1175 H1191 0.961 . S
C1176 C1177 1.370 . S
C1176 C1178 1.363 . S
C1176 H1192 0.931 . S
C1177 C1176 1.370 . S
C1177 C1181 1.408 . S
C1178 C1176 1.363 . S
C1178 C1179 1.370 . S
C1178 C1182 1.524 . S
C1179 C1171 1.503 . S
C1179 C1178 1.370 . S
C1179 C1180 1.403 . S
C1180 C1179 1.403 . S
C1180 C1181 1.404 . S
C1180 C1183 1.539 . S
C1181 C1177 1.408 . S
C1181 C1180 1.404 . S
C1181 H1193 0.930 . S
C1182 C1178 1.524 . S
C1182 H1194 0.956 . S
C1182 H1195 0.961 . S
C1182 H1196 0.961 . S
C1183 C1180 1.539 . S
C1183 H1197 0.958 . S
C1183 H1198 0.961 . S
C1183 H1199 0.960 . S
H1184 C1168 0.931 . S
H1185 C1173 0.929 . S
H1186 C1174 0.960 . S
H1187 C1174 0.962 . S
H1188 C1174 0.960 . S
H1189 C1175 0.961 . S
H1190 C1175 0.961 . S
H1191 C1175 0.961 . S
H1192 C1176 0.931 . S
H1193 C1181 0.930 . S
H1194 C1182 0.956 . S
H1195 C1182 0.961 . S
H1196 C1182 0.961 . S
H1197 C1183 0.958 . S
H1198 C1183 0.961 . S
H1199 C1183 0.960 . S
C1200 C1201 1.391 . S
C1200 C1202 1.394 . S
C1200 H1216 0.931 . S
C1201 C1200 1.391 . S
C1201 C1205 1.376 . S
C1202 C1200 1.394 . S
C1202 C1203 1.369 . S
C1202 C1206 1.531 . S
C1203 C1202 1.369 . S
C1203 C1204 1.410 . S
C1203 C1211 1.503 . S
C1204 C1203 1.410 . S
C1204 C1205 1.392 . S
C1204 C1207 1.511 . S
C1205 C1201 1.376 . S
C1205 C1204 1.392 . S
C1205 H1217 0.929 . S
C1206 C1202 1.531 . S
C1206 H1218 0.960 . S
C1206 H1219 0.962 . S
C1206 H1220 0.960 . S
C1207 C1204 1.511 . S
C1207 H1221 0.961 . S
C1207 H1222 0.961 . S
C1207 H1223 0.961 . S
C1208 C1209 1.370 . S
C1208 C1210 1.363 . S
C1208 H1224 0.931 1_556 S
C1209 C1208 1.370 . S
C1209 C1213 1.408 . S
C1210 C1208 1.363 . S
C1210 C1211 1.370 . S
C1210 C1214 1.524 . S
C1211 C1203 1.503 . S
C1211 C1210 1.370 . S
C1211 C1212 1.403 . S
C1212 C1211 1.403 . S
C1212 C1213 1.404 . S
C1212 C1215 1.539 . S
C1213 C1209 1.408 . S
C1213 C1212 1.404 . S
C1213 H1225 0.930 . S
C1214 C1210 1.524 . S
C1214 H1226 0.956 . S
C1214 H1227 0.961 . S
C1214 H1228 0.961 1_556 S
C1215 C1212 1.539 . S
C1215 H1229 0.958 . S
C1215 H1230 0.961 . S
C1215 H1231 0.960 . S
H1216 C1200 0.931 . S
H1217 C1205 0.929 . S
H1218 C1206 0.960 . S
H1219 C1206 0.962 . S
H1220 C1206 0.960 . S
H1221 C1207 0.961 . S
H1222 C1207 0.961 . S
H1223 C1207 0.961 . S
H1224 C1208 0.931 1_554 S
H1225 C1213 0.930 . S
H1226 C1214 0.956 . S
H1227 C1214 0.961 . S
H1228 C1214 0.961 1_554 S
H1229 C1215 0.958 . S
H1230 C1215 0.961 . S
H1231 C1215 0.960 . S
C1232 C1233 1.391 . S
C1232 C1234 1.394 . S
C1232 H1248 0.931 . S
C1233 C1232 1.391 . S
C1233 C1237 1.376 . S
C1234 C1232 1.394 . S
C1234 C1235 1.369 . S
C1234 C1238 1.531 . S
C1235 C1234 1.369 . S
C1235 C1236 1.410 . S
C1235 C1243 1.503 . S
C1236 C1235 1.410 . S
C1236 C1237 1.392 . S
C1236 C1239 1.511 . S
C1237 C1233 1.376 . S
C1237 C1236 1.392 . S
C1237 H1249 0.929 . S
C1238 C1234 1.531 . S
C1238 H1250 0.960 . S
C1238 H1251 0.962 . S
C1238 H1252 0.960 . S
C1239 C1236 1.511 . S
C1239 H1253 0.961 . S
C1239 H1254 0.961 . S
C1239 H1255 0.961 . S
C1240 C1241 1.370 . S
C1240 C1242 1.363 . S
C1240 H1256 0.931 . S
C1241 C1240 1.370 . S
C1241 C1245 1.408 . S
C1242 C1240 1.363 . S
C1242 C1243 1.370 . S
C1242 C1246 1.524 . S
C1243 C1235 1.503 . S
C1243 C1242 1.370 . S
C1243 C1244 1.403 . S
C1244 C1243 1.403 . S
C1244 C1245 1.404 . S
C1244 C1247 1.539 . S
C1245 C1241 1.408 . S
C1245 C1244 1.404 . S
C1245 H1257 0.930 . S
C1246 C1242 1.524 . S
C1246 H1258 0.956 . S
C1246 H1259 0.961 . S
C1246 H1260 0.961 . S
C1247 C1244 1.539 . S
C1247 H1261 0.958 . S
C1247 H1262 0.961 . S
C1247 H1263 0.960 . S
H1248 C1232 0.931 . S
H1249 C1237 0.929 . S
H1250 C1238 0.960 . S
H1251 C1238 0.962 . S
H1252 C1238 0.960 . S
H1253 C1239 0.961 . S
H1254 C1239 0.961 . S
H1255 C1239 0.961 . S
H1256 C1240 0.931 . S
H1257 C1245 0.930 . S
H1258 C1246 0.956 . S
H1259 C1246 0.961 . S
H1260 C1246 0.961 . S
H1261 C1247 0.958 . S
H1262 C1247 0.961 . S
H1263 C1247 0.960 . S
C1264 C1265 1.391 . S
C1264 C1266 1.394 . S
C1264 H1280 0.931 . S
C1265 C1264 1.391 . S
C1265 C1269 1.376 . S
C1266 C1264 1.394 . S
C1266 C1267 1.369 . S
C1266 C1270 1.531 . S
C1267 C1266 1.369 . S
C1267 C1268 1.410 . S
C1267 C1275 1.503 . S
C1268 C1267 1.410 . S
C1268 C1269 1.392 . S
C1268 C1271 1.511 . S
C1269 C1265 1.376 . S
C1269 C1268 1.392 . S
C1269 H1281 0.929 . S
C1270 C1266 1.531 . S
C1270 H1282 0.960 . S
C1270 H1283 0.962 . S
C1270 H1284 0.960 . S
C1271 C1268 1.511 . S
C1271 H1285 0.961 . S
C1271 H1286 0.961 . S
C1271 H1287 0.961 . S
C1272 C1273 1.370 . S
C1272 C1274 1.363 . S
C1272 H1288 0.931 . S
C1273 C1272 1.370 . S
C1273 C1277 1.408 . S
C1274 C1272 1.363 . S
C1274 C1275 1.370 . S
C1274 C1278 1.524 . S
C1275 C1267 1.503 . S
C1275 C1274 1.370 . S
C1275 C1276 1.403 . S
C1276 C1275 1.403 . S
C1276 C1277 1.404 . S
C1276 C1279 1.539 . S
C1277 C1273 1.408 . S
C1277 C1276 1.404 . S
C1277 H1289 0.930 . S
C1278 C1274 1.524 . S
C1278 H1290 0.956 . S
C1278 H1291 0.961 . S
C1278 H1292 0.961 . S
C1279 C1276 1.539 . S
C1279 H1293 0.958 . S
C1279 H1294 0.961 . S
C1279 H1295 0.960 . S
H1280 C1264 0.931 . S
H1281 C1269 0.929 . S
H1282 C1270 0.960 . S
H1283 C1270 0.962 . S
H1284 C1270 0.960 . S
H1285 C1271 0.961 . S
H1286 C1271 0.961 . S
H1287 C1271 0.961 . S
H1288 C1272 0.931 . S
H1289 C1277 0.930 . S
H1290 C1278 0.956 . S
H1291 C1278 0.961 . S
H1292 C1278 0.961 . S
H1293 C1279 0.958 . S
H1294 C1279 0.961 . S
H1295 C1279 0.960 . S
C1296 C1297 1.391 . S
C1296 C1298 1.394 . S
C1296 H1312 0.931 . S
C1297 C1296 1.391 . S
C1297 C1301 1.376 . S
C1298 C1296 1.394 . S
C1298 C1299 1.369 . S
C1298 C1302 1.531 . S
C1299 C1298 1.369 . S
C1299 C1300 1.410 . S
C1299 C1307 1.503 . S
C1300 C1299 1.410 . S
C1300 C1301 1.392 . S
C1300 C1303 1.511 . S
C1301 C1297 1.376 . S
C1301 C1300 1.392 . S
C1301 H1313 0.929 . S
C1302 C1298 1.531 . S
C1302 H1314 0.960 . S
C1302 H1315 0.962 . S
C1302 H1316 0.960 . S
C1303 C1300 1.511 . S
C1303 H1317 0.961 . S
C1303 H1318 0.961 . S
C1303 H1319 0.961 . S
C1304 C1305 1.370 . S
C1304 C1306 1.363 . S
C1304 H1320 0.931 . S
C1305 C1304 1.370 . S
C1305 C1309 1.408 . S
C1306 C1304 1.363 . S
C1306 C1307 1.370 . S
C1306 C1310 1.524 . S
C1307 C1299 1.503 . S
C1307 C1306 1.370 . S
C1307 C1308 1.403 . S
C1308 C1307 1.403 . S
C1308 C1309 1.404 . S
C1308 C1311 1.539 . S
C1309 C1305 1.408 . S
C1309 C1308 1.404 . S
C1309 H1321 0.930 . S
C1310 C1306 1.524 . S
C1310 H1322 0.956 . S
C1310 H1323 0.961 . S
C1310 H1324 0.961 . S
C1311 C1308 1.539 . S
C1311 H1325 0.958 . S
C1311 H1326 0.961 . S
C1311 H1327 0.960 . S
H1312 C1296 0.931 . S
H1313 C1301 0.929 . S
H1314 C1302 0.960 . S
H1315 C1302 0.962 . S
H1316 C1302 0.960 . S
H1317 C1303 0.961 . S
H1318 C1303 0.961 . S
H1319 C1303 0.961 . S
H1320 C1304 0.931 . S
H1321 C1309 0.930 . S
H1322 C1310 0.956 . S
H1323 C1310 0.961 . S
H1324 C1310 0.961 . S
H1325 C1311 0.958 . S
H1326 C1311 0.961 . S
H1327 C1311 0.960 . S
C1328 C1329 1.391 . S
C1328 C1330 1.394 . S
C1328 H1344 0.931 . S
C1329 C1328 1.391 . S
C1329 C1333 1.376 . S
C1330 C1328 1.394 . S
C1330 C1331 1.369 . S
C1330 C1334 1.531 . S
C1331 C1330 1.369 . S
C1331 C1332 1.410 . S
C1331 C1339 1.503 . S
C1332 C1331 1.410 . S
C1332 C1333 1.392 . S
C1332 C1335 1.511 . S
C1333 C1329 1.376 . S
C1333 C1332 1.392 . S
C1333 H1345 0.929 . S
C1334 C1330 1.531 . S
C1334 H1346 0.960 . S
C1334 H1347 0.962 . S
C1334 H1348 0.960 . S
C1335 C1332 1.511 . S
C1335 H1349 0.961 . S
C1335 H1350 0.961 . S
C1335 H1351 0.961 . S
C1336 C1337 1.370 . S
C1336 C1338 1.363 . S
C1336 H1352 0.931 . S
C1337 C1336 1.370 . S
C1337 C1341 1.408 . S
C1338 C1336 1.363 . S
C1338 C1339 1.370 . S
C1338 C1342 1.524 . S
C1339 C1331 1.503 . S
C1339 C1338 1.370 . S
C1339 C1340 1.403 . S
C1340 C1339 1.403 . S
C1340 C1341 1.404 . S
C1340 C1343 1.539 . S
C1341 C1337 1.408 . S
C1341 C1340 1.404 . S
C1341 H1353 0.930 . S
C1342 C1338 1.524 . S
C1342 H1354 0.956 . S
C1342 H1355 0.961 . S
C1342 H1356 0.961 . S
C1343 C1340 1.539 . S
C1343 H1357 0.958 . S
C1343 H1358 0.961 . S
C1343 H1359 0.960 . S
H1344 C1328 0.931 . S
H1345 C1333 0.929 . S
H1346 C1334 0.960 . S
H1347 C1334 0.962 . S
H1348 C1334 0.960 . S
H1349 C1335 0.961 . S
H1350 C1335 0.961 . S
H1351 C1335 0.961 . S
H1352 C1336 0.931 . S
H1353 C1341 0.930 . S
H1354 C1342 0.956 . S
H1355 C1342 0.961 . S
H1356 C1342 0.961 . S
H1357 C1343 0.958 . S
H1358 C1343 0.961 . S
H1359 C1343 0.960 . S
C1360 C1361 1.391 . S
C1360 C1362 1.394 . S
C1360 H1376 0.931 . S
C1361 C1360 1.391 . S
C1361 C1365 1.376 . S
C1362 C1360 1.394 . S
C1362 C1363 1.369 . S
C1362 C1366 1.531 . S
C1363 C1362 1.369 . S
C1363 C1364 1.410 . S
C1363 C1371 1.503 . S
C1364 C1363 1.410 . S
C1364 C1365 1.392 . S
C1364 C1367 1.511 . S
C1365 C1361 1.376 . S
C1365 C1364 1.392 . S
C1365 H1377 0.929 . S
C1366 C1362 1.531 . S
C1366 H1378 0.960 . S
C1366 H1379 0.962 . S
C1366 H1380 0.960 . S
C1367 C1364 1.511 . S
C1367 H1381 0.961 . S
C1367 H1382 0.961 . S
C1367 H1383 0.961 . S
C1368 C1369 1.370 . S
C1368 C1370 1.363 . S
C1368 H1384 0.931 . S
C1369 C1368 1.370 . S
C1369 C1373 1.408 . S
C1370 C1368 1.363 . S
C1370 C1371 1.370 . S
C1370 C1374 1.524 . S
C1371 C1363 1.503 . S
C1371 C1370 1.370 . S
C1371 C1372 1.403 . S
C1372 C1371 1.403 . S
C1372 C1373 1.404 . S
C1372 C1375 1.539 . S
C1373 C1369 1.408 . S
C1373 C1372 1.404 . S
C1373 H1385 0.930 . S
C1374 C1370 1.524 . S
C1374 H1386 0.956 . S
C1374 H1387 0.961 . S
C1374 H1388 0.961 . S
C1375 C1372 1.539 . S
C1375 H1389 0.958 . S
C1375 H1390 0.961 . S
C1375 H1391 0.960 . S
H1376 C1360 0.931 . S
H1377 C1365 0.929 . S
H1378 C1366 0.960 . S
H1379 C1366 0.962 . S
H1380 C1366 0.960 . S
H1381 C1367 0.961 . S
H1382 C1367 0.961 . S
H1383 C1367 0.961 . S
H1384 C1368 0.931 . S
H1385 C1373 0.930 . S
H1386 C1374 0.956 . S
H1387 C1374 0.961 . S
H1388 C1374 0.961 . S
H1389 C1375 0.958 . S
H1390 C1375 0.961 . S
H1391 C1375 0.960 . S
C1392 C1393 1.391 . S
C1392 C1394 1.394 . S
C1392 H1408 0.931 . S
C1393 C1392 1.391 . S
C1393 C1397 1.376 . S
C1394 C1392 1.394 . S
C1394 C1395 1.369 . S
C1394 C1398 1.531 . S
C1395 C1394 1.369 . S
C1395 C1396 1.410 . S
C1395 C1403 1.503 . S
C1396 C1395 1.410 . S
C1396 C1397 1.392 . S
C1396 C1399 1.511 . S
C1397 C1393 1.376 . S
C1397 C1396 1.392 . S
C1397 H1409 0.929 . S
C1398 C1394 1.531 . S
C1398 H1410 0.960 . S
C1398 H1411 0.962 . S
C1398 H1412 0.960 . S
C1399 C1396 1.511 . S
C1399 H1413 0.961 . S
C1399 H1414 0.961 . S
C1399 H1415 0.961 . S
C1400 C1401 1.370 . S
C1400 C1402 1.363 . S
C1400 H1416 0.931 . S
C1401 C1400 1.370 . S
C1401 C1405 1.408 . S
C1402 C1400 1.363 . S
C1402 C1403 1.370 . S
C1402 C1406 1.524 . S
C1403 C1395 1.503 . S
C1403 C1402 1.370 . S
C1403 C1404 1.403 . S
C1404 C1403 1.403 . S
C1404 C1405 1.404 . S
C1404 C1407 1.539 . S
C1405 C1401 1.408 . S
C1405 C1404 1.404 . S
C1405 H1417 0.930 . S
C1406 C1402 1.524 . S
C1406 H1418 0.956 . S
C1406 H1419 0.961 . S
C1406 H1420 0.961 . S
C1407 C1404 1.539 . S
C1407 H1421 0.958 . S
C1407 H1422 0.961 . S
C1407 H1423 0.960 . S
H1408 C1392 0.931 . S
H1409 C1397 0.929 . S
H1410 C1398 0.960 . S
H1411 C1398 0.962 . S
H1412 C1398 0.960 . S
H1413 C1399 0.961 . S
H1414 C1399 0.961 . S
H1415 C1399 0.961 . S
H1416 C1400 0.931 . S
H1417 C1405 0.930 . S
H1418 C1406 0.956 . S
H1419 C1406 0.961 . S
H1420 C1406 0.961 . S
H1421 C1407 0.958 . S
H1422 C1407 0.961 . S
H1423 C1407 0.960 . S
C1424 C1425 1.391 . S
C1424 C1426 1.394 . S
C1424 H1440 0.931 . S
C1425 C1424 1.391 . S
C1425 C1429 1.376 . S
C1426 C1424 1.394 . S
C1426 C1427 1.369 . S
C1426 C1430 1.531 . S
C1427 C1426 1.369 . S
C1427 C1428 1.410 . S
C1427 C1435 1.503 . S
C1428 C1427 1.410 . S
C1428 C1429 1.392 . S
C1428 C1431 1.511 . S
C1429 C1425 1.376 . S
C1429 C1428 1.392 . S
C1429 H1441 0.929 . S
C1430 C1426 1.531 . S
C1430 H1442 0.960 . S
C1430 H1443 0.962 . S
C1430 H1444 0.960 . S
C1431 C1428 1.511 . S
C1431 H1445 0.961 . S
C1431 H1446 0.961 . S
C1431 H1447 0.961 . S
C1432 C1433 1.370 . S
C1432 C1434 1.363 . S
C1432 H1448 0.931 . S
C1433 C1432 1.370 . S
C1433 C1437 1.408 . S
C1434 C1432 1.363 . S
C1434 C1435 1.370 . S
C1434 C1438 1.524 . S
C1435 C1427 1.503 . S
C1435 C1434 1.370 . S
C1435 C1436 1.403 . S
C1436 C1435 1.403 . S
C1436 C1437 1.404 . S
C1436 C1439 1.539 . S
C1437 C1433 1.408 . S
C1437 C1436 1.404 . S
C1437 H1449 0.930 . S
C1438 C1434 1.524 . S
C1438 H1450 0.956 . S
C1438 H1451 0.961 . S
C1438 H1452 0.961 . S
C1439 C1436 1.539 . S
C1439 H1453 0.958 . S
C1439 H1454 0.961 . S
C1439 H1455 0.960 . S
H1440 C1424 0.931 . S
H1441 C1429 0.929 . S
H1442 C1430 0.960 . S
H1443 C1430 0.962 . S
H1444 C1430 0.960 . S
H1445 C1431 0.961 . S
H1446 C1431 0.961 . S
H1447 C1431 0.961 . S
H1448 C1432 0.931 . S
H1449 C1437 0.930 . S
H1450 C1438 0.956 . S
H1451 C1438 0.961 . S
H1452 C1438 0.961 . S
H1453 C1439 0.958 . S
H1454 C1439 0.961 . S
H1455 C1439 0.960 . S
C1456 C1457 1.391 . S
C1456 C1458 1.394 . S
C1456 H1472 0.931 . S
C1457 C1456 1.391 . S
C1457 C1461 1.376 . S
C1458 C1456 1.394 . S
C1458 C1459 1.369 . S
C1458 C1462 1.531 . S
C1459 C1458 1.369 . S
C1459 C1460 1.410 . S
C1459 C1467 1.503 . S
C1460 C1459 1.410 . S
C1460 C1461 1.392 . S
C1460 C1463 1.511 . S
C1461 C1457 1.376 . S
C1461 C1460 1.392 . S
C1461 H1473 0.929 . S
C1462 C1458 1.531 . S
C1462 H1474 0.960 . S
C1462 H1475 0.962 . S
C1462 H1476 0.960 . S
C1463 C1460 1.511 . S
C1463 H1477 0.961 . S
C1463 H1478 0.961 . S
C1463 H1479 0.961 . S
C1464 C1465 1.370 . S
C1464 C1466 1.363 . S
C1464 H1480 0.931 . S
C1465 C1464 1.370 . S
C1465 C1469 1.408 . S
C1466 C1464 1.363 . S
C1466 C1467 1.370 . S
C1466 C1470 1.524 . S
C1467 C1459 1.503 . S
C1467 C1466 1.370 . S
C1467 C1468 1.403 . S
C1468 C1467 1.403 . S
C1468 C1469 1.404 . S
C1468 C1471 1.539 . S
C1469 C1465 1.408 . S
C1469 C1468 1.404 . S
C1469 H1481 0.930 . S
C1470 C1466 1.524 . S
C1470 H1482 0.956 . S
C1470 H1483 0.961 . S
C1470 H1484 0.961 . S
C1471 C1468 1.539 . S
C1471 H1485 0.958 . S
C1471 H1486 0.961 . S
C1471 H1487 0.960 . S
H1472 C1456 0.931 . S
H1473 C1461 0.929 . S
H1474 C1462 0.960 . S
H1475 C1462 0.962 . S
H1476 C1462 0.960 . S
H1477 C1463 0.961 . S
H1478 C1463 0.961 . S
H1479 C1463 0.961 . S
H1480 C1464 0.931 . S
H1481 C1469 0.930 . S
H1482 C1470 0.956 . S
H1483 C1470 0.961 . S
H1484 C1470 0.961 . S
H1485 C1471 0.958 . S
H1486 C1471 0.961 . S
H1487 C1471 0.960 . S
C1488 C1489 1.391 . S
C1488 C1490 1.394 . S
C1488 H1504 0.931 . S
C1489 C1488 1.391 . S
C1489 C1493 1.376 . S
C1490 C1488 1.394 . S
C1490 C1491 1.369 . S
C1490 C1494 1.531 . S
C1491 C1490 1.369 . S
C1491 C1492 1.410 . S
C1491 C1499 1.503 . S
C1492 C1491 1.410 . S
C1492 C1493 1.392 . S
C1492 C1495 1.511 . S
C1493 C1489 1.376 . S
C1493 C1492 1.392 . S
C1493 H1505 0.929 . S
C1494 C1490 1.531 . S
C1494 H1506 0.960 . S
C1494 H1507 0.962 . S
C1494 H1508 0.960 . S
C1495 C1492 1.511 . S
C1495 H1509 0.961 . S
C1495 H1510 0.961 . S
C1495 H1511 0.961 . S
C1496 C1497 1.370 . S
C1496 C1498 1.363 . S
C1496 H1512 0.931 . S
C1497 C1496 1.370 . S
C1497 C1501 1.408 . S
C1498 C1496 1.363 . S
C1498 C1499 1.370 . S
C1498 C1502 1.524 . S
C1499 C1491 1.503 . S
C1499 C1498 1.370 . S
C1499 C1500 1.403 . S
C1500 C1499 1.403 . S
C1500 C1501 1.404 . S
C1500 C1503 1.539 . S
C1501 C1497 1.408 . S
C1501 C1500 1.404 . S
C1501 H1513 0.930 . S
C1502 C1498 1.524 . S
C1502 H1514 0.956 . S
C1502 H1515 0.961 . S
C1502 H1516 0.961 . S
C1503 C1500 1.539 . S
C1503 H1517 0.958 . S
C1503 H1518 0.961 . S
C1503 H1519 0.960 . S
H1504 C1488 0.931 . S
H1505 C1493 0.929 . S
H1506 C1494 0.960 . S
H1507 C1494 0.962 . S
H1508 C1494 0.960 . S
H1509 C1495 0.961 . S
H1510 C1495 0.961 . S
H1511 C1495 0.961 . S
H1512 C1496 0.931 . S
H1513 C1501 0.930 . S
H1514 C1502 0.956 . S
H1515 C1502 0.961 . S
H1516 C1502 0.961 . S
H1517 C1503 0.958 . S
H1518 C1503 0.961 . S
H1519 C1503 0.960 . S
C1520 C1521 1.391 . S
C1520 C1522 1.394 . S
C1520 H1536 0.931 . S
C1521 C1520 1.391 . S
C1521 C1525 1.376 . S
C1522 C1520 1.394 . S
C1522 C1523 1.369 . S
C1522 C1526 1.531 . S
C1523 C1522 1.369 . S
C1523 C1524 1.410 . S
C1523 C1531 1.503 . S
C1524 C1523 1.410 . S
C1524 C1525 1.392 . S
C1524 C1527 1.511 . S
C1525 C1521 1.376 . S
C1525 C1524 1.392 . S
C1525 H1537 0.929 . S
C1526 C1522 1.531 . S
C1526 H1538 0.960 . S
C1526 H1539 0.962 . S
C1526 H1540 0.960 . S
C1527 C1524 1.511 . S
C1527 H1541 0.961 . S
C1527 H1542 0.961 . S
C1527 H1543 0.961 . S
C1528 C1529 1.370 . S
C1528 C1530 1.363 . S
C1528 H1544 0.931 . S
C1529 C1528 1.370 . S
C1529 C1533 1.408 . S
C1530 C1528 1.363 . S
C1530 C1531 1.370 . S
C1530 C1534 1.524 . S
C1531 C1523 1.503 . S
C1531 C1530 1.370 . S
C1531 C1532 1.403 . S
C1532 C1531 1.403 . S
C1532 C1533 1.404 . S
C1532 C1535 1.539 . S
C1533 C1529 1.408 . S
C1533 C1532 1.404 . S
C1533 H1545 0.930 . S
C1534 C1530 1.524 . S
C1534 H1546 0.956 . S
C1534 H1547 0.961 . S
C1534 H1548 0.961 . S
C1535 C1532 1.539 . S
C1535 H1549 0.958 . S
C1535 H1550 0.961 . S
C1535 H1551 0.960 . S
H1536 C1520 0.931 . S
H1537 C1525 0.929 . S
H1538 C1526 0.960 . S
H1539 C1526 0.962 . S
H1540 C1526 0.960 . S
H1541 C1527 0.961 . S
H1542 C1527 0.961 . S
H1543 C1527 0.961 . S
H1544 C1528 0.931 . S
H1545 C1533 0.930 . S
H1546 C1534 0.956 . S
H1547 C1534 0.961 . S
H1548 C1534 0.961 . S
H1549 C1535 0.958 . S
H1550 C1535 0.961 . S
H1551 C1535 0.960 . S
C1552 C1553 1.391 . S
C1552 C1554 1.394 . S
C1552 H1568 0.931 . S
C1553 C1552 1.391 . S
C1553 C1557 1.376 . S
C1554 C1552 1.394 . S
C1554 C1555 1.369 . S
C1554 C1558 1.531 . S
C1555 C1554 1.369 . S
C1555 C1556 1.410 . S
C1555 C1563 1.503 . S
C1556 C1555 1.410 . S
C1556 C1557 1.392 . S
C1556 C1559 1.511 . S
C1557 C1553 1.376 . S
C1557 C1556 1.392 . S
C1557 H1569 0.929 . S
C1558 C1554 1.531 . S
C1558 H1570 0.960 . S
C1558 H1571 0.962 . S
C1558 H1572 0.960 . S
C1559 C1556 1.511 . S
C1559 H1573 0.961 . S
C1559 H1574 0.961 . S
C1559 H1575 0.961 . S
C1560 C1561 1.370 . S
C1560 C1562 1.363 . S
C1560 H1576 0.931 . S
C1561 C1560 1.370 . S
C1561 C1565 1.408 . S
C1562 C1560 1.363 . S
C1562 C1563 1.370 . S
C1562 C1566 1.524 . S
C1563 C1555 1.503 . S
C1563 C1562 1.370 . S
C1563 C1564 1.403 . S
C1564 C1563 1.403 . S
C1564 C1565 1.404 . S
C1564 C1567 1.539 . S
C1565 C1561 1.408 . S
C1565 C1564 1.404 . S
C1565 H1577 0.930 . S
C1566 C1562 1.524 . S
C1566 H1578 0.956 . S
C1566 H1579 0.961 . S
C1566 H1580 0.961 . S
C1567 C1564 1.539 . S
C1567 H1581 0.958 . S
C1567 H1582 0.961 . S
C1567 H1583 0.960 . S
H1568 C1552 0.931 . S
H1569 C1557 0.929 . S
H1570 C1558 0.960 . S
H1571 C1558 0.962 . S
H1572 C1558 0.960 . S
H1573 C1559 0.961 . S
H1574 C1559 0.961 . S
H1575 C1559 0.961 . S
H1576 C1560 0.931 . S
H1577 C1565 0.930 . S
H1578 C1566 0.956 . S
H1579 C1566 0.961 . S
H1580 C1566 0.961 . S
H1581 C1567 0.958 . S
H1582 C1567 0.961 . S
H1583 C1567 0.960 . S
C1584 C1585 1.391 . S
C1584 C1586 1.394 . S
C1584 H1600 0.931 . S
C1585 C1584 1.391 . S
C1585 C1589 1.376 . S
C1586 C1584 1.394 . S
C1586 C1587 1.369 . S
C1586 C1590 1.531 . S
C1587 C1586 1.369 . S
C1587 C1588 1.410 . S
C1587 C1595 1.503 . S
C1588 C1587 1.410 . S
C1588 C1589 1.392 . S
C1588 C1591 1.511 . S
C1589 C1585 1.376 . S
C1589 C1588 1.392 . S
C1589 H1601 0.929 . S
C1590 C1586 1.531 . S
C1590 H1602 0.960 . S
C1590 H1603 0.962 . S
C1590 H1604 0.960 . S
C1591 C1588 1.511 . S
C1591 H1605 0.961 . S
C1591 H1606 0.961 . S
C1591 H1607 0.961 . S
C1592 C1593 1.370 . S
C1592 C1594 1.363 . S
C1592 H1608 0.931 . S
C1593 C1592 1.370 . S
C1593 C1597 1.408 . S
C1594 C1592 1.363 . S
C1594 C1595 1.370 . S
C1594 C1598 1.524 . S
C1595 C1587 1.503 . S
C1595 C1594 1.370 . S
C1595 C1596 1.403 . S
C1596 C1595 1.403 . S
C1596 C1597 1.404 . S
C1596 C1599 1.539 . S
C1597 C1593 1.408 . S
C1597 C1596 1.404 . S
C1597 H1609 0.930 . S
C1598 C1594 1.524 . S
C1598 H1610 0.956 . S
C1598 H1611 0.961 . S
C1598 H1612 0.961 . S
C1599 C1596 1.539 . S
C1599 H1613 0.958 . S
C1599 H1614 0.961 . S
C1599 H1615 0.960 . S
H1600 C1584 0.931 . S
H1601 C1589 0.929 . S
H1602 C1590 0.960 . S
H1603 C1590 0.962 . S
H1604 C1590 0.960 . S
H1605 C1591 0.961 . S
H1606 C1591 0.961 . S
H1607 C1591 0.961 . S
H1608 C1592 0.931 . S
H1609 C1597 0.930 . S
H1610 C1598 0.956 . S
H1611 C1598 0.961 . S
H1612 C1598 0.961 . S
H1613 C1599 0.958 . S
H1614 C1599 0.961 . S
H1615 C1599 0.960 . S
C1616 C1617 1.391 . S
C1616 C1618 1.394 . S
C1616 H1632 0.931 . S
C1617 C1616 1.391 . S
C1617 C1621 1.376 . S
C1618 C1616 1.394 . S
C1618 C1619 1.369 . S
C1618 C1622 1.531 . S
C1619 C1618 1.369 . S
C1619 C1620 1.410 . S
C1619 C1627 1.503 . S
C1620 C1619 1.410 . S
C1620 C1621 1.392 . S
C1620 C1623 1.511 . S
C1621 C1617 1.376 . S
C1621 C1620 1.392 . S
C1621 H1633 0.929 . S
C1622 C1618 1.531 . S
C1622 H1634 0.960 . S
C1622 H1635 0.962 . S
C1622 H1636 0.960 . S
C1623 C1620 1.511 . S
C1623 H1637 0.961 . S
C1623 H1638 0.961 . S
C1623 H1639 0.961 . S
C1624 C1625 1.370 . S
C1624 C1626 1.363 . S
C1624 H1640 0.931 . S
C1625 C1624 1.370 . S
C1625 C1629 1.408 . S
C1626 C1624 1.363 . S
C1626 C1627 1.370 . S
C1626 C1630 1.524 . S
C1627 C1619 1.503 . S
C1627 C1626 1.370 . S
C1627 C1628 1.403 . S
C1628 C1627 1.403 . S
C1628 C1629 1.404 . S
C1628 C1631 1.539 . S
C1629 C1625 1.408 . S
C1629 C1628 1.404 . S
C1629 H1641 0.930 . S
C1630 C1626 1.524 . S
C1630 H1642 0.956 . S
C1630 H1643 0.961 . S
C1630 H1644 0.961 . S
C1631 C1628 1.539 . S
C1631 H1645 0.958 . S
C1631 H1646 0.961 . S
C1631 H1647 0.960 . S
H1632 C1616 0.931 . S
H1633 C1621 0.929 . S
H1634 C1622 0.960 . S
H1635 C1622 0.962 . S
H1636 C1622 0.960 . S
H1637 C1623 0.961 . S
H1638 C1623 0.961 . S
H1639 C1623 0.961 . S
H1640 C1624 0.931 . S
H1641 C1629 0.930 . S
H1642 C1630 0.956 . S
H1643 C1630 0.961 . S
H1644 C1630 0.961 . S
H1645 C1631 0.958 . S
H1646 C1631 0.961 . S
H1647 C1631 0.960 . S
C1648 C1649 1.391 . S
C1648 C1650 1.394 . S
C1648 H1664 0.931 . S
C1649 C1648 1.391 . S
C1649 C1653 1.376 . S
C1650 C1648 1.394 . S
C1650 C1651 1.369 . S
C1650 C1654 1.531 . S
C1651 C1650 1.369 . S
C1651 C1652 1.410 . S
C1651 C1659 1.503 . S
C1652 C1651 1.410 . S
C1652 C1653 1.392 . S
C1652 C1655 1.511 . S
C1653 C1649 1.376 . S
C1653 C1652 1.392 . S
C1653 H1665 0.929 . S
C1654 C1650 1.531 . S
C1654 H1666 0.960 . S
C1654 H1667 0.962 . S
C1654 H1668 0.960 . S
C1655 C1652 1.511 . S
C1655 H1669 0.961 . S
C1655 H1670 0.961 . S
C1655 H1671 0.961 . S
C1656 C1657 1.370 . S
C1656 C1658 1.363 . S
C1656 H1672 0.931 . S
C1657 C1656 1.370 . S
C1657 C1661 1.408 . S
C1658 C1656 1.363 . S
C1658 C1659 1.370 . S
C1658 C1662 1.524 . S
C1659 C1651 1.503 . S
C1659 C1658 1.370 . S
C1659 C1660 1.403 . S
C1660 C1659 1.403 . S
C1660 C1661 1.404 . S
C1660 C1663 1.539 . S
C1661 C1657 1.408 . S
C1661 C1660 1.404 . S
C1661 H1673 0.930 . S
C1662 C1658 1.524 . S
C1662 H1674 0.956 . S
C1662 H1675 0.961 . S
C1662 H1676 0.961 . S
C1663 C1660 1.539 . S
C1663 H1677 0.958 . S
C1663 H1678 0.961 . S
C1663 H1679 0.960 . S
H1664 C1648 0.931 . S
H1665 C1653 0.929 . S
H1666 C1654 0.960 . S
H1667 C1654 0.962 . S
H1668 C1654 0.960 . S
H1669 C1655 0.961 . S
H1670 C1655 0.961 . S
H1671 C1655 0.961 . S
H1672 C1656 0.931 . S
H1673 C1661 0.930 . S
H1674 C1662 0.956 . S
H1675 C1662 0.961 . S
H1676 C1662 0.961 . S
H1677 C1663 0.958 . S
H1678 C1663 0.961 . S
H1679 C1663 0.960 . S
C1680 C1681 1.391 . S
C1680 C1682 1.394 . S
C1680 H1696 0.931 . S
C1681 C1680 1.391 . S
C1681 C1685 1.376 . S
C1682 C1680 1.394 . S
C1682 C1683 1.369 . S
C1682 C1686 1.531 . S
C1683 C1682 1.369 . S
C1683 C1684 1.410 . S
C1683 C1691 1.503 . S
C1684 C1683 1.410 . S
C1684 C1685 1.392 . S
C1684 C1687 1.511 . S
C1685 C1681 1.376 . S
C1685 C1684 1.392 . S
C1685 H1697 0.929 . S
C1686 C1682 1.531 . S
C1686 H1698 0.960 . S
C1686 H1699 0.962 . S
C1686 H1700 0.960 . S
C1687 C1684 1.511 . S
C1687 H1701 0.961 . S
C1687 H1702 0.961 . S
C1687 H1703 0.961 . S
C1688 C1689 1.370 . S
C1688 C1690 1.363 . S
C1688 H1704 0.931 . S
C1689 C1688 1.370 . S
C1689 C1693 1.408 . S
C1690 C1688 1.363 . S
C1690 C1691 1.370 . S
C1690 C1694 1.524 . S
C1691 C1683 1.503 . S
C1691 C1690 1.370 . S
C1691 C1692 1.403 . S
C1692 C1691 1.403 . S
C1692 C1693 1.404 . S
C1692 C1695 1.539 . S
C1693 C1689 1.408 . S
C1693 C1692 1.404 . S
C1693 H1705 0.930 . S
C1694 C1690 1.524 . S
C1694 H1706 0.956 . S
C1694 H1707 0.961 . S
C1694 H1708 0.961 . S
C1695 C1692 1.539 . S
C1695 H1709 0.958 . S
C1695 H1710 0.961 . S
C1695 H1711 0.960 . S
H1696 C1680 0.931 . S
H1697 C1685 0.929 . S
H1698 C1686 0.960 . S
H1699 C1686 0.962 . S
H1700 C1686 0.960 . S
H1701 C1687 0.961 . S
H1702 C1687 0.961 . S
H1703 C1687 0.961 . S
H1704 C1688 0.931 . S
H1705 C1693 0.930 . S
H1706 C1694 0.956 . S
H1707 C1694 0.961 . S
H1708 C1694 0.961 . S
H1709 C1695 0.958 . S
H1710 C1695 0.961 . S
H1711 C1695 0.960 . S
C1712 C1713 1.391 . S
C1712 C1714 1.394 . S
C1712 H1728 0.931 . S
C1713 C1712 1.391 . S
C1713 C1717 1.376 . S
C1714 C1712 1.394 . S
C1714 C1715 1.369 . S
C1714 C1718 1.531 . S
C1715 C1714 1.369 . S
C1715 C1716 1.410 . S
C1715 C1723 1.503 . S
C1716 C1715 1.410 . S
C1716 C1717 1.392 . S
C1716 C1719 1.511 . S
C1717 C1713 1.376 . S
C1717 C1716 1.392 . S
C1717 H1729 0.929 . S
C1718 C1714 1.531 . S
C1718 H1730 0.960 . S
C1718 H1731 0.962 . S
C1718 H1732 0.960 . S
C1719 C1716 1.511 . S
C1719 H1733 0.961 . S
C1719 H1734 0.961 . S
C1719 H1735 0.961 . S
C1720 C1721 1.370 . S
C1720 C1722 1.363 . S
C1720 H1736 0.931 . S
C1721 C1720 1.370 . S
C1721 C1725 1.408 . S
C1722 C1720 1.363 . S
C1722 C1723 1.370 . S
C1722 C1726 1.524 . S
C1723 C1715 1.503 . S
C1723 C1722 1.370 . S
C1723 C1724 1.403 . S
C1724 C1723 1.403 . S
C1724 C1725 1.404 . S
C1724 C1727 1.539 . S
C1725 C1721 1.408 . S
C1725 C1724 1.404 . S
C1725 H1737 0.930 . S
C1726 C1722 1.524 . S
C1726 H1738 0.956 . S
C1726 H1739 0.961 . S
C1726 H1740 0.961 . S
C1727 C1724 1.539 . S
C1727 H1741 0.958 . S
C1727 H1742 0.961 . S
C1727 H1743 0.960 . S
H1728 C1712 0.931 . S
H1729 C1717 0.929 . S
H1730 C1718 0.960 . S
H1731 C1718 0.962 . S
H1732 C1718 0.960 . S
H1733 C1719 0.961 . S
H1734 C1719 0.961 . S
H1735 C1719 0.961 . S
H1736 C1720 0.931 . S
H1737 C1725 0.930 . S
H1738 C1726 0.956 . S
H1739 C1726 0.961 . S
H1740 C1726 0.961 . S
H1741 C1727 0.958 . S
H1742 C1727 0.961 . S
H1743 C1727 0.960 . S
C1744 C1745 1.391 . S
C1744 C1746 1.394 . S
C1744 H1760 0.931 . S
C1745 C1744 1.391 . S
C1745 C1749 1.376 . S
C1746 C1744 1.394 . S
C1746 C1747 1.369 . S
C1746 C1750 1.531 . S
C1747 C1746 1.369 . S
C1747 C1748 1.410 . S
C1747 C1755 1.503 . S
C1748 C1747 1.410 . S
C1748 C1749 1.392 . S
C1748 C1751 1.511 . S
C1749 C1745 1.376 . S
C1749 C1748 1.392 . S
C1749 H1761 0.929 . S
C1750 C1746 1.531 . S
C1750 H1762 0.960 . S
C1750 H1763 0.962 . S
C1750 H1764 0.960 . S
C1751 C1748 1.511 . S
C1751 H1765 0.961 . S
C1751 H1766 0.961 . S
C1751 H1767 0.961 . S
C1752 C1753 1.370 . S
C1752 C1754 1.363 . S
C1752 H1768 0.931 . S
C1753 C1752 1.370 . S
C1753 C1757 1.408 . S
C1754 C1752 1.363 . S
C1754 C1755 1.370 . S
C1754 C1758 1.524 . S
C1755 C1747 1.503 . S
C1755 C1754 1.370 . S
C1755 C1756 1.403 . S
C1756 C1755 1.403 . S
C1756 C1757 1.404 . S
C1756 C1759 1.539 . S
C1757 C1753 1.408 . S
C1757 C1756 1.404 . S
C1757 H1769 0.930 . S
C1758 C1754 1.524 . S
C1758 H1770 0.956 . S
C1758 H1771 0.961 . S
C1758 H1772 0.961 . S
C1759 C1756 1.539 . S
C1759 H1773 0.958 . S
C1759 H1774 0.961 . S
C1759 H1775 0.960 . S
H1760 C1744 0.931 . S
H1761 C1749 0.929 . S
H1762 C1750 0.960 . S
H1763 C1750 0.962 . S
H1764 C1750 0.960 . S
H1765 C1751 0.961 . S
H1766 C1751 0.961 . S
H1767 C1751 0.961 . S
H1768 C1752 0.931 . S
H1769 C1757 0.930 . S
H1770 C1758 0.956 . S
H1771 C1758 0.961 . S
H1772 C1758 0.961 . S
H1773 C1759 0.958 . S
H1774 C1759 0.961 . S
H1775 C1759 0.960 . S
C1776 C1777 1.391 . S
C1776 C1778 1.394 . S
C1776 H1792 0.931 . S
C1777 C1776 1.391 . S
C1777 C1781 1.376 . S
C1778 C1776 1.394 . S
C1778 C1779 1.369 . S
C1778 C1782 1.531 . S
C1779 C1778 1.369 . S
C1779 C1780 1.410 . S
C1779 C1787 1.503 . S
C1780 C1779 1.410 . S
C1780 C1781 1.392 . S
C1780 C1783 1.511 . S
C1781 C1777 1.376 . S
C1781 C1780 1.392 . S
C1781 H1793 0.929 . S
C1782 C1778 1.531 . S
C1782 H1794 0.960 . S
C1782 H1795 0.962 . S
C1782 H1796 0.960 . S
C1783 C1780 1.511 . S
C1783 H1797 0.961 . S
C1783 H1798 0.961 . S
C1783 H1799 0.961 . S
C1784 C1785 1.370 . S
C1784 C1786 1.363 . S
C1784 H1800 0.931 . S
C1785 C1784 1.370 . S
C1785 C1789 1.408 . S
C1786 C1784 1.363 . S
C1786 C1787 1.370 . S
C1786 C1790 1.524 . S
C1787 C1779 1.503 . S
C1787 C1786 1.370 . S
C1787 C1788 1.403 . S
C1788 C1787 1.403 . S
C1788 C1789 1.404 . S
C1788 C1791 1.539 . S
C1789 C1785 1.408 . S
C1789 C1788 1.404 . S
C1789 H1801 0.930 . S
C1790 C1786 1.524 . S
C1790 H1802 0.956 . S
C1790 H1803 0.961 . S
C1790 H1804 0.961 . S
C1791 C1788 1.539 . S
C1791 H1805 0.958 . S
C1791 H1806 0.961 . S
C1791 H1807 0.960 . S
H1792 C1776 0.931 . S
H1793 C1781 0.929 . S
H1794 C1782 0.960 . S
H1795 C1782 0.962 . S
H1796 C1782 0.960 . S
H1797 C1783 0.961 . S
H1798 C1783 0.961 . S
H1799 C1783 0.961 . S
H1800 C1784 0.931 . S
H1801 C1789 0.930 . S
H1802 C1790 0.956 . S
H1803 C1790 0.961 . S
H1804 C1790 0.961 . S
H1805 C1791 0.958 . S
H1806 C1791 0.961 . S
H1807 C1791 0.960 . S
C1808 C1809 1.391 . S
C1808 C1810 1.394 . S
C1808 H1824 0.931 . S
C1809 C1808 1.391 . S
C1809 C1813 1.376 . S
C1810 C1808 1.394 . S
C1810 C1811 1.369 . S
C1810 C1814 1.531 . S
C1811 C1810 1.369 . S
C1811 C1812 1.410 . S
C1811 C1819 1.503 . S
C1812 C1811 1.410 . S
C1812 C1813 1.392 . S
C1812 C1815 1.511 . S
C1813 C1809 1.376 . S
C1813 C1812 1.392 . S
C1813 H1825 0.929 . S
C1814 C1810 1.531 . S
C1814 H1826 0.960 . S
C1814 H1827 0.962 . S
C1814 H1828 0.960 . S
C1815 C1812 1.511 . S
C1815 H1829 0.961 . S
C1815 H1830 0.961 . S
C1815 H1831 0.961 . S
C1816 C1817 1.370 . S
C1816 C1818 1.363 . S
C1816 H1832 0.931 . S
C1817 C1816 1.370 . S
C1817 C1821 1.408 . S
C1818 C1816 1.363 . S
C1818 C1819 1.370 . S
C1818 C1822 1.524 . S
C1819 C1811 1.503 . S
C1819 C1818 1.370 . S
C1819 C1820 1.403 . S
C1820 C1819 1.403 . S
C1820 C1821 1.404 . S
C1820 C1823 1.539 . S
C1821 C1817 1.408 . S
C1821 C1820 1.404 . S
C1821 H1833 0.930 . S
C1822 C1818 1.524 . S
C1822 H1834 0.956 . S
C1822 H1835 0.961 . S
C1822 H1836 0.961 . S
C1823 C1820 1.539 . S
C1823 H1837 0.958 . S
C1823 H1838 0.961 . S
C1823 H1839 0.960 . S
H1824 C1808 0.931 . S
H1825 C1813 0.929 . S
H1826 C1814 0.960 . S
H1827 C1814 0.962 . S
H1828 C1814 0.960 . S
H1829 C1815 0.961 . S
H1830 C1815 0.961 . S
H1831 C1815 0.961 . S
H1832 C1816 0.931 . S
H1833 C1821 0.930 . S
H1834 C1822 0.956 . S
H1835 C1822 0.961 . S
H1836 C1822 0.961 . S
H1837 C1823 0.958 . S
H1838 C1823 0.961 . S
H1839 C1823 0.960 . S
C1840 C1841 1.391 . S
C1840 C1842 1.394 . S
C1840 H1856 0.931 . S
C1841 C1840 1.391 . S
C1841 C1845 1.376 . S
C1842 C1840 1.394 . S
C1842 C1843 1.369 . S
C1842 C1846 1.531 . S
C1843 C1842 1.369 . S
C1843 C1844 1.410 . S
C1843 C1851 1.503 . S
C1844 C1843 1.410 . S
C1844 C1845 1.392 . S
C1844 C1847 1.511 . S
C1845 C1841 1.376 . S
C1845 C1844 1.392 . S
C1845 H1857 0.929 . S
C1846 C1842 1.531 . S
C1846 H1858 0.960 . S
C1846 H1859 0.962 . S
C1846 H1860 0.960 . S
C1847 C1844 1.511 . S
C1847 H1861 0.961 . S
C1847 H1862 0.961 . S
C1847 H1863 0.961 . S
C1848 C1849 1.370 . S
C1848 C1850 1.363 . S
C1848 H1864 0.931 . S
C1849 C1848 1.370 . S
C1849 C1853 1.408 . S
C1850 C1848 1.363 . S
C1850 C1851 1.370 . S
C1850 C1854 1.524 . S
C1851 C1843 1.503 . S
C1851 C1850 1.370 . S
C1851 C1852 1.403 . S
C1852 C1851 1.403 . S
C1852 C1853 1.404 . S
C1852 C1855 1.539 . S
C1853 C1849 1.408 . S
C1853 C1852 1.404 . S
C1853 H1865 0.930 . S
C1854 C1850 1.524 . S
C1854 H1866 0.956 . S
C1854 H1867 0.961 . S
C1854 H1868 0.961 . S
C1855 C1852 1.539 . S
C1855 H1869 0.958 . S
C1855 H1870 0.961 . S
C1855 H1871 0.960 . S
H1856 C1840 0.931 . S
H1857 C1845 0.929 . S
H1858 C1846 0.960 . S
H1859 C1846 0.962 . S
H1860 C1846 0.960 . S
H1861 C1847 0.961 . S
H1862 C1847 0.961 . S
H1863 C1847 0.961 . S
H1864 C1848 0.931 . S
H1865 C1853 0.930 . S
H1866 C1854 0.956 . S
H1867 C1854 0.961 . S
H1868 C1854 0.961 . S
H1869 C1855 0.958 . S
H1870 C1855 0.961 . S
H1871 C1855 0.960 . S
C337 C205 1.522 . S
C345 C3 1.537 . S
C369 C23 1.514 . S
C377 C218 1.513 . S
C401 C259 1.526 . S
C409 C35 1.520 . S
C433 C50 1.515 . S
C441 C190 1.519 . S
C465 C204 1.568 . S
C473 C63 1.548 . S
C497 C79 1.514 . S
C505 C219 1.523 . S
C529 C87 1.531 . S
C537 C255 1.534 . S
C561 C106 1.515 . S
C569 C191 1.498 . S
C593 C129 1.540 . S
C601 C115 1.535 . S
C625 C149 1.579 . S
C633 C133 1.567 . S
C657 C148 1.512 . S
C665 C157 1.508 . S
C689 C161 1.525 . S
C697 C119 1.513 . S
C721 C176 1.507 . S
C729 C51 1.509 . S
C753 C59 1.528 . S
C761 C227 1.537 . S
C785 C246 1.507 . S
C793 C22 1.516 . S
C817 C21 1.455 . S
C825 C303 1.457 . S
C849 C134 1.422 . S
C857 C9 1.417 . S
C881 C329 1.408 . S
C889 C45 1.442 . S
C913 C162 1.411 . S
C921 C36 1.419 . S
C945 C302 1.464 . S
C953 C101 1.464 . S
C977 C135 1.419 . S
C985 C93 1.443 . S
C1009 C77 1.439 . S
C1017 C325 1.444 . S
C1041 C64 1.415 . S
C1049 C163 1.410 . S
C1073 C217 1.443 . S
C1081 C273 1.418 . S
C1105 C232 1.460 . S
C1113 C213 1.466 . S
C1137 C189 1.423 . S
C1145 C233 1.450 . S
C1169 C269 1.432 . S
C1177 C185 1.434 . S
C1201 C37 1.401 . S
C1209 C288 1.429 . S
C1233 C143 1.440 . S
C1241 C105 1.429 . S
C1265 C8 1.419 . S
C1273 C316 1.415 . S
C1297 C275 1.521 . S
C1305 C31 1.529 . S
C1329 C7 1.530 . S
C1337 C231 1.515 . S
C1361 C274 1.569 . S
C1369 C91 1.556 . S
C1393 C177 1.529 . S
C1401 C107 1.527 . S
C1425 C78 1.507 . S
C1433 C247 1.507 . S
C1457 C297 1.539 . S
C1465 C283 1.532 . S
C1489 C331 1.577 . S
C1497 C287 1.568 . S
C1521 C311 1.515 . S
C1529 C330 1.512 . S
C1553 C301 1.477 . S
C1561 C315 1.505 . S
C1585 C121 1.448 . S
C1593 C49 1.442 . S
C1617 C17 1.439 . S
C1625 C147 1.420 . S
C1649 C73 1.457 . S
C1657 C120 1.462 . S
C1681 C289 1.445 . S
C1689 C65 1.432 . S
C1713 C92 1.413 . S
C1721 C317 1.402 . S
C1745 C175 1.403 . S
C1753 C203 1.436 . S
C1777 C260 1.460 . S
C1785 C171 1.456 . S
C1809 C245 1.444 . S
C1817 C261 1.454 . S
C1841 C199 1.444 . S
C1849 C241 1.443 . S
