# Generated by pormake.
# Topology wlh, (5)-cn, num edge types: 1
# Building blocks:
#     Node 0, Type 0, BuildingBlock: BEQFEK_clean_sbu_0, # of connection points: 5
#     Node 1, Type 0, BuildingBlock: BEQFEK_clean_sbu_0, # of connection points: 5
#     Node 2, Type 0, BuildingBlock: BEQFEK_clean_sbu_0, # of connection points: 5
#     Node 3, Type 0, BuildingBlock: BEQFEK_clean_sbu_0, # of connection points: 5
#     Node 4, Type 0, BuildingBlock: BEQFEK_clean_sbu_0, # of connection points: 5
#     Node 5, Type 0, BuildingBlock: BEQFEK_clean_sbu_0, # of connection points: 5
#     Node 6, Type 0, BuildingBlock: BEQFEK_clean_sbu_0, # of connection points: 5
#     Node 7, Type 0, BuildingBlock: BEQFEK_clean_sbu_0, # of connection points: 5
#     Node 8, Type 0, BuildingBlock: BEQFEK_clean_sbu_0, # of connection points: 5
#     Node 9, Type 0, BuildingBlock: BEQFEK_clean_sbu_0, # of connection points: 5
#     Node 10, Type 0, BuildingBlock: BEQFEK_clean_sbu_0, # of connection points: 5
#     Node 11, Type 0, BuildingBlock: BEQFEK_clean_sbu_0, # of connection points: 5
#     Node 12, Type 0, BuildingBlock: BEQFEK_clean_sbu_0, # of connection points: 5
#     Node 13, Type 0, BuildingBlock: BEQFEK_clean_sbu_0, # of connection points: 5
#     Node 14, Type 0, BuildingBlock: BEQFEK_clean_sbu_0, # of connection points: 5
#     Node 15, Type 0, BuildingBlock: BEQFEK_clean_sbu_0, # of connection points: 5
#     Node 16, Type 0, BuildingBlock: BEQFEK_clean_sbu_0, # of connection points: 5
#     Node 17, Type 0, BuildingBlock: BEQFEK_clean_sbu_0, # of connection points: 5
#     Node 18, Type 0, BuildingBlock: BEQFEK_clean_sbu_0, # of connection points: 5
#     Node 19, Type 0, BuildingBlock: BEQFEK_clean_sbu_0, # of connection points: 5
#     Node 20, Type 0, BuildingBlock: BEQFEK_clean_sbu_0, # of connection points: 5
#     Node 21, Type 0, BuildingBlock: BEQFEK_clean_sbu_0, # of connection points: 5
#     Node 22, Type 0, BuildingBlock: BEQFEK_clean_sbu_0, # of connection points: 5
#     Node 23, Type 0, BuildingBlock: BEQFEK_clean_sbu_0, # of connection points: 5
#     Node 24, Type 0, BuildingBlock: BEQFEK_clean_sbu_0, # of connection points: 5
#     Node 25, Type 0, BuildingBlock: BEQFEK_clean_sbu_0, # of connection points: 5
#     Node 26, Type 0, BuildingBlock: BEQFEK_clean_sbu_0, # of connection points: 5
#     Node 27, Type 0, BuildingBlock: BEQFEK_clean_sbu_0, # of connection points: 5
#     Node 28, Type 0, BuildingBlock: BEQFEK_clean_sbu_0, # of connection points: 5
#     Node 29, Type 0, BuildingBlock: BEQFEK_clean_sbu_0, # of connection points: 5
#     Node 30, Type 0, BuildingBlock: BEQFEK_clean_sbu_0, # of connection points: 5
#     Node 31, Type 0, BuildingBlock: BEQFEK_clean_sbu_0, # of connection points: 5
#     Node 32, Type 0, BuildingBlock: BEQFEK_clean_sbu_0, # of connection points: 5
#     Node 33, Type 0, BuildingBlock: BEQFEK_clean_sbu_0, # of connection points: 5
#     Node 34, Type 0, BuildingBlock: BEQFEK_clean_sbu_0, # of connection points: 5
#     Node 35, Type 0, BuildingBlock: BEQFEK_clean_sbu_0, # of connection points: 5
#     Edge 36, Type (0, 0), BuildingBlock: UVAHIK_clean_linker_0, # of connection points: 2
#     Edge 37, Type (0, 0), BuildingBlock: UVAHIK_clean_linker_0, # of connection points: 2
#     Edge 38, Type (0, 0), BuildingBlock: UVAHIK_clean_linker_0, # of connection points: 2
#     Edge 39, Type (0, 0), BuildingBlock: UVAHIK_clean_linker_0, # of connection points: 2
#     Edge 40, Type (0, 0), BuildingBlock: UVAHIK_clean_linker_0, # of connection points: 2
#     Edge 41, Type (0, 0), BuildingBlock: UVAHIK_clean_linker_0, # of connection points: 2
#     Edge 42, Type (0, 0), BuildingBlock: UVAHIK_clean_linker_0, # of connection points: 2
#     Edge 43, Type (0, 0), BuildingBlock: UVAHIK_clean_linker_0, # of connection points: 2
#     Edge 44, Type (0, 0), BuildingBlock: UVAHIK_clean_linker_0, # of connection points: 2
#     Edge 45, Type (0, 0), BuildingBlock: UVAHIK_clean_linker_0, # of connection points: 2
#     Edge 46, Type (0, 0), BuildingBlock: UVAHIK_clean_linker_0, # of connection points: 2
#     Edge 47, Type (0, 0), BuildingBlock: UVAHIK_clean_linker_0, # of connection points: 2
#     Edge 48, Type (0, 0), BuildingBlock: UVAHIK_clean_linker_0, # of connection points: 2
#     Edge 49, Type (0, 0), BuildingBlock: UVAHIK_clean_linker_0, # of connection points: 2
#     Edge 50, Type (0, 0), BuildingBlock: UVAHIK_clean_linker_0, # of connection points: 2
#     Edge 51, Type (0, 0), BuildingBlock: UVAHIK_clean_linker_0, # of connection points: 2
#     Edge 52, Type (0, 0), BuildingBlock: UVAHIK_clean_linker_0, # of connection points: 2
#     Edge 53, Type (0, 0), BuildingBlock: UVAHIK_clean_linker_0, # of connection points: 2
#     Edge 54, Type (0, 0), BuildingBlock: UVAHIK_clean_linker_0, # of connection points: 2
#     Edge 55, Type (0, 0), BuildingBlock: UVAHIK_clean_linker_0, # of connection points: 2
#     Edge 56, Type (0, 0), BuildingBlock: UVAHIK_clean_linker_0, # of connection points: 2
#     Edge 57, Type (0, 0), BuildingBlock: UVAHIK_clean_linker_0, # of connection points: 2
#     Edge 58, Type (0, 0), BuildingBlock: UVAHIK_clean_linker_0, # of connection points: 2
#     Edge 59, Type (0, 0), BuildingBlock: UVAHIK_clean_linker_0, # of connection points: 2
#     Edge 60, Type (0, 0), BuildingBlock: UVAHIK_clean_linker_0, # of connection points: 2
#     Edge 61, Type (0, 0), BuildingBlock: UVAHIK_clean_linker_0, # of connection points: 2
#     Edge 62, Type (0, 0), BuildingBlock: UVAHIK_clean_linker_0, # of connection points: 2
#     Edge 63, Type (0, 0), BuildingBlock: UVAHIK_clean_linker_0, # of connection points: 2
#     Edge 64, Type (0, 0), BuildingBlock: UVAHIK_clean_linker_0, # of connection points: 2
#     Edge 65, Type (0, 0), BuildingBlock: UVAHIK_clean_linker_0, # of connection points: 2
#     Edge 66, Type (0, 0), BuildingBlock: UVAHIK_clean_linker_0, # of connection points: 2
#     Edge 67, Type (0, 0), BuildingBlock: UVAHIK_clean_linker_0, # of connection points: 2
#     Edge 68, Type (0, 0), BuildingBlock: UVAHIK_clean_linker_0, # of connection points: 2
#     Edge 69, Type (0, 0), BuildingBlock: UVAHIK_clean_linker_0, # of connection points: 2
#     Edge 70, Type (0, 0), BuildingBlock: UVAHIK_clean_linker_0, # of connection points: 2
#     Edge 71, Type (0, 0), BuildingBlock: UVAHIK_clean_linker_0, # of connection points: 2
#     Edge 72, Type (0, 0), BuildingBlock: UVAHIK_clean_linker_0, # of connection points: 2
#     Edge 73, Type (0, 0), BuildingBlock: UVAHIK_clean_linker_0, # of connection points: 2
#     Edge 74, Type (0, 0), BuildingBlock: UVAHIK_clean_linker_0, # of connection points: 2
#     Edge 75, Type (0, 0), BuildingBlock: UVAHIK_clean_linker_0, # of connection points: 2
#     Edge 76, Type (0, 0), BuildingBlock: UVAHIK_clean_linker_0, # of connection points: 2
#     Edge 77, Type (0, 0), BuildingBlock: UVAHIK_clean_linker_0, # of connection points: 2
#     Edge 78, Type (0, 0), BuildingBlock: UVAHIK_clean_linker_0, # of connection points: 2
#     Edge 79, Type (0, 0), BuildingBlock: UVAHIK_clean_linker_0, # of connection points: 2
#     Edge 80, Type (0, 0), BuildingBlock: UVAHIK_clean_linker_0, # of connection points: 2
#     Edge 81, Type (0, 0), BuildingBlock: UVAHIK_clean_linker_0, # of connection points: 2
#     Edge 82, Type (0, 0), BuildingBlock: UVAHIK_clean_linker_0, # of connection points: 2
#     Edge 83, Type (0, 0), BuildingBlock: UVAHIK_clean_linker_0, # of connection points: 2
#     Edge 84, Type (0, 0), BuildingBlock: UVAHIK_clean_linker_0, # of connection points: 2
#     Edge 85, Type (0, 0), BuildingBlock: UVAHIK_clean_linker_0, # of connection points: 2
#     Edge 86, Type (0, 0), BuildingBlock: UVAHIK_clean_linker_0, # of connection points: 2
#     Edge 87, Type (0, 0), BuildingBlock: UVAHIK_clean_linker_0, # of connection points: 2
#     Edge 88, Type (0, 0), BuildingBlock: UVAHIK_clean_linker_0, # of connection points: 2
#     Edge 89, Type (0, 0), BuildingBlock: UVAHIK_clean_linker_0, # of connection points: 2
#     Edge 90, Type (0, 0), BuildingBlock: UVAHIK_clean_linker_0, # of connection points: 2
#     Edge 91, Type (0, 0), BuildingBlock: UVAHIK_clean_linker_0, # of connection points: 2
#     Edge 92, Type (0, 0), BuildingBlock: UVAHIK_clean_linker_0, # of connection points: 2
#     Edge 93, Type (0, 0), BuildingBlock: UVAHIK_clean_linker_0, # of connection points: 2
#     Edge 94, Type (0, 0), BuildingBlock: UVAHIK_clean_linker_0, # of connection points: 2
#     Edge 95, Type (0, 0), BuildingBlock: UVAHIK_clean_linker_0, # of connection points: 2
#     Edge 96, Type (0, 0), BuildingBlock: UVAHIK_clean_linker_0, # of connection points: 2
#     Edge 97, Type (0, 0), BuildingBlock: UVAHIK_clean_linker_0, # of connection points: 2
#     Edge 98, Type (0, 0), BuildingBlock: UVAHIK_clean_linker_0, # of connection points: 2
#     Edge 99, Type (0, 0), BuildingBlock: UVAHIK_clean_linker_0, # of connection points: 2
#     Edge 100, Type (0, 0), BuildingBlock: UVAHIK_clean_linker_0, # of connection points: 2
#     Edge 101, Type (0, 0), BuildingBlock: UVAHIK_clean_linker_0, # of connection points: 2
#     Edge 102, Type (0, 0), BuildingBlock: UVAHIK_clean_linker_0, # of connection points: 2
#     Edge 103, Type (0, 0), BuildingBlock: UVAHIK_clean_linker_0, # of connection points: 2
#     Edge 104, Type (0, 0), BuildingBlock: UVAHIK_clean_linker_0, # of connection points: 2
#     Edge 105, Type (0, 0), BuildingBlock: UVAHIK_clean_linker_0, # of connection points: 2
#     Edge 106, Type (0, 0), BuildingBlock: UVAHIK_clean_linker_0, # of connection points: 2
#     Edge 107, Type (0, 0), BuildingBlock: UVAHIK_clean_linker_0, # of connection points: 2
#     Edge 108, Type (0, 0), BuildingBlock: UVAHIK_clean_linker_0, # of connection points: 2
#     Edge 109, Type (0, 0), BuildingBlock: UVAHIK_clean_linker_0, # of connection points: 2
#     Edge 110, Type (0, 0), BuildingBlock: UVAHIK_clean_linker_0, # of connection points: 2
#     Edge 111, Type (0, 0), BuildingBlock: UVAHIK_clean_linker_0, # of connection points: 2
#     Edge 112, Type (0, 0), BuildingBlock: UVAHIK_clean_linker_0, # of connection points: 2
#     Edge 113, Type (0, 0), BuildingBlock: UVAHIK_clean_linker_0, # of connection points: 2
#     Edge 114, Type (0, 0), BuildingBlock: UVAHIK_clean_linker_0, # of connection points: 2
#     Edge 115, Type (0, 0), BuildingBlock: UVAHIK_clean_linker_0, # of connection points: 2
#     Edge 116, Type (0, 0), BuildingBlock: UVAHIK_clean_linker_0, # of connection points: 2
#     Edge 117, Type (0, 0), BuildingBlock: UVAHIK_clean_linker_0, # of connection points: 2
#     Edge 118, Type (0, 0), BuildingBlock: UVAHIK_clean_linker_0, # of connection points: 2
#     Edge 119, Type (0, 0), BuildingBlock: UVAHIK_clean_linker_0, # of connection points: 2
#     Edge 120, Type (0, 0), BuildingBlock: UVAHIK_clean_linker_0, # of connection points: 2
#     Edge 121, Type (0, 0), BuildingBlock: UVAHIK_clean_linker_0, # of connection points: 2
#     Edge 122, Type (0, 0), BuildingBlock: UVAHIK_clean_linker_0, # of connection points: 2
#     Edge 123, Type (0, 0), BuildingBlock: UVAHIK_clean_linker_0, # of connection points: 2
#     Edge 124, Type (0, 0), BuildingBlock: UVAHIK_clean_linker_0, # of connection points: 2
#     Edge 125, Type (0, 0), BuildingBlock: UVAHIK_clean_linker_0, # of connection points: 2
# Relax obj value: 0.227
# Max RMSD: 0.163
# Mean RMSD: 0.163
data_MOF--net-wlh--node1-BEQFEK_clean_sbu_0--edge1-UVAHIK_clean_linker_0
_symmetry_space_group_name_H-M    P1
_symmetry_Int_Tables_number       1
_symmetry_cell_setting            triclinic
loop_
_symmetry_equiv_pos_as_xyz
'x, y, z'
_cell_length_a     54.809613
_cell_length_b     54.81973
_cell_length_c     167.65945
_cell_angle_alpha  90.001103
_cell_angle_beta   89.983294
_cell_angle_gamma 119.99073
loop_
_atom_site_label
_atom_site_type_symbol
_atom_site_fract_x
_atom_site_fract_y
_atom_site_fract_z
_atom_type_partial_charge
Co0 Co 0.10084 0.21678 0.20008 0.0
Co1 Co 0.08483 0.26411 0.19798 0.0
C2 C 0.04817 0.20719 0.19146 0.0
O3 O 0.06515 0.1995 0.19399 0.0
O4 O 0.05283 0.23212 0.19253 0.0
C5 C 0.11417 0.18057 0.19216 0.0
O6 O 0.10611 0.19063 0.18625 0.0
C7 C 0.06896 0.30319 0.19094 0.0
C8 C 0.09256 0.34111 0.19844 0.0
C9 C 0.07517 0.33087 0.19182 0.0
N10 N 0.0826 0.29752 0.19665 0.0
N11 N 0.09643 0.32017 0.20116 0.0
C12 C 0.04941 0.28186 0.18503 0.0
H13 H 0.03304 0.26323 0.18829 0.0
H14 H 0.06133 0.2748 0.18125 0.0
H15 H 0.03861 0.29009 0.18123 0.0
C16 C 0.15317 0.26023 0.19239 0.0
N17 N 0.12752 0.25156 0.19553 0.0
N18 N 0.11996 0.27035 0.19397 0.0
C19 C 0.14011 0.29107 0.18949 0.0
C20 C 0.16187 0.28532 0.18833 0.0
C21 C 0.16954 0.24531 0.19348 0.0
H22 H 0.16397 0.23382 0.19924 0.0
H23 H 0.16457 0.23001 0.18857 0.0
H24 H 0.19252 0.26052 0.19334 0.0
O25 O 0.09142 0.22109 0.21119 0.0
O26 O 0.08039 0.25471 0.20953 0.0
H27 H 0.14082 0.33033 0.1902 0.0
H28 H 0.15199 0.32408 0.18066 0.0
C29 C 0.13703 0.31407 0.18567 0.0
H30 H 0.11532 0.30537 0.18336 0.0
H31 H 0.10901 0.32151 0.20601 0.0
O32 O 0.11424 0.18929 0.19921 0.0
C33 C 0.08293 0.23722 0.21398 0.0
Co34 Co 0.78032 0.88473 0.19944 0.0
Co35 Co 0.73616 0.8201 0.19766 0.0
C36 C 0.79386 0.84351 0.19128 0.0
O37 O 0.79987 0.8678 0.19377 0.0
O38 O 0.76934 0.82232 0.19221 0.0
C39 C 0.8186 0.93556 0.19203 0.0
O40 O 0.81527 0.91773 0.18633 0.0
C41 C 0.69828 0.76475 0.19059 0.0
C42 C 0.6632 0.74663 0.19927 0.0
C43 C 0.67196 0.74143 0.19204 0.0
N44 N 0.70442 0.78313 0.19661 0.0
N45 N 0.68351 0.77207 0.20181 0.0
C46 C 0.71825 0.76907 0.18392 0.0
H47 H 0.7388 0.7737 0.18646 0.0
H48 H 0.72182 0.78752 0.18031 0.0
H49 H 0.71059 0.75024 0.18007 0.0
C50 C 0.73433 0.88921 0.19165 0.0
N51 N 0.74498 0.87384 0.19476 0.0
N52 N 0.72706 0.84693 0.19358 0.0
C53 C 0.70469 0.84441 0.1895 0.0
C54 C 0.70856 0.87108 0.18819 0.0
C55 C 0.7494 0.92072 0.19155 0.0
H56 H 0.76595 0.92852 0.18688 0.0
H57 H 0.7349 0.92877 0.1902 0.0
H58 H 0.75963 0.92909 0.1974 0.0
O59 O 0.77658 0.87212 0.21066 0.0
O60 O 0.74583 0.82647 0.20917 0.0
H61 H 0.66466 0.8203 0.18343 0.0
H62 H 0.68771 0.80557 0.1831 0.0
C63 C 0.68013 0.81707 0.18686 0.0
H64 H 0.66946 0.80396 0.19216 0.0
H65 H 0.68289 0.78212 0.20703 0.0
O66 O 0.80517 0.92621 0.19854 0.0
C67 C 0.76206 0.84739 0.21355 0.0
Co68 Co 0.1141 0.89239 0.20031 0.0
Co69 Co 0.17821 0.91567 0.19648 0.0
C70 C 0.14992 0.94467 0.19013 0.0
O71 O 0.1276 0.92675 0.1937 0.0
O72 O 0.17224 0.94301 0.19036 0.0
C73 C 0.06207 0.8716 0.19311 0.0
O74 O 0.07905 0.8787 0.18693 0.0
C75 C 0.2331 0.93361 0.18879 0.0
C76 C 0.25259 0.91814 0.19749 0.0
C77 C 0.25682 0.93116 0.19013 0.0
N78 N 0.21542 0.9219 0.19499 0.0
N79 N 0.22734 0.913 0.2002 0.0
C80 C 0.22781 0.94818 0.18202 0.0
H81 H 0.22026 0.9621 0.18438 0.0
H82 H 0.21112 0.93226 0.17811 0.0
H83 H 0.24713 0.96127 0.17848 0.0
C84 C 0.1104 0.84034 0.19371 0.0
N85 N 0.12522 0.8676 0.19591 0.0
N86 N 0.15166 0.87796 0.19375 0.0
C87 C 0.15425 0.85789 0.18983 0.0
C88 C 0.12825 0.83342 0.18972 0.0
C89 C 0.07938 0.82171 0.19493 0.0
H90 H 0.06802 0.82322 0.18965 0.0
H91 H 0.0738 0.79939 0.19558 0.0
H92 H 0.07241 0.82823 0.20033 0.0
O93 O 0.12992 0.90508 0.21113 0.0
O94 O 0.17504 0.92307 0.20789 0.0
H95 H 0.17763 0.84351 0.18269 0.0
H96 H 0.18989 0.88087 0.1822 0.0
C97 C 0.181 0.86217 0.18615 0.0
H98 H 0.1965 0.86608 0.19093 0.0
H99 H 0.21795 0.90287 0.20554 0.0
O100 O 0.07247 0.87496 0.20008 0.0
C101 C 0.15597 0.91839 0.213 0.0
Co102 Co 0.21859 0.10417 0.29835 0.0
Co103 Co 0.26227 0.0841 0.3018 0.0
C104 C 0.205 0.0521 0.30822 0.0
O105 O 0.19916 0.06948 0.30492 0.0
O106 O 0.22947 0.05502 0.30771 0.0
C107 C 0.18511 0.12235 0.3056 0.0
O108 O 0.1949 0.11516 0.31178 0.0
C109 C 0.30011 0.06712 0.30929 0.0
C110 C 0.33667 0.08638 0.30112 0.0
C111 C 0.32703 0.07123 0.30815 0.0
N112 N 0.29446 0.07986 0.30331 0.0
N113 N 0.31628 0.09108 0.29841 0.0
C114 C 0.27924 0.04992 0.31561 0.0
H115 H 0.2589 0.03495 0.31278 0.0
H116 H 0.27558 0.06401 0.31957 0.0
H117 H 0.28624 0.03755 0.31919 0.0
C118 C 0.26504 0.15707 0.30516 0.0
N119 N 0.25406 0.13016 0.30275 0.0
N120 N 0.27122 0.12098 0.30483 0.0
C121 C 0.29301 0.14139 0.30894 0.0
C122 C 0.28988 0.16494 0.30923 0.0
C123 C 0.25119 0.17446 0.30409 0.0
H124 H 0.23803 0.16793 0.29864 0.0
H125 H 0.23777 0.17167 0.30936 0.0
H126 H 0.26713 0.19715 0.30365 0.0
O127 O 0.22246 0.09238 0.28748 0.0
O128 O 0.2522 0.07716 0.29035 0.0
H129 H 0.32924 0.13661 0.30804 0.0
H130 H 0.32941 0.15619 0.31667 0.0
C131 C 0.31587 0.13809 0.31275 0.0
H132 H 0.30642 0.11834 0.31628 0.0
H133 H 0.31741 0.10239 0.29328 0.0
O134 O 0.19295 0.11992 0.29864 0.0
C135 C 0.23668 0.0808 0.28539 0.0
Co136 Co 0.89286 0.11524 0.29765 0.0
Co137 Co 0.91315 0.17926 0.30076 0.0
C138 C 0.94714 0.15488 0.30643 0.0
O139 O 0.92909 0.13134 0.30344 0.0
O140 O 0.9439 0.17629 0.30605 0.0
C141 C 0.87925 0.06385 0.30464 0.0
O142 O 0.89229 0.08124 0.31057 0.0
C143 C 0.93161 0.23443 0.30822 0.0
C144 C 0.90944 0.25069 0.30083 0.0
C145 C 0.92669 0.25684 0.30744 0.0
N146 N 0.91739 0.21564 0.30243 0.0
N147 N 0.90441 0.2256 0.29799 0.0
C148 C 0.95051 0.23132 0.31407 0.0
H149 H 0.96553 0.22702 0.3108 0.0
H150 H 0.93771 0.21306 0.31802 0.0
H151 H 0.96282 0.25056 0.3177 0.0
C152 C 0.84247 0.10862 0.30587 0.0
N153 N 0.86819 0.12494 0.30271 0.0
N154 N 0.87726 0.15135 0.30462 0.0
C155 C 0.85789 0.15256 0.30933 0.0
C156 C 0.83518 0.12543 0.31029 0.0
C157 C 0.82486 0.07754 0.30449 0.0
H158 H 0.82889 0.07209 0.29845 0.0
H159 H 0.83037 0.06621 0.30898 0.0
H160 H 0.8021 0.07046 0.30509 0.0
O161 O 0.90201 0.12996 0.28668 0.0
O162 O 0.9173 0.17525 0.28909 0.0
H163 H 0.85959 0.19233 0.30914 0.0
H164 H 0.84767 0.17385 0.31852 0.0
C165 C 0.86249 0.1787 0.31348 0.0
H166 H 0.88432 0.19046 0.31579 0.0
H167 H 0.89165 0.215 0.29312 0.0
O168 O 0.87652 0.07371 0.29805 0.0
C169 C 0.91269 0.15534 0.28428 0.0
Co170 Co 0.87969 0.78346 0.29941 0.0
Co171 Co 0.81602 0.73538 0.3001 0.0
C172 C 0.83466 0.79187 0.30706 0.0
O173 O 0.86006 0.8001 0.30515 0.0
O174 O 0.81495 0.76707 0.30548 0.0
C175 C 0.92939 0.82535 0.30684 0.0
O176 O 0.91097 0.82295 0.31225 0.0
C177 C 0.7625 0.69496 0.30735 0.0
C178 C 0.7432 0.66166 0.29817 0.0
C179 C 0.73909 0.66888 0.30577 0.0
N180 N 0.77987 0.7025 0.30104 0.0
N181 N 0.76818 0.68263 0.29554 0.0
C182 C 0.76776 0.71367 0.31442 0.0
H183 H 0.76783 0.73299 0.31242 0.0
H184 H 0.78889 0.72024 0.31693 0.0
H185 H 0.75145 0.70364 0.3191 0.0
C186 C 0.88705 0.73893 0.30697 0.0
N187 N 0.87061 0.74819 0.30379 0.0
N188 N 0.84402 0.72837 0.30442 0.0
C189 C 0.84275 0.70593 0.30815 0.0
C190 C 0.86994 0.71193 0.30986 0.0
C191 C 0.91843 0.75627 0.30763 0.0
H192 H 0.92749 0.76623 0.3018 0.0
H193 H 0.92391 0.77323 0.31207 0.0
H194 H 0.92792 0.74351 0.30956 0.0
O195 O 0.86794 0.78021 0.28807 0.0
O196 O 0.82324 0.74576 0.28869 0.0
H197 H 0.80383 0.67055 0.30439 0.0
H198 H 0.82052 0.66304 0.31256 0.0
C199 C 0.81615 0.67908 0.30995 0.0
H200 H 0.80331 0.68337 0.31422 0.0
H201 H 0.7774 0.68325 0.29005 0.0
O202 O 0.92084 0.81019 0.30059 0.0
C203 C 0.84426 0.76421 0.28473 0.0
Co204 Co 0.89693 0.78175 0.79821 0.0
Co205 Co 0.91342 0.73576 0.80228 0.0
C206 C 0.94778 0.79312 0.80837 0.0
O207 O 0.93152 0.79999 0.80486 0.0
O208 O 0.94342 0.76806 0.80811 0.0
C209 C 0.88111 0.81769 0.80506 0.0
O210 O 0.88724 0.80745 0.81135 0.0
C211 C 0.92811 0.6968 0.81016 0.0
C212 C 0.90544 0.65874 0.80266 0.0
C213 C 0.92199 0.66908 0.80943 0.0
N214 N 0.91525 0.70237 0.80419 0.0
N215 N 0.90193 0.6796 0.7997 0.0
C216 C 0.94698 0.71827 0.81614 0.0
H217 H 0.96301 0.73733 0.81296 0.0
H218 H 0.93437 0.72449 0.81992 0.0
H219 H 0.95814 0.71044 0.81995 0.0
C220 C 0.84293 0.73839 0.80517 0.0
N221 N 0.86956 0.7474 0.8028 0.0
N222 N 0.87716 0.72931 0.80517 0.0
C223 C 0.85597 0.70877 0.80944 0.0
C224 C 0.83348 0.71382 0.80957 0.0
C225 C 0.82641 0.75239 0.80295 0.0
H226 H 0.83386 0.76347 0.79716 0.0
H227 H 0.82921 0.76797 0.80759 0.0
H228 H 0.80361 0.73666 0.80252 0.0
O229 O 0.90839 0.77613 0.78749 0.0
O230 O 0.92154 0.74506 0.79077 0.0
H231 H 0.85475 0.66924 0.80988 0.0
H232 H 0.84309 0.678 0.81895 0.0
C233 C 0.85849 0.68664 0.81399 0.0
H234 H 0.87999 0.69567 0.81649 0.0
H235 H 0.89005 0.67819 0.79468 0.0
O236 O 0.88319 0.80912 0.79817 0.0
C237 C 0.91907 0.76087 0.78564 0.0
Co238 Co 0.21731 0.11489 0.79774 0.0
Co239 Co 0.26404 0.17879 0.79928 0.0
C240 C 0.20713 0.15804 0.80604 0.0
O241 O 0.19976 0.13339 0.80357 0.0
O242 O 0.232 0.17841 0.80493 0.0
C243 C 0.17743 0.06523 0.80533 0.0
O244 O 0.18182 0.08368 0.81094 0.0
C245 C 0.30368 0.23249 0.80669 0.0
C246 C 0.33765 0.2518 0.79769 0.0
C247 C 0.32988 0.25592 0.80521 0.0
N248 N 0.29664 0.21509 0.8004 0.0
N249 N 0.3169 0.22681 0.79501 0.0
C250 C 0.28444 0.22727 0.81363 0.0
H251 H 0.2647 0.22586 0.81143 0.0
H252 H 0.27881 0.20676 0.81642 0.0
H253 H 0.29363 0.24428 0.81813 0.0
C254 C 0.26224 0.10771 0.80512 0.0
N255 N 0.25254 0.12413 0.80219 0.0
N256 N 0.27176 0.15075 0.80318 0.0
C257 C 0.29422 0.15208 0.80691 0.0
C258 C 0.28892 0.12487 0.80823 0.0
C259 C 0.24542 0.07621 0.8054 0.0
H260 H 0.23503 0.06794 0.79956 0.0
H261 H 0.22887 0.06972 0.81002 0.0
H262 H 0.25858 0.06674 0.80689 0.0
O263 O 0.22093 0.12766 0.78651 0.0
O264 O 0.25374 0.1728 0.78782 0.0
H265 H 0.32953 0.19171 0.80362 0.0
H266 H 0.33649 0.17471 0.81179 0.0
C267 C 0.32046 0.17882 0.80906 0.0
H268 H 0.31517 0.19099 0.8133 0.0
H269 H 0.31671 0.21758 0.78955 0.0
O270 O 0.19084 0.07367 0.79877 0.0
C271 C 0.23635 0.15214 0.78354 0.0
Co272 Co 0.89086 0.11333 0.79604 0.0
Co273 Co 0.82624 0.09092 0.79852 0.0
C274 C 0.85207 0.0591 0.80492 0.0
O275 O 0.87574 0.07784 0.80217 0.0
O276 O 0.83009 0.06116 0.8041 0.0
C277 C 0.94189 0.1323 0.8038 0.0
O278 O 0.9242 0.12397 0.80983 0.0
C279 C 0.77091 0.07109 0.80583 0.0
C280 C 0.75159 0.08822 0.79763 0.0
C281 C 0.74689 0.07297 0.8046 0.0
N282 N 0.78898 0.08455 0.79983 0.0
N283 N 0.77723 0.09455 0.79492 0.0
C284 C 0.77772 0.05892 0.8129 0.0
H285 H 0.77254 0.03707 0.81149 0.0
H286 H 0.80054 0.07143 0.81428 0.0
H287 H 0.76544 0.05849 0.81822 0.0
C288 C 0.89422 0.16431 0.80336 0.0
N289 N 0.87945 0.13779 0.80052 0.0
N290 N 0.85261 0.12757 0.80219 0.0
C291 C 0.84967 0.14687 0.80643 0.0
C292 C 0.8759 0.17077 0.80726 0.0
C293 C 0.92553 0.18261 0.80281 0.0
H294 H 0.93363 0.17743 0.7974 0.0
H295 H 0.93536 0.17933 0.80818 0.0
H296 H 0.93165 0.20518 0.80262 0.0
O297 O 0.87707 0.10242 0.78499 0.0
O298 O 0.83144 0.0866 0.78699 0.0
H299 H 0.80783 0.13948 0.80491 0.0
H300 H 0.82554 0.16035 0.81356 0.0
C301 C 0.82247 0.14227 0.80984 0.0
H302 H 0.81273 0.12285 0.81351 0.0
H303 H 0.787 0.10624 0.7898 0.0
O304 O 0.93234 0.13027 0.79677 0.0
C305 C 0.85187 0.09123 0.7824 0.0
Co306 Co 0.77741 0.89092 0.70008 0.0
Co307 Co 0.73423 0.91258 0.69813 0.0
C308 C 0.79141 0.94481 0.69131 0.0
O309 O 0.79702 0.92651 0.69402 0.0
O310 O 0.76723 0.94228 0.69229 0.0
C311 C 0.81416 0.87663 0.6926 0.0
O312 O 0.80967 0.88988 0.68677 0.0
C313 C 0.69655 0.92969 0.6908 0.0
C314 C 0.66253 0.91554 0.69976 0.0
C315 C 0.67067 0.92769 0.69228 0.0
N316 N 0.703 0.91858 0.69703 0.0
N317 N 0.68275 0.91043 0.70241 0.0
C318 C 0.71585 0.94338 0.68385 0.0
H319 H 0.73667 0.95988 0.68608 0.0
H320 H 0.71904 0.92752 0.68062 0.0
H321 H 0.70789 0.95352 0.6797 0.0
C322 C 0.73016 0.84001 0.69287 0.0
N323 N 0.74155 0.86646 0.69571 0.0
N324 N 0.72397 0.87585 0.69447 0.0
C325 C 0.70104 0.85578 0.69063 0.0
C326 C 0.70422 0.83247 0.68953 0.0
C327 C 0.74476 0.8231 0.69285 0.0
H328 H 0.75569 0.8257 0.69861 0.0
H329 H 0.76067 0.83086 0.688 0.0
H330 H 0.72981 0.80043 0.6918 0.0
O331 O 0.77483 0.9015 0.71121 0.0
O332 O 0.74474 0.91718 0.70957 0.0
H333 H 0.66705 0.86301 0.6933 0.0
H334 H 0.6602 0.83952 0.68501 0.0
C335 C 0.67658 0.85881 0.68803 0.0
H336 H 0.68403 0.87691 0.68389 0.0
H337 H 0.68248 0.90087 0.70782 0.0
O338 O 0.80182 0.87373 0.69926 0.0
C339 C 0.76094 0.91256 0.71399 0.0
Co340 Co 0.10038 0.88109 0.70081 0.0
Co341 Co 0.08464 0.81842 0.69734 0.0
C342 C 0.04753 0.83912 0.69179 0.0
O343 O 0.06409 0.86298 0.6949 0.0
O344 O 0.05273 0.81898 0.69207 0.0
C345 C 0.11041 0.93169 0.694 0.0
O346 O 0.09789 0.91417 0.68807 0.0
C347 C 0.06952 0.76428 0.68979 0.0
C348 C 0.09408 0.75022 0.69696 0.0
C349 C 0.07627 0.7431 0.69045 0.0
N350 N 0.08321 0.78335 0.69556 0.0
N351 N 0.09766 0.77471 0.69986 0.0
C352 C 0.04934 0.76591 0.68409 0.0
H353 H 0.03341 0.76841 0.68751 0.0
H354 H 0.06091 0.78472 0.68023 0.0
H355 H 0.03811 0.74674 0.68037 0.0
C356 C 0.15264 0.89199 0.69273 0.0
N357 N 0.12698 0.87415 0.69571 0.0
N358 N 0.11973 0.84826 0.69366 0.0
C359 C 0.14019 0.84889 0.68904 0.0
C360 C 0.1618 0.8767 0.68829 0.0
C361 C 0.16847 0.92301 0.69434 0.0
H362 H 0.16338 0.92737 0.70039 0.0
H363 H 0.1623 0.93392 0.6899 0.0
H364 H 0.19154 0.93154 0.69389 0.0
O365 O 0.09194 0.86568 0.71177 0.0
O366 O 0.07929 0.82125 0.70896 0.0
H367 H 0.14238 0.81107 0.68898 0.0
H368 H 0.15226 0.8299 0.67962 0.0
C369 C 0.13763 0.82373 0.68477 0.0
H370 H 0.1158 0.81046 0.68256 0.0
H371 H 0.11036 0.7858 0.7047 0.0
O372 O 0.11415 0.92222 0.70054 0.0
C373 C 0.08243 0.8402 0.71394 0.0
Co374 Co 0.11253 0.21659 0.69935 0.0
Co375 Co 0.17623 0.26283 0.69724 0.0
C376 C 0.15507 0.20542 0.69099 0.0
O377 O 0.13042 0.19844 0.69341 0.0
O378 O 0.17574 0.23018 0.69203 0.0
C379 C 0.06205 0.18085 0.69164 0.0
O380 O 0.07963 0.19002 0.68558 0.0
C381 C 0.23228 0.30076 0.69055 0.0
C382 C 0.24661 0.33883 0.69798 0.0
C383 C 0.25446 0.32797 0.69166 0.0
N384 N 0.2123 0.29572 0.696 0.0
N385 N 0.22106 0.3185 0.70045 0.0
C386 C 0.22877 0.28081 0.68397 0.0
H387 H 0.20649 0.26921 0.68198 0.0
H388 H 0.2424 0.29208 0.67879 0.0
H389 H 0.23444 0.26526 0.68622 0.0
C390 C 0.1049 0.2605 0.69147 0.0
N391 N 0.12142 0.25139 0.69467 0.0
N392 N 0.14792 0.26971 0.6931 0.0
C393 C 0.14901 0.29056 0.68856 0.0
C394 C 0.12171 0.28536 0.68736 0.0
C395 C 0.07365 0.24632 0.6926 0.0
H396 H 0.06756 0.23506 0.6984 0.0
H397 H 0.06295 0.23093 0.68773 0.0
H398 H 0.06643 0.26197 0.69242 0.0
O399 O 0.12597 0.22099 0.71047 0.0
O400 O 0.1709 0.25376 0.70883 0.0
H401 H 0.1876 0.32973 0.68931 0.0
H402 H 0.17081 0.32314 0.67967 0.0
C403 C 0.1754 0.31329 0.68479 0.0
H404 H 0.18851 0.30444 0.68268 0.0
H405 H 0.20935 0.32031 0.70508 0.0
O406 O 0.07146 0.18983 0.6986 0.0
C407 C 0.15062 0.23669 0.71328 0.0
Co408 Co 0.77156 0.54976 0.53322 0.0
Co409 Co 0.75066 0.5927 0.52967 0.0
C410 C 0.72044 0.53606 0.52285 0.0
O411 O 0.73754 0.53048 0.52642 0.0
O412 O 0.72302 0.56041 0.52327 0.0
C413 C 0.7901 0.51644 0.52603 0.0
O414 O 0.78338 0.52649 0.51982 0.0
C415 C 0.73396 0.6308 0.52216 0.0
C416 C 0.75078 0.666 0.53079 0.0
C417 C 0.73715 0.65726 0.52351 0.0
N418 N 0.7458 0.62459 0.52827 0.0
N419 N 0.75555 0.64559 0.53344 0.0
C420 C 0.71836 0.61077 0.5155 0.0
H421 H 0.70329 0.58987 0.51803 0.0
H422 H 0.7335 0.60823 0.51169 0.0
H423 H 0.70626 0.61785 0.51184 0.0
C424 C 0.82467 0.59701 0.52672 0.0
N425 N 0.79758 0.58563 0.52903 0.0
N426 N 0.78827 0.60274 0.52703 0.0
C427 C 0.80885 0.62505 0.52312 0.0
C428 C 0.8326 0.62218 0.52282 0.0
C429 C 0.84197 0.583 0.52766 0.0
H430 H 0.83528 0.56944 0.53304 0.0
H431 H 0.83919 0.56992 0.52232 0.0
H432 H 0.86468 0.59875 0.52818 0.0
O433 O 0.75845 0.55252 0.54402 0.0
O434 O 0.74182 0.581 0.54101 0.0
H435 H 0.80232 0.6601 0.52442 0.0
H436 H 0.82451 0.66332 0.51612 0.0
C437 C 0.80563 0.64833 0.51957 0.0
H438 H 0.78687 0.6393 0.51563 0.0
H439 H 0.7659 0.64617 0.53872 0.0
O440 O 0.78747 0.52423 0.53297 0.0
C441 C 0.74553 0.56557 0.54599 0.0
Co442 Co 0.44851 0.21873 0.53333 0.0
Co443 Co 0.40222 0.15479 0.53206 0.0
C444 C 0.45792 0.17556 0.52462 0.0
O445 O 0.46524 0.20021 0.52708 0.0
O446 O 0.43339 0.15493 0.52598 0.0
C447 C 0.48283 0.26793 0.52487 0.0
O448 O 0.47235 0.24946 0.51905 0.0
C449 C 0.36249 0.09895 0.52575 0.0
C450 C 0.3277 0.08333 0.5345 0.0
C451 C 0.33612 0.07635 0.52749 0.0
N452 N 0.36942 0.11846 0.53147 0.0
N453 N 0.34865 0.10893 0.53672 0.0
C454 C 0.37984 0.10307 0.51844 0.0
H455 H 0.39028 0.12542 0.51653 0.0
H456 H 0.36676 0.08938 0.51348 0.0
H457 H 0.39647 0.09784 0.51988 0.0
C458 C 0.4017 0.22512 0.52679 0.0
N459 N 0.41243 0.20918 0.52942 0.0
N460 N 0.39373 0.18243 0.52832 0.0
C461 C 0.37086 0.18057 0.52471 0.0
C462 C 0.37515 0.20752 0.52367 0.0
C463 C 0.41722 0.25664 0.52685 0.0
H464 H 0.43119 0.2647 0.53214 0.0
H465 H 0.43019 0.26451 0.52137 0.0
H466 H 0.40252 0.26499 0.52693 0.0
O467 O 0.44697 0.20664 0.54454 0.0
O468 O 0.4143 0.16144 0.54338 0.0
H469 H 0.33466 0.14139 0.52778 0.0
H470 H 0.33016 0.1572 0.51892 0.0
C471 C 0.34534 0.15353 0.52234 0.0
H472 H 0.35178 0.14081 0.51871 0.0
H473 H 0.34856 0.12015 0.54174 0.0
O474 O 0.47512 0.25962 0.532 0.0
C475 C 0.43208 0.18218 0.54756 0.0
Co476 Co 0.77427 0.21903 0.53419 0.0
Co477 Co 0.83894 0.24051 0.53222 0.0
C478 C 0.81443 0.27333 0.5256 0.0
O479 O 0.79033 0.25479 0.52815 0.0
O480 O 0.83603 0.27074 0.52662 0.0
C481 C 0.72353 0.20139 0.52628 0.0
O482 O 0.74135 0.21006 0.52028 0.0
C483 C 0.89479 0.26038 0.52528 0.0
C484 C 0.91297 0.24199 0.53344 0.0
C485 C 0.91847 0.25799 0.52658 0.0
N486 N 0.8761 0.24645 0.5311 0.0
N487 N 0.88718 0.2357 0.536 0.0
C488 C 0.88891 0.27354 0.51826 0.0
H489 H 0.86636 0.261 0.51657 0.0
H490 H 0.90216 0.27509 0.51306 0.0
H491 H 0.89348 0.29502 0.51992 0.0
C492 C 0.77071 0.16814 0.52671 0.0
N493 N 0.78553 0.19436 0.52975 0.0
N494 N 0.81249 0.20422 0.52834 0.0
C495 C 0.81552 0.18501 0.52409 0.0
C496 C 0.78919 0.16153 0.52296 0.0
C497 C 0.73928 0.15039 0.52688 0.0
H498 H 0.7307 0.15509 0.53227 0.0
H499 H 0.73044 0.15483 0.52148 0.0
H500 H 0.73259 0.12767 0.52683 0.0
O501 O 0.78733 0.22941 0.54535 0.0
O502 O 0.83297 0.24449 0.5437 0.0
H503 H 0.85681 0.19139 0.52603 0.0
H504 H 0.84006 0.17145 0.51718 0.0
C505 C 0.84297 0.18933 0.52096 0.0
H506 H 0.85352 0.20906 0.51743 0.0
H507 H 0.87686 0.22356 0.541 0.0
O508 O 0.73287 0.20267 0.5333 0.0
C509 C 0.81224 0.24007 0.54814 0.0
Co510 Co 0.88403 0.43634 0.63139 0.0
Co511 Co 0.92915 0.41704 0.63288 0.0
C512 C 0.87273 0.383 0.64005 0.0
O513 O 0.86609 0.40076 0.6375 0.0
O514 O 0.89716 0.38636 0.63884 0.0
C515 C 0.84575 0.44875 0.63896 0.0
O516 O 0.84963 0.43475 0.64471 0.0
C517 C 0.96775 0.39979 0.63942 0.0
C518 C 0.00301 0.41855 0.63081 0.0
C519 C 0.99405 0.40315 0.63781 0.0
N520 N 0.96139 0.41262 0.63364 0.0
N521 N 0.98243 0.42358 0.62847 0.0
C522 C 0.94994 0.38673 0.64666 0.0
H523 H 0.93315 0.36499 0.64519 0.0
H524 H 0.93972 0.39893 0.6485 0.0
H525 H 0.96264 0.38583 0.65169 0.0
C526 C 0.93055 0.48808 0.63849 0.0
N527 N 0.91988 0.46178 0.63559 0.0
N528 N 0.93826 0.4533 0.63666 0.0
C529 C 0.96103 0.47381 0.64045 0.0
C530 C 0.95691 0.49651 0.64168 0.0
C531 C 0.91482 0.50388 0.63873 0.0
H532 H 0.90399 0.50155 0.63296 0.0
H533 H 0.89868 0.4949 0.6435 0.0
H534 H 0.92891 0.52655 0.64001 0.0
O535 O 0.8862 0.42602 0.6202 0.0
O536 O 0.91777 0.4121 0.6215 0.0
H537 H 0.99678 0.46994 0.63741 0.0
H538 H 0.00164 0.49048 0.64626 0.0
C539 C 0.98623 0.47174 0.64284 0.0
H540 H 0.97942 0.45256 0.6465 0.0
H541 H 0.98299 0.43504 0.62343 0.0
O542 O 0.85877 0.45251 0.63239 0.0
C543 C 0.90064 0.41583 0.61725 0.0
Co544 Co 0.56375 0.44897 0.6318 0.0
Co545 Co 0.58048 0.51263 0.63383 0.0
C546 C 0.61672 0.49196 0.6404 0.0
O547 O 0.59978 0.46743 0.63776 0.0
O548 O 0.61203 0.51227 0.63945 0.0
C549 C 0.55422 0.39858 0.63895 0.0
O550 O 0.56825 0.41644 0.6447 0.0
C551 C 0.59417 0.56635 0.64125 0.0
C552 C 0.57728 0.58429 0.63249 0.0
C553 C 0.59021 0.58912 0.63988 0.0
N554 N 0.58347 0.54861 0.63504 0.0
N555 N 0.57363 0.55954 0.62979 0.0
C556 C 0.60949 0.5621 0.64802 0.0
H557 H 0.62738 0.56035 0.64561 0.0
H558 H 0.59517 0.54204 0.65111 0.0
H559 H 0.61809 0.57977 0.65233 0.0
C560 C 0.51164 0.44083 0.63951 0.0
N561 N 0.53745 0.45755 0.63641 0.0
N562 N 0.54482 0.48407 0.63764 0.0
C563 C 0.52408 0.48499 0.64173 0.0
C564 C 0.50242 0.45766 0.64301 0.0
C565 C 0.49717 0.40934 0.63969 0.0
H566 H 0.49944 0.40132 0.63383 0.0
H567 H 0.50719 0.40276 0.64431 0.0
H568 H 0.47449 0.39981 0.64115 0.0
O569 O 0.57293 0.46252 0.62061 0.0
O570 O 0.58569 0.50755 0.62239 0.0
H571 H 0.5279 0.52497 0.63921 0.0
H572 H 0.50543 0.507 0.64759 0.0
C573 C 0.52504 0.51145 0.64444 0.0
H574 H 0.54324 0.52313 0.6485 0.0
H575 H 0.56401 0.54988 0.62442 0.0
O576 O 0.54929 0.40772 0.63253 0.0
C577 C 0.58252 0.48742 0.6179 0.0
Co578 Co 0.55307 0.11303 0.63214 0.0
Co579 Co 0.48861 0.06822 0.63348 0.0
C580 C 0.51142 0.12512 0.6405 0.0
O581 O 0.53618 0.13163 0.63832 0.0
O582 O 0.49039 0.10094 0.63904 0.0
C583 C 0.60401 0.14667 0.64007 0.0
O584 O 0.58646 0.13762 0.64613 0.0
C585 C 0.43312 0.0315 0.64043 0.0
C586 C 0.4146 0.99553 0.63207 0.0
C587 C 0.40936 0.00558 0.63906 0.0
N588 N 0.4516 0.03665 0.63452 0.0
N589 N 0.44034 0.01518 0.6295 0.0
C590 C 0.43931 0.05002 0.64759 0.0
H591 H 0.46196 0.06 0.64916 0.0
H592 H 0.42638 0.03792 0.65279 0.0
H593 H 0.43452 0.06696 0.64616 0.0
C594 C 0.55759 0.06564 0.63912 0.0
N595 N 0.54238 0.07694 0.63631 0.0
N596 N 0.51544 0.05899 0.63746 0.0
C597 C 0.51277 0.03616 0.6413 0.0
C598 C 0.53935 0.03962 0.64243 0.0
C599 C 0.58908 0.07998 0.63901 0.0
H600 H 0.59749 0.09342 0.63363 0.0
H601 H 0.59753 0.09327 0.64441 0.0
H602 H 0.59639 0.06443 0.63905 0.0
O603 O 0.54046 0.11082 0.62095 0.0
O604 O 0.49509 0.07852 0.62203 0.0
H605 H 0.47259 0.00074 0.63855 0.0
H606 H 0.48853 0.99621 0.6474 0.0
C607 C 0.48536 0.01156 0.64389 0.0
H608 H 0.47355 0.01907 0.64753 0.0
H609 H 0.45046 0.0137 0.6244 0.0
O610 O 0.59438 0.13842 0.63307 0.0
C611 C 0.51609 0.09596 0.61786 0.0
Co612 Co 0.56484 0.11327 0.13165 0.0
Co613 Co 0.58264 0.06679 0.13263 0.0
C614 C 0.61866 0.12382 0.13954 0.0
O615 O 0.60094 0.1312 0.13751 0.0
O616 O 0.61449 0.09927 0.13804 0.0
C617 C 0.55371 0.15298 0.13902 0.0
O618 O 0.56894 0.15043 0.14465 0.0
C619 C 0.5977 0.02752 0.13987 0.0
C620 C 0.58316 0.99376 0.13082 0.0
C621 C 0.59518 0.00146 0.13833 0.0
N622 N 0.58706 0.03453 0.13364 0.0
N623 N 0.57861 0.0144 0.12822 0.0
C624 C 0.61157 0.04659 0.14685 0.0
H625 H 0.62919 0.06686 0.14467 0.0
H626 H 0.59625 0.05115 0.14986 0.0
H627 H 0.62033 0.03774 0.15118 0.0
C628 C 0.51329 0.06757 0.13901 0.0
N629 N 0.53937 0.07772 0.136 0.0
N630 N 0.54707 0.05863 0.1368 0.0
C631 C 0.5262 0.03585 0.14049 0.0
C632 C 0.50416 0.0408 0.14197 0.0
C633 C 0.4981 0.08388 0.13945 0.0
H634 H 0.49954 0.09408 0.13362 0.0
H635 H 0.50828 0.10057 0.14403 0.0
H636 H 0.47564 0.07032 0.14108 0.0
O637 O 0.57392 0.11015 0.12037 0.0
O638 O 0.58583 0.07692 0.12118 0.0
H639 H 0.53063 0.00081 0.13696 0.0
H640 H 0.50716 0.99356 0.14529 0.0
C641 C 0.52707 0.0097 0.14248 0.0
H642 H 0.54481 0.01501 0.14661 0.0
H643 H 0.56937 0.01456 0.12279 0.0
O644 O 0.54896 0.1388 0.13263 0.0
C645 C 0.58248 0.09472 0.11713 0.0
Co646 Co 0.8866 0.44848 0.13153 0.0
Co647 Co 0.93169 0.51241 0.13409 0.0
C648 C 0.87457 0.48912 0.14072 0.0
O649 O 0.86789 0.46519 0.13778 0.0
O650 O 0.89924 0.51015 0.13992 0.0
C651 C 0.8477 0.397 0.1385 0.0
O652 O 0.85173 0.41423 0.14444 0.0
C653 C 0.97076 0.56604 0.14173 0.0
C654 C 0.00473 0.58575 0.13274 0.0
C655 C 0.9969 0.58958 0.14029 0.0
N656 N 0.96383 0.54883 0.1354 0.0
N657 N 0.98408 0.56081 0.13002 0.0
C658 C 0.95158 0.56053 0.1487 0.0
H659 H 0.93126 0.55779 0.14652 0.0
H660 H 0.9471 0.54061 0.15166 0.0
H661 H 0.96034 0.57802 0.15307 0.0
C662 C 0.93198 0.44164 0.13886 0.0
N663 N 0.92184 0.45787 0.13606 0.0
N664 N 0.94023 0.48448 0.13749 0.0
C665 C 0.96248 0.48596 0.14138 0.0
C666 C 0.95796 0.45891 0.14236 0.0
C667 C 0.91602 0.41011 0.13875 0.0
H668 H 0.90556 0.40248 0.13289 0.0
H669 H 0.89959 0.40241 0.14345 0.0
H670 H 0.9299 0.4012 0.13992 0.0
O671 O 0.89057 0.46299 0.12045 0.0
O672 O 0.92148 0.50811 0.12269 0.0
H673 H 0.99742 0.52685 0.13894 0.0
H674 H 0.00359 0.5088 0.14697 0.0
C675 C 0.98761 0.51272 0.14412 0.0
H676 H 0.98082 0.52346 0.14843 0.0
H677 H 0.98396 0.55175 0.12453 0.0
O678 O 0.86095 0.40696 0.13199 0.0
C679 C 0.90525 0.48833 0.118 0.0
Co680 Co 0.54987 0.43215 0.13332 0.0
Co681 Co 0.486 0.41553 0.13417 0.0
C682 C 0.50529 0.37832 0.14108 0.0
O683 O 0.53051 0.3958 0.13907 0.0
O684 O 0.48515 0.38289 0.13959 0.0
C685 C 0.60002 0.44111 0.14075 0.0
O686 O 0.5819 0.42509 0.14621 0.0
C687 C 0.43007 0.39905 0.14045 0.0
C688 C 0.41521 0.42007 0.13211 0.0
C689 C 0.40776 0.40346 0.13889 0.0
N690 N 0.44986 0.41241 0.13484 0.0
N691 N 0.44078 0.42475 0.12983 0.0
C692 C 0.43371 0.38449 0.14752 0.0
H693 H 0.42817 0.36279 0.14578 0.0
H694 H 0.45602 0.3958 0.14949 0.0
H695 H 0.41997 0.38332 0.15254 0.0
C696 C 0.5565 0.48369 0.14092 0.0
N697 N 0.54036 0.45796 0.13773 0.0
N698 N 0.51366 0.45053 0.13854 0.0
C699 C 0.51199 0.47115 0.14247 0.0
C700 C 0.53906 0.49282 0.14404 0.0
C701 C 0.58797 0.49843 0.14141 0.0
H702 H 0.59415 0.48768 0.1459 0.0
H703 H 0.59709 0.52079 0.14318 0.0
H704 H 0.59677 0.49727 0.13555 0.0
O705 O 0.53841 0.42378 0.12198 0.0
O706 O 0.49344 0.41241 0.12277 0.0
H707 H 0.48887 0.48859 0.14834 0.0
H708 H 0.47132 0.45053 0.14797 0.0
C709 C 0.48506 0.47022 0.14465 0.0
H710 H 0.47395 0.47022 0.13913 0.0
H711 H 0.45231 0.43686 0.12495 0.0
O712 O 0.59106 0.44714 0.13448 0.0
C713 C 0.51451 0.41554 0.11872 0.0
Co714 Co 0.44937 0.23504 0.03266 0.0
Co715 Co 0.39974 0.24858 0.03246 0.0
C716 C 0.45614 0.2879 0.02534 0.0
O717 O 0.4651 0.27105 0.02688 0.0
O718 O 0.43136 0.28214 0.02724 0.0
C719 C 0.49269 0.2286 0.02544 0.0
O720 O 0.49146 0.24571 0.02019 0.0
C721 C 0.35655 0.25766 0.02496 0.0
C722 C 0.32819 0.25156 0.03507 0.0
C723 C 0.33198 0.2577 0.02699 0.0
N724 N 0.36652 0.25142 0.03151 0.0
N725 N 0.34944 0.24775 0.03753 0.0
C726 C 0.37132 0.2651 0.01706 0.0
H727 H 0.39322 0.26945 0.01762 0.0
H728 H 0.36028 0.24722 0.01287 0.0
H729 H 0.3712 0.28367 0.01446 0.0
C730 C 0.40538 0.18247 0.02532 0.0
N731 N 0.41415 0.20819 0.02842 0.0
N732 N 0.39337 0.2137 0.02817 0.0
C733 C 0.3706 0.19142 0.02492 0.0
C734 C 0.37756 0.17107 0.02299 0.0
C735 C 0.4238 0.16974 0.02428 0.0
H736 H 0.44102 0.18284 0.02006 0.0
H737 H 0.41201 0.14798 0.0219 0.0
H738 H 0.43339 0.16959 0.03009 0.0
O739 O 0.44624 0.24363 0.04403 0.0
O740 O 0.41032 0.25178 0.04383 0.0
H741 H 0.32573 0.1667 0.02282 0.0
H742 H 0.34273 0.20209 0.01899 0.0
C743 C 0.34223 0.18881 0.02403 0.0
H744 H 0.33671 0.19611 0.02955 0.0
H745 H 0.35241 0.24284 0.04333 0.0
O746 O 0.47654 0.22112 0.0315 0.0
C747 C 0.42976 0.25026 0.04758 0.0
Co748 Co 0.76904 0.21733 0.03192 0.0
Co749 Co 0.74965 0.15305 0.0301 0.0
C750 C 0.71626 0.17639 0.02301 0.0
O751 O 0.7341 0.20076 0.02554 0.0
O752 O 0.71932 0.15521 0.02429 0.0
C753 C 0.78557 0.26788 0.02406 0.0
O754 O 0.77745 0.25017 0.01804 0.0
C755 C 0.73376 0.09862 0.02273 0.0
C756 C 0.74904 0.07946 0.03158 0.0
C757 C 0.73649 0.07514 0.02415 0.0
N758 N 0.74483 0.11627 0.02895 0.0
N759 N 0.75367 0.10459 0.03425 0.0
C760 C 0.71933 0.10373 0.01587 0.0
H761 H 0.70232 0.10709 0.01821 0.0
H762 H 0.73461 0.12319 0.01269 0.0
H763 H 0.70967 0.08578 0.01167 0.0
C764 C 0.82165 0.22281 0.02523 0.0
N765 N 0.7949 0.20719 0.02782 0.0
N766 N 0.78619 0.1804 0.0265 0.0
C767 C 0.80687 0.17826 0.02277 0.0
C768 C 0.82998 0.20503 0.02188 0.0
C769 C 0.83843 0.2543 0.02553 0.0
H770 H 0.83282 0.26215 0.03092 0.0
H771 H 0.83377 0.26301 0.02015 0.0
H772 H 0.86136 0.26195 0.0256 0.0
O773 O 0.75783 0.20385 0.04301 0.0
O774 O 0.74455 0.15854 0.04154 0.0
H775 H 0.80113 0.13755 0.02532 0.0
H776 H 0.82398 0.15475 0.01695 0.0
C777 C 0.80462 0.15119 0.02007 0.0
H778 H 0.78633 0.1401 0.01602 0.0
H779 H 0.76333 0.11402 0.03964 0.0
O780 O 0.7845 0.25855 0.03108 0.0
C781 C 0.74787 0.17911 0.04588 0.0
Co782 Co 0.7788 0.55226 0.03433 0.0
Co783 Co 0.84205 0.59476 0.03004 0.0
C784 C 0.81582 0.53703 0.02419 0.0
O785 O 0.79352 0.53192 0.02792 0.0
O786 O 0.83739 0.56159 0.02412 0.0
C787 C 0.72667 0.51625 0.02764 0.0
O788 O 0.74348 0.52185 0.02148 0.0
C789 C 0.89645 0.63177 0.02222 0.0
C790 C 0.91398 0.66929 0.03002 0.0
C791 C 0.91924 0.65879 0.02313 0.0
N792 N 0.8783 0.62679 0.02822 0.0
N793 N 0.889 0.6492 0.0329 0.0
C794 C 0.89243 0.61037 0.01603 0.0
H795 H 0.88817 0.59059 0.01903 0.0
H796 H 0.87384 0.6056 0.0123 0.0
H797 H 0.91126 0.61754 0.01219 0.0
C798 C 0.77153 0.59702 0.02699 0.0
N799 N 0.78802 0.58693 0.02955 0.0
N800 N 0.81399 0.60372 0.02715 0.0
C801 C 0.81467 0.62456 0.0227 0.0
C802 C 0.7877 0.62098 0.02244 0.0
C803 C 0.74095 0.58427 0.02902 0.0
H804 H 0.73674 0.57445 0.03502 0.0
H805 H 0.72815 0.56779 0.02458 0.0
H806 H 0.73444 0.60046 0.02892 0.0
O807 O 0.79536 0.55733 0.04506 0.0
O808 O 0.84012 0.58507 0.04156 0.0
H809 H 0.85467 0.66232 0.02216 0.0
H810 H 0.83411 0.65501 0.01315 0.0
C811 C 0.83993 0.64542 0.01808 0.0
H812 H 0.85092 0.63489 0.01553 0.0
H813 H 0.87901 0.65093 0.03799 0.0
O814 O 0.7372 0.52749 0.03434 0.0
C815 C 0.8215 0.57071 0.04679 0.0
Co816 Co 0.44321 0.88919 0.86794 0.0
Co817 Co 0.42256 0.93146 0.86321 0.0
C818 C 0.38892 0.87267 0.8586 0.0
O819 O 0.40675 0.86836 0.86226 0.0
O820 O 0.39217 0.89727 0.85805 0.0
C821 C 0.45621 0.85119 0.86123 0.0
O822 O 0.44489 0.85734 0.85521 0.0
C823 C 0.40385 0.96769 0.85547 0.0
C824 C 0.42861 0.0075 0.86213 0.0
C825 C 0.40969 0.99541 0.85591 0.0
N826 N 0.41909 0.96381 0.86109 0.0
N827 N 0.43366 0.98761 0.86508 0.0
C828 C 0.38312 0.94474 0.85015 0.0
H829 H 0.36955 0.92581 0.85378 0.0
H830 H 0.39466 0.93903 0.84578 0.0
H831 H 0.3694 0.95099 0.84695 0.0
C832 C 0.49396 0.93134 0.85952 0.0
N833 N 0.46796 0.92233 0.86242 0.0
N834 N 0.45868 0.93882 0.85981 0.0
C835 C 0.47818 0.95836 0.85491 0.0
C836 C 0.50125 0.95425 0.85456 0.0
C837 C 0.51178 0.9187 0.86168 0.0
H838 H 0.50676 0.90996 0.86781 0.0
H839 H 0.50746 0.90139 0.85747 0.0
H840 H 0.53451 0.93469 0.86131 0.0
O841 O 0.43438 0.89707 0.87871 0.0
O842 O 0.41719 0.92439 0.87492 0.0
H843 H 0.47805 0.99708 0.85376 0.0
H844 H 0.48723 0.98579 0.8447 0.0
C845 C 0.47346 0.97853 0.85005 0.0
H846 H 0.45118 0.96831 0.8481 0.0
H847 H 0.44741 0.99039 0.86975 0.0
O848 O 0.45866 0.86321 0.86791 0.0
C849 C 0.42225 0.91116 0.88034 0.0
Co850 Co 0.11015 0.55132 0.86831 0.0
Co851 Co 0.0672 0.48705 0.86578 0.0
C852 C 0.12388 0.51319 0.85854 0.0
O853 O 0.12945 0.53675 0.86152 0.0
O854 O 0.09995 0.49125 0.85957 0.0
C855 C 0.14353 0.60392 0.86122 0.0
O856 O 0.13461 0.5878 0.85485 0.0
C857 C 0.03044 0.43297 0.85806 0.0
C858 C 0.99647 0.41149 0.86697 0.0
C859 C 0.00528 0.40832 0.85949 0.0
N860 N 0.03628 0.44992 0.86442 0.0
N861 N 0.01602 0.4369 0.86975 0.0
C862 C 0.04752 0.44141 0.85056 0.0
H863 H 0.05762 0.4645 0.84966 0.0
H864 H 0.03425 0.43033 0.84531 0.0
H865 H 0.06438 0.43591 0.85109 0.0
C866 C 0.06194 0.55581 0.862 0.0
N867 N 0.07383 0.54061 0.86434 0.0
N868 N 0.05645 0.51384 0.86278 0.0
C869 C 0.03326 0.51129 0.85919 0.0
C870 C 0.03597 0.53777 0.8586 0.0
C871 C 0.076 0.58724 0.8625 0.0
H872 H 0.0895 0.59493 0.86789 0.0
H873 H 0.08925 0.59658 0.85713 0.0
H874 H 0.06039 0.59444 0.86272 0.0
O875 O 0.10861 0.53647 0.87917 0.0
O876 O 0.07822 0.49102 0.87719 0.0
H877 H -0.00027 0.46947 0.86145 0.0
H878 H 0.99236 0.48716 0.85356 0.0
C879 C 0.00901 0.48409 0.85634 0.0
H880 H 0.01662 0.47432 0.85194 0.0
H881 H 0.01531 0.44558 0.87522 0.0
O882 O 0.13498 0.59274 0.86805 0.0
C883 C 0.09488 0.51121 0.88172 0.0
Co884 Co 0.4442 0.55988 0.86597 0.0
Co885 Co 0.50808 0.57697 0.86478 0.0
C886 C 0.48765 0.61377 0.85815 0.0
O887 O 0.46245 0.59604 0.8601 0.0
O888 O 0.50785 0.60929 0.85961 0.0
C889 C 0.39396 0.54579 0.85804 0.0
O890 O 0.41176 0.55477 0.85203 0.0
C891 C 0.56262 0.59425 0.85753 0.0
C892 C 0.58153 0.57687 0.86579 0.0
C893 C 0.58633 0.59187 0.85875 0.0
N894 N 0.54462 0.58138 0.86357 0.0
N895 N 0.55608 0.57117 0.86852 0.0
C896 C 0.556 0.60638 0.85041 0.0
H897 H 0.5331 0.59422 0.8491 0.0
H898 H 0.56796 0.60621 0.84509 0.0
H899 H 0.56175 0.62846 0.85172 0.0
C900 C 0.43775 0.50783 0.85847 0.0
N901 N 0.45366 0.53391 0.86151 0.0
N902 N 0.48044 0.54184 0.86051 0.0
C903 C 0.48235 0.52139 0.85658 0.0
C904 C 0.45541 0.49923 0.8552 0.0
C905 C 0.40623 0.49184 0.8584 0.0
H906 H 0.39865 0.4983 0.85312 0.0
H907 H 0.39797 0.46883 0.85798 0.0
H908 H 0.39789 0.4964 0.86387 0.0
O909 O 0.45678 0.56897 0.87723 0.0
O910 O 0.50161 0.57985 0.87627 0.0
H911 H 0.50565 0.5039 0.85084 0.0
H912 H 0.52188 0.54183 0.85047 0.0
C913 C 0.50938 0.5229 0.8542 0.0
H914 H 0.52175 0.52476 0.85963 0.0
H915 H 0.54633 0.55991 0.8737 0.0
O916 O 0.40313 0.54554 0.86499 0.0
C917 C 0.48081 0.57703 0.88039 0.0
Co918 Co 0.5516 0.76883 0.96454 0.0
Co919 Co 0.59836 0.75187 0.96578 0.0
C920 C 0.54215 0.71657 0.97317 0.0
O921 O 0.53455 0.73397 0.97097 0.0
O922 O 0.56654 0.72054 0.97155 0.0
C923 C 0.51567 0.78378 0.97227 0.0
O924 O 0.52531 0.77646 0.97846 0.0
C925 C 0.63669 0.73605 0.97304 0.0
C926 C 0.67197 0.75222 0.96445 0.0
C927 C 0.66268 0.73836 0.97168 0.0
N928 N 0.63074 0.74786 0.96689 0.0
N929 N 0.65181 0.75736 0.96174 0.0
C930 C 0.61881 0.725 0.98037 0.0
H931 H 0.60818 0.73732 0.98161 0.0
H932 H 0.63159 0.72602 0.98562 0.0
H933 H 0.60237 0.70273 0.97935 0.0
C934 C 0.59778 0.82204 0.9713 0.0
N935 N 0.58746 0.7956 0.96853 0.0
N936 N 0.60641 0.78784 0.96957 0.0
C937 C 0.62903 0.80882 0.97327 0.0
C938 C 0.6243 0.83112 0.97445 0.0
C939 C 0.58199 0.83778 0.97135 0.0
H940 H 0.56863 0.83196 0.97676 0.0
H941 H 0.59659 0.86085 0.97148 0.0
H942 H 0.56838 0.83233 0.966 0.0
O943 O 0.55372 0.75778 0.9534 0.0
O944 O 0.58755 0.74676 0.95437 0.0
H945 H 0.66471 0.80468 0.97032 0.0
H946 H 0.67022 0.82707 0.9788 0.0
C947 C 0.65464 0.80755 0.9757 0.0
H948 H 0.64839 0.78926 0.97969 0.0
H949 H 0.65262 0.76775 0.95645 0.0
O950 O 0.52471 0.7829 0.96535 0.0
C951 C 0.56915 0.749 0.95028 0.0
Co952 Co 0.22397 0.78152 0.96285 0.0
Co953 Co 0.24759 0.84494 0.96765 0.0
C954 C 0.27507 0.81497 0.97372 0.0
O955 O 0.2574 0.79367 0.96974 0.0
O956 O 0.27398 0.8376 0.97383 0.0
C957 C 0.20239 0.72897 0.96961 0.0
O958 O 0.20854 0.74551 0.97586 0.0
C959 C 0.26649 0.8994 0.97576 0.0
C960 C 0.24894 0.91882 0.96775 0.0
C961 C 0.26344 0.92295 0.97484 0.0
N962 N 0.2537 0.8819 0.96959 0.0
N963 N 0.24357 0.89381 0.96479 0.0
C964 C 0.2827 0.89417 0.98206 0.0
H965 H 0.29584 0.88642 0.97926 0.0
H966 H 0.26774 0.87769 0.98621 0.0
H967 H 0.29681 0.91357 0.98544 0.0
C968 C 0.17154 0.77714 0.96936 0.0
N969 N 0.19896 0.79219 0.96732 0.0
N970 N 0.20943 0.81813 0.96995 0.0
C971 C 0.18928 0.82009 0.97403 0.0
C972 C 0.1646 0.79422 0.97376 0.0
C973 C 0.15287 0.74642 0.96767 0.0
H974 H 0.16024 0.74022 0.96229 0.0
H975 H 0.15312 0.73403 0.97287 0.0
H976 H 0.13081 0.74129 0.96671 0.0
O977 O 0.23821 0.79921 0.95229 0.0
O978 O 0.25654 0.8437 0.95623 0.0
H979 H 0.19691 0.86225 0.97379 0.0
H980 H 0.17553 0.84197 0.98204 0.0
C981 C 0.1938 0.84607 0.97826 0.0
H982 H 0.21305 0.85455 0.98199 0.0
H983 H 0.23245 0.88455 0.95956 0.0
O984 O 0.20655 0.73985 0.96268 0.0
C985 C 0.25225 0.82558 0.95084 0.0
Co986 Co 0.22005 0.44733 0.96575 0.0
Co987 Co 0.15529 0.40326 0.96738 0.0
C988 C 0.17841 0.4617 0.9732 0.0
O989 O 0.20291 0.4675 0.97096 0.0
O990 O 0.1573 0.43708 0.97233 0.0
C991 C 0.2707 0.4863 0.97313 0.0
O992 O 0.25269 0.48358 0.97872 0.0
C993 C 0.10014 0.36581 0.9746 0.0
C994 C 0.08145 0.33065 0.96596 0.0
C995 C 0.07666 0.33955 0.97323 0.0
N996 N 0.11823 0.37178 0.96851 0.0
N997 N 0.10681 0.35083 0.96333 0.0
C998 C 0.10493 0.38583 0.98129 0.0
H999 H 0.10965 0.40644 0.97879 0.0
H1000 H 0.1235 0.38926 0.98483 0.0
H1001 H 0.08629 0.37829 0.98523 0.0
C1002 C 0.22408 0.40199 0.9741 0.0
N1003 N 0.20887 0.41247 0.97078 0.0
N1004 N 0.18189 0.39454 0.97185 0.0
C1005 C 0.17915 0.3723 0.97606 0.0
C1006 C 0.20576 0.37632 0.97757 0.0
C1007 C 0.25558 0.41689 0.97427 0.0
H1008 H 0.26412 0.42648 0.96836 0.0
H1009 H 0.26337 0.43393 0.97878 0.0
H1010 H 0.26344 0.40239 0.97586 0.0
O1011 O 0.20791 0.44243 0.95446 0.0
O1012 O 0.16222 0.41156 0.95582 0.0
H1013 H 0.13886 0.33724 0.97314 0.0
H1014 H 0.15479 0.33182 0.98188 0.0
C1015 C 0.15169 0.34751 0.97852 0.0
H1016 H 0.13998 0.35476 0.98231 0.0
H1017 H 0.11661 0.35007 0.95807 0.0
O1018 O 0.26152 0.47221 0.96672 0.0
C1019 C 0.18339 0.42747 0.95147 0.0
Co1020 Co 0.22677 0.44758 0.46509 0.0
Co1021 Co 0.2442 0.40236 0.46916 0.0
C1022 C 0.27762 0.45962 0.47537 0.0
O1023 O 0.2612 0.46619 0.47181 0.0
O1024 O 0.27365 0.43471 0.47511 0.0
C1025 C 0.21023 0.48297 0.47188 0.0
O1026 O 0.21666 0.47308 0.47818 0.0
C1027 C 0.26038 0.36406 0.47675 0.0
C1028 C 0.2364 0.32543 0.46955 0.0
C1029 C 0.25418 0.3363 0.47607 0.0
N1030 N 0.24642 0.36916 0.471 0.0
N1031 N 0.23231 0.34605 0.46669 0.0
C1032 C 0.28037 0.38599 0.48245 0.0
H1033 H 0.29536 0.40504 0.47908 0.0
H1034 H 0.26838 0.392 0.48657 0.0
H1035 H 0.29267 0.37866 0.48593 0.0
C1036 C 0.17319 0.40391 0.47216 0.0
N1037 N 0.19967 0.41301 0.46964 0.0
N1038 N 0.20772 0.39531 0.47203 0.0
C1039 C 0.18705 0.375 0.47649 0.0
C1040 C 0.16439 0.37976 0.47672 0.0
C1041 C 0.15626 0.41758 0.47006 0.0
H1042 H 0.16309 0.42836 0.46421 0.0
H1043 H 0.15933 0.43335 0.47467 0.0
H1044 H 0.13348 0.40168 0.46982 0.0
O1045 O 0.23871 0.44252 0.4544 0.0
O1046 O 0.25266 0.41209 0.45768 0.0
H1047 H 0.18618 0.33569 0.47727 0.0
H1048 H 0.17577 0.34573 0.48634 0.0
C1049 C 0.19043 0.35368 0.4812 0.0
H1050 H 0.21231 0.36317 0.48345 0.0
H1051 H 0.21952 0.34425 0.46185 0.0
O1052 O 0.21243 0.4744 0.46501 0.0
C1053 C 0.24998 0.4278 0.45256 0.0
Co1054 Co 0.54945 0.78106 0.46606 0.0
Co1055 Co 0.59722 0.84479 0.46638 0.0
C1056 C 0.54129 0.82643 0.47361 0.0
O1057 O 0.5332 0.80098 0.47183 0.0
O1058 O 0.5658 0.84629 0.47183 0.0
C1059 C 0.50835 0.73197 0.47389 0.0
O1060 O 0.51138 0.75076 0.47924 0.0
C1061 C 0.6368 0.8998 0.47291 0.0
C1062 C 0.6709 0.91734 0.46393 0.0
C1063 C 0.66263 0.92318 0.47116 0.0
N1064 N 0.62999 0.88104 0.46699 0.0
N1065 N 0.65036 0.89166 0.46161 0.0
C1066 C 0.61988 0.89419 0.48039 0.0
H1067 H 0.60396 0.9008 0.47949 0.0
H1068 H 0.60864 0.87134 0.48178 0.0
H1069 H 0.63352 0.90611 0.4855 0.0
C1070 C 0.59471 0.77442 0.47339 0.0
N1071 N 0.58503 0.79056 0.47025 0.0
N1072 N 0.60468 0.81723 0.4708 0.0
C1073 C 0.6274 0.81888 0.47445 0.0
C1074 C 0.6218 0.79182 0.47616 0.0
C1075 C 0.57767 0.74303 0.4741 0.0
H1076 H 0.56105 0.73747 0.47867 0.0
H1077 H 0.59076 0.73376 0.47591 0.0
H1078 H 0.56727 0.73382 0.46833 0.0
O1079 O 0.55177 0.79194 0.45466 0.0
O1080 O 0.5861 0.83671 0.45505 0.0
H1081 H 0.66989 0.84181 0.47914 0.0
H1082 H 0.64946 0.85932 0.48001 0.0
C1083 C 0.65411 0.84573 0.47615 0.0
H1084 H 0.66314 0.85709 0.47048 0.0
H1085 H 0.6504 0.88121 0.45641 0.0
O1086 O 0.52287 0.74003 0.46751 0.0
C1087 C 0.5675 0.81545 0.4512 0.0
Co1088 Co 0.2209 0.77945 0.46335 0.0
Co1089 Co 0.1566 0.75817 0.46633 0.0
C1090 C 0.18119 0.72415 0.4717 0.0
O1091 O 0.20475 0.74263 0.46883 0.0
O1092 O 0.15966 0.72716 0.47138 0.0
C1093 C 0.27076 0.79324 0.47096 0.0
O1094 O 0.25226 0.78226 0.47677 0.0
C1095 C 0.10124 0.73823 0.47379 0.0
C1096 C 0.08402 0.75985 0.46655 0.0
C1097 C 0.07833 0.74236 0.47309 0.0
N1098 N 0.11988 0.75309 0.46803 0.0
N1099 N 0.10935 0.76576 0.46368 0.0
C1100 C 0.10497 0.71939 0.47953 0.0
H1101 H 0.10851 0.7041 0.47613 0.0
H1102 H 0.1239 0.73215 0.48326 0.0
H1103 H 0.08628 0.70737 0.48339 0.0
C1104 C 0.22649 0.8288 0.47201 0.0
N1105 N 0.21062 0.80341 0.4686 0.0
N1106 N 0.18404 0.79379 0.47045 0.0
C1107 C 0.18228 0.81239 0.47536 0.0
C1108 C 0.20921 0.83521 0.47652 0.0
C1109 C 0.25761 0.84694 0.47081 0.0
H1110 H 0.26371 0.84322 0.46482 0.0
H1111 H 0.26889 0.84175 0.47539 0.0
H1112 H 0.26413 0.86956 0.47143 0.0
O1113 O 0.2068 0.77127 0.45229 0.0
O1114 O 0.16131 0.75531 0.45463 0.0
H1115 H 0.14194 0.80948 0.47521 0.0
H1116 H 0.16014 0.82123 0.48463 0.0
C1117 C 0.15581 0.80683 0.47951 0.0
H1118 H 0.14452 0.78486 0.48173 0.0
H1119 H 0.11971 0.77886 0.45884 0.0
O1120 O 0.2623 0.79529 0.46406 0.0
C1121 C 0.18148 0.76059 0.44984 0.0
Co1122 Co 0.11336 0.56567 0.36637 0.0
Co1123 Co 0.06785 0.5842 0.36417 0.0
C1124 C 0.1245 0.61734 0.35697 0.0
O1125 O 0.13131 0.59993 0.3597 0.0
O1126 O 0.10017 0.61417 0.35819 0.0
C1127 C 0.14835 0.54923 0.35894 0.0
O1128 O 0.13906 0.55691 0.35275 0.0
C1129 C 0.02901 0.59985 0.35674 0.0
C1130 C 0.99402 0.58321 0.36545 0.0
C1131 C 0.00251 0.59653 0.35812 0.0
N1132 N 0.0355 0.58838 0.36289 0.0
N1133 N 0.01463 0.57872 0.3681 0.0
C1134 C 0.04889 0.61529 0.35004 0.0
H1135 H 0.06928 0.63169 0.35254 0.0
H1136 H 0.05287 0.60039 0.34657 0.0
H1137 H 0.04096 0.62589 0.34605 0.0
C1138 C 0.06674 0.51238 0.35982 0.0
N1139 N 0.07744 0.53916 0.36233 0.0
N1140 N 0.05915 0.5475 0.36087 0.0
C1141 C 0.03661 0.52654 0.35713 0.0
C1142 C 0.04066 0.50361 0.35638 0.0
C1143 C 0.082 0.49614 0.36021 0.0
H1144 H 0.09555 0.50101 0.35486 0.0
H1145 H 0.06714 0.47313 0.36028 0.0
H1146 H 0.09535 0.50203 0.36562 0.0
O1147 O 0.11101 0.578 0.37732 0.0
O1148 O 0.07851 0.59053 0.3756 0.0
H1149 H 0.99645 0.50918 0.35103 0.0
H1150 H 0.01908 0.54697 0.35028 0.0
C1151 C 0.01178 0.52847 0.35426 0.0
H1152 H 0.00099 0.53142 0.35945 0.0
H1153 H 0.01429 0.56867 0.37342 0.0
O1154 O 0.13956 0.55058 0.36586 0.0
C1155 C 0.09601 0.58795 0.38003 0.0
Co1156 Co 0.44121 0.55311 0.36886 0.0
Co1157 Co 0.41844 0.48906 0.36526 0.0
C1158 C 0.38678 0.51569 0.35967 0.0
O1159 O 0.40516 0.53844 0.36297 0.0
O1160 O 0.38908 0.49372 0.35977 0.0
C1161 C 0.45673 0.60471 0.36184 0.0
O1162 O 0.4443 0.5873 0.35587 0.0
C1163 C 0.39967 0.43476 0.35742 0.0
C1164 C 0.415 0.41421 0.36579 0.0
C1165 C 0.4011 0.41046 0.3586 0.0
N1166 N 0.41213 0.45205 0.36363 0.0
N1167 N 0.42106 0.43958 0.36864 0.0
C1168 C 0.38888 0.44258 0.35023 0.0
H1169 H 0.36644 0.43621 0.35121 0.0
H1170 H 0.40091 0.4657 0.3493 0.0
H1171 H 0.39045 0.4318 0.34482 0.0
C1172 C 0.4918 0.55773 0.36098 0.0
N1173 N 0.46533 0.54242 0.3638 0.0
N1174 N 0.45525 0.51585 0.36183 0.0
C1175 C 0.47478 0.51356 0.35751 0.0
C1176 C 0.49854 0.53998 0.35686 0.0
C1177 C 0.50954 0.58906 0.3617 0.0
H1178 H 0.50355 0.59909 0.35693 0.0
H1179 H 0.53224 0.59615 0.36102 0.0
H1180 H 0.50601 0.59606 0.36758 0.0
O1181 O 0.43119 0.53787 0.37986 0.0
O1182 O 0.41348 0.49269 0.3768 0.0
H1183 H 0.48945 0.49004 0.35057 0.0
H1184 H 0.45207 0.47751 0.35003 0.0
C1185 C 0.47072 0.48669 0.354 0.0
H1186 H 0.46682 0.47144 0.35886 0.0
H1187 H 0.43178 0.44865 0.37394 0.0
O1188 O 0.45864 0.59481 0.36853 0.0
C1189 C 0.4188 0.51198 0.38189 0.0
Co1190 Co 0.4499 0.88238 0.36605 0.0
Co1191 Co 0.51336 0.931 0.36571 0.0
C1192 C 0.49576 0.87466 0.35872 0.0
O1193 O 0.47011 0.86612 0.36041 0.0
O1194 O 0.51514 0.8995 0.36044 0.0
C1195 C 0.40013 0.83997 0.35864 0.0
O1196 O 0.41852 0.84131 0.35338 0.0
C1197 C 0.56812 0.97055 0.35901 0.0
C1198 C 0.58522 0.00574 0.36763 0.0
C1199 C 0.59115 0.99684 0.36054 0.0
N1200 N 0.54943 0.96406 0.36494 0.0
N1201 N 0.5598 0.98509 0.37011 0.0
C1202 C 0.56274 0.95284 0.35171 0.0
H1203 H 0.53993 0.94152 0.35026 0.0
H1204 H 0.57484 0.96588 0.34653 0.0
H1205 H 0.56923 0.93698 0.35289 0.0
C1206 C 0.44249 0.92683 0.35847 0.0
N1207 N 0.45892 0.91767 0.36172 0.0
N1208 N 0.48546 0.93768 0.36121 0.0
C1209 C 0.48675 0.96012 0.35748 0.0
C1210 C 0.45958 0.95396 0.35567 0.0
C1211 C 0.41115 0.90929 0.35769 0.0
H1212 H 0.40182 0.8996 0.36352 0.0
H1213 H 0.40602 0.89212 0.35335 0.0
H1214 H 0.40162 0.92181 0.35557 0.0
O1215 O 0.46104 0.88536 0.37744 0.0
O1216 O 0.50554 0.92032 0.37708 0.0
H1217 H 0.52431 0.99645 0.36151 0.0
H1218 H 0.50918 0.00254 0.35271 0.0
C1219 C 0.51336 0.98711 0.35581 0.0
H1220 H 0.52743 0.98277 0.35206 0.0
H1221 H 0.54933 0.98553 0.37526 0.0
O1222 O 0.4088 0.85571 0.36477 0.0
C1223 C 0.4844 0.90146 0.38092 0.0
C1224 C 0.12455 0.15181 0.18266 0.0
C1225 C 0.12329 0.15982 0.19055 0.0
C1226 C 0.13197 0.13137 0.18107 0.0
C1227 C 0.16467 0.09272 0.19002 0.0
H1228 H 0.1175 0.03446 0.17492 0.0
C1229 C 0.12526 0.96987 0.18546 0.0
C1230 C 0.1506 0.96983 0.18668 0.0
C1231 C 0.12546 0.995 0.18398 0.0
C1232 C 0.13097 0.05066 0.17911 0.0
H1233 H 0.12956 0.15317 0.20295 0.0
H1234 H 0.14209 0.1171 0.2002 0.0
H1235 H 0.11141 0.07521 0.1767 0.0
H1236 H 0.19615 0.99579 0.18664 0.0
H1237 H 0.19648 0.03981 0.184 0.0
H1238 H 0.1832 0.06741 0.19274 0.0
C1239 C 0.13769 0.12692 0.19522 0.0
C1240 C 0.12765 0.07413 0.18009 0.0
C1241 C 0.1303 0.14744 0.19681 0.0
C1242 C 0.17626 0.99513 0.18575 0.0
C1243 C 0.17645 0.02038 0.18431 0.0
C1244 C 0.168 0.06924 0.18904 0.0
C1245 C 0.13829 0.11842 0.18734 0.0
C1246 C 0.14399 0.0951 0.1857 0.0
C1247 C 0.15101 0.02068 0.1837 0.0
C1248 C 0.1507 0.0476 0.18372 0.0
H1249 H 0.11952 0.16113 0.17769 0.0
H1250 H 0.13263 0.12559 0.17493 0.0
H1251 H 0.17787 0.10872 0.1943 0.0
H1252 H 0.10513 0.95068 0.18609 0.0
H1253 H 0.10547 0.99446 0.18358 0.0
C1254 C 0.99612 0.18597 0.19016 0.0
C1255 C 0.0208 0.18536 0.18829 0.0
C1256 C 0.96972 0.16205 0.18897 0.0
C1257 C 0.93095 0.09309 0.17923 0.0
H1258 H 0.89596 0.06515 0.19985 0.0
C1259 C 0.85884 0.97523 0.18498 0.0
C1260 C 0.83758 0.966 0.19077 0.0
C1261 C 0.87732 0.00391 0.1838 0.0
C1262 C 0.90482 0.07273 0.19399 0.0
H1263 H 0.03736 0.16048 0.18304 0.0
H1264 H 0.99122 0.11907 0.1807 0.0
H1265 H 0.93459 0.11331 0.19861 0.0
H1266 H 0.81822 0.97946 0.1997 0.0
H1267 H 0.84984 0.02973 0.19746 0.0
H1268 H 0.90137 0.05265 0.17456 0.0
C1269 C 0.99226 0.13782 0.18318 0.0
C1270 C 0.92704 0.10039 0.1933 0.0
C1271 C 0.01863 0.16145 0.18454 0.0
C1272 C 0.83469 0.98603 0.19526 0.0
C1273 C 0.85289 0.01483 0.19398 0.0
C1274 C 0.90833 0.06559 0.17987 0.0
C1275 C 0.96769 0.13751 0.1857 0.0
C1276 C 0.94085 0.11048 0.18597 0.0
C1277 C 0.87467 0.02417 0.18829 0.0
C1278 C 0.89564 0.05469 0.18733 0.0
H1279 H 0.99723 0.20409 0.1931 0.0
H1280 H 0.951 0.16223 0.19095 0.0
H1281 H 0.94124 0.10052 0.17351 0.0
H1282 H 0.86168 0.96025 0.18146 0.0
H1283 H 0.89416 0.01008 0.17951 0.0
C1284 C 0.84278 0.86331 0.18609 0.0
C1285 C 0.81706 0.83965 0.18826 0.0
C1286 C 0.86666 0.86094 0.18484 0.0
C1287 C 0.89675 0.81891 0.19194 0.0
H1288 H 0.95687 0.86604 0.17732 0.0
C1289 C 0.02043 0.85497 0.1841 0.0
C1290 C 0.03164 0.86069 0.19186 0.0
C1291 C 0.99223 0.84682 0.18278 0.0
C1292 C 0.9402 0.85236 0.18137 0.0
H1293 H 0.7957 0.79453 0.19025 0.0
H1294 H 0.8376 0.79038 0.18805 0.0
H1295 H 0.91054 0.86124 0.17569 0.0
H1296 H 0.02175 0.8613 0.20436 0.0
H1297 H 0.97258 0.84757 0.20204 0.0
H1298 H 0.92657 0.8104 0.19771 0.0
C1299 C 0.83926 0.81082 0.1874 0.0
C1300 C 0.9137 0.84982 0.18047 0.0
C1301 C 0.81523 0.81316 0.1886 0.0
C1302 C 0.01375 0.85707 0.19831 0.0
C1303 C 0.98552 0.84901 0.19698 0.0
C1304 C 0.92328 0.82146 0.19285 0.0
C1305 C 0.86542 0.83486 0.18577 0.0
C1306 C 0.89189 0.83367 0.18587 0.0
C1307 C 0.97457 0.8443 0.18918 0.0
C1308 C 0.94551 0.83878 0.18769 0.0
H1309 H 0.84486 0.884 0.18573 0.0
H1310 H 0.88648 0.87992 0.18365 0.0
H1311 H 0.88047 0.8065 0.19625 0.0
H1312 H 0.03357 0.85724 0.17901 0.0
H1313 H 0.98436 0.84289 0.17671 0.0
C1314 C 0.97494 0.13337 0.3114 0.0
C1315 C 0.97368 0.15768 0.30951 0.0
C1316 C 0.00076 0.13495 0.31278 0.0
C1317 C 0.07384 0.17678 0.30652 0.0
H1318 H 0.08364 0.12669 0.32079 0.0
C1319 C 0.15882 0.13754 0.31459 0.0
C1320 C 0.16526 0.13287 0.30682 0.0
C1321 C 0.1388 0.14578 0.31585 0.0
C1322 C 0.08154 0.14117 0.31685 0.0
H1323 H 0.99835 0.20303 0.30812 0.0
H1324 H 0.04372 0.20581 0.31054 0.0
H1325 H 0.04253 0.13232 0.32222 0.0
H1326 H 0.15645 0.13412 0.29427 0.0
H1327 H 0.12106 0.148 0.29648 0.0
H1328 H 0.11265 0.18527 0.30106 0.0
C1329 C 0.02463 0.18549 0.31088 0.0
C1330 C 0.05783 0.14421 0.31763 0.0
C1331 C 0.99866 0.18393 0.30956 0.0
C1332 C 0.15191 0.13751 0.30032 0.0
C1333 C 0.13178 0.14567 0.30159 0.0
C1334 C 0.09758 0.17374 0.30573 0.0
C1335 C 0.02598 0.16088 0.31226 0.0
C1336 C 0.05334 0.16145 0.31234 0.0
C1337 C 0.12468 0.14946 0.30938 0.0
C1338 C 0.10133 0.15536 0.31076 0.0
H1339 H 0.95604 0.11284 0.31145 0.0
H1340 H 0.00103 0.11556 0.31376 0.0
H1341 H 0.07088 0.19005 0.3023 0.0
H1342 H 0.16895 0.13446 0.31973 0.0
H1343 H 0.13415 0.14896 0.32192 0.0
C1344 C 0.84822 0.8367 0.31419 0.0
C1345 C 0.8279 0.81319 0.30995 0.0
C1346 C 0.84518 0.86031 0.3152 0.0
C1347 C 0.82132 0.89855 0.30368 0.0
H1348 H 0.8387 0.94611 0.32235 0.0
C1349 C 0.84562 0.01361 0.30095 0.0
C1350 C 0.86741 0.03331 0.30582 0.0
C1351 C 0.83435 0.98471 0.30224 0.0
C1352 C 0.83403 0.9332 0.31706 0.0
H1353 H 0.78756 0.79505 0.30393 0.0
H1354 H 0.78269 0.83684 0.30551 0.0
H1355 H 0.82951 0.89793 0.32381 0.0
H1356 H 0.89464 0.03837 0.31581 0.0
H1357 H 0.87616 0.98837 0.31782 0.0
H1358 H 0.82795 0.93411 0.29681 0.0
C1359 C 0.80072 0.83675 0.30812 0.0
C1360 C 0.82847 0.90553 0.31793 0.0
C1361 C 0.80345 0.81285 0.30727 0.0
C1362 C 0.87771 0.02365 0.31199 0.0
C1363 C 0.86684 0.99488 0.31319 0.0
C1364 C 0.82741 0.92636 0.30278 0.0
C1365 C 0.82206 0.861 0.31185 0.0
C1366 C 0.82269 0.8882 0.31123 0.0
C1367 C 0.84498 0.97496 0.30835 0.0
C1368 C 0.83463 0.94433 0.30943 0.0
H1369 H 0.86725 0.83746 0.31632 0.0
H1370 H 0.86201 0.87881 0.31806 0.0
H1371 H 0.8173 0.88568 0.2984 0.0
H1372 H 0.83705 0.02051 0.29621 0.0
H1373 H 0.81728 0.97007 0.29846 0.0
C1374 C 0.18107 0.00027 0.31056 0.0
C1375 C 0.18158 0.02598 0.31155 0.0
C1376 C 0.15608 0.97479 0.31178 0.0
C1377 C 0.08506 0.94073 0.32033 0.0
H1378 H 0.06056 0.90108 0.30016 0.0
C1379 C 0.968 0.86791 0.31341 0.0
C1380 C 0.95963 0.84508 0.30819 0.0
C1381 C 0.9965 0.8868 0.31475 0.0
C1382 C 0.06712 0.91129 0.30591 0.0
H1383 H 0.15735 0.04537 0.31529 0.0
H1384 H 0.11399 0.00084 0.31769 0.0
H1385 H 0.10893 0.93909 0.30168 0.0
H1386 H 0.97439 0.82351 0.30045 0.0
H1387 H 0.02429 0.85587 0.30301 0.0
H1388 H 0.04345 0.91304 0.32462 0.0
C1389 C 0.13273 0.00038 0.31587 0.0
C1390 C 0.0949 0.93316 0.30676 0.0
C1391 C 0.15749 0.02583 0.31448 0.0
C1392 C 0.98031 0.84117 0.30443 0.0
C1393 C 0.0089 0.8598 0.30589 0.0
C1394 C 0.05742 0.91847 0.31954 0.0
C1395 C 0.13151 0.9747 0.31419 0.0
C1396 C 0.10385 0.94855 0.3139 0.0
C1397 C 0.0174 0.88302 0.31103 0.0
C1398 C 0.04779 0.90405 0.31223 0.0
H1399 H 0.1993 -0.00021 0.30826 0.0
H1400 H 0.15558 0.95519 0.31047 0.0
H1401 H 0.09159 0.95227 0.32589 0.0
H1402 H 0.9525 0.87154 0.31635 0.0
H1403 H 0.00203 0.90473 0.31857 0.0
C1404 C 0.87437 0.03199 0.80993 0.0
C1405 C 0.8498 0.03285 0.80809 0.0
C1406 C 0.87321 0.00633 0.81129 0.0
C1407 C 0.86478 0.94944 0.81612 0.0
H1408 H 0.82251 0.89366 0.79988 0.0
C1409 C 0.86828 0.84649 0.8138 0.0
C1410 C 0.8721 0.83882 0.80609 0.0
C1411 C 0.86127 0.86749 0.81488 0.0
C1412 C 0.83442 0.90902 0.80445 0.0
H1413 H 0.80442 0.00759 0.8068 0.0
H1414 H 0.80241 0.96262 0.80922 0.0
H1415 H 0.81812 0.93568 0.80097 0.0
H1416 H 0.87074 0.84664 0.79347 0.0
H1417 H 0.85892 0.88368 0.79536 0.0
H1418 H 0.88213 0.92353 0.81935 0.0
C1419 C 0.82261 0.98187 0.8095 0.0
C1420 C 0.8316 0.93291 0.80515 0.0
C1421 C 0.82374 0.00763 0.8082 0.0
C1422 C 0.86798 0.85209 0.79948 0.0
C1423 C 0.86101 0.87318 0.80057 0.0
C1424 C 0.86757 0.92557 0.81542 0.0
C1425 C 0.84747 0.9809 0.81081 0.0
C1426 C 0.84723 0.95369 0.81088 0.0
C1427 C 0.85796 0.88139 0.80829 0.0
C1428 C 0.85287 0.90535 0.80948 0.0
H1429 H 0.89477 0.05106 0.80994 0.0
H1430 H 0.89278 0.00637 0.81223 0.0
H1431 H 0.87692 0.96496 0.82063 0.0
H1432 H 0.87102 0.8365 0.81903 0.0
H1433 H 0.85863 0.87298 0.8209 0.0
C1434 C 0.16034 0.01413 0.8028 0.0
C1435 C 0.1576 0.03513 0.80679 0.0
C1436 C 0.14171 0.98566 0.80443 0.0
C1437 C 0.08537 0.93823 0.81887 0.0
H1438 H 0.06045 0.88613 0.80108 0.0
C1439 C 0.97575 0.84053 0.81455 0.0
C1440 C 0.97441 0.81586 0.81165 0.0
C1441 C 0.00176 0.86474 0.81581 0.0
C1442 C 0.06761 0.90033 0.80614 0.0
H1443 H 0.13321 0.04303 0.81552 0.0
H1444 H 0.09992 0.99376 0.81804 0.0
H1445 H 0.09894 0.93405 0.79919 0.0
H1446 H -0.00096 0.79648 0.80828 0.0
H1447 H 0.04468 0.8393 0.81024 0.0
H1448 H 0.05217 0.90474 0.82559 0.0
C1449 C 0.117 0.9989 0.8139 0.0
C1450 C 0.08975 0.92784 0.80508 0.0
C1451 C 0.13592 0.02725 0.8124 0.0
C1452 C -0.0005 0.81519 0.81058 0.0
C1453 C 0.02556 0.83964 0.81165 0.0
C1454 C 0.0628 0.91088 0.81987 0.0
C1455 C 0.11963 0.97764 0.80997 0.0
C1456 C 0.0985 0.94741 0.81138 0.0
C1457 C 0.02681 0.8648 0.81402 0.0
C1458 C 0.05344 0.89191 0.81347 0.0
H1459 H 0.17713 0.0197 0.79853 0.0
H1460 H 0.14475 0.97 0.80137 0.0
H1461 H 0.09198 0.95238 0.82393 0.0
H1462 H 0.95668 0.84155 0.81541 0.0
H1463 H 0.00224 0.88397 0.81759 0.0
C1464 C 0.15927 0.14036 0.81177 0.0
C1465 C 0.18506 0.16324 0.80928 0.0
C1466 C 0.13608 0.14376 0.81316 0.0
C1467 C 0.09019 0.15647 0.81744 0.0
H1468 H 0.07771 0.19507 0.79991 0.0
C1469 C 0.98283 0.14932 0.81309 0.0
C1470 C 0.97226 0.14359 0.80526 0.0
C1471 C 0.01108 0.15808 0.8146 0.0
C1472 C 0.08088 0.18424 0.80485 0.0
H1473 H 0.20742 0.20815 0.80691 0.0
H1474 H 0.16669 0.21413 0.80937 0.0
H1475 H 0.12362 0.19872 0.80149 0.0
H1476 H 0.98325 0.14352 0.79285 0.0
H1477 H 0.03241 0.15811 0.79549 0.0
H1478 H 0.04701 0.14046 0.82051 0.0
C1479 C 0.16443 0.19348 0.81015 0.0
C1480 C 0.10734 0.18668 0.80583 0.0
C1481 C 0.18779 0.1901 0.80881 0.0
C1482 C 0.99077 0.14776 0.79894 0.0
C1483 C 0.01901 0.15634 0.80046 0.0
C1484 C 0.06374 0.15395 0.81645 0.0
C1485 C 0.13808 0.17012 0.81206 0.0
C1486 C 0.11202 0.17209 0.81199 0.0
C1487 C 0.02939 0.16113 0.80833 0.0
C1488 C 0.05852 0.16713 0.81 0.0
H1489 H 0.15653 0.11943 0.81224 0.0
H1490 H 0.1161 0.12525 0.81456 0.0
H1491 H 0.09323 0.14524 0.8223 0.0
H1492 H 0.96918 0.14667 0.81809 0.0
H1493 H 0.01847 0.16207 0.82071 0.0
C1494 C 0.01781 0.85638 0.68552 0.0
C1495 C 0.02013 0.83406 0.6888 0.0
C1496 C 0.99136 0.85357 0.68425 0.0
C1497 C 0.92605 0.82449 0.69407 0.0
H1498 H 0.8989 0.84464 0.67527 0.0
C1499 C 0.83174 0.84356 0.69602 0.0
C1500 C 0.83364 0.86575 0.69138 0.0
C1501 C 0.85053 0.83363 0.69479 0.0
C1502 C 0.90628 0.83922 0.6806 0.0
H1503 H 0.9968 0.79089 0.69297 0.0
H1504 H 0.95037 0.78639 0.69102 0.0
H1505 H 0.93967 0.83804 0.67424 0.0
H1506 H 0.85661 0.89504 0.68185 0.0
H1507 H 0.89014 0.879 0.67998 0.0
H1508 H 0.89453 0.82791 0.70062 0.0
C1509 C 0.96906 0.80576 0.6893 0.0
C1510 C 0.9294 0.83513 0.67996 0.0
C1511 C 0.99554 0.80832 0.69037 0.0
C1512 C 0.85451 0.87775 0.68548 0.0
C1513 C 0.8736 0.86827 0.68435 0.0
C1514 C 0.90335 0.82921 0.69475 0.0
C1515 C 0.96685 0.82864 0.68643 0.0
C1516 C 0.93976 0.82826 0.68672 0.0
C1517 C 0.87196 0.8461 0.68899 0.0
C1518 C 0.89358 0.83736 0.68806 0.0
H1519 H 0.03647 0.87644 0.68428 0.0
H1520 H 0.99013 0.87155 0.68209 0.0
H1521 H 0.93398 0.81956 0.69938 0.0
H1522 H 0.81559 0.83372 0.70055 0.0
H1523 H 0.84822 0.81622 0.69839 0.0
C1524 C 0.10874 0.97077 0.68696 0.0
C1525 C 0.1208 0.96199 0.69287 0.0
C1526 C 0.11858 -0.00067 0.68569 0.0
C1527 C 0.15955 0.06907 0.69548 0.0
H1528 H 0.15276 0.09524 0.67454 0.0
C1529 C 0.18481 0.18286 0.69028 0.0
C1530 C 0.16005 0.18288 0.68811 0.0
C1531 C 0.18646 0.15832 0.68947 0.0
C1532 C 0.15508 0.08825 0.68039 0.0
H1533 H 0.15307 0.97613 0.70197 0.0
H1534 H 0.17107 0.02623 0.69959 0.0
H1535 H 0.14378 0.04719 0.67615 0.0
H1536 H 0.11879 0.15842 0.68274 0.0
H1537 H 0.12213 0.11593 0.68106 0.0
H1538 H 0.1709 0.11032 0.69966 0.0
C1539 C 0.15341 0.01106 0.69607 0.0
C1540 C 0.14962 0.06065 0.68135 0.0
C1541 C 0.14316 0.98236 0.69744 0.0
C1542 C 0.1381 0.15892 0.68445 0.0
C1543 C 0.14003 0.13465 0.68347 0.0
C1544 C 0.16555 0.09682 0.69447 0.0
C1545 C 0.14115 0.01994 0.6902 0.0
C1546 C 0.15083 0.05038 0.68896 0.0
C1547 C 0.16369 0.13379 0.6863 0.0
C1548 C 0.16256 0.10637 0.68696 0.0
H1549 H 0.09133 0.9555 0.68337 0.0
H1550 H 0.10801 0.00515 0.68127 0.0
H1551 H 0.1604 0.06199 0.70144 0.0
H1552 H 0.20196 0.201 0.69317 0.0
H1553 H 0.20492 0.15809 0.69168 0.0
C1554 C 0.81371 0.99608 0.68784 0.0
C1555 C 0.81479 0.97099 0.68792 0.0
C1556 C 0.83807 0.02187 0.6863 0.0
C1557 C 0.91246 0.0542 0.67932 0.0
H1558 H 0.92675 0.10987 0.69565 0.0
C1559 C 0.01332 0.14809 0.69671 0.0
C1560 C 0.0318 0.16086 0.69027 0.0
C1561 C 0.98505 0.12815 0.69536 0.0
C1562 C 0.92309 0.09455 0.69105 0.0
H1563 H 0.84155 0.95296 0.68574 0.0
H1564 H 0.88372 0.9976 0.6831 0.0
H1565 H 0.88001 0.06851 0.69448 0.0
H1566 H 0.03486 0.16366 0.67736 0.0
H1567 H 0.98554 0.12925 0.67501 0.0
H1568 H 0.95592 0.07929 0.6762 0.0
C1569 C 0.86425 0.99759 0.68422 0.0
C1570 C 0.89617 0.07104 0.69029 0.0
C1571 C 0.84005 0.97194 0.68579 0.0
C1572 C 0.02124 0.15395 0.68246 0.0
C1573 C 0.99296 0.13416 0.68111 0.0
C1574 C 0.93938 0.07765 0.68009 0.0
C1575 C 0.86382 0.02295 0.68475 0.0
C1576 C 0.89076 0.05019 0.68457 0.0
C1577 C 0.97461 0.12069 0.68753 0.0
C1578 C 0.94521 0.09772 0.6861 0.0
H1579 H 0.79454 0.99603 0.68945 0.0
H1580 H 0.837 0.04104 0.68664 0.0
H1581 H 0.90889 0.03869 0.67479 0.0
H1582 H 0.02081 0.15297 0.7028 0.0
H1583 H 0.97161 0.11791 0.70045 0.0
C1584 C 0.80398 0.48887 0.51712 0.0
C1585 C 0.79978 0.49588 0.52486 0.0
C1586 C 0.81109 0.468 0.5159 0.0
C1587 C 0.804 0.40964 0.51507 0.0
H1588 H 0.85205 0.39749 0.52955 0.0
C1589 C 0.79362 0.30171 0.5205 0.0
C1590 C 0.81765 0.29996 0.52242 0.0
C1591 C 0.79571 0.32777 0.51911 0.0
C1592 C 0.83898 0.40083 0.52535 0.0
H1593 H 0.80074 0.48717 0.53744 0.0
H1594 H 0.81274 0.45037 0.53533 0.0
H1595 H 0.84886 0.44015 0.53074 0.0
H1596 H 0.86308 0.32404 0.52378 0.0
H1597 H 0.86673 0.3697 0.52132 0.0
H1598 H 0.7938 0.37015 0.50977 0.0
C1599 C 0.81086 0.46127 0.53018 0.0
C1600 C 0.83686 0.4251 0.52611 0.0
C1601 C 0.8038 0.48223 0.5314 0.0
C1602 C 0.84414 0.32468 0.52234 0.0
C1603 C 0.84622 0.35085 0.521 0.0
C1604 C 0.80611 0.38539 0.51432 0.0
C1605 C 0.81412 0.45359 0.52241 0.0
C1606 C 0.81885 0.42947 0.52109 0.0
C1607 C 0.82189 0.35272 0.51963 0.0
C1608 C 0.82309 0.38038 0.51957 0.0
H1609 H 0.80133 0.49919 0.51195 0.0
H1610 H 0.8139 0.46292 0.50985 0.0
H1611 H 0.78977 0.41222 0.51114 0.0
H1612 H 0.77291 0.28304 0.52046 0.0
H1613 H 0.77653 0.32844 0.51813 0.0
C1614 C 0.5161 0.31744 0.52927 0.0
C1615 C 0.50326 0.29776 0.52309 0.0
C1616 C 0.5365 0.34525 0.52755 0.0
C1617 C 0.58846 0.3871 0.51216 0.0
H1618 H 0.59696 0.4498 0.52495 0.0
C1619 C 0.67028 0.51387 0.51828 0.0
C1620 C 0.69505 0.51248 0.51919 0.0
C1621 C 0.64465 0.48945 0.51668 0.0
C1622 C 0.59463 0.43268 0.5212 0.0
H1623 H 0.50099 0.2921 0.51025 0.0
H1624 H 0.53637 0.34063 0.50726 0.0
H1625 H 0.55509 0.40364 0.52653 0.0
H1626 H 0.71291 0.48507 0.51835 0.0
H1627 H 0.66847 0.44273 0.51557 0.0
H1628 H 0.62823 0.41604 0.50692 0.0
C1629 C 0.531 0.33448 0.51343 0.0
C1630 C 0.57081 0.40612 0.52219 0.0
C1631 C 0.51066 0.30668 0.51515 0.0
C1632 C 0.69414 0.48679 0.51775 0.0
C1633 C 0.66863 0.4625 0.51611 0.0
C1634 C 0.61226 0.41366 0.51116 0.0
C1635 C 0.54444 0.354 0.51961 0.0
C1636 C 0.56784 0.38287 0.51785 0.0
C1637 C 0.64342 0.46332 0.51588 0.0
C1638 C 0.61601 0.43657 0.51583 0.0
H1639 H 0.51085 0.31123 0.53545 0.0
H1640 H 0.5467 0.35965 0.53246 0.0
H1641 H 0.58691 0.36963 0.50874 0.0
H1642 H 0.6703 0.53338 0.51934 0.0
H1643 H 0.62561 0.4908 0.51641 0.0
C1644 C 0.67466 0.18598 0.53113 0.0
C1645 C 0.69323 0.19059 0.5248 0.0
C1646 C 0.64648 0.17776 0.52963 0.0
C1647 C 0.6019 0.18149 0.51379 0.0
H1648 H 0.54188 0.13543 0.52856 0.0
C1649 C 0.47751 0.14392 0.52153 0.0
C1650 C 0.47995 0.17067 0.52117 0.0
C1651 C 0.50101 0.14086 0.52008 0.0
C1652 C 0.5582 0.14785 0.52427 0.0
H1653 H 0.69651 0.18875 0.51194 0.0
H1654 H 0.64734 0.17395 0.50933 0.0
H1655 H 0.58784 0.13919 0.53006 0.0
H1656 H 0.50806 0.21462 0.51826 0.0
H1657 H 0.54875 0.20936 0.51578 0.0
H1658 H 0.57236 0.19039 0.50805 0.0
C1659 C 0.65463 0.17732 0.51545 0.0
C1660 C 0.58469 0.15035 0.52521 0.0
C1661 C 0.68281 0.18573 0.51695 0.0
C1662 C 0.50555 0.19376 0.51865 0.0
C1663 C 0.5289 0.19068 0.51717 0.0
C1664 C 0.57539 0.17889 0.51283 0.0
C1665 C 0.63623 0.17376 0.52176 0.0
C1666 C 0.6071 0.16789 0.52013 0.0
C1667 C 0.52723 0.16444 0.51819 0.0
C1668 C 0.55348 0.16278 0.51821 0.0
H1669 H 0.68205 0.18955 0.53724 0.0
H1670 H 0.63304 0.17559 0.53463 0.0
H1671 H 0.61866 0.19532 0.50979 0.0
H1672 H 0.45804 0.1257 0.52344 0.0
H1673 H 0.49896 0.12027 0.52079 0.0
C1674 C 0.6463 0.47556 0.64721 0.0
C1675 C 0.64413 0.49737 0.6435 0.0
C1676 C 0.67265 0.47812 0.64846 0.0
C1677 C 0.7373 0.50532 0.6381 0.0
H1678 H 0.7638 0.4835 0.65671 0.0
C1679 C 0.82936 0.4829 0.63574 0.0
C1680 C 0.82674 0.46016 0.64026 0.0
C1681 C 0.81122 0.49354 0.63708 0.0
C1682 C 0.7566 0.4894 0.65143 0.0
H1683 H 0.6677 0.53961 0.63866 0.0
H1684 H 0.7139 0.54368 0.64063 0.0
H1685 H 0.72413 0.49178 0.65794 0.0
H1686 H 0.80316 0.43064 0.64969 0.0
H1687 H 0.77074 0.44802 0.65174 0.0
H1688 H 0.76793 0.50081 0.63141 0.0
C1689 C 0.69519 0.52485 0.64266 0.0
C1690 C 0.73411 0.49444 0.65218 0.0
C1691 C 0.66882 0.52257 0.64158 0.0
C1692 C 0.80578 0.44832 0.64615 0.0
C1693 C 0.78735 0.45855 0.64738 0.0
C1694 C 0.7594 0.49972 0.6373 0.0
C1695 C 0.6972 0.50228 0.64588 0.0
C1696 C 0.72392 0.50187 0.64549 0.0
C1697 C 0.78975 0.48131 0.64287 0.0
C1698 C 0.76887 0.49095 0.64392 0.0
H1699 H 0.62757 0.45594 0.64875 0.0
H1700 H 0.67367 0.46036 0.65091 0.0
H1701 H 0.72953 0.51064 0.63282 0.0
H1702 H 0.8456 0.49265 0.63123 0.0
H1703 H 0.81408 0.51136 0.63357 0.0
C1704 C 0.52913 0.17156 0.64721 0.0
C1705 C 0.50685 0.14773 0.64358 0.0
C1706 C 0.52734 0.19583 0.6484 0.0
C1707 C 0.50034 0.23386 0.63806 0.0
H1708 H 0.52424 0.28312 0.65648 0.0
C1709 C 0.52095 0.34779 0.63577 0.0
C1710 C 0.54393 0.3683 0.64013 0.0
C1711 C 0.51113 0.31914 0.63708 0.0
C1712 C 0.51779 0.26976 0.65125 0.0
H1713 H 0.46449 0.12987 0.63886 0.0
H1714 H 0.46175 0.17271 0.64075 0.0
H1715 H 0.51596 0.23521 0.65778 0.0
H1716 H 0.57483 0.37508 0.64921 0.0
H1717 H 0.55883 0.32552 0.6512 0.0
H1718 H 0.5041 0.26865 0.63135 0.0
C1719 C 0.4804 0.1724 0.64273 0.0
C1720 C 0.51276 0.24224 0.65204 0.0
C1721 C 0.48194 0.1479 0.6417 0.0
C1722 C 0.55694 0.35971 0.64579 0.0
C1723 C 0.54751 0.33119 0.647 0.0
C1724 C 0.50589 0.26152 0.63723 0.0
C1725 C 0.50346 0.19682 0.64585 0.0
C1726 C 0.50448 0.22425 0.64542 0.0
C1727 C 0.52442 0.31045 0.64268 0.0
C1728 C 0.51532 0.28008 0.64377 0.0
H1729 H 0.54854 0.17197 0.64873 0.0
H1730 H 0.54546 0.21445 0.65078 0.0
H1731 H 0.49435 0.22047 0.63283 0.0
H1732 H 0.51032 0.35387 0.63143 0.0
H1733 H 0.49305 0.30386 0.63372 0.0
C1734 C 0.64518 0.17223 0.64923 0.0
C1735 C 0.6344 0.16606 0.64142 0.0
C1736 C 0.67357 0.1917 0.65058 0.0
C1737 C 0.7273 0.24802 0.65178 0.0
H1738 H 0.786 0.25883 0.63689 0.0
C1739 C 0.82491 0.35481 0.64601 0.0
C1740 C 0.85018 0.35646 0.64353 0.0
C1741 C 0.80124 0.32882 0.64766 0.0
C1742 C 0.77006 0.25582 0.64121 0.0
H1743 H 0.64512 0.17487 0.6289 0.0
H1744 H 0.69447 0.20937 0.63125 0.0
H1745 H 0.73943 0.21724 0.63575 0.0
H1746 H 0.87112 0.33233 0.64147 0.0
H1747 H 0.82958 0.28671 0.64442 0.0
H1748 H 0.75783 0.28675 0.65718 0.0
C1749 C 0.68115 0.19879 0.63634 0.0
C1750 C 0.74321 0.23217 0.64048 0.0
C1751 C 0.65279 0.17917 0.63499 0.0
C1752 C 0.85192 0.33173 0.64335 0.0
C1753 C 0.82807 0.30559 0.64497 0.0
C1754 C 0.75416 0.27159 0.65253 0.0
C1755 C 0.69181 0.20559 0.64416 0.0
C1756 C 0.72127 0.22845 0.6456 0.0
C1757 C 0.80221 0.30381 0.64686 0.0
C1758 C 0.77559 0.27625 0.64709 0.0
H1759 H 0.63164 0.16224 0.65432 0.0
H1760 H 0.68115 0.19607 0.65667 0.0
H1761 H 0.71093 0.24597 0.65581 0.0
H1762 H 0.82293 0.37349 0.64627 0.0
H1763 H 0.78167 0.3283 0.64904 0.0
C1764 C 0.5187 0.16828 0.13577 0.0
C1765 C 0.54167 0.1715 0.14029 0.0
C1766 C 0.50735 0.18582 0.1371 0.0
C1767 C 0.50907 0.23889 0.15156 0.0
H1768 H 0.48819 0.26631 0.13295 0.0
C1769 C 0.52023 0.34813 0.14822 0.0
C1770 C 0.4993 0.35057 0.14406 0.0
C1771 C 0.51784 0.32181 0.14933 0.0
C1772 C 0.49336 0.25841 0.13823 0.0
H1773 H 0.57083 0.19556 0.14975 0.0
H1774 H 0.55206 0.22683 0.15183 0.0
H1775 H 0.49935 0.22885 0.13146 0.0
H1776 H 0.45857 0.32733 0.1383 0.0
H1777 H 0.45477 0.28118 0.14007 0.0
H1778 H 0.50504 0.27016 0.15819 0.0
C1779 C 0.54199 0.21024 0.14744 0.0
C1780 C 0.49976 0.23688 0.13738 0.0
C1781 C 0.55301 0.19247 0.14619 0.0
C1782 C 0.47493 0.32601 0.14156 0.0
C1783 C 0.47283 0.29967 0.14253 0.0
C1784 C 0.50313 0.26076 0.15237 0.0
C1785 C 0.51901 0.20721 0.14291 0.0
C1786 C 0.50847 0.22735 0.144 0.0
C1787 C 0.49474 0.29751 0.14618 0.0
C1788 C 0.49586 0.27114 0.14568 0.0
H1789 H 0.50931 0.15204 0.13125 0.0
H1790 H 0.4894 0.18255 0.13358 0.0
H1791 H 0.51493 0.2316 0.15683 0.0
H1792 H 0.5392 0.36675 0.15021 0.0
H1793 H 0.53511 0.32074 0.15212 0.0
C1794 C 0.80766 0.35694 0.1455 0.0
C1795 C 0.82842 0.36649 0.13955 0.0
C1796 C 0.78917 0.32821 0.14657 0.0
C1797 C 0.76056 0.25982 0.13606 0.0
H1798 H 0.7271 0.23104 0.15681 0.0
C1799 C 0.67096 0.14585 0.14014 0.0
C1800 C 0.64633 0.14581 0.14251 0.0
C1801 C 0.69729 0.17006 0.14113 0.0
C1802 C 0.73654 0.23876 0.151 0.0
H1803 H 0.84677 0.35353 0.13019 0.0
H1804 H 0.81508 0.30313 0.13222 0.0
H1805 H 0.76646 0.27915 0.15563 0.0
H1806 H 0.62999 0.16982 0.14842 0.0
H1807 H 0.67606 0.21171 0.15039 0.0
H1808 H 0.73048 0.21927 0.13148 0.0
C1809 C 0.81247 0.31784 0.13592 0.0
C1810 C 0.75887 0.26639 0.15029 0.0
C1811 C 0.8307 0.34671 0.13476 0.0
C1812 C 0.64866 0.16934 0.14654 0.0
C1813 C 0.675 0.19326 0.14768 0.0
C1814 C 0.73862 0.23203 0.13681 0.0
C1815 C 0.7913 0.3082 0.14181 0.0
C1816 C 0.77052 0.27762 0.14276 0.0
C1817 C 0.69938 0.19424 0.14467 0.0
C1818 C 0.72588 0.22156 0.14424 0.0
H1819 H 0.80528 0.37173 0.14924 0.0
H1820 H 0.77277 0.32182 0.15101 0.0
H1821 H 0.76862 0.26766 0.13015 0.0
H1822 H 0.66974 0.12805 0.13698 0.0
H1823 H 0.71586 0.17037 0.13878 0.0
C1824 C 0.63951 0.43891 0.1474 0.0
C1825 C 0.63042 0.45234 0.14203 0.0
C1826 C 0.66819 0.44908 0.14861 0.0
C1827 C 0.73762 0.49406 0.13905 0.0
H1828 H 0.76456 0.48085 0.15908 0.0
C1829 C 0.85167 0.5182 0.1427 0.0
C1830 C 0.85189 0.49303 0.14407 0.0
C1831 C 0.82714 0.51946 0.14405 0.0
C1832 C 0.75735 0.48497 0.15349 0.0
H1833 H 0.6441 0.48754 0.13391 0.0
H1834 H 0.69429 0.50604 0.13622 0.0
H1835 H 0.71629 0.47183 0.15812 0.0
H1836 H 0.82778 0.45041 0.14861 0.0
H1837 H 0.78529 0.45295 0.15122 0.0
H1838 H 0.77882 0.50714 0.13446 0.0
C1839 C 0.67933 0.48708 0.13933 0.0
C1840 C 0.72964 0.47952 0.15289 0.0
C1841 C 0.65056 0.47655 0.13801 0.0
C1842 C 0.82812 0.47004 0.14749 0.0
C1843 C 0.80386 0.47153 0.14901 0.0
C1844 C 0.76547 0.50001 0.1397 0.0
C1845 C 0.68854 0.47331 0.14459 0.0
C1846 C 0.7191 0.48305 0.14558 0.0
C1847 C 0.80279 0.49581 0.14698 0.0
C1848 C 0.7753 0.49472 0.14685 0.0
H1849 H 0.62444 0.42009 0.15056 0.0
H1850 H 0.67429 0.43742 0.15255 0.0
H1851 H 0.73034 0.49672 0.13329 0.0
H1852 H 0.86967 0.53617 0.14002 0.0
H1853 H 0.82675 0.53842 0.14246 0.0
C1854 C 0.66407 0.14765 0.02143 0.0
C1855 C 0.68953 0.17239 0.01974 0.0
C1856 C 0.63836 0.1468 0.02033 0.0
C1857 C 0.60336 0.18269 0.01135 0.0
H1858 H 0.56656 0.17093 0.03189 0.0
C1859 C 0.53443 0.23104 0.01872 0.0
C1860 C 0.51181 0.21733 0.02406 0.0
C1861 C 0.55252 0.22051 0.01728 0.0
C1862 C 0.57599 0.17365 0.02605 0.0
H1863 H 0.70807 0.21448 0.01481 0.0
H1864 H 0.66319 0.21268 0.01265 0.0
H1865 H 0.6037 0.15941 0.03018 0.0
H1866 H 0.48988 0.18141 0.03192 0.0
H1867 H 0.52098 0.16244 0.02925 0.0
H1868 H 0.57589 0.19712 0.00721 0.0
C1869 C 0.66306 0.19412 0.01493 0.0
C1870 C 0.59733 0.16703 0.02508 0.0
C1871 C 0.68874 0.19518 0.01618 0.0
C1872 C 0.50738 0.19261 0.02785 0.0
C1873 C 0.52526 0.18179 0.02632 0.0
C1874 C 0.58168 0.18888 0.01228 0.0
C1875 C 0.63775 0.17043 0.01733 0.0
C1876 C 0.61176 0.17228 0.01779 0.0
C1877 C 0.54818 0.1957 0.02104 0.0
C1878 C 0.56836 0.18535 0.01972 0.0
H1879 H 0.66407 0.12982 0.02422 0.0
H1880 H 0.61908 0.12826 0.02219 0.0
H1881 H 0.61409 0.18676 0.00566 0.0
H1882 H 0.53848 0.25023 0.01574 0.0
H1883 H 0.57028 0.23226 0.01334 0.0
C1884 C 0.84346 0.51443 0.01964 0.0
C1885 C 0.81735 0.51301 0.02075 0.0
C1886 C 0.8446 0.48999 0.01799 0.0
C1887 C 0.83822 0.43295 0.02217 0.0
H1888 H 0.78272 0.37092 0.00944 0.0
C1889 C 0.80216 0.31687 0.02901 0.0
C1890 C 0.7953 0.29798 0.02262 0.0
C1891 C 0.80957 0.34488 0.02762 0.0
C1892 C 0.79869 0.38812 0.01293 0.0
H1893 H 0.77203 0.48542 0.02034 0.0
H1894 H 0.77401 0.44305 0.01746 0.0
H1895 H 0.78731 0.41731 0.00818 0.0
H1896 H 0.792 0.29396 0.00973 0.0
H1897 H 0.8051 0.34281 0.00731 0.0
H1898 H 0.84922 0.40361 0.02703 0.0
C1899 C 0.79362 0.46288 0.01787 0.0
C1900 C 0.80115 0.41465 0.01225 0.0
C1901 C 0.79248 0.48717 0.01957 0.0
C1902 C 0.79691 0.30791 0.0148 0.0
C1903 C 0.80434 0.33589 0.01341 0.0
C1904 C 0.83574 0.4064 0.02285 0.0
C1905 C 0.81966 0.46382 0.01734 0.0
C1906 C 0.82042 0.43716 0.01701 0.0
C1907 C 0.81031 0.35459 0.0198 0.0
C1908 C 0.81545 0.38352 0.01839 0.0
H1909 H 0.863 0.53405 0.02051 0.0
H1910 H 0.86497 0.49139 0.01752 0.0
H1911 H 0.85311 0.4498 0.02597 0.0
H1912 H 0.80116 0.30988 0.03511 0.0
H1913 H 0.81372 0.35865 0.03269 0.0
C1914 C 0.67673 0.49876 0.0319 0.0
C1915 C 0.69604 0.49769 0.02661 0.0
C1916 C 0.64773 0.48126 0.03074 0.0
C1917 C 0.59507 0.43245 0.01572 0.0
H1918 H 0.54933 0.39808 0.0345 0.0
C1919 C 0.50004 0.32061 0.01802 0.0
C1920 C 0.47674 0.31642 0.02257 0.0
C1921 C 0.52325 0.34759 0.01711 0.0
C1922 C 0.56169 0.40794 0.0292 0.0
H1923 H 0.70031 0.47746 0.01602 0.0
H1924 H 0.6502 0.44613 0.01422 0.0
H1925 H 0.59771 0.43599 0.03606 0.0
H1926 H 0.45852 0.33723 0.02927 0.0
H1927 H 0.49963 0.38443 0.02788 0.0
H1928 H 0.55938 0.40253 0.00894 0.0
C1929 C 0.65705 0.4611 0.01908 0.0
C1930 C 0.58947 0.42974 0.03008 0.0
C1931 C 0.6859 0.47888 0.02017 0.0
C1932 C 0.47614 0.33991 0.02568 0.0
C1933 C 0.49966 0.36685 0.02493 0.0
C1934 C 0.56744 0.41026 0.01486 0.0
C1935 C 0.63751 0.46201 0.02434 0.0
C1936 C 0.60682 0.44175 0.02336 0.0
C1937 C 0.52376 0.37071 0.02088 0.0
C1938 C 0.55077 0.39741 0.0216 0.0
H1939 H 0.68401 0.51335 0.03686 0.0
H1940 H 0.63338 0.48289 0.03485 0.0
H1941 H 0.60747 0.4417 0.0104 0.0
H1942 H 0.501 0.30283 0.01556 0.0
H1943 H 0.54166 0.35001 0.014 0.0
C1944 C 0.51907 0.6659 0.85768 0.0
C1945 C 0.4938 0.64184 0.85541 0.0
C1946 C 0.52203 0.69265 0.85695 0.0
C1947 C 0.49489 0.73475 0.84779 0.0
H1948 H 0.49926 0.76544 0.86893 0.0
C1949 C 0.45392 0.81059 0.85396 0.0
C1950 C 0.46578 0.83063 0.86008 0.0
C1951 C 0.46258 0.79092 0.85275 0.0
C1952 C 0.49874 0.75777 0.86295 0.0
H1953 H 0.45299 0.62699 0.84991 0.0
H1954 H 0.45865 0.67388 0.84836 0.0
H1955 H 0.50707 0.7258 0.86721 0.0
H1956 H 0.49654 0.84641 0.86961 0.0
H1957 H 0.5126 0.81265 0.86732 0.0
H1958 H 0.48674 0.76663 0.84348 0.0
C1959 C 0.4759 0.67197 0.85082 0.0
C1960 C 0.50315 0.73496 0.86198 0.0
C1961 C 0.47265 0.64519 0.85171 0.0
C1962 C 0.48684 0.83093 0.86491 0.0
C1963 C 0.49595 0.81153 0.86359 0.0
C1964 C 0.49109 0.75796 0.84873 0.0
C1965 C 0.50009 0.69576 0.85374 0.0
C1966 C 0.50046 0.72279 0.85443 0.0
C1967 C 0.48379 0.79111 0.85752 0.0
C1968 C 0.49197 0.76917 0.85636 0.0
H1969 H 0.53565 0.66393 0.86059 0.0
H1970 H 0.54087 0.71077 0.85923 0.0
H1971 H 0.49285 0.72573 0.84191 0.0
H1972 H 0.43745 0.80972 0.85019 0.0
H1973 H 0.45207 0.77515 0.84817 0.0
C1974 C 0.33726 0.84844 0.85546 0.0
C1975 C 0.36255 0.84779 0.85592 0.0
C1976 C 0.31142 0.82328 0.85489 0.0
C1977 C 0.28223 0.75097 0.86152 0.0
H1978 H 0.21671 0.7337 0.84869 0.0
C1979 C 0.17673 0.65091 0.86721 0.0
C1980 C 0.16428 0.63424 0.86042 0.0
C1981 C 0.19842 0.67879 0.86641 0.0
C1982 C 0.23488 0.73834 0.85231 0.0
H1983 H 0.38089 0.82075 0.85525 0.0
H1984 H 0.33605 0.77717 0.85417 0.0
H1985 H 0.26045 0.77889 0.84688 0.0
H1986 H 0.16366 0.63422 0.84747 0.0
H1987 H 0.20163 0.68284 0.8461 0.0
H1988 H 0.25716 0.71063 0.86692 0.0
C1989 C 0.33606 0.79693 0.85446 0.0
C1990 C 0.25978 0.76415 0.8513 0.0
C1991 C 0.36173 0.8219 0.85504 0.0
C1992 C 0.17297 0.64645 0.85283 0.0
C1993 C 0.19457 0.67438 0.85203 0.0
C1994 C 0.25741 0.72544 0.86259 0.0
C1995 C 0.31064 0.79726 0.85476 0.0
C1996 C 0.2838 0.77047 0.85582 0.0
C1997 C 0.208 0.6906 0.85881 0.0
C1998 C 0.23353 0.71871 0.85796 0.0
H1999 H 0.33727 0.8681 0.85613 0.0
H2000 H 0.29209 0.82408 0.85511 0.0
H2001 H 0.30029 0.75548 0.86519 0.0
H2002 H 0.17036 0.6422 0.87314 0.0
H2003 H 0.20817 0.69095 0.87174 0.0
C2004 C 0.35363 0.53408 0.84884 0.0
C2005 C 0.36382 0.53613 0.85665 0.0
C2006 C 0.32552 0.5263 0.84749 0.0
C2007 C 0.25526 0.49492 0.85726 0.0
H2008 H 0.2422 0.53973 0.84178 0.0
C2009 C 0.17253 0.53558 0.85295 0.0
C2010 C 0.14724 0.51096 0.85487 0.0
C2011 C 0.19681 0.53442 0.85124 0.0
C2012 C 0.24545 0.52692 0.84609 0.0
H2013 H 0.3523 0.53092 0.86916 0.0
H2014 H 0.30339 0.51794 0.86683 0.0
H2015 H 0.28905 0.5456 0.8431 0.0
H2016 H 0.12701 0.46548 0.85579 0.0
H2017 H 0.16956 0.46343 0.8527 0.0
H2018 H 0.21203 0.47747 0.86058 0.0
C2019 C 0.31699 0.52188 0.86173 0.0
C2020 C 0.27227 0.53008 0.84681 0.0
C2021 C 0.34511 0.52954 0.86308 0.0
C2022 C 0.1462 0.48485 0.85437 0.0
C2023 C 0.17062 0.4837 0.85268 0.0
C2024 C 0.22844 0.49181 0.85656 0.0
C2025 C 0.30694 0.52049 0.85392 0.0
C2026 C 0.27769 0.51464 0.85254 0.0
C2027 C 0.19643 0.50859 0.85139 0.0
C2028 C 0.22341 0.50833 0.85112 0.0
H2029 H 0.36744 0.53874 0.84375 0.0
H2030 H 0.31839 0.52502 0.8414 0.0
H2031 H 0.25859 0.48235 0.86163 0.0
H2032 H 0.174 0.55603 0.85322 0.0
H2033 H 0.2163 0.55404 0.85032 0.0
C2034 C 0.32567 0.83894 0.97796 0.0
C2035 C 0.29944 0.81416 0.97718 0.0
C2036 C 0.35019 0.83739 0.97908 0.0
C2037 C 0.37508 0.78986 0.97324 0.0
H2038 H 0.44177 0.83786 0.98569 0.0
C2039 C 0.48037 0.79556 0.96675 0.0
C2040 C 0.49389 0.79188 0.97337 0.0
C2041 C 0.45816 0.80083 0.96782 0.0
C2042 C 0.42323 0.82431 0.98219 0.0
H2043 H 0.27782 0.76856 0.97794 0.0
H2044 H 0.3204 0.76596 0.98001 0.0
H2045 H 0.39901 0.84114 0.98747 0.0
H2046 H 0.49565 0.79222 0.98631 0.0
H2047 H 0.45683 0.80147 0.98816 0.0
H2048 H 0.399 0.77307 0.96793 0.0
C2049 C 0.32218 0.7865 0.97953 0.0
C2050 C 0.39887 0.82625 0.98319 0.0
C2051 C 0.2978 0.78802 0.97838 0.0
C2052 C 0.48554 0.79478 0.98108 0.0
C2053 C 0.46344 0.80026 0.98215 0.0
C2054 C 0.39937 0.78813 0.97218 0.0
C2055 C 0.34872 0.81107 0.97947 0.0
C2056 C 0.37451 0.80889 0.97875 0.0
C2057 C 0.44914 0.80273 0.97553 0.0
C2058 C 0.42371 0.80533 0.97664 0.0
H2059 H 0.32757 0.85938 0.97706 0.0
H2060 H 0.37038 0.85668 0.97903 0.0
H2061 H 0.3568 0.77655 0.96962 0.0
H2062 H 0.48642 0.79362 0.96074 0.0
H2063 H 0.44772 0.80301 0.96261 0.0
C2064 C 0.18981 0.68121 0.96434 0.0
C2065 C 0.19187 0.69857 0.97077 0.0
C2066 C 0.18238 0.65312 0.96565 0.0
C2067 C 0.15571 0.59074 0.96971 0.0
H2068 H 0.19395 0.57902 0.98749 0.0
C2069 C 0.14778 0.48321 0.97508 0.0
C2070 C 0.17426 0.48516 0.97579 0.0
C2071 C 0.14526 0.50728 0.97588 0.0
C2072 C 0.18298 0.5819 0.98253 0.0
H2073 H 0.18617 0.69965 0.98355 0.0
H2074 H 0.17292 0.65073 0.98581 0.0
H2075 H 0.19798 0.62492 0.98559 0.0
H2076 H 0.21836 0.5133 0.97853 0.0
H2077 H 0.21395 0.555 0.97996 0.0
H2078 H 0.14189 0.54803 0.96643 0.0
C2079 C 0.17762 0.65891 0.97978 0.0
C2080 C 0.18508 0.60814 0.98148 0.0
C2081 C 0.18513 0.68694 0.97847 0.0
C2082 C 0.19769 0.51112 0.97791 0.0
C2083 C 0.19512 0.53504 0.97877 0.0
C2084 C 0.15358 0.56444 0.97077 0.0
C2085 C 0.17675 0.64183 0.97342 0.0
C2086 C 0.17197 0.61306 0.97495 0.0
C2087 C 0.1691 0.5336 0.97749 0.0
C2088 C 0.16774 0.55995 0.9771 0.0
H2089 H 0.19485 0.68956 0.95833 0.0
H2090 H 0.18215 0.64061 0.96063 0.0
H2091 H 0.14509 0.59376 0.96468 0.0
H2092 H 0.12933 0.4635 0.97344 0.0
H2093 H 0.12486 0.50549 0.97496 0.0
C2094 C 0.52091 0.66454 0.97461 0.0
C2095 C 0.52051 0.68933 0.97649 0.0
C2096 C 0.49699 0.63822 0.9759 0.0
C2097 C 0.42806 0.59996 0.98579 0.0
H2098 H 0.40024 0.56384 0.96529 0.0
C2099 C 0.31021 0.52705 0.98009 0.0
C2100 C 0.30112 0.50545 0.9744 0.0
C2101 C 0.33886 0.54572 0.98125 0.0
C2102 C 0.40778 0.57304 0.97112 0.0
H2103 H 0.49601 0.70609 0.98188 0.0
H2104 H 0.45459 0.6601 0.98436 0.0
H2105 H 0.44835 0.60262 0.96645 0.0
H2106 H 0.31484 0.48572 0.96567 0.0
H2107 H 0.36506 0.51772 0.96788 0.0
H2108 H 0.38761 0.57056 0.9905 0.0
C2109 C 0.47318 0.661 0.9818 0.0
C2110 C 0.43542 0.59535 0.97177 0.0
C2111 C 0.49684 0.6873 0.98036 0.0
C2112 C 0.32129 0.50243 0.97002 0.0
C2113 C 0.35006 0.52085 0.97128 0.0
C2114 C 0.40057 0.57727 0.98519 0.0
C2115 C 0.47262 0.63633 0.97925 0.0
C2116 C 0.4455 0.60953 0.97904 0.0
C2117 C 0.35924 0.54297 0.97685 0.0
C2118 C 0.38972 0.56415 0.97778 0.0
H2119 H 0.53883 0.66549 0.97159 0.0
H2120 H 0.49701 0.61943 0.97391 0.0
H2121 H 0.43547 0.61052 0.99148 0.0
H2122 H 0.29513 0.53 0.98352 0.0
H2123 H 0.34491 0.56281 0.98544 0.0
C2124 C 0.203 0.69629 0.4764 0.0
C2125 C 0.17859 0.69751 0.47462 0.0
C2126 C 0.20151 0.67048 0.47773 0.0
C2127 C 0.15945 0.59715 0.47168 0.0
H2128 H 0.20925 0.58748 0.48611 0.0
C2129 C 0.19622 0.51096 0.48055 0.0
C2130 C 0.20062 0.50364 0.47287 0.0
C2131 C 0.18875 0.53164 0.4816 0.0
C2132 C 0.19487 0.58958 0.48212 0.0
H2133 H 0.1332 0.67276 0.47332 0.0
H2134 H 0.13059 0.62744 0.47566 0.0
H2135 H 0.20424 0.62903 0.48728 0.0
H2136 H 0.19974 0.51163 0.46024 0.0
H2137 H 0.18717 0.54816 0.46207 0.0
H2138 H 0.1504 0.55785 0.46645 0.0
C2139 C 0.1509 0.64655 0.47595 0.0
C2140 C 0.19219 0.61352 0.48275 0.0
C2141 C 0.15237 0.67249 0.47468 0.0
C2142 C 0.19654 0.51684 0.46623 0.0
C2143 C 0.18914 0.53763 0.46728 0.0
C2144 C 0.16215 0.57317 0.47104 0.0
C2145 C 0.17557 0.64525 0.47727 0.0
C2146 C 0.17498 0.6179 0.47742 0.0
C2147 C 0.18559 0.54556 0.47499 0.0
C2148 C 0.18036 0.56943 0.47615 0.0
H2149 H 0.22351 0.71522 0.47643 0.0
H2150 H 0.22094 0.67024 0.47866 0.0
H2151 H 0.14621 0.60003 0.46744 0.0
H2152 H 0.19889 0.50097 0.48579 0.0
H2153 H 0.18573 0.53693 0.48761 0.0
C2154 C 0.49174 0.68081 0.47166 0.0
C2155 C 0.4884 0.70189 0.47538 0.0
C2156 C 0.47276 0.65237 0.4732 0.0
C2157 C 0.41363 0.60492 0.48691 0.0
H2158 H 0.39184 0.55321 0.46908 0.0
C2159 C 0.30479 0.50712 0.48157 0.0
C2160 C 0.30391 0.48254 0.47878 0.0
C2161 C 0.33059 0.53137 0.48303 0.0
C2162 C 0.3981 0.56729 0.47416 0.0
H2163 H 0.46264 0.7099 0.48358 0.0
H2164 H 0.42881 0.66065 0.48593 0.0
H2165 H 0.43078 0.60109 0.46755 0.0
H2166 H 0.32908 0.46341 0.47578 0.0
H2167 H 0.37436 0.50628 0.4781 0.0
H2168 H 0.37918 0.57135 0.49326 0.0
C2169 C 0.44657 0.66573 0.48208 0.0
C2170 C 0.4205 0.59478 0.4733 0.0
C2171 C 0.46583 0.69408 0.48066 0.0
C2172 C 0.32918 0.48203 0.47799 0.0
C2173 C 0.35504 0.50652 0.47926 0.0
C2174 C 0.39083 0.57758 0.4877 0.0
C2175 C 0.44972 0.64442 0.47838 0.0
C2176 C 0.42818 0.61421 0.47961 0.0
C2177 C 0.35591 0.53158 0.48155 0.0
C2178 C 0.38259 0.55874 0.48128 0.0
H2179 H 0.50921 0.68631 0.46764 0.0
H2180 H 0.47624 0.63667 0.47034 0.0
H2181 H 0.41937 0.61896 0.49198 0.0
H2182 H 0.28559 0.50802 0.48222 0.0
H2183 H 0.33077 0.55052 0.48474 0.0
C2184 C 0.32188 0.81925 0.46705 0.0
C2185 C 0.30065 0.80244 0.47254 0.0
C2186 C 0.34994 0.82682 0.46854 0.0
C2187 C 0.39003 0.79956 0.47817 0.0
H2188 H 0.45434 0.87512 0.47687 0.0
C2189 C 0.49953 0.8146 0.48202 0.0
C2190 C 0.51989 0.83285 0.47658 0.0
C2191 C 0.47493 0.81573 0.48322 0.0
C2192 C 0.43666 0.85386 0.47719 0.0
H2193 H 0.29222 0.78092 0.48394 0.0
H2194 H 0.34094 0.79358 0.4864 0.0
H2195 H 0.40671 0.8676 0.4751 0.0
H2196 H 0.53166 0.8678 0.46851 0.0
H2197 H 0.48817 0.86895 0.47025 0.0
H2198 H 0.41928 0.78523 0.47976 0.0
C2199 C 0.33592 0.80104 0.48101 0.0
C2200 C 0.40943 0.84963 0.4762 0.0
C2201 C 0.30806 0.79385 0.47959 0.0
C2202 C 0.51631 0.85368 0.4728 0.0
C2203 C 0.49129 0.85429 0.47382 0.0
C2204 C 0.41711 0.80366 0.47901 0.0
C2205 C 0.35705 0.81732 0.47547 0.0
C2206 C 0.38594 0.82241 0.47667 0.0
C2207 C 0.4697 0.83443 0.47876 0.0
C2208 C 0.44088 0.83084 0.47852 0.0
H2209 H 0.31679 0.82632 0.4616 0.0
H2210 H 0.36591 0.83924 0.46416 0.0
H2211 H 0.37224 0.77831 0.47844 0.0
H2212 H 0.50199 0.79847 0.48504 0.0
H2213 H 0.45934 0.80083 0.48732 0.0
C2214 C 0.33579 0.48849 0.35578 0.0
C2215 C 0.36096 0.51439 0.35653 0.0
C2216 C 0.31032 0.48782 0.35431 0.0
C2217 C 0.26061 0.49601 0.35844 0.0
H2218 H 0.2546 0.55044 0.34505 0.0
C2219 C 0.18079 0.53333 0.36435 0.0
C2220 C 0.16889 0.53951 0.35779 0.0
C2221 C 0.20146 0.52581 0.36321 0.0
C2222 C 0.25568 0.53479 0.34874 0.0
H2223 H 0.37953 0.55975 0.35569 0.0
H2224 H 0.33537 0.55857 0.35312 0.0
H2225 H 0.29595 0.54501 0.34399 0.0
H2226 H 0.16849 0.54152 0.34486 0.0
H2227 H 0.20428 0.5282 0.34288 0.0
H2228 H 0.22051 0.48611 0.36328 0.0
C2229 C 0.33514 0.53877 0.35368 0.0
C2230 C 0.27951 0.53186 0.34817 0.0
C2231 C 0.36047 0.53945 0.3552 0.0
C2232 C 0.17742 0.53715 0.35005 0.0
C2233 C 0.19802 0.52961 0.34891 0.0
C2234 C 0.23677 0.49897 0.35902 0.0
C2235 C 0.30966 0.51301 0.35347 0.0
C2236 C 0.28255 0.51293 0.35315 0.0
C2237 C 0.2106 0.52427 0.35548 0.0
C2238 C 0.23434 0.51885 0.3543 0.0
H2239 H 0.33549 0.46881 0.35677 0.0
H2240 H 0.29103 0.46765 0.35409 0.0
H2241 H 0.26242 0.48142 0.36241 0.0
H2242 H 0.17464 0.53492 0.37038 0.0
H2243 H 0.21095 0.52216 0.3684 0.0
C2244 C 0.52772 0.85455 0.35885 0.0
C2245 C 0.50317 0.85363 0.35599 0.0
C2246 C 0.53106 0.83096 0.35814 0.0
C2247 C 0.50566 0.76249 0.34842 0.0
H2248 H 0.50483 0.734 0.36965 0.0
C2249 C 0.45848 0.64463 0.3543 0.0
C2250 C 0.46836 0.63521 0.36064 0.0
C2251 C 0.46893 0.67332 0.35309 0.0
C2252 C 0.50579 0.74176 0.36365 0.0
H2253 H 0.4643 0.82862 0.34947 0.0
H2254 H 0.47065 0.78783 0.34797 0.0
H2255 H 0.51436 0.78205 0.36797 0.0
H2256 H 0.49754 0.64839 0.37055 0.0
H2257 H 0.51663 0.69876 0.3683 0.0
H2258 H 0.49703 0.72233 0.34406 0.0
C2259 C 0.48706 0.80655 0.35086 0.0
C2260 C 0.51121 0.76934 0.3627 0.0
C2261 C 0.4834 0.82984 0.35173 0.0
C2262 C 0.48933 0.6551 0.36567 0.0
C2263 C 0.50019 0.68395 0.36438 0.0
C2264 C 0.50079 0.73508 0.34934 0.0
C2265 C 0.51027 0.80646 0.35437 0.0
C2266 C 0.51029 0.77961 0.35511 0.0
C2267 C 0.48994 0.69345 0.3581 0.0
C2268 C 0.49971 0.72396 0.357 0.0
H2269 H 0.54321 0.87256 0.3622 0.0
H2270 H 0.54915 0.83133 0.36087 0.0
H2271 H 0.505 0.77005 0.3425 0.0
H2272 H 0.44216 0.62978 0.35035 0.0
H2273 H 0.45988 0.6796 0.34833 0.0
C2274 C 0.34954 0.82566 0.36101 0.0
C2275 C 0.36974 0.82109 0.35721 0.0
C2276 C 0.32083 0.80791 0.35949 0.0
C2277 C 0.27113 0.7512 0.34557 0.0
H2278 H 0.22005 0.72993 0.36356 0.0
C2279 C 0.17049 0.64439 0.34995 0.0
C2280 C 0.14701 0.64382 0.35351 0.0
C2281 C 0.19505 0.66999 0.34856 0.0
C2282 C 0.23393 0.73609 0.35843 0.0
H2283 H 0.37581 0.79436 0.34888 0.0
H2284 H 0.32598 0.76272 0.34651 0.0
H2285 H 0.26877 0.767 0.36515 0.0
H2286 H 0.12998 0.66953 0.35785 0.0
H2287 H 0.17333 0.71439 0.35558 0.0
H2288 H 0.23643 0.71859 0.33906 0.0
C2289 C 0.33207 0.78051 0.35045 0.0
C2290 C 0.26192 0.7574 0.35933 0.0
C2291 C 0.36072 0.79849 0.35187 0.0
C2292 C 0.14774 0.66937 0.35506 0.0
C2293 C 0.17255 0.695 0.35382 0.0
C2294 C 0.24323 0.72954 0.34472 0.0
C2295 C 0.31169 0.78494 0.35423 0.0
C2296 C 0.28111 0.76477 0.35297 0.0
C2297 C 0.19671 0.69543 0.35083 0.0
C2298 C 0.22456 0.72141 0.35119 0.0
H2299 H 0.35593 0.84315 0.36509 0.0
H2300 H 0.30584 0.81229 0.36243 0.0
H2301 H 0.28505 0.75678 0.34047 0.0
H2302 H 0.17046 0.62498 0.3487 0.0
H2303 H 0.21343 0.66972 0.34629 0.0
C2304 C 0.3657 0.36484 0.14565 0.0
C2305 C 0.3816 0.39331 0.1435 0.0
C2306 C 0.341 0.3552 0.15008 0.0
C2307 C 0.30734 0.37557 0.16487 0.0
H2308 H 0.23762 0.3122 0.15725 0.0
C2309 C 0.20388 0.32924 0.18316 0.0
C2310 C 0.1865 0.29985 0.18297 0.0
C2311 C 0.22697 0.34264 0.178 0.0
C2312 C 0.25696 0.32967 0.15953 0.0
H2313 H 0.38441 0.43409 0.14416 0.0
H2314 H 0.34136 0.41727 0.15217 0.0
H2315 H 0.27963 0.33159 0.14891 0.0
H2316 H 0.17924 0.26148 0.17717 0.0
H2317 H 0.22018 0.28435 0.16858 0.0
H2318 H 0.28531 0.37287 0.17566 0.0
C2319 C 0.34798 0.40249 0.15037 0.0
C2320 C 0.28091 0.34086 0.15472 0.0
C2321 C 0.3724 0.41202 0.14579 0.0
C2322 C 0.19259 0.28412 0.17756 0.0
C2323 C 0.2158 0.29736 0.17251 0.0
C2324 C 0.28349 0.36403 0.16976 0.0
C2325 C 0.33208 0.37398 0.15252 0.0
C2326 C 0.30634 0.36366 0.15738 0.0
C2327 C 0.23326 0.32682 0.17261 0.0
C2328 C 0.25809 0.34064 0.1672 0.0
H2329 H 0.37229 0.35001 0.14386 0.0
H2330 H 0.32907 0.33313 0.1517 0.0
H2331 H 0.32685 0.3931 0.16705 0.0
H2332 H 0.19966 0.34181 0.18732 0.0
H2333 H 0.23972 0.36537 0.1782 0.0
C2334 C 0.68927 0.87475 0.1751 0.0
C2335 C 0.69112 0.87894 0.18337 0.0
C2336 C 0.67519 0.88485 0.1704 0.0
C2337 C 0.65322 0.93858 0.17085 0.0
H2338 H 0.61327 0.90125 0.15149 0.0
C2339 C 0.596 0.98161 0.1517 0.0
C2340 C 0.60254 0.98438 0.14354 0.0
C2341 C 0.60396 0.96632 0.15666 0.0
C2342 C 0.62445 0.91191 0.15687 0.0
H2343 H 0.67904 0.89562 0.19333 0.0
H2344 H 0.65356 0.91257 0.18518 0.0
H2345 H 0.63153 0.87823 0.16016 0.0
H2346 H 0.62051 0.97166 0.13402 0.0
H2347 H 0.63432 0.94466 0.14269 0.0
H2348 H 0.64602 0.97217 0.16757 0.0
C2349 C 0.66354 0.90222 0.18226 0.0
C2350 C 0.63498 0.8988 0.16183 0.0
C2351 C 0.67787 0.89236 0.18694 0.0
C2352 C 0.61564 0.97018 0.14032 0.0
C2353 C 0.62341 0.95466 0.14527 0.0
C2354 C 0.64246 0.95152 0.16594 0.0
C2355 C 0.66253 0.89913 0.1739 0.0
C2356 C 0.64974 0.9121 0.16885 0.0
C2357 C 0.61808 0.95302 0.15352 0.0
C2358 C 0.6282 0.93845 0.15887 0.0
H2359 H 0.69957 0.86455 0.17226 0.0
H2360 H 0.67519 0.8824 0.16399 0.0
H2361 H 0.66497 0.94977 0.1761 0.0
H2362 H 0.5847 0.99123 0.15426 0.0
H2363 H 0.59902 0.96487 0.16296 0.0
C2364 C 0.12196 0.80933 0.17671 0.0
C2365 C 0.11999 0.80775 0.18504 0.0
C2366 C 0.11203 0.78486 0.17217 0.0
C2367 C 0.06152 0.70887 0.17327 0.0
H2368 H 0.09713 0.70701 0.15347 0.0
C2369 C 0.01677 0.60933 0.15372 0.0
C2370 C 0.01395 0.61363 0.14559 0.0
C2371 C 0.03235 0.63224 0.15875 0.0
C2372 C 0.08694 0.70729 0.15897 0.0
H2373 H 0.10727 0.78 0.19526 0.0
H2374 H 0.09017 0.73695 0.18734 0.0
H2375 H 0.12027 0.74849 0.16203 0.0
H2376 H 0.02659 0.64485 0.13623 0.0
H2377 H 0.0539 0.68505 0.14504 0.0
H2378 H 0.02809 0.66779 0.17017 0.0
C2379 C 0.0989 0.75699 0.18428 0.0
C2380 C 0.10014 0.73102 0.16387 0.0
C2381 C 0.10874 0.78152 0.18881 0.0
C2382 C 0.02817 0.64108 0.1425 0.0
C2383 C 0.04388 0.66401 0.14753 0.0
C2384 C 0.04842 0.6851 0.1684 0.0
C2385 C 0.10004 0.75835 0.1759 0.0
C2386 C 0.08737 0.73225 0.17102 0.0
C2387 C 0.04578 0.65983 0.15573 0.0
C2388 C 0.06079 0.68424 0.16114 0.0
H2389 H 0.1304 0.82945 0.1737 0.0
H2390 H 0.11285 0.78666 0.16573 0.0
H2391 H 0.05086 0.70928 0.17867 0.0
H2392 H 0.00703 0.58825 0.15617 0.0
H2393 H 0.03396 0.62838 0.16502 0.0
C2394 C 0.40767 0.37317 0.35216 0.0
C2395 C 0.39107 0.38576 0.35333 0.0
C2396 C 0.39821 0.34959 0.34724 0.0
C2397 C 0.33389 0.28971 0.3396 0.0
H2398 H 0.38219 0.28569 0.32335 0.0
C2399 C 0.30347 0.18752 0.32255 0.0
C2400 C 0.30541 0.19013 0.31423 0.0
C2401 C 0.31565 0.2115 0.32736 0.0
C2402 C 0.36852 0.28659 0.32787 0.0
H2403 H 0.3512 0.3831 0.35056 0.0
H2404 H 0.33456 0.34179 0.34197 0.0
H2405 H 0.39977 0.32794 0.33166 0.0
H2406 H 0.32196 0.2192 0.30432 0.0
H2407 H 0.34373 0.26147 0.31275 0.0
H2408 H 0.30264 0.24845 0.33583 0.0
C2409 C 0.35503 0.35037 0.34477 0.0
C2410 C 0.3786 0.31062 0.33264 0.0
C2411 C 0.36465 0.37415 0.34961 0.0
C2412 C 0.32039 0.2169 0.31075 0.0
C2413 C 0.33285 0.24093 0.31556 0.0
C2414 C 0.32394 0.26559 0.3349 0.0
C2415 C 0.37174 0.33791 0.34354 0.0
C2416 C 0.3613 0.31243 0.33852 0.0
C2417 C 0.33012 0.23844 0.3239 0.0
C2418 C 0.34113 0.26384 0.32898 0.0
H2419 H 0.42808 0.38172 0.355 0.0
H2420 H 0.41135 0.34019 0.34645 0.0
H2421 H 0.32021 0.2905 0.34414 0.0
H2422 H 0.29182 0.16695 0.32532 0.0
H2423 H 0.31349 0.20901 0.33377 0.0
C2424 C 0.63067 0.99882 0.35271 0.0
C2425 C 0.61667 0.01247 0.35563 0.0
C2426 C 0.65418 0.01311 0.34779 0.0
C2427 C 0.70843 0.08461 0.34101 0.0
H2428 H 0.71842 0.04137 0.32432 0.0
C2429 C 0.7942 0.12884 0.31569 0.0
C2430 C 0.8106 0.11569 0.31565 0.0
C2431 C 0.77027 0.11846 0.32056 0.0
C2432 C 0.71579 0.05367 0.32895 0.0
H2433 H 0.61639 0.05178 0.35594 0.0
H2434 H 0.65705 0.07672 0.34709 0.0
H2435 H 0.67665 0.01893 0.33272 0.0
H2436 H 0.81574 0.08242 0.32091 0.0
H2437 H 0.77337 0.0636 0.3291 0.0
H2438 H 0.74762 0.11954 0.337 0.0
C2439 C 0.65025 0.05512 0.34869 0.0
C2440 C 0.69203 0.04081 0.33382 0.0
C2441 C 0.62693 0.04087 0.35373 0.0
C2442 C 0.80305 0.09247 0.32066 0.0
C2443 C 0.77897 0.08183 0.32538 0.0
C2444 C 0.73204 0.09763 0.33602 0.0
C2445 C 0.664 0.04129 0.34559 0.0
C2446 C 0.68834 0.05588 0.34004 0.0
C2447 C 0.76227 0.09456 0.32532 0.0
C2448 C 0.73612 0.08204 0.33007 0.0
H2449 H 0.62351 0.97709 0.35426 0.0
H2450 H 0.6647 0.00199 0.34575 0.0
H2451 H 0.70644 0.09684 0.34577 0.0
H2452 H 0.79955 0.14671 0.31185 0.0
H2453 H 0.75757 0.12853 0.32043 0.0
C2454 C 0.87239 0.68942 0.32248 0.0
C2455 C 0.87882 0.69466 0.31435 0.0
C2456 C 0.88309 0.67535 0.32695 0.0
C2457 C 0.94109 0.65915 0.32653 0.0
H2458 H 0.90096 0.61136 0.34453 0.0
C2459 C 0.98483 0.60023 0.34466 0.0
C2460 C 0.98573 0.60438 0.35294 0.0
C2461 C 0.9697 0.60858 0.33977 0.0
C2462 C 0.91239 0.62473 0.33953 0.0
H2463 H 0.90008 0.68853 0.30436 0.0
H2464 H 0.91803 0.66296 0.31206 0.0
H2465 H 0.87769 0.62997 0.3361 0.0
H2466 H 0.96984 0.61845 0.36269 0.0
H2467 H 0.943 0.63278 0.35413 0.0
H2468 H 0.97565 0.65363 0.32994 0.0
C2469 C 0.90552 0.67037 0.31509 0.0
C2470 C 0.89914 0.63548 0.33472 0.0
C2471 C 0.8951 0.68476 0.31066 0.0
C2472 C 0.96984 0.61545 0.3563 0.0
C2473 C 0.95442 0.62352 0.35142 0.0
C2474 C 0.95415 0.64812 0.33128 0.0
C2475 C 0.90015 0.666 0.32333 0.0
C2476 C 0.91344 0.65308 0.3282 0.0
C2477 C 0.95463 0.6206 0.3431 0.0
C2478 C 0.94005 0.63104 0.33787 0.0
H2479 H 0.85993 0.69709 0.32542 0.0
H2480 H 0.8788 0.67275 0.33329 0.0
H2481 H 0.95302 0.67309 0.32169 0.0
H2482 H 0.99573 0.59044 0.34195 0.0
H2483 H 0.96969 0.60555 0.33338 0.0
C2484 C 0.79752 0.71406 0.81864 0.0
C2485 C 0.80695 0.69873 0.81417 0.0
C2486 C 0.77253 0.70019 0.82298 0.0
C2487 C 0.72699 0.6367 0.83367 0.0
H2488 H 0.67004 0.65807 0.83059 0.0
C2489 C 0.6224 0.58514 0.85154 0.0
C2490 C 0.61143 0.60254 0.85363 0.0
C2491 C 0.64547 0.59497 0.84638 0.0
C2492 C 0.68586 0.6521 0.83162 0.0
H2493 H 0.79782 0.65687 0.81076 0.0
H2494 H 0.75436 0.6324 0.81868 0.0
H2495 H 0.71187 0.6787 0.82217 0.0
H2496 H 0.61667 0.64419 0.8524 0.0
H2497 H 0.65745 0.6618 0.84365 0.0
H2498 H 0.70182 0.61115 0.84337 0.0
C2499 C 0.7663 0.6552 0.8187 0.0
C2500 C 0.70966 0.66375 0.82674 0.0
C2501 C 0.7911 0.66916 0.81422 0.0
C2502 C 0.6244 0.63018 0.85071 0.0
C2503 C 0.64767 0.64016 0.84566 0.0
C2504 C 0.70336 0.62536 0.83866 0.0
C2505 C 0.75675 0.67068 0.82306 0.0
C2506 C 0.73054 0.6564 0.82779 0.0
C2507 C 0.65829 0.62258 0.84333 0.0
C2508 C 0.68267 0.63323 0.83776 0.0
H2509 H 0.80968 0.73681 0.81891 0.0
H2510 H 0.76577 0.71253 0.8264 0.0
H2511 H 0.743 0.63091 0.83462 0.0
H2512 H 0.61266 0.56371 0.85374 0.0
H2513 H 0.65286 0.58073 0.84467 0.0
C2514 C 0.31277 0.12296 0.82067 0.0
C2515 C 0.30639 0.11589 0.81261 0.0
C2516 C 0.32692 0.11214 0.82504 0.0
C2517 C 0.33928 0.05204 0.825 0.0
H2518 H 0.39404 0.09457 0.84143 0.0
C2519 C 0.39768 0.00613 0.84244 0.0
C2520 C 0.39955 0.01027 0.85073 0.0
C2521 C 0.38825 0.0204 0.83757 0.0
C2522 C 0.37862 0.08239 0.8369 0.0
H2523 H 0.31077 0.09339 0.80263 0.0
H2524 H 0.3359 0.07465 0.81021 0.0
H2525 H 0.37489 0.11775 0.83317 0.0
H2526 H 0.39441 0.03347 0.8604 0.0
H2527 H 0.3777 0.05834 0.85191 0.0
H2528 H 0.34281 0.01665 0.82875 0.0
C2529 C 0.32951 0.08803 0.81323 0.0
C2530 C 0.36767 0.09565 0.83217 0.0
C2531 C 0.3153 0.09881 0.80887 0.0
C2532 C 0.39282 0.02969 0.85403 0.0
C2533 C 0.38343 0.04402 0.84917 0.0
C2534 C 0.35027 0.03882 0.82971 0.0
C2535 C 0.335 0.09412 0.8214 0.0
C2536 C 0.34775 0.08058 0.8262 0.0
C2537 C 0.38083 0.03935 0.84088 0.0
C2538 C 0.36992 0.05379 0.83574 0.0
H2539 H 0.30592 0.13605 0.82364 0.0
H2540 H 0.33057 0.11702 0.83134 0.0
H2541 H 0.32358 0.03966 0.82056 0.0
H2542 H 0.40389 0.99218 0.83969 0.0
H2543 H 0.38708 0.01684 0.83119 0.0
C2544 C 0.88163 0.19014 0.82094 0.0
C2545 C 0.88387 0.19467 0.81268 0.0
C2546 C 0.89216 0.21296 0.82618 0.0
C2547 C 0.9135 0.2876 0.82804 0.0
H2548 H 0.96496 0.289 0.84417 0.0
C2549 C 0.96083 0.37093 0.8533 0.0
C2550 C 0.99015 0.38373 0.8542 0.0
C2551 C 0.94643 0.34769 0.84827 0.0
C2552 C 0.95063 0.28886 0.8397 0.0
H2553 H 0.89771 0.22594 0.80333 0.0
H2554 H 0.9159 0.26614 0.81252 0.0
H2555 H 0.94113 0.2484 0.83529 0.0
H2556 H 0.02733 0.3818 0.85086 0.0
H2557 H 0.00213 0.34098 0.84211 0.0
H2558 H 0.92315 0.32818 0.83246 0.0
C2559 C 0.90603 0.24501 0.81494 0.0
C2560 C 0.93684 0.26558 0.83467 0.0
C2561 C 0.89577 0.22215 0.8097 0.0
C2562 C 0.00479 0.37262 0.85014 0.0
C2563 C 0.99036 0.34915 0.8452 0.0
C2564 C 0.92701 0.31075 0.83316 0.0
C2565 C 0.90484 0.24062 0.82323 0.0
C2566 C 0.91831 0.26483 0.82876 0.0
C2567 C 0.96108 0.33655 0.8442 0.0
C2568 C 0.9459 0.31167 0.83897 0.0
H2569 H 0.8726 0.16901 0.82333 0.0
H2570 H 0.89079 0.20903 0.83254 0.0
H2571 H 0.89923 0.28745 0.82355 0.0
H2572 H 0.94911 0.37911 0.85642 0.0
H2573 H 0.92381 0.33816 0.84765 0.0
C2574 C 0.59117 0.60911 0.65335 0.0
C2575 C 0.59699 0.61322 0.64515 0.0
C2576 C 0.59866 0.63208 0.65837 0.0
C2577 C 0.61701 0.70645 0.65883 0.0
H2578 H 0.65981 0.71011 0.67765 0.0
C2579 C 0.68341 0.80895 0.67662 0.0
C2580 C 0.68622 0.80696 0.68486 0.0
C2581 C 0.66875 0.78459 0.67203 0.0
C2582 C 0.64741 0.70924 0.67252 0.0
H2583 H 0.61316 0.64411 0.63565 0.0
H2584 H 0.62625 0.68446 0.64445 0.0
H2585 H 0.64076 0.66876 0.66912 0.0
H2586 H 0.67516 0.77863 0.6949 0.0
H2587 H 0.64875 0.73586 0.68694 0.0
H2588 H 0.6237 0.74698 0.66223 0.0
C2589 C 0.6162 0.6635 0.647 0.0
C2590 C 0.63658 0.68555 0.66762 0.0
C2591 C 0.60886 0.6405 0.64198 0.0
C2592 C 0.67329 0.78046 0.68853 0.0
C2593 C 0.6584 0.75608 0.68395 0.0
C2594 C 0.62765 0.7301 0.66379 0.0
C2595 C 0.61163 0.65954 0.65527 0.0
C2596 C 0.62155 0.68404 0.66068 0.0
C2597 C 0.65647 0.75782 0.67562 0.0
C2598 C 0.64327 0.73191 0.67064 0.0
H2599 H 0.58082 0.58813 0.65588 0.0
H2600 H 0.59433 0.62838 0.6647 0.0
H2601 H 0.60521 0.70568 0.65356 0.0
H2602 H 0.69343 0.82932 0.67371 0.0
H2603 H 0.66803 0.78677 0.66563 0.0
C2604 C 0.19504 0.91182 0.67847 0.0
C2605 C 0.18737 0.88805 0.68325 0.0
C2606 C 0.21957 0.92336 0.6739 0.0
C2607 C 0.26719 0.90792 0.66333 0.0
H2608 H 0.32213 0.98688 0.6664 0.0
C2609 C 0.37294 0.96262 0.6461 0.0
C2610 C 0.38389 0.99099 0.64404 0.0
C2611 C 0.34939 0.94912 0.65109 0.0
C2612 C 0.30686 0.96493 0.66535 0.0
H2613 H 0.199 0.85733 0.68692 0.0
H2614 H 0.24162 0.87697 0.67861 0.0
H2615 H 0.27991 0.96474 0.67464 0.0
H2616 H 0.37823 0.02718 0.64513 0.0
H2617 H 0.33652 0.0035 0.65352 0.0
H2618 H 0.29327 0.90822 0.6538 0.0
C2619 C 0.22868 0.88677 0.67852 0.0
C2620 C 0.28282 0.95224 0.67014 0.0
C2621 C 0.20434 0.87553 0.68322 0.0
C2622 C 0.37047 0.00543 0.6468 0.0
C2623 C 0.34666 0.99185 0.65165 0.0
C2624 C 0.29101 0.92073 0.65843 0.0
C2625 C 0.23661 0.91098 0.6739 0.0
C2626 C 0.26273 0.92372 0.66913 0.0
C2627 C 0.336 0.9636 0.65396 0.0
C2628 C 0.31107 0.9495 0.65933 0.0
H2629 H 0.18198 0.92147 0.6782 0.0
H2630 H 0.22512 0.94182 0.6703 0.0
H2631 H 0.25179 0.8859 0.66243 0.0
H2632 H 0.38305 0.95112 0.64404 0.0
H2633 H 0.34207 0.9275 0.6528 0.0
C2634 C 0.12441 0.32948 0.68202 0.0
C2635 C 0.11202 0.30005 0.68192 0.0
C2636 C 0.11482 0.34294 0.67685 0.0
C2637 C 0.07099 0.32972 0.65854 0.0
H2638 H 0.06551 0.39375 0.66603 0.0
C2639 C 0.99696 0.36502 0.64506 0.0
C2640 C 0.00992 0.39317 0.64256 0.0
C2641 C 0.01204 0.35548 0.64952 0.0
C2642 C 0.0672 0.37603 0.66386 0.0
H2643 H 0.08045 0.26167 0.67623 0.0
H2644 H 0.06257 0.28464 0.66763 0.0
H2645 H 0.08717 0.37364 0.67455 0.0
H2646 H 0.04853 0.4335 0.64267 0.0
H2647 H 0.07481 0.41691 0.65075 0.0
H2648 H 0.04957 0.33131 0.64804 0.0
C2649 C 0.08016 0.29765 0.6715 0.0
C2650 C 0.07973 0.36458 0.66871 0.0
C2651 C 0.09003 0.28434 0.67656 0.0
C2652 C 0.03818 0.41169 0.64456 0.0
C2653 C 0.0531 0.40229 0.64918 0.0
C2654 C 0.05801 0.34081 0.65379 0.0
C2655 C 0.09246 0.32714 0.67154 0.0
C2656 C 0.08137 0.34097 0.66616 0.0
C2657 C 0.04014 0.37407 0.65165 0.0
C2658 C 0.05573 0.36381 0.65645 0.0
H2659 H 0.14137 0.34203 0.68614 0.0
H2660 H 0.12503 0.36569 0.677 0.0
H2661 H 0.07257 0.31208 0.65627 0.0
H2662 H 0.97527 0.35034 0.64349 0.0
H2663 H 0.00166 0.33364 0.65138 0.0
C2664 C 0.85638 0.64049 0.50975 0.0
C2665 C 0.85833 0.6388 0.51805 0.0
C2666 C 0.88073 0.65436 0.50511 0.0
C2667 C 0.95562 0.6749 0.50541 0.0
H2668 H 0.96044 0.72026 0.48708 0.0
C2669 C 0.05696 0.73386 0.4867 0.0
C2670 C 0.05363 0.73229 0.47838 0.0
C2671 C 0.03357 0.72432 0.4917 0.0
C2672 C 0.95931 0.70745 0.49214 0.0
H2673 H 0.88678 0.65083 0.5281 0.0
H2674 H 0.9296 0.67528 0.52 0.0
H2675 H 0.91884 0.70079 0.49563 0.0
H2676 H 0.02364 0.72093 0.46873 0.0
H2677 H 0.98254 0.7039 0.47747 0.0
H2678 H 0.99588 0.68123 0.50189 0.0
C2679 C 0.90931 0.66559 0.51705 0.0
C2680 C 0.9355 0.69634 0.49705 0.0
C2681 C 0.8849 0.65172 0.52168 0.0
C2682 C 0.02666 0.72202 0.47514 0.0
C2683 C 0.00321 0.71245 0.48014 0.0
C2684 C 0.9794 0.68599 0.50052 0.0
C2685 C 0.90749 0.66676 0.5087 0.0
C2686 C 0.93332 0.67979 0.50371 0.0
C2687 C 0.00639 0.71328 0.48848 0.0
C2688 C 0.98144 0.70225 0.4938 0.0
H2689 H 0.83601 0.6304 0.50684 0.0
H2690 H 0.87859 0.65456 0.4987 0.0
H2691 H 0.95439 0.66184 0.51042 0.0
H2692 H 0.07771 0.74276 0.48934 0.0
H2693 H 0.03681 0.72587 0.49809 0.0
C2694 C 0.27101 0.30198 0.47792 0.0
C2695 C 0.2631 0.32046 0.48126 0.0
C2696 C 0.27988 0.28726 0.48281 0.0
C2697 C 0.30997 0.29084 0.50265 0.0
H2698 H 0.28965 0.21343 0.49834 0.0
C2699 C 0.34658 0.23136 0.52316 0.0
C2700 C 0.35731 0.21604 0.5193 0.0
C2701 C 0.33185 0.24165 0.51883 0.0
C2702 C 0.29564 0.23511 0.49959 0.0
H2703 H 0.25587 0.33629 0.49233 0.0
H2704 H 0.27166 0.31087 0.50089 0.0
H2705 H 0.27001 0.2362 0.49011 0.0
H2706 H 0.36067 0.1986 0.50806 0.0
H2707 H 0.33512 0.21676 0.50043 0.0
H2708 H 0.33597 0.29003 0.51201 0.0
C2709 C 0.27187 0.30839 0.49448 0.0
C2710 C 0.28441 0.24814 0.49487 0.0
C2711 C 0.263 0.32306 0.48959 0.0
C2712 C 0.35236 0.21029 0.51113 0.0
C2713 C 0.33768 0.2206 0.5068 0.0
C2714 C 0.32122 0.27785 0.50735 0.0
C2715 C 0.28073 0.29058 0.49114 0.0
C2716 C 0.29162 0.27621 0.49632 0.0
C2717 C 0.32768 0.23681 0.51057 0.0
C2718 C 0.31435 0.2499 0.50584 0.0
H2719 H 0.27093 0.2994 0.47151 0.0
H2720 H 0.28673 0.27382 0.48006 0.0
H2721 H 0.31629 0.31263 0.50383 0.0
H2722 H 0.35001 0.23575 0.52948 0.0
H2723 H 0.324 0.25365 0.52194 0.0
C2724 C 0.66468 0.96214 0.47935 0.0
C2725 C 0.67851 0.94898 0.47594 0.0
C2726 C 0.67954 0.98623 0.48401 0.0
C2727 C 0.741 0.02266 0.49679 0.0
H2728 H 0.73028 0.08682 0.4937 0.0
C2729 C 0.76862 0.11018 0.52028 0.0
C2730 C 0.78163 0.13793 0.51745 0.0
C2731 C 0.75929 0.08773 0.51492 0.0
C2732 C 0.73368 0.06917 0.49458 0.0
H2733 H 0.71866 0.95079 0.47454 0.0
H2734 H 0.74477 0.99295 0.48285 0.0
H2735 H 0.70751 0.0466 0.48466 0.0
H2736 H 0.7958 0.16444 0.50695 0.0
H2737 H 0.7793 0.12515 0.49754 0.0
H2738 H 0.7667 0.04506 0.50684 0.0
C2739 C 0.72241 0.9845 0.48192 0.0
C2740 C 0.72049 0.04611 0.48946 0.0
C2741 C 0.70757 0.96057 0.47715 0.0
C2742 C 0.78585 0.14309 0.50923 0.0
C2743 C 0.77631 0.12069 0.50387 0.0
C2744 C 0.75392 0.04562 0.50199 0.0
C2745 C 0.70849 0.99751 0.4854 0.0
C2746 C 0.72385 0.02256 0.49055 0.0
C2747 C 0.7626 0.09278 0.50666 0.0
C2748 C 0.75024 0.06901 0.50096 0.0
H2749 H 0.64238 0.95389 0.47837 0.0
H2750 H 0.6683 0.9958 0.48665 0.0
H2751 H 0.74376 0.00466 0.49779 0.0
H2752 H 0.76521 0.10589 0.52661 0.0
H2753 H 0.74858 0.06641 0.51722 0.0
C2754 C 0.9797 0.52106 0.65434 0.0
C2755 C 0.9748 0.52248 0.64619 0.0
C2756 C 0.99436 0.54572 0.65881 0.0
C2757 C 0.0108 0.61948 0.6587 0.0
H2758 H 0.06149 0.62786 0.67597 0.0
C2759 C 0.06862 0.72181 0.67686 0.0
C2760 C 0.06796 0.71866 0.68518 0.0
C2761 C 0.06006 0.69854 0.67188 0.0
C2762 C 0.04724 0.62572 0.67119 0.0
H2763 H 0.98214 0.55021 0.6362 0.0
H2764 H 0.00822 0.59354 0.64397 0.0
H2765 H 0.04203 0.58597 0.66752 0.0
H2766 H 0.05963 0.6893 0.69483 0.0
H2767 H 0.04438 0.64836 0.68612 0.0
H2768 H 0.01573 0.659 0.6624 0.0
C2769 C 0.00033 0.57347 0.64696 0.0
C2770 C 0.03611 0.60175 0.66635 0.0
C2771 C 0.98559 0.54879 0.6425 0.0
C2772 C 0.05994 0.69213 0.68843 0.0
C2773 C 0.05139 0.66879 0.68345 0.0
C2774 C 0.02197 0.64342 0.66351 0.0
C2775 C 0.0044 0.57221 0.6552 0.0
C2776 C 0.0176 0.59829 0.66008 0.0
C2777 C 0.05098 0.6717 0.67512 0.0
C2778 C 0.04016 0.64672 0.66984 0.0
H2779 H 0.97134 0.50085 0.65729 0.0
H2780 H 0.99684 0.54398 0.66516 0.0
H2781 H 0.99618 0.61723 0.65402 0.0
H2782 H 0.07586 0.74231 0.6742 0.0
H2783 H 0.06061 0.70156 0.66548 0.0
C2784 C 0.45027 0.43248 0.64477 0.0
C2785 C 0.47728 0.44831 0.64805 0.0
C2786 C 0.42651 0.42195 0.64967 0.0
C2787 C 0.40446 0.39968 0.67017 0.0
H2788 H 0.33758 0.40281 0.66435 0.0
C2789 C 0.29591 0.32993 0.68481 0.0
C2790 C 0.28068 0.34321 0.68699 0.0
C2791 C 0.32056 0.34435 0.68031 0.0
C2792 C 0.35619 0.40195 0.66607 0.0
H2793 H 0.50107 0.46614 0.65888 0.0
H2794 H 0.45945 0.44753 0.66752 0.0
H2795 H 0.37959 0.42604 0.6559 0.0
H2796 H 0.2794 0.38202 0.6864 0.0
H2797 H 0.32247 0.40725 0.67843 0.0
H2798 H 0.38098 0.37527 0.68026 0.0
C2799 C 0.4566 0.44323 0.66117 0.0
C2800 C 0.3801 0.41504 0.66121 0.0
C2801 C 0.48031 0.45398 0.65626 0.0
C2802 C 0.29074 0.37131 0.68474 0.0
C2803 C 0.31523 0.38564 0.68015 0.0
C2804 C 0.38046 0.38631 0.67496 0.0
C2805 C 0.42948 0.42687 0.65794 0.0
C2806 C 0.40443 0.41396 0.66321 0.0
C2807 C 0.33033 0.37227 0.67789 0.0
C2808 C 0.35606 0.38723 0.67294 0.0
H2809 H 0.44762 0.42792 0.63844 0.0
H2810 H 0.40586 0.40922 0.64703 0.0
H2811 H 0.42285 0.3983 0.67181 0.0
H2812 H 0.28888 0.30846 0.68662 0.0
H2813 H 0.33176 0.33352 0.67862 0.0
C2814 C 0.56024 0.00854 0.64353 0.0
C2815 C 0.54711 0.02196 0.64717 0.0
C2816 C 0.57016 0.99414 0.64816 0.0
C2817 C 0.56731 0.96571 0.66856 0.0
H2818 H 0.64105 0.9777 0.66279 0.0
C2819 C 0.63928 0.94791 0.69015 0.0
C2820 C 0.65385 0.93512 0.687 0.0
C2821 C 0.62368 0.95539 0.68515 0.0
C2822 C 0.62029 0.97386 0.66442 0.0
H2823 H 0.53323 0.03061 0.65834 0.0
H2824 H 0.5511 0.00605 0.66651 0.0
H2825 H 0.61811 0.99603 0.65423 0.0
H2826 H 0.6614 0.91761 0.67631 0.0
H2827 H 0.63485 0.93141 0.66752 0.0
H2828 H 0.57015 0.94433 0.67891 0.0
C2829 C 0.55331 0.00599 0.6601 0.0
C2830 C 0.60706 0.98426 0.6595 0.0
C2831 C 0.54319 0.02016 0.65544 0.0
C2832 C 0.65148 0.92869 0.67883 0.0
C2833 C 0.63608 0.93634 0.67382 0.0
C2834 C 0.5807 0.95551 0.67352 0.0
C2835 C 0.56736 0.99321 0.65652 0.0
C2836 C 0.58048 0.9805 0.66153 0.0
C2837 C 0.6223 0.95005 0.67691 0.0
C2838 C 0.6074 0.95966 0.67152 0.0
H2839 H 0.56328 0.00965 0.63713 0.0
H2840 H 0.58038 0.98408 0.6452 0.0
H2841 H 0.54667 0.96205 0.67024 0.0
H2842 H 0.64046 0.95269 0.69646 0.0
H2843 H 0.61332 0.96602 0.68769 0.0
C2844 C 0.27773 0.935 0.17658 0.0
C2845 C 0.28124 0.93901 0.18486 0.0
C2846 C 0.30096 0.94252 0.17164 0.0
C2847 C 0.3736 0.95577 0.17147 0.0
H2848 H 0.38266 0.00282 0.15318 0.0
C2849 C 0.47882 0.01838 0.15455 0.0
C2850 C 0.47792 0.02298 0.14637 0.0
C2851 C 0.45388 0.00446 0.15895 0.0
C2852 C 0.38025 0.98922 0.15816 0.0
H2853 H 0.31141 0.95239 0.19454 0.0
H2854 H 0.35209 0.96542 0.18591 0.0
H2855 H 0.34072 0.98533 0.16144 0.0
H2856 H 0.45088 0.01571 0.1362 0.0
H2857 H 0.40706 0.99051 0.1438 0.0
H2858 H 0.41311 0.95959 0.1682 0.0
C2859 C 0.33141 0.95676 0.18323 0.0
C2860 C 0.35624 0.97931 0.16291 0.0
C2861 C 0.3082 0.94946 0.18815 0.0
C2862 C 0.45187 0.01241 0.14254 0.0
C2863 C 0.4269 0.99824 0.14691 0.0
C2864 C 0.39754 0.96547 0.16667 0.0
C2865 C 0.32805 0.95366 0.17492 0.0
C2866 C 0.35283 0.96277 0.16966 0.0
C2867 C 0.42762 0.99471 0.15521 0.0
C2868 C 0.4013 0.98259 0.16 0.0
H2869 H 0.25702 0.92569 0.1739 0.0
H2870 H 0.29771 0.93938 0.16527 0.0
H2871 H 0.37131 0.94275 0.1766 0.0
H2872 H 0.49885 0.02659 0.15759 0.0
H2873 H 0.4553 0.00244 0.16533 0.0
C2874 C 0.98597 0.4346 0.14348 0.0
C2875 C 0.97488 0.45005 0.14706 0.0
C2876 C 0.00022 0.42445 0.14808 0.0
C2877 C 0.03431 0.43165 0.16777 0.0
H2878 H 0.01584 0.35469 0.16363 0.0
C2879 C 0.058 0.36492 0.18987 0.0
C2880 C 0.06708 0.34726 0.18659 0.0
C2881 C 0.04941 0.37969 0.18489 0.0
C2882 C 0.02152 0.37633 0.1648 0.0
H2883 H 0.97029 0.46777 0.1581 0.0
H2884 H 0.99484 0.44971 0.16622 0.0
H2885 H 0.99627 0.37662 0.15514 0.0
H2886 H 0.07692 0.33318 0.17561 0.0
H2887 H 0.06157 0.35861 0.1669 0.0
H2888 H 0.0591 0.43099 0.17756 0.0
C2889 C 0.99301 0.44572 0.15986 0.0
C2890 C 0.01035 0.38894 0.15992 0.0
C2891 C 0.97886 0.45596 0.15524 0.0
C2892 C 0.06885 0.34573 0.17827 0.0
C2893 C 0.06023 0.3604 0.1733 0.0
C2894 C 0.0454 0.41897 0.17268 0.0
C2895 C 0.00349 0.42949 0.15635 0.0
C2896 C 0.01651 0.41671 0.16136 0.0
C2897 C 0.05 0.37718 0.17656 0.0
C2898 C 0.03903 0.39114 0.17125 0.0
H2899 H 0.98328 0.4301 0.13715 0.0
H2900 H 0.00848 0.41246 0.14517 0.0
H2901 H 0.03975 0.4532 0.16897 0.0
H2902 H 0.05684 0.3667 0.19628 0.0
H2903 H 0.04155 0.3924 0.18757 0.0
C2904 C 0.56285 0.54505 0.14485 0.0
C2905 C 0.54769 0.5188 0.1486 0.0
C2906 C 0.57332 0.56979 0.14931 0.0
C2907 C 0.56874 0.59794 0.16915 0.0
H2908 H 0.6444 0.65699 0.16385 0.0
C2909 C 0.63976 0.68971 0.19037 0.0
C2910 C 0.65537 0.71655 0.18694 0.0
C2911 C 0.62436 0.66603 0.18556 0.0
C2912 C 0.62313 0.64082 0.16534 0.0
H2913 H 0.53087 0.49727 0.15978 0.0
H2914 H 0.54974 0.54046 0.16768 0.0
H2915 H 0.62142 0.61482 0.15564 0.0
H2916 H 0.66499 0.74009 0.17588 0.0
H2917 H 0.63885 0.69865 0.16744 0.0
H2918 H 0.57107 0.62383 0.17904 0.0
C2919 C 0.55311 0.54218 0.16129 0.0
C2920 C 0.60987 0.61667 0.16062 0.0
C2921 C 0.54241 0.51746 0.15681 0.0
C2922 C 0.65427 0.71949 0.17865 0.0
C2923 C 0.6391 0.69583 0.17383 0.0
C2924 C 0.58216 0.62203 0.17393 0.0
C2925 C 0.56909 0.56866 0.15762 0.0
C2926 C 0.58254 0.59487 0.16247 0.0
C2927 C 0.62425 0.66884 0.17723 0.0
C2928 C 0.60951 0.64365 0.17207 0.0
H2929 H 0.56699 0.54637 0.1385 0.0
H2930 H 0.58502 0.58979 0.14626 0.0
H2931 H 0.54754 0.58176 0.17069 0.0
H2932 H 0.63994 0.68697 0.19677 0.0
H2933 H 0.61315 0.64545 0.18834 0.0
C2934 C 0.28085 0.97406 0.97706 0.0
C2935 C 0.27223 0.94725 0.98025 0.0
C2936 C 0.2889 0.99714 0.9821 0.0
C2937 C 0.31788 0.0233 0.00178 0.0
H2938 H 0.29117 0.07607 0.99855 0.0
C2939 C 0.3537 0.11872 0.02247 0.0
C2940 C 0.36015 0.14421 0.01881 0.0
C2941 C 0.33946 0.09348 0.01823 0.0
C2942 C 0.29907 0.06172 -0.00051 0.0
H2943 H 0.26294 0.92318 0.99121 0.0
H2944 H 0.27825 0.96376 -0.0 0.0
H2945 H 0.2735 0.03441 0.99008 0.0
H2946 H 0.35639 0.16377 0.00805 0.0
H2947 H 0.33232 0.11989 0.00049 0.0
H2948 H 0.34432 0.0509 0.01093 0.0
C2949 C 0.27928 0.96693 0.9936 0.0
C2950 C 0.28886 0.03783 0.99465 0.0
C2951 C 0.27087 0.94379 0.98857 0.0
C2952 C 0.35144 0.14418 0.01096 0.0
C2953 C 0.33754 0.11902 0.00667 0.0
C2954 C 0.32839 0.04734 0.00654 0.0
C2955 C 0.28849 0.99383 0.99041 0.0
C2956 C 0.2983 0.01851 0.99573 0.0
C2957 C 0.33178 0.09337 0.01021 0.0
C2958 C 0.31926 0.06698 0.00543 0.0
H2959 H 0.28172 0.97725 0.97067 0.0
H2960 H 0.29601 0.0177 0.97949 0.0
H2961 H 0.32574 0.00887 0.00266 0.0
H2962 H 0.36012 0.11842 0.02857 0.0
H2963 H 0.33483 0.07411 0.02121 0.0
C2964 C 0.8822 0.22724 0.02109 0.0
C2965 C 0.8559 0.21341 0.01731 0.0
C2966 C 0.9069 0.23774 0.0166 0.0
C2967 C 0.93453 0.23527 0.9965 0.0
H2968 H 0.99416 0.31015 0.00221 0.0
C2969 C 0.02506 0.3074 0.97515 0.0
C2970 C 0.05212 0.323 0.97845 0.0
C2971 C 0.00172 0.2918 0.98007 0.0
C2972 C 0.97786 0.28909 0.0006 0.0
H2973 H 0.83428 0.19883 0.00603 0.0
H2974 H 0.87739 0.21762 0.99811 0.0
H2975 H 0.95236 0.28645 0.01056 0.0
H2976 H 0.07641 0.33253 0.98936 0.0
H2977 H 0.03559 0.3059 0.99799 0.0
H2978 H 0.95989 0.23845 0.98638 0.0
C2979 C 0.87915 0.22 0.00453 0.0
C2980 C 0.95392 0.27543 0.0054 0.0
C2981 C 0.85448 0.20934 0.00904 0.0
C2982 C 0.05562 0.32177 0.98671 0.0
C2983 C 0.03231 0.30633 0.99163 0.0
C2984 C 0.95843 0.24904 0.99166 0.0
C2985 C 0.90569 0.23478 0.00825 0.0
C2986 C 0.93186 0.24843 0.00338 0.0
C2987 C 0.00509 0.29141 0.98837 0.0
C2988 C 0.98024 0.27617 0.99364 0.0
H2989 H 0.8836 0.23036 0.02749 0.0
H2990 H 0.92696 0.24853 0.01967 0.0
H2991 H 0.91814 0.21432 0.99483 0.0
H2992 H 0.02189 0.30771 0.96878 0.0
H2993 H 0.98098 0.28059 0.97739 0.0
C2994 C 0.75281 0.62091 0.0129 0.0
C2995 C 0.77734 0.6362 0.01747 0.0
C2996 C 0.74229 0.63482 0.00835 0.0
C2997 C 0.76049 0.69716 0.99717 0.0
H2998 H 0.68279 0.67751 0.00061 0.0
C2999 C 0.70627 0.74628 0.97867 0.0
C3000 C 0.67773 0.72852 0.97684 0.0
C3001 C 0.72002 0.73733 0.98393 0.0
C3002 C 0.7044 0.683 -0.00051 0.0
H3003 H 0.81054 0.67802 0.02072 0.0
H3004 H 0.79256 0.70259 0.01241 0.0
H3005 H 0.70424 0.65778 0.00927 0.0
H3006 H 0.64154 0.68704 0.9786 0.0
H3007 H 0.66555 0.67094 0.98753 0.0
H3008 H 0.76036 0.72125 0.98715 0.0
C3009 C 0.78138 0.67978 0.01251 0.0
C3010 C 0.7167 0.67189 0.0045 0.0
C3011 C 0.79165 0.66578 0.01722 0.0
C3012 C 0.6634 0.70134 0.98008 0.0
C3013 C 0.67717 0.69223 0.98524 0.0
C3014 C 0.74803 0.70796 0.99205 0.0
C3015 C 0.75642 0.66433 0.00812 0.0
C3016 C 0.74468 0.67854 0.00331 0.0
C3017 C 0.70553 0.71025 0.98734 0.0
C3018 C 0.71965 0.70058 0.99307 0.0
H3019 H 0.74181 0.59812 0.01279 0.0
H3020 H 0.72323 0.62251 0.00491 0.0
H3021 H 0.78208 0.70239 0.99613 0.0
H3022 H 0.7177 0.76736 0.97621 0.0
H3023 H 0.74179 0.75183 0.98545 0.0
C3024 C 0.7103 0.07934 0.8116 0.0
C3025 C 0.72176 0.06219 0.80973 0.0
C3026 C 0.68693 0.06943 0.81665 0.0
C3027 C 0.64618 0.01284 0.83149 0.0
H3028 H 0.58889 0.03347 0.8279 0.0
C3029 C 0.53549 0.95253 0.8451 0.0
C3030 C 0.52643 0.96856 0.84938 0.0
C3031 C 0.55982 0.96569 0.84046 0.0
C3032 C 0.60491 0.02781 0.829 0.0
H3033 H 0.71713 0.02088 0.81123 0.0
H3034 H 0.67583 0.0031 0.81979 0.0
H3035 H 0.63027 0.05266 0.81924 0.0
H3036 H 0.5352 0.01088 0.85202 0.0
H3037 H 0.57755 0.03405 0.84361 0.0
H3038 H 0.62008 0.98705 0.84104 0.0
C3039 C 0.68545 0.02463 0.81769 0.0
C3040 C 0.62866 0.03883 0.82407 0.0
C3041 C 0.70904 0.03471 0.81276 0.0
C3042 C 0.54169 0.99806 0.84874 0.0
C3043 C 0.56586 0.01127 0.84397 0.0
C3044 C 0.62226 0.00151 0.83632 0.0
C3045 C 0.67426 0.04195 0.81978 0.0
C3046 C 0.64948 0.03125 0.8252 0.0
C3047 C 0.57529 0.99514 0.83989 0.0
C3048 C 0.60134 0.0087 0.83507 0.0
H3049 H 0.71983 0.10065 0.80932 0.0
H3050 H 0.67915 0.08349 0.81819 0.0
H3051 H 0.66206 0.00709 0.8327 0.0
H3052 H 0.52369 0.92975 0.84529 0.0
H3053 H 0.56644 0.95282 0.83726 0.0
C3054 C 0.9279 0.65453 0.8231 0.0
C3055 C 0.92983 0.65278 0.8148 0.0
C3056 C 0.93568 0.63935 0.82816 0.0
C3057 C 0.94835 0.57913 0.82879 0.0
H3058 H 0.99597 0.61919 0.84681 0.0
C3059 C 0.0145 0.54097 0.84586 0.0
C3060 C 0.01803 0.54585 0.85409 0.0
C3061 C 5e-05 0.55122 0.84139 0.0
C3062 C 0.98228 0.6075 0.84189 0.0
H3063 H 0.93982 0.63272 0.80523 0.0
H3064 H 0.95375 0.6063 0.81406 0.0
H3065 H 0.97776 0.64249 0.83835 0.0
H3066 H 0.00827 0.56378 0.86425 0.0
H3067 H 0.9827 0.58162 0.85646 0.0
H3068 H 0.95327 0.54426 0.83229 0.0
C3069 C 0.94628 0.61943 0.81668 0.0
C3070 C 0.97187 0.62089 0.83703 0.0
C3071 C 0.93849 0.63465 0.81162 0.0
C3072 C 0.00599 0.56011 0.85787 0.0
C3073 C 0.9915 0.57035 0.85341 0.0
C3074 C 0.95874 0.5657 0.83367 0.0
C3075 C 0.94527 0.62187 0.82501 0.0
C3076 C 0.95502 0.60697 0.83038 0.0
C3077 C 0.98885 0.56651 0.84509 0.0
C3078 C 0.97606 0.57985 0.84023 0.0
H3079 H 0.92017 0.66747 0.82569 0.0
H3080 H 0.93405 0.64117 0.83455 0.0
H3081 H 0.93508 0.56771 0.82378 0.0
H3082 H 0.02382 0.53012 0.84284 0.0
H3083 H 0.99867 0.54815 0.83499 0.0
C3084 C 0.45179 0.47606 0.84218 0.0
C3085 C 0.44712 0.47379 0.85042 0.0
C3086 C 0.4421 0.45188 0.83751 0.0
C3087 C 0.38931 0.37589 0.83786 0.0
H3088 H 0.42881 0.37425 0.81885 0.0
C3089 C 0.34951 0.27626 0.81862 0.0
C3090 C 0.34683 0.28023 0.81046 0.0
C3091 C 0.36431 0.29939 0.82364 0.0
C3092 C 0.41757 0.37449 0.82414 0.0
H3093 H 0.4299 0.44514 0.86039 0.0
H3094 H 0.41362 0.40264 0.8523 0.0
H3095 H 0.45045 0.41544 0.82757 0.0
H3096 H 0.35935 0.31115 0.80102 0.0
H3097 H 0.38559 0.35177 0.80981 0.0
H3098 H 0.35653 0.33485 0.83444 0.0
C3099 C 0.42404 0.42295 0.84937 0.0
C3100 C 0.42987 0.39808 0.82912 0.0
C3101 C 0.43348 0.44717 0.85401 0.0
C3102 C 0.36077 0.30761 0.80731 0.0
C3103 C 0.37583 0.33078 0.81233 0.0
C3104 C 0.37719 0.35222 0.83294 0.0
C3105 C 0.42781 0.42498 0.84103 0.0
C3106 C 0.41573 0.39921 0.836 0.0
C3107 C 0.37725 0.32688 0.82056 0.0
C3108 C 0.39105 0.35141 0.82598 0.0
H3109 H 0.4622 0.49654 0.83932 0.0
H3110 H 0.44502 0.45429 0.83111 0.0
H3111 H 0.37752 0.37618 0.84301 0.0
H3112 H 0.34009 0.25527 0.82112 0.0
H3113 H 0.36562 0.29579 0.82994 0.0
C3114 C 0.64408 0.85485 0.98739 0.0
C3115 C 0.64132 0.85681 0.97915 0.0
C3116 C 0.65801 0.87921 0.99202 0.0
C3117 C 0.67797 0.95434 0.99159 0.0
H3118 H 0.72044 0.95839 0.01053 0.0
C3119 C 0.73491 0.0548 0.01067 0.0
C3120 C 0.72907 0.05086 0.01888 0.0
C3121 C 0.72703 0.03171 0.00567 0.0
C3122 C 0.70855 0.95746 0.00527 0.0
H3123 H 0.65161 0.88513 0.96914 0.0
H3124 H 0.67681 0.92797 0.97716 0.0
H3125 H 0.70236 0.91714 0.00187 0.0
H3126 H 0.71242 0.02005 0.02839 0.0
H3127 H 0.69877 0.9795 0.01963 0.0
H3128 H 0.68431 0.99472 0.99498 0.0
C3129 C 0.66765 0.90774 0.98012 0.0
C3130 C 0.69813 0.93384 0.00032 0.0
C3131 C 0.65345 0.88333 0.97552 0.0
C3132 C 0.71673 0.02356 0.02206 0.0
C3133 C 0.70906 0.00044 0.01706 0.0
C3134 C 0.68864 0.97804 0.99649 0.0
C3135 C 0.66964 0.90599 0.98846 0.0
C3136 C 0.68243 0.93185 0.99346 0.0
C3137 C 0.71371 0.00428 0.0088 0.0
C3138 C 0.70377 0.9797 0.00342 0.0
H3139 H 0.63464 0.83445 0.99028 0.0
H3140 H 0.65874 0.877 0.99842 0.0
H3141 H 0.66551 0.95334 0.98646 0.0
H3142 H 0.74565 0.07575 0.00812 0.0
H3143 H 0.73141 0.03529 -0.00066 0.0
C3144 C 0.93991 0.67417 0.00951 0.0
C3145 C 0.94361 0.6745 0.0178 0.0
C3146 C 0.96303 0.68936 0.0045 0.0
C3147 C 0.03703 0.74772 0.00441 0.0
H3148 H 0.0422 0.71161 0.9851 0.0
C3149 C 0.14029 0.78618 0.98684 0.0
C3150 C 0.13877 0.78499 0.97849 0.0
C3151 C 0.11574 0.77517 0.9914 0.0
C3152 C 0.04087 0.72217 0.9904 0.0
H3153 H 0.97396 0.69173 0.02741 0.0
H3154 H 0.01455 0.71797 0.01866 0.0
H3155 H 0.00068 0.68735 0.99356 0.0
H3156 H 0.11091 0.77239 0.9683 0.0
H3157 H 0.0677 0.7529 0.97627 0.0
H3158 H 0.07755 0.7823 0.00131 0.0
C3159 C 0.99382 0.70609 0.01601 0.0
C3160 C 0.01708 0.70826 0.99525 0.0
C3161 C 0.97066 0.69095 0.02102 0.0
C3162 C 0.11244 0.77326 0.97474 0.0
C3163 C 0.08782 0.76211 0.9793 0.0
C3164 C 0.06086 0.76159 -0.00044 0.0
C3165 C 0.99029 0.70534 0.00769 0.0
C3166 C 0.015 0.72075 0.00235 0.0
C3167 C 0.08921 0.76262 0.98768 0.0
C3168 C 0.06314 0.74885 0.99255 0.0
H3169 H 0.91909 0.66249 0.0069 0.0
H3170 H 0.95951 0.68884 0.99813 0.0
H3171 H 0.03585 0.75812 0.00976 0.0
H3172 H 0.16045 0.79488 0.98983 0.0
H3173 H 0.11749 0.77555 0.99784 0.0
C3174 C 0.22558 0.3444 0.97883 0.0
C3175 C 0.21326 0.35869 0.98242 0.0
C3176 C 0.23475 0.32946 0.98351 0.0
C3177 C 0.2311 0.30142 0.00404 0.0
H3178 H 0.3022 0.30762 0.99788 0.0
C3179 C 0.3019 0.27965 0.02514 0.0
C3180 C 0.31419 0.26465 0.02192 0.0
C3181 C 0.28653 0.28786 0.02029 0.0
C3182 C 0.28216 0.30543 -0.00037 0.0
H3183 H 0.20021 0.3685 0.99355 0.0
H3184 H 0.21704 0.34322 0.00182 0.0
H3185 H 0.28109 0.32808 0.98941 0.0
H3186 H 0.31731 0.24388 0.01127 0.0
H3187 H 0.29155 0.25918 0.00275 0.0
H3188 H 0.23303 0.27968 0.01445 0.0
C3189 C 0.21907 0.34278 0.9954 0.0
C3190 C 0.26995 0.31704 0.99476 0.0
C3191 C 0.20958 0.35741 0.9907 0.0
C3192 C 0.30951 0.25672 0.01385 0.0
C3193 C 0.29441 0.26516 0.00898 0.0
C3194 C 0.24354 0.2901 0.00897 0.0
C3195 C 0.23215 0.32894 0.99187 0.0
C3196 C 0.24431 0.3153 0.99691 0.0
C3197 C 0.28318 0.2812 0.01212 0.0
C3198 C 0.26923 0.29209 0.00681 0.0
H3199 H 0.22842 0.34513 0.97242 0.0
H3200 H 0.24415 0.31858 0.98056 0.0
H3201 H 0.21114 0.29927 0.00583 0.0
H3202 H 0.30491 0.2858 0.03136 0.0
H3203 H 0.27812 0.30026 0.02286 0.0
C3204 C 0.9578 0.29733 0.51912 0.0
C3205 C 0.94409 0.26919 0.52166 0.0
C3206 C 0.98211 0.30795 0.51446 0.0
C3207 C 0.01835 0.2885 0.50003 0.0
H3208 H 0.08523 0.35723 0.50657 0.0
C3209 C 0.12289 0.33607 0.48218 0.0
C3210 C 0.13889 0.36555 0.48177 0.0
C3211 C 0.09938 0.32296 0.4872 0.0
C3212 C 0.06665 0.33826 0.50458 0.0
H3213 H 0.9448 0.23005 0.52143 0.0
H3214 H 0.98715 0.24854 0.51306 0.0
H3215 H 0.04344 0.33712 0.51499 0.0
H3216 H 0.14312 0.40444 0.48635 0.0
H3217 H 0.10141 0.3819 0.49465 0.0
H3218 H 0.04098 0.29014 0.48946 0.0
C3219 C 0.9791 0.26231 0.51471 0.0
C3220 C 0.04281 0.32668 0.50944 0.0
C3221 C 0.95507 0.25182 0.51951 0.0
C3222 C 0.13086 0.38168 0.4864 0.0
C3223 C 0.10721 0.36867 0.4913 0.0
C3224 C 0.04207 0.30035 0.49508 0.0
C3225 C 0.99285 0.29049 0.51218 0.0
C3226 C 0.01842 0.30185 0.50718 0.0
C3227 C 0.09129 0.33915 0.49185 0.0
C3228 C 0.06644 0.32557 0.49726 0.0
H3229 H 0.94989 0.31118 0.5208 0.0
H3230 H 0.99235 0.32974 0.51255 0.0
H3231 H -0.00035 0.26938 0.49816 0.0
H3232 H 0.12863 0.32317 0.47864 0.0
H3233 H 0.08783 0.30019 0.48752 0.0
C3234 C 0.6451 0.7894 0.48863 0.0
C3235 C 0.63959 0.78322 0.4805 0.0
C3236 C 0.65932 0.77856 0.49297 0.0
C3237 C 0.67467 0.72012 0.49222 0.0
H3238 H 0.72332 0.75938 0.51015 0.0
C3239 C 0.73237 0.67427 0.51004 0.0
C3240 C 0.72902 0.67388 0.51836 0.0
C3241 C 0.72412 0.68961 0.50521 0.0
C3242 C 0.7097 0.74818 0.50517 0.0
H3243 H 0.64541 0.76228 0.47037 0.0
H3244 H 0.67118 0.74404 0.47785 0.0
H3245 H 0.70505 0.78336 0.50188 0.0
H3246 H 0.71627 0.6907 0.52818 0.0
H3247 H 0.70206 0.7178 0.51971 0.0
H3248 H 0.67949 0.68503 0.4955 0.0
C3249 C 0.66391 0.75652 0.48097 0.0
C3250 C 0.69916 0.76185 0.50045 0.0
C3251 C 0.64942 0.7671 0.47667 0.0
C3252 C 0.71869 0.69032 0.52177 0.0
C3253 C 0.71069 0.7059 0.51694 0.0
C3254 C 0.68544 0.70661 0.49689 0.0
C3255 C 0.66848 0.76157 0.48922 0.0
C3256 C 0.68127 0.74787 0.49396 0.0
C3257 C 0.71295 0.70535 0.5086 0.0
C3258 C 0.70282 0.72039 0.50345 0.0
H3259 H 0.63747 0.80171 0.49168 0.0
H3260 H 0.66211 0.78261 0.49932 0.0
H3261 H 0.66049 0.70844 0.4874 0.0
H3262 H 0.74158 0.66291 0.50727 0.0
H3263 H 0.72664 0.68931 0.4988 0.0
C3264 C 0.20507 0.87485 0.4826 0.0
C3265 C 0.21833 0.85863 0.48227 0.0
C3266 C 0.21422 0.89712 0.48804 0.0
C3267 C 0.25863 0.92655 0.5063 0.0
H3268 H 0.26229 0.99608 0.49967 0.0
C3269 C 0.33238 0.03482 0.52032 0.0
C3270 C 0.31977 0.05031 0.52286 0.0
C3271 C 0.31699 0.01025 0.51587 0.0
C3272 C 0.26107 0.97665 0.50161 0.0
H3273 H 0.25099 0.85239 0.48746 0.0
H3274 H 0.26801 0.8919 0.49656 0.0
H3275 H 0.24079 0.95514 0.49085 0.0
H3276 H 0.2814 0.0525 0.52286 0.0
H3277 H 0.25455 0.00968 0.51481 0.0
H3278 H 0.28035 0.94875 0.51687 0.0
C3279 C 0.25011 0.88726 0.49282 0.0
C3280 C 0.24865 0.95314 0.49659 0.0
C3281 C 0.24071 0.86488 0.48748 0.0
C3282 C 0.29149 0.04081 0.52094 0.0
C3283 C 0.27624 0.01651 0.51634 0.0
C3284 C 0.27147 0.95017 0.51123 0.0
C3285 C 0.23699 0.90368 0.49319 0.0
C3286 C 0.24772 0.92792 0.49881 0.0
C3287 C 0.28889 0.00103 0.51379 0.0
C3288 C 0.27314 0.97549 0.50888 0.0
H3289 H 0.18779 0.87045 0.47861 0.0
H3290 H 0.2034 0.90908 0.48821 0.0
H3291 H 0.25761 0.90731 0.50832 0.0
H3292 H 0.35408 0.04163 0.52182 0.0
H3293 H 0.32717 0.99866 0.51394 0.0
C3294 C 0.94466 0.30815 0.30942 0.0
C3295 C 0.9358 0.28146 0.3127 0.0
C3296 C 0.95317 0.33152 0.31439 0.0
C3297 C 0.97991 0.35675 0.33461 0.0
H3298 H 0.96031 0.41409 0.32987 0.0
C3299 C 0.01226 0.45122 0.35551 0.0
C3300 C 0.02361 0.47756 0.35179 0.0
C3301 C 0.9985 0.42654 0.351 0.0
C3302 C 0.96611 0.39834 0.33124 0.0
H3303 H 0.9267 0.25775 0.32371 0.0
H3304 H 0.94192 0.29857 0.33239 0.0
H3305 H 0.94232 0.37234 0.32142 0.0
H3306 H 0.02905 0.49918 0.34058 0.0
H3307 H 0.00517 0.45608 0.33263 0.0
H3308 H 0.00405 0.38284 0.34434 0.0
C3309 C 0.94313 0.30165 0.32599 0.0
C3310 C 0.95582 0.37446 0.3264 0.0
C3311 C 0.93459 0.27832 0.32103 0.0
C3312 C 0.02023 0.47897 0.34355 0.0
C3313 C 0.00651 0.45432 0.33903 0.0
C3314 C 0.99022 0.38062 0.33944 0.0
C3315 C 0.95273 0.32855 0.32273 0.0
C3316 C 0.96277 0.35349 0.328 0.0
C3317 C 0.99591 0.42783 0.34269 0.0
C3318 C 0.98359 0.40178 0.33779 0.0
H3319 H 0.94543 0.31102 0.30302 0.0
H3320 H 0.96063 0.352 0.31169 0.0
H3321 H 0.986 0.34118 0.33593 0.0
H3322 H 0.01448 0.44978 0.36189 0.0
H3323 H 0.99015 0.40646 0.35402 0.0
C3324 C 0.55031 0.56013 0.35525 0.0
C3325 C 0.52348 0.5483 0.35182 0.0
C3326 C 0.57412 0.56983 0.35041 0.0
C3327 C 0.59711 0.56759 0.32963 0.0
H3328 H 0.66204 0.63883 0.33563 0.0
C3329 C 0.68738 0.63838 0.30796 0.0
C3330 C 0.71489 0.65152 0.31101 0.0
C3331 C 0.66434 0.62296 0.313 0.0
C3332 C 0.64421 0.61874 0.33393 0.0
H3333 H 0.49997 0.5367 0.34078 0.0
H3334 H 0.54154 0.55423 0.33226 0.0
H3335 H 0.62124 0.61708 0.34439 0.0
H3336 H 0.74019 0.65656 0.32147 0.0
H3337 H 0.69995 0.63024 0.33033 0.0
H3338 H 0.62 0.56994 0.31901 0.0
C3339 C 0.54438 0.55555 0.33866 0.0
C3340 C 0.62083 0.6062 0.33896 0.0
C3341 C 0.52059 0.54565 0.34352 0.0
C3342 C 0.7191 0.6477 0.31906 0.0
C3343 C 0.69613 0.63248 0.32411 0.0
C3344 C 0.62045 0.5803 0.32456 0.0
C3345 C 0.57149 0.56809 0.34204 0.0
C3346 C 0.5969 0.58054 0.33686 0.0
C3347 C 0.66851 0.62034 0.32116 0.0
C3348 C 0.64416 0.60607 0.32664 0.0
H3349 H 0.55283 0.56212 0.36167 0.0
H3350 H 0.59461 0.57888 0.35322 0.0
H3351 H 0.57922 0.54762 0.32788 0.0
H3352 H 0.68366 0.64071 0.30173 0.0
H3353 H 0.64327 0.61386 0.31056 0.0
C3354 C 0.36059 0.05337 0.3099 0.0
C3355 C 0.34328 0.06268 0.31331 0.0
C3356 C 0.37579 0.04495 0.31474 0.0
C3357 C 0.37417 0.01682 0.33457 0.0
H3358 H 0.4519 0.03832 0.33025 0.0
C3359 C 0.43369 0.98042 0.35505 0.0
C3360 C 0.45065 0.97143 0.3513 0.0
C3361 C 0.42309 0.99484 0.35073 0.0
C3362 C 0.43012 0.03191 0.33149 0.0
H3363 H 0.33032 0.07299 0.32443 0.0
H3364 H 0.35611 0.05738 0.33291 0.0
H3365 H 0.42845 0.05711 0.32196 0.0
H3366 H 0.47059 0.97072 0.34025 0.0
H3367 H 0.45152 0.99529 0.33256 0.0
H3368 H 0.37528 0.99091 0.3439 0.0
C3369 C 0.35737 0.05595 0.32649 0.0
C3370 C 0.41675 0.04273 0.32676 0.0
C3371 C 0.3424 0.0646 0.32164 0.0
C3372 C 0.45761 0.97768 0.34323 0.0
C3373 C 0.44679 0.99185 0.33887 0.0
C3374 C 0.3874 0.00578 0.33925 0.0
C3375 C 0.37398 0.04578 0.32309 0.0
C3376 C 0.38862 0.03519 0.32824 0.0
C3377 C 0.42901 0.00021 0.34254 0.0
C3378 C 0.41551 0.01309 0.33776 0.0
H3379 H 0.36193 0.05208 0.30348 0.0
H3380 H 0.38837 0.03711 0.31197 0.0
H3381 H 0.35234 0.01034 0.33577 0.0
H3382 H 0.42828 0.97586 0.3613 0.0
H3383 H 0.40998 0.00148 0.35378 0.0
C3384 C 0.92857 0.1434 0.27162 0.0
C3385 C 0.92434 0.16265 0.2761 0.0
C3386 C 0.94491 0.15203 0.26469 0.0
C3387 C 0.00162 0.21704 0.2554 0.0
H3388 H 0.98956 0.16724 0.23757 0.0
C3389 C 0.06368 0.25116 0.22557 0.0
C3390 C 0.07126 0.23242 0.22217 0.0
C3391 C 0.04736 0.24386 0.2325 0.0
C3392 C 0.99333 0.18126 0.24256 0.0
H3393 H 0.93203 0.20549 0.27644 0.0
H3394 H 0.95965 0.22027 0.26419 0.0
H3395 H 0.95487 0.15172 0.24827 0.0
H3396 H 0.06914 0.19207 0.22369 0.0
H3397 H 0.04059 0.17938 0.23578 0.0
H3398 H 0.03986 0.24677 0.24954 0.0
C3399 C 0.95121 0.19874 0.26619 0.0
C3400 C 0.97344 0.1724 0.24869 0.0
C3401 C 0.9351 0.19018 0.27317 0.0
C3402 C 0.06369 0.20701 0.22614 0.0
C3403 C 0.0471 0.19959 0.23302 0.0
C3404 C 0.02135 0.22601 0.24922 0.0
C3405 C 0.95715 0.18005 0.26202 0.0
C3406 C 0.9774 0.19008 0.25523 0.0
C3407 C 0.03809 0.21757 0.23613 0.0
C3408 C 0.01751 0.20811 0.24277 0.0
H3409 H 0.92072 0.12206 0.27371 0.0
H3410 H 0.94915 0.13706 0.26168 0.0
H3411 H 0.00571 0.23104 0.26041 0.0
H3412 H 0.06923 0.27093 0.22267 0.0
H3413 H 0.04073 0.25812 0.23477 0.0
C3414 C 0.75048 0.81498 0.22522 0.0
C3415 C 0.76739 0.84176 0.22182 0.0
C3416 C 0.75863 0.80753 0.23228 0.0
C3417 C 0.77589 0.8007 0.24902 0.0
H3418 H 0.85404 0.81908 0.2495 0.0
C3419 C 0.81409 0.75168 0.27253 0.0
C3420 C 0.83939 0.77016 0.27645 0.0
C3421 C 0.80641 0.75991 0.26553 0.0
C3422 C 0.83224 0.81399 0.2495 0.0
H3423 H 0.80522 0.88233 0.22348 0.0
H3424 H 0.81931 0.86929 0.23584 0.0
H3425 H 0.83733 0.83644 0.23861 0.0
H3426 H 0.87741 0.81104 0.27575 0.0
H3427 H 0.86388 0.82549 0.26358 0.0
H3428 H 0.77074 0.77841 0.25991 0.0
C3429 C 0.79995 0.85397 0.23296 0.0
C3430 C 0.82268 0.82403 0.24328 0.0
C3431 C 0.7917 0.86152 0.22592 0.0
C3432 C 0.85779 0.79625 0.27288 0.0
C3433 C 0.85001 0.80456 0.2659 0.0
C3434 C 0.78545 0.79077 0.25526 0.0
C3435 C 0.78393 0.82664 0.23608 0.0
C3436 C 0.79437 0.81738 0.24295 0.0
C3437 C 0.82377 0.78687 0.2623 0.0
C3438 C 0.8137 0.79713 0.25555 0.0
H3439 H 0.73158 0.79927 0.22224 0.0
H3440 H 0.74585 0.78628 0.23453 0.0
H3441 H 0.75404 0.79547 0.24897 0.0
H3442 H 0.79955 0.7313 0.27507 0.0
H3443 H 0.78641 0.74546 0.26279 0.0
C3444 C 0.19325 0.95211 0.22224 0.0
C3445 C 0.16484 0.93187 0.22093 0.0
C3446 C 0.20157 0.96787 0.22924 0.0
C3447 C 0.17296 0.99036 0.24596 0.0
H3448 H 0.24781 0.01725 0.25452 0.0
C3449 C 0.21641 0.07177 0.27153 0.0
C3450 C 0.23244 0.06783 0.27739 0.0
C3451 C 0.20944 0.05636 0.26442 0.0
C3452 C 0.22671 0.00975 0.25228 0.0
H3453 H 0.12307 0.9114 0.22616 0.0
H3454 H 0.13782 0.93812 0.2386 0.0
H3455 H 0.23186 0.98506 0.24333 0.0
H3456 H 0.25433 0.04509 0.28026 0.0
H3457 H 0.2415 0.01782 0.26812 0.0
H3458 H 0.16731 0.01388 0.25522 0.0
C3459 C 0.15354 0.94246 0.23407 0.0
C3460 C 0.21766 0.99152 0.24576 0.0
C3461 C 0.1451 0.9269 0.22697 0.0
C3462 C 0.24211 0.04887 0.27587 0.0
C3463 C 0.23482 0.03323 0.26884 0.0
C3464 C 0.18184 0.00823 0.25258 0.0
C3465 C 0.18182 0.96354 0.23522 0.0
C3466 C 0.19075 0.98171 0.24246 0.0
C3467 C 0.21806 0.03643 0.26306 0.0
C3468 C 0.20888 0.01823 0.25583 0.0
H3469 H 0.20907 0.95671 0.21771 0.0
H3470 H 0.22341 0.98419 0.22981 0.0
H3471 H 0.15227 0.98365 0.24352 0.0
H3472 H 0.20871 0.08629 0.27251 0.0
H3473 H 0.19701 0.05985 0.26003 0.0
C3474 C 0.92813 0.77912 0.77155 0.0
C3475 C 0.93269 0.76457 0.77775 0.0
C3476 C 0.94419 0.78598 0.76456 0.0
C3477 C 0.0136 0.8037 0.75772 0.0
H3478 H 0.98191 0.78491 0.73643 0.0
C3479 C 0.07441 0.85133 0.72792 0.0
C3480 C 0.07043 0.83134 0.72205 0.0
C3481 C 0.05903 0.84288 0.73505 0.0
C3482 C 0.99097 0.79026 0.74235 0.0
H3483 H 0.95711 0.74508 0.78134 0.0
H3484 H 0.98532 0.75759 0.76922 0.0
H3485 H 0.95045 0.77004 0.74804 0.0
H3486 H 0.0481 0.78663 0.71925 0.0
H3487 H 0.02107 0.7722 0.73159 0.0
H3488 H 0.05411 0.82443 0.75203 0.0
C3489 C 0.96929 0.76354 0.76978 0.0
C3490 C 0.97303 0.7819 0.74896 0.0
C3491 C 0.95294 0.75621 0.77669 0.0
C3492 C 0.05176 0.80265 0.72363 0.0
C3493 C 0.03609 0.79432 0.73066 0.0
C3494 C 0.03153 0.81258 0.75111 0.0
C3495 C 0.96539 0.77888 0.76372 0.0
C3496 C 0.98421 0.78832 0.7567 0.0
C3497 C 0.03912 0.8144 0.73634 0.0
C3498 C 0.02035 0.80568 0.74338 0.0
H3499 H 0.91272 0.78585 0.77219 0.0
H3500 H 0.94083 0.7978 0.75994 0.0
H3501 H 0.02265 0.80904 0.76365 0.0
H3502 H 0.08861 0.87357 0.7269 0.0
H3503 H 0.06172 0.85872 0.73937 0.0
C3504 C 0.20531 0.13969 0.77151 0.0
C3505 C 0.23087 0.15807 0.77532 0.0
C3506 C 0.19727 0.14808 0.76459 0.0
C3507 C 0.21046 0.21348 0.75448 0.0
H3508 H 0.16574 0.1625 0.73756 0.0
C3509 C 0.18408 0.24891 0.72473 0.0
C3510 C 0.1571 0.23166 0.72149 0.0
C3511 C 0.19233 0.24089 0.73168 0.0
C3512 C 0.17792 0.17689 0.7423 0.0
H3513 H 0.26912 0.1987 0.77447 0.0
H3514 H 0.25552 0.21293 0.76228 0.0
H3515 H 0.18362 0.14557 0.74825 0.0
H3516 H 0.11699 0.19342 0.72333 0.0
H3517 H 0.13144 0.17958 0.73547 0.0
H3518 H 0.20505 0.24489 0.74843 0.0
C3519 C 0.24121 0.19243 0.76478 0.0
C3520 C 0.18824 0.16721 0.74841 0.0
C3521 C 0.24915 0.18414 0.77173 0.0
C3522 C 0.13794 0.2072 0.72565 0.0
C3523 C 0.14629 0.19908 0.73255 0.0
C3524 C 0.20031 0.2232 0.74833 0.0
C3525 C 0.21473 0.17494 0.76129 0.0
C3526 C 0.20462 0.18538 0.75459 0.0
C3527 C 0.17383 0.2154 0.7355 0.0
C3528 C 0.18387 0.20499 0.74219 0.0
H3529 H 0.19067 0.11951 0.77413 0.0
H3530 H 0.17668 0.13409 0.76209 0.0
H3531 H 0.22246 0.22792 0.75922 0.0
H3532 H 0.19934 0.26793 0.7217 0.0
H3533 H 0.2137 0.2539 0.73381 0.0
C3534 C 0.86375 0.07228 0.77035 0.0
C3535 C 0.84516 0.07886 0.7743 0.0
C3536 C 0.85485 0.05476 0.76365 0.0
C3537 C 0.78878 0.99904 0.75467 0.0
H3538 H 0.83746 0.00474 0.73713 0.0
C3539 C 0.74994 0.93419 0.72557 0.0
C3540 C 0.76705 0.92464 0.72213 0.0
C3541 C 0.75873 0.95099 0.7324 0.0
C3542 C 0.82375 0.00269 0.74205 0.0
H3543 H 0.80355 0.07438 0.7739 0.0
H3544 H 0.78841 0.04474 0.76205 0.0
H3545 H 0.85513 0.04112 0.7474 0.0
H3546 H 0.80596 0.92371 0.72348 0.0
H3547 H 0.82126 0.95308 0.73542 0.0
H3548 H 0.75725 0.96085 0.74921 0.0
C3549 C 0.8095 0.05218 0.7643 0.0
C3550 C 0.83384 0.02358 0.74793 0.0
C3551 C 0.81829 0.06944 0.77104 0.0
C3552 C 0.79226 0.93069 0.72597 0.0
C3553 C 0.80119 0.94776 0.73277 0.0
C3554 C 0.77864 0.9783 0.74876 0.0
C3555 C 0.82727 0.04371 0.76071 0.0
C3556 C 0.81646 0.02204 0.7543 0.0
C3557 C 0.78491 0.95876 0.7359 0.0
C3558 C 0.79602 0.97991 0.7424 0.0
H3559 H 0.88455 0.07906 0.77273 0.0
H3560 H 0.86909 0.04863 0.76106 0.0
H3561 H 0.775 0.99678 0.75959 0.0
H3562 H 0.73035 0.92982 0.72277 0.0
H3563 H 0.74575 0.95919 0.73468 0.0
C3564 C 0.61248 0.52267 0.6076 0.0
C3565 C 0.59451 0.49433 0.60974 0.0
C3566 C 0.62808 0.52955 0.60056 0.0
C3567 C 0.63276 0.50733 0.5807 0.0
H3568 H 0.71378 0.55344 0.58341 0.0
C3569 C 0.70928 0.56598 0.55491 0.0
C3570 C 0.73114 0.55988 0.55381 0.0
C3571 C 0.69283 0.55731 0.5618 0.0
C3572 C 0.69123 0.54047 0.58259 0.0
H3573 H 0.57753 0.45106 0.60585 0.0
H3574 H 0.60427 0.46334 0.59333 0.0
H3575 H 0.68282 0.539 0.59512 0.0
H3576 H 0.75361 0.54097 0.55927 0.0
H3577 H 0.72527 0.5267 0.57152 0.0
H3578 H 0.64112 0.50961 0.56814 0.0
C3579 C 0.60649 0.48005 0.59725 0.0
C3580 C 0.67357 0.53235 0.58926 0.0
C3581 C 0.59118 0.47307 0.6044 0.0
C3582 C 0.73696 0.54599 0.55994 0.0
C3583 C 0.72076 0.5378 0.56693 0.0
C3584 C 0.65039 0.51595 0.57402 0.0
C3585 C 0.62568 0.50831 0.59542 0.0
C3586 C 0.6442 0.51585 0.58836 0.0
C3587 C 0.69817 0.54284 0.56781 0.0
C3588 C 0.67975 0.5327 0.57491 0.0
H3589 H 0.61562 0.53964 0.61155 0.0
H3590 H 0.6425 0.55151 0.59921 0.0
H3591 H 0.61019 0.49465 0.57988 0.0
H3592 H 0.70409 0.57652 0.55032 0.0
H3593 H 0.67572 0.56171 0.56241 0.0
C3594 C 0.48454 0.08491 0.60601 0.0
C3595 C 0.51084 0.10207 0.60964 0.0
C3596 C 0.47728 0.09349 0.599 0.0
C3597 C 0.49255 0.1582 0.58859 0.0
H3598 H 0.44956 0.1076 0.57141 0.0
C3599 C 0.46418 0.19503 0.55938 0.0
C3600 C 0.43842 0.1764 0.5557 0.0
C3601 C 0.47285 0.18687 0.56623 0.0
C3602 C 0.46119 0.12192 0.57622 0.0
H3603 H 0.55085 0.14089 0.60843 0.0
H3604 H 0.53816 0.15574 0.59615 0.0
H3605 H 0.4668 0.09062 0.58223 0.0
H3606 H 0.40051 0.13555 0.5567 0.0
H3607 H 0.41525 0.1217 0.56874 0.0
H3608 H 0.48663 0.18941 0.58264 0.0
C3609 C 0.52305 0.13584 0.59882 0.0
C3610 C 0.47122 0.1122 0.58239 0.0
C3611 C 0.5304 0.12716 0.60581 0.0
C3612 C 0.42063 0.15029 0.55934 0.0
C3613 C 0.42921 0.14223 0.5662 0.0
C3614 C 0.4824 0.1679 0.58243 0.0
C3615 C 0.49612 0.11947 0.59547 0.0
C3616 C 0.48691 0.1302 0.58866 0.0
C3617 C 0.45584 0.15999 0.56956 0.0
C3618 C 0.46645 0.14981 0.57619 0.0
H3619 H 0.46899 0.06542 0.60879 0.0
H3620 H 0.45634 0.08044 0.59658 0.0
H3621 H 0.50419 0.17244 0.59342 0.0
H3622 H 0.47845 0.21526 0.55672 0.0
H3623 H 0.49352 0.20107 0.56865 0.0
C3624 C 0.91164 0.39473 0.60553 0.0
C3625 C 0.89431 0.40379 0.6091 0.0
C3626 C 0.90287 0.37812 0.59866 0.0
C3627 C 0.83792 0.32646 0.58884 0.0
H3628 H 0.8874 0.33358 0.57137 0.0
C3629 C 0.79954 0.25853 0.56015 0.0
C3630 C 0.81837 0.25207 0.55628 0.0
C3631 C 0.80799 0.2757 0.56693 0.0
C3632 C 0.87341 0.331 0.57627 0.0
H3633 H 0.85497 0.40399 0.60795 0.0
H3634 H 0.83976 0.37504 0.59591 0.0
H3635 H 0.90463 0.36892 0.5819 0.0
H3636 H 0.8599 0.25643 0.55691 0.0
H3637 H 0.87426 0.28553 0.56886 0.0
H3638 H 0.80682 0.28833 0.58328 0.0
C3639 C 0.85996 0.38055 0.59851 0.0
C3640 C 0.88326 0.3514 0.58227 0.0
C3641 C 0.86884 0.39738 0.60535 0.0
C3642 C 0.84499 0.26127 0.5597 0.0
C3643 C 0.85333 0.27821 0.5665 0.0
C3644 C 0.82811 0.30595 0.58286 0.0
C3645 C 0.87652 0.37008 0.59523 0.0
C3646 C 0.86565 0.34933 0.58862 0.0
C3647 C 0.83535 0.28655 0.57002 0.0
C3648 C 0.84578 0.30791 0.57651 0.0
H3649 H 0.93142 0.39935 0.60825 0.0
H3650 H 0.91608 0.37034 0.59628 0.0
H3651 H 0.82401 0.32405 0.59374 0.0
H3652 H 0.77892 0.2519 0.55766 0.0
H3653 H 0.7936 0.28172 0.56947 0.0
C3654 C 0.72971 0.19192 0.05795 0.0
C3655 C 0.73588 0.17297 0.05403 0.0
C3656 C 0.71323 0.18378 0.06486 0.0
C3657 C 0.65934 0.11905 0.07485 0.0
H3658 H 0.66969 0.16958 0.09234 0.0
C3659 C 0.60122 0.08285 0.10503 0.0
C3660 C 0.59305 0.10053 0.10882 0.0
C3661 C 0.61644 0.0911 0.0979 0.0
C3662 C 0.66631 0.15535 0.08744 0.0
H3663 H 0.73151 0.13143 0.05466 0.0
H3664 H 0.70354 0.11758 0.06683 0.0
H3665 H 0.70341 0.18602 0.08135 0.0
H3666 H 0.59287 0.13992 0.1078 0.0
H3667 H 0.61936 0.1542 0.09534 0.0
H3668 H 0.62247 0.08826 0.08101 0.0
C3669 C 0.7106 0.13839 0.06442 0.0
C3670 C 0.68568 0.16474 0.08116 0.0
C3671 C 0.72689 0.14644 0.05748 0.0
C3672 C 0.59886 0.1258 0.10505 0.0
C3673 C 0.61428 0.13414 0.09795 0.0
C3674 C 0.64008 0.10963 0.08114 0.0
C3675 C 0.70276 0.15659 0.06803 0.0
C3676 C 0.6825 0.14666 0.0748 0.0
C3677 C 0.62394 0.11725 0.09444 0.0
C3678 C 0.64339 0.12765 0.08751 0.0
H3679 H 0.73619 0.21248 0.05543 0.0
H3680 H 0.70753 0.19831 0.06747 0.0
H3681 H 0.65585 0.10475 0.06996 0.0
H3682 H 0.59702 0.0632 0.10775 0.0
H3683 H 0.62364 0.07765 0.09534 0.0
C3684 C 0.81162 0.55275 0.0609 0.0
C3685 C 0.83091 0.56614 0.05465 0.0
C3686 C 0.81996 0.54472 0.06784 0.0
C3687 C 0.86798 0.52177 0.07447 0.0
H3688 H 0.85895 0.54352 0.09579 0.0
C3689 C 0.88241 0.4754 0.10445 0.0
C3690 C 0.90049 0.49604 0.10991 0.0
C3691 C 0.87454 0.48326 0.09738 0.0
C3692 C 0.86147 0.53725 0.08986 0.0
H3693 H 0.87433 0.58241 0.05092 0.0
H3694 H 0.88851 0.56793 0.06296 0.0
H3695 H 0.84309 0.55946 0.08427 0.0
H3696 H 0.92554 0.54117 0.112 0.0
H3697 H 0.91133 0.55454 0.09979 0.0
H3698 H 0.88607 0.49928 0.08009 0.0
C3699 C 0.86704 0.56373 0.06247 0.0
C3700 C 0.85233 0.54624 0.0833 0.0
C3701 C 0.85891 0.57222 0.05562 0.0
C3702 C 0.91152 0.52464 0.10796 0.0
C3703 C 0.90328 0.53239 0.10099 0.0
C3704 C 0.8766 0.51229 0.08105 0.0
C3705 C 0.84753 0.54948 0.06857 0.0
C3706 C 0.85588 0.5389 0.07555 0.0
C3707 C 0.88427 0.51179 0.09574 0.0
C3708 C 0.87377 0.52031 0.08878 0.0
H3709 H 0.78992 0.54776 0.06033 0.0
H3710 H 0.80459 0.53381 0.0725 0.0
H3711 H 0.87072 0.5157 0.06853 0.0
H3712 H 0.87357 0.45322 0.10576 0.0
H3713 H 0.8599 0.46704 0.09337 0.0
C3714 C 0.46238 0.26857 0.05932 0.0
C3715 C 0.43623 0.26123 0.05585 0.0
C3716 C 0.47124 0.28482 0.06627 0.0
C3717 C 0.4596 0.33704 0.07679 0.0
H3718 H 0.50336 0.32902 0.09367 0.0
C3719 C 0.48359 0.39648 0.1067 0.0
C3720 C 0.50963 0.40493 0.11041 0.0
C3721 C 0.47642 0.38107 0.09962 0.0
C3722 C 0.49154 0.3318 0.08894 0.0
H3723 H 0.39784 0.26304 0.05737 0.0
H3724 H 0.41303 0.29076 0.06957 0.0
H3725 H 0.48554 0.29495 0.08278 0.0
H3726 H 0.54935 0.40547 0.10926 0.0
H3727 H 0.53687 0.3788 0.09682 0.0
H3728 H 0.46544 0.37375 0.08296 0.0
C3729 C 0.42706 0.28472 0.06679 0.0
C3730 C 0.48122 0.31219 0.08272 0.0
C3731 C 0.41824 0.26858 0.05983 0.0
C3732 C 0.52909 0.39926 0.10658 0.0
C3733 C 0.52184 0.38371 0.0995 0.0
C3734 C 0.46989 0.3566 0.083 0.0
C3735 C 0.45407 0.29393 0.06991 0.0
C3736 C 0.46493 0.31446 0.0766 0.0
C3737 C 0.49509 0.37371 0.09608 0.0
C3738 C 0.48584 0.35412 0.08917 0.0
H3739 H 0.4768 0.26331 0.05641 0.0
H3740 H 0.49217 0.29155 0.06853 0.0
H3741 H 0.44771 0.33982 0.07207 0.0
H3742 H 0.46812 0.40055 0.10947 0.0
H3743 H 0.45561 0.37362 0.09715 0.0
C3744 C 0.26248 0.81712 0.93679 0.0
C3745 C 0.26707 0.83578 0.94311 0.0
C3746 C 0.27928 0.82654 0.92992 0.0
C3747 C 0.34988 0.87862 0.92364 0.0
H3748 H 0.31982 0.86574 0.90215 0.0
C3749 C 0.41426 0.89391 0.89452 0.0
C3750 C 0.4096 0.90846 0.88833 0.0
C3751 C 0.39826 0.88696 0.90153 0.0
C3752 C 0.32846 0.86951 0.90813 0.0
H3753 H 0.29234 0.87924 0.94704 0.0
H3754 H 0.32167 0.89531 0.93516 0.0
H3755 H 0.28751 0.84867 0.91355 0.0
H3756 H 0.38551 0.92846 0.88489 0.0
H3757 H 0.35754 0.91596 0.89704 0.0
H3758 H 0.39084 0.89906 0.91821 0.0
C3759 C 0.30515 0.87346 0.93553 0.0
C3760 C 0.31001 0.85959 0.91462 0.0
C3761 C 0.28815 0.86422 0.9423 0.0
C3762 C 0.38968 0.91719 0.8895 0.0
C3763 C 0.37346 0.90987 0.89643 0.0
C3764 C 0.36833 0.88808 0.91714 0.0
C3765 C 0.30119 0.85464 0.92934 0.0
C3766 C 0.32057 0.86429 0.92243 0.0
C3767 C 0.3771 0.8941 0.90241 0.0
C3768 C 0.35777 0.88384 0.90933 0.0
H3769 H 0.24644 0.79511 0.93722 0.0
H3770 H 0.27584 0.81165 0.92521 0.0
H3771 H 0.35851 0.88229 0.92961 0.0
H3772 H 0.42944 0.8869 0.89382 0.0
H3773 H 0.40147 0.87482 0.90608 0.0
C3774 C 0.12654 0.52333 0.8936 0.0
C3775 C 0.10147 0.5043 0.88967 0.0
C3776 C 0.13566 0.51483 0.90027 0.0
C3777 C 0.12692 0.44975 0.90963 0.0
H3778 H 0.16809 0.49988 0.9271 0.0
C3779 C 0.15193 0.41428 0.93954 0.0
C3780 C 0.17815 0.4322 0.94311 0.0
C3781 C 0.14429 0.42204 0.93244 0.0
C3782 C 0.15696 0.48578 0.9222 0.0
H3783 H 0.06525 0.46209 0.89006 0.0
H3784 H 0.08063 0.44761 0.90186 0.0
H3785 H 0.14926 0.5162 0.91651 0.0
H3786 H 0.21773 0.47134 0.94171 0.0
H3787 H 0.20429 0.48484 0.92931 0.0
H3788 H 0.13411 0.41911 0.91547 0.0
C3789 C 0.09378 0.46879 0.89961 0.0
C3790 C 0.14611 0.4951 0.91614 0.0
C3791 C 0.0848 0.4772 0.89289 0.0
C3792 C 0.19737 0.45705 0.93912 0.0
C3793 C 0.18959 0.46494 0.93207 0.0
C3794 C 0.13756 0.44035 0.91573 0.0
C3795 C 0.11977 0.48719 0.90323 0.0
C3796 C 0.13089 0.47719 0.90978 0.0
C3797 C 0.16262 0.44797 0.92881 0.0
C3798 C 0.15269 0.45827 0.92208 0.0
H3799 H 0.13998 0.54431 0.89125 0.0
H3800 H 0.15585 0.52954 0.90287 0.0
H3801 H 0.11586 0.43557 0.90475 0.0
H3802 H 0.13669 0.39493 0.94244 0.0
H3803 H 0.12336 0.40854 0.93007 0.0
C3804 C 0.57977 0.72754 0.93856 0.0
C3805 C 0.56268 0.73689 0.94214 0.0
C3806 C 0.57089 0.71105 0.93167 0.0
C3807 C 0.50567 0.66075 0.92156 0.0
H3808 H 0.55571 0.66702 0.90435 0.0
C3809 C 0.46792 0.5955 0.89238 0.0
C3810 C 0.48632 0.58814 0.88865 0.0
C3811 C 0.47622 0.61202 0.89929 0.0
C3812 C 0.54155 0.66469 0.90917 0.0
H3813 H 0.52366 0.73773 0.94095 0.0
H3814 H 0.50833 0.70912 0.92887 0.0
H3815 H 0.57316 0.70184 0.91501 0.0
H3816 H 0.52674 0.59012 0.88966 0.0
H3817 H 0.54082 0.61821 0.9018 0.0
H3818 H 0.4741 0.62346 0.91574 0.0
C3819 C 0.52839 0.71421 0.9315 0.0
C3820 C 0.55153 0.68477 0.91525 0.0
C3821 C 0.53734 0.73086 0.93837 0.0
C3822 C 0.51218 0.59569 0.89233 0.0
C3823 C 0.52039 0.61205 0.89925 0.0
C3824 C 0.49569 0.64059 0.91548 0.0
C3825 C 0.54469 0.70346 0.92821 0.0
C3826 C 0.53373 0.683 0.92152 0.0
C3827 C 0.50299 0.62135 0.90263 0.0
C3828 C 0.51355 0.64225 0.90923 0.0
H3829 H 0.59944 0.73185 0.94129 0.0
H3830 H 0.58391 0.70305 0.9293 0.0
H3831 H 0.49156 0.65854 0.92638 0.0
H3832 H 0.44787 0.59011 0.8897 0.0
H3833 H 0.46229 0.61882 0.90173 0.0
C3834 C 0.3878 0.47466 0.39157 0.0
C3835 C 0.40637 0.50337 0.38996 0.0
C3836 C 0.37174 0.46639 0.39853 0.0
C3837 C 0.36545 0.48424 0.41882 0.0
H3838 H 0.28468 0.44095 0.4152 0.0
C3839 C 0.28508 0.4247 0.44376 0.0
C3840 C 0.26421 0.43226 0.44475 0.0
C3841 C 0.3021 0.43302 0.43698 0.0
C3842 C 0.30716 0.45305 0.41627 0.0
H3843 H 0.42403 0.54568 0.39472 0.0
H3844 H 0.39635 0.5309 0.40708 0.0
H3845 H 0.31709 0.45697 0.40381 0.0
H3846 H 0.24385 0.45313 0.43917 0.0
H3847 H 0.27313 0.46679 0.42713 0.0
H3848 H 0.35551 0.47967 0.4313 0.0
C3849 C 0.39407 0.51503 0.40282 0.0
C3850 C 0.32565 0.46209 0.40979 0.0
C3851 C 0.4099 0.52344 0.39576 0.0
C3852 C 0.25972 0.44698 0.43859 0.0
C3853 C 0.27646 0.45484 0.43171 0.0
C3854 C 0.34696 0.47469 0.42531 0.0
C3855 C 0.37423 0.48652 0.40411 0.0
C3856 C 0.35492 0.47769 0.41101 0.0
C3857 C 0.29827 0.44858 0.43097 0.0
C3858 C 0.31769 0.45899 0.42408 0.0
H3859 H 0.38457 0.45854 0.38728 0.0
H3860 H 0.35683 0.44425 0.39947 0.0
H3861 H 0.38794 0.49621 0.41988 0.0
H3862 H 0.28923 0.41347 0.44839 0.0
H3863 H 0.31859 0.42767 0.43647 0.0
C3864 C 0.46989 0.86901 0.3927 0.0
C3865 C 0.48896 0.89496 0.38918 0.0
C3866 C 0.47737 0.85984 0.39958 0.0
C3867 C 0.54137 0.86957 0.40951 0.0
H3868 H 0.4909 0.82732 0.42681 0.0
C3869 C 0.53534 0.80067 0.43935 0.0
C3870 C 0.56115 0.81985 0.44292 0.0
C3871 C 0.52659 0.80782 0.43233 0.0
C3872 C 0.50511 0.83869 0.42195 0.0
H3873 H 0.52972 0.93279 0.39056 0.0
H3874 H 0.54242 0.91703 0.40262 0.0
H3875 H 0.47434 0.8457 0.41613 0.0
H3876 H 0.59897 0.86063 0.44156 0.0
H3877 H 0.58377 0.87297 0.42936 0.0
H3878 H 0.57216 0.86271 0.41533 0.0
C3879 C 0.52206 0.9034 0.39993 0.0
C3880 C 0.49566 0.84935 0.41586 0.0
C3881 C 0.51464 0.91253 0.39306 0.0
C3882 C 0.5789 0.84539 0.43899 0.0
C3883 C 0.57021 0.85246 0.43197 0.0
C3884 C 0.5508 0.85892 0.41559 0.0
C3885 C 0.504 0.87649 0.40308 0.0
C3886 C 0.51378 0.86515 0.40961 0.0
C3887 C 0.54356 0.83417 0.42871 0.0
C3888 C 0.53287 0.84355 0.42192 0.0
H3889 H 0.44994 0.85492 0.38988 0.0
H3890 H 0.46295 0.83902 0.40187 0.0
H3891 H 0.55566 0.88106 0.40468 0.0
H3892 H 0.52115 0.7808 0.4422 0.0
H3893 H 0.50616 0.79306 0.42987 0.0
C3894 C 0.14709 0.73929 0.4386 0.0
C3895 C 0.17445 0.74951 0.4416 0.0
C3896 C 0.13853 0.72332 0.4316 0.0
C3897 C 0.16433 0.70005 0.4142 0.0
H3898 H 0.08952 0.63431 0.41523 0.0
C3899 C 0.12763 0.60861 0.39187 0.0
C3900 C 0.1019 0.60083 0.38807 0.0
C3901 C 0.13577 0.62582 0.39863 0.0
C3902 C 0.1104 0.65264 0.41485 0.0
H3903 H 0.21483 0.75252 0.4393 0.0
H3904 H 0.19981 0.72433 0.42722 0.0
H3905 H 0.10578 0.66878 0.42599 0.0
H3906 H 0.06368 0.60336 0.38871 0.0
H3907 H 0.07772 0.63294 0.4006 0.0
H3908 H 0.16905 0.6834 0.40312 0.0
C3909 C 0.18497 0.72885 0.4302 0.0
C3910 C 0.11968 0.67256 0.42098 0.0
C3911 C 0.19363 0.74506 0.43715 0.0
C3912 C 0.08367 0.60904 0.39149 0.0
C3913 C 0.09168 0.62597 0.3983 0.0
C3914 C 0.15514 0.67997 0.40812 0.0
C3915 C 0.15704 0.71698 0.42748 0.0
C3916 C 0.14678 0.69654 0.42074 0.0
C3917 C 0.11819 0.63526 0.40179 0.0
C3918 C 0.12811 0.65605 0.40838 0.0
H3919 H 0.13187 0.74257 0.44184 0.0
H3920 H 0.1171 0.71521 0.42956 0.0
H3921 H 0.18515 0.71841 0.41375 0.0
H3922 H 0.1422 0.60272 0.38939 0.0
H3923 H 0.15615 0.63235 0.40128 0.0
loop_
_geom_bond_atom_site_label_1
_geom_bond_atom_site_label_2
_geom_bond_distance
_geom_bond_site_symmetry_2
_ccdc_geom_bond_type
Co0 O3 1.970 . S
Co0 N17 1.989 . S
Co0 O25 1.967 . S
Co0 O32 1.920 . S
Co1 O4 1.966 . S
Co1 N10 2.022 . S
Co1 N18 1.993 . S
Co1 O26 1.941 . S
C2 O3 1.258 . S
C2 O4 1.263 . S
O3 Co0 1.970 . S
O3 C2 1.258 . S
O4 Co1 1.966 . S
O4 C2 1.263 . S
C5 O6 1.235 . S
C5 O32 1.289 . S
O6 C5 1.235 . S
C7 C9 1.400 . S
C7 N10 1.351 . S
C7 C12 1.501 . S
C8 C9 1.387 . S
C8 N11 1.341 . S
C9 C7 1.400 . S
C9 C8 1.387 . S
N10 Co1 2.022 . S
N10 C7 1.351 . S
N10 N11 1.365 . S
N11 C8 1.341 . S
N11 N10 1.365 . S
N11 H31 0.862 . S
C12 C7 1.501 . S
C12 H13 0.961 . S
C12 H14 0.961 . S
C12 H15 0.960 . S
H13 C12 0.961 . S
H14 C12 0.961 . S
H15 C12 0.960 . S
C16 N17 1.342 . S
C16 C20 1.401 . S
C16 C21 1.499 . S
N17 Co0 1.989 . S
N17 C16 1.342 . S
N17 N18 1.388 . S
N18 Co1 1.993 . S
N18 N17 1.388 . S
N18 C19 1.346 . S
C19 N18 1.346 . S
C19 C20 1.396 . S
C19 C29 1.510 . S
C20 C16 1.401 . S
C20 C19 1.396 . S
C21 C16 1.499 . S
C21 H22 0.959 . S
C21 H23 0.960 . S
C21 H24 0.961 . S
H22 C21 0.959 . S
H23 C21 0.960 . S
H24 C21 0.961 . S
O25 Co0 1.967 . S
O25 C33 1.258 . S
O26 Co1 1.941 . S
O26 C33 1.266 . S
H27 C29 0.959 . S
H28 C29 0.961 . S
C29 C19 1.510 . S
C29 H27 0.959 . S
C29 H28 0.961 . S
C29 H30 0.960 . S
H30 C29 0.960 . S
H31 N11 0.862 . S
O32 Co0 1.920 . S
O32 C5 1.289 . S
C33 O25 1.258 . S
C33 O26 1.266 . S
Co34 O37 1.970 . S
Co34 N51 1.989 . S
Co34 O59 1.967 . S
Co34 O66 1.920 . S
Co35 O38 1.966 . S
Co35 N44 2.022 . S
Co35 N52 1.993 . S
Co35 O60 1.941 . S
C36 O37 1.258 . S
C36 O38 1.263 . S
O37 Co34 1.970 . S
O37 C36 1.258 . S
O38 Co35 1.966 . S
O38 C36 1.263 . S
C39 O40 1.235 . S
C39 O66 1.289 . S
O40 C39 1.235 . S
C41 C43 1.400 . S
C41 N44 1.351 . S
C41 C46 1.501 . S
C42 C43 1.387 . S
C42 N45 1.341 . S
C43 C41 1.400 . S
C43 C42 1.387 . S
N44 Co35 2.022 . S
N44 C41 1.351 . S
N44 N45 1.365 . S
N45 C42 1.341 . S
N45 N44 1.365 . S
N45 H65 0.862 . S
C46 C41 1.501 . S
C46 H47 0.961 . S
C46 H48 0.961 . S
C46 H49 0.960 . S
H47 C46 0.961 . S
H48 C46 0.961 . S
H49 C46 0.960 . S
C50 N51 1.342 . S
C50 C54 1.401 . S
C50 C55 1.499 . S
N51 Co34 1.989 . S
N51 C50 1.342 . S
N51 N52 1.388 . S
N52 Co35 1.993 . S
N52 N51 1.388 . S
N52 C53 1.346 . S
C53 N52 1.346 . S
C53 C54 1.396 . S
C53 C63 1.510 . S
C54 C50 1.401 . S
C54 C53 1.396 . S
C55 C50 1.499 . S
C55 H56 0.959 . S
C55 H57 0.960 . S
C55 H58 0.961 . S
H56 C55 0.959 . S
H57 C55 0.960 . S
H58 C55 0.961 . S
O59 Co34 1.967 . S
O59 C67 1.258 . S
O60 Co35 1.941 . S
O60 C67 1.266 . S
H61 C63 0.959 . S
H62 C63 0.961 . S
C63 C53 1.510 . S
C63 H61 0.959 . S
C63 H62 0.961 . S
C63 H64 0.960 . S
H64 C63 0.960 . S
H65 N45 0.862 . S
O66 Co34 1.920 . S
O66 C39 1.289 . S
C67 O59 1.258 . S
C67 O60 1.266 . S
Co68 O71 1.970 . S
Co68 N85 1.989 . S
Co68 O93 1.967 . S
Co68 O100 1.920 . S
Co69 O72 1.966 . S
Co69 N78 2.022 . S
Co69 N86 1.993 . S
Co69 O94 1.941 . S
C70 O71 1.258 . S
C70 O72 1.263 . S
O71 Co68 1.970 . S
O71 C70 1.258 . S
O72 Co69 1.966 . S
O72 C70 1.263 . S
C73 O74 1.235 . S
C73 O100 1.289 . S
O74 C73 1.235 . S
C75 C77 1.400 . S
C75 N78 1.351 . S
C75 C80 1.501 . S
C76 C77 1.387 . S
C76 N79 1.341 . S
C77 C75 1.400 . S
C77 C76 1.387 . S
N78 Co69 2.022 . S
N78 C75 1.351 . S
N78 N79 1.365 . S
N79 C76 1.341 . S
N79 N78 1.365 . S
N79 H99 0.862 . S
C80 C75 1.501 . S
C80 H81 0.961 . S
C80 H82 0.961 . S
C80 H83 0.960 . S
H81 C80 0.961 . S
H82 C80 0.961 . S
H83 C80 0.960 . S
C84 N85 1.342 . S
C84 C88 1.401 . S
C84 C89 1.499 . S
N85 Co68 1.989 . S
N85 C84 1.342 . S
N85 N86 1.388 . S
N86 Co69 1.993 . S
N86 N85 1.388 . S
N86 C87 1.346 . S
C87 N86 1.346 . S
C87 C88 1.396 . S
C87 C97 1.510 . S
C88 C84 1.401 . S
C88 C87 1.396 . S
C89 C84 1.499 . S
C89 H90 0.959 . S
C89 H91 0.960 . S
C89 H92 0.961 . S
H90 C89 0.959 . S
H91 C89 0.960 . S
H92 C89 0.961 . S
O93 Co68 1.967 . S
O93 C101 1.258 . S
O94 Co69 1.941 . S
O94 C101 1.266 . S
H95 C97 0.959 . S
H96 C97 0.961 . S
C97 C87 1.510 . S
C97 H95 0.959 . S
C97 H96 0.961 . S
C97 H98 0.960 . S
H98 C97 0.960 . S
H99 N79 0.862 . S
O100 Co68 1.920 . S
O100 C73 1.289 . S
C101 O93 1.258 . S
C101 O94 1.266 . S
Co102 O105 1.970 . S
Co102 N119 1.989 . S
Co102 O127 1.967 . S
Co102 O134 1.920 . S
Co103 O106 1.966 . S
Co103 N112 2.022 . S
Co103 N120 1.993 . S
Co103 O128 1.941 . S
C104 O105 1.258 . S
C104 O106 1.263 . S
O105 Co102 1.970 . S
O105 C104 1.258 . S
O106 Co103 1.966 . S
O106 C104 1.263 . S
C107 O108 1.235 . S
C107 O134 1.289 . S
O108 C107 1.235 . S
C109 C111 1.400 . S
C109 N112 1.351 . S
C109 C114 1.501 . S
C110 C111 1.387 . S
C110 N113 1.341 . S
C111 C109 1.400 . S
C111 C110 1.387 . S
N112 Co103 2.022 . S
N112 C109 1.351 . S
N112 N113 1.365 . S
N113 C110 1.341 . S
N113 N112 1.365 . S
N113 H133 0.862 . S
C114 C109 1.501 . S
C114 H115 0.961 . S
C114 H116 0.961 . S
C114 H117 0.960 . S
H115 C114 0.961 . S
H116 C114 0.961 . S
H117 C114 0.960 . S
C118 N119 1.342 . S
C118 C122 1.401 . S
C118 C123 1.499 . S
N119 Co102 1.989 . S
N119 C118 1.342 . S
N119 N120 1.388 . S
N120 Co103 1.993 . S
N120 N119 1.388 . S
N120 C121 1.346 . S
C121 N120 1.346 . S
C121 C122 1.396 . S
C121 C131 1.510 . S
C122 C118 1.401 . S
C122 C121 1.396 . S
C123 C118 1.499 . S
C123 H124 0.959 . S
C123 H125 0.960 . S
C123 H126 0.961 . S
H124 C123 0.959 . S
H125 C123 0.960 . S
H126 C123 0.961 . S
O127 Co102 1.967 . S
O127 C135 1.258 . S
O128 Co103 1.941 . S
O128 C135 1.266 . S
H129 C131 0.959 . S
H130 C131 0.961 . S
C131 C121 1.510 . S
C131 H129 0.959 . S
C131 H130 0.961 . S
C131 H132 0.960 . S
H132 C131 0.960 . S
H133 N113 0.862 . S
O134 Co102 1.920 . S
O134 C107 1.289 . S
C135 O127 1.258 . S
C135 O128 1.266 . S
Co136 O139 1.970 . S
Co136 N153 1.989 . S
Co136 O161 1.967 . S
Co136 O168 1.920 . S
Co137 O140 1.966 . S
Co137 N146 2.022 . S
Co137 N154 1.993 . S
Co137 O162 1.941 . S
C138 O139 1.258 . S
C138 O140 1.263 . S
O139 Co136 1.970 . S
O139 C138 1.258 . S
O140 Co137 1.966 . S
O140 C138 1.263 . S
C141 O142 1.235 . S
C141 O168 1.289 . S
O142 C141 1.235 . S
C143 C145 1.400 . S
C143 N146 1.351 . S
C143 C148 1.501 . S
C144 C145 1.387 . S
C144 N147 1.341 . S
C145 C143 1.400 . S
C145 C144 1.387 . S
N146 Co137 2.022 . S
N146 C143 1.351 . S
N146 N147 1.365 . S
N147 C144 1.341 . S
N147 N146 1.365 . S
N147 H167 0.862 . S
C148 C143 1.501 . S
C148 H149 0.961 . S
C148 H150 0.961 . S
C148 H151 0.960 . S
H149 C148 0.961 . S
H150 C148 0.961 . S
H151 C148 0.960 . S
C152 N153 1.342 . S
C152 C156 1.401 . S
C152 C157 1.499 . S
N153 Co136 1.989 . S
N153 C152 1.342 . S
N153 N154 1.388 . S
N154 Co137 1.993 . S
N154 N153 1.388 . S
N154 C155 1.346 . S
C155 N154 1.346 . S
C155 C156 1.396 . S
C155 C165 1.510 . S
C156 C152 1.401 . S
C156 C155 1.396 . S
C157 C152 1.499 . S
C157 H158 0.959 . S
C157 H159 0.960 . S
C157 H160 0.961 . S
H158 C157 0.959 . S
H159 C157 0.960 . S
H160 C157 0.961 . S
O161 Co136 1.967 . S
O161 C169 1.258 . S
O162 Co137 1.941 . S
O162 C169 1.266 . S
H163 C165 0.959 . S
H164 C165 0.961 . S
C165 C155 1.510 . S
C165 H163 0.959 . S
C165 H164 0.961 . S
C165 H166 0.960 . S
H166 C165 0.960 . S
H167 N147 0.862 . S
O168 Co136 1.920 . S
O168 C141 1.289 . S
C169 O161 1.258 . S
C169 O162 1.266 . S
Co170 O173 1.970 . S
Co170 N187 1.989 . S
Co170 O195 1.967 . S
Co170 O202 1.920 . S
Co171 O174 1.966 . S
Co171 N180 2.022 . S
Co171 N188 1.993 . S
Co171 O196 1.941 . S
C172 O173 1.258 . S
C172 O174 1.263 . S
O173 Co170 1.970 . S
O173 C172 1.258 . S
O174 Co171 1.966 . S
O174 C172 1.263 . S
C175 O176 1.235 . S
C175 O202 1.289 . S
O176 C175 1.235 . S
C177 C179 1.400 . S
C177 N180 1.351 . S
C177 C182 1.501 . S
C178 C179 1.387 . S
C178 N181 1.341 . S
C179 C177 1.400 . S
C179 C178 1.387 . S
N180 Co171 2.022 . S
N180 C177 1.351 . S
N180 N181 1.365 . S
N181 C178 1.341 . S
N181 N180 1.365 . S
N181 H201 0.862 . S
C182 C177 1.501 . S
C182 H183 0.961 . S
C182 H184 0.961 . S
C182 H185 0.960 . S
H183 C182 0.961 . S
H184 C182 0.961 . S
H185 C182 0.960 . S
C186 N187 1.342 . S
C186 C190 1.401 . S
C186 C191 1.499 . S
N187 Co170 1.989 . S
N187 C186 1.342 . S
N187 N188 1.388 . S
N188 Co171 1.993 . S
N188 N187 1.388 . S
N188 C189 1.346 . S
C189 N188 1.346 . S
C189 C190 1.396 . S
C189 C199 1.510 . S
C190 C186 1.401 . S
C190 C189 1.396 . S
C191 C186 1.499 . S
C191 H192 0.959 . S
C191 H193 0.960 . S
C191 H194 0.961 . S
H192 C191 0.959 . S
H193 C191 0.960 . S
H194 C191 0.961 . S
O195 Co170 1.967 . S
O195 C203 1.258 . S
O196 Co171 1.941 . S
O196 C203 1.266 . S
H197 C199 0.959 . S
H198 C199 0.961 . S
C199 C189 1.510 . S
C199 H197 0.959 . S
C199 H198 0.961 . S
C199 H200 0.960 . S
H200 C199 0.960 . S
H201 N181 0.862 . S
O202 Co170 1.920 . S
O202 C175 1.289 . S
C203 O195 1.258 . S
C203 O196 1.266 . S
Co204 O207 1.970 . S
Co204 N221 1.989 . S
Co204 O229 1.967 . S
Co204 O236 1.920 . S
Co205 O208 1.966 . S
Co205 N214 2.022 . S
Co205 N222 1.993 . S
Co205 O230 1.941 . S
C206 O207 1.258 . S
C206 O208 1.263 . S
O207 Co204 1.970 . S
O207 C206 1.258 . S
O208 Co205 1.966 . S
O208 C206 1.263 . S
C209 O210 1.235 . S
C209 O236 1.289 . S
O210 C209 1.235 . S
C211 C213 1.400 . S
C211 N214 1.351 . S
C211 C216 1.501 . S
C212 C213 1.387 . S
C212 N215 1.341 . S
C213 C211 1.400 . S
C213 C212 1.387 . S
N214 Co205 2.022 . S
N214 C211 1.351 . S
N214 N215 1.365 . S
N215 C212 1.341 . S
N215 N214 1.365 . S
N215 H235 0.862 . S
C216 C211 1.501 . S
C216 H217 0.961 . S
C216 H218 0.961 . S
C216 H219 0.960 . S
H217 C216 0.961 . S
H218 C216 0.961 . S
H219 C216 0.960 . S
C220 N221 1.342 . S
C220 C224 1.401 . S
C220 C225 1.499 . S
N221 Co204 1.989 . S
N221 C220 1.342 . S
N221 N222 1.388 . S
N222 Co205 1.993 . S
N222 N221 1.388 . S
N222 C223 1.346 . S
C223 N222 1.346 . S
C223 C224 1.396 . S
C223 C233 1.510 . S
C224 C220 1.401 . S
C224 C223 1.396 . S
C225 C220 1.499 . S
C225 H226 0.959 . S
C225 H227 0.960 . S
C225 H228 0.961 . S
H226 C225 0.959 . S
H227 C225 0.960 . S
H228 C225 0.961 . S
O229 Co204 1.967 . S
O229 C237 1.258 . S
O230 Co205 1.941 . S
O230 C237 1.266 . S
H231 C233 0.959 . S
H232 C233 0.961 . S
C233 C223 1.510 . S
C233 H231 0.959 . S
C233 H232 0.961 . S
C233 H234 0.960 . S
H234 C233 0.960 . S
H235 N215 0.862 . S
O236 Co204 1.920 . S
O236 C209 1.289 . S
C237 O229 1.258 . S
C237 O230 1.266 . S
Co238 O241 1.970 . S
Co238 N255 1.989 . S
Co238 O263 1.967 . S
Co238 O270 1.920 . S
Co239 O242 1.966 . S
Co239 N248 2.022 . S
Co239 N256 1.993 . S
Co239 O264 1.941 . S
C240 O241 1.258 . S
C240 O242 1.263 . S
O241 Co238 1.970 . S
O241 C240 1.258 . S
O242 Co239 1.966 . S
O242 C240 1.263 . S
C243 O244 1.235 . S
C243 O270 1.289 . S
O244 C243 1.235 . S
C245 C247 1.400 . S
C245 N248 1.351 . S
C245 C250 1.501 . S
C246 C247 1.387 . S
C246 N249 1.341 . S
C247 C245 1.400 . S
C247 C246 1.387 . S
N248 Co239 2.022 . S
N248 C245 1.351 . S
N248 N249 1.365 . S
N249 C246 1.341 . S
N249 N248 1.365 . S
N249 H269 0.862 . S
C250 C245 1.501 . S
C250 H251 0.961 . S
C250 H252 0.961 . S
C250 H253 0.960 . S
H251 C250 0.961 . S
H252 C250 0.961 . S
H253 C250 0.960 . S
C254 N255 1.342 . S
C254 C258 1.401 . S
C254 C259 1.499 . S
N255 Co238 1.989 . S
N255 C254 1.342 . S
N255 N256 1.388 . S
N256 Co239 1.993 . S
N256 N255 1.388 . S
N256 C257 1.346 . S
C257 N256 1.346 . S
C257 C258 1.396 . S
C257 C267 1.510 . S
C258 C254 1.401 . S
C258 C257 1.396 . S
C259 C254 1.499 . S
C259 H260 0.959 . S
C259 H261 0.960 . S
C259 H262 0.961 . S
H260 C259 0.959 . S
H261 C259 0.960 . S
H262 C259 0.961 . S
O263 Co238 1.967 . S
O263 C271 1.258 . S
O264 Co239 1.941 . S
O264 C271 1.266 . S
H265 C267 0.959 . S
H266 C267 0.961 . S
C267 C257 1.510 . S
C267 H265 0.959 . S
C267 H266 0.961 . S
C267 H268 0.960 . S
H268 C267 0.960 . S
H269 N249 0.862 . S
O270 Co238 1.920 . S
O270 C243 1.289 . S
C271 O263 1.258 . S
C271 O264 1.266 . S
Co272 O275 1.970 . S
Co272 N289 1.989 . S
Co272 O297 1.967 . S
Co272 O304 1.920 . S
Co273 O276 1.966 . S
Co273 N282 2.022 . S
Co273 N290 1.993 . S
Co273 O298 1.941 . S
C274 O275 1.258 . S
C274 O276 1.263 . S
O275 Co272 1.970 . S
O275 C274 1.258 . S
O276 Co273 1.966 . S
O276 C274 1.263 . S
C277 O278 1.235 . S
C277 O304 1.289 . S
O278 C277 1.235 . S
C279 C281 1.400 . S
C279 N282 1.351 . S
C279 C284 1.501 . S
C280 C281 1.387 . S
C280 N283 1.341 . S
C281 C279 1.400 . S
C281 C280 1.387 . S
N282 Co273 2.022 . S
N282 C279 1.351 . S
N282 N283 1.365 . S
N283 C280 1.341 . S
N283 N282 1.365 . S
N283 H303 0.862 . S
C284 C279 1.501 . S
C284 H285 0.961 . S
C284 H286 0.961 . S
C284 H287 0.960 . S
H285 C284 0.961 . S
H286 C284 0.961 . S
H287 C284 0.960 . S
C288 N289 1.342 . S
C288 C292 1.401 . S
C288 C293 1.499 . S
N289 Co272 1.989 . S
N289 C288 1.342 . S
N289 N290 1.388 . S
N290 Co273 1.993 . S
N290 N289 1.388 . S
N290 C291 1.346 . S
C291 N290 1.346 . S
C291 C292 1.396 . S
C291 C301 1.510 . S
C292 C288 1.401 . S
C292 C291 1.396 . S
C293 C288 1.499 . S
C293 H294 0.959 . S
C293 H295 0.960 . S
C293 H296 0.961 . S
H294 C293 0.959 . S
H295 C293 0.960 . S
H296 C293 0.961 . S
O297 Co272 1.967 . S
O297 C305 1.258 . S
O298 Co273 1.941 . S
O298 C305 1.266 . S
H299 C301 0.959 . S
H300 C301 0.961 . S
C301 C291 1.510 . S
C301 H299 0.959 . S
C301 H300 0.961 . S
C301 H302 0.960 . S
H302 C301 0.960 . S
H303 N283 0.862 . S
O304 Co272 1.920 . S
O304 C277 1.289 . S
C305 O297 1.258 . S
C305 O298 1.266 . S
Co306 O309 1.970 . S
Co306 N323 1.989 . S
Co306 O331 1.967 . S
Co306 O338 1.920 . S
Co307 O310 1.966 . S
Co307 N316 2.022 . S
Co307 N324 1.993 . S
Co307 O332 1.941 . S
C308 O309 1.258 . S
C308 O310 1.263 . S
O309 Co306 1.970 . S
O309 C308 1.258 . S
O310 Co307 1.966 . S
O310 C308 1.263 . S
C311 O312 1.235 . S
C311 O338 1.289 . S
O312 C311 1.235 . S
C313 C315 1.400 . S
C313 N316 1.351 . S
C313 C318 1.501 . S
C314 C315 1.387 . S
C314 N317 1.341 . S
C315 C313 1.400 . S
C315 C314 1.387 . S
N316 Co307 2.022 . S
N316 C313 1.351 . S
N316 N317 1.365 . S
N317 C314 1.341 . S
N317 N316 1.365 . S
N317 H337 0.862 . S
C318 C313 1.501 . S
C318 H319 0.961 . S
C318 H320 0.961 . S
C318 H321 0.960 . S
H319 C318 0.961 . S
H320 C318 0.961 . S
H321 C318 0.960 . S
C322 N323 1.342 . S
C322 C326 1.401 . S
C322 C327 1.499 . S
N323 Co306 1.989 . S
N323 C322 1.342 . S
N323 N324 1.388 . S
N324 Co307 1.993 . S
N324 N323 1.388 . S
N324 C325 1.346 . S
C325 N324 1.346 . S
C325 C326 1.396 . S
C325 C335 1.510 . S
C326 C322 1.401 . S
C326 C325 1.396 . S
C327 C322 1.499 . S
C327 H328 0.959 . S
C327 H329 0.960 . S
C327 H330 0.961 . S
H328 C327 0.959 . S
H329 C327 0.960 . S
H330 C327 0.961 . S
O331 Co306 1.967 . S
O331 C339 1.258 . S
O332 Co307 1.941 . S
O332 C339 1.266 . S
H333 C335 0.959 . S
H334 C335 0.961 . S
C335 C325 1.510 . S
C335 H333 0.959 . S
C335 H334 0.961 . S
C335 H336 0.960 . S
H336 C335 0.960 . S
H337 N317 0.862 . S
O338 Co306 1.920 . S
O338 C311 1.289 . S
C339 O331 1.258 . S
C339 O332 1.266 . S
Co340 O343 1.970 . S
Co340 N357 1.989 . S
Co340 O365 1.967 . S
Co340 O372 1.920 . S
Co341 O344 1.966 . S
Co341 N350 2.022 . S
Co341 N358 1.993 . S
Co341 O366 1.941 . S
C342 O343 1.258 . S
C342 O344 1.263 . S
O343 Co340 1.970 . S
O343 C342 1.258 . S
O344 Co341 1.966 . S
O344 C342 1.263 . S
C345 O346 1.235 . S
C345 O372 1.289 . S
O346 C345 1.235 . S
C347 C349 1.400 . S
C347 N350 1.351 . S
C347 C352 1.501 . S
C348 C349 1.387 . S
C348 N351 1.341 . S
C349 C347 1.400 . S
C349 C348 1.387 . S
N350 Co341 2.022 . S
N350 C347 1.351 . S
N350 N351 1.365 . S
N351 C348 1.341 . S
N351 N350 1.365 . S
N351 H371 0.862 . S
C352 C347 1.501 . S
C352 H353 0.961 . S
C352 H354 0.961 . S
C352 H355 0.960 . S
H353 C352 0.961 . S
H354 C352 0.961 . S
H355 C352 0.960 . S
C356 N357 1.342 . S
C356 C360 1.401 . S
C356 C361 1.499 . S
N357 Co340 1.989 . S
N357 C356 1.342 . S
N357 N358 1.388 . S
N358 Co341 1.993 . S
N358 N357 1.388 . S
N358 C359 1.346 . S
C359 N358 1.346 . S
C359 C360 1.396 . S
C359 C369 1.510 . S
C360 C356 1.401 . S
C360 C359 1.396 . S
C361 C356 1.499 . S
C361 H362 0.959 . S
C361 H363 0.960 . S
C361 H364 0.961 . S
H362 C361 0.959 . S
H363 C361 0.960 . S
H364 C361 0.961 . S
O365 Co340 1.967 . S
O365 C373 1.258 . S
O366 Co341 1.941 . S
O366 C373 1.266 . S
H367 C369 0.959 . S
H368 C369 0.961 . S
C369 C359 1.510 . S
C369 H367 0.959 . S
C369 H368 0.961 . S
C369 H370 0.960 . S
H370 C369 0.960 . S
H371 N351 0.862 . S
O372 Co340 1.920 . S
O372 C345 1.289 . S
C373 O365 1.258 . S
C373 O366 1.266 . S
Co374 O377 1.970 . S
Co374 N391 1.989 . S
Co374 O399 1.967 . S
Co374 O406 1.920 . S
Co375 O378 1.966 . S
Co375 N384 2.022 . S
Co375 N392 1.993 . S
Co375 O400 1.941 . S
C376 O377 1.258 . S
C376 O378 1.263 . S
O377 Co374 1.970 . S
O377 C376 1.258 . S
O378 Co375 1.966 . S
O378 C376 1.263 . S
C379 O380 1.235 . S
C379 O406 1.289 . S
O380 C379 1.235 . S
C381 C383 1.400 . S
C381 N384 1.351 . S
C381 C386 1.501 . S
C382 C383 1.387 . S
C382 N385 1.341 . S
C383 C381 1.400 . S
C383 C382 1.387 . S
N384 Co375 2.022 . S
N384 C381 1.351 . S
N384 N385 1.365 . S
N385 C382 1.341 . S
N385 N384 1.365 . S
N385 H405 0.862 . S
C386 C381 1.501 . S
C386 H387 0.961 . S
C386 H388 0.961 . S
C386 H389 0.960 . S
H387 C386 0.961 . S
H388 C386 0.961 . S
H389 C386 0.960 . S
C390 N391 1.342 . S
C390 C394 1.401 . S
C390 C395 1.499 . S
N391 Co374 1.989 . S
N391 C390 1.342 . S
N391 N392 1.388 . S
N392 Co375 1.993 . S
N392 N391 1.388 . S
N392 C393 1.346 . S
C393 N392 1.346 . S
C393 C394 1.396 . S
C393 C403 1.510 . S
C394 C390 1.401 . S
C394 C393 1.396 . S
C395 C390 1.499 . S
C395 H396 0.959 . S
C395 H397 0.960 . S
C395 H398 0.961 . S
H396 C395 0.959 . S
H397 C395 0.960 . S
H398 C395 0.961 . S
O399 Co374 1.967 . S
O399 C407 1.258 . S
O400 Co375 1.941 . S
O400 C407 1.266 . S
H401 C403 0.959 . S
H402 C403 0.961 . S
C403 C393 1.510 . S
C403 H401 0.959 . S
C403 H402 0.961 . S
C403 H404 0.960 . S
H404 C403 0.960 . S
H405 N385 0.862 . S
O406 Co374 1.920 . S
O406 C379 1.289 . S
C407 O399 1.258 . S
C407 O400 1.266 . S
Co408 O411 1.970 . S
Co408 N425 1.989 . S
Co408 O433 1.967 . S
Co408 O440 1.920 . S
Co409 O412 1.966 . S
Co409 N418 2.022 . S
Co409 N426 1.993 . S
Co409 O434 1.941 . S
C410 O411 1.258 . S
C410 O412 1.263 . S
O411 Co408 1.970 . S
O411 C410 1.258 . S
O412 Co409 1.966 . S
O412 C410 1.263 . S
C413 O414 1.235 . S
C413 O440 1.289 . S
O414 C413 1.235 . S
C415 C417 1.400 . S
C415 N418 1.351 . S
C415 C420 1.501 . S
C416 C417 1.387 . S
C416 N419 1.341 . S
C417 C415 1.400 . S
C417 C416 1.387 . S
N418 Co409 2.022 . S
N418 C415 1.351 . S
N418 N419 1.365 . S
N419 C416 1.341 . S
N419 N418 1.365 . S
N419 H439 0.862 . S
C420 C415 1.501 . S
C420 H421 0.961 . S
C420 H422 0.961 . S
C420 H423 0.960 . S
H421 C420 0.961 . S
H422 C420 0.961 . S
H423 C420 0.960 . S
C424 N425 1.342 . S
C424 C428 1.401 . S
C424 C429 1.499 . S
N425 Co408 1.989 . S
N425 C424 1.342 . S
N425 N426 1.388 . S
N426 Co409 1.993 . S
N426 N425 1.388 . S
N426 C427 1.346 . S
C427 N426 1.346 . S
C427 C428 1.396 . S
C427 C437 1.510 . S
C428 C424 1.401 . S
C428 C427 1.396 . S
C429 C424 1.499 . S
C429 H430 0.959 . S
C429 H431 0.960 . S
C429 H432 0.961 . S
H430 C429 0.959 . S
H431 C429 0.960 . S
H432 C429 0.961 . S
O433 Co408 1.967 . S
O433 C441 1.258 . S
O434 Co409 1.941 . S
O434 C441 1.266 . S
H435 C437 0.959 . S
H436 C437 0.961 . S
C437 C427 1.510 . S
C437 H435 0.959 . S
C437 H436 0.961 . S
C437 H438 0.960 . S
H438 C437 0.960 . S
H439 N419 0.862 . S
O440 Co408 1.920 . S
O440 C413 1.289 . S
C441 O433 1.258 . S
C441 O434 1.266 . S
Co442 O445 1.970 . S
Co442 N459 1.989 . S
Co442 O467 1.967 . S
Co442 O474 1.920 . S
Co443 O446 1.966 . S
Co443 N452 2.022 . S
Co443 N460 1.993 . S
Co443 O468 1.941 . S
C444 O445 1.258 . S
C444 O446 1.263 . S
O445 Co442 1.970 . S
O445 C444 1.258 . S
O446 Co443 1.966 . S
O446 C444 1.263 . S
C447 O448 1.235 . S
C447 O474 1.289 . S
O448 C447 1.235 . S
C449 C451 1.400 . S
C449 N452 1.351 . S
C449 C454 1.501 . S
C450 C451 1.387 . S
C450 N453 1.341 . S
C451 C449 1.400 . S
C451 C450 1.387 . S
N452 Co443 2.022 . S
N452 C449 1.351 . S
N452 N453 1.365 . S
N453 C450 1.341 . S
N453 N452 1.365 . S
N453 H473 0.862 . S
C454 C449 1.501 . S
C454 H455 0.961 . S
C454 H456 0.961 . S
C454 H457 0.960 . S
H455 C454 0.961 . S
H456 C454 0.961 . S
H457 C454 0.960 . S
C458 N459 1.342 . S
C458 C462 1.401 . S
C458 C463 1.499 . S
N459 Co442 1.989 . S
N459 C458 1.342 . S
N459 N460 1.388 . S
N460 Co443 1.993 . S
N460 N459 1.388 . S
N460 C461 1.346 . S
C461 N460 1.346 . S
C461 C462 1.396 . S
C461 C471 1.510 . S
C462 C458 1.401 . S
C462 C461 1.396 . S
C463 C458 1.499 . S
C463 H464 0.959 . S
C463 H465 0.960 . S
C463 H466 0.961 . S
H464 C463 0.959 . S
H465 C463 0.960 . S
H466 C463 0.961 . S
O467 Co442 1.967 . S
O467 C475 1.258 . S
O468 Co443 1.941 . S
O468 C475 1.266 . S
H469 C471 0.959 . S
H470 C471 0.961 . S
C471 C461 1.510 . S
C471 H469 0.959 . S
C471 H470 0.961 . S
C471 H472 0.960 . S
H472 C471 0.960 . S
H473 N453 0.862 . S
O474 Co442 1.920 . S
O474 C447 1.289 . S
C475 O467 1.258 . S
C475 O468 1.266 . S
Co476 O479 1.970 . S
Co476 N493 1.989 . S
Co476 O501 1.967 . S
Co476 O508 1.920 . S
Co477 O480 1.966 . S
Co477 N486 2.022 . S
Co477 N494 1.993 . S
Co477 O502 1.941 . S
C478 O479 1.258 . S
C478 O480 1.263 . S
O479 Co476 1.970 . S
O479 C478 1.258 . S
O480 Co477 1.966 . S
O480 C478 1.263 . S
C481 O482 1.235 . S
C481 O508 1.289 . S
O482 C481 1.235 . S
C483 C485 1.400 . S
C483 N486 1.351 . S
C483 C488 1.501 . S
C484 C485 1.387 . S
C484 N487 1.341 . S
C485 C483 1.400 . S
C485 C484 1.387 . S
N486 Co477 2.022 . S
N486 C483 1.351 . S
N486 N487 1.365 . S
N487 C484 1.341 . S
N487 N486 1.365 . S
N487 H507 0.862 . S
C488 C483 1.501 . S
C488 H489 0.961 . S
C488 H490 0.961 . S
C488 H491 0.960 . S
H489 C488 0.961 . S
H490 C488 0.961 . S
H491 C488 0.960 . S
C492 N493 1.342 . S
C492 C496 1.401 . S
C492 C497 1.499 . S
N493 Co476 1.989 . S
N493 C492 1.342 . S
N493 N494 1.388 . S
N494 Co477 1.993 . S
N494 N493 1.388 . S
N494 C495 1.346 . S
C495 N494 1.346 . S
C495 C496 1.396 . S
C495 C505 1.510 . S
C496 C492 1.401 . S
C496 C495 1.396 . S
C497 C492 1.499 . S
C497 H498 0.959 . S
C497 H499 0.960 . S
C497 H500 0.961 . S
H498 C497 0.959 . S
H499 C497 0.960 . S
H500 C497 0.961 . S
O501 Co476 1.967 . S
O501 C509 1.258 . S
O502 Co477 1.941 . S
O502 C509 1.266 . S
H503 C505 0.959 . S
H504 C505 0.961 . S
C505 C495 1.510 . S
C505 H503 0.959 . S
C505 H504 0.961 . S
C505 H506 0.960 . S
H506 C505 0.960 . S
H507 N487 0.862 . S
O508 Co476 1.920 . S
O508 C481 1.289 . S
C509 O501 1.258 . S
C509 O502 1.266 . S
Co510 O513 1.970 . S
Co510 N527 1.989 . S
Co510 O535 1.967 . S
Co510 O542 1.920 . S
Co511 O514 1.966 . S
Co511 N520 2.022 . S
Co511 N528 1.993 . S
Co511 O536 1.941 . S
C512 O513 1.258 . S
C512 O514 1.263 . S
O513 Co510 1.970 . S
O513 C512 1.258 . S
O514 Co511 1.966 . S
O514 C512 1.263 . S
C515 O516 1.235 . S
C515 O542 1.289 . S
O516 C515 1.235 . S
C517 C519 1.400 . S
C517 N520 1.351 . S
C517 C522 1.501 . S
C518 C519 1.387 . S
C518 N521 1.341 . S
C519 C517 1.400 . S
C519 C518 1.387 . S
N520 Co511 2.022 . S
N520 C517 1.351 . S
N520 N521 1.365 . S
N521 C518 1.341 . S
N521 N520 1.365 . S
N521 H541 0.862 . S
C522 C517 1.501 . S
C522 H523 0.961 . S
C522 H524 0.961 . S
C522 H525 0.960 . S
H523 C522 0.961 . S
H524 C522 0.961 . S
H525 C522 0.960 . S
C526 N527 1.342 . S
C526 C530 1.401 . S
C526 C531 1.499 . S
N527 Co510 1.989 . S
N527 C526 1.342 . S
N527 N528 1.388 . S
N528 Co511 1.993 . S
N528 N527 1.388 . S
N528 C529 1.346 . S
C529 N528 1.346 . S
C529 C530 1.396 . S
C529 C539 1.510 . S
C530 C526 1.401 . S
C530 C529 1.396 . S
C531 C526 1.499 . S
C531 H532 0.959 . S
C531 H533 0.960 . S
C531 H534 0.961 . S
H532 C531 0.959 . S
H533 C531 0.960 . S
H534 C531 0.961 . S
O535 Co510 1.967 . S
O535 C543 1.258 . S
O536 Co511 1.941 . S
O536 C543 1.266 . S
H537 C539 0.959 . S
H538 C539 0.961 . S
C539 C529 1.510 . S
C539 H537 0.959 . S
C539 H538 0.961 . S
C539 H540 0.960 . S
H540 C539 0.960 . S
H541 N521 0.862 . S
O542 Co510 1.920 . S
O542 C515 1.289 . S
C543 O535 1.258 . S
C543 O536 1.266 . S
Co544 O547 1.970 . S
Co544 N561 1.989 . S
Co544 O569 1.967 . S
Co544 O576 1.920 . S
Co545 O548 1.966 . S
Co545 N554 2.022 . S
Co545 N562 1.993 . S
Co545 O570 1.941 . S
C546 O547 1.258 . S
C546 O548 1.263 . S
O547 Co544 1.970 . S
O547 C546 1.258 . S
O548 Co545 1.966 . S
O548 C546 1.263 . S
C549 O550 1.235 . S
C549 O576 1.289 . S
O550 C549 1.235 . S
C551 C553 1.400 . S
C551 N554 1.351 . S
C551 C556 1.501 . S
C552 C553 1.387 . S
C552 N555 1.341 . S
C553 C551 1.400 . S
C553 C552 1.387 . S
N554 Co545 2.022 . S
N554 C551 1.351 . S
N554 N555 1.365 . S
N555 C552 1.341 . S
N555 N554 1.365 . S
N555 H575 0.862 . S
C556 C551 1.501 . S
C556 H557 0.961 . S
C556 H558 0.961 . S
C556 H559 0.960 . S
H557 C556 0.961 . S
H558 C556 0.961 . S
H559 C556 0.960 . S
C560 N561 1.342 . S
C560 C564 1.401 . S
C560 C565 1.499 . S
N561 Co544 1.989 . S
N561 C560 1.342 . S
N561 N562 1.388 . S
N562 Co545 1.993 . S
N562 N561 1.388 . S
N562 C563 1.346 . S
C563 N562 1.346 . S
C563 C564 1.396 . S
C563 C573 1.510 . S
C564 C560 1.401 . S
C564 C563 1.396 . S
C565 C560 1.499 . S
C565 H566 0.959 . S
C565 H567 0.960 . S
C565 H568 0.961 . S
H566 C565 0.959 . S
H567 C565 0.960 . S
H568 C565 0.961 . S
O569 Co544 1.967 . S
O569 C577 1.258 . S
O570 Co545 1.941 . S
O570 C577 1.266 . S
H571 C573 0.959 . S
H572 C573 0.961 . S
C573 C563 1.510 . S
C573 H571 0.959 . S
C573 H572 0.961 . S
C573 H574 0.960 . S
H574 C573 0.960 . S
H575 N555 0.862 . S
O576 Co544 1.920 . S
O576 C549 1.289 . S
C577 O569 1.258 . S
C577 O570 1.266 . S
Co578 O581 1.970 . S
Co578 N595 1.989 . S
Co578 O603 1.967 . S
Co578 O610 1.920 . S
Co579 O582 1.966 . S
Co579 N588 2.022 . S
Co579 N596 1.993 . S
Co579 O604 1.941 . S
C580 O581 1.258 . S
C580 O582 1.263 . S
O581 Co578 1.970 . S
O581 C580 1.258 . S
O582 Co579 1.966 . S
O582 C580 1.263 . S
C583 O584 1.235 . S
C583 O610 1.289 . S
O584 C583 1.235 . S
C585 C587 1.400 . S
C585 N588 1.351 . S
C585 C590 1.501 . S
C586 C587 1.387 . S
C586 N589 1.341 . S
C587 C585 1.400 . S
C587 C586 1.387 . S
N588 Co579 2.022 . S
N588 C585 1.351 . S
N588 N589 1.365 . S
N589 C586 1.341 . S
N589 N588 1.365 . S
N589 H609 0.862 . S
C590 C585 1.501 . S
C590 H591 0.961 . S
C590 H592 0.961 . S
C590 H593 0.960 . S
H591 C590 0.961 . S
H592 C590 0.961 . S
H593 C590 0.960 . S
C594 N595 1.342 . S
C594 C598 1.401 . S
C594 C599 1.499 . S
N595 Co578 1.989 . S
N595 C594 1.342 . S
N595 N596 1.388 . S
N596 Co579 1.993 . S
N596 N595 1.388 . S
N596 C597 1.346 . S
C597 N596 1.346 . S
C597 C598 1.396 . S
C597 C607 1.510 . S
C598 C594 1.401 . S
C598 C597 1.396 . S
C599 C594 1.499 . S
C599 H600 0.959 . S
C599 H601 0.960 . S
C599 H602 0.961 . S
H600 C599 0.959 . S
H601 C599 0.960 . S
H602 C599 0.961 . S
O603 Co578 1.967 . S
O603 C611 1.258 . S
O604 Co579 1.941 . S
O604 C611 1.266 . S
H605 C607 0.959 . S
H606 C607 0.961 . S
C607 C597 1.510 . S
C607 H605 0.959 . S
C607 H606 0.961 . S
C607 H608 0.960 . S
H608 C607 0.960 . S
H609 N589 0.862 . S
O610 Co578 1.920 . S
O610 C583 1.289 . S
C611 O603 1.258 . S
C611 O604 1.266 . S
Co612 O615 1.970 . S
Co612 N629 1.989 . S
Co612 O637 1.967 . S
Co612 O644 1.920 . S
Co613 O616 1.966 . S
Co613 N622 2.022 . S
Co613 N630 1.993 . S
Co613 O638 1.941 . S
C614 O615 1.258 . S
C614 O616 1.263 . S
O615 Co612 1.970 . S
O615 C614 1.258 . S
O616 Co613 1.966 . S
O616 C614 1.263 . S
C617 O618 1.235 . S
C617 O644 1.289 . S
O618 C617 1.235 . S
C619 C621 1.400 . S
C619 N622 1.351 . S
C619 C624 1.501 . S
C620 C621 1.387 . S
C620 N623 1.341 . S
C621 C619 1.400 . S
C621 C620 1.387 . S
N622 Co613 2.022 . S
N622 C619 1.351 . S
N622 N623 1.365 . S
N623 C620 1.341 . S
N623 N622 1.365 . S
N623 H643 0.862 . S
C624 C619 1.501 . S
C624 H625 0.961 . S
C624 H626 0.961 . S
C624 H627 0.960 . S
H625 C624 0.961 . S
H626 C624 0.961 . S
H627 C624 0.960 . S
C628 N629 1.342 . S
C628 C632 1.401 . S
C628 C633 1.499 . S
N629 Co612 1.989 . S
N629 C628 1.342 . S
N629 N630 1.388 . S
N630 Co613 1.993 . S
N630 N629 1.388 . S
N630 C631 1.346 . S
C631 N630 1.346 . S
C631 C632 1.396 . S
C631 C641 1.510 . S
C632 C628 1.401 . S
C632 C631 1.396 . S
C633 C628 1.499 . S
C633 H634 0.959 . S
C633 H635 0.960 . S
C633 H636 0.961 . S
H634 C633 0.959 . S
H635 C633 0.960 . S
H636 C633 0.961 . S
O637 Co612 1.967 . S
O637 C645 1.258 . S
O638 Co613 1.941 . S
O638 C645 1.266 . S
H639 C641 0.959 . S
H640 C641 0.961 . S
C641 C631 1.510 . S
C641 H639 0.959 . S
C641 H640 0.961 . S
C641 H642 0.960 . S
H642 C641 0.960 . S
H643 N623 0.862 . S
O644 Co612 1.920 . S
O644 C617 1.289 . S
C645 O637 1.258 . S
C645 O638 1.266 . S
Co646 O649 1.970 . S
Co646 N663 1.989 . S
Co646 O671 1.967 . S
Co646 O678 1.920 . S
Co647 O650 1.966 . S
Co647 N656 2.022 . S
Co647 N664 1.993 . S
Co647 O672 1.941 . S
C648 O649 1.258 . S
C648 O650 1.263 . S
O649 Co646 1.970 . S
O649 C648 1.258 . S
O650 Co647 1.966 . S
O650 C648 1.263 . S
C651 O652 1.235 . S
C651 O678 1.289 . S
O652 C651 1.235 . S
C653 C655 1.400 . S
C653 N656 1.351 . S
C653 C658 1.501 . S
C654 C655 1.387 . S
C654 N657 1.341 . S
C655 C653 1.400 . S
C655 C654 1.387 . S
N656 Co647 2.022 . S
N656 C653 1.351 . S
N656 N657 1.365 . S
N657 C654 1.341 . S
N657 N656 1.365 . S
N657 H677 0.862 . S
C658 C653 1.501 . S
C658 H659 0.961 . S
C658 H660 0.961 . S
C658 H661 0.960 . S
H659 C658 0.961 . S
H660 C658 0.961 . S
H661 C658 0.960 . S
C662 N663 1.342 . S
C662 C666 1.401 . S
C662 C667 1.499 . S
N663 Co646 1.989 . S
N663 C662 1.342 . S
N663 N664 1.388 . S
N664 Co647 1.993 . S
N664 N663 1.388 . S
N664 C665 1.346 . S
C665 N664 1.346 . S
C665 C666 1.396 . S
C665 C675 1.510 . S
C666 C662 1.401 . S
C666 C665 1.396 . S
C667 C662 1.499 . S
C667 H668 0.959 . S
C667 H669 0.960 . S
C667 H670 0.961 . S
H668 C667 0.959 . S
H669 C667 0.960 . S
H670 C667 0.961 . S
O671 Co646 1.967 . S
O671 C679 1.258 . S
O672 Co647 1.941 . S
O672 C679 1.266 . S
H673 C675 0.959 . S
H674 C675 0.961 . S
C675 C665 1.510 . S
C675 H673 0.959 . S
C675 H674 0.961 . S
C675 H676 0.960 . S
H676 C675 0.960 . S
H677 N657 0.862 . S
O678 Co646 1.920 . S
O678 C651 1.289 . S
C679 O671 1.258 . S
C679 O672 1.266 . S
Co680 O683 1.970 . S
Co680 N697 1.989 . S
Co680 O705 1.967 . S
Co680 O712 1.920 . S
Co681 O684 1.966 . S
Co681 N690 2.022 . S
Co681 N698 1.993 . S
Co681 O706 1.941 . S
C682 O683 1.258 . S
C682 O684 1.263 . S
O683 Co680 1.970 . S
O683 C682 1.258 . S
O684 Co681 1.966 . S
O684 C682 1.263 . S
C685 O686 1.235 . S
C685 O712 1.289 . S
O686 C685 1.235 . S
C687 C689 1.400 . S
C687 N690 1.351 . S
C687 C692 1.501 . S
C688 C689 1.387 . S
C688 N691 1.341 . S
C689 C687 1.400 . S
C689 C688 1.387 . S
N690 Co681 2.022 . S
N690 C687 1.351 . S
N690 N691 1.365 . S
N691 C688 1.341 . S
N691 N690 1.365 . S
N691 H711 0.862 . S
C692 C687 1.501 . S
C692 H693 0.961 . S
C692 H694 0.961 . S
C692 H695 0.960 . S
H693 C692 0.961 . S
H694 C692 0.961 . S
H695 C692 0.960 . S
C696 N697 1.342 . S
C696 C700 1.401 . S
C696 C701 1.499 . S
N697 Co680 1.989 . S
N697 C696 1.342 . S
N697 N698 1.388 . S
N698 Co681 1.993 . S
N698 N697 1.388 . S
N698 C699 1.346 . S
C699 N698 1.346 . S
C699 C700 1.396 . S
C699 C709 1.510 . S
C700 C696 1.401 . S
C700 C699 1.396 . S
C701 C696 1.499 . S
C701 H702 0.959 . S
C701 H703 0.960 . S
C701 H704 0.961 . S
H702 C701 0.959 . S
H703 C701 0.960 . S
H704 C701 0.961 . S
O705 Co680 1.967 . S
O705 C713 1.258 . S
O706 Co681 1.941 . S
O706 C713 1.266 . S
H707 C709 0.959 . S
H708 C709 0.961 . S
C709 C699 1.510 . S
C709 H707 0.959 . S
C709 H708 0.961 . S
C709 H710 0.960 . S
H710 C709 0.960 . S
H711 N691 0.862 . S
O712 Co680 1.920 . S
O712 C685 1.289 . S
C713 O705 1.258 . S
C713 O706 1.266 . S
Co714 O717 1.970 . S
Co714 N731 1.989 . S
Co714 O739 1.967 . S
Co714 O746 1.920 . S
Co715 O718 1.966 . S
Co715 N724 2.022 . S
Co715 N732 1.993 . S
Co715 O740 1.941 . S
C716 O717 1.258 . S
C716 O718 1.263 . S
O717 Co714 1.970 . S
O717 C716 1.258 . S
O718 Co715 1.966 . S
O718 C716 1.263 . S
C719 O720 1.235 . S
C719 O746 1.289 . S
O720 C719 1.235 . S
C721 C723 1.400 . S
C721 N724 1.351 . S
C721 C726 1.501 . S
C722 C723 1.387 . S
C722 N725 1.341 . S
C723 C721 1.400 . S
C723 C722 1.387 . S
N724 Co715 2.022 . S
N724 C721 1.351 . S
N724 N725 1.365 . S
N725 C722 1.341 . S
N725 N724 1.365 . S
N725 H745 0.862 . S
C726 C721 1.501 . S
C726 H727 0.961 . S
C726 H728 0.961 . S
C726 H729 0.960 . S
H727 C726 0.961 . S
H728 C726 0.961 . S
H729 C726 0.960 . S
C730 N731 1.342 . S
C730 C734 1.401 . S
C730 C735 1.499 . S
N731 Co714 1.989 . S
N731 C730 1.342 . S
N731 N732 1.388 . S
N732 Co715 1.993 . S
N732 N731 1.388 . S
N732 C733 1.346 . S
C733 N732 1.346 . S
C733 C734 1.396 . S
C733 C743 1.510 . S
C734 C730 1.401 . S
C734 C733 1.396 . S
C735 C730 1.499 . S
C735 H736 0.959 . S
C735 H737 0.960 . S
C735 H738 0.961 . S
H736 C735 0.959 . S
H737 C735 0.960 . S
H738 C735 0.961 . S
O739 Co714 1.967 . S
O739 C747 1.258 . S
O740 Co715 1.941 . S
O740 C747 1.266 . S
H741 C743 0.959 . S
H742 C743 0.961 . S
C743 C733 1.510 . S
C743 H741 0.959 . S
C743 H742 0.961 . S
C743 H744 0.960 . S
H744 C743 0.960 . S
H745 N725 0.862 . S
O746 Co714 1.920 . S
O746 C719 1.289 . S
C747 O739 1.258 . S
C747 O740 1.266 . S
Co748 O751 1.970 . S
Co748 N765 1.989 . S
Co748 O773 1.967 . S
Co748 O780 1.920 . S
Co749 O752 1.966 . S
Co749 N758 2.022 . S
Co749 N766 1.993 . S
Co749 O774 1.941 . S
C750 O751 1.258 . S
C750 O752 1.263 . S
O751 Co748 1.970 . S
O751 C750 1.258 . S
O752 Co749 1.966 . S
O752 C750 1.263 . S
C753 O754 1.235 . S
C753 O780 1.289 . S
O754 C753 1.235 . S
C755 C757 1.400 . S
C755 N758 1.351 . S
C755 C760 1.501 . S
C756 C757 1.387 . S
C756 N759 1.341 . S
C757 C755 1.400 . S
C757 C756 1.387 . S
N758 Co749 2.022 . S
N758 C755 1.351 . S
N758 N759 1.365 . S
N759 C756 1.341 . S
N759 N758 1.365 . S
N759 H779 0.862 . S
C760 C755 1.501 . S
C760 H761 0.961 . S
C760 H762 0.961 . S
C760 H763 0.960 . S
H761 C760 0.961 . S
H762 C760 0.961 . S
H763 C760 0.960 . S
C764 N765 1.342 . S
C764 C768 1.401 . S
C764 C769 1.499 . S
N765 Co748 1.989 . S
N765 C764 1.342 . S
N765 N766 1.388 . S
N766 Co749 1.993 . S
N766 N765 1.388 . S
N766 C767 1.346 . S
C767 N766 1.346 . S
C767 C768 1.396 . S
C767 C777 1.510 . S
C768 C764 1.401 . S
C768 C767 1.396 . S
C769 C764 1.499 . S
C769 H770 0.959 . S
C769 H771 0.960 . S
C769 H772 0.961 . S
H770 C769 0.959 . S
H771 C769 0.960 . S
H772 C769 0.961 . S
O773 Co748 1.967 . S
O773 C781 1.258 . S
O774 Co749 1.941 . S
O774 C781 1.266 . S
H775 C777 0.959 . S
H776 C777 0.961 . S
C777 C767 1.510 . S
C777 H775 0.959 . S
C777 H776 0.961 . S
C777 H778 0.960 . S
H778 C777 0.960 . S
H779 N759 0.862 . S
O780 Co748 1.920 . S
O780 C753 1.289 . S
C781 O773 1.258 . S
C781 O774 1.266 . S
Co782 O785 1.970 . S
Co782 N799 1.989 . S
Co782 O807 1.967 . S
Co782 O814 1.920 . S
Co783 O786 1.966 . S
Co783 N792 2.022 . S
Co783 N800 1.993 . S
Co783 O808 1.941 . S
C784 O785 1.258 . S
C784 O786 1.263 . S
O785 Co782 1.970 . S
O785 C784 1.258 . S
O786 Co783 1.966 . S
O786 C784 1.263 . S
C787 O788 1.235 . S
C787 O814 1.289 . S
O788 C787 1.235 . S
C789 C791 1.400 . S
C789 N792 1.351 . S
C789 C794 1.501 . S
C790 C791 1.387 . S
C790 N793 1.341 . S
C791 C789 1.400 . S
C791 C790 1.387 . S
N792 Co783 2.022 . S
N792 C789 1.351 . S
N792 N793 1.365 . S
N793 C790 1.341 . S
N793 N792 1.365 . S
N793 H813 0.862 . S
C794 C789 1.501 . S
C794 H795 0.961 . S
C794 H796 0.961 . S
C794 H797 0.960 . S
H795 C794 0.961 . S
H796 C794 0.961 . S
H797 C794 0.960 . S
C798 N799 1.342 . S
C798 C802 1.401 . S
C798 C803 1.499 . S
N799 Co782 1.989 . S
N799 C798 1.342 . S
N799 N800 1.388 . S
N800 Co783 1.993 . S
N800 N799 1.388 . S
N800 C801 1.346 . S
C801 N800 1.346 . S
C801 C802 1.396 . S
C801 C811 1.510 . S
C802 C798 1.401 . S
C802 C801 1.396 . S
C803 C798 1.499 . S
C803 H804 0.959 . S
C803 H805 0.960 . S
C803 H806 0.961 . S
H804 C803 0.959 . S
H805 C803 0.960 . S
H806 C803 0.961 . S
O807 Co782 1.967 . S
O807 C815 1.258 . S
O808 Co783 1.941 . S
O808 C815 1.266 . S
H809 C811 0.959 . S
H810 C811 0.961 . S
C811 C801 1.510 . S
C811 H809 0.959 . S
C811 H810 0.961 . S
C811 H812 0.960 . S
H812 C811 0.960 . S
H813 N793 0.862 . S
O814 Co782 1.920 . S
O814 C787 1.289 . S
C815 O807 1.258 . S
C815 O808 1.266 . S
Co816 O819 1.970 . S
Co816 N833 1.989 . S
Co816 O841 1.967 . S
Co816 O848 1.920 . S
Co817 O820 1.966 . S
Co817 N826 2.022 . S
Co817 N834 1.993 . S
Co817 O842 1.941 . S
C818 O819 1.258 . S
C818 O820 1.263 . S
O819 Co816 1.970 . S
O819 C818 1.258 . S
O820 Co817 1.966 . S
O820 C818 1.263 . S
C821 O822 1.235 . S
C821 O848 1.289 . S
O822 C821 1.235 . S
C823 C825 1.400 . S
C823 N826 1.351 . S
C823 C828 1.501 . S
C824 C825 1.387 . S
C824 N827 1.341 . S
C825 C823 1.400 . S
C825 C824 1.387 . S
N826 Co817 2.022 . S
N826 C823 1.351 . S
N826 N827 1.365 . S
N827 C824 1.341 . S
N827 N826 1.365 . S
N827 H847 0.862 . S
C828 C823 1.501 . S
C828 H829 0.961 . S
C828 H830 0.961 . S
C828 H831 0.960 . S
H829 C828 0.961 . S
H830 C828 0.961 . S
H831 C828 0.960 . S
C832 N833 1.342 . S
C832 C836 1.401 . S
C832 C837 1.499 . S
N833 Co816 1.989 . S
N833 C832 1.342 . S
N833 N834 1.388 . S
N834 Co817 1.993 . S
N834 N833 1.388 . S
N834 C835 1.346 . S
C835 N834 1.346 . S
C835 C836 1.396 . S
C835 C845 1.510 . S
C836 C832 1.401 . S
C836 C835 1.396 . S
C837 C832 1.499 . S
C837 H838 0.959 . S
C837 H839 0.960 . S
C837 H840 0.961 . S
H838 C837 0.959 . S
H839 C837 0.960 . S
H840 C837 0.961 . S
O841 Co816 1.967 . S
O841 C849 1.258 . S
O842 Co817 1.941 . S
O842 C849 1.266 . S
H843 C845 0.959 . S
H844 C845 0.961 . S
C845 C835 1.510 . S
C845 H843 0.959 . S
C845 H844 0.961 . S
C845 H846 0.960 . S
H846 C845 0.960 . S
H847 N827 0.862 . S
O848 Co816 1.920 . S
O848 C821 1.289 . S
C849 O841 1.258 . S
C849 O842 1.266 . S
Co850 O853 1.970 . S
Co850 N867 1.989 . S
Co850 O875 1.967 . S
Co850 O882 1.920 . S
Co851 O854 1.966 . S
Co851 N860 2.022 . S
Co851 N868 1.993 . S
Co851 O876 1.941 . S
C852 O853 1.258 . S
C852 O854 1.263 . S
O853 Co850 1.970 . S
O853 C852 1.258 . S
O854 Co851 1.966 . S
O854 C852 1.263 . S
C855 O856 1.235 . S
C855 O882 1.289 . S
O856 C855 1.235 . S
C857 C859 1.400 . S
C857 N860 1.351 . S
C857 C862 1.501 . S
C858 C859 1.387 . S
C858 N861 1.341 . S
C859 C857 1.400 . S
C859 C858 1.387 . S
N860 Co851 2.022 . S
N860 C857 1.351 . S
N860 N861 1.365 . S
N861 C858 1.341 . S
N861 N860 1.365 . S
N861 H881 0.862 . S
C862 C857 1.501 . S
C862 H863 0.961 . S
C862 H864 0.961 . S
C862 H865 0.960 . S
H863 C862 0.961 . S
H864 C862 0.961 . S
H865 C862 0.960 . S
C866 N867 1.342 . S
C866 C870 1.401 . S
C866 C871 1.499 . S
N867 Co850 1.989 . S
N867 C866 1.342 . S
N867 N868 1.388 . S
N868 Co851 1.993 . S
N868 N867 1.388 . S
N868 C869 1.346 . S
C869 N868 1.346 . S
C869 C870 1.396 . S
C869 C879 1.510 . S
C870 C866 1.401 . S
C870 C869 1.396 . S
C871 C866 1.499 . S
C871 H872 0.959 . S
C871 H873 0.960 . S
C871 H874 0.961 . S
H872 C871 0.959 . S
H873 C871 0.960 . S
H874 C871 0.961 . S
O875 Co850 1.967 . S
O875 C883 1.258 . S
O876 Co851 1.941 . S
O876 C883 1.266 . S
H877 C879 0.959 . S
H878 C879 0.961 . S
C879 C869 1.510 . S
C879 H877 0.959 . S
C879 H878 0.961 . S
C879 H880 0.960 . S
H880 C879 0.960 . S
H881 N861 0.862 . S
O882 Co850 1.920 . S
O882 C855 1.289 . S
C883 O875 1.258 . S
C883 O876 1.266 . S
Co884 O887 1.970 . S
Co884 N901 1.989 . S
Co884 O909 1.967 . S
Co884 O916 1.920 . S
Co885 O888 1.966 . S
Co885 N894 2.022 . S
Co885 N902 1.993 . S
Co885 O910 1.941 . S
C886 O887 1.258 . S
C886 O888 1.263 . S
O887 Co884 1.970 . S
O887 C886 1.258 . S
O888 Co885 1.966 . S
O888 C886 1.263 . S
C889 O890 1.235 . S
C889 O916 1.289 . S
O890 C889 1.235 . S
C891 C893 1.400 . S
C891 N894 1.351 . S
C891 C896 1.501 . S
C892 C893 1.387 . S
C892 N895 1.341 . S
C893 C891 1.400 . S
C893 C892 1.387 . S
N894 Co885 2.022 . S
N894 C891 1.351 . S
N894 N895 1.365 . S
N895 C892 1.341 . S
N895 N894 1.365 . S
N895 H915 0.862 . S
C896 C891 1.501 . S
C896 H897 0.961 . S
C896 H898 0.961 . S
C896 H899 0.960 . S
H897 C896 0.961 . S
H898 C896 0.961 . S
H899 C896 0.960 . S
C900 N901 1.342 . S
C900 C904 1.401 . S
C900 C905 1.499 . S
N901 Co884 1.989 . S
N901 C900 1.342 . S
N901 N902 1.388 . S
N902 Co885 1.993 . S
N902 N901 1.388 . S
N902 C903 1.346 . S
C903 N902 1.346 . S
C903 C904 1.396 . S
C903 C913 1.510 . S
C904 C900 1.401 . S
C904 C903 1.396 . S
C905 C900 1.499 . S
C905 H906 0.959 . S
C905 H907 0.960 . S
C905 H908 0.961 . S
H906 C905 0.959 . S
H907 C905 0.960 . S
H908 C905 0.961 . S
O909 Co884 1.967 . S
O909 C917 1.258 . S
O910 Co885 1.941 . S
O910 C917 1.266 . S
H911 C913 0.959 . S
H912 C913 0.961 . S
C913 C903 1.510 . S
C913 H911 0.959 . S
C913 H912 0.961 . S
C913 H914 0.960 . S
H914 C913 0.960 . S
H915 N895 0.862 . S
O916 Co884 1.920 . S
O916 C889 1.289 . S
C917 O909 1.258 . S
C917 O910 1.266 . S
Co918 O921 1.970 . S
Co918 N935 1.989 . S
Co918 O943 1.967 . S
Co918 O950 1.920 . S
Co919 O922 1.966 . S
Co919 N928 2.022 . S
Co919 N936 1.993 . S
Co919 O944 1.941 . S
C920 O921 1.258 . S
C920 O922 1.263 . S
O921 Co918 1.970 . S
O921 C920 1.258 . S
O922 Co919 1.966 . S
O922 C920 1.263 . S
C923 O924 1.235 . S
C923 O950 1.289 . S
O924 C923 1.235 . S
C925 C927 1.400 . S
C925 N928 1.351 . S
C925 C930 1.501 . S
C926 C927 1.387 . S
C926 N929 1.341 . S
C927 C925 1.400 . S
C927 C926 1.387 . S
N928 Co919 2.022 . S
N928 C925 1.351 . S
N928 N929 1.365 . S
N929 C926 1.341 . S
N929 N928 1.365 . S
N929 H949 0.862 . S
C930 C925 1.501 . S
C930 H931 0.961 . S
C930 H932 0.961 . S
C930 H933 0.960 . S
H931 C930 0.961 . S
H932 C930 0.961 . S
H933 C930 0.960 . S
C934 N935 1.342 . S
C934 C938 1.401 . S
C934 C939 1.499 . S
N935 Co918 1.989 . S
N935 C934 1.342 . S
N935 N936 1.388 . S
N936 Co919 1.993 . S
N936 N935 1.388 . S
N936 C937 1.346 . S
C937 N936 1.346 . S
C937 C938 1.396 . S
C937 C947 1.510 . S
C938 C934 1.401 . S
C938 C937 1.396 . S
C939 C934 1.499 . S
C939 H940 0.959 . S
C939 H941 0.960 . S
C939 H942 0.961 . S
H940 C939 0.959 . S
H941 C939 0.960 . S
H942 C939 0.961 . S
O943 Co918 1.967 . S
O943 C951 1.258 . S
O944 Co919 1.941 . S
O944 C951 1.266 . S
H945 C947 0.959 . S
H946 C947 0.961 . S
C947 C937 1.510 . S
C947 H945 0.959 . S
C947 H946 0.961 . S
C947 H948 0.960 . S
H948 C947 0.960 . S
H949 N929 0.862 . S
O950 Co918 1.920 . S
O950 C923 1.289 . S
C951 O943 1.258 . S
C951 O944 1.266 . S
Co952 O955 1.970 . S
Co952 N969 1.989 . S
Co952 O977 1.967 . S
Co952 O984 1.920 . S
Co953 O956 1.966 . S
Co953 N962 2.022 . S
Co953 N970 1.993 . S
Co953 O978 1.941 . S
C954 O955 1.258 . S
C954 O956 1.263 . S
O955 Co952 1.970 . S
O955 C954 1.258 . S
O956 Co953 1.966 . S
O956 C954 1.263 . S
C957 O958 1.235 . S
C957 O984 1.289 . S
O958 C957 1.235 . S
C959 C961 1.400 . S
C959 N962 1.351 . S
C959 C964 1.501 . S
C960 C961 1.387 . S
C960 N963 1.341 . S
C961 C959 1.400 . S
C961 C960 1.387 . S
N962 Co953 2.022 . S
N962 C959 1.351 . S
N962 N963 1.365 . S
N963 C960 1.341 . S
N963 N962 1.365 . S
N963 H983 0.862 . S
C964 C959 1.501 . S
C964 H965 0.961 . S
C964 H966 0.961 . S
C964 H967 0.960 . S
H965 C964 0.961 . S
H966 C964 0.961 . S
H967 C964 0.960 . S
C968 N969 1.342 . S
C968 C972 1.401 . S
C968 C973 1.499 . S
N969 Co952 1.989 . S
N969 C968 1.342 . S
N969 N970 1.388 . S
N970 Co953 1.993 . S
N970 N969 1.388 . S
N970 C971 1.346 . S
C971 N970 1.346 . S
C971 C972 1.396 . S
C971 C981 1.510 . S
C972 C968 1.401 . S
C972 C971 1.396 . S
C973 C968 1.499 . S
C973 H974 0.959 . S
C973 H975 0.960 . S
C973 H976 0.961 . S
H974 C973 0.959 . S
H975 C973 0.960 . S
H976 C973 0.961 . S
O977 Co952 1.967 . S
O977 C985 1.258 . S
O978 Co953 1.941 . S
O978 C985 1.266 . S
H979 C981 0.959 . S
H980 C981 0.961 . S
C981 C971 1.510 . S
C981 H979 0.959 . S
C981 H980 0.961 . S
C981 H982 0.960 . S
H982 C981 0.960 . S
H983 N963 0.862 . S
O984 Co952 1.920 . S
O984 C957 1.289 . S
C985 O977 1.258 . S
C985 O978 1.266 . S
Co986 O989 1.970 . S
Co986 N1003 1.989 . S
Co986 O1011 1.967 . S
Co986 O1018 1.920 . S
Co987 O990 1.966 . S
Co987 N996 2.022 . S
Co987 N1004 1.993 . S
Co987 O1012 1.941 . S
C988 O989 1.258 . S
C988 O990 1.263 . S
O989 Co986 1.970 . S
O989 C988 1.258 . S
O990 Co987 1.966 . S
O990 C988 1.263 . S
C991 O992 1.235 . S
C991 O1018 1.289 . S
O992 C991 1.235 . S
C993 C995 1.400 . S
C993 N996 1.351 . S
C993 C998 1.501 . S
C994 C995 1.387 . S
C994 N997 1.341 . S
C995 C993 1.400 . S
C995 C994 1.387 . S
N996 Co987 2.022 . S
N996 C993 1.351 . S
N996 N997 1.365 . S
N997 C994 1.341 . S
N997 N996 1.365 . S
N997 H1017 0.862 . S
C998 C993 1.501 . S
C998 H999 0.961 . S
C998 H1000 0.961 . S
C998 H1001 0.960 . S
H999 C998 0.961 . S
H1000 C998 0.961 . S
H1001 C998 0.960 . S
C1002 N1003 1.342 . S
C1002 C1006 1.401 . S
C1002 C1007 1.499 . S
N1003 Co986 1.989 . S
N1003 C1002 1.342 . S
N1003 N1004 1.388 . S
N1004 Co987 1.993 . S
N1004 N1003 1.388 . S
N1004 C1005 1.346 . S
C1005 N1004 1.346 . S
C1005 C1006 1.396 . S
C1005 C1015 1.510 . S
C1006 C1002 1.401 . S
C1006 C1005 1.396 . S
C1007 C1002 1.499 . S
C1007 H1008 0.959 . S
C1007 H1009 0.960 . S
C1007 H1010 0.961 . S
H1008 C1007 0.959 . S
H1009 C1007 0.960 . S
H1010 C1007 0.961 . S
O1011 Co986 1.967 . S
O1011 C1019 1.258 . S
O1012 Co987 1.941 . S
O1012 C1019 1.266 . S
H1013 C1015 0.959 . S
H1014 C1015 0.961 . S
C1015 C1005 1.510 . S
C1015 H1013 0.959 . S
C1015 H1014 0.961 . S
C1015 H1016 0.960 . S
H1016 C1015 0.960 . S
H1017 N997 0.862 . S
O1018 Co986 1.920 . S
O1018 C991 1.289 . S
C1019 O1011 1.258 . S
C1019 O1012 1.266 . S
Co1020 O1023 1.970 . S
Co1020 N1037 1.989 . S
Co1020 O1045 1.967 . S
Co1020 O1052 1.920 . S
Co1021 O1024 1.966 . S
Co1021 N1030 2.022 . S
Co1021 N1038 1.993 . S
Co1021 O1046 1.941 . S
C1022 O1023 1.258 . S
C1022 O1024 1.263 . S
O1023 Co1020 1.970 . S
O1023 C1022 1.258 . S
O1024 Co1021 1.966 . S
O1024 C1022 1.263 . S
C1025 O1026 1.235 . S
C1025 O1052 1.289 . S
O1026 C1025 1.235 . S
C1027 C1029 1.400 . S
C1027 N1030 1.351 . S
C1027 C1032 1.501 . S
C1028 C1029 1.387 . S
C1028 N1031 1.341 . S
C1029 C1027 1.400 . S
C1029 C1028 1.387 . S
N1030 Co1021 2.022 . S
N1030 C1027 1.351 . S
N1030 N1031 1.365 . S
N1031 C1028 1.341 . S
N1031 N1030 1.365 . S
N1031 H1051 0.862 . S
C1032 C1027 1.501 . S
C1032 H1033 0.961 . S
C1032 H1034 0.961 . S
C1032 H1035 0.960 . S
H1033 C1032 0.961 . S
H1034 C1032 0.961 . S
H1035 C1032 0.960 . S
C1036 N1037 1.342 . S
C1036 C1040 1.401 . S
C1036 C1041 1.499 . S
N1037 Co1020 1.989 . S
N1037 C1036 1.342 . S
N1037 N1038 1.388 . S
N1038 Co1021 1.993 . S
N1038 N1037 1.388 . S
N1038 C1039 1.346 . S
C1039 N1038 1.346 . S
C1039 C1040 1.396 . S
C1039 C1049 1.510 . S
C1040 C1036 1.401 . S
C1040 C1039 1.396 . S
C1041 C1036 1.499 . S
C1041 H1042 0.959 . S
C1041 H1043 0.960 . S
C1041 H1044 0.961 . S
H1042 C1041 0.959 . S
H1043 C1041 0.960 . S
H1044 C1041 0.961 . S
O1045 Co1020 1.967 . S
O1045 C1053 1.258 . S
O1046 Co1021 1.941 . S
O1046 C1053 1.266 . S
H1047 C1049 0.959 . S
H1048 C1049 0.961 . S
C1049 C1039 1.510 . S
C1049 H1047 0.959 . S
C1049 H1048 0.961 . S
C1049 H1050 0.960 . S
H1050 C1049 0.960 . S
H1051 N1031 0.862 . S
O1052 Co1020 1.920 . S
O1052 C1025 1.289 . S
C1053 O1045 1.258 . S
C1053 O1046 1.266 . S
Co1054 O1057 1.970 . S
Co1054 N1071 1.989 . S
Co1054 O1079 1.967 . S
Co1054 O1086 1.920 . S
Co1055 O1058 1.966 . S
Co1055 N1064 2.022 . S
Co1055 N1072 1.993 . S
Co1055 O1080 1.941 . S
C1056 O1057 1.258 . S
C1056 O1058 1.263 . S
O1057 Co1054 1.970 . S
O1057 C1056 1.258 . S
O1058 Co1055 1.966 . S
O1058 C1056 1.263 . S
C1059 O1060 1.235 . S
C1059 O1086 1.289 . S
O1060 C1059 1.235 . S
C1061 C1063 1.400 . S
C1061 N1064 1.351 . S
C1061 C1066 1.501 . S
C1062 C1063 1.387 . S
C1062 N1065 1.341 . S
C1063 C1061 1.400 . S
C1063 C1062 1.387 . S
N1064 Co1055 2.022 . S
N1064 C1061 1.351 . S
N1064 N1065 1.365 . S
N1065 C1062 1.341 . S
N1065 N1064 1.365 . S
N1065 H1085 0.862 . S
C1066 C1061 1.501 . S
C1066 H1067 0.961 . S
C1066 H1068 0.961 . S
C1066 H1069 0.960 . S
H1067 C1066 0.961 . S
H1068 C1066 0.961 . S
H1069 C1066 0.960 . S
C1070 N1071 1.342 . S
C1070 C1074 1.401 . S
C1070 C1075 1.499 . S
N1071 Co1054 1.989 . S
N1071 C1070 1.342 . S
N1071 N1072 1.388 . S
N1072 Co1055 1.993 . S
N1072 N1071 1.388 . S
N1072 C1073 1.346 . S
C1073 N1072 1.346 . S
C1073 C1074 1.396 . S
C1073 C1083 1.510 . S
C1074 C1070 1.401 . S
C1074 C1073 1.396 . S
C1075 C1070 1.499 . S
C1075 H1076 0.959 . S
C1075 H1077 0.960 . S
C1075 H1078 0.961 . S
H1076 C1075 0.959 . S
H1077 C1075 0.960 . S
H1078 C1075 0.961 . S
O1079 Co1054 1.967 . S
O1079 C1087 1.258 . S
O1080 Co1055 1.941 . S
O1080 C1087 1.266 . S
H1081 C1083 0.959 . S
H1082 C1083 0.961 . S
C1083 C1073 1.510 . S
C1083 H1081 0.959 . S
C1083 H1082 0.961 . S
C1083 H1084 0.960 . S
H1084 C1083 0.960 . S
H1085 N1065 0.862 . S
O1086 Co1054 1.920 . S
O1086 C1059 1.289 . S
C1087 O1079 1.258 . S
C1087 O1080 1.266 . S
Co1088 O1091 1.970 . S
Co1088 N1105 1.989 . S
Co1088 O1113 1.967 . S
Co1088 O1120 1.920 . S
Co1089 O1092 1.966 . S
Co1089 N1098 2.022 . S
Co1089 N1106 1.993 . S
Co1089 O1114 1.941 . S
C1090 O1091 1.258 . S
C1090 O1092 1.263 . S
O1091 Co1088 1.970 . S
O1091 C1090 1.258 . S
O1092 Co1089 1.966 . S
O1092 C1090 1.263 . S
C1093 O1094 1.235 . S
C1093 O1120 1.289 . S
O1094 C1093 1.235 . S
C1095 C1097 1.400 . S
C1095 N1098 1.351 . S
C1095 C1100 1.501 . S
C1096 C1097 1.387 . S
C1096 N1099 1.341 . S
C1097 C1095 1.400 . S
C1097 C1096 1.387 . S
N1098 Co1089 2.022 . S
N1098 C1095 1.351 . S
N1098 N1099 1.365 . S
N1099 C1096 1.341 . S
N1099 N1098 1.365 . S
N1099 H1119 0.862 . S
C1100 C1095 1.501 . S
C1100 H1101 0.961 . S
C1100 H1102 0.961 . S
C1100 H1103 0.960 . S
H1101 C1100 0.961 . S
H1102 C1100 0.961 . S
H1103 C1100 0.960 . S
C1104 N1105 1.342 . S
C1104 C1108 1.401 . S
C1104 C1109 1.499 . S
N1105 Co1088 1.989 . S
N1105 C1104 1.342 . S
N1105 N1106 1.388 . S
N1106 Co1089 1.993 . S
N1106 N1105 1.388 . S
N1106 C1107 1.346 . S
C1107 N1106 1.346 . S
C1107 C1108 1.396 . S
C1107 C1117 1.510 . S
C1108 C1104 1.401 . S
C1108 C1107 1.396 . S
C1109 C1104 1.499 . S
C1109 H1110 0.959 . S
C1109 H1111 0.960 . S
C1109 H1112 0.961 . S
H1110 C1109 0.959 . S
H1111 C1109 0.960 . S
H1112 C1109 0.961 . S
O1113 Co1088 1.967 . S
O1113 C1121 1.258 . S
O1114 Co1089 1.941 . S
O1114 C1121 1.266 . S
H1115 C1117 0.959 . S
H1116 C1117 0.961 . S
C1117 C1107 1.510 . S
C1117 H1115 0.959 . S
C1117 H1116 0.961 . S
C1117 H1118 0.960 . S
H1118 C1117 0.960 . S
H1119 N1099 0.862 . S
O1120 Co1088 1.920 . S
O1120 C1093 1.289 . S
C1121 O1113 1.258 . S
C1121 O1114 1.266 . S
Co1122 O1125 1.970 . S
Co1122 N1139 1.989 . S
Co1122 O1147 1.967 . S
Co1122 O1154 1.920 . S
Co1123 O1126 1.966 . S
Co1123 N1132 2.022 . S
Co1123 N1140 1.993 . S
Co1123 O1148 1.941 . S
C1124 O1125 1.258 . S
C1124 O1126 1.263 . S
O1125 Co1122 1.970 . S
O1125 C1124 1.258 . S
O1126 Co1123 1.966 . S
O1126 C1124 1.263 . S
C1127 O1128 1.235 . S
C1127 O1154 1.289 . S
O1128 C1127 1.235 . S
C1129 C1131 1.400 . S
C1129 N1132 1.351 . S
C1129 C1134 1.501 . S
C1130 C1131 1.387 . S
C1130 N1133 1.341 . S
C1131 C1129 1.400 . S
C1131 C1130 1.387 . S
N1132 Co1123 2.022 . S
N1132 C1129 1.351 . S
N1132 N1133 1.365 . S
N1133 C1130 1.341 . S
N1133 N1132 1.365 . S
N1133 H1153 0.862 . S
C1134 C1129 1.501 . S
C1134 H1135 0.961 . S
C1134 H1136 0.961 . S
C1134 H1137 0.960 . S
H1135 C1134 0.961 . S
H1136 C1134 0.961 . S
H1137 C1134 0.960 . S
C1138 N1139 1.342 . S
C1138 C1142 1.401 . S
C1138 C1143 1.499 . S
N1139 Co1122 1.989 . S
N1139 C1138 1.342 . S
N1139 N1140 1.388 . S
N1140 Co1123 1.993 . S
N1140 N1139 1.388 . S
N1140 C1141 1.346 . S
C1141 N1140 1.346 . S
C1141 C1142 1.396 . S
C1141 C1151 1.510 . S
C1142 C1138 1.401 . S
C1142 C1141 1.396 . S
C1143 C1138 1.499 . S
C1143 H1144 0.959 . S
C1143 H1145 0.960 . S
C1143 H1146 0.961 . S
H1144 C1143 0.959 . S
H1145 C1143 0.960 . S
H1146 C1143 0.961 . S
O1147 Co1122 1.967 . S
O1147 C1155 1.258 . S
O1148 Co1123 1.941 . S
O1148 C1155 1.266 . S
H1149 C1151 0.959 . S
H1150 C1151 0.961 . S
C1151 C1141 1.510 . S
C1151 H1149 0.959 . S
C1151 H1150 0.961 . S
C1151 H1152 0.960 . S
H1152 C1151 0.960 . S
H1153 N1133 0.862 . S
O1154 Co1122 1.920 . S
O1154 C1127 1.289 . S
C1155 O1147 1.258 . S
C1155 O1148 1.266 . S
Co1156 O1159 1.970 . S
Co1156 N1173 1.989 . S
Co1156 O1181 1.967 . S
Co1156 O1188 1.920 . S
Co1157 O1160 1.966 . S
Co1157 N1166 2.022 . S
Co1157 N1174 1.993 . S
Co1157 O1182 1.941 . S
C1158 O1159 1.258 . S
C1158 O1160 1.263 . S
O1159 Co1156 1.970 . S
O1159 C1158 1.258 . S
O1160 Co1157 1.966 . S
O1160 C1158 1.263 . S
C1161 O1162 1.235 . S
C1161 O1188 1.289 . S
O1162 C1161 1.235 . S
C1163 C1165 1.400 . S
C1163 N1166 1.351 . S
C1163 C1168 1.501 . S
C1164 C1165 1.387 . S
C1164 N1167 1.341 . S
C1165 C1163 1.400 . S
C1165 C1164 1.387 . S
N1166 Co1157 2.022 . S
N1166 C1163 1.351 . S
N1166 N1167 1.365 . S
N1167 C1164 1.341 . S
N1167 N1166 1.365 . S
N1167 H1187 0.862 . S
C1168 C1163 1.501 . S
C1168 H1169 0.961 . S
C1168 H1170 0.961 . S
C1168 H1171 0.960 . S
H1169 C1168 0.961 . S
H1170 C1168 0.961 . S
H1171 C1168 0.960 . S
C1172 N1173 1.342 . S
C1172 C1176 1.401 . S
C1172 C1177 1.499 . S
N1173 Co1156 1.989 . S
N1173 C1172 1.342 . S
N1173 N1174 1.388 . S
N1174 Co1157 1.993 . S
N1174 N1173 1.388 . S
N1174 C1175 1.346 . S
C1175 N1174 1.346 . S
C1175 C1176 1.396 . S
C1175 C1185 1.510 . S
C1176 C1172 1.401 . S
C1176 C1175 1.396 . S
C1177 C1172 1.499 . S
C1177 H1178 0.959 . S
C1177 H1179 0.960 . S
C1177 H1180 0.961 . S
H1178 C1177 0.959 . S
H1179 C1177 0.960 . S
H1180 C1177 0.961 . S
O1181 Co1156 1.967 . S
O1181 C1189 1.258 . S
O1182 Co1157 1.941 . S
O1182 C1189 1.266 . S
H1183 C1185 0.959 . S
H1184 C1185 0.961 . S
C1185 C1175 1.510 . S
C1185 H1183 0.959 . S
C1185 H1184 0.961 . S
C1185 H1186 0.960 . S
H1186 C1185 0.960 . S
H1187 N1167 0.862 . S
O1188 Co1156 1.920 . S
O1188 C1161 1.289 . S
C1189 O1181 1.258 . S
C1189 O1182 1.266 . S
Co1190 O1193 1.970 . S
Co1190 N1207 1.989 . S
Co1190 O1215 1.967 . S
Co1190 O1222 1.920 . S
Co1191 O1194 1.966 . S
Co1191 N1200 2.022 . S
Co1191 N1208 1.993 . S
Co1191 O1216 1.941 . S
C1192 O1193 1.258 . S
C1192 O1194 1.263 . S
O1193 Co1190 1.970 . S
O1193 C1192 1.258 . S
O1194 Co1191 1.966 . S
O1194 C1192 1.263 . S
C1195 O1196 1.235 . S
C1195 O1222 1.289 . S
O1196 C1195 1.235 . S
C1197 C1199 1.400 . S
C1197 N1200 1.351 . S
C1197 C1202 1.501 . S
C1198 C1199 1.387 . S
C1198 N1201 1.341 . S
C1199 C1197 1.400 . S
C1199 C1198 1.387 . S
N1200 Co1191 2.022 . S
N1200 C1197 1.351 . S
N1200 N1201 1.365 . S
N1201 C1198 1.341 . S
N1201 N1200 1.365 . S
N1201 H1221 0.862 . S
C1202 C1197 1.501 . S
C1202 H1203 0.961 . S
C1202 H1204 0.961 . S
C1202 H1205 0.960 . S
H1203 C1202 0.961 . S
H1204 C1202 0.961 . S
H1205 C1202 0.960 . S
C1206 N1207 1.342 . S
C1206 C1210 1.401 . S
C1206 C1211 1.499 . S
N1207 Co1190 1.989 . S
N1207 C1206 1.342 . S
N1207 N1208 1.388 . S
N1208 Co1191 1.993 . S
N1208 N1207 1.388 . S
N1208 C1209 1.346 . S
C1209 N1208 1.346 . S
C1209 C1210 1.396 . S
C1209 C1219 1.510 . S
C1210 C1206 1.401 . S
C1210 C1209 1.396 . S
C1211 C1206 1.499 . S
C1211 H1212 0.959 . S
C1211 H1213 0.960 . S
C1211 H1214 0.961 . S
H1212 C1211 0.959 . S
H1213 C1211 0.960 . S
H1214 C1211 0.961 . S
O1215 Co1190 1.967 . S
O1215 C1223 1.258 . S
O1216 Co1191 1.941 . S
O1216 C1223 1.266 . S
H1217 C1219 0.959 . S
H1218 C1219 0.961 . S
C1219 C1209 1.510 . S
C1219 H1217 0.959 . S
C1219 H1218 0.961 . S
C1219 H1220 0.960 . S
H1220 C1219 0.960 . S
H1221 N1201 0.862 . S
O1222 Co1190 1.920 . S
O1222 C1195 1.289 . S
C1223 O1215 1.258 . S
C1223 O1216 1.266 . S
C1224 C1225 1.349 . S
C1224 C1226 1.327 . S
C1224 H1249 0.950 . S
C1225 C1224 1.349 . S
C1225 C1241 1.349 . S
C1226 C1224 1.327 . S
C1226 C1245 1.429 . S
C1226 H1250 0.950 . S
C1227 C1244 1.574 . S
C1227 C1246 1.368 . S
C1227 H1251 0.949 . S
H1228 C1232 0.949 . S
C1229 C1230 1.349 . S
C1229 C1231 1.327 . S
C1229 H1252 0.950 . S
C1230 C1229 1.349 . S
C1230 C1242 1.349 . S
C1231 C1229 1.327 . S
C1231 C1247 1.429 1_565 S
C1231 H1253 0.950 . S
C1232 H1228 0.949 . S
C1232 C1240 1.574 . S
C1232 C1248 1.368 . S
H1233 C1241 0.950 . S
H1234 C1239 0.950 . S
H1235 C1240 0.949 . S
H1236 C1242 0.950 . S
H1237 C1243 0.950 . S
H1238 C1244 0.949 . S
C1239 H1234 0.950 . S
C1239 C1241 1.327 . S
C1239 C1245 1.429 . S
C1240 C1232 1.574 . S
C1240 H1235 0.949 . S
C1240 C1246 1.368 . S
C1241 C1225 1.349 . S
C1241 H1233 0.950 . S
C1241 C1239 1.327 . S
C1242 C1230 1.349 . S
C1242 H1236 0.950 . S
C1242 C1243 1.327 1_565 S
C1243 H1237 0.950 . S
C1243 C1242 1.327 1_545 S
C1243 C1247 1.429 . S
C1244 C1227 1.574 . S
C1244 H1238 0.949 . S
C1244 C1248 1.368 . S
C1245 C1226 1.429 . S
C1245 C1239 1.429 . S
C1245 C1246 1.523 . S
C1246 C1227 1.368 . S
C1246 C1240 1.368 . S
C1246 C1245 1.523 . S
C1247 C1231 1.429 1_545 S
C1247 C1243 1.429 . S
C1247 C1248 1.523 . S
C1248 C1232 1.368 . S
C1248 C1244 1.368 . S
C1248 C1247 1.523 . S
H1249 C1224 0.950 . S
H1250 C1226 0.950 . S
H1251 C1227 0.949 . S
H1252 C1229 0.950 . S
H1253 C1231 0.950 . S
C1254 C1255 1.349 . S
C1254 C1256 1.327 1_455 S
C1254 H1279 0.950 . S
C1255 C1254 1.349 . S
C1255 C1271 1.349 . S
C1256 C1254 1.327 1_655 S
C1256 C1275 1.429 . S
C1256 H1280 0.950 . S
C1257 C1274 1.574 . S
C1257 C1276 1.368 . S
C1257 H1281 0.949 . S
H1258 C1262 0.949 . S
C1259 C1260 1.349 . S
C1259 C1261 1.327 . S
C1259 H1282 0.950 . S
C1260 C1259 1.349 . S
C1260 C1272 1.349 . S
C1261 C1259 1.327 . S
C1261 C1277 1.429 1_565 S
C1261 H1283 0.950 . S
C1262 H1258 0.949 . S
C1262 C1270 1.574 . S
C1262 C1278 1.368 . S
H1263 C1271 0.950 . S
H1264 C1269 0.950 . S
H1265 C1270 0.949 . S
H1266 C1272 0.950 . S
H1267 C1273 0.950 . S
H1268 C1274 0.949 . S
C1269 H1264 0.950 . S
C1269 C1271 1.327 1_655 S
C1269 C1275 1.429 . S
C1270 C1262 1.574 . S
C1270 H1265 0.949 . S
C1270 C1276 1.368 . S
C1271 C1255 1.349 . S
C1271 H1263 0.950 . S
C1271 C1269 1.327 1_455 S
C1272 C1260 1.349 . S
C1272 H1266 0.950 . S
C1272 C1273 1.327 1_565 S
C1273 H1267 0.950 . S
C1273 C1272 1.327 1_545 S
C1273 C1277 1.429 . S
C1274 C1257 1.574 . S
C1274 H1268 0.949 . S
C1274 C1278 1.368 . S
C1275 C1256 1.429 . S
C1275 C1269 1.429 . S
C1275 C1276 1.523 . S
C1276 C1257 1.368 . S
C1276 C1270 1.368 . S
C1276 C1275 1.523 . S
C1277 C1261 1.429 1_545 S
C1277 C1273 1.429 . S
C1277 C1278 1.523 . S
C1278 C1262 1.368 . S
C1278 C1274 1.368 . S
C1278 C1277 1.523 . S
H1279 C1254 0.950 . S
H1280 C1256 0.950 . S
H1281 C1257 0.949 . S
H1282 C1259 0.950 . S
H1283 C1261 0.950 . S
C1284 C1285 1.349 . S
C1284 C1286 1.327 . S
C1284 H1309 0.950 . S
C1285 C1284 1.349 . S
C1285 C1301 1.349 . S
C1286 C1284 1.327 . S
C1286 C1305 1.429 . S
C1286 H1310 0.950 . S
C1287 C1304 1.574 . S
C1287 C1306 1.368 . S
C1287 H1311 0.949 . S
H1288 C1292 0.949 . S
C1289 C1290 1.349 . S
C1289 C1291 1.327 1_455 S
C1289 H1312 0.950 . S
C1290 C1289 1.349 . S
C1290 C1302 1.349 . S
C1291 C1289 1.327 1_655 S
C1291 C1307 1.429 . S
C1291 H1313 0.950 . S
C1292 H1288 0.949 . S
C1292 C1300 1.574 . S
C1292 C1308 1.368 . S
H1293 C1301 0.950 . S
H1294 C1299 0.950 . S
H1295 C1300 0.949 . S
H1296 C1302 0.950 . S
H1297 C1303 0.950 . S
H1298 C1304 0.949 . S
C1299 H1294 0.950 . S
C1299 C1301 1.327 . S
C1299 C1305 1.429 . S
C1300 C1292 1.574 . S
C1300 H1295 0.949 . S
C1300 C1306 1.368 . S
C1301 C1285 1.349 . S
C1301 H1293 0.950 . S
C1301 C1299 1.327 . S
C1302 C1290 1.349 . S
C1302 H1296 0.950 . S
C1302 C1303 1.327 . S
C1303 H1297 0.950 . S
C1303 C1302 1.327 . S
C1303 C1307 1.429 1_455 S
C1304 C1287 1.574 . S
C1304 H1298 0.949 . S
C1304 C1308 1.368 . S
C1305 C1286 1.429 . S
C1305 C1299 1.429 . S
C1305 C1306 1.523 . S
C1306 C1287 1.368 . S
C1306 C1300 1.368 . S
C1306 C1305 1.523 . S
C1307 C1291 1.429 . S
C1307 C1303 1.429 1_655 S
C1307 C1308 1.523 . S
C1308 C1292 1.368 . S
C1308 C1304 1.368 . S
C1308 C1307 1.523 . S
H1309 C1284 0.950 . S
H1310 C1286 0.950 . S
H1311 C1287 0.949 . S
H1312 C1289 0.950 . S
H1313 C1291 0.950 . S
C1314 C1315 1.349 . S
C1314 C1316 1.327 . S
C1314 H1339 0.950 . S
C1315 C1314 1.349 . S
C1315 C1331 1.349 1_655 S
C1316 C1314 1.327 . S
C1316 C1335 1.429 1_655 S
C1316 H1340 0.950 . S
C1317 C1334 1.574 . S
C1317 C1336 1.368 . S
C1317 H1341 0.949 . S
H1318 C1322 0.949 . S
C1319 C1320 1.349 . S
C1319 C1321 1.327 . S
C1319 H1342 0.950 . S
C1320 C1319 1.349 . S
C1320 C1332 1.349 . S
C1321 C1319 1.327 . S
C1321 C1337 1.429 . S
C1321 H1343 0.950 . S
C1322 H1318 0.949 . S
C1322 C1330 1.574 . S
C1322 C1338 1.368 . S
H1323 C1331 0.950 . S
H1324 C1329 0.950 . S
H1325 C1330 0.949 . S
H1326 C1332 0.950 . S
H1327 C1333 0.950 . S
H1328 C1334 0.949 . S
C1329 H1324 0.950 . S
C1329 C1331 1.327 . S
C1329 C1335 1.429 . S
C1330 C1322 1.574 . S
C1330 H1325 0.949 . S
C1330 C1336 1.368 . S
C1331 C1315 1.349 1_455 S
C1331 H1323 0.950 . S
C1331 C1329 1.327 . S
C1332 C1320 1.349 . S
C1332 H1326 0.950 . S
C1332 C1333 1.327 . S
C1333 H1327 0.950 . S
C1333 C1332 1.327 . S
C1333 C1337 1.429 . S
C1334 C1317 1.574 . S
C1334 H1328 0.949 . S
C1334 C1338 1.368 . S
C1335 C1316 1.429 1_455 S
C1335 C1329 1.429 . S
C1335 C1336 1.523 . S
C1336 C1317 1.368 . S
C1336 C1330 1.368 . S
C1336 C1335 1.523 . S
C1337 C1321 1.429 . S
C1337 C1333 1.429 . S
C1337 C1338 1.523 . S
C1338 C1322 1.368 . S
C1338 C1334 1.368 . S
C1338 C1337 1.523 . S
H1339 C1314 0.950 . S
H1340 C1316 0.950 . S
H1341 C1317 0.949 . S
H1342 C1319 0.950 . S
H1343 C1321 0.950 . S
C1344 C1345 1.349 . S
C1344 C1346 1.327 . S
C1344 H1369 0.950 . S
C1345 C1344 1.349 . S
C1345 C1361 1.349 . S
C1346 C1344 1.327 . S
C1346 C1365 1.429 . S
C1346 H1370 0.950 . S
C1347 C1364 1.574 . S
C1347 C1366 1.368 . S
C1347 H1371 0.949 . S
H1348 C1352 0.949 . S
C1349 C1350 1.349 . S
C1349 C1351 1.327 1_545 S
C1349 H1372 0.950 . S
C1350 C1349 1.349 . S
C1350 C1362 1.349 . S
C1351 C1349 1.327 1_565 S
C1351 C1367 1.429 . S
C1351 H1373 0.950 . S
C1352 H1348 0.949 . S
C1352 C1360 1.574 . S
C1352 C1368 1.368 . S
H1353 C1361 0.950 . S
H1354 C1359 0.950 . S
H1355 C1360 0.949 . S
H1356 C1362 0.950 . S
H1357 C1363 0.950 . S
H1358 C1364 0.949 . S
C1359 H1354 0.950 . S
C1359 C1361 1.327 . S
C1359 C1365 1.429 . S
C1360 C1352 1.574 . S
C1360 H1355 0.949 . S
C1360 C1366 1.368 . S
C1361 C1345 1.349 . S
C1361 H1353 0.950 . S
C1361 C1359 1.327 . S
C1362 C1350 1.349 . S
C1362 H1356 0.950 . S
C1362 C1363 1.327 . S
C1363 H1357 0.950 . S
C1363 C1362 1.327 . S
C1363 C1367 1.429 1_545 S
C1364 C1347 1.574 . S
C1364 H1358 0.949 . S
C1364 C1368 1.368 . S
C1365 C1346 1.429 . S
C1365 C1359 1.429 . S
C1365 C1366 1.523 . S
C1366 C1347 1.368 . S
C1366 C1360 1.368 . S
C1366 C1365 1.523 . S
C1367 C1351 1.429 . S
C1367 C1363 1.429 1_565 S
C1367 C1368 1.523 . S
C1368 C1352 1.368 . S
C1368 C1364 1.368 . S
C1368 C1367 1.523 . S
H1369 C1344 0.950 . S
H1370 C1346 0.950 . S
H1371 C1347 0.949 . S
H1372 C1349 0.950 . S
H1373 C1351 0.950 . S
C1374 C1375 1.349 . S
C1374 C1376 1.327 1_545 S
C1374 H1399 0.950 . S
C1375 C1374 1.349 . S
C1375 C1391 1.349 . S
C1376 C1374 1.327 1_565 S
C1376 C1395 1.429 . S
C1376 H1400 0.950 . S
C1377 C1394 1.574 . S
C1377 C1396 1.368 . S
C1377 H1401 0.949 . S
H1378 C1382 0.949 . S
C1379 C1380 1.349 . S
C1379 C1381 1.327 . S
C1379 H1402 0.950 . S
C1380 C1379 1.349 . S
C1380 C1392 1.349 . S
C1381 C1379 1.327 . S
C1381 C1397 1.429 1_655 S
C1381 H1403 0.950 . S
C1382 H1378 0.949 . S
C1382 C1390 1.574 . S
C1382 C1398 1.368 . S
H1383 C1391 0.950 . S
H1384 C1389 0.950 . S
H1385 C1390 0.949 . S
H1386 C1392 0.950 . S
H1387 C1393 0.950 . S
H1388 C1394 0.949 . S
C1389 H1384 0.950 . S
C1389 C1391 1.327 1_565 S
C1389 C1395 1.429 . S
C1390 C1382 1.574 . S
C1390 H1385 0.949 . S
C1390 C1396 1.368 . S
C1391 C1375 1.349 . S
C1391 H1383 0.950 . S
C1391 C1389 1.327 1_545 S
C1392 C1380 1.349 . S
C1392 H1386 0.950 . S
C1392 C1393 1.327 1_655 S
C1393 H1387 0.950 . S
C1393 C1392 1.327 1_455 S
C1393 C1397 1.429 . S
C1394 C1377 1.574 . S
C1394 H1388 0.949 . S
C1394 C1398 1.368 . S
C1395 C1376 1.429 . S
C1395 C1389 1.429 . S
C1395 C1396 1.523 . S
C1396 C1377 1.368 . S
C1396 C1390 1.368 . S
C1396 C1395 1.523 . S
C1397 C1381 1.429 1_455 S
C1397 C1393 1.429 . S
C1397 C1398 1.523 . S
C1398 C1382 1.368 . S
C1398 C1394 1.368 . S
C1398 C1397 1.523 . S
H1399 C1374 0.950 . S
H1400 C1376 0.950 . S
H1401 C1377 0.949 . S
H1402 C1379 0.950 . S
H1403 C1381 0.950 . S
C1404 C1405 1.349 . S
C1404 C1406 1.327 1_545 S
C1404 H1429 0.950 . S
C1405 C1404 1.349 . S
C1405 C1421 1.349 . S
C1406 C1404 1.327 1_565 S
C1406 C1425 1.429 . S
C1406 H1430 0.950 . S
C1407 C1424 1.574 . S
C1407 C1426 1.368 . S
C1407 H1431 0.949 . S
H1408 C1412 0.949 . S
C1409 C1410 1.349 . S
C1409 C1411 1.327 . S
C1409 H1432 0.950 . S
C1410 C1409 1.349 . S
C1410 C1422 1.349 . S
C1411 C1409 1.327 . S
C1411 C1427 1.429 . S
C1411 H1433 0.950 . S
C1412 H1408 0.949 . S
C1412 C1420 1.574 . S
C1412 C1428 1.368 . S
H1413 C1421 0.950 . S
H1414 C1419 0.950 . S
H1415 C1420 0.949 . S
H1416 C1422 0.950 . S
H1417 C1423 0.950 . S
H1418 C1424 0.949 . S
C1419 H1414 0.950 . S
C1419 C1421 1.327 1_565 S
C1419 C1425 1.429 . S
C1420 C1412 1.574 . S
C1420 H1415 0.949 . S
C1420 C1426 1.368 . S
C1421 C1405 1.349 . S
C1421 H1413 0.950 . S
C1421 C1419 1.327 1_545 S
C1422 C1410 1.349 . S
C1422 H1416 0.950 . S
C1422 C1423 1.327 . S
C1423 H1417 0.950 . S
C1423 C1422 1.327 . S
C1423 C1427 1.429 . S
C1424 C1407 1.574 . S
C1424 H1418 0.949 . S
C1424 C1428 1.368 . S
C1425 C1406 1.429 . S
C1425 C1419 1.429 . S
C1425 C1426 1.523 . S
C1426 C1407 1.368 . S
C1426 C1420 1.368 . S
C1426 C1425 1.523 . S
C1427 C1411 1.429 . S
C1427 C1423 1.429 . S
C1427 C1428 1.523 . S
C1428 C1412 1.368 . S
C1428 C1424 1.368 . S
C1428 C1427 1.523 . S
H1429 C1404 0.950 . S
H1430 C1406 0.950 . S
H1431 C1407 0.949 . S
H1432 C1409 0.950 . S
H1433 C1411 0.950 . S
C1434 C1435 1.349 . S
C1434 C1436 1.327 1_545 S
C1434 H1459 0.950 . S
C1435 C1434 1.349 . S
C1435 C1451 1.349 . S
C1436 C1434 1.327 1_565 S
C1436 C1455 1.429 . S
C1436 H1460 0.950 . S
C1437 C1454 1.574 . S
C1437 C1456 1.368 . S
C1437 H1461 0.949 . S
H1438 C1442 0.949 . S
C1439 C1440 1.349 . S
C1439 C1441 1.327 1_655 S
C1439 H1462 0.950 . S
C1440 C1439 1.349 . S
C1440 C1452 1.349 . S
C1441 C1439 1.327 1_455 S
C1441 C1457 1.429 . S
C1441 H1463 0.950 . S
C1442 H1438 0.949 . S
C1442 C1450 1.574 . S
C1442 C1458 1.368 . S
H1443 C1451 0.950 . S
H1444 C1449 0.950 . S
H1445 C1450 0.949 . S
H1446 C1452 0.950 . S
H1447 C1453 0.950 . S
H1448 C1454 0.949 . S
C1449 H1444 0.950 . S
C1449 C1451 1.327 . S
C1449 C1455 1.429 1_545 S
C1450 C1442 1.574 . S
C1450 H1445 0.949 . S
C1450 C1456 1.368 . S
C1451 C1435 1.349 . S
C1451 H1443 0.950 . S
C1451 C1449 1.327 . S
C1452 C1440 1.349 . S
C1452 H1446 0.950 . S
C1452 C1453 1.327 1_655 S
C1453 H1447 0.950 . S
C1453 C1452 1.327 1_455 S
C1453 C1457 1.429 . S
C1454 C1437 1.574 . S
C1454 H1448 0.949 . S
C1454 C1458 1.368 . S
C1455 C1436 1.429 . S
C1455 C1449 1.429 1_565 S
C1455 C1456 1.523 . S
C1456 C1437 1.368 . S
C1456 C1450 1.368 . S
C1456 C1455 1.523 . S
C1457 C1441 1.429 . S
C1457 C1453 1.429 . S
C1457 C1458 1.523 . S
C1458 C1442 1.368 . S
C1458 C1454 1.368 . S
C1458 C1457 1.523 . S
H1459 C1434 0.950 . S
H1460 C1436 0.950 . S
H1461 C1437 0.949 . S
H1462 C1439 0.950 . S
H1463 C1441 0.950 . S
C1464 C1465 1.349 . S
C1464 C1466 1.327 . S
C1464 H1489 0.950 . S
C1465 C1464 1.349 . S
C1465 C1481 1.349 . S
C1466 C1464 1.327 . S
C1466 C1485 1.429 . S
C1466 H1490 0.950 . S
C1467 C1484 1.574 . S
C1467 C1486 1.368 . S
C1467 H1491 0.949 . S
H1468 C1472 0.949 . S
C1469 C1470 1.349 . S
C1469 C1471 1.327 . S
C1469 H1492 0.950 . S
C1470 C1469 1.349 . S
C1470 C1482 1.349 . S
C1471 C1469 1.327 . S
C1471 C1487 1.429 1_655 S
C1471 H1493 0.932 1_655 S
C1472 H1468 0.949 . S
C1472 C1480 1.574 . S
C1472 C1488 1.368 . S
H1473 C1481 0.950 . S
H1474 C1479 0.950 . S
H1475 C1480 0.949 . S
H1476 C1482 0.950 . S
H1477 C1483 0.950 . S
H1478 C1484 0.949 . S
C1479 H1474 0.950 . S
C1479 C1481 1.327 . S
C1479 C1485 1.429 . S
C1480 C1472 1.574 . S
C1480 H1475 0.949 . S
C1480 C1486 1.368 . S
C1481 C1465 1.349 . S
C1481 H1473 0.950 . S
C1481 C1479 1.327 . S
C1482 C1470 1.349 . S
C1482 H1476 0.950 . S
C1482 C1483 1.327 1_655 S
C1483 H1477 0.950 . S
C1483 C1482 1.327 1_455 S
C1483 C1487 1.429 . S
C1484 C1467 1.574 . S
C1484 H1478 0.949 . S
C1484 C1488 1.368 . S
C1485 C1466 1.429 . S
C1485 C1479 1.429 . S
C1485 C1486 1.523 . S
C1486 C1467 1.368 . S
C1486 C1480 1.368 . S
C1486 C1485 1.523 . S
C1487 C1471 1.429 1_455 S
C1487 C1483 1.429 . S
C1487 C1488 1.523 . S
C1488 C1472 1.368 . S
C1488 C1484 1.368 . S
C1488 C1487 1.523 . S
H1489 C1464 0.950 . S
H1490 C1466 0.950 . S
H1491 C1467 0.949 . S
H1492 C1469 0.950 . S
H1493 C1471 0.932 1_455 S
C1494 C1495 1.349 . S
C1494 C1496 1.327 1_455 S
C1494 H1519 0.950 . S
C1495 C1494 1.349 . S
C1495 C1511 1.349 . S
C1496 C1494 1.327 1_655 S
C1496 C1515 1.429 . S
C1496 H1520 0.950 . S
C1497 C1514 1.574 . S
C1497 C1516 1.368 . S
C1497 H1521 0.949 . S
H1498 C1502 0.949 . S
C1499 C1500 1.349 . S
C1499 C1501 1.327 . S
C1499 H1522 0.950 . S
C1500 C1499 1.349 . S
C1500 C1512 1.349 . S
C1501 C1499 1.327 . S
C1501 C1517 1.429 . S
C1501 H1523 0.950 . S
C1502 H1498 0.949 . S
C1502 C1510 1.574 . S
C1502 C1518 1.368 . S
H1503 C1511 0.950 . S
H1504 C1509 0.950 . S
H1505 C1510 0.949 . S
H1506 C1512 0.950 . S
H1507 C1513 0.950 . S
H1508 C1514 0.949 . S
C1509 H1504 0.950 . S
C1509 C1511 1.327 1_655 S
C1509 C1515 1.429 . S
C1510 C1502 1.574 . S
C1510 H1505 0.949 . S
C1510 C1516 1.368 . S
C1511 C1495 1.349 . S
C1511 H1503 0.950 . S
C1511 C1509 1.327 1_455 S
C1512 C1500 1.349 . S
C1512 H1506 0.950 . S
C1512 C1513 1.327 . S
C1513 H1507 0.950 . S
C1513 C1512 1.327 . S
C1513 C1517 1.429 . S
C1514 C1497 1.574 . S
C1514 H1508 0.949 . S
C1514 C1518 1.368 . S
C1515 C1496 1.429 . S
C1515 C1509 1.429 . S
C1515 C1516 1.523 . S
C1516 C1497 1.368 . S
C1516 C1510 1.368 . S
C1516 C1515 1.523 . S
C1517 C1501 1.429 . S
C1517 C1513 1.429 . S
C1517 C1518 1.523 . S
C1518 C1502 1.368 . S
C1518 C1514 1.368 . S
C1518 C1517 1.523 . S
H1519 C1494 0.950 . S
H1520 C1496 0.950 . S
H1521 C1497 0.949 . S
H1522 C1499 0.950 . S
H1523 C1501 0.950 . S
C1524 C1525 1.349 . S
C1524 C1526 1.327 . S
C1524 H1549 0.950 . S
C1525 C1524 1.349 . S
C1525 C1541 1.349 . S
C1526 C1524 1.327 . S
C1526 C1545 1.429 1_565 S
C1526 H1550 0.950 . S
C1527 C1544 1.574 . S
C1527 C1546 1.368 . S
C1527 H1551 0.949 . S
H1528 C1532 0.949 . S
C1529 C1530 1.349 . S
C1529 C1531 1.327 . S
C1529 H1552 0.950 . S
C1530 C1529 1.349 . S
C1530 C1542 1.349 . S
C1531 C1529 1.327 . S
C1531 C1547 1.429 . S
C1531 H1553 0.950 . S
C1532 H1528 0.949 . S
C1532 C1540 1.574 . S
C1532 C1548 1.368 . S
H1533 C1541 0.950 . S
H1534 C1539 0.950 . S
H1535 C1540 0.949 . S
H1536 C1542 0.950 . S
H1537 C1543 0.950 . S
H1538 C1544 0.949 . S
C1539 H1534 0.950 . S
C1539 C1541 1.327 1_545 S
C1539 C1545 1.429 . S
C1540 C1532 1.574 . S
C1540 H1535 0.949 . S
C1540 C1546 1.368 . S
C1541 C1525 1.349 . S
C1541 H1533 0.950 . S
C1541 C1539 1.327 1_565 S
C1542 C1530 1.349 . S
C1542 H1536 0.950 . S
C1542 C1543 1.327 . S
C1543 H1537 0.950 . S
C1543 C1542 1.327 . S
C1543 C1547 1.429 . S
C1544 C1527 1.574 . S
C1544 H1538 0.949 . S
C1544 C1548 1.368 . S
C1545 C1526 1.429 1_545 S
C1545 C1539 1.429 . S
C1545 C1546 1.523 . S
C1546 C1527 1.368 . S
C1546 C1540 1.368 . S
C1546 C1545 1.523 . S
C1547 C1531 1.429 . S
C1547 C1543 1.429 . S
C1547 C1548 1.523 . S
C1548 C1532 1.368 . S
C1548 C1544 1.368 . S
C1548 C1547 1.523 . S
H1549 C1524 0.950 . S
H1550 C1526 0.950 . S
H1551 C1527 0.949 . S
H1552 C1529 0.950 . S
H1553 C1531 0.950 . S
C1554 C1555 1.349 . S
C1554 C1556 1.327 1_565 S
C1554 H1579 0.937 1_565 S
C1555 C1554 1.349 . S
C1555 C1571 1.349 . S
C1556 C1554 1.327 1_545 S
C1556 C1575 1.429 . S
C1556 H1580 0.950 . S
C1557 C1574 1.574 . S
C1557 C1576 1.368 . S
C1557 H1581 0.949 . S
H1558 C1562 0.949 . S
C1559 C1560 1.349 . S
C1559 C1561 1.327 . S
C1559 H1582 0.950 . S
C1560 C1559 1.349 . S
C1560 C1572 1.349 . S
C1561 C1559 1.327 . S
C1561 C1577 1.429 1_455 S
C1561 H1583 0.953 1_455 S
C1562 H1558 0.949 . S
C1562 C1570 1.574 . S
C1562 C1578 1.368 . S
H1563 C1571 0.950 . S
H1564 C1569 0.950 . S
H1565 C1570 0.949 . S
H1566 C1572 0.950 . S
H1567 C1573 0.950 . S
H1568 C1574 0.949 . S
C1569 H1564 0.950 . S
C1569 C1571 1.327 . S
C1569 C1575 1.429 1_565 S
C1570 C1562 1.574 . S
C1570 H1565 0.949 . S
C1570 C1576 1.368 . S
C1571 C1555 1.349 . S
C1571 H1563 0.950 . S
C1571 C1569 1.327 . S
C1572 C1560 1.349 . S
C1572 H1566 0.950 . S
C1572 C1573 1.327 1_455 S
C1573 H1567 0.950 . S
C1573 C1572 1.327 1_655 S
C1573 C1577 1.429 . S
C1574 C1557 1.574 . S
C1574 H1568 0.949 . S
C1574 C1578 1.368 . S
C1575 C1556 1.429 . S
C1575 C1569 1.429 1_545 S
C1575 C1576 1.523 . S
C1576 C1557 1.368 . S
C1576 C1570 1.368 . S
C1576 C1575 1.523 . S
C1577 C1561 1.429 1_655 S
C1577 C1573 1.429 . S
C1577 C1578 1.523 . S
C1578 C1562 1.368 . S
C1578 C1574 1.368 . S
C1578 C1577 1.523 . S
H1579 C1554 0.937 1_545 S
H1580 C1556 0.950 . S
H1581 C1557 0.949 . S
H1582 C1559 0.950 . S
H1583 C1561 0.953 1_655 S
C1584 C1585 1.349 . S
C1584 C1586 1.327 . S
C1584 H1609 0.950 . S
C1585 C1584 1.349 . S
C1585 C1601 1.349 . S
C1586 C1584 1.327 . S
C1586 C1605 1.429 . S
C1586 H1610 0.950 . S
C1587 C1604 1.574 . S
C1587 C1606 1.368 . S
C1587 H1611 0.949 . S
H1588 C1592 0.949 . S
C1589 C1590 1.349 . S
C1589 C1591 1.327 . S
C1589 H1612 0.950 . S
C1590 C1589 1.349 . S
C1590 C1602 1.349 . S
C1591 C1589 1.327 . S
C1591 C1607 1.429 . S
C1591 H1613 0.950 . S
C1592 H1588 0.949 . S
C1592 C1600 1.574 . S
C1592 C1608 1.368 . S
H1593 C1601 0.950 . S
H1594 C1599 0.950 . S
H1595 C1600 0.949 . S
H1596 C1602 0.950 . S
H1597 C1603 0.950 . S
H1598 C1604 0.949 . S
C1599 H1594 0.950 . S
C1599 C1601 1.327 . S
C1599 C1605 1.429 . S
C1600 C1592 1.574 . S
C1600 H1595 0.949 . S
C1600 C1606 1.368 . S
C1601 C1585 1.349 . S
C1601 H1593 0.950 . S
C1601 C1599 1.327 . S
C1602 C1590 1.349 . S
C1602 H1596 0.950 . S
C1602 C1603 1.327 . S
C1603 H1597 0.950 . S
C1603 C1602 1.327 . S
C1603 C1607 1.429 . S
C1604 C1587 1.574 . S
C1604 H1598 0.949 . S
C1604 C1608 1.368 . S
C1605 C1586 1.429 . S
C1605 C1599 1.429 . S
C1605 C1606 1.523 . S
C1606 C1587 1.368 . S
C1606 C1600 1.368 . S
C1606 C1605 1.523 . S
C1607 C1591 1.429 . S
C1607 C1603 1.429 . S
C1607 C1608 1.523 . S
C1608 C1592 1.368 . S
C1608 C1604 1.368 . S
C1608 C1607 1.523 . S
H1609 C1584 0.950 . S
H1610 C1586 0.950 . S
H1611 C1587 0.949 . S
H1612 C1589 0.950 . S
H1613 C1591 0.950 . S
C1614 C1615 1.349 . S
C1614 C1616 1.327 . S
C1614 H1639 0.950 . S
C1615 C1614 1.349 . S
C1615 C1631 1.349 . S
C1616 C1614 1.327 . S
C1616 C1635 1.429 . S
C1616 H1640 0.950 . S
C1617 C1634 1.574 . S
C1617 C1636 1.368 . S
C1617 H1641 0.949 . S
H1618 C1622 0.949 . S
C1619 C1620 1.349 . S
C1619 C1621 1.327 . S
C1619 H1642 0.950 . S
C1620 C1619 1.349 . S
C1620 C1632 1.349 . S
C1621 C1619 1.327 . S
C1621 C1637 1.429 . S
C1621 H1643 0.950 . S
C1622 H1618 0.949 . S
C1622 C1630 1.574 . S
C1622 C1638 1.368 . S
H1623 C1631 0.950 . S
H1624 C1629 0.950 . S
H1625 C1630 0.949 . S
H1626 C1632 0.950 . S
H1627 C1633 0.950 . S
H1628 C1634 0.949 . S
C1629 H1624 0.950 . S
C1629 C1631 1.327 . S
C1629 C1635 1.429 . S
C1630 C1622 1.574 . S
C1630 H1625 0.949 . S
C1630 C1636 1.368 . S
C1631 C1615 1.349 . S
C1631 H1623 0.950 . S
C1631 C1629 1.327 . S
C1632 C1620 1.349 . S
C1632 H1626 0.950 . S
C1632 C1633 1.327 . S
C1633 H1627 0.950 . S
C1633 C1632 1.327 . S
C1633 C1637 1.429 . S
C1634 C1617 1.574 . S
C1634 H1628 0.949 . S
C1634 C1638 1.368 . S
C1635 C1616 1.429 . S
C1635 C1629 1.429 . S
C1635 C1636 1.523 . S
C1636 C1617 1.368 . S
C1636 C1630 1.368 . S
C1636 C1635 1.523 . S
C1637 C1621 1.429 . S
C1637 C1633 1.429 . S
C1637 C1638 1.523 . S
C1638 C1622 1.368 . S
C1638 C1634 1.368 . S
C1638 C1637 1.523 . S
H1639 C1614 0.950 . S
H1640 C1616 0.950 . S
H1641 C1617 0.949 . S
H1642 C1619 0.950 . S
H1643 C1621 0.950 . S
C1644 C1645 1.349 . S
C1644 C1646 1.327 . S
C1644 H1669 0.950 . S
C1645 C1644 1.349 . S
C1645 C1661 1.349 . S
C1646 C1644 1.327 . S
C1646 C1665 1.429 . S
C1646 H1670 0.950 . S
C1647 C1664 1.574 . S
C1647 C1666 1.368 . S
C1647 H1671 0.949 . S
H1648 C1652 0.949 . S
C1649 C1650 1.349 . S
C1649 C1651 1.327 . S
C1649 H1672 0.950 . S
C1650 C1649 1.349 . S
C1650 C1662 1.349 . S
C1651 C1649 1.327 . S
C1651 C1667 1.429 . S
C1651 H1673 0.950 . S
C1652 H1648 0.949 . S
C1652 C1660 1.574 . S
C1652 C1668 1.368 . S
H1653 C1661 0.950 . S
H1654 C1659 0.950 . S
H1655 C1660 0.949 . S
H1656 C1662 0.950 . S
H1657 C1663 0.950 . S
H1658 C1664 0.949 . S
C1659 H1654 0.950 . S
C1659 C1661 1.327 . S
C1659 C1665 1.429 . S
C1660 C1652 1.574 . S
C1660 H1655 0.949 . S
C1660 C1666 1.368 . S
C1661 C1645 1.349 . S
C1661 H1653 0.950 . S
C1661 C1659 1.327 . S
C1662 C1650 1.349 . S
C1662 H1656 0.950 . S
C1662 C1663 1.327 . S
C1663 H1657 0.950 . S
C1663 C1662 1.327 . S
C1663 C1667 1.429 . S
C1664 C1647 1.574 . S
C1664 H1658 0.949 . S
C1664 C1668 1.368 . S
C1665 C1646 1.429 . S
C1665 C1659 1.429 . S
C1665 C1666 1.523 . S
C1666 C1647 1.368 . S
C1666 C1660 1.368 . S
C1666 C1665 1.523 . S
C1667 C1651 1.429 . S
C1667 C1663 1.429 . S
C1667 C1668 1.523 . S
C1668 C1652 1.368 . S
C1668 C1664 1.368 . S
C1668 C1667 1.523 . S
H1669 C1644 0.950 . S
H1670 C1646 0.950 . S
H1671 C1647 0.949 . S
H1672 C1649 0.950 . S
H1673 C1651 0.950 . S
C1674 C1675 1.349 . S
C1674 C1676 1.327 . S
C1674 H1699 0.950 . S
C1675 C1674 1.349 . S
C1675 C1691 1.349 . S
C1676 C1674 1.327 . S
C1676 C1695 1.429 . S
C1676 H1700 0.950 . S
C1677 C1694 1.574 . S
C1677 C1696 1.368 . S
C1677 H1701 0.949 . S
H1678 C1682 0.949 . S
C1679 C1680 1.349 . S
C1679 C1681 1.327 . S
C1679 H1702 0.950 . S
C1680 C1679 1.349 . S
C1680 C1692 1.349 . S
C1681 C1679 1.327 . S
C1681 C1697 1.429 . S
C1681 H1703 0.950 . S
C1682 H1678 0.949 . S
C1682 C1690 1.574 . S
C1682 C1698 1.368 . S
H1683 C1691 0.950 . S
H1684 C1689 0.950 . S
H1685 C1690 0.949 . S
H1686 C1692 0.950 . S
H1687 C1693 0.950 . S
H1688 C1694 0.949 . S
C1689 H1684 0.950 . S
C1689 C1691 1.327 . S
C1689 C1695 1.429 . S
C1690 C1682 1.574 . S
C1690 H1685 0.949 . S
C1690 C1696 1.368 . S
C1691 C1675 1.349 . S
C1691 H1683 0.950 . S
C1691 C1689 1.327 . S
C1692 C1680 1.349 . S
C1692 H1686 0.950 . S
C1692 C1693 1.327 . S
C1693 H1687 0.950 . S
C1693 C1692 1.327 . S
C1693 C1697 1.429 . S
C1694 C1677 1.574 . S
C1694 H1688 0.949 . S
C1694 C1698 1.368 . S
C1695 C1676 1.429 . S
C1695 C1689 1.429 . S
C1695 C1696 1.523 . S
C1696 C1677 1.368 . S
C1696 C1690 1.368 . S
C1696 C1695 1.523 . S
C1697 C1681 1.429 . S
C1697 C1693 1.429 . S
C1697 C1698 1.523 . S
C1698 C1682 1.368 . S
C1698 C1694 1.368 . S
C1698 C1697 1.523 . S
H1699 C1674 0.950 . S
H1700 C1676 0.950 . S
H1701 C1677 0.949 . S
H1702 C1679 0.950 . S
H1703 C1681 0.950 . S
C1704 C1705 1.349 . S
C1704 C1706 1.327 . S
C1704 H1729 0.950 . S
C1705 C1704 1.349 . S
C1705 C1721 1.349 . S
C1706 C1704 1.327 . S
C1706 C1725 1.429 . S
C1706 H1730 0.950 . S
C1707 C1724 1.574 . S
C1707 C1726 1.368 . S
C1707 H1731 0.949 . S
H1708 C1712 0.949 . S
C1709 C1710 1.349 . S
C1709 C1711 1.327 . S
C1709 H1732 0.950 . S
C1710 C1709 1.349 . S
C1710 C1722 1.349 . S
C1711 C1709 1.327 . S
C1711 C1727 1.429 . S
C1711 H1733 0.950 . S
C1712 H1708 0.949 . S
C1712 C1720 1.574 . S
C1712 C1728 1.368 . S
H1713 C1721 0.950 . S
H1714 C1719 0.950 . S
H1715 C1720 0.949 . S
H1716 C1722 0.950 . S
H1717 C1723 0.950 . S
H1718 C1724 0.949 . S
C1719 H1714 0.950 . S
C1719 C1721 1.327 . S
C1719 C1725 1.429 . S
C1720 C1712 1.574 . S
C1720 H1715 0.949 . S
C1720 C1726 1.368 . S
C1721 C1705 1.349 . S
C1721 H1713 0.950 . S
C1721 C1719 1.327 . S
C1722 C1710 1.349 . S
C1722 H1716 0.950 . S
C1722 C1723 1.327 . S
C1723 H1717 0.950 . S
C1723 C1722 1.327 . S
C1723 C1727 1.429 . S
C1724 C1707 1.574 . S
C1724 H1718 0.949 . S
C1724 C1728 1.368 . S
C1725 C1706 1.429 . S
C1725 C1719 1.429 . S
C1725 C1726 1.523 . S
C1726 C1707 1.368 . S
C1726 C1720 1.368 . S
C1726 C1725 1.523 . S
C1727 C1711 1.429 . S
C1727 C1723 1.429 . S
C1727 C1728 1.523 . S
C1728 C1712 1.368 . S
C1728 C1724 1.368 . S
C1728 C1727 1.523 . S
H1729 C1704 0.950 . S
H1730 C1706 0.950 . S
H1731 C1707 0.949 . S
H1732 C1709 0.950 . S
H1733 C1711 0.950 . S
C1734 C1735 1.349 . S
C1734 C1736 1.327 . S
C1734 H1759 0.950 . S
C1735 C1734 1.349 . S
C1735 C1751 1.349 . S
C1736 C1734 1.327 . S
C1736 C1755 1.429 . S
C1736 H1760 0.950 . S
C1737 C1754 1.574 . S
C1737 C1756 1.368 . S
C1737 H1761 0.949 . S
H1738 C1742 0.949 . S
C1739 C1740 1.349 . S
C1739 C1741 1.327 . S
C1739 H1762 0.950 . S
C1740 C1739 1.349 . S
C1740 C1752 1.349 . S
C1741 C1739 1.327 . S
C1741 C1757 1.429 . S
C1741 H1763 0.950 . S
C1742 H1738 0.949 . S
C1742 C1750 1.574 . S
C1742 C1758 1.368 . S
H1743 C1751 0.950 . S
H1744 C1749 0.950 . S
H1745 C1750 0.949 . S
H1746 C1752 0.950 . S
H1747 C1753 0.950 . S
H1748 C1754 0.949 . S
C1749 H1744 0.950 . S
C1749 C1751 1.327 . S
C1749 C1755 1.429 . S
C1750 C1742 1.574 . S
C1750 H1745 0.949 . S
C1750 C1756 1.368 . S
C1751 C1735 1.349 . S
C1751 H1743 0.950 . S
C1751 C1749 1.327 . S
C1752 C1740 1.349 . S
C1752 H1746 0.950 . S
C1752 C1753 1.327 . S
C1753 H1747 0.950 . S
C1753 C1752 1.327 . S
C1753 C1757 1.429 . S
C1754 C1737 1.574 . S
C1754 H1748 0.949 . S
C1754 C1758 1.368 . S
C1755 C1736 1.429 . S
C1755 C1749 1.429 . S
C1755 C1756 1.523 . S
C1756 C1737 1.368 . S
C1756 C1750 1.368 . S
C1756 C1755 1.523 . S
C1757 C1741 1.429 . S
C1757 C1753 1.429 . S
C1757 C1758 1.523 . S
C1758 C1742 1.368 . S
C1758 C1754 1.368 . S
C1758 C1757 1.523 . S
H1759 C1734 0.950 . S
H1760 C1736 0.950 . S
H1761 C1737 0.949 . S
H1762 C1739 0.950 . S
H1763 C1741 0.950 . S
C1764 C1765 1.349 . S
C1764 C1766 1.327 . S
C1764 H1789 0.950 . S
C1765 C1764 1.349 . S
C1765 C1781 1.349 . S
C1766 C1764 1.327 . S
C1766 C1785 1.429 . S
C1766 H1790 0.950 . S
C1767 C1784 1.574 . S
C1767 C1786 1.368 . S
C1767 H1791 0.949 . S
H1768 C1772 0.949 . S
C1769 C1770 1.349 . S
C1769 C1771 1.327 . S
C1769 H1792 0.950 . S
C1770 C1769 1.349 . S
C1770 C1782 1.349 . S
C1771 C1769 1.327 . S
C1771 C1787 1.429 . S
C1771 H1793 0.950 . S
C1772 H1768 0.949 . S
C1772 C1780 1.574 . S
C1772 C1788 1.368 . S
H1773 C1781 0.950 . S
H1774 C1779 0.950 . S
H1775 C1780 0.949 . S
H1776 C1782 0.950 . S
H1777 C1783 0.950 . S
H1778 C1784 0.949 . S
C1779 H1774 0.950 . S
C1779 C1781 1.327 . S
C1779 C1785 1.429 . S
C1780 C1772 1.574 . S
C1780 H1775 0.949 . S
C1780 C1786 1.368 . S
C1781 C1765 1.349 . S
C1781 H1773 0.950 . S
C1781 C1779 1.327 . S
C1782 C1770 1.349 . S
C1782 H1776 0.950 . S
C1782 C1783 1.327 . S
C1783 H1777 0.950 . S
C1783 C1782 1.327 . S
C1783 C1787 1.429 . S
C1784 C1767 1.574 . S
C1784 H1778 0.949 . S
C1784 C1788 1.368 . S
C1785 C1766 1.429 . S
C1785 C1779 1.429 . S
C1785 C1786 1.523 . S
C1786 C1767 1.368 . S
C1786 C1780 1.368 . S
C1786 C1785 1.523 . S
C1787 C1771 1.429 . S
C1787 C1783 1.429 . S
C1787 C1788 1.523 . S
C1788 C1772 1.368 . S
C1788 C1784 1.368 . S
C1788 C1787 1.523 . S
H1789 C1764 0.950 . S
H1790 C1766 0.950 . S
H1791 C1767 0.949 . S
H1792 C1769 0.950 . S
H1793 C1771 0.950 . S
C1794 C1795 1.349 . S
C1794 C1796 1.327 . S
C1794 H1819 0.950 . S
C1795 C1794 1.349 . S
C1795 C1811 1.349 . S
C1796 C1794 1.327 . S
C1796 C1815 1.429 . S
C1796 H1820 0.950 . S
C1797 C1814 1.574 . S
C1797 C1816 1.368 . S
C1797 H1821 0.949 . S
H1798 C1802 0.949 . S
C1799 C1800 1.349 . S
C1799 C1801 1.327 . S
C1799 H1822 0.950 . S
C1800 C1799 1.349 . S
C1800 C1812 1.349 . S
C1801 C1799 1.327 . S
C1801 C1817 1.429 . S
C1801 H1823 0.950 . S
C1802 H1798 0.949 . S
C1802 C1810 1.574 . S
C1802 C1818 1.368 . S
H1803 C1811 0.950 . S
H1804 C1809 0.950 . S
H1805 C1810 0.949 . S
H1806 C1812 0.950 . S
H1807 C1813 0.950 . S
H1808 C1814 0.949 . S
C1809 H1804 0.950 . S
C1809 C1811 1.327 . S
C1809 C1815 1.429 . S
C1810 C1802 1.574 . S
C1810 H1805 0.949 . S
C1810 C1816 1.368 . S
C1811 C1795 1.349 . S
C1811 H1803 0.950 . S
C1811 C1809 1.327 . S
C1812 C1800 1.349 . S
C1812 H1806 0.950 . S
C1812 C1813 1.327 . S
C1813 H1807 0.950 . S
C1813 C1812 1.327 . S
C1813 C1817 1.429 . S
C1814 C1797 1.574 . S
C1814 H1808 0.949 . S
C1814 C1818 1.368 . S
C1815 C1796 1.429 . S
C1815 C1809 1.429 . S
C1815 C1816 1.523 . S
C1816 C1797 1.368 . S
C1816 C1810 1.368 . S
C1816 C1815 1.523 . S
C1817 C1801 1.429 . S
C1817 C1813 1.429 . S
C1817 C1818 1.523 . S
C1818 C1802 1.368 . S
C1818 C1814 1.368 . S
C1818 C1817 1.523 . S
H1819 C1794 0.950 . S
H1820 C1796 0.950 . S
H1821 C1797 0.949 . S
H1822 C1799 0.950 . S
H1823 C1801 0.950 . S
C1824 C1825 1.349 . S
C1824 C1826 1.327 . S
C1824 H1849 0.950 . S
C1825 C1824 1.349 . S
C1825 C1841 1.349 . S
C1826 C1824 1.327 . S
C1826 C1845 1.429 . S
C1826 H1850 0.950 . S
C1827 C1844 1.574 . S
C1827 C1846 1.368 . S
C1827 H1851 0.949 . S
H1828 C1832 0.949 . S
C1829 C1830 1.349 . S
C1829 C1831 1.327 . S
C1829 H1852 0.950 . S
C1830 C1829 1.349 . S
C1830 C1842 1.349 . S
C1831 C1829 1.327 . S
C1831 C1847 1.429 . S
C1831 H1853 0.950 . S
C1832 H1828 0.949 . S
C1832 C1840 1.574 . S
C1832 C1848 1.368 . S
H1833 C1841 0.950 . S
H1834 C1839 0.950 . S
H1835 C1840 0.949 . S
H1836 C1842 0.950 . S
H1837 C1843 0.950 . S
H1838 C1844 0.949 . S
C1839 H1834 0.950 . S
C1839 C1841 1.327 . S
C1839 C1845 1.429 . S
C1840 C1832 1.574 . S
C1840 H1835 0.949 . S
C1840 C1846 1.368 . S
C1841 C1825 1.349 . S
C1841 H1833 0.950 . S
C1841 C1839 1.327 . S
C1842 C1830 1.349 . S
C1842 H1836 0.950 . S
C1842 C1843 1.327 . S
C1843 H1837 0.950 . S
C1843 C1842 1.327 . S
C1843 C1847 1.429 . S
C1844 C1827 1.574 . S
C1844 H1838 0.949 . S
C1844 C1848 1.368 . S
C1845 C1826 1.429 . S
C1845 C1839 1.429 . S
C1845 C1846 1.523 . S
C1846 C1827 1.368 . S
C1846 C1840 1.368 . S
C1846 C1845 1.523 . S
C1847 C1831 1.429 . S
C1847 C1843 1.429 . S
C1847 C1848 1.523 . S
C1848 C1832 1.368 . S
C1848 C1844 1.368 . S
C1848 C1847 1.523 . S
H1849 C1824 0.950 . S
H1850 C1826 0.950 . S
H1851 C1827 0.949 . S
H1852 C1829 0.950 . S
H1853 C1831 0.950 . S
C1854 C1855 1.349 . S
C1854 C1856 1.327 . S
C1854 H1879 0.950 . S
C1855 C1854 1.349 . S
C1855 C1871 1.349 . S
C1856 C1854 1.327 . S
C1856 C1875 1.429 . S
C1856 H1880 0.950 . S
C1857 C1874 1.574 . S
C1857 C1876 1.368 . S
C1857 H1881 0.949 . S
H1858 C1862 0.949 . S
C1859 C1860 1.349 . S
C1859 C1861 1.327 . S
C1859 H1882 0.950 . S
C1860 C1859 1.349 . S
C1860 C1872 1.349 . S
C1861 C1859 1.327 . S
C1861 C1877 1.429 . S
C1861 H1883 0.950 . S
C1862 H1858 0.949 . S
C1862 C1870 1.574 . S
C1862 C1878 1.368 . S
H1863 C1871 0.950 . S
H1864 C1869 0.950 . S
H1865 C1870 0.949 . S
H1866 C1872 0.950 . S
H1867 C1873 0.950 . S
H1868 C1874 0.949 . S
C1869 H1864 0.950 . S
C1869 C1871 1.327 . S
C1869 C1875 1.429 . S
C1870 C1862 1.574 . S
C1870 H1865 0.949 . S
C1870 C1876 1.368 . S
C1871 C1855 1.349 . S
C1871 H1863 0.950 . S
C1871 C1869 1.327 . S
C1872 C1860 1.349 . S
C1872 H1866 0.950 . S
C1872 C1873 1.327 . S
C1873 H1867 0.950 . S
C1873 C1872 1.327 . S
C1873 C1877 1.429 . S
C1874 C1857 1.574 . S
C1874 H1868 0.949 . S
C1874 C1878 1.368 . S
C1875 C1856 1.429 . S
C1875 C1869 1.429 . S
C1875 C1876 1.523 . S
C1876 C1857 1.368 . S
C1876 C1870 1.368 . S
C1876 C1875 1.523 . S
C1877 C1861 1.429 . S
C1877 C1873 1.429 . S
C1877 C1878 1.523 . S
C1878 C1862 1.368 . S
C1878 C1874 1.368 . S
C1878 C1877 1.523 . S
H1879 C1854 0.950 . S
H1880 C1856 0.950 . S
H1881 C1857 0.949 . S
H1882 C1859 0.950 . S
H1883 C1861 0.950 . S
C1884 C1885 1.349 . S
C1884 C1886 1.327 . S
C1884 H1909 0.950 . S
C1885 C1884 1.349 . S
C1885 C1901 1.349 . S
C1886 C1884 1.327 . S
C1886 C1905 1.429 . S
C1886 H1910 0.950 . S
C1887 C1904 1.574 . S
C1887 C1906 1.368 . S
C1887 H1911 0.949 . S
H1888 C1892 0.949 . S
C1889 C1890 1.349 . S
C1889 C1891 1.327 . S
C1889 H1912 0.950 . S
C1890 C1889 1.349 . S
C1890 C1902 1.349 . S
C1891 C1889 1.327 . S
C1891 C1907 1.429 . S
C1891 H1913 0.950 . S
C1892 H1888 0.949 . S
C1892 C1900 1.574 . S
C1892 C1908 1.368 . S
H1893 C1901 0.950 . S
H1894 C1899 0.950 . S
H1895 C1900 0.949 . S
H1896 C1902 0.950 . S
H1897 C1903 0.950 . S
H1898 C1904 0.949 . S
C1899 H1894 0.950 . S
C1899 C1901 1.327 . S
C1899 C1905 1.429 . S
C1900 C1892 1.574 . S
C1900 H1895 0.949 . S
C1900 C1906 1.368 . S
C1901 C1885 1.349 . S
C1901 H1893 0.950 . S
C1901 C1899 1.327 . S
C1902 C1890 1.349 . S
C1902 H1896 0.950 . S
C1902 C1903 1.327 . S
C1903 H1897 0.950 . S
C1903 C1902 1.327 . S
C1903 C1907 1.429 . S
C1904 C1887 1.574 . S
C1904 H1898 0.949 . S
C1904 C1908 1.368 . S
C1905 C1886 1.429 . S
C1905 C1899 1.429 . S
C1905 C1906 1.523 . S
C1906 C1887 1.368 . S
C1906 C1900 1.368 . S
C1906 C1905 1.523 . S
C1907 C1891 1.429 . S
C1907 C1903 1.429 . S
C1907 C1908 1.523 . S
C1908 C1892 1.368 . S
C1908 C1904 1.368 . S
C1908 C1907 1.523 . S
H1909 C1884 0.950 . S
H1910 C1886 0.950 . S
H1911 C1887 0.949 . S
H1912 C1889 0.950 . S
H1913 C1891 0.950 . S
C1914 C1915 1.349 . S
C1914 C1916 1.327 . S
C1914 H1939 0.950 . S
C1915 C1914 1.349 . S
C1915 C1931 1.349 . S
C1916 C1914 1.327 . S
C1916 C1935 1.429 . S
C1916 H1940 0.950 . S
C1917 C1934 1.574 . S
C1917 C1936 1.368 . S
C1917 H1941 0.949 . S
H1918 C1922 0.949 . S
C1919 C1920 1.349 . S
C1919 C1921 1.327 . S
C1919 H1942 0.950 . S
C1920 C1919 1.349 . S
C1920 C1932 1.349 . S
C1921 C1919 1.327 . S
C1921 C1937 1.429 . S
C1921 H1943 0.950 . S
C1922 H1918 0.949 . S
C1922 C1930 1.574 . S
C1922 C1938 1.368 . S
H1923 C1931 0.950 . S
H1924 C1929 0.950 . S
H1925 C1930 0.949 . S
H1926 C1932 0.950 . S
H1927 C1933 0.950 . S
H1928 C1934 0.949 . S
C1929 H1924 0.950 . S
C1929 C1931 1.327 . S
C1929 C1935 1.429 . S
C1930 C1922 1.574 . S
C1930 H1925 0.949 . S
C1930 C1936 1.368 . S
C1931 C1915 1.349 . S
C1931 H1923 0.950 . S
C1931 C1929 1.327 . S
C1932 C1920 1.349 . S
C1932 H1926 0.950 . S
C1932 C1933 1.327 . S
C1933 H1927 0.950 . S
C1933 C1932 1.327 . S
C1933 C1937 1.429 . S
C1934 C1917 1.574 . S
C1934 H1928 0.949 . S
C1934 C1938 1.368 . S
C1935 C1916 1.429 . S
C1935 C1929 1.429 . S
C1935 C1936 1.523 . S
C1936 C1917 1.368 . S
C1936 C1930 1.368 . S
C1936 C1935 1.523 . S
C1937 C1921 1.429 . S
C1937 C1933 1.429 . S
C1937 C1938 1.523 . S
C1938 C1922 1.368 . S
C1938 C1934 1.368 . S
C1938 C1937 1.523 . S
H1939 C1914 0.950 . S
H1940 C1916 0.950 . S
H1941 C1917 0.949 . S
H1942 C1919 0.950 . S
H1943 C1921 0.950 . S
C1944 C1945 1.349 . S
C1944 C1946 1.327 . S
C1944 H1969 0.950 . S
C1945 C1944 1.349 . S
C1945 C1961 1.349 . S
C1946 C1944 1.327 . S
C1946 C1965 1.429 . S
C1946 H1970 0.950 . S
C1947 C1964 1.574 . S
C1947 C1966 1.368 . S
C1947 H1971 0.949 . S
H1948 C1952 0.949 . S
C1949 C1950 1.349 . S
C1949 C1951 1.327 . S
C1949 H1972 0.950 . S
C1950 C1949 1.349 . S
C1950 C1962 1.349 . S
C1951 C1949 1.327 . S
C1951 C1967 1.429 . S
C1951 H1973 0.950 . S
C1952 H1948 0.949 . S
C1952 C1960 1.574 . S
C1952 C1968 1.368 . S
H1953 C1961 0.950 . S
H1954 C1959 0.950 . S
H1955 C1960 0.949 . S
H1956 C1962 0.950 . S
H1957 C1963 0.950 . S
H1958 C1964 0.949 . S
C1959 H1954 0.950 . S
C1959 C1961 1.327 . S
C1959 C1965 1.429 . S
C1960 C1952 1.574 . S
C1960 H1955 0.949 . S
C1960 C1966 1.368 . S
C1961 C1945 1.349 . S
C1961 H1953 0.950 . S
C1961 C1959 1.327 . S
C1962 C1950 1.349 . S
C1962 H1956 0.950 . S
C1962 C1963 1.327 . S
C1963 H1957 0.950 . S
C1963 C1962 1.327 . S
C1963 C1967 1.429 . S
C1964 C1947 1.574 . S
C1964 H1958 0.949 . S
C1964 C1968 1.368 . S
C1965 C1946 1.429 . S
C1965 C1959 1.429 . S
C1965 C1966 1.523 . S
C1966 C1947 1.368 . S
C1966 C1960 1.368 . S
C1966 C1965 1.523 . S
C1967 C1951 1.429 . S
C1967 C1963 1.429 . S
C1967 C1968 1.523 . S
C1968 C1952 1.368 . S
C1968 C1964 1.368 . S
C1968 C1967 1.523 . S
H1969 C1944 0.950 . S
H1970 C1946 0.950 . S
H1971 C1947 0.949 . S
H1972 C1949 0.950 . S
H1973 C1951 0.950 . S
C1974 C1975 1.349 . S
C1974 C1976 1.327 . S
C1974 H1999 0.950 . S
C1975 C1974 1.349 . S
C1975 C1991 1.349 . S
C1976 C1974 1.327 . S
C1976 C1995 1.429 . S
C1976 H2000 0.950 . S
C1977 C1994 1.574 . S
C1977 C1996 1.368 . S
C1977 H2001 0.949 . S
H1978 C1982 0.949 . S
C1979 C1980 1.349 . S
C1979 C1981 1.327 . S
C1979 H2002 0.950 . S
C1980 C1979 1.349 . S
C1980 C1992 1.349 . S
C1981 C1979 1.327 . S
C1981 C1997 1.429 . S
C1981 H2003 0.950 . S
C1982 H1978 0.949 . S
C1982 C1990 1.574 . S
C1982 C1998 1.368 . S
H1983 C1991 0.950 . S
H1984 C1989 0.950 . S
H1985 C1990 0.949 . S
H1986 C1992 0.950 . S
H1987 C1993 0.950 . S
H1988 C1994 0.949 . S
C1989 H1984 0.950 . S
C1989 C1991 1.327 . S
C1989 C1995 1.429 . S
C1990 C1982 1.574 . S
C1990 H1985 0.949 . S
C1990 C1996 1.368 . S
C1991 C1975 1.349 . S
C1991 H1983 0.950 . S
C1991 C1989 1.327 . S
C1992 C1980 1.349 . S
C1992 H1986 0.950 . S
C1992 C1993 1.327 . S
C1993 H1987 0.950 . S
C1993 C1992 1.327 . S
C1993 C1997 1.429 . S
C1994 C1977 1.574 . S
C1994 H1988 0.949 . S
C1994 C1998 1.368 . S
C1995 C1976 1.429 . S
C1995 C1989 1.429 . S
C1995 C1996 1.523 . S
C1996 C1977 1.368 . S
C1996 C1990 1.368 . S
C1996 C1995 1.523 . S
C1997 C1981 1.429 . S
C1997 C1993 1.429 . S
C1997 C1998 1.523 . S
C1998 C1982 1.368 . S
C1998 C1994 1.368 . S
C1998 C1997 1.523 . S
H1999 C1974 0.950 . S
H2000 C1976 0.950 . S
H2001 C1977 0.949 . S
H2002 C1979 0.950 . S
H2003 C1981 0.950 . S
C2004 C2005 1.349 . S
C2004 C2006 1.327 . S
C2004 H2029 0.950 . S
C2005 C2004 1.349 . S
C2005 C2021 1.349 . S
C2006 C2004 1.327 . S
C2006 C2025 1.429 . S
C2006 H2030 0.950 . S
C2007 C2024 1.574 . S
C2007 C2026 1.368 . S
C2007 H2031 0.949 . S
H2008 C2012 0.949 . S
C2009 C2010 1.349 . S
C2009 C2011 1.327 . S
C2009 H2032 0.950 . S
C2010 C2009 1.349 . S
C2010 C2022 1.349 . S
C2011 C2009 1.327 . S
C2011 C2027 1.429 . S
C2011 H2033 0.950 . S
C2012 H2008 0.949 . S
C2012 C2020 1.574 . S
C2012 C2028 1.368 . S
H2013 C2021 0.950 . S
H2014 C2019 0.950 . S
H2015 C2020 0.949 . S
H2016 C2022 0.950 . S
H2017 C2023 0.950 . S
H2018 C2024 0.949 . S
C2019 H2014 0.950 . S
C2019 C2021 1.327 . S
C2019 C2025 1.429 . S
C2020 C2012 1.574 . S
C2020 H2015 0.949 . S
C2020 C2026 1.368 . S
C2021 C2005 1.349 . S
C2021 H2013 0.950 . S
C2021 C2019 1.327 . S
C2022 C2010 1.349 . S
C2022 H2016 0.950 . S
C2022 C2023 1.327 . S
C2023 H2017 0.950 . S
C2023 C2022 1.327 . S
C2023 C2027 1.429 . S
C2024 C2007 1.574 . S
C2024 H2018 0.949 . S
C2024 C2028 1.368 . S
C2025 C2006 1.429 . S
C2025 C2019 1.429 . S
C2025 C2026 1.523 . S
C2026 C2007 1.368 . S
C2026 C2020 1.368 . S
C2026 C2025 1.523 . S
C2027 C2011 1.429 . S
C2027 C2023 1.429 . S
C2027 C2028 1.523 . S
C2028 C2012 1.368 . S
C2028 C2024 1.368 . S
C2028 C2027 1.523 . S
H2029 C2004 0.950 . S
H2030 C2006 0.950 . S
H2031 C2007 0.949 . S
H2032 C2009 0.950 . S
H2033 C2011 0.950 . S
C2034 C2035 1.349 . S
C2034 C2036 1.327 . S
C2034 H2059 0.950 . S
C2035 C2034 1.349 . S
C2035 C2051 1.349 . S
C2036 C2034 1.327 . S
C2036 C2055 1.429 . S
C2036 H2060 0.950 . S
C2037 C2054 1.574 . S
C2037 C2056 1.368 . S
C2037 H2061 0.949 . S
H2038 C2042 0.949 . S
C2039 C2040 1.349 . S
C2039 C2041 1.327 . S
C2039 H2062 0.950 . S
C2040 C2039 1.349 . S
C2040 C2052 1.349 . S
C2041 C2039 1.327 . S
C2041 C2057 1.429 . S
C2041 H2063 0.950 . S
C2042 H2038 0.949 . S
C2042 C2050 1.574 . S
C2042 C2058 1.368 . S
H2043 C2051 0.950 . S
H2044 C2049 0.950 . S
H2045 C2050 0.949 . S
H2046 C2052 0.950 . S
H2047 C2053 0.950 . S
H2048 C2054 0.949 . S
C2049 H2044 0.950 . S
C2049 C2051 1.327 . S
C2049 C2055 1.429 . S
C2050 C2042 1.574 . S
C2050 H2045 0.949 . S
C2050 C2056 1.368 . S
C2051 C2035 1.349 . S
C2051 H2043 0.950 . S
C2051 C2049 1.327 . S
C2052 C2040 1.349 . S
C2052 H2046 0.950 . S
C2052 C2053 1.327 . S
C2053 H2047 0.950 . S
C2053 C2052 1.327 . S
C2053 C2057 1.429 . S
C2054 C2037 1.574 . S
C2054 H2048 0.949 . S
C2054 C2058 1.368 . S
C2055 C2036 1.429 . S
C2055 C2049 1.429 . S
C2055 C2056 1.523 . S
C2056 C2037 1.368 . S
C2056 C2050 1.368 . S
C2056 C2055 1.523 . S
C2057 C2041 1.429 . S
C2057 C2053 1.429 . S
C2057 C2058 1.523 . S
C2058 C2042 1.368 . S
C2058 C2054 1.368 . S
C2058 C2057 1.523 . S
H2059 C2034 0.950 . S
H2060 C2036 0.950 . S
H2061 C2037 0.949 . S
H2062 C2039 0.950 . S
H2063 C2041 0.950 . S
C2064 C2065 1.349 . S
C2064 C2066 1.327 . S
C2064 H2089 0.950 . S
C2065 C2064 1.349 . S
C2065 C2081 1.349 . S
C2066 C2064 1.327 . S
C2066 C2085 1.429 . S
C2066 H2090 0.950 . S
C2067 C2084 1.574 . S
C2067 C2086 1.368 . S
C2067 H2091 0.949 . S
H2068 C2072 0.949 . S
C2069 C2070 1.349 . S
C2069 C2071 1.327 . S
C2069 H2092 0.950 . S
C2070 C2069 1.349 . S
C2070 C2082 1.349 . S
C2071 C2069 1.327 . S
C2071 C2087 1.429 . S
C2071 H2093 0.950 . S
C2072 H2068 0.949 . S
C2072 C2080 1.574 . S
C2072 C2088 1.368 . S
H2073 C2081 0.950 . S
H2074 C2079 0.950 . S
H2075 C2080 0.949 . S
H2076 C2082 0.950 . S
H2077 C2083 0.950 . S
H2078 C2084 0.949 . S
C2079 H2074 0.950 . S
C2079 C2081 1.327 . S
C2079 C2085 1.429 . S
C2080 C2072 1.574 . S
C2080 H2075 0.949 . S
C2080 C2086 1.368 . S
C2081 C2065 1.349 . S
C2081 H2073 0.950 . S
C2081 C2079 1.327 . S
C2082 C2070 1.349 . S
C2082 H2076 0.950 . S
C2082 C2083 1.327 . S
C2083 H2077 0.950 . S
C2083 C2082 1.327 . S
C2083 C2087 1.429 . S
C2084 C2067 1.574 . S
C2084 H2078 0.949 . S
C2084 C2088 1.368 . S
C2085 C2066 1.429 . S
C2085 C2079 1.429 . S
C2085 C2086 1.523 . S
C2086 C2067 1.368 . S
C2086 C2080 1.368 . S
C2086 C2085 1.523 . S
C2087 C2071 1.429 . S
C2087 C2083 1.429 . S
C2087 C2088 1.523 . S
C2088 C2072 1.368 . S
C2088 C2084 1.368 . S
C2088 C2087 1.523 . S
H2089 C2064 0.950 . S
H2090 C2066 0.950 . S
H2091 C2067 0.949 . S
H2092 C2069 0.950 . S
H2093 C2071 0.950 . S
C2094 C2095 1.349 . S
C2094 C2096 1.327 . S
C2094 H2119 0.950 . S
C2095 C2094 1.349 . S
C2095 C2111 1.349 . S
C2096 C2094 1.327 . S
C2096 C2115 1.429 . S
C2096 H2120 0.950 . S
C2097 C2114 1.574 . S
C2097 C2116 1.368 . S
C2097 H2121 0.949 . S
H2098 C2102 0.949 . S
C2099 C2100 1.349 . S
C2099 C2101 1.327 . S
C2099 H2122 0.950 . S
C2100 C2099 1.349 . S
C2100 C2112 1.349 . S
C2101 C2099 1.327 . S
C2101 C2117 1.429 . S
C2101 H2123 0.950 . S
C2102 H2098 0.949 . S
C2102 C2110 1.574 . S
C2102 C2118 1.368 . S
H2103 C2111 0.950 . S
H2104 C2109 0.950 . S
H2105 C2110 0.949 . S
H2106 C2112 0.950 . S
H2107 C2113 0.950 . S
H2108 C2114 0.949 . S
C2109 H2104 0.950 . S
C2109 C2111 1.327 . S
C2109 C2115 1.429 . S
C2110 C2102 1.574 . S
C2110 H2105 0.949 . S
C2110 C2116 1.368 . S
C2111 C2095 1.349 . S
C2111 H2103 0.950 . S
C2111 C2109 1.327 . S
C2112 C2100 1.349 . S
C2112 H2106 0.950 . S
C2112 C2113 1.327 . S
C2113 H2107 0.950 . S
C2113 C2112 1.327 . S
C2113 C2117 1.429 . S
C2114 C2097 1.574 . S
C2114 H2108 0.949 . S
C2114 C2118 1.368 . S
C2115 C2096 1.429 . S
C2115 C2109 1.429 . S
C2115 C2116 1.523 . S
C2116 C2097 1.368 . S
C2116 C2110 1.368 . S
C2116 C2115 1.523 . S
C2117 C2101 1.429 . S
C2117 C2113 1.429 . S
C2117 C2118 1.523 . S
C2118 C2102 1.368 . S
C2118 C2114 1.368 . S
C2118 C2117 1.523 . S
H2119 C2094 0.950 . S
H2120 C2096 0.950 . S
H2121 C2097 0.949 . S
H2122 C2099 0.950 . S
H2123 C2101 0.950 . S
C2124 C2125 1.349 . S
C2124 C2126 1.327 . S
C2124 H2149 0.950 . S
C2125 C2124 1.349 . S
C2125 C2141 1.349 . S
C2126 C2124 1.327 . S
C2126 C2145 1.429 . S
C2126 H2150 0.950 . S
C2127 C2144 1.574 . S
C2127 C2146 1.368 . S
C2127 H2151 0.949 . S
H2128 C2132 0.949 . S
C2129 C2130 1.349 . S
C2129 C2131 1.327 . S
C2129 H2152 0.950 . S
C2130 C2129 1.349 . S
C2130 C2142 1.349 . S
C2131 C2129 1.327 . S
C2131 C2147 1.429 . S
C2131 H2153 0.950 . S
C2132 H2128 0.949 . S
C2132 C2140 1.574 . S
C2132 C2148 1.368 . S
H2133 C2141 0.950 . S
H2134 C2139 0.950 . S
H2135 C2140 0.949 . S
H2136 C2142 0.950 . S
H2137 C2143 0.950 . S
H2138 C2144 0.949 . S
C2139 H2134 0.950 . S
C2139 C2141 1.327 . S
C2139 C2145 1.429 . S
C2140 C2132 1.574 . S
C2140 H2135 0.949 . S
C2140 C2146 1.368 . S
C2141 C2125 1.349 . S
C2141 H2133 0.950 . S
C2141 C2139 1.327 . S
C2142 C2130 1.349 . S
C2142 H2136 0.950 . S
C2142 C2143 1.327 . S
C2143 H2137 0.950 . S
C2143 C2142 1.327 . S
C2143 C2147 1.429 . S
C2144 C2127 1.574 . S
C2144 H2138 0.949 . S
C2144 C2148 1.368 . S
C2145 C2126 1.429 . S
C2145 C2139 1.429 . S
C2145 C2146 1.523 . S
C2146 C2127 1.368 . S
C2146 C2140 1.368 . S
C2146 C2145 1.523 . S
C2147 C2131 1.429 . S
C2147 C2143 1.429 . S
C2147 C2148 1.523 . S
C2148 C2132 1.368 . S
C2148 C2144 1.368 . S
C2148 C2147 1.523 . S
H2149 C2124 0.950 . S
H2150 C2126 0.950 . S
H2151 C2127 0.949 . S
H2152 C2129 0.950 . S
H2153 C2131 0.950 . S
C2154 C2155 1.349 . S
C2154 C2156 1.327 . S
C2154 H2179 0.950 . S
C2155 C2154 1.349 . S
C2155 C2171 1.349 . S
C2156 C2154 1.327 . S
C2156 C2175 1.429 . S
C2156 H2180 0.950 . S
C2157 C2174 1.574 . S
C2157 C2176 1.368 . S
C2157 H2181 0.949 . S
H2158 C2162 0.949 . S
C2159 C2160 1.349 . S
C2159 C2161 1.327 . S
C2159 H2182 0.950 . S
C2160 C2159 1.349 . S
C2160 C2172 1.349 . S
C2161 C2159 1.327 . S
C2161 C2177 1.429 . S
C2161 H2183 0.950 . S
C2162 H2158 0.949 . S
C2162 C2170 1.574 . S
C2162 C2178 1.368 . S
H2163 C2171 0.950 . S
H2164 C2169 0.950 . S
H2165 C2170 0.949 . S
H2166 C2172 0.950 . S
H2167 C2173 0.950 . S
H2168 C2174 0.949 . S
C2169 H2164 0.950 . S
C2169 C2171 1.327 . S
C2169 C2175 1.429 . S
C2170 C2162 1.574 . S
C2170 H2165 0.949 . S
C2170 C2176 1.368 . S
C2171 C2155 1.349 . S
C2171 H2163 0.950 . S
C2171 C2169 1.327 . S
C2172 C2160 1.349 . S
C2172 H2166 0.950 . S
C2172 C2173 1.327 . S
C2173 H2167 0.950 . S
C2173 C2172 1.327 . S
C2173 C2177 1.429 . S
C2174 C2157 1.574 . S
C2174 H2168 0.949 . S
C2174 C2178 1.368 . S
C2175 C2156 1.429 . S
C2175 C2169 1.429 . S
C2175 C2176 1.523 . S
C2176 C2157 1.368 . S
C2176 C2170 1.368 . S
C2176 C2175 1.523 . S
C2177 C2161 1.429 . S
C2177 C2173 1.429 . S
C2177 C2178 1.523 . S
C2178 C2162 1.368 . S
C2178 C2174 1.368 . S
C2178 C2177 1.523 . S
H2179 C2154 0.950 . S
H2180 C2156 0.950 . S
H2181 C2157 0.949 . S
H2182 C2159 0.950 . S
H2183 C2161 0.950 . S
C2184 C2185 1.349 . S
C2184 C2186 1.327 . S
C2184 H2209 0.950 . S
C2185 C2184 1.349 . S
C2185 C2201 1.349 . S
C2186 C2184 1.327 . S
C2186 C2205 1.429 . S
C2186 H2210 0.950 . S
C2187 C2204 1.574 . S
C2187 C2206 1.368 . S
C2187 H2211 0.949 . S
H2188 C2192 0.949 . S
C2189 C2190 1.349 . S
C2189 C2191 1.327 . S
C2189 H2212 0.950 . S
C2190 C2189 1.349 . S
C2190 C2202 1.349 . S
C2191 C2189 1.327 . S
C2191 C2207 1.429 . S
C2191 H2213 0.950 . S
C2192 H2188 0.949 . S
C2192 C2200 1.574 . S
C2192 C2208 1.368 . S
H2193 C2201 0.950 . S
H2194 C2199 0.950 . S
H2195 C2200 0.949 . S
H2196 C2202 0.950 . S
H2197 C2203 0.950 . S
H2198 C2204 0.949 . S
C2199 H2194 0.950 . S
C2199 C2201 1.327 . S
C2199 C2205 1.429 . S
C2200 C2192 1.574 . S
C2200 H2195 0.949 . S
C2200 C2206 1.368 . S
C2201 C2185 1.349 . S
C2201 H2193 0.950 . S
C2201 C2199 1.327 . S
C2202 C2190 1.349 . S
C2202 H2196 0.950 . S
C2202 C2203 1.327 . S
C2203 H2197 0.950 . S
C2203 C2202 1.327 . S
C2203 C2207 1.429 . S
C2204 C2187 1.574 . S
C2204 H2198 0.949 . S
C2204 C2208 1.368 . S
C2205 C2186 1.429 . S
C2205 C2199 1.429 . S
C2205 C2206 1.523 . S
C2206 C2187 1.368 . S
C2206 C2200 1.368 . S
C2206 C2205 1.523 . S
C2207 C2191 1.429 . S
C2207 C2203 1.429 . S
C2207 C2208 1.523 . S
C2208 C2192 1.368 . S
C2208 C2204 1.368 . S
C2208 C2207 1.523 . S
H2209 C2184 0.950 . S
H2210 C2186 0.950 . S
H2211 C2187 0.949 . S
H2212 C2189 0.950 . S
H2213 C2191 0.950 . S
C2214 C2215 1.349 . S
C2214 C2216 1.327 . S
C2214 H2239 0.950 . S
C2215 C2214 1.349 . S
C2215 C2231 1.349 . S
C2216 C2214 1.327 . S
C2216 C2235 1.429 . S
C2216 H2240 0.950 . S
C2217 C2234 1.574 . S
C2217 C2236 1.368 . S
C2217 H2241 0.949 . S
H2218 C2222 0.949 . S
C2219 C2220 1.349 . S
C2219 C2221 1.327 . S
C2219 H2242 0.950 . S
C2220 C2219 1.349 . S
C2220 C2232 1.349 . S
C2221 C2219 1.327 . S
C2221 C2237 1.429 . S
C2221 H2243 0.950 . S
C2222 H2218 0.949 . S
C2222 C2230 1.574 . S
C2222 C2238 1.368 . S
H2223 C2231 0.950 . S
H2224 C2229 0.950 . S
H2225 C2230 0.949 . S
H2226 C2232 0.950 . S
H2227 C2233 0.950 . S
H2228 C2234 0.949 . S
C2229 H2224 0.950 . S
C2229 C2231 1.327 . S
C2229 C2235 1.429 . S
C2230 C2222 1.574 . S
C2230 H2225 0.949 . S
C2230 C2236 1.368 . S
C2231 C2215 1.349 . S
C2231 H2223 0.950 . S
C2231 C2229 1.327 . S
C2232 C2220 1.349 . S
C2232 H2226 0.950 . S
C2232 C2233 1.327 . S
C2233 H2227 0.950 . S
C2233 C2232 1.327 . S
C2233 C2237 1.429 . S
C2234 C2217 1.574 . S
C2234 H2228 0.949 . S
C2234 C2238 1.368 . S
C2235 C2216 1.429 . S
C2235 C2229 1.429 . S
C2235 C2236 1.523 . S
C2236 C2217 1.368 . S
C2236 C2230 1.368 . S
C2236 C2235 1.523 . S
C2237 C2221 1.429 . S
C2237 C2233 1.429 . S
C2237 C2238 1.523 . S
C2238 C2222 1.368 . S
C2238 C2234 1.368 . S
C2238 C2237 1.523 . S
H2239 C2214 0.950 . S
H2240 C2216 0.950 . S
H2241 C2217 0.949 . S
H2242 C2219 0.950 . S
H2243 C2221 0.950 . S
C2244 C2245 1.349 . S
C2244 C2246 1.327 . S
C2244 H2269 0.950 . S
C2245 C2244 1.349 . S
C2245 C2261 1.349 . S
C2246 C2244 1.327 . S
C2246 C2265 1.429 . S
C2246 H2270 0.950 . S
C2247 C2264 1.574 . S
C2247 C2266 1.368 . S
C2247 H2271 0.949 . S
H2248 C2252 0.949 . S
C2249 C2250 1.349 . S
C2249 C2251 1.327 . S
C2249 H2272 0.950 . S
C2250 C2249 1.349 . S
C2250 C2262 1.349 . S
C2251 C2249 1.327 . S
C2251 C2267 1.429 . S
C2251 H2273 0.950 . S
C2252 H2248 0.949 . S
C2252 C2260 1.574 . S
C2252 C2268 1.368 . S
H2253 C2261 0.950 . S
H2254 C2259 0.950 . S
H2255 C2260 0.949 . S
H2256 C2262 0.950 . S
H2257 C2263 0.950 . S
H2258 C2264 0.949 . S
C2259 H2254 0.950 . S
C2259 C2261 1.327 . S
C2259 C2265 1.429 . S
C2260 C2252 1.574 . S
C2260 H2255 0.949 . S
C2260 C2266 1.368 . S
C2261 C2245 1.349 . S
C2261 H2253 0.950 . S
C2261 C2259 1.327 . S
C2262 C2250 1.349 . S
C2262 H2256 0.950 . S
C2262 C2263 1.327 . S
C2263 H2257 0.950 . S
C2263 C2262 1.327 . S
C2263 C2267 1.429 . S
C2264 C2247 1.574 . S
C2264 H2258 0.949 . S
C2264 C2268 1.368 . S
C2265 C2246 1.429 . S
C2265 C2259 1.429 . S
C2265 C2266 1.523 . S
C2266 C2247 1.368 . S
C2266 C2260 1.368 . S
C2266 C2265 1.523 . S
C2267 C2251 1.429 . S
C2267 C2263 1.429 . S
C2267 C2268 1.523 . S
C2268 C2252 1.368 . S
C2268 C2264 1.368 . S
C2268 C2267 1.523 . S
H2269 C2244 0.950 . S
H2270 C2246 0.950 . S
H2271 C2247 0.949 . S
H2272 C2249 0.950 . S
H2273 C2251 0.950 . S
C2274 C2275 1.349 . S
C2274 C2276 1.327 . S
C2274 H2299 0.950 . S
C2275 C2274 1.349 . S
C2275 C2291 1.349 . S
C2276 C2274 1.327 . S
C2276 C2295 1.429 . S
C2276 H2300 0.950 . S
C2277 C2294 1.574 . S
C2277 C2296 1.368 . S
C2277 H2301 0.949 . S
H2278 C2282 0.949 . S
C2279 C2280 1.349 . S
C2279 C2281 1.327 . S
C2279 H2302 0.950 . S
C2280 C2279 1.349 . S
C2280 C2292 1.349 . S
C2281 C2279 1.327 . S
C2281 C2297 1.429 . S
C2281 H2303 0.950 . S
C2282 H2278 0.949 . S
C2282 C2290 1.574 . S
C2282 C2298 1.368 . S
H2283 C2291 0.950 . S
H2284 C2289 0.950 . S
H2285 C2290 0.949 . S
H2286 C2292 0.950 . S
H2287 C2293 0.950 . S
H2288 C2294 0.949 . S
C2289 H2284 0.950 . S
C2289 C2291 1.327 . S
C2289 C2295 1.429 . S
C2290 C2282 1.574 . S
C2290 H2285 0.949 . S
C2290 C2296 1.368 . S
C2291 C2275 1.349 . S
C2291 H2283 0.950 . S
C2291 C2289 1.327 . S
C2292 C2280 1.349 . S
C2292 H2286 0.950 . S
C2292 C2293 1.327 . S
C2293 H2287 0.950 . S
C2293 C2292 1.327 . S
C2293 C2297 1.429 . S
C2294 C2277 1.574 . S
C2294 H2288 0.949 . S
C2294 C2298 1.368 . S
C2295 C2276 1.429 . S
C2295 C2289 1.429 . S
C2295 C2296 1.523 . S
C2296 C2277 1.368 . S
C2296 C2290 1.368 . S
C2296 C2295 1.523 . S
C2297 C2281 1.429 . S
C2297 C2293 1.429 . S
C2297 C2298 1.523 . S
C2298 C2282 1.368 . S
C2298 C2294 1.368 . S
C2298 C2297 1.523 . S
H2299 C2274 0.950 . S
H2300 C2276 0.950 . S
H2301 C2277 0.949 . S
H2302 C2279 0.950 . S
H2303 C2281 0.950 . S
C2304 C2305 1.349 . S
C2304 C2306 1.327 . S
C2304 H2329 0.950 . S
C2305 C2304 1.349 . S
C2305 C2321 1.349 . S
C2306 C2304 1.327 . S
C2306 C2325 1.429 . S
C2306 H2330 0.950 . S
C2307 C2324 1.574 . S
C2307 C2326 1.368 . S
C2307 H2331 0.949 . S
H2308 C2312 0.949 . S
C2309 C2310 1.349 . S
C2309 C2311 1.327 . S
C2309 H2332 0.950 . S
C2310 C2309 1.349 . S
C2310 C2322 1.349 . S
C2311 C2309 1.327 . S
C2311 C2327 1.429 . S
C2311 H2333 0.950 . S
C2312 H2308 0.949 . S
C2312 C2320 1.574 . S
C2312 C2328 1.368 . S
H2313 C2321 0.950 . S
H2314 C2319 0.950 . S
H2315 C2320 0.949 . S
H2316 C2322 0.950 . S
H2317 C2323 0.950 . S
H2318 C2324 0.949 . S
C2319 H2314 0.950 . S
C2319 C2321 1.327 . S
C2319 C2325 1.429 . S
C2320 C2312 1.574 . S
C2320 H2315 0.949 . S
C2320 C2326 1.368 . S
C2321 C2305 1.349 . S
C2321 H2313 0.950 . S
C2321 C2319 1.327 . S
C2322 C2310 1.349 . S
C2322 H2316 0.950 . S
C2322 C2323 1.327 . S
C2323 H2317 0.950 . S
C2323 C2322 1.327 . S
C2323 C2327 1.429 . S
C2324 C2307 1.574 . S
C2324 H2318 0.949 . S
C2324 C2328 1.368 . S
C2325 C2306 1.429 . S
C2325 C2319 1.429 . S
C2325 C2326 1.523 . S
C2326 C2307 1.368 . S
C2326 C2320 1.368 . S
C2326 C2325 1.523 . S
C2327 C2311 1.429 . S
C2327 C2323 1.429 . S
C2327 C2328 1.523 . S
C2328 C2312 1.368 . S
C2328 C2324 1.368 . S
C2328 C2327 1.523 . S
H2329 C2304 0.950 . S
H2330 C2306 0.950 . S
H2331 C2307 0.949 . S
H2332 C2309 0.950 . S
H2333 C2311 0.950 . S
C2334 C2335 1.349 . S
C2334 C2336 1.327 . S
C2334 H2359 0.950 . S
C2335 C2334 1.349 . S
C2335 C2351 1.349 . S
C2336 C2334 1.327 . S
C2336 C2355 1.429 . S
C2336 H2360 0.950 . S
C2337 C2354 1.574 . S
C2337 C2356 1.368 . S
C2337 H2361 0.949 . S
H2338 C2342 0.949 . S
C2339 C2340 1.349 . S
C2339 C2341 1.327 . S
C2339 H2362 0.950 . S
C2340 C2339 1.349 . S
C2340 C2352 1.349 1_545 S
C2341 C2339 1.327 . S
C2341 C2357 1.429 1_545 S
C2341 H2363 0.950 . S
C2342 H2338 0.949 . S
C2342 C2350 1.574 . S
C2342 C2358 1.368 . S
H2343 C2351 0.950 . S
H2344 C2349 0.950 . S
H2345 C2350 0.949 . S
H2346 C2352 0.950 . S
H2347 C2353 0.950 . S
H2348 C2354 0.949 . S
C2349 H2344 0.950 . S
C2349 C2351 1.327 . S
C2349 C2355 1.429 . S
C2350 C2342 1.574 . S
C2350 H2345 0.949 . S
C2350 C2356 1.368 . S
C2351 C2335 1.349 . S
C2351 H2343 0.950 . S
C2351 C2349 1.327 . S
C2352 C2340 1.349 1_565 S
C2352 H2346 0.950 . S
C2352 C2353 1.327 . S
C2353 H2347 0.950 . S
C2353 C2352 1.327 . S
C2353 C2357 1.429 . S
C2354 C2337 1.574 . S
C2354 H2348 0.949 . S
C2354 C2358 1.368 . S
C2355 C2336 1.429 . S
C2355 C2349 1.429 . S
C2355 C2356 1.523 . S
C2356 C2337 1.368 . S
C2356 C2350 1.368 . S
C2356 C2355 1.523 . S
C2357 C2341 1.429 1_565 S
C2357 C2353 1.429 . S
C2357 C2358 1.523 . S
C2358 C2342 1.368 . S
C2358 C2354 1.368 . S
C2358 C2357 1.523 . S
H2359 C2334 0.950 . S
H2360 C2336 0.950 . S
H2361 C2337 0.949 . S
H2362 C2339 0.950 . S
H2363 C2341 0.950 . S
C2364 C2365 1.349 . S
C2364 C2366 1.327 . S
C2364 H2389 0.950 . S
C2365 C2364 1.349 . S
C2365 C2381 1.349 . S
C2366 C2364 1.327 . S
C2366 C2385 1.429 . S
C2366 H2390 0.950 . S
C2367 C2384 1.574 . S
C2367 C2386 1.368 . S
C2367 H2391 0.949 . S
H2368 C2372 0.949 . S
C2369 C2370 1.349 . S
C2369 C2371 1.327 . S
C2369 H2392 0.950 . S
C2370 C2369 1.349 . S
C2370 C2382 1.349 1_655 S
C2371 C2369 1.327 . S
C2371 C2387 1.429 1_655 S
C2371 H2393 0.950 . S
C2372 H2368 0.949 . S
C2372 C2380 1.574 . S
C2372 C2388 1.368 . S
H2373 C2381 0.950 . S
H2374 C2379 0.950 . S
H2375 C2380 0.949 . S
H2376 C2382 0.950 . S
H2377 C2383 0.950 . S
H2378 C2384 0.949 . S
C2379 H2374 0.950 . S
C2379 C2381 1.327 . S
C2379 C2385 1.429 . S
C2380 C2372 1.574 . S
C2380 H2375 0.949 . S
C2380 C2386 1.368 . S
C2381 C2365 1.349 . S
C2381 H2373 0.950 . S
C2381 C2379 1.327 . S
C2382 C2370 1.349 1_455 S
C2382 H2376 0.950 . S
C2382 C2383 1.327 . S
C2383 H2377 0.950 . S
C2383 C2382 1.327 . S
C2383 C2387 1.429 . S
C2384 C2367 1.574 . S
C2384 H2378 0.949 . S
C2384 C2388 1.368 . S
C2385 C2366 1.429 . S
C2385 C2379 1.429 . S
C2385 C2386 1.523 . S
C2386 C2367 1.368 . S
C2386 C2380 1.368 . S
C2386 C2385 1.523 . S
C2387 C2371 1.429 1_455 S
C2387 C2383 1.429 . S
C2387 C2388 1.523 . S
C2388 C2372 1.368 . S
C2388 C2384 1.368 . S
C2388 C2387 1.523 . S
H2389 C2364 0.950 . S
H2390 C2366 0.950 . S
H2391 C2367 0.949 . S
H2392 C2369 0.950 . S
H2393 C2371 0.950 . S
C2394 C2395 1.349 . S
C2394 C2396 1.327 . S
C2394 H2419 0.950 . S
C2395 C2394 1.349 . S
C2395 C2411 1.349 . S
C2396 C2394 1.327 . S
C2396 C2415 1.429 . S
C2396 H2420 0.950 . S
C2397 C2414 1.574 . S
C2397 C2416 1.368 . S
C2397 H2421 0.949 . S
H2398 C2402 0.949 . S
C2399 C2400 1.349 . S
C2399 C2401 1.327 . S
C2399 H2422 0.950 . S
C2400 C2399 1.349 . S
C2400 C2412 1.349 . S
C2401 C2399 1.327 . S
C2401 C2417 1.429 . S
C2401 H2423 0.950 . S
C2402 H2398 0.949 . S
C2402 C2410 1.574 . S
C2402 C2418 1.368 . S
H2403 C2411 0.950 . S
H2404 C2409 0.950 . S
H2405 C2410 0.949 . S
H2406 C2412 0.950 . S
H2407 C2413 0.950 . S
H2408 C2414 0.949 . S
C2409 H2404 0.950 . S
C2409 C2411 1.327 . S
C2409 C2415 1.429 . S
C2410 C2402 1.574 . S
C2410 H2405 0.949 . S
C2410 C2416 1.368 . S
C2411 C2395 1.349 . S
C2411 H2403 0.950 . S
C2411 C2409 1.327 . S
C2412 C2400 1.349 . S
C2412 H2406 0.950 . S
C2412 C2413 1.327 . S
C2413 H2407 0.950 . S
C2413 C2412 1.327 . S
C2413 C2417 1.429 . S
C2414 C2397 1.574 . S
C2414 H2408 0.949 . S
C2414 C2418 1.368 . S
C2415 C2396 1.429 . S
C2415 C2409 1.429 . S
C2415 C2416 1.523 . S
C2416 C2397 1.368 . S
C2416 C2410 1.368 . S
C2416 C2415 1.523 . S
C2417 C2401 1.429 . S
C2417 C2413 1.429 . S
C2417 C2418 1.523 . S
C2418 C2402 1.368 . S
C2418 C2414 1.368 . S
C2418 C2417 1.523 . S
H2419 C2394 0.950 . S
H2420 C2396 0.950 . S
H2421 C2397 0.949 . S
H2422 C2399 0.950 . S
H2423 C2401 0.950 . S
C2424 C2425 1.349 . S
C2424 C2426 1.327 . S
C2424 H2449 0.950 . S
C2425 C2424 1.349 . S
C2425 C2441 1.349 1_565 S
C2426 C2424 1.327 . S
C2426 C2445 1.426 1_565 S
C2426 H2450 0.952 . S
C2427 C2444 1.574 . S
C2427 C2446 1.368 . S
C2427 H2451 0.949 . S
H2428 C2432 0.949 . S
C2429 C2430 1.349 . S
C2429 C2431 1.327 . S
C2429 H2452 0.950 . S
C2430 C2429 1.349 . S
C2430 C2442 1.349 . S
C2431 C2429 1.327 . S
C2431 C2447 1.429 . S
C2431 H2453 0.950 . S
C2432 H2428 0.949 . S
C2432 C2440 1.574 . S
C2432 C2448 1.368 . S
H2433 C2441 0.950 . S
H2434 C2439 0.950 . S
H2435 C2440 0.949 . S
H2436 C2442 0.950 . S
H2437 C2443 0.950 . S
H2438 C2444 0.949 . S
C2439 H2434 0.950 . S
C2439 C2441 1.327 . S
C2439 C2445 1.429 . S
C2440 C2432 1.574 . S
C2440 H2435 0.949 . S
C2440 C2446 1.368 . S
C2441 C2425 1.349 1_545 S
C2441 H2433 0.950 . S
C2441 C2439 1.327 . S
C2442 C2430 1.349 . S
C2442 H2436 0.950 . S
C2442 C2443 1.327 . S
C2443 H2437 0.950 . S
C2443 C2442 1.327 . S
C2443 C2447 1.429 . S
C2444 C2427 1.574 . S
C2444 H2438 0.949 . S
C2444 C2448 1.368 . S
C2445 C2426 1.426 1_545 S
C2445 C2439 1.429 . S
C2445 C2446 1.523 . S
C2446 C2427 1.368 . S
C2446 C2440 1.368 . S
C2446 C2445 1.523 . S
C2447 C2431 1.429 . S
C2447 C2443 1.429 . S
C2447 C2448 1.523 . S
C2448 C2432 1.368 . S
C2448 C2444 1.368 . S
C2448 C2447 1.523 . S
H2449 C2424 0.950 . S
H2450 C2426 0.952 . S
H2451 C2427 0.949 . S
H2452 C2429 0.950 . S
H2453 C2431 0.950 . S
C2454 C2455 1.349 . S
C2454 C2456 1.327 . S
C2454 H2479 0.950 . S
C2455 C2454 1.349 . S
C2455 C2471 1.349 . S
C2456 C2454 1.327 . S
C2456 C2475 1.429 . S
C2456 H2480 0.950 . S
C2457 C2474 1.574 . S
C2457 C2476 1.368 . S
C2457 H2481 0.949 . S
H2458 C2462 0.949 . S
C2459 C2460 1.349 . S
C2459 C2461 1.327 1_455 S
C2459 H2482 0.950 . S
C2460 C2459 1.349 . S
C2460 C2472 1.349 1_455 S
C2461 C2459 1.327 1_655 S
C2461 C2477 1.429 . S
C2461 H2483 0.950 . S
C2462 H2458 0.949 . S
C2462 C2470 1.574 . S
C2462 C2478 1.368 . S
H2463 C2471 0.950 . S
H2464 C2469 0.950 . S
H2465 C2470 0.949 . S
H2466 C2472 0.950 . S
H2467 C2473 0.950 . S
H2468 C2474 0.949 . S
C2469 H2464 0.950 . S
C2469 C2471 1.327 . S
C2469 C2475 1.429 . S
C2470 C2462 1.574 . S
C2470 H2465 0.949 . S
C2470 C2476 1.368 . S
C2471 C2455 1.349 . S
C2471 H2463 0.950 . S
C2471 C2469 1.327 . S
C2472 C2460 1.349 1_655 S
C2472 H2466 0.950 . S
C2472 C2473 1.327 . S
C2473 H2467 0.950 . S
C2473 C2472 1.327 . S
C2473 C2477 1.429 . S
C2474 C2457 1.574 . S
C2474 H2468 0.949 . S
C2474 C2478 1.368 . S
C2475 C2456 1.429 . S
C2475 C2469 1.429 . S
C2475 C2476 1.523 . S
C2476 C2457 1.368 . S
C2476 C2470 1.368 . S
C2476 C2475 1.523 . S
C2477 C2461 1.429 . S
C2477 C2473 1.429 . S
C2477 C2478 1.523 . S
C2478 C2462 1.368 . S
C2478 C2474 1.368 . S
C2478 C2477 1.523 . S
H2479 C2454 0.950 . S
H2480 C2456 0.950 . S
H2481 C2457 0.949 . S
H2482 C2459 0.950 . S
H2483 C2461 0.950 . S
C2484 C2485 1.349 . S
C2484 C2486 1.327 . S
C2484 H2509 0.950 . S
C2485 C2484 1.349 . S
C2485 C2501 1.349 . S
C2486 C2484 1.327 . S
C2486 C2505 1.429 . S
C2486 H2510 0.950 . S
C2487 C2504 1.574 . S
C2487 C2506 1.368 . S
C2487 H2511 0.949 . S
H2488 C2492 0.949 . S
C2489 C2490 1.349 . S
C2489 C2491 1.327 . S
C2489 H2512 0.950 . S
C2490 C2489 1.349 . S
C2490 C2502 1.349 . S
C2491 C2489 1.327 . S
C2491 C2507 1.429 . S
C2491 H2513 0.950 . S
C2492 H2488 0.949 . S
C2492 C2500 1.574 . S
C2492 C2508 1.368 . S
H2493 C2501 0.950 . S
H2494 C2499 0.950 . S
H2495 C2500 0.949 . S
H2496 C2502 0.950 . S
H2497 C2503 0.950 . S
H2498 C2504 0.949 . S
C2499 H2494 0.950 . S
C2499 C2501 1.327 . S
C2499 C2505 1.429 . S
C2500 C2492 1.574 . S
C2500 H2495 0.949 . S
C2500 C2506 1.368 . S
C2501 C2485 1.349 . S
C2501 H2493 0.950 . S
C2501 C2499 1.327 . S
C2502 C2490 1.349 . S
C2502 H2496 0.950 . S
C2502 C2503 1.327 . S
C2503 H2497 0.950 . S
C2503 C2502 1.327 . S
C2503 C2507 1.429 . S
C2504 C2487 1.574 . S
C2504 H2498 0.949 . S
C2504 C2508 1.368 . S
C2505 C2486 1.429 . S
C2505 C2499 1.429 . S
C2505 C2506 1.523 . S
C2506 C2487 1.368 . S
C2506 C2500 1.368 . S
C2506 C2505 1.523 . S
C2507 C2491 1.429 . S
C2507 C2503 1.429 . S
C2507 C2508 1.523 . S
C2508 C2492 1.368 . S
C2508 C2504 1.368 . S
C2508 C2507 1.523 . S
H2509 C2484 0.950 . S
H2510 C2486 0.950 . S
H2511 C2487 0.949 . S
H2512 C2489 0.950 . S
H2513 C2491 0.950 . S
C2514 C2515 1.349 . S
C2514 C2516 1.327 . S
C2514 H2539 0.950 . S
C2515 C2514 1.349 . S
C2515 C2531 1.349 . S
C2516 C2514 1.327 . S
C2516 C2535 1.429 . S
C2516 H2540 0.950 . S
C2517 C2534 1.574 . S
C2517 C2536 1.368 . S
C2517 H2541 0.949 . S
H2518 C2522 0.949 . S
C2519 C2520 1.349 . S
C2519 C2521 1.327 1_565 S
C2519 H2542 0.950 . S
C2520 C2519 1.349 . S
C2520 C2532 1.352 1_565 S
C2521 C2519 1.327 1_545 S
C2521 C2537 1.429 . S
C2521 H2543 0.950 . S
C2522 H2518 0.949 . S
C2522 C2530 1.574 . S
C2522 C2538 1.368 . S
H2523 C2531 0.950 . S
H2524 C2529 0.950 . S
H2525 C2530 0.949 . S
H2526 C2532 0.950 1_565 S
H2527 C2533 0.950 . S
H2528 C2534 0.949 . S
C2529 H2524 0.950 . S
C2529 C2531 1.327 . S
C2529 C2535 1.429 . S
C2530 C2522 1.574 . S
C2530 H2525 0.949 . S
C2530 C2536 1.368 . S
C2531 C2515 1.349 . S
C2531 H2523 0.950 . S
C2531 C2529 1.327 . S
C2532 C2520 1.352 1_545 S
C2532 H2526 0.950 1_545 S
C2532 C2533 1.323 . S
C2533 H2527 0.950 . S
C2533 C2532 1.323 . S
C2533 C2537 1.429 . S
C2534 C2517 1.574 . S
C2534 H2528 0.949 . S
C2534 C2538 1.368 . S
C2535 C2516 1.429 . S
C2535 C2529 1.429 . S
C2535 C2536 1.523 . S
C2536 C2517 1.368 . S
C2536 C2530 1.368 . S
C2536 C2535 1.523 . S
C2537 C2521 1.429 . S
C2537 C2533 1.429 . S
C2537 C2538 1.523 . S
C2538 C2522 1.368 . S
C2538 C2534 1.368 . S
C2538 C2537 1.523 . S
H2539 C2514 0.950 . S
H2540 C2516 0.950 . S
H2541 C2517 0.949 . S
H2542 C2519 0.950 . S
H2543 C2521 0.950 . S
C2544 C2545 1.349 . S
C2544 C2546 1.327 . S
C2544 H2569 0.950 . S
C2545 C2544 1.349 . S
C2545 C2561 1.349 . S
C2546 C2544 1.327 . S
C2546 C2565 1.429 . S
C2546 H2570 0.950 . S
C2547 C2564 1.574 . S
C2547 C2566 1.368 . S
C2547 H2571 0.949 . S
H2548 C2552 0.949 . S
C2549 C2550 1.335 1_655 S
C2549 C2551 1.332 . S
C2549 H2572 0.960 1_655 S
C2550 C2549 1.335 1_455 S
C2550 C2562 1.349 . S
C2551 C2549 1.332 . S
C2551 C2567 1.429 . S
C2551 H2573 0.950 . S
C2552 H2548 0.949 . S
C2552 C2560 1.574 . S
C2552 C2568 1.368 . S
H2553 C2561 0.950 . S
H2554 C2559 0.950 . S
H2555 C2560 0.949 . S
H2556 C2562 0.950 . S
H2557 C2563 0.950 . S
H2558 C2564 0.949 . S
C2559 H2554 0.950 . S
C2559 C2561 1.327 . S
C2559 C2565 1.429 . S
C2560 C2552 1.574 . S
C2560 H2555 0.949 . S
C2560 C2566 1.368 . S
C2561 C2545 1.349 . S
C2561 H2553 0.950 . S
C2561 C2559 1.327 . S
C2562 C2550 1.349 . S
C2562 H2556 0.950 . S
C2562 C2563 1.327 1_455 S
C2563 H2557 0.950 . S
C2563 C2562 1.327 1_655 S
C2563 C2567 1.429 . S
C2564 C2547 1.574 . S
C2564 H2558 0.949 . S
C2564 C2568 1.368 . S
C2565 C2546 1.429 . S
C2565 C2559 1.429 . S
C2565 C2566 1.523 . S
C2566 C2547 1.368 . S
C2566 C2560 1.368 . S
C2566 C2565 1.523 . S
C2567 C2551 1.429 . S
C2567 C2563 1.429 . S
C2567 C2568 1.523 . S
C2568 C2552 1.368 . S
C2568 C2564 1.368 . S
C2568 C2567 1.523 . S
H2569 C2544 0.950 . S
H2570 C2546 0.950 . S
H2571 C2547 0.949 . S
H2572 C2549 0.960 1_455 S
H2573 C2551 0.950 . S
C2574 C2575 1.349 . S
C2574 C2576 1.327 . S
C2574 H2599 0.950 . S
C2575 C2574 1.349 . S
C2575 C2591 1.349 . S
C2576 C2574 1.327 . S
C2576 C2595 1.429 . S
C2576 H2600 0.950 . S
C2577 C2594 1.574 . S
C2577 C2596 1.368 . S
C2577 H2601 0.949 . S
H2578 C2582 0.949 . S
C2579 C2580 1.349 . S
C2579 C2581 1.327 . S
C2579 H2602 0.950 . S
C2580 C2579 1.349 . S
C2580 C2592 1.349 . S
C2581 C2579 1.327 . S
C2581 C2597 1.429 . S
C2581 H2603 0.950 . S
C2582 H2578 0.949 . S
C2582 C2590 1.574 . S
C2582 C2598 1.368 . S
H2583 C2591 0.950 . S
H2584 C2589 0.950 . S
H2585 C2590 0.949 . S
H2586 C2592 0.950 . S
H2587 C2593 0.950 . S
H2588 C2594 0.949 . S
C2589 H2584 0.950 . S
C2589 C2591 1.327 . S
C2589 C2595 1.429 . S
C2590 C2582 1.574 . S
C2590 H2585 0.949 . S
C2590 C2596 1.368 . S
C2591 C2575 1.349 . S
C2591 H2583 0.950 . S
C2591 C2589 1.327 . S
C2592 C2580 1.349 . S
C2592 H2586 0.950 . S
C2592 C2593 1.327 . S
C2593 H2587 0.950 . S
C2593 C2592 1.327 . S
C2593 C2597 1.429 . S
C2594 C2577 1.574 . S
C2594 H2588 0.949 . S
C2594 C2598 1.368 . S
C2595 C2576 1.429 . S
C2595 C2589 1.429 . S
C2595 C2596 1.523 . S
C2596 C2577 1.368 . S
C2596 C2590 1.368 . S
C2596 C2595 1.523 . S
C2597 C2581 1.429 . S
C2597 C2593 1.429 . S
C2597 C2598 1.523 . S
C2598 C2582 1.368 . S
C2598 C2594 1.368 . S
C2598 C2597 1.523 . S
H2599 C2574 0.950 . S
H2600 C2576 0.950 . S
H2601 C2577 0.949 . S
H2602 C2579 0.950 . S
H2603 C2581 0.950 . S
C2604 C2605 1.349 . S
C2604 C2606 1.327 . S
C2604 H2629 0.950 . S
C2605 C2604 1.349 . S
C2605 C2621 1.349 . S
C2606 C2604 1.327 . S
C2606 C2625 1.429 . S
C2606 H2630 0.950 . S
C2607 C2624 1.574 . S
C2607 C2626 1.368 . S
C2607 H2631 0.949 . S
H2608 C2612 0.949 . S
C2609 C2610 1.349 1_565 S
C2609 C2611 1.327 . S
C2609 H2632 0.950 . S
C2610 C2609 1.349 1_545 S
C2610 C2622 1.349 . S
C2611 C2609 1.327 . S
C2611 C2627 1.429 . S
C2611 H2633 0.950 . S
C2612 H2608 0.949 . S
C2612 C2620 1.574 . S
C2612 C2628 1.368 . S
H2613 C2621 0.950 . S
H2614 C2619 0.950 . S
H2615 C2620 0.949 . S
H2616 C2622 0.950 . S
H2617 C2623 0.950 . S
H2618 C2624 0.949 . S
C2619 H2614 0.950 . S
C2619 C2621 1.327 . S
C2619 C2625 1.429 . S
C2620 C2612 1.574 . S
C2620 H2615 0.949 . S
C2620 C2626 1.368 . S
C2621 C2605 1.349 . S
C2621 H2613 0.950 . S
C2621 C2619 1.327 . S
C2622 C2610 1.349 . S
C2622 H2616 0.950 . S
C2622 C2623 1.327 . S
C2623 H2617 0.950 . S
C2623 C2622 1.327 . S
C2623 C2627 1.429 1_545 S
C2624 C2607 1.574 . S
C2624 H2618 0.949 . S
C2624 C2628 1.368 . S
C2625 C2606 1.429 . S
C2625 C2619 1.429 . S
C2625 C2626 1.523 . S
C2626 C2607 1.368 . S
C2626 C2620 1.368 . S
C2626 C2625 1.523 . S
C2627 C2611 1.429 . S
C2627 C2623 1.429 1_565 S
C2627 C2628 1.523 . S
C2628 C2612 1.368 . S
C2628 C2624 1.368 . S
C2628 C2627 1.523 . S
H2629 C2604 0.950 . S
H2630 C2606 0.950 . S
H2631 C2607 0.949 . S
H2632 C2609 0.950 . S
H2633 C2611 0.950 . S
C2634 C2635 1.349 . S
C2634 C2636 1.327 . S
C2634 H2659 0.950 . S
C2635 C2634 1.349 . S
C2635 C2651 1.349 . S
C2636 C2634 1.327 . S
C2636 C2655 1.429 . S
C2636 H2660 0.950 . S
C2637 C2654 1.574 . S
C2637 C2656 1.368 . S
C2637 H2661 0.949 . S
H2638 C2642 0.949 . S
C2639 C2640 1.349 . S
C2639 C2641 1.327 1_655 S
C2639 H2662 0.950 . S
C2640 C2639 1.349 . S
C2640 C2652 1.349 1_655 S
C2641 C2639 1.327 1_455 S
C2641 C2657 1.429 . S
C2641 H2663 0.950 . S
C2642 H2638 0.949 . S
C2642 C2650 1.574 . S
C2642 C2658 1.368 . S
H2643 C2651 0.950 . S
H2644 C2649 0.950 . S
H2645 C2650 0.949 . S
H2646 C2652 0.950 . S
H2647 C2653 0.950 . S
H2648 C2654 0.949 . S
C2649 H2644 0.950 . S
C2649 C2651 1.327 . S
C2649 C2655 1.429 . S
C2650 C2642 1.574 . S
C2650 H2645 0.949 . S
C2650 C2656 1.368 . S
C2651 C2635 1.349 . S
C2651 H2643 0.950 . S
C2651 C2649 1.327 . S
C2652 C2640 1.349 1_455 S
C2652 H2646 0.950 . S
C2652 C2653 1.327 . S
C2653 H2647 0.950 . S
C2653 C2652 1.327 . S
C2653 C2657 1.429 . S
C2654 C2637 1.574 . S
C2654 H2648 0.949 . S
C2654 C2658 1.368 . S
C2655 C2636 1.429 . S
C2655 C2649 1.429 . S
C2655 C2656 1.523 . S
C2656 C2637 1.368 . S
C2656 C2650 1.368 . S
C2656 C2655 1.523 . S
C2657 C2641 1.429 . S
C2657 C2653 1.429 . S
C2657 C2658 1.523 . S
C2658 C2642 1.368 . S
C2658 C2654 1.368 . S
C2658 C2657 1.523 . S
H2659 C2634 0.950 . S
H2660 C2636 0.950 . S
H2661 C2637 0.949 . S
H2662 C2639 0.950 . S
H2663 C2641 0.950 . S
C2664 C2665 1.349 . S
C2664 C2666 1.327 . S
C2664 H2689 0.950 . S
C2665 C2664 1.349 . S
C2665 C2681 1.349 . S
C2666 C2664 1.327 . S
C2666 C2685 1.429 . S
C2666 H2690 0.950 . S
C2667 C2684 1.574 . S
C2667 C2686 1.368 . S
C2667 H2691 0.949 . S
H2668 C2672 0.949 . S
C2669 C2670 1.349 . S
C2669 C2671 1.327 . S
C2669 H2692 0.950 . S
C2670 C2669 1.349 . S
C2670 C2682 1.349 . S
C2671 C2669 1.327 . S
C2671 C2687 1.429 . S
C2671 H2693 0.950 . S
C2672 H2668 0.949 . S
C2672 C2680 1.574 . S
C2672 C2688 1.368 . S
H2673 C2681 0.950 . S
H2674 C2679 0.950 . S
H2675 C2680 0.949 . S
H2676 C2682 0.950 . S
H2677 C2683 0.950 1_655 S
H2678 C2684 0.949 1_455 S
C2679 H2674 0.950 . S
C2679 C2681 1.327 . S
C2679 C2685 1.429 . S
C2680 C2672 1.574 . S
C2680 H2675 0.949 . S
C2680 C2686 1.368 . S
C2681 C2665 1.349 . S
C2681 H2673 0.950 . S
C2681 C2679 1.327 . S
C2682 C2670 1.349 . S
C2682 H2676 0.950 . S
C2682 C2683 1.327 . S
C2683 H2677 0.950 1_455 S
C2683 C2682 1.327 . S
C2683 C2687 1.429 . S
C2684 C2667 1.574 . S
C2684 H2678 0.949 1_655 S
C2684 C2688 1.368 . S
C2685 C2666 1.429 . S
C2685 C2679 1.429 . S
C2685 C2686 1.523 . S
C2686 C2667 1.368 . S
C2686 C2680 1.368 . S
C2686 C2685 1.523 . S
C2687 C2671 1.429 . S
C2687 C2683 1.429 . S
C2687 C2688 1.523 1_455 S
C2688 C2672 1.368 . S
C2688 C2684 1.368 . S
C2688 C2687 1.523 1_655 S
H2689 C2664 0.950 . S
H2690 C2666 0.950 . S
H2691 C2667 0.949 . S
H2692 C2669 0.950 . S
H2693 C2671 0.950 . S
C2694 C2695 1.349 . S
C2694 C2696 1.327 . S
C2694 H2719 0.950 . S
C2695 C2694 1.349 . S
C2695 C2711 1.349 . S
C2696 C2694 1.327 . S
C2696 C2715 1.429 . S
C2696 H2720 0.950 . S
C2697 C2714 1.574 . S
C2697 C2716 1.368 . S
C2697 H2721 0.949 . S
H2698 C2702 0.949 . S
C2699 C2700 1.349 . S
C2699 C2701 1.327 . S
C2699 H2722 0.950 . S
C2700 C2699 1.349 . S
C2700 C2712 1.349 . S
C2701 C2699 1.327 . S
C2701 C2717 1.429 . S
C2701 H2723 0.950 . S
C2702 H2698 0.949 . S
C2702 C2710 1.574 . S
C2702 C2718 1.368 . S
H2703 C2711 0.950 . S
H2704 C2709 0.950 . S
H2705 C2710 0.949 . S
H2706 C2712 0.950 . S
H2707 C2713 0.950 . S
H2708 C2714 0.949 . S
C2709 H2704 0.950 . S
C2709 C2711 1.327 . S
C2709 C2715 1.429 . S
C2710 C2702 1.574 . S
C2710 H2705 0.949 . S
C2710 C2716 1.368 . S
C2711 C2695 1.349 . S
C2711 H2703 0.950 . S
C2711 C2709 1.327 . S
C2712 C2700 1.349 . S
C2712 H2706 0.950 . S
C2712 C2713 1.327 . S
C2713 H2707 0.950 . S
C2713 C2712 1.327 . S
C2713 C2717 1.429 . S
C2714 C2697 1.574 . S
C2714 H2708 0.949 . S
C2714 C2718 1.368 . S
C2715 C2696 1.429 . S
C2715 C2709 1.429 . S
C2715 C2716 1.523 . S
C2716 C2697 1.368 . S
C2716 C2710 1.368 . S
C2716 C2715 1.523 . S
C2717 C2701 1.429 . S
C2717 C2713 1.429 . S
C2717 C2718 1.523 . S
C2718 C2702 1.368 . S
C2718 C2714 1.368 . S
C2718 C2717 1.523 . S
H2719 C2694 0.950 . S
H2720 C2696 0.950 . S
H2721 C2697 0.949 . S
H2722 C2699 0.950 . S
H2723 C2701 0.950 . S
C2724 C2725 1.349 . S
C2724 C2726 1.327 . S
C2724 H2749 0.950 . S
C2725 C2724 1.349 . S
C2725 C2741 1.349 . S
C2726 C2724 1.327 . S
C2726 C2745 1.429 . S
C2726 H2750 0.950 1_565 S
C2727 C2744 1.574 . S
C2727 C2746 1.368 . S
C2727 H2751 0.949 . S
H2728 C2732 0.949 . S
C2729 C2730 1.349 . S
C2729 C2731 1.327 . S
C2729 H2752 0.950 . S
C2730 C2729 1.349 . S
C2730 C2742 1.349 . S
C2731 C2729 1.327 . S
C2731 C2747 1.429 . S
C2731 H2753 0.950 . S
C2732 H2728 0.949 . S
C2732 C2740 1.574 . S
C2732 C2748 1.368 . S
H2733 C2741 0.950 . S
H2734 C2739 0.950 . S
H2735 C2740 0.949 . S
H2736 C2742 0.950 . S
H2737 C2743 0.950 . S
H2738 C2744 0.949 . S
C2739 H2734 0.950 . S
C2739 C2741 1.327 . S
C2739 C2745 1.429 . S
C2740 C2732 1.574 . S
C2740 H2735 0.949 . S
C2740 C2746 1.368 . S
C2741 C2725 1.349 . S
C2741 H2733 0.950 . S
C2741 C2739 1.327 . S
C2742 C2730 1.349 . S
C2742 H2736 0.950 . S
C2742 C2743 1.327 . S
C2743 H2737 0.950 . S
C2743 C2742 1.327 . S
C2743 C2747 1.429 . S
C2744 C2727 1.574 . S
C2744 H2738 0.949 . S
C2744 C2748 1.368 . S
C2745 C2726 1.429 . S
C2745 C2739 1.429 . S
C2745 C2746 1.523 1_565 S
C2746 C2727 1.368 . S
C2746 C2740 1.368 . S
C2746 C2745 1.523 1_545 S
C2747 C2731 1.429 . S
C2747 C2743 1.429 . S
C2747 C2748 1.523 . S
C2748 C2732 1.368 . S
C2748 C2744 1.368 . S
C2748 C2747 1.523 . S
H2749 C2724 0.950 . S
H2750 C2726 0.950 1_545 S
H2751 C2727 0.949 . S
H2752 C2729 0.950 . S
H2753 C2731 0.950 . S
C2754 C2755 1.349 . S
C2754 C2756 1.327 . S
C2754 H2779 0.950 . S
C2755 C2754 1.349 . S
C2755 C2771 1.349 . S
C2756 C2754 1.327 . S
C2756 C2775 1.429 . S
C2756 H2780 0.950 . S
C2757 C2774 1.574 . S
C2757 C2776 1.381 1_455 S
C2757 H2781 0.951 . S
H2758 C2762 0.949 . S
C2759 C2760 1.349 . S
C2759 C2761 1.327 . S
C2759 H2782 0.950 . S
C2760 C2759 1.349 . S
C2760 C2772 1.349 . S
C2761 C2759 1.327 . S
C2761 C2777 1.429 . S
C2761 H2783 0.950 . S
C2762 H2758 0.949 . S
C2762 C2770 1.574 . S
C2762 C2778 1.368 . S
H2763 C2771 0.950 . S
H2764 C2769 0.950 . S
H2765 C2770 0.949 1_655 S
H2766 C2772 0.950 . S
H2767 C2773 0.950 . S
H2768 C2774 0.949 . S
C2769 H2764 0.950 . S
C2769 C2771 1.327 . S
C2769 C2775 1.429 . S
C2770 C2762 1.574 . S
C2770 H2765 0.949 1_455 S
C2770 C2776 1.361 1_455 S
C2771 C2755 1.349 . S
C2771 H2763 0.950 . S
C2771 C2769 1.327 . S
C2772 C2760 1.349 . S
C2772 H2766 0.950 . S
C2772 C2773 1.327 . S
C2773 H2767 0.950 . S
C2773 C2772 1.327 . S
C2773 C2777 1.429 . S
C2774 C2757 1.574 . S
C2774 H2768 0.949 . S
C2774 C2778 1.368 . S
C2775 C2756 1.429 . S
C2775 C2769 1.429 . S
C2775 C2776 1.519 . S
C2776 C2757 1.381 1_655 S
C2776 C2770 1.361 1_655 S
C2776 C2775 1.519 . S
C2777 C2761 1.429 . S
C2777 C2773 1.429 . S
C2777 C2778 1.523 . S
C2778 C2762 1.368 . S
C2778 C2774 1.368 . S
C2778 C2777 1.523 . S
H2779 C2754 0.950 . S
H2780 C2756 0.950 . S
H2781 C2757 0.951 . S
H2782 C2759 0.950 . S
H2783 C2761 0.950 . S
C2784 C2785 1.349 . S
C2784 C2786 1.327 . S
C2784 H2809 0.950 . S
C2785 C2784 1.349 . S
C2785 C2801 1.349 . S
C2786 C2784 1.327 . S
C2786 C2805 1.429 . S
C2786 H2810 0.950 . S
C2787 C2804 1.574 . S
C2787 C2806 1.368 . S
C2787 H2811 0.949 . S
H2788 C2792 0.949 . S
C2789 C2790 1.349 . S
C2789 C2791 1.327 . S
C2789 H2812 0.950 . S
C2790 C2789 1.349 . S
C2790 C2802 1.349 . S
C2791 C2789 1.327 . S
C2791 C2807 1.429 . S
C2791 H2813 0.950 . S
C2792 H2788 0.949 . S
C2792 C2800 1.574 . S
C2792 C2808 1.368 . S
H2793 C2801 0.950 . S
H2794 C2799 0.950 . S
H2795 C2800 0.949 . S
H2796 C2802 0.950 . S
H2797 C2803 0.950 . S
H2798 C2804 0.949 . S
C2799 H2794 0.950 . S
C2799 C2801 1.327 . S
C2799 C2805 1.429 . S
C2800 C2792 1.574 . S
C2800 H2795 0.949 . S
C2800 C2806 1.368 . S
C2801 C2785 1.349 . S
C2801 H2793 0.950 . S
C2801 C2799 1.327 . S
C2802 C2790 1.349 . S
C2802 H2796 0.950 . S
C2802 C2803 1.327 . S
C2803 H2797 0.950 . S
C2803 C2802 1.327 . S
C2803 C2807 1.429 . S
C2804 C2787 1.574 . S
C2804 H2798 0.949 . S
C2804 C2808 1.368 . S
C2805 C2786 1.429 . S
C2805 C2799 1.429 . S
C2805 C2806 1.523 . S
C2806 C2787 1.368 . S
C2806 C2800 1.368 . S
C2806 C2805 1.523 . S
C2807 C2791 1.429 . S
C2807 C2803 1.429 . S
C2807 C2808 1.523 . S
C2808 C2792 1.368 . S
C2808 C2804 1.368 . S
C2808 C2807 1.523 . S
H2809 C2784 0.950 . S
H2810 C2786 0.950 . S
H2811 C2787 0.949 . S
H2812 C2789 0.950 . S
H2813 C2791 0.950 . S
C2814 C2815 1.349 . S
C2814 C2816 1.327 . S
C2814 H2839 0.950 . S
C2815 C2814 1.349 . S
C2815 C2831 1.349 . S
C2816 C2814 1.327 . S
C2816 C2835 1.429 . S
C2816 H2840 0.950 1_545 S
C2817 C2834 1.574 1_545 S
C2817 C2836 1.379 . S
C2817 H2841 0.949 . S
H2818 C2822 0.949 . S
C2819 C2820 1.349 . S
C2819 C2821 1.327 . S
C2819 H2842 0.950 . S
C2820 C2819 1.349 . S
C2820 C2832 1.349 . S
C2821 C2819 1.327 . S
C2821 C2837 1.429 . S
C2821 H2843 0.950 . S
C2822 H2818 0.949 . S
C2822 C2830 1.574 . S
C2822 C2838 1.368 . S
H2823 C2831 0.950 . S
H2824 C2829 0.950 . S
H2825 C2830 0.949 . S
H2826 C2832 0.950 . S
H2827 C2833 0.950 . S
H2828 C2834 0.949 1_545 S
C2829 H2824 0.950 . S
C2829 C2831 1.327 . S
C2829 C2835 1.429 . S
C2830 C2822 1.574 . S
C2830 H2825 0.949 . S
C2830 C2836 1.338 1_565 S
C2831 C2815 1.349 . S
C2831 H2823 0.950 . S
C2831 C2829 1.327 . S
C2832 C2820 1.349 . S
C2832 H2826 0.950 . S
C2832 C2833 1.327 . S
C2833 H2827 0.950 . S
C2833 C2832 1.327 . S
C2833 C2837 1.429 . S
C2834 C2817 1.574 1_565 S
C2834 H2828 0.949 1_565 S
C2834 C2838 1.368 . S
C2835 C2816 1.429 . S
C2835 C2829 1.429 . S
C2835 C2836 1.549 . S
C2836 C2817 1.379 . S
C2836 C2830 1.338 1_545 S
C2836 C2835 1.549 . S
C2837 C2821 1.429 . S
C2837 C2833 1.429 . S
C2837 C2838 1.523 . S
C2838 C2822 1.368 . S
C2838 C2834 1.368 . S
C2838 C2837 1.523 . S
H2839 C2814 0.950 . S
H2840 C2816 0.950 1_565 S
H2841 C2817 0.949 . S
H2842 C2819 0.950 . S
H2843 C2821 0.950 . S
C2844 C2845 1.349 . S
C2844 C2846 1.327 . S
C2844 H2869 0.950 . S
C2845 C2844 1.349 . S
C2845 C2861 1.349 . S
C2846 C2844 1.327 . S
C2846 C2865 1.429 . S
C2846 H2870 0.950 . S
C2847 C2864 1.574 1_565 S
C2847 C2866 1.368 . S
C2847 H2871 0.949 . S
H2848 C2852 0.949 . S
C2849 C2850 1.349 . S
C2849 C2851 1.327 . S
C2849 H2872 0.950 . S
C2850 C2849 1.349 . S
C2850 C2862 1.349 . S
C2851 C2849 1.327 . S
C2851 C2867 1.429 . S
C2851 H2873 0.950 . S
C2852 H2848 0.949 . S
C2852 C2860 1.574 . S
C2852 C2868 1.368 1_565 S
H2853 C2861 0.950 . S
H2854 C2859 0.950 . S
H2855 C2860 0.949 . S
H2856 C2862 0.950 . S
H2857 C2863 0.949 1_565 S
H2858 C2864 0.949 . S
C2859 H2854 0.950 . S
C2859 C2861 1.327 . S
C2859 C2865 1.429 . S
C2860 C2852 1.574 . S
C2860 H2855 0.949 . S
C2860 C2866 1.368 . S
C2861 C2845 1.349 . S
C2861 H2853 0.950 . S
C2861 C2859 1.327 . S
C2862 C2850 1.349 . S
C2862 H2856 0.950 . S
C2862 C2863 1.327 . S
C2863 H2857 0.949 1_545 S
C2863 C2862 1.327 . S
C2863 C2867 1.429 . S
C2864 C2847 1.574 1_545 S
C2864 H2858 0.949 . S
C2864 C2868 1.374 . S
C2865 C2846 1.429 . S
C2865 C2859 1.429 . S
C2865 C2866 1.523 . S
C2866 C2847 1.368 . S
C2866 C2860 1.368 . S
C2866 C2865 1.523 . S
C2867 C2851 1.429 . S
C2867 C2863 1.429 . S
C2867 C2868 1.519 . S
C2868 C2852 1.368 1_545 S
C2868 C2864 1.374 . S
C2868 C2867 1.519 . S
H2869 C2844 0.950 . S
H2870 C2846 0.950 . S
H2871 C2847 0.949 . S
H2872 C2849 0.950 . S
H2873 C2851 0.950 . S
C2874 C2875 1.349 . S
C2874 C2876 1.327 . S
C2874 H2899 0.950 . S
C2875 C2874 1.349 . S
C2875 C2891 1.349 . S
C2876 C2874 1.327 . S
C2876 C2895 1.429 . S
C2876 H2900 0.950 . S
C2877 C2894 1.574 1_655 S
C2877 C2896 1.375 . S
C2877 H2901 0.949 . S
H2878 C2882 0.949 . S
C2879 C2880 1.349 . S
C2879 C2881 1.327 . S
C2879 H2902 0.950 . S
C2880 C2879 1.349 . S
C2880 C2892 1.349 . S
C2881 C2879 1.327 . S
C2881 C2897 1.429 . S
C2881 H2903 0.950 . S
C2882 H2878 0.949 . S
C2882 C2890 1.574 . S
C2882 C2898 1.368 . S
H2883 C2891 0.950 . S
H2884 C2889 0.950 . S
H2885 C2890 0.949 . S
H2886 C2892 0.950 . S
H2887 C2893 0.950 . S
H2888 C2894 0.949 . S
C2889 H2884 0.950 . S
C2889 C2891 1.327 . S
C2889 C2895 1.429 . S
C2890 C2882 1.574 . S
C2890 H2885 0.949 . S
C2890 C2896 1.343 1_455 S
C2891 C2875 1.349 . S
C2891 H2883 0.950 . S
C2891 C2889 1.327 . S
C2892 C2880 1.349 . S
C2892 H2886 0.950 . S
C2892 C2893 1.327 . S
C2893 H2887 0.950 . S
C2893 C2892 1.327 . S
C2893 C2897 1.429 . S
C2894 C2877 1.574 1_455 S
C2894 H2888 0.949 . S
C2894 C2898 1.368 . S
C2895 C2876 1.429 . S
C2895 C2889 1.429 . S
C2895 C2896 1.549 . S
C2896 C2877 1.375 . S
C2896 C2890 1.343 1_655 S
C2896 C2895 1.549 . S
C2897 C2881 1.429 . S
C2897 C2893 1.429 . S
C2897 C2898 1.523 . S
C2898 C2882 1.368 . S
C2898 C2894 1.368 . S
C2898 C2897 1.523 . S
H2899 C2874 0.950 . S
H2900 C2876 0.950 . S
H2901 C2877 0.949 . S
H2902 C2879 0.950 . S
H2903 C2881 0.950 . S
C2904 C2905 1.349 . S
C2904 C2906 1.327 . S
C2904 H2929 0.950 . S
C2905 C2904 1.349 . S
C2905 C2921 1.349 . S
C2906 C2904 1.327 . S
C2906 C2925 1.429 . S
C2906 H2930 0.950 . S
C2907 C2924 1.574 . S
C2907 C2926 1.368 . S
C2907 H2931 0.949 . S
H2908 C2912 0.949 . S
C2909 C2910 1.349 . S
C2909 C2911 1.327 . S
C2909 H2932 0.950 . S
C2910 C2909 1.349 . S
C2910 C2922 1.349 . S
C2911 C2909 1.327 . S
C2911 C2927 1.429 . S
C2911 H2933 0.950 . S
C2912 H2908 0.949 . S
C2912 C2920 1.574 . S
C2912 C2928 1.368 . S
H2913 C2921 0.950 . S
H2914 C2919 0.950 . S
H2915 C2920 0.949 . S
H2916 C2922 0.950 . S
H2917 C2923 0.950 . S
H2918 C2924 0.949 . S
C2919 H2914 0.950 . S
C2919 C2921 1.327 . S
C2919 C2925 1.429 . S
C2920 C2912 1.574 . S
C2920 H2915 0.949 . S
C2920 C2926 1.368 . S
C2921 C2905 1.349 . S
C2921 H2913 0.950 . S
C2921 C2919 1.327 . S
C2922 C2910 1.349 . S
C2922 H2916 0.950 . S
C2922 C2923 1.327 . S
C2923 H2917 0.950 . S
C2923 C2922 1.327 . S
C2923 C2927 1.429 . S
C2924 C2907 1.574 . S
C2924 H2918 0.949 . S
C2924 C2928 1.368 . S
C2925 C2906 1.429 . S
C2925 C2919 1.429 . S
C2925 C2926 1.523 . S
C2926 C2907 1.368 . S
C2926 C2920 1.368 . S
C2926 C2925 1.523 . S
C2927 C2911 1.429 . S
C2927 C2923 1.429 . S
C2927 C2928 1.523 . S
C2928 C2912 1.368 . S
C2928 C2924 1.368 . S
C2928 C2927 1.523 . S
H2929 C2904 0.950 . S
H2930 C2906 0.950 . S
H2931 C2907 0.949 . S
H2932 C2909 0.950 . S
H2933 C2911 0.950 . S
C2934 C2935 1.349 . S
C2934 C2936 1.327 . S
C2934 H2959 0.950 . S
C2935 C2934 1.349 . S
C2935 C2951 1.349 . S
C2936 C2934 1.327 . S
C2936 C2955 1.429 . S
C2936 H2960 0.912 1_565 S
C2937 C2954 1.574 . S
C2937 C2956 1.368 1_554 S
C2937 H2961 0.949 . S
H2938 C2942 0.922 1_556 S
C2939 C2940 1.349 . S
C2939 C2941 1.327 . S
C2939 H2962 0.950 . S
C2940 C2939 1.349 . S
C2940 C2952 1.349 . S
C2941 C2939 1.327 . S
C2941 C2957 1.429 . S
C2941 H2963 0.950 . S
C2942 H2938 0.922 1_554 S
C2942 C2950 1.522 1_554 S
C2942 C2958 1.451 . S
H2943 C2951 0.950 . S
H2944 C2949 0.860 1_554 S
H2945 C2950 0.949 . S
H2946 C2952 0.950 . S
H2947 C2953 0.950 . S
H2948 C2954 0.949 . S
C2949 H2944 0.860 1_556 S
C2949 C2951 1.327 . S
C2949 C2955 1.429 . S
C2950 C2942 1.522 1_556 S
C2950 H2945 0.949 . S
C2950 C2956 1.368 . S
C2951 C2935 1.349 . S
C2951 H2943 0.950 . S
C2951 C2949 1.327 . S
C2952 C2940 1.349 . S
C2952 H2946 0.950 . S
C2952 C2953 1.327 . S
C2953 H2947 0.950 . S
C2953 C2952 1.327 . S
C2953 C2957 1.429 . S
C2954 C2937 1.574 . S
C2954 H2948 0.949 . S
C2954 C2958 1.368 . S
C2955 C2936 1.429 . S
C2955 C2949 1.429 . S
C2955 C2956 1.523 1_565 S
C2956 C2937 1.368 1_556 S
C2956 C2950 1.368 . S
C2956 C2955 1.523 1_545 S
C2957 C2941 1.429 . S
C2957 C2953 1.429 . S
C2957 C2958 1.523 . S
C2958 C2942 1.451 . S
C2958 C2954 1.368 . S
C2958 C2957 1.523 . S
H2959 C2934 0.950 . S
H2960 C2936 0.912 1_545 S
H2961 C2937 0.949 . S
H2962 C2939 0.950 . S
H2963 C2941 0.950 . S
C2964 C2965 1.349 . S
C2964 C2966 1.327 . S
C2964 H2989 0.950 . S
C2965 C2964 1.349 . S
C2965 C2981 1.349 . S
C2966 C2964 1.327 . S
C2966 C2985 1.429 . S
C2966 H2990 0.950 . S
C2967 C2984 1.646 . S
C2967 C2986 1.241 1_556 S
C2967 H2991 1.010 . S
H2968 C2972 0.949 1_455 S
C2969 C2970 1.349 . S
C2969 C2971 1.327 . S
C2969 H2992 0.950 . S
C2970 C2969 1.349 . S
C2970 C2982 1.349 . S
C2971 C2969 1.327 . S
C2971 C2987 1.429 . S
C2971 H2993 0.950 1_455 S
C2972 H2968 0.949 1_655 S
C2972 C2980 1.574 . S
C2972 C2988 1.368 1_554 S
H2973 C2981 0.950 . S
H2974 C2979 0.950 . S
H2975 C2980 0.949 . S
H2976 C2982 0.950 . S
H2977 C2983 0.950 1_554 S
H2978 C2984 0.949 . S
C2979 H2974 0.950 . S
C2979 C2981 1.327 . S
C2979 C2985 1.429 . S
C2980 C2972 1.574 . S
C2980 H2975 0.949 . S
C2980 C2986 1.368 . S
C2981 C2965 1.349 . S
C2981 H2973 0.950 . S
C2981 C2979 1.327 . S
C2982 C2970 1.349 . S
C2982 H2976 0.950 . S
C2982 C2983 1.327 . S
C2983 H2977 0.950 1_556 S
C2983 C2982 1.327 . S
C2983 C2987 1.429 . S
C2984 C2967 1.646 . S
C2984 H2978 0.949 . S
C2984 C2988 1.368 . S
C2985 C2966 1.429 . S
C2985 C2979 1.429 . S
C2985 C2986 1.523 . S
C2986 C2967 1.241 1_554 S
C2986 C2980 1.368 . S
C2986 C2985 1.523 . S
C2987 C2971 1.429 . S
C2987 C2983 1.429 . S
C2987 C2988 1.523 1_455 S
C2988 C2972 1.368 1_556 S
C2988 C2984 1.368 . S
C2988 C2987 1.523 1_655 S
H2989 C2964 0.950 . S
H2990 C2966 0.950 . S
H2991 C2967 1.010 . S
H2992 C2969 0.950 . S
H2993 C2971 0.950 1_655 S
C2994 C2995 1.349 . S
C2994 C2996 1.327 . S
C2994 H3019 0.950 . S
C2995 C2994 1.349 . S
C2995 C3011 1.349 . S
C2996 C2994 1.327 . S
C2996 C3015 1.429 . S
C2996 H3020 0.950 . S
C2997 C3014 1.567 1_554 S
C2997 C3016 1.368 . S
C2997 H3021 0.949 . S
H2998 C3002 0.948 . S
C2999 C3000 1.349 . S
C2999 C3001 1.327 . S
C2999 H3022 0.950 . S
C3000 C2999 1.349 . S
C3000 C3012 1.349 . S
C3001 C2999 1.327 . S
C3001 C3017 1.429 . S
C3001 H3023 0.950 . S
C3002 H2998 0.948 . S
C3002 C3010 1.574 . S
C3002 C3018 1.368 1_554 S
H3003 C3011 0.950 . S
H3004 C3009 0.950 . S
H3005 C3010 0.949 . S
H3006 C3012 0.950 . S
H3007 C3013 0.950 . S
H3008 C3014 0.954 . S
C3009 H3004 0.950 . S
C3009 C3011 1.327 . S
C3009 C3015 1.429 . S
C3010 C3002 1.574 . S
C3010 H3005 0.949 . S
C3010 C3016 1.368 . S
C3011 C2995 1.349 . S
C3011 H3003 0.950 . S
C3011 C3009 1.327 . S
C3012 C3000 1.349 . S
C3012 H3006 0.950 . S
C3012 C3013 1.327 . S
C3013 H3007 0.950 . S
C3013 C3012 1.327 . S
C3013 C3017 1.429 . S
C3014 C2997 1.567 1_556 S
C3014 H3008 0.954 . S
C3014 C3018 1.370 . S
C3015 C2996 1.429 . S
C3015 C3009 1.429 . S
C3015 C3016 1.523 . S
C3016 C2997 1.368 . S
C3016 C3010 1.368 . S
C3016 C3015 1.523 . S
C3017 C3001 1.429 . S
C3017 C3013 1.429 . S
C3017 C3018 1.523 . S
C3018 C3002 1.368 1_556 S
C3018 C3014 1.370 . S
C3018 C3017 1.523 . S
H3019 C2994 0.950 . S
H3020 C2996 0.950 . S
H3021 C2997 0.949 . S
H3022 C2999 0.950 . S
H3023 C3001 0.950 . S
C3024 C3025 1.349 . S
C3024 C3026 1.327 . S
C3024 H3049 0.950 . S
C3025 C3024 1.349 . S
C3025 C3041 1.349 . S
C3026 C3024 1.327 . S
C3026 C3045 1.429 . S
C3026 H3050 0.950 . S
C3027 C3044 1.574 . S
C3027 C3046 1.368 1_565 S
C3027 H3051 0.949 . S
H3028 C3032 0.949 . S
C3029 C3030 1.349 . S
C3029 C3031 1.327 . S
C3029 H3052 0.950 . S
C3030 C3029 1.349 . S
C3030 C3042 1.349 . S
C3031 C3029 1.327 . S
C3031 C3047 1.429 . S
C3031 H3053 0.950 . S
C3032 H3028 0.949 . S
C3032 C3040 1.574 . S
C3032 C3048 1.337 1_545 S
H3033 C3041 0.950 . S
H3034 C3039 0.950 1_565 S
H3035 C3040 0.949 . S
H3036 C3042 0.950 1_545 S
H3037 C3043 0.950 . S
H3038 C3044 0.949 . S
C3039 H3034 0.950 1_545 S
C3039 C3041 1.327 . S
C3039 C3045 1.429 . S
C3040 C3032 1.574 . S
C3040 H3035 0.949 . S
C3040 C3046 1.368 . S
C3041 C3025 1.349 . S
C3041 H3033 0.950 . S
C3041 C3039 1.327 . S
C3042 C3030 1.349 . S
C3042 H3036 0.950 1_565 S
C3042 C3043 1.327 1_565 S
C3043 H3037 0.950 . S
C3043 C3042 1.327 1_545 S
C3043 C3047 1.429 1_545 S
C3044 C3027 1.574 . S
C3044 H3038 0.949 . S
C3044 C3048 1.404 . S
C3045 C3026 1.429 . S
C3045 C3039 1.429 . S
C3045 C3046 1.523 . S
C3046 C3027 1.368 1_545 S
C3046 C3040 1.368 . S
C3046 C3045 1.523 . S
C3047 C3031 1.429 . S
C3047 C3043 1.429 1_565 S
C3047 C3048 1.519 . S
C3048 C3032 1.337 1_565 S
C3048 C3044 1.404 . S
C3048 C3047 1.519 . S
H3049 C3024 0.950 . S
H3050 C3026 0.950 . S
H3051 C3027 0.949 . S
H3052 C3029 0.950 . S
H3053 C3031 0.950 . S
C3054 C3055 1.349 . S
C3054 C3056 1.327 . S
C3054 H3079 0.950 . S
C3055 C3054 1.349 . S
C3055 C3071 1.349 . S
C3056 C3054 1.327 . S
C3056 C3075 1.429 . S
C3056 H3080 0.950 . S
C3057 C3074 1.574 . S
C3057 C3076 1.368 . S
C3057 H3081 0.949 . S
H3058 C3062 0.957 . S
C3059 C3060 1.349 . S
C3059 C3061 1.327 . S
C3059 H3082 0.950 . S
C3060 C3059 1.349 . S
C3060 C3072 1.349 . S
C3061 C3059 1.327 . S
C3061 C3077 1.429 . S
C3061 H3083 0.950 . S
C3062 H3058 0.957 . S
C3062 C3070 1.553 1_455 S
C3062 C3078 1.365 . S
H3063 C3071 0.950 . S
H3064 C3069 0.950 . S
H3065 C3070 0.949 . S
H3066 C3072 0.950 . S
H3067 C3073 0.950 . S
H3068 C3074 0.949 . S
C3069 H3064 0.950 . S
C3069 C3071 1.327 . S
C3069 C3075 1.429 . S
C3070 C3062 1.553 1_655 S
C3070 H3065 0.949 . S
C3070 C3076 1.368 . S
C3071 C3055 1.349 . S
C3071 H3063 0.950 . S
C3071 C3069 1.327 . S
C3072 C3060 1.349 . S
C3072 H3066 0.950 . S
C3072 C3073 1.327 . S
C3073 H3067 0.950 . S
C3073 C3072 1.327 . S
C3073 C3077 1.429 . S
C3074 C3057 1.574 . S
C3074 H3068 0.949 . S
C3074 C3078 1.365 1_655 S
C3075 C3056 1.429 . S
C3075 C3069 1.429 . S
C3075 C3076 1.523 . S
C3076 C3057 1.368 . S
C3076 C3070 1.368 . S
C3076 C3075 1.523 . S
C3077 C3061 1.429 . S
C3077 C3073 1.429 . S
C3077 C3078 1.549 . S
C3078 C3062 1.365 . S
C3078 C3074 1.365 1_455 S
C3078 C3077 1.549 . S
H3079 C3054 0.950 . S
H3080 C3056 0.950 . S
H3081 C3057 0.949 . S
H3082 C3059 0.950 . S
H3083 C3061 0.950 . S
C3084 C3085 1.349 . S
C3084 C3086 1.327 . S
C3084 H3109 0.950 . S
C3085 C3084 1.349 . S
C3085 C3101 1.349 . S
C3086 C3084 1.327 . S
C3086 C3105 1.429 . S
C3086 H3110 0.950 . S
C3087 C3104 1.574 . S
C3087 C3106 1.368 . S
C3087 H3111 0.949 . S
H3088 C3092 0.949 . S
C3089 C3090 1.349 . S
C3089 C3091 1.327 . S
C3089 H3112 0.950 . S
C3090 C3089 1.349 . S
C3090 C3102 1.349 . S
C3091 C3089 1.327 . S
C3091 C3107 1.429 . S
C3091 H3113 0.950 . S
C3092 H3088 0.949 . S
C3092 C3100 1.574 . S
C3092 C3108 1.368 . S
H3093 C3101 0.950 . S
H3094 C3099 0.950 . S
H3095 C3100 0.949 . S
H3096 C3102 0.950 . S
H3097 C3103 0.950 . S
H3098 C3104 0.949 . S
C3099 H3094 0.950 . S
C3099 C3101 1.327 . S
C3099 C3105 1.429 . S
C3100 C3092 1.574 . S
C3100 H3095 0.949 . S
C3100 C3106 1.368 . S
C3101 C3085 1.349 . S
C3101 H3093 0.950 . S
C3101 C3099 1.327 . S
C3102 C3090 1.349 . S
C3102 H3096 0.950 . S
C3102 C3103 1.327 . S
C3103 H3097 0.950 . S
C3103 C3102 1.327 . S
C3103 C3107 1.429 . S
C3104 C3087 1.574 . S
C3104 H3098 0.949 . S
C3104 C3108 1.368 . S
C3105 C3086 1.429 . S
C3105 C3099 1.429 . S
C3105 C3106 1.523 . S
C3106 C3087 1.368 . S
C3106 C3100 1.368 . S
C3106 C3105 1.523 . S
C3107 C3091 1.429 . S
C3107 C3103 1.429 . S
C3107 C3108 1.523 . S
C3108 C3092 1.368 . S
C3108 C3104 1.368 . S
C3108 C3107 1.523 . S
H3109 C3084 0.950 . S
H3110 C3086 0.950 . S
H3111 C3087 0.949 . S
H3112 C3089 0.950 . S
H3113 C3091 0.950 . S
C3114 C3115 1.349 . S
C3114 C3116 1.327 . S
C3114 H3139 0.950 . S
C3115 C3114 1.349 . S
C3115 C3131 1.349 . S
C3116 C3114 1.327 . S
C3116 C3135 1.429 . S
C3116 H3140 0.950 . S
C3117 C3134 1.574 . S
C3117 C3136 1.368 . S
C3117 H3141 0.949 . S
H3118 C3122 0.949 . S
C3119 C3120 1.349 . S
C3119 C3121 1.327 . S
C3119 H3142 0.950 . S
C3120 C3119 1.349 . S
C3120 C3132 1.349 . S
C3121 C3119 1.327 . S
C3121 C3137 1.429 . S
C3121 H3143 0.950 1_554 S
C3122 H3118 0.949 . S
C3122 C3130 1.592 . S
C3122 C3138 1.368 . S
H3123 C3131 0.950 . S
H3124 C3129 0.950 . S
H3125 C3130 0.962 . S
H3126 C3132 0.950 . S
H3127 C3133 0.950 1_565 S
H3128 C3134 0.949 . S
C3129 H3124 0.950 . S
C3129 C3131 1.327 . S
C3129 C3135 1.429 . S
C3130 C3122 1.592 . S
C3130 H3125 0.962 . S
C3130 C3136 1.337 1_554 S
C3131 C3115 1.349 . S
C3131 H3123 0.950 . S
C3131 C3129 1.327 . S
C3132 C3120 1.349 . S
C3132 H3126 0.950 . S
C3132 C3133 1.327 . S
C3133 H3127 0.950 1_545 S
C3133 C3132 1.327 . S
C3133 C3137 1.429 . S
C3134 C3117 1.574 . S
C3134 H3128 0.949 . S
C3134 C3138 1.368 1_556 S
C3135 C3116 1.429 . S
C3135 C3129 1.429 . S
C3135 C3136 1.523 . S
C3136 C3117 1.368 . S
C3136 C3130 1.337 1_556 S
C3136 C3135 1.523 . S
C3137 C3121 1.429 . S
C3137 C3133 1.429 . S
C3137 C3138 1.523 1_545 S
C3138 C3122 1.368 . S
C3138 C3134 1.368 1_554 S
C3138 C3137 1.523 1_565 S
H3139 C3114 0.950 . S
H3140 C3116 0.950 . S
H3141 C3117 0.949 . S
H3142 C3119 0.950 . S
H3143 C3121 0.950 1_556 S
C3144 C3145 1.349 . S
C3144 C3146 1.327 . S
C3144 H3169 0.950 . S
C3145 C3144 1.349 . S
C3145 C3161 1.349 . S
C3146 C3144 1.327 . S
C3146 C3165 1.429 . S
C3146 H3170 0.950 1_554 S
C3147 C3164 1.638 . S
C3147 C3166 1.368 . S
C3147 H3171 0.949 . S
H3148 C3152 0.949 . S
C3149 C3150 1.349 . S
C3149 C3151 1.327 . S
C3149 H3172 0.950 . S
C3150 C3149 1.349 . S
C3150 C3162 1.349 . S
C3151 C3149 1.327 . S
C3151 C3167 1.429 . S
C3151 H3173 0.950 . S
C3152 H3148 0.949 . S
C3152 C3160 1.574 . S
C3152 C3168 1.368 . S
H3153 C3161 0.950 . S
H3154 C3159 0.950 1_455 S
H3155 C3160 0.949 1_655 S
H3156 C3162 0.950 . S
H3157 C3163 0.950 . S
H3158 C3164 1.002 . S
C3159 H3154 0.950 1_655 S
C3159 C3161 1.327 . S
C3159 C3165 1.429 . S
C3160 C3152 1.574 . S
C3160 H3155 0.949 1_455 S
C3160 C3166 1.368 1_556 S
C3161 C3145 1.349 . S
C3161 H3153 0.950 . S
C3161 C3159 1.327 . S
C3162 C3150 1.349 . S
C3162 H3156 0.950 . S
C3162 C3163 1.327 . S
C3163 H3157 0.950 . S
C3163 C3162 1.327 . S
C3163 C3167 1.429 . S
C3164 C3147 1.638 . S
C3164 H3158 1.002 . S
C3164 C3168 1.255 1_554 S
C3165 C3146 1.429 . S
C3165 C3159 1.429 . S
C3165 C3166 1.523 1_655 S
C3166 C3147 1.368 . S
C3166 C3160 1.368 1_554 S
C3166 C3165 1.523 1_455 S
C3167 C3151 1.429 . S
C3167 C3163 1.429 . S
C3167 C3168 1.523 . S
C3168 C3152 1.368 . S
C3168 C3164 1.255 1_556 S
C3168 C3167 1.523 . S
H3169 C3144 0.950 . S
H3170 C3146 0.950 1_556 S
H3171 C3147 0.949 . S
H3172 C3149 0.950 . S
H3173 C3151 0.950 . S
C3174 C3175 1.349 . S
C3174 C3176 1.327 . S
C3174 H3199 0.950 . S
C3175 C3174 1.349 . S
C3175 C3191 1.349 . S
C3176 C3174 1.327 . S
C3176 C3195 1.429 . S
C3176 H3200 0.950 . S
C3177 C3194 1.608 . S
C3177 C3196 1.309 1_554 S
C3177 H3201 0.975 . S
H3178 C3182 0.949 . S
C3179 C3180 1.349 . S
C3179 C3181 1.327 . S
C3179 H3202 0.950 . S
C3180 C3179 1.349 . S
C3180 C3192 1.349 . S
C3181 C3179 1.327 . S
C3181 C3197 1.429 . S
C3181 H3203 0.950 . S
C3182 H3178 0.949 . S
C3182 C3190 1.574 . S
C3182 C3198 1.368 1_556 S
H3183 C3191 0.950 . S
H3184 C3189 0.950 . S
H3185 C3190 0.949 . S
H3186 C3192 0.950 . S
H3187 C3193 0.950 1_556 S
H3188 C3194 0.949 . S
C3189 H3184 0.950 . S
C3189 C3191 1.327 . S
C3189 C3195 1.429 . S
C3190 C3182 1.574 . S
C3190 H3185 0.949 . S
C3190 C3196 1.368 . S
C3191 C3175 1.349 . S
C3191 H3183 0.950 . S
C3191 C3189 1.327 . S
C3192 C3180 1.349 . S
C3192 H3186 0.950 . S
C3192 C3193 1.327 . S
C3193 H3187 0.950 1_554 S
C3193 C3192 1.327 . S
C3193 C3197 1.429 . S
C3194 C3177 1.608 . S
C3194 H3188 0.949 . S
C3194 C3198 1.368 . S
C3195 C3176 1.429 . S
C3195 C3189 1.429 . S
C3195 C3196 1.523 . S
C3196 C3177 1.309 1_556 S
C3196 C3190 1.368 . S
C3196 C3195 1.523 . S
C3197 C3181 1.429 . S
C3197 C3193 1.429 . S
C3197 C3198 1.523 . S
C3198 C3182 1.368 1_554 S
C3198 C3194 1.368 . S
C3198 C3197 1.523 . S
H3199 C3174 0.950 . S
H3200 C3176 0.950 . S
H3201 C3177 0.975 . S
H3202 C3179 0.950 . S
H3203 C3181 0.950 . S
C3204 C3205 1.349 . S
C3204 C3206 1.327 . S
C3204 H3229 0.950 . S
C3205 C3204 1.349 . S
C3205 C3221 1.349 . S
C3206 C3204 1.327 . S
C3206 C3225 1.429 . S
C3206 H3230 0.950 1_655 S
C3207 C3224 1.574 . S
C3207 C3226 1.368 . S
C3207 H3231 0.949 . S
H3208 C3212 0.949 . S
C3209 C3210 1.349 . S
C3209 C3211 1.327 . S
C3209 H3232 0.950 . S
C3210 C3209 1.349 . S
C3210 C3222 1.349 . S
C3211 C3209 1.327 . S
C3211 C3227 1.429 . S
C3211 H3233 0.950 . S
C3212 H3208 0.949 . S
C3212 C3220 1.574 . S
C3212 C3228 1.368 . S
H3213 C3221 0.950 . S
H3214 C3219 0.950 . S
H3215 C3220 0.949 . S
H3216 C3222 0.950 . S
H3217 C3223 0.950 . S
H3218 C3224 0.949 . S
C3219 H3214 0.950 . S
C3219 C3221 1.327 . S
C3219 C3225 1.429 . S
C3220 C3212 1.574 . S
C3220 H3215 0.949 . S
C3220 C3226 1.368 . S
C3221 C3205 1.349 . S
C3221 H3213 0.950 . S
C3221 C3219 1.327 . S
C3222 C3210 1.349 . S
C3222 H3216 0.950 . S
C3222 C3223 1.327 . S
C3223 H3217 0.950 . S
C3223 C3222 1.327 . S
C3223 C3227 1.429 . S
C3224 C3207 1.574 . S
C3224 H3218 0.949 . S
C3224 C3228 1.368 . S
C3225 C3206 1.429 . S
C3225 C3219 1.429 . S
C3225 C3226 1.523 1_655 S
C3226 C3207 1.368 . S
C3226 C3220 1.368 . S
C3226 C3225 1.523 1_455 S
C3227 C3211 1.429 . S
C3227 C3223 1.429 . S
C3227 C3228 1.523 . S
C3228 C3212 1.368 . S
C3228 C3224 1.368 . S
C3228 C3227 1.523 . S
H3229 C3204 0.950 . S
H3230 C3206 0.950 1_455 S
H3231 C3207 0.949 . S
H3232 C3209 0.950 . S
H3233 C3211 0.950 . S
C3234 C3235 1.349 . S
C3234 C3236 1.327 . S
C3234 H3259 0.950 . S
C3235 C3234 1.349 . S
C3235 C3251 1.349 . S
C3236 C3234 1.327 . S
C3236 C3255 1.429 . S
C3236 H3260 0.950 . S
C3237 C3254 1.574 . S
C3237 C3256 1.368 . S
C3237 H3261 0.949 . S
H3238 C3242 0.949 . S
C3239 C3240 1.349 . S
C3239 C3241 1.327 . S
C3239 H3262 0.950 . S
C3240 C3239 1.349 . S
C3240 C3252 1.349 . S
C3241 C3239 1.327 . S
C3241 C3257 1.429 . S
C3241 H3263 0.950 . S
C3242 H3238 0.949 . S
C3242 C3250 1.574 . S
C3242 C3258 1.368 . S
H3243 C3251 0.950 . S
H3244 C3249 0.950 . S
H3245 C3250 0.949 . S
H3246 C3252 0.950 . S
H3247 C3253 0.950 . S
H3248 C3254 0.949 . S
C3249 H3244 0.950 . S
C3249 C3251 1.327 . S
C3249 C3255 1.429 . S
C3250 C3242 1.574 . S
C3250 H3245 0.949 . S
C3250 C3256 1.368 . S
C3251 C3235 1.349 . S
C3251 H3243 0.950 . S
C3251 C3249 1.327 . S
C3252 C3240 1.349 . S
C3252 H3246 0.950 . S
C3252 C3253 1.327 . S
C3253 H3247 0.950 . S
C3253 C3252 1.327 . S
C3253 C3257 1.429 . S
C3254 C3237 1.574 . S
C3254 H3248 0.949 . S
C3254 C3258 1.368 . S
C3255 C3236 1.429 . S
C3255 C3249 1.429 . S
C3255 C3256 1.523 . S
C3256 C3237 1.368 . S
C3256 C3250 1.368 . S
C3256 C3255 1.523 . S
C3257 C3241 1.429 . S
C3257 C3253 1.429 . S
C3257 C3258 1.523 . S
C3258 C3242 1.368 . S
C3258 C3254 1.368 . S
C3258 C3257 1.523 . S
H3259 C3234 0.950 . S
H3260 C3236 0.950 . S
H3261 C3237 0.949 . S
H3262 C3239 0.950 . S
H3263 C3241 0.950 . S
C3264 C3265 1.349 . S
C3264 C3266 1.327 . S
C3264 H3289 0.950 . S
C3265 C3264 1.349 . S
C3265 C3281 1.349 . S
C3266 C3264 1.327 . S
C3266 C3285 1.429 . S
C3266 H3290 0.950 . S
C3267 C3284 1.574 . S
C3267 C3286 1.368 . S
C3267 H3291 0.949 . S
H3268 C3272 0.958 . S
C3269 C3270 1.349 . S
C3269 C3271 1.327 . S
C3269 H3292 0.950 . S
C3270 C3269 1.349 . S
C3270 C3282 1.349 . S
C3271 C3269 1.327 . S
C3271 C3287 1.429 . S
C3271 H3293 0.950 1_545 S
C3272 H3268 0.958 . S
C3272 C3280 1.574 . S
C3272 C3288 1.368 . S
H3273 C3281 0.950 . S
H3274 C3279 0.950 . S
H3275 C3280 0.949 . S
H3276 C3282 0.950 . S
H3277 C3283 0.950 . S
H3278 C3284 0.949 . S
C3279 H3274 0.950 . S
C3279 C3281 1.327 . S
C3279 C3285 1.429 . S
C3280 C3272 1.574 . S
C3280 H3275 0.949 . S
C3280 C3286 1.368 . S
C3281 C3265 1.349 . S
C3281 H3273 0.950 . S
C3281 C3279 1.327 . S
C3282 C3270 1.349 . S
C3282 H3276 0.950 . S
C3282 C3283 1.327 . S
C3283 H3277 0.950 . S
C3283 C3282 1.327 . S
C3283 C3287 1.429 . S
C3284 C3267 1.574 . S
C3284 H3278 0.949 . S
C3284 C3288 1.368 . S
C3285 C3266 1.429 . S
C3285 C3279 1.429 . S
C3285 C3286 1.523 . S
C3286 C3267 1.368 . S
C3286 C3280 1.368 . S
C3286 C3285 1.523 . S
C3287 C3271 1.429 . S
C3287 C3283 1.429 . S
C3287 C3288 1.523 1_545 S
C3288 C3272 1.368 . S
C3288 C3284 1.368 . S
C3288 C3287 1.523 1_565 S
H3289 C3264 0.950 . S
H3290 C3266 0.950 . S
H3291 C3267 0.949 . S
H3292 C3269 0.950 . S
H3293 C3271 0.950 1_565 S
C3294 C3295 1.349 . S
C3294 C3296 1.327 . S
C3294 H3319 0.950 . S
C3295 C3294 1.349 . S
C3295 C3311 1.349 . S
C3296 C3294 1.327 . S
C3296 C3315 1.429 . S
C3296 H3320 0.950 . S
C3297 C3314 1.574 1_655 S
C3297 C3316 1.368 . S
C3297 H3321 0.949 1_655 S
H3298 C3302 0.949 . S
C3299 C3300 1.349 . S
C3299 C3301 1.327 . S
C3299 H3322 0.950 . S
C3300 C3299 1.349 . S
C3300 C3312 1.349 . S
C3301 C3299 1.327 . S
C3301 C3317 1.429 . S
C3301 H3323 0.950 . S
C3302 H3298 0.949 . S
C3302 C3310 1.574 . S
C3302 C3318 1.343 1_655 S
H3303 C3311 0.950 . S
H3304 C3309 0.950 . S
H3305 C3310 0.949 . S
H3306 C3312 0.950 . S
H3307 C3313 0.950 1_655 S
H3308 C3314 0.949 . S
C3309 H3304 0.950 . S
C3309 C3311 1.327 . S
C3309 C3315 1.429 . S
C3310 C3302 1.574 . S
C3310 H3305 0.949 . S
C3310 C3316 1.368 . S
C3311 C3295 1.349 . S
C3311 H3303 0.950 . S
C3311 C3309 1.327 . S
C3312 C3300 1.349 . S
C3312 H3306 0.950 . S
C3312 C3313 1.327 . S
C3313 H3307 0.950 1_455 S
C3313 C3312 1.327 . S
C3313 C3317 1.429 . S
C3314 C3297 1.574 1_455 S
C3314 H3308 0.949 . S
C3314 C3318 1.398 . S
C3315 C3296 1.429 . S
C3315 C3309 1.429 . S
C3315 C3316 1.523 . S
C3316 C3297 1.368 . S
C3316 C3310 1.368 . S
C3316 C3315 1.523 . S
C3317 C3301 1.429 . S
C3317 C3313 1.429 . S
C3317 C3318 1.519 . S
C3318 C3302 1.343 1_455 S
C3318 C3314 1.398 . S
C3318 C3317 1.519 . S
H3319 C3294 0.950 . S
H3320 C3296 0.950 . S
H3321 C3297 0.949 1_455 S
H3322 C3299 0.950 . S
H3323 C3301 0.950 . S
C3324 C3325 1.349 . S
C3324 C3326 1.327 . S
C3324 H3349 0.950 . S
C3325 C3324 1.349 . S
C3325 C3341 1.349 . S
C3326 C3324 1.327 . S
C3326 C3345 1.429 . S
C3326 H3350 0.950 . S
C3327 C3344 1.574 . S
C3327 C3346 1.368 . S
C3327 H3351 0.949 . S
H3328 C3332 0.949 . S
C3329 C3330 1.349 . S
C3329 C3331 1.327 . S
C3329 H3352 0.950 . S
C3330 C3329 1.349 . S
C3330 C3342 1.349 . S
C3331 C3329 1.327 . S
C3331 C3347 1.429 . S
C3331 H3353 0.950 . S
C3332 H3328 0.949 . S
C3332 C3340 1.574 . S
C3332 C3348 1.368 . S
H3333 C3341 0.950 . S
H3334 C3339 0.950 . S
H3335 C3340 0.949 . S
H3336 C3342 0.950 . S
H3337 C3343 0.950 . S
H3338 C3344 0.949 . S
C3339 H3334 0.950 . S
C3339 C3341 1.327 . S
C3339 C3345 1.429 . S
C3340 C3332 1.574 . S
C3340 H3335 0.949 . S
C3340 C3346 1.368 . S
C3341 C3325 1.349 . S
C3341 H3333 0.950 . S
C3341 C3339 1.327 . S
C3342 C3330 1.349 . S
C3342 H3336 0.950 . S
C3342 C3343 1.327 . S
C3343 H3337 0.950 . S
C3343 C3342 1.327 . S
C3343 C3347 1.429 . S
C3344 C3327 1.574 . S
C3344 H3338 0.949 . S
C3344 C3348 1.368 . S
C3345 C3326 1.429 . S
C3345 C3339 1.429 . S
C3345 C3346 1.523 . S
C3346 C3327 1.368 . S
C3346 C3340 1.368 . S
C3346 C3345 1.523 . S
C3347 C3331 1.429 . S
C3347 C3343 1.429 . S
C3347 C3348 1.523 . S
C3348 C3332 1.368 . S
C3348 C3344 1.368 . S
C3348 C3347 1.523 . S
H3349 C3324 0.950 . S
H3350 C3326 0.950 . S
H3351 C3327 0.949 . S
H3352 C3329 0.950 . S
H3353 C3331 0.950 . S
C3354 C3355 1.349 . S
C3354 C3356 1.327 . S
C3354 H3379 0.950 . S
C3355 C3354 1.349 . S
C3355 C3371 1.349 . S
C3356 C3354 1.327 . S
C3356 C3375 1.429 . S
C3356 H3380 0.950 . S
C3357 C3374 1.574 . S
C3357 C3376 1.368 . S
C3357 H3381 0.949 . S
H3358 C3362 0.925 1_565 S
C3359 C3360 1.349 . S
C3359 C3361 1.327 . S
C3359 H3382 0.950 . S
C3360 C3359 1.349 . S
C3360 C3372 1.349 . S
C3361 C3359 1.327 . S
C3361 C3377 1.429 . S
C3361 H3383 0.950 . S
C3362 H3358 0.925 1_545 S
C3362 C3370 1.599 . S
C3362 C3378 1.374 1_545 S
H3363 C3371 0.950 . S
H3364 C3369 0.950 . S
H3365 C3370 0.949 . S
H3366 C3372 0.950 . S
H3367 C3373 0.950 . S
H3368 C3374 0.949 . S
C3369 H3364 0.950 . S
C3369 C3371 1.327 . S
C3369 C3375 1.429 . S
C3370 C3362 1.599 . S
C3370 H3365 0.949 . S
C3370 C3376 1.368 . S
C3371 C3355 1.349 . S
C3371 H3363 0.950 . S
C3371 C3369 1.327 . S
C3372 C3360 1.349 . S
C3372 H3366 0.950 . S
C3372 C3373 1.327 . S
C3373 H3367 0.950 . S
C3373 C3372 1.327 . S
C3373 C3377 1.429 . S
C3374 C3357 1.574 . S
C3374 H3368 0.949 . S
C3374 C3378 1.347 1_545 S
C3375 C3356 1.429 . S
C3375 C3369 1.429 . S
C3375 C3376 1.523 . S
C3376 C3357 1.368 . S
C3376 C3370 1.368 . S
C3376 C3375 1.523 . S
C3377 C3361 1.429 . S
C3377 C3373 1.429 . S
C3377 C3378 1.549 . S
C3378 C3362 1.374 1_565 S
C3378 C3374 1.347 1_565 S
C3378 C3377 1.549 . S
H3379 C3354 0.950 . S
H3380 C3356 0.950 . S
H3381 C3357 0.949 . S
H3382 C3359 0.950 . S
H3383 C3361 0.950 . S
C3384 C3385 1.349 . S
C3384 C3386 1.327 . S
C3384 H3409 0.950 . S
C3385 C3384 1.349 . S
C3385 C3401 1.349 . S
C3386 C3384 1.327 . S
C3386 C3405 1.429 . S
C3386 H3410 0.950 . S
C3387 C3404 1.574 . S
C3387 C3406 1.368 1_455 S
C3387 H3411 0.949 . S
H3388 C3392 0.949 . S
C3389 C3390 1.349 . S
C3389 C3391 1.327 . S
C3389 H3412 0.950 . S
C3390 C3389 1.349 . S
C3390 C3402 1.349 . S
C3391 C3389 1.327 . S
C3391 C3407 1.429 . S
C3391 H3413 0.950 . S
C3392 H3388 0.949 . S
C3392 C3400 1.574 . S
C3392 C3408 1.368 1_655 S
H3393 C3401 0.950 . S
H3394 C3399 0.950 . S
H3395 C3400 0.949 . S
H3396 C3402 0.950 . S
H3397 C3403 0.950 . S
H3398 C3404 0.949 . S
C3399 H3394 0.950 . S
C3399 C3401 1.327 . S
C3399 C3405 1.429 . S
C3400 C3392 1.574 . S
C3400 H3395 0.949 . S
C3400 C3406 1.368 . S
C3401 C3385 1.349 . S
C3401 H3393 0.950 . S
C3401 C3399 1.327 . S
C3402 C3390 1.349 . S
C3402 H3396 0.950 . S
C3402 C3403 1.327 . S
C3403 H3397 0.950 . S
C3403 C3402 1.327 . S
C3403 C3407 1.429 . S
C3404 C3387 1.574 . S
C3404 H3398 0.949 . S
C3404 C3408 1.368 . S
C3405 C3386 1.429 . S
C3405 C3399 1.429 . S
C3405 C3406 1.523 . S
C3406 C3387 1.368 1_655 S
C3406 C3400 1.368 . S
C3406 C3405 1.523 . S
C3407 C3391 1.429 . S
C3407 C3403 1.429 . S
C3407 C3408 1.523 . S
C3408 C3392 1.368 1_455 S
C3408 C3404 1.368 . S
C3408 C3407 1.523 . S
H3409 C3384 0.950 . S
H3410 C3386 0.950 . S
H3411 C3387 0.949 . S
H3412 C3389 0.950 . S
H3413 C3391 0.950 . S
C3414 C3415 1.349 . S
C3414 C3416 1.327 . S
C3414 H3439 0.950 . S
C3415 C3414 1.349 . S
C3415 C3431 1.349 . S
C3416 C3414 1.327 . S
C3416 C3435 1.429 . S
C3416 H3440 0.950 . S
C3417 C3434 1.574 . S
C3417 C3436 1.368 . S
C3417 H3441 0.949 . S
H3418 C3422 0.949 . S
C3419 C3420 1.349 . S
C3419 C3421 1.327 . S
C3419 H3442 0.950 . S
C3420 C3419 1.349 . S
C3420 C3432 1.349 . S
C3421 C3419 1.327 . S
C3421 C3437 1.429 . S
C3421 H3443 0.950 . S
C3422 H3418 0.949 . S
C3422 C3430 1.574 . S
C3422 C3438 1.368 . S
H3423 C3431 0.950 . S
H3424 C3429 0.950 . S
H3425 C3430 0.949 . S
H3426 C3432 0.950 . S
H3427 C3433 0.950 . S
H3428 C3434 0.949 . S
C3429 H3424 0.950 . S
C3429 C3431 1.327 . S
C3429 C3435 1.429 . S
C3430 C3422 1.574 . S
C3430 H3425 0.949 . S
C3430 C3436 1.368 . S
C3431 C3415 1.349 . S
C3431 H3423 0.950 . S
C3431 C3429 1.327 . S
C3432 C3420 1.349 . S
C3432 H3426 0.950 . S
C3432 C3433 1.327 . S
C3433 H3427 0.950 . S
C3433 C3432 1.327 . S
C3433 C3437 1.429 . S
C3434 C3417 1.574 . S
C3434 H3428 0.949 . S
C3434 C3438 1.368 . S
C3435 C3416 1.429 . S
C3435 C3429 1.429 . S
C3435 C3436 1.523 . S
C3436 C3417 1.368 . S
C3436 C3430 1.368 . S
C3436 C3435 1.523 . S
C3437 C3421 1.429 . S
C3437 C3433 1.429 . S
C3437 C3438 1.523 . S
C3438 C3422 1.368 . S
C3438 C3434 1.368 . S
C3438 C3437 1.523 . S
H3439 C3414 0.950 . S
H3440 C3416 0.950 . S
H3441 C3417 0.949 . S
H3442 C3419 0.950 . S
H3443 C3421 0.950 . S
C3444 C3445 1.349 . S
C3444 C3446 1.327 . S
C3444 H3469 0.950 . S
C3445 C3444 1.349 . S
C3445 C3461 1.349 . S
C3446 C3444 1.327 . S
C3446 C3465 1.429 . S
C3446 H3470 0.950 . S
C3447 C3464 1.574 1_565 S
C3447 C3466 1.368 . S
C3447 H3471 0.949 . S
H3448 C3452 0.949 . S
C3449 C3450 1.349 . S
C3449 C3451 1.327 . S
C3449 H3472 0.950 . S
C3450 C3449 1.349 . S
C3450 C3462 1.349 . S
C3451 C3449 1.327 . S
C3451 C3467 1.429 . S
C3451 H3473 0.950 . S
C3452 H3448 0.949 . S
C3452 C3460 1.574 1_545 S
C3452 C3468 1.368 . S
H3453 C3461 0.950 . S
H3454 C3459 0.950 . S
H3455 C3460 0.949 . S
H3456 C3462 0.950 . S
H3457 C3463 0.950 . S
H3458 C3464 0.949 . S
C3459 H3454 0.950 . S
C3459 C3461 1.327 . S
C3459 C3465 1.429 . S
C3460 C3452 1.574 1_565 S
C3460 H3455 0.949 . S
C3460 C3466 1.368 . S
C3461 C3445 1.349 . S
C3461 H3453 0.950 . S
C3461 C3459 1.327 . S
C3462 C3450 1.349 . S
C3462 H3456 0.950 . S
C3462 C3463 1.327 . S
C3463 H3457 0.950 . S
C3463 C3462 1.327 . S
C3463 C3467 1.429 . S
C3464 C3447 1.574 1_545 S
C3464 H3458 0.949 . S
C3464 C3468 1.368 . S
C3465 C3446 1.429 . S
C3465 C3459 1.429 . S
C3465 C3466 1.523 . S
C3466 C3447 1.368 . S
C3466 C3460 1.368 . S
C3466 C3465 1.523 . S
C3467 C3451 1.429 . S
C3467 C3463 1.429 . S
C3467 C3468 1.523 . S
C3468 C3452 1.368 . S
C3468 C3464 1.368 . S
C3468 C3467 1.523 . S
H3469 C3444 0.950 . S
H3470 C3446 0.950 . S
H3471 C3447 0.949 . S
H3472 C3449 0.950 . S
H3473 C3451 0.950 . S
C3474 C3475 1.349 . S
C3474 C3476 1.327 . S
C3474 H3499 0.950 . S
C3475 C3474 1.349 . S
C3475 C3491 1.349 . S
C3476 C3474 1.327 . S
C3476 C3495 1.429 . S
C3476 H3500 0.950 . S
C3477 C3494 1.574 . S
C3477 C3496 1.368 1_455 S
C3477 H3501 0.949 . S
H3478 C3482 0.949 . S
C3479 C3480 1.349 . S
C3479 C3481 1.327 . S
C3479 H3502 0.950 . S
C3480 C3479 1.349 . S
C3480 C3492 1.349 . S
C3481 C3479 1.327 . S
C3481 C3497 1.429 . S
C3481 H3503 0.950 . S
C3482 H3478 0.949 . S
C3482 C3490 1.574 . S
C3482 C3498 1.368 1_655 S
H3483 C3491 0.950 . S
H3484 C3489 0.950 . S
H3485 C3490 0.949 . S
H3486 C3492 0.950 . S
H3487 C3493 0.950 . S
H3488 C3494 0.949 . S
C3489 H3484 0.950 . S
C3489 C3491 1.327 . S
C3489 C3495 1.429 . S
C3490 C3482 1.574 . S
C3490 H3485 0.949 . S
C3490 C3496 1.368 . S
C3491 C3475 1.349 . S
C3491 H3483 0.950 . S
C3491 C3489 1.327 . S
C3492 C3480 1.349 . S
C3492 H3486 0.950 . S
C3492 C3493 1.327 . S
C3493 H3487 0.950 . S
C3493 C3492 1.327 . S
C3493 C3497 1.429 . S
C3494 C3477 1.574 . S
C3494 H3488 0.949 . S
C3494 C3498 1.368 . S
C3495 C3476 1.429 . S
C3495 C3489 1.429 . S
C3495 C3496 1.523 . S
C3496 C3477 1.368 1_655 S
C3496 C3490 1.368 . S
C3496 C3495 1.523 . S
C3497 C3481 1.429 . S
C3497 C3493 1.429 . S
C3497 C3498 1.523 . S
C3498 C3482 1.368 1_455 S
C3498 C3494 1.368 . S
C3498 C3497 1.523 . S
H3499 C3474 0.950 . S
H3500 C3476 0.950 . S
H3501 C3477 0.949 . S
H3502 C3479 0.950 . S
H3503 C3481 0.950 . S
C3504 C3505 1.349 . S
C3504 C3506 1.327 . S
C3504 H3529 0.950 . S
C3505 C3504 1.349 . S
C3505 C3521 1.349 . S
C3506 C3504 1.327 . S
C3506 C3525 1.429 . S
C3506 H3530 0.950 . S
C3507 C3524 1.574 . S
C3507 C3526 1.368 . S
C3507 H3531 0.949 . S
H3508 C3512 0.949 . S
C3509 C3510 1.349 . S
C3509 C3511 1.327 . S
C3509 H3532 0.950 . S
C3510 C3509 1.349 . S
C3510 C3522 1.349 . S
C3511 C3509 1.327 . S
C3511 C3527 1.429 . S
C3511 H3533 0.950 . S
C3512 H3508 0.949 . S
C3512 C3520 1.574 . S
C3512 C3528 1.368 . S
H3513 C3521 0.950 . S
H3514 C3519 0.950 . S
H3515 C3520 0.949 . S
H3516 C3522 0.950 . S
H3517 C3523 0.950 . S
H3518 C3524 0.949 . S
C3519 H3514 0.950 . S
C3519 C3521 1.327 . S
C3519 C3525 1.429 . S
C3520 C3512 1.574 . S
C3520 H3515 0.949 . S
C3520 C3526 1.368 . S
C3521 C3505 1.349 . S
C3521 H3513 0.950 . S
C3521 C3519 1.327 . S
C3522 C3510 1.349 . S
C3522 H3516 0.950 . S
C3522 C3523 1.327 . S
C3523 H3517 0.950 . S
C3523 C3522 1.327 . S
C3523 C3527 1.429 . S
C3524 C3507 1.574 . S
C3524 H3518 0.949 . S
C3524 C3528 1.368 . S
C3525 C3506 1.429 . S
C3525 C3519 1.429 . S
C3525 C3526 1.523 . S
C3526 C3507 1.368 . S
C3526 C3520 1.368 . S
C3526 C3525 1.523 . S
C3527 C3511 1.429 . S
C3527 C3523 1.429 . S
C3527 C3528 1.523 . S
C3528 C3512 1.368 . S
C3528 C3524 1.368 . S
C3528 C3527 1.523 . S
H3529 C3504 0.950 . S
H3530 C3506 0.950 . S
H3531 C3507 0.949 . S
H3532 C3509 0.950 . S
H3533 C3511 0.950 . S
C3534 C3535 1.349 . S
C3534 C3536 1.327 . S
C3534 H3559 0.950 . S
C3535 C3534 1.349 . S
C3535 C3551 1.349 . S
C3536 C3534 1.327 . S
C3536 C3555 1.429 . S
C3536 H3560 0.950 . S
C3537 C3554 1.574 . S
C3537 C3556 1.368 1_565 S
C3537 H3561 0.949 . S
H3538 C3542 0.949 . S
C3539 C3540 1.349 . S
C3539 C3541 1.327 . S
C3539 H3562 0.950 . S
C3540 C3539 1.349 . S
C3540 C3552 1.349 . S
C3541 C3539 1.327 . S
C3541 C3557 1.429 . S
C3541 H3563 0.950 . S
C3542 H3538 0.949 . S
C3542 C3550 1.574 . S
C3542 C3558 1.368 1_545 S
H3543 C3551 0.950 . S
H3544 C3549 0.950 . S
H3545 C3550 0.949 . S
H3546 C3552 0.950 . S
H3547 C3553 0.950 . S
H3548 C3554 0.949 . S
C3549 H3544 0.950 . S
C3549 C3551 1.327 . S
C3549 C3555 1.429 . S
C3550 C3542 1.574 . S
C3550 H3545 0.949 . S
C3550 C3556 1.368 . S
C3551 C3535 1.349 . S
C3551 H3543 0.950 . S
C3551 C3549 1.327 . S
C3552 C3540 1.349 . S
C3552 H3546 0.950 . S
C3552 C3553 1.327 . S
C3553 H3547 0.950 . S
C3553 C3552 1.327 . S
C3553 C3557 1.429 . S
C3554 C3537 1.574 . S
C3554 H3548 0.949 . S
C3554 C3558 1.368 . S
C3555 C3536 1.429 . S
C3555 C3549 1.429 . S
C3555 C3556 1.523 . S
C3556 C3537 1.368 1_545 S
C3556 C3550 1.368 . S
C3556 C3555 1.523 . S
C3557 C3541 1.429 . S
C3557 C3553 1.429 . S
C3557 C3558 1.523 . S
C3558 C3542 1.368 1_565 S
C3558 C3554 1.368 . S
C3558 C3557 1.523 . S
H3559 C3534 0.950 . S
H3560 C3536 0.950 . S
H3561 C3537 0.949 . S
H3562 C3539 0.950 . S
H3563 C3541 0.950 . S
C3564 C3565 1.349 . S
C3564 C3566 1.327 . S
C3564 H3589 0.950 . S
C3565 C3564 1.349 . S
C3565 C3581 1.349 . S
C3566 C3564 1.327 . S
C3566 C3585 1.429 . S
C3566 H3590 0.950 . S
C3567 C3584 1.574 . S
C3567 C3586 1.368 . S
C3567 H3591 0.949 . S
H3568 C3572 0.949 . S
C3569 C3570 1.349 . S
C3569 C3571 1.327 . S
C3569 H3592 0.950 . S
C3570 C3569 1.349 . S
C3570 C3582 1.349 . S
C3571 C3569 1.327 . S
C3571 C3587 1.429 . S
C3571 H3593 0.950 . S
C3572 H3568 0.949 . S
C3572 C3580 1.574 . S
C3572 C3588 1.368 . S
H3573 C3581 0.950 . S
H3574 C3579 0.950 . S
H3575 C3580 0.949 . S
H3576 C3582 0.950 . S
H3577 C3583 0.950 . S
H3578 C3584 0.949 . S
C3579 H3574 0.950 . S
C3579 C3581 1.327 . S
C3579 C3585 1.429 . S
C3580 C3572 1.574 . S
C3580 H3575 0.949 . S
C3580 C3586 1.368 . S
C3581 C3565 1.349 . S
C3581 H3573 0.950 . S
C3581 C3579 1.327 . S
C3582 C3570 1.349 . S
C3582 H3576 0.950 . S
C3582 C3583 1.327 . S
C3583 H3577 0.950 . S
C3583 C3582 1.327 . S
C3583 C3587 1.429 . S
C3584 C3567 1.574 . S
C3584 H3578 0.949 . S
C3584 C3588 1.368 . S
C3585 C3566 1.429 . S
C3585 C3579 1.429 . S
C3585 C3586 1.523 . S
C3586 C3567 1.368 . S
C3586 C3580 1.368 . S
C3586 C3585 1.523 . S
C3587 C3571 1.429 . S
C3587 C3583 1.429 . S
C3587 C3588 1.523 . S
C3588 C3572 1.368 . S
C3588 C3584 1.368 . S
C3588 C3587 1.523 . S
H3589 C3564 0.950 . S
H3590 C3566 0.950 . S
H3591 C3567 0.949 . S
H3592 C3569 0.950 . S
H3593 C3571 0.950 . S
C3594 C3595 1.349 . S
C3594 C3596 1.327 . S
C3594 H3619 0.950 . S
C3595 C3594 1.349 . S
C3595 C3611 1.349 . S
C3596 C3594 1.327 . S
C3596 C3615 1.429 . S
C3596 H3620 0.950 . S
C3597 C3614 1.574 . S
C3597 C3616 1.368 . S
C3597 H3621 0.949 . S
H3598 C3602 0.949 . S
C3599 C3600 1.349 . S
C3599 C3601 1.327 . S
C3599 H3622 0.950 . S
C3600 C3599 1.349 . S
C3600 C3612 1.349 . S
C3601 C3599 1.327 . S
C3601 C3617 1.429 . S
C3601 H3623 0.950 . S
C3602 H3598 0.949 . S
C3602 C3610 1.574 . S
C3602 C3618 1.368 . S
H3603 C3611 0.950 . S
H3604 C3609 0.950 . S
H3605 C3610 0.949 . S
H3606 C3612 0.950 . S
H3607 C3613 0.950 . S
H3608 C3614 0.949 . S
C3609 H3604 0.950 . S
C3609 C3611 1.327 . S
C3609 C3615 1.429 . S
C3610 C3602 1.574 . S
C3610 H3605 0.949 . S
C3610 C3616 1.368 . S
C3611 C3595 1.349 . S
C3611 H3603 0.950 . S
C3611 C3609 1.327 . S
C3612 C3600 1.349 . S
C3612 H3606 0.950 . S
C3612 C3613 1.327 . S
C3613 H3607 0.950 . S
C3613 C3612 1.327 . S
C3613 C3617 1.429 . S
C3614 C3597 1.574 . S
C3614 H3608 0.949 . S
C3614 C3618 1.368 . S
C3615 C3596 1.429 . S
C3615 C3609 1.429 . S
C3615 C3616 1.523 . S
C3616 C3597 1.368 . S
C3616 C3610 1.368 . S
C3616 C3615 1.523 . S
C3617 C3601 1.429 . S
C3617 C3613 1.429 . S
C3617 C3618 1.523 . S
C3618 C3602 1.368 . S
C3618 C3614 1.368 . S
C3618 C3617 1.523 . S
H3619 C3594 0.950 . S
H3620 C3596 0.950 . S
H3621 C3597 0.949 . S
H3622 C3599 0.950 . S
H3623 C3601 0.950 . S
C3624 C3625 1.349 . S
C3624 C3626 1.327 . S
C3624 H3649 0.950 . S
C3625 C3624 1.349 . S
C3625 C3641 1.349 . S
C3626 C3624 1.327 . S
C3626 C3645 1.429 . S
C3626 H3650 0.950 . S
C3627 C3644 1.574 . S
C3627 C3646 1.368 . S
C3627 H3651 0.949 . S
H3628 C3632 0.949 . S
C3629 C3630 1.349 . S
C3629 C3631 1.327 . S
C3629 H3652 0.950 . S
C3630 C3629 1.349 . S
C3630 C3642 1.349 . S
C3631 C3629 1.327 . S
C3631 C3647 1.429 . S
C3631 H3653 0.950 . S
C3632 H3628 0.949 . S
C3632 C3640 1.574 . S
C3632 C3648 1.368 . S
H3633 C3641 0.950 . S
H3634 C3639 0.950 . S
H3635 C3640 0.949 . S
H3636 C3642 0.950 . S
H3637 C3643 0.950 . S
H3638 C3644 0.949 . S
C3639 H3634 0.950 . S
C3639 C3641 1.327 . S
C3639 C3645 1.429 . S
C3640 C3632 1.574 . S
C3640 H3635 0.949 . S
C3640 C3646 1.368 . S
C3641 C3625 1.349 . S
C3641 H3633 0.950 . S
C3641 C3639 1.327 . S
C3642 C3630 1.349 . S
C3642 H3636 0.950 . S
C3642 C3643 1.327 . S
C3643 H3637 0.950 . S
C3643 C3642 1.327 . S
C3643 C3647 1.429 . S
C3644 C3627 1.574 . S
C3644 H3638 0.949 . S
C3644 C3648 1.368 . S
C3645 C3626 1.429 . S
C3645 C3639 1.429 . S
C3645 C3646 1.523 . S
C3646 C3627 1.368 . S
C3646 C3640 1.368 . S
C3646 C3645 1.523 . S
C3647 C3631 1.429 . S
C3647 C3643 1.429 . S
C3647 C3648 1.523 . S
C3648 C3632 1.368 . S
C3648 C3644 1.368 . S
C3648 C3647 1.523 . S
H3649 C3624 0.950 . S
H3650 C3626 0.950 . S
H3651 C3627 0.949 . S
H3652 C3629 0.950 . S
H3653 C3631 0.950 . S
C3654 C3655 1.349 . S
C3654 C3656 1.327 . S
C3654 H3679 0.950 . S
C3655 C3654 1.349 . S
C3655 C3671 1.349 . S
C3656 C3654 1.327 . S
C3656 C3675 1.429 . S
C3656 H3680 0.950 . S
C3657 C3674 1.574 . S
C3657 C3676 1.368 . S
C3657 H3681 0.949 . S
H3658 C3662 0.949 . S
C3659 C3660 1.349 . S
C3659 C3661 1.327 . S
C3659 H3682 0.950 . S
C3660 C3659 1.349 . S
C3660 C3672 1.349 . S
C3661 C3659 1.327 . S
C3661 C3677 1.429 . S
C3661 H3683 0.950 . S
C3662 H3658 0.949 . S
C3662 C3670 1.574 . S
C3662 C3678 1.368 . S
H3663 C3671 0.950 . S
H3664 C3669 0.950 . S
H3665 C3670 0.949 . S
H3666 C3672 0.950 . S
H3667 C3673 0.950 . S
H3668 C3674 0.949 . S
C3669 H3664 0.950 . S
C3669 C3671 1.327 . S
C3669 C3675 1.429 . S
C3670 C3662 1.574 . S
C3670 H3665 0.949 . S
C3670 C3676 1.368 . S
C3671 C3655 1.349 . S
C3671 H3663 0.950 . S
C3671 C3669 1.327 . S
C3672 C3660 1.349 . S
C3672 H3666 0.950 . S
C3672 C3673 1.327 . S
C3673 H3667 0.950 . S
C3673 C3672 1.327 . S
C3673 C3677 1.429 . S
C3674 C3657 1.574 . S
C3674 H3668 0.949 . S
C3674 C3678 1.368 . S
C3675 C3656 1.429 . S
C3675 C3669 1.429 . S
C3675 C3676 1.523 . S
C3676 C3657 1.368 . S
C3676 C3670 1.368 . S
C3676 C3675 1.523 . S
C3677 C3661 1.429 . S
C3677 C3673 1.429 . S
C3677 C3678 1.523 . S
C3678 C3662 1.368 . S
C3678 C3674 1.368 . S
C3678 C3677 1.523 . S
H3679 C3654 0.950 . S
H3680 C3656 0.950 . S
H3681 C3657 0.949 . S
H3682 C3659 0.950 . S
H3683 C3661 0.950 . S
C3684 C3685 1.349 . S
C3684 C3686 1.327 . S
C3684 H3709 0.950 . S
C3685 C3684 1.349 . S
C3685 C3701 1.349 . S
C3686 C3684 1.327 . S
C3686 C3705 1.429 . S
C3686 H3710 0.950 . S
C3687 C3704 1.574 . S
C3687 C3706 1.368 . S
C3687 H3711 0.949 . S
H3688 C3692 0.949 . S
C3689 C3690 1.349 . S
C3689 C3691 1.327 . S
C3689 H3712 0.950 . S
C3690 C3689 1.349 . S
C3690 C3702 1.349 . S
C3691 C3689 1.327 . S
C3691 C3707 1.429 . S
C3691 H3713 0.950 . S
C3692 H3688 0.949 . S
C3692 C3700 1.574 . S
C3692 C3708 1.368 . S
H3693 C3701 0.950 . S
H3694 C3699 0.950 . S
H3695 C3700 0.949 . S
H3696 C3702 0.950 . S
H3697 C3703 0.950 . S
H3698 C3704 0.949 . S
C3699 H3694 0.950 . S
C3699 C3701 1.327 . S
C3699 C3705 1.429 . S
C3700 C3692 1.574 . S
C3700 H3695 0.949 . S
C3700 C3706 1.368 . S
C3701 C3685 1.349 . S
C3701 H3693 0.950 . S
C3701 C3699 1.327 . S
C3702 C3690 1.349 . S
C3702 H3696 0.950 . S
C3702 C3703 1.327 . S
C3703 H3697 0.950 . S
C3703 C3702 1.327 . S
C3703 C3707 1.429 . S
C3704 C3687 1.574 . S
C3704 H3698 0.949 . S
C3704 C3708 1.368 . S
C3705 C3686 1.429 . S
C3705 C3699 1.429 . S
C3705 C3706 1.523 . S
C3706 C3687 1.368 . S
C3706 C3700 1.368 . S
C3706 C3705 1.523 . S
C3707 C3691 1.429 . S
C3707 C3703 1.429 . S
C3707 C3708 1.523 . S
C3708 C3692 1.368 . S
C3708 C3704 1.368 . S
C3708 C3707 1.523 . S
H3709 C3684 0.950 . S
H3710 C3686 0.950 . S
H3711 C3687 0.949 . S
H3712 C3689 0.950 . S
H3713 C3691 0.950 . S
C3714 C3715 1.349 . S
C3714 C3716 1.327 . S
C3714 H3739 0.950 . S
C3715 C3714 1.349 . S
C3715 C3731 1.349 . S
C3716 C3714 1.327 . S
C3716 C3735 1.429 . S
C3716 H3740 0.950 . S
C3717 C3734 1.574 . S
C3717 C3736 1.368 . S
C3717 H3741 0.949 . S
H3718 C3722 0.949 . S
C3719 C3720 1.349 . S
C3719 C3721 1.327 . S
C3719 H3742 0.950 . S
C3720 C3719 1.349 . S
C3720 C3732 1.349 . S
C3721 C3719 1.327 . S
C3721 C3737 1.429 . S
C3721 H3743 0.950 . S
C3722 H3718 0.949 . S
C3722 C3730 1.574 . S
C3722 C3738 1.368 . S
H3723 C3731 0.950 . S
H3724 C3729 0.950 . S
H3725 C3730 0.949 . S
H3726 C3732 0.950 . S
H3727 C3733 0.950 . S
H3728 C3734 0.949 . S
C3729 H3724 0.950 . S
C3729 C3731 1.327 . S
C3729 C3735 1.429 . S
C3730 C3722 1.574 . S
C3730 H3725 0.949 . S
C3730 C3736 1.368 . S
C3731 C3715 1.349 . S
C3731 H3723 0.950 . S
C3731 C3729 1.327 . S
C3732 C3720 1.349 . S
C3732 H3726 0.950 . S
C3732 C3733 1.327 . S
C3733 H3727 0.950 . S
C3733 C3732 1.327 . S
C3733 C3737 1.429 . S
C3734 C3717 1.574 . S
C3734 H3728 0.949 . S
C3734 C3738 1.368 . S
C3735 C3716 1.429 . S
C3735 C3729 1.429 . S
C3735 C3736 1.523 . S
C3736 C3717 1.368 . S
C3736 C3730 1.368 . S
C3736 C3735 1.523 . S
C3737 C3721 1.429 . S
C3737 C3733 1.429 . S
C3737 C3738 1.523 . S
C3738 C3722 1.368 . S
C3738 C3734 1.368 . S
C3738 C3737 1.523 . S
H3739 C3714 0.950 . S
H3740 C3716 0.950 . S
H3741 C3717 0.949 . S
H3742 C3719 0.950 . S
H3743 C3721 0.950 . S
C3744 C3745 1.349 . S
C3744 C3746 1.327 . S
C3744 H3769 0.950 . S
C3745 C3744 1.349 . S
C3745 C3761 1.349 . S
C3746 C3744 1.327 . S
C3746 C3765 1.429 . S
C3746 H3770 0.950 . S
C3747 C3764 1.574 . S
C3747 C3766 1.368 . S
C3747 H3771 0.949 . S
H3748 C3752 0.949 . S
C3749 C3750 1.349 . S
C3749 C3751 1.327 . S
C3749 H3772 0.950 . S
C3750 C3749 1.349 . S
C3750 C3762 1.349 . S
C3751 C3749 1.327 . S
C3751 C3767 1.429 . S
C3751 H3773 0.950 . S
C3752 H3748 0.949 . S
C3752 C3760 1.574 . S
C3752 C3768 1.368 . S
H3753 C3761 0.950 . S
H3754 C3759 0.950 . S
H3755 C3760 0.949 . S
H3756 C3762 0.950 . S
H3757 C3763 0.950 . S
H3758 C3764 0.949 . S
C3759 H3754 0.950 . S
C3759 C3761 1.327 . S
C3759 C3765 1.429 . S
C3760 C3752 1.574 . S
C3760 H3755 0.949 . S
C3760 C3766 1.368 . S
C3761 C3745 1.349 . S
C3761 H3753 0.950 . S
C3761 C3759 1.327 . S
C3762 C3750 1.349 . S
C3762 H3756 0.950 . S
C3762 C3763 1.327 . S
C3763 H3757 0.950 . S
C3763 C3762 1.327 . S
C3763 C3767 1.429 . S
C3764 C3747 1.574 . S
C3764 H3758 0.949 . S
C3764 C3768 1.368 . S
C3765 C3746 1.429 . S
C3765 C3759 1.429 . S
C3765 C3766 1.523 . S
C3766 C3747 1.368 . S
C3766 C3760 1.368 . S
C3766 C3765 1.523 . S
C3767 C3751 1.429 . S
C3767 C3763 1.429 . S
C3767 C3768 1.523 . S
C3768 C3752 1.368 . S
C3768 C3764 1.368 . S
C3768 C3767 1.523 . S
H3769 C3744 0.950 . S
H3770 C3746 0.950 . S
H3771 C3747 0.949 . S
H3772 C3749 0.950 . S
H3773 C3751 0.950 . S
C3774 C3775 1.349 . S
C3774 C3776 1.327 . S
C3774 H3799 0.950 . S
C3775 C3774 1.349 . S
C3775 C3791 1.349 . S
C3776 C3774 1.327 . S
C3776 C3795 1.429 . S
C3776 H3800 0.950 . S
C3777 C3794 1.574 . S
C3777 C3796 1.368 . S
C3777 H3801 0.949 . S
H3778 C3782 0.949 . S
C3779 C3780 1.349 . S
C3779 C3781 1.327 . S
C3779 H3802 0.950 . S
C3780 C3779 1.349 . S
C3780 C3792 1.349 . S
C3781 C3779 1.327 . S
C3781 C3797 1.429 . S
C3781 H3803 0.950 . S
C3782 H3778 0.949 . S
C3782 C3790 1.574 . S
C3782 C3798 1.368 . S
H3783 C3791 0.950 . S
H3784 C3789 0.950 . S
H3785 C3790 0.949 . S
H3786 C3792 0.950 . S
H3787 C3793 0.950 . S
H3788 C3794 0.949 . S
C3789 H3784 0.950 . S
C3789 C3791 1.327 . S
C3789 C3795 1.429 . S
C3790 C3782 1.574 . S
C3790 H3785 0.949 . S
C3790 C3796 1.368 . S
C3791 C3775 1.349 . S
C3791 H3783 0.950 . S
C3791 C3789 1.327 . S
C3792 C3780 1.349 . S
C3792 H3786 0.950 . S
C3792 C3793 1.327 . S
C3793 H3787 0.950 . S
C3793 C3792 1.327 . S
C3793 C3797 1.429 . S
C3794 C3777 1.574 . S
C3794 H3788 0.949 . S
C3794 C3798 1.368 . S
C3795 C3776 1.429 . S
C3795 C3789 1.429 . S
C3795 C3796 1.523 . S
C3796 C3777 1.368 . S
C3796 C3790 1.368 . S
C3796 C3795 1.523 . S
C3797 C3781 1.429 . S
C3797 C3793 1.429 . S
C3797 C3798 1.523 . S
C3798 C3782 1.368 . S
C3798 C3794 1.368 . S
C3798 C3797 1.523 . S
H3799 C3774 0.950 . S
H3800 C3776 0.950 . S
H3801 C3777 0.949 . S
H3802 C3779 0.950 . S
H3803 C3781 0.950 . S
C3804 C3805 1.349 . S
C3804 C3806 1.327 . S
C3804 H3829 0.950 . S
C3805 C3804 1.349 . S
C3805 C3821 1.349 . S
C3806 C3804 1.327 . S
C3806 C3825 1.429 . S
C3806 H3830 0.950 . S
C3807 C3824 1.574 . S
C3807 C3826 1.368 . S
C3807 H3831 0.949 . S
H3808 C3812 0.949 . S
C3809 C3810 1.349 . S
C3809 C3811 1.327 . S
C3809 H3832 0.950 . S
C3810 C3809 1.349 . S
C3810 C3822 1.349 . S
C3811 C3809 1.327 . S
C3811 C3827 1.429 . S
C3811 H3833 0.950 . S
C3812 H3808 0.949 . S
C3812 C3820 1.574 . S
C3812 C3828 1.368 . S
H3813 C3821 0.950 . S
H3814 C3819 0.950 . S
H3815 C3820 0.949 . S
H3816 C3822 0.950 . S
H3817 C3823 0.950 . S
H3818 C3824 0.949 . S
C3819 H3814 0.950 . S
C3819 C3821 1.327 . S
C3819 C3825 1.429 . S
C3820 C3812 1.574 . S
C3820 H3815 0.949 . S
C3820 C3826 1.368 . S
C3821 C3805 1.349 . S
C3821 H3813 0.950 . S
C3821 C3819 1.327 . S
C3822 C3810 1.349 . S
C3822 H3816 0.950 . S
C3822 C3823 1.327 . S
C3823 H3817 0.950 . S
C3823 C3822 1.327 . S
C3823 C3827 1.429 . S
C3824 C3807 1.574 . S
C3824 H3818 0.949 . S
C3824 C3828 1.368 . S
C3825 C3806 1.429 . S
C3825 C3819 1.429 . S
C3825 C3826 1.523 . S
C3826 C3807 1.368 . S
C3826 C3820 1.368 . S
C3826 C3825 1.523 . S
C3827 C3811 1.429 . S
C3827 C3823 1.429 . S
C3827 C3828 1.523 . S
C3828 C3812 1.368 . S
C3828 C3824 1.368 . S
C3828 C3827 1.523 . S
H3829 C3804 0.950 . S
H3830 C3806 0.950 . S
H3831 C3807 0.949 . S
H3832 C3809 0.950 . S
H3833 C3811 0.950 . S
C3834 C3835 1.349 . S
C3834 C3836 1.327 . S
C3834 H3859 0.950 . S
C3835 C3834 1.349 . S
C3835 C3851 1.349 . S
C3836 C3834 1.327 . S
C3836 C3855 1.429 . S
C3836 H3860 0.950 . S
C3837 C3854 1.574 . S
C3837 C3856 1.368 . S
C3837 H3861 0.949 . S
H3838 C3842 0.949 . S
C3839 C3840 1.349 . S
C3839 C3841 1.327 . S
C3839 H3862 0.950 . S
C3840 C3839 1.349 . S
C3840 C3852 1.349 . S
C3841 C3839 1.327 . S
C3841 C3857 1.429 . S
C3841 H3863 0.950 . S
C3842 H3838 0.949 . S
C3842 C3850 1.574 . S
C3842 C3858 1.368 . S
H3843 C3851 0.950 . S
H3844 C3849 0.950 . S
H3845 C3850 0.949 . S
H3846 C3852 0.950 . S
H3847 C3853 0.950 . S
H3848 C3854 0.949 . S
C3849 H3844 0.950 . S
C3849 C3851 1.327 . S
C3849 C3855 1.429 . S
C3850 C3842 1.574 . S
C3850 H3845 0.949 . S
C3850 C3856 1.368 . S
C3851 C3835 1.349 . S
C3851 H3843 0.950 . S
C3851 C3849 1.327 . S
C3852 C3840 1.349 . S
C3852 H3846 0.950 . S
C3852 C3853 1.327 . S
C3853 H3847 0.950 . S
C3853 C3852 1.327 . S
C3853 C3857 1.429 . S
C3854 C3837 1.574 . S
C3854 H3848 0.949 . S
C3854 C3858 1.368 . S
C3855 C3836 1.429 . S
C3855 C3849 1.429 . S
C3855 C3856 1.523 . S
C3856 C3837 1.368 . S
C3856 C3850 1.368 . S
C3856 C3855 1.523 . S
C3857 C3841 1.429 . S
C3857 C3853 1.429 . S
C3857 C3858 1.523 . S
C3858 C3842 1.368 . S
C3858 C3854 1.368 . S
C3858 C3857 1.523 . S
H3859 C3834 0.950 . S
H3860 C3836 0.950 . S
H3861 C3837 0.949 . S
H3862 C3839 0.950 . S
H3863 C3841 0.950 . S
C3864 C3865 1.349 . S
C3864 C3866 1.327 . S
C3864 H3889 0.950 . S
C3865 C3864 1.349 . S
C3865 C3881 1.349 . S
C3866 C3864 1.327 . S
C3866 C3885 1.429 . S
C3866 H3890 0.950 . S
C3867 C3884 1.574 . S
C3867 C3886 1.368 . S
C3867 H3891 0.949 . S
H3868 C3872 0.949 . S
C3869 C3870 1.349 . S
C3869 C3871 1.327 . S
C3869 H3892 0.950 . S
C3870 C3869 1.349 . S
C3870 C3882 1.349 . S
C3871 C3869 1.327 . S
C3871 C3887 1.429 . S
C3871 H3893 0.950 . S
C3872 H3868 0.949 . S
C3872 C3880 1.574 . S
C3872 C3888 1.368 . S
H3873 C3881 0.950 . S
H3874 C3879 0.950 . S
H3875 C3880 0.949 . S
H3876 C3882 0.950 . S
H3877 C3883 0.950 . S
H3878 C3884 0.949 . S
C3879 H3874 0.950 . S
C3879 C3881 1.327 . S
C3879 C3885 1.429 . S
C3880 C3872 1.574 . S
C3880 H3875 0.949 . S
C3880 C3886 1.368 . S
C3881 C3865 1.349 . S
C3881 H3873 0.950 . S
C3881 C3879 1.327 . S
C3882 C3870 1.349 . S
C3882 H3876 0.950 . S
C3882 C3883 1.327 . S
C3883 H3877 0.950 . S
C3883 C3882 1.327 . S
C3883 C3887 1.429 . S
C3884 C3867 1.574 . S
C3884 H3878 0.949 . S
C3884 C3888 1.368 . S
C3885 C3866 1.429 . S
C3885 C3879 1.429 . S
C3885 C3886 1.523 . S
C3886 C3867 1.368 . S
C3886 C3880 1.368 . S
C3886 C3885 1.523 . S
C3887 C3871 1.429 . S
C3887 C3883 1.429 . S
C3887 C3888 1.523 . S
C3888 C3872 1.368 . S
C3888 C3884 1.368 . S
C3888 C3887 1.523 . S
H3889 C3864 0.950 . S
H3890 C3866 0.950 . S
H3891 C3867 0.949 . S
H3892 C3869 0.950 . S
H3893 C3871 0.950 . S
C3894 C3895 1.349 . S
C3894 C3896 1.327 . S
C3894 H3919 0.950 . S
C3895 C3894 1.349 . S
C3895 C3911 1.349 . S
C3896 C3894 1.327 . S
C3896 C3915 1.429 . S
C3896 H3920 0.950 . S
C3897 C3914 1.574 . S
C3897 C3916 1.368 . S
C3897 H3921 0.949 . S
H3898 C3902 0.949 . S
C3899 C3900 1.349 . S
C3899 C3901 1.327 . S
C3899 H3922 0.950 . S
C3900 C3899 1.349 . S
C3900 C3912 1.349 . S
C3901 C3899 1.327 . S
C3901 C3917 1.429 . S
C3901 H3923 0.950 . S
C3902 H3898 0.949 . S
C3902 C3910 1.574 . S
C3902 C3918 1.368 . S
H3903 C3911 0.950 . S
H3904 C3909 0.950 . S
H3905 C3910 0.949 . S
H3906 C3912 0.950 . S
H3907 C3913 0.950 . S
H3908 C3914 0.949 . S
C3909 H3904 0.950 . S
C3909 C3911 1.327 . S
C3909 C3915 1.429 . S
C3910 C3902 1.574 . S
C3910 H3905 0.949 . S
C3910 C3916 1.368 . S
C3911 C3895 1.349 . S
C3911 H3903 0.950 . S
C3911 C3909 1.327 . S
C3912 C3900 1.349 . S
C3912 H3906 0.950 . S
C3912 C3913 1.327 . S
C3913 H3907 0.950 . S
C3913 C3912 1.327 . S
C3913 C3917 1.429 . S
C3914 C3897 1.574 . S
C3914 H3908 0.949 . S
C3914 C3918 1.368 . S
C3915 C3896 1.429 . S
C3915 C3909 1.429 . S
C3915 C3916 1.523 . S
C3916 C3897 1.368 . S
C3916 C3910 1.368 . S
C3916 C3915 1.523 . S
C3917 C3901 1.429 . S
C3917 C3913 1.429 . S
C3917 C3918 1.523 . S
C3918 C3902 1.368 . S
C3918 C3914 1.368 . S
C3918 C3917 1.523 . S
H3919 C3894 0.950 . S
H3920 C3896 0.950 . S
H3921 C3897 0.949 . S
H3922 C3899 0.950 . S
H3923 C3901 0.950 . S
C1225 C5 1.049 . S
C1230 C70 1.074 . S
C1255 C2 1.074 . S
C1260 C39 1.049 . S
C1285 C36 1.074 . S
C1290 C73 1.049 . S
C1315 C138 1.074 . S
C1320 C107 1.049 . S
C1345 C172 1.074 . S
C1350 C141 1.049 . S
C1375 C104 1.074 . S
C1380 C175 1.049 . S
C1405 C274 1.074 . S
C1410 C209 1.049 . S
C1435 C243 1.049 . S
C1440 C206 1.074 . S
C1465 C240 1.074 . S
C1470 C277 1.049 . S
C1495 C342 1.074 . S
C1500 C311 1.049 . S
C1525 C345 1.049 . S
C1530 C376 1.074 . S
C1555 C308 1.074 . S
C1560 C379 1.049 . S
C1585 C413 1.049 . S
C1590 C478 1.074 . S
C1615 C447 1.049 . S
C1620 C410 1.074 . S
C1645 C481 1.049 . S
C1650 C444 1.074 . S
C1675 C546 1.074 . S
C1680 C515 1.049 . S
C1705 C580 1.074 . S
C1710 C549 1.049 . S
C1735 C583 1.049 . S
C1740 C512 1.074 . S
C1765 C617 1.049 . S
C1770 C682 1.074 . S
C1795 C651 1.049 . S
C1800 C614 1.074 . S
C1825 C685 1.049 . S
C1830 C648 1.074 . S
C1855 C750 1.074 . S
C1860 C719 1.049 . S
C1885 C784 1.074 . S
C1890 C753 1.049 . S
C1915 C787 1.049 . S
C1920 C716 1.074 . S
C1945 C886 1.074 . S
C1950 C821 1.049 . S
C1975 C818 1.074 . S
C1980 C855 1.049 . S
C2005 C889 1.049 . S
C2010 C852 1.074 . S
C2035 C954 1.074 . S
C2040 C923 1.049 . S
C2065 C957 1.049 . S
C2070 C988 1.074 . S
C2095 C920 1.074 . S
C2100 C991 1.049 . S
C2125 C1090 1.074 . S
C2130 C1025 1.049 . S
C2155 C1059 1.049 . S
C2160 C1022 1.074 . S
C2185 C1093 1.049 . S
C2190 C1056 1.074 . S
C2215 C1158 1.074 . S
C2220 C1127 1.049 . S
C2245 C1192 1.074 . S
C2250 C1161 1.049 . S
C2275 C1195 1.049 . S
C2280 C1124 1.074 . S
C2305 C689 1.544 . S
C2310 C20 1.549 . S
C2335 C54 1.550 . S
C2340 C621 1.544 . S
C2365 C88 1.550 . S
C2370 C655 1.544 . S
C2395 C1165 1.544 . S
C2400 C122 1.549 . S
C2425 C1199 1.544 . S
C2430 C156 1.550 . S
C2455 C190 1.550 . S
C2460 C1131 1.544 . S
C2485 C224 1.549 . S
C2490 C893 1.544 . S
C2515 C258 1.550 . S
C2520 C825 1.544 . S
C2545 C292 1.550 . S
C2550 C859 1.544 . S
C2575 C553 1.544 . S
C2580 C326 1.549 . S
C2605 C360 1.550 . S
C2610 C587 1.544 . S
C2635 C394 1.550 . S
C2640 C519 1.544 . S
C2665 C428 1.550 . S
C2670 C1097 1.544 . S
C2695 C1029 1.544 . S
C2700 C462 1.550 . S
C2725 C1063 1.544 . S
C2730 C496 1.549 . S
C2755 C530 1.549 . S
C2760 C349 1.543 . S
C2785 C564 1.550 . S
C2790 C383 1.544 . S
C2815 C598 1.550 . S
C2820 C315 1.544 . S
C2845 C77 1.543 . S
C2850 C632 1.549 . S
C2875 C666 1.550 . S
C2880 C9 1.544 . S
C2905 C700 1.550 . S
C2910 C43 1.544 . S
C2935 C961 1.544 . S
C2940 C734 1.550 . S
C2965 C768 1.549 . S
C2970 C995 1.544 . S
C2995 C802 1.550 . S
C3000 C927 1.544 . S
C3025 C281 1.544 . S
C3030 C836 1.549 . S
C3055 C213 1.544 . S
C3060 C870 1.550 . S
C3085 C904 1.550 . S
C3090 C247 1.544 . S
C3115 C938 1.550 . S
C3120 C757 1.544 . S
C3145 C791 1.544 . S
C3150 C972 1.549 . S
C3175 C1006 1.550 . S
C3180 C723 1.545 . S
C3205 C485 1.544 . S
C3210 C1040 1.550 . S
C3235 C1074 1.550 . S
C3240 C417 1.544 . S
C3265 C1108 1.549 . S
C3270 C451 1.544 . S
C3295 C145 1.544 . S
C3300 C1142 1.549 . S
C3325 C1176 1.550 . S
C3330 C179 1.544 . S
C3355 C111 1.544 . S
C3360 C1210 1.550 . S
C3385 C169 1.266 . S
C3390 C33 1.266 . S
C3415 C67 1.267 . S
C3420 C203 1.267 . S
C3445 C101 1.266 . S
C3450 C135 1.266 . S
C3475 C237 1.266 . S
C3480 C373 1.266 . S
C3505 C271 1.267 . S
C3510 C407 1.267 . S
C3535 C305 1.266 . S
C3540 C339 1.266 . S
C3565 C577 1.266 . S
C3570 C441 1.266 . S
C3595 C611 1.267 . S
C3600 C475 1.267 . S
C3625 C543 1.266 . S
C3630 C509 1.266 . S
C3655 C781 1.266 . S
C3660 C645 1.266 . S
C3685 C815 1.267 . S
C3690 C679 1.267 . S
C3715 C747 1.266 . S
C3720 C713 1.266 . S
C3745 C985 1.266 . S
C3750 C849 1.266 . S
C3775 C883 1.267 . S
C3780 C1019 1.267 . S
C3805 C951 1.267 . S
C3810 C917 1.267 . S
C3835 C1189 1.266 . S
C3840 C1053 1.266 . S
C3865 C1223 1.267 . S
C3870 C1087 1.267 . S
C3895 C1121 1.266 . S
C3900 C1155 1.266 . S
