# Generated by pormake.
# Topology ofo, (3)-cn, num edge types: 1
# Building blocks:
#     Node 0, Type 0, BuildingBlock: WUSLED_clean_sbu_0, # of connection points: 3
#     Node 1, Type 0, BuildingBlock: WUSLED_clean_sbu_0, # of connection points: 3
#     Node 2, Type 0, BuildingBlock: WUSLED_clean_sbu_0, # of connection points: 3
#     Node 3, Type 0, BuildingBlock: WUSLED_clean_sbu_0, # of connection points: 3
#     Node 4, Type 0, BuildingBlock: WUSLED_clean_sbu_0, # of connection points: 3
#     Node 5, Type 0, BuildingBlock: WUSLED_clean_sbu_0, # of connection points: 3
#     Node 6, Type 0, BuildingBlock: WUSLED_clean_sbu_0, # of connection points: 3
#     Node 7, Type 0, BuildingBlock: WUSLED_clean_sbu_0, # of connection points: 3
#     Node 8, Type 0, BuildingBlock: WUSLED_clean_sbu_0, # of connection points: 3
#     Node 9, Type 0, BuildingBlock: WUSLED_clean_sbu_0, # of connection points: 3
#     Node 10, Type 0, BuildingBlock: WUSLED_clean_sbu_0, # of connection points: 3
#     Node 11, Type 0, BuildingBlock: WUSLED_clean_sbu_0, # of connection points: 3
#     Edge 12, Type (0, 0), BuildingBlock: TEMPAE_clean_linker_10, # of connection points: 2
#     Edge 13, Type (0, 0), BuildingBlock: TEMPAE_clean_linker_10, # of connection points: 2
#     Edge 14, Type (0, 0), BuildingBlock: TEMPAE_clean_linker_10, # of connection points: 2
#     Edge 15, Type (0, 0), BuildingBlock: TEMPAE_clean_linker_10, # of connection points: 2
#     Edge 16, Type (0, 0), BuildingBlock: TEMPAE_clean_linker_10, # of connection points: 2
#     Edge 17, Type (0, 0), BuildingBlock: TEMPAE_clean_linker_10, # of connection points: 2
#     Edge 18, Type (0, 0), BuildingBlock: TEMPAE_clean_linker_10, # of connection points: 2
#     Edge 19, Type (0, 0), BuildingBlock: TEMPAE_clean_linker_10, # of connection points: 2
#     Edge 20, Type (0, 0), BuildingBlock: TEMPAE_clean_linker_10, # of connection points: 2
#     Edge 21, Type (0, 0), BuildingBlock: TEMPAE_clean_linker_10, # of connection points: 2
#     Edge 22, Type (0, 0), BuildingBlock: TEMPAE_clean_linker_10, # of connection points: 2
#     Edge 23, Type (0, 0), BuildingBlock: TEMPAE_clean_linker_10, # of connection points: 2
#     Edge 24, Type (0, 0), BuildingBlock: TEMPAE_clean_linker_10, # of connection points: 2
#     Edge 25, Type (0, 0), BuildingBlock: TEMPAE_clean_linker_10, # of connection points: 2
#     Edge 26, Type (0, 0), BuildingBlock: TEMPAE_clean_linker_10, # of connection points: 2
#     Edge 27, Type (0, 0), BuildingBlock: TEMPAE_clean_linker_10, # of connection points: 2
#     Edge 28, Type (0, 0), BuildingBlock: TEMPAE_clean_linker_10, # of connection points: 2
#     Edge 29, Type (0, 0), BuildingBlock: TEMPAE_clean_linker_10, # of connection points: 2
# Relax obj value: 0.053
# Max RMSD: 0.062
# Mean RMSD: 0.062
data_MOF--net-ofo--node1-WUSLED_clean_sbu_0--edge1-TEMPAE_clean_linker_10
_symmetry_space_group_name_H-M    P1
_symmetry_Int_Tables_number       1
_symmetry_cell_setting            triclinic
loop_
_symmetry_equiv_pos_as_xyz
'x, y, z'
_cell_length_a     36.606505
_cell_length_b     36.612871
_cell_length_c     91.746409
_cell_angle_alpha  90.011757
_cell_angle_beta   89.978298
_cell_angle_gamma 120.02492
loop_
_atom_site_label
_atom_site_type_symbol
_atom_site_fract_x
_atom_site_fract_y
_atom_site_fract_z
_atom_type_partial_charge
C0 C 0.42195 0.3309 0.10471 0.0
C1 C 0.45462 0.32459 0.1097 0.0
C2 C 0.47206 0.37739 0.12866 0.0
C3 C 0.4795 0.34768 0.12155 0.0
C4 C 0.43922 0.38356 0.1236 0.0
C5 C 0.41441 0.36049 0.11171 0.0
U6 U 0.39067 0.24306 0.0773 0.0
O7 O 0.32816 0.19401 0.06954 0.0
O8 O 0.37482 0.23864 0.05402 0.0
C9 C 0.33579 0.20803 0.05606 0.0
C10 C 0.39531 0.30614 0.0924 0.0
C11 C 0.3026 0.2134 0.04902 0.0
C12 C 0.27184 0.25647 0.0422 0.0
C13 C 0.30324 0.25206 0.04936 0.0
C14 C 0.23853 0.18347 0.03451 0.0
C15 C 0.2392 0.22225 0.0346 0.0
C16 C 0.26993 0.17917 0.04162 0.0
C17 C 0.45253 0.18261 0.07977 0.0
C18 C 0.43328 0.10908 0.0766 0.0
C19 C 0.50665 0.16392 0.07534 0.0
C20 C 0.495 0.19443 0.07769 0.0
C21 C 0.47605 0.12079 0.07511 0.0
C22 C 0.42161 0.13969 0.07891 0.0
C23 C 0.44215 0.21524 0.0841 0.0
O24 O 0.41529 0.31117 0.08 0.0
O25 O 0.36839 0.26641 0.09537 0.0
O26 O 0.40555 0.2022 0.09052 0.0
O27 O 0.45206 0.24609 0.07478 0.0
H28 H 0.4607 0.30163 0.10446 0.0
H29 H 0.50416 0.3418 0.12528 0.0
H30 H 0.43299 0.40654 0.12873 0.0
H31 H 0.3893 0.36573 0.108 0.0
H32 H 0.27353 0.28685 0.04241 0.0
H33 H 0.32819 0.27889 0.05506 0.0
H34 H 0.2135 0.15623 0.02903 0.0
H35 H 0.26876 0.14901 0.0413 0.0
H36 H 0.40892 0.07615 0.0766 0.0
H37 H 0.53978 0.1741 0.07398 0.0
H38 H 0.51939 0.22731 0.07831 0.0
H39 H 0.38856 0.12962 0.08047 0.0
C40 C 0.09639 0.41872 0.77241 0.0
C41 C 0.13512 0.44745 0.7788 0.0
C42 C 0.09888 0.46697 0.79679 0.0
C43 C 0.13637 0.47134 0.7909 0.0
C44 C 0.06013 0.43793 0.79034 0.0
C45 C 0.05894 0.41404 0.77826 0.0
U46 U 0.15342 0.39114 0.74386 0.0
O47 O 0.13982 0.33016 0.73465 0.0
O48 O 0.14193 0.37915 0.72029 0.0
C49 C 0.13324 0.33983 0.72148 0.0
C50 C 0.09494 0.39388 0.75959 0.0
C51 C 0.09449 0.30802 0.71407 0.0
C52 C 0.02109 0.25176 0.7145 0.0
C53 C 0.05685 0.2829 0.72176 0.0
C54 C 0.05983 0.27124 0.69174 0.0
C55 C 0.02224 0.24542 0.6994 0.0
C56 C 0.09556 0.30214 0.69901 0.0
C57 C 0.27547 0.45163 0.74628 0.0
C58 C 0.32632 0.43092 0.73881 0.0
C59 C 0.3499 0.50409 0.74436 0.0
C60 C 0.30832 0.49355 0.74734 0.0
C61 C 0.35953 0.47281 0.74031 0.0
C62 C 0.28461 0.42042 0.74173 0.0
C63 C 0.23279 0.44124 0.75096 0.0
O64 O 0.11023 0.41567 0.74753 0.0
O65 O 0.10764 0.36654 0.76188 0.0
O66 O 0.20906 0.40371 0.75674 0.0
O67 O 0.21202 0.45267 0.74214 0.0
H68 H 0.1644 0.45154 0.77438 0.0
H69 H 0.16674 0.49374 0.79548 0.0
H70 H 0.03066 0.43341 0.79472 0.0
H71 H 0.02876 0.39191 0.77347 0.0
H72 H 0.9925 0.23271 0.72068 0.0
H73 H 0.05519 0.2871 0.73338 0.0
H74 H 0.06197 0.26689 0.68016 0.0
H75 H 0.1243 0.32117 0.69288 0.0
H76 H 0.33267 0.40619 0.73556 0.0
H77 H 0.37471 0.53652 0.74581 0.0
H78 H 0.30195 0.51806 0.75088 0.0
H79 H 0.25972 0.38784 0.74077 0.0
C80 C 0.68439 0.09061 0.44074 0.0
C81 C 0.69745 0.12997 0.44723 0.0
C82 C 0.64154 0.09697 0.46536 0.0
C83 C 0.67627 0.13313 0.45943 0.0
C84 C 0.62853 0.05758 0.45876 0.0
C85 C 0.64982 0.05447 0.44657 0.0
U86 U 0.76947 0.14426 0.41229 0.0
O87 O 0.81589 0.12884 0.40339 0.0
O88 O 0.77043 0.13262 0.38877 0.0
C89 C 0.80068 0.12342 0.39008 0.0
C90 C 0.70684 0.0873 0.42796 0.0
C91 C 0.79401 0.08517 0.38245 0.0
C92 C 0.76757 0.00958 0.38155 0.0
C93 C 0.77172 0.04507 0.38889 0.0
C94 C 0.8072 0.05389 0.36119 0.0
C95 C 0.78569 0.01366 0.36766 0.0
C96 C 0.81133 0.08921 0.36853 0.0
C97 C 0.83473 0.26618 0.41464 0.0
C98 C 0.90862 0.31734 0.41013 0.0
C99 C 0.85643 0.33952 0.40964 0.0
C100 C 0.82478 0.29821 0.41269 0.0
C101 C 0.89881 0.34971 0.40858 0.0
C102 C 0.87688 0.27592 0.41309 0.0
C103 C 0.80115 0.22399 0.41935 0.0
O104 O 0.70126 0.10294 0.41582 0.0
O105 O 0.74648 0.0983 0.43026 0.0
O106 O 0.81331 0.19918 0.42534 0.0
O107 O 0.76892 0.20404 0.41047 0.0
H108 H 0.72404 0.15827 0.44283 0.0
H109 H 0.68678 0.16397 0.46411 0.0
H110 H 0.60223 0.02907 0.46315 0.0
H111 H 0.63937 0.02382 0.44171 0.0
H112 H 0.75107 0.97915 0.38688 0.0
H113 H 0.75806 0.04134 0.39965 0.0
H114 H 0.82088 0.05811 0.35042 0.0
H115 H 0.82845 0.11987 0.36335 0.0
H116 H 0.94094 0.32415 0.40921 0.0
H117 H 0.84789 0.36379 0.40867 0.0
H118 H 0.79256 0.2915 0.41393 0.0
H119 H 0.8855 0.25182 0.41447 0.0
C120 C 0.60488 0.68022 0.11029 0.0
C121 C 0.58232 0.69543 0.11814 0.0
C122 C 0.55671 0.63606 0.13492 0.0
C123 C 0.55854 0.67363 0.13036 0.0
C124 C 0.57944 0.62097 0.12701 0.0
C125 C 0.60336 0.64293 0.11481 0.0
U126 U 0.63484 0.76689 0.0826 0.0
O127 O 0.69612 0.8129 0.07316 0.0
O128 O 0.64482 0.76882 0.05887 0.0
C129 C 0.68469 0.79836 0.05984 0.0
C130 C 0.62949 0.70295 0.09734 0.0
C131 C 0.71487 0.79082 0.05164 0.0
C132 C 0.75466 0.75455 0.0482 0.0
C133 C 0.72492 0.76018 0.05603 0.0
C134 C 0.76419 0.80987 0.03149 0.0
C135 C 0.77476 0.77945 0.03584 0.0
C136 C 0.73456 0.81544 0.03931 0.0
C137 C 0.58042 0.83375 0.0879 0.0
C138 C 0.56401 0.87405 0.07066 0.0
C139 C 0.56402 0.88659 0.09658 0.0
C140 C 0.57514 0.85594 0.09937 0.0
C141 C 0.55769 0.89564 0.08221 0.0
C142 C 0.57527 0.84332 0.07347 0.0
C143 C 0.58912 0.79957 0.09148 0.0
O144 O 0.60705 0.69837 0.08559 0.0
O145 O 0.65902 0.74227 0.09964 0.0
O146 O 0.62692 0.81131 0.09662 0.0
O147 O 0.57528 0.76785 0.08228 0.0
H148 H 0.58294 0.72409 0.11475 0.0
H149 H 0.54099 0.6858 0.13608 0.0
H150 H 0.57902 0.59238 0.13034 0.0
H151 H 0.62059 0.63075 0.10888 0.0
H152 H 0.76175 0.7306 0.05178 0.0
H153 H 0.70993 0.74082 0.06553 0.0
H154 H 0.77949 0.83007 0.02219 0.0
H155 H 0.72733 0.83938 0.0358 0.0
H156 H 0.55923 0.88014 0.05947 0.0
H157 H 0.5603 0.9032 0.10571 0.0
H158 H 0.57907 0.84913 0.11057 0.0
H159 H 0.57925 0.82662 0.06442 0.0
C160 C 0.92727 0.6037 0.77674 0.0
C161 C 0.88786 0.57477 0.78266 0.0
C162 C 0.92205 0.55579 0.80158 0.0
C163 C 0.88525 0.55101 0.79494 0.0
C164 C 0.96154 0.58507 0.79564 0.0
C165 C 0.96409 0.60879 0.78331 0.0
U166 U 0.87186 0.63385 0.74864 0.0
O167 O 0.88735 0.69505 0.73916 0.0
O168 O 0.88106 0.64401 0.72492 0.0
C169 C 0.89167 0.68393 0.72592 0.0
C170 C 0.92985 0.62852 0.76377 0.0
C171 C 0.93014 0.71414 0.718 0.0
C172 C 1.0049 0.76664 0.71741 0.0
C173 C 0.96936 0.73647 0.72504 0.0
C174 C 0.9627 0.75161 0.69554 0.0
C175 C 1.00192 0.77479 0.70259 0.0
C176 C 0.92721 0.72166 0.70319 0.0
C177 C 0.75044 0.57923 0.75351 0.0
C178 C 0.69803 0.5752 0.73628 0.0
C179 C 0.67871 0.55514 0.7615 0.0
C180 C 0.71985 0.56448 0.76452 0.0
C181 C 0.66723 0.56038 0.74736 0.0
C182 C 0.73942 0.58471 0.73935 0.0
C183 C 0.79313 0.58785 0.75723 0.0
O184 O 0.91261 0.60628 0.75192 0.0
O185 O 0.91984 0.65789 0.76599 0.0
O186 O 0.81899 0.62564 0.7624 0.0
O187 O 0.81123 0.57433 0.74799 0.0
H188 H 0.85908 0.5706 0.77775 0.0
H189 H 0.85441 0.52914 0.79934 0.0
H190 H 0.99043 0.58914 0.80039 0.0
H191 H 0.99477 0.63097 0.77888 0.0
H192 H 0.03473 0.78359 0.72311 0.0
H193 H 0.9724 0.73095 0.73646 0.0
H194 H 0.95915 0.75742 0.6842 0.0
H195 H 0.89721 0.7048 0.69757 0.0
H196 H 0.69022 0.57984 0.72531 0.0
H197 H 0.65568 0.54314 0.77022 0.0
H198 H 0.72774 0.55988 0.7755 0.0
H199 H 0.76271 0.59621 0.73071 0.0
C200 C 0.33789 0.91824 0.43789 0.0
C201 C 0.32821 0.87877 0.44353 0.0
C202 C 0.38328 0.91284 0.46187 0.0
C203 C 0.35068 0.87607 0.45541 0.0
C204 C 0.39296 0.95234 0.45611 0.0
C205 C 0.37041 0.95498 0.44422 0.0
U206 U 0.24978 0.8634 0.41057 0.0
O207 O 0.20135 0.87767 0.40289 0.0
O208 O 0.24551 0.87518 0.38728 0.0
C209 C 0.21499 0.88367 0.38936 0.0
C210 C 0.31365 0.92106 0.42559 0.0
C211 C 0.22049 0.92217 0.38229 0.0
C212 C 0.25605 0.99854 0.37991 0.0
C213 C 0.25204 0.96243 0.38674 0.0
C214 C 0.1972 0.95435 0.36413 0.0
C215 C 0.22847 0.9949 0.36858 0.0
C216 C 0.19328 0.91841 0.37093 0.0
C217 C 0.18675 0.74147 0.41293 0.0
C218 C 0.1129 0.69054 0.4083 0.0
C219 C 0.16456 0.66766 0.40878 0.0
C220 C 0.19637 0.70906 0.41158 0.0
C221 C 0.12235 0.65778 0.40736 0.0
C222 C 0.14482 0.73205 0.41101 0.0
C223 C 0.22043 0.78385 0.41738 0.0
O224 O 0.31817 0.90579 0.41318 0.0
O225 O 0.27413 0.90921 0.42857 0.0
O226 O 0.20841 0.80808 0.4239 0.0
O227 O 0.25129 0.80426 0.40801 0.0
H228 H 0.30317 0.85003 0.43875 0.0
H229 H 0.34276 0.84518 0.45945 0.0
H230 H 0.41751 0.98127 0.46094 0.0
H231 H 0.37817 0.98571 0.44004 0.0
H232 H 0.28023 0.02928 0.38369 0.0
H233 H 0.27331 0.96589 0.39552 0.0
H234 H 0.17589 0.95034 0.35529 0.0
H235 H 0.16886 0.88756 0.36731 0.0
H236 H 0.08073 0.68396 0.40709 0.0
H237 H 0.17282 0.64311 0.40828 0.0
H238 H 0.22845 0.71558 0.41309 0.0
H239 H 0.13654 0.75652 0.41192 0.0
C240 C 0.68553 0.60036 0.23949 0.0
C241 C 0.69436 0.56964 0.23419 0.0
C242 C 0.64322 0.55216 0.21464 0.0
C243 C 0.67337 0.54572 0.22191 0.0
C244 C 0.6347 0.58325 0.21995 0.0
C245 C 0.65567 0.60711 0.23228 0.0
U246 U 0.77074 0.63005 0.26755 0.0
O247 O 0.81756 0.69137 0.27678 0.0
O248 O 0.77261 0.64101 0.29119 0.0
C249 C 0.80278 0.6806 0.2901 0.0
C250 C 0.70788 0.62556 0.25239 0.0
C251 C 0.79609 0.71161 0.29812 0.0
C252 C 0.75604 0.74688 0.30309 0.0
C253 C 0.76134 0.71689 0.29529 0.0
C254 C 0.82016 0.76647 0.31655 0.0
C255 C 0.78541 0.77202 0.31385 0.0
C256 C 0.82538 0.73656 0.30878 0.0
C257 C 0.83549 0.5732 0.26291 0.0
C258 C 0.87677 0.55909 0.28045 0.0
C259 C 0.88638 0.55371 0.25457 0.0
C260 C 0.85602 0.56505 0.25156 0.0
C261 C 0.89679 0.55003 0.26905 0.0
C262 C 0.84632 0.57058 0.27741 0.0
C263 C 0.80196 0.58264 0.25915 0.0
O264 O 0.70252 0.60371 0.26436 0.0
O265 O 0.74746 0.65443 0.25012 0.0
O266 O 0.81454 0.62041 0.25382 0.0
O267 O 0.7703 0.56981 0.26833 0.0
H268 H 0.71758 0.56422 0.23957 0.0
H269 H 0.68107 0.52246 0.21801 0.0
H270 H 0.61137 0.58869 0.21469 0.0
H271 H 0.64852 0.63074 0.23621 0.0
H272 H 0.72875 0.75008 0.3008 0.0
H273 H 0.73839 0.69786 0.28707 0.0
H274 H 0.84381 0.78573 0.32454 0.0
H275 H 0.85252 0.73306 0.31105 0.0
H276 H 0.88396 0.5564 0.29172 0.0
H277 H 0.90179 0.54787 0.24553 0.0
H278 H 0.84822 0.56706 0.24031 0.0
H279 H 0.8309 0.57682 0.28636 0.0
C280 C 0.0908 0.67902 0.9086 0.0
C281 C 0.12952 0.69198 0.90162 0.0
C282 C 0.0951 0.63445 0.88415 0.0
C283 C 0.13165 0.66996 0.88949 0.0
C284 C 0.05636 0.6216 0.8912 0.0
C285 C 0.05426 0.64375 0.90332 0.0
U286 U 0.1464 0.76426 0.93697 0.0
O287 O 0.13216 0.8116 0.94581 0.0
O288 O 0.13492 0.76567 0.96047 0.0
C289 C 0.12654 0.79648 0.95913 0.0
C290 C 0.08852 0.70213 0.92137 0.0
C291 C 0.08851 0.79057 0.96672 0.0
C292 C 0.01231 0.7587 0.96878 0.0
C293 C 0.04782 0.76276 0.96146 0.0
C294 C 0.05793 0.80984 0.9867 0.0
C295 C 0.01698 0.78249 0.98144 0.0
C296 C 0.09325 0.81382 0.9794 0.0
C297 C 0.26833 0.82773 0.93465 0.0
C298 C 0.31943 0.90109 0.93998 0.0
C299 C 0.34191 0.84917 0.93902 0.0
C300 C 0.30054 0.81776 0.93591 0.0
C301 C 0.35199 0.89133 0.94083 0.0
C302 C 0.27795 0.86957 0.93697 0.0
C303 C 0.22598 0.79456 0.92992 0.0
O304 O 0.104 0.69621 0.93349 0.0
O305 O 0.10042 0.74196 0.91902 0.0
O306 O 0.20167 0.80727 0.9239 0.0
O307 O 0.20558 0.76249 0.93884 0.0
H308 H 0.15812 0.71908 0.9056 0.0
H309 H 0.16203 0.68035 0.88443 0.0
H310 H 0.02758 0.59467 0.88726 0.0
H311 H 0.02411 0.63336 0.90856 0.0
H312 H 0.98128 0.73761 0.96437 0.0
H313 H 0.04359 0.74454 0.95166 0.0
H314 H 0.0627 0.82808 0.99653 0.0
H315 H 0.12442 0.83529 0.98365 0.0
H316 H 0.32615 0.93321 0.94149 0.0
H317 H 0.36631 0.84069 0.93945 0.0
H318 H 0.29389 0.78576 0.9341 0.0
H319 H 0.25367 0.87814 0.93614 0.0
C320 C 0.42529 0.09535 0.57727 0.0
C321 C 0.41516 0.10073 0.56293 0.0
C322 C 0.47748 0.10068 0.55357 0.0
C323 C 0.44096 0.10344 0.55125 0.0
C324 C 0.4873 0.09471 0.56788 0.0
C325 C 0.46145 0.09195 0.57958 0.0
U326 U 0.39135 0.14966 0.6052 0.0
O327 O 0.32832 0.13487 0.6128 0.0
O328 O 0.3747 0.1368 0.62841 0.0
C329 C 0.33568 0.12828 0.62628 0.0
C330 C 0.39838 0.09317 0.58976 0.0
C331 C 0.30233 0.08962 0.63323 0.0
C332 C 0.26939 0.01485 0.63897 0.0
C333 C 0.30127 0.05087 0.63202 0.0
C334 C 0.23924 0.05595 0.64825 0.0
C335 C 0.23794 0.01698 0.64716 0.0
C336 C 0.27109 0.09183 0.64135 0.0
C337 C 0.4498 0.27171 0.6034 0.0
C338 C 0.42667 0.32249 0.60792 0.0
C339 C 0.50123 0.34533 0.60804 0.0
C340 C 0.49178 0.30404 0.60512 0.0
C341 C 0.46883 0.35519 0.6092 0.0
C342 C 0.4172 0.28109 0.60509 0.0
C343 C 0.44138 0.22956 0.59878 0.0
O344 O 0.41779 0.1077 0.60229 0.0
O345 O 0.37004 0.10435 0.58708 0.0
O346 O 0.40529 0.2054 0.59214 0.0
O347 O 0.45178 0.20892 0.60805 0.0
H348 H 0.38728 0.1029 0.56067 0.0
H349 H 0.43195 0.10716 0.54035 0.0
H350 H 0.51531 0.09272 0.57009 0.0
H351 H 0.46996 0.08741 0.59046 0.0
H352 H 0.26908 0.98526 0.63781 0.0
H353 H 0.32506 0.04851 0.62573 0.0
H354 H 0.21594 0.0589 0.65463 0.0
H355 H 0.27147 0.12149 0.64244 0.0
H356 H 0.40102 0.32905 0.60892 0.0
H357 H 0.53402 0.36984 0.60881 0.0
H358 H 0.51741 0.29756 0.60379 0.0
H359 H 0.3845 0.25669 0.60389 0.0
C360 C 0.33658 0.41986 0.24629 0.0
C361 C 0.31989 0.41008 0.23209 0.0
C362 C 0.38408 0.46929 0.2222 0.0
C363 C 0.34334 0.43452 0.2202 0.0
C364 C 0.40086 0.47881 0.23639 0.0
C365 C 0.37748 0.4543 0.24827 0.0
U366 U 0.24935 0.39012 0.27441 0.0
O367 O 0.20157 0.32853 0.28313 0.0
O368 O 0.24717 0.37705 0.29792 0.0
C369 C 0.21661 0.33777 0.29646 0.0
C370 C 0.31187 0.3945 0.25904 0.0
C371 C 0.22323 0.3058 0.30379 0.0
C372 C 0.25501 0.26129 0.30495 0.0
C373 C 0.24997 0.29243 0.29789 0.0
C374 C 0.20705 0.25704 0.32395 0.0
C375 C 0.23351 0.24314 0.31807 0.0
C376 C 0.202 0.28804 0.31687 0.0
C377 C 0.18733 0.45024 0.27147 0.0
C378 C 0.1139 0.43013 0.27555 0.0
C379 C 0.16774 0.50398 0.27511 0.0
C380 C 0.19854 0.49276 0.27272 0.0
C381 C 0.12491 0.47286 0.27621 0.0
C382 C 0.14482 0.4189 0.2732 0.0
C383 C 0.22003 0.44 0.26712 0.0
O384 O 0.31748 0.41542 0.27127 0.0
O385 O 0.27208 0.3663 0.25664 0.0
O386 O 0.20694 0.40279 0.26117 0.0
O387 O 0.25166 0.45131 0.2762 0.0
H388 H 0.28868 0.38352 0.2301 0.0
H389 H 0.32972 0.42581 0.2094 0.0
H390 H 0.43195 0.50559 0.23837 0.0
H391 H 0.39138 0.4625 0.25905 0.0
H392 H 0.27592 0.2516 0.3002 0.0
H393 H 0.26676 0.30595 0.2878 0.0
H394 H 0.18953 0.24336 0.3339 0.0
H395 H 0.18115 0.29791 0.32157 0.0
H396 H 0.0812 0.40537 0.27624 0.0
H397 H 0.1774 0.53713 0.27582 0.0
H398 H 0.23112 0.51745 0.27144 0.0
H399 H 0.13526 0.38581 0.2723 0.0
C400 C 0.92173 0.33367 0.9114 0.0
C401 C 0.91801 0.31836 0.89708 0.0
C402 C 0.91881 0.38069 0.88736 0.0
C403 C 0.91653 0.34158 0.88521 0.0
C404 C 0.92307 0.39626 0.90164 0.0
C405 C 0.92471 0.37312 0.91351 0.0
U406 U 0.86579 0.24536 0.93934 0.0
O407 O 0.88119 0.19861 0.94789 0.0
O408 O 0.87711 0.24327 0.96285 0.0
C409 C 0.88691 0.21352 0.96125 0.0
C410 C 0.9229 0.30906 0.92409 0.0
C411 C 0.92561 0.22055 0.96871 0.0
C412 C 0.99897 0.23757 0.96838 0.0
C413 C 0.96352 0.23371 0.96112 0.0
C414 C 0.95941 0.21642 0.99096 0.0
C415 C 0.99719 0.22845 0.98337 0.0
C416 C 0.92404 0.21244 0.98369 0.0
C417 C 0.74387 0.17965 0.93663 0.0
C418 C 0.69279 0.10538 0.94047 0.0
C419 C 0.67026 0.15726 0.94147 0.0
C420 C 0.71162 0.18925 0.9387 0.0
C421 C 0.66021 0.11486 0.94212 0.0
C422 C 0.73426 0.13746 0.93779 0.0
C423 C 0.78613 0.21368 0.93215 0.0
O424 O 0.90702 0.3138 0.93634 0.0
O425 O 0.91238 0.26961 0.92158 0.0
O426 O 0.81125 0.2021 0.92603 0.0
O427 O 0.80573 0.24537 0.94127 0.0
H428 H 0.91601 0.2883 0.895 0.0
H429 H 0.91299 0.32859 0.87436 0.0
H430 H 0.92565 0.42662 0.90364 0.0
H431 H 0.92826 0.38614 0.92436 0.0
H432 H 0.02739 0.24657 0.96217 0.0
H433 H 0.96553 0.2403 0.94955 0.0
H434 H 0.9571 0.20992 1.00254 0.0
H435 H 0.89516 0.20248 0.98977 0.0
H436 H 0.68609 0.07306 0.94108 0.0
H437 H 0.64584 0.16557 0.94253 0.0
H438 H 0.71822 0.2215 0.93776 0.0
H439 H 0.75851 0.12909 0.9363 0.0
C440 C 0.5987 0.92149 0.57484 0.0
C441 C 0.57125 0.88193 0.56869 0.0
C442 C 0.54802 0.91483 0.55066 0.0
C443 C 0.54618 0.87862 0.5567 0.0
C444 C 0.57536 0.95439 0.55698 0.0
C445 C 0.60052 0.95766 0.56895 0.0
U446 U 0.63221 0.86849 0.60284 0.0
O447 O 0.69521 0.88322 0.61046 0.0
O448 O 0.64894 0.8819 0.62601 0.0
C449 C 0.68794 0.89033 0.6239 0.0
C450 C 0.62583 0.92507 0.58722 0.0
C451 C 0.72142 0.92916 0.63074 0.0
C452 C 0.75203 1.00291 0.63768 0.0
C453 C 0.72021 0.9669 0.63071 0.0
C454 C 0.78679 0.96395 0.64454 0.0
C455 C 0.78571 1.00182 0.64469 0.0
C456 C 0.75497 0.92804 0.63764 0.0
C457 C 0.57304 0.74644 0.60158 0.0
C458 C 0.59588 0.69567 0.6066 0.0
C459 C 0.52138 0.67311 0.60656 0.0
C460 C 0.53101 0.7143 0.60336 0.0
C461 C 0.55366 0.66316 0.60796 0.0
C462 C 0.60552 0.73699 0.60349 0.0
C463 C 0.58169 0.78847 0.59673 0.0
O464 O 0.60617 0.91067 0.59971 0.0
O465 O 0.65345 0.91301 0.58447 0.0
O466 O 0.61779 0.81219 0.59003 0.0
O467 O 0.57154 0.80961 0.60587 0.0
H468 H 0.56936 0.85361 0.57314 0.0
H469 H 0.5251 0.84767 0.55223 0.0
H470 H 0.5779 0.98292 0.55249 0.0
H471 H 0.62162 0.98845 0.57354 0.0
H472 H 0.75049 0.03168 0.63747 0.0
H473 H 0.69465 0.96848 0.62537 0.0
H474 H 0.8119 0.96181 0.64999 0.0
H475 H 0.75639 0.89918 0.63781 0.0
H476 H 0.62144 0.68905 0.60778 0.0
H477 H 0.48855 0.64872 0.60738 0.0
H478 H 0.50547 0.72084 0.60187 0.0
H479 H 0.63827 0.76124 0.60225 0.0
C480 C 0.47956 0.40801 0.1537 0.0
C481 C 0.49836 0.40179 0.14134 0.0
C482 C 0.50401 0.43145 0.16565 0.0
C483 C 0.5484 0.44936 0.16522 0.0
C484 C 0.56751 0.44251 0.15291 0.0
C485 C 0.54229 0.4189 0.1411 0.0
C486 C 0.48241 0.43763 0.17866 0.0
C487 C 0.61462 0.46024 0.15218 0.0
C488 C 0.61351 0.5447 0.18941 0.0
C489 C 0.62037 0.52613 0.20171 0.0
C490 C 0.59075 0.52017 0.17736 0.0
C491 C 0.57473 0.47604 0.17755 0.0
C492 C 0.58259 0.45729 0.18974 0.0
C493 C 0.60508 0.4825 0.2017 0.0
C494 C 0.58333 0.54139 0.16449 0.0
C495 C 0.56683 0.4105 0.19024 0.0
H496 H 0.44559 0.39432 0.15407 0.0
H497 H 0.55708 0.41443 0.13156 0.0
H498 H 0.49014 0.42609 0.18871 0.0
H499 H 0.49418 0.47174 0.18019 0.0
H500 H 0.44756 0.42104 0.17743 0.0
H501 H 0.62428 0.44996 0.14222 0.0
H502 H 0.63107 0.4952 0.1523 0.0
H503 H 0.62548 0.45021 0.16188 0.0
H504 H 0.62581 0.57847 0.18923 0.0
H505 H 0.61003 0.46785 0.21118 0.0
H506 H 0.54913 0.52582 0.16204 0.0
H507 H 0.59913 0.53808 0.15468 0.0
H508 H 0.59534 0.5755 0.16642 0.0
H509 H 0.53184 0.3927 0.19021 0.0
H510 H 0.57802 0.4013 0.20008 0.0
H511 H 0.57746 0.40074 0.18041 0.0
C512 C 0.12732 0.49978 0.82129 0.0
C513 C 0.10015 0.49286 0.80952 0.0
C514 C 0.12861 0.52406 0.83336 0.0
C515 C 0.10165 0.54144 0.83379 0.0
C516 C 0.07474 0.53523 0.82177 0.0
C517 C 0.07435 0.51105 0.80984 0.0
C518 C 0.15883 0.53105 0.84565 0.0
C519 C 0.04662 0.55439 0.821 0.0
C520 C 0.07565 0.56647 0.87141 0.0
C521 C 0.09742 0.61068 0.87134 0.0
C522 C 0.07719 0.54347 0.85942 0.0
C523 C 0.10109 0.56522 0.84693 0.0
C524 C 0.124 0.60992 0.84695 0.0
C525 C 0.1217 0.63208 0.85909 0.0
C526 C 0.05346 0.49596 0.86055 0.0
C527 C 0.15095 0.63439 0.83411 0.0
H528 H 0.14728 0.48573 0.82117 0.0
H529 H 0.05404 0.50686 0.80064 0.0
H530 H 0.1765 0.56491 0.84874 0.0
H531 H 0.14084 0.51292 0.85535 0.0
H532 H 0.1818 0.52082 0.84272 0.0
H533 H 0.01462 0.53045 0.81722 0.0
H534 H 0.04383 0.56774 0.83147 0.0
H535 H 0.0595 0.58 0.81275 0.0
H536 H 0.05762 0.54963 0.88096 0.0
H537 H 0.13854 0.66627 0.85892 0.0
H538 H 0.07106 0.4861 0.86788 0.0
H539 H 0.04906 0.47987 0.84994 0.0
H540 H 0.0221 0.48488 0.86562 0.0
H541 H 0.17143 0.62156 0.8307 0.0
H542 H 0.17119 0.6685 0.8366 0.0
H543 H 0.13036 0.63112 0.82475 0.0
C544 C 0.64167 0.1262 0.49017 0.0
C545 C 0.61904 0.10027 0.47838 0.0
C546 C 0.6208 0.12914 0.50259 0.0
C547 C 0.57621 0.10521 0.50332 0.0
C548 C 0.55316 0.07954 0.49135 0.0
C549 C 0.57483 0.07751 0.47903 0.0
C550 C 0.64647 0.15779 0.51493 0.0
C551 C 0.50554 0.05453 0.49144 0.0
C552 C 0.52171 0.0766 0.54026 0.0
C553 C 0.5048 0.1035 0.54107 0.0
C554 C 0.54611 0.07777 0.52826 0.0
C555 C 0.55356 0.10629 0.51669 0.0
C556 C 0.53776 0.13448 0.51765 0.0
C557 C 0.5135 0.13266 0.52979 0.0
C558 C 0.56275 0.0475 0.52779 0.0
C559 C 0.54622 0.16638 0.5058 0.0
H560 H 0.67584 0.14379 0.48978 0.0
H561 H 0.55706 0.05828 0.46982 0.0
H562 H 0.63545 0.18034 0.51747 0.0
H563 H 0.64206 0.13895 0.52492 0.0
H564 H 0.6807 0.17595 0.51235 0.0
H565 H 0.49272 0.03118 0.48243 0.0
H566 H 0.49377 0.03777 0.50195 0.0
H567 H 0.49293 0.0763 0.49024 0.0
H568 H 0.51492 0.05374 0.54885 0.0
H569 H 0.5014 0.15424 0.53047 0.0
H570 H 0.59688 0.06431 0.52514 0.0
H571 H 0.54632 0.02402 0.51907 0.0
H572 H 0.55796 0.03054 0.53827 0.0
H573 H 0.58048 0.18479 0.50337 0.0
H574 H 0.53514 0.18861 0.50882 0.0
H575 H 0.52998 0.14988 0.49563 0.0
C576 C 0.3898 0.50572 0.19835 0.0
C577 C 0.40911 0.49523 0.20953 0.0
C578 C 0.41307 0.52985 0.18629 0.0
C579 C 0.45666 0.54351 0.18526 0.0
C580 C 0.47647 0.53368 0.19667 0.0
C581 C 0.45247 0.50967 0.2086 0.0
C582 C 0.39099 0.54088 0.17468 0.0
C583 C 0.5231 0.5487 0.19674 0.0
C584 C 0.50496 0.56848 0.1472 0.0
C585 C 0.53073 0.61244 0.14776 0.0
C586 C 0.48012 0.54563 0.15917 0.0
C587 C 0.48116 0.56729 0.17214 0.0
C588 C 0.50643 0.61183 0.17264 0.0
C589 C 0.53107 0.63381 0.1605 0.0
C590 C 0.45251 0.4985 0.15745 0.0
C591 C 0.50744 0.63638 0.186 0.0
H592 H 0.3565 0.4955 0.19911 0.0
H593 H 0.46778 0.50172 0.21713 0.0
H594 H 0.40927 0.57513 0.1722 0.0
H595 H 0.38897 0.52359 0.16451 0.0
H596 H 0.35853 0.53259 0.17797 0.0
H597 H 0.52883 0.52344 0.20082 0.0
H598 H 0.53793 0.55908 0.18589 0.0
H599 H 0.53908 0.57565 0.20439 0.0
H600 H 0.50369 0.55176 0.13729 0.0
H601 H 0.55099 0.6678 0.16104 0.0
H602 H 0.42634 0.49197 0.14986 0.0
H603 H 0.43866 0.48175 0.16781 0.0
H604 H 0.47081 0.48513 0.15238 0.0
H605 H 0.4749 0.62564 0.18991 0.0
H606 H 0.52344 0.67086 0.18389 0.0
H607 H 0.52457 0.63073 0.19488 0.0
C608 C 0.94651 0.54815 0.82639 0.0
C609 C 0.91917 0.52989 0.81451 0.0
C610 C 0.94473 0.52375 0.83848 0.0
C611 C 0.91493 0.48002 0.83869 0.0
C612 C 0.88654 0.46162 0.8269 0.0
C613 C 0.88911 0.48672 0.81494 0.0
C614 C 0.9751 0.54462 0.85096 0.0
C615 C 0.85371 0.4153 0.82685 0.0
C616 C 0.93973 0.40928 0.86197 0.0
C617 C 0.91692 0.40527 0.87474 0.0
C618 C 0.93896 0.43313 0.85011 0.0
C619 C 0.9146 0.4533 0.851 0.0
C620 C 0.89073 0.44859 0.86372 0.0
C621 C 0.89237 0.42485 0.87547 0.0
C622 C 0.96493 0.43749 0.83675 0.0
C623 C 0.86328 0.46843 0.86489 0.0
H624 H 0.96936 0.58161 0.82625 0.0
H625 H 0.86804 0.47231 0.80576 0.0
H626 H 0.95746 0.54132 0.86116 0.0
H627 H 0.99365 0.52866 0.85275 0.0
H628 H 0.9972 0.5787 0.84898 0.0
H629 H 0.83207 0.40652 0.81736 0.0
H630 H 0.86937 0.39606 0.82655 0.0
H631 H 0.83471 0.40692 0.837 0.0
H632 H 0.95909 0.39461 0.86138 0.0
H633 H 0.87402 0.42119 0.88519 0.0
H634 H 0.98819 0.47125 0.8349 0.0
H635 H 0.94444 0.42601 0.82697 0.0
H636 H 0.98211 0.41976 0.83775 0.0
H637 H 0.88296 0.50324 0.86409 0.0
H638 H 0.84541 0.46043 0.8753 0.0
H639 H 0.8405 0.4578 0.85571 0.0
C640 C 0.50107 0.93477 0.53706 0.0
C641 C 0.52192 0.91146 0.53773 0.0
C642 C 0.47745 0.93297 0.52475 0.0
C643 C 0.47437 0.90702 0.5128 0.0
C644 C 0.49422 0.88236 0.5136 0.0
C645 C 0.51795 0.88507 0.52601 0.0
C646 C 0.45532 0.95842 0.52469 0.0
C647 C 0.4904 0.85311 0.50135 0.0
C648 C 0.38542 0.88135 0.48598 0.0
C649 C 0.40682 0.91003 0.47466 0.0
C650 C 0.40712 0.87914 0.49827 0.0
C651 C 0.45125 0.90654 0.49936 0.0
C652 C 0.47318 0.93477 0.4878 0.0
C653 C 0.45071 0.93625 0.47563 0.0
C654 C 0.38266 0.84783 0.51017 0.0
C655 C 0.5203 0.96408 0.48839 0.0
H656 H 0.50299 0.95431 0.54624 0.0
H657 H 0.53401 0.86699 0.52643 0.0
H658 H 0.45815 0.9733 0.51393 0.0
H659 H 0.42126 0.93722 0.52687 0.0
H660 H 0.46791 0.98335 0.53319 0.0
H661 H 0.50575 0.83434 0.50401 0.0
H662 H 0.45665 0.83112 0.49887 0.0
H663 H 0.50509 0.87156 0.49131 0.0
H664 H 0.35148 0.86115 0.48538 0.0
H665 H 0.4676 0.95795 0.46682 0.0
H666 H 0.38158 0.86486 0.52 0.0
H667 H 0.39849 0.82987 0.51329 0.0
H668 H 0.34975 0.82514 0.50682 0.0
H669 H 0.52791 0.987 0.49735 0.0
H670 H 0.53298 0.98174 0.47805 0.0
H671 H 0.53676 0.94627 0.49075 0.0
C672 C 0.52369 0.09312 0.0824 0.0
C673 C 0.48898 0.08816 0.07429 0.0
C674 C 0.53506 0.06178 0.08252 0.0
C675 C 0.51109 0.02434 0.07437 0.0
C676 C 0.4766 0.01946 0.06589 0.0
C677 C 0.46591 0.0514 0.06597 0.0
C678 C 0.57196 0.06818 0.09176 0.0
C679 C 0.45041 0.9801 0.057 0.0
C680 C 0.5617 0.95659 0.06812 0.0
C681 C 0.54393 0.92706 0.07946 0.0
C682 C 0.55041 0.98774 0.06603 0.0
C683 C 0.52073 0.98941 0.07551 0.0
C684 C 0.50182 0.95895 0.08669 0.0
C685 C 0.51354 0.92814 0.0885 0.0
C686 C 0.57116 0.0196 0.05395 0.0
C687 C 0.46995 0.95951 0.09702 0.0
H688 H 0.54131 0.12105 0.08905 0.0
H689 H 0.43935 0.04752 0.05955 0.0
H690 H 0.56069 0.04424 0.10057 0.0
H691 H 0.59473 0.06379 0.08507 0.0
H692 H 0.58881 0.10004 0.09679 0.0
H693 H 0.42627 0.98224 0.05031 0.0
H694 H 0.47101 0.97416 0.04968 0.0
H695 H 0.43415 0.95246 0.06436 0.0
H696 H 0.58536 0.95615 0.06114 0.0
H697 H 0.49896 0.9049 0.09708 0.0
H698 H 0.59119 0.05143 0.0587 0.0
H699 H 0.5469 0.02101 0.04712 0.0
H700 H 0.59115 0.01212 0.04685 0.0
H701 H 0.48494 0.98925 0.10339 0.0
H702 H 0.45686 0.93254 0.10475 0.0
H703 H 0.44351 0.95856 0.0908 0.0
C704 C 0.43367 0.52103 0.73163 0.0
C705 C 0.40433 0.48366 0.73866 0.0
C706 C 0.47683 0.53387 0.7314 0.0
C707 C 0.49105 0.50884 0.73844 0.0
C708 C 0.46138 0.47024 0.74503 0.0
C709 C 0.41842 0.45811 0.74505 0.0
C710 C 0.50739 0.57502 0.72414 0.0
C711 C 0.47523 0.44267 0.75268 0.0
C712 C 0.60162 0.52664 0.73192 0.0
C713 C 0.62306 0.54987 0.74434 0.0
C714 C 0.55886 0.51384 0.72963 0.0
C715 C 0.5371 0.52456 0.74001 0.0
C716 C 0.55897 0.54909 0.75232 0.0
C717 C 0.6016 0.56148 0.75431 0.0
C718 C 0.53666 0.48783 0.71635 0.0
C719 C 0.53705 0.56144 0.76361 0.0
H720 H 0.42292 0.54063 0.72649 0.0
H721 H 0.39607 0.42945 0.75064 0.0
H722 H 0.52788 0.59807 0.73251 0.0
H723 H 0.52825 0.57036 0.71652 0.0
H724 H 0.49099 0.58882 0.71802 0.0
H725 H 0.44805 0.41213 0.75625 0.0
H726 H 0.49551 0.43619 0.74539 0.0
H727 H 0.49433 0.45938 0.7624 0.0
H728 H 0.61789 0.51729 0.72422 0.0
H729 H 0.61816 0.58007 0.7638 0.0
H730 H 0.52073 0.50226 0.71034 0.0
H731 H 0.51187 0.45582 0.71977 0.0
H732 H 0.55868 0.48469 0.70881 0.0
H733 H 0.5227 0.57856 0.75836 0.0
H734 H 0.5589 0.58178 0.7723 0.0
H735 H 0.51111 0.53271 0.76875 0.0
C736 C 0.05167 0.59735 0.41438 0.0
C737 C 0.08819 0.61311 0.40579 0.0
C738 C 0.02059 0.55451 0.41393 0.0
C739 C 0.026 0.52673 0.40461 0.0
C740 C 0.06219 0.54267 0.39559 0.0
C741 C 0.09294 0.58564 0.39634 0.0
C742 C 0.9826 0.53872 0.42379 0.0
C743 C 0.06887 0.51415 0.3854 0.0
C744 C 0.96895 0.41109 0.41551 0.0
C745 C 0.93275 0.39436 0.40673 0.0
C746 C 0.99989 0.45393 0.41472 0.0
C747 C 0.99468 0.48071 0.40484 0.0
C748 C 0.95878 0.46379 0.39567 0.0
C749 C 0.92815 0.42085 0.39677 0.0
C750 C 0.03756 0.47078 0.42476 0.0
C751 C 0.95234 0.49122 0.38489 0.0
H752 H 0.04805 0.61828 0.42184 0.0
H753 H 0.12089 0.59775 0.38957 0.0
H754 H 0.95314 0.52204 0.41731 0.0
H755 H 0.9824 0.5157 0.4317 0.0
H756 H 0.98224 0.56466 0.42995 0.0
H757 H 0.07231 0.49033 0.39179 0.0
H758 H 0.041 0.49676 0.37822 0.0
H759 H 0.09737 0.53188 0.37849 0.0
H760 H 0.97243 0.39093 0.42337 0.0
H761 H 0.90043 0.40798 0.38986 0.0
H762 H 0.03754 0.49467 0.4322 0.0
H763 H 0.06721 0.48673 0.41835 0.0
H764 H 0.03769 0.44554 0.43144 0.0
H765 H 0.94881 0.51571 0.39081 0.0
H766 H 0.92397 0.47278 0.37799 0.0
H767 H 0.98035 0.50784 0.37771 0.0
C768 C 0.95922 0.55651 0.28284 0.0
C769 C 0.92826 0.53652 0.27206 0.0
C770 C 0.99074 0.54578 0.28499 0.0
C771 C 0.99135 0.5144 0.27613 0.0
C772 C 0.95935 0.49315 0.26557 0.0
C773 C 0.92819 0.50435 0.26371 0.0
C774 C 0.02421 0.56901 0.2964 0.0
C775 C 0.95876 0.45944 0.25591 0.0
C776 C 0.09481 0.51784 0.26825 0.0
C777 C 0.09176 0.48504 0.27704 0.0
C778 C 0.06291 0.52843 0.2682 0.0
C779 C 0.02688 0.50564 0.27711 0.0
C780 C 0.02392 0.4731 0.28625 0.0
C781 C 0.05637 0.46312 0.28609 0.0
C782 C 0.06722 0.56321 0.25823 0.0
C783 C 0.98609 0.44824 0.29596 0.0
H784 H 0.95966 0.58154 0.28929 0.0
H785 H 0.90386 0.48809 0.25557 0.0
H786 H 0.02718 0.54628 0.3036 0.0
H787 H 0.05521 0.5886 0.29103 0.0
H788 H 0.01726 0.58985 0.30323 0.0
H789 H 0.93052 0.44445 0.24875 0.0
H790 H 0.98737 0.47342 0.24894 0.0
H791 H 0.95936 0.43459 0.26264 0.0
H792 H 0.12164 0.53449 0.26104 0.0
H793 H 0.05399 0.43806 0.29302 0.0
H794 H 0.06351 0.58703 0.26452 0.0
H795 H 0.04186 0.54995 0.2499 0.0
H796 H 0.09818 0.57935 0.25255 0.0
H797 H 0.98083 0.46993 0.30295 0.0
H798 H 0.98974 0.42569 0.30306 0.0
H799 H 0.95741 0.43028 0.28919 0.0
C800 C 0.58845 0.08433 0.9536 0.0
C801 C 0.61552 0.08064 0.94363 0.0
C802 C 0.54548 0.05354 0.95436 0.0
C803 C 0.52911 0.01841 0.94483 0.0
C804 C 0.55647 0.01409 0.93497 0.0
C805 C 0.59932 0.04516 0.93452 0.0
C806 C 0.51743 0.05903 0.96514 0.0
C807 C 0.54023 0.97727 0.92455 0.0
C808 C 0.42359 0.91954 0.9522 0.0
C809 C 0.39667 0.92518 0.94275 0.0
C810 C 0.46655 0.95015 0.95331 0.0
C811 C 0.48306 0.9871 0.94467 0.0
C812 C 0.45584 0.99335 0.93535 0.0
C813 C 0.41299 0.96241 0.93454 0.0
C814 C 0.49445 0.94255 0.96349 0.0
C815 C 0.47223 0.03216 0.92588 0.0
H816 H 0.60089 0.11147 0.96077 0.0
H817 H 0.61992 0.04238 0.92666 0.0
H818 H 0.49331 0.06313 0.95922 0.0
H819 H 0.50038 0.03039 0.972 0.0
H820 H 0.53548 0.08675 0.97236 0.0
H821 H 0.56588 0.97767 0.91795 0.0
H822 H 0.52389 0.9471 0.93066 0.0
H823 H 0.51679 0.97791 0.91705 0.0
H824 H 0.41105 0.89103 0.95868 0.0
H825 H 0.3925 0.96673 0.92708 0.0
H826 H 0.5114 0.96975 0.97099 0.0
H827 H 0.51867 0.93969 0.95713 0.0
H828 H 0.47631 0.91344 0.97009 0.0
H829 H 0.48847 0.06104 0.93267 0.0
H830 H 0.44668 0.03304 0.91964 0.0
H831 H 0.49578 0.03307 0.91805 0.0
C832 C 0.51137 0.59201 0.61973 0.0
C833 C 0.54303 0.61858 0.60993 0.0
C834 C 0.49902 0.54908 0.62088 0.0
C835 C 0.51853 0.53225 0.61192 0.0
C836 C 0.55114 0.55914 0.60224 0.0
C837 C 0.56306 0.60196 0.6014 0.0
C838 C 0.46447 0.52154 0.63144 0.0
C839 C 0.57255 0.54239 0.59242 0.0
C840 C 0.51094 0.42702 0.62052 0.0
C841 C 0.4793 0.39982 0.61083 0.0
C842 C 0.52322 0.46999 0.62132 0.0
C843 C 0.50365 0.48621 0.61211 0.0
C844 C 0.47102 0.45869 0.60256 0.0
C845 C 0.45917 0.41585 0.60207 0.0
C846 C 0.5578 0.49822 0.63176 0.0
C847 C 0.44953 0.47477 0.5925 0.0
H848 H 0.49609 0.6048 0.62646 0.0
H849 H 0.58715 0.62219 0.59367 0.0
H850 H 0.47532 0.50467 0.63872 0.0
H851 H 0.45429 0.53994 0.63825 0.0
H852 H 0.43671 0.49725 0.62536 0.0
H853 H 0.58571 0.52623 0.59899 0.0
H854 H 0.54911 0.5187 0.58481 0.0
H855 H 0.59846 0.56773 0.58593 0.0
H856 H 0.52629 0.4147 0.62743 0.0
H857 H 0.4351 0.39513 0.59443 0.0
H858 H 0.54697 0.51558 0.63881 0.0
H859 H 0.58555 0.52209 0.62555 0.0
H860 H 0.56798 0.48027 0.6388 0.0
H861 H 0.43644 0.49139 0.59885 0.0
H862 H 0.42356 0.449 0.58617 0.0
H863 H 0.47291 0.49792 0.58474 0.0
C864 C 0.02776 0.19881 1.00115 0.0
C865 C 0.034 0.23011 0.991 0.0
C866 C 0.06192 0.19934 1.00831 0.0
C867 C 0.10355 0.23186 1.00522 0.0
C868 C 0.11017 0.26371 0.99504 0.0
C869 C 0.07534 0.26246 0.98806 0.0
C870 C 0.05346 0.1647 0.01904 0.0
C871 C 0.15406 0.29895 0.99147 0.0
C872 C 0.1881 0.24926 0.03301 0.0
C873 C 0.20589 0.22669 0.02677 0.0
C874 C 0.15547 0.25206 0.02597 0.0
C875 C 0.14008 0.23171 0.01238 0.0
C876 C 0.15845 0.20962 1.00589 0.0
C877 C 0.19113 0.20748 0.01313 0.0
C878 C 0.13676 0.27597 0.03323 0.0
C879 C 0.14308 0.18757 0.9914 0.0
H880 H 0.99606 0.17328 1.00333 0.0
H881 H 0.08049 0.28706 0.98038 0.0
H882 H 0.06864 0.14672 0.01521 0.0
H883 H 0.06746 0.1785 0.02978 0.0
H884 H 0.0192 0.14237 0.02055 0.0
H885 H 0.15385 0.3217 0.98351 0.0
H886 H 0.17016 0.31628 1.00155 0.0
H887 H 0.17303 0.28571 0.98689 0.0
H888 H 0.19896 0.26387 0.04359 0.0
H889 H 0.20517 0.19067 1.00808 0.0
H890 H 0.1032 0.25395 0.03597 0.0
H891 H 0.13753 0.29999 0.02568 0.0
H892 H 0.15377 0.29199 0.04339 0.0
H893 H 0.10946 0.16261 0.9923 0.0
H894 H 0.16159 0.17288 0.9876 0.0
H895 H 0.145 0.21028 0.98301 0.0
C896 C 0.86187 0.05037 0.65095 0.0
C897 C 0.81947 0.03971 0.65229 0.0
C898 C 0.89395 0.08477 0.65855 0.0
C899 C 0.8835 0.10926 0.66776 0.0
C900 C 0.84086 0.09914 0.66899 0.0
C901 C 0.80938 0.06453 0.66123 0.0
C902 C 0.93902 0.09464 0.65685 0.0
C903 C 0.82843 0.12442 0.6787 0.0
C904 C 0.96205 0.17085 0.69785 0.0
C905 C 0.98494 0.21125 0.69169 0.0
C906 C 0.92843 0.13762 0.69031 0.0
C907 C 0.91724 0.14492 0.67628 0.0
C908 C 0.93952 0.18588 0.67015 0.0
C909 C 0.97312 0.21849 0.67791 0.0
C910 C 0.90561 0.09438 0.6972 0.0
C911 C 0.92838 0.19507 0.65528 0.0
H912 H 0.87003 0.03177 0.64389 0.0
H913 H 0.77667 0.05626 0.66245 0.0
H914 H 0.95903 0.1275 0.65294 0.0
H915 H 0.95168 0.09224 0.66757 0.0
H916 H 0.94198 0.07299 0.64908 0.0
H917 H 0.79415 0.11342 0.67807 0.0
H918 H 0.83655 0.12207 0.69018 0.0
H919 H 0.84633 0.15825 0.67562 0.0
H920 H 0.97126 0.16486 0.70841 0.0
H921 H 0.99028 0.24975 0.67317 0.0
H922 H 0.91034 0.07185 0.6905 0.0
H923 H 0.8712 0.08262 0.69757 0.0
H924 H 0.91682 0.09433 0.70845 0.0
H925 H 0.93359 0.17628 0.64691 0.0
H926 H 0.94746 0.22899 0.65234 0.0
H927 H 0.89449 0.18561 0.6549 0.0
C928 C 0.8185 0.98031 0.35263 0.0
C929 C 0.78314 0.97649 0.36 0.0
C930 C 0.8168 0.94595 0.34521 0.0
C931 C 0.77882 0.90658 0.34516 0.0
C932 C 0.74302 0.90237 0.35262 0.0
C933 C 0.74561 0.93734 0.35997 0.0
C934 C 0.8558 0.95177 0.33748 0.0
C935 C 0.70194 0.86096 0.35279 0.0
C936 C 0.76813 0.83045 0.31495 0.0
C937 C 0.78055 0.8045 0.32208 0.0
C938 C 0.76619 0.86299 0.32242 0.0
C939 C 0.77701 0.86987 0.33739 0.0
C940 C 0.7884 0.84305 0.34475 0.0
C941 C 0.78994 0.8107 0.33703 0.0
C942 C 0.75383 0.89084 0.31418 0.0
C943 C 0.80004 0.84919 0.36071 0.0
H944 H 0.84784 0.01018 0.3528 0.0
H945 H 0.71802 0.9342 0.3655 0.0
H946 H 0.86545 0.92985 0.34207 0.0
H947 H 0.8489 0.94399 0.32575 0.0
H948 H 0.88273 0.98451 0.33843 0.0
H949 H 0.67702 0.86282 0.35911 0.0
H950 H 0.69054 0.85113 0.34148 0.0
H951 H 0.70687 0.83597 0.35761 0.0
H952 H 0.76119 0.82622 0.30339 0.0
H953 H 0.7988 0.79035 0.34271 0.0
H954 H 0.78103 0.92349 0.31372 0.0
H955 H 0.72785 0.89219 0.31992 0.0
H956 H 0.74356 0.87962 0.30286 0.0
H957 H 0.82876 0.88038 0.36236 0.0
H958 H 0.80617 0.82439 0.36501 0.0
H959 H 0.77437 0.84898 0.36721 0.0
C960 C 0.83812 0.76973 0.03514 0.0
C961 C 0.80744 0.77474 0.02767 0.0
C962 C 0.87082 0.76828 0.0276 0.0
C963 C 0.87303 0.77197 0.01221 0.0
C964 C 0.84149 0.77579 1.00458 0.0
C965 C 0.80912 0.77707 0.01238 0.0
C966 C 0.9038 0.76415 0.03615 0.0
C967 C 0.84255 0.77964 0.98818 0.0
C968 C 0.98076 0.81605 0.99435 0.0
C969 C 0.97959 0.77949 0.98907 0.0
C970 C 0.94634 0.81397 1.00186 0.0
C971 C 0.90962 0.77433 1.00417 0.0
C972 C 0.90802 0.73729 0.99878 0.0
C973 C 0.94298 0.7403 0.99129 0.0
C974 C 0.9493 0.85428 1.00733 0.0
C975 C 0.86949 0.69444 1.00104 0.0
H976 H 0.83739 0.76833 0.04694 0.0
H977 H 0.78517 0.7802 1.00649 0.0
H978 H 0.90711 0.73763 0.03185 0.0
H979 H 0.93487 0.7933 0.0349 0.0
H980 H 0.89609 0.75877 0.04795 0.0
H981 H 0.81452 0.78019 0.98382 0.0
H982 H 0.87132 0.80908 0.98479 0.0
H983 H 0.84411 0.75294 0.98312 0.0
H984 H 1.00859 0.84653 0.99249 0.0
H985 H 0.94194 0.71186 0.98738 0.0
H986 H 0.94496 0.85272 0.01933 0.0
H987 H 0.92374 0.85822 1.00248 0.0
H988 H 0.9801 0.88255 1.00467 0.0
H989 H 0.8634 0.68799 0.01288 0.0
H990 H 0.873 0.66874 0.99604 0.0
H991 H 0.84135 0.69384 0.99628 0.0
C992 C 0.16224 0.97089 0.65454 0.0
C993 C 0.204 0.97902 0.65469 0.0
C994 C 0.13017 0.93651 0.66216 0.0
C995 C 0.13995 0.90942 0.67015 0.0
C996 C 0.18186 0.91692 0.67013 0.0
C997 C 0.21336 0.9516 0.6624 0.0
C998 C 0.08586 0.92951 0.6618 0.0
C999 C 0.19357 0.88879 0.67852 0.0
C1000 C 0.065 0.84771 0.7011 0.0
C1001 C 0.03903 0.80832 0.69458 0.0
C1002 C 0.09849 0.88055 0.69338 0.0
C1003 C 0.10638 0.8739 0.67878 0.0
C1004 C 0.08096 0.83389 0.67225 0.0
C1005 C 0.04757 0.80165 0.68021 0.0
C1006 C 0.12471 0.92278 0.70072 0.0
C1007 C 0.0885 0.8254 0.65676 0.0
H1008 H 0.15457 0.99149 0.64842 0.0
H1009 H 0.24559 0.95786 0.6627 0.0
H1010 H 0.06367 0.89742 0.65764 0.0
H1011 H 0.07561 0.93155 0.673 0.0
H1012 H 0.08328 0.95293 0.65484 0.0
H1013 H 0.22715 0.89785 0.67693 0.0
H1014 H 0.18793 0.89039 0.69032 0.0
H1015 H 0.17335 0.85549 0.67508 0.0
H1016 H 0.05834 0.85332 0.71213 0.0
H1017 H 0.02801 0.77114 0.67516 0.0
H1018 H 0.1207 0.94713 0.69492 0.0
H1019 H 0.15866 0.93252 0.70016 0.0
H1020 H 0.11584 0.92226 0.71233 0.0
H1021 H 0.08342 0.84608 0.6492 0.0
H1022 H 0.06727 0.79204 0.65351 0.0
H1023 H 0.12168 0.83295 0.6554 0.0
C1024 C 0.27121 0.06756 0.35775 0.0
C1025 C 0.23176 0.03304 0.36145 0.0
C1026 C 0.27439 0.10317 0.35071 0.0
C1027 C 0.23726 0.10438 0.34731 0.0
C1028 C 0.19741 0.06981 0.35114 0.0
C1029 C 0.19516 0.03467 0.35816 0.0
C1030 C 0.31744 0.13936 0.34679 0.0
C1031 C 0.15705 0.06989 0.3478 0.0
C1032 C 0.24071 0.20865 0.34073 0.0
C1033 C 0.23765 0.20915 0.32548 0.0
C1034 C 0.24178 0.17536 0.34794 0.0
C1035 C 0.23977 0.14165 0.33974 0.0
C1036 C 0.2379 0.14252 0.32433 0.0
C1037 C 0.23687 0.17622 0.31739 0.0
C1038 C 0.24404 0.17578 0.36438 0.0
C1039 C 0.23567 0.10717 0.31518 0.0
H1040 H 0.29961 0.0664 0.36012 0.0
H1041 H 0.16459 0.00849 0.36119 0.0
H1042 H 0.31976 0.14423 0.33481 0.0
H1043 H 0.32221 0.16894 0.35186 0.0
H1044 H 0.34327 0.13385 0.35038 0.0
H1045 H 0.1286 0.04054 0.35149 0.0
H1046 H 0.15741 0.09721 0.35318 0.0
H1047 H 0.15445 0.07338 0.33589 0.0
H1048 H 0.24204 0.2343 0.34705 0.0
H1049 H 0.23409 0.17609 0.30563 0.0
H1050 H 0.27098 0.17218 0.36799 0.0
H1051 H 0.21491 0.14868 0.36886 0.0
H1052 H 0.2476 0.20532 0.36912 0.0
H1053 H 0.26206 0.10175 0.31799 0.0
H1054 H 0.23699 0.1138 0.30332 0.0
H1055 H 0.20587 0.0775 0.31754 0.0
loop_
_geom_bond_atom_site_label_1
_geom_bond_atom_site_label_2
_geom_bond_distance
_geom_bond_site_symmetry_2
_ccdc_geom_bond_type
C0 C1 1.264 . S
C0 C5 1.479 . S
C0 C10 1.465 . S
C1 C0 1.264 . S
C1 C3 1.339 . S
C1 H28 0.931 . S
C2 C3 1.395 . S
C2 C4 1.320 . S
C3 C1 1.339 . S
C3 C2 1.395 . S
C3 H29 0.929 . S
C4 C2 1.320 . S
C4 C5 1.405 . S
C4 H30 0.930 . S
C5 C0 1.479 . S
C5 C4 1.405 . S
C5 H31 0.931 . S
U6 O7 2.454 . S
U6 O8 2.458 . S
U6 C9 2.984 . S
U6 C10 2.847 . S
U6 C23 2.882 . S
U6 O24 2.441 . S
U6 O25 2.420 . S
U6 O26 2.455 . S
U6 O27 2.449 . S
O7 U6 2.454 . S
O7 C9 1.353 . S
O8 U6 2.458 . S
O8 C9 1.286 . S
C9 U6 2.984 . S
C9 O7 1.353 . S
C9 O8 1.286 . S
C9 C11 1.363 . S
C10 C0 1.465 . S
C10 U6 2.847 . S
C10 O24 1.249 . S
C10 O25 1.202 . S
C11 C9 1.363 . S
C11 C13 1.408 . S
C11 C16 1.342 . S
C12 C13 1.310 . S
C12 C15 1.461 . S
C12 H32 0.932 . S
C13 C11 1.408 . S
C13 C12 1.310 . S
C13 H33 0.930 . S
C14 C15 1.474 . S
C14 C16 1.285 . S
C14 H34 0.929 1_554 S
C15 C12 1.461 . S
C15 C14 1.474 . S
C16 C11 1.342 . S
C16 C14 1.285 . S
C16 H35 0.930 . S
C17 C20 1.424 . S
C17 C22 1.245 . S
C17 C23 1.428 . S
C18 C21 1.260 . S
C18 C22 1.477 . S
C18 H36 0.932 . S
C19 C20 1.384 . S
C19 C21 1.479 . S
C19 H37 0.929 . S
C20 C17 1.424 . S
C20 C19 1.384 . S
C20 H38 0.928 . S
C21 C18 1.260 . S
C21 C19 1.479 . S
C22 C17 1.245 . S
C22 C18 1.477 . S
C22 H39 0.932 . S
C23 U6 2.882 . S
C23 C17 1.428 . S
C23 O26 1.301 . S
C23 O27 1.282 . S
O24 U6 2.441 . S
O24 C10 1.249 . S
O25 U6 2.420 . S
O25 C10 1.202 . S
O26 U6 2.455 . S
O26 C23 1.301 . S
O27 U6 2.449 . S
O27 C23 1.282 . S
H28 C1 0.931 . S
H29 C3 0.929 . S
H30 C4 0.930 . S
H31 C5 0.931 . S
H32 C12 0.932 . S
H33 C13 0.930 . S
H34 C14 0.929 1_556 S
H35 C16 0.930 . S
H36 C18 0.932 . S
H37 C19 0.929 . S
H38 C20 0.928 . S
H39 C22 0.932 . S
C40 C41 1.264 . S
C40 C45 1.479 . S
C40 C50 1.465 . S
C41 C40 1.264 . S
C41 C43 1.339 . S
C41 H68 0.931 . S
C42 C43 1.395 . S
C42 C44 1.320 . S
C43 C41 1.339 . S
C43 C42 1.395 . S
C43 H69 0.929 . S
C44 C42 1.320 . S
C44 C45 1.405 . S
C44 H70 0.930 . S
C45 C40 1.479 . S
C45 C44 1.405 . S
C45 H71 0.931 . S
U46 O47 2.454 . S
U46 O48 2.458 . S
U46 C49 2.984 . S
U46 C50 2.847 . S
U46 C63 2.882 . S
U46 O64 2.441 . S
U46 O65 2.420 . S
U46 O66 2.455 . S
U46 O67 2.449 . S
O47 U46 2.454 . S
O47 C49 1.353 . S
O48 U46 2.458 . S
O48 C49 1.286 . S
C49 U46 2.984 . S
C49 O47 1.353 . S
C49 O48 1.286 . S
C49 C51 1.363 . S
C50 C40 1.465 . S
C50 U46 2.847 . S
C50 O64 1.249 . S
C50 O65 1.202 . S
C51 C49 1.363 . S
C51 C53 1.408 . S
C51 C56 1.342 . S
C52 C53 1.310 1_655 S
C52 C55 1.461 . S
C52 H72 0.932 . S
C53 C51 1.408 . S
C53 C52 1.310 1_455 S
C53 H73 0.930 . S
C54 C55 1.474 1_455 S
C54 C56 1.285 . S
C54 H74 0.929 . S
C55 C52 1.461 . S
C55 C54 1.474 1_655 S
C56 C51 1.342 . S
C56 C54 1.285 . S
C56 H75 0.930 . S
C57 C60 1.424 . S
C57 C62 1.245 . S
C57 C63 1.428 . S
C58 C61 1.260 . S
C58 C62 1.477 . S
C58 H76 0.932 . S
C59 C60 1.384 . S
C59 C61 1.479 . S
C59 H77 0.929 . S
C60 C57 1.424 . S
C60 C59 1.384 . S
C60 H78 0.928 . S
C61 C58 1.260 . S
C61 C59 1.479 . S
C62 C57 1.245 . S
C62 C58 1.477 . S
C62 H79 0.932 . S
C63 U46 2.882 . S
C63 C57 1.428 . S
C63 O66 1.301 . S
C63 O67 1.282 . S
O64 U46 2.441 . S
O64 C50 1.249 . S
O65 U46 2.420 . S
O65 C50 1.202 . S
O66 U46 2.455 . S
O66 C63 1.301 . S
O67 U46 2.449 . S
O67 C63 1.282 . S
H68 C41 0.931 . S
H69 C43 0.929 . S
H70 C44 0.930 . S
H71 C45 0.931 . S
H72 C52 0.932 . S
H73 C53 0.930 . S
H74 C54 0.929 . S
H75 C56 0.930 . S
H76 C58 0.932 . S
H77 C59 0.929 . S
H78 C60 0.928 . S
H79 C62 0.932 . S
C80 C81 1.264 . S
C80 C85 1.479 . S
C80 C90 1.465 . S
C81 C80 1.264 . S
C81 C83 1.339 . S
C81 H108 0.931 . S
C82 C83 1.395 . S
C82 C84 1.320 . S
C83 C81 1.339 . S
C83 C82 1.395 . S
C83 H109 0.929 . S
C84 C82 1.320 . S
C84 C85 1.405 . S
C84 H110 0.930 . S
C85 C80 1.479 . S
C85 C84 1.405 . S
C85 H111 0.931 . S
U86 O87 2.454 . S
U86 O88 2.458 . S
U86 C89 2.984 . S
U86 C90 2.847 . S
U86 C103 2.882 . S
U86 O104 2.441 . S
U86 O105 2.420 . S
U86 O106 2.455 . S
U86 O107 2.449 . S
O87 U86 2.454 . S
O87 C89 1.353 . S
O88 U86 2.458 . S
O88 C89 1.286 . S
C89 U86 2.984 . S
C89 O87 1.353 . S
C89 O88 1.286 . S
C89 C91 1.363 . S
C90 C80 1.465 . S
C90 U86 2.847 . S
C90 O104 1.249 . S
C90 O105 1.202 . S
C91 C89 1.363 . S
C91 C93 1.408 . S
C91 C96 1.342 . S
C92 C93 1.310 1_565 S
C92 C95 1.461 . S
C92 H112 0.932 . S
C93 C91 1.408 . S
C93 C92 1.310 1_545 S
C93 H113 0.930 . S
C94 C95 1.474 1_545 S
C94 C96 1.285 . S
C94 H114 0.929 . S
C95 C92 1.461 . S
C95 C94 1.474 1_565 S
C96 C91 1.342 . S
C96 C94 1.285 . S
C96 H115 0.930 . S
C97 C100 1.424 . S
C97 C102 1.245 . S
C97 C103 1.428 . S
C98 C101 1.260 . S
C98 C102 1.477 . S
C98 H116 0.932 . S
C99 C100 1.384 . S
C99 C101 1.479 . S
C99 H117 0.929 . S
C100 C97 1.424 . S
C100 C99 1.384 . S
C100 H118 0.928 . S
C101 C98 1.260 . S
C101 C99 1.479 . S
C102 C97 1.245 . S
C102 C98 1.477 . S
C102 H119 0.932 . S
C103 U86 2.882 . S
C103 C97 1.428 . S
C103 O106 1.301 . S
C103 O107 1.282 . S
O104 U86 2.441 . S
O104 C90 1.249 . S
O105 U86 2.420 . S
O105 C90 1.202 . S
O106 U86 2.455 . S
O106 C103 1.301 . S
O107 U86 2.449 . S
O107 C103 1.282 . S
H108 C81 0.931 . S
H109 C83 0.929 . S
H110 C84 0.930 . S
H111 C85 0.931 . S
H112 C92 0.932 . S
H113 C93 0.930 . S
H114 C94 0.929 . S
H115 C96 0.930 . S
H116 C98 0.932 . S
H117 C99 0.929 . S
H118 C100 0.928 . S
H119 C102 0.932 . S
C120 C121 1.264 . S
C120 C125 1.479 . S
C120 C130 1.465 . S
C121 C120 1.264 . S
C121 C123 1.339 . S
C121 H148 0.931 . S
C122 C123 1.395 . S
C122 C124 1.320 . S
C123 C121 1.339 . S
C123 C122 1.395 . S
C123 H149 0.929 . S
C124 C122 1.320 . S
C124 C125 1.405 . S
C124 H150 0.930 . S
C125 C120 1.479 . S
C125 C124 1.405 . S
C125 H151 0.931 . S
U126 O127 2.454 . S
U126 O128 2.458 . S
U126 C129 2.984 . S
U126 C130 2.847 . S
U126 C143 2.882 . S
U126 O144 2.441 . S
U126 O145 2.420 . S
U126 O146 2.455 . S
U126 O147 2.449 . S
O127 U126 2.454 . S
O127 C129 1.353 . S
O128 U126 2.458 . S
O128 C129 1.286 . S
C129 U126 2.984 . S
C129 O127 1.353 . S
C129 O128 1.286 . S
C129 C131 1.363 . S
C130 C120 1.465 . S
C130 U126 2.847 . S
C130 O144 1.249 . S
C130 O145 1.202 . S
C131 C129 1.363 . S
C131 C133 1.408 . S
C131 C136 1.342 . S
C132 C133 1.310 . S
C132 C135 1.461 . S
C132 H152 0.932 . S
C133 C131 1.408 . S
C133 C132 1.310 . S
C133 H153 0.930 . S
C134 C135 1.474 . S
C134 C136 1.285 . S
C134 H154 0.929 1_554 S
C135 C132 1.461 . S
C135 C134 1.474 . S
C136 C131 1.342 . S
C136 C134 1.285 . S
C136 H155 0.930 . S
C137 C140 1.424 . S
C137 C142 1.245 . S
C137 C143 1.428 . S
C138 C141 1.260 . S
C138 C142 1.477 . S
C138 H156 0.932 . S
C139 C140 1.384 . S
C139 C141 1.479 . S
C139 H157 0.929 . S
C140 C137 1.424 . S
C140 C139 1.384 . S
C140 H158 0.928 . S
C141 C138 1.260 . S
C141 C139 1.479 . S
C142 C137 1.245 . S
C142 C138 1.477 . S
C142 H159 0.932 . S
C143 U126 2.882 . S
C143 C137 1.428 . S
C143 O146 1.301 . S
C143 O147 1.282 . S
O144 U126 2.441 . S
O144 C130 1.249 . S
O145 U126 2.420 . S
O145 C130 1.202 . S
O146 U126 2.455 . S
O146 C143 1.301 . S
O147 U126 2.449 . S
O147 C143 1.282 . S
H148 C121 0.931 . S
H149 C123 0.929 . S
H150 C124 0.930 . S
H151 C125 0.931 . S
H152 C132 0.932 . S
H153 C133 0.930 . S
H154 C134 0.929 1_556 S
H155 C136 0.930 . S
H156 C138 0.932 . S
H157 C139 0.929 . S
H158 C140 0.928 . S
H159 C142 0.932 . S
C160 C161 1.264 . S
C160 C165 1.479 . S
C160 C170 1.465 . S
C161 C160 1.264 . S
C161 C163 1.339 . S
C161 H188 0.931 . S
C162 C163 1.395 . S
C162 C164 1.320 . S
C163 C161 1.339 . S
C163 C162 1.395 . S
C163 H189 0.929 . S
C164 C162 1.320 . S
C164 C165 1.405 . S
C164 H190 0.930 . S
C165 C160 1.479 . S
C165 C164 1.405 . S
C165 H191 0.931 . S
U166 O167 2.454 . S
U166 O168 2.458 . S
U166 C169 2.984 . S
U166 C170 2.847 . S
U166 C183 2.882 . S
U166 O184 2.441 . S
U166 O185 2.420 . S
U166 O186 2.455 . S
U166 O187 2.449 . S
O167 U166 2.454 . S
O167 C169 1.353 . S
O168 U166 2.458 . S
O168 C169 1.286 . S
C169 U166 2.984 . S
C169 O167 1.353 . S
C169 O168 1.286 . S
C169 C171 1.363 . S
C170 C160 1.465 . S
C170 U166 2.847 . S
C170 O184 1.249 . S
C170 O185 1.202 . S
C171 C169 1.363 . S
C171 C173 1.408 . S
C171 C176 1.342 . S
C172 C173 1.310 1_455 S
C172 C175 1.461 . S
C172 H192 0.932 . S
C173 C171 1.408 . S
C173 C172 1.310 1_655 S
C173 H193 0.930 . S
C174 C175 1.474 1_655 S
C174 C176 1.285 . S
C174 H194 0.929 . S
C175 C172 1.461 . S
C175 C174 1.474 1_455 S
C176 C171 1.342 . S
C176 C174 1.285 . S
C176 H195 0.930 . S
C177 C180 1.424 . S
C177 C182 1.245 . S
C177 C183 1.428 . S
C178 C181 1.260 . S
C178 C182 1.477 . S
C178 H196 0.932 . S
C179 C180 1.384 . S
C179 C181 1.479 . S
C179 H197 0.929 . S
C180 C177 1.424 . S
C180 C179 1.384 . S
C180 H198 0.928 . S
C181 C178 1.260 . S
C181 C179 1.479 . S
C182 C177 1.245 . S
C182 C178 1.477 . S
C182 H199 0.932 . S
C183 U166 2.882 . S
C183 C177 1.428 . S
C183 O186 1.301 . S
C183 O187 1.282 . S
O184 U166 2.441 . S
O184 C170 1.249 . S
O185 U166 2.420 . S
O185 C170 1.202 . S
O186 U166 2.455 . S
O186 C183 1.301 . S
O187 U166 2.449 . S
O187 C183 1.282 . S
H188 C161 0.931 . S
H189 C163 0.929 . S
H190 C164 0.930 . S
H191 C165 0.931 . S
H192 C172 0.932 . S
H193 C173 0.930 . S
H194 C174 0.929 . S
H195 C176 0.930 . S
H196 C178 0.932 . S
H197 C179 0.929 . S
H198 C180 0.928 . S
H199 C182 0.932 . S
C200 C201 1.264 . S
C200 C205 1.479 . S
C200 C210 1.465 . S
C201 C200 1.264 . S
C201 C203 1.339 . S
C201 H228 0.931 . S
C202 C203 1.395 . S
C202 C204 1.320 . S
C203 C201 1.339 . S
C203 C202 1.395 . S
C203 H229 0.929 . S
C204 C202 1.320 . S
C204 C205 1.405 . S
C204 H230 0.930 . S
C205 C200 1.479 . S
C205 C204 1.405 . S
C205 H231 0.931 . S
U206 O207 2.454 . S
U206 O208 2.458 . S
U206 C209 2.984 . S
U206 C210 2.847 . S
U206 C223 2.882 . S
U206 O224 2.441 . S
U206 O225 2.420 . S
U206 O226 2.455 . S
U206 O227 2.449 . S
O207 U206 2.454 . S
O207 C209 1.353 . S
O208 U206 2.458 . S
O208 C209 1.286 . S
C209 U206 2.984 . S
C209 O207 1.353 . S
C209 O208 1.286 . S
C209 C211 1.363 . S
C210 C200 1.465 . S
C210 U206 2.847 . S
C210 O224 1.249 . S
C210 O225 1.202 . S
C211 C209 1.363 . S
C211 C213 1.408 . S
C211 C216 1.342 . S
C212 C213 1.310 1_545 S
C212 C215 1.461 . S
C212 H232 0.932 . S
C213 C211 1.408 . S
C213 C212 1.310 1_565 S
C213 H233 0.930 . S
C214 C215 1.474 1_565 S
C214 C216 1.285 . S
C214 H234 0.929 . S
C215 C212 1.461 . S
C215 C214 1.474 1_545 S
C216 C211 1.342 . S
C216 C214 1.285 . S
C216 H235 0.930 . S
C217 C220 1.424 . S
C217 C222 1.245 . S
C217 C223 1.428 . S
C218 C221 1.260 . S
C218 C222 1.477 . S
C218 H236 0.932 . S
C219 C220 1.384 . S
C219 C221 1.479 . S
C219 H237 0.929 . S
C220 C217 1.424 . S
C220 C219 1.384 . S
C220 H238 0.928 . S
C221 C218 1.260 . S
C221 C219 1.479 . S
C222 C217 1.245 . S
C222 C218 1.477 . S
C222 H239 0.932 . S
C223 U206 2.882 . S
C223 C217 1.428 . S
C223 O226 1.301 . S
C223 O227 1.282 . S
O224 U206 2.441 . S
O224 C210 1.249 . S
O225 U206 2.420 . S
O225 C210 1.202 . S
O226 U206 2.455 . S
O226 C223 1.301 . S
O227 U206 2.449 . S
O227 C223 1.282 . S
H228 C201 0.931 . S
H229 C203 0.929 . S
H230 C204 0.930 . S
H231 C205 0.931 . S
H232 C212 0.932 . S
H233 C213 0.930 . S
H234 C214 0.929 . S
H235 C216 0.930 . S
H236 C218 0.932 . S
H237 C219 0.929 . S
H238 C220 0.928 . S
H239 C222 0.932 . S
C240 C241 1.264 . S
C240 C245 1.479 . S
C240 C250 1.465 . S
C241 C240 1.264 . S
C241 C243 1.339 . S
C241 H268 0.931 . S
C242 C243 1.395 . S
C242 C244 1.320 . S
C243 C241 1.339 . S
C243 C242 1.395 . S
C243 H269 0.929 . S
C244 C242 1.320 . S
C244 C245 1.405 . S
C244 H270 0.930 . S
C245 C240 1.479 . S
C245 C244 1.405 . S
C245 H271 0.931 . S
U246 O247 2.454 . S
U246 O248 2.458 . S
U246 C249 2.984 . S
U246 C250 2.847 . S
U246 C263 2.882 . S
U246 O264 2.441 . S
U246 O265 2.420 . S
U246 O266 2.455 . S
U246 O267 2.449 . S
O247 U246 2.454 . S
O247 C249 1.353 . S
O248 U246 2.458 . S
O248 C249 1.286 . S
C249 U246 2.984 . S
C249 O247 1.353 . S
C249 O248 1.286 . S
C249 C251 1.363 . S
C250 C240 1.465 . S
C250 U246 2.847 . S
C250 O264 1.249 . S
C250 O265 1.202 . S
C251 C249 1.363 . S
C251 C253 1.408 . S
C251 C256 1.342 . S
C252 C253 1.310 . S
C252 C255 1.461 . S
C252 H272 0.932 . S
C253 C251 1.408 . S
C253 C252 1.310 . S
C253 H273 0.930 . S
C254 C255 1.474 . S
C254 C256 1.285 . S
C254 H274 0.929 . S
C255 C252 1.461 . S
C255 C254 1.474 . S
C256 C251 1.342 . S
C256 C254 1.285 . S
C256 H275 0.930 . S
C257 C260 1.424 . S
C257 C262 1.245 . S
C257 C263 1.428 . S
C258 C261 1.260 . S
C258 C262 1.477 . S
C258 H276 0.932 . S
C259 C260 1.384 . S
C259 C261 1.479 . S
C259 H277 0.929 . S
C260 C257 1.424 . S
C260 C259 1.384 . S
C260 H278 0.928 . S
C261 C258 1.260 . S
C261 C259 1.479 . S
C262 C257 1.245 . S
C262 C258 1.477 . S
C262 H279 0.932 . S
C263 U246 2.882 . S
C263 C257 1.428 . S
C263 O266 1.301 . S
C263 O267 1.282 . S
O264 U246 2.441 . S
O264 C250 1.249 . S
O265 U246 2.420 . S
O265 C250 1.202 . S
O266 U246 2.455 . S
O266 C263 1.301 . S
O267 U246 2.449 . S
O267 C263 1.282 . S
H268 C241 0.931 . S
H269 C243 0.929 . S
H270 C244 0.930 . S
H271 C245 0.931 . S
H272 C252 0.932 . S
H273 C253 0.930 . S
H274 C254 0.929 . S
H275 C256 0.930 . S
H276 C258 0.932 . S
H277 C259 0.929 . S
H278 C260 0.928 . S
H279 C262 0.932 . S
C280 C281 1.264 . S
C280 C285 1.479 . S
C280 C290 1.465 . S
C281 C280 1.264 . S
C281 C283 1.339 . S
C281 H308 0.931 . S
C282 C283 1.395 . S
C282 C284 1.320 . S
C283 C281 1.339 . S
C283 C282 1.395 . S
C283 H309 0.929 . S
C284 C282 1.320 . S
C284 C285 1.405 . S
C284 H310 0.930 . S
C285 C280 1.479 . S
C285 C284 1.405 . S
C285 H311 0.931 . S
U286 O287 2.454 . S
U286 O288 2.458 . S
U286 C289 2.984 . S
U286 C290 2.847 . S
U286 C303 2.882 . S
U286 O304 2.441 . S
U286 O305 2.420 . S
U286 O306 2.455 . S
U286 O307 2.449 . S
O287 U286 2.454 . S
O287 C289 1.353 . S
O288 U286 2.458 . S
O288 C289 1.286 . S
C289 U286 2.984 . S
C289 O287 1.353 . S
C289 O288 1.286 . S
C289 C291 1.363 . S
C290 C280 1.465 . S
C290 U286 2.847 . S
C290 O304 1.249 . S
C290 O305 1.202 . S
C291 C289 1.363 . S
C291 C293 1.408 . S
C291 C296 1.342 . S
C292 C293 1.310 1_655 S
C292 C295 1.461 . S
C292 H312 0.932 . S
C293 C291 1.408 . S
C293 C292 1.310 1_455 S
C293 H313 0.930 . S
C294 C295 1.474 1_455 S
C294 C296 1.285 . S
C294 H314 0.929 1_556 S
C295 C292 1.461 . S
C295 C294 1.474 1_655 S
C296 C291 1.342 . S
C296 C294 1.285 . S
C296 H315 0.930 . S
C297 C300 1.424 . S
C297 C302 1.245 . S
C297 C303 1.428 . S
C298 C301 1.260 . S
C298 C302 1.477 . S
C298 H316 0.932 . S
C299 C300 1.384 . S
C299 C301 1.479 . S
C299 H317 0.929 . S
C300 C297 1.424 . S
C300 C299 1.384 . S
C300 H318 0.928 . S
C301 C298 1.260 . S
C301 C299 1.479 . S
C302 C297 1.245 . S
C302 C298 1.477 . S
C302 H319 0.932 . S
C303 U286 2.882 . S
C303 C297 1.428 . S
C303 O306 1.301 . S
C303 O307 1.282 . S
O304 U286 2.441 . S
O304 C290 1.249 . S
O305 U286 2.420 . S
O305 C290 1.202 . S
O306 U286 2.455 . S
O306 C303 1.301 . S
O307 U286 2.449 . S
O307 C303 1.282 . S
H308 C281 0.931 . S
H309 C283 0.929 . S
H310 C284 0.930 . S
H311 C285 0.931 . S
H312 C292 0.932 . S
H313 C293 0.930 . S
H314 C294 0.929 1_554 S
H315 C296 0.930 . S
H316 C298 0.932 . S
H317 C299 0.929 . S
H318 C300 0.928 . S
H319 C302 0.932 . S
C320 C321 1.264 . S
C320 C325 1.479 . S
C320 C330 1.465 . S
C321 C320 1.264 . S
C321 C323 1.339 . S
C321 H348 0.931 . S
C322 C323 1.395 . S
C322 C324 1.320 . S
C323 C321 1.339 . S
C323 C322 1.395 . S
C323 H349 0.929 . S
C324 C322 1.320 . S
C324 C325 1.405 . S
C324 H350 0.930 . S
C325 C320 1.479 . S
C325 C324 1.405 . S
C325 H351 0.931 . S
U326 O327 2.454 . S
U326 O328 2.458 . S
U326 C329 2.984 . S
U326 C330 2.847 . S
U326 C343 2.882 . S
U326 O344 2.441 . S
U326 O345 2.420 . S
U326 O346 2.455 . S
U326 O347 2.449 . S
O327 U326 2.454 . S
O327 C329 1.353 . S
O328 U326 2.458 . S
O328 C329 1.286 . S
C329 U326 2.984 . S
C329 O327 1.353 . S
C329 O328 1.286 . S
C329 C331 1.363 . S
C330 C320 1.465 . S
C330 U326 2.847 . S
C330 O344 1.249 . S
C330 O345 1.202 . S
C331 C329 1.363 . S
C331 C333 1.408 . S
C331 C336 1.342 . S
C332 C333 1.310 1_565 S
C332 C335 1.461 . S
C332 H352 0.932 . S
C333 C331 1.408 . S
C333 C332 1.310 1_545 S
C333 H353 0.930 . S
C334 C335 1.474 1_545 S
C334 C336 1.285 . S
C334 H354 0.929 . S
C335 C332 1.461 . S
C335 C334 1.474 1_565 S
C336 C331 1.342 . S
C336 C334 1.285 . S
C336 H355 0.930 . S
C337 C340 1.424 . S
C337 C342 1.245 . S
C337 C343 1.428 . S
C338 C341 1.260 . S
C338 C342 1.477 . S
C338 H356 0.932 . S
C339 C340 1.384 . S
C339 C341 1.479 . S
C339 H357 0.929 . S
C340 C337 1.424 . S
C340 C339 1.384 . S
C340 H358 0.928 . S
C341 C338 1.260 . S
C341 C339 1.479 . S
C342 C337 1.245 . S
C342 C338 1.477 . S
C342 H359 0.932 . S
C343 U326 2.882 . S
C343 C337 1.428 . S
C343 O346 1.301 . S
C343 O347 1.282 . S
O344 U326 2.441 . S
O344 C330 1.249 . S
O345 U326 2.420 . S
O345 C330 1.202 . S
O346 U326 2.455 . S
O346 C343 1.301 . S
O347 U326 2.449 . S
O347 C343 1.282 . S
H348 C321 0.931 . S
H349 C323 0.929 . S
H350 C324 0.930 . S
H351 C325 0.931 . S
H352 C332 0.932 . S
H353 C333 0.930 . S
H354 C334 0.929 . S
H355 C336 0.930 . S
H356 C338 0.932 . S
H357 C339 0.929 . S
H358 C340 0.928 . S
H359 C342 0.932 . S
C360 C361 1.264 . S
C360 C365 1.479 . S
C360 C370 1.465 . S
C361 C360 1.264 . S
C361 C363 1.339 . S
C361 H388 0.931 . S
C362 C363 1.395 . S
C362 C364 1.320 . S
C363 C361 1.339 . S
C363 C362 1.395 . S
C363 H389 0.929 . S
C364 C362 1.320 . S
C364 C365 1.405 . S
C364 H390 0.930 . S
C365 C360 1.479 . S
C365 C364 1.405 . S
C365 H391 0.931 . S
U366 O367 2.454 . S
U366 O368 2.458 . S
U366 C369 2.984 . S
U366 C370 2.847 . S
U366 C383 2.882 . S
U366 O384 2.441 . S
U366 O385 2.420 . S
U366 O386 2.455 . S
U366 O387 2.449 . S
O367 U366 2.454 . S
O367 C369 1.353 . S
O368 U366 2.458 . S
O368 C369 1.286 . S
C369 U366 2.984 . S
C369 O367 1.353 . S
C369 O368 1.286 . S
C369 C371 1.363 . S
C370 C360 1.465 . S
C370 U366 2.847 . S
C370 O384 1.249 . S
C370 O385 1.202 . S
C371 C369 1.363 . S
C371 C373 1.408 . S
C371 C376 1.342 . S
C372 C373 1.310 . S
C372 C375 1.461 . S
C372 H392 0.932 . S
C373 C371 1.408 . S
C373 C372 1.310 . S
C373 H393 0.930 . S
C374 C375 1.474 . S
C374 C376 1.285 . S
C374 H394 0.929 . S
C375 C372 1.461 . S
C375 C374 1.474 . S
C376 C371 1.342 . S
C376 C374 1.285 . S
C376 H395 0.930 . S
C377 C380 1.424 . S
C377 C382 1.245 . S
C377 C383 1.428 . S
C378 C381 1.260 . S
C378 C382 1.477 . S
C378 H396 0.932 . S
C379 C380 1.384 . S
C379 C381 1.479 . S
C379 H397 0.929 . S
C380 C377 1.424 . S
C380 C379 1.384 . S
C380 H398 0.928 . S
C381 C378 1.260 . S
C381 C379 1.479 . S
C382 C377 1.245 . S
C382 C378 1.477 . S
C382 H399 0.932 . S
C383 U366 2.882 . S
C383 C377 1.428 . S
C383 O386 1.301 . S
C383 O387 1.282 . S
O384 U366 2.441 . S
O384 C370 1.249 . S
O385 U366 2.420 . S
O385 C370 1.202 . S
O386 U366 2.455 . S
O386 C383 1.301 . S
O387 U366 2.449 . S
O387 C383 1.282 . S
H388 C361 0.931 . S
H389 C363 0.929 . S
H390 C364 0.930 . S
H391 C365 0.931 . S
H392 C372 0.932 . S
H393 C373 0.930 . S
H394 C374 0.929 . S
H395 C376 0.930 . S
H396 C378 0.932 . S
H397 C379 0.929 . S
H398 C380 0.928 . S
H399 C382 0.932 . S
C400 C401 1.264 . S
C400 C405 1.479 . S
C400 C410 1.465 . S
C401 C400 1.264 . S
C401 C403 1.339 . S
C401 H428 0.931 . S
C402 C403 1.395 . S
C402 C404 1.320 . S
C403 C401 1.339 . S
C403 C402 1.395 . S
C403 H429 0.929 . S
C404 C402 1.320 . S
C404 C405 1.405 . S
C404 H430 0.930 . S
C405 C400 1.479 . S
C405 C404 1.405 . S
C405 H431 0.931 . S
U406 O407 2.454 . S
U406 O408 2.458 . S
U406 C409 2.984 . S
U406 C410 2.847 . S
U406 C423 2.882 . S
U406 O424 2.441 . S
U406 O425 2.420 . S
U406 O426 2.455 . S
U406 O427 2.449 . S
O407 U406 2.454 . S
O407 C409 1.353 . S
O408 U406 2.458 . S
O408 C409 1.286 . S
C409 U406 2.984 . S
C409 O407 1.353 . S
C409 O408 1.286 . S
C409 C411 1.363 . S
C410 C400 1.465 . S
C410 U406 2.847 . S
C410 O424 1.249 . S
C410 O425 1.202 . S
C411 C409 1.363 . S
C411 C413 1.408 . S
C411 C416 1.342 . S
C412 C413 1.310 1_455 S
C412 C415 1.461 . S
C412 H432 0.932 . S
C413 C411 1.408 . S
C413 C412 1.310 1_655 S
C413 H433 0.930 . S
C414 C415 1.474 1_655 S
C414 C416 1.285 . S
C414 H434 0.929 1_556 S
C415 C412 1.461 . S
C415 C414 1.474 1_455 S
C416 C411 1.342 . S
C416 C414 1.285 . S
C416 H435 0.930 . S
C417 C420 1.424 . S
C417 C422 1.245 . S
C417 C423 1.428 . S
C418 C421 1.260 . S
C418 C422 1.477 . S
C418 H436 0.932 . S
C419 C420 1.384 . S
C419 C421 1.479 . S
C419 H437 0.929 . S
C420 C417 1.424 . S
C420 C419 1.384 . S
C420 H438 0.928 . S
C421 C418 1.260 . S
C421 C419 1.479 . S
C422 C417 1.245 . S
C422 C418 1.477 . S
C422 H439 0.932 . S
C423 U406 2.882 . S
C423 C417 1.428 . S
C423 O426 1.301 . S
C423 O427 1.282 . S
O424 U406 2.441 . S
O424 C410 1.249 . S
O425 U406 2.420 . S
O425 C410 1.202 . S
O426 U406 2.455 . S
O426 C423 1.301 . S
O427 U406 2.449 . S
O427 C423 1.282 . S
H428 C401 0.931 . S
H429 C403 0.929 . S
H430 C404 0.930 . S
H431 C405 0.931 . S
H432 C412 0.932 . S
H433 C413 0.930 . S
H434 C414 0.929 1_554 S
H435 C416 0.930 . S
H436 C418 0.932 . S
H437 C419 0.929 . S
H438 C420 0.928 . S
H439 C422 0.932 . S
C440 C441 1.264 . S
C440 C445 1.479 . S
C440 C450 1.465 . S
C441 C440 1.264 . S
C441 C443 1.339 . S
C441 H468 0.931 . S
C442 C443 1.395 . S
C442 C444 1.320 . S
C443 C441 1.339 . S
C443 C442 1.395 . S
C443 H469 0.929 . S
C444 C442 1.320 . S
C444 C445 1.405 . S
C444 H470 0.930 . S
C445 C440 1.479 . S
C445 C444 1.405 . S
C445 H471 0.931 . S
U446 O447 2.454 . S
U446 O448 2.458 . S
U446 C449 2.984 . S
U446 C450 2.847 . S
U446 C463 2.882 . S
U446 O464 2.441 . S
U446 O465 2.420 . S
U446 O466 2.455 . S
U446 O467 2.449 . S
O447 U446 2.454 . S
O447 C449 1.353 . S
O448 U446 2.458 . S
O448 C449 1.286 . S
C449 U446 2.984 . S
C449 O447 1.353 . S
C449 O448 1.286 . S
C449 C451 1.363 . S
C450 C440 1.465 . S
C450 U446 2.847 . S
C450 O464 1.249 . S
C450 O465 1.202 . S
C451 C449 1.363 . S
C451 C453 1.408 . S
C451 C456 1.342 . S
C452 C453 1.310 1_545 S
C452 C455 1.461 . S
C452 H472 0.932 . S
C453 C451 1.408 . S
C453 C452 1.310 1_565 S
C453 H473 0.930 . S
C454 C455 1.474 1_565 S
C454 C456 1.285 . S
C454 H474 0.929 . S
C455 C452 1.461 . S
C455 C454 1.474 1_545 S
C456 C451 1.342 . S
C456 C454 1.285 . S
C456 H475 0.930 . S
C457 C460 1.424 . S
C457 C462 1.245 . S
C457 C463 1.428 . S
C458 C461 1.260 . S
C458 C462 1.477 . S
C458 H476 0.932 . S
C459 C460 1.384 . S
C459 C461 1.479 . S
C459 H477 0.929 . S
C460 C457 1.424 . S
C460 C459 1.384 . S
C460 H478 0.928 . S
C461 C458 1.260 . S
C461 C459 1.479 . S
C462 C457 1.245 . S
C462 C458 1.477 . S
C462 H479 0.932 . S
C463 U446 2.882 . S
C463 C457 1.428 . S
C463 O466 1.301 . S
C463 O467 1.282 . S
O464 U446 2.441 . S
O464 C450 1.249 . S
O465 U446 2.420 . S
O465 C450 1.202 . S
O466 U446 2.455 . S
O466 C463 1.301 . S
O467 U446 2.449 . S
O467 C463 1.282 . S
H468 C441 0.931 . S
H469 C443 0.929 . S
H470 C444 0.930 . S
H471 C445 0.931 . S
H472 C452 0.932 . S
H473 C453 0.930 . S
H474 C454 0.929 . S
H475 C456 0.930 . S
H476 C458 0.932 . S
H477 C459 0.929 . S
H478 C460 0.928 . S
H479 C462 0.932 . S
C480 C481 1.391 . S
C480 C482 1.394 . S
C480 H496 0.931 . S
C481 C480 1.391 . S
C481 C485 1.376 . S
C482 C480 1.394 . S
C482 C483 1.369 . S
C482 C486 1.531 . S
C483 C482 1.369 . S
C483 C484 1.410 . S
C483 C491 1.503 . S
C484 C483 1.410 . S
C484 C485 1.392 . S
C484 C487 1.511 . S
C485 C481 1.376 . S
C485 C484 1.392 . S
C485 H497 0.929 . S
C486 C482 1.531 . S
C486 H498 0.960 . S
C486 H499 0.962 . S
C486 H500 0.960 . S
C487 C484 1.511 . S
C487 H501 0.961 . S
C487 H502 0.961 . S
C487 H503 0.961 . S
C488 C489 1.370 . S
C488 C490 1.363 . S
C488 H504 0.931 . S
C489 C488 1.370 . S
C489 C493 1.408 . S
C490 C488 1.363 . S
C490 C491 1.370 . S
C490 C494 1.524 . S
C491 C483 1.503 . S
C491 C490 1.370 . S
C491 C492 1.403 . S
C492 C491 1.403 . S
C492 C493 1.404 . S
C492 C495 1.539 . S
C493 C489 1.408 . S
C493 C492 1.404 . S
C493 H505 0.930 . S
C494 C490 1.524 . S
C494 H506 0.956 . S
C494 H507 0.961 . S
C494 H508 0.961 . S
C495 C492 1.539 . S
C495 H509 0.958 . S
C495 H510 0.961 . S
C495 H511 0.960 . S
H496 C480 0.931 . S
H497 C485 0.929 . S
H498 C486 0.960 . S
H499 C486 0.962 . S
H500 C486 0.960 . S
H501 C487 0.961 . S
H502 C487 0.961 . S
H503 C487 0.961 . S
H504 C488 0.931 . S
H505 C493 0.930 . S
H506 C494 0.956 . S
H507 C494 0.961 . S
H508 C494 0.961 . S
H509 C495 0.958 . S
H510 C495 0.961 . S
H511 C495 0.960 . S
C512 C513 1.391 . S
C512 C514 1.394 . S
C512 H528 0.931 . S
C513 C512 1.391 . S
C513 C517 1.376 . S
C514 C512 1.394 . S
C514 C515 1.369 . S
C514 C518 1.531 . S
C515 C514 1.369 . S
C515 C516 1.410 . S
C515 C523 1.503 . S
C516 C515 1.410 . S
C516 C517 1.392 . S
C516 C519 1.511 . S
C517 C513 1.376 . S
C517 C516 1.392 . S
C517 H529 0.929 . S
C518 C514 1.531 . S
C518 H530 0.960 . S
C518 H531 0.962 . S
C518 H532 0.960 . S
C519 C516 1.511 . S
C519 H533 0.961 . S
C519 H534 0.961 . S
C519 H535 0.961 . S
C520 C521 1.370 . S
C520 C522 1.363 . S
C520 H536 0.931 . S
C521 C520 1.370 . S
C521 C525 1.408 . S
C522 C520 1.363 . S
C522 C523 1.370 . S
C522 C526 1.524 . S
C523 C515 1.503 . S
C523 C522 1.370 . S
C523 C524 1.403 . S
C524 C523 1.403 . S
C524 C525 1.404 . S
C524 C527 1.539 . S
C525 C521 1.408 . S
C525 C524 1.404 . S
C525 H537 0.930 . S
C526 C522 1.524 . S
C526 H538 0.956 . S
C526 H539 0.961 . S
C526 H540 0.961 . S
C527 C524 1.539 . S
C527 H541 0.958 . S
C527 H542 0.961 . S
C527 H543 0.960 . S
H528 C512 0.931 . S
H529 C517 0.929 . S
H530 C518 0.960 . S
H531 C518 0.962 . S
H532 C518 0.960 . S
H533 C519 0.961 . S
H534 C519 0.961 . S
H535 C519 0.961 . S
H536 C520 0.931 . S
H537 C525 0.930 . S
H538 C526 0.956 . S
H539 C526 0.961 . S
H540 C526 0.961 . S
H541 C527 0.958 . S
H542 C527 0.961 . S
H543 C527 0.960 . S
C544 C545 1.391 . S
C544 C546 1.394 . S
C544 H560 0.931 . S
C545 C544 1.391 . S
C545 C549 1.376 . S
C546 C544 1.394 . S
C546 C547 1.369 . S
C546 C550 1.531 . S
C547 C546 1.369 . S
C547 C548 1.410 . S
C547 C555 1.503 . S
C548 C547 1.410 . S
C548 C549 1.392 . S
C548 C551 1.511 . S
C549 C545 1.376 . S
C549 C548 1.392 . S
C549 H561 0.929 . S
C550 C546 1.531 . S
C550 H562 0.960 . S
C550 H563 0.962 . S
C550 H564 0.960 . S
C551 C548 1.511 . S
C551 H565 0.961 . S
C551 H566 0.961 . S
C551 H567 0.961 . S
C552 C553 1.370 . S
C552 C554 1.363 . S
C552 H568 0.931 . S
C553 C552 1.370 . S
C553 C557 1.408 . S
C554 C552 1.363 . S
C554 C555 1.370 . S
C554 C558 1.524 . S
C555 C547 1.503 . S
C555 C554 1.370 . S
C555 C556 1.403 . S
C556 C555 1.403 . S
C556 C557 1.404 . S
C556 C559 1.539 . S
C557 C553 1.408 . S
C557 C556 1.404 . S
C557 H569 0.930 . S
C558 C554 1.524 . S
C558 H570 0.956 . S
C558 H571 0.961 . S
C558 H572 0.961 . S
C559 C556 1.539 . S
C559 H573 0.958 . S
C559 H574 0.961 . S
C559 H575 0.960 . S
H560 C544 0.931 . S
H561 C549 0.929 . S
H562 C550 0.960 . S
H563 C550 0.962 . S
H564 C550 0.960 . S
H565 C551 0.961 . S
H566 C551 0.961 . S
H567 C551 0.961 . S
H568 C552 0.931 . S
H569 C557 0.930 . S
H570 C558 0.956 . S
H571 C558 0.961 . S
H572 C558 0.961 . S
H573 C559 0.958 . S
H574 C559 0.961 . S
H575 C559 0.960 . S
C576 C577 1.391 . S
C576 C578 1.394 . S
C576 H592 0.931 . S
C577 C576 1.391 . S
C577 C581 1.376 . S
C578 C576 1.394 . S
C578 C579 1.369 . S
C578 C582 1.531 . S
C579 C578 1.369 . S
C579 C580 1.410 . S
C579 C587 1.503 . S
C580 C579 1.410 . S
C580 C581 1.392 . S
C580 C583 1.511 . S
C581 C577 1.376 . S
C581 C580 1.392 . S
C581 H593 0.929 . S
C582 C578 1.531 . S
C582 H594 0.960 . S
C582 H595 0.962 . S
C582 H596 0.960 . S
C583 C580 1.511 . S
C583 H597 0.961 . S
C583 H598 0.961 . S
C583 H599 0.961 . S
C584 C585 1.370 . S
C584 C586 1.363 . S
C584 H600 0.931 . S
C585 C584 1.370 . S
C585 C589 1.408 . S
C586 C584 1.363 . S
C586 C587 1.370 . S
C586 C590 1.524 . S
C587 C579 1.503 . S
C587 C586 1.370 . S
C587 C588 1.403 . S
C588 C587 1.403 . S
C588 C589 1.404 . S
C588 C591 1.539 . S
C589 C585 1.408 . S
C589 C588 1.404 . S
C589 H601 0.930 . S
C590 C586 1.524 . S
C590 H602 0.956 . S
C590 H603 0.961 . S
C590 H604 0.961 . S
C591 C588 1.539 . S
C591 H605 0.958 . S
C591 H606 0.961 . S
C591 H607 0.960 . S
H592 C576 0.931 . S
H593 C581 0.929 . S
H594 C582 0.960 . S
H595 C582 0.962 . S
H596 C582 0.960 . S
H597 C583 0.961 . S
H598 C583 0.961 . S
H599 C583 0.961 . S
H600 C584 0.931 . S
H601 C589 0.930 . S
H602 C590 0.956 . S
H603 C590 0.961 . S
H604 C590 0.961 . S
H605 C591 0.958 . S
H606 C591 0.961 . S
H607 C591 0.960 . S
C608 C609 1.391 . S
C608 C610 1.394 . S
C608 H624 0.931 . S
C609 C608 1.391 . S
C609 C613 1.376 . S
C610 C608 1.394 . S
C610 C611 1.369 . S
C610 C614 1.531 . S
C611 C610 1.369 . S
C611 C612 1.410 . S
C611 C619 1.503 . S
C612 C611 1.410 . S
C612 C613 1.392 . S
C612 C615 1.511 . S
C613 C609 1.376 . S
C613 C612 1.392 . S
C613 H625 0.929 . S
C614 C610 1.531 . S
C614 H626 0.960 . S
C614 H627 0.962 . S
C614 H628 0.960 . S
C615 C612 1.511 . S
C615 H629 0.961 . S
C615 H630 0.961 . S
C615 H631 0.961 . S
C616 C617 1.370 . S
C616 C618 1.363 . S
C616 H632 0.931 . S
C617 C616 1.370 . S
C617 C621 1.408 . S
C618 C616 1.363 . S
C618 C619 1.370 . S
C618 C622 1.524 . S
C619 C611 1.503 . S
C619 C618 1.370 . S
C619 C620 1.403 . S
C620 C619 1.403 . S
C620 C621 1.404 . S
C620 C623 1.539 . S
C621 C617 1.408 . S
C621 C620 1.404 . S
C621 H633 0.930 . S
C622 C618 1.524 . S
C622 H634 0.956 . S
C622 H635 0.961 . S
C622 H636 0.961 . S
C623 C620 1.539 . S
C623 H637 0.958 . S
C623 H638 0.961 . S
C623 H639 0.960 . S
H624 C608 0.931 . S
H625 C613 0.929 . S
H626 C614 0.960 . S
H627 C614 0.962 . S
H628 C614 0.960 . S
H629 C615 0.961 . S
H630 C615 0.961 . S
H631 C615 0.961 . S
H632 C616 0.931 . S
H633 C621 0.930 . S
H634 C622 0.956 . S
H635 C622 0.961 . S
H636 C622 0.961 . S
H637 C623 0.958 . S
H638 C623 0.961 . S
H639 C623 0.960 . S
C640 C641 1.391 . S
C640 C642 1.394 . S
C640 H656 0.931 . S
C641 C640 1.391 . S
C641 C645 1.376 . S
C642 C640 1.394 . S
C642 C643 1.369 . S
C642 C646 1.531 . S
C643 C642 1.369 . S
C643 C644 1.410 . S
C643 C651 1.503 . S
C644 C643 1.410 . S
C644 C645 1.392 . S
C644 C647 1.511 . S
C645 C641 1.376 . S
C645 C644 1.392 . S
C645 H657 0.929 . S
C646 C642 1.531 . S
C646 H658 0.960 . S
C646 H659 0.962 . S
C646 H660 0.960 . S
C647 C644 1.511 . S
C647 H661 0.961 . S
C647 H662 0.961 . S
C647 H663 0.961 . S
C648 C649 1.370 . S
C648 C650 1.363 . S
C648 H664 0.931 . S
C649 C648 1.370 . S
C649 C653 1.408 . S
C650 C648 1.363 . S
C650 C651 1.370 . S
C650 C654 1.524 . S
C651 C643 1.503 . S
C651 C650 1.370 . S
C651 C652 1.403 . S
C652 C651 1.403 . S
C652 C653 1.404 . S
C652 C655 1.539 . S
C653 C649 1.408 . S
C653 C652 1.404 . S
C653 H665 0.930 . S
C654 C650 1.524 . S
C654 H666 0.956 . S
C654 H667 0.961 . S
C654 H668 0.961 . S
C655 C652 1.539 . S
C655 H669 0.958 . S
C655 H670 0.961 . S
C655 H671 0.960 . S
H656 C640 0.931 . S
H657 C645 0.929 . S
H658 C646 0.960 . S
H659 C646 0.962 . S
H660 C646 0.960 . S
H661 C647 0.961 . S
H662 C647 0.961 . S
H663 C647 0.961 . S
H664 C648 0.931 . S
H665 C653 0.930 . S
H666 C654 0.956 . S
H667 C654 0.961 . S
H668 C654 0.961 . S
H669 C655 0.958 . S
H670 C655 0.961 . S
H671 C655 0.960 . S
C672 C673 1.391 . S
C672 C674 1.394 . S
C672 H688 0.931 . S
C673 C672 1.391 . S
C673 C677 1.376 . S
C674 C672 1.394 . S
C674 C675 1.369 . S
C674 C678 1.531 . S
C675 C674 1.369 . S
C675 C676 1.410 . S
C675 C683 1.503 1_545 S
C676 C675 1.410 . S
C676 C677 1.392 . S
C676 C679 1.511 1_545 S
C677 C673 1.376 . S
C677 C676 1.392 . S
C677 H689 0.929 . S
C678 C674 1.531 . S
C678 H690 0.960 . S
C678 H691 0.962 . S
C678 H692 0.960 . S
C679 C676 1.511 1_565 S
C679 H693 0.961 1_564 S
C679 H694 0.961 . S
C679 H695 0.961 . S
C680 C681 1.370 . S
C680 C682 1.363 . S
C680 H696 0.931 . S
C681 C680 1.370 . S
C681 C685 1.408 . S
C682 C680 1.363 . S
C682 C683 1.370 . S
C682 C686 1.524 1_565 S
C683 C675 1.503 1_565 S
C683 C682 1.370 . S
C683 C684 1.403 . S
C684 C683 1.403 . S
C684 C685 1.404 . S
C684 C687 1.539 . S
C685 C681 1.408 . S
C685 C684 1.404 . S
C685 H697 0.930 . S
C686 C682 1.524 1_545 S
C686 H698 0.956 . S
C686 H699 0.961 . S
C686 H700 0.961 . S
C687 C684 1.539 . S
C687 H701 0.958 . S
C687 H702 0.961 . S
C687 H703 0.960 . S
H688 C672 0.931 . S
H689 C677 0.929 . S
H690 C678 0.960 . S
H691 C678 0.962 . S
H692 C678 0.960 . S
H693 C679 0.961 1_546 S
H694 C679 0.961 . S
H695 C679 0.961 . S
H696 C680 0.931 . S
H697 C685 0.930 . S
H698 C686 0.956 . S
H699 C686 0.961 . S
H700 C686 0.961 . S
H701 C687 0.958 . S
H702 C687 0.961 . S
H703 C687 0.960 . S
C704 C705 1.391 . S
C704 C706 1.394 . S
C704 H720 0.931 . S
C705 C704 1.391 . S
C705 C709 1.376 . S
C706 C704 1.394 . S
C706 C707 1.369 . S
C706 C710 1.531 . S
C707 C706 1.369 . S
C707 C708 1.410 . S
C707 C715 1.503 . S
C708 C707 1.410 . S
C708 C709 1.392 . S
C708 C711 1.511 . S
C709 C705 1.376 . S
C709 C708 1.392 . S
C709 H721 0.929 . S
C710 C706 1.531 . S
C710 H722 0.960 . S
C710 H723 0.962 . S
C710 H724 0.960 . S
C711 C708 1.511 . S
C711 H725 0.961 . S
C711 H726 0.961 . S
C711 H727 0.961 . S
C712 C713 1.370 . S
C712 C714 1.363 . S
C712 H728 0.931 . S
C713 C712 1.370 . S
C713 C717 1.408 . S
C714 C712 1.363 . S
C714 C715 1.370 . S
C714 C718 1.524 . S
C715 C707 1.503 . S
C715 C714 1.370 . S
C715 C716 1.403 . S
C716 C715 1.403 . S
C716 C717 1.404 . S
C716 C719 1.539 . S
C717 C713 1.408 . S
C717 C716 1.404 . S
C717 H729 0.930 . S
C718 C714 1.524 . S
C718 H730 0.956 . S
C718 H731 0.961 . S
C718 H732 0.961 . S
C719 C716 1.539 . S
C719 H733 0.958 . S
C719 H734 0.961 . S
C719 H735 0.960 . S
H720 C704 0.931 . S
H721 C709 0.929 . S
H722 C710 0.960 . S
H723 C710 0.962 . S
H724 C710 0.960 . S
H725 C711 0.961 . S
H726 C711 0.961 . S
H727 C711 0.961 . S
H728 C712 0.931 . S
H729 C717 0.930 . S
H730 C718 0.956 . S
H731 C718 0.961 . S
H732 C718 0.961 . S
H733 C719 0.958 . S
H734 C719 0.961 . S
H735 C719 0.960 . S
C736 C737 1.391 . S
C736 C738 1.394 . S
C736 H752 0.931 . S
C737 C736 1.391 . S
C737 C741 1.376 . S
C738 C736 1.394 . S
C738 C739 1.369 . S
C738 C742 1.531 1_455 S
C739 C738 1.369 . S
C739 C740 1.410 . S
C739 C747 1.503 1_455 S
C740 C739 1.410 . S
C740 C741 1.392 . S
C740 C743 1.511 . S
C741 C737 1.376 . S
C741 C740 1.392 . S
C741 H753 0.929 . S
C742 C738 1.531 1_655 S
C742 H754 0.960 . S
C742 H755 0.962 . S
C742 H756 0.960 . S
C743 C740 1.511 . S
C743 H757 0.961 . S
C743 H758 0.961 . S
C743 H759 0.961 . S
C744 C745 1.370 . S
C744 C746 1.363 . S
C744 H760 0.931 . S
C745 C744 1.370 . S
C745 C749 1.408 . S
C746 C744 1.363 . S
C746 C747 1.370 . S
C746 C750 1.524 1_655 S
C747 C739 1.503 1_655 S
C747 C746 1.370 . S
C747 C748 1.403 . S
C748 C747 1.403 . S
C748 C749 1.404 . S
C748 C751 1.539 . S
C749 C745 1.408 . S
C749 C748 1.404 . S
C749 H761 0.930 . S
C750 C746 1.524 1_455 S
C750 H762 0.956 . S
C750 H763 0.961 . S
C750 H764 0.961 . S
C751 C748 1.539 . S
C751 H765 0.958 . S
C751 H766 0.961 . S
C751 H767 0.960 . S
H752 C736 0.931 . S
H753 C741 0.929 . S
H754 C742 0.960 . S
H755 C742 0.962 . S
H756 C742 0.960 . S
H757 C743 0.961 . S
H758 C743 0.961 . S
H759 C743 0.961 . S
H760 C744 0.931 . S
H761 C749 0.930 . S
H762 C750 0.956 . S
H763 C750 0.961 . S
H764 C750 0.961 . S
H765 C751 0.958 . S
H766 C751 0.961 . S
H767 C751 0.960 . S
C768 C769 1.391 . S
C768 C770 1.394 . S
C768 H784 0.931 . S
C769 C768 1.391 . S
C769 C773 1.376 . S
C770 C768 1.394 . S
C770 C771 1.369 . S
C770 C774 1.531 1_655 S
C771 C770 1.369 . S
C771 C772 1.410 . S
C771 C779 1.503 1_655 S
C772 C771 1.410 . S
C772 C773 1.392 . S
C772 C775 1.511 . S
C773 C769 1.376 . S
C773 C772 1.392 . S
C773 H785 0.929 . S
C774 C770 1.531 1_455 S
C774 H786 0.960 . S
C774 H787 0.962 . S
C774 H788 0.960 . S
C775 C772 1.511 . S
C775 H789 0.961 . S
C775 H790 0.961 . S
C775 H791 0.961 . S
C776 C777 1.370 . S
C776 C778 1.363 . S
C776 H792 0.931 . S
C777 C776 1.370 . S
C777 C781 1.408 . S
C778 C776 1.363 . S
C778 C779 1.370 . S
C778 C782 1.524 . S
C779 C771 1.503 1_455 S
C779 C778 1.370 . S
C779 C780 1.403 . S
C780 C779 1.403 . S
C780 C781 1.404 . S
C780 C783 1.539 . S
C781 C777 1.408 . S
C781 C780 1.404 . S
C781 H793 0.930 . S
C782 C778 1.524 . S
C782 H794 0.956 . S
C782 H795 0.981 . S
C782 H796 0.961 . S
C783 C780 1.539 . S
C783 H797 0.958 . S
C783 H798 0.961 . S
C783 H799 0.960 1_455 S
H784 C768 0.931 . S
H785 C773 0.929 . S
H786 C774 0.960 . S
H787 C774 0.962 . S
H788 C774 0.960 . S
H789 C775 0.961 . S
H790 C775 0.961 . S
H791 C775 0.961 . S
H792 C776 0.931 . S
H793 C781 0.930 . S
H794 C782 0.956 . S
H795 C782 0.981 . S
H796 C782 0.961 . S
H797 C783 0.958 . S
H798 C783 0.961 . S
H799 C783 0.960 1_655 S
C800 C801 1.391 . S
C800 C802 1.394 . S
C800 H816 0.931 . S
C801 C800 1.391 . S
C801 C805 1.376 . S
C802 C800 1.394 . S
C802 C803 1.369 . S
C802 C806 1.531 . S
C803 C802 1.369 . S
C803 C804 1.410 . S
C803 C811 1.503 1_545 S
C804 C803 1.410 . S
C804 C805 1.392 . S
C804 C807 1.511 1_545 S
C805 C801 1.376 . S
C805 C804 1.392 . S
C805 H817 0.929 . S
C806 C802 1.531 . S
C806 H818 0.960 . S
C806 H819 0.962 . S
C806 H820 0.960 . S
C807 C804 1.511 1_565 S
C807 H821 0.961 . S
C807 H822 0.961 . S
C807 H823 0.970 . S
C808 C809 1.370 . S
C808 C810 1.363 . S
C808 H824 0.931 . S
C809 C808 1.370 . S
C809 C813 1.408 . S
C810 C808 1.363 . S
C810 C811 1.370 . S
C810 C814 1.524 . S
C811 C803 1.503 1_565 S
C811 C810 1.370 . S
C811 C812 1.403 . S
C812 C811 1.403 . S
C812 C813 1.404 . S
C812 C815 1.539 1_565 S
C813 C809 1.408 . S
C813 C812 1.404 . S
C813 H825 0.930 . S
C814 C810 1.524 . S
C814 H826 0.956 . S
C814 H827 0.961 . S
C814 H828 0.961 . S
C815 C812 1.539 1_545 S
C815 H829 0.958 . S
C815 H830 0.961 1_545 S
C815 H831 0.960 . S
H816 C800 0.931 . S
H817 C805 0.929 . S
H818 C806 0.960 . S
H819 C806 0.962 . S
H820 C806 0.960 . S
H821 C807 0.961 . S
H822 C807 0.961 . S
H823 C807 0.970 . S
H824 C808 0.931 . S
H825 C813 0.930 . S
H826 C814 0.956 . S
H827 C814 0.961 . S
H828 C814 0.961 . S
H829 C815 0.958 . S
H830 C815 0.961 1_565 S
H831 C815 0.960 . S
C832 C833 1.391 . S
C832 C834 1.394 . S
C832 H848 0.931 . S
C833 C832 1.391 . S
C833 C837 1.376 . S
C834 C832 1.394 . S
C834 C835 1.369 . S
C834 C838 1.531 . S
C835 C834 1.369 . S
C835 C836 1.410 . S
C835 C843 1.503 . S
C836 C835 1.410 . S
C836 C837 1.392 . S
C836 C839 1.511 . S
C837 C833 1.376 . S
C837 C836 1.392 . S
C837 H849 0.929 . S
C838 C834 1.531 . S
C838 H850 0.960 . S
C838 H851 0.962 . S
C838 H852 0.960 . S
C839 C836 1.511 . S
C839 H853 0.961 . S
C839 H854 0.961 . S
C839 H855 0.961 . S
C840 C841 1.370 . S
C840 C842 1.363 . S
C840 H856 0.931 . S
C841 C840 1.370 . S
C841 C845 1.408 . S
C842 C840 1.363 . S
C842 C843 1.370 . S
C842 C846 1.524 . S
C843 C835 1.503 . S
C843 C842 1.370 . S
C843 C844 1.403 . S
C844 C843 1.403 . S
C844 C845 1.404 . S
C844 C847 1.539 . S
C845 C841 1.408 . S
C845 C844 1.404 . S
C845 H857 0.930 . S
C846 C842 1.524 . S
C846 H858 0.956 . S
C846 H859 0.961 . S
C846 H860 0.961 . S
C847 C844 1.539 . S
C847 H861 0.958 . S
C847 H862 0.961 . S
C847 H863 0.960 . S
H848 C832 0.931 . S
H849 C837 0.929 . S
H850 C838 0.960 . S
H851 C838 0.962 . S
H852 C838 0.960 . S
H853 C839 0.961 . S
H854 C839 0.961 . S
H855 C839 0.961 . S
H856 C840 0.931 . S
H857 C845 0.930 . S
H858 C846 0.956 . S
H859 C846 0.961 . S
H860 C846 0.961 . S
H861 C847 0.958 . S
H862 C847 0.961 . S
H863 C847 0.960 . S
C864 C865 1.391 1_554 S
C864 C866 1.394 . S
C864 H880 0.931 . S
C865 C864 1.391 1_556 S
C865 C869 1.376 . S
C866 C864 1.394 . S
C866 C867 1.369 1_554 S
C866 C870 1.531 . S
C867 C866 1.369 1_556 S
C867 C868 1.410 . S
C867 C875 1.503 . S
C868 C867 1.410 . S
C868 C869 1.392 . S
C868 C871 1.511 . S
C869 C865 1.376 . S
C869 C868 1.392 . S
C869 H881 0.929 . S
C870 C866 1.531 . S
C870 H882 0.960 . S
C870 H883 0.962 . S
C870 H884 0.960 . S
C871 C868 1.511 . S
C871 H885 0.961 . S
C871 H886 0.961 . S
C871 H887 0.961 . S
C872 C873 1.370 . S
C872 C874 1.363 . S
C872 H888 0.931 . S
C873 C872 1.370 . S
C873 C877 1.408 1_554 S
C874 C872 1.363 . S
C874 C875 1.370 1_554 S
C874 C878 1.524 . S
C875 C867 1.503 . S
C875 C874 1.370 1_556 S
C875 C876 1.403 . S
C876 C875 1.403 . S
C876 C877 1.404 . S
C876 C879 1.539 . S
C877 C873 1.408 1_556 S
C877 C876 1.404 . S
C877 H889 0.930 . S
C878 C874 1.524 . S
C878 H890 0.956 . S
C878 H891 0.961 . S
C878 H892 0.961 . S
C879 C876 1.539 . S
C879 H893 0.958 . S
C879 H894 0.961 . S
C879 H895 0.960 . S
H880 C864 0.931 . S
H881 C869 0.929 . S
H882 C870 0.960 . S
H883 C870 0.962 . S
H884 C870 0.960 . S
H885 C871 0.961 . S
H886 C871 0.961 . S
H887 C871 0.961 . S
H888 C872 0.931 . S
H889 C877 0.930 . S
H890 C878 0.956 . S
H891 C878 0.961 . S
H892 C878 0.961 . S
H893 C879 0.958 . S
H894 C879 0.961 . S
H895 C879 0.960 . S
C896 C897 1.391 . S
C896 C898 1.394 . S
C896 H912 0.931 . S
C897 C896 1.391 . S
C897 C901 1.376 . S
C898 C896 1.394 . S
C898 C899 1.369 . S
C898 C902 1.531 . S
C899 C898 1.369 . S
C899 C900 1.410 . S
C899 C907 1.503 . S
C900 C899 1.410 . S
C900 C901 1.392 . S
C900 C903 1.511 . S
C901 C897 1.376 . S
C901 C900 1.392 . S
C901 H913 0.929 . S
C902 C898 1.531 . S
C902 H914 0.960 . S
C902 H915 0.962 . S
C902 H916 0.960 . S
C903 C900 1.511 . S
C903 H917 0.961 . S
C903 H918 0.961 . S
C903 H919 0.961 . S
C904 C905 1.370 . S
C904 C906 1.363 . S
C904 H920 0.931 . S
C905 C904 1.370 . S
C905 C909 1.408 . S
C906 C904 1.363 . S
C906 C907 1.370 . S
C906 C910 1.524 . S
C907 C899 1.503 . S
C907 C906 1.370 . S
C907 C908 1.403 . S
C908 C907 1.403 . S
C908 C909 1.404 . S
C908 C911 1.539 . S
C909 C905 1.408 . S
C909 C908 1.404 . S
C909 H921 0.930 . S
C910 C906 1.524 . S
C910 H922 0.956 . S
C910 H923 0.961 . S
C910 H924 0.961 . S
C911 C908 1.539 . S
C911 H925 0.958 . S
C911 H926 0.961 . S
C911 H927 0.960 . S
H912 C896 0.931 . S
H913 C901 0.929 . S
H914 C902 0.960 . S
H915 C902 0.962 . S
H916 C902 0.960 . S
H917 C903 0.961 . S
H918 C903 0.961 . S
H919 C903 0.961 . S
H920 C904 0.931 . S
H921 C909 0.930 . S
H922 C910 0.956 . S
H923 C910 0.961 . S
H924 C910 0.961 . S
H925 C911 0.958 . S
H926 C911 0.961 . S
H927 C911 0.960 . S
C928 C929 1.391 . S
C928 C930 1.394 . S
C928 H944 0.931 . S
C929 C928 1.391 . S
C929 C933 1.376 . S
C930 C928 1.394 . S
C930 C931 1.369 . S
C930 C934 1.531 . S
C931 C930 1.369 . S
C931 C932 1.410 . S
C931 C939 1.503 . S
C932 C931 1.410 . S
C932 C933 1.392 . S
C932 C935 1.511 . S
C933 C929 1.376 . S
C933 C932 1.392 . S
C933 H945 0.929 . S
C934 C930 1.531 . S
C934 H946 0.960 . S
C934 H947 0.962 . S
C934 H948 0.960 . S
C935 C932 1.511 . S
C935 H949 0.961 . S
C935 H950 0.961 . S
C935 H951 0.961 . S
C936 C937 1.370 . S
C936 C938 1.363 . S
C936 H952 0.931 . S
C937 C936 1.370 . S
C937 C941 1.408 . S
C938 C936 1.363 . S
C938 C939 1.370 . S
C938 C942 1.524 . S
C939 C931 1.503 . S
C939 C938 1.370 . S
C939 C940 1.403 . S
C940 C939 1.403 . S
C940 C941 1.404 . S
C940 C943 1.539 . S
C941 C937 1.408 . S
C941 C940 1.404 . S
C941 H953 0.930 . S
C942 C938 1.524 . S
C942 H954 0.956 . S
C942 H955 0.961 . S
C942 H956 0.961 . S
C943 C940 1.539 . S
C943 H957 0.958 . S
C943 H958 0.961 . S
C943 H959 0.960 . S
H944 C928 0.931 . S
H945 C933 0.929 . S
H946 C934 0.960 . S
H947 C934 0.962 . S
H948 C934 0.960 . S
H949 C935 0.961 . S
H950 C935 0.961 . S
H951 C935 0.961 . S
H952 C936 0.931 . S
H953 C941 0.930 . S
H954 C942 0.956 . S
H955 C942 0.961 . S
H956 C942 0.961 . S
H957 C943 0.958 . S
H958 C943 0.961 . S
H959 C943 0.960 . S
C960 C961 1.391 . S
C960 C962 1.394 . S
C960 H976 0.931 . S
C961 C960 1.391 . S
C961 C965 1.376 1_554 S
C962 C960 1.394 . S
C962 C963 1.375 1_554 S
C962 C966 1.531 . S
C963 C962 1.375 1_556 S
C963 C964 1.404 . S
C963 C971 1.502 . S
C964 C963 1.404 . S
C964 C965 1.392 . S
C964 C967 1.511 . S
C965 C961 1.376 1_556 S
C965 C964 1.392 . S
C965 H977 0.929 . S
C966 C962 1.531 . S
C966 H978 0.960 . S
C966 H979 0.962 . S
C966 H980 0.960 . S
C967 C964 1.511 . S
C967 H981 0.961 . S
C967 H982 0.961 . S
C967 H983 0.961 . S
C968 C969 1.356 1_554 S
C968 C970 1.368 . S
C968 H984 0.949 . S
C969 C968 1.356 1_556 S
C969 C973 1.408 . S
C970 C968 1.368 . S
C970 C971 1.362 1_554 S
C970 C974 1.524 . S
C971 C963 1.502 . S
C971 C970 1.362 1_556 S
C971 C972 1.415 . S
C972 C971 1.415 . S
C972 C973 1.404 . S
C972 C975 1.539 . S
C973 C969 1.408 . S
C973 C972 1.404 . S
C973 H985 0.930 . S
C974 C970 1.524 . S
C974 H986 0.956 . S
C974 H987 0.961 1_554 S
C974 H988 0.961 . S
C975 C972 1.539 . S
C975 H989 0.958 1_556 S
C975 H990 0.961 . S
C975 H991 0.960 . S
H976 C960 0.931 . S
H977 C965 0.929 . S
H978 C966 0.960 . S
H979 C966 0.962 . S
H980 C966 0.960 . S
H981 C967 0.961 . S
H982 C967 0.961 . S
H983 C967 0.961 . S
H984 C968 0.949 . S
H985 C973 0.930 . S
H986 C974 0.956 . S
H987 C974 0.961 1_556 S
H988 C974 0.961 . S
H989 C975 0.958 1_554 S
H990 C975 0.961 . S
H991 C975 0.960 . S
C992 C993 1.391 . S
C992 C994 1.394 . S
C992 H1008 0.931 . S
C993 C992 1.391 . S
C993 C997 1.376 . S
C994 C992 1.394 . S
C994 C995 1.369 . S
C994 C998 1.531 . S
C995 C994 1.369 . S
C995 C996 1.410 . S
C995 C1003 1.503 . S
C996 C995 1.410 . S
C996 C997 1.392 . S
C996 C999 1.511 . S
C997 C993 1.376 . S
C997 C996 1.392 . S
C997 H1009 0.929 . S
C998 C994 1.531 . S
C998 H1010 0.960 . S
C998 H1011 0.962 . S
C998 H1012 0.960 . S
C999 C996 1.511 . S
C999 H1013 0.961 . S
C999 H1014 0.961 . S
C999 H1015 0.961 . S
C1000 C1001 1.370 . S
C1000 C1002 1.363 . S
C1000 H1016 0.931 . S
C1001 C1000 1.370 . S
C1001 C1005 1.408 . S
C1002 C1000 1.363 . S
C1002 C1003 1.370 . S
C1002 C1006 1.524 . S
C1003 C995 1.503 . S
C1003 C1002 1.370 . S
C1003 C1004 1.403 . S
C1004 C1003 1.403 . S
C1004 C1005 1.404 . S
C1004 C1007 1.539 . S
C1005 C1001 1.408 . S
C1005 C1004 1.404 . S
C1005 H1017 0.930 . S
C1006 C1002 1.524 . S
C1006 H1018 0.956 . S
C1006 H1019 0.961 . S
C1006 H1020 0.961 . S
C1007 C1004 1.539 . S
C1007 H1021 0.958 . S
C1007 H1022 0.961 . S
C1007 H1023 0.960 . S
H1008 C992 0.931 . S
H1009 C997 0.929 . S
H1010 C998 0.960 . S
H1011 C998 0.962 . S
H1012 C998 0.960 . S
H1013 C999 0.961 . S
H1014 C999 0.961 . S
H1015 C999 0.961 . S
H1016 C1000 0.931 . S
H1017 C1005 0.930 . S
H1018 C1006 0.956 . S
H1019 C1006 0.961 . S
H1020 C1006 0.961 . S
H1021 C1007 0.958 . S
H1022 C1007 0.961 . S
H1023 C1007 0.960 . S
C1024 C1025 1.391 . S
C1024 C1026 1.394 . S
C1024 H1040 0.931 . S
C1025 C1024 1.391 . S
C1025 C1029 1.376 . S
C1026 C1024 1.394 . S
C1026 C1027 1.369 . S
C1026 C1030 1.531 . S
C1027 C1026 1.369 . S
C1027 C1028 1.410 . S
C1027 C1035 1.503 . S
C1028 C1027 1.410 . S
C1028 C1029 1.392 . S
C1028 C1031 1.511 . S
C1029 C1025 1.376 . S
C1029 C1028 1.392 . S
C1029 H1041 0.929 . S
C1030 C1026 1.531 . S
C1030 H1042 0.960 . S
C1030 H1043 0.962 . S
C1030 H1044 0.960 . S
C1031 C1028 1.511 . S
C1031 H1045 0.961 . S
C1031 H1046 0.961 . S
C1031 H1047 0.961 . S
C1032 C1033 1.370 . S
C1032 C1034 1.363 . S
C1032 H1048 0.931 . S
C1033 C1032 1.370 . S
C1033 C1037 1.408 . S
C1034 C1032 1.363 . S
C1034 C1035 1.370 . S
C1034 C1038 1.524 . S
C1035 C1027 1.503 . S
C1035 C1034 1.370 . S
C1035 C1036 1.403 . S
C1036 C1035 1.403 . S
C1036 C1037 1.404 . S
C1036 C1039 1.539 . S
C1037 C1033 1.408 . S
C1037 C1036 1.404 . S
C1037 H1049 0.930 . S
C1038 C1034 1.524 . S
C1038 H1050 0.956 . S
C1038 H1051 0.961 . S
C1038 H1052 0.961 . S
C1039 C1036 1.539 . S
C1039 H1053 0.958 . S
C1039 H1054 0.961 . S
C1039 H1055 0.960 . S
H1040 C1024 0.931 . S
H1041 C1029 0.929 . S
H1042 C1030 0.960 . S
H1043 C1030 0.962 . S
H1044 C1030 0.960 . S
H1045 C1031 0.961 . S
H1046 C1031 0.961 . S
H1047 C1031 0.961 . S
H1048 C1032 0.931 . S
H1049 C1037 0.930 . S
H1050 C1038 0.956 . S
H1051 C1038 0.961 . S
H1052 C1038 0.961 . S
H1053 C1039 0.958 . S
H1054 C1039 0.961 . S
H1055 C1039 0.960 . S
C481 C2 1.951 . S
C489 C242 1.975 . S
C513 C42 1.998 . S
C521 C282 1.956 . S
C545 C82 1.965 . S
C553 C322 1.969 . S
C577 C362 1.999 . S
C585 C122 1.956 . S
C609 C162 1.932 . S
C617 C402 1.983 . S
C641 C442 1.940 . S
C649 C202 1.980 . S
C673 C21 1.734 . S
C681 C141 1.770 . S
C705 C61 1.739 . S
C713 C181 1.759 . S
C737 C221 1.764 . S
C745 C101 1.778 . S
C769 C261 1.789 . S
C777 C381 1.769 . S
C801 C421 1.759 . S
C809 C301 1.754 . S
C833 C461 1.756 . S
C841 C341 1.755 . S
C865 C415 1.933 . S
C873 C15 1.967 . S
C897 C455 1.938 . S
C905 C55 1.968 . S
C929 C95 1.931 . S
C937 C255 1.968 . S
C961 C135 1.966 . S
C969 C295 1.958 . S
C993 C335 1.934 . S
C1001 C175 1.969 . S
C1025 C215 1.978 . S
C1033 C375 1.950 . S
