# Generated by pormake.
# Topology fnz, (5)-cn, num edge types: 1
# Building blocks:
#     Node 0, Type 0, BuildingBlock: XOMCOT_clean_sbu_0, # of connection points: 5
#     Node 1, Type 0, BuildingBlock: XOMCOT_clean_sbu_0, # of connection points: 5
#     Node 2, Type 0, BuildingBlock: XOMCOT_clean_sbu_0, # of connection points: 5
#     Node 3, Type 0, BuildingBlock: XOMCOT_clean_sbu_0, # of connection points: 5
#     Node 4, Type 0, BuildingBlock: XOMCOT_clean_sbu_0, # of connection points: 5
#     Node 5, Type 0, BuildingBlock: XOMCOT_clean_sbu_0, # of connection points: 5
#     Node 6, Type 0, BuildingBlock: XOMCOT_clean_sbu_0, # of connection points: 5
#     Node 7, Type 0, BuildingBlock: XOMCOT_clean_sbu_0, # of connection points: 5
#     Node 8, Type 0, BuildingBlock: XOMCOT_clean_sbu_0, # of connection points: 5
#     Node 9, Type 0, BuildingBlock: XOMCOT_clean_sbu_0, # of connection points: 5
#     Node 10, Type 0, BuildingBlock: XOMCOT_clean_sbu_0, # of connection points: 5
#     Node 11, Type 0, BuildingBlock: XOMCOT_clean_sbu_0, # of connection points: 5
#     Edge 12, Type (0, 0), None
#     Edge 13, Type (0, 0), None
#     Edge 14, Type (0, 0), None
#     Edge 15, Type (0, 0), None
#     Edge 16, Type (0, 0), None
#     Edge 17, Type (0, 0), None
#     Edge 18, Type (0, 0), None
#     Edge 19, Type (0, 0), None
#     Edge 20, Type (0, 0), None
#     Edge 21, Type (0, 0), None
#     Edge 22, Type (0, 0), None
#     Edge 23, Type (0, 0), None
#     Edge 24, Type (0, 0), None
#     Edge 25, Type (0, 0), None
#     Edge 26, Type (0, 0), None
#     Edge 27, Type (0, 0), None
#     Edge 28, Type (0, 0), None
#     Edge 29, Type (0, 0), None
#     Edge 30, Type (0, 0), None
#     Edge 31, Type (0, 0), None
#     Edge 32, Type (0, 0), None
#     Edge 33, Type (0, 0), None
#     Edge 34, Type (0, 0), None
#     Edge 35, Type (0, 0), None
#     Edge 36, Type (0, 0), None
#     Edge 37, Type (0, 0), None
#     Edge 38, Type (0, 0), None
#     Edge 39, Type (0, 0), None
#     Edge 40, Type (0, 0), None
#     Edge 41, Type (0, 0), None
# Relax obj value: 0.168
# Max RMSD: 0.240
# Mean RMSD: 0.240
data_MOF--net-fnz--node1-XOMCOT_clean_sbu_0--edge1-none
_symmetry_space_group_name_H-M    P1
_symmetry_Int_Tables_number       1
_symmetry_cell_setting            triclinic
loop_
_symmetry_equiv_pos_as_xyz
'x, y, z'
_cell_length_a     23.023737
_cell_length_b     23.024255
_cell_length_c     15.207756
_cell_angle_alpha  89.998984
_cell_angle_beta   90.000553
_cell_angle_gamma 120.00106
loop_
_atom_site_label
_atom_site_type_symbol
_atom_site_fract_x
_atom_site_fract_y
_atom_site_fract_z
_atom_type_partial_charge
Co0 Co 0.42076 0.15034 0.11581 0.0
C1 C 0.37712 0.2469 0.07015 0.0
C2 C 0.30426 0.16681 0.15092 0.0
C3 C 0.28349 0.21284 0.13772 0.0
N4 N 0.36304 0.18856 0.10906 0.0
N5 N 0.32936 0.26296 0.08688 0.0
H6 H 0.42317 0.27881 0.03497 0.0
H7 H 0.27974 0.12214 0.19111 0.0
C8 C 0.32569 1.00406 0.06651 0.0
O9 O 0.37012 1.00166 1.01461 0.0
N10 N 0.47948 0.11257 0.12447 0.0
C11 C 0.54515 0.14206 0.10335 0.0
C12 C 0.56751 0.09754 0.11904 0.0
C13 C 0.46392 0.05186 0.15708 0.0
N14 N 0.516 0.04084 0.1519 0.0
C15 C 0.4927 0.21753 0.9587 0.0
C16 C 0.38414 0.15316 0.84709 0.0
C17 C 0.44229 0.20951 0.81586 0.0
C18 C 0.49789 0.24062 0.87211 0.0
C19 C 0.38071 0.13249 0.93388 0.0
N20 N 0.4344 0.1644 0.98919 0.0
H21 H 0.53378 0.2463 1.00302 0.0
H22 H 0.33251 0.09446 0.95756 0.0
H23 H 0.57505 0.19198 0.07724 0.0
H24 H 0.41518 0.01542 0.18215 0.0
O25 O 0.49131 0.23656 0.15955 0.0
O26 O 0.41805 0.15198 0.2411 0.0
O27 O 0.33866 0.05876 0.10408 0.0
C28 C 0.46652 0.21359 0.23729 0.0
H29 H 0.2392 0.2107 0.16576 0.0
H30 H 0.61639 0.10471 0.10245 0.0
H31 H 0.34004 0.12677 0.80604 0.0
H32 H 0.54354 0.28495 0.85141 0.0
Co33 Co 0.27952 0.41619 0.11583 0.0
C34 C 0.13932 0.37255 0.07015 0.0
C35 C 0.14654 0.2997 0.15093 0.0
C36 C 0.07974 0.27893 0.13773 0.0
N37 N 0.18359 0.35848 0.10907 0.0
N38 N 0.0755 0.3248 0.08688 0.0
H39 H 0.15347 0.41861 0.03497 0.0
H40 H 0.16669 0.27518 0.19113 0.0
C41 C 0.33073 0.32113 0.06652 0.0
O42 O 0.37757 0.36556 1.01462 0.0
N43 N 0.376 0.47492 0.1245 0.0
C44 C 0.41218 0.54059 0.10339 0.0
C45 C 0.47907 0.56296 0.11908 0.0
C46 C 0.42117 0.45936 0.15708 0.0
N47 N 0.48426 0.51144 0.1519 0.0
C48 C 0.28428 0.48814 0.95872 0.0
C49 C 0.2401 0.37959 0.84711 0.0
C50 C 0.24189 0.43774 0.81588 0.0
C51 C 0.26638 0.49333 0.87213 0.0
C52 C 0.25732 0.37615 0.9339 0.0
N53 N 0.27911 0.42984 0.98921 0.0
H54 H 0.29658 0.52922 1.00304 0.0
H55 H 0.24716 0.32796 0.95758 0.0
H56 H 0.39215 0.57049 0.07731 0.0
H57 H 0.40886 0.41061 0.18214 0.0
O58 O 0.26384 0.48674 0.15957 0.0
O59 O 0.27515 0.41349 0.24112 0.0
O60 O 0.289 0.33409 0.1041 0.0
C61 C 0.26201 0.46196 0.23731 0.0
H62 H 0.0376 0.23465 0.16576 0.0
H63 H 0.52077 0.61184 0.10249 0.0
H64 H 0.22239 0.33549 0.80605 0.0
H65 H 0.2677 0.53898 0.85143 0.0
Co66 Co 0.87242 0.27496 0.11583 0.0
C67 C 0.77588 0.13476 0.07014 0.0
C68 C 0.85596 0.142 0.15093 0.0
C69 C 0.80994 0.0752 0.13772 0.0
N70 N 0.83421 0.17904 0.10908 0.0
N71 N 0.75983 0.07095 0.08686 0.0
H72 H 0.74397 0.14891 0.03495 0.0
H73 H 0.90062 0.16215 0.19115 0.0
C74 C 0.01871 0.32617 0.06651 0.0
O75 O 0.02112 0.37301 1.01461 0.0
N76 N 0.91019 0.37145 0.12449 0.0
C77 C 0.88069 0.40762 0.10338 0.0
C78 C 0.92521 0.47451 0.11906 0.0
C79 C 0.97091 0.41661 0.15706 0.0
N80 N 0.98192 0.4797 0.15188 0.0
C81 C 0.80523 0.27972 0.95871 0.0
C82 C 0.8696 0.23554 0.84711 0.0
C83 C 0.81325 0.23733 0.81588 0.0
C84 C 0.78214 0.26182 0.87212 0.0
C85 C 0.89027 0.25276 0.93389 0.0
N86 N 0.85837 0.27455 0.9892 0.0
H87 H 0.77646 0.29202 1.00304 0.0
H88 H 0.9283 0.2426 0.95757 0.0
H89 H 0.83075 0.38759 0.07731 0.0
H90 H 1.00735 0.40431 0.18211 0.0
O91 O 0.78619 0.25928 0.15957 0.0
O92 O 0.87077 0.2706 0.24112 0.0
O93 O 0.96401 0.28445 0.10409 0.0
C94 C 0.80916 0.25746 0.23731 0.0
H95 H 0.81208 0.03306 0.16575 0.0
H96 H 0.91803 0.51621 0.10247 0.0
H97 H 0.896 0.21783 0.80605 0.0
H98 H 0.73781 0.26314 0.85143 0.0
Co99 Co 0.60657 0.86788 0.11581 0.0
C100 C 0.6502 0.77132 0.07012 0.0
C101 C 0.72306 0.85139 0.1509 0.0
C102 C 0.74384 0.80537 0.13766 0.0
N103 N 0.66427 0.82965 0.10906 0.0
N104 N 0.69796 0.75526 0.08681 0.0
H105 H 0.60414 0.73941 0.03493 0.0
H106 H 0.74758 0.89605 0.1911 0.0
C107 C 0.70166 0.01415 0.06647 0.0
O108 O 0.65724 0.01656 1.01457 0.0
N109 N 0.54788 0.90568 0.12445 0.0
C110 C 0.48221 0.87623 0.10328 0.0
C111 C 0.45989 0.9208 0.1189 0.0
C112 C 0.56348 0.96641 0.15702 0.0
N113 N 0.51146 0.9775 0.15165 0.0
C114 C 0.53461 0.8007 0.95869 0.0
C115 C 0.64318 0.86505 0.84709 0.0
C116 C 0.58503 0.8087 0.81586 0.0
C117 C 0.52942 0.7776 0.8721 0.0
C118 C 0.64662 0.88572 0.93387 0.0
N119 N 0.59292 0.85382 0.98918 0.0
H120 H 0.49353 0.77194 1.00302 0.0
H121 H 0.69482 0.92374 0.95755 0.0
H122 H 0.45228 0.8263 0.07723 0.0
H123 H 0.61221 1.0028 0.18218 0.0
O124 O 0.53601 0.78166 0.15955 0.0
O125 O 0.60928 0.86623 0.2411 0.0
O126 O 0.68869 0.95945 0.10406 0.0
C127 C 0.5608 0.80462 0.23729 0.0
H128 H 0.78813 0.80752 0.16568 0.0
H129 H 0.41101 0.91366 0.10235 0.0
H130 H 0.68728 0.89143 0.80603 0.0
H131 H 0.48377 0.73328 0.85141 0.0
Co132 Co 0.74779 0.60202 0.11574 0.0
C133 C 0.88799 0.64565 0.07007 0.0
C134 C 0.88077 0.71851 0.15085 0.0
C135 C 0.94757 0.73929 0.13764 0.0
N136 N 0.84372 0.65972 0.109 0.0
N137 N 0.95181 0.69341 0.08679 0.0
H138 H 0.87384 0.5996 0.03489 0.0
H139 H 0.86062 0.74302 0.19105 0.0
C140 C 0.6966 0.69711 0.06641 0.0
O141 O 0.64976 0.65268 1.01452 0.0
N142 N 0.6513 0.54333 0.12437 0.0
C143 C 0.61507 0.47767 0.10317 0.0
C144 C 0.54818 0.45534 0.11882 0.0
C145 C 0.60617 0.55892 0.15698 0.0
N146 N 0.54307 0.50691 0.15161 0.0
C147 C 0.74304 0.53007 0.95864 0.0
C148 C 0.78724 0.63862 0.84701 0.0
C149 C 0.78544 0.58047 0.8158 0.0
C150 C 0.76095 0.52487 0.87205 0.0
C151 C 0.77001 0.64206 0.9338 0.0
N152 N 0.74821 0.58837 0.98911 0.0
H153 H 0.73073 0.48899 1.00297 0.0
H154 H 0.78017 0.69025 0.95746 0.0
H155 H 0.63508 0.44775 0.07708 0.0
H156 H 0.61852 0.60765 0.18216 0.0
O157 O 0.76344 0.53146 0.1595 0.0
O158 O 0.75213 0.60473 0.24103 0.0
O159 O 0.73834 0.68414 0.10398 0.0
C160 C 0.76526 0.55626 0.23723 0.0
H161 H 0.98971 0.78357 0.16566 0.0
H162 H 0.50645 0.40647 0.10227 0.0
H163 H 0.80495 0.68271 0.80595 0.0
H164 H 0.75962 0.47922 0.85136 0.0
Co165 Co 0.15488 0.74324 0.11574 0.0
C166 C 0.25148 0.88344 0.07015 0.0
C167 C 0.17136 0.8762 0.15088 0.0
C168 C 0.21741 0.94301 0.13772 0.0
N169 N 0.19312 0.83917 0.10903 0.0
N170 N 0.26756 0.94725 0.08694 0.0
H171 H 0.28338 0.8693 0.03496 0.0
H172 H 0.12668 0.85605 0.19103 0.0
C173 C 1.00861 0.69205 0.0664 0.0
O174 O 1.0062 0.64522 1.01451 0.0
N175 N 0.11708 0.64675 0.12436 0.0
C176 C 0.14651 0.61052 0.10315 0.0
C177 C 0.10194 0.54363 0.11879 0.0
C178 C 0.05635 0.60161 0.15696 0.0
N179 N 0.04526 0.53851 0.15158 0.0
C180 C 0.22209 0.7385 0.95864 0.0
C181 C 0.15774 0.78271 0.84703 0.0
C182 C 0.21409 0.78091 0.8158 0.0
C183 C 0.24518 0.75641 0.87205 0.0
C184 C 0.13706 0.76548 0.93381 0.0
N185 N 0.16895 0.74368 0.98912 0.0
H186 H 0.25084 0.72618 1.00296 0.0
H187 H 0.09903 0.77564 0.95748 0.0
H188 H 0.19644 0.63053 0.07706 0.0
H189 H 0.01997 0.61396 0.18214 0.0
O190 O 0.24108 0.75888 0.1595 0.0
O191 O 0.1565 0.74756 0.24103 0.0
O192 O 0.06331 0.73378 0.10398 0.0
C193 C 0.21811 0.7607 0.23724 0.0
H194 H 0.21525 0.98514 0.16573 0.0
H195 H 0.10908 0.5019 0.10223 0.0
H196 H 0.13135 0.80042 0.80597 0.0
H197 H 0.28951 0.75508 0.85135 0.0
Co198 Co 0.87242 0.60201 0.42731 0.0
C199 C 0.77587 0.64566 0.47303 0.0
C200 C 0.85595 0.71851 0.39223 0.0
C201 C 0.80993 0.73929 0.40546 0.0
N202 N 0.8342 0.65972 0.43408 0.0
N203 N 0.75982 0.69342 0.45632 0.0
H204 H 0.74397 0.59961 0.50822 0.0
H205 H 0.90061 0.74302 0.35202 0.0
C206 C 0.0187 0.69707 0.47662 0.0
O207 O 0.02111 0.65265 0.52852 0.0
N208 N 0.91018 0.54328 0.41865 0.0
C209 C 0.88069 0.47761 0.43975 0.0
C210 C 0.92521 0.45525 0.42407 0.0
C211 C 0.9709 0.55884 0.38606 0.0
N212 N 0.98192 0.50676 0.39125 0.0
C213 C 0.80523 0.53005 0.58443 0.0
C214 C 0.8696 0.63861 0.69604 0.0
C215 C 0.81324 0.58046 0.72726 0.0
C216 C 0.78214 0.52486 0.67102 0.0
C217 C 0.89027 0.64205 0.60925 0.0
N218 N 0.85836 0.58835 0.55394 0.0
H219 H 0.77646 0.48897 0.54011 0.0
H220 H 0.9283 0.69024 0.58557 0.0
H221 H 0.83075 0.44771 0.46583 0.0
H222 H 1.00734 0.60759 0.36101 0.0
O223 O 0.78618 0.53145 0.3836 0.0
O224 O 0.87078 0.60474 0.30202 0.0
O225 O 0.964 0.6841 0.43905 0.0
C226 C 0.80917 0.55627 0.30588 0.0
H227 H 0.81208 0.78358 0.37744 0.0
H228 H 0.91803 0.40637 0.44066 0.0
H229 H 0.89599 0.68271 0.73709 0.0
H230 H 0.73781 0.47921 0.69172 0.0
Co231 Co 0.27952 0.86786 0.4273 0.0
C232 C 0.13932 0.77129 0.47295 0.0
C233 C 0.14655 0.8514 0.39222 0.0
C234 C 0.07974 0.80535 0.40539 0.0
N235 N 0.18359 0.82965 0.43406 0.0
N236 N 0.07551 0.75521 0.45618 0.0
H237 H 0.15347 0.73939 0.50815 0.0
H238 H 0.16669 0.89607 0.35205 0.0
C239 C 0.33074 0.01415 0.47661 0.0
O240 O 0.37756 0.01655 0.52852 0.0
N241 N 0.37601 0.90563 0.41864 0.0
C242 C 0.41219 0.87614 0.43975 0.0
C243 C 0.47907 0.92066 0.42407 0.0
C244 C 0.42117 0.96635 0.38605 0.0
N245 N 0.48426 0.97737 0.39124 0.0
C246 C 0.28429 0.80069 0.58443 0.0
C247 C 0.24009 0.86506 0.69602 0.0
C248 C 0.24188 0.8087 0.72726 0.0
C249 C 0.26638 0.7776 0.67102 0.0
C250 C 0.25732 0.88572 0.60923 0.0
N251 N 0.27911 0.85381 0.55393 0.0
H252 H 0.2966 0.77192 0.54011 0.0
H253 H 0.24715 0.92374 0.58555 0.0
H254 H 0.39216 0.82621 0.46584 0.0
H255 H 0.40886 1.00279 0.36099 0.0
O256 O 0.26384 0.78163 0.3836 0.0
O257 O 0.27516 0.86622 0.30201 0.0
O258 O 0.289 0.95945 0.43903 0.0
C259 C 0.26202 0.80461 0.30587 0.0
H260 H 0.0376 0.8075 0.37738 0.0
H261 H 0.52078 0.91349 0.44066 0.0
H262 H 0.22238 0.89145 0.73708 0.0
H263 H 0.26771 0.73327 0.69172 0.0
Co264 Co 0.42076 0.27497 0.42738 0.0
C265 C 0.37713 0.13476 0.47298 0.0
C266 C 0.30426 0.142 0.39226 0.0
C267 C 0.2835 0.0752 0.40541 0.0
N268 N 0.36305 0.17904 0.43411 0.0
N269 N 0.3294 0.07095 0.45619 0.0
H270 H 0.42319 0.14891 0.50818 0.0
H271 H 0.27973 0.16216 0.3521 0.0
C272 C 0.3257 0.32619 0.47668 0.0
O273 O 0.37012 0.37302 0.52858 0.0
N274 N 0.47948 0.37146 0.41874 0.0
C275 C 0.54515 0.40765 0.43988 0.0
C276 C 0.56751 0.47453 0.42417 0.0
C277 C 0.46393 0.41662 0.38611 0.0
N278 N 0.516 0.47971 0.39131 0.0
C279 C 0.4927 0.27971 0.58449 0.0
C280 C 0.38414 0.23552 0.6961 0.0
C281 C 0.44229 0.23731 0.72732 0.0
C282 C 0.49789 0.2618 0.67108 0.0
C283 C 0.38071 0.25276 0.60931 0.0
N284 N 0.4344 0.27454 0.554 0.0
H285 H 0.53378 0.29202 0.54016 0.0
H286 H 0.33252 0.2426 0.58564 0.0
H287 H 0.57504 0.38762 0.46599 0.0
H288 H 0.41518 0.4043 0.36103 0.0
O289 O 0.49132 0.25931 0.38366 0.0
O290 O 0.41804 0.27063 0.30208 0.0
O291 O 0.33866 0.28445 0.43912 0.0
C292 C 0.46651 0.25749 0.30593 0.0
H293 H 0.23921 0.03306 0.37738 0.0
H294 H 0.61638 0.51623 0.44078 0.0
H295 H 0.34005 0.21781 0.73716 0.0
H296 H 0.54354 0.26312 0.69177 0.0
Co297 Co 0.15488 0.4162 0.4274 0.0
C298 C 0.25148 0.37259 0.47301 0.0
C299 C 0.17137 0.29971 0.39229 0.0
C300 C 0.21741 0.27895 0.40546 0.0
N301 N 0.19313 0.35851 0.43413 0.0
N302 N 0.26756 0.32486 0.45624 0.0
H303 H 0.28339 0.41865 0.50821 0.0
H304 H 0.12668 0.27518 0.35214 0.0
C305 C 1.00861 0.32112 0.47672 0.0
O306 O 1.0062 0.36554 0.52862 0.0
N307 N 0.11708 0.47489 0.41878 0.0
C308 C 0.14651 0.54055 0.43998 0.0
C309 C 0.10194 0.56287 0.42434 0.0
C310 C 0.05636 0.45929 0.38616 0.0
N311 N 0.04526 0.5113 0.39154 0.0
C312 C 0.22209 0.48815 0.58451 0.0
C313 C 0.15774 0.37959 0.69612 0.0
C314 C 0.21409 0.43773 0.72734 0.0
C315 C 0.24519 0.49334 0.6711 0.0
C316 C 0.13706 0.37615 0.60933 0.0
N317 N 0.16896 0.42984 0.55403 0.0
H318 H 0.25084 0.52923 0.54018 0.0
H319 H 0.09903 0.32796 0.58566 0.0
H320 H 0.19644 0.57047 0.46608 0.0
H321 H 0.01998 0.41057 0.36098 0.0
O322 O 0.2411 0.48677 0.38367 0.0
O323 O 0.15649 0.41348 0.30211 0.0
O324 O 0.06331 0.33408 0.43916 0.0
C325 C 0.2181 0.46195 0.30595 0.0
H326 H 0.21526 0.23466 0.37746 0.0
H327 H 0.10908 0.61173 0.4409 0.0
H328 H 0.13135 0.33549 0.73717 0.0
H329 H 0.28951 0.53899 0.69179 0.0
Co330 Co 0.74779 0.15032 0.4274 0.0
C331 C 0.88799 0.24691 0.47303 0.0
C332 C 0.88076 0.16681 0.3923 0.0
C333 C 0.94756 0.21284 0.40548 0.0
N334 N 0.84372 0.18856 0.43413 0.0
N335 N 0.9518 0.26298 0.45627 0.0
H336 H 0.87384 0.27881 0.50823 0.0
H337 H 0.86061 0.12213 0.35213 0.0
C338 C 0.69659 1.00405 0.47671 0.0
O339 O 0.64976 1.00164 0.52861 0.0
N340 N 0.6513 0.11253 0.41877 0.0
C341 C 0.61506 0.14195 0.43997 0.0
C342 C 0.54818 0.09739 0.42433 0.0
C343 C 0.60617 0.0518 0.38615 0.0
N344 N 0.54307 0.04071 0.39152 0.0
C345 C 0.74304 0.21752 0.58451 0.0
C346 C 0.78725 0.15317 0.69612 0.0
C347 C 0.78545 0.20953 0.72734 0.0
C348 C 0.76095 0.24062 0.67109 0.0
C349 C 0.77001 0.1325 0.60934 0.0
N350 N 0.74821 0.16439 0.55403 0.0
H351 H 0.73071 0.24628 0.54018 0.0
H352 H 0.78017 0.09447 0.58566 0.0
H353 H 0.63507 0.19188 0.46607 0.0
H354 H 0.61852 0.01543 0.36097 0.0
O355 O 0.76344 0.23654 0.38367 0.0
O356 O 0.75213 0.15194 0.30211 0.0
O357 O 0.73833 0.05876 0.43915 0.0
C358 C 0.76526 0.21355 0.30595 0.0
H359 H 0.98971 0.21069 0.37748 0.0
H360 H 0.50644 0.10452 0.44088 0.0
H361 H 0.80496 0.12679 0.73718 0.0
H362 H 0.75962 0.28495 0.69179 0.0
Co363 Co 0.60657 0.74324 0.42738 0.0
C364 C 0.65018 0.88344 0.47302 0.0
C365 C 0.72306 0.87621 0.39228 0.0
C366 C 0.74382 0.94301 0.40547 0.0
N367 N 0.66427 0.83917 0.43412 0.0
N368 N 0.69792 0.94725 0.45626 0.0
H369 H 0.60413 0.86928 0.50822 0.0
H370 H 0.74759 0.85607 0.35211 0.0
C371 C 0.70166 0.69206 0.47672 0.0
O372 O 0.65724 0.64523 0.52862 0.0
N373 N 0.54788 0.64675 0.41875 0.0
C374 C 0.48221 0.61052 0.43993 0.0
C375 C 0.45989 0.54363 0.42432 0.0
C376 C 0.56348 0.60162 0.38617 0.0
N377 N 0.51146 0.53851 0.39155 0.0
C378 C 0.53461 0.73848 0.58449 0.0
C379 C 0.64318 0.7827 0.6961 0.0
C380 C 0.58503 0.7809 0.72732 0.0
C381 C 0.52942 0.75639 0.67108 0.0
C382 C 0.64662 0.76546 0.60931 0.0
N383 N 0.59292 0.74366 0.55401 0.0
H384 H 0.49353 0.72615 0.54017 0.0
H385 H 0.69481 0.77563 0.58564 0.0
H386 H 0.45228 0.63053 0.466 0.0
H387 H 0.61221 0.61396 0.36101 0.0
O388 O 0.536 0.75889 0.38365 0.0
O389 O 0.60929 0.74758 0.30208 0.0
O390 O 0.68869 0.73379 0.43913 0.0
C391 C 0.56081 0.76071 0.30593 0.0
H392 H 0.78812 0.98516 0.37746 0.0
H393 H 0.41102 0.5019 0.44087 0.0
H394 H 0.68728 0.80041 0.73716 0.0
H395 H 0.48377 0.75506 0.69177 0.0
loop_
_geom_bond_atom_site_label_1
_geom_bond_atom_site_label_2
_geom_bond_distance
_geom_bond_site_symmetry_2
_ccdc_geom_bond_type
Co0 N4 2.148 . S
Co0 N10 2.128 . S
Co0 N20 2.194 1_554 S
Co0 O25 2.351 . S
Co0 O26 2.155 . S
Co0 O27 2.096 . S
C1 N4 1.301 . S
C1 N5 1.328 . S
C1 H6 0.930 . S
C2 C3 1.333 . S
C2 N4 1.317 . S
C2 H7 0.930 . S
C3 C2 1.333 . S
C3 N5 1.350 . S
C3 H29 0.931 . S
N4 Co0 2.148 . S
N4 C1 1.301 . S
N4 C2 1.317 . S
N5 C1 1.328 . S
N5 C3 1.350 . S
H6 C1 0.930 . S
H7 C2 0.930 . S
C8 O9 1.223 1_564 S
C8 O27 1.243 1_565 S
O9 C8 1.223 1_546 S
N10 Co0 2.128 . S
N10 C11 1.355 . S
N10 C13 1.311 . S
C11 N10 1.355 . S
C11 C12 1.363 . S
C11 H23 0.929 . S
C12 C11 1.363 . S
C12 N14 1.375 . S
C12 H30 0.931 . S
C13 N10 1.311 . S
C13 N14 1.347 . S
C13 H24 0.929 . S
N14 C12 1.375 . S
N14 C13 1.347 . S
C15 C18 1.365 . S
C15 N20 1.328 . S
C15 H21 0.930 . S
C16 C17 1.362 . S
C16 C19 1.378 . S
C16 H31 0.929 . S
C17 C16 1.362 . S
C17 C18 1.366 . S
C18 C15 1.365 . S
C18 C17 1.366 . S
C18 H32 0.930 . S
C19 C16 1.378 . S
C19 N20 1.315 . S
C19 H22 0.930 . S
N20 Co0 2.194 1_556 S
N20 C15 1.328 . S
N20 C19 1.315 . S
H21 C15 0.930 . S
H22 C19 0.930 . S
H23 C11 0.929 . S
H24 C13 0.929 . S
O25 Co0 2.351 . S
O25 C28 1.244 . S
O26 Co0 2.155 . S
O26 C28 1.240 . S
O27 Co0 2.096 . S
O27 C8 1.243 1_545 S
C28 O25 1.244 . S
C28 O26 1.240 . S
H29 C3 0.931 . S
H30 C12 0.931 . S
H31 C16 0.929 . S
H32 C18 0.930 . S
Co33 N37 2.148 . S
Co33 N43 2.128 . S
Co33 N53 2.194 1_554 S
Co33 O58 2.351 . S
Co33 O59 2.155 . S
Co33 O60 2.096 . S
C34 N37 1.301 . S
C34 N38 1.328 . S
C34 H39 0.930 . S
C35 C36 1.333 . S
C35 N37 1.317 . S
C35 H40 0.930 . S
C36 C35 1.333 . S
C36 N38 1.350 . S
C36 H62 0.931 . S
N37 Co33 2.148 . S
N37 C34 1.301 . S
N37 C35 1.317 . S
N38 C34 1.328 . S
N38 C36 1.350 . S
H39 C34 0.930 . S
H40 C35 0.930 . S
C41 O42 1.224 1_554 S
C41 O60 1.247 . S
O42 C41 1.224 1_556 S
N43 Co33 2.128 . S
N43 C44 1.355 . S
N43 C46 1.311 . S
C44 N43 1.355 . S
C44 C45 1.363 . S
C44 H56 0.929 . S
C45 C44 1.363 . S
C45 N47 1.375 . S
C45 H63 0.931 . S
C46 N43 1.311 . S
C46 N47 1.347 . S
C46 H57 0.929 . S
N47 C45 1.375 . S
N47 C46 1.347 . S
C48 C51 1.365 . S
C48 N53 1.328 . S
C48 H54 0.930 . S
C49 C50 1.362 . S
C49 C52 1.378 . S
C49 H64 0.929 . S
C50 C49 1.362 . S
C50 C51 1.366 . S
C51 C48 1.365 . S
C51 C50 1.366 . S
C51 H65 0.930 . S
C52 C49 1.378 . S
C52 N53 1.315 . S
C52 H55 0.930 . S
N53 Co33 2.194 1_556 S
N53 C48 1.328 . S
N53 C52 1.315 . S
H54 C48 0.930 . S
H55 C52 0.930 . S
H56 C44 0.929 . S
H57 C46 0.929 . S
O58 Co33 2.351 . S
O58 C61 1.244 . S
O59 Co33 2.155 . S
O59 C61 1.240 . S
O60 Co33 2.096 . S
O60 C41 1.247 . S
C61 O58 1.244 . S
C61 O59 1.240 . S
H62 C36 0.931 . S
H63 C45 0.931 . S
H64 C49 0.929 . S
H65 C51 0.930 . S
Co66 N70 2.148 . S
Co66 N76 2.128 . S
Co66 N86 2.194 1_554 S
Co66 O91 2.351 . S
Co66 O92 2.155 . S
Co66 O93 2.096 . S
C67 N70 1.301 . S
C67 N71 1.328 . S
C67 H72 0.930 . S
C68 C69 1.333 . S
C68 N70 1.317 . S
C68 H73 0.930 . S
C69 C68 1.333 . S
C69 N71 1.350 . S
C69 H95 0.931 . S
N70 Co66 2.148 . S
N70 C67 1.301 . S
N70 C68 1.317 . S
N71 C67 1.328 . S
N71 C69 1.350 . S
H72 C67 0.930 . S
H73 C68 0.930 . S
C74 O75 1.222 1_454 S
C74 O93 1.242 1_455 S
O75 C74 1.222 1_656 S
N76 Co66 2.128 . S
N76 C77 1.355 . S
N76 C79 1.311 . S
C77 N76 1.355 . S
C77 C78 1.363 . S
C77 H89 0.929 . S
C78 C77 1.363 . S
C78 N80 1.375 . S
C78 H96 0.931 . S
C79 N76 1.311 . S
C79 N80 1.347 . S
C79 H90 0.929 . S
N80 C78 1.375 . S
N80 C79 1.347 . S
C81 C84 1.365 . S
C81 N86 1.328 . S
C81 H87 0.930 . S
C82 C83 1.362 . S
C82 C85 1.378 . S
C82 H97 0.929 . S
C83 C82 1.362 . S
C83 C84 1.366 . S
C84 C81 1.365 . S
C84 C83 1.366 . S
C84 H98 0.930 . S
C85 C82 1.378 . S
C85 N86 1.315 . S
C85 H88 0.930 . S
N86 Co66 2.194 1_556 S
N86 C81 1.328 . S
N86 C85 1.315 . S
H87 C81 0.930 . S
H88 C85 0.930 . S
H89 C77 0.929 . S
H90 C79 0.929 . S
O91 Co66 2.351 . S
O91 C94 1.244 . S
O92 Co66 2.155 . S
O92 C94 1.240 . S
O93 Co66 2.096 . S
O93 C74 1.242 1_655 S
C94 O91 1.244 . S
C94 O92 1.240 . S
H95 C69 0.931 . S
H96 C78 0.931 . S
H97 C82 0.929 . S
H98 C84 0.930 . S
Co99 N103 2.148 . S
Co99 N109 2.128 . S
Co99 N119 2.194 1_554 S
Co99 O124 2.351 . S
Co99 O125 2.155 . S
Co99 O126 2.096 . S
C100 N103 1.301 . S
C100 N104 1.328 . S
C100 H105 0.930 . S
C101 C102 1.333 . S
C101 N103 1.317 . S
C101 H106 0.930 . S
C102 C101 1.333 . S
C102 N104 1.350 . S
C102 H128 0.931 . S
N103 Co99 2.148 . S
N103 C100 1.301 . S
N103 C101 1.317 . S
N104 C100 1.328 . S
N104 C102 1.350 . S
H105 C100 0.930 . S
H106 C101 0.930 . S
C107 O108 1.223 1_544 S
C107 O126 1.243 1_545 S
O108 C107 1.223 1_566 S
N109 Co99 2.128 . S
N109 C110 1.355 . S
N109 C112 1.311 . S
C110 N109 1.355 . S
C110 C111 1.363 . S
C110 H122 0.929 . S
C111 C110 1.363 . S
C111 N113 1.375 . S
C111 H129 0.931 . S
C112 N109 1.311 . S
C112 N113 1.347 . S
C112 H123 0.929 . S
N113 C111 1.375 . S
N113 C112 1.347 . S
C114 C117 1.365 . S
C114 N119 1.328 . S
C114 H120 0.930 . S
C115 C116 1.362 . S
C115 C118 1.378 . S
C115 H130 0.929 . S
C116 C115 1.362 . S
C116 C117 1.366 . S
C117 C114 1.365 . S
C117 C116 1.366 . S
C117 H131 0.930 . S
C118 C115 1.378 . S
C118 N119 1.315 . S
C118 H121 0.930 . S
N119 Co99 2.194 1_556 S
N119 C114 1.328 . S
N119 C118 1.315 . S
H120 C114 0.930 . S
H121 C118 0.930 . S
H122 C110 0.929 . S
H123 C112 0.929 . S
O124 Co99 2.351 . S
O124 C127 1.244 . S
O125 Co99 2.155 . S
O125 C127 1.240 . S
O126 Co99 2.096 . S
O126 C107 1.243 1_565 S
C127 O124 1.244 . S
C127 O125 1.240 . S
H128 C102 0.931 . S
H129 C111 0.931 . S
H130 C115 0.929 . S
H131 C117 0.930 . S
Co132 N136 2.148 . S
Co132 N142 2.128 . S
Co132 N152 2.194 1_554 S
Co132 O157 2.351 . S
Co132 O158 2.155 . S
Co132 O159 2.096 . S
C133 N136 1.301 . S
C133 N137 1.328 . S
C133 H138 0.930 . S
C134 C135 1.333 . S
C134 N136 1.317 . S
C134 H139 0.930 . S
C135 C134 1.333 . S
C135 N137 1.350 . S
C135 H161 0.931 . S
N136 Co132 2.148 . S
N136 C133 1.301 . S
N136 C134 1.317 . S
N137 C133 1.328 . S
N137 C135 1.350 . S
H138 C133 0.930 . S
H139 C134 0.930 . S
C140 O141 1.224 1_554 S
C140 O159 1.247 . S
O141 C140 1.224 1_556 S
N142 Co132 2.128 . S
N142 C143 1.355 . S
N142 C145 1.311 . S
C143 N142 1.355 . S
C143 C144 1.363 . S
C143 H155 0.929 . S
C144 C143 1.363 . S
C144 N146 1.375 . S
C144 H162 0.931 . S
C145 N142 1.311 . S
C145 N146 1.347 . S
C145 H156 0.929 . S
N146 C144 1.375 . S
N146 C145 1.347 . S
C147 C150 1.365 . S
C147 N152 1.328 . S
C147 H153 0.930 . S
C148 C149 1.362 . S
C148 C151 1.378 . S
C148 H163 0.929 . S
C149 C148 1.362 . S
C149 C150 1.366 . S
C150 C147 1.365 . S
C150 C149 1.366 . S
C150 H164 0.930 . S
C151 C148 1.378 . S
C151 N152 1.315 . S
C151 H154 0.930 . S
N152 Co132 2.194 1_556 S
N152 C147 1.328 . S
N152 C151 1.315 . S
H153 C147 0.930 . S
H154 C151 0.930 . S
H155 C143 0.929 . S
H156 C145 0.929 . S
O157 Co132 2.351 . S
O157 C160 1.244 . S
O158 Co132 2.155 . S
O158 C160 1.240 . S
O159 Co132 2.096 . S
O159 C140 1.247 . S
C160 O157 1.244 . S
C160 O158 1.240 . S
H161 C135 0.931 . S
H162 C144 0.931 . S
H163 C148 0.929 . S
H164 C150 0.930 . S
Co165 N169 2.148 . S
Co165 N175 2.128 . S
Co165 N185 2.194 1_554 S
Co165 O190 2.351 . S
Co165 O191 2.155 . S
Co165 O192 2.096 . S
C166 N169 1.301 . S
C166 N170 1.328 . S
C166 H171 0.930 . S
C167 C168 1.333 . S
C167 N169 1.317 . S
C167 H172 0.930 . S
C168 C167 1.333 . S
C168 N170 1.350 . S
C168 H194 0.931 . S
N169 Co165 2.148 . S
N169 C166 1.301 . S
N169 C167 1.317 . S
N170 C166 1.328 . S
N170 C168 1.350 . S
H171 C166 0.930 . S
H172 C167 0.930 . S
C173 O174 1.222 1_654 S
C173 O192 1.242 1_655 S
O174 C173 1.222 1_456 S
N175 Co165 2.128 . S
N175 C176 1.355 . S
N175 C178 1.311 . S
C176 N175 1.355 . S
C176 C177 1.363 . S
C176 H188 0.929 . S
C177 C176 1.363 . S
C177 N179 1.375 . S
C177 H195 0.931 . S
C178 N175 1.311 . S
C178 N179 1.347 . S
C178 H189 0.929 . S
N179 C177 1.375 . S
N179 C178 1.347 . S
C180 C183 1.365 . S
C180 N185 1.328 . S
C180 H186 0.930 . S
C181 C182 1.362 . S
C181 C184 1.378 . S
C181 H196 0.929 . S
C182 C181 1.362 . S
C182 C183 1.366 . S
C183 C180 1.365 . S
C183 C182 1.366 . S
C183 H197 0.930 . S
C184 C181 1.378 . S
C184 N185 1.315 . S
C184 H187 0.930 . S
N185 Co165 2.194 1_556 S
N185 C180 1.328 . S
N185 C184 1.315 . S
H186 C180 0.930 . S
H187 C184 0.930 . S
H188 C176 0.929 . S
H189 C178 0.929 . S
O190 Co165 2.351 . S
O190 C193 1.244 . S
O191 Co165 2.155 . S
O191 C193 1.240 . S
O192 Co165 2.096 . S
O192 C173 1.242 1_455 S
C193 O190 1.244 . S
C193 O191 1.240 . S
H194 C168 0.931 . S
H195 C177 0.931 . S
H196 C181 0.929 . S
H197 C183 0.930 . S
Co198 N202 2.148 . S
Co198 N208 2.128 . S
Co198 N218 2.194 . S
Co198 O223 2.351 . S
Co198 O224 2.155 . S
Co198 O225 2.096 . S
C199 N202 1.301 . S
C199 N203 1.328 . S
C199 H204 0.930 . S
C200 C201 1.333 . S
C200 N202 1.317 . S
C200 H205 0.930 . S
C201 C200 1.333 . S
C201 N203 1.350 . S
C201 H227 0.931 . S
N202 Co198 2.148 . S
N202 C199 1.301 . S
N202 C200 1.317 . S
N203 C199 1.328 . S
N203 C201 1.350 . S
H204 C199 0.930 . S
H205 C200 0.930 . S
C206 O207 1.223 1_455 S
C206 O225 1.243 1_455 S
O207 C206 1.223 1_655 S
N208 Co198 2.128 . S
N208 C209 1.355 . S
N208 C211 1.311 . S
C209 N208 1.355 . S
C209 C210 1.363 . S
C209 H221 0.929 . S
C210 C209 1.363 . S
C210 N212 1.375 . S
C210 H228 0.931 . S
C211 N208 1.311 . S
C211 N212 1.347 . S
C211 H222 0.929 . S
N212 C210 1.375 . S
N212 C211 1.347 . S
C213 C216 1.365 . S
C213 N218 1.328 . S
C213 H219 0.929 . S
C214 C215 1.362 . S
C214 C217 1.378 . S
C214 H229 0.929 . S
C215 C214 1.362 . S
C215 C216 1.366 . S
C216 C213 1.365 . S
C216 C215 1.366 . S
C216 H230 0.930 . S
C217 C214 1.378 . S
C217 N218 1.315 . S
C217 H220 0.930 . S
N218 Co198 2.194 . S
N218 C213 1.328 . S
N218 C217 1.315 . S
H219 C213 0.929 . S
H220 C217 0.930 . S
H221 C209 0.929 . S
H222 C211 0.929 . S
O223 Co198 2.351 . S
O223 C226 1.244 . S
O224 Co198 2.155 . S
O224 C226 1.240 . S
O225 Co198 2.096 . S
O225 C206 1.243 1_655 S
C226 O223 1.244 . S
C226 O224 1.240 . S
H227 C201 0.931 . S
H228 C210 0.931 . S
H229 C214 0.929 . S
H230 C216 0.930 . S
Co231 N235 2.148 . S
Co231 N241 2.128 . S
Co231 N251 2.194 . S
Co231 O256 2.351 . S
Co231 O257 2.155 . S
Co231 O258 2.096 . S
C232 N235 1.301 . S
C232 N236 1.328 . S
C232 H237 0.930 . S
C233 C234 1.333 . S
C233 N235 1.317 . S
C233 H238 0.930 . S
C234 C233 1.333 . S
C234 N236 1.350 . S
C234 H260 0.931 . S
N235 Co231 2.148 . S
N235 C232 1.301 . S
N235 C233 1.317 . S
N236 C232 1.328 . S
N236 C234 1.350 . S
H237 C232 0.930 . S
H238 C233 0.930 . S
C239 O240 1.222 1_545 S
C239 O258 1.242 1_545 S
O240 C239 1.222 1_565 S
N241 Co231 2.128 . S
N241 C242 1.355 . S
N241 C244 1.311 . S
C242 N241 1.355 . S
C242 C243 1.363 . S
C242 H254 0.929 . S
C243 C242 1.363 . S
C243 N245 1.375 . S
C243 H261 0.931 . S
C244 N241 1.311 . S
C244 N245 1.347 . S
C244 H255 0.929 . S
N245 C243 1.375 . S
N245 C244 1.347 . S
C246 C249 1.365 . S
C246 N251 1.328 . S
C246 H252 0.929 . S
C247 C248 1.362 . S
C247 C250 1.378 . S
C247 H262 0.929 . S
C248 C247 1.362 . S
C248 C249 1.366 . S
C249 C246 1.365 . S
C249 C248 1.366 . S
C249 H263 0.930 . S
C250 C247 1.378 . S
C250 N251 1.315 . S
C250 H253 0.930 . S
N251 Co231 2.194 . S
N251 C246 1.328 . S
N251 C250 1.315 . S
H252 C246 0.929 . S
H253 C250 0.930 . S
H254 C242 0.929 . S
H255 C244 0.929 . S
O256 Co231 2.351 . S
O256 C259 1.244 . S
O257 Co231 2.155 . S
O257 C259 1.240 . S
O258 Co231 2.096 . S
O258 C239 1.242 1_565 S
C259 O256 1.244 . S
C259 O257 1.240 . S
H260 C234 0.931 . S
H261 C243 0.931 . S
H262 C247 0.929 . S
H263 C249 0.930 . S
Co264 N268 2.148 . S
Co264 N274 2.128 . S
Co264 N284 2.194 . S
Co264 O289 2.351 . S
Co264 O290 2.155 . S
Co264 O291 2.096 . S
C265 N268 1.301 . S
C265 N269 1.328 . S
C265 H270 0.930 . S
C266 C267 1.333 . S
C266 N268 1.317 . S
C266 H271 0.930 . S
C267 C266 1.333 . S
C267 N269 1.350 . S
C267 H293 0.931 . S
N268 Co264 2.148 . S
N268 C265 1.301 . S
N268 C266 1.317 . S
N269 C265 1.328 . S
N269 C267 1.350 . S
H270 C265 0.930 . S
H271 C266 0.930 . S
C272 O273 1.224 . S
C272 O291 1.247 . S
O273 C272 1.224 . S
N274 Co264 2.128 . S
N274 C275 1.355 . S
N274 C277 1.311 . S
C275 N274 1.355 . S
C275 C276 1.363 . S
C275 H287 0.929 . S
C276 C275 1.363 . S
C276 N278 1.375 . S
C276 H294 0.931 . S
C277 N274 1.311 . S
C277 N278 1.347 . S
C277 H288 0.929 . S
N278 C276 1.375 . S
N278 C277 1.347 . S
C279 C282 1.365 . S
C279 N284 1.328 . S
C279 H285 0.929 . S
C280 C281 1.362 . S
C280 C283 1.378 . S
C280 H295 0.929 . S
C281 C280 1.362 . S
C281 C282 1.366 . S
C282 C279 1.365 . S
C282 C281 1.366 . S
C282 H296 0.930 . S
C283 C280 1.378 . S
C283 N284 1.315 . S
C283 H286 0.930 . S
N284 Co264 2.194 . S
N284 C279 1.328 . S
N284 C283 1.315 . S
H285 C279 0.929 . S
H286 C283 0.930 . S
H287 C275 0.929 . S
H288 C277 0.929 . S
O289 Co264 2.351 . S
O289 C292 1.244 . S
O290 Co264 2.155 . S
O290 C292 1.240 . S
O291 Co264 2.096 . S
O291 C272 1.247 . S
C292 O289 1.244 . S
C292 O290 1.240 . S
H293 C267 0.931 . S
H294 C276 0.931 . S
H295 C280 0.929 . S
H296 C282 0.930 . S
Co297 N301 2.148 . S
Co297 N307 2.128 . S
Co297 N317 2.194 . S
Co297 O322 2.351 . S
Co297 O323 2.155 . S
Co297 O324 2.096 . S
C298 N301 1.301 . S
C298 N302 1.328 . S
C298 H303 0.930 . S
C299 C300 1.333 . S
C299 N301 1.317 . S
C299 H304 0.930 . S
C300 C299 1.333 . S
C300 N302 1.350 . S
C300 H326 0.931 . S
N301 Co297 2.148 . S
N301 C298 1.301 . S
N301 C299 1.317 . S
N302 C298 1.328 . S
N302 C300 1.350 . S
H303 C298 0.930 . S
H304 C299 0.930 . S
C305 O306 1.223 1_655 S
C305 O324 1.243 1_655 S
O306 C305 1.223 1_455 S
N307 Co297 2.128 . S
N307 C308 1.355 . S
N307 C310 1.311 . S
C308 N307 1.355 . S
C308 C309 1.363 . S
C308 H320 0.929 . S
C309 C308 1.363 . S
C309 N311 1.375 . S
C309 H327 0.931 . S
C310 N307 1.311 . S
C310 N311 1.347 . S
C310 H321 0.929 . S
N311 C309 1.375 . S
N311 C310 1.347 . S
C312 C315 1.365 . S
C312 N317 1.328 . S
C312 H318 0.929 . S
C313 C314 1.362 . S
C313 C316 1.378 . S
C313 H328 0.929 . S
C314 C313 1.362 . S
C314 C315 1.366 . S
C315 C312 1.365 . S
C315 C314 1.366 . S
C315 H329 0.930 . S
C316 C313 1.378 . S
C316 N317 1.315 . S
C316 H319 0.930 . S
N317 Co297 2.194 . S
N317 C312 1.328 . S
N317 C316 1.315 . S
H318 C312 0.929 . S
H319 C316 0.930 . S
H320 C308 0.929 . S
H321 C310 0.929 . S
O322 Co297 2.351 . S
O322 C325 1.244 . S
O323 Co297 2.155 . S
O323 C325 1.240 . S
O324 Co297 2.096 . S
O324 C305 1.243 1_455 S
C325 O322 1.244 . S
C325 O323 1.240 . S
H326 C300 0.931 . S
H327 C309 0.931 . S
H328 C313 0.929 . S
H329 C315 0.930 . S
Co330 N334 2.148 . S
Co330 N340 2.128 . S
Co330 N350 2.194 . S
Co330 O355 2.351 . S
Co330 O356 2.155 . S
Co330 O357 2.096 . S
C331 N334 1.301 . S
C331 N335 1.328 . S
C331 H336 0.930 . S
C332 C333 1.333 . S
C332 N334 1.317 . S
C332 H337 0.930 . S
C333 C332 1.333 . S
C333 N335 1.350 . S
C333 H359 0.931 . S
N334 Co330 2.148 . S
N334 C331 1.301 . S
N334 C332 1.317 . S
N335 C331 1.328 . S
N335 C333 1.350 . S
H336 C331 0.930 . S
H337 C332 0.930 . S
C338 O339 1.222 1_565 S
C338 O357 1.242 1_565 S
O339 C338 1.222 1_545 S
N340 Co330 2.128 . S
N340 C341 1.355 . S
N340 C343 1.311 . S
C341 N340 1.355 . S
C341 C342 1.363 . S
C341 H353 0.929 . S
C342 C341 1.363 . S
C342 N344 1.375 . S
C342 H360 0.931 . S
C343 N340 1.311 . S
C343 N344 1.347 . S
C343 H354 0.929 . S
N344 C342 1.375 . S
N344 C343 1.347 . S
C345 C348 1.365 . S
C345 N350 1.328 . S
C345 H351 0.929 . S
C346 C347 1.362 . S
C346 C349 1.378 . S
C346 H361 0.929 . S
C347 C346 1.362 . S
C347 C348 1.366 . S
C348 C345 1.365 . S
C348 C347 1.366 . S
C348 H362 0.930 . S
C349 C346 1.378 . S
C349 N350 1.315 . S
C349 H352 0.930 . S
N350 Co330 2.194 . S
N350 C345 1.328 . S
N350 C349 1.315 . S
H351 C345 0.929 . S
H352 C349 0.930 . S
H353 C341 0.929 . S
H354 C343 0.929 . S
O355 Co330 2.351 . S
O355 C358 1.244 . S
O356 Co330 2.155 . S
O356 C358 1.240 . S
O357 Co330 2.096 . S
O357 C338 1.242 1_545 S
C358 O355 1.244 . S
C358 O356 1.240 . S
H359 C333 0.931 . S
H360 C342 0.931 . S
H361 C346 0.929 . S
H362 C348 0.930 . S
Co363 N367 2.148 . S
Co363 N373 2.128 . S
Co363 N383 2.194 . S
Co363 O388 2.351 . S
Co363 O389 2.155 . S
Co363 O390 2.096 . S
C364 N367 1.301 . S
C364 N368 1.328 . S
C364 H369 0.930 . S
C365 C366 1.333 . S
C365 N367 1.317 . S
C365 H370 0.930 . S
C366 C365 1.333 . S
C366 N368 1.350 . S
C366 H392 0.931 . S
N367 Co363 2.148 . S
N367 C364 1.301 . S
N367 C365 1.317 . S
N368 C364 1.328 . S
N368 C366 1.350 . S
H369 C364 0.930 . S
H370 C365 0.930 . S
C371 O372 1.224 . S
C371 O390 1.247 . S
O372 C371 1.224 . S
N373 Co363 2.128 . S
N373 C374 1.355 . S
N373 C376 1.311 . S
C374 N373 1.355 . S
C374 C375 1.363 . S
C374 H386 0.929 . S
C375 C374 1.363 . S
C375 N377 1.375 . S
C375 H393 0.931 . S
C376 N373 1.311 . S
C376 N377 1.347 . S
C376 H387 0.929 . S
N377 C375 1.375 . S
N377 C376 1.347 . S
C378 C381 1.365 . S
C378 N383 1.328 . S
C378 H384 0.929 . S
C379 C380 1.362 . S
C379 C382 1.378 . S
C379 H394 0.929 . S
C380 C379 1.362 . S
C380 C381 1.366 . S
C381 C378 1.365 . S
C381 C380 1.366 . S
C381 H395 0.930 . S
C382 C379 1.378 . S
C382 N383 1.315 . S
C382 H385 0.930 . S
N383 Co363 2.194 . S
N383 C378 1.328 . S
N383 C382 1.315 . S
H384 C378 0.929 . S
H385 C382 0.930 . S
H386 C374 0.929 . S
H387 C376 0.929 . S
O388 Co363 2.351 . S
O388 C391 1.244 . S
O389 Co363 2.155 . S
O389 C391 1.240 . S
O390 Co363 2.096 . S
O390 C371 1.247 . S
C391 O388 1.244 . S
C391 O389 1.240 . S
H392 C366 0.931 . S
H393 C375 0.931 . S
H394 C379 0.929 . S
H395 C381 0.930 . S
N14 N113 1.876 1_545 S
N146 N47 1.876 . S
N179 N80 1.876 1_455 S
N311 N212 1.876 1_455 S
N344 N245 1.876 1_545 S
N278 N377 1.876 . S
C8 N170 1.665 . S
N5 C41 1.665 . S
C74 N38 1.671 . S
N71 C107 1.665 . S
N104 C140 1.665 . S
N137 C173 1.671 . S
N236 C206 1.665 . S
N269 C239 1.671 . S
N302 C272 1.665 . S
C305 N335 1.665 . S
C338 N368 1.671 . S
C371 N203 1.665 . S
C292 C28 1.263 . S
C61 C325 1.263 . S
C94 C358 1.263 . S
C127 C391 1.263 . S
C226 C160 1.263 . S
C193 C259 1.263 . S
C380 C116 1.761 . S
C215 C149 1.761 . S
C248 C182 1.761 . S
C17 C281 1.761 . S
C50 C314 1.761 . S
C83 C347 1.761 . S
