# Generated by pormake.
# Topology zfi, (5)-cn, num edge types: 1
# Building blocks:
#     Node 0, Type 0, BuildingBlock: XOMCOT_clean_sbu_1, # of connection points: 5
#     Node 1, Type 0, BuildingBlock: XOMCOT_clean_sbu_1, # of connection points: 5
#     Node 2, Type 0, BuildingBlock: XOMCOT_clean_sbu_1, # of connection points: 5
#     Node 3, Type 0, BuildingBlock: XOMCOT_clean_sbu_1, # of connection points: 5
#     Node 4, Type 0, BuildingBlock: XOMCOT_clean_sbu_1, # of connection points: 5
#     Node 5, Type 0, BuildingBlock: XOMCOT_clean_sbu_1, # of connection points: 5
#     Node 6, Type 0, BuildingBlock: XOMCOT_clean_sbu_1, # of connection points: 5
#     Node 7, Type 0, BuildingBlock: XOMCOT_clean_sbu_1, # of connection points: 5
#     Node 8, Type 0, BuildingBlock: XOMCOT_clean_sbu_1, # of connection points: 5
#     Node 9, Type 0, BuildingBlock: XOMCOT_clean_sbu_1, # of connection points: 5
#     Node 10, Type 0, BuildingBlock: XOMCOT_clean_sbu_1, # of connection points: 5
#     Node 11, Type 0, BuildingBlock: XOMCOT_clean_sbu_1, # of connection points: 5
#     Node 12, Type 0, BuildingBlock: XOMCOT_clean_sbu_1, # of connection points: 5
#     Node 13, Type 0, BuildingBlock: XOMCOT_clean_sbu_1, # of connection points: 5
#     Node 14, Type 0, BuildingBlock: XOMCOT_clean_sbu_1, # of connection points: 5
#     Node 15, Type 0, BuildingBlock: XOMCOT_clean_sbu_1, # of connection points: 5
#     Edge 16, Type (0, 0), BuildingBlock: XIVTED_clean_linker_0, # of connection points: 2
#     Edge 17, Type (0, 0), BuildingBlock: XIVTED_clean_linker_0, # of connection points: 2
#     Edge 18, Type (0, 0), BuildingBlock: XIVTED_clean_linker_0, # of connection points: 2
#     Edge 19, Type (0, 0), BuildingBlock: XIVTED_clean_linker_0, # of connection points: 2
#     Edge 20, Type (0, 0), BuildingBlock: XIVTED_clean_linker_0, # of connection points: 2
#     Edge 21, Type (0, 0), BuildingBlock: XIVTED_clean_linker_0, # of connection points: 2
#     Edge 22, Type (0, 0), BuildingBlock: XIVTED_clean_linker_0, # of connection points: 2
#     Edge 23, Type (0, 0), BuildingBlock: XIVTED_clean_linker_0, # of connection points: 2
#     Edge 24, Type (0, 0), BuildingBlock: XIVTED_clean_linker_0, # of connection points: 2
#     Edge 25, Type (0, 0), BuildingBlock: XIVTED_clean_linker_0, # of connection points: 2
#     Edge 26, Type (0, 0), BuildingBlock: XIVTED_clean_linker_0, # of connection points: 2
#     Edge 27, Type (0, 0), BuildingBlock: XIVTED_clean_linker_0, # of connection points: 2
#     Edge 28, Type (0, 0), BuildingBlock: XIVTED_clean_linker_0, # of connection points: 2
#     Edge 29, Type (0, 0), BuildingBlock: XIVTED_clean_linker_0, # of connection points: 2
#     Edge 30, Type (0, 0), BuildingBlock: XIVTED_clean_linker_0, # of connection points: 2
#     Edge 31, Type (0, 0), BuildingBlock: XIVTED_clean_linker_0, # of connection points: 2
#     Edge 32, Type (0, 0), BuildingBlock: XIVTED_clean_linker_0, # of connection points: 2
#     Edge 33, Type (0, 0), BuildingBlock: XIVTED_clean_linker_0, # of connection points: 2
#     Edge 34, Type (0, 0), BuildingBlock: XIVTED_clean_linker_0, # of connection points: 2
#     Edge 35, Type (0, 0), BuildingBlock: XIVTED_clean_linker_0, # of connection points: 2
#     Edge 36, Type (0, 0), BuildingBlock: XIVTED_clean_linker_0, # of connection points: 2
#     Edge 37, Type (0, 0), BuildingBlock: XIVTED_clean_linker_0, # of connection points: 2
#     Edge 38, Type (0, 0), BuildingBlock: XIVTED_clean_linker_0, # of connection points: 2
#     Edge 39, Type (0, 0), BuildingBlock: XIVTED_clean_linker_0, # of connection points: 2
#     Edge 40, Type (0, 0), BuildingBlock: XIVTED_clean_linker_0, # of connection points: 2
#     Edge 41, Type (0, 0), BuildingBlock: XIVTED_clean_linker_0, # of connection points: 2
#     Edge 42, Type (0, 0), BuildingBlock: XIVTED_clean_linker_0, # of connection points: 2
#     Edge 43, Type (0, 0), BuildingBlock: XIVTED_clean_linker_0, # of connection points: 2
#     Edge 44, Type (0, 0), BuildingBlock: XIVTED_clean_linker_0, # of connection points: 2
#     Edge 45, Type (0, 0), BuildingBlock: XIVTED_clean_linker_0, # of connection points: 2
#     Edge 46, Type (0, 0), BuildingBlock: XIVTED_clean_linker_0, # of connection points: 2
#     Edge 47, Type (0, 0), BuildingBlock: XIVTED_clean_linker_0, # of connection points: 2
#     Edge 48, Type (0, 0), BuildingBlock: XIVTED_clean_linker_0, # of connection points: 2
#     Edge 49, Type (0, 0), BuildingBlock: XIVTED_clean_linker_0, # of connection points: 2
#     Edge 50, Type (0, 0), BuildingBlock: XIVTED_clean_linker_0, # of connection points: 2
#     Edge 51, Type (0, 0), BuildingBlock: XIVTED_clean_linker_0, # of connection points: 2
#     Edge 52, Type (0, 0), BuildingBlock: XIVTED_clean_linker_0, # of connection points: 2
#     Edge 53, Type (0, 0), BuildingBlock: XIVTED_clean_linker_0, # of connection points: 2
#     Edge 54, Type (0, 0), BuildingBlock: XIVTED_clean_linker_0, # of connection points: 2
#     Edge 55, Type (0, 0), BuildingBlock: XIVTED_clean_linker_0, # of connection points: 2
# Relax obj value: 0.108
# Max RMSD: 0.125
# Mean RMSD: 0.125
data_MOF--net-zfi--node1-XOMCOT_clean_sbu_1--edge1-XIVTED_clean_linker_0
_symmetry_space_group_name_H-M    P1
_symmetry_Int_Tables_number       1
_symmetry_cell_setting            triclinic
loop_
_symmetry_equiv_pos_as_xyz
'x, y, z'
_cell_length_a     39.207615
_cell_length_b     39.219144
_cell_length_c     50.277997
_cell_angle_alpha  89.977594
_cell_angle_beta   89.96879
_cell_angle_gamma 90.018598
loop_
_atom_site_label
_atom_site_type_symbol
_atom_site_fract_x
_atom_site_fract_y
_atom_site_fract_z
_atom_type_partial_charge
C0 C 0.62518 0.12734 0.08898 0.0
C1 C 0.63905 0.15949 0.08696 0.0
N2 N 0.66732 0.16077 0.10205 0.0
N3 N 0.64463 0.10779 0.10513 0.0
C4 C 0.66986 0.12942 0.11313 0.0
H5 H 0.60301 0.11875 0.07819 0.0
Co6 Co 0.6406 0.05935 0.11007 0.0
C7 C 0.6222 0.04826 0.16781 0.0
O8 O 0.63721 0.01836 0.16678 0.0
N9 N 0.63673 0.01141 0.11404 0.0
C10 C 0.64708 0.95566 0.11684 0.0
C11 C 0.66129 0.98723 0.11268 0.0
C12 C 0.60764 0.9935 0.11837 0.0
N13 N 0.61335 0.95968 0.12042 0.0
O14 O 0.59513 0.05875 0.09368 0.0
H15 H 0.68799 0.99171 0.10902 0.0
H16 H 0.58281 1.00514 0.12086 0.0
O17 O 0.62153 0.06715 0.14684 0.0
C18 C 0.59833 0.05018 0.06915 0.0
O19 O 0.6294 0.04787 0.05949 0.0
N20 N 0.68617 0.05794 0.12216 0.0
C21 C 0.75488 0.04248 0.12985 0.0
C22 C 0.73371 0.05014 0.15158 0.0
C23 C 0.69943 0.05842 0.1473 0.0
C24 C 0.70726 0.05427 0.10078 0.0
C25 C 0.74163 0.0463 0.10414 0.0
H26 H 0.68405 0.06475 0.16426 0.0
H27 H 0.69663 0.05503 0.08095 0.0
H28 H 0.69107 0.12206 0.12556 0.0
H29 H 0.62962 0.18005 0.07461 0.0
H30 H 0.66049 0.93154 0.11689 0.0
H31 H 0.74334 0.04882 0.17174 0.0
H32 H 0.75695 0.0408 0.08674 0.0
C33 C 0.38012 0.62279 0.09201 0.0
C34 C 0.34784 0.63645 0.09015 0.0
N35 N 0.3473 0.66619 0.10344 0.0
N36 N 0.40047 0.64384 0.10622 0.0
C37 C 0.37922 0.66987 0.11324 0.0
H38 H 0.38816 0.59945 0.08253 0.0
Co39 Co 0.44909 0.63994 0.11037 0.0
C40 C 0.46166 0.62283 0.16812 0.0
O41 O 0.49123 0.63843 0.16646 0.0
N42 N 0.49706 0.63612 0.1136 0.0
C43 C 0.55301 0.64589 0.11512 0.0
C44 C 0.52147 0.66035 0.1113 0.0
C45 C 0.51474 0.607 0.1182 0.0
N46 N 0.54868 0.61235 0.11944 0.0
O47 O 0.44939 0.59419 0.09446 0.0
H48 H 0.51718 0.68696 0.10716 0.0
H49 H 0.50288 0.58243 0.12143 0.0
O50 O 0.44228 0.6214 0.14746 0.0
C51 C 0.45713 0.59658 0.0697 0.0
O52 O 0.45836 0.62727 0.05923 0.0
N53 N 0.45085 0.6857 0.122 0.0
C54 C 0.46614 0.75461 0.12886 0.0
C55 C 0.45863 0.73383 0.15085 0.0
C56 C 0.45036 0.69945 0.14698 0.0
C57 C 0.45448 0.70638 0.10038 0.0
C58 C 0.46236 0.74084 0.10332 0.0
H59 H 0.44398 0.68439 0.16412 0.0
H60 H 0.45369 0.69538 0.08067 0.0
H61 H 0.38713 0.69227 0.12409 0.0
H62 H 0.32662 0.6257 0.07923 0.0
H63 H 0.57731 0.65898 0.11441 0.0
H64 H 0.45995 0.74386 0.1709 0.0
H65 H 0.46776 0.75586 0.08573 0.0
C66 C 0.88233 0.38182 0.08813 0.0
C67 C 0.86837 0.3497 0.08627 0.0
N68 N 0.84133 0.34793 0.10267 0.0
N69 N 0.86419 0.40085 0.10553 0.0
C70 C 0.83967 0.37895 0.1144 0.0
H71 H 0.90345 0.39085 0.0763 0.0
Co72 Co 0.86811 0.44922 0.1105 0.0
C73 C 0.88634 0.4605 0.16822 0.0
O74 O 0.87119 0.49031 0.16712 0.0
N75 N 0.87181 0.49717 0.11445 0.0
C76 C 0.86129 0.5529 0.11703 0.0
C77 C 0.84718 0.52126 0.11301 0.0
C78 C 0.90085 0.51519 0.11871 0.0
N79 N 0.89503 0.54901 0.12061 0.0
O80 O 0.91362 0.44989 0.09423 0.0
H81 H 0.8205 0.51666 0.10933 0.0
H82 H 0.92571 0.50365 0.12121 0.0
O83 O 0.88709 0.44151 0.14731 0.0
C84 C 0.91067 0.45926 0.06986 0.0
O85 O 0.87969 0.46225 0.06017 0.0
N86 N 0.8225 0.45047 0.12251 0.0
C87 C 0.75376 0.4659 0.13001 0.0
C88 C 0.77485 0.4585 0.15182 0.0
C89 C 0.80915 0.45023 0.14763 0.0
C90 C 0.80148 0.45386 0.10108 0.0
C91 C 0.76708 0.46181 0.10434 0.0
H92 H 0.82448 0.44412 0.16467 0.0
H93 H 0.81219 0.45294 0.08127 0.0
H94 H 0.81942 0.38601 0.12789 0.0
H95 H 0.87678 0.32957 0.07308 0.0
H96 H 0.84781 0.57698 0.11695 0.0
H97 H 0.76516 0.46005 0.17196 0.0
H98 H 0.75181 0.46711 0.08688 0.0
C99 C 0.12641 0.88051 0.08572 0.0
C100 C 0.15829 0.86607 0.08375 0.0
N101 N 0.1606 0.84063 0.1016 0.0
N102 N 0.10808 0.86431 0.10468 0.0
C103 C 0.13015 0.84046 0.11433 0.0
H104 H 0.11692 0.90037 0.07285 0.0
Co105 Co 0.05992 0.8687 0.11024 0.0
C106 C 0.04977 0.88632 0.16832 0.0
O107 O 0.01959 0.87186 0.16732 0.0
N108 N 0.01213 0.8728 0.11474 0.0
C109 C 0.95628 0.8629 0.11748 0.0
C110 C 0.98775 0.84844 0.11332 0.0
C111 C 0.99448 0.90199 0.11918 0.0
N112 N 0.9606 0.89657 0.12113 0.0
O113 O 0.05947 0.91456 0.09433 0.0
H114 H 0.99205 0.82175 0.10948 0.0
H115 H 0.00634 0.92671 0.12165 0.0
O116 O 0.0685 0.88699 0.14724 0.0
C117 C 0.04947 0.91208 0.07007 0.0
O118 O 0.04592 0.88128 0.06014 0.0
N119 N 0.0584 0.82287 0.12178 0.0
C120 C 0.04265 0.75403 0.12847 0.0
C121 C 0.04994 0.77472 0.15053 0.0
C122 C 0.05835 0.80908 0.14675 0.0
C123 C 0.05492 0.80227 0.10011 0.0
C124 C 0.04684 0.76783 0.10297 0.0
H125 H 0.06431 0.82409 0.16398 0.0
H126 H 0.05596 0.81332 0.08042 0.0
H127 H 0.12342 0.82158 0.12907 0.0
H128 H 0.1778 0.87286 0.06944 0.0
H129 H 0.93201 0.84972 0.11735 0.0
H130 H 0.04824 0.76468 0.17056 0.0
H131 H 0.04159 0.75288 0.08533 0.0
C132 C 0.13255 0.88539 0.43677 0.0
C133 C 0.14743 0.85379 0.43913 0.0
N134 N 0.17155 0.85074 0.42027 0.0
N135 N 0.1472 0.90282 0.41656 0.0
C136 C 0.17054 0.88046 0.40658 0.0
H137 H 0.11372 0.89547 0.45029 0.0
Co138 Co 0.14249 0.95075 0.41036 0.0
C139 C 0.1245 0.95985 0.35233 0.0
O140 O 0.13932 0.98986 0.35305 0.0
N141 N 0.13812 0.99843 0.4053 0.0
C142 C 0.14773 0.05424 0.40174 0.0
C143 C 0.16239 0.02294 0.40618 0.0
C144 C 0.10877 0.01584 0.40088 0.0
N145 N 0.11401 0.04969 0.39845 0.0
O146 O 0.09689 0.95127 0.42676 0.0
H147 H 0.18916 0.01885 0.40983 0.0
H148 H 0.08406 1.00382 0.39881 0.0
O149 O 0.1237 0.94142 0.37358 0.0
C150 C 0.10006 0.96211 0.45076 0.0
O151 O 0.13115 0.96665 0.45988 0.0
N152 N 0.18815 0.95217 0.39841 0.0
C153 C 0.25687 0.96793 0.39098 0.0
C154 C 0.236 0.95979 0.3692 0.0
C155 C 0.20172 0.95136 0.37336 0.0
C156 C 0.20896 0.9564 0.41987 0.0
C157 C 0.24333 0.96452 0.41665 0.0
H158 H 0.18659 0.94463 0.35636 0.0
H159 H 0.1981 0.95595 0.43965 0.0
H160 H 0.18844 0.88662 0.39096 0.0
H161 H 0.1421 0.83512 0.45445 0.0
H162 H 0.16079 0.07856 0.40146 0.0
H163 H 0.24586 0.96082 0.34909 0.0
H164 H 0.25842 0.97042 0.43408 0.0
C165 C 0.63037 0.12555 0.42912 0.0
C166 C 0.66258 0.13931 0.43115 0.0
N167 N 0.66341 0.16856 0.41721 0.0
N168 N 0.61035 0.14606 0.41415 0.0
C169 C 0.63175 0.17184 0.40685 0.0
H170 H 0.62212 0.10258 0.43904 0.0
Co171 Co 0.56184 0.14206 0.40958 0.0
C172 C 0.55015 0.12406 0.3519 0.0
O173 O 0.52048 0.13951 0.3531 0.0
N174 N 0.51389 0.13813 0.40593 0.0
C175 C 0.45799 0.14793 0.4037 0.0
C176 C 0.4895 0.16244 0.40759 0.0
C177 C 0.49622 0.10892 0.40161 0.0
N178 N 0.46231 0.11428 0.39996 0.0
O179 O 0.56142 0.09662 0.42592 0.0
H180 H 0.49378 0.18915 0.41134 0.0
H181 H 0.50808 0.08425 0.39893 0.0
O182 O 0.56921 0.12304 0.37276 0.0
C183 C 0.5533 0.09975 0.45054 0.0
O184 O 0.55143 0.13077 0.46032 0.0
N185 N 0.56024 0.18762 0.39754 0.0
C186 C 0.54496 0.2564 0.3901 0.0
C187 C 0.55265 0.2354 0.36829 0.0
C188 C 0.56089 0.20108 0.37245 0.0
C189 C 0.55645 0.20853 0.41899 0.0
C190 C 0.54858 0.24293 0.41576 0.0
H191 H 0.56735 0.18582 0.35545 0.0
H192 H 0.5571 0.19775 0.43878 0.0
H193 H 0.62408 0.19385 0.39542 0.0
H194 H 0.68352 0.12904 0.44265 0.0
H195 H 0.43371 0.16107 0.40399 0.0
H196 H 0.55144 0.2452 0.34817 0.0
H197 H 0.54303 0.25813 0.43321 0.0
C198 C 0.38962 0.6312 0.42376 0.0
C199 C 0.3762 0.66365 0.42516 0.0
N200 N 0.34449 0.66302 0.41501 0.0
N201 N 0.36645 0.60965 0.41307 0.0
C202 C 0.33931 0.63026 0.40767 0.0
H203 H 0.41463 0.62401 0.4308 0.0
Co204 Co 0.37055 0.56097 0.4097 0.0
C205 C 0.38802 0.5476 0.35215 0.0
O206 O 0.37229 0.51811 0.35395 0.0
N207 N 0.37473 0.51296 0.40708 0.0
C208 C 0.3654 0.45693 0.4059 0.0
C209 C 0.35072 0.48837 0.40959 0.0
C210 C 0.40399 0.49547 0.40252 0.0
N211 N 0.3989 0.46148 0.40145 0.0
O212 O 0.41603 0.56127 0.42599 0.0
H213 H 0.32406 0.49244 0.41371 0.0
H214 H 0.42845 0.5075 0.39912 0.0
O215 O 0.38946 0.56713 0.37272 0.0
C216 C 0.41328 0.55482 0.45094 0.0
O217 O 0.38245 0.5544 0.46121 0.0
N218 N 0.32498 0.5587 0.39772 0.0
C219 C 0.25611 0.54364 0.39037 0.0
C220 C 0.27707 0.55148 0.36855 0.0
C221 C 0.31143 0.55969 0.37268 0.0
C222 C 0.30412 0.55467 0.4192 0.0
C223 C 0.26968 0.5469 0.41601 0.0
H224 H 0.32665 0.56646 0.3557 0.0
H225 H 0.31495 0.55519 0.43898 0.0
H226 H 0.3154 0.62155 0.39949 0.0
H227 H 0.38873 0.68593 0.43328 0.0
H228 H 0.35249 0.43255 0.4067 0.0
H229 H 0.26718 0.55053 0.34845 0.0
H230 H 0.2545 0.54125 0.43347 0.0
C231 C 0.88486 0.38255 0.4339 0.0
C232 C 0.8528 0.36851 0.43585 0.0
N233 N 0.85052 0.34249 0.41853 0.0
N234 N 0.90334 0.36551 0.41549 0.0
C235 C 0.88117 0.34157 0.40614 0.0
H236 H 0.8943 0.40286 0.44636 0.0
Co237 Co 0.95155 0.36956 0.40997 0.0
C238 C 0.96186 0.38752 0.35209 0.0
O239 O 0.9917 0.37238 0.35297 0.0
N240 N 0.99943 0.37339 0.40548 0.0
C241 C 0.05514 0.36304 0.40224 0.0
C242 C 0.02363 0.34885 0.40669 0.0
C243 C 0.01727 0.40246 0.40093 0.0
N244 N 0.05107 0.39675 0.39862 0.0
O245 O 0.95231 0.41511 0.42616 0.0
H246 H 0.01918 0.32217 0.41047 0.0
H247 H 0.00559 0.42727 0.39853 0.0
O248 O 0.94318 0.38841 0.37318 0.0
C249 C 0.96221 0.4122 0.45041 0.0
O250 O 0.96578 0.38123 0.46002 0.0
N251 N 0.9527 0.3239 0.39804 0.0
C252 C 0.96791 0.25514 0.3904 0.0
C253 C 0.95999 0.27621 0.36869 0.0
C254 C 0.95187 0.31051 0.37294 0.0
C255 C 0.95659 0.30291 0.41944 0.0
C256 C 0.96447 0.26852 0.41611 0.0
H257 H 0.94531 0.3258 0.35598 0.0
H258 H 0.95612 0.31364 0.43925 0.0
H259 H 0.88785 0.32216 0.39183 0.0
H260 H 0.83309 0.37604 0.44975 0.0
H261 H 0.07929 0.34965 0.40205 0.0
H262 H 0.96098 0.26649 0.34854 0.0
H263 H 0.97018 0.25327 0.43351 0.0
C264 C 0.38648 0.88116 0.92726 0.0
C265 C 0.3729 0.84887 0.92934 0.0
N266 N 0.34273 0.84836 0.91664 0.0
N267 N 0.36494 0.90157 0.91354 0.0
C268 C 0.33868 0.88032 0.90703 0.0
H269 H 0.41022 0.88914 0.93616 0.0
Co270 Co 0.36897 0.95013 0.90894 0.0
C271 C 0.38676 0.96166 0.85125 0.0
O272 O 0.37089 0.9911 0.85238 0.0
N273 N 0.37298 0.9981 0.90518 0.0
C274 C 0.36315 0.05393 0.90224 0.0
C275 C 0.34868 0.02253 0.90667 0.0
C276 C 0.40217 0.01569 0.9005 0.0
N277 N 0.39678 0.04956 0.89835 0.0
O278 O 0.41436 0.95057 0.92538 0.0
H279 H 0.32197 0.01833 0.91052 0.0
H280 H 0.42683 1.00378 0.89778 0.0
O281 O 0.3881 0.94274 0.87218 0.0
C282 C 0.41116 0.95819 0.95009 0.0
O283 O 0.38011 0.95967 0.95989 0.0
N284 N 0.32344 0.9517 0.8968 0.0
C285 C 0.25443 0.96582 0.8891 0.0
C286 C 0.27557 0.95778 0.86744 0.0
C287 C 0.31001 0.95011 0.87174 0.0
C288 C 0.30246 0.95594 0.91817 0.0
C289 C 0.26796 0.96326 0.91481 0.0
H290 H 0.32534 0.94318 0.85488 0.0
H291 H 0.31322 0.95595 0.93798 0.0
H292 H 0.31595 0.88819 0.8966 0.0
H293 H 0.38407 0.82756 0.9399 0.0
H294 H 0.34999 0.0782 0.90218 0.0
H295 H 0.26575 0.95818 0.84731 0.0
H296 H 0.25267 0.96912 0.93216 0.0
C297 C 0.63097 0.38706 0.90385 0.0
C298 C 0.66318 0.37303 0.90538 0.0
N299 N 0.66057 0.34112 0.91522 0.0
N300 N 0.60784 0.36426 0.91266 0.0
C301 C 0.62679 0.33677 0.91981 0.0
H302 H 0.62467 0.41182 0.89574 0.0
Co303 Co 0.55983 0.36863 0.91069 0.0
C304 C 0.54531 0.38402 0.85299 0.0
O305 O 0.51678 0.36662 0.85495 0.0
N306 N 0.51174 0.37341 0.90891 0.0
C307 C 0.45543 0.36561 0.9084 0.0
C308 C 0.48648 0.35026 0.91232 0.0
C309 C 0.49498 0.40287 0.90354 0.0
N310 N 0.46086 0.39867 0.90288 0.0
O311 O 0.56157 0.41414 0.92657 0.0
H312 H 0.48965 0.32374 0.9172 0.0
H313 H 0.50762 0.42681 0.89929 0.0
O314 O 0.56458 0.38711 0.87355 0.0
C315 C 0.55684 0.41208 0.95176 0.0
O316 O 0.5576 0.38159 0.96261 0.0
N317 N 0.55712 0.32299 0.89889 0.0
C318 C 0.54331 0.25402 0.89078 0.0
C319 C 0.55389 0.27479 0.86956 0.0
C320 C 0.56174 0.30918 0.8742 0.0
C321 C 0.5502 0.30231 0.92001 0.0
C322 C 0.54301 0.26787 0.91644 0.0
H323 H 0.57096 0.32436 0.85786 0.0
H324 H 0.54833 0.31326 0.93971 0.0
H325 H 0.61598 0.31355 0.92767 0.0
H326 H 0.68646 0.38494 0.8985 0.0
H327 H 0.43069 0.35345 0.90975 0.0
H328 H 0.55559 0.26466 0.84956 0.0
H329 H 0.53523 0.25279 0.93345 0.0
C330 C 0.12955 0.62634 0.9348 0.0
C331 C 0.14397 0.65821 0.93687 0.0
N332 N 0.16927 0.66073 0.91891 0.0
N333 N 0.14563 0.60821 0.91568 0.0
C334 C 0.1694 0.6304 0.90604 0.0
H335 H 0.10978 0.61672 0.94771 0.0
Co336 Co 0.14111 0.56008 0.90998 0.0
C337 C 0.12423 0.55 0.85201 0.0
O338 O 0.13977 0.52038 0.85313 0.0
N339 N 0.13676 0.51227 0.90533 0.0
C340 C 0.14614 0.4564 0.90198 0.0
C341 C 0.16087 0.48765 0.90662 0.0
C342 C 0.10744 0.49499 0.9005 0.0
N343 N 0.11254 0.4611 0.89815 0.0
O344 O 0.0954 0.55971 0.92598 0.0
H345 H 0.18759 0.49165 0.91059 0.0
H346 H 0.08287 0.50712 0.89798 0.0
O347 O 0.12269 0.56871 0.87305 0.0
C348 C 0.09818 0.54937 0.95014 0.0
O349 O 0.12911 0.54533 0.9597 0.0
N350 N 0.1869 0.55857 0.89832 0.0
C351 C 0.25592 0.54394 0.89124 0.0
C352 C 0.23521 0.55219 0.8694 0.0
C353 C 0.20077 0.56005 0.87339 0.0
C354 C 0.20748 0.55416 0.91988 0.0
C355 C 0.24199 0.54656 0.91683 0.0
H356 H 0.18581 0.5671 0.85637 0.0
H357 H 0.19639 0.55417 0.93958 0.0
H358 H 0.18819 0.62389 0.89118 0.0
H359 H 0.13726 0.67758 0.95129 0.0
H360 H 0.15908 0.43202 0.90185 0.0
H361 H 0.24535 0.55177 0.84936 0.0
H362 H 0.25695 0.54055 0.93431 0.0
C363 C 0.87963 0.12294 0.90412 0.0
C364 C 0.84746 0.13704 0.90578 0.0
N365 N 0.85025 0.16912 0.91523 0.0
N366 N 0.90291 0.14586 0.91245 0.0
C367 C 0.8841 0.17351 0.91944 0.0
H368 H 0.88577 0.09802 0.89623 0.0
Co369 Co 0.95087 0.14125 0.91007 0.0
C370 C 0.96444 0.12544 0.85229 0.0
O371 O 0.99309 0.14269 0.85384 0.0
N372 N 0.99892 0.13621 0.90787 0.0
C373 C 0.05525 0.14379 0.90681 0.0
C374 C 0.02432 0.15925 0.91106 0.0
C375 C 0.01547 0.10669 0.90231 0.0
N376 N 0.04961 0.11076 0.9013 0.0
O377 O 0.94911 0.09587 0.92621 0.0
H378 H 0.02133 0.18576 0.91603 0.0
H379 H 1.00266 0.08282 0.89819 0.0
O380 O 0.94552 0.12257 0.87309 0.0
C381 C 0.95427 0.09816 0.95134 0.0
O382 O 0.95413 0.12879 0.96194 0.0
N383 N 0.95365 0.1868 0.89804 0.0
C384 C 0.96779 0.25562 0.88948 0.0
C385 C 0.95676 0.23479 0.86845 0.0
C386 C 0.94877 0.20048 0.87332 0.0
C387 C 0.96095 0.20758 0.919 0.0
C388 C 0.96833 0.24194 0.9152 0.0
H389 H 0.93922 0.18525 0.85714 0.0
H390 H 0.96301 0.19675 0.93873 0.0
H391 H 0.89505 0.19686 0.92692 0.0
H392 H 0.82407 0.12503 0.89927 0.0
H393 H 0.08005 0.15585 0.90794 0.0
H394 H 0.95482 0.2448 0.84843 0.0
H395 H 0.97644 0.25706 0.93207 0.0
C396 C 0.88361 0.12899 0.58806 0.0
C397 C 0.86953 0.16103 0.58601 0.0
N398 N 0.8425 0.16284 0.60242 0.0
N399 N 0.86554 0.11006 0.60559 0.0
C400 C 0.84096 0.13194 0.61436 0.0
H401 H 0.90474 0.11994 0.57627 0.0
Co402 Co 0.86953 0.06175 0.61083 0.0
C403 C 0.88848 0.05113 0.66862 0.0
O404 O 0.8736 0.02115 0.6678 0.0
N405 N 0.87325 0.01391 0.61506 0.0
C406 C 0.86261 0.95824 0.61797 0.0
C407 C 0.84856 0.98985 0.61377 0.0
C408 C 0.90225 0.99591 0.61938 0.0
N409 N 0.89636 0.96212 0.62151 0.0
O410 O 0.915 0.06097 0.59432 0.0
H411 H 0.82189 0.99449 0.61006 0.0
H412 H 0.92714 0.00745 0.62177 0.0
O413 O 0.88878 0.06993 0.64758 0.0
C414 C 0.91166 0.05155 0.56999 0.0
O415 O 0.88051 0.04854 0.56062 0.0
N416 N 0.82391 0.06049 0.62292 0.0
C417 C 0.75508 0.04479 0.62996 0.0
C418 C 0.77613 0.05145 0.65195 0.0
C419 C 0.81048 0.05988 0.64801 0.0
C420 C 0.80298 0.0576 0.60139 0.0
C421 C 0.76855 0.0496 0.60442 0.0
H422 H 0.82581 0.06526 0.66519 0.0
H423 H 0.81377 0.05904 0.58162 0.0
H424 H 0.82075 0.1249 0.6279 0.0
H425 H 0.87781 0.18105 0.57265 0.0
H426 H 0.84909 0.93417 0.61806 0.0
H427 H 0.76636 0.04923 0.67204 0.0
H428 H 0.75335 0.04482 0.58683 0.0
C429 C 0.38312 0.88425 0.58725 0.0
C430 C 0.35102 0.87028 0.5852 0.0
N431 N 0.34925 0.84299 0.60134 0.0
N432 N 0.40216 0.86586 0.60448 0.0
C433 C 0.38026 0.84116 0.61308 0.0
H434 H 0.39212 0.9056 0.57566 0.0
Co435 Co 0.45058 0.86986 0.6096 0.0
C436 C 0.46151 0.88807 0.66732 0.0
O437 O 0.49123 0.8727 0.66631 0.0
N438 N 0.49854 0.87366 0.6137 0.0
C439 C 0.55428 0.86325 0.61652 0.0
C440 C 0.5227 0.8491 0.61226 0.0
C441 C 0.51647 0.9027 0.61817 0.0
N442 N 0.5503 0.89695 0.62024 0.0
O443 O 0.45133 0.9153 0.59321 0.0
H444 H 0.5182 0.82244 0.60847 0.0
H445 H 0.50483 0.9275 0.62074 0.0
O446 O 0.44266 0.88897 0.64634 0.0
C447 C 0.46044 0.91212 0.5688 0.0
O448 O 0.46314 0.88106 0.55921 0.0
N449 N 0.45179 0.8243 0.62174 0.0
C450 C 0.4667 0.75552 0.62961 0.0
C451 C 0.4589 0.77674 0.65126 0.0
C452 C 0.4509 0.81105 0.64689 0.0
C453 C 0.45558 0.80319 0.60042 0.0
C454 C 0.46331 0.76878 0.60386 0.0
H455 H 0.44437 0.82645 0.66379 0.0
H456 H 0.45511 0.8138 0.58056 0.0
H457 H 0.38728 0.82071 0.62637 0.0
H458 H 0.3309 0.87884 0.57207 0.0
H459 H 0.5784 0.84981 0.61653 0.0
H460 H 0.45986 0.76711 0.67144 0.0
H461 H 0.46893 0.75342 0.58651 0.0
C462 C 0.62536 0.38205 0.59092 0.0
C463 C 0.63949 0.35001 0.58909 0.0
N464 N 0.66744 0.34891 0.60455 0.0
N465 N 0.6443 0.4017 0.60735 0.0
C466 C 0.6695 0.38026 0.61569 0.0
H467 H 0.60341 0.39053 0.57981 0.0
Co468 Co 0.63996 0.45009 0.61215 0.0
C469 C 0.62126 0.46132 0.6699 0.0
O470 O 0.63598 0.49136 0.66872 0.0
N471 N 0.63582 0.49795 0.61596 0.0
C472 C 0.64565 0.55383 0.61822 0.0
C473 C 0.66016 0.52233 0.61439 0.0
C474 C 0.60657 0.51561 0.62011 0.0
N475 N 0.61195 0.54951 0.62179 0.0
O476 O 0.59442 0.45034 0.5958 0.0
H477 H 0.6869 0.51804 0.61073 0.0
H478 H 0.58184 0.50377 0.62266 0.0
O479 O 0.6209 0.44224 0.64903 0.0
C480 C 0.59734 0.45909 0.57128 0.0
O481 O 0.6283 0.46149 0.56141 0.0
N482 N 0.68561 0.45193 0.62413 0.0
C483 C 0.75424 0.46846 0.63127 0.0
C484 C 0.73325 0.46125 0.65322 0.0
C485 C 0.69901 0.45243 0.64923 0.0
C486 C 0.70653 0.45527 0.60262 0.0
C487 C 0.74085 0.46372 0.6057 0.0
H488 H 0.68374 0.4466 0.66637 0.0
H489 H 0.6958 0.45386 0.58284 0.0
H490 H 0.69035 0.3878 0.62842 0.0
H491 H 0.63046 0.32941 0.57661 0.0
H492 H 0.65881 0.5781 0.61797 0.0
H493 H 0.74296 0.46332 0.67332 0.0
H494 H 0.75601 0.46887 0.58814 0.0
C495 C 0.12845 0.62715 0.59063 0.0
C496 C 0.16059 0.64111 0.58883 0.0
N497 N 0.16156 0.66948 0.60381 0.0
N498 N 0.10859 0.64662 0.60654 0.0
C499 C 0.13002 0.67198 0.61461 0.0
H500 H 0.12008 0.60488 0.57985 0.0
Co501 Co 0.06006 0.64238 0.61103 0.0
C502 C 0.04797 0.62473 0.66874 0.0
O503 O 0.01809 0.63972 0.66722 0.0
N504 N 0.01203 0.63827 0.61452 0.0
C505 C 0.95612 0.64818 0.61643 0.0
C506 C 0.98768 0.6626 0.61261 0.0
C507 C 0.99424 0.60911 0.61887 0.0
N508 N 0.9603 0.61454 0.62036 0.0
O509 O 0.05998 0.59678 0.59501 0.0
H510 H 0.99206 0.68927 0.60875 0.0
H511 H 0.00603 0.58443 0.62172 0.0
O512 O 0.06729 0.6238 0.64801 0.0
C513 C 0.05143 0.59958 0.57045 0.0
O514 O 0.04891 0.63049 0.56054 0.0
N515 N 0.05822 0.68806 0.62277 0.0
C516 C 0.04308 0.75694 0.62979 0.0
C517 C 0.0503 0.73603 0.65175 0.0
C518 C 0.05845 0.70166 0.6478 0.0
C519 C 0.05482 0.70885 0.6012 0.0
C520 C 0.04703 0.7433 0.60422 0.0
H521 H 0.06457 0.68651 0.66494 0.0
H522 H 0.05578 0.69795 0.58146 0.0
H523 H 0.12239 0.69323 0.62689 0.0
H524 H 0.18138 0.63164 0.57673 0.0
H525 H 0.93188 0.66139 0.61599 0.0
H526 H 0.04882 0.74595 0.67182 0.0
H527 H 0.04183 0.75843 0.58666 0.0
H528 H 0.62313 0.90281 0.14966 0.0
H529 H 0.45243 0.81353 0.10104 0.0
H530 H 0.54796 0.95593 0.10286 0.0
H531 H 0.51581 0.77359 0.16387 0.0
H532 H 0.48532 0.86668 0.10215 0.0
H533 H 0.58309 0.85572 0.15566 0.0
C534 C 0.59809 0.90452 0.1407 0.0
C535 C 0.5889 0.93309 0.12556 0.0
C536 C 0.49165 0.84648 0.11597 0.0
C537 C 0.54284 0.87926 0.13224 0.0
C538 C 0.47295 0.81613 0.11532 0.0
C539 C 0.48151 0.78898 0.13229 0.0
C540 C 0.51942 0.84951 0.13345 0.0
C541 C 0.50813 0.79387 0.15055 0.0
C542 C 0.57513 0.87776 0.14427 0.0
C543 C 0.55594 0.93434 0.11473 0.0
N544 N 0.52641 0.8233 0.15039 0.0
N545 N 0.5342 0.90756 0.11798 0.0
H546 H 0.73596 0.51579 0.16519 0.0
H547 H 0.55034 0.54636 0.10328 0.0
H548 H 0.6942 0.45288 0.10277 0.0
H549 H 0.60699 0.62205 0.14697 0.0
H550 H 0.59751 0.50591 0.10977 0.0
H551 H 0.68292 0.54831 0.16619 0.0
C552 C 0.71535 0.5083 0.15209 0.0
C553 C 0.71964 0.48167 0.13374 0.0
C554 C 0.59944 0.53131 0.11808 0.0
C555 C 0.659 0.51929 0.13447 0.0
C556 C 0.57254 0.55427 0.11449 0.0
C557 C 0.57502 0.58762 0.12442 0.0
C558 C 0.62871 0.54171 0.13203 0.0
C559 C 0.60437 0.59675 0.13865 0.0
C560 C 0.6852 0.52713 0.15248 0.0
C561 C 0.69215 0.4735 0.11698 0.0
N562 N 0.63006 0.57395 0.14201 0.0
N563 N 0.66306 0.4924 0.11761 0.0
H564 H 0.05617 0.69503 0.10068 0.0
H565 H 0.88512 0.60618 0.14943 0.0
H566 H 0.99254 0.73534 0.16324 0.0
H567 H 0.96042 0.55268 0.10298 0.0
H568 H 0.92512 0.65335 0.15513 0.0
H569 H 0.02308 0.64199 0.1018 0.0
C570 C 0.03555 0.69255 0.11489 0.0
C571 C 0.02701 0.71975 0.1318 0.0
C572 C 0.93311 0.63122 0.14387 0.0
C573 C 0.98887 0.65936 0.13299 0.0
C574 C 0.91018 0.60441 0.14048 0.0
C575 C 0.91942 0.5757 0.12554 0.0
C576 C 0.96543 0.62963 0.13187 0.0
C577 C 0.9524 0.57438 0.1147 0.0
C578 C 0.01673 0.66226 0.11556 0.0
C579 C 1.00023 0.71501 0.14998 0.0
N580 N 0.97412 0.6012 0.11779 0.0
N581 N 0.98187 0.68564 0.14984 0.0
H582 H 0.95846 0.96206 0.10369 0.0
H583 H 0.77282 0.99325 0.16559 0.0
H584 H 0.90267 0.88754 0.14935 0.0
H585 H 0.81443 0.05515 0.10243 0.0
H586 H 0.826 0.96101 0.16702 0.0
H587 H 0.91111 1.00242 0.10963 0.0
C588 C 0.93642 0.95439 0.11523 0.0
C589 C 0.93424 0.92137 0.12586 0.0
C590 C 0.82366 0.9819 0.15304 0.0
C591 C 0.88031 0.96721 0.13283 0.0
C592 C 0.79342 1.00059 0.15241 0.0
C593 C 0.78905 0.02684 0.13374 0.0
C594 C 0.84987 0.98951 0.13494 0.0
C595 C 0.81654 0.0348 0.11688 0.0
C596 C 0.90941 0.97731 0.1185 0.0
C597 C 0.90507 0.91257 0.14048 0.0
N598 N 0.84571 0.01605 0.11775 0.0
N599 N 0.87926 0.93531 0.14351 0.0
H600 H 0.0164 0.2369 0.35412 0.0
H601 H 0.04883 0.05188 0.41659 0.0
H602 H 0.95571 0.19577 0.41819 0.0
H603 H 0.1223 0.10714 0.36952 0.0
H604 H 0.00826 0.09908 0.4108 0.0
H605 H 0.0485 0.18367 0.35245 0.0
C606 C 0.00929 0.21641 0.36746 0.0
C607 C 0.98343 0.22093 0.38645 0.0
C608 C 0.03318 0.10069 0.40158 0.0
C609 C 0.02063 0.16005 0.38496 0.0
C610 C 0.05621 0.07376 0.40477 0.0
C611 C 0.08901 0.07586 0.39371 0.0
C612 C 0.04295 0.12962 0.38693 0.0
C613 C 0.09746 0.10482 0.37872 0.0
C614 C 0.02791 0.18613 0.36668 0.0
C615 C 0.97576 0.19356 0.40349 0.0
N616 N 0.07462 0.13056 0.37581 0.0
N617 N 0.99445 0.16435 0.40248 0.0
H618 H 0.27499 0.0169 0.35506 0.0
H619 H 0.46032 0.04872 0.41719 0.0
H620 H 0.31619 0.95565 0.41872 0.0
H621 H 0.40428 0.12334 0.37192 0.0
H622 H 0.41305 0.00824 0.41119 0.0
H623 H 0.32812 0.0493 0.35372 0.0
C624 C 0.29549 0.00974 0.36837 0.0
C625 C 0.29102 0.98363 0.38715 0.0
C626 C 0.41127 0.03341 0.40242 0.0
C627 C 0.35177 0.02111 0.38602 0.0
C628 C 0.43824 0.05638 0.40573 0.0
C629 C 0.43596 0.08946 0.39523 0.0
C630 C 0.38214 0.0435 0.38817 0.0
C631 C 0.40675 0.09827 0.38069 0.0
C632 C 0.3257 0.02852 0.36778 0.0
C633 C 0.31838 0.97588 0.40416 0.0
N634 N 0.38099 0.07546 0.37761 0.0
N635 N 0.34753 0.9947 0.40332 0.0
H636 H 0.49556 0.27473 0.35465 0.0
H637 H 0.46498 0.45988 0.41745 0.0
H638 H 0.5581 0.31569 0.41762 0.0
H639 H 0.38927 0.40345 0.37359 0.0
H640 H 0.50549 0.41278 0.4107 0.0
H641 H 0.46325 0.32791 0.35377 0.0
C642 C 0.50303 0.2952 0.36789 0.0
C643 C 0.52945 0.29064 0.38637 0.0
C644 C 0.48008 0.41089 0.4024 0.0
C645 C 0.49209 0.35143 0.38577 0.0
C646 C 0.45708 0.43774 0.40615 0.0
C647 C 0.42371 0.43529 0.39627 0.0
C648 C 0.46969 0.38172 0.38833 0.0
C649 C 0.4146 0.40605 0.38189 0.0
C650 C 0.48431 0.32543 0.36757 0.0
C651 C 0.53761 0.31796 0.4033 0.0
N652 N 0.43742 0.38041 0.37837 0.0
N653 N 0.51883 0.34713 0.40274 0.0
H654 H 0.10783 0.38703 0.3692 0.0
H655 H 0.19705 0.55757 0.41792 0.0
H656 H 0.05477 0.46215 0.4161 0.0
H657 H 0.23713 0.49436 0.35504 0.0
H658 H 0.14383 0.52484 0.41662 0.0
H659 H 0.15484 0.42715 0.36305 0.0
C660 C 0.10612 0.41208 0.37814 0.0
C661 C 0.07759 0.42123 0.39336 0.0
C662 C 0.16406 0.51851 0.40281 0.0
C663 C 0.13132 0.46736 0.38651 0.0
C664 C 0.19446 0.53713 0.40358 0.0
C665 C 0.22167 0.52854 0.38667 0.0
C666 C 0.16106 0.49079 0.38529 0.0
C667 C 0.21679 0.50204 0.36832 0.0
C668 C 0.13282 0.43508 0.37449 0.0
C669 C 0.07632 0.4542 0.40417 0.0
N670 N 0.18732 0.48381 0.36839 0.0
N671 N 0.10305 0.47597 0.40083 0.0
H672 H 0.38735 0.10629 0.86882 0.0
H673 H 0.5568 0.19536 0.91864 0.0
H674 H 0.46236 0.05269 0.91544 0.0
H675 H 0.49655 0.23433 0.85367 0.0
H676 H 0.52444 0.14196 0.91681 0.0
H677 H 0.42792 0.15289 0.86234 0.0
C678 C 0.41247 0.10436 0.87762 0.0
C679 C 0.42146 0.07582 0.89287 0.0
C680 C 0.51871 0.16194 0.90263 0.0
C681 C 0.46808 0.12907 0.88565 0.0
C682 C 0.53716 0.1924 0.90367 0.0
C683 C 0.52919 0.21937 0.88638 0.0
C684 C 0.4917 0.15866 0.88447 0.0
C685 C 0.50364 0.21415 0.86728 0.0
C686 C 0.43572 0.13082 0.87376 0.0
C687 C 0.45452 0.07428 0.9035 0.0
N688 N 0.48543 0.18464 0.86713 0.0
N689 N 0.47652 0.10078 0.90001 0.0
H690 H 0.45987 0.46485 0.91854 0.0
H691 H 0.27533 0.49613 0.85487 0.0
H692 H 0.40344 0.38956 0.8743 0.0
H693 H 0.31467 0.55672 0.91959 0.0
H694 H 0.3289 0.46448 0.85371 0.0
H695 H 0.41296 0.50564 0.91159 0.0
C696 C 0.4378 0.45715 0.90707 0.0
C697 C 0.4352 0.42381 0.89718 0.0
C698 C 0.32598 0.485 0.86795 0.0
C699 C 0.38195 0.47003 0.88901 0.0
C700 C 0.29553 0.50333 0.86844 0.0
C701 C 0.29039 0.52896 0.8875 0.0
C702 C 0.35163 0.49237 0.88656 0.0
C703 C 0.31739 0.53681 0.90483 0.0
C704 C 0.41107 0.48028 0.90322 0.0
C705 C 0.4061 0.41489 0.88258 0.0
N706 N 0.34679 0.5184 0.9041 0.0
N707 N 0.3806 0.43782 0.87896 0.0
H708 H 0.01367 0.27492 0.85151 0.0
H709 H 0.04698 0.4591 0.91539 0.0
H710 H 0.95543 0.3145 0.91742 0.0
H711 H 0.12108 0.40385 0.86901 0.0
H712 H 0.00623 0.41222 0.90882 0.0
H713 H 0.04556 0.32855 0.84968 0.0
C714 C 0.007 0.29523 0.86516 0.0
C715 C 0.98205 0.29017 0.88478 0.0
C716 C 0.03132 0.41055 0.8999 0.0
C717 C 0.01875 0.35135 0.88306 0.0
C718 C 0.05447 0.4373 0.90355 0.0
C719 C 0.0875 0.4351 0.89293 0.0
C720 C 0.04118 0.3817 0.88521 0.0
C721 C 0.09605 0.40623 0.87787 0.0
C722 C 0.02545 0.32568 0.86429 0.0
C723 C 0.97476 0.31723 0.90219 0.0
N724 N 0.07308 0.38065 0.87449 0.0
N725 N 0.99321 0.34657 0.90106 0.0
H726 H 0.23512 0.01371 0.85272 0.0
H727 H 0.05054 0.04445 0.91669 0.0
H728 H 0.1954 0.95235 0.91693 0.0
H729 H 0.10674 0.11986 0.8723 0.0
H730 H 0.09729 1.00361 0.90936 0.0
H731 H 0.18145 0.04521 0.85151 0.0
C732 C 0.21482 0.0063 0.86616 0.0
C733 C 0.21989 0.98052 0.88511 0.0
C734 C 0.09916 0.02901 0.90102 0.0
C735 C 0.15854 0.01695 0.88413 0.0
C736 C 0.07251 0.05217 0.9051 0.0
C737 C 0.07511 0.08557 0.8953 0.0
C738 C 0.12821 0.03928 0.8867 0.0
C739 C 0.1041 0.09449 0.88052 0.0
C740 C 0.1843 0.02455 0.86564 0.0
C741 C 0.19275 0.97239 0.90226 0.0
N742 N 0.12953 0.07154 0.87671 0.0
N743 N 0.16331 0.99074 0.90152 0.0
H744 H 0.05715 0.81598 0.60222 0.0
H745 H 0.88635 0.90521 0.65066 0.0
H746 H 0.99323 0.77579 0.66469 0.0
H747 H 0.96176 0.95831 0.60397 0.0
H748 H 0.92629 0.85808 0.65666 0.0
H749 H 0.02437 0.86916 0.60338 0.0
C750 C 0.03654 0.81853 0.61643 0.0
C751 C 0.02779 0.7913 0.63328 0.0
C752 C 0.93432 0.88013 0.64529 0.0
C753 C 0.99001 0.85186 0.63452 0.0
C754 C 0.91142 0.9069 0.64172 0.0
C755 C 0.92071 0.93547 0.62661 0.0
C756 C 0.96665 0.88161 0.6333 0.0
C757 C 0.95371 0.93671 0.61581 0.0
C758 C 0.0179 0.8489 0.61712 0.0
C759 C 1.00106 0.79613 0.65147 0.0
N760 N 0.97539 0.90992 0.61907 0.0
N761 N 0.98285 0.82558 0.65134 0.0
H762 H 0.69579 0.0591 0.60279 0.0
H763 H 0.60732 0.88673 0.64923 0.0
H764 H 0.73664 0.99379 0.66405 0.0
H765 H 0.55398 0.96263 0.60329 0.0
H766 H 0.65437 0.92671 0.65553 0.0
H767 H 0.64282 0.0259 0.60353 0.0
C768 C 0.69344 0.03809 0.61665 0.0
C769 C 0.72079 0.02911 0.63328 0.0
C770 C 0.6323 0.93484 0.64425 0.0
C771 C 0.66044 0.99083 0.63403 0.0
C772 C 0.60556 0.91192 0.64051 0.0
C773 C 0.57692 0.92132 0.62553 0.0
C774 C 0.63073 0.96734 0.63257 0.0
C775 C 0.57562 0.95447 0.61503 0.0
C776 C 0.66318 0.0192 0.6171 0.0
C777 C 0.7162 1.00183 0.65101 0.0
N778 N 0.60237 0.97619 0.61846 0.0
N779 N 0.68684 0.98341 0.65066 0.0
H780 H 0.54657 0.55167 0.60415 0.0
H781 H 0.5153 0.73731 0.66576 0.0
H782 H 0.62086 0.60739 0.64999 0.0
H783 H 0.45404 0.69606 0.60214 0.0
H784 H 0.54725 0.68399 0.66746 0.0
H785 H 0.50619 0.59906 0.60992 0.0
C786 C 0.55417 0.57371 0.61569 0.0
C787 C 0.58713 0.57587 0.62642 0.0
C788 C 0.52655 0.68644 0.65333 0.0
C789 C 0.5413 0.62982 0.63319 0.0
C790 C 0.50803 0.71676 0.65253 0.0
C791 C 0.48207 0.72128 0.63365 0.0
C792 C 0.51907 0.6603 0.63517 0.0
C793 C 0.47418 0.69384 0.61676 0.0
C794 C 0.53126 0.60074 0.61886 0.0
C795 C 0.59588 0.60502 0.64105 0.0
N796 N 0.49278 0.66458 0.61778 0.0
N797 N 0.57314 0.63084 0.64398 0.0
H798 H 0.95802 0.54866 0.60379 0.0
H799 H 0.77217 0.51888 0.66602 0.0
H800 H 0.90215 0.62429 0.64817 0.0
H801 H 0.81372 0.45545 0.60382 0.0
H802 H 0.82526 0.55137 0.66675 0.0
H803 H 0.91047 0.50854 0.61011 0.0
C804 C 0.93592 0.55664 0.61511 0.0
C805 C 0.9338 0.5899 0.62528 0.0
C806 C 0.82293 0.53011 0.65313 0.0
C807 C 0.87962 0.54433 0.63268 0.0
C808 C 0.79273 0.51128 0.6529 0.0
C809 C 0.78836 0.48448 0.63472 0.0
C810 C 0.84912 0.52208 0.63513 0.0
C811 C 0.81581 0.47621 0.61791 0.0
C812 C 0.90878 0.53386 0.6186 0.0
C813 C 0.90454 0.59908 0.63965 0.0
N814 N 0.84495 0.49507 0.6184 0.0
N815 N 0.87863 0.57647 0.6429 0.0
H816 H 0.68622 0.20179 0.0613 0.0
H817 H 0.80554 0.32582 0.14589 0.0
H818 H 0.70552 0.18205 0.14424 0.0
H819 H 0.81969 0.30805 0.06204 0.0
H820 H 0.76286 0.27951 0.14685 0.0
H821 H 0.72875 0.24745 0.06225 0.0
C822 C 0.69921 0.20728 0.0798 0.0
C823 C 0.69218 0.18811 0.10276 0.0
C824 C 0.77548 0.28574 0.12831 0.0
C825 C 0.74101 0.24069 0.10402 0.0
C826 C 0.79966 0.31222 0.12773 0.0
C827 C 0.81641 0.32068 0.1039 0.0
C828 C 0.76735 0.26822 0.10474 0.0
C829 C 0.80783 0.30215 0.08092 0.0
C830 C 0.72368 0.23321 0.08028 0.0
C831 C 0.71027 0.19611 0.12609 0.0
N832 N 0.78379 0.27713 0.08187 0.0
N833 N 0.73365 0.22197 0.12621 0.0
H834 H 0.30305 0.68056 0.06362 0.0
H835 H 0.18539 0.80899 0.14587 0.0
H836 H 0.32885 0.70854 0.144 0.0
H837 H 0.19704 0.81417 0.06075 0.0
H838 H 0.23146 0.76605 0.14744 0.0
H839 H 0.25729 0.72299 0.06399 0.0
C840 C 0.29888 0.69543 0.08146 0.0
C841 C 0.31981 0.69089 0.10384 0.0
C842 C 0.22392 0.77675 0.12847 0.0
C843 C 0.26711 0.73961 0.10446 0.0
C844 C 0.19759 0.80107 0.12757 0.0
C845 C 0.18753 0.81541 0.10318 0.0
C846 C 0.23965 0.76604 0.10474 0.0
C847 C 0.20424 0.80423 0.08002 0.0
C848 C 0.27288 0.71984 0.08159 0.0
C849 C 0.31343 0.71134 0.12629 0.0
N850 N 0.22915 0.78012 0.08136 0.0
N851 N 0.2875 0.73462 0.12612 0.0
H852 H 0.29634 0.67597 0.3773 0.0
H853 H 0.20433 0.82105 0.46147 0.0
H854 H 0.33666 0.7134 0.45146 0.0
H855 H 0.19755 0.82018 0.37599 0.0
H856 H 0.24729 0.77583 0.45936 0.0
H857 H 0.25454 0.72291 0.37737 0.0
C858 C 0.29638 0.69403 0.39358 0.0
C859 C 0.32013 0.69079 0.41437 0.0
C860 C 0.23646 0.78548 0.44103 0.0
C861 C 0.27214 0.74418 0.41476 0.0
C862 C 0.21178 0.81114 0.44223 0.0
C863 C 0.19721 0.82428 0.41887 0.0
C864 C 0.24633 0.77213 0.41628 0.0
C865 C 0.20822 0.81079 0.39443 0.0
C866 C 0.27268 0.72088 0.39353 0.0
C867 C 0.31912 0.71507 0.4349 0.0
N868 N 0.23185 0.78517 0.39376 0.0
N869 N 0.29538 0.74042 0.43472 0.0
H870 H 0.82694 0.30922 0.37462 0.0
H871 H 0.70595 0.18485 0.45766 0.0
H872 H 0.81222 0.31833 0.45925 0.0
H873 H 0.6833 0.20915 0.37598 0.0
H874 H 0.75166 0.22736 0.45722 0.0
H875 H 0.78068 0.26651 0.37322 0.0
C876 C 0.81401 0.30223 0.39286 0.0
C877 C 0.8233 0.31758 0.41705 0.0
C878 C 0.73677 0.22339 0.43935 0.0
C879 C 0.77093 0.26848 0.41569 0.0
C880 C 0.71082 0.19894 0.43954 0.0
C881 C 0.69081 0.19334 0.4168 0.0
C882 C 0.74342 0.24212 0.41609 0.0
C883 C 0.69801 0.2128 0.39396 0.0
C884 C 0.78757 0.27803 0.39204 0.0
C885 C 0.80565 0.30758 0.44012 0.0
N886 N 0.72391 0.23613 0.3941 0.0
N887 N 0.78063 0.28356 0.4389 0.0
H888 H 0.20028 0.6861 0.87456 0.0
H889 H 0.32943 0.80351 0.95631 0.0
H890 H 0.19616 0.69676 0.95978 0.0
H891 H 0.29975 0.83015 0.87647 0.0
H892 H 0.28724 0.75745 0.95609 0.0
H893 H 0.24301 0.73238 0.87293 0.0
C894 C 0.2084 0.69813 0.89287 0.0
C895 C 0.19441 0.68774 0.91731 0.0
C896 C 0.28997 0.7733 0.93857 0.0
C897 C 0.24354 0.74009 0.91568 0.0
C898 C 0.31423 0.79946 0.93862 0.0
C899 C 0.3182 0.82072 0.91635 0.0
C900 C 0.26982 0.7677 0.91589 0.0
C901 C 0.29737 0.81449 0.89409 0.0
C902 C 0.2326 0.72457 0.89194 0.0
C903 C 0.20583 0.70422 0.94049 0.0
N904 N 0.27427 0.7884 0.89433 0.0
N905 N 0.22982 0.72926 0.93911 0.0
H906 H 0.65443 0.27163 0.9169 0.0
H907 H 0.85644 0.23864 0.91614 0.0
H908 H 0.72922 0.35239 0.91854 0.0
H909 H 0.78165 0.15794 0.9193 0.0
H910 H 0.81041 0.28045 0.91802 0.0
H911 H 0.70049 0.22986 0.91878 0.0
C912 C 0.68042 0.28077 0.91794 0.0
C913 C 0.68763 0.31593 0.91755 0.0
C914 C 0.80405 0.25359 0.91841 0.0
C915 C 0.741 0.26767 0.91931 0.0
C916 C 0.83046 0.22953 0.91751 0.0
C917 C 0.82323 0.19436 0.91755 0.0
C918 C 0.76991 0.24267 0.91931 0.0
C919 C 0.7887 0.18458 0.91888 0.0
C920 C 0.70685 0.25673 0.91884 0.0
C921 C 0.72217 0.32575 0.91846 0.0
N922 N 0.76348 0.20849 0.91964 0.0
N923 N 0.74742 0.30185 0.91923 0.0
H924 H 0.82031 0.20146 0.56128 0.0
H925 H 0.70583 0.32879 0.64697 0.0
H926 H 0.807 0.18594 0.64549 0.0
H927 H 0.68674 0.30726 0.56427 0.0
H928 H 0.74872 0.28272 0.64758 0.0
H929 H 0.7775 0.24677 0.56262 0.0
C930 C 0.80858 0.20781 0.58013 0.0
C931 C 0.81741 0.18994 0.60334 0.0
C932 C 0.73498 0.28807 0.62937 0.0
C933 C 0.76821 0.24213 0.60504 0.0
C934 C 0.71067 0.31441 0.62898 0.0
C935 C 0.69248 0.32176 0.60558 0.0
C936 C 0.74176 0.26954 0.60601 0.0
C937 C 0.69974 0.30224 0.58284 0.0
C938 C 0.78393 0.23354 0.58085 0.0
C939 C 0.80086 0.19899 0.62715 0.0
N940 N 0.72392 0.27735 0.58357 0.0
N941 N 0.77726 0.22465 0.62745 0.0
H942 H 0.31045 0.82107 0.56024 0.0
H943 H 0.18149 0.70842 0.64597 0.0
H944 H 0.32589 0.80767 0.64443 0.0
H945 H 0.20383 0.68782 0.56361 0.0
H946 H 0.22799 0.7509 0.64648 0.0
H947 H 0.26474 0.77861 0.56162 0.0
C948 C 0.30401 0.80938 0.57909 0.0
C949 C 0.32198 0.81807 0.60228 0.0
C950 C 0.22272 0.73692 0.62837 0.0
C951 C 0.26929 0.76935 0.60405 0.0
C952 C 0.19613 0.71286 0.62803 0.0
C953 C 0.18888 0.69436 0.60476 0.0
C954 C 0.2416 0.74317 0.60507 0.0
C955 C 0.20875 0.70109 0.58208 0.0
C956 C 0.27805 0.78495 0.57983 0.0
C957 C 0.31277 0.80162 0.6261 0.0
N958 N 0.23387 0.72506 0.58274 0.0
N959 N 0.28687 0.77827 0.62644 0.0
H960 H 0.5983 0.04489 0.01516 0.0
H961 H 0.41124 0.96331 1.00413 0.0
H962 H 0.5324 0.03028 0.0829 0.0
H963 H 0.47689 0.9787 0.93634 0.0
H964 H 0.45528 0.98686 0.03301 0.0
H965 H 0.55419 0.0215 0.98629 0.0
C966 C 0.57436 0.03705 0.02403 0.0
C967 C 0.5692 0.03977 0.05168 0.0
C968 C 0.46026 0.98499 0.01187 0.0
C969 C 0.5182 0.01222 0.01829 0.0
C970 C 0.4351 0.97135 0.99524 0.0
C971 C 0.44021 0.9688 0.96758 0.0
C972 C 0.49113 0.99651 1.00098 0.0
C973 C 0.47179 0.97978 0.95748 0.0
C974 C 0.54915 0.02351 1.00741 0.0
C975 C 0.53752 0.02907 0.06177 0.0
N976 N 0.49591 0.99325 0.97413 0.0
N977 N 0.51336 0.01565 0.04513 0.0
H978 H 0.48008 0.53248 0.08531 0.0
H979 H 0.53217 0.47547 0.93615 0.0
H980 H 0.46202 0.59407 0.01567 0.0
H981 H 0.55307 0.41505 1.00594 0.0
H982 H 0.50652 0.51933 0.96488 0.0
H983 H 0.50557 0.48842 0.0566 0.0
C984 C 0.48093 0.53655 0.06401 0.0
C985 C 0.46868 0.56711 0.05301 0.0
C986 C 0.51695 0.49655 0.97393 0.0
C987 C 0.49842 0.51693 0.01989 0.0
C988 C 0.5319 0.47161 0.95748 0.0
C989 C 0.54506 0.44144 0.96851 0.0
C990 C 0.51503 0.4914 1.00168 0.0
C991 C 0.54334 0.43779 0.99639 0.0
C992 C 0.49579 0.5115 0.04759 0.0
C993 C 0.47109 0.57103 0.02519 0.0
N994 N 0.52862 0.46223 0.01188 0.0
N995 N 0.48563 0.54647 1.00973 0.0
H996 H 0.97743 0.47489 0.0841 0.0
H997 H 0.03126 0.53433 0.93585 0.0
H998 H 0.91048 0.46919 0.01621 0.0
H999 H 0.0982 0.53965 1.00376 0.0
H1000 H 0.98623 0.51132 0.96498 0.0
H1001 H 0.02231 0.49812 0.05496 0.0
C1002 C 0.97228 0.47805 0.06309 0.0
C1003 C 0.94005 0.46989 0.05271 0.0
C1004 C 0.01076 0.51773 0.97352 0.0
C1005 C 0.99117 0.49705 0.01915 0.0
C1006 C 0.03637 0.53116 0.95687 0.0
C1007 C 0.06865 0.5391 0.96725 0.0
C1008 C 0.01738 0.51221 1.00079 0.0
C1009 C 0.07383 0.53388 0.99471 0.0
C1010 C 0.99781 0.4916 0.04643 0.0
C1011 C 0.93482 0.47509 0.02526 0.0
N1012 N 0.04868 0.5208 0.01038 0.0
N1013 N 0.9599 0.48831 1.00957 0.0
H1014 H 0.97652 0.03371 0.93615 0.0
H1015 H 0.03024 0.97762 0.08519 0.0
H1016 H 0.95945 0.09616 1.00548 0.0
H1017 H 0.04294 0.91363 0.01618 0.0
H1018 H 0.00602 0.02225 0.05629 0.0
H1019 H 1.00122 0.98949 0.96506 0.0
C1020 C 0.97745 0.03797 0.95742 0.0
C1021 C 0.96562 0.06879 0.96826 0.0
C1022 C 0.01435 0.99849 0.04746 0.0
C1023 C 0.99458 0.0184 1.00162 0.0
C1024 C 0.02849 0.97313 0.06399 0.0
C1025 C 0.03883 0.94174 0.05322 0.0
C1026 C 0.01056 0.99256 0.01991 0.0
C1027 C 0.03533 0.9373 0.02552 0.0
C1028 C 0.99186 0.01281 0.97396 0.0
C1029 C 0.96815 0.07291 0.99607 0.0
N1030 N 0.02154 0.96219 1.00997 0.0
N1031 N 0.98232 0.04824 0.01164 0.0
H1032 H 0.91067 0.04342 0.5162 0.0
H1033 H 0.10098 0.97015 0.50449 0.0
H1034 H 0.97856 0.03454 0.5833 0.0
H1035 H 0.0329 0.97815 0.43745 0.0
H1036 H 0.05651 0.99285 0.53335 0.0
H1037 H 0.95499 0.02038 0.48734 0.0
C1038 C 0.93506 0.0369 0.52494 0.0
C1039 C 0.94072 0.04114 0.55241 0.0
C1040 C 0.05108 0.98953 0.5124 0.0
C1041 C 0.99202 0.01405 0.51901 0.0
C1042 C 0.0765 0.97639 0.49578 0.0
C1043 C 0.07083 0.97203 0.46832 0.0
C1044 C 0.01937 0.99876 0.50172 0.0
C1045 C 0.03845 0.98067 0.45845 0.0
C1046 C 0.96039 0.02356 0.50831 0.0
C1047 C 0.973 0.03211 0.5623 0.0
N1048 N 0.01407 0.99376 0.47508 0.0
N1049 N 0.99729 0.0189 0.54566 0.0
H1050 H 0.54726 0.09962 0.50451 0.0
H1051 H 0.46674 0.9121 0.51487 0.0
H1052 H 0.5334 0.03395 0.4366 0.0
H1053 H 0.47958 0.97817 0.58267 0.0
H1054 H 0.49033 0.95635 0.48619 0.0
H1055 H 0.52345 0.05546 0.53317 0.0
C1056 C 0.53949 0.07573 0.49556 0.0
C1057 C 0.54256 0.07064 0.46792 0.0
C1058 C 0.48788 0.96139 0.50727 0.0
C1059 C 0.51456 0.01958 0.50107 0.0
C1060 C 0.47423 0.9361 0.52379 0.0
C1061 C 0.47096 0.94128 0.5514 0.0
C1062 C 0.49872 0.99243 0.51823 0.0
C1063 C 0.48122 0.97304 0.56155 0.0
C1064 C 0.52571 0.0505 0.51206 0.0
C1065 C 0.53193 0.03902 0.45773 0.0
N1066 N 0.49476 0.99727 0.54502 0.0
N1067 N 0.51831 0.01483 0.47425 0.0
H1068 H 0.47811 0.53293 0.43625 0.0
H1069 H 0.5319 0.47933 0.58584 0.0
H1070 H 0.41441 0.54934 0.50502 0.0
H1071 H 0.59653 0.46526 0.51731 0.0
H1072 H 0.48787 0.50375 0.55653 0.0
H1073 H 0.52196 0.50823 0.46554 0.0
C1074 C 0.4735 0.53185 0.45748 0.0
C1075 C 0.44244 0.54347 0.46806 0.0
C1076 C 0.51163 0.49509 0.5479 0.0
C1077 C 0.49238 0.51456 0.50184 0.0
C1078 C 0.53666 0.48083 0.56466 0.0
C1079 C 0.56804 0.47002 0.55414 0.0
C1080 C 0.51791 0.49854 0.52036 0.0
C1081 C 0.57284 0.47323 0.52645 0.0
C1082 C 0.49844 0.51745 0.47423 0.0
C1083 C 0.43785 0.54078 0.49581 0.0
N1084 N 0.54827 0.48715 0.51067 0.0
N1085 N 0.46231 0.52664 0.51159 0.0
H1086 H 0.0348 0.5331 0.58486 0.0
H1087 H 0.97767 0.47903 0.4362 0.0
H1088 H 0.04289 0.59936 0.51667 0.0
H1089 H 0.97144 0.41208 0.5041 0.0
H1090 H 1.00046 0.52397 0.46545 0.0
H1091 H 0.0118 0.48823 0.55567 0.0
C1092 C 0.03222 0.5381 0.56377 0.0
C1093 C 0.04098 0.57014 0.55332 0.0
C1094 C 0.99391 0.49947 0.47395 0.0
C1095 C 0.01409 0.51902 0.5197 0.0
C1096 C 0.98061 0.47389 0.45724 0.0
C1097 C 0.97247 0.44164 0.46759 0.0
C1098 C 0.99909 0.49284 0.50127 0.0
C1099 C 0.97737 0.43644 0.49508 0.0
C1100 C 0.01881 0.51256 0.54708 0.0
C1101 C 0.03651 0.57517 0.52577 0.0
N1102 N 0.99032 0.46155 0.51082 0.0
N1103 N 0.0234 0.5501 0.51006 0.0
H1104 H 0.6048 0.08215 0.33895 0.0
H1105 H 0.58225 0.10443 0.18063 0.0
H1106 H 0.52411 0.14148 0.30343 0.0
H1107 H 0.63865 0.0218 0.21636 0.0
H1108 H 0.56596 0.12373 0.22551 0.0
H1109 H 0.62313 0.0649 0.29403 0.0
C1110 C 0.59099 0.09159 0.32181 0.0
C1111 C 0.56268 0.11308 0.32514 0.0
C1112 C 0.58191 0.10136 0.22343 0.0
C1113 C 0.58376 0.09386 0.27363 0.0
C1114 C 0.59123 0.09038 0.1978 0.0
C1115 C 0.61163 0.06126 0.19453 0.0
C1116 C 0.59354 0.08346 0.24601 0.0
C1117 C 0.62261 0.04419 0.21769 0.0
C1118 C 0.60141 0.08172 0.29616 0.0
C1119 C 0.54587 0.1246 0.30203 0.0
N1120 N 0.61357 0.05555 0.24228 0.0
N1121 N 0.55668 0.11499 0.27742 0.0
H1122 H 0.37113 0.51952 0.30422 0.0
H1123 H 0.48853 0.64114 0.21609 0.0
H1124 H 0.42854 0.60287 0.33788 0.0
H1125 H 0.40747 0.58069 0.18226 0.0
H1126 H 0.47013 0.62432 0.26047 0.0
H1127 H 0.38735 0.53834 0.25979 0.0
C1128 C 0.38731 0.54178 0.30238 0.0
C1129 C 0.39859 0.5595 0.3251 0.0
C1130 C 0.45627 0.61475 0.24341 0.0
C1131 C 0.41744 0.5812 0.27365 0.0
C1132 C 0.46684 0.62418 0.2179 0.0
C1133 C 0.44966 0.61221 0.19513 0.0
C1134 C 0.42846 0.59264 0.24654 0.0
C1135 C 0.42155 0.59056 0.19909 0.0
C1136 C 0.39639 0.55259 0.27683 0.0
C1137 C 0.41926 0.58833 0.32109 0.0
N1138 N 0.41202 0.58127 0.22425 0.0
N1139 N 0.4282 0.5981 0.29592 0.0
H1140 H 0.92726 0.40506 0.18107 0.0
H1141 H 0.90629 0.42842 0.33946 0.0
H1142 H 0.86962 0.48687 0.21673 0.0
H1143 H 0.9874 0.37009 0.30347 0.0
H1144 H 0.88696 0.4449 0.29461 0.0
H1145 H 0.9443 0.3864 0.22594 0.0
C1146 C 0.91814 0.41904 0.19823 0.0
C1147 C 0.8972 0.44776 0.19494 0.0
C1148 C 0.909 0.42847 0.29663 0.0
C1149 C 0.91616 0.42632 0.24641 0.0
C1150 C 0.91998 0.41904 0.32224 0.0
C1151 C 0.9487 0.39806 0.32541 0.0
C1152 C 0.92649 0.41638 0.274 0.0
C1153 C 0.96534 0.38659 0.30221 0.0
C1154 C 0.92789 0.40844 0.22385 0.0
C1155 C 0.88608 0.46479 0.21808 0.0
N1156 N 0.95399 0.39576 0.27765 0.0
N1157 N 0.89556 0.4538 0.24267 0.0
H1158 H 0.08226 0.90514 0.33975 0.0
H1159 H 0.10653 0.92549 0.18122 0.0
H1160 H 0.1436 0.98399 0.30369 0.0
H1161 H 0.0232 0.86995 0.21688 0.0
H1162 H 0.12585 0.94166 0.22612 0.0
H1163 H 0.0655 0.88606 0.29487 0.0
C1164 C 0.09228 0.91834 0.32251 0.0
C1165 C 0.11413 0.94643 0.32568 0.0
C1166 C 0.10334 0.92589 0.22402 0.0
C1167 C 0.09546 0.92452 0.27423 0.0
C1168 C 0.09235 0.91665 0.19837 0.0
C1169 C 0.06301 0.89656 0.19507 0.0
C1170 C 0.0852 0.91454 0.2466 0.0
C1171 C 0.04576 0.88575 0.21823 0.0
C1172 C 0.08268 0.90752 0.29689 0.0
C1173 C 0.12638 0.96247 0.30244 0.0
N1174 N 0.05711 0.89475 0.24283 0.0
N1175 N 0.117 0.9513 0.27789 0.0
H1176 H 0.42815 0.90661 0.83839 0.0
H1177 H 0.40606 0.92906 0.68006 0.0
H1178 H 0.3699 0.988 0.80274 0.0
H1179 H 0.4876 0.87117 0.71586 0.0
H1180 H 0.38709 0.94586 0.72492 0.0
H1181 H 0.44513 0.88794 0.79351 0.0
C1182 C 0.41891 0.92052 0.82123 0.0
C1183 C 0.39777 0.9491 0.82452 0.0
C1184 C 0.40915 0.92947 0.72286 0.0
C1185 C 0.41667 0.92763 0.77305 0.0
C1186 C 0.41993 0.91986 0.69724 0.0
C1187 C 0.44865 0.89889 0.69401 0.0
C1188 C 0.42685 0.91758 0.74545 0.0
C1189 C 0.46552 0.88765 0.71717 0.0
C1190 C 0.42862 0.9099 0.79561 0.0
C1191 C 0.38649 0.96603 0.80138 0.0
N1192 N 0.45436 0.89699 0.74174 0.0
N1193 N 0.39593 0.95502 0.77679 0.0
H1194 H 0.63817 0.48775 0.71828 0.0
H1195 H 0.51759 0.36698 0.80481 0.0
H1196 H 0.57975 0.40614 0.68313 0.0
H1197 H 0.59926 0.4262 0.83905 0.0
H1198 H 0.53639 0.38406 0.76045 0.0
H1199 H 0.62074 0.46862 0.76228 0.0
C1200 C 0.62153 0.46578 0.71971 0.0
C1201 C 0.61032 0.44868 0.69668 0.0
C1202 C 0.55025 0.39331 0.77762 0.0
C1203 C 0.59001 0.4266 0.74772 0.0
C1204 C 0.53944 0.38373 0.8031 0.0
C1205 C 0.55674 0.39526 0.82596 0.0
C1206 C 0.5784 0.41507 0.77468 0.0
C1207 C 0.58504 0.41671 0.82216 0.0
C1208 C 0.61173 0.45479 0.74503 0.0
C1209 C 0.58904 0.42017 0.70019 0.0
N1210 N 0.5948 0.42606 0.79709 0.0
N1211 N 0.57937 0.41021 0.72517 0.0
H1212 H 0.01979 0.64073 0.71682 0.0
H1213 H 0.14432 0.5254 0.8038 0.0
H1214 H 0.10441 0.58567 0.68264 0.0
H1215 H 0.08098 0.60359 0.83851 0.0
H1216 H 0.12748 0.54438 0.75963 0.0
H1217 H 0.03913 0.62465 0.7611 0.0
C1218 C 0.04246 0.62511 0.71852 0.0
C1219 C 0.06037 0.61441 0.69569 0.0
C1220 C 0.11729 0.55751 0.77683 0.0
C1221 C 0.08267 0.59575 0.74698 0.0
C1222 C 0.12674 0.5466 0.80223 0.0
C1223 C 0.11391 0.56275 0.82517 0.0
C1224 C 0.09432 0.58463 0.77399 0.0
C1225 C 0.09151 0.59031 0.82152 0.0
C1226 C 0.05357 0.61612 0.74398 0.0
C1227 C 0.08972 0.59448 0.69952 0.0
N1228 N 0.08221 0.60016 0.79645 0.0
N1229 N 0.09978 0.5856 0.72463 0.0
H1230 H 0.90994 0.08364 0.83936 0.0
H1231 H 0.93021 0.10637 0.6809 0.0
H1232 H 0.99122 0.14208 0.80366 0.0
H1233 H 0.87234 0.02524 0.71737 0.0
H1234 H 0.94828 0.12497 0.7256 0.0
H1235 H 0.89109 0.06681 0.7946 0.0
C1236 C 0.92386 0.0929 0.8222 0.0
C1237 C 0.9524 0.11413 0.82546 0.0
C1238 C 0.93161 0.10309 0.72371 0.0
C1239 C 0.93063 0.09538 0.774 0.0
C1240 C 0.92125 0.09253 0.69819 0.0
C1241 C 0.89989 0.06402 0.69518 0.0
C1242 C 0.92008 0.08539 0.74644 0.0
C1243 C 0.88906 0.04716 0.71848 0.0
C1244 C 0.9131 0.0833 0.79661 0.0
C1245 C 0.96926 0.12546 0.8023 0.0
N1246 N 0.8991 0.05811 0.74293 0.0
N1247 N 0.95809 0.11611 0.77769 0.0
loop_
_geom_bond_atom_site_label_1
_geom_bond_atom_site_label_2
_geom_bond_distance
_geom_bond_site_symmetry_2
_ccdc_geom_bond_type
C0 C1 1.351 . S
C0 N3 1.368 . S
C0 H5 0.931 . S
C1 C0 1.351 . S
C1 N2 1.373 . S
C1 H29 0.930 . S
N2 C1 1.373 . S
N2 C4 1.340 . S
N3 C0 1.368 . S
N3 C4 1.321 . S
N3 Co6 2.135 . S
C4 N2 1.340 . S
C4 N3 1.321 . S
C4 H28 0.930 . S
H5 C0 0.931 . S
Co6 N3 2.135 . S
Co6 N9 2.121 1_545 S
Co6 O14 2.055 . S
Co6 O17 2.039 . S
Co6 N20 2.140 . S
C7 O8 1.227 . S
C7 O17 1.265 . S
O8 C7 1.227 . S
N9 Co6 2.121 1_565 S
N9 C11 1.375 . S
N9 C12 1.313 . S
C10 C11 1.338 . S
C10 N13 1.377 . S
C10 H30 0.930 . S
C11 N9 1.375 . S
C11 C10 1.338 . S
C11 H15 0.931 . S
C12 N9 1.313 . S
C12 N13 1.344 . S
C12 H16 0.930 . S
N13 C10 1.377 . S
N13 C12 1.344 . S
O14 Co6 2.055 . S
O14 C18 1.253 . S
H15 C11 0.931 . S
H16 C12 0.930 . S
O17 Co6 2.039 . S
O17 C7 1.265 . S
C18 O14 1.253 . S
C18 O19 1.227 . S
O19 C18 1.227 . S
N20 Co6 2.140 . S
N20 C23 1.346 . S
N20 C24 1.345 1_545 S
C21 C22 1.387 1_565 S
C21 C25 1.391 . S
C22 C21 1.387 1_545 S
C22 C23 1.369 . S
C22 H31 0.929 . S
C23 N20 1.346 . S
C23 C22 1.369 . S
C23 H26 0.928 . S
C24 N20 1.345 1_565 S
C24 C25 1.371 . S
C24 H27 0.931 . S
C25 C21 1.391 . S
C25 C24 1.371 . S
C25 H32 0.930 . S
H26 C23 0.928 . S
H27 C24 0.931 . S
H28 C4 0.930 . S
H29 C1 0.930 . S
H30 C10 0.930 . S
H31 C22 0.929 . S
H32 C25 0.930 . S
C33 C34 1.351 . S
C33 N36 1.368 . S
C33 H38 0.931 . S
C34 C33 1.351 . S
C34 N35 1.373 . S
C34 H62 0.930 . S
N35 C34 1.373 . S
N35 C37 1.340 . S
N36 C33 1.368 . S
N36 C37 1.321 . S
N36 Co39 2.135 . S
C37 N35 1.340 . S
C37 N36 1.321 . S
C37 H61 0.930 . S
H38 C33 0.931 . S
Co39 N36 2.135 . S
Co39 N42 2.121 . S
Co39 O47 2.055 . S
Co39 O50 2.039 . S
Co39 N53 2.140 . S
C40 O41 1.227 . S
C40 O50 1.265 . S
O41 C40 1.227 . S
N42 Co39 2.121 . S
N42 C44 1.375 . S
N42 C45 1.313 . S
C43 C44 1.338 . S
C43 N46 1.377 . S
C43 H63 0.930 . S
C44 N42 1.375 . S
C44 C43 1.338 . S
C44 H48 0.931 . S
C45 N42 1.313 . S
C45 N46 1.344 . S
C45 H49 0.930 . S
N46 C43 1.377 . S
N46 C45 1.344 . S
O47 Co39 2.055 . S
O47 C51 1.253 . S
H48 C44 0.931 . S
H49 C45 0.930 . S
O50 Co39 2.039 . S
O50 C40 1.265 . S
C51 O47 1.253 . S
C51 O52 1.227 . S
O52 C51 1.227 . S
N53 Co39 2.140 . S
N53 C56 1.346 . S
N53 C57 1.345 . S
C54 C55 1.387 . S
C54 C58 1.391 . S
C55 C54 1.387 . S
C55 C56 1.369 . S
C55 H64 0.929 . S
C56 N53 1.346 . S
C56 C55 1.369 . S
C56 H59 0.928 . S
C57 N53 1.345 . S
C57 C58 1.371 . S
C57 H60 0.931 . S
C58 C54 1.391 . S
C58 C57 1.371 . S
C58 H65 0.930 . S
H59 C56 0.928 . S
H60 C57 0.931 . S
H61 C37 0.930 . S
H62 C34 0.930 . S
H63 C43 0.930 . S
H64 C55 0.929 . S
H65 C58 0.930 . S
C66 C67 1.351 . S
C66 N69 1.368 . S
C66 H71 0.931 . S
C67 C66 1.351 . S
C67 N68 1.373 . S
C67 H95 0.930 . S
N68 C67 1.373 . S
N68 C70 1.340 . S
N69 C66 1.368 . S
N69 C70 1.321 . S
N69 Co72 2.135 . S
C70 N68 1.340 . S
C70 N69 1.321 . S
C70 H94 0.930 . S
H71 C66 0.931 . S
Co72 N69 2.135 . S
Co72 N75 2.121 . S
Co72 O80 2.055 . S
Co72 O83 2.039 . S
Co72 N86 2.140 . S
C73 O74 1.227 . S
C73 O83 1.265 . S
O74 C73 1.227 . S
N75 Co72 2.121 . S
N75 C77 1.375 . S
N75 C78 1.313 . S
C76 C77 1.338 . S
C76 N79 1.377 . S
C76 H96 0.930 . S
C77 N75 1.375 . S
C77 C76 1.338 . S
C77 H81 0.931 . S
C78 N75 1.313 . S
C78 N79 1.344 . S
C78 H82 0.930 . S
N79 C76 1.377 . S
N79 C78 1.344 . S
O80 Co72 2.055 . S
O80 C84 1.253 . S
H81 C77 0.931 . S
H82 C78 0.930 . S
O83 Co72 2.039 . S
O83 C73 1.265 . S
C84 O80 1.253 . S
C84 O85 1.227 . S
O85 C84 1.227 . S
N86 Co72 2.140 . S
N86 C89 1.346 . S
N86 C90 1.345 . S
C87 C88 1.387 . S
C87 C91 1.391 . S
C88 C87 1.387 . S
C88 C89 1.369 . S
C88 H97 0.929 . S
C89 N86 1.346 . S
C89 C88 1.369 . S
C89 H92 0.928 . S
C90 N86 1.345 . S
C90 C91 1.371 . S
C90 H93 0.931 . S
C91 C87 1.391 . S
C91 C90 1.371 . S
C91 H98 0.930 . S
H92 C89 0.928 . S
H93 C90 0.931 . S
H94 C70 0.930 . S
H95 C67 0.930 . S
H96 C76 0.930 . S
H97 C88 0.929 . S
H98 C91 0.930 . S
C99 C100 1.351 . S
C99 N102 1.368 . S
C99 H104 0.931 . S
C100 C99 1.351 . S
C100 N101 1.373 . S
C100 H128 0.930 . S
N101 C100 1.373 . S
N101 C103 1.340 . S
N102 C99 1.368 . S
N102 C103 1.321 . S
N102 Co105 2.135 . S
C103 N101 1.340 . S
C103 N102 1.321 . S
C103 H127 0.930 . S
H104 C99 0.931 . S
Co105 N102 2.135 . S
Co105 N108 2.121 1_455 S
Co105 O113 2.055 . S
Co105 O116 2.039 . S
Co105 N119 2.140 . S
C106 O107 1.227 . S
C106 O116 1.265 . S
O107 C106 1.227 . S
N108 Co105 2.121 1_655 S
N108 C110 1.375 . S
N108 C111 1.313 . S
C109 C110 1.338 . S
C109 N112 1.377 . S
C109 H129 0.930 . S
C110 N108 1.375 . S
C110 C109 1.338 . S
C110 H114 0.931 . S
C111 N108 1.313 . S
C111 N112 1.344 . S
C111 H115 0.930 . S
N112 C109 1.377 . S
N112 C111 1.344 . S
O113 Co105 2.055 . S
O113 C117 1.253 . S
H114 C110 0.931 . S
H115 C111 0.930 . S
O116 Co105 2.039 . S
O116 C106 1.265 . S
C117 O113 1.253 . S
C117 O118 1.227 . S
O118 C117 1.227 . S
N119 Co105 2.140 . S
N119 C122 1.346 . S
N119 C123 1.345 1_455 S
C120 C121 1.387 1_655 S
C120 C124 1.391 . S
C121 C120 1.387 1_455 S
C121 C122 1.369 . S
C121 H130 0.929 . S
C122 N119 1.346 . S
C122 C121 1.369 . S
C122 H125 0.928 . S
C123 N119 1.345 1_655 S
C123 C124 1.371 . S
C123 H126 0.931 . S
C124 C120 1.391 . S
C124 C123 1.371 . S
C124 H131 0.930 . S
H125 C122 0.928 . S
H126 C123 0.931 . S
H127 C103 0.930 . S
H128 C100 0.930 . S
H129 C109 0.930 . S
H130 C121 0.929 . S
H131 C124 0.930 . S
C132 C133 1.351 . S
C132 N135 1.368 . S
C132 H137 0.931 . S
C133 C132 1.351 . S
C133 N134 1.373 . S
C133 H161 0.930 . S
N134 C133 1.373 . S
N134 C136 1.340 . S
N135 C132 1.368 . S
N135 C136 1.321 . S
N135 Co138 2.135 . S
C136 N134 1.340 . S
C136 N135 1.321 . S
C136 H160 0.930 . S
H137 C132 0.931 . S
Co138 N135 2.135 . S
Co138 N141 2.121 1_565 S
Co138 O146 2.055 . S
Co138 O149 2.039 . S
Co138 N152 2.140 . S
C139 O140 1.227 . S
C139 O149 1.265 . S
O140 C139 1.227 . S
N141 Co138 2.121 1_545 S
N141 C143 1.375 . S
N141 C144 1.313 . S
C142 C143 1.338 . S
C142 N145 1.377 . S
C142 H162 0.930 . S
C143 N141 1.375 . S
C143 C142 1.338 . S
C143 H147 0.931 . S
C144 N141 1.313 . S
C144 N145 1.344 . S
C144 H148 0.930 . S
N145 C142 1.377 . S
N145 C144 1.344 . S
O146 Co138 2.055 . S
O146 C150 1.253 . S
H147 C143 0.931 . S
H148 C144 0.930 . S
O149 Co138 2.039 . S
O149 C139 1.265 . S
C150 O146 1.253 . S
C150 O151 1.227 . S
O151 C150 1.227 . S
N152 Co138 2.140 . S
N152 C155 1.346 . S
N152 C156 1.345 1_565 S
C153 C154 1.387 1_545 S
C153 C157 1.391 . S
C154 C153 1.387 1_565 S
C154 C155 1.369 . S
C154 H163 0.929 . S
C155 N152 1.346 . S
C155 C154 1.369 . S
C155 H158 0.928 . S
C156 N152 1.345 1_545 S
C156 C157 1.371 . S
C156 H159 0.931 . S
C157 C153 1.391 . S
C157 C156 1.371 . S
C157 H164 0.930 . S
H158 C155 0.928 . S
H159 C156 0.931 . S
H160 C136 0.930 . S
H161 C133 0.930 . S
H162 C142 0.930 . S
H163 C154 0.929 . S
H164 C157 0.930 . S
C165 C166 1.351 . S
C165 N168 1.368 . S
C165 H170 0.931 . S
C166 C165 1.351 . S
C166 N167 1.373 . S
C166 H194 0.930 . S
N167 C166 1.373 . S
N167 C169 1.340 . S
N168 C165 1.368 . S
N168 C169 1.321 . S
N168 Co171 2.135 . S
C169 N167 1.340 . S
C169 N168 1.321 . S
C169 H193 0.930 . S
H170 C165 0.931 . S
Co171 N168 2.135 . S
Co171 N174 2.121 . S
Co171 O179 2.055 . S
Co171 O182 2.039 . S
Co171 N185 2.140 . S
C172 O173 1.227 . S
C172 O182 1.265 . S
O173 C172 1.227 . S
N174 Co171 2.121 . S
N174 C176 1.375 . S
N174 C177 1.313 . S
C175 C176 1.338 . S
C175 N178 1.377 . S
C175 H195 0.930 . S
C176 N174 1.375 . S
C176 C175 1.338 . S
C176 H180 0.931 . S
C177 N174 1.313 . S
C177 N178 1.344 . S
C177 H181 0.930 . S
N178 C175 1.377 . S
N178 C177 1.344 . S
O179 Co171 2.055 . S
O179 C183 1.253 . S
H180 C176 0.931 . S
H181 C177 0.930 . S
O182 Co171 2.039 . S
O182 C172 1.265 . S
C183 O179 1.253 . S
C183 O184 1.227 . S
O184 C183 1.227 . S
N185 Co171 2.140 . S
N185 C188 1.346 . S
N185 C189 1.345 . S
C186 C187 1.387 . S
C186 C190 1.391 . S
C187 C186 1.387 . S
C187 C188 1.369 . S
C187 H196 0.929 . S
C188 N185 1.346 . S
C188 C187 1.369 . S
C188 H191 0.928 . S
C189 N185 1.345 . S
C189 C190 1.371 . S
C189 H192 0.931 . S
C190 C186 1.391 . S
C190 C189 1.371 . S
C190 H197 0.930 . S
H191 C188 0.928 . S
H192 C189 0.931 . S
H193 C169 0.930 . S
H194 C166 0.930 . S
H195 C175 0.930 . S
H196 C187 0.929 . S
H197 C190 0.930 . S
C198 C199 1.351 . S
C198 N201 1.368 . S
C198 H203 0.931 . S
C199 C198 1.351 . S
C199 N200 1.373 . S
C199 H227 0.930 . S
N200 C199 1.373 . S
N200 C202 1.340 . S
N201 C198 1.368 . S
N201 C202 1.321 . S
N201 Co204 2.135 . S
C202 N200 1.340 . S
C202 N201 1.321 . S
C202 H226 0.930 . S
H203 C198 0.931 . S
Co204 N201 2.135 . S
Co204 N207 2.121 . S
Co204 O212 2.055 . S
Co204 O215 2.039 . S
Co204 N218 2.140 . S
C205 O206 1.227 . S
C205 O215 1.265 . S
O206 C205 1.227 . S
N207 Co204 2.121 . S
N207 C209 1.375 . S
N207 C210 1.313 . S
C208 C209 1.338 . S
C208 N211 1.377 . S
C208 H228 0.930 . S
C209 N207 1.375 . S
C209 C208 1.338 . S
C209 H213 0.931 . S
C210 N207 1.313 . S
C210 N211 1.344 . S
C210 H214 0.930 . S
N211 C208 1.377 . S
N211 C210 1.344 . S
O212 Co204 2.055 . S
O212 C216 1.253 . S
H213 C209 0.931 . S
H214 C210 0.930 . S
O215 Co204 2.039 . S
O215 C205 1.265 . S
C216 O212 1.253 . S
C216 O217 1.227 . S
O217 C216 1.227 . S
N218 Co204 2.140 . S
N218 C221 1.346 . S
N218 C222 1.345 . S
C219 C220 1.387 . S
C219 C223 1.391 . S
C220 C219 1.387 . S
C220 C221 1.369 . S
C220 H229 0.929 . S
C221 N218 1.346 . S
C221 C220 1.369 . S
C221 H224 0.928 . S
C222 N218 1.345 . S
C222 C223 1.371 . S
C222 H225 0.931 . S
C223 C219 1.391 . S
C223 C222 1.371 . S
C223 H230 0.930 . S
H224 C221 0.928 . S
H225 C222 0.931 . S
H226 C202 0.930 . S
H227 C199 0.930 . S
H228 C208 0.930 . S
H229 C220 0.929 . S
H230 C223 0.930 . S
C231 C232 1.351 . S
C231 N234 1.368 . S
C231 H236 0.931 . S
C232 C231 1.351 . S
C232 N233 1.373 . S
C232 H260 0.930 . S
N233 C232 1.373 . S
N233 C235 1.340 . S
N234 C231 1.368 . S
N234 C235 1.321 . S
N234 Co237 2.135 . S
C235 N233 1.340 . S
C235 N234 1.321 . S
C235 H259 0.930 . S
H236 C231 0.931 . S
Co237 N234 2.135 . S
Co237 N240 2.121 1_655 S
Co237 O245 2.055 . S
Co237 O248 2.039 . S
Co237 N251 2.140 . S
C238 O239 1.227 . S
C238 O248 1.265 . S
O239 C238 1.227 . S
N240 Co237 2.121 1_455 S
N240 C242 1.375 . S
N240 C243 1.313 . S
C241 C242 1.338 . S
C241 N244 1.377 . S
C241 H261 0.930 . S
C242 N240 1.375 . S
C242 C241 1.338 . S
C242 H246 0.931 . S
C243 N240 1.313 . S
C243 N244 1.344 . S
C243 H247 0.930 . S
N244 C241 1.377 . S
N244 C243 1.344 . S
O245 Co237 2.055 . S
O245 C249 1.253 . S
H246 C242 0.931 . S
H247 C243 0.930 . S
O248 Co237 2.039 . S
O248 C238 1.265 . S
C249 O245 1.253 . S
C249 O250 1.227 . S
O250 C249 1.227 . S
N251 Co237 2.140 . S
N251 C254 1.346 . S
N251 C255 1.345 1_655 S
C252 C253 1.387 1_455 S
C252 C256 1.391 . S
C253 C252 1.387 1_655 S
C253 C254 1.369 . S
C253 H262 0.929 . S
C254 N251 1.346 . S
C254 C253 1.369 . S
C254 H257 0.928 . S
C255 N251 1.345 1_455 S
C255 C256 1.371 . S
C255 H258 0.931 . S
C256 C252 1.391 . S
C256 C255 1.371 . S
C256 H263 0.930 . S
H257 C254 0.928 . S
H258 C255 0.931 . S
H259 C235 0.930 . S
H260 C232 0.930 . S
H261 C241 0.930 . S
H262 C253 0.929 . S
H263 C256 0.930 . S
C264 C265 1.351 . S
C264 N267 1.368 . S
C264 H269 0.931 . S
C265 C264 1.351 . S
C265 N266 1.373 . S
C265 H293 0.930 . S
N266 C265 1.373 . S
N266 C268 1.340 . S
N267 C264 1.368 . S
N267 C268 1.321 . S
N267 Co270 2.135 . S
C268 N266 1.340 . S
C268 N267 1.321 . S
C268 H292 0.930 . S
H269 C264 0.931 . S
Co270 N267 2.135 . S
Co270 N273 2.121 1_565 S
Co270 O278 2.055 . S
Co270 O281 2.039 . S
Co270 N284 2.140 . S
C271 O272 1.227 . S
C271 O281 1.265 . S
O272 C271 1.227 . S
N273 Co270 2.121 1_545 S
N273 C275 1.375 . S
N273 C276 1.313 . S
C274 C275 1.338 . S
C274 N277 1.377 . S
C274 H294 0.930 . S
C275 N273 1.375 . S
C275 C274 1.338 . S
C275 H279 0.931 . S
C276 N273 1.313 . S
C276 N277 1.344 . S
C276 H280 0.930 . S
N277 C274 1.377 . S
N277 C276 1.344 . S
O278 Co270 2.055 . S
O278 C282 1.253 . S
H279 C275 0.931 . S
H280 C276 0.930 . S
O281 Co270 2.039 . S
O281 C271 1.265 . S
C282 O278 1.253 . S
C282 O283 1.227 . S
O283 C282 1.227 . S
N284 Co270 2.140 . S
N284 C287 1.346 . S
N284 C288 1.345 1_565 S
C285 C286 1.387 1_545 S
C285 C289 1.391 . S
C286 C285 1.387 1_565 S
C286 C287 1.369 . S
C286 H295 0.929 . S
C287 N284 1.346 . S
C287 C286 1.369 . S
C287 H290 0.928 . S
C288 N284 1.345 1_545 S
C288 C289 1.371 . S
C288 H291 0.931 . S
C289 C285 1.391 . S
C289 C288 1.371 . S
C289 H296 0.930 . S
H290 C287 0.928 . S
H291 C288 0.931 . S
H292 C268 0.930 . S
H293 C265 0.930 . S
H294 C274 0.930 . S
H295 C286 0.929 . S
H296 C289 0.930 . S
C297 C298 1.351 . S
C297 N300 1.368 . S
C297 H302 0.931 . S
C298 C297 1.351 . S
C298 N299 1.373 . S
C298 H326 0.930 . S
N299 C298 1.373 . S
N299 C301 1.340 . S
N300 C297 1.368 . S
N300 C301 1.321 . S
N300 Co303 2.135 . S
C301 N299 1.340 . S
C301 N300 1.321 . S
C301 H325 0.930 . S
H302 C297 0.931 . S
Co303 N300 2.135 . S
Co303 N306 2.121 . S
Co303 O311 2.055 . S
Co303 O314 2.039 . S
Co303 N317 2.140 . S
C304 O305 1.227 . S
C304 O314 1.265 . S
O305 C304 1.227 . S
N306 Co303 2.121 . S
N306 C308 1.375 . S
N306 C309 1.313 . S
C307 C308 1.338 . S
C307 N310 1.377 . S
C307 H327 0.930 . S
C308 N306 1.375 . S
C308 C307 1.338 . S
C308 H312 0.931 . S
C309 N306 1.313 . S
C309 N310 1.344 . S
C309 H313 0.930 . S
N310 C307 1.377 . S
N310 C309 1.344 . S
O311 Co303 2.055 . S
O311 C315 1.253 . S
H312 C308 0.931 . S
H313 C309 0.930 . S
O314 Co303 2.039 . S
O314 C304 1.265 . S
C315 O311 1.253 . S
C315 O316 1.227 . S
O316 C315 1.227 . S
N317 Co303 2.140 . S
N317 C320 1.346 . S
N317 C321 1.345 . S
C318 C319 1.387 . S
C318 C322 1.391 . S
C319 C318 1.387 . S
C319 C320 1.369 . S
C319 H328 0.929 . S
C320 N317 1.346 . S
C320 C319 1.369 . S
C320 H323 0.928 . S
C321 N317 1.345 . S
C321 C322 1.371 . S
C321 H324 0.931 . S
C322 C318 1.391 . S
C322 C321 1.371 . S
C322 H329 0.930 . S
H323 C320 0.928 . S
H324 C321 0.931 . S
H325 C301 0.930 . S
H326 C298 0.930 . S
H327 C307 0.930 . S
H328 C319 0.929 . S
H329 C322 0.930 . S
C330 C331 1.351 . S
C330 N333 1.368 . S
C330 H335 0.931 . S
C331 C330 1.351 . S
C331 N332 1.373 . S
C331 H359 0.930 . S
N332 C331 1.373 . S
N332 C334 1.340 . S
N333 C330 1.368 . S
N333 C334 1.321 . S
N333 Co336 2.135 . S
C334 N332 1.340 . S
C334 N333 1.321 . S
C334 H358 0.930 . S
H335 C330 0.931 . S
Co336 N333 2.135 . S
Co336 N339 2.121 . S
Co336 O344 2.055 . S
Co336 O347 2.039 . S
Co336 N350 2.140 . S
C337 O338 1.227 . S
C337 O347 1.265 . S
O338 C337 1.227 . S
N339 Co336 2.121 . S
N339 C341 1.375 . S
N339 C342 1.313 . S
C340 C341 1.338 . S
C340 N343 1.377 . S
C340 H360 0.930 . S
C341 N339 1.375 . S
C341 C340 1.338 . S
C341 H345 0.931 . S
C342 N339 1.313 . S
C342 N343 1.344 . S
C342 H346 0.930 . S
N343 C340 1.377 . S
N343 C342 1.344 . S
O344 Co336 2.055 . S
O344 C348 1.253 . S
H345 C341 0.931 . S
H346 C342 0.930 . S
O347 Co336 2.039 . S
O347 C337 1.265 . S
C348 O344 1.253 . S
C348 O349 1.227 . S
O349 C348 1.227 . S
N350 Co336 2.140 . S
N350 C353 1.346 . S
N350 C354 1.345 . S
C351 C352 1.387 . S
C351 C355 1.391 . S
C352 C351 1.387 . S
C352 C353 1.369 . S
C352 H361 0.929 . S
C353 N350 1.346 . S
C353 C352 1.369 . S
C353 H356 0.928 . S
C354 N350 1.345 . S
C354 C355 1.371 . S
C354 H357 0.931 . S
C355 C351 1.391 . S
C355 C354 1.371 . S
C355 H362 0.930 . S
H356 C353 0.928 . S
H357 C354 0.931 . S
H358 C334 0.930 . S
H359 C331 0.930 . S
H360 C340 0.930 . S
H361 C352 0.929 . S
H362 C355 0.930 . S
C363 C364 1.351 . S
C363 N366 1.368 . S
C363 H368 0.931 . S
C364 C363 1.351 . S
C364 N365 1.373 . S
C364 H392 0.930 . S
N365 C364 1.373 . S
N365 C367 1.340 . S
N366 C363 1.368 . S
N366 C367 1.321 . S
N366 Co369 2.135 . S
C367 N365 1.340 . S
C367 N366 1.321 . S
C367 H391 0.930 . S
H368 C363 0.931 . S
Co369 N366 2.135 . S
Co369 N372 2.121 1_655 S
Co369 O377 2.055 . S
Co369 O380 2.039 . S
Co369 N383 2.140 . S
C370 O371 1.227 . S
C370 O380 1.265 . S
O371 C370 1.227 . S
N372 Co369 2.121 1_455 S
N372 C374 1.375 . S
N372 C375 1.313 . S
C373 C374 1.338 . S
C373 N376 1.377 . S
C373 H393 0.930 . S
C374 N372 1.375 . S
C374 C373 1.338 . S
C374 H378 0.931 . S
C375 N372 1.313 . S
C375 N376 1.344 . S
C375 H379 0.930 . S
N376 C373 1.377 . S
N376 C375 1.344 . S
O377 Co369 2.055 . S
O377 C381 1.253 . S
H378 C374 0.931 . S
H379 C375 0.930 . S
O380 Co369 2.039 . S
O380 C370 1.265 . S
C381 O377 1.253 . S
C381 O382 1.227 . S
O382 C381 1.227 . S
N383 Co369 2.140 . S
N383 C386 1.346 . S
N383 C387 1.345 1_655 S
C384 C385 1.387 1_455 S
C384 C388 1.391 . S
C385 C384 1.387 1_655 S
C385 C386 1.369 . S
C385 H394 0.929 . S
C386 N383 1.346 . S
C386 C385 1.369 . S
C386 H389 0.928 . S
C387 N383 1.345 1_455 S
C387 C388 1.371 . S
C387 H390 0.931 . S
C388 C384 1.391 . S
C388 C387 1.371 . S
C388 H395 0.930 . S
H389 C386 0.928 . S
H390 C387 0.931 . S
H391 C367 0.930 . S
H392 C364 0.930 . S
H393 C373 0.930 . S
H394 C385 0.929 . S
H395 C388 0.930 . S
C396 C397 1.351 . S
C396 N399 1.368 . S
C396 H401 0.931 . S
C397 C396 1.351 . S
C397 N398 1.373 . S
C397 H425 0.930 . S
N398 C397 1.373 . S
N398 C400 1.340 . S
N399 C396 1.368 . S
N399 C400 1.321 . S
N399 Co402 2.135 . S
C400 N398 1.340 . S
C400 N399 1.321 . S
C400 H424 0.930 . S
H401 C396 0.931 . S
Co402 N399 2.135 . S
Co402 N405 2.121 1_545 S
Co402 O410 2.055 . S
Co402 O413 2.039 . S
Co402 N416 2.140 . S
C403 O404 1.227 . S
C403 O413 1.265 . S
O404 C403 1.227 . S
N405 Co402 2.121 1_565 S
N405 C407 1.375 . S
N405 C408 1.313 . S
C406 C407 1.338 . S
C406 N409 1.377 . S
C406 H426 0.930 . S
C407 N405 1.375 . S
C407 C406 1.338 . S
C407 H411 0.931 . S
C408 N405 1.313 . S
C408 N409 1.344 . S
C408 H412 0.930 . S
N409 C406 1.377 . S
N409 C408 1.344 . S
O410 Co402 2.055 . S
O410 C414 1.253 . S
H411 C407 0.931 . S
H412 C408 0.930 . S
O413 Co402 2.039 . S
O413 C403 1.265 . S
C414 O410 1.253 . S
C414 O415 1.227 . S
O415 C414 1.227 . S
N416 Co402 2.140 . S
N416 C419 1.346 . S
N416 C420 1.345 1_545 S
C417 C418 1.387 1_565 S
C417 C421 1.391 . S
C418 C417 1.387 1_545 S
C418 C419 1.369 . S
C418 H427 0.929 . S
C419 N416 1.346 . S
C419 C418 1.369 . S
C419 H422 0.928 . S
C420 N416 1.345 1_565 S
C420 C421 1.371 . S
C420 H423 0.931 . S
C421 C417 1.391 . S
C421 C420 1.371 . S
C421 H428 0.930 . S
H422 C419 0.928 . S
H423 C420 0.931 . S
H424 C400 0.930 . S
H425 C397 0.930 . S
H426 C406 0.930 . S
H427 C418 0.929 . S
H428 C421 0.930 . S
C429 C430 1.351 . S
C429 N432 1.368 . S
C429 H434 0.931 . S
C430 C429 1.351 . S
C430 N431 1.373 . S
C430 H458 0.930 . S
N431 C430 1.373 . S
N431 C433 1.340 . S
N432 C429 1.368 . S
N432 C433 1.321 . S
N432 Co435 2.135 . S
C433 N431 1.340 . S
C433 N432 1.321 . S
C433 H457 0.930 . S
H434 C429 0.931 . S
Co435 N432 2.135 . S
Co435 N438 2.121 . S
Co435 O443 2.055 . S
Co435 O446 2.039 . S
Co435 N449 2.140 . S
C436 O437 1.227 . S
C436 O446 1.265 . S
O437 C436 1.227 . S
N438 Co435 2.121 . S
N438 C440 1.375 . S
N438 C441 1.313 . S
C439 C440 1.338 . S
C439 N442 1.377 . S
C439 H459 0.930 . S
C440 N438 1.375 . S
C440 C439 1.338 . S
C440 H444 0.931 . S
C441 N438 1.313 . S
C441 N442 1.344 . S
C441 H445 0.930 . S
N442 C439 1.377 . S
N442 C441 1.344 . S
O443 Co435 2.055 . S
O443 C447 1.253 . S
H444 C440 0.931 . S
H445 C441 0.930 . S
O446 Co435 2.039 . S
O446 C436 1.265 . S
C447 O443 1.253 . S
C447 O448 1.227 . S
O448 C447 1.227 . S
N449 Co435 2.140 . S
N449 C452 1.346 . S
N449 C453 1.345 . S
C450 C451 1.387 . S
C450 C454 1.391 . S
C451 C450 1.387 . S
C451 C452 1.369 . S
C451 H460 0.929 . S
C452 N449 1.346 . S
C452 C451 1.369 . S
C452 H455 0.928 . S
C453 N449 1.345 . S
C453 C454 1.371 . S
C453 H456 0.931 . S
C454 C450 1.391 . S
C454 C453 1.371 . S
C454 H461 0.930 . S
H455 C452 0.928 . S
H456 C453 0.931 . S
H457 C433 0.930 . S
H458 C430 0.930 . S
H459 C439 0.930 . S
H460 C451 0.929 . S
H461 C454 0.930 . S
C462 C463 1.351 . S
C462 N465 1.368 . S
C462 H467 0.931 . S
C463 C462 1.351 . S
C463 N464 1.373 . S
C463 H491 0.930 . S
N464 C463 1.373 . S
N464 C466 1.340 . S
N465 C462 1.368 . S
N465 C466 1.321 . S
N465 Co468 2.135 . S
C466 N464 1.340 . S
C466 N465 1.321 . S
C466 H490 0.930 . S
H467 C462 0.931 . S
Co468 N465 2.135 . S
Co468 N471 2.121 . S
Co468 O476 2.055 . S
Co468 O479 2.039 . S
Co468 N482 2.140 . S
C469 O470 1.227 . S
C469 O479 1.265 . S
O470 C469 1.227 . S
N471 Co468 2.121 . S
N471 C473 1.375 . S
N471 C474 1.313 . S
C472 C473 1.338 . S
C472 N475 1.377 . S
C472 H492 0.930 . S
C473 N471 1.375 . S
C473 C472 1.338 . S
C473 H477 0.931 . S
C474 N471 1.313 . S
C474 N475 1.344 . S
C474 H478 0.930 . S
N475 C472 1.377 . S
N475 C474 1.344 . S
O476 Co468 2.055 . S
O476 C480 1.253 . S
H477 C473 0.931 . S
H478 C474 0.930 . S
O479 Co468 2.039 . S
O479 C469 1.265 . S
C480 O476 1.253 . S
C480 O481 1.227 . S
O481 C480 1.227 . S
N482 Co468 2.140 . S
N482 C485 1.346 . S
N482 C486 1.345 . S
C483 C484 1.387 . S
C483 C487 1.391 . S
C484 C483 1.387 . S
C484 C485 1.369 . S
C484 H493 0.929 . S
C485 N482 1.346 . S
C485 C484 1.369 . S
C485 H488 0.928 . S
C486 N482 1.345 . S
C486 C487 1.371 . S
C486 H489 0.931 . S
C487 C483 1.391 . S
C487 C486 1.371 . S
C487 H494 0.930 . S
H488 C485 0.928 . S
H489 C486 0.931 . S
H490 C466 0.930 . S
H491 C463 0.930 . S
H492 C472 0.930 . S
H493 C484 0.929 . S
H494 C487 0.930 . S
C495 C496 1.351 . S
C495 N498 1.368 . S
C495 H500 0.931 . S
C496 C495 1.351 . S
C496 N497 1.373 . S
C496 H524 0.930 . S
N497 C496 1.373 . S
N497 C499 1.340 . S
N498 C495 1.368 . S
N498 C499 1.321 . S
N498 Co501 2.135 . S
C499 N497 1.340 . S
C499 N498 1.321 . S
C499 H523 0.930 . S
H500 C495 0.931 . S
Co501 N498 2.135 . S
Co501 N504 2.121 1_455 S
Co501 O509 2.055 . S
Co501 O512 2.039 . S
Co501 N515 2.140 . S
C502 O503 1.227 . S
C502 O512 1.265 . S
O503 C502 1.227 . S
N504 Co501 2.121 1_655 S
N504 C506 1.375 . S
N504 C507 1.313 . S
C505 C506 1.338 . S
C505 N508 1.377 . S
C505 H525 0.930 . S
C506 N504 1.375 . S
C506 C505 1.338 . S
C506 H510 0.931 . S
C507 N504 1.313 . S
C507 N508 1.344 . S
C507 H511 0.930 . S
N508 C505 1.377 . S
N508 C507 1.344 . S
O509 Co501 2.055 . S
O509 C513 1.253 . S
H510 C506 0.931 . S
H511 C507 0.930 . S
O512 Co501 2.039 . S
O512 C502 1.265 . S
C513 O509 1.253 . S
C513 O514 1.227 . S
O514 C513 1.227 . S
N515 Co501 2.140 . S
N515 C518 1.346 . S
N515 C519 1.345 1_455 S
C516 C517 1.387 1_655 S
C516 C520 1.391 . S
C517 C516 1.387 1_455 S
C517 C518 1.369 . S
C517 H526 0.929 . S
C518 N515 1.346 . S
C518 C517 1.369 . S
C518 H521 0.928 . S
C519 N515 1.345 1_655 S
C519 C520 1.371 . S
C519 H522 0.931 . S
C520 C516 1.391 . S
C520 C519 1.371 . S
C520 H527 0.930 . S
H521 C518 0.928 . S
H522 C519 0.931 . S
H523 C499 0.930 . S
H524 C496 0.930 . S
H525 C505 0.930 . S
H526 C517 0.929 . S
H527 C520 0.930 . S
H528 C534 0.930 . S
H529 C538 0.930 . S
H530 C543 0.929 . S
H531 C541 0.929 . S
H532 C536 0.929 . S
H533 C542 0.929 . S
C534 H528 0.930 . S
C534 C535 1.367 . S
C534 C542 1.378 . S
C535 C534 1.367 . S
C535 C543 1.433 . S
C536 H532 0.929 . S
C536 C538 1.378 . S
C536 C540 1.350 . S
C537 C540 1.463 . S
C537 C542 1.350 . S
C537 N545 1.427 . S
C538 H529 0.930 . S
C538 C536 1.378 . S
C538 C539 1.367 . S
C539 C538 1.367 . S
C539 C541 1.433 . S
C540 C536 1.350 . S
C540 C537 1.463 . S
C540 N544 1.427 . S
C541 H531 0.929 . S
C541 C539 1.433 . S
C541 N544 1.384 . S
C542 H533 0.929 . S
C542 C534 1.378 . S
C542 C537 1.350 . S
C543 H530 0.929 . S
C543 C535 1.433 . S
C543 N545 1.384 . S
N544 C540 1.427 . S
N544 C541 1.384 . S
N545 C537 1.427 . S
N545 C543 1.384 . S
H546 C552 0.930 . S
H547 C556 0.930 . S
H548 C561 0.929 . S
H549 C559 0.929 . S
H550 C554 0.929 . S
H551 C560 0.929 . S
C552 H546 0.930 . S
C552 C553 1.367 . S
C552 C560 1.378 . S
C553 C552 1.367 . S
C553 C561 1.433 . S
C554 H550 0.929 . S
C554 C556 1.378 . S
C554 C558 1.350 . S
C555 C558 1.463 . S
C555 C560 1.350 . S
C555 N563 1.427 . S
C556 H547 0.930 . S
C556 C554 1.378 . S
C556 C557 1.367 . S
C557 C556 1.367 . S
C557 C559 1.433 . S
C558 C554 1.350 . S
C558 C555 1.463 . S
C558 N562 1.427 . S
C559 H549 0.929 . S
C559 C557 1.433 . S
C559 N562 1.384 . S
C560 H551 0.929 . S
C560 C552 1.378 . S
C560 C555 1.350 . S
C561 H548 0.929 . S
C561 C553 1.433 . S
C561 N563 1.384 . S
N562 C558 1.427 . S
N562 C559 1.384 . S
N563 C555 1.427 . S
N563 C561 1.384 . S
H564 C570 0.930 . S
H565 C574 0.930 . S
H566 C579 0.929 1_455 S
H567 C577 0.929 . S
H568 C572 0.929 . S
H569 C578 0.929 . S
C570 H564 0.930 . S
C570 C571 1.367 . S
C570 C578 1.378 . S
C571 C570 1.367 . S
C571 C579 1.433 . S
C572 H568 0.929 . S
C572 C574 1.378 . S
C572 C576 1.350 . S
C573 C576 1.463 . S
C573 C578 1.350 . S
C573 N581 1.427 . S
C574 H565 0.930 . S
C574 C572 1.378 . S
C574 C575 1.367 . S
C575 C574 1.367 . S
C575 C577 1.433 . S
C576 C572 1.350 . S
C576 C573 1.463 . S
C576 N580 1.427 . S
C577 H567 0.929 . S
C577 C575 1.433 . S
C577 N580 1.384 . S
C578 H569 0.929 . S
C578 C570 1.378 . S
C578 C573 1.350 . S
C579 H566 0.929 1_655 S
C579 C571 1.433 . S
C579 N581 1.384 . S
N580 C576 1.427 . S
N580 C577 1.384 . S
N581 C573 1.427 . S
N581 C579 1.384 . S
H582 C588 0.930 . S
H583 C592 0.930 . S
H584 C597 0.929 . S
H585 C595 0.929 . S
H586 C590 0.929 1_545 S
H587 C596 0.929 . S
C588 H582 0.930 . S
C588 C589 1.367 . S
C588 C596 1.378 . S
C589 C588 1.367 . S
C589 C597 1.433 . S
C590 H586 0.929 1_565 S
C590 C592 1.378 1_565 S
C590 C594 1.350 . S
C591 C594 1.463 . S
C591 C596 1.350 . S
C591 N599 1.427 . S
C592 H583 0.930 . S
C592 C590 1.378 1_545 S
C592 C593 1.367 1_545 S
C593 C592 1.367 1_565 S
C593 C595 1.433 . S
C594 C590 1.350 . S
C594 C591 1.463 . S
C594 N598 1.427 . S
C595 H585 0.929 . S
C595 C593 1.433 . S
C595 N598 1.384 . S
C596 H587 0.929 . S
C596 C588 1.378 . S
C596 C591 1.350 . S
C597 H584 0.929 . S
C597 C589 1.433 . S
C597 N599 1.384 . S
N598 C594 1.427 . S
N598 C595 1.384 . S
N599 C591 1.427 . S
N599 C597 1.384 . S
H600 C606 0.930 . S
H601 C610 0.930 . S
H602 C615 0.929 1_655 S
H603 C613 0.929 . S
H604 C608 0.929 . S
H605 C614 0.929 . S
C606 H600 0.930 . S
C606 C607 1.367 . S
C606 C614 1.378 . S
C607 C606 1.367 . S
C607 C615 1.433 . S
C608 H604 0.929 . S
C608 C610 1.378 . S
C608 C612 1.350 . S
C609 C612 1.463 . S
C609 C614 1.350 . S
C609 N617 1.427 . S
C610 H601 0.930 . S
C610 C608 1.378 . S
C610 C611 1.367 . S
C611 C610 1.367 . S
C611 C613 1.433 . S
C612 C608 1.350 . S
C612 C609 1.463 . S
C612 N616 1.427 . S
C613 H603 0.929 . S
C613 C611 1.433 . S
C613 N616 1.384 . S
C614 H605 0.929 . S
C614 C606 1.378 . S
C614 C609 1.350 . S
C615 H602 0.929 1_455 S
C615 C607 1.433 . S
C615 N617 1.384 . S
N616 C612 1.427 . S
N616 C613 1.384 . S
N617 C609 1.427 . S
N617 C615 1.384 . S
H618 C624 0.930 . S
H619 C628 0.930 . S
H620 C633 0.929 1_565 S
H621 C631 0.929 . S
H622 C626 0.929 . S
H623 C632 0.929 . S
C624 H618 0.930 . S
C624 C625 1.367 . S
C624 C632 1.378 . S
C625 C624 1.367 . S
C625 C633 1.433 . S
C626 H622 0.929 . S
C626 C628 1.378 . S
C626 C630 1.350 . S
C627 C630 1.463 . S
C627 C632 1.350 . S
C627 N635 1.427 . S
C628 H619 0.930 . S
C628 C626 1.378 . S
C628 C629 1.367 . S
C629 C628 1.367 . S
C629 C631 1.433 . S
C630 C626 1.350 . S
C630 C627 1.463 . S
C630 N634 1.427 . S
C631 H621 0.929 . S
C631 C629 1.433 . S
C631 N634 1.384 . S
C632 H623 0.929 . S
C632 C624 1.378 . S
C632 C627 1.350 . S
C633 H620 0.929 1_545 S
C633 C625 1.433 . S
C633 N635 1.384 . S
N634 C630 1.427 . S
N634 C631 1.384 . S
N635 C627 1.427 . S
N635 C633 1.384 . S
H636 C642 0.930 . S
H637 C646 0.930 . S
H638 C651 0.929 . S
H639 C649 0.929 . S
H640 C644 0.929 . S
H641 C650 0.929 . S
C642 H636 0.930 . S
C642 C643 1.367 . S
C642 C650 1.378 . S
C643 C642 1.367 . S
C643 C651 1.433 . S
C644 H640 0.929 . S
C644 C646 1.378 . S
C644 C648 1.350 . S
C645 C648 1.463 . S
C645 C650 1.350 . S
C645 N653 1.427 . S
C646 H637 0.930 . S
C646 C644 1.378 . S
C646 C647 1.367 . S
C647 C646 1.367 . S
C647 C649 1.433 . S
C648 C644 1.350 . S
C648 C645 1.463 . S
C648 N652 1.427 . S
C649 H639 0.929 . S
C649 C647 1.433 . S
C649 N652 1.384 . S
C650 H641 0.929 . S
C650 C642 1.378 . S
C650 C645 1.350 . S
C651 H638 0.929 . S
C651 C643 1.433 . S
C651 N653 1.384 . S
N652 C648 1.427 . S
N652 C649 1.384 . S
N653 C645 1.427 . S
N653 C651 1.384 . S
H654 C660 0.930 . S
H655 C664 0.930 . S
H656 C669 0.929 . S
H657 C667 0.929 . S
H658 C662 0.929 . S
H659 C668 0.929 . S
C660 H654 0.930 . S
C660 C661 1.367 . S
C660 C668 1.378 . S
C661 C660 1.367 . S
C661 C669 1.433 . S
C662 H658 0.929 . S
C662 C664 1.378 . S
C662 C666 1.350 . S
C663 C666 1.463 . S
C663 C668 1.350 . S
C663 N671 1.427 . S
C664 H655 0.930 . S
C664 C662 1.378 . S
C664 C665 1.367 . S
C665 C664 1.367 . S
C665 C667 1.433 . S
C666 C662 1.350 . S
C666 C663 1.463 . S
C666 N670 1.427 . S
C667 H657 0.929 . S
C667 C665 1.433 . S
C667 N670 1.384 . S
C668 H659 0.929 . S
C668 C660 1.378 . S
C668 C663 1.350 . S
C669 H656 0.929 . S
C669 C661 1.433 . S
C669 N671 1.384 . S
N670 C666 1.427 . S
N670 C667 1.384 . S
N671 C663 1.427 . S
N671 C669 1.384 . S
H672 C678 0.930 . S
H673 C682 0.930 . S
H674 C687 0.929 . S
H675 C685 0.929 . S
H676 C680 0.929 . S
H677 C686 0.929 . S
C678 H672 0.930 . S
C678 C679 1.367 . S
C678 C686 1.378 . S
C679 C678 1.367 . S
C679 C687 1.433 . S
C680 H676 0.929 . S
C680 C682 1.378 . S
C680 C684 1.350 . S
C681 C684 1.463 . S
C681 C686 1.350 . S
C681 N689 1.427 . S
C682 H673 0.930 . S
C682 C680 1.378 . S
C682 C683 1.367 . S
C683 C682 1.367 . S
C683 C685 1.433 . S
C684 C680 1.350 . S
C684 C681 1.463 . S
C684 N688 1.427 . S
C685 H675 0.929 . S
C685 C683 1.433 . S
C685 N688 1.384 . S
C686 H677 0.929 . S
C686 C678 1.378 . S
C686 C681 1.350 . S
C687 H674 0.929 . S
C687 C679 1.433 . S
C687 N689 1.384 . S
N688 C684 1.427 . S
N688 C685 1.384 . S
N689 C681 1.427 . S
N689 C687 1.384 . S
H690 C696 0.930 . S
H691 C700 0.930 . S
H692 C705 0.929 . S
H693 C703 0.929 . S
H694 C698 0.929 . S
H695 C704 0.929 . S
C696 H690 0.930 . S
C696 C697 1.367 . S
C696 C704 1.378 . S
C697 C696 1.367 . S
C697 C705 1.433 . S
C698 H694 0.929 . S
C698 C700 1.378 . S
C698 C702 1.350 . S
C699 C702 1.463 . S
C699 C704 1.350 . S
C699 N707 1.427 . S
C700 H691 0.930 . S
C700 C698 1.378 . S
C700 C701 1.367 . S
C701 C700 1.367 . S
C701 C703 1.433 . S
C702 C698 1.350 . S
C702 C699 1.463 . S
C702 N706 1.427 . S
C703 H693 0.929 . S
C703 C701 1.433 . S
C703 N706 1.384 . S
C704 H695 0.929 . S
C704 C696 1.378 . S
C704 C699 1.350 . S
C705 H692 0.929 . S
C705 C697 1.433 . S
C705 N707 1.384 . S
N706 C702 1.427 . S
N706 C703 1.384 . S
N707 C699 1.427 . S
N707 C705 1.384 . S
H708 C714 0.930 . S
H709 C718 0.930 . S
H710 C723 0.929 . S
H711 C721 0.929 . S
H712 C716 0.929 . S
H713 C722 0.929 . S
C714 H708 0.930 . S
C714 C715 1.367 . S
C714 C722 1.378 . S
C715 C714 1.367 . S
C715 C723 1.433 1_455 S
C716 H712 0.929 . S
C716 C718 1.378 . S
C716 C720 1.350 . S
C717 C720 1.463 . S
C717 C722 1.350 . S
C717 N725 1.427 . S
C718 H709 0.930 . S
C718 C716 1.378 . S
C718 C719 1.367 . S
C719 C718 1.367 . S
C719 C721 1.433 . S
C720 C716 1.350 . S
C720 C717 1.463 . S
C720 N724 1.427 . S
C721 H711 0.929 . S
C721 C719 1.433 . S
C721 N724 1.384 . S
C722 H713 0.929 . S
C722 C714 1.378 . S
C722 C717 1.350 . S
C723 H710 0.929 . S
C723 C715 1.433 1_655 S
C723 N725 1.384 1_655 S
N724 C720 1.427 . S
N724 C721 1.384 . S
N725 C717 1.427 . S
N725 C723 1.384 1_455 S
H726 C732 0.930 . S
H727 C736 0.930 . S
H728 C741 0.929 . S
H729 C739 0.929 . S
H730 C734 0.929 . S
H731 C740 0.929 . S
C732 H726 0.930 . S
C732 C733 1.367 . S
C732 C740 1.378 . S
C733 C732 1.367 . S
C733 C741 1.433 . S
C734 H730 0.929 . S
C734 C736 1.378 . S
C734 C738 1.350 . S
C735 C738 1.463 . S
C735 C740 1.350 . S
C735 N743 1.427 . S
C736 H727 0.930 . S
C736 C734 1.378 . S
C736 C737 1.367 . S
C737 C736 1.367 . S
C737 C739 1.433 . S
C738 C734 1.350 . S
C738 C735 1.463 . S
C738 N742 1.427 . S
C739 H729 0.929 . S
C739 C737 1.433 . S
C739 N742 1.384 . S
C740 H731 0.929 . S
C740 C732 1.378 . S
C740 C735 1.350 . S
C741 H728 0.929 . S
C741 C733 1.433 . S
C741 N743 1.384 . S
N742 C738 1.427 . S
N742 C739 1.384 . S
N743 C735 1.427 . S
N743 C741 1.384 . S
H744 C750 0.930 . S
H745 C754 0.930 . S
H746 C759 0.929 1_455 S
H747 C757 0.929 . S
H748 C752 0.929 . S
H749 C758 0.929 . S
C750 H744 0.930 . S
C750 C751 1.367 . S
C750 C758 1.378 . S
C751 C750 1.367 . S
C751 C759 1.433 . S
C752 H748 0.929 . S
C752 C754 1.378 . S
C752 C756 1.350 . S
C753 C756 1.463 . S
C753 C758 1.350 . S
C753 N761 1.427 . S
C754 H745 0.930 . S
C754 C752 1.378 . S
C754 C755 1.367 . S
C755 C754 1.367 . S
C755 C757 1.433 . S
C756 C752 1.350 . S
C756 C753 1.463 . S
C756 N760 1.427 . S
C757 H747 0.929 . S
C757 C755 1.433 . S
C757 N760 1.384 . S
C758 H749 0.929 . S
C758 C750 1.378 . S
C758 C753 1.350 . S
C759 H746 0.929 1_655 S
C759 C751 1.433 . S
C759 N761 1.384 . S
N760 C756 1.427 . S
N760 C757 1.384 . S
N761 C753 1.427 . S
N761 C759 1.384 . S
H762 C768 0.930 . S
H763 C772 0.930 . S
H764 C777 0.929 . S
H765 C775 0.929 . S
H766 C770 0.929 . S
H767 C776 0.929 . S
C768 H762 0.930 . S
C768 C769 1.367 . S
C768 C776 1.378 . S
C769 C768 1.367 . S
C769 C777 1.433 . S
C770 H766 0.929 . S
C770 C772 1.378 . S
C770 C774 1.350 . S
C771 C774 1.463 . S
C771 C776 1.350 . S
C771 N779 1.427 . S
C772 H763 0.930 . S
C772 C770 1.378 . S
C772 C773 1.367 . S
C773 C772 1.367 . S
C773 C775 1.433 . S
C774 C770 1.350 . S
C774 C771 1.463 . S
C774 N778 1.427 . S
C775 H765 0.929 . S
C775 C773 1.433 . S
C775 N778 1.384 . S
C776 H767 0.929 . S
C776 C768 1.378 . S
C776 C771 1.350 . S
C777 H764 0.929 . S
C777 C769 1.433 . S
C777 N779 1.384 . S
N778 C774 1.427 . S
N778 C775 1.384 . S
N779 C771 1.427 . S
N779 C777 1.384 . S
H780 C786 0.930 . S
H781 C790 0.930 . S
H782 C795 0.929 . S
H783 C793 0.929 . S
H784 C788 0.929 . S
H785 C794 0.929 . S
C786 H780 0.930 . S
C786 C787 1.367 . S
C786 C794 1.378 . S
C787 C786 1.367 . S
C787 C795 1.433 . S
C788 H784 0.929 . S
C788 C790 1.378 . S
C788 C792 1.350 . S
C789 C792 1.463 . S
C789 C794 1.350 . S
C789 N797 1.427 . S
C790 H781 0.930 . S
C790 C788 1.378 . S
C790 C791 1.367 . S
C791 C790 1.367 . S
C791 C793 1.433 . S
C792 C788 1.350 . S
C792 C789 1.463 . S
C792 N796 1.427 . S
C793 H783 0.929 . S
C793 C791 1.433 . S
C793 N796 1.384 . S
C794 H785 0.929 . S
C794 C786 1.378 . S
C794 C789 1.350 . S
C795 H782 0.929 . S
C795 C787 1.433 . S
C795 N797 1.384 . S
N796 C792 1.427 . S
N796 C793 1.384 . S
N797 C789 1.427 . S
N797 C795 1.384 . S
H798 C804 0.930 . S
H799 C808 0.930 . S
H800 C813 0.929 . S
H801 C811 0.929 . S
H802 C806 0.929 . S
H803 C812 0.929 . S
C804 H798 0.930 . S
C804 C805 1.367 . S
C804 C812 1.378 . S
C805 C804 1.367 . S
C805 C813 1.433 . S
C806 H802 0.929 . S
C806 C808 1.378 . S
C806 C810 1.350 . S
C807 C810 1.463 . S
C807 C812 1.350 . S
C807 N815 1.427 . S
C808 H799 0.930 . S
C808 C806 1.378 . S
C808 C809 1.367 . S
C809 C808 1.367 . S
C809 C811 1.433 . S
C810 C806 1.350 . S
C810 C807 1.463 . S
C810 N814 1.427 . S
C811 H801 0.929 . S
C811 C809 1.433 . S
C811 N814 1.384 . S
C812 H803 0.929 . S
C812 C804 1.378 . S
C812 C807 1.350 . S
C813 H800 0.929 . S
C813 C805 1.433 . S
C813 N815 1.384 . S
N814 C810 1.427 . S
N814 C811 1.384 . S
N815 C807 1.427 . S
N815 C813 1.384 . S
H816 C822 0.930 . S
H817 C826 0.930 . S
H818 C831 0.929 . S
H819 C829 0.929 . S
H820 C824 0.929 . S
H821 C830 0.929 . S
C822 H816 0.930 . S
C822 C823 1.367 . S
C822 C830 1.378 . S
C823 C822 1.367 . S
C823 C831 1.433 . S
C824 H820 0.929 . S
C824 C826 1.378 . S
C824 C828 1.350 . S
C825 C828 1.463 . S
C825 C830 1.350 . S
C825 N833 1.427 . S
C826 H817 0.930 . S
C826 C824 1.378 . S
C826 C827 1.367 . S
C827 C826 1.367 . S
C827 C829 1.433 . S
C828 C824 1.350 . S
C828 C825 1.463 . S
C828 N832 1.427 . S
C829 H819 0.929 . S
C829 C827 1.433 . S
C829 N832 1.384 . S
C830 H821 0.929 . S
C830 C822 1.378 . S
C830 C825 1.350 . S
C831 H818 0.929 . S
C831 C823 1.433 . S
C831 N833 1.384 . S
N832 C828 1.427 . S
N832 C829 1.384 . S
N833 C825 1.427 . S
N833 C831 1.384 . S
H834 C840 0.930 . S
H835 C844 0.930 . S
H836 C849 0.929 . S
H837 C847 0.929 . S
H838 C842 0.929 . S
H839 C848 0.929 . S
C840 H834 0.930 . S
C840 C841 1.367 . S
C840 C848 1.378 . S
C841 C840 1.367 . S
C841 C849 1.433 . S
C842 H838 0.929 . S
C842 C844 1.378 . S
C842 C846 1.350 . S
C843 C846 1.463 . S
C843 C848 1.350 . S
C843 N851 1.427 . S
C844 H835 0.930 . S
C844 C842 1.378 . S
C844 C845 1.367 . S
C845 C844 1.367 . S
C845 C847 1.433 . S
C846 C842 1.350 . S
C846 C843 1.463 . S
C846 N850 1.427 . S
C847 H837 0.929 . S
C847 C845 1.433 . S
C847 N850 1.384 . S
C848 H839 0.929 . S
C848 C840 1.378 . S
C848 C843 1.350 . S
C849 H836 0.929 . S
C849 C841 1.433 . S
C849 N851 1.384 . S
N850 C846 1.427 . S
N850 C847 1.384 . S
N851 C843 1.427 . S
N851 C849 1.384 . S
H852 C858 0.930 . S
H853 C862 0.930 . S
H854 C867 0.929 . S
H855 C865 0.929 . S
H856 C860 0.929 . S
H857 C866 0.929 . S
C858 H852 0.930 . S
C858 C859 1.367 . S
C858 C866 1.378 . S
C859 C858 1.367 . S
C859 C867 1.433 . S
C860 H856 0.929 . S
C860 C862 1.378 . S
C860 C864 1.350 . S
C861 C864 1.463 . S
C861 C866 1.350 . S
C861 N869 1.427 . S
C862 H853 0.930 . S
C862 C860 1.378 . S
C862 C863 1.367 . S
C863 C862 1.367 . S
C863 C865 1.433 . S
C864 C860 1.350 . S
C864 C861 1.463 . S
C864 N868 1.427 . S
C865 H855 0.929 . S
C865 C863 1.433 . S
C865 N868 1.384 . S
C866 H857 0.929 . S
C866 C858 1.378 . S
C866 C861 1.350 . S
C867 H854 0.929 . S
C867 C859 1.433 . S
C867 N869 1.384 . S
N868 C864 1.427 . S
N868 C865 1.384 . S
N869 C861 1.427 . S
N869 C867 1.384 . S
H870 C876 0.930 . S
H871 C880 0.930 . S
H872 C885 0.929 . S
H873 C883 0.929 . S
H874 C878 0.929 . S
H875 C884 0.929 . S
C876 H870 0.930 . S
C876 C877 1.367 . S
C876 C884 1.378 . S
C877 C876 1.367 . S
C877 C885 1.433 . S
C878 H874 0.929 . S
C878 C880 1.378 . S
C878 C882 1.350 . S
C879 C882 1.463 . S
C879 C884 1.350 . S
C879 N887 1.427 . S
C880 H871 0.930 . S
C880 C878 1.378 . S
C880 C881 1.367 . S
C881 C880 1.367 . S
C881 C883 1.433 . S
C882 C878 1.350 . S
C882 C879 1.463 . S
C882 N886 1.427 . S
C883 H873 0.929 . S
C883 C881 1.433 . S
C883 N886 1.384 . S
C884 H875 0.929 . S
C884 C876 1.378 . S
C884 C879 1.350 . S
C885 H872 0.929 . S
C885 C877 1.433 . S
C885 N887 1.384 . S
N886 C882 1.427 . S
N886 C883 1.384 . S
N887 C879 1.427 . S
N887 C885 1.384 . S
H888 C894 0.930 . S
H889 C898 0.930 . S
H890 C903 0.929 . S
H891 C901 0.929 . S
H892 C896 0.929 . S
H893 C902 0.929 . S
C894 H888 0.930 . S
C894 C895 1.367 . S
C894 C902 1.378 . S
C895 C894 1.367 . S
C895 C903 1.433 . S
C896 H892 0.929 . S
C896 C898 1.378 . S
C896 C900 1.350 . S
C897 C900 1.463 . S
C897 C902 1.350 . S
C897 N905 1.427 . S
C898 H889 0.930 . S
C898 C896 1.378 . S
C898 C899 1.367 . S
C899 C898 1.367 . S
C899 C901 1.433 . S
C900 C896 1.350 . S
C900 C897 1.463 . S
C900 N904 1.427 . S
C901 H891 0.929 . S
C901 C899 1.433 . S
C901 N904 1.384 . S
C902 H893 0.929 . S
C902 C894 1.378 . S
C902 C897 1.350 . S
C903 H890 0.929 . S
C903 C895 1.433 . S
C903 N905 1.384 . S
N904 C900 1.427 . S
N904 C901 1.384 . S
N905 C897 1.427 . S
N905 C903 1.384 . S
H906 C912 0.930 . S
H907 C916 0.930 . S
H908 C921 0.929 . S
H909 C919 0.929 . S
H910 C914 0.929 . S
H911 C920 0.929 . S
C912 H906 0.930 . S
C912 C913 1.367 . S
C912 C920 1.378 . S
C913 C912 1.367 . S
C913 C921 1.433 . S
C914 H910 0.929 . S
C914 C916 1.378 . S
C914 C918 1.350 . S
C915 C918 1.463 . S
C915 C920 1.350 . S
C915 N923 1.427 . S
C916 H907 0.930 . S
C916 C914 1.378 . S
C916 C917 1.367 . S
C917 C916 1.367 . S
C917 C919 1.433 . S
C918 C914 1.350 . S
C918 C915 1.463 . S
C918 N922 1.427 . S
C919 H909 0.929 . S
C919 C917 1.433 . S
C919 N922 1.384 . S
C920 H911 0.929 . S
C920 C912 1.378 . S
C920 C915 1.350 . S
C921 H908 0.929 . S
C921 C913 1.433 . S
C921 N923 1.384 . S
N922 C918 1.427 . S
N922 C919 1.384 . S
N923 C915 1.427 . S
N923 C921 1.384 . S
H924 C930 0.930 . S
H925 C934 0.930 . S
H926 C939 0.929 . S
H927 C937 0.929 . S
H928 C932 0.929 . S
H929 C938 0.929 . S
C930 H924 0.930 . S
C930 C931 1.367 . S
C930 C938 1.378 . S
C931 C930 1.367 . S
C931 C939 1.433 . S
C932 H928 0.929 . S
C932 C934 1.378 . S
C932 C936 1.350 . S
C933 C936 1.463 . S
C933 C938 1.350 . S
C933 N941 1.427 . S
C934 H925 0.930 . S
C934 C932 1.378 . S
C934 C935 1.367 . S
C935 C934 1.367 . S
C935 C937 1.433 . S
C936 C932 1.350 . S
C936 C933 1.463 . S
C936 N940 1.427 . S
C937 H927 0.929 . S
C937 C935 1.433 . S
C937 N940 1.384 . S
C938 H929 0.929 . S
C938 C930 1.378 . S
C938 C933 1.350 . S
C939 H926 0.929 . S
C939 C931 1.433 . S
C939 N941 1.384 . S
N940 C936 1.427 . S
N940 C937 1.384 . S
N941 C933 1.427 . S
N941 C939 1.384 . S
H942 C948 0.930 . S
H943 C952 0.930 . S
H944 C957 0.929 . S
H945 C955 0.929 . S
H946 C950 0.929 . S
H947 C956 0.929 . S
C948 H942 0.930 . S
C948 C949 1.367 . S
C948 C956 1.378 . S
C949 C948 1.367 . S
C949 C957 1.433 . S
C950 H946 0.929 . S
C950 C952 1.378 . S
C950 C954 1.350 . S
C951 C954 1.463 . S
C951 C956 1.350 . S
C951 N959 1.427 . S
C952 H943 0.930 . S
C952 C950 1.378 . S
C952 C953 1.367 . S
C953 C952 1.367 . S
C953 C955 1.433 . S
C954 C950 1.350 . S
C954 C951 1.463 . S
C954 N958 1.427 . S
C955 H945 0.929 . S
C955 C953 1.433 . S
C955 N958 1.384 . S
C956 H947 0.929 . S
C956 C948 1.378 . S
C956 C951 1.350 . S
C957 H944 0.929 . S
C957 C949 1.433 . S
C957 N959 1.384 . S
N958 C954 1.427 . S
N958 C955 1.384 . S
N959 C951 1.427 . S
N959 C957 1.384 . S
H960 C966 0.930 . S
H961 C970 0.930 . S
H962 C975 0.929 . S
H963 C973 0.929 . S
H964 C968 0.929 1_554 S
H965 C974 0.929 1_556 S
C966 H960 0.930 . S
C966 C967 1.367 . S
C966 C974 1.378 . S
C967 C966 1.367 . S
C967 C975 1.433 1_545 S
C968 H964 0.929 1_556 S
C968 C970 1.378 . S
C968 C972 1.350 . S
C969 C972 1.463 1_544 S
C969 C974 1.350 . S
C969 N977 1.427 1_545 S
C970 H961 0.930 . S
C970 C968 1.378 . S
C970 C971 1.367 . S
C971 C970 1.367 . S
C971 C973 1.433 1_565 S
C972 C968 1.350 . S
C972 C969 1.463 1_566 S
C972 N976 1.427 1_565 S
C973 H963 0.929 . S
C973 C971 1.433 1_545 S
C973 N976 1.384 . S
C974 H965 0.929 1_554 S
C974 C966 1.378 . S
C974 C969 1.350 . S
C975 H962 0.929 . S
C975 C967 1.433 1_565 S
C975 N977 1.384 . S
N976 C972 1.427 1_545 S
N976 C973 1.384 . S
N977 C969 1.427 1_565 S
N977 C975 1.384 . S
H978 C984 0.930 . S
H979 C988 0.930 . S
H980 C993 0.929 . S
H981 C991 0.929 . S
H982 C986 0.929 . S
H983 C992 0.929 . S
C984 H978 0.930 . S
C984 C985 1.367 . S
C984 C992 1.378 . S
C985 C984 1.367 . S
C985 C993 1.433 . S
C986 H982 0.929 . S
C986 C988 1.378 . S
C986 C990 1.350 . S
C987 C990 1.463 1_554 S
C987 C992 1.350 . S
C987 N995 1.427 . S
C988 H979 0.930 . S
C988 C986 1.378 . S
C988 C989 1.367 . S
C989 C988 1.367 . S
C989 C991 1.433 . S
C990 C986 1.350 . S
C990 C987 1.463 1_556 S
C990 N994 1.427 . S
C991 H981 0.929 . S
C991 C989 1.433 . S
C991 N994 1.384 . S
C992 H983 0.929 . S
C992 C984 1.378 . S
C992 C987 1.350 . S
C993 H980 0.929 . S
C993 C985 1.433 . S
C993 N995 1.384 . S
N994 C990 1.427 . S
N994 C991 1.384 . S
N995 C987 1.427 . S
N995 C993 1.384 . S
H996 C1002 0.930 . S
H997 C1006 0.930 . S
H998 C1011 0.929 . S
H999 C1009 0.929 . S
H1000 C1004 0.929 1_655 S
H1001 C1010 0.929 1_455 S
C1002 H996 0.930 . S
C1002 C1003 1.367 . S
C1002 C1010 1.378 . S
C1003 C1002 1.367 . S
C1003 C1011 1.433 . S
C1004 H1000 0.929 1_455 S
C1004 C1006 1.378 . S
C1004 C1008 1.350 . S
C1005 C1008 1.463 1_654 S
C1005 C1010 1.350 . S
C1005 N1013 1.427 1_554 S
C1006 H997 0.930 . S
C1006 C1004 1.378 . S
C1006 C1007 1.367 . S
C1007 C1006 1.367 . S
C1007 C1009 1.433 . S
C1008 C1004 1.350 . S
C1008 C1005 1.463 1_456 S
C1008 N1012 1.427 1_556 S
C1009 H999 0.929 . S
C1009 C1007 1.433 . S
C1009 N1012 1.384 1_556 S
C1010 H1001 0.929 1_655 S
C1010 C1002 1.378 . S
C1010 C1005 1.350 . S
C1011 H998 0.929 . S
C1011 C1003 1.433 . S
C1011 N1013 1.384 1_554 S
N1012 C1008 1.427 1_554 S
N1012 C1009 1.384 1_554 S
N1013 C1005 1.427 1_556 S
N1013 C1011 1.384 1_556 S
H1014 C1020 0.930 . S
H1015 C1024 0.930 . S
H1016 C1029 0.929 . S
H1017 C1027 0.929 . S
H1018 C1022 0.929 1_545 S
H1019 C1028 0.929 1_565 S
C1020 H1014 0.930 . S
C1020 C1021 1.367 . S
C1020 C1028 1.378 . S
C1021 C1020 1.367 . S
C1021 C1029 1.433 1_655 S
C1022 H1018 0.929 1_565 S
C1022 C1024 1.378 . S
C1022 C1026 1.350 . S
C1023 C1026 1.463 1_646 S
C1023 C1028 1.350 . S
C1023 N1031 1.427 1_655 S
C1024 H1015 0.930 . S
C1024 C1022 1.378 . S
C1024 C1025 1.367 . S
C1025 C1024 1.367 . S
C1025 C1027 1.433 1_455 S
C1026 C1022 1.350 . S
C1026 C1023 1.463 1_464 S
C1026 N1030 1.427 1_455 S
C1027 H1017 0.929 . S
C1027 C1025 1.433 1_655 S
C1027 N1030 1.384 . S
C1028 H1019 0.929 1_545 S
C1028 C1020 1.378 . S
C1028 C1023 1.350 . S
C1029 H1016 0.929 . S
C1029 C1021 1.433 1_455 S
C1029 N1031 1.384 . S
N1030 C1026 1.427 1_655 S
N1030 C1027 1.384 . S
N1031 C1023 1.427 1_455 S
N1031 C1029 1.384 . S
H1032 C1038 0.930 . S
H1033 C1042 0.930 . S
H1034 C1047 0.929 1_565 S
H1035 C1045 0.929 1_545 S
H1036 C1040 0.929 . S
H1037 C1046 0.929 . S
C1038 H1032 0.930 . S
C1038 C1039 1.367 . S
C1038 C1046 1.378 . S
C1039 C1038 1.367 . S
C1039 C1047 1.433 . S
C1040 H1036 0.929 . S
C1040 C1042 1.378 . S
C1040 C1044 1.350 . S
C1041 C1044 1.463 1_645 S
C1041 C1046 1.350 . S
C1041 N1049 1.427 1_545 S
C1042 H1033 0.930 . S
C1042 C1040 1.378 . S
C1042 C1043 1.367 . S
C1043 C1042 1.367 . S
C1043 C1045 1.433 . S
C1044 C1040 1.350 . S
C1044 C1041 1.463 1_465 S
C1044 N1048 1.427 1_565 S
C1045 H1035 0.929 1_565 S
C1045 C1043 1.433 . S
C1045 N1048 1.384 1_565 S
C1046 H1037 0.929 . S
C1046 C1038 1.378 . S
C1046 C1041 1.350 . S
C1047 H1034 0.929 1_545 S
C1047 C1039 1.433 . S
C1047 N1049 1.384 1_545 S
N1048 C1044 1.427 1_545 S
N1048 C1045 1.384 1_545 S
N1049 C1041 1.427 1_565 S
N1049 C1047 1.384 1_565 S
H1050 C1056 0.930 . S
H1051 C1060 0.930 . S
H1052 C1065 0.929 . S
H1053 C1063 0.929 . S
H1054 C1058 0.929 . S
H1055 C1064 0.929 . S
C1056 H1050 0.930 . S
C1056 C1057 1.367 . S
C1056 C1064 1.378 . S
C1057 C1056 1.367 . S
C1057 C1065 1.433 . S
C1058 H1054 0.929 . S
C1058 C1060 1.378 . S
C1058 C1062 1.350 . S
C1059 C1062 1.463 1_545 S
C1059 C1064 1.350 . S
C1059 N1067 1.427 . S
C1060 H1051 0.930 . S
C1060 C1058 1.378 . S
C1060 C1061 1.367 . S
C1061 C1060 1.367 . S
C1061 C1063 1.433 . S
C1062 C1058 1.350 . S
C1062 C1059 1.463 1_565 S
C1062 N1066 1.427 . S
C1063 H1053 0.929 . S
C1063 C1061 1.433 . S
C1063 N1066 1.384 . S
C1064 H1055 0.929 . S
C1064 C1056 1.378 . S
C1064 C1059 1.350 . S
C1065 H1052 0.929 . S
C1065 C1057 1.433 . S
C1065 N1067 1.384 . S
N1066 C1062 1.427 . S
N1066 C1063 1.384 . S
N1067 C1059 1.427 . S
N1067 C1065 1.384 . S
H1068 C1074 0.930 . S
H1069 C1078 0.930 . S
H1070 C1083 0.929 . S
H1071 C1081 0.929 . S
H1072 C1076 0.929 . S
H1073 C1082 0.929 . S
C1074 H1068 0.930 . S
C1074 C1075 1.367 . S
C1074 C1082 1.378 . S
C1075 C1074 1.367 . S
C1075 C1083 1.433 . S
C1076 H1072 0.929 . S
C1076 C1078 1.378 . S
C1076 C1080 1.350 . S
C1077 C1080 1.463 . S
C1077 C1082 1.350 . S
C1077 N1085 1.427 . S
C1078 H1069 0.930 . S
C1078 C1076 1.378 . S
C1078 C1079 1.367 . S
C1079 C1078 1.367 . S
C1079 C1081 1.433 . S
C1080 C1076 1.350 . S
C1080 C1077 1.463 . S
C1080 N1084 1.427 . S
C1081 H1071 0.929 . S
C1081 C1079 1.433 . S
C1081 N1084 1.384 . S
C1082 H1073 0.929 . S
C1082 C1074 1.378 . S
C1082 C1077 1.350 . S
C1083 H1070 0.929 . S
C1083 C1075 1.433 . S
C1083 N1085 1.384 . S
N1084 C1080 1.427 . S
N1084 C1081 1.384 . S
N1085 C1077 1.427 . S
N1085 C1083 1.384 . S
H1086 C1092 0.930 1_655 S
H1087 C1096 0.930 1_455 S
H1088 C1101 0.929 . S
H1089 C1099 0.929 . S
H1090 C1094 0.929 . S
H1091 C1100 0.929 . S
C1092 H1086 0.930 1_455 S
C1092 C1093 1.367 . S
C1092 C1100 1.378 1_455 S
C1093 C1092 1.367 . S
C1093 C1101 1.433 . S
C1094 H1090 0.929 . S
C1094 C1096 1.378 1_455 S
C1094 C1098 1.350 1_455 S
C1095 C1098 1.463 1_455 S
C1095 C1100 1.350 1_455 S
C1095 N1103 1.427 . S
C1096 H1087 0.930 1_655 S
C1096 C1094 1.378 1_655 S
C1096 C1097 1.367 . S
C1097 C1096 1.367 . S
C1097 C1099 1.433 . S
C1098 C1094 1.350 1_655 S
C1098 C1095 1.463 1_655 S
C1098 N1102 1.427 . S
C1099 H1089 0.929 . S
C1099 C1097 1.433 . S
C1099 N1102 1.384 . S
C1100 H1091 0.929 . S
C1100 C1092 1.378 1_655 S
C1100 C1095 1.350 1_655 S
C1101 H1088 0.929 . S
C1101 C1093 1.433 . S
C1101 N1103 1.384 . S
N1102 C1098 1.427 . S
N1102 C1099 1.384 . S
N1103 C1095 1.427 . S
N1103 C1101 1.384 . S
H1104 C1110 0.930 . S
H1105 C1114 0.930 . S
H1106 C1119 0.929 . S
H1107 C1117 0.929 . S
H1108 C1112 0.929 . S
H1109 C1118 0.929 . S
C1110 H1104 0.930 . S
C1110 C1111 1.367 . S
C1110 C1118 1.378 . S
C1111 C1110 1.367 . S
C1111 C1119 1.433 . S
C1112 H1108 0.929 . S
C1112 C1114 1.378 . S
C1112 C1116 1.350 . S
C1113 C1116 1.463 . S
C1113 C1118 1.350 . S
C1113 N1121 1.427 . S
C1114 H1105 0.930 . S
C1114 C1112 1.378 . S
C1114 C1115 1.367 . S
C1115 C1114 1.367 . S
C1115 C1117 1.433 . S
C1116 C1112 1.350 . S
C1116 C1113 1.463 . S
C1116 N1120 1.427 . S
C1117 H1107 0.929 . S
C1117 C1115 1.433 . S
C1117 N1120 1.384 . S
C1118 H1109 0.929 . S
C1118 C1110 1.378 . S
C1118 C1113 1.350 . S
C1119 H1106 0.929 . S
C1119 C1111 1.433 . S
C1119 N1121 1.384 . S
N1120 C1116 1.427 . S
N1120 C1117 1.384 . S
N1121 C1113 1.427 . S
N1121 C1119 1.384 . S
H1122 C1128 0.930 . S
H1123 C1132 0.930 . S
H1124 C1137 0.929 . S
H1125 C1135 0.929 . S
H1126 C1130 0.929 . S
H1127 C1136 0.929 . S
C1128 H1122 0.930 . S
C1128 C1129 1.367 . S
C1128 C1136 1.378 . S
C1129 C1128 1.367 . S
C1129 C1137 1.433 . S
C1130 H1126 0.929 . S
C1130 C1132 1.378 . S
C1130 C1134 1.350 . S
C1131 C1134 1.463 . S
C1131 C1136 1.350 . S
C1131 N1139 1.427 . S
C1132 H1123 0.930 . S
C1132 C1130 1.378 . S
C1132 C1133 1.367 . S
C1133 C1132 1.367 . S
C1133 C1135 1.433 . S
C1134 C1130 1.350 . S
C1134 C1131 1.463 . S
C1134 N1138 1.427 . S
C1135 H1125 0.929 . S
C1135 C1133 1.433 . S
C1135 N1138 1.384 . S
C1136 H1127 0.929 . S
C1136 C1128 1.378 . S
C1136 C1131 1.350 . S
C1137 H1124 0.929 . S
C1137 C1129 1.433 . S
C1137 N1139 1.384 . S
N1138 C1134 1.427 . S
N1138 C1135 1.384 . S
N1139 C1131 1.427 . S
N1139 C1137 1.384 . S
H1140 C1146 0.930 . S
H1141 C1150 0.930 . S
H1142 C1155 0.929 . S
H1143 C1153 0.929 . S
H1144 C1148 0.929 . S
H1145 C1154 0.929 . S
C1146 H1140 0.930 . S
C1146 C1147 1.367 . S
C1146 C1154 1.378 . S
C1147 C1146 1.367 . S
C1147 C1155 1.433 . S
C1148 H1144 0.929 . S
C1148 C1150 1.378 . S
C1148 C1152 1.350 . S
C1149 C1152 1.463 . S
C1149 C1154 1.350 . S
C1149 N1157 1.427 . S
C1150 H1141 0.930 . S
C1150 C1148 1.378 . S
C1150 C1151 1.367 . S
C1151 C1150 1.367 . S
C1151 C1153 1.433 . S
C1152 C1148 1.350 . S
C1152 C1149 1.463 . S
C1152 N1156 1.427 . S
C1153 H1143 0.929 . S
C1153 C1151 1.433 . S
C1153 N1156 1.384 . S
C1154 H1145 0.929 . S
C1154 C1146 1.378 . S
C1154 C1149 1.350 . S
C1155 H1142 0.929 . S
C1155 C1147 1.433 . S
C1155 N1157 1.384 . S
N1156 C1152 1.427 . S
N1156 C1153 1.384 . S
N1157 C1149 1.427 . S
N1157 C1155 1.384 . S
H1158 C1164 0.930 . S
H1159 C1168 0.930 . S
H1160 C1173 0.929 . S
H1161 C1171 0.929 . S
H1162 C1166 0.929 . S
H1163 C1172 0.929 . S
C1164 H1158 0.930 . S
C1164 C1165 1.367 . S
C1164 C1172 1.378 . S
C1165 C1164 1.367 . S
C1165 C1173 1.433 . S
C1166 H1162 0.929 . S
C1166 C1168 1.378 . S
C1166 C1170 1.350 . S
C1167 C1170 1.463 . S
C1167 C1172 1.350 . S
C1167 N1175 1.427 . S
C1168 H1159 0.930 . S
C1168 C1166 1.378 . S
C1168 C1169 1.367 . S
C1169 C1168 1.367 . S
C1169 C1171 1.433 . S
C1170 C1166 1.350 . S
C1170 C1167 1.463 . S
C1170 N1174 1.427 . S
C1171 H1161 0.929 . S
C1171 C1169 1.433 . S
C1171 N1174 1.384 . S
C1172 H1163 0.929 . S
C1172 C1164 1.378 . S
C1172 C1167 1.350 . S
C1173 H1160 0.929 . S
C1173 C1165 1.433 . S
C1173 N1175 1.384 . S
N1174 C1170 1.427 . S
N1174 C1171 1.384 . S
N1175 C1167 1.427 . S
N1175 C1173 1.384 . S
H1176 C1182 0.930 . S
H1177 C1186 0.930 . S
H1178 C1191 0.929 . S
H1179 C1189 0.929 . S
H1180 C1184 0.929 . S
H1181 C1190 0.929 . S
C1182 H1176 0.930 . S
C1182 C1183 1.367 . S
C1182 C1190 1.378 . S
C1183 C1182 1.367 . S
C1183 C1191 1.433 . S
C1184 H1180 0.929 . S
C1184 C1186 1.378 . S
C1184 C1188 1.350 . S
C1185 C1188 1.463 . S
C1185 C1190 1.350 . S
C1185 N1193 1.427 . S
C1186 H1177 0.930 . S
C1186 C1184 1.378 . S
C1186 C1187 1.367 . S
C1187 C1186 1.367 . S
C1187 C1189 1.433 . S
C1188 C1184 1.350 . S
C1188 C1185 1.463 . S
C1188 N1192 1.427 . S
C1189 H1179 0.929 . S
C1189 C1187 1.433 . S
C1189 N1192 1.384 . S
C1190 H1181 0.929 . S
C1190 C1182 1.378 . S
C1190 C1185 1.350 . S
C1191 H1178 0.929 . S
C1191 C1183 1.433 . S
C1191 N1193 1.384 . S
N1192 C1188 1.427 . S
N1192 C1189 1.384 . S
N1193 C1185 1.427 . S
N1193 C1191 1.384 . S
H1194 C1200 0.930 . S
H1195 C1204 0.930 . S
H1196 C1209 0.929 . S
H1197 C1207 0.929 . S
H1198 C1202 0.929 . S
H1199 C1208 0.929 . S
C1200 H1194 0.930 . S
C1200 C1201 1.367 . S
C1200 C1208 1.378 . S
C1201 C1200 1.367 . S
C1201 C1209 1.433 . S
C1202 H1198 0.929 . S
C1202 C1204 1.378 . S
C1202 C1206 1.350 . S
C1203 C1206 1.463 . S
C1203 C1208 1.350 . S
C1203 N1211 1.427 . S
C1204 H1195 0.930 . S
C1204 C1202 1.378 . S
C1204 C1205 1.367 . S
C1205 C1204 1.367 . S
C1205 C1207 1.433 . S
C1206 C1202 1.350 . S
C1206 C1203 1.463 . S
C1206 N1210 1.427 . S
C1207 H1197 0.929 . S
C1207 C1205 1.433 . S
C1207 N1210 1.384 . S
C1208 H1199 0.929 . S
C1208 C1200 1.378 . S
C1208 C1203 1.350 . S
C1209 H1196 0.929 . S
C1209 C1201 1.433 . S
C1209 N1211 1.384 . S
N1210 C1206 1.427 . S
N1210 C1207 1.384 . S
N1211 C1203 1.427 . S
N1211 C1209 1.384 . S
H1212 C1218 0.930 . S
H1213 C1222 0.930 . S
H1214 C1227 0.929 . S
H1215 C1225 0.929 . S
H1216 C1220 0.929 . S
H1217 C1226 0.929 . S
C1218 H1212 0.930 . S
C1218 C1219 1.367 . S
C1218 C1226 1.378 . S
C1219 C1218 1.367 . S
C1219 C1227 1.433 . S
C1220 H1216 0.929 . S
C1220 C1222 1.378 . S
C1220 C1224 1.350 . S
C1221 C1224 1.463 . S
C1221 C1226 1.350 . S
C1221 N1229 1.427 . S
C1222 H1213 0.930 . S
C1222 C1220 1.378 . S
C1222 C1223 1.367 . S
C1223 C1222 1.367 . S
C1223 C1225 1.433 . S
C1224 C1220 1.350 . S
C1224 C1221 1.463 . S
C1224 N1228 1.427 . S
C1225 H1215 0.929 . S
C1225 C1223 1.433 . S
C1225 N1228 1.384 . S
C1226 H1217 0.929 . S
C1226 C1218 1.378 . S
C1226 C1221 1.350 . S
C1227 H1214 0.929 . S
C1227 C1219 1.433 . S
C1227 N1229 1.384 . S
N1228 C1224 1.427 . S
N1228 C1225 1.384 . S
N1229 C1221 1.427 . S
N1229 C1227 1.384 . S
H1230 C1236 0.930 . S
H1231 C1240 0.930 . S
H1232 C1245 0.929 . S
H1233 C1243 0.929 . S
H1234 C1238 0.929 . S
H1235 C1244 0.929 . S
C1236 H1230 0.930 . S
C1236 C1237 1.367 . S
C1236 C1244 1.378 . S
C1237 C1236 1.367 . S
C1237 C1245 1.433 . S
C1238 H1234 0.929 . S
C1238 C1240 1.378 . S
C1238 C1242 1.350 . S
C1239 C1242 1.463 . S
C1239 C1244 1.350 . S
C1239 N1247 1.427 . S
C1240 H1231 0.930 . S
C1240 C1238 1.378 . S
C1240 C1241 1.367 . S
C1241 C1240 1.367 . S
C1241 C1243 1.433 . S
C1242 C1238 1.350 . S
C1242 C1239 1.463 . S
C1242 N1246 1.427 . S
C1243 H1233 0.929 . S
C1243 C1241 1.433 . S
C1243 N1246 1.384 . S
C1244 H1235 0.929 . S
C1244 C1236 1.378 . S
C1244 C1239 1.350 . S
C1245 H1232 0.929 . S
C1245 C1237 1.433 . S
C1245 N1247 1.384 . S
N1246 C1242 1.427 . S
N1246 C1243 1.384 . S
N1247 C1239 1.427 . S
N1247 C1245 1.384 . S
C535 N13 0.814 . S
C539 C54 0.822 . S
C553 C87 0.820 . S
C557 N46 0.818 . S
C571 C120 0.823 . S
C575 N79 0.813 . S
C589 N112 0.819 . S
C593 C21 0.817 . S
C607 C252 0.815 . S
C611 N145 0.824 . S
C625 C153 0.815 . S
C629 N178 0.825 . S
C643 C186 0.818 . S
C647 N211 0.819 . S
C661 N244 0.812 . S
C665 C219 0.822 . S
C679 N277 0.813 . S
C683 C318 0.822 . S
C697 N310 0.823 . S
C701 C351 0.816 . S
C715 C384 0.820 . S
C719 N343 0.819 . S
C733 C285 0.815 . S
C737 N376 0.824 . S
C751 C516 0.822 . S
C755 N409 0.814 . S
C769 C417 0.824 . S
C773 N442 0.812 . S
C787 N475 0.823 . S
C791 C450 0.815 . S
C805 N508 0.824 . S
C809 C483 0.815 . S
C823 N2 1.893 . S
C827 N68 1.900 . S
C841 N35 1.896 . S
C845 N101 1.899 . S
C859 N200 1.896 . S
C863 N134 1.895 . S
C877 N233 1.900 . S
C881 N167 1.892 . S
C895 N332 1.899 . S
C899 N266 1.896 . S
C913 N299 1.896 . S
C917 N365 1.895 . S
C931 N398 1.893 . S
C935 N464 1.898 . S
C949 N431 1.893 . S
C953 N497 1.899 . S
C967 C18 1.819 . S
C971 C282 1.819 . S
C985 C51 1.814 . S
C989 C315 1.814 . S
C1003 C84 1.813 . S
C1007 C348 1.813 . S
C1021 C381 1.817 . S
C1025 C117 1.817 . S
C1039 C414 1.819 . S
C1043 C150 1.819 . S
C1057 C183 1.811 . S
C1061 C447 1.811 . S
C1075 C216 1.809 . S
C1079 C480 1.809 . S
C1093 C513 1.809 . S
C1097 C249 1.809 . S
C1111 C172 1.599 . S
C1115 C7 1.596 . S
C1129 C205 1.597 . S
C1133 C40 1.598 . S
C1147 C73 1.597 . S
C1151 C238 1.599 . S
C1165 C139 1.599 . S
C1169 C106 1.596 . S
C1183 C271 1.596 . S
C1187 C436 1.599 . S
C1201 C469 1.599 . S
C1205 C304 1.596 . S
C1219 C502 1.597 . S
C1223 C337 1.596 . S
C1237 C370 1.599 . S
C1241 C403 1.598 . S
