# Generated by pormake.
# Topology oof, (8)-cn, num edge types: 1
# Building blocks:
#     Node 0, Type 0, BuildingBlock: TAGTUT_clean_sbu_3, # of connection points: 8
#     Node 1, Type 0, BuildingBlock: TAGTUT_clean_sbu_3, # of connection points: 8
#     Node 2, Type 0, BuildingBlock: TAGTUT_clean_sbu_3, # of connection points: 8
#     Node 3, Type 0, BuildingBlock: TAGTUT_clean_sbu_3, # of connection points: 8
#     Edge 4, Type (0, 0), BuildingBlock: FUNLAD_clean_linker_1, # of connection points: 2
#     Edge 5, Type (0, 0), BuildingBlock: FUNLAD_clean_linker_1, # of connection points: 2
#     Edge 6, Type (0, 0), BuildingBlock: FUNLAD_clean_linker_1, # of connection points: 2
#     Edge 7, Type (0, 0), BuildingBlock: FUNLAD_clean_linker_1, # of connection points: 2
#     Edge 8, Type (0, 0), BuildingBlock: FUNLAD_clean_linker_1, # of connection points: 2
#     Edge 9, Type (0, 0), BuildingBlock: FUNLAD_clean_linker_1, # of connection points: 2
#     Edge 10, Type (0, 0), BuildingBlock: FUNLAD_clean_linker_1, # of connection points: 2
#     Edge 11, Type (0, 0), BuildingBlock: FUNLAD_clean_linker_1, # of connection points: 2
#     Edge 12, Type (0, 0), BuildingBlock: FUNLAD_clean_linker_1, # of connection points: 2
#     Edge 13, Type (0, 0), BuildingBlock: FUNLAD_clean_linker_1, # of connection points: 2
#     Edge 14, Type (0, 0), BuildingBlock: FUNLAD_clean_linker_1, # of connection points: 2
#     Edge 15, Type (0, 0), BuildingBlock: FUNLAD_clean_linker_1, # of connection points: 2
#     Edge 16, Type (0, 0), BuildingBlock: FUNLAD_clean_linker_1, # of connection points: 2
#     Edge 17, Type (0, 0), BuildingBlock: FUNLAD_clean_linker_1, # of connection points: 2
#     Edge 18, Type (0, 0), BuildingBlock: FUNLAD_clean_linker_1, # of connection points: 2
#     Edge 19, Type (0, 0), BuildingBlock: FUNLAD_clean_linker_1, # of connection points: 2
# Relax obj value: 0.061
# Max RMSD: 0.153
# Mean RMSD: 0.153
data_MOF--net-oof--node1-TAGTUT_clean_sbu_3--edge1-FUNLAD_clean_linker_1
_symmetry_space_group_name_H-M    P1
_symmetry_Int_Tables_number       1
_symmetry_cell_setting            triclinic
loop_
_symmetry_equiv_pos_as_xyz
'x, y, z'
_cell_length_a     16.104332
_cell_length_b     66.40274
_cell_length_c     15.800713
_cell_angle_alpha  89.829249
_cell_angle_beta   86.332203
_cell_angle_gamma 89.878818
loop_
_atom_site_label
_atom_site_type_symbol
_atom_site_fract_x
_atom_site_fract_y
_atom_site_fract_z
_atom_type_partial_charge
C0 C 0.17004 0.15891 0.25513 0.0
C1 C 0.98817 0.22356 0.32849 0.0
C2 C 0.82523 0.19692 0.15122 0.0
Mg3 Mg 0.11639 0.11472 0.20255 0.0
Mg4 Mg 0.92831 0.09597 0.24501 0.0
O5 O -0.00746 0.11721 0.20015 0.0
Mg6 Mg 0.9801 0.14564 0.24449 0.0
O7 O 0.97566 0.17435 0.28291 0.0
Mg8 Mg 0.02959 0.18757 0.17965 0.0
Mg9 Mg 0.8748 0.18546 0.32849 0.0
C10 C 0.79048 0.12951 0.2226 0.0
O11 O 0.94241 0.13743 0.38295 0.0
O12 O 0.10755 0.08347 0.13891 0.0
O13 O 0.85898 0.16301 0.43055 0.0
O14 O 0.10827 0.09738 0.33257 0.0
O15 O 0.9772 0.07173 0.16405 0.0
O16 O 0.97463 0.08978 0.36552 0.0
O17 O 0.01901 0.15635 0.11236 0.0
O18 O 0.11096 0.1321 0.07436 0.0
C19 C 0.06866 0.14789 0.05664 0.0
C20 C 0.0522 0.06979 0.13227 0.0
O21 O 0.84442 0.14366 0.21893 0.0
O22 O 0.03223 0.21693 0.26333 0.0
O23 O 0.80793 0.11092 0.23686 0.0
O24 O 0.90328 0.19689 0.131 0.0
O25 O 0.92554 0.21399 0.3622 0.0
O26 O 0.79574 0.19122 0.2245 0.0
O27 O 0.11401 0.14556 0.26732 0.0
O28 O 0.15361 0.17648 0.22686 0.0
C29 C 0.05108 0.08954 0.38252 0.0
C30 C 0.89675 0.14616 0.44171 0.0
C31 C 0.03557 0.88047 0.57329 0.0
C32 C 0.98709 0.95282 0.68593 0.0
C33 C 0.01979 0.92797 0.92836 0.0
Mg34 Mg 0.01694 0.83658 0.65982 0.0
Mg35 Mg 0.88155 0.82685 0.82017 0.0
O36 O 0.96835 0.84333 0.77658 0.0
Mg37 Mg 0.95794 0.87329 0.76398 0.0
O38 O 0.95783 0.90318 0.74219 0.0
Mg39 Mg 0.08022 0.90888 0.73416 0.0
Mg40 Mg 0.88909 0.92161 0.79951 0.0
C41 C 0.87959 0.86217 0.95624 0.0
O42 O 0.81867 0.8733 0.75014 0.0
O43 O 0.04464 0.8048 0.71459 0.0
O44 O 0.77607 0.90479 0.78816 0.0
O45 O 0.89062 0.82534 0.61333 0.0
O46 O 0.95533 0.79947 0.82793 0.0
O47 O 0.79559 0.82414 0.72258 0.0
O48 O 0.09481 0.87583 0.78099 0.0
O49 O 0.13732 0.84842 0.70796 0.0
C50 C 0.1521 0.8639 0.75262 0.0
C51 C 0.01738 0.79402 0.77808 0.0
O52 O 0.92367 0.87409 0.90716 0.0
O53 O 0.05167 0.94137 0.68543 0.0
O54 O 0.85195 0.84507 0.93263 0.0
O55 O 0.07539 0.92272 0.87066 0.0
O56 O 0.91675 0.94772 0.72181 0.0
O57 O 0.94218 0.92628 0.91821 0.0
O58 O 0.98884 0.86967 0.62366 0.0
O59 O 0.07588 0.89562 0.59956 0.0
C60 C 0.81594 0.82242 0.64366 0.0
C61 C 0.76206 0.88662 0.76574 0.0
C62 C 0.60176 0.64046 0.02255 0.0
C63 C 0.60407 0.56489 0.12404 0.0
C64 C 0.6197 0.58877 0.36638 0.0
Mg65 Mg 0.55665 0.68212 0.12322 0.0
Mg66 Mg 0.42153 0.68425 0.28985 0.0
O67 O 0.51386 0.67131 0.23643 0.0
Mg68 Mg 0.52137 0.64161 0.21274 0.0
O69 O 0.54013 0.61253 0.18183 0.0
Mg70 Mg 0.66549 0.6116 0.17595 0.0
Mg71 Mg 0.48524 0.59143 0.23816 0.0
C72 C 0.44384 0.64584 0.40946 0.0
O73 O 0.37934 0.63642 0.20094 0.0
O74 O 0.56678 0.71333 0.18843 0.0
O75 O 0.36065 0.6036 0.23691 0.0
O76 O 0.42299 0.69017 0.08407 0.0
O77 O 0.48009 0.71335 0.30589 0.0
O78 O 0.33119 0.68686 0.19553 0.0
O79 O 0.66155 0.64404 0.22615 0.0
O80 O 0.68554 0.67386 0.16358 0.0
C81 C 0.7115 0.65807 0.20008 0.0
C82 C 0.53595 0.72181 0.25632 0.0
O83 O 0.49003 0.63633 0.35363 0.0
O84 O 0.65905 0.57882 0.12562 0.0
O85 O 0.40925 0.66296 0.39573 0.0
O86 O 0.67107 0.59677 0.31067 0.0
O87 O 0.53024 0.56689 0.15847 0.0
O88 O 0.54204 0.58759 0.35531 0.0
O89 O 0.54865 0.64896 0.0748 0.0
O90 O 0.64907 0.62601 0.0447 0.0
C91 C 0.34819 0.69062 0.11707 0.0
C92 C 0.3324 0.621 0.21778 0.0
C93 C 0.56326 0.37351 0.54984 0.0
C94 C 0.55987 0.45155 0.63979 0.0
C95 C 0.59763 0.42777 0.88183 0.0
Mg96 Mg 0.52332 0.33345 0.66929 0.0
Mg97 Mg 0.3777 0.33627 0.82575 0.0
O98 O 0.47894 0.34649 0.77695 0.0
Mg99 Mg 0.48793 0.37556 0.74288 0.0
O100 O 0.50436 0.40418 0.70337 0.0
Mg101 Mg 0.62972 0.40522 0.69025 0.0
Mg102 Mg 0.45368 0.42481 0.76792 0.0
C103 C 0.40934 0.37488 0.93908 0.0
O104 O 0.34571 0.38044 0.73271 0.0
O105 O 0.52536 0.30344 0.75026 0.0
O106 O 0.32823 0.41292 0.7734 0.0
O107 O 0.39319 0.32613 0.6272 0.0
O108 O 0.42606 0.30718 0.85646 0.0
O109 O 0.2918 0.33145 0.72755 0.0
O110 O 0.62867 0.37353 0.75216 0.0
O111 O 0.65216 0.34198 0.70839 0.0
C112 C 0.67851 0.35884 0.73459 0.0
C113 C 0.48483 0.29707 0.81822 0.0
O114 O 0.45982 0.38285 0.88237 0.0
O115 O 0.61638 0.43777 0.6331 0.0
O116 O 0.36653 0.3589 0.9264 0.0
O117 O 0.64321 0.42103 0.81896 0.0
O118 O 0.49139 0.44935 0.68469 0.0
O119 O 0.51848 0.42816 0.88139 0.0
O120 O 0.51521 0.36556 0.60822 0.0
O121 O 0.60868 0.38891 0.56407 0.0
C122 C 0.31633 0.32642 0.65206 0.0
C123 C 0.29919 0.39576 0.75267 0.0
H124 H 0.02563 0.16721 0.95473 0.0
C125 C 0.05783 0.1532 0.9672 0.0
H126 H 0.09493 0.12487 0.918 0.0
H127 H 0.81096 0.12118 0.66277 0.0
H128 H 0.77001 0.09484 0.76356 0.0
H129 H 0.84523 0.08987 0.89317 0.0
H130 H 0.962 0.11106 0.92264 0.0
C131 C 0.06851 0.13953 0.90473 0.0
C132 C 0.02657 0.14205 0.82379 0.0
C133 C 0.95899 0.12924 0.80676 0.0
C134 C 0.9154 0.13208 0.73196 0.0
C135 C 0.84691 0.11947 0.71786 0.0
C136 C 0.82243 0.10437 0.77545 0.0
C137 C 0.86478 0.10158 0.84844 0.0
C138 C 0.93209 0.11383 0.86436 0.0
H139 H 0.93569 0.12433 0.53685 0.0
C140 C 0.90421 0.13867 0.52911 0.0
H141 H 0.86801 0.16607 0.5876 0.0
H142 H 0.15746 0.16798 0.83308 0.0
H143 H 0.19825 0.19436 0.73226 0.0
H144 H 0.1216 0.19958 0.60368 0.0
H145 H 0.00456 0.17851 0.57476 0.0
C146 C 0.89419 0.15115 0.59597 0.0
C147 C 0.93951 0.14766 0.67415 0.0
C148 C 0.00778 0.16029 0.6906 0.0
C149 C 0.0516 0.1574 0.76515 0.0
C150 C 0.12083 0.16984 0.77855 0.0
C151 C 0.14529 0.18495 0.72091 0.0
C152 C 0.10224 0.18789 0.64849 0.0
C153 C 0.03466 0.1757 0.63292 0.0
H154 H 0.07855 0.88504 0.43938 0.0
C155 C 0.03108 0.87796 0.4815 0.0
H156 H 0.9138 0.86348 0.49084 0.0
H157 H 0.92046 0.91175 0.12144 0.0
H158 H 0.91074 0.94209 0.20659 0.0
H159 H 0.91681 0.94037 0.36212 0.0
H160 H 0.93345 0.90835 0.43315 0.0
C161 C 0.96284 0.87019 0.44954 0.0
C162 C 0.95032 0.87123 0.35758 0.0
C163 C 0.93986 0.89015 0.31742 0.0
C164 C 0.93435 0.89112 0.22819 0.0
C165 C 0.92469 0.91016 0.18921 0.0
C166 C 0.91884 0.92769 0.23734 0.0
C167 C 0.92237 0.92672 0.32485 0.0
C168 C 0.93271 0.90823 0.36477 0.0
H169 H 0.81864 0.85962 0.08438 0.0
C170 C 0.87023 0.86651 0.04714 0.0
H171 H 0.98724 0.88074 0.05046 0.0
H172 H 0.95761 0.83258 0.41765 0.0
H173 H 0.95826 0.80202 0.33392 0.0
H174 H 0.95355 0.80366 0.17825 0.0
H175 H 0.9486 0.83564 0.10578 0.0
C176 C 0.93372 0.87442 0.0866 0.0
C177 C 0.93689 0.87319 0.17999 0.0
C178 C 0.94407 0.85419 0.22072 0.0
C179 C 0.94907 0.85324 0.31004 0.0
C180 C 0.95436 0.83415 0.34976 0.0
C181 C 0.95499 0.81648 0.30249 0.0
C182 C 0.95226 0.8174 0.21495 0.0
C183 C 0.94812 0.83595 0.17413 0.0
H184 H 0.62517 0.65256 0.89284 0.0
C185 C 0.5875 0.64233 0.93292 0.0
H186 H 0.48709 0.62197 0.94486 0.0
H187 H 0.30014 0.65742 0.64067 0.0
H188 H 0.20278 0.66448 0.76079 0.0
H189 H 0.24323 0.65929 0.90724 0.0
H190 H 0.37832 0.64553 0.93449 0.0
C191 C 0.52528 0.63169 0.9027 0.0
C192 C 0.50098 0.63438 0.81486 0.0
C193 C 0.42226 0.64283 0.80067 0.0
C194 C 0.4008 0.64687 0.71663 0.0
C195 C 0.32045 0.65454 0.70356 0.0
C196 C 0.26391 0.65861 0.77187 0.0
C197 C 0.28639 0.65555 0.85431 0.0
C198 C 0.36442 0.64771 0.869 0.0
H199 H 0.45035 0.62177 0.50494 0.0
C200 C 0.43954 0.63779 0.49594 0.0
H201 H 0.43196 0.66645 0.55334 0.0
H202 H 0.64709 0.61338 0.82031 0.0
H203 H 0.74585 0.60649 0.70135 0.0
H204 H 0.71861 0.6181 0.55723 0.0
H205 H 0.592 0.6359 0.53091 0.0
C206 C 0.44081 0.65035 0.562 0.0
C207 C 0.45956 0.64329 0.6477 0.0
C208 C 0.53795 0.63439 0.662 0.0
C209 C 0.55679 0.62908 0.74566 0.0
C210 C 0.63182 0.61863 0.7583 0.0
C211 C 0.68883 0.61449 0.69059 0.0
C212 C 0.67326 0.62092 0.60945 0.0
C213 C 0.59933 0.63093 0.59507 0.0
H214 H 0.45204 0.39549 0.03541 0.0
C215 C 0.41396 0.38225 0.02618 0.0
H216 H 0.35843 0.35649 0.08402 0.0
H217 H 0.64719 0.34891 0.33193 0.0
H218 H 0.67379 0.3203 0.23861 0.0
H219 H 0.59152 0.31531 0.11387 0.0
H220 H 0.48341 0.33888 0.08111 0.0
C221 C 0.39215 0.37041 0.09284 0.0
C222 C 0.43546 0.37265 0.17217 0.0
C223 C 0.49804 0.3585 0.19068 0.0
C224 C 0.54476 0.36122 0.26296 0.0
C225 C 0.60861 0.34726 0.2788 0.0
C226 C 0.62489 0.33086 0.22548 0.0
C227 C 0.57877 0.32807 0.15517 0.0
C228 C 0.51645 0.34172 0.13733 0.0
H229 H 0.51123 0.35463 0.45253 0.0
C230 C 0.55054 0.36763 0.46215 0.0
H231 H 0.60522 0.39375 0.40635 0.0
H232 H 0.31662 0.40166 0.15663 0.0
H233 H 0.2885 0.42998 0.25096 0.0
H234 H 0.37001 0.43493 0.37628 0.0
H235 H 0.47953 0.41159 0.40825 0.0
C236 C 0.57062 0.37999 0.39677 0.0
C237 C 0.52784 0.3779 0.31699 0.0
C238 C 0.46529 0.39206 0.29842 0.0
C239 C 0.4187 0.38934 0.22602 0.0
C240 C 0.35482 0.40327 0.21009 0.0
C241 C 0.33774 0.41951 0.26396 0.0
C242 C 0.38355 0.42228 0.33455 0.0
C243 C 0.44651 0.40876 0.35201 0.0
H244 H 0.69408 0.1508 0.18976 0.0
C245 C 0.7046 0.13568 0.21372 0.0
H246 H 0.64756 0.10952 0.26793 0.0
H247 H 0.38432 0.18639 0.33431 0.0
H248 H 0.48001 0.197 0.43824 0.0
H249 H 0.6104 0.17828 0.45595 0.0
H250 H 0.64582 0.14893 0.36983 0.0
C251 C 0.63973 0.12461 0.24287 0.0
C252 C 0.55579 0.13354 0.24301 0.0
C253 C 0.53532 0.15031 0.2959 0.0
C254 C 0.45972 0.16081 0.28712 0.0
C255 C 0.44091 0.17775 0.33921 0.0
C256 C 0.49527 0.18401 0.39898 0.0
C257 C 0.56872 0.1735 0.40882 0.0
C258 C 0.58865 0.15678 0.3584 0.0
H259 H 0.26661 0.13799 0.29149 0.0
C260 C 0.25596 0.15261 0.26269 0.0
H261 H 0.31232 0.17758 0.19788 0.0
H262 H 0.57588 0.10139 0.13543 0.0
H263 H 0.47948 0.09066 0.03236 0.0
H264 H 0.34805 0.10908 0.01646 0.0
H265 H 0.31242 0.13832 0.1033 0.0
C266 C 0.32036 0.16301 0.22785 0.0
C267 C 0.40405 0.15405 0.22785 0.0
C268 C 0.4242 0.13722 0.17535 0.0
C269 C 0.50006 0.12679 0.18369 0.0
C270 C 0.51896 0.10993 0.13119 0.0
C271 C 0.46419 0.10361 0.07189 0.0
C272 C 0.39016 0.11395 0.06303 0.0
C273 C 0.3702 0.13062 0.11372 0.0
H274 H 0.63735 0.89116 0.72445 0.0
C275 C 0.67617 0.88098 0.75888 0.0
H276 H 0.68051 0.85573 0.84046 0.0
H277 H 0.31705 0.90053 0.76386 0.0
H278 H 0.36804 0.92881 0.84175 0.0
H279 H 0.50037 0.92635 0.91206 0.0
H280 H 0.5844 0.89579 0.89967 0.0
C281 C 0.64237 0.86564 0.80408 0.0
C282 C 0.55143 0.8627 0.80519 0.0
C283 C 0.49857 0.87941 0.82329 0.0
C284 C 0.4188 0.87995 0.7912 0.0
C285 C 0.37431 0.89843 0.79489 0.0
C286 C 0.40362 0.91495 0.83823 0.0
C287 C 0.47827 0.91362 0.87732 0.0
C288 C 0.52584 0.89611 0.86957 0.0
H289 H 0.24465 0.87316 0.83995 0.0
C290 C 0.23634 0.8671 0.77724 0.0
H291 H 0.29202 0.85589 0.66284 0.0
H292 H 0.63254 0.82685 0.77918 0.0
H293 H 0.57515 0.79637 0.72155 0.0
H294 H 0.42951 0.79543 0.68187 0.0
H295 H 0.34113 0.82493 0.69795 0.0
C296 C 0.30169 0.86199 0.72526 0.0
C297 C 0.38708 0.86233 0.75416 0.0
C298 C 0.4362 0.84452 0.74739 0.0
C299 C 0.51935 0.84485 0.77189 0.0
C300 C 0.56893 0.82731 0.76125 0.0
C301 C 0.53657 0.80971 0.72883 0.0
C302 C 0.45459 0.80918 0.70646 0.0
C303 C 0.40461 0.8263 0.71569 0.0
H304 H 0.84003 0.66869 0.18192 0.0
C305 C 0.80208 0.65584 0.2028 0.0
H306 H 0.80439 0.62573 0.24684 0.0
H307 H 0.17637 0.64458 0.04788 0.0
H308 H 0.10112 0.64456 0.9193 0.0
H309 H 0.94862 0.64085 0.92631 0.0
H310 H 0.87006 0.6372 0.06158 0.0
C311 C 0.84001 0.63877 0.22425 0.0
C312 C 0.93252 0.63785 0.21899 0.0
C313 C 0.97771 0.63947 0.13907 0.0
C314 C 0.06585 0.64114 0.13488 0.0
C315 C 0.10936 0.6431 0.0545 0.0
C316 C 0.06705 0.64313 0.98029 0.0
C317 C 0.98109 0.64106 0.98421 0.0
C318 C 0.93667 0.63916 0.06239 0.0
H319 H 0.20495 0.60935 0.23344 0.0
C320 C 0.2413 0.62284 0.21846 0.0
H321 H 0.23505 0.65382 0.18772 0.0
H322 H 0.86496 0.63377 0.38146 0.0
H323 H 0.94025 0.63311 0.50972 0.0
H324 H 0.09323 0.6362 0.50261 0.0
H325 H 0.17183 0.6399 0.36726 0.0
C326 C 0.20124 0.64014 0.20498 0.0
C327 C 0.10877 0.64045 0.21027 0.0
C328 C 0.06375 0.6385 0.29008 0.0
C329 C 0.97551 0.637 0.29432 0.0
C330 C 0.93204 0.63504 0.3747 0.0
C331 C 0.97447 0.63464 0.44881 0.0
C332 C 0.06061 0.63634 0.44479 0.0
C333 C 0.10502 0.63833 0.36661 0.0
H334 H 0.80715 0.34801 0.71968 0.0
C335 C 0.76902 0.36101 0.7382 0.0
H336 H 0.77065 0.39143 0.77708 0.0
H337 H 0.14444 0.35182 0.84728 0.0
H338 H 0.07054 0.33261 0.95911 0.0
H339 H 0.9177 0.33479 0.98121 0.0
H340 H 0.83787 0.35611 0.89136 0.0
C341 C 0.80653 0.37794 0.7612 0.0
C342 C 0.89903 0.37884 0.7565 0.0
C343 C 0.94492 0.36663 0.81086 0.0
C344 C 0.03311 0.36568 0.79923 0.0
C345 C 0.07736 0.35319 0.85364 0.0
C346 C 0.03574 0.34209 0.91811 0.0
C347 C 0.94969 0.34328 0.93046 0.0
C348 C 0.90454 0.35545 0.87795 0.0
H349 H 0.17179 0.40728 0.7747 0.0
C350 C 0.20799 0.39421 0.75312 0.0
H351 H 0.20176 0.36432 0.7083 0.0
H352 H 0.82992 0.40418 0.64325 0.0
H353 H 0.90384 0.42332 0.5313 0.0
H354 H 0.05676 0.42134 0.51001 0.0
H355 H 0.13668 0.40027 0.60075 0.0
C356 C 0.16786 0.37778 0.72852 0.0
C357 C 0.07535 0.37738 0.73495 0.0
C358 C 0.02952 0.38964 0.6808 0.0
C359 C 0.94129 0.39054 0.69223 0.0
C360 C 0.89703 0.4029 0.63729 0.0
C361 C 0.93867 0.41395 0.57271 0.0
C362 C 0.02477 0.41287 0.56081 0.0
C363 C 0.06996 0.40083 0.61379 0.0
H364 H 0.2779 0.31925 0.52506 0.0
C365 C 0.2578 0.31868 0.5921 0.0
H366 H 0.17772 0.30439 0.68412 0.0
H367 H 0.01632 0.2824 0.31432 0.0
H368 H 0.9662 0.31694 0.31676 0.0
H369 H 0.00436 0.3404 0.42871 0.0
H370 H 0.09319 0.32947 0.53891 0.0
C371 C 0.1938 0.3067 0.61694 0.0
C372 C 0.16178 0.29215 0.55518 0.0
C373 C 0.10907 0.29865 0.49199 0.0
C374 C 0.08586 0.285 0.42829 0.0
C375 C 0.03451 0.29203 0.36502 0.0
C376 C 0.00564 0.31183 0.36552 0.0
C377 C 0.02726 0.32506 0.42846 0.0
C378 C 0.07845 0.31863 0.49111 0.0
H379 H 0.96763 0.24804 0.42087 0.0
C380 C 0.01187 0.24211 0.37223 0.0
H381 H 0.13578 0.24343 0.32069 0.0
H382 H 0.26213 0.2746 0.66838 0.0
H383 H 0.31002 0.23999 0.66761 0.0
H384 H 0.26922 0.21628 0.55788 0.0
H385 H 0.1801 0.22704 0.44834 0.0
C386 C 0.08854 0.25003 0.36439 0.0
C387 C 0.11491 0.2648 0.42837 0.0
C388 C 0.16686 0.25825 0.49228 0.0
C389 C 0.18995 0.27189 0.5559 0.0
C390 C 0.24223 0.2649 0.61868 0.0
C391 C 0.27026 0.24505 0.61904 0.0
C392 C 0.24732 0.23171 0.55725 0.0
C393 C 0.19615 0.23811 0.49461 0.0
H394 H 0.46591 0.27209 0.90904 0.0
C395 C 0.50951 0.27829 0.8604 0.0
H396 H 0.63388 0.27796 0.81009 0.0
H397 H 0.75996 0.24874 0.16185 0.0
H398 H 0.79891 0.28399 0.16177 0.0
H399 H 0.75482 0.30708 0.05054 0.0
H400 H 0.67111 0.2951 0.939 0.0
C401 C 0.58729 0.27091 0.85324 0.0
C402 C 0.61576 0.25653 0.91825 0.0
C403 C 0.66488 0.26377 0.98309 0.0
C404 C 0.69023 0.25046 0.04736 0.0
C405 C 0.73898 0.25816 0.11142 0.0
C406 C 0.7618 0.27837 0.1122 0.0
C407 C 0.73703 0.29137 0.04955 0.0
C408 C 0.68898 0.28427 0.98579 0.0
H409 H 0.79621 0.20578 0.02245 0.0
C410 C 0.77092 0.20526 0.08794 0.0
H411 H 0.67882 0.21694 0.17535 0.0
H412 H 0.523 0.23769 0.80318 0.0
H413 H 0.48205 0.20248 0.80484 0.0
H414 H 0.52506 0.17951 0.91714 0.0
H415 H 0.60954 0.19159 0.02856 0.0
C416 C 0.70139 0.21573 0.10925 0.0
C417 C 0.66753 0.22983 0.0462 0.0
C418 C 0.61767 0.22263 0.98208 0.0
C419 C 0.59185 0.23597 0.91794 0.0
C420 C 0.54316 0.22828 0.85403 0.0
C421 C 0.51951 0.2081 0.85411 0.0
C422 C 0.54386 0.19515 0.91728 0.0
C423 C 0.59247 0.20224 0.98065 0.0
H424 H 0.63661 0.74426 0.25373 0.0
C425 C 0.57584 0.74056 0.28362 0.0
H426 H 0.48504 0.74773 0.38053 0.0
H427 H 0.74415 0.777 0.63491 0.0
H428 H 0.67964 0.74854 0.70769 0.0
H429 H 0.57762 0.72758 0.6387 0.0
H430 H 0.54031 0.73491 0.49633 0.0
C431 C 0.54538 0.75153 0.35005 0.0
C432 C 0.59926 0.76598 0.394 0.0
C433 C 0.61852 0.76185 0.47885 0.0
C434 C 0.67591 0.77426 0.51954 0.0
C435 C 0.69809 0.76884 0.60206 0.0
C436 C 0.66223 0.75231 0.6445 0.0
C437 C 0.60495 0.7405 0.60563 0.0
C438 C 0.58377 0.745 0.52366 0.0
H439 H 0.68829 0.81455 0.61364 0.0
C440 C 0.75277 0.81451 0.58885 0.0
H441 H 0.83812 0.80352 0.49262 0.0
H442 H 0.56876 0.77973 0.23535 0.0
H443 H 0.63416 0.80831 0.16203 0.0
H444 H 0.7357 0.82938 0.23169 0.0
H445 H 0.77128 0.82218 0.3756 0.0
C446 C 0.77382 0.804 0.51804 0.0
C447 C 0.71205 0.79124 0.4764 0.0
C448 C 0.69211 0.79551 0.39212 0.0
C449 C 0.63497 0.78304 0.3512 0.0
C450 C 0.61402 0.7882 0.26821 0.0
C451 C 0.65054 0.80468 0.2257 0.0
C452 C 0.70755 0.81658 0.26497 0.0
C453 C 0.72776 0.81222 0.34744 0.0
H454 H 0.21646 0.69532 0.09069 0.0
C455 C 0.28017 0.69821 0.06686 0.0
H456 H 0.35808 0.71505 0.98063 0.0
H457 H 0.08412 0.73985 0.73024 0.0
H458 H 0.17296 0.7182 0.64026 0.0
H459 H 0.28843 0.69937 0.69853 0.0
H460 H 0.31287 0.70112 0.84831 0.0
C461 C 0.29457 0.71172 0.00379 0.0
C462 C 0.22643 0.72387 0.9682 0.0
C463 C 0.2133 0.72284 0.88038 0.0
C464 C 0.14959 0.73463 0.8456 0.0
C465 C 0.13463 0.73219 0.75889 0.0
C466 C 0.18454 0.71962 0.70671 0.0
C467 C 0.24926 0.70892 0.73967 0.0
C468 C 0.26288 0.71017 0.82568 0.0
H469 H 0.13044 0.77526 0.77137 0.0
C470 C 0.06751 0.77628 0.80035 0.0
H471 H 0.97955 0.76394 0.88997 0.0
H472 H 0.2436 0.73242 0.13659 0.0
H473 H 0.15951 0.75514 0.22456 0.0
H474 H 0.04802 0.77508 0.16526 0.0
H475 H 0.02069 0.77263 0.01718 0.0
C476 C 0.04216 0.76281 0.86044 0.0
C477 C 0.10198 0.7484 0.89761 0.0
C478 C 0.11527 0.7495 0.98557 0.0
C479 C 0.17822 0.73749 0.02058 0.0
C480 C 0.19394 0.74016 0.10715 0.0
C481 C 0.14678 0.75344 0.1585 0.0
C482 C 0.08416 0.76472 0.12502 0.0
C483 C 0.0689 0.76302 0.03962 0.0
H484 H 0.14495 0.04903 0.07176 0.0
C485 C 0.07995 0.05041 0.09426 0.0
H486 H 0.96682 0.03505 0.12032 0.0
H487 H 0.17473 0.97142 0.85693 0.0
H488 H 0.19221 0.99886 0.7572 0.0
H489 H 0.14651 0.03318 0.79635 0.0
H490 H 0.08287 0.0402 0.93561 0.0
C491 C 0.03065 0.0341 0.09381 0.0
C492 C 0.06385 0.01373 0.06972 0.0
C493 C 0.09713 0.00965 0.98606 0.0
C494 C 0.12166 0.98966 0.9629 0.0
C495 C 0.15491 0.98613 0.87892 0.0
C496 C 0.16536 1.0018 0.82052 0.0
C497 C 0.14003 0.02115 0.84268 0.0
C498 C 0.10439 0.02501 0.92356 0.0
H499 H -0.00948 0.94642 0.04035 0.0
C500 C 0.04213 0.94133 0.99791 0.0
H501 H 0.16348 0.9475 0.94876 0.0
H502 H 0.01556 0.01685 0.23881 0.0
H503 H 0.01413 0.99005 0.34337 0.0
H504 H 0.06188 0.95585 0.30362 0.0
H505 H 0.10647 0.94794 0.15743 0.0
C506 C 0.11249 0.95231 0.99222 0.0
C507 C 0.11025 0.97367 0.02268 0.0
C508 C 0.08543 0.97819 0.10818 0.0
C509 C 0.06089 0.99812 0.13147 0.0
C510 C 0.03454 1.002 0.21719 0.0
C511 C 0.03389 0.98677 0.27807 0.0
C512 C 0.06046 0.96749 0.25564 0.0
C513 C 0.08554 0.96313 0.17168 0.0
H514 H 0.14053 0.07569 0.46685 0.0
C515 C 0.07582 0.07599 0.45113 0.0
H516 H 0.95945 0.06123 0.46319 0.0
H517 H 0.166 0.97879 0.50446 0.0
H518 H 0.23277 0.98596 0.3659 0.0
H519 H 0.21456 0.01893 0.29729 0.0
H520 H 0.13112 0.04497 0.36705 0.0
C521 C 0.02402 0.06115 0.47943 0.0
C522 C 0.05062 0.04297 0.52615 0.0
C523 C 0.09966 0.0278 0.48356 0.0
C524 C 0.10848 0.00855 0.52212 0.0
C525 C 0.15723 0.99365 0.47823 0.0
C526 C 0.1959 0.99755 0.39855 0.0
C527 C 0.18575 0.01612 0.36 0.0
C528 C 0.1377 0.03103 0.40123 0.0
H529 H 0.93483 0.98035 0.63249 0.0
C530 C -0.00726 0.97296 0.64648 0.0
H531 H 0.123 0.97611 0.64912 0.0
H532 H 0.96196 0.06939 0.62864 0.0
H533 H 0.89779 0.06239 0.76895 0.0
H534 H 0.91135 0.02896 0.8349 0.0
H535 H 0.98867 1.00229 0.7612 0.0
C536 C 0.06456 0.98318 0.63498 0.0
C537 C 0.06575 1.00424 0.60132 0.0
C538 C 0.0211 0.01979 0.64605 0.0
C539 C 0.01379 0.03914 0.6084 0.0
C540 C 0.96858 0.05436 0.65411 0.0
C541 C 0.93185 0.05059 0.73478 0.0
C542 C 0.93925 0.03175 0.7718 0.0
C543 C 0.98325 0.01649 0.72833 0.0
H544 H 0.69363 0.54011 0.11034 0.0
C545 C 0.63144 0.54473 0.09559 0.0
H546 H 0.5163 0.53634 0.05234 0.0
H547 H 0.77453 0.45566 0.02414 0.0
H548 H 0.88427 0.47708 0.95795 0.0
H549 H 0.85647 0.51296 0.92847 0.0
H550 H 0.72306 0.52801 0.97218 0.0
C551 C 0.57863 0.53135 0.06511 0.0
C552 C 0.59479 0.50917 0.06642 0.0
C553 C 0.66873 0.50048 0.02831 0.0
C554 C 0.68065 0.47928 0.03254 0.0
C555 C 0.76066 0.47134 0.01207 0.0
C556 C 0.82373 0.48347 0.9754 0.0
C557 C 0.80828 0.50371 0.95949 0.0
C558 C 0.73166 0.51222 0.98561 0.0
H559 H 0.694 0.44763 0.91737 0.0
C560 C 0.638 0.44047 0.94344 0.0
H561 H 0.54158 0.43851 0.03526 0.0
H562 H 0.46034 0.52077 0.17142 0.0
H563 H 0.36429 0.49884 0.25098 0.0
H564 H 0.38248 0.46206 0.2468 0.0
H565 H 0.49766 0.44686 0.16286 0.0
C566 C 0.59834 0.44659 0.01673 0.0
C567 C 0.61286 0.46664 0.05862 0.0
C568 C 0.54672 0.47524 0.10988 0.0
C569 C 0.53707 0.49655 0.11316 0.0
C570 C 0.47006 0.50473 0.16472 0.0
C571 C 0.4147 0.4923 0.21152 0.0
C572 C 0.42487 0.47155 0.20899 0.0
C573 C 0.49016 0.46303 0.15918 0.0
H574 H 0.51883 0.47887 0.5753 0.0
C575 C 0.57323 0.47113 0.59686 0.0
H576 H 0.69988 0.47422 0.62244 0.0
H577 H 0.63271 0.54419 0.32957 0.0
H578 H 0.64679 0.51623 0.23207 0.0
H579 H 0.66272 0.4815 0.28354 0.0
H580 H 0.667 0.47457 0.43431 0.0
C581 C 0.64633 0.48091 0.59454 0.0
C582 C 0.65177 0.50206 0.56255 0.0
C583 C 0.65166 0.50596 0.47444 0.0
C584 C 0.64267 0.52605 0.44464 0.0
C585 C 0.63997 0.52933 0.35622 0.0
C586 C 0.64765 0.51338 0.29924 0.0
C587 C 0.65692 0.49382 0.32832 0.0
C588 C 0.65895 0.49005 0.41489 0.0
H589 H 0.72042 0.57404 0.43304 0.0
C590 C 0.65331 0.57574 0.43265 0.0
H591 H 0.53646 0.56334 0.47229 0.0
H592 H 0.65996 0.50004 0.73469 0.0
H593 H 0.65167 0.52821 0.83284 0.0
H594 H 0.63754 0.56306 0.78089 0.0
H595 H 0.63055 0.56997 0.63011 0.0
C596 C 0.60361 0.56211 0.47409 0.0
C597 C 0.6345 0.54226 0.50319 0.0
C598 C 0.64088 0.53849 0.59071 0.0
C599 C 0.64976 0.51837 0.62052 0.0
C600 C 0.65349 0.51502 0.70869 0.0
C601 C 0.649 0.53104 0.76562 0.0
C602 C 0.64082 0.55068 0.73637 0.0
C603 C 0.63662 0.55444 0.64993 0.0
loop_
_geom_bond_atom_site_label_1
_geom_bond_atom_site_label_2
_geom_bond_distance
_geom_bond_site_symmetry_2
_ccdc_geom_bond_type
C0 O27 1.312 . S
C0 O28 1.208 . S
C1 O22 1.331 . S
C1 O25 1.244 . S
C2 O24 1.264 . S
C2 O26 1.273 . S
Mg3 O5 1.936 1_455 S
Mg3 O12 2.081 . S
Mg3 O14 2.023 . S
Mg3 O18 2.031 . S
Mg3 O27 2.291 . S
Mg4 O5 1.963 . S
Mg4 O15 1.942 . S
Mg4 O16 1.955 . S
Mg4 O23 1.986 . S
O5 Mg3 1.936 1_655 S
O5 Mg4 1.963 . S
O5 Mg6 1.915 . S
Mg6 O5 1.915 . S
Mg6 O7 1.915 1_655 S
Mg6 O11 2.013 . S
Mg6 O17 2.114 1_655 S
Mg6 O21 2.013 . S
Mg6 O27 2.114 1_655 S
O7 Mg6 1.915 1_455 S
O7 Mg8 1.936 . S
O7 Mg9 1.963 1_455 S
Mg8 O7 1.936 . S
Mg8 O17 2.291 . S
Mg8 O22 2.081 . S
Mg8 O24 2.023 1_455 S
Mg8 O28 2.031 . S
Mg9 O7 1.963 1_655 S
Mg9 O13 1.986 . S
Mg9 O25 1.942 1_655 S
Mg9 O26 1.955 . S
C10 O21 1.191 . S
C10 O23 1.307 . S
O11 Mg6 2.013 . S
O11 C30 1.191 . S
O12 Mg3 2.081 . S
O12 C20 1.331 1_455 S
O13 Mg9 1.986 . S
O13 C30 1.307 . S
O14 Mg3 2.023 . S
O14 C29 1.264 . S
O15 Mg4 1.942 . S
O15 C20 1.244 . S
O16 Mg4 1.955 . S
O16 C29 1.273 1_655 S
O17 Mg6 2.114 1_455 S
O17 Mg8 2.291 . S
O17 C19 1.312 . S
O18 Mg3 2.031 . S
O18 C19 1.208 . S
C19 O17 1.312 . S
C19 O18 1.208 . S
C20 O12 1.331 1_655 S
C20 O15 1.244 . S
O21 Mg6 2.013 . S
O21 C10 1.191 . S
O22 C1 1.331 . S
O22 Mg8 2.081 . S
O23 Mg4 1.986 . S
O23 C10 1.307 . S
O24 C2 1.264 . S
O24 Mg8 2.023 1_655 S
O25 C1 1.244 . S
O25 Mg9 1.942 1_455 S
O26 C2 1.273 . S
O26 Mg9 1.955 . S
O27 C0 1.312 . S
O27 Mg3 2.291 . S
O27 Mg6 2.114 1_455 S
O28 C0 1.208 . S
O28 Mg8 2.031 . S
C29 O14 1.264 . S
C29 O16 1.273 1_455 S
C30 O11 1.191 . S
C30 O13 1.307 . S
C31 O58 1.312 . S
C31 O59 1.208 . S
C32 O53 1.331 1_655 S
C32 O56 1.244 . S
C33 O55 1.264 . S
C33 O57 1.273 1_455 S
Mg34 O36 1.936 . S
Mg34 O43 2.081 . S
Mg34 O45 2.023 1_455 S
Mg34 O49 2.031 . S
Mg34 O58 2.291 . S
Mg35 O36 1.963 1_655 S
Mg35 O46 1.942 1_655 S
Mg35 O47 1.955 . S
Mg35 O54 1.986 . S
O36 Mg34 1.936 . S
O36 Mg35 1.963 1_455 S
O36 Mg37 1.915 1_455 S
Mg37 O36 1.915 1_655 S
Mg37 O38 1.915 . S
Mg37 O42 2.013 . S
Mg37 O48 2.114 1_655 S
Mg37 O52 2.013 . S
Mg37 O58 2.114 1_655 S
O38 Mg37 1.915 . S
O38 Mg39 1.936 1_655 S
O38 Mg40 1.963 . S
Mg39 O38 1.936 1_455 S
Mg39 O48 2.291 . S
Mg39 O53 2.081 . S
Mg39 O55 2.023 . S
Mg39 O59 2.031 . S
Mg40 O38 1.963 . S
Mg40 O44 1.986 . S
Mg40 O56 1.942 . S
Mg40 O57 1.955 . S
C41 O52 1.191 . S
C41 O54 1.307 . S
O42 Mg37 2.013 . S
O42 C61 1.191 . S
O43 Mg34 2.081 . S
O43 C51 1.331 . S
O44 Mg40 1.986 . S
O44 C61 1.307 . S
O45 Mg34 2.023 1_655 S
O45 C60 1.264 . S
O46 Mg35 1.942 1_455 S
O46 C51 1.244 . S
O47 Mg35 1.955 . S
O47 C60 1.273 . S
O48 Mg37 2.114 1_455 S
O48 Mg39 2.291 . S
O48 C50 1.312 . S
O49 Mg34 2.031 . S
O49 C50 1.208 . S
C50 O48 1.312 . S
C50 O49 1.208 . S
C51 O43 1.331 . S
C51 O46 1.244 . S
O52 Mg37 2.013 . S
O52 C41 1.191 . S
O53 C32 1.331 1_455 S
O53 Mg39 2.081 . S
O54 Mg35 1.986 . S
O54 C41 1.307 . S
O55 C33 1.264 . S
O55 Mg39 2.023 . S
O56 C32 1.244 . S
O56 Mg40 1.942 . S
O57 C33 1.273 1_655 S
O57 Mg40 1.955 . S
O58 C31 1.312 . S
O58 Mg34 2.291 . S
O58 Mg37 2.114 1_455 S
O59 C31 1.208 . S
O59 Mg39 2.031 . S
C60 O45 1.264 . S
C60 O47 1.273 . S
C61 O42 1.191 . S
C61 O44 1.307 . S
C62 O89 1.312 . S
C62 O90 1.208 . S
C63 O84 1.331 . S
C63 O87 1.244 . S
C64 O86 1.264 . S
C64 O88 1.273 . S
Mg65 O67 1.936 . S
Mg65 O74 2.081 . S
Mg65 O76 2.023 . S
Mg65 O80 2.031 . S
Mg65 O89 2.291 . S
Mg66 O67 1.963 . S
Mg66 O77 1.942 . S
Mg66 O78 1.955 . S
Mg66 O85 1.986 . S
O67 Mg65 1.936 . S
O67 Mg66 1.963 . S
O67 Mg68 1.915 . S
Mg68 O67 1.915 . S
Mg68 O69 1.915 . S
Mg68 O73 2.013 . S
Mg68 O79 2.114 . S
Mg68 O83 2.013 . S
Mg68 O89 2.114 . S
O69 Mg68 1.915 . S
O69 Mg70 1.936 . S
O69 Mg71 1.963 . S
Mg70 O69 1.936 . S
Mg70 O79 2.291 . S
Mg70 O84 2.081 . S
Mg70 O86 2.023 . S
Mg70 O90 2.031 . S
Mg71 O69 1.963 . S
Mg71 O75 1.986 . S
Mg71 O87 1.942 . S
Mg71 O88 1.955 . S
C72 O83 1.191 . S
C72 O85 1.307 . S
O73 Mg68 2.013 . S
O73 C92 1.191 . S
O74 Mg65 2.081 . S
O74 C82 1.331 . S
O75 Mg71 1.986 . S
O75 C92 1.307 . S
O76 Mg65 2.023 . S
O76 C91 1.264 . S
O77 Mg66 1.942 . S
O77 C82 1.244 . S
O78 Mg66 1.955 . S
O78 C91 1.273 . S
O79 Mg68 2.114 . S
O79 Mg70 2.291 . S
O79 C81 1.312 . S
O80 Mg65 2.031 . S
O80 C81 1.208 . S
C81 O79 1.312 . S
C81 O80 1.208 . S
C82 O74 1.331 . S
C82 O77 1.244 . S
O83 Mg68 2.013 . S
O83 C72 1.191 . S
O84 C63 1.331 . S
O84 Mg70 2.081 . S
O85 Mg66 1.986 . S
O85 C72 1.307 . S
O86 C64 1.264 . S
O86 Mg70 2.023 . S
O87 C63 1.244 . S
O87 Mg71 1.942 . S
O88 C64 1.273 . S
O88 Mg71 1.955 . S
O89 C62 1.312 . S
O89 Mg65 2.291 . S
O89 Mg68 2.114 . S
O90 C62 1.208 . S
O90 Mg70 2.031 . S
C91 O76 1.264 . S
C91 O78 1.273 . S
C92 O73 1.191 . S
C92 O75 1.307 . S
C93 O120 1.312 . S
C93 O121 1.208 . S
C94 O115 1.331 . S
C94 O118 1.244 . S
C95 O117 1.264 . S
C95 O119 1.273 . S
Mg96 O98 1.936 . S
Mg96 O105 2.081 . S
Mg96 O107 2.023 . S
Mg96 O111 2.031 . S
Mg96 O120 2.291 . S
Mg97 O98 1.963 . S
Mg97 O108 1.942 . S
Mg97 O109 1.955 . S
Mg97 O116 1.986 . S
O98 Mg96 1.936 . S
O98 Mg97 1.963 . S
O98 Mg99 1.915 . S
Mg99 O98 1.915 . S
Mg99 O100 1.915 . S
Mg99 O104 2.013 . S
Mg99 O110 2.114 . S
Mg99 O114 2.013 . S
Mg99 O120 2.114 . S
O100 Mg99 1.915 . S
O100 Mg101 1.936 . S
O100 Mg102 1.963 . S
Mg101 O100 1.936 . S
Mg101 O110 2.291 . S
Mg101 O115 2.081 . S
Mg101 O117 2.023 . S
Mg101 O121 2.031 . S
Mg102 O100 1.963 . S
Mg102 O106 1.986 . S
Mg102 O118 1.942 . S
Mg102 O119 1.955 . S
C103 O114 1.191 . S
C103 O116 1.307 . S
O104 Mg99 2.013 . S
O104 C123 1.191 . S
O105 Mg96 2.081 . S
O105 C113 1.331 . S
O106 Mg102 1.986 . S
O106 C123 1.307 . S
O107 Mg96 2.023 . S
O107 C122 1.264 . S
O108 Mg97 1.942 . S
O108 C113 1.244 . S
O109 Mg97 1.955 . S
O109 C122 1.273 . S
O110 Mg99 2.114 . S
O110 Mg101 2.291 . S
O110 C112 1.312 . S
O111 Mg96 2.031 . S
O111 C112 1.208 . S
C112 O110 1.312 . S
C112 O111 1.208 . S
C113 O105 1.331 . S
C113 O108 1.244 . S
O114 Mg99 2.013 . S
O114 C103 1.191 . S
O115 C94 1.331 . S
O115 Mg101 2.081 . S
O116 Mg97 1.986 . S
O116 C103 1.307 . S
O117 C95 1.264 . S
O117 Mg101 2.023 . S
O118 C94 1.244 . S
O118 Mg102 1.942 . S
O119 C95 1.273 . S
O119 Mg102 1.955 . S
O120 C93 1.312 . S
O120 Mg96 2.291 . S
O120 Mg99 2.114 . S
O121 C93 1.208 . S
O121 Mg101 2.031 . S
C122 O107 1.264 . S
C122 O109 1.273 . S
C123 O104 1.191 . S
C123 O106 1.307 . S
H124 C125 0.951 1_655 S
C125 H124 0.951 1_455 S
C125 C131 1.265 . S
H126 C131 0.950 . S
H127 C135 0.949 . S
H128 C136 0.950 . S
H129 C137 0.951 . S
H130 C138 0.951 . S
C131 C125 1.265 . S
C131 H126 0.950 . S
C131 C132 1.478 . S
C132 C131 1.478 . S
C132 C133 1.397 . S
C132 C149 1.394 1_455 S
C133 C132 1.397 . S
C133 C134 1.438 . S
C133 C138 1.429 . S
C134 C133 1.438 . S
C134 C135 1.428 . S
C134 C147 1.394 1_455 S
C135 H127 0.949 . S
C135 C134 1.428 . S
C135 C136 1.345 . S
C136 H128 0.950 . S
C136 C135 1.345 . S
C136 C137 1.424 . S
C137 H129 0.951 . S
C137 C136 1.424 . S
C137 C138 1.347 . S
C138 H130 0.951 . S
C138 C133 1.429 . S
C138 C137 1.347 . S
H139 C140 0.951 1_455 S
C140 H139 0.951 1_655 S
C140 C146 1.265 . S
H141 C146 0.950 . S
H142 C150 0.949 . S
H143 C151 0.950 . S
H144 C152 0.951 . S
H145 C153 0.951 . S
C146 C140 1.265 . S
C146 H141 0.950 . S
C146 C147 1.478 . S
C147 C134 1.394 1_655 S
C147 C146 1.478 . S
C147 C148 1.397 . S
C148 C147 1.397 . S
C148 C149 1.438 . S
C148 C153 1.429 . S
C149 C132 1.394 1_655 S
C149 C148 1.438 . S
C149 C150 1.428 . S
C150 H142 0.949 . S
C150 C149 1.428 . S
C150 C151 1.345 . S
C151 H143 0.950 . S
C151 C150 1.345 . S
C151 C152 1.424 . S
C152 H144 0.951 . S
C152 C151 1.424 . S
C152 C153 1.347 . S
C153 H145 0.951 . S
C153 C148 1.429 . S
C153 C152 1.347 . S
H154 C155 0.951 . S
C155 H154 0.951 . S
C155 C161 1.265 1_455 S
H156 C161 0.950 . S
H157 C165 0.949 . S
H158 C166 0.950 . S
H159 C167 0.951 . S
H160 C168 0.951 . S
C161 C155 1.265 1_655 S
C161 H156 0.950 . S
C161 C162 1.478 . S
C162 C161 1.478 . S
C162 C163 1.397 . S
C162 C179 1.394 1_655 S
C163 C162 1.397 . S
C163 C164 1.438 . S
C163 C168 1.429 . S
C164 C163 1.438 . S
C164 C165 1.428 . S
C164 C177 1.394 1_655 S
C165 H157 0.949 . S
C165 C164 1.428 . S
C165 C166 1.345 . S
C166 H158 0.950 . S
C166 C165 1.345 . S
C166 C167 1.424 . S
C167 H159 0.951 . S
C167 C166 1.424 . S
C167 C168 1.347 . S
C168 H160 0.951 . S
C168 C163 1.429 . S
C168 C167 1.347 . S
H169 C170 0.951 . S
C170 H169 0.951 . S
C170 C176 1.265 1_655 S
H171 C176 0.950 . S
H172 C180 0.949 . S
H173 C181 0.950 . S
H174 C182 0.951 . S
H175 C183 0.951 . S
C176 C170 1.265 1_455 S
C176 H171 0.950 . S
C176 C177 1.478 . S
C177 C164 1.394 1_455 S
C177 C176 1.478 . S
C177 C178 1.397 . S
C178 C177 1.397 . S
C178 C179 1.438 . S
C178 C183 1.429 . S
C179 C162 1.394 1_455 S
C179 C178 1.438 . S
C179 C180 1.428 . S
C180 H172 0.949 . S
C180 C179 1.428 . S
C180 C181 1.345 . S
C181 H173 0.950 . S
C181 C180 1.345 . S
C181 C182 1.424 . S
C182 H174 0.951 . S
C182 C181 1.424 . S
C182 C183 1.347 . S
C183 H175 0.951 . S
C183 C178 1.429 . S
C183 C182 1.347 . S
H184 C185 0.951 . S
C185 H184 0.951 . S
C185 C191 1.265 . S
H186 C191 0.950 . S
H187 C195 0.949 . S
H188 C196 0.950 . S
H189 C197 0.951 . S
H190 C198 0.951 . S
C191 C185 1.265 . S
C191 H186 0.950 . S
C191 C192 1.478 . S
C192 C191 1.478 . S
C192 C193 1.397 . S
C192 C209 1.394 . S
C193 C192 1.397 . S
C193 C194 1.438 . S
C193 C198 1.429 . S
C194 C193 1.438 . S
C194 C195 1.428 . S
C194 C207 1.394 . S
C195 H187 0.949 . S
C195 C194 1.428 . S
C195 C196 1.345 . S
C196 H188 0.950 . S
C196 C195 1.345 . S
C196 C197 1.424 . S
C197 H189 0.951 . S
C197 C196 1.424 . S
C197 C198 1.347 . S
C198 H190 0.951 . S
C198 C193 1.429 . S
C198 C197 1.347 . S
H199 C200 0.951 . S
C200 H199 0.951 . S
C200 C206 1.265 . S
H201 C206 0.950 . S
H202 C210 0.949 . S
H203 C211 0.950 . S
H204 C212 0.951 . S
H205 C213 0.951 . S
C206 C200 1.265 . S
C206 H201 0.950 . S
C206 C207 1.478 . S
C207 C194 1.394 . S
C207 C206 1.478 . S
C207 C208 1.397 . S
C208 C207 1.397 . S
C208 C209 1.438 . S
C208 C213 1.429 . S
C209 C192 1.394 . S
C209 C208 1.438 . S
C209 C210 1.428 . S
C210 H202 0.949 . S
C210 C209 1.428 . S
C210 C211 1.345 . S
C211 H203 0.950 . S
C211 C210 1.345 . S
C211 C212 1.424 . S
C212 H204 0.951 . S
C212 C211 1.424 . S
C212 C213 1.347 . S
C213 H205 0.951 . S
C213 C208 1.429 . S
C213 C212 1.347 . S
H214 C215 0.951 . S
C215 H214 0.951 . S
C215 C221 1.265 . S
H216 C221 0.950 . S
H217 C225 0.949 . S
H218 C226 0.950 . S
H219 C227 0.951 . S
H220 C228 0.951 . S
C221 C215 1.265 . S
C221 H216 0.950 . S
C221 C222 1.478 . S
C222 C221 1.478 . S
C222 C223 1.397 . S
C222 C239 1.394 . S
C223 C222 1.397 . S
C223 C224 1.438 . S
C223 C228 1.429 . S
C224 C223 1.438 . S
C224 C225 1.428 . S
C224 C237 1.394 . S
C225 H217 0.949 . S
C225 C224 1.428 . S
C225 C226 1.345 . S
C226 H218 0.950 . S
C226 C225 1.345 . S
C226 C227 1.424 . S
C227 H219 0.951 . S
C227 C226 1.424 . S
C227 C228 1.347 . S
C228 H220 0.951 . S
C228 C223 1.429 . S
C228 C227 1.347 . S
H229 C230 0.951 . S
C230 H229 0.951 . S
C230 C236 1.265 . S
H231 C236 0.950 . S
H232 C240 0.949 . S
H233 C241 0.950 . S
H234 C242 0.951 . S
H235 C243 0.951 . S
C236 C230 1.265 . S
C236 H231 0.950 . S
C236 C237 1.478 . S
C237 C224 1.394 . S
C237 C236 1.478 . S
C237 C238 1.397 . S
C238 C237 1.397 . S
C238 C239 1.438 . S
C238 C243 1.429 . S
C239 C222 1.394 . S
C239 C238 1.438 . S
C239 C240 1.428 . S
C240 H232 0.949 . S
C240 C239 1.428 . S
C240 C241 1.345 . S
C241 H233 0.950 . S
C241 C240 1.345 . S
C241 C242 1.424 . S
C242 H234 0.951 . S
C242 C241 1.424 . S
C242 C243 1.347 . S
C243 H235 0.951 . S
C243 C238 1.429 . S
C243 C242 1.347 . S
H244 C245 0.951 . S
C245 H244 0.951 . S
C245 C251 1.265 . S
H246 C251 0.950 . S
H247 C255 0.949 . S
H248 C256 0.950 . S
H249 C257 0.951 . S
H250 C258 0.951 . S
C251 C245 1.265 . S
C251 H246 0.950 . S
C251 C252 1.478 . S
C252 C251 1.478 . S
C252 C253 1.397 . S
C252 C269 1.394 . S
C253 C252 1.397 . S
C253 C254 1.438 . S
C253 C258 1.429 . S
C254 C253 1.438 . S
C254 C255 1.428 . S
C254 C267 1.394 . S
C255 H247 0.949 . S
C255 C254 1.428 . S
C255 C256 1.345 . S
C256 H248 0.950 . S
C256 C255 1.345 . S
C256 C257 1.424 . S
C257 H249 0.951 . S
C257 C256 1.424 . S
C257 C258 1.347 . S
C258 H250 0.951 . S
C258 C253 1.429 . S
C258 C257 1.347 . S
H259 C260 0.951 . S
C260 H259 0.951 . S
C260 C266 1.265 . S
H261 C266 0.950 . S
H262 C270 0.949 . S
H263 C271 0.950 . S
H264 C272 0.951 . S
H265 C273 0.951 . S
C266 C260 1.265 . S
C266 H261 0.950 . S
C266 C267 1.478 . S
C267 C254 1.394 . S
C267 C266 1.478 . S
C267 C268 1.397 . S
C268 C267 1.397 . S
C268 C269 1.438 . S
C268 C273 1.429 . S
C269 C252 1.394 . S
C269 C268 1.438 . S
C269 C270 1.428 . S
C270 H262 0.949 . S
C270 C269 1.428 . S
C270 C271 1.345 . S
C271 H263 0.950 . S
C271 C270 1.345 . S
C271 C272 1.424 . S
C272 H264 0.951 . S
C272 C271 1.424 . S
C272 C273 1.347 . S
C273 H265 0.951 . S
C273 C268 1.429 . S
C273 C272 1.347 . S
H274 C275 0.951 . S
C275 H274 0.951 . S
C275 C281 1.265 . S
H276 C281 0.950 . S
H277 C285 0.949 . S
H278 C286 0.950 . S
H279 C287 0.951 . S
H280 C288 0.951 . S
C281 C275 1.265 . S
C281 H276 0.950 . S
C281 C282 1.478 . S
C282 C281 1.478 . S
C282 C283 1.397 . S
C282 C299 1.394 . S
C283 C282 1.397 . S
C283 C284 1.438 . S
C283 C288 1.429 . S
C284 C283 1.438 . S
C284 C285 1.428 . S
C284 C297 1.394 . S
C285 H277 0.949 . S
C285 C284 1.428 . S
C285 C286 1.345 . S
C286 H278 0.950 . S
C286 C285 1.345 . S
C286 C287 1.424 . S
C287 H279 0.951 . S
C287 C286 1.424 . S
C287 C288 1.347 . S
C288 H280 0.951 . S
C288 C283 1.429 . S
C288 C287 1.347 . S
H289 C290 0.951 . S
C290 H289 0.951 . S
C290 C296 1.265 . S
H291 C296 0.950 . S
H292 C300 0.949 . S
H293 C301 0.950 . S
H294 C302 0.951 . S
H295 C303 0.951 . S
C296 C290 1.265 . S
C296 H291 0.950 . S
C296 C297 1.478 . S
C297 C284 1.394 . S
C297 C296 1.478 . S
C297 C298 1.397 . S
C298 C297 1.397 . S
C298 C299 1.438 . S
C298 C303 1.429 . S
C299 C282 1.394 . S
C299 C298 1.438 . S
C299 C300 1.428 . S
C300 H292 0.949 . S
C300 C299 1.428 . S
C300 C301 1.345 . S
C301 H293 0.950 . S
C301 C300 1.345 . S
C301 C302 1.424 . S
C302 H294 0.951 . S
C302 C301 1.424 . S
C302 C303 1.347 . S
C303 H295 0.951 . S
C303 C298 1.429 . S
C303 C302 1.347 . S
H304 C305 0.951 . S
C305 H304 0.951 . S
C305 C311 1.265 . S
H306 C311 0.950 . S
H307 C315 0.949 . S
H308 C316 0.950 . S
H309 C317 0.951 . S
H310 C318 0.951 . S
C311 C305 1.265 . S
C311 H306 0.950 . S
C311 C312 1.478 . S
C312 C311 1.478 . S
C312 C313 1.397 . S
C312 C329 1.394 . S
C313 C312 1.397 . S
C313 C314 1.438 1_655 S
C313 C318 1.429 . S
C314 C313 1.438 1_455 S
C314 C315 1.428 . S
C314 C327 1.394 . S
C315 H307 0.949 . S
C315 C314 1.428 . S
C315 C316 1.345 . S
C316 H308 0.950 . S
C316 C315 1.345 . S
C316 C317 1.424 1_455 S
C317 H309 0.951 . S
C317 C316 1.424 1_655 S
C317 C318 1.347 . S
C318 H310 0.951 . S
C318 C313 1.429 . S
C318 C317 1.347 . S
H319 C320 0.951 . S
C320 H319 0.951 . S
C320 C326 1.265 . S
H321 C326 0.950 . S
H322 C330 0.949 . S
H323 C331 0.950 . S
H324 C332 0.951 . S
H325 C333 0.951 . S
C326 C320 1.265 . S
C326 H321 0.950 . S
C326 C327 1.478 . S
C327 C314 1.394 . S
C327 C326 1.478 . S
C327 C328 1.397 . S
C328 C327 1.397 . S
C328 C329 1.438 1_455 S
C328 C333 1.429 . S
C329 C312 1.394 . S
C329 C328 1.438 1_655 S
C329 C330 1.428 . S
C330 H322 0.949 . S
C330 C329 1.428 . S
C330 C331 1.345 . S
C331 H323 0.950 . S
C331 C330 1.345 . S
C331 C332 1.424 1_655 S
C332 H324 0.951 . S
C332 C331 1.424 1_455 S
C332 C333 1.347 . S
C333 H325 0.951 . S
C333 C328 1.429 . S
C333 C332 1.347 . S
H334 C335 0.951 . S
C335 H334 0.951 . S
C335 C341 1.265 . S
H336 C341 0.950 . S
H337 C345 0.949 . S
H338 C346 0.950 . S
H339 C347 0.951 . S
H340 C348 0.951 . S
C341 C335 1.265 . S
C341 H336 0.950 . S
C341 C342 1.478 . S
C342 C341 1.478 . S
C342 C343 1.397 . S
C342 C359 1.394 . S
C343 C342 1.397 . S
C343 C344 1.438 1_655 S
C343 C348 1.429 . S
C344 C343 1.438 1_455 S
C344 C345 1.428 . S
C344 C357 1.394 . S
C345 H337 0.949 . S
C345 C344 1.428 . S
C345 C346 1.345 . S
C346 H338 0.950 . S
C346 C345 1.345 . S
C346 C347 1.424 1_455 S
C347 H339 0.951 . S
C347 C346 1.424 1_655 S
C347 C348 1.347 . S
C348 H340 0.951 . S
C348 C343 1.429 . S
C348 C347 1.347 . S
H349 C350 0.951 . S
C350 H349 0.951 . S
C350 C356 1.265 . S
H351 C356 0.950 . S
H352 C360 0.949 . S
H353 C361 0.950 . S
H354 C362 0.951 . S
H355 C363 0.951 . S
C356 C350 1.265 . S
C356 H351 0.950 . S
C356 C357 1.478 . S
C357 C344 1.394 . S
C357 C356 1.478 . S
C357 C358 1.397 . S
C358 C357 1.397 . S
C358 C359 1.438 1_455 S
C358 C363 1.429 . S
C359 C342 1.394 . S
C359 C358 1.438 1_655 S
C359 C360 1.428 . S
C360 H352 0.949 . S
C360 C359 1.428 . S
C360 C361 1.345 . S
C361 H353 0.950 . S
C361 C360 1.345 . S
C361 C362 1.424 1_655 S
C362 H354 0.951 . S
C362 C361 1.424 1_455 S
C362 C363 1.347 . S
C363 H355 0.951 . S
C363 C358 1.429 . S
C363 C362 1.347 . S
H364 C365 0.951 . S
C365 H364 0.951 . S
C365 C371 1.265 . S
H366 C371 0.950 . S
H367 C375 0.949 . S
H368 C376 0.950 . S
H369 C377 0.951 . S
H370 C378 0.951 . S
C371 C365 1.265 . S
C371 H366 0.950 . S
C371 C372 1.478 . S
C372 C371 1.478 . S
C372 C373 1.397 . S
C372 C389 1.394 . S
C373 C372 1.397 . S
C373 C374 1.438 . S
C373 C378 1.429 . S
C374 C373 1.438 . S
C374 C375 1.428 . S
C374 C387 1.394 . S
C375 H367 0.949 . S
C375 C374 1.428 . S
C375 C376 1.345 . S
C376 H368 0.950 . S
C376 C375 1.345 . S
C376 C377 1.424 . S
C377 H369 0.951 . S
C377 C376 1.424 . S
C377 C378 1.347 . S
C378 H370 0.951 . S
C378 C373 1.429 . S
C378 C377 1.347 . S
H379 C380 0.951 . S
C380 H379 0.951 . S
C380 C386 1.265 . S
H381 C386 0.950 . S
H382 C390 0.949 . S
H383 C391 0.950 . S
H384 C392 0.951 . S
H385 C393 0.951 . S
C386 C380 1.265 . S
C386 H381 0.950 . S
C386 C387 1.478 . S
C387 C374 1.394 . S
C387 C386 1.478 . S
C387 C388 1.397 . S
C388 C387 1.397 . S
C388 C389 1.438 . S
C388 C393 1.429 . S
C389 C372 1.394 . S
C389 C388 1.438 . S
C389 C390 1.428 . S
C390 H382 0.949 . S
C390 C389 1.428 . S
C390 C391 1.345 . S
C391 H383 0.950 . S
C391 C390 1.345 . S
C391 C392 1.424 . S
C392 H384 0.951 . S
C392 C391 1.424 . S
C392 C393 1.347 . S
C393 H385 0.951 . S
C393 C388 1.429 . S
C393 C392 1.347 . S
H394 C395 0.951 . S
C395 H394 0.951 . S
C395 C401 1.265 . S
H396 C401 0.950 . S
H397 C405 0.949 . S
H398 C406 0.950 . S
H399 C407 0.951 . S
H400 C408 0.951 . S
C401 C395 1.265 . S
C401 H396 0.950 . S
C401 C402 1.478 . S
C402 C401 1.478 . S
C402 C403 1.397 1_556 S
C402 C419 1.394 . S
C403 C402 1.397 1_554 S
C403 C404 1.438 . S
C403 C408 1.429 . S
C404 C403 1.438 . S
C404 C405 1.428 . S
C404 C417 1.394 . S
C405 H397 0.949 . S
C405 C404 1.428 . S
C405 C406 1.345 . S
C406 H398 0.950 . S
C406 C405 1.345 . S
C406 C407 1.424 . S
C407 H399 0.951 . S
C407 C406 1.424 . S
C407 C408 1.347 . S
C408 H400 0.951 . S
C408 C403 1.429 . S
C408 C407 1.347 . S
H409 C410 0.951 . S
C410 H409 0.951 . S
C410 C416 1.265 . S
H411 C416 0.950 . S
H412 C420 0.949 . S
H413 C421 0.950 . S
H414 C422 0.951 . S
H415 C423 0.951 . S
C416 C410 1.265 . S
C416 H411 0.950 . S
C416 C417 1.478 . S
C417 C404 1.394 . S
C417 C416 1.478 . S
C417 C418 1.397 1_554 S
C418 C417 1.397 1_556 S
C418 C419 1.438 . S
C418 C423 1.429 . S
C419 C402 1.394 . S
C419 C418 1.438 . S
C419 C420 1.428 . S
C420 H412 0.949 . S
C420 C419 1.428 . S
C420 C421 1.345 . S
C421 H413 0.950 . S
C421 C420 1.345 . S
C421 C422 1.424 . S
C422 H414 0.951 . S
C422 C421 1.424 . S
C422 C423 1.347 . S
C423 H415 0.951 . S
C423 C418 1.429 . S
C423 C422 1.347 . S
H424 C425 0.951 . S
C425 H424 0.951 . S
C425 C431 1.265 . S
H426 C431 0.950 . S
H427 C435 0.949 . S
H428 C436 0.950 . S
H429 C437 0.951 . S
H430 C438 0.951 . S
C431 C425 1.265 . S
C431 H426 0.950 . S
C431 C432 1.478 . S
C432 C431 1.478 . S
C432 C433 1.397 . S
C432 C449 1.394 . S
C433 C432 1.397 . S
C433 C434 1.438 . S
C433 C438 1.429 . S
C434 C433 1.438 . S
C434 C435 1.428 . S
C434 C447 1.394 . S
C435 H427 0.949 . S
C435 C434 1.428 . S
C435 C436 1.345 . S
C436 H428 0.950 . S
C436 C435 1.345 . S
C436 C437 1.424 . S
C437 H429 0.951 . S
C437 C436 1.424 . S
C437 C438 1.347 . S
C438 H430 0.951 . S
C438 C433 1.429 . S
C438 C437 1.347 . S
H439 C440 0.951 . S
C440 H439 0.951 . S
C440 C446 1.265 . S
H441 C446 0.950 . S
H442 C450 0.949 . S
H443 C451 0.950 . S
H444 C452 0.951 . S
H445 C453 0.951 . S
C446 C440 1.265 . S
C446 H441 0.950 . S
C446 C447 1.478 . S
C447 C434 1.394 . S
C447 C446 1.478 . S
C447 C448 1.397 . S
C448 C447 1.397 . S
C448 C449 1.438 . S
C448 C453 1.429 . S
C449 C432 1.394 . S
C449 C448 1.438 . S
C449 C450 1.428 . S
C450 H442 0.949 . S
C450 C449 1.428 . S
C450 C451 1.345 . S
C451 H443 0.950 . S
C451 C450 1.345 . S
C451 C452 1.424 . S
C452 H444 0.951 . S
C452 C451 1.424 . S
C452 C453 1.347 . S
C453 H445 0.951 . S
C453 C448 1.429 . S
C453 C452 1.347 . S
H454 C455 0.951 . S
C455 H454 0.951 . S
C455 C461 1.265 . S
H456 C461 0.950 . S
H457 C465 0.949 . S
H458 C466 0.950 . S
H459 C467 0.951 . S
H460 C468 0.951 . S
C461 C455 1.265 . S
C461 H456 0.950 . S
C461 C462 1.478 . S
C462 C461 1.478 . S
C462 C463 1.397 1_554 S
C462 C479 1.394 . S
C463 C462 1.397 1_556 S
C463 C464 1.438 . S
C463 C468 1.429 . S
C464 C463 1.438 . S
C464 C465 1.428 . S
C464 C477 1.394 . S
C465 H457 0.949 . S
C465 C464 1.428 . S
C465 C466 1.345 . S
C466 H458 0.950 . S
C466 C465 1.345 . S
C466 C467 1.424 . S
C467 H459 0.951 . S
C467 C466 1.424 . S
C467 C468 1.347 . S
C468 H460 0.951 . S
C468 C463 1.429 . S
C468 C467 1.347 . S
H469 C470 0.951 . S
C470 H469 0.951 . S
C470 C476 1.265 . S
H471 C476 0.950 . S
H472 C480 0.949 . S
H473 C481 0.950 . S
H474 C482 0.951 1_655 S
H475 C483 0.951 . S
C476 C470 1.265 . S
C476 H471 0.950 . S
C476 C477 1.478 . S
C477 C464 1.394 . S
C477 C476 1.478 . S
C477 C478 1.397 1_556 S
C478 C477 1.397 1_554 S
C478 C479 1.438 . S
C478 C483 1.429 . S
C479 C462 1.394 . S
C479 C478 1.438 . S
C479 C480 1.428 . S
C480 H472 0.949 . S
C480 C479 1.428 . S
C480 C481 1.345 . S
C481 H473 0.950 . S
C481 C480 1.345 . S
C481 C482 1.424 . S
C482 H474 0.951 1_455 S
C482 C481 1.424 . S
C482 C483 1.347 . S
C483 H475 0.951 . S
C483 C478 1.429 . S
C483 C482 1.347 . S
H484 C485 0.951 . S
C485 H484 0.951 . S
C485 C491 1.265 . S
H486 C491 0.950 . S
H487 C495 0.949 . S
H488 C496 0.950 . S
H489 C497 0.951 . S
H490 C498 0.951 . S
C491 C485 1.265 . S
C491 H486 0.950 . S
C491 C492 1.478 . S
C492 C491 1.478 . S
C492 C493 1.397 1_554 S
C492 C509 1.389 1_545 S
C493 C492 1.397 1_556 S
C493 C494 1.438 1_645 S
C493 C498 1.429 . S
C494 C493 1.438 1_465 S
C494 C495 1.428 . S
C494 C507 1.394 . S
C495 H487 0.949 . S
C495 C494 1.428 . S
C495 C496 1.345 1_565 S
C496 H488 0.950 . S
C496 C495 1.345 1_545 S
C496 C497 1.424 . S
C497 H489 0.951 . S
C497 C496 1.424 . S
C497 C498 1.347 1_455 S
C498 H490 0.951 . S
C498 C493 1.429 . S
C498 C497 1.347 1_655 S
H499 C500 0.951 . S
C500 H499 0.951 . S
C500 C506 1.265 . S
H501 C506 0.950 . S
H502 C510 0.949 . S
H503 C511 0.950 . S
H504 C512 0.951 . S
H505 C513 0.951 . S
C506 C500 1.265 . S
C506 H501 0.950 . S
C506 C507 1.478 . S
C507 C494 1.394 . S
C507 C506 1.478 . S
C507 C508 1.397 1_556 S
C508 C507 1.397 1_554 S
C508 C509 1.444 1_455 S
C508 C513 1.429 . S
C509 C492 1.389 1_565 S
C509 C508 1.444 1_655 S
C509 C510 1.427 1_565 S
C510 H502 0.949 . S
C510 C509 1.427 1_545 S
C510 C511 1.345 1_545 S
C511 H503 0.950 . S
C511 C510 1.345 1_565 S
C511 C512 1.424 . S
C512 H504 0.951 . S
C512 C511 1.424 . S
C512 C513 1.347 1_655 S
C513 H505 0.951 . S
C513 C508 1.429 . S
C513 C512 1.347 1_455 S
H514 C515 0.951 . S
C515 H514 0.951 . S
C515 C521 1.265 . S
H516 C521 0.950 1_655 S
H517 C525 0.949 . S
H518 C526 0.950 . S
H519 C527 0.951 . S
H520 C528 0.951 . S
C521 C515 1.265 . S
C521 H516 0.950 1_455 S
C521 C522 1.478 . S
C522 C521 1.478 . S
C522 C523 1.397 1_455 S
C522 C539 1.394 . S
C523 C522 1.397 1_655 S
C523 C524 1.438 1_545 S
C523 C528 1.429 . S
C524 C523 1.438 1_565 S
C524 C525 1.428 . S
C524 C537 1.394 . S
C525 H517 0.949 . S
C525 C524 1.428 . S
C525 C526 1.345 . S
C526 H518 0.950 . S
C526 C525 1.345 . S
C526 C527 1.424 . S
C527 H519 0.951 . S
C527 C526 1.424 . S
C527 C528 1.347 1_565 S
C528 H520 0.951 . S
C528 C523 1.429 . S
C528 C527 1.347 1_545 S
H529 C530 0.951 . S
C530 H529 0.951 . S
C530 C536 1.265 . S
H531 C536 0.950 1_455 S
H532 C540 0.949 . S
H533 C541 0.950 . S
H534 C542 0.951 . S
H535 C543 0.935 1_565 S
C536 C530 1.265 . S
C536 H531 0.950 1_655 S
C536 C537 1.478 . S
C537 C524 1.394 . S
C537 C536 1.478 . S
C537 C538 1.397 1_665 S
C538 C537 1.397 1_445 S
C538 C539 1.438 . S
C538 C543 1.430 . S
C539 C522 1.394 . S
C539 C538 1.438 . S
C539 C540 1.428 . S
C540 H532 0.949 . S
C540 C539 1.428 . S
C540 C541 1.345 . S
C541 H533 0.950 . S
C541 C540 1.345 . S
C541 C542 1.424 . S
C542 H534 0.951 . S
C542 C541 1.424 . S
C542 C543 1.362 . S
C543 H535 0.935 1_545 S
C543 C538 1.430 . S
C543 C542 1.362 . S
H544 C545 0.951 . S
C545 H544 0.951 . S
C545 C551 1.265 . S
H546 C551 0.950 . S
H547 C555 0.949 . S
H548 C556 0.950 . S
H549 C557 0.951 . S
H550 C558 0.951 . S
C551 C545 1.265 . S
C551 H546 0.950 . S
C551 C552 1.478 . S
C552 C551 1.478 . S
C552 C553 1.397 1_554 S
C552 C569 1.394 . S
C553 C552 1.397 1_556 S
C553 C554 1.438 . S
C553 C558 1.429 . S
C554 C553 1.438 . S
C554 C555 1.428 . S
C554 C567 1.394 . S
C555 H547 0.949 . S
C555 C554 1.428 . S
C555 C556 1.345 . S
C556 H548 0.950 . S
C556 C555 1.345 . S
C556 C557 1.424 . S
C557 H549 0.951 . S
C557 C556 1.424 . S
C557 C558 1.347 . S
C558 H550 0.951 . S
C558 C553 1.429 . S
C558 C557 1.347 . S
H559 C560 0.951 . S
C560 H559 0.951 . S
C560 C566 1.265 . S
H561 C566 0.950 . S
H562 C570 0.949 . S
H563 C571 0.950 . S
H564 C572 0.951 . S
H565 C573 0.951 . S
C566 C560 1.265 . S
C566 H561 0.950 . S
C566 C567 1.478 . S
C567 C554 1.394 . S
C567 C566 1.478 . S
C567 C568 1.397 1_556 S
C568 C567 1.397 1_554 S
C568 C569 1.438 . S
C568 C573 1.429 . S
C569 C552 1.394 . S
C569 C568 1.438 . S
C569 C570 1.428 . S
C570 H562 0.949 . S
C570 C569 1.428 . S
C570 C571 1.345 . S
C571 H563 0.950 . S
C571 C570 1.345 . S
C571 C572 1.424 . S
C572 H564 0.951 . S
C572 C571 1.424 . S
C572 C573 1.347 . S
C573 H565 0.951 . S
C573 C568 1.429 . S
C573 C572 1.347 . S
H574 C575 0.951 . S
C575 H574 0.951 . S
C575 C581 1.265 . S
H576 C581 0.950 . S
H577 C585 0.949 . S
H578 C586 0.950 . S
H579 C587 0.951 . S
H580 C588 0.951 . S
C581 C575 1.265 . S
C581 H576 0.950 . S
C581 C582 1.478 . S
C582 C581 1.478 . S
C582 C583 1.397 . S
C582 C599 1.394 . S
C583 C582 1.397 . S
C583 C584 1.438 . S
C583 C588 1.429 . S
C584 C583 1.438 . S
C584 C585 1.428 . S
C584 C597 1.394 . S
C585 H577 0.949 . S
C585 C584 1.428 . S
C585 C586 1.345 . S
C586 H578 0.950 . S
C586 C585 1.345 . S
C586 C587 1.424 . S
C587 H579 0.951 . S
C587 C586 1.424 . S
C587 C588 1.347 . S
C588 H580 0.951 . S
C588 C583 1.429 . S
C588 C587 1.347 . S
H589 C590 0.951 . S
C590 H589 0.951 . S
C590 C596 1.265 . S
H591 C596 0.950 . S
H592 C600 0.949 . S
H593 C601 0.950 . S
H594 C602 0.951 . S
H595 C603 0.951 . S
C596 C590 1.265 . S
C596 H591 0.950 . S
C596 C597 1.478 . S
C597 C584 1.394 . S
C597 C596 1.478 . S
C597 C598 1.397 . S
C598 C597 1.397 . S
C598 C599 1.438 . S
C598 C603 1.429 . S
C599 C582 1.394 . S
C599 C598 1.438 . S
C599 C600 1.428 . S
C600 H592 0.949 . S
C600 C599 1.428 . S
C600 C601 1.345 . S
C601 H593 0.950 . S
C601 C600 1.345 . S
C601 C602 1.424 . S
C602 H594 0.951 . S
C602 C601 1.424 . S
C602 C603 1.347 . S
C603 H595 0.951 . S
C603 C598 1.429 . S
C603 C602 1.347 . S
C125 C19 1.288 1_556 S
C140 C30 1.278 . S
C155 C31 1.254 . S
C170 C41 1.275 1_554 S
C185 C62 1.253 1_556 S
C200 C72 1.275 . S
C215 C103 1.280 1_554 S
C230 C93 1.289 . S
C245 C10 1.267 . S
C260 C0 1.265 . S
C275 C61 1.270 . S
C290 C50 1.268 . S
C305 C81 1.268 . S
C320 C92 1.270 . S
C335 C112 1.185 . S
C350 C123 1.218 . S
C365 C122 1.805 . S
C380 C1 1.799 . S
C395 C113 1.798 . S
C410 C2 1.802 . S
C425 C82 1.842 . S
C440 C60 1.840 . S
C455 C91 1.845 . S
C470 C51 1.843 . S
C485 C20 1.376 . S
C500 C33 1.352 . S
C515 C29 1.501 . S
C530 C32 1.516 . S
C545 C63 1.375 . S
C560 C95 1.352 . S
C575 C94 1.496 . S
C590 C64 1.482 . S
