# Generated by pormake.
# Topology umh, (4)-cn, num edge types: 1
# Building blocks:
#     Node 0, Type 0, BuildingBlock: ICAMEG_clean_sbu_1, # of connection points: 4
#     Node 1, Type 0, BuildingBlock: ICAMEG_clean_sbu_1, # of connection points: 4
#     Node 2, Type 0, BuildingBlock: ICAMEG_clean_sbu_1, # of connection points: 4
#     Node 3, Type 0, BuildingBlock: ICAMEG_clean_sbu_1, # of connection points: 4
#     Node 4, Type 0, BuildingBlock: ICAMEG_clean_sbu_1, # of connection points: 4
#     Node 5, Type 0, BuildingBlock: ICAMEG_clean_sbu_1, # of connection points: 4
#     Node 6, Type 0, BuildingBlock: ICAMEG_clean_sbu_1, # of connection points: 4
#     Node 7, Type 0, BuildingBlock: ICAMEG_clean_sbu_1, # of connection points: 4
#     Node 8, Type 0, BuildingBlock: ICAMEG_clean_sbu_1, # of connection points: 4
#     Node 9, Type 0, BuildingBlock: ICAMEG_clean_sbu_1, # of connection points: 4
#     Node 10, Type 0, BuildingBlock: ICAMEG_clean_sbu_1, # of connection points: 4
#     Node 11, Type 0, BuildingBlock: ICAMEG_clean_sbu_1, # of connection points: 4
#     Node 12, Type 0, BuildingBlock: ICAMEG_clean_sbu_1, # of connection points: 4
#     Node 13, Type 0, BuildingBlock: ICAMEG_clean_sbu_1, # of connection points: 4
#     Node 14, Type 0, BuildingBlock: ICAMEG_clean_sbu_1, # of connection points: 4
#     Node 15, Type 0, BuildingBlock: ICAMEG_clean_sbu_1, # of connection points: 4
#     Edge 16, Type (0, 0), None
#     Edge 17, Type (0, 0), None
#     Edge 18, Type (0, 0), None
#     Edge 19, Type (0, 0), None
#     Edge 20, Type (0, 0), None
#     Edge 21, Type (0, 0), None
#     Edge 22, Type (0, 0), None
#     Edge 23, Type (0, 0), None
#     Edge 24, Type (0, 0), None
#     Edge 25, Type (0, 0), None
#     Edge 26, Type (0, 0), None
#     Edge 27, Type (0, 0), None
#     Edge 28, Type (0, 0), None
#     Edge 29, Type (0, 0), None
#     Edge 30, Type (0, 0), None
#     Edge 31, Type (0, 0), None
#     Edge 32, Type (0, 0), None
#     Edge 33, Type (0, 0), None
#     Edge 34, Type (0, 0), None
#     Edge 35, Type (0, 0), None
#     Edge 36, Type (0, 0), None
#     Edge 37, Type (0, 0), None
#     Edge 38, Type (0, 0), None
#     Edge 39, Type (0, 0), None
#     Edge 40, Type (0, 0), None
#     Edge 41, Type (0, 0), None
#     Edge 42, Type (0, 0), None
#     Edge 43, Type (0, 0), None
#     Edge 44, Type (0, 0), None
#     Edge 45, Type (0, 0), None
#     Edge 46, Type (0, 0), None
#     Edge 47, Type (0, 0), None
# Relax obj value: 0.088
# Max RMSD: 0.237
# Mean RMSD: 0.237
data_MOF--net-umh--node1-ICAMEG_clean_sbu_1--edge1-none
_symmetry_space_group_name_H-M    P1
_symmetry_Int_Tables_number       1
_symmetry_cell_setting            triclinic
loop_
_symmetry_equiv_pos_as_xyz
'x, y, z'
_cell_length_a     20.529667
_cell_length_b     20.535598
_cell_length_c     26.678351
_cell_angle_alpha  89.999986
_cell_angle_beta   90.001293
_cell_angle_gamma 90.000644
loop_
_atom_site_label
_atom_site_type_symbol
_atom_site_fract_x
_atom_site_fract_y
_atom_site_fract_z
_atom_type_partial_charge
Co0 Co 0.2552 0.07992 0.11343 0.0
Co1 Co 0.38507 0.1215 0.18487 0.0
O2 O 0.34455 0.08569 0.12819 0.0
C3 C 0.31899 0.1646 0.03192 0.0
O4 O 0.34849 0.19599 0.06816 0.0
C5 C 0.4345 -0.00201 0.23166 0.0
O6 O 0.39785 0.01321 0.26999 0.0
O7 O 0.31825 0.08796 0.2299 0.0
O8 O 0.2332 0.04989 0.18597 0.0
H9 H 0.39481 0.20093 0.36067 0.0
H10 H 0.23325 0.00458 1.01984 0.0
O11 O 0.27947 0.11692 0.0427 0.0
H12 H 0.33296 0.85244 0.13893 0.0
H13 H 0.05065 0.95458 0.08567 0.0
H14 H 0.1638 0.16226 0.05778 0.0
H15 H 0.3193 0.96693 0.16081 0.0
H16 H 0.15615 0.97568 0.12591 0.0
O17 O 0.4368 0.03601 0.1932 0.0
H18 H 0.34352 0.18797 0.27765 0.0
H19 H 0.52242 0.11878 0.2184 0.0
H20 H 0.0514 0.14896 0.02809 0.0
H21 H 0.23835 0.88767 0.99818 0.0
H22 H 0.99383 0.04538 0.04093 0.0
H23 H 0.29143 0.81071 0.05701 0.0
O24 O 0.23439 0.1686 0.13717 0.0
H25 H 0.53353 0.10306 0.03497 0.0
H26 H 0.48112 0.23363 0.18371 0.0
H27 H 0.57079 0.268 0.1287 0.0
H28 H 0.59776 0.20211 0.0538 0.0
H29 H 0.44671 0.06919 0.09185 0.0
H30 H 0.57705 0.1392 0.2981 0.0
H31 H 0.51215 0.17309 0.37146 0.0
O32 O 0.32413 0.20501 0.17747 0.0
C33 C 0.26361 0.0603 0.22799 0.0
C34 C 0.42283 0.18235 0.32959 0.0
C35 C 0.52533 0.14788 0.2946 0.0
N36 N 0.42991 0.15408 0.24312 0.0
C37 C 0.39457 0.17718 0.28237 0.0
C38 C 0.49455 0.13934 0.2489 0.0
C39 C 0.48849 0.16645 0.33569 0.0
C40 C 0.25422 0.9708 0.04589 0.0
N41 N 0.27366 0.9919 0.09194 0.0
C42 C 0.25822 0.90498 0.03325 0.0
C43 C 0.28736 0.86173 0.06657 0.0
C44 C 0.3105 0.88467 0.11238 0.0
C45 C 0.30273 0.95005 0.12468 0.0
C46 C 0.07293 0.00192 0.08221 0.0
C47 C 0.13767 0.11786 0.06595 0.0
C48 C 0.13341 0.01362 0.10393 0.0
N49 N 0.16568 0.07033 0.09423 0.0
C50 C 0.07452 0.11029 0.04824 0.0
C51 C 0.04238 0.05158 0.05557 0.0
C52 C 0.26293 0.21196 0.16286 0.0
C53 C 0.52102 0.13324 0.06681 0.0
C54 C 0.48925 0.20739 0.14961 0.0
C55 C 0.54143 0.22604 0.11911 0.0
C56 C 0.5568 0.18901 0.07716 0.0
N57 N 0.45342 0.1531 0.13927 0.0
C58 C 0.47056 0.1151 0.099 0.0
Co59 Co 0.4093 0.25497 0.61341 0.0
Co60 Co 0.36775 0.38484 0.68481 0.0
O61 O 0.40359 0.3443 0.62816 0.0
C62 C 0.32462 0.31877 0.5319 0.0
O63 O 0.29324 0.34828 0.56814 0.0
C64 C 0.49129 0.43427 0.73162 0.0
O65 O 0.47609 0.39759 0.76994 0.0
O66 O 0.40126 0.31805 0.72987 0.0
O67 O 0.4393 0.23298 0.68597 0.0
H68 H 0.28831 0.39471 0.8606 0.0
H69 H 0.48453 0.23331 0.51972 0.0
O70 O 0.3723 0.27924 0.54268 0.0
H71 H 0.63708 0.3319 0.63908 0.0
H72 H 0.53461 0.05045 0.58565 0.0
H73 H 0.32688 0.1636 0.5578 0.0
H74 H 0.52249 0.31866 0.66089 0.0
H75 H 0.51355 0.15593 0.62587 0.0
O76 O 0.45327 0.43655 0.69315 0.0
H77 H 0.30123 0.34338 0.77761 0.0
H78 H 0.37047 0.52217 0.71827 0.0
H79 H 0.34015 0.05121 0.52814 0.0
H80 H 0.60147 0.2382 0.49803 0.0
H81 H 0.44375 0.99365 0.54095 0.0
H82 H 0.67864 0.29071 0.55701 0.0
O83 O 0.32058 0.23421 0.63715 0.0
H84 H 0.38639 0.53319 0.53489 0.0
H85 H 0.25562 0.48088 0.68356 0.0
H86 H 0.22129 0.57049 0.62849 0.0
H87 H 0.2873 0.59744 0.55364 0.0
H88 H 0.42017 0.44641 0.59181 0.0
H89 H 0.35009 0.57685 0.79795 0.0
H90 H 0.3162 0.51202 0.87134 0.0
O91 O 0.2842 0.32395 0.67741 0.0
C92 C 0.4289 0.2634 0.72798 0.0
C93 C 0.30689 0.42269 0.82951 0.0
C94 C 0.34138 0.52514 0.79447 0.0
N95 N 0.33514 0.42972 0.74303 0.0
C96 C 0.31204 0.39442 0.7823 0.0
C97 C 0.34989 0.49434 0.74878 0.0
C98 C 0.32281 0.48834 0.83557 0.0
C99 C 0.51839 0.25406 0.54581 0.0
N100 N 0.49735 0.27336 0.59192 0.0
C101 C 0.58423 0.25794 0.53317 0.0
C102 C 0.6276 0.28677 0.56656 0.0
C103 C 0.60474 0.30975 0.61245 0.0
C104 C 0.53931 0.30218 0.62472 0.0
C105 C 0.48726 0.07273 0.5822 0.0
C106 C 0.37129 0.13746 0.56597 0.0
C107 C 0.47558 0.1332 0.6039 0.0
N108 N 0.41885 0.16547 0.59422 0.0
C109 C 0.37884 0.07432 0.54827 0.0
C110 C 0.43757 0.04218 0.55558 0.0
C111 C 0.27722 0.26277 0.66282 0.0
C112 C 0.35616 0.5207 0.56672 0.0
C113 C 0.28188 0.48898 0.64946 0.0
C114 C 0.26326 0.54114 0.61894 0.0
C115 C 0.30036 0.55649 0.57702 0.0
N116 N 0.3362 0.45315 0.63917 0.0
C117 C 0.37425 0.47026 0.59892 0.0
Co118 Co 0.23408 0.4091 0.11343 0.0
Co119 Co 0.10422 0.3675 0.18487 0.0
O120 O 0.14473 0.40331 0.12819 0.0
C121 C 0.1703 0.32442 0.03192 0.0
O122 O 0.1408 0.29303 0.06816 0.0
C123 C 0.0548 0.49101 0.23166 0.0
O124 O 0.09144 0.47578 0.27 0.0
O125 O 0.17104 0.40104 0.22989 0.0
O126 O 0.25608 0.43913 0.18597 0.0
H127 H 0.09449 0.28808 0.36067 0.0
H128 H 0.25606 0.48445 1.01985 0.0
O129 O 0.20982 0.3721 0.0427 0.0
H130 H 0.15619 0.63654 0.1389 0.0
H131 H 0.43863 0.53445 0.08567 0.0
H132 H 0.32549 0.32677 0.05778 0.0
H133 H 0.16992 0.52205 0.1608 0.0
H134 H 0.33313 0.51334 0.12591 0.0
O135 O 0.05249 0.45299 0.1932 0.0
H136 H 0.14578 0.30104 0.27765 0.0
H137 H 0.96687 0.37023 0.21839 0.0
H138 H 0.43789 0.34007 0.0281 0.0
H139 H 0.25092 0.60136 0.99819 0.0
H140 H 0.49545 0.44365 0.04094 0.0
H141 H 0.19775 0.67829 0.057 0.0
O142 O 0.2549 0.32041 0.13717 0.0
H143 H 0.95576 0.38594 0.03496 0.0
H144 H 0.00817 0.25537 0.18371 0.0
H145 H 0.9185 0.221 0.12869 0.0
H146 H 0.89153 0.28688 0.05379 0.0
H147 H 0.04258 0.41981 0.09185 0.0
H148 H 0.91224 0.34981 0.2981 0.0
H149 H 0.97715 0.31592 0.37146 0.0
O150 O 0.16516 0.284 0.17746 0.0
C151 C 0.22568 0.42871 0.22799 0.0
C152 C 0.06647 0.30666 0.32959 0.0
C153 C 0.96397 0.34113 0.2946 0.0
N154 N 0.05938 0.33492 0.24312 0.0
C155 C 0.09472 0.31183 0.28237 0.0
C156 C -0.00526 0.34966 0.2489 0.0
C157 C 0.00081 0.32256 0.33569 0.0
C158 C 0.23507 0.51823 0.04589 0.0
N159 N 0.21562 0.49711 0.09194 0.0
C160 C 0.23104 0.58405 0.03326 0.0
C161 C 0.20185 0.62727 0.06656 0.0
C162 C 0.17869 0.60432 0.11237 0.0
C163 C 0.1865 0.53894 0.12467 0.0
C164 C 0.41635 0.48711 0.08221 0.0
C165 C 0.35162 0.37117 0.06595 0.0
C166 C 0.35588 0.47541 0.10393 0.0
N167 N 0.3236 0.41869 0.09423 0.0
C168 C 0.41477 0.37874 0.04825 0.0
C169 C 0.44691 0.43745 0.05557 0.0
C170 C 0.22637 0.27706 0.16286 0.0
C171 C 0.96827 0.35576 0.06681 0.0
C172 C 4e-05 0.28161 0.1496 0.0
C173 C 0.94786 0.26296 0.11911 0.0
C174 C 0.93249 0.29998 0.07716 0.0
N175 N 0.03587 0.33591 0.13926 0.0
C176 C 0.01873 0.3739 0.099 0.0
Co177 Co 0.08 0.23405 0.6134 0.0
Co178 Co 0.12156 0.10417 0.68481 0.0
O179 O 0.08571 0.14472 0.62816 0.0
C180 C 0.16468 0.17025 0.5319 0.0
O181 O 0.19607 0.14074 0.56814 0.0
C182 C -0.00199 0.05475 0.73161 0.0
O183 O 0.01322 0.09143 0.76993 0.0
O184 O 0.08804 0.17097 0.72986 0.0
O185 O 0.05 0.25604 0.68596 0.0
H186 H 0.20099 0.09431 0.8606 0.0
H187 H 0.00477 0.2557 0.51971 0.0
O188 O 0.11701 0.20978 0.54267 0.0
H189 H 0.85222 0.15712 0.63907 0.0
H190 H 0.95469 0.43857 0.58565 0.0
H191 H 0.16242 0.32542 0.55779 0.0
H192 H 0.96682 0.17035 0.66088 0.0
H193 H 0.97575 0.33308 0.62586 0.0
O194 O 0.03604 0.05246 0.69315 0.0
H195 H 0.18807 0.14564 0.77761 0.0
H196 H 0.11883 0.96684 0.71826 0.0
H197 H 0.14915 0.43781 0.52814 0.0
H198 H 0.88783 0.25081 0.49802 0.0
H199 H 0.04555 0.49537 0.54096 0.0
H200 H 0.81065 0.19831 0.55701 0.0
O201 O 0.16872 0.25481 0.63714 0.0
H202 H 0.10292 0.95582 0.53489 0.0
H203 H 0.23369 0.00814 0.68356 0.0
H204 H 0.26802 0.91852 0.62849 0.0
H205 H 0.20201 0.89157 0.55364 0.0
H206 H 0.06914 0.0426 0.5918 0.0
H207 H 0.13922 0.91217 0.79795 0.0
H208 H 0.1731 0.977 0.87134 0.0
O209 O 0.20511 0.16506 0.67741 0.0
C210 C 0.06041 0.22562 0.72797 0.0
C211 C 0.18241 0.06632 0.82951 0.0
C212 C 0.14792 0.96388 0.79447 0.0
N213 N 0.15416 0.0593 0.74303 0.0
C214 C 0.17727 0.0946 0.7823 0.0
C215 C 0.13941 -0.00532 0.74878 0.0
C216 C 0.16649 0.00068 0.83557 0.0
C217 C 0.97091 0.23495 0.5458 0.0
N218 N 0.99195 0.21565 0.59191 0.0
C219 C 0.90507 0.23107 0.53316 0.0
C220 C 0.8617 0.20225 0.56655 0.0
C221 C 0.88456 0.17927 0.61244 0.0
C222 C 0.94999 0.18684 0.62471 0.0
C223 C 0.00204 0.41629 0.58219 0.0
C224 C 0.11801 0.35156 0.56596 0.0
C225 C 0.01372 0.35581 0.60389 0.0
N226 N 0.07045 0.32354 0.59421 0.0
C227 C 0.11046 0.4147 0.54827 0.0
C228 C 0.05173 0.44684 0.55558 0.0
C229 C 0.21208 0.22625 0.66282 0.0
C230 C 0.13315 0.96831 0.56671 0.0
C231 C 0.20743 3e-05 0.64946 0.0
C232 C 0.22605 0.94788 0.61894 0.0
C233 C 0.18895 0.93253 0.57702 0.0
N234 N 0.15311 0.03587 0.63917 0.0
C235 C 0.11506 0.01875 0.59892 0.0
Co236 Co 0.24167 0.40789 0.39295 0.0
Co237 Co 0.37884 0.37942 0.32464 0.0
O238 O 0.33349 0.40841 0.38259 0.0
C239 C 0.30412 0.33215 0.47842 0.0
O240 O 0.32863 0.2951 0.44312 0.0
C241 C 0.44097 0.51118 0.30591 0.0
O242 O 0.4032 0.51908 0.26668 0.0
O243 O 0.31848 0.42525 0.27885 0.0
O244 O 0.22282 0.42755 0.31852 0.0
H245 H 0.37926 0.30833 0.14722 0.0
H246 H 0.22135 0.48648 0.48582 0.0
O247 O 0.26476 0.3794 0.46617 0.0
H248 H 0.24698 0.64456 0.349 0.0
H249 H 0.01667 0.49651 0.37179 0.0
H250 H 0.15065 0.329 0.45492 0.0
H251 H 0.27871 0.53052 0.33742 0.0
H252 H 0.13473 0.49257 0.35872 0.0
O253 O 0.43594 0.4599 0.33244 0.0
H254 H 0.33843 0.31167 0.23356 0.0
H255 H 0.51323 0.40501 0.27988 0.0
H256 H 0.03227 0.33467 0.47189 0.0
H257 H 0.19102 0.60096 0.50015 0.0
H258 H 0.96496 0.41903 0.43149 0.0
H259 H 0.20166 0.68058 0.43061 0.0
O260 O 0.23136 0.31573 0.37386 0.0
H261 H 0.51681 0.37281 0.47993 0.0
H262 H 0.49451 0.2881 0.30901 0.0
H263 H 0.59732 0.27596 0.35235 0.0
H264 H 0.61074 0.31978 0.43785 0.0
H265 H 0.41715 0.39006 0.4349 0.0
H266 H 0.55353 0.40306 0.19332 0.0
H267 H 0.48742 0.35568 0.12715 0.0
O268 O 0.31641 0.29482 0.32263 0.0
C269 C 0.25768 0.43282 0.27832 0.0
C270 C 0.40774 0.33123 0.17605 0.0
C271 C 0.50647 0.38318 0.20239 0.0
N272 N 0.42336 0.357 0.26265 0.0
C273 C 0.38648 0.33014 0.22553 0.0
C274 C 0.48301 0.38347 0.25127 0.0
C275 C 0.46817 0.35792 0.16462 0.0
C276 C 0.22695 0.52068 0.45589 0.0
N277 N 0.24718 0.50016 0.4098 0.0
C278 C 0.20982 0.58566 0.46413 0.0
C279 C 0.2154 0.63025 0.42508 0.0
C280 C 0.2406 0.60999 0.37924 0.0
C281 C 0.2585 0.54491 0.37287 0.0
C282 C 0.04553 0.45996 0.39074 0.0
C283 C 0.12144 0.3664 0.43743 0.0
C284 C 0.11245 0.457 0.38299 0.0
N285 N 0.1494 0.41046 0.40599 0.0
C286 C 0.05465 0.36916 0.44712 0.0
C287 C 0.01679 0.41697 0.4244 0.0
C288 C 0.25903 0.27917 0.34196 0.0
C289 C 0.51171 0.35324 0.44247 0.0
C290 C 0.49735 0.30709 0.34637 0.0
C291 C 0.55692 0.29968 0.37097 0.0
C292 C 0.56426 0.32362 0.41909 0.0
N293 N 0.44579 0.33877 0.36796 0.0
C294 C 0.45336 0.36111 0.4163 0.0
Co295 Co 0.0812 0.24152 0.89294 0.0
Co296 Co 0.10973 0.37869 0.82468 0.0
O297 O 0.08067 0.33331 0.8826 0.0
C298 C 0.15693 0.30392 0.97844 0.0
O299 O 0.194 0.32843 0.94314 0.0
C300 C 0.97802 0.44093 0.80588 0.0
O301 O 0.97015 0.40323 0.76661 0.0
O302 O 0.06389 0.31837 0.77886 0.0
O303 O 0.06155 0.22271 0.81851 0.0
H304 H 0.18082 0.37911 0.64727 0.0
H305 H 0.00257 0.22109 0.98579 0.0
O306 O 0.10967 0.26457 0.96618 0.0
H307 H 0.84444 0.24685 0.84899 0.0
H308 H 0.99256 0.01658 0.87177 0.0
H309 H 0.16015 0.15052 0.95486 0.0
H310 H 0.95852 0.27855 0.83741 0.0
H311 H -0.00351 0.13461 0.8587 0.0
O312 O 0.02925 0.4358 0.83247 0.0
H313 H 0.17751 0.3383 0.7336 0.0
H314 H 0.08425 0.5131 0.77996 0.0
H315 H 0.15451 0.03217 0.9718 0.0
H316 H 0.88805 0.19079 1.00011 0.0
H317 H 0.07009 0.96488 0.93145 0.0
H318 H 0.80841 0.20149 0.93058 0.0
O319 O 0.17338 0.23121 0.87387 0.0
H320 H 0.11624 0.51654 0.98001 0.0
H321 H 0.20112 0.49431 0.80913 0.0
H322 H 0.21329 0.59705 0.85252 0.0
H323 H 0.16936 0.61044 0.93799 0.0
H324 H 0.099 0.41693 0.93494 0.0
H325 H 0.08617 0.55338 0.69339 0.0
H326 H 0.13349 0.48726 0.62721 0.0
O327 O 0.19434 0.31626 0.82267 0.0
C328 C 0.05631 0.25759 0.77831 0.0
C329 C 0.15794 0.40759 0.6761 0.0
C330 C 0.10605 0.50633 0.70246 0.0
N331 N 0.13222 0.42322 0.76271 0.0
C332 C 0.15905 0.38634 0.72559 0.0
C333 C 0.10578 0.48287 0.75134 0.0
C334 C 0.13127 0.46802 0.66468 0.0
C335 C 0.96837 0.22674 0.95586 0.0
N336 N 0.98889 0.24701 0.90979 0.0
C337 C 0.90336 0.20962 0.9641 0.0
C338 C 0.85876 0.21522 0.92505 0.0
C339 C 0.87903 0.24044 0.87922 0.0
C340 C 0.94413 0.25833 0.87285 0.0
C341 C 0.02912 0.04543 0.89071 0.0
C342 C 0.12273 0.12131 0.93738 0.0
C343 C 0.03208 0.11233 0.88296 0.0
N344 N 0.07863 0.14927 0.90596 0.0
C345 C 0.11999 0.05454 0.94705 0.0
C346 C 0.07214 0.0167 0.92436 0.0
C347 C 0.20998 0.25889 0.84199 0.0
C348 C 0.13586 0.51144 0.94257 0.0
C349 C 0.18212 0.49712 0.84649 0.0
C350 C 0.18954 0.55665 0.87111 0.0
C351 C 0.16554 0.56398 0.91922 0.0
N352 N 0.15039 0.44557 0.86804 0.0
C353 C 0.12799 0.45313 0.91638 0.0
Co354 Co 0.24763 0.08112 0.39295 0.0
Co355 Co 0.11045 0.10959 0.32464 0.0
O356 O 0.15581 0.0806 0.38259 0.0
C357 C 0.18518 0.15686 0.47842 0.0
O358 O 0.16068 0.19391 0.44312 0.0
C359 C 0.04833 0.97783 0.30592 0.0
O360 O 0.0861 0.96992 0.26669 0.0
O361 O 0.17082 0.06377 0.27886 0.0
O362 O 0.26648 0.06146 0.31853 0.0
H363 H 0.11003 0.18068 0.14722 0.0
H364 H 0.26796 0.00253 0.48582 0.0
O365 O 0.22455 0.10961 0.46618 0.0
H366 H 0.24231 0.84445 0.34901 0.0
H367 H 0.47263 0.9925 0.37179 0.0
H368 H 0.33865 0.16001 0.45492 0.0
H369 H 0.21058 0.95849 0.33742 0.0
H370 H 0.35457 -0.00356 0.35872 0.0
O371 O 0.05336 0.02912 0.33245 0.0
H372 H 0.15086 0.17734 0.23356 0.0
H373 H 0.97606 0.084 0.27988 0.0
H374 H 0.45704 0.15433 0.47189 0.0
H375 H 0.29829 0.88805 0.50015 0.0
H376 H 0.52434 0.06998 0.43149 0.0
H377 H 0.28763 0.80843 0.43061 0.0
O378 O 0.25795 0.17327 0.37386 0.0
H379 H 0.97249 0.1162 0.47993 0.0
H380 H -0.00522 0.20092 0.30901 0.0
H381 H 0.89197 0.21304 0.35235 0.0
H382 H 0.87856 0.16922 0.43785 0.0
H383 H 0.07215 0.09895 0.4349 0.0
H384 H 0.93576 0.08594 0.19332 0.0
H385 H 0.00187 0.13332 0.12715 0.0
O386 O 0.17289 0.19419 0.32263 0.0
C387 C 0.23161 0.0562 0.27832 0.0
C388 C 0.08156 0.15777 0.17605 0.0
C389 C 0.98282 0.10582 0.20239 0.0
N390 N 0.06593 0.13201 0.26265 0.0
C391 C 0.10281 0.15887 0.22554 0.0
C392 C 0.00628 0.10554 0.25127 0.0
C393 C 0.02112 0.13108 0.16462 0.0
C394 C 0.26235 0.96833 0.45589 0.0
N395 N 0.24211 0.98885 0.40981 0.0
C396 C 0.27948 0.90335 0.46413 0.0
C397 C 0.2739 0.85876 0.42509 0.0
C398 C 0.24869 0.87903 0.37924 0.0
C399 C 0.2308 0.9441 0.37287 0.0
C400 C 0.44378 0.02905 0.39074 0.0
C401 C 0.36787 0.12261 0.43743 0.0
C402 C 0.37685 0.03201 0.38299 0.0
N403 N 0.3399 0.07854 0.406 0.0
C404 C 0.43466 0.11985 0.44712 0.0
C405 C 0.47251 0.07203 0.4244 0.0
C406 C 0.23027 0.20983 0.34196 0.0
C407 C 0.97759 0.13577 0.44247 0.0
C408 C 0.99194 0.18192 0.34637 0.0
C409 C 0.93238 0.18933 0.37097 0.0
C410 C 0.92504 0.16539 0.4191 0.0
N411 N 0.04351 0.15024 0.36796 0.0
C412 C 0.03594 0.1279 0.41631 0.0
Co413 Co 0.4081 0.2475 0.89295 0.0
Co414 Co 0.37957 0.11033 0.82468 0.0
O415 O 0.40862 0.1557 0.88261 0.0
C416 C 0.33236 0.18509 0.97844 0.0
O417 O 0.29529 0.16059 0.94314 0.0
C418 C 0.51128 0.0481 0.80589 0.0
O419 O 0.51915 0.0858 0.76662 0.0
O420 O 0.4254 0.17065 0.77887 0.0
O421 O 0.42776 0.26631 0.81852 0.0
H422 H 0.30849 0.10991 0.64727 0.0
H423 H 0.48671 0.26792 0.98581 0.0
O424 O 0.37962 0.22445 0.96618 0.0
H425 H 0.64486 0.24217 0.84903 0.0
H426 H 0.49674 0.47243 0.87178 0.0
H427 H 0.32915 0.3385 0.95486 0.0
H428 H 0.53078 0.21047 0.83743 0.0
H429 H 0.49281 0.35441 0.85871 0.0
O430 O 0.46005 0.05322 0.83248 0.0
H431 H 0.31179 0.15072 0.73361 0.0
H432 H 0.40505 0.97592 0.77996 0.0
H433 H 0.33478 0.45686 0.97179 0.0
H434 H 0.60123 0.29822 1.00014 0.0
H435 H 0.41921 0.52414 0.93145 0.0
H436 H 0.68089 0.28753 0.93062 0.0
O437 O 0.31592 0.25781 0.87387 0.0
H438 H 0.37306 0.97248 0.98002 0.0
H439 H 0.28819 -0.0053 0.80914 0.0
H440 H 0.27601 0.89197 0.85252 0.0
H441 H 0.31993 0.87858 0.938 0.0
H442 H 0.3903 0.07209 0.93495 0.0
H443 H 0.40314 0.93564 0.69339 0.0
H444 H 0.35582 0.00176 0.62722 0.0
O445 O 0.29495 0.17275 0.82268 0.0
C446 C 0.433 0.23143 0.77832 0.0
C447 C 0.33136 0.08143 0.67611 0.0
C448 C 0.38326 0.98269 0.70247 0.0
N449 N 0.35708 0.0658 0.76272 0.0
C450 C 0.33025 0.10267 0.72559 0.0
C451 C 0.38352 0.00614 0.75135 0.0
C452 C 0.35804 0.021 0.66468 0.0
C453 C 0.52092 0.26228 0.95589 0.0
N454 N 0.50041 0.24201 0.90981 0.0
C455 C 0.58593 0.2794 0.96413 0.0
C456 C 0.63054 0.27379 0.92509 0.0
C457 C 0.61027 0.24858 0.87925 0.0
C458 C 0.54518 0.23069 0.87287 0.0
C459 C 0.46018 0.44359 0.89072 0.0
C460 C 0.36657 0.36771 0.93739 0.0
C461 C 0.45722 0.37668 0.88297 0.0
N462 N 0.41067 0.33975 0.90597 0.0
C463 C 0.36931 0.43448 0.94706 0.0
C464 C 0.41716 0.47232 0.92436 0.0
C465 C 0.27933 0.23013 0.84199 0.0
C466 C 0.35344 0.97757 0.94257 0.0
C467 C 0.30718 0.99189 0.8465 0.0
C468 C 0.29976 0.93236 0.87112 0.0
C469 C 0.32376 0.92504 0.91923 0.0
N470 N 0.33891 0.04344 0.86805 0.0
C471 C 0.36131 0.03589 0.91638 0.0
Co472 Co 0.7341 0.9091 0.93023 0.0
Co473 Co 0.60423 0.86751 0.85878 0.0
O474 O 0.64475 0.90332 0.91546 0.0
C475 C 0.67031 0.82442 1.01174 0.0
O476 O 0.64081 0.79303 0.97549 0.0
C477 C 0.55481 0.99103 0.812 0.0
O478 O 0.59147 0.97581 0.77366 0.0
O479 O 0.67105 0.90106 0.81376 0.0
O480 O 0.7561 0.93912 0.85768 0.0
H481 H 0.59449 0.78808 0.68299 0.0
H482 H 0.75605 0.98443 0.02382 0.0
O483 O 0.70983 0.8721 1.00096 0.0
H484 H 0.65635 0.13658 0.90472 0.0
H485 H 0.93865 0.03443 0.95799 0.0
H486 H 0.8255 0.82675 0.98588 0.0
H487 H 0.67 0.02208 0.88284 0.0
H488 H 0.83316 0.01333 0.91775 0.0
O489 O 0.5525 0.953 0.85046 0.0
H490 H 0.64578 0.80105 0.766 0.0
H491 H 0.46689 0.87024 0.82526 0.0
H492 H 0.9379 0.84005 1.01556 0.0
H493 H 0.75095 0.10134 0.04548 0.0
H494 H -0.00453 0.94363 1.00273 0.0
H495 H 0.69787 0.1783 0.98664 0.0
O496 O 0.75491 0.82041 0.90649 0.0
H497 H 0.45578 0.88596 1.00869 0.0
H498 H 0.50818 0.75539 0.85994 0.0
H499 H 0.41851 0.72102 0.91496 0.0
H500 H 0.39154 0.78691 0.98986 0.0
H501 H 0.54259 0.91982 0.9518 0.0
H502 H 0.41225 0.84981 0.74556 0.0
H503 H 0.47715 0.81592 0.6722 0.0
O504 O 0.66517 0.78401 0.86619 0.0
C505 C 0.7257 0.92871 0.81566 0.0
C506 C 0.56648 0.80667 0.71407 0.0
C507 C 0.46398 0.84113 0.74905 0.0
N508 N 0.55939 0.83493 0.80054 0.0
C509 C 0.59473 0.81183 0.76129 0.0
C510 C 0.49475 0.84967 0.79476 0.0
C511 C 0.50081 0.82256 0.70797 0.0
C512 C 0.73509 0.01822 0.99777 0.0
N513 N 0.71565 -0.00289 0.95172 0.0
C514 C 0.73109 0.08404 1.0104 0.0
C515 C 0.70195 0.12728 0.97709 0.0
C516 C 0.6788 0.10434 0.93127 0.0
C517 C 0.68657 0.03896 0.91897 0.0
C518 C 0.91637 0.98709 0.96145 0.0
C519 C 0.85164 0.87115 0.97771 0.0
C520 C 0.8559 0.97539 0.93973 0.0
N521 N 0.82362 0.91868 0.94943 0.0
C522 C 0.91478 0.87872 0.99542 0.0
C523 C 0.94693 0.93743 0.98809 0.0
C524 C 0.72638 0.77705 0.8808 0.0
C525 C 0.46829 0.85578 0.97684 0.0
C526 C 0.50005 0.78162 0.89405 0.0
C527 C 0.44787 0.76297 0.92454 0.0
C528 C 0.4325 0.8 0.96649 0.0
N529 N 0.53589 0.83592 0.90439 0.0
C530 C 0.51874 0.87391 0.94466 0.0
Co531 Co 0.58 0.73405 0.43024 0.0
Co532 Co 0.62155 0.60417 0.35884 0.0
O533 O 0.58571 0.64472 0.41549 0.0
C534 C 0.66468 0.67025 0.51175 0.0
O535 O 0.69606 0.64074 0.47551 0.0
C536 C 0.49801 0.55475 0.31204 0.0
O537 O 0.51321 0.59143 0.27371 0.0
O538 O 0.58804 0.67097 0.31378 0.0
O539 O 0.55 0.75603 0.35768 0.0
H540 H 0.70099 0.5943 0.18305 0.0
H541 H 0.50477 0.75571 0.52393 0.0
O542 O 0.617 0.70978 0.50097 0.0
H543 H 0.35222 0.65711 0.40458 0.0
H544 H 0.45469 0.93856 0.45801 0.0
H545 H 0.66242 0.82542 0.48586 0.0
H546 H 0.46681 0.67035 0.38276 0.0
H547 H 0.47576 0.83309 0.41779 0.0
O548 O 0.53604 0.55246 0.3505 0.0
H549 H 0.68807 0.64564 0.26605 0.0
H550 H 0.61883 0.46684 0.32539 0.0
H551 H 0.64916 0.9378 0.51551 0.0
H552 H 0.38784 0.75081 0.54562 0.0
H553 H 0.54555 -0.00464 0.5027 0.0
H554 H 0.31066 0.6983 0.48664 0.0
O555 O 0.66872 0.7548 0.40651 0.0
H556 H 0.60292 0.45582 0.50876 0.0
H557 H 0.73369 0.50814 0.36009 0.0
H558 H 0.76801 0.41852 0.41516 0.0
H559 H 0.702 0.39157 0.49001 0.0
H560 H 0.56913 0.5426 0.45184 0.0
H561 H 0.63921 0.41217 0.24571 0.0
H562 H 0.67311 0.477 0.17232 0.0
O563 O 0.70511 0.66506 0.36625 0.0
C564 C 0.5604 0.72562 0.31567 0.0
C565 C 0.68241 0.56632 0.21415 0.0
C566 C 0.64792 0.46388 0.24918 0.0
N567 N 0.65416 0.5593 0.30062 0.0
C568 C 0.67727 0.5946 0.26136 0.0
C569 C 0.63941 0.49467 0.29487 0.0
C570 C 0.66649 0.50067 0.20808 0.0
C571 C 0.47091 0.73495 0.49784 0.0
N572 N 0.49195 0.71565 0.45174 0.0
C573 C 0.40507 0.73107 0.51049 0.0
C574 C 0.3617 0.70224 0.47709 0.0
C575 C 0.38456 0.67926 0.43121 0.0
C576 C 0.44999 0.68684 0.41893 0.0
C577 C 0.50204 0.91628 0.46146 0.0
C578 C 0.61801 0.85155 0.47769 0.0
C579 C 0.51372 0.85581 0.43975 0.0
N580 N 0.57045 0.82354 0.44943 0.0
C581 C 0.61047 0.91469 0.49539 0.0
C582 C 0.55174 0.94683 0.48807 0.0
C583 C 0.71209 0.72625 0.38084 0.0
C584 C 0.63314 0.46831 0.47694 0.0
C585 C 0.70742 0.50003 0.39419 0.0
C586 C 0.72604 0.44788 0.42471 0.0
C587 C 0.68894 0.43253 0.46663 0.0
N588 N 0.6531 0.53587 0.40448 0.0
C589 C 0.61505 0.51875 0.44473 0.0
Co590 Co 0.75522 0.57992 0.93023 0.0
Co591 Co 0.88508 0.62152 0.85878 0.0
O592 O 0.84457 0.58571 0.91547 0.0
C593 C 0.819 0.6646 1.01174 0.0
O594 O 0.8485 0.69599 0.9755 0.0
C595 C 0.9345 0.498 0.81199 0.0
O596 O 0.89784 0.51323 0.77366 0.0
O597 O 0.81826 0.58797 0.81376 0.0
O598 O 0.73322 0.54989 0.85768 0.0
H599 H 0.89481 0.70094 0.68299 0.0
H600 H 0.73324 0.50456 0.0238 0.0
O601 O 0.77948 0.61692 1.00096 0.0
H602 H 0.83311 0.35248 0.90475 0.0
H603 H 0.55067 0.45456 0.95798 0.0
H604 H 0.66381 0.66225 0.98588 0.0
H605 H 0.81937 0.46696 0.88286 0.0
H606 H 0.65617 0.47567 0.91775 0.0
O607 O 0.93681 0.53602 0.85045 0.0
H608 H 0.84352 0.68798 0.766 0.0
H609 H 0.02243 0.61879 0.82526 0.0
H610 H 0.55141 0.64894 1.01556 0.0
H611 H 0.73838 0.38766 0.04546 0.0
H612 H 0.49385 0.54537 1.00272 0.0
H613 H 0.79154 0.31073 0.98665 0.0
O614 O 0.7344 0.6686 0.90649 0.0
H615 H 0.03354 0.60307 1.00869 0.0
H616 H 0.98113 0.73364 0.85994 0.0
H617 H 0.0708 0.76801 0.91496 0.0
H618 H 0.09777 0.70213 0.98987 0.0
H619 H 0.94672 0.56921 0.95181 0.0
H620 H 0.07706 0.6392 0.74556 0.0
H621 H 0.01215 0.6731 0.6722 0.0
O622 O 0.82414 0.70502 0.86619 0.0
C623 C 0.76362 0.5603 0.81566 0.0
C624 C 0.92283 0.68235 0.71407 0.0
C625 C 0.02533 0.64789 0.74905 0.0
N626 N 0.92992 0.65409 0.80054 0.0
C627 C 0.89458 0.67719 0.76129 0.0
C628 C 0.99456 0.63936 0.79476 0.0
C629 C 0.98849 0.66646 0.70797 0.0
C630 C 0.75423 0.47079 0.99776 0.0
N631 N 0.77368 0.4919 0.95172 0.0
C632 C 0.75826 0.40497 1.0104 0.0
C633 C 0.78744 0.36174 0.97709 0.0
C634 C 0.81061 0.3847 0.93129 0.0
C635 C 0.8028 0.45007 0.91899 0.0
C636 C 0.57295 0.5019 0.96144 0.0
C637 C 0.63768 0.61785 0.9777 0.0
C638 C 0.63342 0.51361 0.93973 0.0
N639 N 0.6657 0.57032 0.94942 0.0
C640 C 0.57453 0.61028 0.99541 0.0
C641 C 0.54239 0.55157 0.98808 0.0
C642 C 0.76293 0.71195 0.88079 0.0
C643 C 0.02103 0.63325 0.97685 0.0
C644 C 0.98927 0.7074 0.89405 0.0
C645 C 0.04144 0.72606 0.92455 0.0
C646 C 0.05681 0.68903 0.9665 0.0
N647 N 0.95343 0.65311 0.90439 0.0
C648 C 0.97057 0.61512 0.94466 0.0
Co649 Co 0.9093 0.75497 0.43025 0.0
Co650 Co 0.86774 0.88484 0.35884 0.0
O651 O 0.90359 0.8443 0.4155 0.0
C652 C 0.82462 0.81877 0.51176 0.0
O653 O 0.79323 0.84827 0.47551 0.0
C654 C 0.99129 0.93426 0.31204 0.0
O655 O 0.97609 0.89758 0.27372 0.0
O656 O 0.90126 0.81804 0.31379 0.0
O657 O 0.9393 0.73298 0.35769 0.0
H658 H 0.78831 0.89471 0.18305 0.0
H659 H 0.98453 0.73331 0.52395 0.0
O660 O 0.8723 0.77924 0.50098 0.0
H661 H 0.13708 0.83189 0.40459 0.0
H662 H 0.03461 0.55045 0.45801 0.0
H663 H 0.82688 0.66359 0.48586 0.0
H664 H 0.02248 0.81866 0.38277 0.0
H665 H 0.01355 0.65593 0.4178 0.0
O666 O 0.95326 0.93655 0.35051 0.0
H667 H 0.80123 0.84337 0.26605 0.0
H668 H 0.87047 0.02217 0.32539 0.0
H669 H 0.84015 0.55121 0.51551 0.0
H670 H 0.10147 0.7382 0.54563 0.0
H671 H 0.94375 0.49364 0.5027 0.0
H672 H 0.17865 0.7907 0.48665 0.0
O673 O 0.82058 0.73421 0.40652 0.0
H674 H 0.88638 0.03319 0.50877 0.0
H675 H 0.75561 0.98088 0.36009 0.0
H676 H 0.72128 0.07049 0.41516 0.0
H677 H 0.78729 0.09744 0.49001 0.0
H678 H 0.92017 0.94641 0.45185 0.0
H679 H 0.85008 0.07684 0.24571 0.0
H680 H 0.8162 0.01201 0.17232 0.0
O681 O 0.78419 0.82395 0.36625 0.0
C682 C 0.92889 0.76339 0.31568 0.0
C683 C 0.80689 0.92269 0.21415 0.0
C684 C 0.84138 0.02513 0.24918 0.0
N685 N 0.83514 0.92971 0.30063 0.0
C686 C 0.81203 0.89441 0.26136 0.0
C687 C 0.84989 0.99434 0.29488 0.0
C688 C 0.82281 0.98834 0.20808 0.0
C689 C 0.01839 0.75406 0.49785 0.0
N690 N -0.00265 0.77336 0.45174 0.0
C691 C 0.08424 0.75794 0.5105 0.0
C692 C 0.1276 0.78676 0.4771 0.0
C693 C 0.10474 0.80974 0.43121 0.0
C694 C 0.03931 0.80218 0.41894 0.0
C695 C 0.98726 0.57273 0.46146 0.0
C696 C 0.87129 0.63746 0.4777 0.0
C697 C 0.97558 0.6332 0.43976 0.0
N698 N 0.91886 0.66547 0.44944 0.0
C699 C 0.87884 0.57432 0.49539 0.0
C700 C 0.93757 0.54218 0.48807 0.0
C701 C 0.77722 0.76276 0.38084 0.0
C702 C 0.85615 0.0207 0.47694 0.0
C703 C 0.78187 0.98898 0.39419 0.0
C704 C 0.76326 0.04113 0.42471 0.0
C705 C 0.80035 0.05649 0.46663 0.0
N706 N 0.83619 0.95315 0.40449 0.0
C707 C 0.87424 0.97026 0.44473 0.0
Co708 Co 0.74763 0.58113 0.65071 0.0
Co709 Co 0.61046 0.60959 0.71902 0.0
O710 O 0.65582 0.5806 0.66107 0.0
C711 C 0.68518 0.65686 0.56523 0.0
O712 O 0.66068 0.69392 0.60053 0.0
C713 C 0.54834 0.47783 0.73774 0.0
O714 O 0.5861 0.46992 0.77698 0.0
O715 O 0.67082 0.56376 0.7648 0.0
O716 O 0.76648 0.56147 0.72513 0.0
H717 H 0.61004 0.68069 0.89643 0.0
H718 H 0.76795 0.50254 0.55784 0.0
O719 O 0.72454 0.60961 0.57748 0.0
H720 H 0.74232 0.34446 0.69465 0.0
H721 H 0.97263 0.49251 0.67186 0.0
H722 H 0.83865 0.66001 0.58874 0.0
H723 H 0.71059 0.45849 0.70624 0.0
H724 H 0.85457 0.49644 0.68493 0.0
O725 O 0.55336 0.52911 0.71121 0.0
H726 H 0.65087 0.67734 0.8101 0.0
H727 H 0.47607 0.584 0.76378 0.0
H728 H 0.95703 0.65434 0.57177 0.0
H729 H 0.79828 0.38805 0.5435 0.0
H730 H 0.02434 0.56999 0.61216 0.0
H731 H 0.78764 0.30843 0.61304 0.0
O732 O 0.75794 0.67328 0.6698 0.0
H733 H 0.47249 0.6162 0.56372 0.0
H734 H 0.49479 0.70092 0.73464 0.0
H735 H 0.39198 0.71305 0.69131 0.0
H736 H 0.37856 0.66923 0.6058 0.0
H737 H 0.57215 0.59895 0.60876 0.0
H738 H 0.43577 0.58595 0.85034 0.0
H739 H 0.50188 0.63333 0.9165 0.0
O740 O 0.67289 0.69419 0.72103 0.0
C741 C 0.73162 0.5562 0.76533 0.0
C742 C 0.58157 0.65778 0.86761 0.0
C743 C 0.48283 0.60583 0.84126 0.0
N744 N 0.56594 0.63201 0.78101 0.0
C745 C 0.60282 0.65887 0.81812 0.0
C746 C 0.50629 0.60554 0.79238 0.0
C747 C 0.52113 0.63109 0.87904 0.0
C748 C 0.76235 0.46834 0.58776 0.0
N749 N 0.74212 0.48885 0.63385 0.0
C750 C 0.77948 0.40335 0.57952 0.0
C751 C 0.7739 0.35877 0.61857 0.0
C752 C 0.7487 0.37903 0.66442 0.0
C753 C 0.7308 0.4441 0.67079 0.0
C754 C 0.94377 0.52906 0.65291 0.0
C755 C 0.86786 0.62262 0.60622 0.0
C756 C 0.87685 0.53201 0.66067 0.0
N757 N 0.8399 0.57855 0.63766 0.0
C758 C 0.93465 0.61986 0.59654 0.0
C759 C 0.97251 0.57204 0.61925 0.0
C760 C 0.73027 0.70985 0.7017 0.0
C761 C 0.47759 0.63578 0.60118 0.0
C762 C 0.49195 0.68193 0.69728 0.0
C763 C 0.43238 0.68933 0.67269 0.0
C764 C 0.42504 0.66539 0.62456 0.0
N765 N 0.54351 0.65024 0.6757 0.0
C766 C 0.53594 0.6279 0.62735 0.0
Co767 Co 0.9081 0.74749 0.15072 0.0
Co768 Co 0.87957 0.61032 0.21898 0.0
O769 O 0.90863 0.6557 0.16105 0.0
C770 C 0.83237 0.68509 0.06522 0.0
O771 O 0.7953 0.66059 0.10051 0.0
C772 C 0.01129 0.54809 0.23777 0.0
O773 O 0.01916 0.58579 0.27704 0.0
O774 O 0.92541 0.67064 0.26479 0.0
O775 O 0.92775 0.7663 0.22515 0.0
H776 H 0.80849 0.6099 0.39638 0.0
H777 H 0.98673 0.76792 0.05787 0.0
O778 O 0.87963 0.72444 0.07748 0.0
H779 H 0.14486 0.74216 0.19467 0.0
H780 H -0.00326 0.97243 0.17189 0.0
H781 H 0.82916 0.8385 0.0888 0.0
H782 H 0.03078 0.71046 0.20625 0.0
H783 H 0.99281 0.85441 0.18496 0.0
O784 O 0.96005 0.55321 0.21118 0.0
H785 H 0.81179 0.65071 0.31005 0.0
H786 H 0.90505 0.47591 0.2637 0.0
H787 H 0.83479 0.95685 0.07186 0.0
H788 H 0.10125 0.79822 0.04355 0.0
H789 H 0.91922 0.02413 0.1122 0.0
H790 H 0.18089 0.78753 0.11308 0.0
O791 O 0.81592 0.7578 0.16979 0.0
H792 H 0.87306 0.47247 0.06365 0.0
H793 H 0.78818 0.4947 0.23453 0.0
H794 H 0.77602 0.39197 0.19114 0.0
H795 H 0.81994 0.37857 0.10567 0.0
H796 H 0.8903 0.57208 0.10871 0.0
H797 H 0.90313 0.43564 0.35027 0.0
H798 H 0.85581 0.50175 0.41644 0.0
O799 O 0.79496 0.67275 0.22098 0.0
C800 C 0.93299 0.73142 0.26534 0.0
C801 C 0.83136 0.58142 0.36755 0.0
C802 C 0.88326 0.48269 0.34119 0.0
N803 N 0.85709 0.5658 0.28094 0.0
C804 C 0.83025 0.60267 0.31807 0.0
C805 C 0.88353 0.50614 0.29231 0.0
C806 C 0.85803 0.521 0.37898 0.0
C807 C 0.02094 0.76228 0.08779 0.0
N808 N 0.00042 0.74201 0.13387 0.0
C809 C 0.08594 0.7794 0.07956 0.0
C810 C 0.13055 0.77379 0.1186 0.0
C811 C 0.11027 0.74857 0.16444 0.0
C812 C 0.04518 0.73068 0.17081 0.0
C813 C 0.96018 0.94359 0.15294 0.0
C814 C 0.86657 0.8677 0.10627 0.0
C815 C 0.95722 0.87668 0.1607 0.0
N816 N 0.91067 0.83974 0.13769 0.0
C817 C 0.86932 0.93448 0.0966 0.0
C818 C 0.91717 0.97231 0.1193 0.0
C819 C 0.77932 0.73012 0.20167 0.0
C820 C 0.85344 0.47757 0.10109 0.0
C821 C 0.80718 0.49189 0.19716 0.0
C822 C 0.79976 0.43236 0.17254 0.0
C823 C 0.82376 0.42504 0.12443 0.0
N824 N 0.83891 0.54344 0.17562 0.0
C825 C 0.86131 0.53588 0.12728 0.0
Co826 Co 0.74167 0.90789 0.65071 0.0
Co827 Co 0.87885 0.87942 0.71902 0.0
O828 O 0.83349 0.90841 0.66107 0.0
C829 C 0.80412 0.83215 0.56523 0.0
O830 O 0.82862 0.7951 0.60054 0.0
C831 C 0.94097 0.01119 0.73774 0.0
O832 O 0.9032 0.0191 0.77697 0.0
O833 O 0.81849 0.92525 0.7648 0.0
O834 O 0.72282 0.92755 0.72513 0.0
H835 H 0.87927 0.80834 0.89643 0.0
H836 H 0.72134 0.98648 0.55784 0.0
O837 O 0.76475 0.8794 0.57748 0.0
H838 H 0.74699 0.14456 0.69465 0.0
H839 H 0.51668 -0.00349 0.67186 0.0
H840 H 0.65065 0.82901 0.58874 0.0
H841 H 0.77872 0.03053 0.70623 0.0
H842 H 0.63473 0.99258 0.68493 0.0
O843 O 0.93595 0.9599 0.71121 0.0
H844 H 0.83844 0.81167 0.8101 0.0
H845 H 0.01324 0.90502 0.76377 0.0
H846 H 0.53227 0.83468 0.57177 0.0
H847 H 0.69102 0.10097 0.5435 0.0
H848 H 0.46496 0.91903 0.61217 0.0
H849 H 0.70167 0.18058 0.61304 0.0
O850 O 0.73135 0.81574 0.66979 0.0
H851 H 0.01681 0.87282 0.56372 0.0
H852 H 0.99453 0.7881 0.73464 0.0
H853 H 0.09733 0.77597 0.69131 0.0
H854 H 0.11075 0.81979 0.6058 0.0
H855 H 0.91715 0.89006 0.60876 0.0
H856 H 0.05354 0.90307 0.85034 0.0
H857 H 0.98743 0.85569 0.9165 0.0
O858 O 0.81641 0.79482 0.72103 0.0
C859 C 0.75769 0.93282 0.76533 0.0
C860 C 0.90775 0.83124 0.86761 0.0
C861 C 0.00648 0.88319 0.84126 0.0
N862 N 0.92337 0.857 0.781 0.0
C863 C 0.88649 0.83014 0.81812 0.0
C864 C 0.98302 0.88347 0.79238 0.0
C865 C 0.96818 0.85793 0.87904 0.0
C866 C 0.72695 0.02068 0.58776 0.0
N867 N 0.74719 0.00017 0.63385 0.0
C868 C 0.70982 0.08567 0.57952 0.0
C869 C 0.7154 0.13025 0.61857 0.0
C870 C 0.74061 0.10999 0.66442 0.0
C871 C 0.75851 0.04491 0.67079 0.0
C872 C 0.54553 0.95996 0.65291 0.0
C873 C 0.62143 0.8664 0.60622 0.0
C874 C 0.61245 0.95701 0.66067 0.0
N875 N 0.6494 0.91047 0.63766 0.0
C876 C 0.55464 0.86916 0.59654 0.0
C877 C 0.51679 0.91698 0.61926 0.0
C878 C 0.75903 0.77918 0.7017 0.0
C879 C 0.01171 0.85324 0.60118 0.0
C880 C -0.00264 0.80709 0.69728 0.0
C881 C 0.05693 0.79969 0.67268 0.0
C882 C 0.06426 0.82363 0.62456 0.0
N883 N 0.94579 0.83877 0.6757 0.0
C884 C 0.95336 0.86111 0.62735 0.0
Co885 Co 0.5812 0.74152 0.15071 0.0
Co886 Co 0.60973 0.87869 0.21897 0.0
O887 O 0.58068 0.83331 0.16105 0.0
C888 C 0.65694 0.80392 0.06521 0.0
O889 O 0.69401 0.82843 0.10051 0.0
C890 C 0.47802 0.94091 0.23777 0.0
O891 O 0.47014 0.90321 0.27703 0.0
O892 O 0.5639 0.81837 0.26478 0.0
O893 O 0.56154 0.72271 0.22514 0.0
H894 H 0.68081 0.8791 0.39638 0.0
H895 H 0.50259 0.7211 0.05785 0.0
O896 O 0.60968 0.76457 0.07747 0.0
H897 H 0.34444 0.74684 0.19463 0.0
H898 H 0.49256 0.51658 0.17188 0.0
H899 H 0.66015 0.65051 0.08879 0.0
H900 H 0.45852 0.77854 0.20623 0.0
H901 H 0.49649 0.63461 0.18494 0.0
O902 O 0.52925 0.9358 0.21118 0.0
H903 H 0.67751 0.8383 0.31005 0.0
H904 H 0.58425 0.0131 0.26369 0.0
H905 H 0.65452 0.53216 0.07186 0.0
H906 H 0.38807 0.69079 0.04351 0.0
H907 H 0.57009 0.46488 0.1122 0.0
H908 H 0.30842 0.70148 0.11303 0.0
O909 O 0.67338 0.7312 0.16978 0.0
H910 H 0.61625 0.01654 0.06364 0.0
H911 H 0.70112 0.99432 0.23452 0.0
H912 H 0.71329 0.09705 0.19114 0.0
H913 H 0.66937 0.11044 0.10566 0.0
H914 H 0.599 0.91693 0.10871 0.0
H915 H 0.58616 0.05337 0.35026 0.0
H916 H 0.63348 0.98725 0.41644 0.0
O917 O 0.69435 0.81627 0.22098 0.0
C918 C 0.5563 0.75759 0.26533 0.0
C919 C 0.65794 0.90759 0.36755 0.0
C920 C 0.60604 0.00632 0.34119 0.0
N921 N 0.63222 0.92322 0.28094 0.0
C922 C 0.65906 0.88634 0.31806 0.0
C923 C 0.60578 0.98287 0.29231 0.0
C924 C 0.63126 0.96801 0.37897 0.0
C925 C 0.46838 0.72674 0.08777 0.0
N926 N 0.48889 0.74701 0.13385 0.0
C927 C 0.40337 0.70962 0.07953 0.0
C928 C 0.35876 0.71522 0.11856 0.0
C929 C 0.37903 0.74044 0.1644 0.0
C930 C 0.44412 0.75833 0.17078 0.0
C931 C 0.52912 0.54542 0.15294 0.0
C932 C 0.62273 0.62131 0.10627 0.0
C933 C 0.53208 0.61233 0.16068 0.0
N934 N 0.57863 0.64927 0.13768 0.0
C935 C 0.61999 0.55453 0.0966 0.0
C936 C 0.57214 0.51669 0.11929 0.0
C937 C 0.70997 0.75889 0.20167 0.0
C938 C 0.63587 0.01144 0.10108 0.0
C939 C 0.68212 -0.00288 0.19716 0.0
C940 C 0.68954 0.05665 0.17254 0.0
C941 C 0.66554 0.06398 0.12443 0.0
N942 N 0.65039 0.94558 0.17561 0.0
C943 C 0.62799 0.95313 0.12727 0.0
loop_
_geom_bond_atom_site_label_1
_geom_bond_atom_site_label_2
_geom_bond_distance
_geom_bond_site_symmetry_2
_ccdc_geom_bond_type
Co0 O2 2.143 . S
Co0 O8 2.074 . S
Co0 O11 2.093 . S
Co0 O24 2.097 . S
Co0 N41 2.151 . S
Co0 N49 2.214 . S
Co1 O2 2.160 . S
Co1 O7 2.058 . S
Co1 O17 2.057 . S
Co1 O32 2.037 . S
Co1 N36 2.145 . S
Co1 N57 2.257 . S
O2 Co0 2.143 . S
O2 Co1 2.160 . S
C3 O4 1.278 . S
C3 O11 1.224 . S
O4 C3 1.278 . S
C5 O6 1.245 . S
C5 O17 1.232 1_565 S
O6 C5 1.245 . S
O7 Co1 2.058 . S
O7 C33 1.269 . S
O8 Co0 2.074 . S
O8 C33 1.257 . S
H9 C34 0.930 . S
H10 C40 0.930 . S
O11 Co0 2.093 . S
O11 C3 1.224 . S
H12 C44 0.929 . S
H13 C46 0.930 1_655 S
H14 C47 0.930 . S
H15 C45 0.929 1_545 S
H16 C48 0.928 . S
O17 Co1 2.057 . S
O17 C5 1.232 1_545 S
H18 C37 0.929 . S
H19 C38 0.929 . S
H20 C50 0.931 . S
H21 C42 0.929 . S
H22 C51 0.930 1_655 S
H23 C43 0.931 . S
O24 Co0 2.097 . S
O24 C52 1.214 . S
H25 C53 0.929 . S
H26 C54 0.929 . S
H27 C55 0.930 . S
H28 C56 0.929 . S
H29 C58 0.930 . S
H30 C35 0.930 . S
H31 C39 0.930 . S
O32 Co1 2.037 . S
O32 C52 1.234 . S
C33 O7 1.269 . S
C33 O8 1.257 . S
C34 H9 0.930 . S
C34 C37 1.388 . S
C34 C39 1.418 . S
C35 H30 0.930 . S
C35 C38 1.404 . S
C35 C39 1.353 . S
N36 Co1 2.145 . S
N36 C37 1.397 . S
N36 C38 1.334 . S
C37 H18 0.929 . S
C37 C34 1.388 . S
C37 N36 1.397 . S
C38 H19 0.929 . S
C38 C35 1.404 . S
C38 N36 1.334 . S
C39 H31 0.930 . S
C39 C34 1.418 . S
C39 C35 1.353 . S
C40 H10 0.930 . S
C40 N41 1.330 1_565 S
C40 C42 1.446 . S
N41 Co0 2.151 . S
N41 C40 1.330 1_545 S
N41 C45 1.418 1_545 S
C42 H21 0.929 . S
C42 C40 1.446 . S
C42 C43 1.332 . S
C43 H23 0.931 . S
C43 C42 1.332 . S
C43 C44 1.267 . S
C44 H12 0.929 . S
C44 C43 1.267 . S
C44 C45 1.251 . S
C45 H15 0.929 1_565 S
C45 N41 1.418 1_565 S
C45 C44 1.251 . S
C46 H13 0.930 1_455 S
C46 C48 1.406 . S
C46 C51 1.261 . S
C47 H14 0.930 . S
C47 N49 1.325 . S
C47 C50 1.357 . S
C48 H16 0.928 . S
C48 C46 1.406 . S
C48 N49 1.261 . S
N49 Co0 2.214 . S
N49 C47 1.325 . S
N49 C48 1.261 . S
C50 H20 0.931 . S
C50 C47 1.357 . S
C50 C51 1.312 . S
C51 H22 0.930 1_455 S
C51 C46 1.261 . S
C51 C50 1.312 . S
C52 O24 1.214 . S
C52 O32 1.234 . S
C53 H25 0.929 . S
C53 C56 1.391 . S
C53 C58 1.391 . S
C54 H26 0.929 . S
C54 C55 1.390 . S
C54 N57 1.391 . S
C55 H27 0.930 . S
C55 C54 1.390 . S
C55 C56 1.392 . S
C56 H28 0.929 . S
C56 C53 1.391 . S
C56 C55 1.392 . S
N57 Co1 2.257 . S
N57 C54 1.391 . S
N57 C58 1.388 . S
C58 H29 0.930 . S
C58 C53 1.391 . S
C58 N57 1.388 . S
Co59 O61 2.143 . S
Co59 O67 2.074 . S
Co59 O70 2.093 . S
Co59 O83 2.097 . S
Co59 N100 2.151 . S
Co59 N108 2.214 . S
Co60 O61 2.160 . S
Co60 O66 2.058 . S
Co60 O76 2.057 . S
Co60 O91 2.037 . S
Co60 N95 2.145 . S
Co60 N116 2.257 . S
O61 Co59 2.143 . S
O61 Co60 2.160 . S
C62 O63 1.278 . S
C62 O70 1.224 . S
O63 C62 1.278 . S
C64 O65 1.245 . S
C64 O76 1.232 . S
O65 C64 1.245 . S
O66 Co60 2.058 . S
O66 C92 1.269 . S
O67 Co59 2.074 . S
O67 C92 1.257 . S
H68 C93 0.930 . S
H69 C99 0.930 . S
O70 Co59 2.093 . S
O70 C62 1.224 . S
H71 C103 0.929 . S
H72 C105 0.930 1_565 S
H73 C106 0.930 . S
H74 C104 0.929 . S
H75 C107 0.928 . S
O76 Co60 2.057 . S
O76 C64 1.232 . S
H77 C96 0.929 . S
H78 C97 0.929 . S
H79 C109 0.931 . S
H80 C101 0.929 . S
H81 C110 0.930 1_565 S
H82 C102 0.931 . S
O83 Co59 2.097 . S
O83 C111 1.214 . S
H84 C112 0.929 . S
H85 C113 0.929 . S
H86 C114 0.930 . S
H87 C115 0.929 . S
H88 C117 0.930 . S
H89 C94 0.930 . S
H90 C98 0.930 . S
O91 Co60 2.037 . S
O91 C111 1.234 . S
C92 O66 1.269 . S
C92 O67 1.257 . S
C93 H68 0.930 . S
C93 C96 1.388 . S
C93 C98 1.418 . S
C94 H89 0.930 . S
C94 C97 1.404 . S
C94 C98 1.353 . S
N95 Co60 2.145 . S
N95 C96 1.397 . S
N95 C97 1.334 . S
C96 H77 0.929 . S
C96 C93 1.388 . S
C96 N95 1.397 . S
C97 H78 0.929 . S
C97 C94 1.404 . S
C97 N95 1.334 . S
C98 H90 0.930 . S
C98 C93 1.418 . S
C98 C94 1.353 . S
C99 H69 0.930 . S
C99 N100 1.330 . S
C99 C101 1.446 . S
N100 Co59 2.151 . S
N100 C99 1.330 . S
N100 C104 1.418 . S
C101 H80 0.929 . S
C101 C99 1.446 . S
C101 C102 1.332 . S
C102 H82 0.931 . S
C102 C101 1.332 . S
C102 C103 1.267 . S
C103 H71 0.929 . S
C103 C102 1.267 . S
C103 C104 1.251 . S
C104 H74 0.929 . S
C104 N100 1.418 . S
C104 C103 1.251 . S
C105 H72 0.930 1_545 S
C105 C107 1.406 . S
C105 C110 1.261 . S
C106 H73 0.930 . S
C106 N108 1.325 . S
C106 C109 1.357 . S
C107 H75 0.928 . S
C107 C105 1.406 . S
C107 N108 1.261 . S
N108 Co59 2.214 . S
N108 C106 1.325 . S
N108 C107 1.261 . S
C109 H79 0.931 . S
C109 C106 1.357 . S
C109 C110 1.312 . S
C110 H81 0.930 1_545 S
C110 C105 1.261 . S
C110 C109 1.312 . S
C111 O83 1.214 . S
C111 O91 1.234 . S
C112 H84 0.929 . S
C112 C115 1.391 . S
C112 C117 1.391 . S
C113 H85 0.929 . S
C113 C114 1.390 . S
C113 N116 1.391 . S
C114 H86 0.930 . S
C114 C113 1.390 . S
C114 C115 1.392 . S
C115 H87 0.929 . S
C115 C112 1.391 . S
C115 C114 1.392 . S
N116 Co60 2.257 . S
N116 C113 1.391 . S
N116 C117 1.388 . S
C117 H88 0.930 . S
C117 C112 1.391 . S
C117 N116 1.388 . S
Co118 O120 2.143 . S
Co118 O126 2.074 . S
Co118 O129 2.093 . S
Co118 O142 2.097 . S
Co118 N159 2.151 . S
Co118 N167 2.214 . S
Co119 O120 2.160 . S
Co119 O125 2.058 . S
Co119 O135 2.057 . S
Co119 O150 2.037 . S
Co119 N154 2.145 . S
Co119 N175 2.257 . S
O120 Co118 2.143 . S
O120 Co119 2.160 . S
C121 O122 1.278 . S
C121 O129 1.224 . S
O122 C121 1.278 . S
C123 O124 1.245 . S
C123 O135 1.232 . S
O124 C123 1.245 . S
O125 Co119 2.058 . S
O125 C151 1.269 . S
O126 Co118 2.074 . S
O126 C151 1.257 . S
H127 C152 0.930 . S
H128 C158 0.930 . S
O129 Co118 2.093 . S
O129 C121 1.224 . S
H130 C162 0.929 . S
H131 C164 0.930 . S
H132 C165 0.930 . S
H133 C163 0.929 . S
H134 C166 0.928 . S
O135 Co119 2.057 . S
O135 C123 1.232 . S
H136 C155 0.929 . S
H137 C156 0.929 1_655 S
H138 C168 0.931 . S
H139 C160 0.929 . S
H140 C169 0.930 . S
H141 C161 0.931 . S
O142 Co118 2.097 . S
O142 C170 1.214 . S
H143 C171 0.929 . S
H144 C172 0.929 . S
H145 C173 0.930 . S
H146 C174 0.929 . S
H147 C176 0.930 . S
H148 C153 0.930 . S
H149 C157 0.930 1_655 S
O150 Co119 2.037 . S
O150 C170 1.234 . S
C151 O125 1.269 . S
C151 O126 1.257 . S
C152 H127 0.930 . S
C152 C155 1.388 . S
C152 C157 1.418 . S
C153 H148 0.930 . S
C153 C156 1.404 1_655 S
C153 C157 1.353 1_655 S
N154 Co119 2.145 . S
N154 C155 1.397 . S
N154 C156 1.334 . S
C155 H136 0.929 . S
C155 C152 1.388 . S
C155 N154 1.397 . S
C156 H137 0.929 1_455 S
C156 C153 1.404 1_455 S
C156 N154 1.334 . S
C157 H149 0.930 1_455 S
C157 C152 1.418 . S
C157 C153 1.353 1_455 S
C158 H128 0.930 . S
C158 N159 1.330 . S
C158 C160 1.446 . S
N159 Co118 2.151 . S
N159 C158 1.330 . S
N159 C163 1.418 . S
C160 H139 0.929 . S
C160 C158 1.446 . S
C160 C161 1.332 . S
C161 H141 0.931 . S
C161 C160 1.332 . S
C161 C162 1.267 . S
C162 H130 0.929 . S
C162 C161 1.267 . S
C162 C163 1.251 . S
C163 H133 0.929 . S
C163 N159 1.418 . S
C163 C162 1.251 . S
C164 H131 0.930 . S
C164 C166 1.406 . S
C164 C169 1.261 . S
C165 H132 0.930 . S
C165 N167 1.325 . S
C165 C168 1.357 . S
C166 H134 0.928 . S
C166 C164 1.406 . S
C166 N167 1.261 . S
N167 Co118 2.214 . S
N167 C165 1.325 . S
N167 C166 1.261 . S
C168 H138 0.931 . S
C168 C165 1.357 . S
C168 C169 1.312 . S
C169 H140 0.930 . S
C169 C164 1.261 . S
C169 C168 1.312 . S
C170 O142 1.214 . S
C170 O150 1.234 . S
C171 H143 0.929 . S
C171 C174 1.391 . S
C171 C176 1.391 1_655 S
C172 H144 0.929 . S
C172 C173 1.390 1_455 S
C172 N175 1.391 . S
C173 H145 0.930 . S
C173 C172 1.390 1_655 S
C173 C174 1.392 . S
C174 H146 0.929 . S
C174 C171 1.391 . S
C174 C173 1.392 . S
N175 Co119 2.257 . S
N175 C172 1.391 . S
N175 C176 1.388 . S
C176 H147 0.930 . S
C176 C171 1.391 1_455 S
C176 N175 1.388 . S
Co177 O179 2.143 . S
Co177 O185 2.074 . S
Co177 O188 2.093 . S
Co177 O201 2.097 . S
Co177 N218 2.151 . S
Co177 N226 2.214 . S
Co178 O179 2.160 . S
Co178 O184 2.058 . S
Co178 O194 2.057 . S
Co178 O209 2.037 . S
Co178 N213 2.145 . S
Co178 N234 2.257 . S
O179 Co177 2.143 . S
O179 Co178 2.160 . S
C180 O181 1.278 . S
C180 O188 1.224 . S
O181 C180 1.278 . S
C182 O183 1.245 . S
C182 O194 1.232 1_655 S
O183 C182 1.245 . S
O184 Co178 2.058 . S
O184 C210 1.269 . S
O185 Co177 2.074 . S
O185 C210 1.257 . S
H186 C211 0.930 . S
H187 C217 0.930 . S
O188 Co177 2.093 . S
O188 C180 1.224 . S
H189 C221 0.929 . S
H190 C223 0.930 . S
H191 C224 0.930 . S
H192 C222 0.929 1_455 S
H193 C225 0.928 . S
O194 Co178 2.057 . S
O194 C182 1.232 1_455 S
H195 C214 0.929 . S
H196 C215 0.929 1_565 S
H197 C227 0.931 . S
H198 C219 0.929 . S
H199 C228 0.930 . S
H200 C220 0.931 . S
O201 Co177 2.097 . S
O201 C229 1.214 . S
H202 C230 0.929 . S
H203 C231 0.929 . S
H204 C232 0.930 . S
H205 C233 0.929 . S
H206 C235 0.930 . S
H207 C212 0.930 . S
H208 C216 0.930 1_565 S
O209 Co178 2.037 . S
O209 C229 1.234 . S
C210 O184 1.269 . S
C210 O185 1.257 . S
C211 H186 0.930 . S
C211 C214 1.388 . S
C211 C216 1.418 . S
C212 H207 0.930 . S
C212 C215 1.404 1_565 S
C212 C216 1.353 1_565 S
N213 Co178 2.145 . S
N213 C214 1.397 . S
N213 C215 1.334 . S
C214 H195 0.929 . S
C214 C211 1.388 . S
C214 N213 1.397 . S
C215 H196 0.929 1_545 S
C215 C212 1.404 1_545 S
C215 N213 1.334 . S
C216 H208 0.930 1_545 S
C216 C211 1.418 . S
C216 C212 1.353 1_545 S
C217 H187 0.930 . S
C217 N218 1.330 1_655 S
C217 C219 1.446 . S
N218 Co177 2.151 . S
N218 C217 1.330 1_455 S
N218 C222 1.418 1_455 S
C219 H198 0.929 . S
C219 C217 1.446 . S
C219 C220 1.332 . S
C220 H200 0.931 . S
C220 C219 1.332 . S
C220 C221 1.267 . S
C221 H189 0.929 . S
C221 C220 1.267 . S
C221 C222 1.251 . S
C222 H192 0.929 1_655 S
C222 N218 1.418 1_655 S
C222 C221 1.251 . S
C223 H190 0.930 . S
C223 C225 1.406 . S
C223 C228 1.261 . S
C224 H191 0.930 . S
C224 N226 1.325 . S
C224 C227 1.357 . S
C225 H193 0.928 . S
C225 C223 1.406 . S
C225 N226 1.261 . S
N226 Co177 2.214 . S
N226 C224 1.325 . S
N226 C225 1.261 . S
C227 H197 0.931 . S
C227 C224 1.357 . S
C227 C228 1.312 . S
C228 H199 0.930 . S
C228 C223 1.261 . S
C228 C227 1.312 . S
C229 O201 1.214 . S
C229 O209 1.234 . S
C230 H202 0.929 . S
C230 C233 1.391 . S
C230 C235 1.391 1_565 S
C231 H203 0.929 . S
C231 C232 1.390 1_545 S
C231 N234 1.391 . S
C232 H204 0.930 . S
C232 C231 1.390 1_565 S
C232 C233 1.392 . S
C233 H205 0.929 . S
C233 C230 1.391 . S
C233 C232 1.392 . S
N234 Co178 2.257 . S
N234 C231 1.391 . S
N234 C235 1.388 . S
C235 H206 0.930 . S
C235 C230 1.391 1_545 S
C235 N234 1.388 . S
Co236 O238 2.143 . S
Co236 O244 2.074 . S
Co236 O247 2.093 . S
Co236 O260 2.097 . S
Co236 N277 2.151 . S
Co236 N285 2.214 . S
Co237 O238 2.160 . S
Co237 O243 2.058 . S
Co237 O253 2.057 . S
Co237 O268 2.037 . S
Co237 N272 2.145 . S
Co237 N293 2.257 . S
O238 Co236 2.143 . S
O238 Co237 2.160 . S
C239 O240 1.278 . S
C239 O247 1.224 . S
O240 C239 1.278 . S
C241 O242 1.245 . S
C241 O253 1.232 . S
O242 C241 1.245 . S
O243 Co237 2.058 . S
O243 C269 1.269 . S
O244 Co236 2.074 . S
O244 C269 1.257 . S
H245 C270 0.930 . S
H246 C276 0.930 . S
O247 Co236 2.093 . S
O247 C239 1.224 . S
H248 C280 0.929 . S
H249 C282 0.930 1_655 S
H250 C283 0.930 . S
H251 C281 0.929 . S
H252 C284 0.928 . S
O253 Co237 2.057 . S
O253 C241 1.232 . S
H254 C273 0.929 . S
H255 C274 0.929 . S
H256 C286 0.931 . S
H257 C278 0.929 . S
H258 C287 0.930 1_655 S
H259 C279 0.931 . S
O260 Co236 2.097 . S
O260 C288 1.214 . S
H261 C289 0.929 . S
H262 C290 0.929 . S
H263 C291 0.930 . S
H264 C292 0.929 . S
H265 C294 0.930 . S
H266 C271 0.930 . S
H267 C275 0.930 . S
O268 Co237 2.037 . S
O268 C288 1.234 . S
C269 O243 1.269 . S
C269 O244 1.257 . S
C270 H245 0.930 . S
C270 C273 1.388 . S
C270 C275 1.418 . S
C271 H266 0.930 . S
C271 C274 1.404 . S
C271 C275 1.353 . S
N272 Co237 2.145 . S
N272 C273 1.397 . S
N272 C274 1.334 . S
C273 H254 0.929 . S
C273 C270 1.388 . S
C273 N272 1.397 . S
C274 H255 0.929 . S
C274 C271 1.404 . S
C274 N272 1.334 . S
C275 H267 0.930 . S
C275 C270 1.418 . S
C275 C271 1.353 . S
C276 H246 0.930 . S
C276 N277 1.330 . S
C276 C278 1.446 . S
N277 Co236 2.151 . S
N277 C276 1.330 . S
N277 C281 1.418 . S
C278 H257 0.929 . S
C278 C276 1.446 . S
C278 C279 1.332 . S
C279 H259 0.931 . S
C279 C278 1.332 . S
C279 C280 1.267 . S
C280 H248 0.929 . S
C280 C279 1.267 . S
C280 C281 1.251 . S
C281 H251 0.929 . S
C281 N277 1.418 . S
C281 C280 1.251 . S
C282 H249 0.930 1_455 S
C282 C284 1.406 . S
C282 C287 1.261 . S
C283 H250 0.930 . S
C283 N285 1.325 . S
C283 C286 1.357 . S
C284 H252 0.928 . S
C284 C282 1.406 . S
C284 N285 1.261 . S
N285 Co236 2.214 . S
N285 C283 1.325 . S
N285 C284 1.261 . S
C286 H256 0.931 . S
C286 C283 1.357 . S
C286 C287 1.312 . S
C287 H258 0.930 1_455 S
C287 C282 1.261 . S
C287 C286 1.312 . S
C288 O260 1.214 . S
C288 O268 1.234 . S
C289 H261 0.929 . S
C289 C292 1.391 . S
C289 C294 1.391 . S
C290 H262 0.929 . S
C290 C291 1.390 . S
C290 N293 1.391 . S
C291 H263 0.930 . S
C291 C290 1.390 . S
C291 C292 1.392 . S
C292 H264 0.929 . S
C292 C289 1.391 . S
C292 C291 1.392 . S
N293 Co237 2.257 . S
N293 C290 1.391 . S
N293 C294 1.388 . S
C294 H265 0.930 . S
C294 C289 1.391 . S
C294 N293 1.388 . S
Co295 O297 2.143 . S
Co295 O303 2.074 . S
Co295 O306 2.093 . S
Co295 O319 2.097 . S
Co295 N336 2.151 . S
Co295 N344 2.214 . S
Co296 O297 2.160 . S
Co296 O302 2.058 . S
Co296 O312 2.057 . S
Co296 O327 2.037 . S
Co296 N331 2.145 . S
Co296 N352 2.257 . S
O297 Co295 2.143 . S
O297 Co296 2.160 . S
C298 O299 1.278 . S
C298 O306 1.224 . S
O299 C298 1.278 . S
C300 O301 1.245 . S
C300 O312 1.232 1_655 S
O301 C300 1.245 . S
O302 Co296 2.058 . S
O302 C328 1.269 . S
O303 Co295 2.074 . S
O303 C328 1.257 . S
H304 C329 0.930 . S
H305 C335 0.930 . S
O306 Co295 2.093 . S
O306 C298 1.224 . S
H307 C339 0.929 . S
H308 C341 0.930 1_565 S
H309 C342 0.930 . S
H310 C340 0.929 1_455 S
H311 C343 0.928 . S
O312 Co296 2.057 . S
O312 C300 1.232 1_455 S
H313 C332 0.929 . S
H314 C333 0.929 . S
H315 C345 0.931 . S
H316 C337 0.929 . S
H317 C346 0.930 1_565 S
H318 C338 0.931 . S
O319 Co295 2.097 . S
O319 C347 1.214 . S
H320 C348 0.929 . S
H321 C349 0.929 . S
H322 C350 0.930 . S
H323 C351 0.929 . S
H324 C353 0.930 . S
H325 C330 0.930 . S
H326 C334 0.930 . S
O327 Co296 2.037 . S
O327 C347 1.234 . S
C328 O302 1.269 . S
C328 O303 1.257 . S
C329 H304 0.930 . S
C329 C332 1.388 . S
C329 C334 1.418 . S
C330 H325 0.930 . S
C330 C333 1.404 . S
C330 C334 1.353 . S
N331 Co296 2.145 . S
N331 C332 1.397 . S
N331 C333 1.334 . S
C332 H313 0.929 . S
C332 C329 1.388 . S
C332 N331 1.397 . S
C333 H314 0.929 . S
C333 C330 1.404 . S
C333 N331 1.334 . S
C334 H326 0.930 . S
C334 C329 1.418 . S
C334 C330 1.353 . S
C335 H305 0.930 . S
C335 N336 1.330 1_655 S
C335 C337 1.446 . S
N336 Co295 2.151 . S
N336 C335 1.330 1_455 S
N336 C340 1.418 1_455 S
C337 H316 0.929 . S
C337 C335 1.446 . S
C337 C338 1.332 . S
C338 H318 0.931 . S
C338 C337 1.332 . S
C338 C339 1.267 . S
C339 H307 0.929 . S
C339 C338 1.267 . S
C339 C340 1.251 . S
C340 H310 0.929 1_655 S
C340 N336 1.418 1_655 S
C340 C339 1.251 . S
C341 H308 0.930 1_545 S
C341 C343 1.406 . S
C341 C346 1.261 . S
C342 H309 0.930 . S
C342 N344 1.325 . S
C342 C345 1.357 . S
C343 H311 0.928 . S
C343 C341 1.406 . S
C343 N344 1.261 . S
N344 Co295 2.214 . S
N344 C342 1.325 . S
N344 C343 1.261 . S
C345 H315 0.931 . S
C345 C342 1.357 . S
C345 C346 1.312 . S
C346 H317 0.930 1_545 S
C346 C341 1.261 . S
C346 C345 1.312 . S
C347 O319 1.214 . S
C347 O327 1.234 . S
C348 H320 0.929 . S
C348 C351 1.391 . S
C348 C353 1.391 . S
C349 H321 0.929 . S
C349 C350 1.390 . S
C349 N352 1.391 . S
C350 H322 0.930 . S
C350 C349 1.390 . S
C350 C351 1.392 . S
C351 H323 0.929 . S
C351 C348 1.391 . S
C351 C350 1.392 . S
N352 Co296 2.257 . S
N352 C349 1.391 . S
N352 C353 1.388 . S
C353 H324 0.930 . S
C353 C348 1.391 . S
C353 N352 1.388 . S
Co354 O356 2.143 . S
Co354 O362 2.074 . S
Co354 O365 2.093 . S
Co354 O378 2.097 . S
Co354 N395 2.151 . S
Co354 N403 2.214 . S
Co355 O356 2.160 . S
Co355 O361 2.058 . S
Co355 O371 2.057 . S
Co355 O386 2.037 . S
Co355 N390 2.145 . S
Co355 N411 2.257 . S
O356 Co354 2.143 . S
O356 Co355 2.160 . S
C357 O358 1.278 . S
C357 O365 1.224 . S
O358 C357 1.278 . S
C359 O360 1.245 . S
C359 O371 1.232 1_565 S
O360 C359 1.245 . S
O361 Co355 2.058 . S
O361 C387 1.269 . S
O362 Co354 2.074 . S
O362 C387 1.257 . S
H363 C388 0.930 . S
H364 C394 0.930 . S
O365 Co354 2.093 . S
O365 C357 1.224 . S
H366 C398 0.929 . S
H367 C400 0.930 . S
H368 C401 0.930 . S
H369 C399 0.929 1_545 S
H370 C402 0.928 . S
O371 Co355 2.057 . S
O371 C359 1.232 1_545 S
H372 C391 0.929 . S
H373 C392 0.929 1_655 S
H374 C404 0.931 . S
H375 C396 0.929 . S
H376 C405 0.930 . S
H377 C397 0.931 . S
O378 Co354 2.097 . S
O378 C406 1.214 . S
H379 C407 0.929 . S
H380 C408 0.929 . S
H381 C409 0.930 . S
H382 C410 0.929 . S
H383 C412 0.930 . S
H384 C389 0.930 . S
H385 C393 0.930 1_655 S
O386 Co355 2.037 . S
O386 C406 1.234 . S
C387 O361 1.269 . S
C387 O362 1.257 . S
C388 H363 0.930 . S
C388 C391 1.388 . S
C388 C393 1.418 . S
C389 H384 0.930 . S
C389 C392 1.404 1_655 S
C389 C393 1.353 1_655 S
N390 Co355 2.145 . S
N390 C391 1.397 . S
N390 C392 1.334 . S
C391 H372 0.929 . S
C391 C388 1.388 . S
C391 N390 1.397 . S
C392 H373 0.929 1_455 S
C392 C389 1.404 1_455 S
C392 N390 1.334 . S
C393 H385 0.930 1_455 S
C393 C388 1.418 . S
C393 C389 1.353 1_455 S
C394 H364 0.930 . S
C394 N395 1.330 1_565 S
C394 C396 1.446 . S
N395 Co354 2.151 . S
N395 C394 1.330 1_545 S
N395 C399 1.418 1_545 S
C396 H375 0.929 . S
C396 C394 1.446 . S
C396 C397 1.332 . S
C397 H377 0.931 . S
C397 C396 1.332 . S
C397 C398 1.267 . S
C398 H366 0.929 . S
C398 C397 1.267 . S
C398 C399 1.251 . S
C399 H369 0.929 1_565 S
C399 N395 1.418 1_565 S
C399 C398 1.251 . S
C400 H367 0.930 . S
C400 C402 1.406 . S
C400 C405 1.261 . S
C401 H368 0.930 . S
C401 N403 1.325 . S
C401 C404 1.357 . S
C402 H370 0.928 . S
C402 C400 1.406 . S
C402 N403 1.261 . S
N403 Co354 2.214 . S
N403 C401 1.325 . S
N403 C402 1.261 . S
C404 H374 0.931 . S
C404 C401 1.357 . S
C404 C405 1.312 . S
C405 H376 0.930 . S
C405 C400 1.261 . S
C405 C404 1.312 . S
C406 O378 1.214 . S
C406 O386 1.234 . S
C407 H379 0.929 . S
C407 C410 1.391 . S
C407 C412 1.391 1_655 S
C408 H380 0.929 . S
C408 C409 1.390 1_455 S
C408 N411 1.391 . S
C409 H381 0.930 . S
C409 C408 1.390 1_655 S
C409 C410 1.392 . S
C410 H382 0.929 . S
C410 C407 1.391 . S
C410 C409 1.392 . S
N411 Co355 2.257 . S
N411 C408 1.391 . S
N411 C412 1.388 . S
C412 H383 0.930 . S
C412 C407 1.391 1_455 S
C412 N411 1.388 . S
Co413 O415 2.143 . S
Co413 O421 2.074 . S
Co413 O424 2.093 . S
Co413 O437 2.097 . S
Co413 N454 2.151 . S
Co413 N462 2.214 . S
Co414 O415 2.160 . S
Co414 O420 2.058 . S
Co414 O430 2.057 . S
Co414 O445 2.037 . S
Co414 N449 2.145 . S
Co414 N470 2.257 . S
O415 Co413 2.143 . S
O415 Co414 2.160 . S
C416 O417 1.278 . S
C416 O424 1.224 . S
O417 C416 1.278 . S
C418 O419 1.245 . S
C418 O430 1.232 . S
O419 C418 1.245 . S
O420 Co414 2.058 . S
O420 C446 1.269 . S
O421 Co413 2.074 . S
O421 C446 1.257 . S
H422 C447 0.930 . S
H423 C453 0.930 . S
O424 Co413 2.093 . S
O424 C416 1.224 . S
H425 C457 0.929 . S
H426 C459 0.930 . S
H427 C460 0.930 . S
H428 C458 0.929 . S
H429 C461 0.928 . S
O430 Co414 2.057 . S
O430 C418 1.232 . S
H431 C450 0.929 . S
H432 C451 0.929 1_565 S
H433 C463 0.931 . S
H434 C455 0.929 . S
H435 C464 0.930 . S
H436 C456 0.931 . S
O437 Co413 2.097 . S
O437 C465 1.214 . S
H438 C466 0.929 . S
H439 C467 0.929 . S
H440 C468 0.930 . S
H441 C469 0.929 . S
H442 C471 0.930 . S
H443 C448 0.930 . S
H444 C452 0.930 1_565 S
O445 Co414 2.037 . S
O445 C465 1.234 . S
C446 O420 1.269 . S
C446 O421 1.257 . S
C447 H422 0.930 . S
C447 C450 1.388 . S
C447 C452 1.418 . S
C448 H443 0.930 . S
C448 C451 1.404 1_565 S
C448 C452 1.353 1_565 S
N449 Co414 2.145 . S
N449 C450 1.397 . S
N449 C451 1.334 . S
C450 H431 0.929 . S
C450 C447 1.388 . S
C450 N449 1.397 . S
C451 H432 0.929 1_545 S
C451 C448 1.404 1_545 S
C451 N449 1.334 . S
C452 H444 0.930 1_545 S
C452 C447 1.418 . S
C452 C448 1.353 1_545 S
C453 H423 0.930 . S
C453 N454 1.330 . S
C453 C455 1.446 . S
N454 Co413 2.151 . S
N454 C453 1.330 . S
N454 C458 1.418 . S
C455 H434 0.929 . S
C455 C453 1.446 . S
C455 C456 1.332 . S
C456 H436 0.931 . S
C456 C455 1.332 . S
C456 C457 1.267 . S
C457 H425 0.929 . S
C457 C456 1.267 . S
C457 C458 1.251 . S
C458 H428 0.929 . S
C458 N454 1.418 . S
C458 C457 1.251 . S
C459 H426 0.930 . S
C459 C461 1.406 . S
C459 C464 1.261 . S
C460 H427 0.930 . S
C460 N462 1.325 . S
C460 C463 1.357 . S
C461 H429 0.928 . S
C461 C459 1.406 . S
C461 N462 1.261 . S
N462 Co413 2.214 . S
N462 C460 1.325 . S
N462 C461 1.261 . S
C463 H433 0.931 . S
C463 C460 1.357 . S
C463 C464 1.312 . S
C464 H435 0.930 . S
C464 C459 1.261 . S
C464 C463 1.312 . S
C465 O437 1.214 . S
C465 O445 1.234 . S
C466 H438 0.929 . S
C466 C469 1.391 . S
C466 C471 1.391 1_565 S
C467 H439 0.929 . S
C467 C468 1.390 1_545 S
C467 N470 1.391 . S
C468 H440 0.930 . S
C468 C467 1.390 1_565 S
C468 C469 1.392 . S
C469 H441 0.929 . S
C469 C466 1.391 . S
C469 C468 1.392 . S
N470 Co414 2.257 . S
N470 C467 1.391 . S
N470 C471 1.388 . S
C471 H442 0.930 . S
C471 C466 1.391 1_545 S
C471 N470 1.388 . S
Co472 O474 2.143 . S
Co472 O480 2.074 . S
Co472 O483 2.093 . S
Co472 O496 2.097 . S
Co472 N513 2.151 . S
Co472 N521 2.214 . S
Co473 O474 2.160 . S
Co473 O479 2.058 . S
Co473 O489 2.057 . S
Co473 O504 2.037 . S
Co473 N508 2.145 . S
Co473 N529 2.257 . S
O474 Co472 2.143 . S
O474 Co473 2.160 . S
C475 O476 1.278 . S
C475 O483 1.224 . S
O476 C475 1.278 . S
C477 O478 1.245 . S
C477 O489 1.232 1_545 S
O478 C477 1.245 . S
O479 Co473 2.058 . S
O479 C505 1.269 . S
O480 Co472 2.074 . S
O480 C505 1.257 . S
H481 C506 0.930 . S
H482 C512 0.930 . S
O483 Co472 2.093 . S
O483 C475 1.224 . S
H484 C516 0.929 . S
H485 C518 0.930 1_455 S
H486 C519 0.930 . S
H487 C517 0.929 1_565 S
H488 C520 0.928 . S
O489 Co473 2.057 . S
O489 C477 1.232 1_565 S
H490 C509 0.929 . S
H491 C510 0.929 . S
H492 C522 0.931 . S
H493 C514 0.929 . S
H494 C523 0.930 1_455 S
H495 C515 0.931 . S
O496 Co472 2.097 . S
O496 C524 1.214 . S
H497 C525 0.929 . S
H498 C526 0.929 . S
H499 C527 0.930 . S
H500 C528 0.929 . S
H501 C530 0.930 . S
H502 C507 0.930 . S
H503 C511 0.930 . S
O504 Co473 2.037 . S
O504 C524 1.234 . S
C505 O479 1.269 . S
C505 O480 1.257 . S
C506 H481 0.930 . S
C506 C509 1.388 . S
C506 C511 1.418 . S
C507 H502 0.930 . S
C507 C510 1.404 . S
C507 C511 1.353 . S
N508 Co473 2.145 . S
N508 C509 1.397 . S
N508 C510 1.334 . S
C509 H490 0.929 . S
C509 C506 1.388 . S
C509 N508 1.397 . S
C510 H491 0.929 . S
C510 C507 1.404 . S
C510 N508 1.334 . S
C511 H503 0.930 . S
C511 C506 1.418 . S
C511 C507 1.353 . S
C512 H482 0.930 . S
C512 N513 1.330 1_545 S
C512 C514 1.446 . S
N513 Co472 2.151 . S
N513 C512 1.330 1_565 S
N513 C517 1.418 1_565 S
C514 H493 0.929 . S
C514 C512 1.446 . S
C514 C515 1.332 . S
C515 H495 0.931 . S
C515 C514 1.332 . S
C515 C516 1.267 . S
C516 H484 0.929 . S
C516 C515 1.267 . S
C516 C517 1.251 . S
C517 H487 0.929 1_545 S
C517 N513 1.418 1_545 S
C517 C516 1.251 . S
C518 H485 0.930 1_655 S
C518 C520 1.406 . S
C518 C523 1.261 . S
C519 H486 0.930 . S
C519 N521 1.325 . S
C519 C522 1.357 . S
C520 H488 0.928 . S
C520 C518 1.406 . S
C520 N521 1.261 . S
N521 Co472 2.214 . S
N521 C519 1.325 . S
N521 C520 1.261 . S
C522 H492 0.931 . S
C522 C519 1.357 . S
C522 C523 1.312 . S
C523 H494 0.930 1_655 S
C523 C518 1.261 . S
C523 C522 1.312 . S
C524 O496 1.214 . S
C524 O504 1.234 . S
C525 H497 0.929 . S
C525 C528 1.391 . S
C525 C530 1.391 . S
C526 H498 0.929 . S
C526 C527 1.390 . S
C526 N529 1.391 . S
C527 H499 0.930 . S
C527 C526 1.390 . S
C527 C528 1.392 . S
C528 H500 0.929 . S
C528 C525 1.391 . S
C528 C527 1.392 . S
N529 Co473 2.257 . S
N529 C526 1.391 . S
N529 C530 1.388 . S
C530 H501 0.930 . S
C530 C525 1.391 . S
C530 N529 1.388 . S
Co531 O533 2.143 . S
Co531 O539 2.074 . S
Co531 O542 2.093 . S
Co531 O555 2.097 . S
Co531 N572 2.151 . S
Co531 N580 2.214 . S
Co532 O533 2.160 . S
Co532 O538 2.058 . S
Co532 O548 2.057 . S
Co532 O563 2.037 . S
Co532 N567 2.145 . S
Co532 N588 2.257 . S
O533 Co531 2.143 . S
O533 Co532 2.160 . S
C534 O535 1.278 . S
C534 O542 1.224 . S
O535 C534 1.278 . S
C536 O537 1.245 . S
C536 O548 1.232 . S
O537 C536 1.245 . S
O538 Co532 2.058 . S
O538 C564 1.269 . S
O539 Co531 2.074 . S
O539 C564 1.257 . S
H540 C565 0.930 . S
H541 C571 0.930 . S
O542 Co531 2.093 . S
O542 C534 1.224 . S
H543 C575 0.929 . S
H544 C577 0.930 1_545 S
H545 C578 0.930 . S
H546 C576 0.929 . S
H547 C579 0.928 . S
O548 Co532 2.057 . S
O548 C536 1.232 . S
H549 C568 0.929 . S
H550 C569 0.929 . S
H551 C581 0.931 . S
H552 C573 0.929 . S
H553 C582 0.930 1_545 S
H554 C574 0.931 . S
O555 Co531 2.097 . S
O555 C583 1.214 . S
H556 C584 0.929 . S
H557 C585 0.929 . S
H558 C586 0.930 . S
H559 C587 0.929 . S
H560 C589 0.930 . S
H561 C566 0.930 . S
H562 C570 0.930 . S
O563 Co532 2.037 . S
O563 C583 1.234 . S
C564 O538 1.269 . S
C564 O539 1.257 . S
C565 H540 0.930 . S
C565 C568 1.388 . S
C565 C570 1.418 . S
C566 H561 0.930 . S
C566 C569 1.404 . S
C566 C570 1.353 . S
N567 Co532 2.145 . S
N567 C568 1.397 . S
N567 C569 1.334 . S
C568 H549 0.929 . S
C568 C565 1.388 . S
C568 N567 1.397 . S
C569 H550 0.929 . S
C569 C566 1.404 . S
C569 N567 1.334 . S
C570 H562 0.930 . S
C570 C565 1.418 . S
C570 C566 1.353 . S
C571 H541 0.930 . S
C571 N572 1.330 . S
C571 C573 1.446 . S
N572 Co531 2.151 . S
N572 C571 1.330 . S
N572 C576 1.418 . S
C573 H552 0.929 . S
C573 C571 1.446 . S
C573 C574 1.332 . S
C574 H554 0.931 . S
C574 C573 1.332 . S
C574 C575 1.267 . S
C575 H543 0.929 . S
C575 C574 1.267 . S
C575 C576 1.251 . S
C576 H546 0.929 . S
C576 N572 1.418 . S
C576 C575 1.251 . S
C577 H544 0.930 1_565 S
C577 C579 1.406 . S
C577 C582 1.261 . S
C578 H545 0.930 . S
C578 N580 1.325 . S
C578 C581 1.357 . S
C579 H547 0.928 . S
C579 C577 1.406 . S
C579 N580 1.261 . S
N580 Co531 2.214 . S
N580 C578 1.325 . S
N580 C579 1.261 . S
C581 H551 0.931 . S
C581 C578 1.357 . S
C581 C582 1.312 . S
C582 H553 0.930 1_565 S
C582 C577 1.261 . S
C582 C581 1.312 . S
C583 O555 1.214 . S
C583 O563 1.234 . S
C584 H556 0.929 . S
C584 C587 1.391 . S
C584 C589 1.391 . S
C585 H557 0.929 . S
C585 C586 1.390 . S
C585 N588 1.391 . S
C586 H558 0.930 . S
C586 C585 1.390 . S
C586 C587 1.392 . S
C587 H559 0.929 . S
C587 C584 1.391 . S
C587 C586 1.392 . S
N588 Co532 2.257 . S
N588 C585 1.391 . S
N588 C589 1.388 . S
C589 H560 0.930 . S
C589 C584 1.391 . S
C589 N588 1.388 . S
Co590 O592 2.143 . S
Co590 O598 2.074 . S
Co590 O601 2.093 . S
Co590 O614 2.097 . S
Co590 N631 2.151 . S
Co590 N639 2.214 . S
Co591 O592 2.160 . S
Co591 O597 2.058 . S
Co591 O607 2.057 . S
Co591 O622 2.037 . S
Co591 N626 2.145 . S
Co591 N647 2.257 . S
O592 Co590 2.143 . S
O592 Co591 2.160 . S
C593 O594 1.278 . S
C593 O601 1.224 . S
O594 C593 1.278 . S
C595 O596 1.245 . S
C595 O607 1.232 . S
O596 C595 1.245 . S
O597 Co591 2.058 . S
O597 C623 1.269 . S
O598 Co590 2.074 . S
O598 C623 1.257 . S
H599 C624 0.930 . S
H600 C630 0.930 . S
O601 Co590 2.093 . S
O601 C593 1.224 . S
H602 C634 0.929 . S
H603 C636 0.930 . S
H604 C637 0.930 . S
H605 C635 0.929 . S
H606 C638 0.928 . S
O607 Co591 2.057 . S
O607 C595 1.232 . S
H608 C627 0.929 . S
H609 C628 0.929 1_455 S
H610 C640 0.931 . S
H611 C632 0.929 . S
H612 C641 0.930 . S
H613 C633 0.931 . S
O614 Co590 2.097 . S
O614 C642 1.214 . S
H615 C643 0.929 . S
H616 C644 0.929 . S
H617 C645 0.930 . S
H618 C646 0.929 . S
H619 C648 0.930 . S
H620 C625 0.930 . S
H621 C629 0.930 1_455 S
O622 Co591 2.037 . S
O622 C642 1.234 . S
C623 O597 1.269 . S
C623 O598 1.257 . S
C624 H599 0.930 . S
C624 C627 1.388 . S
C624 C629 1.418 . S
C625 H620 0.930 . S
C625 C628 1.404 1_455 S
C625 C629 1.353 1_455 S
N626 Co591 2.145 . S
N626 C627 1.397 . S
N626 C628 1.334 . S
C627 H608 0.929 . S
C627 C624 1.388 . S
C627 N626 1.397 . S
C628 H609 0.929 1_655 S
C628 C625 1.404 1_655 S
C628 N626 1.334 . S
C629 H621 0.930 1_655 S
C629 C624 1.418 . S
C629 C625 1.353 1_655 S
C630 H600 0.930 . S
C630 N631 1.330 . S
C630 C632 1.446 . S
N631 Co590 2.151 . S
N631 C630 1.330 . S
N631 C635 1.418 . S
C632 H611 0.929 . S
C632 C630 1.446 . S
C632 C633 1.332 . S
C633 H613 0.931 . S
C633 C632 1.332 . S
C633 C634 1.267 . S
C634 H602 0.929 . S
C634 C633 1.267 . S
C634 C635 1.251 . S
C635 H605 0.929 . S
C635 N631 1.418 . S
C635 C634 1.251 . S
C636 H603 0.930 . S
C636 C638 1.406 . S
C636 C641 1.261 . S
C637 H604 0.930 . S
C637 N639 1.325 . S
C637 C640 1.357 . S
C638 H606 0.928 . S
C638 C636 1.406 . S
C638 N639 1.261 . S
N639 Co590 2.214 . S
N639 C637 1.325 . S
N639 C638 1.261 . S
C640 H610 0.931 . S
C640 C637 1.357 . S
C640 C641 1.312 . S
C641 H612 0.930 . S
C641 C636 1.261 . S
C641 C640 1.312 . S
C642 O614 1.214 . S
C642 O622 1.234 . S
C643 H615 0.929 . S
C643 C646 1.391 . S
C643 C648 1.391 1_455 S
C644 H616 0.929 . S
C644 C645 1.390 1_655 S
C644 N647 1.391 . S
C645 H617 0.930 . S
C645 C644 1.390 1_455 S
C645 C646 1.392 . S
C646 H618 0.929 . S
C646 C643 1.391 . S
C646 C645 1.392 . S
N647 Co591 2.257 . S
N647 C644 1.391 . S
N647 C648 1.388 . S
C648 H619 0.930 . S
C648 C643 1.391 1_655 S
C648 N647 1.388 . S
Co649 O651 2.143 . S
Co649 O657 2.074 . S
Co649 O660 2.093 . S
Co649 O673 2.097 . S
Co649 N690 2.151 . S
Co649 N698 2.214 . S
Co650 O651 2.160 . S
Co650 O656 2.058 . S
Co650 O666 2.057 . S
Co650 O681 2.037 . S
Co650 N685 2.145 . S
Co650 N706 2.257 . S
O651 Co649 2.143 . S
O651 Co650 2.160 . S
C652 O653 1.278 . S
C652 O660 1.224 . S
O653 C652 1.278 . S
C654 O655 1.245 . S
C654 O666 1.232 1_455 S
O655 C654 1.245 . S
O656 Co650 2.058 . S
O656 C682 1.269 . S
O657 Co649 2.074 . S
O657 C682 1.257 . S
H658 C683 0.930 . S
H659 C689 0.930 . S
O660 Co649 2.093 . S
O660 C652 1.224 . S
H661 C693 0.929 . S
H662 C695 0.930 . S
H663 C696 0.930 . S
H664 C694 0.929 1_655 S
H665 C697 0.928 . S
O666 Co650 2.057 . S
O666 C654 1.232 1_655 S
H667 C686 0.929 . S
H668 C687 0.929 1_545 S
H669 C699 0.931 . S
H670 C691 0.929 . S
H671 C700 0.930 . S
H672 C692 0.931 . S
O673 Co649 2.097 . S
O673 C701 1.214 . S
H674 C702 0.929 . S
H675 C703 0.929 . S
H676 C704 0.930 . S
H677 C705 0.929 . S
H678 C707 0.930 . S
H679 C684 0.930 . S
H680 C688 0.930 1_545 S
O681 Co650 2.037 . S
O681 C701 1.234 . S
C682 O656 1.269 . S
C682 O657 1.257 . S
C683 H658 0.930 . S
C683 C686 1.388 . S
C683 C688 1.418 . S
C684 H679 0.930 . S
C684 C687 1.404 1_545 S
C684 C688 1.353 1_545 S
N685 Co650 2.145 . S
N685 C686 1.397 . S
N685 C687 1.334 . S
C686 H667 0.929 . S
C686 C683 1.388 . S
C686 N685 1.397 . S
C687 H668 0.929 1_565 S
C687 C684 1.404 1_565 S
C687 N685 1.334 . S
C688 H680 0.930 1_565 S
C688 C683 1.418 . S
C688 C684 1.353 1_565 S
C689 H659 0.930 . S
C689 N690 1.330 1_455 S
C689 C691 1.446 . S
N690 Co649 2.151 . S
N690 C689 1.330 1_655 S
N690 C694 1.418 1_655 S
C691 H670 0.929 . S
C691 C689 1.446 . S
C691 C692 1.332 . S
C692 H672 0.931 . S
C692 C691 1.332 . S
C692 C693 1.267 . S
C693 H661 0.929 . S
C693 C692 1.267 . S
C693 C694 1.251 . S
C694 H664 0.929 1_455 S
C694 N690 1.418 1_455 S
C694 C693 1.251 . S
C695 H662 0.930 . S
C695 C697 1.406 . S
C695 C700 1.261 . S
C696 H663 0.930 . S
C696 N698 1.325 . S
C696 C699 1.357 . S
C697 H665 0.928 . S
C697 C695 1.406 . S
C697 N698 1.261 . S
N698 Co649 2.214 . S
N698 C696 1.325 . S
N698 C697 1.261 . S
C699 H669 0.931 . S
C699 C696 1.357 . S
C699 C700 1.312 . S
C700 H671 0.930 . S
C700 C695 1.261 . S
C700 C699 1.312 . S
C701 O673 1.214 . S
C701 O681 1.234 . S
C702 H674 0.929 . S
C702 C705 1.391 . S
C702 C707 1.391 1_545 S
C703 H675 0.929 . S
C703 C704 1.390 1_565 S
C703 N706 1.391 . S
C704 H676 0.930 . S
C704 C703 1.390 1_545 S
C704 C705 1.392 . S
C705 H677 0.929 . S
C705 C702 1.391 . S
C705 C704 1.392 . S
N706 Co650 2.257 . S
N706 C703 1.391 . S
N706 C707 1.388 . S
C707 H678 0.930 . S
C707 C702 1.391 1_565 S
C707 N706 1.388 . S
Co708 O710 2.143 . S
Co708 O716 2.074 . S
Co708 O719 2.093 . S
Co708 O732 2.097 . S
Co708 N749 2.151 . S
Co708 N757 2.214 . S
Co709 O710 2.160 . S
Co709 O715 2.058 . S
Co709 O725 2.057 . S
Co709 O740 2.037 . S
Co709 N744 2.145 . S
Co709 N765 2.257 . S
O710 Co708 2.143 . S
O710 Co709 2.160 . S
C711 O712 1.278 . S
C711 O719 1.224 . S
O712 C711 1.278 . S
C713 O714 1.245 . S
C713 O725 1.232 . S
O714 C713 1.245 . S
O715 Co709 2.058 . S
O715 C741 1.269 . S
O716 Co708 2.074 . S
O716 C741 1.257 . S
H717 C742 0.930 . S
H718 C748 0.930 . S
O719 Co708 2.093 . S
O719 C711 1.224 . S
H720 C752 0.929 . S
H721 C754 0.930 1_455 S
H722 C755 0.930 . S
H723 C753 0.929 . S
H724 C756 0.928 . S
O725 Co709 2.057 . S
O725 C713 1.232 . S
H726 C745 0.929 . S
H727 C746 0.929 . S
H728 C758 0.931 . S
H729 C750 0.929 . S
H730 C759 0.930 1_455 S
H731 C751 0.931 . S
O732 Co708 2.097 . S
O732 C760 1.214 . S
H733 C761 0.929 . S
H734 C762 0.929 . S
H735 C763 0.930 . S
H736 C764 0.929 . S
H737 C766 0.930 . S
H738 C743 0.930 . S
H739 C747 0.930 . S
O740 Co709 2.037 . S
O740 C760 1.234 . S
C741 O715 1.269 . S
C741 O716 1.257 . S
C742 H717 0.930 . S
C742 C745 1.388 . S
C742 C747 1.418 . S
C743 H738 0.930 . S
C743 C746 1.404 . S
C743 C747 1.353 . S
N744 Co709 2.145 . S
N744 C745 1.397 . S
N744 C746 1.334 . S
C745 H726 0.929 . S
C745 C742 1.388 . S
C745 N744 1.397 . S
C746 H727 0.929 . S
C746 C743 1.404 . S
C746 N744 1.334 . S
C747 H739 0.930 . S
C747 C742 1.418 . S
C747 C743 1.353 . S
C748 H718 0.930 . S
C748 N749 1.330 . S
C748 C750 1.446 . S
N749 Co708 2.151 . S
N749 C748 1.330 . S
N749 C753 1.418 . S
C750 H729 0.929 . S
C750 C748 1.446 . S
C750 C751 1.332 . S
C751 H731 0.931 . S
C751 C750 1.332 . S
C751 C752 1.267 . S
C752 H720 0.929 . S
C752 C751 1.267 . S
C752 C753 1.251 . S
C753 H723 0.929 . S
C753 N749 1.418 . S
C753 C752 1.251 . S
C754 H721 0.930 1_655 S
C754 C756 1.406 . S
C754 C759 1.261 . S
C755 H722 0.930 . S
C755 N757 1.325 . S
C755 C758 1.357 . S
C756 H724 0.928 . S
C756 C754 1.406 . S
C756 N757 1.261 . S
N757 Co708 2.214 . S
N757 C755 1.325 . S
N757 C756 1.261 . S
C758 H728 0.931 . S
C758 C755 1.357 . S
C758 C759 1.312 . S
C759 H730 0.930 1_655 S
C759 C754 1.261 . S
C759 C758 1.312 . S
C760 O732 1.214 . S
C760 O740 1.234 . S
C761 H733 0.929 . S
C761 C764 1.391 . S
C761 C766 1.391 . S
C762 H734 0.929 . S
C762 C763 1.390 . S
C762 N765 1.391 . S
C763 H735 0.930 . S
C763 C762 1.390 . S
C763 C764 1.392 . S
C764 H736 0.929 . S
C764 C761 1.391 . S
C764 C763 1.392 . S
N765 Co709 2.257 . S
N765 C762 1.391 . S
N765 C766 1.388 . S
C766 H737 0.930 . S
C766 C761 1.391 . S
C766 N765 1.388 . S
Co767 O769 2.143 . S
Co767 O775 2.074 . S
Co767 O778 2.093 . S
Co767 O791 2.097 . S
Co767 N808 2.151 . S
Co767 N816 2.214 . S
Co768 O769 2.160 . S
Co768 O774 2.058 . S
Co768 O784 2.057 . S
Co768 O799 2.037 . S
Co768 N803 2.145 . S
Co768 N824 2.257 . S
O769 Co767 2.143 . S
O769 Co768 2.160 . S
C770 O771 1.278 . S
C770 O778 1.224 . S
O771 C770 1.278 . S
C772 O773 1.245 . S
C772 O784 1.232 1_455 S
O773 C772 1.245 . S
O774 Co768 2.058 . S
O774 C800 1.269 . S
O775 Co767 2.074 . S
O775 C800 1.257 . S
H776 C801 0.930 . S
H777 C807 0.930 . S
O778 Co767 2.093 . S
O778 C770 1.224 . S
H779 C811 0.929 . S
H780 C813 0.930 1_545 S
H781 C814 0.930 . S
H782 C812 0.929 1_655 S
H783 C815 0.928 . S
O784 Co768 2.057 . S
O784 C772 1.232 1_655 S
H785 C804 0.929 . S
H786 C805 0.929 . S
H787 C817 0.931 . S
H788 C809 0.929 . S
H789 C818 0.930 1_545 S
H790 C810 0.931 . S
O791 Co767 2.097 . S
O791 C819 1.214 . S
H792 C820 0.929 . S
H793 C821 0.929 . S
H794 C822 0.930 . S
H795 C823 0.929 . S
H796 C825 0.930 . S
H797 C802 0.930 . S
H798 C806 0.930 . S
O799 Co768 2.037 . S
O799 C819 1.234 . S
C800 O774 1.269 . S
C800 O775 1.257 . S
C801 H776 0.930 . S
C801 C804 1.388 . S
C801 C806 1.418 . S
C802 H797 0.930 . S
C802 C805 1.404 . S
C802 C806 1.353 . S
N803 Co768 2.145 . S
N803 C804 1.397 . S
N803 C805 1.334 . S
C804 H785 0.929 . S
C804 C801 1.388 . S
C804 N803 1.397 . S
C805 H786 0.929 . S
C805 C802 1.404 . S
C805 N803 1.334 . S
C806 H798 0.930 . S
C806 C801 1.418 . S
C806 C802 1.353 . S
C807 H777 0.930 . S
C807 N808 1.330 1_455 S
C807 C809 1.446 . S
N808 Co767 2.151 . S
N808 C807 1.330 1_655 S
N808 C812 1.418 1_655 S
C809 H788 0.929 . S
C809 C807 1.446 . S
C809 C810 1.332 . S
C810 H790 0.931 . S
C810 C809 1.332 . S
C810 C811 1.267 . S
C811 H779 0.929 . S
C811 C810 1.267 . S
C811 C812 1.251 . S
C812 H782 0.929 1_455 S
C812 N808 1.418 1_455 S
C812 C811 1.251 . S
C813 H780 0.930 1_565 S
C813 C815 1.406 . S
C813 C818 1.261 . S
C814 H781 0.930 . S
C814 N816 1.325 . S
C814 C817 1.357 . S
C815 H783 0.928 . S
C815 C813 1.406 . S
C815 N816 1.261 . S
N816 Co767 2.214 . S
N816 C814 1.325 . S
N816 C815 1.261 . S
C817 H787 0.931 . S
C817 C814 1.357 . S
C817 C818 1.312 . S
C818 H789 0.930 1_565 S
C818 C813 1.261 . S
C818 C817 1.312 . S
C819 O791 1.214 . S
C819 O799 1.234 . S
C820 H792 0.929 . S
C820 C823 1.391 . S
C820 C825 1.391 . S
C821 H793 0.929 . S
C821 C822 1.390 . S
C821 N824 1.391 . S
C822 H794 0.930 . S
C822 C821 1.390 . S
C822 C823 1.392 . S
C823 H795 0.929 . S
C823 C820 1.391 . S
C823 C822 1.392 . S
N824 Co768 2.257 . S
N824 C821 1.391 . S
N824 C825 1.388 . S
C825 H796 0.930 . S
C825 C820 1.391 . S
C825 N824 1.388 . S
Co826 O828 2.143 . S
Co826 O834 2.074 . S
Co826 O837 2.093 . S
Co826 O850 2.097 . S
Co826 N867 2.151 . S
Co826 N875 2.214 . S
Co827 O828 2.160 . S
Co827 O833 2.058 . S
Co827 O843 2.057 . S
Co827 O858 2.037 . S
Co827 N862 2.145 . S
Co827 N883 2.257 . S
O828 Co826 2.143 . S
O828 Co827 2.160 . S
C829 O830 1.278 . S
C829 O837 1.224 . S
O830 C829 1.278 . S
C831 O832 1.245 . S
C831 O843 1.232 1_545 S
O832 C831 1.245 . S
O833 Co827 2.058 . S
O833 C859 1.269 . S
O834 Co826 2.074 . S
O834 C859 1.257 . S
H835 C860 0.930 . S
H836 C866 0.930 . S
O837 Co826 2.093 . S
O837 C829 1.224 . S
H838 C870 0.929 . S
H839 C872 0.930 . S
H840 C873 0.930 . S
H841 C871 0.929 1_565 S
H842 C874 0.928 . S
O843 Co827 2.057 . S
O843 C831 1.232 1_565 S
H844 C863 0.929 . S
H845 C864 0.929 1_455 S
H846 C876 0.931 . S
H847 C868 0.929 . S
H848 C877 0.930 . S
H849 C869 0.931 . S
O850 Co826 2.097 . S
O850 C878 1.214 . S
H851 C879 0.929 . S
H852 C880 0.929 . S
H853 C881 0.930 . S
H854 C882 0.929 . S
H855 C884 0.930 . S
H856 C861 0.930 . S
H857 C865 0.930 1_455 S
O858 Co827 2.037 . S
O858 C878 1.234 . S
C859 O833 1.269 . S
C859 O834 1.257 . S
C860 H835 0.930 . S
C860 C863 1.388 . S
C860 C865 1.418 . S
C861 H856 0.930 . S
C861 C864 1.404 1_455 S
C861 C865 1.353 1_455 S
N862 Co827 2.145 . S
N862 C863 1.397 . S
N862 C864 1.334 . S
C863 H844 0.929 . S
C863 C860 1.388 . S
C863 N862 1.397 . S
C864 H845 0.929 1_655 S
C864 C861 1.404 1_655 S
C864 N862 1.334 . S
C865 H857 0.930 1_655 S
C865 C860 1.418 . S
C865 C861 1.353 1_655 S
C866 H836 0.930 . S
C866 N867 1.330 1_545 S
C866 C868 1.446 . S
N867 Co826 2.151 . S
N867 C866 1.330 1_565 S
N867 C871 1.418 1_565 S
C868 H847 0.929 . S
C868 C866 1.446 . S
C868 C869 1.332 . S
C869 H849 0.931 . S
C869 C868 1.332 . S
C869 C870 1.267 . S
C870 H838 0.929 . S
C870 C869 1.267 . S
C870 C871 1.251 . S
C871 H841 0.929 1_545 S
C871 N867 1.418 1_545 S
C871 C870 1.251 . S
C872 H839 0.930 . S
C872 C874 1.406 . S
C872 C877 1.261 . S
C873 H840 0.930 . S
C873 N875 1.325 . S
C873 C876 1.357 . S
C874 H842 0.928 . S
C874 C872 1.406 . S
C874 N875 1.261 . S
N875 Co826 2.214 . S
N875 C873 1.325 . S
N875 C874 1.261 . S
C876 H846 0.931 . S
C876 C873 1.357 . S
C876 C877 1.312 . S
C877 H848 0.930 . S
C877 C872 1.261 . S
C877 C876 1.312 . S
C878 O850 1.214 . S
C878 O858 1.234 . S
C879 H851 0.929 . S
C879 C882 1.391 . S
C879 C884 1.391 1_455 S
C880 H852 0.929 . S
C880 C881 1.390 1_655 S
C880 N883 1.391 . S
C881 H853 0.930 . S
C881 C880 1.390 1_455 S
C881 C882 1.392 . S
C882 H854 0.929 . S
C882 C879 1.391 . S
C882 C881 1.392 . S
N883 Co827 2.257 . S
N883 C880 1.391 . S
N883 C884 1.388 . S
C884 H855 0.930 . S
C884 C879 1.391 1_655 S
C884 N883 1.388 . S
Co885 O887 2.143 . S
Co885 O893 2.074 . S
Co885 O896 2.093 . S
Co885 O909 2.097 . S
Co885 N926 2.151 . S
Co885 N934 2.214 . S
Co886 O887 2.160 . S
Co886 O892 2.058 . S
Co886 O902 2.057 . S
Co886 O917 2.037 . S
Co886 N921 2.145 . S
Co886 N942 2.257 . S
O887 Co885 2.143 . S
O887 Co886 2.160 . S
C888 O889 1.278 . S
C888 O896 1.224 . S
O889 C888 1.278 . S
C890 O891 1.245 . S
C890 O902 1.232 . S
O891 C890 1.245 . S
O892 Co886 2.058 . S
O892 C918 1.269 . S
O893 Co885 2.074 . S
O893 C918 1.257 . S
H894 C919 0.930 . S
H895 C925 0.930 . S
O896 Co885 2.093 . S
O896 C888 1.224 . S
H897 C929 0.929 . S
H898 C931 0.930 . S
H899 C932 0.930 . S
H900 C930 0.929 . S
H901 C933 0.928 . S
O902 Co886 2.057 . S
O902 C890 1.232 . S
H903 C922 0.929 . S
H904 C923 0.929 1_545 S
H905 C935 0.931 . S
H906 C927 0.929 . S
H907 C936 0.930 . S
H908 C928 0.931 . S
O909 Co885 2.097 . S
O909 C937 1.214 . S
H910 C938 0.929 . S
H911 C939 0.929 . S
H912 C940 0.930 . S
H913 C941 0.929 . S
H914 C943 0.930 . S
H915 C920 0.930 . S
H916 C924 0.930 1_545 S
O917 Co886 2.037 . S
O917 C937 1.234 . S
C918 O892 1.269 . S
C918 O893 1.257 . S
C919 H894 0.930 . S
C919 C922 1.388 . S
C919 C924 1.418 . S
C920 H915 0.930 . S
C920 C923 1.404 1_545 S
C920 C924 1.353 1_545 S
N921 Co886 2.145 . S
N921 C922 1.397 . S
N921 C923 1.334 . S
C922 H903 0.929 . S
C922 C919 1.388 . S
C922 N921 1.397 . S
C923 H904 0.929 1_565 S
C923 C920 1.404 1_565 S
C923 N921 1.334 . S
C924 H916 0.930 1_565 S
C924 C919 1.418 . S
C924 C920 1.353 1_565 S
C925 H895 0.930 . S
C925 N926 1.330 . S
C925 C927 1.446 . S
N926 Co885 2.151 . S
N926 C925 1.330 . S
N926 C930 1.418 . S
C927 H906 0.929 . S
C927 C925 1.446 . S
C927 C928 1.332 . S
C928 H908 0.931 . S
C928 C927 1.332 . S
C928 C929 1.267 . S
C929 H897 0.929 . S
C929 C928 1.267 . S
C929 C930 1.251 . S
C930 H900 0.929 . S
C930 N926 1.418 . S
C930 C929 1.251 . S
C931 H898 0.930 . S
C931 C933 1.406 . S
C931 C936 1.261 . S
C932 H899 0.930 . S
C932 N934 1.325 . S
C932 C935 1.357 . S
C933 H901 0.928 . S
C933 C931 1.406 . S
C933 N934 1.261 . S
N934 Co885 2.214 . S
N934 C932 1.325 . S
N934 C933 1.261 . S
C935 H905 0.931 . S
C935 C932 1.357 . S
C935 C936 1.312 . S
C936 H907 0.930 . S
C936 C931 1.261 . S
C936 C935 1.312 . S
C937 O909 1.214 . S
C937 O917 1.234 . S
C938 H910 0.929 . S
C938 C941 1.391 . S
C938 C943 1.391 1_545 S
C939 H911 0.929 . S
C939 C940 1.390 1_565 S
C939 N942 1.391 . S
C940 H912 0.930 . S
C940 C939 1.390 1_545 S
C940 C941 1.392 . S
C941 H913 0.929 . S
C941 C938 1.391 . S
C941 C940 1.392 . S
N942 Co886 2.257 . S
N942 C939 1.391 . S
N942 C943 1.388 . S
C943 H914 0.930 . S
C943 C938 1.391 1_565 S
C943 N942 1.388 . S
C416 C3 2.405 1_556 S
C239 C62 2.405 . S
C298 C121 2.405 1_556 S
C180 C357 2.405 . S
C888 C475 2.405 1_554 S
C711 C534 2.405 . S
C593 C770 2.405 1_556 S
C652 C829 2.405 . S
C170 C52 1.430 . S
C111 C229 1.430 . S
C288 C406 1.430 . S
C465 C347 1.430 . S
C524 C642 1.430 . S
C583 C701 1.430 . S
C878 C760 1.430 . S
C819 C937 1.430 . S
C387 C33 1.741 . S
C92 C446 1.741 . S
C151 C269 1.741 . S
C210 C328 1.741 . S
C505 C859 1.741 . S
C564 C918 1.741 . S
C623 C741 1.741 . S
C682 C800 1.741 . S
C5 C890 1.486 . S
C713 C64 1.486 . S
C123 C772 1.486 . S
C831 C182 1.486 . S
C536 C241 1.486 . S
C300 C595 1.486 . S
C654 C359 1.486 . S
C477 C418 1.486 . S
