# Generated by pormake.
# Topology sin, (3)-cn, num edge types: 1
# Building blocks:
#     Node 0, Type 0, BuildingBlock: OLANEW_clean_sbu_2, # of connection points: 3
#     Node 1, Type 0, BuildingBlock: OLANEW_clean_sbu_2, # of connection points: 3
#     Node 2, Type 0, BuildingBlock: OLANEW_clean_sbu_2, # of connection points: 3
#     Node 3, Type 0, BuildingBlock: OLANEW_clean_sbu_2, # of connection points: 3
#     Node 4, Type 0, BuildingBlock: OLANEW_clean_sbu_2, # of connection points: 3
#     Node 5, Type 0, BuildingBlock: OLANEW_clean_sbu_2, # of connection points: 3
#     Node 6, Type 0, BuildingBlock: OLANEW_clean_sbu_2, # of connection points: 3
#     Node 7, Type 0, BuildingBlock: OLANEW_clean_sbu_2, # of connection points: 3
#     Node 8, Type 0, BuildingBlock: OLANEW_clean_sbu_2, # of connection points: 3
#     Node 9, Type 0, BuildingBlock: OLANEW_clean_sbu_2, # of connection points: 3
#     Node 10, Type 0, BuildingBlock: OLANEW_clean_sbu_2, # of connection points: 3
#     Node 11, Type 0, BuildingBlock: OLANEW_clean_sbu_2, # of connection points: 3
#     Node 12, Type 0, BuildingBlock: OLANEW_clean_sbu_2, # of connection points: 3
#     Node 13, Type 0, BuildingBlock: OLANEW_clean_sbu_2, # of connection points: 3
#     Node 14, Type 0, BuildingBlock: OLANEW_clean_sbu_2, # of connection points: 3
#     Node 15, Type 0, BuildingBlock: OLANEW_clean_sbu_2, # of connection points: 3
#     Node 16, Type 0, BuildingBlock: OLANEW_clean_sbu_2, # of connection points: 3
#     Node 17, Type 0, BuildingBlock: OLANEW_clean_sbu_2, # of connection points: 3
#     Node 18, Type 0, BuildingBlock: OLANEW_clean_sbu_2, # of connection points: 3
#     Node 19, Type 0, BuildingBlock: OLANEW_clean_sbu_2, # of connection points: 3
#     Node 20, Type 0, BuildingBlock: OLANEW_clean_sbu_2, # of connection points: 3
#     Node 21, Type 0, BuildingBlock: OLANEW_clean_sbu_2, # of connection points: 3
#     Node 22, Type 0, BuildingBlock: OLANEW_clean_sbu_2, # of connection points: 3
#     Node 23, Type 0, BuildingBlock: OLANEW_clean_sbu_2, # of connection points: 3
#     Node 24, Type 0, BuildingBlock: OLANEW_clean_sbu_2, # of connection points: 3
#     Node 25, Type 0, BuildingBlock: OLANEW_clean_sbu_2, # of connection points: 3
#     Node 26, Type 0, BuildingBlock: OLANEW_clean_sbu_2, # of connection points: 3
#     Node 27, Type 0, BuildingBlock: OLANEW_clean_sbu_2, # of connection points: 3
#     Node 28, Type 0, BuildingBlock: OLANEW_clean_sbu_2, # of connection points: 3
#     Node 29, Type 0, BuildingBlock: OLANEW_clean_sbu_2, # of connection points: 3
#     Node 30, Type 0, BuildingBlock: OLANEW_clean_sbu_2, # of connection points: 3
#     Node 31, Type 0, BuildingBlock: OLANEW_clean_sbu_2, # of connection points: 3
#     Node 32, Type 0, BuildingBlock: OLANEW_clean_sbu_2, # of connection points: 3
#     Node 33, Type 0, BuildingBlock: OLANEW_clean_sbu_2, # of connection points: 3
#     Node 34, Type 0, BuildingBlock: OLANEW_clean_sbu_2, # of connection points: 3
#     Node 35, Type 0, BuildingBlock: OLANEW_clean_sbu_2, # of connection points: 3
#     Node 36, Type 0, BuildingBlock: OLANEW_clean_sbu_2, # of connection points: 3
#     Node 37, Type 0, BuildingBlock: OLANEW_clean_sbu_2, # of connection points: 3
#     Node 38, Type 0, BuildingBlock: OLANEW_clean_sbu_2, # of connection points: 3
#     Node 39, Type 0, BuildingBlock: OLANEW_clean_sbu_2, # of connection points: 3
#     Node 40, Type 0, BuildingBlock: OLANEW_clean_sbu_2, # of connection points: 3
#     Node 41, Type 0, BuildingBlock: OLANEW_clean_sbu_2, # of connection points: 3
#     Node 42, Type 0, BuildingBlock: OLANEW_clean_sbu_2, # of connection points: 3
#     Node 43, Type 0, BuildingBlock: OLANEW_clean_sbu_2, # of connection points: 3
#     Node 44, Type 0, BuildingBlock: OLANEW_clean_sbu_2, # of connection points: 3
#     Node 45, Type 0, BuildingBlock: OLANEW_clean_sbu_2, # of connection points: 3
#     Node 46, Type 0, BuildingBlock: OLANEW_clean_sbu_2, # of connection points: 3
#     Node 47, Type 0, BuildingBlock: OLANEW_clean_sbu_2, # of connection points: 3
#     Edge 48, Type (0, 0), BuildingBlock: UVAHIK_clean_linker_0, # of connection points: 2
#     Edge 49, Type (0, 0), BuildingBlock: UVAHIK_clean_linker_0, # of connection points: 2
#     Edge 50, Type (0, 0), BuildingBlock: UVAHIK_clean_linker_0, # of connection points: 2
#     Edge 51, Type (0, 0), BuildingBlock: UVAHIK_clean_linker_0, # of connection points: 2
#     Edge 52, Type (0, 0), BuildingBlock: UVAHIK_clean_linker_0, # of connection points: 2
#     Edge 53, Type (0, 0), BuildingBlock: UVAHIK_clean_linker_0, # of connection points: 2
#     Edge 54, Type (0, 0), BuildingBlock: UVAHIK_clean_linker_0, # of connection points: 2
#     Edge 55, Type (0, 0), BuildingBlock: UVAHIK_clean_linker_0, # of connection points: 2
#     Edge 56, Type (0, 0), BuildingBlock: UVAHIK_clean_linker_0, # of connection points: 2
#     Edge 57, Type (0, 0), BuildingBlock: UVAHIK_clean_linker_0, # of connection points: 2
#     Edge 58, Type (0, 0), BuildingBlock: UVAHIK_clean_linker_0, # of connection points: 2
#     Edge 59, Type (0, 0), BuildingBlock: UVAHIK_clean_linker_0, # of connection points: 2
#     Edge 60, Type (0, 0), BuildingBlock: UVAHIK_clean_linker_0, # of connection points: 2
#     Edge 61, Type (0, 0), BuildingBlock: UVAHIK_clean_linker_0, # of connection points: 2
#     Edge 62, Type (0, 0), BuildingBlock: UVAHIK_clean_linker_0, # of connection points: 2
#     Edge 63, Type (0, 0), BuildingBlock: UVAHIK_clean_linker_0, # of connection points: 2
#     Edge 64, Type (0, 0), BuildingBlock: UVAHIK_clean_linker_0, # of connection points: 2
#     Edge 65, Type (0, 0), BuildingBlock: UVAHIK_clean_linker_0, # of connection points: 2
#     Edge 66, Type (0, 0), BuildingBlock: UVAHIK_clean_linker_0, # of connection points: 2
#     Edge 67, Type (0, 0), BuildingBlock: UVAHIK_clean_linker_0, # of connection points: 2
#     Edge 68, Type (0, 0), BuildingBlock: UVAHIK_clean_linker_0, # of connection points: 2
#     Edge 69, Type (0, 0), BuildingBlock: UVAHIK_clean_linker_0, # of connection points: 2
#     Edge 70, Type (0, 0), BuildingBlock: UVAHIK_clean_linker_0, # of connection points: 2
#     Edge 71, Type (0, 0), BuildingBlock: UVAHIK_clean_linker_0, # of connection points: 2
#     Edge 72, Type (0, 0), BuildingBlock: UVAHIK_clean_linker_0, # of connection points: 2
#     Edge 73, Type (0, 0), BuildingBlock: UVAHIK_clean_linker_0, # of connection points: 2
#     Edge 74, Type (0, 0), BuildingBlock: UVAHIK_clean_linker_0, # of connection points: 2
#     Edge 75, Type (0, 0), BuildingBlock: UVAHIK_clean_linker_0, # of connection points: 2
#     Edge 76, Type (0, 0), BuildingBlock: UVAHIK_clean_linker_0, # of connection points: 2
#     Edge 77, Type (0, 0), BuildingBlock: UVAHIK_clean_linker_0, # of connection points: 2
#     Edge 78, Type (0, 0), BuildingBlock: UVAHIK_clean_linker_0, # of connection points: 2
#     Edge 79, Type (0, 0), BuildingBlock: UVAHIK_clean_linker_0, # of connection points: 2
#     Edge 80, Type (0, 0), BuildingBlock: UVAHIK_clean_linker_0, # of connection points: 2
#     Edge 81, Type (0, 0), BuildingBlock: UVAHIK_clean_linker_0, # of connection points: 2
#     Edge 82, Type (0, 0), BuildingBlock: UVAHIK_clean_linker_0, # of connection points: 2
#     Edge 83, Type (0, 0), BuildingBlock: UVAHIK_clean_linker_0, # of connection points: 2
#     Edge 84, Type (0, 0), BuildingBlock: UVAHIK_clean_linker_0, # of connection points: 2
#     Edge 85, Type (0, 0), BuildingBlock: UVAHIK_clean_linker_0, # of connection points: 2
#     Edge 86, Type (0, 0), BuildingBlock: UVAHIK_clean_linker_0, # of connection points: 2
#     Edge 87, Type (0, 0), BuildingBlock: UVAHIK_clean_linker_0, # of connection points: 2
#     Edge 88, Type (0, 0), BuildingBlock: UVAHIK_clean_linker_0, # of connection points: 2
#     Edge 89, Type (0, 0), BuildingBlock: UVAHIK_clean_linker_0, # of connection points: 2
#     Edge 90, Type (0, 0), BuildingBlock: UVAHIK_clean_linker_0, # of connection points: 2
#     Edge 91, Type (0, 0), BuildingBlock: UVAHIK_clean_linker_0, # of connection points: 2
#     Edge 92, Type (0, 0), BuildingBlock: UVAHIK_clean_linker_0, # of connection points: 2
#     Edge 93, Type (0, 0), BuildingBlock: UVAHIK_clean_linker_0, # of connection points: 2
#     Edge 94, Type (0, 0), BuildingBlock: UVAHIK_clean_linker_0, # of connection points: 2
#     Edge 95, Type (0, 0), BuildingBlock: UVAHIK_clean_linker_0, # of connection points: 2
#     Edge 96, Type (0, 0), BuildingBlock: UVAHIK_clean_linker_0, # of connection points: 2
#     Edge 97, Type (0, 0), BuildingBlock: UVAHIK_clean_linker_0, # of connection points: 2
#     Edge 98, Type (0, 0), BuildingBlock: UVAHIK_clean_linker_0, # of connection points: 2
#     Edge 99, Type (0, 0), BuildingBlock: UVAHIK_clean_linker_0, # of connection points: 2
#     Edge 100, Type (0, 0), BuildingBlock: UVAHIK_clean_linker_0, # of connection points: 2
#     Edge 101, Type (0, 0), BuildingBlock: UVAHIK_clean_linker_0, # of connection points: 2
#     Edge 102, Type (0, 0), BuildingBlock: UVAHIK_clean_linker_0, # of connection points: 2
#     Edge 103, Type (0, 0), BuildingBlock: UVAHIK_clean_linker_0, # of connection points: 2
#     Edge 104, Type (0, 0), BuildingBlock: UVAHIK_clean_linker_0, # of connection points: 2
#     Edge 105, Type (0, 0), BuildingBlock: UVAHIK_clean_linker_0, # of connection points: 2
#     Edge 106, Type (0, 0), BuildingBlock: UVAHIK_clean_linker_0, # of connection points: 2
#     Edge 107, Type (0, 0), BuildingBlock: UVAHIK_clean_linker_0, # of connection points: 2
#     Edge 108, Type (0, 0), BuildingBlock: UVAHIK_clean_linker_0, # of connection points: 2
#     Edge 109, Type (0, 0), BuildingBlock: UVAHIK_clean_linker_0, # of connection points: 2
#     Edge 110, Type (0, 0), BuildingBlock: UVAHIK_clean_linker_0, # of connection points: 2
#     Edge 111, Type (0, 0), BuildingBlock: UVAHIK_clean_linker_0, # of connection points: 2
#     Edge 112, Type (0, 0), BuildingBlock: UVAHIK_clean_linker_0, # of connection points: 2
#     Edge 113, Type (0, 0), BuildingBlock: UVAHIK_clean_linker_0, # of connection points: 2
#     Edge 114, Type (0, 0), BuildingBlock: UVAHIK_clean_linker_0, # of connection points: 2
#     Edge 115, Type (0, 0), BuildingBlock: UVAHIK_clean_linker_0, # of connection points: 2
#     Edge 116, Type (0, 0), BuildingBlock: UVAHIK_clean_linker_0, # of connection points: 2
#     Edge 117, Type (0, 0), BuildingBlock: UVAHIK_clean_linker_0, # of connection points: 2
#     Edge 118, Type (0, 0), BuildingBlock: UVAHIK_clean_linker_0, # of connection points: 2
#     Edge 119, Type (0, 0), BuildingBlock: UVAHIK_clean_linker_0, # of connection points: 2
# Relax obj value: 0.037
# Max RMSD: 0.037
# Mean RMSD: 0.021
data_MOF--net-sin--node1-OLANEW_clean_sbu_2--edge1-UVAHIK_clean_linker_0
_symmetry_space_group_name_H-M    P1
_symmetry_Int_Tables_number       1
_symmetry_cell_setting            triclinic
loop_
_symmetry_equiv_pos_as_xyz
'x, y, z'
_cell_length_a     104.27009
_cell_length_b     104.04434
_cell_length_c     103.97153
_cell_angle_alpha  89.542181
_cell_angle_beta   89.526842
_cell_angle_gamma 89.564584
loop_
_atom_site_label
_atom_site_type_symbol
_atom_site_fract_x
_atom_site_fract_y
_atom_site_fract_z
_atom_type_partial_charge
O0 O 0.9836 0.39125 0.43544 0.0
Cd1 Cd 0.98781 0.41404 0.43892 0.0
O2 O 0.99312 0.38465 0.45311 0.0
Cd3 Cd 0.0024 0.40316 0.45565 0.0
O4 O 0.01958 0.41453 0.45206 0.0
C5 C 0.02289 0.41619 0.44037 0.0
O6 O 0.0154 0.41184 0.43131 0.0
C7 C 0.98647 0.38222 0.44324 0.0
C8 C 0.96448 0.42687 0.4425 0.0
O9 O 0.96937 0.42551 0.43123 0.0
O10 O 0.97077 0.4224 0.4521 0.0
O11 O 0.95618 0.92377 0.26514 0.0
Cd12 Cd 0.94724 0.94457 0.27151 0.0
O13 O 0.97586 0.92932 0.26978 0.0
Cd14 Cd -0.00331 0.92665 0.26991 0.0
O15 O 0.01761 0.92572 0.26897 0.0
C16 C 0.02328 0.9268 0.25816 0.0
O17 O 0.01637 0.92833 0.24774 0.0
C18 C 0.96805 0.92098 0.26571 0.0
C19 C 0.94277 0.94636 0.29792 0.0
O20 O 0.93473 0.94084 0.29057 0.0
O21 O 0.953 0.95096 0.29282 0.0
O22 O 0.69235 0.7891 0.93077 0.0
Cd23 Cd 0.69111 0.76606 0.93555 0.0
O24 O 0.69636 0.79463 0.95071 0.0
Cd25 Cd 0.68914 0.77607 0.9573 0.0
O26 O 0.67219 0.76386 0.95794 0.0
C27 C 0.66243 0.76821 0.96393 0.0
O28 O 0.66344 0.77911 0.97013 0.0
C29 C 0.69538 0.79764 0.93888 0.0
C30 C 0.71583 0.75577 0.93778 0.0
O31 O 0.71022 0.75638 0.92687 0.0
O32 O 0.70967 0.75985 0.94767 0.0
O33 O 0.71535 0.24017 0.80349 0.0
Cd34 Cd 0.71277 0.22069 0.81651 0.0
O35 O 0.69574 0.2369 0.79707 0.0
Cd36 Cd 0.67739 0.24159 0.78803 0.0
O37 O 0.65756 0.24462 0.78204 0.0
C38 C 0.65442 0.24565 0.77029 0.0
O39 O 0.66339 0.24502 0.76136 0.0
C40 C 0.70582 0.24372 0.79678 0.0
C41 C 0.72029 0.22417 0.84192 0.0
O42 O 0.72801 0.21929 0.8336 0.0
O43 O 0.70903 0.22744 0.83821 0.0
O44 O 0.97115 0.78517 0.22869 0.0
Cd45 Cd 0.96837 0.76305 0.22154 0.0
O46 O 0.99195 0.7833 0.22609 0.0
Cd47 Cd 0.01197 0.78908 0.22802 0.0
O48 O 0.03251 0.78987 0.23185 0.0
C49 C 0.03631 0.78642 0.24295 0.0
O50 O 0.02773 0.78295 0.25161 0.0
C51 C 0.98226 0.79007 0.2293 0.0
C52 C 0.94247 0.75673 0.21999 0.0
O53 O 0.9487 0.75505 0.23046 0.0
O54 O 0.94851 0.76135 0.21024 0.0
O55 O 0.71034 0.93506 0.89475 0.0
Cd56 Cd 0.70933 0.95658 0.88522 0.0
O57 O 0.68937 0.93559 0.89416 0.0
Cd58 Cd 0.6701 0.92838 0.89825 0.0
O59 O 0.65011 0.92447 0.90324 0.0
C60 C 0.64616 0.92636 0.91468 0.0
O61 O 0.65431 0.93039 0.92331 0.0
C62 C 0.69968 0.92955 0.89678 0.0
C63 C 0.71625 0.95624 0.85925 0.0
O64 O 0.72444 0.95908 0.8679 0.0
O65 O 0.70479 0.9536 0.86288 0.0
O66 O 0.70685 0.37697 0.74015 0.0
Cd67 Cd 0.70484 0.39906 0.73217 0.0
O68 O 0.69437 0.36933 0.72512 0.0
Cd69 Cd 0.68702 0.38822 0.71949 0.0
O70 O 0.67038 0.40102 0.72063 0.0
C71 C 0.66638 0.40372 0.73188 0.0
O72 O 0.673 0.39956 0.7418 0.0
C73 C 0.70184 0.36743 0.73456 0.0
C74 C 0.7291 0.40979 0.72876 0.0
O75 O 0.72262 0.41172 0.73911 0.0
O76 O 0.72404 0.40294 0.71999 0.0
O77 O 0.96429 0.25023 0.3908 0.0
Cd78 Cd 0.96512 0.22956 0.37981 0.0
O79 O 0.98441 0.24675 0.39568 0.0
Cd80 Cd 0.00274 0.25092 0.40484 0.0
O81 O 0.0215 0.25579 0.41256 0.0
C82 C 0.02858 0.24723 0.41773 0.0
O83 O 0.02441 0.23536 0.41851 0.0
C84 C 0.97454 0.25402 0.39604 0.0
C85 C 0.95701 0.23146 0.35436 0.0
O86 O 0.94927 0.22793 0.36334 0.0
O87 O 0.96856 0.23413 0.35742 0.0
O88 O 0.43827 0.98799 0.39326 0.0
Cd89 Cd 0.44331 0.99158 0.41586 0.0
O90 O 0.45274 0.0013 0.38551 0.0
Cd91 Cd 0.45638 0.00979 0.40423 0.0
O92 O 0.45381 0.02678 0.41619 0.0
C93 C 0.44249 0.02949 0.41994 0.0
O94 O 0.43322 0.02144 0.41738 0.0
C95 C 0.44413 0.99294 0.38368 0.0
C96 C 0.44693 0.96781 0.42798 0.0
O97 O 0.4358 0.9731 0.42751 0.0
O98 O 0.45639 0.97389 0.42296 0.0
O99 O 0.23812 0.79753 0.71892 0.0
Cd100 Cd 0.21774 0.80904 0.71661 0.0
O101 O 0.23534 0.79168 0.699 0.0
Cd102 Cd 0.24053 0.78359 0.68028 0.0
O103 O 0.24383 0.77784 0.66037 0.0
C104 C 0.24468 0.76609 0.65719 0.0
O105 O 0.24371 0.75716 0.66614 0.0
C106 C 0.24214 0.79146 0.7091 0.0
C107 C 0.21946 0.83483 0.72343 0.0
O108 O 0.21546 0.82637 0.73151 0.0
O109 O 0.2227 0.83108 0.71214 0.0
O110 O 0.22622 0.21117 0.8837 0.0
Cd111 Cd 0.21598 0.21443 0.90466 0.0
O112 O 0.22907 0.19069 0.88778 0.0
Cd113 Cd 0.23393 0.17045 0.88452 0.0
O114 O 0.23803 0.14987 0.88607 0.0
C115 C 0.24654 0.1461 0.89396 0.0
O116 O 0.25276 0.15472 0.90059 0.0
C117 C 0.23027 0.20021 0.88011 0.0
C118 C 0.21892 0.23963 0.91306 0.0
O119 O 0.22666 0.23071 0.91669 0.0
O120 O 0.20978 0.23662 0.90551 0.0
O121 O 0.42494 0.37329 0.19616 0.0
Cd122 Cd 0.44505 0.36343 0.18889 0.0
O123 O 0.43058 0.3931 0.19133 0.0
Cd124 Cd 0.44731 0.38776 0.17974 0.0
O125 O 0.4545 0.39065 0.16014 0.0
C126 C 0.46084 0.40068 0.15729 0.0
O127 O 0.46408 0.40852 0.16654 0.0
C128 C 0.42259 0.3853 0.1963 0.0
C129 C 0.44743 0.33906 0.20009 0.0
O130 O 0.45125 0.34911 0.20593 0.0
O131 O 0.44269 0.34049 0.18883 0.0
O132 O 0.43648 0.19885 0.30189 0.0
Cd133 Cd 0.44143 0.19382 0.27944 0.0
O134 O 0.44855 0.18351 0.31017 0.0
Cd135 Cd 0.4527 0.17439 0.29176 0.0
O136 O 0.45181 0.15703 0.28014 0.0
C137 C 0.44097 0.15372 0.27583 0.0
O138 O 0.43105 0.16137 0.27765 0.0
C139 C 0.44112 0.19313 0.31167 0.0
C140 C 0.4431 0.21643 0.26486 0.0
O141 O 0.4323 0.21094 0.26687 0.0
O142 O 0.45317 0.21115 0.26962 0.0
O143 O 0.44329 0.79919 0.47747 0.0
Cd144 Cd 0.46384 0.81033 0.47674 0.0
O145 O 0.44758 0.7926 0.49703 0.0
Cd146 Cd 0.44352 0.78388 0.51586 0.0
O147 O 0.4407 0.77716 0.53563 0.0
C148 C 0.44018 0.76527 0.53844 0.0
O149 O 0.44124 0.75679 0.52919 0.0
C150 C 0.44002 0.79291 0.48748 0.0
C151 C 0.46101 0.83616 0.46981 0.0
O152 O 0.46264 0.82746 0.46127 0.0
O153 O 0.46069 0.83262 0.48165 0.0
O154 O 0.24042 0.98664 0.79536 0.0
Cd155 Cd 0.23329 0.99071 0.77337 0.0
O156 O 0.22526 -0.00141 0.8041 0.0
Cd157 Cd 0.22079 0.00803 0.78587 0.0
O158 O 0.22367 0.02523 0.77411 0.0
C159 C 0.235 0.02741 0.77009 0.0
O160 O 0.24398 0.01877 0.7723 0.0
C161 C 0.23454 0.99069 0.80532 0.0
C162 C 0.22918 0.96696 0.76193 0.0
O163 O 0.23983 0.97286 0.76034 0.0
O164 O 0.22037 0.97247 0.76862 0.0
O165 O 0.25577 0.40292 0.96465 0.0
Cd166 Cd 0.23355 0.39568 0.96392 0.0
O167 O 0.25189 0.40875 0.98448 0.0
Cd168 Cd 0.2561 0.41522 0.00398 0.0
O169 O 0.25817 0.42105 0.02399 0.0
C170 C 0.25174 0.43053 0.02831 0.0
O171 O 0.24404 0.43684 0.02052 0.0
C172 C 0.25972 0.40775 0.97507 0.0
C173 C 0.23183 0.37037 0.9555 0.0
O174 O 0.23055 0.37983 0.94763 0.0
O175 O 0.23394 0.37289 0.96734 0.0
O176 O 0.40173 0.43258 0.98571 0.0
Cd177 Cd 0.42455 0.43716 0.98793 0.0
O178 O 0.39611 0.44467 0.0021 0.0
Cd179 Cd 0.41565 0.44638 0.00929 0.0
O180 O 0.42984 0.44344 0.02442 0.0
C181 C 0.42709 0.44826 0.03531 0.0
O182 O 0.41656 0.45519 0.03645 0.0
C183 C 0.39302 0.43775 0.99261 0.0
C184 C 0.43483 0.44274 0.96368 0.0
O185 O 0.43575 0.43141 0.96852 0.0
O186 O 0.4293 0.45147 0.9704 0.0
O187 O 0.87924 0.24799 0.20166 0.0
Cd188 Cd 0.90175 0.24163 0.19932 0.0
O189 O 0.87262 0.23354 0.18794 0.0
Cd190 Cd 0.89171 0.22981 0.17998 0.0
O191 O 0.90375 0.23192 0.16282 0.0
C192 C 0.90591 0.24332 0.15893 0.0
O193 O 0.90172 0.25297 0.16594 0.0
C194 C 0.87012 0.24218 0.19618 0.0
C195 C 0.91276 0.23922 0.22361 0.0
O196 O 0.91396 0.2496 0.217 0.0
O197 O 0.90655 0.22993 0.21865 0.0
O198 O 0.77227 0.72593 0.23825 0.0
Cd199 Cd 0.78041 0.72726 0.2162 0.0
O200 O 0.76984 0.70519 0.23608 0.0
Cd201 Cd 0.76631 0.68527 0.24201 0.0
O202 O 0.76347 0.66479 0.24574 0.0
C203 C 0.75228 0.66005 0.24578 0.0
O204 O 0.74239 0.66767 0.24373 0.0
C205 C 0.76898 0.71516 0.24305 0.0
C206 C 0.8068 0.73151 0.21589 0.0
O207 O 0.79879 0.74092 0.21603 0.0
O208 O 0.80232 0.72007 0.21581 0.0
O209 O 0.78855 0.94099 0.70358 0.0
Cd210 Cd 0.76628 0.94822 0.70171 0.0
O211 O 0.79574 0.95565 0.69005 0.0
Cd212 Cd 0.77678 0.96043 0.68261 0.0
O213 O 0.76458 0.95917 0.66573 0.0
C214 C 0.76325 0.948 0.6611 0.0
O215 O 0.76837 0.93815 0.66723 0.0
C216 C 0.7979 0.94662 0.69807 0.0
C217 C 0.75579 0.95088 0.72633 0.0
O218 O 0.75409 0.94059 0.71988 0.0
O219 O 0.76221 0.95998 0.72104 0.0
O220 O 0.39373 0.95585 0.25436 0.0
Cd221 Cd 0.38442 0.94939 0.23396 0.0
O222 O 0.39751 0.97542 0.24744 0.0
Cd223 Cd 0.40278 0.99564 0.24935 0.0
O224 O 0.40681 0.01616 0.25058 0.0
C225 C 0.41809 0.02016 0.25261 0.0
O226 O 0.42744 0.01174 0.25404 0.0
C227 C 0.39798 0.96705 0.25641 0.0
C228 C 0.3578 0.94774 0.23604 0.0
O229 O 0.36509 0.93851 0.23981 0.0
O230 O 0.36308 0.95777 0.23118 0.0
O231 O 0.30578 0.74076 0.48876 0.0
Cd232 Cd 0.28374 0.73294 0.49003 0.0
O233 O 0.31324 0.72539 0.50134 0.0
Cd234 Cd 0.2942 0.72005 0.50829 0.0
O235 O 0.28101 0.72215 0.52455 0.0
C236 C 0.2772 0.73349 0.52708 0.0
O237 O 0.28048 0.74289 0.51923 0.0
C238 C 0.31523 0.73497 0.49395 0.0
C239 C 0.27405 0.73028 0.46526 0.0
O240 O 0.27183 0.74048 0.47176 0.0
O241 O 0.28066 0.72128 0.47054 0.0
O242 O 0.79641 0.47329 0.44512 0.0
Cd243 Cd 0.8076 0.4725 0.46566 0.0
O244 O 0.78864 0.49233 0.44979 0.0
Cd245 Cd 0.7788 0.51057 0.44575 0.0
O246 O 0.77 0.52929 0.44177 0.0
C247 C 0.76538 0.53601 0.45088 0.0
O248 O 0.76585 0.53148 0.4627 0.0
C249 C 0.7896 0.48298 0.44201 0.0
C250 C 0.83351 0.46658 0.46205 0.0
O251 O 0.82515 0.45771 0.46347 0.0
O252 O 0.82963 0.47829 0.46242 0.0
O253 O 0.88597 0.71294 0.93294 0.0
Cd254 Cd 0.87492 0.71481 0.95367 0.0
O255 O 0.89227 0.69342 0.93791 0.0
Cd256 Cd 0.90045 0.67427 0.93453 0.0
O257 O 0.90638 0.65416 0.93278 0.0
C258 C 0.91811 0.65076 0.93318 0.0
O259 O 0.92693 0.65958 0.93451 0.0
C260 C 0.892 0.70273 0.92991 0.0
C261 C 0.84889 0.72038 0.95056 0.0
O262 O 0.8572 0.72936 0.95107 0.0
O263 O 0.85288 0.70873 0.95153 0.0
O264 O 0.47593 0.87148 0.94904 0.0
Cd265 Cd 0.47856 0.89461 0.95188 0.0
O266 O 0.4892 0.86521 0.96421 0.0
Cd267 Cd 0.4966 0.88458 0.96666 0.0
O268 O 0.51296 0.89683 0.96221 0.0
C269 C 0.51602 0.8978 0.95039 0.0
O270 O 0.50867 0.89235 0.94183 0.0
C271 C 0.48111 0.8625 0.95559 0.0
C272 C 0.45439 0.90629 0.95196 0.0
O273 O 0.46027 0.9038 0.9414 0.0
O274 O 0.46004 0.90352 0.96254 0.0
O275 O 0.47526 0.44707 0.79369 0.0
Cd276 Cd 0.47829 0.46697 0.80557 0.0
O277 O 0.49444 0.44999 0.78561 0.0
Cd278 Cd 0.51242 0.44539 0.77559 0.0
O279 O 0.53166 0.44329 0.76737 0.0
C280 C 0.53557 0.43265 0.76284 0.0
O281 O 0.52778 0.42277 0.76296 0.0
C282 C 0.4844 0.44316 0.78654 0.0
C283 C 0.47195 0.46385 0.83153 0.0
O284 O 0.46384 0.4686 0.82356 0.0
O285 O 0.48306 0.46062 0.82723 0.0
O286 O 0.18942 0.29886 0.42876 0.0
Cd287 Cd 0.18628 0.27595 0.43319 0.0
O288 O 0.19385 0.30351 0.44883 0.0
Cd289 Cd 0.18432 0.28586 0.45488 0.0
O290 O 0.16559 0.27666 0.45396 0.0
C291 C 0.15694 0.28408 0.44949 0.0
O292 O 0.16007 0.29588 0.44623 0.0
C293 C 0.19328 0.30685 0.43705 0.0
C294 C 0.21028 0.26438 0.43672 0.0
O295 O 0.20529 0.26525 0.42552 0.0
O296 O 0.20379 0.26871 0.44629 0.0
O297 O 0.22948 0.74127 0.29594 0.0
Cd298 Cd 0.22781 0.72065 0.30723 0.0
O299 O 0.20879 0.73987 0.29292 0.0
Cd300 Cd 0.18985 0.74723 0.28749 0.0
O301 O 0.17061 0.75414 0.28278 0.0
C302 C 0.16832 0.75976 0.27213 0.0
O303 O 0.17775 0.76146 0.26385 0.0
C304 C 0.21919 0.74603 0.29141 0.0
C305 C 0.23511 0.72233 0.33291 0.0
O306 O 0.24308 0.71859 0.32425 0.0
O307 O 0.22369 0.7253 0.32943 0.0
O308 O 0.4838 0.30625 0.74286 0.0
Cd309 Cd 0.48717 0.28314 0.74011 0.0
O310 O 0.49714 0.31261 0.72764 0.0
Cd311 Cd 0.50496 0.29333 0.72471 0.0
O312 O 0.52146 0.28053 0.72709 0.0
C313 C 0.52413 0.2768 0.73843 0.0
O314 O 0.51631 0.27994 0.74789 0.0
C315 C 0.48888 0.31526 0.73629 0.0
C316 C 0.46349 0.27081 0.74024 0.0
O317 O 0.46912 0.27357 0.75076 0.0
O318 O 0.46915 0.27367 0.72961 0.0
O319 O 0.22159 0.44306 0.39556 0.0
Cd320 Cd 0.22198 0.46467 0.38623 0.0
O321 O 0.20069 0.44496 0.39469 0.0
Cd322 Cd 0.18103 0.43869 0.39848 0.0
O323 O 0.16106 0.43488 0.40361 0.0
C324 C 0.15384 0.44423 0.40684 0.0
O325 O 0.15862 0.45588 0.40695 0.0
C326 C 0.21057 0.43822 0.39732 0.0
C327 C 0.2263 0.46354 0.35976 0.0
O328 O 0.23554 0.46556 0.36752 0.0
O329 O 0.21501 0.46216 0.3645 0.0
O330 O 0.20558 0.88369 0.25033 0.0
Cd331 Cd 0.20074 0.90655 0.24754 0.0
O332 O 0.19119 0.87635 0.23695 0.0
Cd333 Cd 0.18178 0.89497 0.23431 0.0
O334 O 0.16404 0.9062 0.23549 0.0
C335 C 0.15927 0.90809 0.24661 0.0
O336 O 0.1657 0.90412 0.25673 0.0
C337 C 0.20046 0.87432 0.24458 0.0
C338 C 0.22406 0.91943 0.24608 0.0
O339 O 0.21885 0.91671 0.25696 0.0
O340 O 0.21806 0.91642 0.23584 0.0
O341 O 0.47397 0.73219 0.8947 0.0
Cd342 Cd 0.47772 0.71307 0.88166 0.0
O343 O 0.49359 0.73032 0.90181 0.0
Cd344 Cd 0.51134 0.73612 0.91125 0.0
O345 O 0.53039 0.74026 0.91871 0.0
C346 C 0.53451 0.73474 0.92883 0.0
O347 O 0.52704 0.72661 0.93499 0.0
C348 C 0.48297 0.73643 0.90162 0.0
C349 C 0.46713 0.71584 0.85721 0.0
O350 O 0.46092 0.71026 0.86633 0.0
O351 O 0.47834 0.7201 0.85964 0.0
O352 O 0.95249 0.47242 0.87098 0.0
Cd353 Cd 0.9584 0.47281 0.89369 0.0
O354 O 0.95141 0.4935 0.86914 0.0
Cd355 Cd 0.95597 0.49863 0.88889 0.0
O356 O 0.95522 0.51475 0.90222 0.0
C357 C 0.94414 0.519 0.90521 0.0
O358 O 0.93403 0.51286 0.90106 0.0
C359 C 0.95045 0.48243 0.86418 0.0
C360 C 0.95888 0.44792 0.90394 0.0
O361 O 0.94859 0.45474 0.90421 0.0
O362 O 0.96896 0.45292 0.89893 0.0
O363 O 0.73865 0.30047 0.21492 0.0
Cd364 Cd 0.71852 0.3125 0.21317 0.0
O365 O 0.73551 0.29397 0.19523 0.0
Cd366 Cd 0.74086 0.28514 0.17688 0.0
O367 O 0.74596 0.27745 0.15801 0.0
C368 C 0.74266 0.26619 0.1548 0.0
O369 O 0.73616 0.2591 0.16304 0.0
C370 C 0.74244 0.29405 0.20525 0.0
C371 C 0.72067 0.33738 0.22268 0.0
O372 O 0.71628 0.32825 0.22976 0.0
O373 O 0.72404 0.33474 0.21111 0.0
O374 O 0.74151 0.7121 0.38541 0.0
Cd375 Cd 0.74104 0.71003 0.40885 0.0
O376 O 0.73088 0.69442 0.38134 0.0
Cd377 Cd 0.73022 0.68758 0.40123 0.0
O378 O 0.73258 0.67142 0.41455 0.0
C379 C 0.72413 0.66267 0.41462 0.0
O380 O 0.7139 0.66422 0.40746 0.0
C381 C 0.73649 0.70452 0.37738 0.0
C382 C 0.73979 0.73444 0.41978 0.0
O383 O 0.75053 0.72949 0.41626 0.0
O384 O 0.72962 0.72778 0.41834 0.0
O385 O 0.9298 0.89134 0.72197 0.0
Cd386 Cd 0.95115 0.88165 0.72361 0.0
O387 O 0.93315 0.89488 0.70141 0.0
Cd388 Cd 0.92725 0.90045 0.68196 0.0
O389 O 0.92142 0.90493 0.66229 0.0
C390 C 0.91396 0.91433 0.65981 0.0
O391 O 0.9097 0.9215 0.66929 0.0
C392 C 0.92588 0.89573 0.71125 0.0
C393 C 0.95002 0.8552 0.72802 0.0
O394 O 0.94974 0.86316 0.73737 0.0
O395 O 0.95083 0.85976 0.71655 0.0
O396 O 0.94139 0.6979 0.7936 0.0
Cd397 Cd 0.94741 0.69598 0.77092 0.0
O398 O 0.95659 0.68511 0.80093 0.0
Cd399 Cd 0.9616 0.67806 0.78182 0.0
O400 O 0.96071 0.66185 0.76868 0.0
C401 C 0.94984 0.65906 0.76407 0.0
O402 O 0.94001 0.66665 0.76654 0.0
C403 C 0.94727 0.69278 0.80302 0.0
C404 C 0.94802 0.72052 0.75988 0.0
O405 O 0.93768 0.71395 0.76011 0.0
O406 O 0.95816 0.71537 0.76463 0.0
O407 O 0.93779 0.28202 0.95895 0.0
Cd408 Cd 0.9594 0.29013 0.95497 0.0
O409 O 0.94084 0.284 0.97967 0.0
Cd410 Cd 0.93564 0.28147 -2e-05 0.0
O411 O 0.93263 0.2782 0.02058 0.0
C412 C 0.93307 0.26685 0.02517 0.0
O413 O 0.93516 0.25719 0.01734 0.0
C414 C 0.93359 0.28099 0.97041 0.0
C415 C 0.95903 0.31587 0.94718 0.0
O416 O 0.95846 0.30678 0.93895 0.0
O417 O 0.95977 0.31277 0.95911 0.0
O418 O 0.7416 0.48728 0.306 0.0
Cd419 Cd 0.73457 0.48974 0.28372 0.0
O420 O 0.72571 0.49912 0.31354 0.0
Cd421 Cd 0.72075 0.50685 0.29465 0.0
O422 O 0.72203 0.5235 0.28181 0.0
C423 C 0.73324 0.5273 0.27887 0.0
O424 O 0.74314 0.5205 0.28283 0.0
C425 C 0.73536 0.49185 0.31551 0.0
C426 C 0.73172 0.46564 0.27254 0.0
O427 O 0.7421 0.47201 0.27103 0.0
O428 O 0.72265 0.47073 0.2792 0.0
O429 O 0.74549 0.90509 0.46222 0.0
Cd430 Cd 0.72559 0.89409 0.45697 0.0
O431 O 0.7409 0.90529 0.48283 0.0
Cd432 Cd 0.74359 0.91059 0.50295 0.0
O433 O 0.74437 0.91489 0.52346 0.0
C434 C 0.74173 0.9261 0.52753 0.0
O435 O 0.73868 0.93516 0.51921 0.0
C436 C 0.74851 0.90809 0.47362 0.0
C437 C 0.72912 0.86772 0.45356 0.0
O438 O 0.73166 0.87575 0.4445 0.0
O439 O 0.72496 0.87214 0.4643 0.0
O440 O 0.87972 0.95977 0.46131 0.0
Cd441 Cd 0.90256 0.96367 0.45753 0.0
O442 O 0.88392 0.95841 0.48184 0.0
Cd443 Cd 0.88038 0.95606 0.50252 0.0
O444 O 0.881 0.95208 0.52316 0.0
C445 C 0.88711 0.94212 0.52686 0.0
O446 O 0.89247 0.93468 0.51815 0.0
C447 C 0.87585 0.95773 0.47276 0.0
C448 C 0.90956 0.961 0.43173 0.0
O449 O 0.90858 0.95118 0.43917 0.0
O450 O 0.9072 0.97212 0.43647 0.0
O451 O 0.37751 0.74011 0.70979 0.0
Cd452 Cd 0.39982 0.733 0.7074 0.0
O453 O 0.37061 0.7263 0.69555 0.0
Cd454 Cd 0.38969 0.72141 0.68825 0.0
O455 O 0.40295 0.72256 0.67192 0.0
C456 C 0.4065 0.73372 0.66841 0.0
O457 O 0.40285 0.74364 0.67531 0.0
C458 C 0.36828 0.73488 0.70391 0.0
C459 C 0.41147 0.73006 0.73135 0.0
O460 O 0.41261 0.74053 0.72486 0.0
O461 O 0.4049 0.72098 0.72648 0.0
O462 O 0.29464 0.222 0.75494 0.0
Cd463 Cd 0.30533 0.22915 0.73516 0.0
O464 O 0.29509 0.20181 0.74906 0.0
Cd465 Cd 0.28978 0.18157 0.75067 0.0
O466 O 0.28418 0.1614 0.7509 0.0
C467 C 0.2724 0.15839 0.75164 0.0
O468 O 0.26372 0.16758 0.75238 0.0
C469 C 0.29195 0.21031 0.75724 0.0
C470 C 0.33168 0.23251 0.73778 0.0
O471 O 0.32369 0.24119 0.74141 0.0
O472 O 0.32723 0.22214 0.73302 0.0
O473 O 0.28622 0.42856 0.20479 0.0
Cd474 Cd 0.26466 0.43736 0.20172 0.0
O475 O 0.29518 0.44633 0.19764 0.0
Cd476 Cd 0.27768 0.45287 0.18816 0.0
O477 O 0.26735 0.45366 0.16998 0.0
C478 C 0.27234 0.46019 0.16087 0.0
O479 O 0.28274 0.46682 0.16318 0.0
C480 C 0.2962 0.43532 0.20295 0.0
C481 C 0.25507 0.44444 0.22577 0.0
O482 O 0.25228 0.43355 0.2209 0.0
O483 O 0.2621 0.45211 0.21911 0.0
O484 O 0.8949 0.4646 0.73254 0.0
Cd485 Cd 0.88359 0.46465 0.71206 0.0
O486 O 0.8996 0.48464 0.72827 0.0
Cd487 Cd 0.90797 0.50369 0.73081 0.0
O488 O 0.91297 0.52395 0.73255 0.0
C489 C 0.92446 0.52762 0.73406 0.0
O490 O 0.93368 0.51896 0.73464 0.0
C491 C 0.90012 0.47503 0.73592 0.0
C492 C 0.85844 0.45603 0.71485 0.0
O493 O 0.86748 0.44836 0.71135 0.0
O494 O 0.8613 0.46777 0.71703 0.0
O495 O 0.79434 0.25043 0.9941 0.0
Cd496 Cd 0.77171 0.24491 -0.00308 0.0
O497 O 0.79999 0.23029 0.99082 0.0
Cd498 Cd 0.78237 0.22396 0.0003 0.0
O499 O 0.77248 0.22489 0.01887 0.0
C500 C 0.77973 0.22335 0.02853 0.0
O501 O 0.79191 0.22063 0.02652 0.0
C502 C 0.8028 0.24216 0.99083 0.0
C503 C 0.76103 0.24077 0.97278 0.0
O504 O 0.75993 0.25171 0.97827 0.0
O505 O 0.76693 0.23174 0.9788 0.0
O506 O 0.28521 0.94784 0.93416 0.0
Cd507 Cd 0.29379 0.94136 0.95504 0.0
O508 O 0.28259 0.96793 0.94003 0.0
Cd509 Cd 0.2783 0.98825 0.93617 0.0
O510 O 0.27513 0.00855 0.93143 0.0
C511 C 0.26657 0.01187 0.9234 0.0
O512 O 0.25956 0.00296 0.91808 0.0
C513 C 0.28163 0.95926 0.93153 0.0
C514 C 0.32037 0.93837 0.95411 0.0
O515 O 0.31293 0.92945 0.95031 0.0
O516 O 0.31526 0.94875 0.95838 0.0
O517 O 0.38071 0.22498 0.43972 0.0
Cd518 Cd 0.36915 0.2277 0.46006 0.0
O519 O 0.38539 0.20515 0.44519 0.0
Cd520 Cd 0.39229 0.18541 0.44257 0.0
O521 O 0.39773 0.16513 0.44159 0.0
C522 C 0.40942 0.16165 0.44094 0.0
O523 O 0.41837 0.17048 0.44072 0.0
C524 C 0.38607 0.21432 0.43703 0.0
C525 C 0.34306 0.2321 0.45599 0.0
O526 O 0.35102 0.24141 0.45622 0.0
O527 O 0.34743 0.22067 0.45774 0.0
C528 C 0.94423 0.43637 0.43359 0.0
C529 C 0.95168 0.4329 0.44429 0.0
C530 C 0.93177 0.44115 0.43525 0.0
C531 C 0.90955 0.45578 0.45889 0.0
H532 H 0.88322 0.44076 0.43772 0.0
C533 C 0.85654 0.47307 0.45962 0.0
C534 C 0.84722 0.46337 0.45995 0.0
C535 C 0.86947 0.47 0.45754 0.0
C536 C 0.89046 0.44502 0.44373 0.0
H537 H 0.95204 0.43212 0.46514 0.0
H538 H 0.93029 0.44048 0.46802 0.0
H539 H 0.90561 0.43456 0.43443 0.0
H540 H 0.84418 0.44284 0.45837 0.0
H541 H 0.86672 0.4375 0.45473 0.0
H542 H 0.89434 0.46608 0.46833 0.0
C543 C 0.93411 0.43954 0.45835 0.0
C544 C 0.90329 0.44157 0.44175 0.0
C545 C 0.94655 0.43469 0.4567 0.0
C546 C 0.85111 0.45054 0.45816 0.0
C547 C 0.86401 0.44749 0.456 0.0
C548 C 0.89671 0.4593 0.46081 0.0
C549 C 0.92652 0.44264 0.44764 0.0
C550 C 0.91297 0.44683 0.44938 0.0
C551 C 0.87333 0.45717 0.45565 0.0
C552 C 0.88702 0.45386 0.45332 0.0
H553 H 0.94792 0.43515 0.4239 0.0
H554 H 0.92621 0.44361 0.42681 0.0
H555 H 0.91681 0.46006 0.46486 0.0
H556 H 0.85385 0.48305 0.46096 0.0
H557 H 0.87642 0.47768 0.45723 0.0
C558 C 0.91852 0.96992 0.41114 0.0
C559 C 0.91335 0.95954 0.41809 0.0
C560 C 0.92229 0.96846 0.3983 0.0
C561 C 0.92932 0.94326 0.37367 0.0
H562 H 0.92577 0.97203 0.34998 0.0
C563 C 0.93147 0.9393 0.31806 0.0
C564 C 0.94018 0.94757 0.31186 0.0
C565 C 0.92881 0.94061 0.33119 0.0
C566 C 0.92687 0.96395 0.35653 0.0
H567 H 0.90783 0.93955 0.41701 0.0
H568 H 0.91376 0.93713 0.39448 0.0
H569 H 0.91953 0.97463 0.37246 0.0
H570 H 0.9529 0.96372 0.31449 0.0
H571 H 0.9479 0.96624 0.3374 0.0
H572 H 0.93612 0.93249 0.35744 0.0
C573 C 0.9154 0.9463 0.399 0.0
C574 C 0.92338 0.96543 0.36945 0.0
C575 C 0.91189 0.9477 0.41191 0.0
C576 C 0.94618 0.95718 0.31903 0.0
C577 C 0.94329 0.95867 0.3321 0.0
C578 C 0.93255 0.94172 0.36069 0.0
C579 C 0.92073 0.95664 0.392 0.0
C580 C 0.92456 0.95511 0.37822 0.0
C581 C 0.9346 0.95038 0.33827 0.0
C582 C 0.93138 0.95206 0.35204 0.0
H583 H 0.91987 0.97914 0.4157 0.0
H584 H 0.92658 0.97659 0.39338 0.0
H585 H 0.93067 0.93515 0.38012 0.0
H586 H 0.92674 0.93178 0.31278 0.0
H587 H 0.92203 0.93415 0.33575 0.0
C588 C 0.73629 0.74769 0.9278 0.0
C589 C 0.72914 0.75084 0.93887 0.0
C590 C 0.74906 0.74363 0.92879 0.0
C591 C 0.77273 0.73006 0.95146 0.0
H592 H 0.79768 0.74519 0.92808 0.0
C593 C 0.82589 0.71357 0.94951 0.0
C594 C 0.83509 0.72337 0.94889 0.0
C595 C 0.81286 0.71645 0.94803 0.0
C596 C 0.79083 0.74091 0.9347 0.0
H597 H 0.72973 0.75196 0.95969 0.0
H598 H 0.75201 0.74486 0.9614 0.0
H599 H 0.77504 0.75093 0.92609 0.0
H600 H 0.83781 0.74387 0.94618 0.0
H601 H 0.81509 0.74887 0.94361 0.0
H602 H 0.78857 0.7202 0.9602 0.0
C603 C 0.74771 0.74547 0.95196 0.0
C604 C 0.77785 0.74409 0.93348 0.0
C605 C 0.73497 0.7496 0.95097 0.0
C606 C 0.83098 0.73609 0.9467 0.0
C607 C 0.81796 0.73895 0.94515 0.0
C608 C 0.78571 0.72681 0.95263 0.0
C609 C 0.75494 0.74256 0.94088 0.0
C610 C 0.76867 0.73877 0.9419 0.0
C611 C 0.80875 0.72917 0.94583 0.0
C612 C 0.79492 0.73228 0.94433 0.0
H613 H 0.73209 0.74851 0.91834 0.0
H614 H 0.75434 0.74131 0.92009 0.0
H615 H 0.76587 0.72572 0.95802 0.0
H616 H 0.82874 0.70367 0.95117 0.0
H617 H 0.806 0.70869 0.94848 0.0
C618 C 0.73501 0.21937 0.86025 0.0
C619 C 0.72424 0.22592 0.85542 0.0
C620 C 0.73867 0.22087 0.87305 0.0
C621 C 0.72658 0.23271 0.90474 0.0
H622 H 0.76273 0.23178 0.9132 0.0
C623 C 0.74727 0.24746 0.95418 0.0
C624 C 0.75603 0.23872 0.95968 0.0
C625 C 0.74295 0.24574 0.94161 0.0
C626 C 0.7526 0.23198 0.91097 0.0
H627 H 0.70895 0.23934 0.86013 0.0
H628 H 0.71559 0.2424 0.88229 0.0
H629 H 0.75622 0.22948 0.8909 0.0
H630 H 0.76709 0.22131 0.95635 0.0
H631 H 0.75974 0.21848 0.9343 0.0
H632 H 0.72311 0.23565 0.92488 0.0
C633 C 0.72102 0.23577 0.87636 0.0
C634 C 0.74884 0.23059 0.8982 0.0
C635 C 0.71725 0.23409 0.86361 0.0
C636 C 0.76032 0.22819 0.95239 0.0
C637 C 0.75617 0.2266 0.93976 0.0
C638 C 0.73038 0.23431 0.9175 0.0
C639 C 0.73176 0.22914 0.88128 0.0
C640 C 0.73577 0.23085 0.8949 0.0
C641 C 0.74749 0.23538 0.93424 0.0
C642 C 0.74342 0.23387 0.92073 0.0
H643 H 0.74053 0.21291 0.8542 0.0
H644 H 0.74682 0.21539 0.87651 0.0
H645 H 0.71643 0.23274 0.90266 0.0
H646 H 0.74378 0.25566 0.95958 0.0
H647 H 0.73629 0.25268 0.93755 0.0
C648 C 0.82558 0.74635 0.21668 0.0
C649 C 0.8208 0.73379 0.21591 0.0
C650 C 0.83878 0.74853 0.21684 0.0
C651 C 0.86977 0.73241 0.22355 0.0
H652 H 0.8838 0.76161 0.20496 0.0
C653 C 0.92196 0.74922 0.23019 0.0
C654 C 0.92868 0.75354 0.21923 0.0
C655 C 0.90888 0.74646 0.22954 0.0
C656 C 0.88007 0.75334 0.21011 0.0
H657 H 0.82616 0.71366 0.21462 0.0
H658 H 0.84921 0.71746 0.21471 0.0
H659 H 0.8609 0.75735 0.204 0.0
H660 H 0.92698 0.75818 0.19894 0.0
H661 H 0.90422 0.75319 0.19775 0.0
H662 H 0.88899 0.72825 0.22945 0.0
C663 C 0.84274 0.72563 0.21539 0.0
C664 C 0.8669 0.75099 0.20969 0.0
C665 C 0.82952 0.72345 0.21526 0.0
C666 C 0.92207 0.75493 0.20757 0.0
C667 C 0.909 0.75214 0.20691 0.0
C668 C 0.88295 0.73475 0.22395 0.0
C669 C 0.84753 0.73819 0.2162 0.0
C670 C 0.86158 0.74053 0.21645 0.0
C671 C 0.90223 0.74793 0.2179 0.0
C672 C 0.88825 0.74527 0.21727 0.0
H673 H 0.81911 0.75453 0.21725 0.0
H674 H 0.84213 0.75831 0.21766 0.0
H675 H 0.86598 0.72434 0.22897 0.0
H676 H 0.92676 0.74809 0.23933 0.0
H677 H 0.90394 0.74341 0.23822 0.0
C678 C 0.71234 0.94955 0.83655 0.0
C679 C 0.71995 0.95599 0.8455 0.0
C680 C 0.71595 0.94914 0.82358 0.0
C681 C 0.7441 0.95436 0.80182 0.0
H682 H 0.71815 0.95446 0.7753 0.0
C683 C 0.75581 0.96145 0.74786 0.0
C684 C 0.75087 0.95205 0.73965 0.0
C685 C 0.75173 0.96212 0.76067 0.0
C686 C 0.72547 0.95437 0.78263 0.0
H687 H 0.73714 0.96727 0.84785 0.0
H688 H 0.74317 0.96703 0.8252 0.0
H689 H 0.71165 0.95552 0.79788 0.0
H690 H 0.73755 0.93622 0.73835 0.0
H691 H 0.7302 0.93762 0.76072 0.0
H692 H 0.7579 0.95361 0.78645 0.0
C693 C 0.73464 0.96191 0.82819 0.0
C694 C 0.72178 0.9549 0.79558 0.0
C695 C 0.73114 0.96213 0.84119 0.0
C696 C 0.74154 0.94354 0.74445 0.0
C697 C 0.7373 0.94437 0.75722 0.0
C698 C 0.74778 0.95405 0.78888 0.0
C699 C 0.72714 0.95533 0.8192 0.0
C700 C 0.73104 0.95487 0.80537 0.0
C701 C 0.74249 0.95355 0.76548 0.0
C702 C 0.73851 0.95402 0.77917 0.0
H703 H 0.7037 0.94464 0.8396 0.0
H704 H 0.71004 0.94377 0.81704 0.0
H705 H 0.75152 0.95402 0.80903 0.0
H706 H 0.76303 0.96812 0.74446 0.0
H707 H 0.75581 0.96934 0.76684 0.0
C708 C 0.84135 0.43984 0.71078 0.0
C709 C 0.84511 0.45147 0.71631 0.0
C710 C 0.82872 0.43558 0.71205 0.0
C711 C 0.79575 0.44683 0.72086 0.0
H712 H 0.7893 0.41024 0.72359 0.0
C713 C 0.74654 0.42486 0.73514 0.0
C714 C 0.74215 0.41507 0.72709 0.0
C715 C 0.75899 0.42963 0.73371 0.0
C716 C 0.79097 0.42048 0.72276 0.0
H717 H 0.83864 0.46768 0.72768 0.0
H718 H 0.81676 0.46003 0.73035 0.0
H719 H 0.81128 0.41784 0.72169 0.0
H720 H 0.74734 0.40258 0.71124 0.0
H721 H 0.76917 0.41073 0.70895 0.0
H722 H 0.77536 0.44937 0.72236 0.0
C723 C 0.82342 0.45436 0.72467 0.0
C724 C 0.80357 0.42486 0.7216 0.0
C725 C 0.836 0.45872 0.72322 0.0
C726 C 0.75044 0.41015 0.71758 0.0
C727 C 0.76294 0.41475 0.7163 0.0
C728 C 0.78316 0.44244 0.72223 0.0
C729 C 0.81958 0.44274 0.71907 0.0
C730 C 0.80614 0.43809 0.72054 0.0
C731 C 0.76733 0.42452 0.72436 0.0
C732 C 0.78066 0.42922 0.72311 0.0
H733 H 0.84813 0.4341 0.7053 0.0
H734 H 0.82612 0.42673 0.70736 0.0
H735 H 0.79729 0.45706 0.71984 0.0
H736 H 0.74036 0.42886 0.74254 0.0
H737 H 0.76218 0.43712 0.74008 0.0
C738 C 0.92734 0.24679 0.24098 0.0
C739 C 0.91809 0.2381 0.23672 0.0
C740 C 0.93211 0.2459 0.2535 0.0
C741 C 0.93363 0.2238 0.28199 0.0
H742 H 0.94172 0.25516 0.30002 0.0
C743 C 0.94153 0.22615 0.33694 0.0
C744 C 0.95276 0.23234 0.34084 0.0
C745 C 0.93766 0.22675 0.32411 0.0
C746 C 0.93957 0.24633 0.29506 0.0
H747 H 0.9065 0.22172 0.24223 0.0
H748 H 0.91437 0.22046 0.26415 0.0
H749 H 0.93423 0.25637 0.27789 0.0
H750 H 0.96864 0.24418 0.33442 0.0
H751 H 0.96166 0.24549 0.31203 0.0
H752 H 0.93856 0.21386 0.29943 0.0
C753 C 0.91831 0.22773 0.25777 0.0
C754 C 0.93535 0.24699 0.28234 0.0
C755 C 0.91371 0.22849 0.2452 0.0
C756 C 0.95996 0.23928 0.33169 0.0
C757 C 0.95595 0.24008 0.3189 0.0
C758 C 0.93765 0.22317 0.29477 0.0
C759 C 0.92757 0.23642 0.26212 0.0
C760 C 0.93231 0.23572 0.27561 0.0
C761 C 0.94481 0.23375 0.31499 0.0
C762 C 0.94065 0.23443 0.30141 0.0
H763 H 0.93097 0.25424 0.23463 0.0
H764 H 0.93942 0.25261 0.25636 0.0
H765 H 0.93167 0.21489 0.27709 0.0
H766 H 0.9358 0.2207 0.34377 0.0
H767 H 0.92898 0.22186 0.32134 0.0
C768 C 0.45947 0.85353 0.45307 0.0
C769 C 0.45961 0.84986 0.4661 0.0
C770 C 0.45827 0.86647 0.44954 0.0
C771 C 0.44763 0.89814 0.46176 0.0
H772 H 0.46759 0.911 0.43284 0.0
C773 C 0.46099 0.94921 0.43436 0.0
C774 C 0.44872 0.95485 0.43372 0.0
C775 C 0.46258 0.93668 0.43907 0.0
C776 C 0.46204 0.90761 0.44103 0.0
H777 H 0.45858 0.85692 0.48567 0.0
H778 H 0.45665 0.87951 0.47951 0.0
H779 H 0.47 0.88867 0.4396 0.0
H780 H 0.42852 0.95183 0.43779 0.0
H781 H 0.43127 0.92994 0.44584 0.0
H782 H 0.43984 0.91717 0.46332 0.0
C783 C 0.4573 0.87237 0.472 0.0
C784 C 0.4633 0.89475 0.4448 0.0
C785 C 0.45847 0.85942 0.47553 0.0
C786 C 0.43811 0.94778 0.43817 0.0
C787 C 0.4397 0.93524 0.44285 0.0
C788 C 0.44639 0.91102 0.458 0.0
C789 C 0.45721 0.87606 0.45896 0.0
C790 C 0.45606 0.88983 0.45516 0.0
C791 C 0.45194 0.92949 0.44323 0.0
C792 C 0.45354 0.9159 0.44755 0.0
H793 H 0.46027 0.84641 0.44556 0.0
H794 H 0.45803 0.86894 0.43941 0.0
H795 H 0.44183 0.89464 0.46972 0.0
H796 H 0.46937 0.95441 0.43108 0.0
H797 H 0.47217 0.93262 0.43943 0.0
C798 C 0.21735 0.94615 0.76152 0.0
C799 C 0.22733 0.95391 0.75677 0.0
C800 C 0.21618 0.93345 0.75744 0.0
C801 C 0.22415 0.9112 0.73157 0.0
H802 H 0.22212 0.8849 0.75813 0.0
C803 C 0.22752 0.85715 0.71954 0.0
C804 C 0.22025 0.84852 0.727 0.0
C805 C 0.22831 0.87008 0.72296 0.0
C806 C 0.22245 0.89209 0.75056 0.0
H807 H 0.24364 0.95459 0.74371 0.0
H808 H 0.2414 0.93243 0.73637 0.0
H809 H 0.22311 0.90743 0.76415 0.0
H810 H 0.20789 0.84672 0.74377 0.0
H811 H 0.20882 0.86932 0.74948 0.0
H812 H 0.22314 0.89598 0.71794 0.0
C813 C 0.23457 0.93619 0.74332 0.0
C814 C 0.22308 0.90501 0.75404 0.0
C815 C 0.23587 0.94883 0.74756 0.0
C816 C 0.21367 0.85311 0.73789 0.0
C817 C 0.21429 0.86608 0.74121 0.0
C818 C 0.22331 0.89829 0.72807 0.0
C819 C 0.22484 0.92832 0.74838 0.0
C820 C 0.22397 0.91467 0.74459 0.0
C821 C 0.22167 0.87475 0.73383 0.0
C822 C 0.22248 0.88854 0.73752 0.0
H823 H 0.21064 0.94976 0.76864 0.0
H824 H 0.20854 0.92761 0.76141 0.0
H825 H 0.22474 0.9185 0.72411 0.0
H826 H 0.23277 0.85387 0.71113 0.0
H827 H 0.23428 0.87637 0.71717 0.0
C828 C 0.22846 0.25579 0.92787 0.0
C829 C 0.22048 0.25301 0.91743 0.0
C830 C 0.22985 0.26844 0.93204 0.0
C831 C 0.22772 0.30185 0.92121 0.0
H832 H 0.22324 0.30981 0.95733 0.0
C833 C 0.2256 0.3542 0.93902 0.0
C834 C 0.23086 0.35694 0.95108 0.0
C835 C 0.22448 0.3415 0.93493 0.0
C836 C 0.22474 0.30776 0.94724 0.0
H837 H 0.20781 0.26133 0.90311 0.0
H838 H 0.21044 0.28346 0.91027 0.0
H839 H 0.22128 0.28766 0.95018 0.0
H840 H 0.23931 0.34854 0.9682 0.0
H841 H 0.23781 0.32643 0.96091 0.0
H842 H 0.23151 0.32181 0.91822 0.0
C843 C 0.21556 0.27582 0.91524 0.0
C844 C 0.22356 0.29506 0.94315 0.0
C845 C 0.21401 0.26316 0.91119 0.0
C846 C 0.23511 0.34673 0.9589 0.0
C847 C 0.23417 0.33403 0.95474 0.0
C848 C 0.2291 0.31452 0.92531 0.0
C849 C 0.22345 0.27858 0.92573 0.0
C850 C 0.22496 0.292 0.93009 0.0
C851 C 0.22877 0.33123 0.94272 0.0
C852 C 0.22755 0.31767 0.93837 0.0
H853 H 0.23356 0.24818 0.93288 0.0
H854 H 0.23605 0.27033 0.9401 0.0
H855 H 0.229 0.29971 0.91109 0.0
H856 H 0.22216 0.36187 0.93281 0.0
H857 H 0.22006 0.33975 0.92574 0.0
C858 C 0.45049 0.32513 0.21959 0.0
C859 C 0.44807 0.32624 0.20635 0.0
C860 C 0.4504 0.3131 0.22567 0.0
C861 C 0.45405 0.27853 0.2201 0.0
H862 H 0.43387 0.27487 0.25142 0.0
C863 C 0.4558 0.23347 0.25338 0.0
C864 C 0.44388 0.22865 0.25751 0.0
C865 C 0.45651 0.24519 0.24673 0.0
C866 C 0.43951 0.27574 0.24266 0.0
H867 H 0.44399 0.31557 0.18903 0.0
H868 H 0.44404 0.29452 0.19965 0.0
H869 H 0.43502 0.29577 0.24059 0.0
H870 H 0.42337 0.23232 0.25784 0.0
H871 H 0.42467 0.25286 0.2464 0.0
H872 H 0.45858 0.25849 0.22223 0.0
C873 C 0.44595 0.30298 0.20531 0.0
C874 C 0.44025 0.28772 0.23653 0.0
C875 C 0.44586 0.31503 0.19925 0.0
C876 C 0.4327 0.23576 0.25479 0.0
C877 C 0.43343 0.24755 0.2483 0.0
C878 C 0.45345 0.26658 0.22634 0.0
C879 C 0.44806 0.30191 0.21861 0.0
C880 C 0.44749 0.28922 0.22517 0.0
C881 C 0.44535 0.2524 0.24424 0.0
C882 C 0.44612 0.26506 0.23764 0.0
H883 H 0.45221 0.33357 0.22533 0.0
H884 H 0.45217 0.31254 0.23591 0.0
H885 H 0.45974 0.27945 0.21138 0.0
H886 H 0.46458 0.22821 0.25532 0.0
H887 H 0.46583 0.24875 0.24378 0.0
C888 C 0.45802 0.46866 0.85064 0.0
C889 C 0.46857 0.4621 0.84526 0.0
C890 C 0.45481 0.46699 0.86362 0.0
C891 C 0.46772 0.45425 0.89467 0.0
H892 H 0.43183 0.45505 0.90473 0.0
C893 C 0.44812 0.43707 0.94432 0.0
C894 C 0.4396 0.44556 0.95053 0.0
C895 C 0.45218 0.43949 0.93168 0.0
C896 C 0.44189 0.45489 0.90205 0.0
H897 H 0.48393 0.44852 0.84922 0.0
H898 H 0.47804 0.44517 0.87169 0.0
H899 H 0.43774 0.45817 0.88222 0.0
H900 H 0.4287 0.46328 0.9484 0.0
H901 H 0.43558 0.46734 0.92622 0.0
H902 H 0.47172 0.45048 0.91456 0.0
C903 C 0.47246 0.45194 0.86605 0.0
C904 C 0.44532 0.45675 0.88915 0.0
C905 C 0.4758 0.45379 0.85312 0.0
C906 C 0.4353 0.45658 0.94389 0.0
C907 C 0.43917 0.45887 0.93118 0.0
C908 C 0.46426 0.45217 0.90754 0.0
C909 C 0.46192 0.45853 0.87149 0.0
C910 C 0.45829 0.45651 0.88527 0.0
C911 C 0.4476 0.45032 0.92495 0.0
C912 C 0.45132 0.45253 0.91134 0.0
H913 H 0.45233 0.47521 0.84485 0.0
H914 H 0.4468 0.47245 0.86748 0.0
H915 H 0.47781 0.45423 0.89214 0.0
H916 H 0.45162 0.42851 0.9492 0.0
H917 H 0.45864 0.43273 0.92705 0.0
C918 C 0.24142 0.93103 0.234 0.0
C919 C 0.23699 0.92515 0.24538 0.0
C920 C 0.254 0.93556 0.23309 0.0
C921 C 0.28317 0.94211 0.25287 0.0
H922 H 0.30078 0.93769 0.22018 0.0
C923 C 0.33823 0.93836 0.24633 0.0
C924 C 0.34372 0.94679 0.23726 0.0
C925 C 0.32492 0.93734 0.24746 0.0
C926 C 0.29592 0.93909 0.22932 0.0
H927 H 0.24217 0.91952 0.26477 0.0
H928 H 0.26417 0.9268 0.26304 0.0
H929 H 0.27798 0.93294 0.2219 0.0
H930 H 0.33962 0.96073 0.2222 0.0
H931 H 0.31625 0.95856 0.22388 0.0
H932 H 0.30145 0.94751 0.26037 0.0
C933 C 0.25792 0.92839 0.25492 0.0
C934 C 0.28283 0.93645 0.23033 0.0
C935 C 0.24528 0.92411 0.2559 0.0
C936 C 0.33564 0.95418 0.2293 0.0
C937 C 0.32231 0.95293 0.23023 0.0
C938 C 0.29632 0.94447 0.25191 0.0
C939 C 0.26252 0.93406 0.24345 0.0
C940 C 0.27627 0.93779 0.24216 0.0
C941 C 0.31686 0.94452 0.23934 0.0
C942 C 0.30281 0.94288 0.24016 0.0
H943 H 0.23519 0.93206 0.22576 0.0
H944 H 0.25704 0.94013 0.2242 0.0
H945 H 0.27846 0.94358 0.26206 0.0
H946 H 0.34423 0.93259 0.25263 0.0
H947 H 0.32091 0.93073 0.2545 0.0
C948 C 0.23141 0.73006 0.3554 0.0
C949 C 0.23893 0.72313 0.34655 0.0
C950 C 0.23505 0.73084 0.36828 0.0
C951 C 0.26311 0.72571 0.38979 0.0
H952 H 0.23706 0.72653 0.41662 0.0
C953 C 0.27465 0.71964 0.44376 0.0
C954 C 0.26942 0.72906 0.45191 0.0
C955 C 0.27073 0.71884 0.43097 0.0
C956 C 0.24442 0.72637 0.4092 0.0
H957 H 0.25607 0.71141 0.34428 0.0
H958 H 0.26217 0.71234 0.36678 0.0
H959 H 0.23065 0.72509 0.39417 0.0
H960 H 0.25576 0.74484 0.45315 0.0
H961 H 0.24872 0.74324 0.43083 0.0
H962 H 0.27686 0.72661 0.40495 0.0
C963 C 0.25366 0.71753 0.36377 0.0
C964 C 0.24077 0.72562 0.39632 0.0
C965 C 0.25012 0.71692 0.35085 0.0
C966 C 0.25999 0.7375 0.44709 0.0
C967 C 0.25592 0.73655 0.43435 0.0
C968 C 0.26675 0.72626 0.40267 0.0
C969 C 0.24621 0.72455 0.37266 0.0
C970 C 0.25007 0.72531 0.38642 0.0
C971 C 0.26136 0.72731 0.42614 0.0
C972 C 0.25744 0.72663 0.4125 0.0
H973 H 0.22277 0.73502 0.35235 0.0
H974 H 0.22918 0.73654 0.37475 0.0
H975 H 0.27056 0.72577 0.38247 0.0
H976 H 0.28195 0.71302 0.44718 0.0
H977 H 0.275 0.71156 0.42485 0.0
C978 C 0.43612 0.91768 0.9629 0.0
C979 C 0.44123 0.91169 0.95193 0.0
C980 C 0.42345 0.9222 0.96302 0.0
C981 C 0.39548 0.92888 0.94141 0.0
H982 H 0.3761 0.92575 0.97327 0.0
C983 C 0.34005 0.92777 0.94516 0.0
C984 C 0.33444 0.93668 0.95364 0.0
C985 C 0.35335 0.92603 0.94478 0.0
C986 C 0.38146 0.92677 0.96435 0.0
H987 H 0.43714 0.90574 0.93248 0.0
H988 H 0.41496 0.913 0.93285 0.0
H989 H 0.39885 0.92018 0.97294 0.0
H990 H 0.3383 0.95068 0.96842 0.0
H991 H 0.3616 0.94726 0.96806 0.0
H992 H 0.37776 0.93478 0.93276 0.0
C993 C 0.42076 0.91469 0.94125 0.0
C994 C 0.39452 0.92366 0.96414 0.0
C995 C 0.43349 0.91042 0.94104 0.0
C996 C 0.34238 0.94379 0.96176 0.0
C997 C 0.35566 0.94182 0.96159 0.0
C998 C 0.38236 0.93171 0.94158 0.0
C999 C 0.41551 0.92059 0.95226 0.0
C1000 C 0.40172 0.92458 0.95264 0.0
C1001 C 0.36124 0.93295 0.95307 0.0
C1002 C 0.37524 0.93061 0.95303 0.0
H1003 H 0.44191 0.91888 0.97141 0.0
H1004 H 0.4199 0.92694 0.97159 0.0
H1005 H 0.4007 0.93003 0.93244 0.0
H1006 H 0.33417 0.9222 0.93876 0.0
H1007 H 0.35746 0.91908 0.93819 0.0
C1008 C 0.22868 0.25803 0.45083 0.0
C1009 C 0.22337 0.25908 0.43848 0.0
C1010 C 0.24135 0.25387 0.45243 0.0
C1011 C 0.27212 0.25247 0.4351 0.0
H1012 H 0.28237 0.22993 0.46314 0.0
C1013 C 0.32475 0.24693 0.45083 0.0
C1014 C 0.32923 0.23448 0.45374 0.0
C1015 C 0.31173 0.24921 0.44864 0.0
C1016 C 0.27964 0.23615 0.4552 0.0
H1017 H 0.2271 0.25622 0.41814 0.0
H1018 H 0.24921 0.24893 0.42094 0.0
H1019 H 0.25964 0.23467 0.45981 0.0
H1020 H 0.32354 0.21465 0.45664 0.0
H1021 H 0.30076 0.21866 0.45282 0.0
H1022 H 0.2921 0.25397 0.43049 0.0
C1023 C 0.2436 0.25145 0.42938 0.0
C1024 C 0.26664 0.23896 0.45337 0.0
C1025 C 0.23091 0.25556 0.42779 0.0
C1026 C 0.32039 0.22436 0.45444 0.0
C1027 C 0.30734 0.22666 0.45231 0.0
C1028 C 0.28511 0.24973 0.43698 0.0
C1029 C 0.24901 0.25071 0.4417 0.0
C1030 C 0.26275 0.24721 0.44334 0.0
C1031 C 0.30287 0.23911 0.44936 0.0
C1032 C 0.28903 0.24162 0.4471 0.0
H1033 H 0.22313 0.26066 0.45928 0.0
H1034 H 0.24527 0.25351 0.46204 0.0
H1035 H 0.26945 0.25896 0.42736 0.0
H1036 H 0.33131 0.25495 0.45023 0.0
H1037 H 0.30857 0.25894 0.44655 0.0
C1038 C 0.44604 0.25855 0.7295 0.0
C1039 C 0.45063 0.26492 0.74037 0.0
C1040 C 0.43367 0.25345 0.72949 0.0
C1041 C 0.40586 0.24572 0.75128 0.0
H1042 H 0.38685 0.24728 0.7194 0.0
C1043 C 0.35046 0.24362 0.74738 0.0
C1044 C 0.34564 0.23458 0.73874 0.0
C1045 C 0.36363 0.24597 0.74794 0.0
C1046 C 0.3921 0.24669 0.72833 0.0
H1047 H 0.44591 0.27096 0.75974 0.0
H1048 H 0.42419 0.26268 0.75954 0.0
H1049 H 0.40914 0.2541 0.71962 0.0
H1050 H 0.35079 0.22086 0.72394 0.0
H1051 H 0.37382 0.22531 0.72464 0.0
H1052 H 0.38843 0.23897 0.76004 0.0
C1053 C 0.43021 0.26115 0.75115 0.0
C1054 C 0.40492 0.25052 0.72848 0.0
C1055 C 0.44266 0.266 0.75125 0.0
C1056 C 0.35424 0.22786 0.73072 0.0
C1057 C 0.36739 0.23042 0.73108 0.0
C1058 C 0.39296 0.24215 0.75117 0.0
C1059 C 0.42549 0.25484 0.74025 0.0
C1060 C 0.41198 0.25016 0.73998 0.0
C1061 C 0.37217 0.23951 0.73968 0.0
C1062 C 0.38597 0.24266 0.73971 0.0
H1063 H 0.45203 0.25747 0.721 0.0
H1064 H 0.43055 0.24842 0.72101 0.0
H1065 H 0.41099 0.245 0.76027 0.0
H1066 H 0.34406 0.24892 0.7537 0.0
H1067 H 0.36711 0.25308 0.75459 0.0
C1068 C 0.21971 0.45661 0.3378 0.0
C1069 C 0.22864 0.46263 0.34575 0.0
C1070 C 0.22213 0.45533 0.32463 0.0
C1071 C 0.24885 0.45665 0.30061 0.0
H1072 H 0.22095 0.45717 0.27616 0.0
C1073 C 0.25707 0.45761 0.24566 0.0
C1074 C 0.25088 0.4478 0.23895 0.0
C1075 C 0.25388 0.4601 0.25848 0.0
C1076 C 0.22881 0.45698 0.28291 0.0
H1077 H 0.24692 0.47237 0.34611 0.0
H1078 H 0.25091 0.47067 0.32309 0.0
H1079 H 0.21637 0.46056 0.29895 0.0
H1080 H 0.23616 0.43322 0.24025 0.0
H1081 H 0.23037 0.43781 0.26262 0.0
H1082 H 0.26127 0.45342 0.28442 0.0
C1083 C 0.24223 0.4665 0.32703 0.0
C1084 C 0.22621 0.45884 0.29598 0.0
C1085 C 0.23991 0.46757 0.34023 0.0
C1086 C 0.24112 0.44082 0.24518 0.0
C1087 C 0.23777 0.44347 0.25795 0.0
C1088 C 0.25145 0.45503 0.28752 0.0
C1089 C 0.23344 0.46024 0.31905 0.0
C1090 C 0.23619 0.45862 0.30504 0.0
C1091 C 0.24428 0.45298 0.26477 0.0
C1092 C 0.24146 0.45511 0.27857 0.0
H1093 H 0.21096 0.45262 0.34181 0.0
H1094 H 0.21523 0.45024 0.3189 0.0
H1095 H 0.25677 0.45611 0.30725 0.0
H1096 H 0.26465 0.46313 0.24113 0.0
H1097 H 0.25898 0.46754 0.26353 0.0
C1098 C 0.46702 0.72575 0.83516 0.0
C1099 C 0.46151 0.71734 0.84425 0.0
C1100 C 0.46166 0.72724 0.82296 0.0
C1101 C 0.43168 0.7212 0.80475 0.0
H1102 H 0.45386 0.72657 0.7751 0.0
C1103 C 0.41386 0.71837 0.75235 0.0
C1104 C 0.41744 0.72855 0.74414 0.0
C1105 C 0.41929 0.71708 0.76455 0.0
C1106 C 0.44756 0.72516 0.78331 0.0
H1107 H 0.44617 0.70374 0.8476 0.0
H1108 H 0.43708 0.70597 0.82621 0.0
H1109 H 0.46326 0.72397 0.79637 0.0
H1110 H 0.42965 0.74525 0.74222 0.0
H1111 H 0.43928 0.74285 0.76348 0.0
H1112 H 0.41602 0.72206 0.79155 0.0
C1113 C 0.44532 0.71173 0.82858 0.0
C1114 C 0.45292 0.72372 0.79553 0.0
C1115 C 0.45059 0.71037 0.84084 0.0
C1116 C 0.42668 0.73732 0.74833 0.0
C1117 C 0.43224 0.73592 0.76046 0.0
C1118 C 0.42635 0.72246 0.79252 0.0
C1119 C 0.45075 0.72022 0.81947 0.0
C1120 C 0.44505 0.72174 0.80643 0.0
C1121 C 0.42853 0.72583 0.76872 0.0
C1122 C 0.43423 0.72448 0.78169 0.0
H1123 H 0.4754 0.73133 0.83753 0.0
H1124 H 0.46598 0.73404 0.81632 0.0
H1125 H 0.42528 0.71995 0.81291 0.0
H1126 H 0.40676 0.71146 0.74942 0.0
H1127 H 0.41634 0.70915 0.77069 0.0
C1128 C 0.95983 0.33941 0.95207 0.0
C1129 C 0.9589 0.32951 0.94301 0.0
C1130 C 0.95984 0.35229 0.94811 0.0
C1131 C 0.96592 0.37296 0.91966 0.0
H1132 H 0.94715 0.39857 0.93929 0.0
C1133 C 0.94781 0.42901 0.91406 0.0
C1134 C 0.95905 0.43458 0.90905 0.0
C1135 C 0.94789 0.4163 0.91854 0.0
C1136 C 0.95237 0.39153 0.93365 0.0
H1137 H 0.95711 0.32539 0.92269 0.0
H1138 H 0.95698 0.34783 0.9158 0.0
H1139 H 0.9468 0.37613 0.94623 0.0
H1140 H 0.97923 0.43123 0.90499 0.0
H1141 H 0.9794 0.40912 0.91293 0.0
H1142 H 0.97126 0.38829 0.90692 0.0
C1143 C 0.9579 0.34564 0.92595 0.0
C1144 C 0.95229 0.37868 0.93771 0.0
C1145 C 0.9579 0.33277 0.92991 0.0
C1146 C 0.9704 0.42721 0.90874 0.0
C1147 C 0.97048 0.41451 0.91322 0.0
C1148 C 0.966 0.3858 0.9156 0.0
C1149 C 0.9589 0.35556 0.93499 0.0
C1150 C 0.95904 0.36924 0.93075 0.0
C1151 C 0.95921 0.40887 0.9181 0.0
C1152 C 0.95922 0.39524 0.92254 0.0
H1153 H 0.96064 0.33723 0.96223 0.0
H1154 H 0.96078 0.35968 0.95531 0.0
H1155 H 0.97134 0.36597 0.91415 0.0
H1156 H 0.9389 0.43441 0.91441 0.0
H1157 H 0.93901 0.41221 0.92209 0.0
C1158 C 0.72053 0.44448 0.27135 0.0
C1159 C 0.73032 0.45268 0.26699 0.0
C1160 C 0.71946 0.43207 0.26645 0.0
C1161 C 0.72709 0.41226 0.23859 0.0
H1162 H 0.72455 0.38356 0.26246 0.0
C1163 C 0.72932 0.35973 0.22119 0.0
C1164 C 0.7218 0.35058 0.2277 0.0
C1165 C 0.73043 0.37219 0.22595 0.0
C1166 C 0.72503 0.39145 0.25563 0.0
H1167 H 0.74654 0.45438 0.2539 0.0
H1168 H 0.74449 0.43274 0.24515 0.0
H1169 H 0.726 0.40537 0.27067 0.0
H1170 H 0.70937 0.34736 0.24421 0.0
H1171 H 0.71089 0.36919 0.25227 0.0
H1172 H 0.72575 0.3985 0.22352 0.0
C1173 C 0.73771 0.43593 0.25242 0.0
C1174 C 0.72593 0.40394 0.26036 0.0
C1175 C 0.7389 0.44828 0.25747 0.0
C1176 C 0.71533 0.35417 0.23903 0.0
C1177 C 0.71628 0.36669 0.24369 0.0
C1178 C 0.72599 0.39979 0.23384 0.0
C1179 C 0.72805 0.42768 0.25695 0.0
C1180 C 0.727 0.41446 0.25189 0.0
C1181 C 0.72389 0.37587 0.23725 0.0
C1182 C 0.72499 0.3892 0.2423 0.0
H1183 H 0.71378 0.44758 0.2787 0.0
H1184 H 0.71187 0.42592 0.27003 0.0
H1185 H 0.72778 0.42023 0.23185 0.0
H1186 H 0.7345 0.35722 0.21248 0.0
H1187 H 0.73657 0.37889 0.22084 0.0
C1188 C 0.72394 0.84488 0.4592 0.0
C1189 C 0.73076 0.85375 0.45158 0.0
C1190 C 0.72508 0.83169 0.45691 0.0
C1191 C 0.7463 0.80707 0.44413 0.0
H1192 H 0.71558 0.78819 0.43588 0.0
C1193 C 0.74906 0.75634 0.42242 0.0
C1194 C 0.73912 0.74763 0.42495 0.0
C1195 C 0.74817 0.76902 0.42668 0.0
C1196 C 0.72425 0.79318 0.43843 0.0
H1197 H 0.74439 0.85579 0.43584 0.0
H1198 H 0.74668 0.83268 0.43213 0.0
H1199 H 0.7139 0.81073 0.44187 0.0
H1200 H 0.72063 0.74523 0.43429 0.0
H1201 H 0.71931 0.76715 0.44227 0.0
H1202 H 0.75669 0.78958 0.4411 0.0
C1203 C 0.74034 0.83598 0.43974 0.0
C1204 C 0.72326 0.80614 0.44178 0.0
C1205 C 0.73898 0.84917 0.44183 0.0
C1206 C 0.7284 0.75177 0.4321 0.0
C1207 C 0.72762 0.76439 0.43659 0.0
C1208 C 0.74728 0.79405 0.44105 0.0
C1209 C 0.7333 0.82714 0.44717 0.0
C1210 C 0.73429 0.81323 0.44448 0.0
C1211 C 0.73741 0.77326 0.4338 0.0
C1212 C 0.73629 0.78695 0.43794 0.0
H1213 H 0.7175 0.84814 0.46675 0.0
H1214 H 0.71958 0.82503 0.46277 0.0
H1215 H 0.75493 0.81234 0.4463 0.0
H1216 H 0.75739 0.75346 0.41683 0.0
H1217 H 0.7558 0.77556 0.42406 0.0
C1218 C 0.93665 0.73995 0.75109 0.0
C1219 C 0.94814 0.73385 0.75478 0.0
C1220 C 0.93662 0.75282 0.74713 0.0
C1221 C 0.95738 0.77893 0.73505 0.0
H1222 H 0.93133 0.80121 0.74996 0.0
C1223 C 0.95119 0.83244 0.72029 0.0
C1224 C 0.94947 0.84117 0.73042 0.0
C1225 C 0.95079 0.81919 0.72262 0.0
C1226 C 0.93868 0.79511 0.74575 0.0
H1227 H 0.96865 0.73637 0.75683 0.0
H1228 H 0.96858 0.75883 0.74988 0.0
H1229 H 0.9312 0.77825 0.75493 0.0
H1230 H 0.94593 0.84283 0.75093 0.0
H1231 H 0.94521 0.81974 0.75498 0.0
H1232 H 0.96497 0.79586 0.72604 0.0
C1233 C 0.95961 0.75364 0.75002 0.0
C1234 C 0.93853 0.78195 0.74848 0.0
C1235 C 0.95964 0.74079 0.75407 0.0
C1236 C 0.94728 0.83637 0.74291 0.0
C1237 C 0.94679 0.82314 0.74522 0.0
C1238 C 0.95747 0.7921 0.73224 0.0
C1239 C 0.94808 0.75984 0.74668 0.0
C1240 C 0.94794 0.77373 0.74325 0.0
C1241 C 0.94857 0.8144 0.73511 0.0
C1242 C 0.94819 0.80035 0.73766 0.0
H1243 H 0.92763 0.73487 0.7515 0.0
H1244 H 0.9276 0.7573 0.74446 0.0
H1245 H 0.96469 0.77282 0.7308 0.0
H1246 H 0.95289 0.83583 0.71055 0.0
H1247 H 0.95209 0.81269 0.71462 0.0
C1248 C 0.97653 0.3659 0.42887 0.0
C1249 C 0.98286 0.36881 0.44036 0.0
C1250 C 0.97428 0.35314 0.42551 0.0
C1251 C 0.96607 0.32532 0.42287 0.0
H1252 H 0.99456 0.30171 0.42803 0.0
C1253 C 0.96388 0.27172 0.40838 0.0
C1254 C 0.9749 0.26669 0.40234 0.0
C1255 C 0.96413 0.28383 0.41412 0.0
C1256 C 0.98653 0.30819 0.42648 0.0
H1257 H 0.99123 0.36059 0.45764 0.0
H1258 H 0.98716 0.33834 0.45184 0.0
H1259 H -0.00414 0.32355 0.43611 0.0
H1260 H 0.99454 0.27074 0.39683 0.0
H1261 H -0.00491 0.29172 0.40697 0.0
H1262 H 0.95695 0.31006 0.41281 0.0
C1263 C 0.98415 0.34593 0.44531 0.0
C1264 C 0.9872 0.32067 0.43127 0.0
C1265 C 0.98642 0.35869 0.44867 0.0
C1266 C 0.98609 0.27408 0.40193 0.0
C1267 C 0.98636 0.28616 0.40767 0.0
C1268 C 0.9654 0.31282 0.41808 0.0
C1269 C 0.97829 0.34299 0.43358 0.0
C1270 C 0.97706 0.32944 0.42937 0.0
C1271 C 0.9754 0.29118 0.41385 0.0
C1272 C 0.9757 0.30417 0.41968 0.0
H1273 H 0.97366 0.37345 0.42225 0.0
H1274 H 0.96986 0.35123 0.41634 0.0
H1275 H 0.95804 0.3318 0.42136 0.0
H1276 H 0.95508 0.26625 0.40875 0.0
H1277 H 0.95554 0.28739 0.41886 0.0
C1278 C 0.97513 0.80826 0.24316 0.0
C1279 C 0.98368 0.80338 0.23388 0.0
C1280 C 0.97587 0.82105 0.24703 0.0
C1281 C 0.98522 0.85257 0.23517 0.0
H1282 H 0.98153 0.8626 0.27088 0.0
C1283 C 0.96636 0.90213 0.25121 0.0
C1284 C 0.97252 0.9082 0.26144 0.0
C1285 C 0.96988 0.88969 0.24761 0.0
C1286 C 0.98273 0.85995 0.26089 0.0
H1287 H -0.00044 0.8081 0.22116 0.0
H1288 H 0.00083 0.83055 0.22789 0.0
H1289 H 0.9839 0.83986 0.26549 0.0
H1290 H 0.98704 0.90594 0.2761 0.0
H1291 H 0.99319 0.88409 0.26982 0.0
H1292 H 0.98363 0.87263 0.23055 0.0
C1293 C 0.99368 0.82439 0.2323 0.0
C1294 C 0.98398 0.84695 0.2578 0.0
C1295 C 0.99305 0.81152 0.22856 0.0
C1296 C 0.98234 0.90161 0.26798 0.0
C1297 C 0.98576 0.88907 0.26449 0.0
C1298 C 0.98381 0.86556 0.23825 0.0
C1299 C 0.98505 0.8293 0.24152 0.0
C1300 C 0.98504 0.84312 0.2449 0.0
C1301 C 0.9795 0.88296 0.25431 0.0
C1302 C 0.98235 0.86936 0.25113 0.0
H1303 H 0.96779 0.80219 0.24738 0.0
H1304 H 0.96899 0.82461 0.25402 0.0
H1305 H 0.98593 0.84989 0.22515 0.0
H1306 H 0.95871 0.90698 0.24606 0.0
H1307 H 0.96477 0.88516 0.23985 0.0
C1308 C 0.70343 0.82002 0.94233 0.0
C1309 C 0.69709 0.81111 0.93459 0.0
C1310 C 0.70458 0.83285 0.93839 0.0
C1311 C 0.70088 0.85427 0.90954 0.0
H1312 H 0.69876 0.88114 0.93514 0.0
C1313 C 0.69045 0.90749 0.89722 0.0
C1314 C 0.69938 0.9163 0.9019 0.0
C1315 C 0.69065 0.89472 0.90147 0.0
C1316 C 0.69943 0.8737 0.92792 0.0
H1317 H 0.68689 0.8087 0.91669 0.0
H1318 H 0.68838 0.83104 0.91008 0.0
H1319 H 0.69831 0.85864 0.94197 0.0
H1320 H 0.71543 0.91877 0.91472 0.0
H1321 H 0.71551 0.89643 0.92247 0.0
H1322 H 0.70143 0.86946 0.8955 0.0
C1323 C 0.69289 0.82814 0.91899 0.0
C1324 C 0.69927 0.8608 0.9318 0.0
C1325 C 0.69196 0.81529 0.92282 0.0
C1326 C 0.70841 0.91216 0.91102 0.0
C1327 C 0.70844 0.89943 0.91547 0.0
C1328 C 0.70079 0.86715 0.90567 0.0
C1329 C 0.69921 0.83712 0.9267 0.0
C1330 C 0.69992 0.85089 0.92266 0.0
C1331 C 0.69965 0.89058 0.91061 0.0
C1332 C 0.70002 0.87697 0.91481 0.0
H1333 H 0.70755 0.81706 0.95143 0.0
H1334 H 0.70972 0.83939 0.94449 0.0
H1335 H 0.70173 0.84698 0.90221 0.0
H1336 H 0.68358 0.91035 0.88997 0.0
H1337 H 0.68377 0.88805 0.8976 0.0
C1338 C 0.69939 0.25744 0.77793 0.0
C1339 C 0.70634 0.25588 0.78936 0.0
C1340 C 0.69973 0.26909 0.77113 0.0
C1341 C 0.71833 0.29918 0.76736 0.0
H1342 H 0.68637 0.31267 0.75383 0.0
C1343 C 0.71162 0.35193 0.75038 0.0
C1344 C 0.70402 0.35419 0.73948 0.0
C1345 C 0.71276 0.33956 0.75563 0.0
C1346 C 0.69542 0.30896 0.75739 0.0
H1347 H 0.7194 0.26512 0.80243 0.0
H1348 H 0.71987 0.2855 0.79068 0.0
H1349 H 0.68666 0.2918 0.76457 0.0
H1350 H 0.69204 0.34509 0.72525 0.0
H1351 H 0.69412 0.32355 0.73434 0.0
H1352 H 0.72702 0.3165 0.76034 0.0
C1353 C 0.71423 0.27772 0.78689 0.0
C1354 C 0.69559 0.29699 0.76354 0.0
C1355 C 0.71391 0.26607 0.79366 0.0
C1356 C 0.69792 0.34372 0.7337 0.0
C1357 C 0.69904 0.33138 0.73895 0.0
C1358 C 0.71815 0.31119 0.76123 0.0
C1359 C 0.70707 0.27941 0.7756 0.0
C1360 C 0.70703 0.29197 0.76866 0.0
C1361 C 0.7063 0.32918 0.75009 0.0
C1362 C 0.70668 0.31624 0.75622 0.0
H1363 H 0.69389 0.24961 0.77409 0.0
H1364 H 0.69434 0.26996 0.76231 0.0
H1365 H 0.72735 0.29552 0.77102 0.0
H1366 H 0.71645 0.35977 0.75507 0.0
H1367 H 0.71835 0.3382 0.76427 0.0
C1368 C 0.44619 0.99563 0.35975 0.0
C1369 C 0.44044 0.98951 0.37042 0.0
C1370 C 0.44204 0.99308 0.34728 0.0
C1371 C 0.41387 0.98123 0.32993 0.0
H1372 H 0.43761 0.97805 0.30121 0.0
C1373 C 0.39791 0.96388 0.28019 0.0
C1374 C 0.40291 0.97019 0.26929 0.0
C1375 C 0.40264 0.96648 0.29241 0.0
C1376 C 0.43086 0.97907 0.30911 0.0
H1377 H 0.4261 0.9756 0.37629 0.0
H1378 H 0.41898 0.97106 0.35455 0.0
H1379 H 0.44584 0.98171 0.32279 0.0
H1380 H 0.41726 0.9837 0.26257 0.0
H1381 H 0.42529 0.98854 0.28399 0.0
H1382 H 0.39889 0.97859 0.3163 0.0
C1383 C 0.42655 0.978 0.35585 0.0
C1384 C 0.43557 0.98115 0.32147 0.0
C1385 C 0.43069 0.98054 0.3683 0.0
C1386 C 0.41289 0.97903 0.27083 0.0
C1387 C 0.41765 0.98162 0.28308 0.0
C1388 C 0.40916 0.97915 0.31759 0.0
C1389 C 0.43205 0.98437 0.3452 0.0
C1390 C 0.42712 0.98218 0.33203 0.0
C1391 C 0.41255 0.97538 0.29401 0.0
C1392 C 0.4176 0.97799 0.30704 0.0
H1393 H 0.45372 0.00261 0.36103 0.0
H1394 H 0.44641 -0.00177 0.3393 0.0
H1395 H 0.40708 0.98225 0.33781 0.0
H1396 H 0.39029 0.95694 0.27928 0.0
H1397 H 0.39865 0.96134 0.3006 0.0
C1398 C 0.26453 0.78934 0.71726 0.0
C1399 C 0.25469 0.78477 0.7094 0.0
C1400 C 0.27652 0.78324 0.7174 0.0
C1401 C 0.29717 0.76182 0.69793 0.0
H1402 H 0.31628 0.75787 0.72958 0.0
C1403 C 0.34475 0.73359 0.69948 0.0
C1404 C 0.35489 0.73927 0.70615 0.0
C1405 C 0.33226 0.73841 0.70066 0.0
C1406 C 0.3111 0.75899 0.72066 0.0
H1407 H 0.24941 0.76969 0.69625 0.0
H1408 H 0.27034 0.75911 0.69637 0.0
H1409 H 0.29493 0.76767 0.7301 0.0
H1410 H 0.35976 0.75424 0.71964 0.0
H1411 H 0.33795 0.7627 0.72163 0.0
H1412 H 0.31334 0.75323 0.68847 0.0
C1413 C 0.26893 0.76764 0.70213 0.0
C1414 C 0.29887 0.76462 0.72094 0.0
C1415 C 0.25695 0.77376 0.70198 0.0
C1416 C 0.35217 0.74963 0.71437 0.0
C1417 C 0.33966 0.75445 0.71555 0.0
C1418 C 0.30937 0.75619 0.69765 0.0
C1419 C 0.2789 0.77237 0.70976 0.0
C1420 C 0.29178 0.76613 0.70957 0.0
C1421 C 0.3296 0.74903 0.70854 0.0
C1422 C 0.3165 0.75473 0.709 0.0
H1423 H 0.26304 0.79779 0.72312 0.0
H1424 H 0.28401 0.78721 0.72329 0.0
H1425 H 0.29208 0.76304 0.68896 0.0
H1426 H 0.34647 0.72555 0.69313 0.0
H1427 H 0.32469 0.73387 0.69531 0.0
C1428 C 0.2874 0.19547 0.77587 0.0
C1429 C 0.28482 0.20694 0.76911 0.0
C1430 C 0.28096 0.19274 0.78744 0.0
C1431 C 0.25195 0.20098 0.80614 0.0
H1432 H 0.27214 0.19199 0.8361 0.0
C1433 C 0.23245 0.20765 0.85737 0.0
C1434 C 0.23586 0.19881 0.86705 0.0
C1435 C 0.23792 0.20687 0.84511 0.0
C1436 C 0.26631 0.19425 0.8278 0.0
H1437 H 0.27351 0.22449 0.76908 0.0
H1438 H 0.2622 0.21968 0.78915 0.0
H1439 H 0.28255 0.19361 0.81503 0.0
H1440 H 0.2481 0.18247 0.87152 0.0
H1441 H 0.25731 0.18078 0.84994 0.0
H1442 H 0.23573 0.20171 0.81882 0.0
C1443 C 0.26911 0.21276 0.7855 0.0
C1444 C 0.27229 0.1952 0.81573 0.0
C1445 C 0.27564 0.21556 0.77406 0.0
C1446 C 0.24491 0.18915 0.86419 0.0
C1447 C 0.25038 0.18833 0.85186 0.0
C1448 C 0.24596 0.19993 0.81816 0.0
C1449 C 0.27175 0.20137 0.79236 0.0
C1450 C 0.26521 0.19887 0.80485 0.0
C1451 C 0.24696 0.19722 0.84217 0.0
C1452 C 0.25311 0.19686 0.8292 0.0
H1453 H 0.29466 0.18881 0.77244 0.0
H1454 H 0.2832 0.1839 0.79255 0.0
H1455 H 0.24623 0.20363 0.79787 0.0
H1456 H 0.22557 0.21527 0.85928 0.0
H1457 H 0.23525 0.21406 0.83801 0.0
C1458 C 0.31051 0.41745 0.21078 0.0
C1459 C 0.30903 0.43016 0.2063 0.0
C1460 C 0.32274 0.41225 0.21282 0.0
C1461 C 0.35702 0.42078 0.21643 0.0
H1462 H 0.36326 0.3875 0.20097 0.0
C1463 C 0.40716 0.40335 0.20062 0.0
C1464 C 0.41015 0.39017 0.20134 0.0
C1465 C 0.39494 0.40782 0.20398 0.0
C1466 C 0.36167 0.39668 0.20558 0.0
H1467 H 0.31924 0.44753 0.20096 0.0
H1468 H 0.34051 0.43845 0.20443 0.0
H1469 H 0.34152 0.3961 0.20196 0.0
H1470 H 0.40281 0.37143 0.20682 0.0
H1471 H 0.3815 0.37928 0.21282 0.0
H1472 H 0.37724 0.42148 0.21975 0.0
C1473 C 0.33223 0.43252 0.20647 0.0
C1474 C 0.34919 0.40162 0.20614 0.0
C1475 C 0.32002 0.4377 0.20439 0.0
C1476 C 0.40081 0.38163 0.20606 0.0
C1477 C 0.38857 0.38612 0.20944 0.0
C1478 C 0.36951 0.41582 0.2159 0.0
C1479 C 0.33374 0.41967 0.21048 0.0
C1480 C 0.34676 0.41384 0.21132 0.0
C1481 C 0.38541 0.39923 0.20817 0.0
C1482 C 0.37202 0.40383 0.21021 0.0
H1483 H 0.30224 0.4114 0.21241 0.0
H1484 H 0.32359 0.40237 0.21606 0.0
H1485 H 0.35542 0.43014 0.22066 0.0
H1486 H 0.41412 0.4102 0.19704 0.0
H1487 H 0.3928 0.41796 0.20274 0.0
C1488 C 0.44183 0.1904 0.33565 0.0
C1489 C 0.43713 0.19702 0.3248 0.0
C1490 C 0.43712 0.19319 0.34794 0.0
C1491 C 0.40842 0.20638 0.36393 0.0
H1492 H 0.42995 0.20688 0.39414 0.0
C1493 C 0.38832 0.21999 0.41377 0.0
C1494 C 0.39244 0.21267 0.42438 0.0
C1495 C 0.3942 0.21857 0.40175 0.0
C1496 C 0.42379 0.20664 0.38581 0.0
H1497 H 0.42414 0.21215 0.31846 0.0
H1498 H 0.416 0.21707 0.33993 0.0
H1499 H 0.43972 0.20394 0.37293 0.0
H1500 H 0.40654 0.19869 0.43086 0.0
H1501 H 0.41651 0.1958 0.40977 0.0
H1502 H 0.39249 0.2089 0.37675 0.0
C1503 C 0.4232 0.20958 0.33888 0.0
C1504 C 0.42939 0.20498 0.37366 0.0
C1505 C 0.42794 0.20681 0.32659 0.0
C1506 C 0.40279 0.20409 0.42278 0.0
C1507 C 0.40868 0.20264 0.41073 0.0
C1508 C 0.40282 0.208 0.37606 0.0
C1509 C 0.42757 0.20264 0.34967 0.0
C1510 C 0.42176 0.20483 0.36258 0.0
C1511 C 0.4044 0.20981 0.40005 0.0
C1512 C 0.41043 0.20814 0.38716 0.0
H1513 H 0.44892 0.1828 0.33463 0.0
H1514 H 0.44061 0.1876 0.35604 0.0
H1515 H 0.40224 0.20605 0.35561 0.0
H1516 H 0.38044 0.22678 0.41473 0.0
H1517 H 0.39081 0.22442 0.39379 0.0
C1518 C 0.42573 0.77506 0.49511 0.0
C1519 C 0.42745 0.78644 0.48798 0.0
C1520 C 0.41384 0.76894 0.49534 0.0
C1521 C 0.3834 0.76667 0.47743 0.0
H1522 H 0.37017 0.75304 0.50967 0.0
C1523 C 0.33075 0.75078 0.4844 0.0
C1524 C 0.32845 0.73979 0.49199 0.0
C1525 C 0.3431 0.75585 0.48334 0.0
C1526 C 0.3738 0.75664 0.50055 0.0
H1527 H 0.41818 0.80021 0.47528 0.0
H1528 H 0.39739 0.78962 0.47578 0.0
H1529 H 0.39117 0.76314 0.50907 0.0
H1530 H 0.33742 0.72526 0.50411 0.0
H1531 H 0.35895 0.73403 0.50215 0.0
H1532 H 0.36595 0.76027 0.46895 0.0
C1533 C 0.40523 0.78535 0.48114 0.0
C1534 C 0.38584 0.76244 0.50021 0.0
C1535 C 0.41712 0.79146 0.4809 0.0
C1536 C 0.33883 0.73378 0.49823 0.0
C1537 C 0.35117 0.73885 0.49717 0.0
C1538 C 0.37135 0.76089 0.47777 0.0
C1539 C 0.40344 0.77402 0.48837 0.0
C1540 C 0.39076 0.76758 0.48866 0.0
C1541 C 0.35342 0.75003 0.48985 0.0
C1542 C 0.36639 0.75584 0.48935 0.0
H1543 H 0.43364 0.77067 0.50022 0.0
H1544 H 0.41286 0.76008 0.50079 0.0
H1545 H 0.387 0.77035 0.46833 0.0
H1546 H 0.32297 0.75566 0.47948 0.0
H1547 H 0.34449 0.76454 0.47771 0.0
C1548 C 0.23301 0.99184 0.82935 0.0
C1549 C 0.23876 0.98658 0.81829 0.0
C1550 C 0.23737 0.9884 0.84159 0.0
C1551 C 0.26576 0.9751 0.85812 0.0
H1552 H 0.24194 0.97027 0.88656 0.0
C1553 C 0.2818 0.95603 0.90779 0.0
C1554 C 0.27669 0.96231 0.9186 0.0
C1555 C 0.27706 0.95873 0.89552 0.0
C1556 C 0.24872 0.97171 0.87874 0.0
H1557 H 0.25343 0.97335 0.81143 0.0
H1558 H 0.2609 0.96721 0.83277 0.0
H1559 H 0.23375 0.97522 0.86516 0.0
H1560 H 0.26215 0.97574 0.92521 0.0
H1561 H 0.25397 0.98064 0.90375 0.0
H1562 H 0.28072 0.97158 0.8717 0.0
C1563 C 0.25316 0.97417 0.83198 0.0
C1564 C 0.24403 0.97454 0.86648 0.0
C1565 C 0.24882 0.97763 0.81974 0.0
C1566 C 0.26655 0.97111 0.91698 0.0
C1567 C 0.26174 0.97375 0.90473 0.0
C1568 C 0.27044 0.97223 0.87037 0.0
C1569 C 0.24756 0.9796 0.84304 0.0
C1570 C 0.2525 0.9763 0.85603 0.0
C1571 C 0.26699 0.96764 0.89386 0.0
C1572 C 0.26198 0.97054 0.88082 0.0
H1573 H 0.22525 -0.00122 0.82858 0.0
H1574 H 0.23294 0.99287 0.84989 0.0
H1575 H 0.27256 0.97661 0.85034 0.0
H1576 H 0.28953 0.9491 0.9088 0.0
H1577 H 0.28116 0.95372 0.88736 0.0
C1578 C 0.37572 0.42687 0.98017 0.0
C1579 C 0.3793 0.43549 0.98983 0.0
C1580 C 0.36279 0.42434 0.97794 0.0
C1581 C 0.33005 0.43715 0.98319 0.0
H1582 H 0.31996 0.40163 0.9791 0.0
C1583 C 0.27701 0.42131 0.98461 0.0
C1584 C 0.27332 0.41151 0.97623 0.0
C1585 C 0.28993 0.42457 0.9858 0.0
C1586 C 0.32262 0.41162 0.98004 0.0
H1587 H 0.37205 0.44839 0.00454 0.0
H1588 H 0.34951 0.44394 0.00065 0.0
H1589 H 0.34252 0.40679 0.9818 0.0
H1590 H 0.28021 0.3978 0.96213 0.0
H1591 H 0.3027 0.40364 0.96401 0.0
H1592 H 0.31015 0.44198 0.98141 0.0
C1593 C 0.35671 0.4392 0.99475 0.0
C1594 C 0.33556 0.41457 0.9816 0.0
C1595 C 0.36964 0.44169 -0.00297 0.0
C1596 C 0.28277 0.40531 0.96878 0.0
C1597 C 0.29567 0.40859 0.96993 0.0
C1598 C 0.3171 0.4342 0.98158 0.0
C1599 C 0.35314 0.43041 0.98526 0.0
C1600 C 0.33941 0.42736 0.98324 0.0
C1601 C 0.29943 0.41818 0.97855 0.0
C1602 C 0.31322 0.42139 0.98004 0.0
H1603 H 0.38291 0.42195 0.97442 0.0
H1604 H 0.36033 0.41764 0.97045 0.0
H1605 H 0.33274 0.44711 0.98427 0.0
H1606 H 0.26992 0.42663 0.99008 0.0
H1607 H 0.29247 0.432 0.99254 0.0
C1608 C 0.76509 0.29245 0.21276 0.0
C1609 C 0.75502 0.28741 0.20551 0.0
C1610 C 0.77717 0.28654 0.21267 0.0
C1611 C 0.7974 0.26504 0.193 0.0
H1612 H 0.8182 0.26286 0.22371 0.0
C1613 C 0.84654 0.23952 0.19272 0.0
C1614 C 0.85661 0.24591 0.19883 0.0
C1615 C 0.83386 0.24362 0.19441 0.0
C1616 C 0.81254 0.26348 0.21504 0.0
H1617 H 0.74941 0.27164 0.19334 0.0
H1618 H 0.77054 0.2614 0.19301 0.0
H1619 H 0.79649 0.27176 0.22505 0.0
H1620 H 0.86119 0.2614 0.21183 0.0
H1621 H 0.83906 0.26864 0.21466 0.0
H1622 H 0.81346 0.25693 0.18295 0.0
C1623 C 0.76921 0.27015 0.19846 0.0
C1624 C 0.80011 0.26858 0.2158 0.0
C1625 C 0.75713 0.27607 0.19856 0.0
C1626 C 0.85366 0.25626 0.20698 0.0
C1627 C 0.84096 0.26037 0.20865 0.0
C1628 C 0.80981 0.25995 0.19224 0.0
C1629 C 0.77941 0.2754 0.2054 0.0
C1630 C 0.79243 0.26949 0.20477 0.0
C1631 C 0.83093 0.25422 0.20223 0.0
C1632 C 0.81756 0.25917 0.20323 0.0
H1633 H 0.76372 0.30116 0.21826 0.0
H1634 H 0.78484 0.2909 0.21803 0.0
H1635 H 0.79183 0.2658 0.18428 0.0
H1636 H 0.84845 0.23145 0.18645 0.0
H1637 H 0.82633 0.23854 0.1895 0.0
C1638 C 0.74521 0.71742 0.35884 0.0
C1639 C 0.73797 0.70695 0.36338 0.0
C1640 C 0.74765 0.719 0.34569 0.0
C1641 C 0.73723 0.70901 0.31333 0.0
H1642 H 0.77233 0.71689 0.30371 0.0
C1643 C 0.75621 0.70495 0.26098 0.0
C1644 C 0.7648 0.71442 0.25666 0.0
C1645 C 0.75243 0.70438 0.27392 0.0
C1646 C 0.76244 0.71485 0.30621 0.0
H1647 H 0.7272 0.69022 0.35758 0.0
H1648 H 0.73152 0.69296 0.33466 0.0
H1649 H 0.76632 0.71572 0.32635 0.0
H1650 H 0.7758 0.73099 0.26241 0.0
H1651 H 0.76906 0.73013 0.28488 0.0
H1652 H 0.73338 0.7081 0.29316 0.0
C1653 C 0.73525 0.69998 0.34127 0.0
C1654 C 0.759 0.71419 0.3192 0.0
C1655 C 0.73283 0.69838 0.35442 0.0
C1656 C 0.76926 0.72349 0.26547 0.0
C1657 C 0.76548 0.72294 0.27837 0.0
C1658 C 0.74068 0.7097 0.30031 0.0
C1659 C 0.74289 0.71017 0.33677 0.0
C1660 C 0.74636 0.71125 0.32292 0.0
C1661 C 0.75709 0.71332 0.28278 0.0
C1662 C 0.75333 0.71262 0.2966 0.0
H1663 H 0.74926 0.72424 0.36546 0.0
H1664 H 0.7534 0.72707 0.3425 0.0
H1665 H 0.72739 0.70685 0.31589 0.0
H1666 H 0.7522 0.69814 0.25436 0.0
H1667 H 0.74596 0.69684 0.27699 0.0
C1668 C 0.91052 0.91186 0.70201 0.0
C1669 C 0.91291 0.90142 0.71031 0.0
C1670 C 0.89822 0.91721 0.70114 0.0
C1671 C 0.86711 0.91945 0.71844 0.0
H1672 H 0.85414 0.92886 0.68478 0.0
C1673 C 0.81382 0.93218 0.70912 0.0
C1674 C 0.81125 0.94235 0.70052 0.0
C1675 C 0.82637 0.92768 0.71083 0.0
C1676 C 0.85768 0.92643 0.69427 0.0
H1677 H 0.90445 0.88862 0.72449 0.0
H1678 H 0.8829 0.89782 0.72286 0.0
H1679 H 0.87573 0.92001 0.68672 0.0
H1680 H 0.81992 0.95599 0.68721 0.0
H1681 H 0.84177 0.9482 0.69026 0.0
H1682 H 0.84896 0.92578 0.72595 0.0
C1683 C 0.89053 0.90194 0.71707 0.0
C1684 C 0.87006 0.92136 0.69538 0.0
C1685 C 0.90284 0.89663 0.71796 0.0
C1686 C 0.82154 0.9481 0.69387 0.0
C1687 C 0.83407 0.94358 0.69555 0.0
C1688 C 0.8547 0.9245 0.71732 0.0
C1689 C 0.88806 0.91226 0.7086 0.0
C1690 C 0.87492 0.91779 0.70748 0.0
C1691 C 0.83661 0.93324 0.70394 0.0
C1692 C 0.84985 0.92804 0.70522 0.0
H1693 H 0.91821 0.9161 0.69641 0.0
H1694 H 0.89673 0.92535 0.69477 0.0
H1695 H 0.87063 0.91698 0.72792 0.0
H1696 H 0.80612 0.92753 0.71439 0.0
H1697 H 0.82801 0.91962 0.71728 0.0
C1698 C 0.78903 0.47707 0.4188 0.0
C1699 C 0.78334 0.48339 0.42931 0.0
C1700 C 0.78321 0.47735 0.40675 0.0
C1701 C 0.75977 0.49582 0.38753 0.0
H1702 H 0.7601 0.4655 0.36606 0.0
C1703 C 0.73304 0.4947 0.33933 0.0
C1704 C 0.73972 0.48935 0.32883 0.0
C1705 C 0.73767 0.49323 0.35182 0.0
C1706 C 0.76002 0.47407 0.3719 0.0
H1707 H 0.76666 0.49423 0.43563 0.0
H1708 H 0.75655 0.49491 0.41456 0.0
H1709 H 0.76952 0.46446 0.38745 0.0
H1710 H 0.75635 0.47793 0.32331 0.0
H1711 H 0.76448 0.47545 0.34512 0.0
H1712 H 0.75037 0.50547 0.37196 0.0
C1713 C 0.7657 0.49004 0.41554 0.0
C1714 C 0.76542 0.47348 0.38415 0.0
C1715 C 0.77155 0.48975 0.4276 0.0
C1716 C 0.75095 0.48217 0.33117 0.0
C1717 C 0.75559 0.4807 0.34368 0.0
C1718 C 0.75437 0.49641 0.37529 0.0
C1719 C 0.77149 0.48388 0.40496 0.0
C1720 C 0.76542 0.48437 0.39208 0.0
C1721 C 0.7491 0.48637 0.35413 0.0
C1722 C 0.75448 0.48556 0.3673 0.0
H1723 H 0.7981 0.47204 0.41986 0.0
H1724 H 0.78799 0.47263 0.39878 0.0
H1725 H 0.75979 0.50444 0.3933 0.0
H1726 H 0.72432 0.50023 0.33789 0.0
H1727 H 0.73234 0.49754 0.35968 0.0
C1728 C 0.94854 0.6887 0.8268 0.0
C1729 C 0.94277 0.69511 0.81636 0.0
C1730 C 0.94359 0.69006 0.83926 0.0
C1731 C 0.91354 0.69837 0.85621 0.0
H1732 H 0.93532 0.70072 0.88615 0.0
C1733 C 0.89304 0.7088 0.90667 0.0
C1734 C 0.89811 0.70176 0.91707 0.0
C1735 C 0.89876 0.70812 0.89451 0.0
C1736 C 0.92912 0.69993 0.87789 0.0
H1737 H 0.92755 0.70838 0.81093 0.0
H1738 H 0.91903 0.71086 0.83266 0.0
H1739 H 0.94502 0.69974 0.86471 0.0
H1740 H 0.91357 0.68906 0.92299 0.0
H1741 H 0.92335 0.68754 0.90164 0.0
H1742 H 0.89765 0.69851 0.86934 0.0
C1743 C 0.92725 0.70459 0.83118 0.0
C1744 C 0.93467 0.69939 0.86561 0.0
C1745 C 0.93219 0.70323 0.81873 0.0
C1746 C 0.90916 0.69422 0.91509 0.0
C1747 C 0.91491 0.69355 0.9029 0.0
C1748 C 0.908 0.69891 0.86847 0.0
C1749 C 0.93276 0.69787 0.84156 0.0
C1750 C 0.92694 0.69863 0.85463 0.0
C1751 C 0.90973 0.70046 0.89246 0.0
C1752 C 0.91571 0.69972 0.87945 0.0
H1753 H 0.9567 0.68236 0.82532 0.0
H1754 H 0.948 0.68467 0.84702 0.0
H1755 H 0.90732 0.69752 0.84798 0.0
H1756 H 0.88459 0.71479 0.90793 0.0
H1757 H 0.89466 0.71374 0.88673 0.0
C1758 C 0.47261 0.75801 0.90379 0.0
C1759 C 0.48122 0.7487 0.90854 0.0
C1760 C 0.47121 0.76985 0.90988 0.0
C1761 C 0.47733 0.78701 0.94031 0.0
H1762 H 0.47621 0.81717 0.91819 0.0
C1763 C 0.48566 0.8389 0.95816 0.0
C1764 C 0.47861 0.84891 0.95233 0.0
C1765 C 0.48454 0.82627 0.95384 0.0
C1766 C 0.47629 0.80885 0.92452 0.0
H1767 H 0.49432 0.74414 0.92403 0.0
H1768 H 0.49227 0.76502 0.93441 0.0
H1769 H 0.47716 0.79593 0.90867 0.0
H1770 H 0.46426 0.85335 0.93793 0.0
H1771 H 0.4622 0.83132 0.93053 0.0
H1772 H 0.47669 0.80004 0.95618 0.0
C1773 C 0.48664 0.76318 0.92592 0.0
C1774 C 0.47685 0.79666 0.91906 0.0
C1775 C 0.48802 0.7513 0.91982 0.0
C1776 C 0.46992 0.8459 0.94255 0.0
C1777 C 0.4688 0.83328 0.93825 0.0
C1778 C 0.47679 0.79924 0.9458 0.0
C1779 C 0.47834 0.77266 0.92091 0.0
C1780 C 0.47742 0.78558 0.92687 0.0
C1781 C 0.47634 0.82338 0.94361 0.0
C1782 C 0.4763 0.81031 0.93795 0.0
H1783 H 0.46712 0.75624 0.89519 0.0
H1784 H 0.46454 0.77683 0.90592 0.0
H1785 H 0.4776 0.77866 0.9466 0.0
H1786 H 0.49243 0.84088 0.96572 0.0
H1787 H 0.49054 0.81888 0.95812 0.0
C1788 C 0.49039 0.42784 0.76883 0.0
C1789 C 0.4835 0.43052 0.78017 0.0
C1790 C 0.4898 0.41567 0.76324 0.0
C1791 C 0.4822 0.38198 0.77148 0.0
H1792 H 0.48179 0.37741 0.73451 0.0
C1793 C 0.47737 0.33183 0.74951 0.0
C1794 C 0.486 0.32884 0.7395 0.0
C1795 C 0.4758 0.3445 0.7536 0.0
C1796 C 0.48197 0.37854 0.74485 0.0
H1797 H 0.47009 0.42274 0.7942 0.0
H1798 H 0.46887 0.40164 0.78436 0.0
H1799 H 0.4816 0.39909 0.74338 0.0
H1800 H 0.49929 0.33695 0.72551 0.0
H1801 H 0.4966 0.35905 0.73272 0.0
H1802 H 0.4827 0.36149 0.77299 0.0
C1803 C 0.47501 0.4088 0.77995 0.0
C1804 C 0.48189 0.39095 0.74993 0.0
C1805 C 0.47562 0.42094 0.78553 0.0
C1806 C 0.49257 0.3389 0.73327 0.0
C1807 C 0.491 0.35159 0.73736 0.0
C1808 C 0.48226 0.3696 0.76641 0.0
C1809 C 0.48221 0.40596 0.76883 0.0
C1810 C 0.48204 0.39281 0.76332 0.0
C1811 C 0.48281 0.35449 0.74777 0.0
C1812 C 0.48219 0.36772 0.75304 0.0
H1813 H 0.49612 0.43515 0.76416 0.0
H1814 H 0.49548 0.41381 0.75468 0.0
H1815 H 0.48257 0.38305 0.78182 0.0
H1816 H 0.47207 0.32433 0.75446 0.0
H1817 H 0.46923 0.34646 0.76149 0.0
C1818 C 0.19215 0.32499 0.42121 0.0
C1819 C 0.1965 0.32012 0.43304 0.0
C1820 C 0.19458 0.33769 0.4176 0.0
C1821 C 0.20399 0.36925 0.43108 0.0
H1822 H 0.20805 0.37809 0.39497 0.0
C1823 C 0.21778 0.41999 0.4114 0.0
C1824 C 0.20931 0.42491 0.40211 0.0
C1825 C 0.2168 0.40722 0.4156 0.0
C1826 C 0.20691 0.37573 0.40508 0.0
H1827 H 0.20713 0.32464 0.45023 0.0
H1828 H 0.21187 0.34668 0.4437 0.0
H1829 H 0.20599 0.35562 0.40137 0.0
H1830 H 0.19354 0.42029 0.38956 0.0
H1831 H 0.19196 0.39792 0.39676 0.0
H1832 H 0.20528 0.38949 0.43469 0.0
C1833 C 0.20621 0.34082 0.43736 0.0
C1834 C 0.20564 0.36287 0.40877 0.0
C1835 C 0.20358 0.32815 0.44108 0.0
C1836 C 0.19998 0.41682 0.39696 0.0
C1837 C 0.19917 0.40401 0.40096 0.0
C1838 C 0.20549 0.38212 0.42738 0.0
C1839 C 0.20165 0.3458 0.42561 0.0
C1840 C 0.20393 0.35945 0.4218 0.0
C1841 C 0.20757 0.3991 0.41031 0.0
C1842 C 0.20675 0.38546 0.41434 0.0
H1843 H 0.18655 0.31908 0.41485 0.0
H1844 H 0.19064 0.34119 0.40862 0.0
H1845 H 0.20251 0.36707 0.44117 0.0
H1846 H 0.2251 0.42604 0.41545 0.0
H1847 H 0.22343 0.40361 0.42277 0.0
C1848 C 0.21486 0.85865 0.25601 0.0
C1849 C 0.20475 0.861 0.24742 0.0
C1850 C 0.21814 0.84609 0.25961 0.0
C1851 C 0.21391 0.81182 0.25104 0.0
H1852 H 0.21914 0.80608 0.28753 0.0
C1853 C 0.21083 0.76168 0.27504 0.0
C1854 C 0.21927 0.7588 0.28512 0.0
C1855 C 0.21044 0.77399 0.2696 0.0
C1856 C 0.21791 0.80752 0.27729 0.0
H1857 H 0.19047 0.85192 0.23551 0.0
H1858 H 0.1961 0.83005 0.24191 0.0
H1859 H 0.21612 0.82787 0.27941 0.0
H1860 H 0.23446 0.7663 0.29695 0.0
H1861 H 0.23391 0.78782 0.28735 0.0
H1862 H 0.21547 0.7914 0.24899 0.0
C1863 C 0.20158 0.83791 0.24577 0.0
C1864 C 0.21619 0.82003 0.27262 0.0
C1865 C 0.19831 0.85047 0.24215 0.0
C1866 C 0.22775 0.76831 0.28928 0.0
C1867 C 0.22737 0.78064 0.28385 0.0
C1868 C 0.21563 0.79929 0.25572 0.0
C1869 C 0.21138 0.83559 0.25472 0.0
C1870 C 0.21405 0.82233 0.25947 0.0
C1871 C 0.21858 0.78367 0.27407 0.0
C1872 C 0.21753 0.797 0.26892 0.0
H1873 H 0.22009 0.86653 0.26018 0.0
H1874 H 0.22588 0.84462 0.26636 0.0
H1875 H 0.21246 0.81328 0.24083 0.0
H1876 H 0.20455 0.75439 0.27129 0.0
H1877 H 0.20355 0.776 0.26209 0.0
C1878 C 0.90689 0.48748 0.75524 0.0
C1879 C 0.90644 0.47582 0.74857 0.0
C1880 C 0.91235 0.48803 0.76745 0.0
C1881 C 0.93344 0.4701 0.7901 0.0
H1882 H 0.91663 0.49175 0.81542 0.0
C1883 C 0.94567 0.46928 0.8446 0.0
C1884 C 0.94648 0.48133 0.85058 0.0
C1885 C 0.94135 0.46836 0.83193 0.0
C1886 C 0.9215 0.48574 0.80842 0.0
H1887 H 0.91116 0.45551 0.74958 0.0
H1888 H 0.92043 0.45638 0.77102 0.0
H1889 H 0.90804 0.49064 0.79378 0.0
H1890 H 0.94362 0.50186 0.8478 0.0
H1891 H 0.93611 0.50022 0.82581 0.0
H1892 H 0.9468 0.46508 0.80493 0.0
C1893 C 0.91688 0.4652 0.76668 0.0
C1894 C 0.91661 0.48514 0.79599 0.0
C1895 C 0.91148 0.46468 0.75443 0.0
C1896 C 0.94308 0.49242 0.84354 0.0
C1897 C 0.9387 0.49148 0.83094 0.0
C1898 C 0.9383 0.47065 0.80259 0.0
C1899 C 0.91732 0.47688 0.77338 0.0
C1900 C 0.92255 0.47738 0.78664 0.0
C1901 C 0.93766 0.47945 0.82504 0.0
C1902 C 0.93242 0.47855 0.81185 0.0
H1903 H 0.90262 0.49613 0.75129 0.0
H1904 H 0.9126 0.49721 0.77227 0.0
H1905 H 0.93834 0.46413 0.7831 0.0
H1906 H 0.94823 0.46055 0.84974 0.0
H1907 H 0.94058 0.45895 0.82763 0.0
C1908 C 0.91527 0.26675 0.96503 0.0
C1909 C 0.92044 0.27637 0.9728 0.0
C1910 C 0.90262 0.26273 0.9669 0.0
C1911 C 0.87152 0.27401 0.97778 0.0
H1912 H 0.86312 0.23808 0.98287 0.0
C1913 C 0.82045 0.25822 0.99199 0.0
C1914 C 0.81601 0.24629 0.98773 0.0
C1915 C 0.83316 0.26183 0.98981 0.0
C1916 C 0.86523 0.24814 0.98122 0.0
H1917 H 0.91641 0.28961 0.98831 0.0
H1918 H 0.89419 0.2827 0.99146 0.0
H1919 H 0.88544 0.24434 0.97978 0.0
H1920 H 0.82127 0.22896 0.97747 0.0
H1921 H 0.84329 0.23549 0.97311 0.0
H1922 H 0.8514 0.27789 0.97874 0.0
C1923 C 0.90001 0.27813 0.9841 0.0
C1924 C 0.87804 0.2517 0.97955 0.0
C1925 C 0.91274 0.28197 0.9824 0.0
C1926 C 0.82446 0.23818 0.98095 0.0
C1927 C 0.83712 0.24189 0.97856 0.0
C1928 C 0.85869 0.27044 0.97921 0.0
C1929 C 0.89485 0.26849 0.97635 0.0
C1930 C 0.88129 0.26467 0.97793 0.0
C1931 C 0.8417 0.25371 0.98309 0.0
C1932 C 0.85536 0.25746 0.98107 0.0
H1933 H 0.92102 0.26233 0.95752 0.0
H1934 H 0.89881 0.25534 0.96075 0.0
H1935 H 0.87379 0.28407 0.97638 0.0
H1936 H 0.81421 0.26463 -0.00265 0.0
H1937 H 0.83634 0.27088 0.99369 0.0
C1938 C 0.85277 0.95847 0.46652 0.0
C1939 C 0.86226 0.95439 0.47519 0.0
C1940 C 0.84005 0.95463 0.46817 0.0
C1941 C 0.82075 0.92897 0.48339 0.0
H1942 H 0.7923 0.95128 0.47402 0.0
C1943 C 0.76797 0.91241 0.48692 0.0
C1944 C 0.76068 0.91487 0.47586 0.0
C1945 C 0.77994 0.91819 0.48842 0.0
C1946 C 0.80016 0.94494 0.47666 0.0
H1947 H 0.86585 0.9427 0.49215 0.0
H1948 H 0.8436 0.9365 0.4954 0.0
H1949 H 0.81406 0.95976 0.47393 0.0
H1950 H 0.76009 0.92536 0.45778 0.0
H1951 H 0.78092 0.93547 0.46041 0.0
H1952 H 0.80682 0.91414 0.486 0.0
C1953 C 0.84598 0.94265 0.48729 0.0
C1954 C 0.81263 0.94978 0.47657 0.0
C1955 C 0.85873 0.94645 0.4856 0.0
C1956 C 0.76548 0.92334 0.46644 0.0
C1957 C 0.77737 0.9292 0.46799 0.0
C1958 C 0.80826 0.92417 0.48356 0.0
C1959 C 0.8365 0.94658 0.47852 0.0
C1960 C 0.82311 0.94179 0.47971 0.0
C1961 C 0.7848 0.92658 0.47892 0.0
C1962 C 0.79786 0.93204 0.47998 0.0
H1963 H 0.85522 0.9645 0.45833 0.0
H1964 H 0.83308 0.95766 0.46108 0.0
H1965 H 0.82858 0.92248 0.48567 0.0
H1966 H 0.76468 0.90566 0.49417 0.0
H1967 H 0.78546 0.91599 0.49695 0.0
C1968 C 0.13217 0.45247 0.41358 0.0
C1969 C 0.14024 0.44206 0.41041 0.0
C1970 C 0.11931 0.45045 0.41687 0.0
C1971 C 0.09329 0.42687 0.4135 0.0
H1972 H 0.07734 0.44587 0.44139 0.0
C1973 C 0.03928 0.42302 0.42404 0.0
C1974 C 0.03564 0.42147 0.437 0.0
C1975 C 0.05176 0.42664 0.42075 0.0
C1976 C 0.08167 0.44045 0.43361 0.0
H1977 H 0.14114 0.42134 0.40831 0.0
H1978 H 0.11876 0.41781 0.41417 0.0
H1979 H 0.09986 0.44952 0.43599 0.0
H1980 H 0.04214 0.423 0.4567 0.0
H1981 H 0.06397 0.42919 0.45094 0.0
H1982 H 0.07525 0.41755 0.41132 0.0
C1983 C 0.12232 0.42756 0.41394 0.0
C1984 C 0.09454 0.44263 0.43043 0.0
C1985 C 0.13518 0.42958 0.41065 0.0
C1986 C 0.04463 0.42412 0.44662 0.0
C1987 C 0.05714 0.42771 0.44331 0.0
C1988 C 0.08044 0.4247 0.41667 0.0
C1989 C 0.11423 0.43798 0.41705 0.0
C1990 C 0.10051 0.43582 0.42037 0.0
C1991 C 0.06091 0.42876 0.43033 0.0
C1992 C 0.07448 0.43144 0.42678 0.0
H1993 H 0.13576 0.46221 0.41347 0.0
H1994 H 0.1133 0.45869 0.41906 0.0
H1995 H 0.09754 0.42157 0.40559 0.0
H1996 H 0.03256 0.42116 0.41639 0.0
H1997 H 0.05428 0.42762 0.41066 0.0
C1998 C 0.14049 0.91432 0.26041 0.0
C1999 C 0.146 0.91306 0.2481 0.0
C2000 C 0.12751 0.91748 0.26186 0.0
C2001 C 0.09904 0.93032 0.24475 0.0
H2002 H 0.08034 0.90928 0.26938 0.0
C2003 C 0.04372 0.92701 0.24529 0.0
C2004 C 0.03746 0.92636 0.2573 0.0
C2005 C 0.0571 0.92644 0.24446 0.0
C2006 C 0.08543 0.91538 0.2626 0.0
H2007 H 0.14233 0.91476 0.22764 0.0
H2008 H 0.11966 0.92018 0.23017 0.0
H2009 H 0.10351 0.90694 0.26749 0.0
H2010 H 0.04038 0.92479 0.2779 0.0
H2011 H 0.06371 0.92394 0.27646 0.0
H2012 H 0.08089 0.93865 0.23977 0.0
C2013 C 0.12539 0.9188 0.23871 0.0
C2014 C 0.09872 0.91405 0.26152 0.0
C2015 C 0.13838 0.91563 0.23727 0.0
C2016 C 0.04489 0.92525 0.26848 0.0
C2017 C 0.05827 0.9247 0.26766 0.0
C2018 C 0.08572 0.93167 0.24585 0.0
C2019 C 0.11975 0.91946 0.25102 0.0
C2020 C 0.10568 0.92144 0.25254 0.0
C2021 C 0.06453 0.92522 0.25563 0.0
C2022 C 0.07874 0.92416 0.25473 0.0
H2023 H 0.1461 0.91251 0.26897 0.0
H2024 H 0.1235 0.91816 0.27147 0.0
H2025 H 0.10414 0.93626 0.23784 0.0
H2026 H 0.03828 0.92785 0.23649 0.0
H2027 H 0.0616 0.92669 0.23504 0.0
C2028 C 0.55236 0.73101 0.94451 0.0
C2029 C 0.54771 0.73713 0.93336 0.0
C2030 C 0.56493 0.73306 0.9486 0.0
C2031 C 0.59658 0.74389 0.93672 0.0
H2032 H 0.6037 0.74949 0.97279 0.0
C2033 C 0.64813 0.75162 0.95428 0.0
C2034 C 0.64973 0.76213 0.96252 0.0
C2035 C 0.63588 0.74696 0.95172 0.0
C2036 C 0.60186 0.74794 0.96268 0.0
H2037 H 0.5526 0.75031 0.91783 0.0
H2038 H 0.57443 0.75395 0.92501 0.0
H2039 H 0.58181 0.74499 0.96608 0.0
H2040 H 0.63975 0.77553 0.97505 0.0
H2041 H 0.61843 0.76746 0.97052 0.0
H2042 H 0.61651 0.74724 0.93324 0.0
C2043 C 0.56843 0.74743 0.9305 0.0
C2044 C 0.58934 0.74526 0.95886 0.0
C2045 C 0.55588 0.7454 0.92644 0.0
C2046 C 0.63886 0.76745 0.96862 0.0
C2047 C 0.62663 0.76277 0.96608 0.0
C2048 C 0.60908 0.74654 0.94055 0.0
C2049 C 0.57313 0.74124 0.94159 0.0
C2050 C 0.58653 0.74338 0.9458 0.0
C2051 C 0.62496 0.75267 0.95737 0.0
C2052 C 0.61185 0.74876 0.95355 0.0
H2053 H 0.54633 0.72456 0.95006 0.0
H2054 H 0.56829 0.72807 0.95713 0.0
H2055 H 0.59476 0.74231 0.92662 0.0
H2056 H 0.6563 0.74726 0.94947 0.0
H2057 H 0.63493 0.73903 0.94512 0.0
C2058 C 0.54596 0.26911 0.73145 0.0
C2059 C 0.53668 0.27067 0.74122 0.0
C2060 C 0.55836 0.26487 0.73443 0.0
C2061 C 0.58076 0.26459 0.76151 0.0
H2062 H 0.60114 0.24189 0.73997 0.0
C2063 C 0.63121 0.24773 0.77636 0.0
C2064 C 0.64079 0.24753 0.76677 0.0
C2065 C 0.61836 0.24964 0.77312 0.0
C2066 C 0.5956 0.24834 0.74602 0.0
H2067 H 0.53293 0.26828 0.76165 0.0
H2068 H 0.55447 0.26076 0.7668 0.0
H2069 H 0.57876 0.24633 0.73453 0.0
H2070 H 0.64435 0.24905 0.74623 0.0
H2071 H 0.62191 0.25257 0.7406 0.0
H2072 H 0.59756 0.26677 0.7729 0.0
C2073 C 0.55225 0.26306 0.75688 0.0
C2074 C 0.58278 0.25085 0.74291 0.0
C2075 C 0.53988 0.2673 0.75391 0.0
C2076 C 0.63721 0.24916 0.75385 0.0
C2077 C 0.62433 0.25109 0.75061 0.0
C2078 C 0.59355 0.26209 0.7646 0.0
C2079 C 0.56173 0.26211 0.74723 0.0
C2080 C 0.57522 0.25901 0.75063 0.0
C2081 C 0.61477 0.25143 0.76023 0.0
C2082 C 0.60113 0.25394 0.7569 0.0
H2083 H 0.54381 0.27161 0.72157 0.0
H2084 H 0.56545 0.2643 0.72678 0.0
H2085 H 0.5753 0.27114 0.76751 0.0
H2086 H 0.63361 0.24642 0.7864 0.0
H2087 H 0.61122 0.24965 0.78075 0.0
C2088 C 0.05425 0.7814 0.25807 0.0
C2089 C 0.05016 0.78563 0.24589 0.0
C2090 C 0.0673 0.78002 0.26071 0.0
C2091 C 0.09855 0.7751 0.24469 0.0
H2092 H 0.11197 0.78376 0.27818 0.0
C2093 C 0.15236 0.76968 0.25701 0.0
C2094 C 0.15513 0.76406 0.26902 0.0
C2095 C 0.13983 0.77343 0.25399 0.0
C2096 C 0.10835 0.78121 0.26881 0.0
H2097 H 0.05662 0.79199 0.22701 0.0
H2098 H 0.07944 0.78969 0.23169 0.0
H2099 H 0.08959 0.78849 0.27325 0.0
H2100 H 0.14689 0.7581 0.28734 0.0
H2101 H 0.12506 0.76455 0.28204 0.0
H2102 H 0.11728 0.76769 0.24031 0.0
C2103 C 0.07252 0.78728 0.23914 0.0
C2104 C 0.09553 0.78392 0.26598 0.0
C2105 C 0.05945 0.78867 0.23648 0.0
C2106 C 0.14511 0.76241 0.278 0.0
C2107 C 0.1326 0.76619 0.275 0.0
C2108 C 0.11139 0.77241 0.24751 0.0
C2109 C 0.07659 0.78284 0.25125 0.0
C2110 C 0.09043 0.78075 0.25395 0.0
C2111 C 0.12979 0.77169 0.26294 0.0
C2112 C 0.11639 0.77528 0.25966 0.0
H2113 H 0.04736 0.77895 0.26553 0.0
H2114 H 0.07009 0.77641 0.27009 0.0
H2115 H 0.0949 0.77238 0.23539 0.0
H2116 H 0.15986 0.77112 0.24989 0.0
H2117 H 0.138 0.77776 0.24467 0.0
C2118 C 0.62362 0.92079 0.90877 0.0
C2119 C 0.63253 0.92429 0.91817 0.0
C2120 C 0.61074 0.91894 0.91205 0.0
C2121 C 0.58639 0.92629 0.93717 0.0
H2122 H 0.5685 0.89761 0.92215 0.0
C2123 C 0.53723 0.90766 0.95565 0.0
C2124 C 0.52848 0.90337 0.94643 0.0
C2125 C 0.54957 0.91145 0.95196 0.0
C2126 C 0.5733 0.90577 0.92629 0.0
H2127 H 0.63486 0.92859 0.9384 0.0
H2128 H 0.61244 0.92515 0.94415 0.0
H2129 H 0.59077 0.9015 0.91627 0.0
H2130 H 0.52563 0.90035 0.92603 0.0
H2131 H 0.54709 0.90705 0.91961 0.0
H2132 H 0.56889 0.9304 0.94735 0.0
C2133 C 0.61537 0.92404 0.9342 0.0
C2134 C 0.58608 0.908 0.92292 0.0
C2135 C 0.62825 0.92592 0.93092 0.0
C2136 C 0.53216 0.9035 0.9334 0.0
C2137 C 0.54449 0.90727 0.92972 0.0
C2138 C 0.57359 0.92402 0.94057 0.0
C2139 C 0.60646 0.92051 0.92481 0.0
C2140 C 0.59279 0.91828 0.92832 0.0
C2141 C 0.55343 0.91101 0.93898 0.0
C2142 C 0.56691 0.91373 0.93517 0.0
H2143 H 0.62658 0.91953 0.89885 0.0
H2144 H 0.6041 0.9164 0.90454 0.0
H2145 H 0.59122 0.93439 0.94138 0.0
H2146 H 0.5347 0.90769 0.96578 0.0
H2147 H 0.55626 0.91422 0.95934 0.0
C2148 C 0.64573 0.41285 0.72338 0.0
C2149 C 0.65368 0.4099 0.73387 0.0
C2150 C 0.63317 0.41726 0.72541 0.0
C2151 C 0.61101 0.43053 0.75026 0.0
H2152 H 0.58479 0.41415 0.73001 0.0
C2153 C 0.55719 0.44188 0.75775 0.0
C2154 C 0.5489 0.43128 0.75796 0.0
C2155 C 0.56993 0.44049 0.75366 0.0
C2156 C 0.59199 0.41878 0.73577 0.0
H2157 H 0.65486 0.40982 0.7547 0.0
H2158 H 0.633 0.41736 0.75822 0.0
H2159 H 0.60734 0.40997 0.7252 0.0
H2160 H 0.54745 0.41095 0.75383 0.0
H2161 H 0.5697 0.40847 0.74689 0.0
H2162 H 0.59567 0.43892 0.76118 0.0
C2163 C 0.63646 0.41638 0.74842 0.0
C2164 C 0.60493 0.41652 0.7329 0.0
C2165 C 0.64899 0.41199 0.7464 0.0
C2166 C 0.55357 0.41931 0.75377 0.0
C2167 C 0.56631 0.41791 0.74971 0.0
C2168 C 0.59807 0.43278 0.75313 0.0
C2169 C 0.62831 0.41883 0.73797 0.0
C2170 C 0.6146 0.42222 0.74024 0.0
C2171 C 0.57468 0.42846 0.74971 0.0
C2172 C 0.58841 0.42678 0.74605 0.0
H2173 H 0.64906 0.41141 0.7136 0.0
H2174 H 0.6272 0.41924 0.71715 0.0
H2175 H 0.61821 0.43518 0.75601 0.0
H2176 H 0.55389 0.45127 0.76084 0.0
H2177 H 0.57606 0.44884 0.75361 0.0
C2178 C 0.13422 0.28825 0.44317 0.0
C2179 C 0.14361 0.27964 0.44775 0.0
C2180 C 0.12167 0.28419 0.44125 0.0
C2181 C 0.10247 0.2554 0.43538 0.0
H2182 H 0.07404 0.27806 0.44405 0.0
C2183 C 0.04951 0.24104 0.42789 0.0
C2184 C 0.04148 0.25054 0.42249 0.0
C2185 C 0.06181 0.24413 0.43208 0.0
C2186 C 0.08188 0.27166 0.44149 0.0
H2187 H 0.14714 0.25999 0.45399 0.0
H2188 H 0.12509 0.25289 0.45066 0.0
H2189 H 0.09583 0.28418 0.44951 0.0
H2190 H 0.04007 0.27076 0.41737 0.0
H2191 H 0.06152 0.2761 0.42455 0.0
H2192 H 0.08851 0.24296 0.42719 0.0
C2193 C 0.12753 0.26278 0.44847 0.0
C2194 C 0.09436 0.27516 0.44463 0.0
C2195 C 0.14013 0.26686 0.45044 0.0
C2196 C 0.04598 0.26321 0.4215 0.0
C2197 C 0.05826 0.26629 0.4257 0.0
C2198 C 0.08996 0.25189 0.43224 0.0
C2199 C 0.11816 0.27142 0.44385 0.0
C2200 C 0.10483 0.26717 0.44143 0.0
C2201 C 0.06635 0.25679 0.43099 0.0
C2202 C 0.07954 0.26008 0.43509 0.0
H2203 H 0.13657 0.29815 0.44096 0.0
H2204 H 0.11475 0.29104 0.43748 0.0
H2205 H 0.11033 0.24909 0.43267 0.0
H2206 H 0.04633 0.23119 0.42883 0.0
H2207 H 0.06775 0.23662 0.43624 0.0
C2208 C 0.42675 0.04555 0.42864 0.0
C2209 C 0.43946 0.04229 0.42536 0.0
C2210 C 0.42353 0.05811 0.43213 0.0
C2211 C 0.43689 0.08938 0.44219 0.0
H2212 H 0.40673 0.10325 0.4253 0.0
C2213 C 0.42576 0.14391 0.43914 0.0
C2214 C 0.41289 0.14783 0.44041 0.0
C2215 C 0.42898 0.13086 0.43844 0.0
C2216 C 0.41507 0.0995 0.43025 0.0
H2217 H 0.45888 0.04951 0.42386 0.0
H2218 H 0.45324 0.07146 0.42986 0.0
H2219 H 0.41237 0.0807 0.42265 0.0
H2220 H 0.3933 0.14108 0.44217 0.0
H2221 H 0.39892 0.11836 0.44107 0.0
H2222 H 0.43965 0.10827 0.44968 0.0
C2223 C 0.44577 0.06429 0.42979 0.0
C2224 C 0.4183 0.08655 0.42874 0.0
C2225 C 0.44899 0.05171 0.4263 0.0
C2226 C 0.40331 0.1384 0.44111 0.0
C2227 C 0.40653 0.12537 0.44043 0.0
C2228 C 0.43364 0.10235 0.44372 0.0
C2229 C 0.43295 0.0677 0.43243 0.0
C2230 C 0.42927 0.08134 0.43464 0.0
C2231 C 0.41939 0.12143 0.43899 0.0
C2232 C 0.42272 0.10758 0.43772 0.0
H2233 H 0.41918 0.0385 0.42813 0.0
H2234 H 0.41361 0.06038 0.43435 0.0
H2235 H 0.44534 0.08562 0.44696 0.0
H2236 H 0.43337 0.15092 0.43857 0.0
H2237 H 0.43896 0.12817 0.43718 0.0
C2238 C 0.24815 0.74964 0.63995 0.0
C2239 C 0.24669 0.76257 0.64354 0.0
C2240 C 0.25018 0.74637 0.62706 0.0
C2241 C 0.26169 0.76016 0.59628 0.0
H2242 H 0.2458 0.73022 0.5814 0.0
C2243 C 0.26749 0.74911 0.54259 0.0
C2244 C 0.27085 0.73639 0.53953 0.0
C2245 C 0.26309 0.75219 0.55492 0.0
C2246 C 0.25036 0.73857 0.58545 0.0
H2247 H 0.24601 0.7822 0.63635 0.0
H2248 H 0.24939 0.77651 0.61391 0.0
H2249 H 0.24114 0.73583 0.60375 0.0
H2250 H 0.27157 0.7168 0.54683 0.0
H2251 H 0.26395 0.7222 0.56838 0.0
H2252 H 0.27098 0.76288 0.57808 0.0
C2253 C 0.24918 0.76889 0.62107 0.0
C2254 C 0.24772 0.74177 0.59825 0.0
C2255 C 0.24717 0.77215 0.63394 0.0
C2256 C 0.26909 0.7267 0.54888 0.0
C2257 C 0.26468 0.72979 0.56122 0.0
C2258 C 0.26431 0.75699 0.58351 0.0
C2259 C 0.25078 0.75597 0.61748 0.0
C2260 C 0.25338 0.7526 0.60383 0.0
C2261 C 0.26194 0.74262 0.56447 0.0
C2262 C 0.25869 0.74615 0.57794 0.0
H2263 H 0.24783 0.74202 0.64711 0.0
H2264 H 0.25153 0.73635 0.62465 0.0
H2265 H 0.26642 0.76842 0.60033 0.0
H2266 H 0.26863 0.75679 0.53559 0.0
H2267 H 0.26082 0.76213 0.55705 0.0
C2268 C 0.24188 0.1229 0.88962 0.0
C2269 C 0.24904 0.13221 0.89609 0.0
C2270 C 0.24395 0.10981 0.89204 0.0
C2271 C 0.26765 0.08677 0.90536 0.0
H2272 H 0.23818 0.06456 0.90954 0.0
C2273 C 0.27199 0.03518 0.92575 0.0
C2274 C 0.2646 0.02559 0.91999 0.0
C2275 C 0.27016 0.04812 0.92247 0.0
C2276 C 0.24652 0.07059 0.90824 0.0
H2277 H 0.26409 0.13504 0.91006 0.0
H2278 H 0.26762 0.11224 0.91431 0.0
H2279 H 0.23497 0.08723 0.90426 0.0
H2280 H 0.2495 0.0221 0.90623 0.0
H2281 H 0.2464 0.04465 0.90045 0.0
H2282 H 0.2792 0.07015 0.90939 0.0
C2283 C 0.2605 0.11505 0.90728 0.0
C2284 C 0.24468 0.08359 0.90521 0.0
C2285 C 0.25842 0.12813 0.90489 0.0
C2286 C 0.25533 0.02924 0.91089 0.0
C2287 C 0.25351 0.04218 0.90761 0.0
C2288 C 0.26949 0.07378 0.90838 0.0
C2289 C 0.25324 0.10573 0.90094 0.0
C2290 C 0.25522 0.09184 0.90379 0.0
C2291 C 0.2609 0.05177 0.91336 0.0
C2292 C 0.25895 0.06554 0.90992 0.0
H2293 H 0.2346 0.12572 0.88276 0.0
H2294 H 0.23831 0.10287 0.88687 0.0
H2295 H 0.27598 0.09283 0.90414 0.0
H2296 H 0.27918 0.03271 0.93282 0.0
H2297 H 0.2759 0.05527 0.92722 0.0
C2298 C 0.44538 0.43662 0.04602 0.0
C2299 C 0.43474 0.44496 0.04684 0.0
C2300 C 0.4517 0.4325 0.05717 0.0
C2301 C 0.45453 0.43896 0.09229 0.0
H2302 H 0.4618 0.40242 0.09458 0.0
C2303 C 0.46915 0.41591 0.14042 0.0
C2304 C 0.46256 0.40458 0.14365 0.0
C2305 C 0.46907 0.42066 0.1278 0.0
C2306 C 0.45984 0.41265 0.09411 0.0
H2307 H 0.42272 0.45592 0.05996 0.0
H2308 H 0.4335 0.44861 0.07929 0.0
H2309 H 0.45519 0.41181 0.07414 0.0
H2310 H 0.45136 0.38896 0.13598 0.0
H2311 H 0.45095 0.39735 0.11413 0.0
H2312 H 0.45835 0.43969 0.11242 0.0
C2313 C 0.43714 0.44536 0.07008 0.0
C2314 C 0.4562 0.41807 0.08233 0.0
C2315 C 0.43087 0.44949 0.05897 0.0
C2316 C 0.45652 0.39772 0.13384 0.0
C2317 C 0.45636 0.40252 0.12125 0.0
C2318 C 0.45808 0.43353 0.10408 0.0
C2319 C 0.44749 0.43663 0.06936 0.0
C2320 C 0.45316 0.43124 0.08136 0.0
C2321 C 0.46233 0.41423 0.11813 0.0
C2322 C 0.46045 0.42024 0.10522 0.0
H2323 H 0.44865 0.43301 0.03681 0.0
H2324 H 0.45974 0.42593 0.05625 0.0
H2325 H 0.45249 0.44917 0.09185 0.0
H2326 H 0.47401 0.42136 0.14773 0.0
H2327 H 0.47399 0.42957 0.12569 0.0
C2328 C 0.42699 0.13687 0.26632 0.0
C2329 C 0.43916 0.14073 0.27043 0.0
C2330 C 0.42486 0.12416 0.2627 0.0
C2331 C 0.44108 0.09357 0.25379 0.0
H2332 H 0.4102 0.07828 0.26799 0.0
C2333 C 0.43303 0.03861 0.25595 0.0
C2334 C 0.42063 0.03412 0.25344 0.0
C2335 C 0.43535 0.05178 0.25695 0.0
C2336 C 0.41878 0.08243 0.26379 0.0
H2337 H 0.4588 0.1344 0.2734 0.0
H2338 H 0.45505 0.1122 0.26722 0.0
H2339 H 0.41417 0.10103 0.27114 0.0
H2340 H 0.40097 0.03999 0.24979 0.0
H2341 H 0.40503 0.06293 0.25143 0.0
H2342 H 0.44574 0.07486 0.24659 0.0
C2343 C 0.44716 0.11902 0.26669 0.0
C2344 C 0.42105 0.09549 0.26558 0.0
C2345 C 0.4493 0.13174 0.27029 0.0
C2346 C 0.41063 0.0431 0.2518 0.0
C2347 C 0.41294 0.05626 0.2528 0.0
C2348 C 0.4388 0.08048 0.25199 0.0
C2349 C 0.43484 0.11501 0.26314 0.0
C2350 C 0.43225 0.10122 0.26065 0.0
C2351 C 0.42531 0.06076 0.25546 0.0
C2352 C 0.42764 0.07474 0.25703 0.0
H2353 H 0.41899 0.14357 0.26621 0.0
H2354 H 0.41532 0.12144 0.25977 0.0
H2355 H 0.44973 0.09772 0.24975 0.0
H2356 H 0.44095 0.03194 0.25727 0.0
H2357 H 0.44496 0.05492 0.25916 0.0
C2358 C 0.41633 0.7482 0.65178 0.0
C2359 C 0.41315 0.73572 0.65591 0.0
C2360 C 0.42122 0.75036 0.63942 0.0
C2361 C 0.42096 0.73619 0.60718 0.0
H2362 H 0.44607 0.76254 0.59957 0.0
C2363 C 0.43761 0.74793 0.55518 0.0
C2364 C 0.43844 0.76106 0.55199 0.0
C2365 C 0.43586 0.74401 0.56797 0.0
C2366 C 0.43899 0.7552 0.60154 0.0
H2367 H 0.4132 0.71563 0.65048 0.0
H2368 H 0.42187 0.7194 0.6289 0.0
H2369 H 0.44114 0.75699 0.6219 0.0
H2370 H 0.43816 0.78035 0.55977 0.0
H2371 H 0.435 0.77352 0.582 0.0
H2372 H 0.41864 0.73456 0.58683 0.0
C2373 C 0.42037 0.72754 0.63519 0.0
C2374 C 0.43618 0.75201 0.61433 0.0
C2375 C 0.41549 0.72537 0.64758 0.0
C2376 C 0.43758 0.77016 0.56188 0.0
C2377 C 0.43586 0.76624 0.57465 0.0
C2378 C 0.42378 0.73937 0.59439 0.0
C2379 C 0.42306 0.74009 0.63087 0.0
C2380 C 0.42698 0.74261 0.61731 0.0
C2381 C 0.43494 0.75313 0.57785 0.0
C2382 C 0.43268 0.74906 0.59142 0.0
H2383 H 0.41466 0.75639 0.65796 0.0
H2384 H 0.42305 0.76016 0.63638 0.0
H2385 H 0.41369 0.72904 0.60913 0.0
H2386 H 0.43827 0.74066 0.5478 0.0
H2387 H 0.4353 0.73383 0.57013 0.0
C2388 C 0.22928 0.05017 0.76423 0.0
C2389 C 0.23843 0.04018 0.76477 0.0
C2390 C 0.23295 0.06266 0.76085 0.0
C2391 C 0.26134 0.08327 0.76158 0.0
H2392 H 0.24034 0.10695 0.74174 0.0
C2393 C 0.2778 0.13491 0.75046 0.0
C2394 C 0.26854 0.14472 0.75172 0.0
C2395 C 0.27419 0.12201 0.75075 0.0
C2396 C 0.24626 0.10047 0.74738 0.0
H2397 H 0.25844 0.03532 0.76139 0.0
H2398 H 0.26479 0.05705 0.75535 0.0
H2399 H 0.23386 0.08452 0.74404 0.0
H2400 H 0.2482 0.14866 0.75413 0.0
H2401 H 0.24194 0.12613 0.75484 0.0
H2402 H 0.27361 0.09918 0.76514 0.0
C2403 C 0.25483 0.05528 0.75781 0.0
C2404 C 0.24256 0.08763 0.74868 0.0
C2405 C 0.25117 0.04281 0.76119 0.0
C2406 C 0.25558 0.14134 0.75313 0.0
C2407 C 0.25197 0.12842 0.75344 0.0
C2408 C 0.26502 0.09608 0.7603 0.0
C2409 C 0.24583 0.06541 0.75792 0.0
C2410 C 0.25003 0.0789 0.75585 0.0
C2411 C 0.26125 0.1186 0.75234 0.0
C2412 C 0.2575 0.10487 0.75325 0.0
H2413 H 0.21938 0.04847 0.76691 0.0
H2414 H 0.22579 0.07025 0.7611 0.0
H2415 H 0.26718 0.07686 0.76739 0.0
H2416 H 0.28786 0.13718 0.74927 0.0
H2417 H 0.28156 0.11469 0.74969 0.0
C2418 C 0.27359 0.46583 0.13745 0.0
C2419 C 0.2676 0.45903 0.14754 0.0
C2420 C 0.2702 0.46364 0.12468 0.0
C2421 C 0.25685 0.43836 0.1045 0.0
H2422 H 0.25623 0.46519 0.0784 0.0
C2423 C 0.26061 0.42721 0.05044 0.0
C2424 C 0.25273 0.43425 0.04199 0.0
C2425 C 0.26139 0.43059 0.06338 0.0
C2426 C 0.25625 0.4576 0.08559 0.0
H2427 H 0.2529 0.44505 0.15217 0.0
H2428 H 0.24692 0.4413 0.12988 0.0
H2429 H 0.25862 0.47092 0.10098 0.0
H2430 H 0.23952 0.45041 0.04053 0.0
H2431 H 0.24087 0.45626 0.06316 0.0
H2432 H 0.25448 0.42505 0.08914 0.0
C2433 C 0.25438 0.44819 0.13184 0.0
C2434 C 0.25773 0.46087 0.09851 0.0
C2435 C 0.25775 0.4504 0.14462 0.0
C2436 C 0.2457 0.44479 0.04678 0.0
C2437 C 0.24651 0.44819 0.05973 0.0
C2438 C 0.25541 0.43509 0.09159 0.0
C2439 C 0.26075 0.45459 0.12171 0.0
C2440 C 0.25818 0.45128 0.1081 0.0
C2441 C 0.25434 0.4411 0.06819 0.0
C2442 C 0.25524 0.44466 0.08197 0.0
H2443 H 0.28119 0.47256 0.13935 0.0
H2444 H 0.27537 0.46865 0.11711 0.0
H2445 H 0.2573 0.43072 0.11162 0.0
H2446 H 0.26618 0.41906 0.04707 0.0
H2447 H 0.26766 0.42505 0.0696 0.0
C2448 C 0.93144 0.25196 0.0442 0.0
C2449 C 0.93138 0.26454 0.03916 0.0
C2450 C 0.92981 0.24979 0.0574 0.0
C2451 C 0.91694 0.26515 0.08674 0.0
H2452 H 0.93641 0.23854 0.10439 0.0
C2453 C 0.91308 0.25842 0.1415 0.0
C2454 C 0.91145 0.24576 0.14598 0.0
C2455 C 0.91682 0.26083 0.12879 0.0
C2456 C 0.93085 0.24595 0.09957 0.0
H2457 H 0.9297 0.28472 0.04408 0.0
H2458 H 0.927 0.28093 0.06709 0.0
H2459 H 0.9402 0.24253 0.08149 0.0
H2460 H 0.91306 0.22566 0.14076 0.0
H2461 H 0.91952 0.22987 0.11853 0.0
H2462 H 0.90752 0.26852 0.10475 0.0
C2463 C 0.92812 0.27272 0.06082 0.0
C2464 C 0.933 0.24823 0.08645 0.0
C2465 C 0.92973 0.2749 0.04763 0.0
C2466 C 0.91421 0.23553 0.13762 0.0
C2467 C 0.91797 0.23795 0.12488 0.0
C2468 C 0.91481 0.26289 0.09983 0.0
C2469 C 0.92809 0.26014 0.06587 0.0
C2470 C 0.92604 0.25783 0.07987 0.0
C2471 C 0.91902 0.25063 0.12024 0.0
C2472 C 0.92171 0.25325 0.10641 0.0
H2473 H 0.93266 0.24377 0.03794 0.0
H2474 H 0.92967 0.23997 0.06093 0.0
H2475 H 0.91124 0.27246 0.08194 0.0
H2476 H 0.91113 0.26653 0.14772 0.0
H2477 H 0.91779 0.27071 0.12558 0.0
C2478 C 0.72472 0.54814 0.26995 0.0
C2479 C 0.7352 0.54 0.27266 0.0
C2480 C 0.72671 0.56072 0.26555 0.0
C2481 C 0.75096 0.58609 0.26674 0.0
H2482 H 0.72962 0.60316 0.24136 0.0
C2483 C 0.76105 0.63785 0.24954 0.0
C2484 C 0.75043 0.6461 0.24798 0.0
C2485 C 0.75932 0.62469 0.25166 0.0
C2486 C 0.73559 0.59856 0.24855 0.0
H2487 H 0.75597 0.53847 0.2722 0.0
H2488 H 0.75941 0.56032 0.26442 0.0
H2489 H 0.72639 0.58039 0.24617 0.0
H2490 H 0.72965 0.64696 0.24736 0.0
H2491 H 0.72663 0.62404 0.25125 0.0
H2492 H 0.76003 0.60423 0.2693 0.0
C2493 C 0.74967 0.55707 0.26593 0.0
C2494 C 0.73374 0.58551 0.25128 0.0
C2495 C 0.74768 0.54452 0.27031 0.0
C2496 C 0.73804 0.64088 0.24851 0.0
C2497 C 0.73631 0.62772 0.25065 0.0
C2498 C 0.75278 0.59912 0.26403 0.0
C2499 C 0.73922 0.56541 0.26378 0.0
C2500 C 0.7414 0.57914 0.26043 0.0
C2501 C 0.74693 0.61947 0.25229 0.0
C2502 C 0.7451 0.60553 0.25493 0.0
H2503 H 0.71498 0.54496 0.27165 0.0
H2504 H 0.71846 0.56692 0.26406 0.0
H2505 H 0.75686 0.58154 0.27403 0.0
H2506 H 0.77073 0.64153 0.24912 0.0
H2507 H 0.76771 0.6186 0.2527 0.0
C2508 C 0.75711 0.9339 0.64281 0.0
C2509 C 0.75758 0.94622 0.64823 0.0
C2510 C 0.75321 0.93229 0.63011 0.0
C2511 C 0.75168 0.95004 0.59946 0.0
H2512 H 0.73318 0.92 0.58825 0.0
C2513 C 0.7397 0.94138 0.546 0.0
C2514 C 0.74203 0.92887 0.54148 0.0
C2515 C 0.7401 0.94399 0.55916 0.0
C2516 C 0.73841 0.92841 0.59123 0.0
H2517 H 0.75368 0.96646 0.64474 0.0
H2518 H 0.74669 0.96361 0.6226 0.0
H2519 H 0.73593 0.92378 0.61119 0.0
H2520 H 0.74648 0.90927 0.54728 0.0
H2521 H 0.74725 0.91385 0.5702 0.0
H2522 H 0.75432 0.95456 0.5795 0.0
C2523 C 0.74958 0.95522 0.62812 0.0
C2524 C 0.73998 0.93058 0.60437 0.0
C2525 C 0.7535 0.95684 0.64084 0.0
C2526 C 0.74464 0.91901 0.55043 0.0
C2527 C 0.74499 0.92161 0.56358 0.0
C2528 C 0.75008 0.94788 0.58632 0.0
C2529 C 0.74964 0.94295 0.62253 0.0
C2530 C 0.74682 0.94131 0.60864 0.0
C2531 C 0.74276 0.93414 0.5681 0.0
C2532 C 0.74361 0.93693 0.58206 0.0
H2533 H 0.76017 0.92551 0.64823 0.0
H2534 H 0.75351 0.92272 0.62609 0.0
H2535 H 0.75717 0.9583 0.60239 0.0
H2536 H 0.73762 0.94919 0.53937 0.0
H2537 H 0.73823 0.95372 0.56235 0.0
C2538 C 0.75945 0.5538 0.43561 0.0
C2539 C 0.7598 0.54889 0.44823 0.0
C2540 C 0.75444 0.56605 0.43312 0.0
C2541 C 0.73706 0.58925 0.42962 0.0
H2542 H 0.74602 0.61737 0.45202 0.0
C2543 C 0.71752 0.64033 0.42067 0.0
C2544 C 0.72658 0.65023 0.4212 0.0
C2545 C 0.72043 0.62807 0.42545 0.0
C2546 C 0.74345 0.60962 0.44567 0.0
H2547 H 0.75502 0.55298 0.46814 0.0
H2548 H 0.74617 0.57433 0.46378 0.0
H2549 H 0.75349 0.59562 0.45704 0.0
H2550 H 0.74561 0.65518 0.42776 0.0
H2551 H 0.75074 0.63378 0.43597 0.0
H2552 H 0.72742 0.60327 0.41799 0.0
C2553 C 0.74992 0.56875 0.45582 0.0
C2554 C 0.74761 0.59714 0.44861 0.0
C2555 C 0.75493 0.55648 0.45831 0.0
C2556 C 0.7384 0.64776 0.42718 0.0
C2557 C 0.74133 0.63549 0.43195 0.0
C2558 C 0.73289 0.60171 0.42668 0.0
C2559 C 0.74965 0.57369 0.4432 0.0
C2560 C 0.7446 0.58684 0.44052 0.0
C2561 C 0.73249 0.62543 0.43087 0.0
C2562 C 0.73615 0.61207 0.43459 0.0
H2563 H 0.76315 0.54823 0.42762 0.0
H2564 H 0.75455 0.56963 0.42331 0.0
H2565 H 0.73443 0.58151 0.42328 0.0
H2566 H 0.70828 0.64192 0.41622 0.0
H2567 H 0.71332 0.62059 0.42469 0.0
C2568 C 0.91221 0.62755 0.93125 0.0
C2569 C 0.92172 0.63699 0.93222 0.0
C2570 C 0.91557 0.61457 0.93028 0.0
C2571 C 0.94206 0.59324 0.92041 0.0
H2572 H 0.92189 0.56716 0.93791 0.0
C2573 C 0.95327 0.53925 0.91425 0.0
C2574 C 0.94257 0.53158 0.91163 0.0
C2575 C 0.95161 0.55179 0.91879 0.0
C2576 C 0.92759 0.57432 0.93293 0.0
H2577 H 0.94224 0.64016 0.93301 0.0
H2578 H 0.9481 0.61747 0.93133 0.0
H2579 H 0.91731 0.58984 0.94177 0.0
H2580 H 0.92179 0.53083 0.91235 0.0
H2581 H 0.91892 0.55263 0.92012 0.0
H2582 H 0.95214 0.57775 0.91132 0.0
C2583 C 0.93804 0.62014 0.93123 0.0
C2584 C 0.92495 0.58732 0.93512 0.0
C2585 C 0.93468 0.63314 0.93225 0.0
C2586 C 0.93024 0.53648 0.91423 0.0
C2587 C 0.92859 0.54899 0.91877 0.0
C2588 C 0.94469 0.58024 0.9182 0.0
C2589 C 0.92852 0.61071 0.93022 0.0
C2590 C 0.93201 0.59692 0.92871 0.0
C2591 C 0.93924 0.55689 0.92084 0.0
C2592 C 0.93733 0.57063 0.92426 0.0
H2593 H 0.90214 0.63018 0.93118 0.0
H2594 H 0.90801 0.60758 0.92931 0.0
H2595 H 0.94759 0.60039 0.91521 0.0
H2596 H 0.96291 0.53575 0.91241 0.0
H2597 H 0.96002 0.55757 0.92047 0.0
C2598 C 0.74242 0.24876 0.13826 0.0
C2599 C 0.74604 0.2612 0.14189 0.0
C2600 C 0.74564 0.24407 0.12607 0.0
C2601 C 0.7685 0.24906 0.09926 0.0
H2602 H 0.74408 0.22951 0.07956 0.0
C2603 C 0.78331 0.2243 0.05224 0.0
C2604 C 0.77499 0.22581 0.04176 0.0
C2605 C 0.77936 0.22774 0.06461 0.0
C2606 C 0.75098 0.235 0.08493 0.0
H2607 H 0.75579 0.2785 0.13551 0.0
H2608 H 0.76131 0.27035 0.11427 0.0
H2609 H 0.73795 0.23765 0.10075 0.0
H2610 H 0.75582 0.23167 0.03613 0.0
H2611 H 0.74894 0.23777 0.05778 0.0
H2612 H 0.78144 0.24667 0.0834 0.0
C2613 C 0.75612 0.26416 0.12089 0.0
C2614 C 0.74751 0.23955 0.09711 0.0
C2615 C 0.7529 0.26885 0.13306 0.0
C2616 C 0.76246 0.2304 0.04401 0.0
C2617 C 0.7585 0.23384 0.05642 0.0
C2618 C 0.77196 0.24449 0.08713 0.0
C2619 C 0.75257 0.2517 0.11727 0.0
C2620 C 0.75623 0.24668 0.10439 0.0
C2621 C 0.767 0.23278 0.06681 0.0
C2622 C 0.76325 0.23742 0.0798 0.0
H2623 H 0.73714 0.24261 0.14484 0.0
H2624 H 0.74288 0.23438 0.12362 0.0
H2625 H 0.77549 0.25439 0.10467 0.0
H2626 H 0.79299 0.2207 0.05088 0.0
H2627 H 0.78606 0.22657 0.07245 0.0
C2628 C 0.90226 0.92778 0.64348 0.0
C2629 C 0.9102 0.91718 0.64637 0.0
C2630 C 0.89883 0.93051 0.63077 0.0
C2631 C 0.89656 0.91566 0.59869 0.0
H2632 H 0.89782 0.95083 0.58613 0.0
C2633 C 0.89559 0.92824 0.54467 0.0
C2634 C 0.88857 0.93914 0.54072 0.0
C2635 C 0.89733 0.92557 0.55773 0.0
C2636 C 0.89724 0.94098 0.58953 0.0
H2637 H 0.92074 0.90113 0.63815 0.0
H2638 H 0.91484 0.90594 0.61601 0.0
H2639 H 0.9025 0.94618 0.60865 0.0
H2640 H 0.87775 0.95571 0.54742 0.0
H2641 H 0.8807 0.95097 0.57024 0.0
H2642 H 0.8914 0.91044 0.57957 0.0
C2643 C 0.91113 0.91206 0.62358 0.0
C2644 C 0.89993 0.93832 0.60243 0.0
C2645 C 0.91458 0.90935 0.63627 0.0
C2646 C 0.88323 0.94725 0.55014 0.0
C2647 C 0.88498 0.94457 0.56322 0.0
C2648 C 0.89386 0.91833 0.5858 0.0
C2649 C 0.90323 0.92267 0.62067 0.0
C2650 C 0.89976 0.92561 0.60712 0.0
C2651 C 0.8921 0.93372 0.56716 0.0
C2652 C 0.8943 0.931 0.58103 0.0
H2653 H 0.89869 0.934 0.65104 0.0
H2654 H 0.89262 0.93869 0.62885 0.0
H2655 H 0.89612 0.9058 0.60205 0.0
H2656 H 0.89987 0.92181 0.53768 0.0
H2657 H 0.90302 0.91723 0.56042 0.0
C2658 C 0.95788 0.63748 0.75683 0.0
C2659 C 0.94786 0.64656 0.7577 0.0
C2660 C 0.95553 0.62506 0.75242 0.0
C2661 C 0.92909 0.60207 0.75043 0.0
H2662 H 0.95305 0.58214 0.72982 0.0
C2663 C 0.91745 0.5507 0.73439 0.0
C2664 C 0.92733 0.54147 0.73532 0.0
C2665 C 0.92005 0.56375 0.7359 0.0
C2666 C 0.94632 0.58756 0.73567 0.0
H2667 H 0.92769 0.64995 0.75385 0.0
H2668 H 0.92365 0.62837 0.74601 0.0
H2669 H 0.95747 0.60474 0.73413 0.0
H2670 H 0.94773 0.53876 0.73839 0.0
H2671 H 0.95223 0.56154 0.74119 0.0
H2672 H 0.91805 0.58492 0.75219 0.0
C2673 C 0.93326 0.63076 0.749 0.0
C2674 C 0.94884 0.6005 0.73812 0.0
C2675 C 0.9356 0.64316 0.75342 0.0
C2676 C 0.9399 0.54562 0.73761 0.0
C2677 C 0.9425 0.55869 0.73913 0.0
C2678 C 0.92659 0.58916 0.74801 0.0
C2679 C 0.94312 0.62147 0.74876 0.0
C2680 C 0.94027 0.60789 0.74556 0.0
C2681 C 0.93258 0.5679 0.7384 0.0
C2682 C 0.93518 0.58173 0.74064 0.0
H2683 H 0.96744 0.63979 0.76004 0.0
H2684 H 0.96333 0.61812 0.75242 0.0
H2685 H 0.92242 0.6074 0.75644 0.0
H2686 H 0.90767 0.54785 0.73255 0.0
H2687 H 0.91222 0.5706 0.73507 0.0
loop_
_geom_bond_atom_site_label_1
_geom_bond_atom_site_label_2
_geom_bond_distance
_geom_bond_site_symmetry_2
_ccdc_geom_bond_type
O0 Cd1 2.300 . S
O0 C7 1.275 . S
Cd1 O0 2.300 . S
Cd1 O9 2.381 . S
Cd1 O10 2.378 . S
O2 Cd3 2.385 . S
O2 C7 1.255 1_455 S
Cd3 O2 2.385 . S
Cd3 O4 2.317 . S
O4 Cd3 2.317 . S
O4 C5 1.232 . S
C5 O4 1.232 . S
C5 O6 1.218 . S
O6 C5 1.218 . S
C7 O0 1.275 . S
C7 O2 1.255 1_655 S
C8 O9 1.258 . S
C8 O10 1.256 . S
O9 Cd1 2.381 . S
O9 C8 1.258 . S
O10 Cd1 2.378 . S
O10 C8 1.256 . S
O11 Cd12 2.300 . S
O11 C18 1.275 . S
Cd12 O11 2.300 . S
Cd12 O20 2.381 . S
Cd12 O21 2.378 . S
O13 Cd14 2.385 . S
O13 C18 1.255 1_455 S
Cd14 O13 2.385 . S
Cd14 O15 2.317 . S
O15 Cd14 2.317 . S
O15 C16 1.232 . S
C16 O15 1.232 . S
C16 O17 1.218 . S
O17 C16 1.218 . S
C18 O11 1.275 . S
C18 O13 1.255 1_655 S
C19 O20 1.258 . S
C19 O21 1.256 . S
O20 Cd12 2.381 . S
O20 C19 1.258 . S
O21 Cd12 2.378 . S
O21 C19 1.256 . S
O22 Cd23 2.300 . S
O22 C29 1.275 . S
Cd23 O22 2.300 . S
Cd23 O31 2.381 . S
Cd23 O32 2.378 . S
O24 Cd25 2.385 . S
O24 C29 1.255 . S
Cd25 O24 2.385 . S
Cd25 O26 2.317 . S
O26 Cd25 2.317 . S
O26 C27 1.232 . S
C27 O26 1.232 . S
C27 O28 1.218 . S
O28 C27 1.218 . S
C29 O22 1.275 . S
C29 O24 1.255 . S
C30 O31 1.258 . S
C30 O32 1.256 . S
O31 Cd23 2.381 . S
O31 C30 1.258 . S
O32 Cd23 2.378 . S
O32 C30 1.256 . S
O33 Cd34 2.300 . S
O33 C40 1.275 . S
Cd34 O33 2.300 . S
Cd34 O42 2.381 . S
Cd34 O43 2.378 . S
O35 Cd36 2.385 . S
O35 C40 1.255 . S
Cd36 O35 2.385 . S
Cd36 O37 2.317 . S
O37 Cd36 2.317 . S
O37 C38 1.232 . S
C38 O37 1.232 . S
C38 O39 1.218 . S
O39 C38 1.218 . S
C40 O33 1.275 . S
C40 O35 1.255 . S
C41 O42 1.258 . S
C41 O43 1.256 . S
O42 Cd34 2.381 . S
O42 C41 1.258 . S
O43 Cd34 2.378 . S
O43 C41 1.256 . S
O44 Cd45 2.300 . S
O44 C51 1.275 . S
Cd45 O44 2.300 . S
Cd45 O53 2.381 . S
Cd45 O54 2.378 . S
O46 Cd47 2.385 . S
O46 C51 1.255 1_455 S
Cd47 O46 2.385 . S
Cd47 O48 2.317 . S
O48 Cd47 2.317 . S
O48 C49 1.232 . S
C49 O48 1.232 . S
C49 O50 1.218 . S
O50 C49 1.218 . S
C51 O44 1.275 . S
C51 O46 1.255 1_655 S
C52 O53 1.258 . S
C52 O54 1.256 . S
O53 Cd45 2.381 . S
O53 C52 1.258 . S
O54 Cd45 2.378 . S
O54 C52 1.256 . S
O55 Cd56 2.300 . S
O55 C62 1.275 . S
Cd56 O55 2.300 . S
Cd56 O64 2.381 . S
Cd56 O65 2.378 . S
O57 Cd58 2.385 . S
O57 C62 1.255 . S
Cd58 O57 2.385 . S
Cd58 O59 2.317 . S
O59 Cd58 2.317 . S
O59 C60 1.232 . S
C60 O59 1.232 . S
C60 O61 1.218 . S
O61 C60 1.218 . S
C62 O55 1.275 . S
C62 O57 1.255 . S
C63 O64 1.258 . S
C63 O65 1.256 . S
O64 Cd56 2.381 . S
O64 C63 1.258 . S
O65 Cd56 2.378 . S
O65 C63 1.256 . S
O66 Cd67 2.300 . S
O66 C73 1.275 . S
Cd67 O66 2.300 . S
Cd67 O75 2.381 . S
Cd67 O76 2.378 . S
O68 Cd69 2.385 . S
O68 C73 1.255 . S
Cd69 O68 2.385 . S
Cd69 O70 2.317 . S
O70 Cd69 2.317 . S
O70 C71 1.232 . S
C71 O70 1.232 . S
C71 O72 1.218 . S
O72 C71 1.218 . S
C73 O66 1.275 . S
C73 O68 1.255 . S
C74 O75 1.258 . S
C74 O76 1.256 . S
O75 Cd67 2.381 . S
O75 C74 1.258 . S
O76 Cd67 2.378 . S
O76 C74 1.256 . S
O77 Cd78 2.300 . S
O77 C84 1.275 . S
Cd78 O77 2.300 . S
Cd78 O86 2.381 . S
Cd78 O87 2.378 . S
O79 Cd80 2.385 . S
O79 C84 1.255 1_455 S
Cd80 O79 2.385 . S
Cd80 O81 2.317 . S
O81 Cd80 2.317 . S
O81 C82 1.232 . S
C82 O81 1.232 . S
C82 O83 1.218 . S
O83 C82 1.218 . S
C84 O77 1.275 . S
C84 O79 1.255 1_655 S
C85 O86 1.258 . S
C85 O87 1.256 . S
O86 Cd78 2.381 . S
O86 C85 1.258 . S
O87 Cd78 2.378 . S
O87 C85 1.256 . S
O88 Cd89 2.300 . S
O88 C95 1.275 . S
Cd89 O88 2.300 . S
Cd89 O97 2.381 . S
Cd89 O98 2.378 . S
O90 Cd91 2.385 . S
O90 C95 1.255 1_545 S
Cd91 O90 2.385 . S
Cd91 O92 2.317 . S
O92 Cd91 2.317 . S
O92 C93 1.232 . S
C93 O92 1.232 . S
C93 O94 1.218 . S
O94 C93 1.218 . S
C95 O88 1.275 . S
C95 O90 1.255 1_565 S
C96 O97 1.258 . S
C96 O98 1.256 . S
O97 Cd89 2.381 . S
O97 C96 1.258 . S
O98 Cd89 2.378 . S
O98 C96 1.256 . S
O99 Cd100 2.300 . S
O99 C106 1.275 . S
Cd100 O99 2.300 . S
Cd100 O108 2.381 . S
Cd100 O109 2.378 . S
O101 Cd102 2.385 . S
O101 C106 1.255 . S
Cd102 O101 2.385 . S
Cd102 O103 2.317 . S
O103 Cd102 2.317 . S
O103 C104 1.232 . S
C104 O103 1.232 . S
C104 O105 1.218 . S
O105 C104 1.218 . S
C106 O99 1.275 . S
C106 O101 1.255 . S
C107 O108 1.258 . S
C107 O109 1.256 . S
O108 Cd100 2.381 . S
O108 C107 1.258 . S
O109 Cd100 2.378 . S
O109 C107 1.256 . S
O110 Cd111 2.300 . S
O110 C117 1.275 . S
Cd111 O110 2.300 . S
Cd111 O119 2.381 . S
Cd111 O120 2.378 . S
O112 Cd113 2.385 . S
O112 C117 1.255 . S
Cd113 O112 2.385 . S
Cd113 O114 2.317 . S
O114 Cd113 2.317 . S
O114 C115 1.232 . S
C115 O114 1.232 . S
C115 O116 1.218 . S
O116 C115 1.218 . S
C117 O110 1.275 . S
C117 O112 1.255 . S
C118 O119 1.258 . S
C118 O120 1.256 . S
O119 Cd111 2.381 . S
O119 C118 1.258 . S
O120 Cd111 2.378 . S
O120 C118 1.256 . S
O121 Cd122 2.300 . S
O121 C128 1.275 . S
Cd122 O121 2.300 . S
Cd122 O130 2.381 . S
Cd122 O131 2.378 . S
O123 Cd124 2.385 . S
O123 C128 1.255 . S
Cd124 O123 2.385 . S
Cd124 O125 2.317 . S
O125 Cd124 2.317 . S
O125 C126 1.232 . S
C126 O125 1.232 . S
C126 O127 1.218 . S
O127 C126 1.218 . S
C128 O121 1.275 . S
C128 O123 1.255 . S
C129 O130 1.258 . S
C129 O131 1.256 . S
O130 Cd122 2.381 . S
O130 C129 1.258 . S
O131 Cd122 2.378 . S
O131 C129 1.256 . S
O132 Cd133 2.300 . S
O132 C139 1.275 . S
Cd133 O132 2.300 . S
Cd133 O141 2.381 . S
Cd133 O142 2.378 . S
O134 Cd135 2.385 . S
O134 C139 1.255 . S
Cd135 O134 2.385 . S
Cd135 O136 2.317 . S
O136 Cd135 2.317 . S
O136 C137 1.232 . S
C137 O136 1.232 . S
C137 O138 1.218 . S
O138 C137 1.218 . S
C139 O132 1.275 . S
C139 O134 1.255 . S
C140 O141 1.258 . S
C140 O142 1.256 . S
O141 Cd133 2.381 . S
O141 C140 1.258 . S
O142 Cd133 2.378 . S
O142 C140 1.256 . S
O143 Cd144 2.300 . S
O143 C150 1.275 . S
Cd144 O143 2.300 . S
Cd144 O152 2.381 . S
Cd144 O153 2.378 . S
O145 Cd146 2.385 . S
O145 C150 1.255 . S
Cd146 O145 2.385 . S
Cd146 O147 2.317 . S
O147 Cd146 2.317 . S
O147 C148 1.232 . S
C148 O147 1.232 . S
C148 O149 1.218 . S
O149 C148 1.218 . S
C150 O143 1.275 . S
C150 O145 1.255 . S
C151 O152 1.258 . S
C151 O153 1.256 . S
O152 Cd144 2.381 . S
O152 C151 1.258 . S
O153 Cd144 2.378 . S
O153 C151 1.256 . S
O154 Cd155 2.300 . S
O154 C161 1.275 . S
Cd155 O154 2.300 . S
Cd155 O163 2.381 . S
Cd155 O164 2.378 . S
O156 Cd157 2.385 . S
O156 C161 1.255 1_545 S
Cd157 O156 2.385 . S
Cd157 O158 2.317 . S
O158 Cd157 2.317 . S
O158 C159 1.232 . S
C159 O158 1.232 . S
C159 O160 1.218 . S
O160 C159 1.218 . S
C161 O154 1.275 . S
C161 O156 1.255 1_565 S
C162 O163 1.258 . S
C162 O164 1.256 . S
O163 Cd155 2.381 . S
O163 C162 1.258 . S
O164 Cd155 2.378 . S
O164 C162 1.256 . S
O165 Cd166 2.300 . S
O165 C172 1.275 . S
Cd166 O165 2.300 . S
Cd166 O174 2.381 . S
Cd166 O175 2.378 . S
O167 Cd168 2.385 . S
O167 C172 1.255 1_554 S
Cd168 O167 2.385 . S
Cd168 O169 2.317 . S
O169 Cd168 2.317 . S
O169 C170 1.232 . S
C170 O169 1.232 . S
C170 O171 1.218 . S
O171 C170 1.218 . S
C172 O165 1.275 . S
C172 O167 1.255 1_556 S
C173 O174 1.258 . S
C173 O175 1.256 . S
O174 Cd166 2.381 . S
O174 C173 1.258 . S
O175 Cd166 2.378 . S
O175 C173 1.256 . S
O176 Cd177 2.300 . S
O176 C183 1.275 . S
Cd177 O176 2.300 . S
Cd177 O185 2.381 . S
Cd177 O186 2.378 . S
O178 Cd179 2.385 . S
O178 C183 1.255 1_554 S
Cd179 O178 2.385 . S
Cd179 O180 2.317 . S
O180 Cd179 2.317 . S
O180 C181 1.232 . S
C181 O180 1.232 . S
C181 O182 1.218 . S
O182 C181 1.218 . S
C183 O176 1.275 . S
C183 O178 1.255 1_556 S
C184 O185 1.258 . S
C184 O186 1.256 . S
O185 Cd177 2.381 . S
O185 C184 1.258 . S
O186 Cd177 2.378 . S
O186 C184 1.256 . S
O187 Cd188 2.300 . S
O187 C194 1.275 . S
Cd188 O187 2.300 . S
Cd188 O196 2.381 . S
Cd188 O197 2.378 . S
O189 Cd190 2.385 . S
O189 C194 1.255 . S
Cd190 O189 2.385 . S
Cd190 O191 2.317 . S
O191 Cd190 2.317 . S
O191 C192 1.232 . S
C192 O191 1.232 . S
C192 O193 1.218 . S
O193 C192 1.218 . S
C194 O187 1.275 . S
C194 O189 1.255 . S
C195 O196 1.258 . S
C195 O197 1.256 . S
O196 Cd188 2.381 . S
O196 C195 1.258 . S
O197 Cd188 2.378 . S
O197 C195 1.256 . S
O198 Cd199 2.300 . S
O198 C205 1.275 . S
Cd199 O198 2.300 . S
Cd199 O207 2.381 . S
Cd199 O208 2.378 . S
O200 Cd201 2.385 . S
O200 C205 1.255 . S
Cd201 O200 2.385 . S
Cd201 O202 2.317 . S
O202 Cd201 2.317 . S
O202 C203 1.232 . S
C203 O202 1.232 . S
C203 O204 1.218 . S
O204 C203 1.218 . S
C205 O198 1.275 . S
C205 O200 1.255 . S
C206 O207 1.258 . S
C206 O208 1.256 . S
O207 Cd199 2.381 . S
O207 C206 1.258 . S
O208 Cd199 2.378 . S
O208 C206 1.256 . S
O209 Cd210 2.300 . S
O209 C216 1.275 . S
Cd210 O209 2.300 . S
Cd210 O218 2.381 . S
Cd210 O219 2.378 . S
O211 Cd212 2.385 . S
O211 C216 1.255 . S
Cd212 O211 2.385 . S
Cd212 O213 2.317 . S
O213 Cd212 2.317 . S
O213 C214 1.232 . S
C214 O213 1.232 . S
C214 O215 1.218 . S
O215 C214 1.218 . S
C216 O209 1.275 . S
C216 O211 1.255 . S
C217 O218 1.258 . S
C217 O219 1.256 . S
O218 Cd210 2.381 . S
O218 C217 1.258 . S
O219 Cd210 2.378 . S
O219 C217 1.256 . S
O220 Cd221 2.300 . S
O220 C227 1.275 . S
Cd221 O220 2.300 . S
Cd221 O229 2.381 . S
Cd221 O230 2.378 . S
O222 Cd223 2.385 . S
O222 C227 1.255 1_545 S
Cd223 O222 2.385 . S
Cd223 O224 2.317 . S
O224 Cd223 2.317 . S
O224 C225 1.232 . S
C225 O224 1.232 . S
C225 O226 1.218 . S
O226 C225 1.218 . S
C227 O220 1.275 . S
C227 O222 1.255 1_565 S
C228 O229 1.258 . S
C228 O230 1.256 . S
O229 Cd221 2.381 . S
O229 C228 1.258 . S
O230 Cd221 2.378 . S
O230 C228 1.256 . S
O231 Cd232 2.300 . S
O231 C238 1.275 . S
Cd232 O231 2.300 . S
Cd232 O240 2.381 . S
Cd232 O241 2.378 . S
O233 Cd234 2.385 . S
O233 C238 1.255 . S
Cd234 O233 2.385 . S
Cd234 O235 2.317 . S
O235 Cd234 2.317 . S
O235 C236 1.232 . S
C236 O235 1.232 . S
C236 O237 1.218 . S
O237 C236 1.218 . S
C238 O231 1.275 . S
C238 O233 1.255 . S
C239 O240 1.258 . S
C239 O241 1.256 . S
O240 Cd232 2.381 . S
O240 C239 1.258 . S
O241 Cd232 2.378 . S
O241 C239 1.256 . S
O242 Cd243 2.300 . S
O242 C249 1.275 . S
Cd243 O242 2.300 . S
Cd243 O251 2.381 . S
Cd243 O252 2.378 . S
O244 Cd245 2.385 . S
O244 C249 1.255 . S
Cd245 O244 2.385 . S
Cd245 O246 2.317 . S
O246 Cd245 2.317 . S
O246 C247 1.232 . S
C247 O246 1.232 . S
C247 O248 1.218 . S
O248 C247 1.218 . S
C249 O242 1.275 . S
C249 O244 1.255 . S
C250 O251 1.258 . S
C250 O252 1.256 . S
O251 Cd243 2.381 . S
O251 C250 1.258 . S
O252 Cd243 2.378 . S
O252 C250 1.256 . S
O253 Cd254 2.300 . S
O253 C260 1.275 . S
Cd254 O253 2.300 . S
Cd254 O262 2.381 . S
Cd254 O263 2.378 . S
O255 Cd256 2.385 . S
O255 C260 1.255 . S
Cd256 O255 2.385 . S
Cd256 O257 2.317 . S
O257 Cd256 2.317 . S
O257 C258 1.232 . S
C258 O257 1.232 . S
C258 O259 1.218 . S
O259 C258 1.218 . S
C260 O253 1.275 . S
C260 O255 1.255 . S
C261 O262 1.258 . S
C261 O263 1.256 . S
O262 Cd254 2.381 . S
O262 C261 1.258 . S
O263 Cd254 2.378 . S
O263 C261 1.256 . S
O264 Cd265 2.300 . S
O264 C271 1.275 . S
Cd265 O264 2.300 . S
Cd265 O273 2.381 . S
Cd265 O274 2.378 . S
O266 Cd267 2.385 . S
O266 C271 1.255 . S
Cd267 O266 2.385 . S
Cd267 O268 2.317 . S
O268 Cd267 2.317 . S
O268 C269 1.232 . S
C269 O268 1.232 . S
C269 O270 1.218 . S
O270 C269 1.218 . S
C271 O264 1.275 . S
C271 O266 1.255 . S
C272 O273 1.258 . S
C272 O274 1.256 . S
O273 Cd265 2.381 . S
O273 C272 1.258 . S
O274 Cd265 2.378 . S
O274 C272 1.256 . S
O275 Cd276 2.300 . S
O275 C282 1.275 . S
Cd276 O275 2.300 . S
Cd276 O284 2.381 . S
Cd276 O285 2.378 . S
O277 Cd278 2.385 . S
O277 C282 1.255 . S
Cd278 O277 2.385 . S
Cd278 O279 2.317 . S
O279 Cd278 2.317 . S
O279 C280 1.232 . S
C280 O279 1.232 . S
C280 O281 1.218 . S
O281 C280 1.218 . S
C282 O275 1.275 . S
C282 O277 1.255 . S
C283 O284 1.258 . S
C283 O285 1.256 . S
O284 Cd276 2.381 . S
O284 C283 1.258 . S
O285 Cd276 2.378 . S
O285 C283 1.256 . S
O286 Cd287 2.300 . S
O286 C293 1.275 . S
Cd287 O286 2.300 . S
Cd287 O295 2.381 . S
Cd287 O296 2.378 . S
O288 Cd289 2.385 . S
O288 C293 1.255 . S
Cd289 O288 2.385 . S
Cd289 O290 2.317 . S
O290 Cd289 2.317 . S
O290 C291 1.232 . S
C291 O290 1.232 . S
C291 O292 1.218 . S
O292 C291 1.218 . S
C293 O286 1.275 . S
C293 O288 1.255 . S
C294 O295 1.258 . S
C294 O296 1.256 . S
O295 Cd287 2.381 . S
O295 C294 1.258 . S
O296 Cd287 2.378 . S
O296 C294 1.256 . S
O297 Cd298 2.300 . S
O297 C304 1.275 . S
Cd298 O297 2.300 . S
Cd298 O306 2.381 . S
Cd298 O307 2.378 . S
O299 Cd300 2.385 . S
O299 C304 1.255 . S
Cd300 O299 2.385 . S
Cd300 O301 2.317 . S
O301 Cd300 2.317 . S
O301 C302 1.232 . S
C302 O301 1.232 . S
C302 O303 1.218 . S
O303 C302 1.218 . S
C304 O297 1.275 . S
C304 O299 1.255 . S
C305 O306 1.258 . S
C305 O307 1.256 . S
O306 Cd298 2.381 . S
O306 C305 1.258 . S
O307 Cd298 2.378 . S
O307 C305 1.256 . S
O308 Cd309 2.300 . S
O308 C315 1.275 . S
Cd309 O308 2.300 . S
Cd309 O317 2.381 . S
Cd309 O318 2.378 . S
O310 Cd311 2.385 . S
O310 C315 1.255 . S
Cd311 O310 2.385 . S
Cd311 O312 2.317 . S
O312 Cd311 2.317 . S
O312 C313 1.232 . S
C313 O312 1.232 . S
C313 O314 1.218 . S
O314 C313 1.218 . S
C315 O308 1.275 . S
C315 O310 1.255 . S
C316 O317 1.258 . S
C316 O318 1.256 . S
O317 Cd309 2.381 . S
O317 C316 1.258 . S
O318 Cd309 2.378 . S
O318 C316 1.256 . S
O319 Cd320 2.300 . S
O319 C326 1.275 . S
Cd320 O319 2.300 . S
Cd320 O328 2.381 . S
Cd320 O329 2.378 . S
O321 Cd322 2.385 . S
O321 C326 1.255 . S
Cd322 O321 2.385 . S
Cd322 O323 2.317 . S
O323 Cd322 2.317 . S
O323 C324 1.232 . S
C324 O323 1.232 . S
C324 O325 1.218 . S
O325 C324 1.218 . S
C326 O319 1.275 . S
C326 O321 1.255 . S
C327 O328 1.258 . S
C327 O329 1.256 . S
O328 Cd320 2.381 . S
O328 C327 1.258 . S
O329 Cd320 2.378 . S
O329 C327 1.256 . S
O330 Cd331 2.300 . S
O330 C337 1.275 . S
Cd331 O330 2.300 . S
Cd331 O339 2.381 . S
Cd331 O340 2.378 . S
O332 Cd333 2.385 . S
O332 C337 1.255 . S
Cd333 O332 2.385 . S
Cd333 O334 2.317 . S
O334 Cd333 2.317 . S
O334 C335 1.232 . S
C335 O334 1.232 . S
C335 O336 1.218 . S
O336 C335 1.218 . S
C337 O330 1.275 . S
C337 O332 1.255 . S
C338 O339 1.258 . S
C338 O340 1.256 . S
O339 Cd331 2.381 . S
O339 C338 1.258 . S
O340 Cd331 2.378 . S
O340 C338 1.256 . S
O341 Cd342 2.300 . S
O341 C348 1.275 . S
Cd342 O341 2.300 . S
Cd342 O350 2.381 . S
Cd342 O351 2.378 . S
O343 Cd344 2.385 . S
O343 C348 1.255 . S
Cd344 O343 2.385 . S
Cd344 O345 2.317 . S
O345 Cd344 2.317 . S
O345 C346 1.232 . S
C346 O345 1.232 . S
C346 O347 1.218 . S
O347 C346 1.218 . S
C348 O341 1.275 . S
C348 O343 1.255 . S
C349 O350 1.258 . S
C349 O351 1.256 . S
O350 Cd342 2.381 . S
O350 C349 1.258 . S
O351 Cd342 2.378 . S
O351 C349 1.256 . S
O352 Cd353 2.300 . S
O352 C359 1.275 . S
Cd353 O352 2.300 . S
Cd353 O361 2.381 . S
Cd353 O362 2.378 . S
O354 Cd355 2.385 . S
O354 C359 1.255 . S
Cd355 O354 2.385 . S
Cd355 O356 2.317 . S
O356 Cd355 2.317 . S
O356 C357 1.232 . S
C357 O356 1.232 . S
C357 O358 1.218 . S
O358 C357 1.218 . S
C359 O352 1.275 . S
C359 O354 1.255 . S
C360 O361 1.258 . S
C360 O362 1.256 . S
O361 Cd353 2.381 . S
O361 C360 1.258 . S
O362 Cd353 2.378 . S
O362 C360 1.256 . S
O363 Cd364 2.300 . S
O363 C370 1.275 . S
Cd364 O363 2.300 . S
Cd364 O372 2.381 . S
Cd364 O373 2.378 . S
O365 Cd366 2.385 . S
O365 C370 1.255 . S
Cd366 O365 2.385 . S
Cd366 O367 2.317 . S
O367 Cd366 2.317 . S
O367 C368 1.232 . S
C368 O367 1.232 . S
C368 O369 1.218 . S
O369 C368 1.218 . S
C370 O363 1.275 . S
C370 O365 1.255 . S
C371 O372 1.258 . S
C371 O373 1.256 . S
O372 Cd364 2.381 . S
O372 C371 1.258 . S
O373 Cd364 2.378 . S
O373 C371 1.256 . S
O374 Cd375 2.300 . S
O374 C381 1.275 . S
Cd375 O374 2.300 . S
Cd375 O383 2.381 . S
Cd375 O384 2.378 . S
O376 Cd377 2.385 . S
O376 C381 1.255 . S
Cd377 O376 2.385 . S
Cd377 O378 2.317 . S
O378 Cd377 2.317 . S
O378 C379 1.232 . S
C379 O378 1.232 . S
C379 O380 1.218 . S
O380 C379 1.218 . S
C381 O374 1.275 . S
C381 O376 1.255 . S
C382 O383 1.258 . S
C382 O384 1.256 . S
O383 Cd375 2.381 . S
O383 C382 1.258 . S
O384 Cd375 2.378 . S
O384 C382 1.256 . S
O385 Cd386 2.300 . S
O385 C392 1.275 . S
Cd386 O385 2.300 . S
Cd386 O394 2.381 . S
Cd386 O395 2.378 . S
O387 Cd388 2.385 . S
O387 C392 1.255 . S
Cd388 O387 2.385 . S
Cd388 O389 2.317 . S
O389 Cd388 2.317 . S
O389 C390 1.232 . S
C390 O389 1.232 . S
C390 O391 1.218 . S
O391 C390 1.218 . S
C392 O385 1.275 . S
C392 O387 1.255 . S
C393 O394 1.258 . S
C393 O395 1.256 . S
O394 Cd386 2.381 . S
O394 C393 1.258 . S
O395 Cd386 2.378 . S
O395 C393 1.256 . S
O396 Cd397 2.300 . S
O396 C403 1.275 . S
Cd397 O396 2.300 . S
Cd397 O405 2.381 . S
Cd397 O406 2.378 . S
O398 Cd399 2.385 . S
O398 C403 1.255 . S
Cd399 O398 2.385 . S
Cd399 O400 2.317 . S
O400 Cd399 2.317 . S
O400 C401 1.232 . S
C401 O400 1.232 . S
C401 O402 1.218 . S
O402 C401 1.218 . S
C403 O396 1.275 . S
C403 O398 1.255 . S
C404 O405 1.258 . S
C404 O406 1.256 . S
O405 Cd397 2.381 . S
O405 C404 1.258 . S
O406 Cd397 2.378 . S
O406 C404 1.256 . S
O407 Cd408 2.300 . S
O407 C414 1.275 . S
Cd408 O407 2.300 . S
Cd408 O416 2.381 . S
Cd408 O417 2.378 . S
O409 Cd410 2.385 . S
O409 C414 1.255 1_554 S
Cd410 O409 2.385 . S
Cd410 O411 2.317 . S
O411 Cd410 2.317 . S
O411 C412 1.232 . S
C412 O411 1.232 . S
C412 O413 1.218 . S
O413 C412 1.218 . S
C414 O407 1.275 . S
C414 O409 1.255 1_556 S
C415 O416 1.258 . S
C415 O417 1.256 . S
O416 Cd408 2.381 . S
O416 C415 1.258 . S
O417 Cd408 2.378 . S
O417 C415 1.256 . S
O418 Cd419 2.300 . S
O418 C425 1.275 . S
Cd419 O418 2.300 . S
Cd419 O427 2.381 . S
Cd419 O428 2.378 . S
O420 Cd421 2.385 . S
O420 C425 1.255 . S
Cd421 O420 2.385 . S
Cd421 O422 2.317 . S
O422 Cd421 2.317 . S
O422 C423 1.232 . S
C423 O422 1.232 . S
C423 O424 1.218 . S
O424 C423 1.218 . S
C425 O418 1.275 . S
C425 O420 1.255 . S
C426 O427 1.258 . S
C426 O428 1.256 . S
O427 Cd419 2.381 . S
O427 C426 1.258 . S
O428 Cd419 2.378 . S
O428 C426 1.256 . S
O429 Cd430 2.300 . S
O429 C436 1.275 . S
Cd430 O429 2.300 . S
Cd430 O438 2.381 . S
Cd430 O439 2.378 . S
O431 Cd432 2.385 . S
O431 C436 1.255 . S
Cd432 O431 2.385 . S
Cd432 O433 2.317 . S
O433 Cd432 2.317 . S
O433 C434 1.232 . S
C434 O433 1.232 . S
C434 O435 1.218 . S
O435 C434 1.218 . S
C436 O429 1.275 . S
C436 O431 1.255 . S
C437 O438 1.258 . S
C437 O439 1.256 . S
O438 Cd430 2.381 . S
O438 C437 1.258 . S
O439 Cd430 2.378 . S
O439 C437 1.256 . S
O440 Cd441 2.300 . S
O440 C447 1.275 . S
Cd441 O440 2.300 . S
Cd441 O449 2.381 . S
Cd441 O450 2.378 . S
O442 Cd443 2.385 . S
O442 C447 1.255 . S
Cd443 O442 2.385 . S
Cd443 O444 2.317 . S
O444 Cd443 2.317 . S
O444 C445 1.232 . S
C445 O444 1.232 . S
C445 O446 1.218 . S
O446 C445 1.218 . S
C447 O440 1.275 . S
C447 O442 1.255 . S
C448 O449 1.258 . S
C448 O450 1.256 . S
O449 Cd441 2.381 . S
O449 C448 1.258 . S
O450 Cd441 2.378 . S
O450 C448 1.256 . S
O451 Cd452 2.300 . S
O451 C458 1.275 . S
Cd452 O451 2.300 . S
Cd452 O460 2.381 . S
Cd452 O461 2.378 . S
O453 Cd454 2.385 . S
O453 C458 1.255 . S
Cd454 O453 2.385 . S
Cd454 O455 2.317 . S
O455 Cd454 2.317 . S
O455 C456 1.232 . S
C456 O455 1.232 . S
C456 O457 1.218 . S
O457 C456 1.218 . S
C458 O451 1.275 . S
C458 O453 1.255 . S
C459 O460 1.258 . S
C459 O461 1.256 . S
O460 Cd452 2.381 . S
O460 C459 1.258 . S
O461 Cd452 2.378 . S
O461 C459 1.256 . S
O462 Cd463 2.300 . S
O462 C469 1.275 . S
Cd463 O462 2.300 . S
Cd463 O471 2.381 . S
Cd463 O472 2.378 . S
O464 Cd465 2.385 . S
O464 C469 1.255 . S
Cd465 O464 2.385 . S
Cd465 O466 2.317 . S
O466 Cd465 2.317 . S
O466 C467 1.232 . S
C467 O466 1.232 . S
C467 O468 1.218 . S
O468 C467 1.218 . S
C469 O462 1.275 . S
C469 O464 1.255 . S
C470 O471 1.258 . S
C470 O472 1.256 . S
O471 Cd463 2.381 . S
O471 C470 1.258 . S
O472 Cd463 2.378 . S
O472 C470 1.256 . S
O473 Cd474 2.300 . S
O473 C480 1.275 . S
Cd474 O473 2.300 . S
Cd474 O482 2.381 . S
Cd474 O483 2.378 . S
O475 Cd476 2.385 . S
O475 C480 1.255 . S
Cd476 O475 2.385 . S
Cd476 O477 2.317 . S
O477 Cd476 2.317 . S
O477 C478 1.232 . S
C478 O477 1.232 . S
C478 O479 1.218 . S
O479 C478 1.218 . S
C480 O473 1.275 . S
C480 O475 1.255 . S
C481 O482 1.258 . S
C481 O483 1.256 . S
O482 Cd474 2.381 . S
O482 C481 1.258 . S
O483 Cd474 2.378 . S
O483 C481 1.256 . S
O484 Cd485 2.300 . S
O484 C491 1.275 . S
Cd485 O484 2.300 . S
Cd485 O493 2.381 . S
Cd485 O494 2.378 . S
O486 Cd487 2.385 . S
O486 C491 1.255 . S
Cd487 O486 2.385 . S
Cd487 O488 2.317 . S
O488 Cd487 2.317 . S
O488 C489 1.232 . S
C489 O488 1.232 . S
C489 O490 1.218 . S
O490 C489 1.218 . S
C491 O484 1.275 . S
C491 O486 1.255 . S
C492 O493 1.258 . S
C492 O494 1.256 . S
O493 Cd485 2.381 . S
O493 C492 1.258 . S
O494 Cd485 2.378 . S
O494 C492 1.256 . S
O495 Cd496 2.300 . S
O495 C502 1.275 . S
Cd496 O495 2.300 . S
Cd496 O504 2.381 . S
Cd496 O505 2.378 . S
O497 Cd498 2.385 . S
O497 C502 1.255 1_554 S
Cd498 O497 2.385 . S
Cd498 O499 2.317 . S
O499 Cd498 2.317 . S
O499 C500 1.232 . S
C500 O499 1.232 . S
C500 O501 1.218 . S
O501 C500 1.218 . S
C502 O495 1.275 . S
C502 O497 1.255 1_556 S
C503 O504 1.258 . S
C503 O505 1.256 . S
O504 Cd496 2.381 . S
O504 C503 1.258 . S
O505 Cd496 2.378 . S
O505 C503 1.256 . S
O506 Cd507 2.300 . S
O506 C513 1.275 . S
Cd507 O506 2.300 . S
Cd507 O515 2.381 . S
Cd507 O516 2.378 . S
O508 Cd509 2.385 . S
O508 C513 1.255 1_545 S
Cd509 O508 2.385 . S
Cd509 O510 2.317 . S
O510 Cd509 2.317 . S
O510 C511 1.232 . S
C511 O510 1.232 . S
C511 O512 1.218 . S
O512 C511 1.218 . S
C513 O506 1.275 . S
C513 O508 1.255 1_565 S
C514 O515 1.258 . S
C514 O516 1.256 . S
O515 Cd507 2.381 . S
O515 C514 1.258 . S
O516 Cd507 2.378 . S
O516 C514 1.256 . S
O517 Cd518 2.300 . S
O517 C524 1.275 . S
Cd518 O517 2.300 . S
Cd518 O526 2.381 . S
Cd518 O527 2.378 . S
O519 Cd520 2.385 . S
O519 C524 1.255 . S
Cd520 O519 2.385 . S
Cd520 O521 2.317 . S
O521 Cd520 2.317 . S
O521 C522 1.232 . S
C522 O521 1.232 . S
C522 O523 1.218 . S
O523 C522 1.218 . S
C524 O517 1.275 . S
C524 O519 1.255 . S
C525 O526 1.258 . S
C525 O527 1.256 . S
O526 Cd518 2.381 . S
O526 C525 1.258 . S
O527 Cd518 2.378 . S
O527 C525 1.256 . S
C528 C529 1.349 . S
C528 C530 1.327 . S
C528 H553 0.950 . S
C529 C528 1.349 . S
C529 C545 1.349 . S
C530 C528 1.327 . S
C530 C549 1.429 . S
C530 H554 0.950 . S
C531 C548 1.574 . S
C531 C550 1.368 . S
C531 H555 0.949 . S
H532 C536 0.949 . S
C533 C534 1.349 . S
C533 C535 1.327 . S
C533 H556 0.950 . S
C534 C533 1.349 . S
C534 C546 1.349 . S
C535 C533 1.327 . S
C535 C551 1.429 . S
C535 H557 0.950 . S
C536 H532 0.949 . S
C536 C544 1.574 . S
C536 C552 1.368 . S
H537 C545 0.950 . S
H538 C543 0.950 . S
H539 C544 0.949 . S
H540 C546 0.950 . S
H541 C547 0.950 . S
H542 C548 0.949 . S
C543 H538 0.950 . S
C543 C545 1.327 . S
C543 C549 1.429 . S
C544 C536 1.574 . S
C544 H539 0.949 . S
C544 C550 1.368 . S
C545 C529 1.349 . S
C545 H537 0.950 . S
C545 C543 1.327 . S
C546 C534 1.349 . S
C546 H540 0.950 . S
C546 C547 1.327 . S
C547 H541 0.950 . S
C547 C546 1.327 . S
C547 C551 1.429 . S
C548 C531 1.574 . S
C548 H542 0.949 . S
C548 C552 1.368 . S
C549 C530 1.429 . S
C549 C543 1.429 . S
C549 C550 1.523 . S
C550 C531 1.368 . S
C550 C544 1.368 . S
C550 C549 1.523 . S
C551 C535 1.429 . S
C551 C547 1.429 . S
C551 C552 1.523 . S
C552 C536 1.368 . S
C552 C548 1.368 . S
C552 C551 1.523 . S
H553 C528 0.950 . S
H554 C530 0.950 . S
H555 C531 0.949 . S
H556 C533 0.950 . S
H557 C535 0.950 . S
C558 C559 1.349 . S
C558 C560 1.327 . S
C558 H583 0.950 . S
C559 C558 1.349 . S
C559 C575 1.349 . S
C560 C558 1.327 . S
C560 C579 1.429 . S
C560 H584 0.950 . S
C561 C578 1.574 . S
C561 C580 1.368 . S
C561 H585 0.949 . S
H562 C566 0.949 . S
C563 C564 1.349 . S
C563 C565 1.327 . S
C563 H586 0.950 . S
C564 C563 1.349 . S
C564 C576 1.349 . S
C565 C563 1.327 . S
C565 C581 1.429 . S
C565 H587 0.950 . S
C566 H562 0.949 . S
C566 C574 1.574 . S
C566 C582 1.368 . S
H567 C575 0.950 . S
H568 C573 0.950 . S
H569 C574 0.949 . S
H570 C576 0.950 . S
H571 C577 0.950 . S
H572 C578 0.949 . S
C573 H568 0.950 . S
C573 C575 1.327 . S
C573 C579 1.429 . S
C574 C566 1.574 . S
C574 H569 0.949 . S
C574 C580 1.368 . S
C575 C559 1.349 . S
C575 H567 0.950 . S
C575 C573 1.327 . S
C576 C564 1.349 . S
C576 H570 0.950 . S
C576 C577 1.327 . S
C577 H571 0.950 . S
C577 C576 1.327 . S
C577 C581 1.429 . S
C578 C561 1.574 . S
C578 H572 0.949 . S
C578 C582 1.368 . S
C579 C560 1.429 . S
C579 C573 1.429 . S
C579 C580 1.523 . S
C580 C561 1.368 . S
C580 C574 1.368 . S
C580 C579 1.523 . S
C581 C565 1.429 . S
C581 C577 1.429 . S
C581 C582 1.523 . S
C582 C566 1.368 . S
C582 C578 1.368 . S
C582 C581 1.523 . S
H583 C558 0.950 . S
H584 C560 0.950 . S
H585 C561 0.949 . S
H586 C563 0.950 . S
H587 C565 0.950 . S
C588 C589 1.349 . S
C588 C590 1.327 . S
C588 H613 0.950 . S
C589 C588 1.349 . S
C589 C605 1.349 . S
C590 C588 1.327 . S
C590 C609 1.429 . S
C590 H614 0.950 . S
C591 C608 1.574 . S
C591 C610 1.368 . S
C591 H615 0.949 . S
H592 C596 0.949 . S
C593 C594 1.349 . S
C593 C595 1.327 . S
C593 H616 0.950 . S
C594 C593 1.349 . S
C594 C606 1.349 . S
C595 C593 1.327 . S
C595 C611 1.429 . S
C595 H617 0.950 . S
C596 H592 0.949 . S
C596 C604 1.574 . S
C596 C612 1.368 . S
H597 C605 0.950 . S
H598 C603 0.950 . S
H599 C604 0.949 . S
H600 C606 0.950 . S
H601 C607 0.950 . S
H602 C608 0.949 . S
C603 H598 0.950 . S
C603 C605 1.327 . S
C603 C609 1.429 . S
C604 C596 1.574 . S
C604 H599 0.949 . S
C604 C610 1.368 . S
C605 C589 1.349 . S
C605 H597 0.950 . S
C605 C603 1.327 . S
C606 C594 1.349 . S
C606 H600 0.950 . S
C606 C607 1.327 . S
C607 H601 0.950 . S
C607 C606 1.327 . S
C607 C611 1.429 . S
C608 C591 1.574 . S
C608 H602 0.949 . S
C608 C612 1.368 . S
C609 C590 1.429 . S
C609 C603 1.429 . S
C609 C610 1.523 . S
C610 C591 1.368 . S
C610 C604 1.368 . S
C610 C609 1.523 . S
C611 C595 1.429 . S
C611 C607 1.429 . S
C611 C612 1.523 . S
C612 C596 1.368 . S
C612 C608 1.368 . S
C612 C611 1.523 . S
H613 C588 0.950 . S
H614 C590 0.950 . S
H615 C591 0.949 . S
H616 C593 0.950 . S
H617 C595 0.950 . S
C618 C619 1.349 . S
C618 C620 1.327 . S
C618 H643 0.950 . S
C619 C618 1.349 . S
C619 C635 1.349 . S
C620 C618 1.327 . S
C620 C639 1.429 . S
C620 H644 0.950 . S
C621 C638 1.574 . S
C621 C640 1.368 . S
C621 H645 0.949 . S
H622 C626 0.949 . S
C623 C624 1.349 . S
C623 C625 1.327 . S
C623 H646 0.950 . S
C624 C623 1.349 . S
C624 C636 1.349 . S
C625 C623 1.327 . S
C625 C641 1.429 . S
C625 H647 0.950 . S
C626 H622 0.949 . S
C626 C634 1.574 . S
C626 C642 1.368 . S
H627 C635 0.950 . S
H628 C633 0.950 . S
H629 C634 0.949 . S
H630 C636 0.950 . S
H631 C637 0.950 . S
H632 C638 0.949 . S
C633 H628 0.950 . S
C633 C635 1.327 . S
C633 C639 1.429 . S
C634 C626 1.574 . S
C634 H629 0.949 . S
C634 C640 1.368 . S
C635 C619 1.349 . S
C635 H627 0.950 . S
C635 C633 1.327 . S
C636 C624 1.349 . S
C636 H630 0.950 . S
C636 C637 1.327 . S
C637 H631 0.950 . S
C637 C636 1.327 . S
C637 C641 1.429 . S
C638 C621 1.574 . S
C638 H632 0.949 . S
C638 C642 1.368 . S
C639 C620 1.429 . S
C639 C633 1.429 . S
C639 C640 1.523 . S
C640 C621 1.368 . S
C640 C634 1.368 . S
C640 C639 1.523 . S
C641 C625 1.429 . S
C641 C637 1.429 . S
C641 C642 1.523 . S
C642 C626 1.368 . S
C642 C638 1.368 . S
C642 C641 1.523 . S
H643 C618 0.950 . S
H644 C620 0.950 . S
H645 C621 0.949 . S
H646 C623 0.950 . S
H647 C625 0.950 . S
C648 C649 1.349 . S
C648 C650 1.327 . S
C648 H673 0.950 . S
C649 C648 1.349 . S
C649 C665 1.349 . S
C650 C648 1.327 . S
C650 C669 1.429 . S
C650 H674 0.950 . S
C651 C668 1.574 . S
C651 C670 1.368 . S
C651 H675 0.949 . S
H652 C656 0.949 . S
C653 C654 1.349 . S
C653 C655 1.327 . S
C653 H676 0.950 . S
C654 C653 1.349 . S
C654 C666 1.349 . S
C655 C653 1.327 . S
C655 C671 1.429 . S
C655 H677 0.950 . S
C656 H652 0.949 . S
C656 C664 1.574 . S
C656 C672 1.368 . S
H657 C665 0.950 . S
H658 C663 0.950 . S
H659 C664 0.949 . S
H660 C666 0.950 . S
H661 C667 0.950 . S
H662 C668 0.949 . S
C663 H658 0.950 . S
C663 C665 1.327 . S
C663 C669 1.429 . S
C664 C656 1.574 . S
C664 H659 0.949 . S
C664 C670 1.368 . S
C665 C649 1.349 . S
C665 H657 0.950 . S
C665 C663 1.327 . S
C666 C654 1.349 . S
C666 H660 0.950 . S
C666 C667 1.327 . S
C667 H661 0.950 . S
C667 C666 1.327 . S
C667 C671 1.429 . S
C668 C651 1.574 . S
C668 H662 0.949 . S
C668 C672 1.368 . S
C669 C650 1.429 . S
C669 C663 1.429 . S
C669 C670 1.523 . S
C670 C651 1.368 . S
C670 C664 1.368 . S
C670 C669 1.523 . S
C671 C655 1.429 . S
C671 C667 1.429 . S
C671 C672 1.523 . S
C672 C656 1.368 . S
C672 C668 1.368 . S
C672 C671 1.523 . S
H673 C648 0.950 . S
H674 C650 0.950 . S
H675 C651 0.949 . S
H676 C653 0.950 . S
H677 C655 0.950 . S
C678 C679 1.349 . S
C678 C680 1.327 . S
C678 H703 0.950 . S
C679 C678 1.349 . S
C679 C695 1.349 . S
C680 C678 1.327 . S
C680 C699 1.429 . S
C680 H704 0.950 . S
C681 C698 1.574 . S
C681 C700 1.368 . S
C681 H705 0.949 . S
H682 C686 0.949 . S
C683 C684 1.349 . S
C683 C685 1.327 . S
C683 H706 0.950 . S
C684 C683 1.349 . S
C684 C696 1.349 . S
C685 C683 1.327 . S
C685 C701 1.429 . S
C685 H707 0.950 . S
C686 H682 0.949 . S
C686 C694 1.574 . S
C686 C702 1.368 . S
H687 C695 0.950 . S
H688 C693 0.950 . S
H689 C694 0.949 . S
H690 C696 0.950 . S
H691 C697 0.950 . S
H692 C698 0.949 . S
C693 H688 0.950 . S
C693 C695 1.327 . S
C693 C699 1.429 . S
C694 C686 1.574 . S
C694 H689 0.949 . S
C694 C700 1.368 . S
C695 C679 1.349 . S
C695 H687 0.950 . S
C695 C693 1.327 . S
C696 C684 1.349 . S
C696 H690 0.950 . S
C696 C697 1.327 . S
C697 H691 0.950 . S
C697 C696 1.327 . S
C697 C701 1.429 . S
C698 C681 1.574 . S
C698 H692 0.949 . S
C698 C702 1.368 . S
C699 C680 1.429 . S
C699 C693 1.429 . S
C699 C700 1.523 . S
C700 C681 1.368 . S
C700 C694 1.368 . S
C700 C699 1.523 . S
C701 C685 1.429 . S
C701 C697 1.429 . S
C701 C702 1.523 . S
C702 C686 1.368 . S
C702 C698 1.368 . S
C702 C701 1.523 . S
H703 C678 0.950 . S
H704 C680 0.950 . S
H705 C681 0.949 . S
H706 C683 0.950 . S
H707 C685 0.950 . S
C708 C709 1.349 . S
C708 C710 1.327 . S
C708 H733 0.950 . S
C709 C708 1.349 . S
C709 C725 1.349 . S
C710 C708 1.327 . S
C710 C729 1.429 . S
C710 H734 0.950 . S
C711 C728 1.574 . S
C711 C730 1.368 . S
C711 H735 0.949 . S
H712 C716 0.949 . S
C713 C714 1.349 . S
C713 C715 1.327 . S
C713 H736 0.950 . S
C714 C713 1.349 . S
C714 C726 1.349 . S
C715 C713 1.327 . S
C715 C731 1.429 . S
C715 H737 0.950 . S
C716 H712 0.949 . S
C716 C724 1.574 . S
C716 C732 1.368 . S
H717 C725 0.950 . S
H718 C723 0.950 . S
H719 C724 0.949 . S
H720 C726 0.950 . S
H721 C727 0.950 . S
H722 C728 0.949 . S
C723 H718 0.950 . S
C723 C725 1.327 . S
C723 C729 1.429 . S
C724 C716 1.574 . S
C724 H719 0.949 . S
C724 C730 1.368 . S
C725 C709 1.349 . S
C725 H717 0.950 . S
C725 C723 1.327 . S
C726 C714 1.349 . S
C726 H720 0.950 . S
C726 C727 1.327 . S
C727 H721 0.950 . S
C727 C726 1.327 . S
C727 C731 1.429 . S
C728 C711 1.574 . S
C728 H722 0.949 . S
C728 C732 1.368 . S
C729 C710 1.429 . S
C729 C723 1.429 . S
C729 C730 1.523 . S
C730 C711 1.368 . S
C730 C724 1.368 . S
C730 C729 1.523 . S
C731 C715 1.429 . S
C731 C727 1.429 . S
C731 C732 1.523 . S
C732 C716 1.368 . S
C732 C728 1.368 . S
C732 C731 1.523 . S
H733 C708 0.950 . S
H734 C710 0.950 . S
H735 C711 0.949 . S
H736 C713 0.950 . S
H737 C715 0.950 . S
C738 C739 1.349 . S
C738 C740 1.327 . S
C738 H763 0.950 . S
C739 C738 1.349 . S
C739 C755 1.349 . S
C740 C738 1.327 . S
C740 C759 1.429 . S
C740 H764 0.950 . S
C741 C758 1.574 . S
C741 C760 1.368 . S
C741 H765 0.949 . S
H742 C746 0.949 . S
C743 C744 1.349 . S
C743 C745 1.327 . S
C743 H766 0.950 . S
C744 C743 1.349 . S
C744 C756 1.349 . S
C745 C743 1.327 . S
C745 C761 1.429 . S
C745 H767 0.950 . S
C746 H742 0.949 . S
C746 C754 1.574 . S
C746 C762 1.368 . S
H747 C755 0.950 . S
H748 C753 0.950 . S
H749 C754 0.949 . S
H750 C756 0.950 . S
H751 C757 0.950 . S
H752 C758 0.949 . S
C753 H748 0.950 . S
C753 C755 1.327 . S
C753 C759 1.429 . S
C754 C746 1.574 . S
C754 H749 0.949 . S
C754 C760 1.368 . S
C755 C739 1.349 . S
C755 H747 0.950 . S
C755 C753 1.327 . S
C756 C744 1.349 . S
C756 H750 0.950 . S
C756 C757 1.327 . S
C757 H751 0.950 . S
C757 C756 1.327 . S
C757 C761 1.429 . S
C758 C741 1.574 . S
C758 H752 0.949 . S
C758 C762 1.368 . S
C759 C740 1.429 . S
C759 C753 1.429 . S
C759 C760 1.523 . S
C760 C741 1.368 . S
C760 C754 1.368 . S
C760 C759 1.523 . S
C761 C745 1.429 . S
C761 C757 1.429 . S
C761 C762 1.523 . S
C762 C746 1.368 . S
C762 C758 1.368 . S
C762 C761 1.523 . S
H763 C738 0.950 . S
H764 C740 0.950 . S
H765 C741 0.949 . S
H766 C743 0.950 . S
H767 C745 0.950 . S
C768 C769 1.349 . S
C768 C770 1.327 . S
C768 H793 0.950 . S
C769 C768 1.349 . S
C769 C785 1.349 . S
C770 C768 1.327 . S
C770 C789 1.429 . S
C770 H794 0.950 . S
C771 C788 1.574 . S
C771 C790 1.368 . S
C771 H795 0.949 . S
H772 C776 0.949 . S
C773 C774 1.349 . S
C773 C775 1.327 . S
C773 H796 0.950 . S
C774 C773 1.349 . S
C774 C786 1.349 . S
C775 C773 1.327 . S
C775 C791 1.429 . S
C775 H797 0.950 . S
C776 H772 0.949 . S
C776 C784 1.574 . S
C776 C792 1.368 . S
H777 C785 0.950 . S
H778 C783 0.950 . S
H779 C784 0.949 . S
H780 C786 0.950 . S
H781 C787 0.950 . S
H782 C788 0.949 . S
C783 H778 0.950 . S
C783 C785 1.327 . S
C783 C789 1.429 . S
C784 C776 1.574 . S
C784 H779 0.949 . S
C784 C790 1.368 . S
C785 C769 1.349 . S
C785 H777 0.950 . S
C785 C783 1.327 . S
C786 C774 1.349 . S
C786 H780 0.950 . S
C786 C787 1.327 . S
C787 H781 0.950 . S
C787 C786 1.327 . S
C787 C791 1.429 . S
C788 C771 1.574 . S
C788 H782 0.949 . S
C788 C792 1.368 . S
C789 C770 1.429 . S
C789 C783 1.429 . S
C789 C790 1.523 . S
C790 C771 1.368 . S
C790 C784 1.368 . S
C790 C789 1.523 . S
C791 C775 1.429 . S
C791 C787 1.429 . S
C791 C792 1.523 . S
C792 C776 1.368 . S
C792 C788 1.368 . S
C792 C791 1.523 . S
H793 C768 0.950 . S
H794 C770 0.950 . S
H795 C771 0.949 . S
H796 C773 0.950 . S
H797 C775 0.950 . S
C798 C799 1.349 . S
C798 C800 1.327 . S
C798 H823 0.950 . S
C799 C798 1.349 . S
C799 C815 1.349 . S
C800 C798 1.327 . S
C800 C819 1.429 . S
C800 H824 0.950 . S
C801 C818 1.574 . S
C801 C820 1.368 . S
C801 H825 0.949 . S
H802 C806 0.949 . S
C803 C804 1.349 . S
C803 C805 1.327 . S
C803 H826 0.950 . S
C804 C803 1.349 . S
C804 C816 1.349 . S
C805 C803 1.327 . S
C805 C821 1.429 . S
C805 H827 0.950 . S
C806 H802 0.949 . S
C806 C814 1.574 . S
C806 C822 1.368 . S
H807 C815 0.950 . S
H808 C813 0.950 . S
H809 C814 0.949 . S
H810 C816 0.950 . S
H811 C817 0.950 . S
H812 C818 0.949 . S
C813 H808 0.950 . S
C813 C815 1.327 . S
C813 C819 1.429 . S
C814 C806 1.574 . S
C814 H809 0.949 . S
C814 C820 1.368 . S
C815 C799 1.349 . S
C815 H807 0.950 . S
C815 C813 1.327 . S
C816 C804 1.349 . S
C816 H810 0.950 . S
C816 C817 1.327 . S
C817 H811 0.950 . S
C817 C816 1.327 . S
C817 C821 1.429 . S
C818 C801 1.574 . S
C818 H812 0.949 . S
C818 C822 1.368 . S
C819 C800 1.429 . S
C819 C813 1.429 . S
C819 C820 1.523 . S
C820 C801 1.368 . S
C820 C814 1.368 . S
C820 C819 1.523 . S
C821 C805 1.429 . S
C821 C817 1.429 . S
C821 C822 1.523 . S
C822 C806 1.368 . S
C822 C818 1.368 . S
C822 C821 1.523 . S
H823 C798 0.950 . S
H824 C800 0.950 . S
H825 C801 0.949 . S
H826 C803 0.950 . S
H827 C805 0.950 . S
C828 C829 1.349 . S
C828 C830 1.327 . S
C828 H853 0.950 . S
C829 C828 1.349 . S
C829 C845 1.349 . S
C830 C828 1.327 . S
C830 C849 1.429 . S
C830 H854 0.950 . S
C831 C848 1.574 . S
C831 C850 1.368 . S
C831 H855 0.949 . S
H832 C836 0.949 . S
C833 C834 1.349 . S
C833 C835 1.327 . S
C833 H856 0.950 . S
C834 C833 1.349 . S
C834 C846 1.349 . S
C835 C833 1.327 . S
C835 C851 1.429 . S
C835 H857 0.950 . S
C836 H832 0.949 . S
C836 C844 1.574 . S
C836 C852 1.368 . S
H837 C845 0.950 . S
H838 C843 0.950 . S
H839 C844 0.949 . S
H840 C846 0.950 . S
H841 C847 0.950 . S
H842 C848 0.949 . S
C843 H838 0.950 . S
C843 C845 1.327 . S
C843 C849 1.429 . S
C844 C836 1.574 . S
C844 H839 0.949 . S
C844 C850 1.368 . S
C845 C829 1.349 . S
C845 H837 0.950 . S
C845 C843 1.327 . S
C846 C834 1.349 . S
C846 H840 0.950 . S
C846 C847 1.327 . S
C847 H841 0.950 . S
C847 C846 1.327 . S
C847 C851 1.429 . S
C848 C831 1.574 . S
C848 H842 0.949 . S
C848 C852 1.368 . S
C849 C830 1.429 . S
C849 C843 1.429 . S
C849 C850 1.523 . S
C850 C831 1.368 . S
C850 C844 1.368 . S
C850 C849 1.523 . S
C851 C835 1.429 . S
C851 C847 1.429 . S
C851 C852 1.523 . S
C852 C836 1.368 . S
C852 C848 1.368 . S
C852 C851 1.523 . S
H853 C828 0.950 . S
H854 C830 0.950 . S
H855 C831 0.949 . S
H856 C833 0.950 . S
H857 C835 0.950 . S
C858 C859 1.349 . S
C858 C860 1.327 . S
C858 H883 0.950 . S
C859 C858 1.349 . S
C859 C875 1.349 . S
C860 C858 1.327 . S
C860 C879 1.429 . S
C860 H884 0.950 . S
C861 C878 1.574 . S
C861 C880 1.368 . S
C861 H885 0.949 . S
H862 C866 0.949 . S
C863 C864 1.349 . S
C863 C865 1.327 . S
C863 H886 0.950 . S
C864 C863 1.349 . S
C864 C876 1.349 . S
C865 C863 1.327 . S
C865 C881 1.429 . S
C865 H887 0.950 . S
C866 H862 0.949 . S
C866 C874 1.574 . S
C866 C882 1.368 . S
H867 C875 0.950 . S
H868 C873 0.950 . S
H869 C874 0.949 . S
H870 C876 0.950 . S
H871 C877 0.950 . S
H872 C878 0.949 . S
C873 H868 0.950 . S
C873 C875 1.327 . S
C873 C879 1.429 . S
C874 C866 1.574 . S
C874 H869 0.949 . S
C874 C880 1.368 . S
C875 C859 1.349 . S
C875 H867 0.950 . S
C875 C873 1.327 . S
C876 C864 1.349 . S
C876 H870 0.950 . S
C876 C877 1.327 . S
C877 H871 0.950 . S
C877 C876 1.327 . S
C877 C881 1.429 . S
C878 C861 1.574 . S
C878 H872 0.949 . S
C878 C882 1.368 . S
C879 C860 1.429 . S
C879 C873 1.429 . S
C879 C880 1.523 . S
C880 C861 1.368 . S
C880 C874 1.368 . S
C880 C879 1.523 . S
C881 C865 1.429 . S
C881 C877 1.429 . S
C881 C882 1.523 . S
C882 C866 1.368 . S
C882 C878 1.368 . S
C882 C881 1.523 . S
H883 C858 0.950 . S
H884 C860 0.950 . S
H885 C861 0.949 . S
H886 C863 0.950 . S
H887 C865 0.950 . S
C888 C889 1.349 . S
C888 C890 1.327 . S
C888 H913 0.950 . S
C889 C888 1.349 . S
C889 C905 1.349 . S
C890 C888 1.327 . S
C890 C909 1.429 . S
C890 H914 0.950 . S
C891 C908 1.574 . S
C891 C910 1.368 . S
C891 H915 0.949 . S
H892 C896 0.949 . S
C893 C894 1.349 . S
C893 C895 1.327 . S
C893 H916 0.950 . S
C894 C893 1.349 . S
C894 C906 1.349 . S
C895 C893 1.327 . S
C895 C911 1.429 . S
C895 H917 0.950 . S
C896 H892 0.949 . S
C896 C904 1.574 . S
C896 C912 1.368 . S
H897 C905 0.950 . S
H898 C903 0.950 . S
H899 C904 0.949 . S
H900 C906 0.950 . S
H901 C907 0.950 . S
H902 C908 0.949 . S
C903 H898 0.950 . S
C903 C905 1.327 . S
C903 C909 1.429 . S
C904 C896 1.574 . S
C904 H899 0.949 . S
C904 C910 1.368 . S
C905 C889 1.349 . S
C905 H897 0.950 . S
C905 C903 1.327 . S
C906 C894 1.349 . S
C906 H900 0.950 . S
C906 C907 1.327 . S
C907 H901 0.950 . S
C907 C906 1.327 . S
C907 C911 1.429 . S
C908 C891 1.574 . S
C908 H902 0.949 . S
C908 C912 1.368 . S
C909 C890 1.429 . S
C909 C903 1.429 . S
C909 C910 1.523 . S
C910 C891 1.368 . S
C910 C904 1.368 . S
C910 C909 1.523 . S
C911 C895 1.429 . S
C911 C907 1.429 . S
C911 C912 1.523 . S
C912 C896 1.368 . S
C912 C908 1.368 . S
C912 C911 1.523 . S
H913 C888 0.950 . S
H914 C890 0.950 . S
H915 C891 0.949 . S
H916 C893 0.950 . S
H917 C895 0.950 . S
C918 C919 1.349 . S
C918 C920 1.327 . S
C918 H943 0.950 . S
C919 C918 1.349 . S
C919 C935 1.349 . S
C920 C918 1.327 . S
C920 C939 1.429 . S
C920 H944 0.950 . S
C921 C938 1.574 . S
C921 C940 1.368 . S
C921 H945 0.949 . S
H922 C926 0.949 . S
C923 C924 1.349 . S
C923 C925 1.327 . S
C923 H946 0.950 . S
C924 C923 1.349 . S
C924 C936 1.349 . S
C925 C923 1.327 . S
C925 C941 1.429 . S
C925 H947 0.950 . S
C926 H922 0.949 . S
C926 C934 1.574 . S
C926 C942 1.368 . S
H927 C935 0.950 . S
H928 C933 0.950 . S
H929 C934 0.949 . S
H930 C936 0.950 . S
H931 C937 0.950 . S
H932 C938 0.949 . S
C933 H928 0.950 . S
C933 C935 1.327 . S
C933 C939 1.429 . S
C934 C926 1.574 . S
C934 H929 0.949 . S
C934 C940 1.368 . S
C935 C919 1.349 . S
C935 H927 0.950 . S
C935 C933 1.327 . S
C936 C924 1.349 . S
C936 H930 0.950 . S
C936 C937 1.327 . S
C937 H931 0.950 . S
C937 C936 1.327 . S
C937 C941 1.429 . S
C938 C921 1.574 . S
C938 H932 0.949 . S
C938 C942 1.368 . S
C939 C920 1.429 . S
C939 C933 1.429 . S
C939 C940 1.523 . S
C940 C921 1.368 . S
C940 C934 1.368 . S
C940 C939 1.523 . S
C941 C925 1.429 . S
C941 C937 1.429 . S
C941 C942 1.523 . S
C942 C926 1.368 . S
C942 C938 1.368 . S
C942 C941 1.523 . S
H943 C918 0.950 . S
H944 C920 0.950 . S
H945 C921 0.949 . S
H946 C923 0.950 . S
H947 C925 0.950 . S
C948 C949 1.349 . S
C948 C950 1.327 . S
C948 H973 0.950 . S
C949 C948 1.349 . S
C949 C965 1.349 . S
C950 C948 1.327 . S
C950 C969 1.429 . S
C950 H974 0.950 . S
C951 C968 1.574 . S
C951 C970 1.368 . S
C951 H975 0.949 . S
H952 C956 0.949 . S
C953 C954 1.349 . S
C953 C955 1.327 . S
C953 H976 0.950 . S
C954 C953 1.349 . S
C954 C966 1.349 . S
C955 C953 1.327 . S
C955 C971 1.429 . S
C955 H977 0.950 . S
C956 H952 0.949 . S
C956 C964 1.574 . S
C956 C972 1.368 . S
H957 C965 0.950 . S
H958 C963 0.950 . S
H959 C964 0.949 . S
H960 C966 0.950 . S
H961 C967 0.950 . S
H962 C968 0.949 . S
C963 H958 0.950 . S
C963 C965 1.327 . S
C963 C969 1.429 . S
C964 C956 1.574 . S
C964 H959 0.949 . S
C964 C970 1.368 . S
C965 C949 1.349 . S
C965 H957 0.950 . S
C965 C963 1.327 . S
C966 C954 1.349 . S
C966 H960 0.950 . S
C966 C967 1.327 . S
C967 H961 0.950 . S
C967 C966 1.327 . S
C967 C971 1.429 . S
C968 C951 1.574 . S
C968 H962 0.949 . S
C968 C972 1.368 . S
C969 C950 1.429 . S
C969 C963 1.429 . S
C969 C970 1.523 . S
C970 C951 1.368 . S
C970 C964 1.368 . S
C970 C969 1.523 . S
C971 C955 1.429 . S
C971 C967 1.429 . S
C971 C972 1.523 . S
C972 C956 1.368 . S
C972 C968 1.368 . S
C972 C971 1.523 . S
H973 C948 0.950 . S
H974 C950 0.950 . S
H975 C951 0.949 . S
H976 C953 0.950 . S
H977 C955 0.950 . S
C978 C979 1.349 . S
C978 C980 1.327 . S
C978 H1003 0.950 . S
C979 C978 1.349 . S
C979 C995 1.349 . S
C980 C978 1.327 . S
C980 C999 1.429 . S
C980 H1004 0.950 . S
C981 C998 1.574 . S
C981 C1000 1.368 . S
C981 H1005 0.949 . S
H982 C986 0.949 . S
C983 C984 1.349 . S
C983 C985 1.327 . S
C983 H1006 0.950 . S
C984 C983 1.349 . S
C984 C996 1.349 . S
C985 C983 1.327 . S
C985 C1001 1.429 . S
C985 H1007 0.950 . S
C986 H982 0.949 . S
C986 C994 1.574 . S
C986 C1002 1.368 . S
H987 C995 0.950 . S
H988 C993 0.950 . S
H989 C994 0.949 . S
H990 C996 0.950 . S
H991 C997 0.950 . S
H992 C998 0.949 . S
C993 H988 0.950 . S
C993 C995 1.327 . S
C993 C999 1.429 . S
C994 C986 1.574 . S
C994 H989 0.949 . S
C994 C1000 1.368 . S
C995 C979 1.349 . S
C995 H987 0.950 . S
C995 C993 1.327 . S
C996 C984 1.349 . S
C996 H990 0.950 . S
C996 C997 1.327 . S
C997 H991 0.950 . S
C997 C996 1.327 . S
C997 C1001 1.429 . S
C998 C981 1.574 . S
C998 H992 0.949 . S
C998 C1002 1.368 . S
C999 C980 1.429 . S
C999 C993 1.429 . S
C999 C1000 1.523 . S
C1000 C981 1.368 . S
C1000 C994 1.368 . S
C1000 C999 1.523 . S
C1001 C985 1.429 . S
C1001 C997 1.429 . S
C1001 C1002 1.523 . S
C1002 C986 1.368 . S
C1002 C998 1.368 . S
C1002 C1001 1.523 . S
H1003 C978 0.950 . S
H1004 C980 0.950 . S
H1005 C981 0.949 . S
H1006 C983 0.950 . S
H1007 C985 0.950 . S
C1008 C1009 1.349 . S
C1008 C1010 1.327 . S
C1008 H1033 0.950 . S
C1009 C1008 1.349 . S
C1009 C1025 1.349 . S
C1010 C1008 1.327 . S
C1010 C1029 1.429 . S
C1010 H1034 0.950 . S
C1011 C1028 1.574 . S
C1011 C1030 1.368 . S
C1011 H1035 0.949 . S
H1012 C1016 0.949 . S
C1013 C1014 1.349 . S
C1013 C1015 1.327 . S
C1013 H1036 0.950 . S
C1014 C1013 1.349 . S
C1014 C1026 1.349 . S
C1015 C1013 1.327 . S
C1015 C1031 1.429 . S
C1015 H1037 0.950 . S
C1016 H1012 0.949 . S
C1016 C1024 1.574 . S
C1016 C1032 1.368 . S
H1017 C1025 0.950 . S
H1018 C1023 0.950 . S
H1019 C1024 0.949 . S
H1020 C1026 0.950 . S
H1021 C1027 0.950 . S
H1022 C1028 0.949 . S
C1023 H1018 0.950 . S
C1023 C1025 1.327 . S
C1023 C1029 1.429 . S
C1024 C1016 1.574 . S
C1024 H1019 0.949 . S
C1024 C1030 1.368 . S
C1025 C1009 1.349 . S
C1025 H1017 0.950 . S
C1025 C1023 1.327 . S
C1026 C1014 1.349 . S
C1026 H1020 0.950 . S
C1026 C1027 1.327 . S
C1027 H1021 0.950 . S
C1027 C1026 1.327 . S
C1027 C1031 1.429 . S
C1028 C1011 1.574 . S
C1028 H1022 0.949 . S
C1028 C1032 1.368 . S
C1029 C1010 1.429 . S
C1029 C1023 1.429 . S
C1029 C1030 1.523 . S
C1030 C1011 1.368 . S
C1030 C1024 1.368 . S
C1030 C1029 1.523 . S
C1031 C1015 1.429 . S
C1031 C1027 1.429 . S
C1031 C1032 1.523 . S
C1032 C1016 1.368 . S
C1032 C1028 1.368 . S
C1032 C1031 1.523 . S
H1033 C1008 0.950 . S
H1034 C1010 0.950 . S
H1035 C1011 0.949 . S
H1036 C1013 0.950 . S
H1037 C1015 0.950 . S
C1038 C1039 1.349 . S
C1038 C1040 1.327 . S
C1038 H1063 0.950 . S
C1039 C1038 1.349 . S
C1039 C1055 1.349 . S
C1040 C1038 1.327 . S
C1040 C1059 1.429 . S
C1040 H1064 0.950 . S
C1041 C1058 1.574 . S
C1041 C1060 1.368 . S
C1041 H1065 0.949 . S
H1042 C1046 0.949 . S
C1043 C1044 1.349 . S
C1043 C1045 1.327 . S
C1043 H1066 0.950 . S
C1044 C1043 1.349 . S
C1044 C1056 1.349 . S
C1045 C1043 1.327 . S
C1045 C1061 1.429 . S
C1045 H1067 0.950 . S
C1046 H1042 0.949 . S
C1046 C1054 1.574 . S
C1046 C1062 1.368 . S
H1047 C1055 0.950 . S
H1048 C1053 0.950 . S
H1049 C1054 0.949 . S
H1050 C1056 0.950 . S
H1051 C1057 0.950 . S
H1052 C1058 0.949 . S
C1053 H1048 0.950 . S
C1053 C1055 1.327 . S
C1053 C1059 1.429 . S
C1054 C1046 1.574 . S
C1054 H1049 0.949 . S
C1054 C1060 1.368 . S
C1055 C1039 1.349 . S
C1055 H1047 0.950 . S
C1055 C1053 1.327 . S
C1056 C1044 1.349 . S
C1056 H1050 0.950 . S
C1056 C1057 1.327 . S
C1057 H1051 0.950 . S
C1057 C1056 1.327 . S
C1057 C1061 1.429 . S
C1058 C1041 1.574 . S
C1058 H1052 0.949 . S
C1058 C1062 1.368 . S
C1059 C1040 1.429 . S
C1059 C1053 1.429 . S
C1059 C1060 1.523 . S
C1060 C1041 1.368 . S
C1060 C1054 1.368 . S
C1060 C1059 1.523 . S
C1061 C1045 1.429 . S
C1061 C1057 1.429 . S
C1061 C1062 1.523 . S
C1062 C1046 1.368 . S
C1062 C1058 1.368 . S
C1062 C1061 1.523 . S
H1063 C1038 0.950 . S
H1064 C1040 0.950 . S
H1065 C1041 0.949 . S
H1066 C1043 0.950 . S
H1067 C1045 0.950 . S
C1068 C1069 1.349 . S
C1068 C1070 1.327 . S
C1068 H1093 0.950 . S
C1069 C1068 1.349 . S
C1069 C1085 1.349 . S
C1070 C1068 1.327 . S
C1070 C1089 1.429 . S
C1070 H1094 0.950 . S
C1071 C1088 1.574 . S
C1071 C1090 1.368 . S
C1071 H1095 0.949 . S
H1072 C1076 0.949 . S
C1073 C1074 1.349 . S
C1073 C1075 1.327 . S
C1073 H1096 0.950 . S
C1074 C1073 1.349 . S
C1074 C1086 1.349 . S
C1075 C1073 1.327 . S
C1075 C1091 1.429 . S
C1075 H1097 0.950 . S
C1076 H1072 0.949 . S
C1076 C1084 1.574 . S
C1076 C1092 1.368 . S
H1077 C1085 0.950 . S
H1078 C1083 0.950 . S
H1079 C1084 0.949 . S
H1080 C1086 0.950 . S
H1081 C1087 0.950 . S
H1082 C1088 0.949 . S
C1083 H1078 0.950 . S
C1083 C1085 1.327 . S
C1083 C1089 1.429 . S
C1084 C1076 1.574 . S
C1084 H1079 0.949 . S
C1084 C1090 1.368 . S
C1085 C1069 1.349 . S
C1085 H1077 0.950 . S
C1085 C1083 1.327 . S
C1086 C1074 1.349 . S
C1086 H1080 0.950 . S
C1086 C1087 1.327 . S
C1087 H1081 0.950 . S
C1087 C1086 1.327 . S
C1087 C1091 1.429 . S
C1088 C1071 1.574 . S
C1088 H1082 0.949 . S
C1088 C1092 1.368 . S
C1089 C1070 1.429 . S
C1089 C1083 1.429 . S
C1089 C1090 1.523 . S
C1090 C1071 1.368 . S
C1090 C1084 1.368 . S
C1090 C1089 1.523 . S
C1091 C1075 1.429 . S
C1091 C1087 1.429 . S
C1091 C1092 1.523 . S
C1092 C1076 1.368 . S
C1092 C1088 1.368 . S
C1092 C1091 1.523 . S
H1093 C1068 0.950 . S
H1094 C1070 0.950 . S
H1095 C1071 0.949 . S
H1096 C1073 0.950 . S
H1097 C1075 0.950 . S
C1098 C1099 1.349 . S
C1098 C1100 1.327 . S
C1098 H1123 0.950 . S
C1099 C1098 1.349 . S
C1099 C1115 1.349 . S
C1100 C1098 1.327 . S
C1100 C1119 1.429 . S
C1100 H1124 0.950 . S
C1101 C1118 1.574 . S
C1101 C1120 1.368 . S
C1101 H1125 0.949 . S
H1102 C1106 0.949 . S
C1103 C1104 1.349 . S
C1103 C1105 1.327 . S
C1103 H1126 0.950 . S
C1104 C1103 1.349 . S
C1104 C1116 1.349 . S
C1105 C1103 1.327 . S
C1105 C1121 1.429 . S
C1105 H1127 0.950 . S
C1106 H1102 0.949 . S
C1106 C1114 1.574 . S
C1106 C1122 1.368 . S
H1107 C1115 0.950 . S
H1108 C1113 0.950 . S
H1109 C1114 0.949 . S
H1110 C1116 0.950 . S
H1111 C1117 0.950 . S
H1112 C1118 0.949 . S
C1113 H1108 0.950 . S
C1113 C1115 1.327 . S
C1113 C1119 1.429 . S
C1114 C1106 1.574 . S
C1114 H1109 0.949 . S
C1114 C1120 1.368 . S
C1115 C1099 1.349 . S
C1115 H1107 0.950 . S
C1115 C1113 1.327 . S
C1116 C1104 1.349 . S
C1116 H1110 0.950 . S
C1116 C1117 1.327 . S
C1117 H1111 0.950 . S
C1117 C1116 1.327 . S
C1117 C1121 1.429 . S
C1118 C1101 1.574 . S
C1118 H1112 0.949 . S
C1118 C1122 1.368 . S
C1119 C1100 1.429 . S
C1119 C1113 1.429 . S
C1119 C1120 1.523 . S
C1120 C1101 1.368 . S
C1120 C1114 1.368 . S
C1120 C1119 1.523 . S
C1121 C1105 1.429 . S
C1121 C1117 1.429 . S
C1121 C1122 1.523 . S
C1122 C1106 1.368 . S
C1122 C1118 1.368 . S
C1122 C1121 1.523 . S
H1123 C1098 0.950 . S
H1124 C1100 0.950 . S
H1125 C1101 0.949 . S
H1126 C1103 0.950 . S
H1127 C1105 0.950 . S
C1128 C1129 1.349 . S
C1128 C1130 1.327 . S
C1128 H1153 0.950 . S
C1129 C1128 1.349 . S
C1129 C1145 1.349 . S
C1130 C1128 1.327 . S
C1130 C1149 1.429 . S
C1130 H1154 0.950 . S
C1131 C1148 1.574 . S
C1131 C1150 1.368 . S
C1131 H1155 0.949 . S
H1132 C1136 0.949 . S
C1133 C1134 1.349 . S
C1133 C1135 1.327 . S
C1133 H1156 0.950 . S
C1134 C1133 1.349 . S
C1134 C1146 1.349 . S
C1135 C1133 1.327 . S
C1135 C1151 1.429 . S
C1135 H1157 0.950 . S
C1136 H1132 0.949 . S
C1136 C1144 1.574 . S
C1136 C1152 1.368 . S
H1137 C1145 0.950 . S
H1138 C1143 0.950 . S
H1139 C1144 0.949 . S
H1140 C1146 0.950 . S
H1141 C1147 0.950 . S
H1142 C1148 0.949 . S
C1143 H1138 0.950 . S
C1143 C1145 1.327 . S
C1143 C1149 1.429 . S
C1144 C1136 1.574 . S
C1144 H1139 0.949 . S
C1144 C1150 1.368 . S
C1145 C1129 1.349 . S
C1145 H1137 0.950 . S
C1145 C1143 1.327 . S
C1146 C1134 1.349 . S
C1146 H1140 0.950 . S
C1146 C1147 1.327 . S
C1147 H1141 0.950 . S
C1147 C1146 1.327 . S
C1147 C1151 1.429 . S
C1148 C1131 1.574 . S
C1148 H1142 0.949 . S
C1148 C1152 1.368 . S
C1149 C1130 1.429 . S
C1149 C1143 1.429 . S
C1149 C1150 1.523 . S
C1150 C1131 1.368 . S
C1150 C1144 1.368 . S
C1150 C1149 1.523 . S
C1151 C1135 1.429 . S
C1151 C1147 1.429 . S
C1151 C1152 1.523 . S
C1152 C1136 1.368 . S
C1152 C1148 1.368 . S
C1152 C1151 1.523 . S
H1153 C1128 0.950 . S
H1154 C1130 0.950 . S
H1155 C1131 0.949 . S
H1156 C1133 0.950 . S
H1157 C1135 0.950 . S
C1158 C1159 1.349 . S
C1158 C1160 1.327 . S
C1158 H1183 0.950 . S
C1159 C1158 1.349 . S
C1159 C1175 1.349 . S
C1160 C1158 1.327 . S
C1160 C1179 1.429 . S
C1160 H1184 0.950 . S
C1161 C1178 1.574 . S
C1161 C1180 1.368 . S
C1161 H1185 0.949 . S
H1162 C1166 0.949 . S
C1163 C1164 1.349 . S
C1163 C1165 1.327 . S
C1163 H1186 0.950 . S
C1164 C1163 1.349 . S
C1164 C1176 1.349 . S
C1165 C1163 1.327 . S
C1165 C1181 1.429 . S
C1165 H1187 0.950 . S
C1166 H1162 0.949 . S
C1166 C1174 1.574 . S
C1166 C1182 1.368 . S
H1167 C1175 0.950 . S
H1168 C1173 0.950 . S
H1169 C1174 0.949 . S
H1170 C1176 0.950 . S
H1171 C1177 0.950 . S
H1172 C1178 0.949 . S
C1173 H1168 0.950 . S
C1173 C1175 1.327 . S
C1173 C1179 1.429 . S
C1174 C1166 1.574 . S
C1174 H1169 0.949 . S
C1174 C1180 1.368 . S
C1175 C1159 1.349 . S
C1175 H1167 0.950 . S
C1175 C1173 1.327 . S
C1176 C1164 1.349 . S
C1176 H1170 0.950 . S
C1176 C1177 1.327 . S
C1177 H1171 0.950 . S
C1177 C1176 1.327 . S
C1177 C1181 1.429 . S
C1178 C1161 1.574 . S
C1178 H1172 0.949 . S
C1178 C1182 1.368 . S
C1179 C1160 1.429 . S
C1179 C1173 1.429 . S
C1179 C1180 1.523 . S
C1180 C1161 1.368 . S
C1180 C1174 1.368 . S
C1180 C1179 1.523 . S
C1181 C1165 1.429 . S
C1181 C1177 1.429 . S
C1181 C1182 1.523 . S
C1182 C1166 1.368 . S
C1182 C1178 1.368 . S
C1182 C1181 1.523 . S
H1183 C1158 0.950 . S
H1184 C1160 0.950 . S
H1185 C1161 0.949 . S
H1186 C1163 0.950 . S
H1187 C1165 0.950 . S
C1188 C1189 1.349 . S
C1188 C1190 1.327 . S
C1188 H1213 0.950 . S
C1189 C1188 1.349 . S
C1189 C1205 1.349 . S
C1190 C1188 1.327 . S
C1190 C1209 1.429 . S
C1190 H1214 0.950 . S
C1191 C1208 1.574 . S
C1191 C1210 1.368 . S
C1191 H1215 0.949 . S
H1192 C1196 0.949 . S
C1193 C1194 1.349 . S
C1193 C1195 1.327 . S
C1193 H1216 0.950 . S
C1194 C1193 1.349 . S
C1194 C1206 1.349 . S
C1195 C1193 1.327 . S
C1195 C1211 1.429 . S
C1195 H1217 0.950 . S
C1196 H1192 0.949 . S
C1196 C1204 1.574 . S
C1196 C1212 1.368 . S
H1197 C1205 0.950 . S
H1198 C1203 0.950 . S
H1199 C1204 0.949 . S
H1200 C1206 0.950 . S
H1201 C1207 0.950 . S
H1202 C1208 0.949 . S
C1203 H1198 0.950 . S
C1203 C1205 1.327 . S
C1203 C1209 1.429 . S
C1204 C1196 1.574 . S
C1204 H1199 0.949 . S
C1204 C1210 1.368 . S
C1205 C1189 1.349 . S
C1205 H1197 0.950 . S
C1205 C1203 1.327 . S
C1206 C1194 1.349 . S
C1206 H1200 0.950 . S
C1206 C1207 1.327 . S
C1207 H1201 0.950 . S
C1207 C1206 1.327 . S
C1207 C1211 1.429 . S
C1208 C1191 1.574 . S
C1208 H1202 0.949 . S
C1208 C1212 1.368 . S
C1209 C1190 1.429 . S
C1209 C1203 1.429 . S
C1209 C1210 1.523 . S
C1210 C1191 1.368 . S
C1210 C1204 1.368 . S
C1210 C1209 1.523 . S
C1211 C1195 1.429 . S
C1211 C1207 1.429 . S
C1211 C1212 1.523 . S
C1212 C1196 1.368 . S
C1212 C1208 1.368 . S
C1212 C1211 1.523 . S
H1213 C1188 0.950 . S
H1214 C1190 0.950 . S
H1215 C1191 0.949 . S
H1216 C1193 0.950 . S
H1217 C1195 0.950 . S
C1218 C1219 1.349 . S
C1218 C1220 1.327 . S
C1218 H1243 0.950 . S
C1219 C1218 1.349 . S
C1219 C1235 1.349 . S
C1220 C1218 1.327 . S
C1220 C1239 1.429 . S
C1220 H1244 0.950 . S
C1221 C1238 1.574 . S
C1221 C1240 1.368 . S
C1221 H1245 0.949 . S
H1222 C1226 0.949 . S
C1223 C1224 1.349 . S
C1223 C1225 1.327 . S
C1223 H1246 0.950 . S
C1224 C1223 1.349 . S
C1224 C1236 1.349 . S
C1225 C1223 1.327 . S
C1225 C1241 1.429 . S
C1225 H1247 0.950 . S
C1226 H1222 0.949 . S
C1226 C1234 1.574 . S
C1226 C1242 1.368 . S
H1227 C1235 0.950 . S
H1228 C1233 0.950 . S
H1229 C1234 0.949 . S
H1230 C1236 0.950 . S
H1231 C1237 0.950 . S
H1232 C1238 0.949 . S
C1233 H1228 0.950 . S
C1233 C1235 1.327 . S
C1233 C1239 1.429 . S
C1234 C1226 1.574 . S
C1234 H1229 0.949 . S
C1234 C1240 1.368 . S
C1235 C1219 1.349 . S
C1235 H1227 0.950 . S
C1235 C1233 1.327 . S
C1236 C1224 1.349 . S
C1236 H1230 0.950 . S
C1236 C1237 1.327 . S
C1237 H1231 0.950 . S
C1237 C1236 1.327 . S
C1237 C1241 1.429 . S
C1238 C1221 1.574 . S
C1238 H1232 0.949 . S
C1238 C1242 1.368 . S
C1239 C1220 1.429 . S
C1239 C1233 1.429 . S
C1239 C1240 1.523 . S
C1240 C1221 1.368 . S
C1240 C1234 1.368 . S
C1240 C1239 1.523 . S
C1241 C1225 1.429 . S
C1241 C1237 1.429 . S
C1241 C1242 1.523 . S
C1242 C1226 1.368 . S
C1242 C1238 1.368 . S
C1242 C1241 1.523 . S
H1243 C1218 0.950 . S
H1244 C1220 0.950 . S
H1245 C1221 0.949 . S
H1246 C1223 0.950 . S
H1247 C1225 0.950 . S
C1248 C1249 1.352 . S
C1248 C1250 1.327 . S
C1248 H1273 0.950 . S
C1249 C1248 1.352 . S
C1249 C1265 1.344 1_455 S
C1250 C1248 1.327 . S
C1250 C1269 1.429 1_455 S
C1250 H1274 0.950 . S
C1251 C1268 1.574 . S
C1251 C1270 1.368 . S
C1251 H1275 0.949 . S
H1252 C1256 0.952 . S
C1253 C1254 1.349 . S
C1253 C1255 1.327 . S
C1253 H1276 0.950 . S
C1254 C1253 1.349 . S
C1254 C1266 1.349 . S
C1255 C1253 1.327 . S
C1255 C1271 1.429 . S
C1255 H1277 0.950 . S
C1256 H1252 0.952 . S
C1256 C1264 1.577 . S
C1256 C1272 1.368 . S
H1257 C1265 0.950 . S
H1258 C1263 0.950 . S
H1259 C1264 0.942 1_455 S
H1260 C1266 0.950 . S
H1261 C1267 0.950 . S
H1262 C1268 0.949 . S
C1263 H1258 0.950 . S
C1263 C1265 1.327 . S
C1263 C1269 1.429 . S
C1264 C1256 1.577 . S
C1264 H1259 0.942 1_655 S
C1264 C1270 1.374 . S
C1265 C1249 1.344 1_655 S
C1265 H1257 0.950 . S
C1265 C1263 1.327 . S
C1266 C1254 1.349 . S
C1266 H1260 0.950 . S
C1266 C1267 1.327 . S
C1267 H1261 0.950 . S
C1267 C1266 1.327 . S
C1267 C1271 1.429 . S
C1268 C1251 1.574 . S
C1268 H1262 0.949 . S
C1268 C1272 1.368 . S
C1269 C1250 1.429 1_655 S
C1269 C1263 1.429 . S
C1269 C1270 1.523 . S
C1270 C1251 1.368 . S
C1270 C1264 1.374 . S
C1270 C1269 1.523 . S
C1271 C1255 1.429 . S
C1271 C1267 1.429 . S
C1271 C1272 1.523 . S
C1272 C1256 1.368 . S
C1272 C1268 1.368 . S
C1272 C1271 1.523 . S
H1273 C1248 0.950 . S
H1274 C1250 0.950 . S
H1275 C1251 0.949 . S
H1276 C1253 0.950 . S
H1277 C1255 0.950 . S
C1278 C1279 1.363 . S
C1278 C1280 1.327 . S
C1278 H1303 0.950 . S
C1279 C1278 1.363 . S
C1279 C1295 1.333 1_455 S
C1280 C1278 1.327 . S
C1280 C1299 1.429 1_455 S
C1280 H1304 0.950 . S
C1281 C1298 1.574 . S
C1281 C1300 1.368 . S
C1281 H1305 0.949 . S
H1282 C1286 0.949 . S
C1283 C1284 1.349 . S
C1283 C1285 1.327 . S
C1283 H1306 0.950 . S
C1284 C1283 1.349 . S
C1284 C1296 1.349 . S
C1285 C1283 1.327 . S
C1285 C1301 1.429 . S
C1285 H1307 0.950 . S
C1286 H1282 0.949 . S
C1286 C1294 1.574 . S
C1286 C1302 1.368 1_455 S
H1287 C1295 0.950 . S
H1288 C1293 0.950 . S
H1289 C1294 0.949 . S
H1290 C1296 0.928 1_455 S
H1291 C1297 0.924 1_455 S
H1292 C1298 0.949 . S
C1293 H1288 0.950 . S
C1293 C1295 1.327 . S
C1293 C1299 1.429 . S
C1294 C1286 1.574 . S
C1294 H1289 0.949 . S
C1294 C1300 1.368 1_455 S
C1295 C1279 1.333 1_655 S
C1295 H1287 0.950 . S
C1295 C1293 1.327 . S
C1296 C1284 1.349 . S
C1296 H1290 0.928 1_655 S
C1296 C1297 1.334 . S
C1297 H1291 0.924 1_655 S
C1297 C1296 1.334 . S
C1297 C1301 1.454 . S
C1298 C1281 1.574 . S
C1298 H1292 0.949 . S
C1298 C1302 1.368 . S
C1299 C1280 1.429 1_655 S
C1299 C1293 1.429 . S
C1299 C1300 1.523 . S
C1300 C1281 1.368 . S
C1300 C1294 1.368 1_655 S
C1300 C1299 1.523 . S
C1301 C1285 1.429 . S
C1301 C1297 1.454 . S
C1301 C1302 1.523 . S
C1302 C1286 1.368 1_655 S
C1302 C1298 1.368 . S
C1302 C1301 1.523 . S
H1303 C1278 0.950 . S
H1304 C1280 0.950 . S
H1305 C1281 0.949 . S
H1306 C1283 0.950 . S
H1307 C1285 0.950 . S
C1308 C1309 1.349 . S
C1308 C1310 1.327 . S
C1308 H1333 0.950 . S
C1309 C1308 1.349 . S
C1309 C1325 1.349 . S
C1310 C1308 1.327 . S
C1310 C1329 1.429 . S
C1310 H1334 0.950 . S
C1311 C1328 1.574 . S
C1311 C1330 1.368 . S
C1311 H1335 0.949 . S
H1312 C1316 0.949 . S
C1313 C1314 1.349 . S
C1313 C1315 1.327 . S
C1313 H1336 0.950 . S
C1314 C1313 1.349 . S
C1314 C1326 1.349 . S
C1315 C1313 1.327 . S
C1315 C1331 1.429 . S
C1315 H1337 0.950 . S
C1316 H1312 0.949 . S
C1316 C1324 1.574 . S
C1316 C1332 1.368 . S
H1317 C1325 0.950 . S
H1318 C1323 0.950 . S
H1319 C1324 0.949 . S
H1320 C1326 0.950 . S
H1321 C1327 0.950 . S
H1322 C1328 0.949 . S
C1323 H1318 0.950 . S
C1323 C1325 1.327 . S
C1323 C1329 1.429 . S
C1324 C1316 1.574 . S
C1324 H1319 0.949 . S
C1324 C1330 1.368 . S
C1325 C1309 1.349 . S
C1325 H1317 0.950 . S
C1325 C1323 1.327 . S
C1326 C1314 1.349 . S
C1326 H1320 0.950 . S
C1326 C1327 1.327 . S
C1327 H1321 0.950 . S
C1327 C1326 1.327 . S
C1327 C1331 1.429 . S
C1328 C1311 1.574 . S
C1328 H1322 0.949 . S
C1328 C1332 1.368 . S
C1329 C1310 1.429 . S
C1329 C1323 1.429 . S
C1329 C1330 1.523 . S
C1330 C1311 1.368 . S
C1330 C1324 1.368 . S
C1330 C1329 1.523 . S
C1331 C1315 1.429 . S
C1331 C1327 1.429 . S
C1331 C1332 1.523 . S
C1332 C1316 1.368 . S
C1332 C1328 1.368 . S
C1332 C1331 1.523 . S
H1333 C1308 0.950 . S
H1334 C1310 0.950 . S
H1335 C1311 0.949 . S
H1336 C1313 0.950 . S
H1337 C1315 0.950 . S
C1338 C1339 1.349 . S
C1338 C1340 1.327 . S
C1338 H1363 0.950 . S
C1339 C1338 1.349 . S
C1339 C1355 1.349 . S
C1340 C1338 1.327 . S
C1340 C1359 1.429 . S
C1340 H1364 0.950 . S
C1341 C1358 1.574 . S
C1341 C1360 1.368 . S
C1341 H1365 0.949 . S
H1342 C1346 0.949 . S
C1343 C1344 1.349 . S
C1343 C1345 1.327 . S
C1343 H1366 0.950 . S
C1344 C1343 1.349 . S
C1344 C1356 1.349 . S
C1345 C1343 1.327 . S
C1345 C1361 1.429 . S
C1345 H1367 0.950 . S
C1346 H1342 0.949 . S
C1346 C1354 1.574 . S
C1346 C1362 1.368 . S
H1347 C1355 0.950 . S
H1348 C1353 0.950 . S
H1349 C1354 0.949 . S
H1350 C1356 0.950 . S
H1351 C1357 0.950 . S
H1352 C1358 0.949 . S
C1353 H1348 0.950 . S
C1353 C1355 1.327 . S
C1353 C1359 1.429 . S
C1354 C1346 1.574 . S
C1354 H1349 0.949 . S
C1354 C1360 1.368 . S
C1355 C1339 1.349 . S
C1355 H1347 0.950 . S
C1355 C1353 1.327 . S
C1356 C1344 1.349 . S
C1356 H1350 0.950 . S
C1356 C1357 1.327 . S
C1357 H1351 0.950 . S
C1357 C1356 1.327 . S
C1357 C1361 1.429 . S
C1358 C1341 1.574 . S
C1358 H1352 0.949 . S
C1358 C1362 1.368 . S
C1359 C1340 1.429 . S
C1359 C1353 1.429 . S
C1359 C1360 1.523 . S
C1360 C1341 1.368 . S
C1360 C1354 1.368 . S
C1360 C1359 1.523 . S
C1361 C1345 1.429 . S
C1361 C1357 1.429 . S
C1361 C1362 1.523 . S
C1362 C1346 1.368 . S
C1362 C1358 1.368 . S
C1362 C1361 1.523 . S
H1363 C1338 0.950 . S
H1364 C1340 0.950 . S
H1365 C1341 0.949 . S
H1366 C1343 0.950 . S
H1367 C1345 0.950 . S
C1368 C1369 1.362 . S
C1368 C1370 1.327 . S
C1368 H1393 0.950 . S
C1369 C1368 1.362 . S
C1369 C1385 1.334 1_545 S
C1370 C1368 1.327 . S
C1370 C1389 1.429 1_545 S
C1370 H1394 0.950 . S
C1371 C1388 1.574 . S
C1371 C1390 1.368 . S
C1371 H1395 0.949 . S
H1372 C1376 0.949 . S
C1373 C1374 1.349 . S
C1373 C1375 1.327 . S
C1373 H1396 0.950 . S
C1374 C1373 1.349 . S
C1374 C1386 1.307 1_565 S
C1375 C1373 1.327 . S
C1375 C1391 1.429 . S
C1375 H1397 0.950 . S
C1376 H1372 0.949 . S
C1376 C1384 1.574 . S
C1376 C1392 1.368 1_545 S
H1377 C1385 0.950 . S
H1378 C1383 0.950 . S
H1379 C1384 0.949 . S
H1380 C1386 0.989 . S
H1381 C1387 0.950 . S
H1382 C1388 0.949 . S
C1383 H1378 0.950 . S
C1383 C1385 1.327 . S
C1383 C1389 1.429 . S
C1384 C1376 1.574 . S
C1384 H1379 0.949 . S
C1384 C1390 1.368 1_545 S
C1385 C1369 1.334 1_565 S
C1385 H1377 0.950 . S
C1385 C1383 1.327 . S
C1386 C1374 1.307 1_545 S
C1386 H1380 0.989 . S
C1386 C1387 1.336 . S
C1387 H1381 0.950 . S
C1387 C1386 1.336 . S
C1387 C1391 1.429 1_545 S
C1388 C1371 1.574 . S
C1388 H1382 0.949 . S
C1388 C1392 1.368 . S
C1389 C1370 1.429 1_565 S
C1389 C1383 1.429 . S
C1389 C1390 1.523 . S
C1390 C1371 1.368 . S
C1390 C1384 1.368 1_565 S
C1390 C1389 1.523 . S
C1391 C1375 1.429 . S
C1391 C1387 1.429 1_565 S
C1391 C1392 1.523 . S
C1392 C1376 1.368 1_565 S
C1392 C1388 1.368 . S
C1392 C1391 1.523 . S
H1393 C1368 0.950 . S
H1394 C1370 0.950 . S
H1395 C1371 0.949 . S
H1396 C1373 0.950 . S
H1397 C1375 0.950 . S
C1398 C1399 1.349 . S
C1398 C1400 1.327 . S
C1398 H1423 0.950 . S
C1399 C1398 1.349 . S
C1399 C1415 1.349 . S
C1400 C1398 1.327 . S
C1400 C1419 1.429 . S
C1400 H1424 0.950 . S
C1401 C1418 1.574 . S
C1401 C1420 1.368 . S
C1401 H1425 0.949 . S
H1402 C1406 0.949 . S
C1403 C1404 1.349 . S
C1403 C1405 1.327 . S
C1403 H1426 0.950 . S
C1404 C1403 1.349 . S
C1404 C1416 1.349 . S
C1405 C1403 1.327 . S
C1405 C1421 1.429 . S
C1405 H1427 0.950 . S
C1406 H1402 0.949 . S
C1406 C1414 1.574 . S
C1406 C1422 1.368 . S
H1407 C1415 0.950 . S
H1408 C1413 0.950 . S
H1409 C1414 0.949 . S
H1410 C1416 0.950 . S
H1411 C1417 0.950 . S
H1412 C1418 0.949 . S
C1413 H1408 0.950 . S
C1413 C1415 1.327 . S
C1413 C1419 1.429 . S
C1414 C1406 1.574 . S
C1414 H1409 0.949 . S
C1414 C1420 1.368 . S
C1415 C1399 1.349 . S
C1415 H1407 0.950 . S
C1415 C1413 1.327 . S
C1416 C1404 1.349 . S
C1416 H1410 0.950 . S
C1416 C1417 1.327 . S
C1417 H1411 0.950 . S
C1417 C1416 1.327 . S
C1417 C1421 1.429 . S
C1418 C1401 1.574 . S
C1418 H1412 0.949 . S
C1418 C1422 1.368 . S
C1419 C1400 1.429 . S
C1419 C1413 1.429 . S
C1419 C1420 1.523 . S
C1420 C1401 1.368 . S
C1420 C1414 1.368 . S
C1420 C1419 1.523 . S
C1421 C1405 1.429 . S
C1421 C1417 1.429 . S
C1421 C1422 1.523 . S
C1422 C1406 1.368 . S
C1422 C1418 1.368 . S
C1422 C1421 1.523 . S
H1423 C1398 0.950 . S
H1424 C1400 0.950 . S
H1425 C1401 0.949 . S
H1426 C1403 0.950 . S
H1427 C1405 0.950 . S
C1428 C1429 1.349 . S
C1428 C1430 1.327 . S
C1428 H1453 0.950 . S
C1429 C1428 1.349 . S
C1429 C1445 1.349 . S
C1430 C1428 1.327 . S
C1430 C1449 1.429 . S
C1430 H1454 0.950 . S
C1431 C1448 1.574 . S
C1431 C1450 1.368 . S
C1431 H1455 0.949 . S
H1432 C1436 0.949 . S
C1433 C1434 1.349 . S
C1433 C1435 1.327 . S
C1433 H1456 0.950 . S
C1434 C1433 1.349 . S
C1434 C1446 1.349 . S
C1435 C1433 1.327 . S
C1435 C1451 1.429 . S
C1435 H1457 0.950 . S
C1436 H1432 0.949 . S
C1436 C1444 1.574 . S
C1436 C1452 1.368 . S
H1437 C1445 0.950 . S
H1438 C1443 0.950 . S
H1439 C1444 0.949 . S
H1440 C1446 0.950 . S
H1441 C1447 0.950 . S
H1442 C1448 0.949 . S
C1443 H1438 0.950 . S
C1443 C1445 1.327 . S
C1443 C1449 1.429 . S
C1444 C1436 1.574 . S
C1444 H1439 0.949 . S
C1444 C1450 1.368 . S
C1445 C1429 1.349 . S
C1445 H1437 0.950 . S
C1445 C1443 1.327 . S
C1446 C1434 1.349 . S
C1446 H1440 0.950 . S
C1446 C1447 1.327 . S
C1447 H1441 0.950 . S
C1447 C1446 1.327 . S
C1447 C1451 1.429 . S
C1448 C1431 1.574 . S
C1448 H1442 0.949 . S
C1448 C1452 1.368 . S
C1449 C1430 1.429 . S
C1449 C1443 1.429 . S
C1449 C1450 1.523 . S
C1450 C1431 1.368 . S
C1450 C1444 1.368 . S
C1450 C1449 1.523 . S
C1451 C1435 1.429 . S
C1451 C1447 1.429 . S
C1451 C1452 1.523 . S
C1452 C1436 1.368 . S
C1452 C1448 1.368 . S
C1452 C1451 1.523 . S
H1453 C1428 0.950 . S
H1454 C1430 0.950 . S
H1455 C1431 0.949 . S
H1456 C1433 0.950 . S
H1457 C1435 0.950 . S
C1458 C1459 1.349 . S
C1458 C1460 1.327 . S
C1458 H1483 0.950 . S
C1459 C1458 1.349 . S
C1459 C1475 1.349 . S
C1460 C1458 1.327 . S
C1460 C1479 1.429 . S
C1460 H1484 0.950 . S
C1461 C1478 1.574 . S
C1461 C1480 1.368 . S
C1461 H1485 0.949 . S
H1462 C1466 0.949 . S
C1463 C1464 1.349 . S
C1463 C1465 1.327 . S
C1463 H1486 0.950 . S
C1464 C1463 1.349 . S
C1464 C1476 1.349 . S
C1465 C1463 1.327 . S
C1465 C1481 1.429 . S
C1465 H1487 0.950 . S
C1466 H1462 0.949 . S
C1466 C1474 1.574 . S
C1466 C1482 1.368 . S
H1467 C1475 0.950 . S
H1468 C1473 0.950 . S
H1469 C1474 0.949 . S
H1470 C1476 0.950 . S
H1471 C1477 0.950 . S
H1472 C1478 0.949 . S
C1473 H1468 0.950 . S
C1473 C1475 1.327 . S
C1473 C1479 1.429 . S
C1474 C1466 1.574 . S
C1474 H1469 0.949 . S
C1474 C1480 1.368 . S
C1475 C1459 1.349 . S
C1475 H1467 0.950 . S
C1475 C1473 1.327 . S
C1476 C1464 1.349 . S
C1476 H1470 0.950 . S
C1476 C1477 1.327 . S
C1477 H1471 0.950 . S
C1477 C1476 1.327 . S
C1477 C1481 1.429 . S
C1478 C1461 1.574 . S
C1478 H1472 0.949 . S
C1478 C1482 1.368 . S
C1479 C1460 1.429 . S
C1479 C1473 1.429 . S
C1479 C1480 1.523 . S
C1480 C1461 1.368 . S
C1480 C1474 1.368 . S
C1480 C1479 1.523 . S
C1481 C1465 1.429 . S
C1481 C1477 1.429 . S
C1481 C1482 1.523 . S
C1482 C1466 1.368 . S
C1482 C1478 1.368 . S
C1482 C1481 1.523 . S
H1483 C1458 0.950 . S
H1484 C1460 0.950 . S
H1485 C1461 0.949 . S
H1486 C1463 0.950 . S
H1487 C1465 0.950 . S
C1488 C1489 1.349 . S
C1488 C1490 1.327 . S
C1488 H1513 0.950 . S
C1489 C1488 1.349 . S
C1489 C1505 1.349 . S
C1490 C1488 1.327 . S
C1490 C1509 1.429 . S
C1490 H1514 0.950 . S
C1491 C1508 1.574 . S
C1491 C1510 1.368 . S
C1491 H1515 0.949 . S
H1492 C1496 0.949 . S
C1493 C1494 1.349 . S
C1493 C1495 1.327 . S
C1493 H1516 0.950 . S
C1494 C1493 1.349 . S
C1494 C1506 1.349 . S
C1495 C1493 1.327 . S
C1495 C1511 1.429 . S
C1495 H1517 0.950 . S
C1496 H1492 0.949 . S
C1496 C1504 1.574 . S
C1496 C1512 1.368 . S
H1497 C1505 0.950 . S
H1498 C1503 0.950 . S
H1499 C1504 0.949 . S
H1500 C1506 0.950 . S
H1501 C1507 0.950 . S
H1502 C1508 0.949 . S
C1503 H1498 0.950 . S
C1503 C1505 1.327 . S
C1503 C1509 1.429 . S
C1504 C1496 1.574 . S
C1504 H1499 0.949 . S
C1504 C1510 1.368 . S
C1505 C1489 1.349 . S
C1505 H1497 0.950 . S
C1505 C1503 1.327 . S
C1506 C1494 1.349 . S
C1506 H1500 0.950 . S
C1506 C1507 1.327 . S
C1507 H1501 0.950 . S
C1507 C1506 1.327 . S
C1507 C1511 1.429 . S
C1508 C1491 1.574 . S
C1508 H1502 0.949 . S
C1508 C1512 1.368 . S
C1509 C1490 1.429 . S
C1509 C1503 1.429 . S
C1509 C1510 1.523 . S
C1510 C1491 1.368 . S
C1510 C1504 1.368 . S
C1510 C1509 1.523 . S
C1511 C1495 1.429 . S
C1511 C1507 1.429 . S
C1511 C1512 1.523 . S
C1512 C1496 1.368 . S
C1512 C1508 1.368 . S
C1512 C1511 1.523 . S
H1513 C1488 0.950 . S
H1514 C1490 0.950 . S
H1515 C1491 0.949 . S
H1516 C1493 0.950 . S
H1517 C1495 0.950 . S
C1518 C1519 1.349 . S
C1518 C1520 1.327 . S
C1518 H1543 0.950 . S
C1519 C1518 1.349 . S
C1519 C1535 1.349 . S
C1520 C1518 1.327 . S
C1520 C1539 1.429 . S
C1520 H1544 0.950 . S
C1521 C1538 1.574 . S
C1521 C1540 1.368 . S
C1521 H1545 0.949 . S
H1522 C1526 0.949 . S
C1523 C1524 1.349 . S
C1523 C1525 1.327 . S
C1523 H1546 0.950 . S
C1524 C1523 1.349 . S
C1524 C1536 1.349 . S
C1525 C1523 1.327 . S
C1525 C1541 1.429 . S
C1525 H1547 0.950 . S
C1526 H1522 0.949 . S
C1526 C1534 1.574 . S
C1526 C1542 1.368 . S
H1527 C1535 0.950 . S
H1528 C1533 0.950 . S
H1529 C1534 0.949 . S
H1530 C1536 0.950 . S
H1531 C1537 0.950 . S
H1532 C1538 0.949 . S
C1533 H1528 0.950 . S
C1533 C1535 1.327 . S
C1533 C1539 1.429 . S
C1534 C1526 1.574 . S
C1534 H1529 0.949 . S
C1534 C1540 1.368 . S
C1535 C1519 1.349 . S
C1535 H1527 0.950 . S
C1535 C1533 1.327 . S
C1536 C1524 1.349 . S
C1536 H1530 0.950 . S
C1536 C1537 1.327 . S
C1537 H1531 0.950 . S
C1537 C1536 1.327 . S
C1537 C1541 1.429 . S
C1538 C1521 1.574 . S
C1538 H1532 0.949 . S
C1538 C1542 1.368 . S
C1539 C1520 1.429 . S
C1539 C1533 1.429 . S
C1539 C1540 1.523 . S
C1540 C1521 1.368 . S
C1540 C1534 1.368 . S
C1540 C1539 1.523 . S
C1541 C1525 1.429 . S
C1541 C1537 1.429 . S
C1541 C1542 1.523 . S
C1542 C1526 1.368 . S
C1542 C1538 1.368 . S
C1542 C1541 1.523 . S
H1543 C1518 0.950 . S
H1544 C1520 0.950 . S
H1545 C1521 0.949 . S
H1546 C1523 0.950 . S
H1547 C1525 0.950 . S
C1548 C1549 1.381 . S
C1548 C1550 1.327 . S
C1548 H1573 0.950 . S
C1549 C1548 1.381 . S
C1549 C1565 1.315 1_545 S
C1550 C1548 1.327 . S
C1550 C1569 1.429 1_545 S
C1550 H1574 0.950 . S
C1551 C1568 1.574 . S
C1551 C1570 1.368 . S
C1551 H1575 0.949 . S
H1552 C1556 0.949 . S
C1553 C1554 1.349 . S
C1553 C1555 1.327 . S
C1553 H1576 0.950 . S
C1554 C1553 1.349 . S
C1554 C1566 1.349 1_565 S
C1555 C1553 1.327 . S
C1555 C1571 1.429 . S
C1555 H1577 0.950 . S
C1556 H1552 0.949 . S
C1556 C1564 1.574 . S
C1556 C1572 1.368 1_545 S
H1557 C1565 0.950 . S
H1558 C1563 0.950 . S
H1559 C1564 0.949 . S
H1560 C1566 0.950 . S
H1561 C1567 0.950 . S
H1562 C1568 0.949 . S
C1563 H1558 0.950 . S
C1563 C1565 1.327 . S
C1563 C1569 1.429 . S
C1564 C1556 1.574 . S
C1564 H1559 0.949 . S
C1564 C1570 1.368 1_545 S
C1565 C1549 1.315 1_565 S
C1565 H1557 0.950 . S
C1565 C1563 1.327 . S
C1566 C1554 1.349 1_545 S
C1566 H1560 0.950 . S
C1566 C1567 1.327 . S
C1567 H1561 0.950 . S
C1567 C1566 1.327 . S
C1567 C1571 1.429 1_545 S
C1568 C1551 1.574 . S
C1568 H1562 0.949 . S
C1568 C1572 1.368 . S
C1569 C1550 1.429 1_565 S
C1569 C1563 1.429 . S
C1569 C1570 1.523 . S
C1570 C1551 1.368 . S
C1570 C1564 1.368 1_565 S
C1570 C1569 1.523 . S
C1571 C1555 1.429 . S
C1571 C1567 1.429 1_565 S
C1571 C1572 1.523 . S
C1572 C1556 1.368 1_565 S
C1572 C1568 1.368 . S
C1572 C1571 1.523 . S
H1573 C1548 0.950 . S
H1574 C1550 0.950 . S
H1575 C1551 0.949 . S
H1576 C1553 0.950 . S
H1577 C1555 0.950 . S
C1578 C1579 1.332 1_556 S
C1578 C1580 1.327 . S
C1578 H1603 0.950 . S
C1579 C1578 1.332 1_554 S
C1579 C1595 1.364 . S
C1580 C1578 1.327 . S
C1580 C1599 1.429 . S
C1580 H1604 0.950 . S
C1581 C1598 1.574 . S
C1581 C1600 1.368 1_554 S
C1581 H1605 0.949 . S
H1582 C1586 0.949 . S
C1583 C1584 1.349 1_554 S
C1583 C1585 1.327 . S
C1583 H1606 0.950 . S
C1584 C1583 1.349 1_556 S
C1584 C1596 1.349 . S
C1585 C1583 1.327 . S
C1585 C1601 1.429 1_554 S
C1585 H1607 0.950 . S
C1586 H1582 0.949 . S
C1586 C1594 1.574 . S
C1586 C1602 1.368 . S
H1587 C1595 0.950 . S
H1588 C1593 0.950 . S
H1589 C1594 0.949 . S
H1590 C1596 0.950 . S
H1591 C1597 0.950 . S
H1592 C1598 0.949 . S
C1593 H1588 0.950 . S
C1593 C1595 1.327 . S
C1593 C1599 1.429 1_554 S
C1594 C1586 1.574 . S
C1594 H1589 0.949 . S
C1594 C1600 1.368 . S
C1595 C1579 1.364 . S
C1595 H1587 0.950 . S
C1595 C1593 1.327 . S
C1596 C1584 1.349 . S
C1596 H1590 0.950 . S
C1596 C1597 1.327 . S
C1597 H1591 0.950 . S
C1597 C1596 1.327 . S
C1597 C1601 1.429 . S
C1598 C1581 1.574 . S
C1598 H1592 0.949 . S
C1598 C1602 1.368 1_554 S
C1599 C1580 1.429 . S
C1599 C1593 1.429 1_556 S
C1599 C1600 1.523 . S
C1600 C1581 1.368 1_556 S
C1600 C1594 1.368 . S
C1600 C1599 1.523 . S
C1601 C1585 1.429 1_556 S
C1601 C1597 1.429 . S
C1601 C1602 1.523 . S
C1602 C1586 1.368 . S
C1602 C1598 1.368 1_556 S
C1602 C1601 1.523 . S
H1603 C1578 0.950 . S
H1604 C1580 0.950 . S
H1605 C1581 0.949 . S
H1606 C1583 0.950 . S
H1607 C1585 0.950 . S
C1608 C1609 1.349 . S
C1608 C1610 1.327 . S
C1608 H1633 0.950 . S
C1609 C1608 1.349 . S
C1609 C1625 1.349 . S
C1610 C1608 1.327 . S
C1610 C1629 1.429 . S
C1610 H1634 0.950 . S
C1611 C1628 1.574 . S
C1611 C1630 1.368 . S
C1611 H1635 0.949 . S
H1612 C1616 0.949 . S
C1613 C1614 1.349 . S
C1613 C1615 1.327 . S
C1613 H1636 0.950 . S
C1614 C1613 1.349 . S
C1614 C1626 1.349 . S
C1615 C1613 1.327 . S
C1615 C1631 1.429 . S
C1615 H1637 0.950 . S
C1616 H1612 0.949 . S
C1616 C1624 1.574 . S
C1616 C1632 1.368 . S
H1617 C1625 0.950 . S
H1618 C1623 0.950 . S
H1619 C1624 0.949 . S
H1620 C1626 0.950 . S
H1621 C1627 0.950 . S
H1622 C1628 0.949 . S
C1623 H1618 0.950 . S
C1623 C1625 1.327 . S
C1623 C1629 1.429 . S
C1624 C1616 1.574 . S
C1624 H1619 0.949 . S
C1624 C1630 1.368 . S
C1625 C1609 1.349 . S
C1625 H1617 0.950 . S
C1625 C1623 1.327 . S
C1626 C1614 1.349 . S
C1626 H1620 0.950 . S
C1626 C1627 1.327 . S
C1627 H1621 0.950 . S
C1627 C1626 1.327 . S
C1627 C1631 1.429 . S
C1628 C1611 1.574 . S
C1628 H1622 0.949 . S
C1628 C1632 1.368 . S
C1629 C1610 1.429 . S
C1629 C1623 1.429 . S
C1629 C1630 1.523 . S
C1630 C1611 1.368 . S
C1630 C1624 1.368 . S
C1630 C1629 1.523 . S
C1631 C1615 1.429 . S
C1631 C1627 1.429 . S
C1631 C1632 1.523 . S
C1632 C1616 1.368 . S
C1632 C1628 1.368 . S
C1632 C1631 1.523 . S
H1633 C1608 0.950 . S
H1634 C1610 0.950 . S
H1635 C1611 0.949 . S
H1636 C1613 0.950 . S
H1637 C1615 0.950 . S
C1638 C1639 1.349 . S
C1638 C1640 1.327 . S
C1638 H1663 0.950 . S
C1639 C1638 1.349 . S
C1639 C1655 1.349 . S
C1640 C1638 1.327 . S
C1640 C1659 1.429 . S
C1640 H1664 0.950 . S
C1641 C1658 1.574 . S
C1641 C1660 1.368 . S
C1641 H1665 0.949 . S
H1642 C1646 0.949 . S
C1643 C1644 1.349 . S
C1643 C1645 1.327 . S
C1643 H1666 0.950 . S
C1644 C1643 1.349 . S
C1644 C1656 1.349 . S
C1645 C1643 1.327 . S
C1645 C1661 1.429 . S
C1645 H1667 0.950 . S
C1646 H1642 0.949 . S
C1646 C1654 1.574 . S
C1646 C1662 1.368 . S
H1647 C1655 0.950 . S
H1648 C1653 0.950 . S
H1649 C1654 0.949 . S
H1650 C1656 0.950 . S
H1651 C1657 0.950 . S
H1652 C1658 0.949 . S
C1653 H1648 0.950 . S
C1653 C1655 1.327 . S
C1653 C1659 1.429 . S
C1654 C1646 1.574 . S
C1654 H1649 0.949 . S
C1654 C1660 1.368 . S
C1655 C1639 1.349 . S
C1655 H1647 0.950 . S
C1655 C1653 1.327 . S
C1656 C1644 1.349 . S
C1656 H1650 0.950 . S
C1656 C1657 1.327 . S
C1657 H1651 0.950 . S
C1657 C1656 1.327 . S
C1657 C1661 1.429 . S
C1658 C1641 1.574 . S
C1658 H1652 0.949 . S
C1658 C1662 1.368 . S
C1659 C1640 1.429 . S
C1659 C1653 1.429 . S
C1659 C1660 1.523 . S
C1660 C1641 1.368 . S
C1660 C1654 1.368 . S
C1660 C1659 1.523 . S
C1661 C1645 1.429 . S
C1661 C1657 1.429 . S
C1661 C1662 1.523 . S
C1662 C1646 1.368 . S
C1662 C1658 1.368 . S
C1662 C1661 1.523 . S
H1663 C1638 0.950 . S
H1664 C1640 0.950 . S
H1665 C1641 0.949 . S
H1666 C1643 0.950 . S
H1667 C1645 0.950 . S
C1668 C1669 1.349 . S
C1668 C1670 1.327 . S
C1668 H1693 0.950 . S
C1669 C1668 1.349 . S
C1669 C1685 1.349 . S
C1670 C1668 1.327 . S
C1670 C1689 1.429 . S
C1670 H1694 0.950 . S
C1671 C1688 1.574 . S
C1671 C1690 1.368 . S
C1671 H1695 0.949 . S
H1672 C1676 0.949 . S
C1673 C1674 1.349 . S
C1673 C1675 1.327 . S
C1673 H1696 0.950 . S
C1674 C1673 1.349 . S
C1674 C1686 1.349 . S
C1675 C1673 1.327 . S
C1675 C1691 1.429 . S
C1675 H1697 0.950 . S
C1676 H1672 0.949 . S
C1676 C1684 1.574 . S
C1676 C1692 1.368 . S
H1677 C1685 0.950 . S
H1678 C1683 0.950 . S
H1679 C1684 0.949 . S
H1680 C1686 0.950 . S
H1681 C1687 0.950 . S
H1682 C1688 0.949 . S
C1683 H1678 0.950 . S
C1683 C1685 1.327 . S
C1683 C1689 1.429 . S
C1684 C1676 1.574 . S
C1684 H1679 0.949 . S
C1684 C1690 1.368 . S
C1685 C1669 1.349 . S
C1685 H1677 0.950 . S
C1685 C1683 1.327 . S
C1686 C1674 1.349 . S
C1686 H1680 0.950 . S
C1686 C1687 1.327 . S
C1687 H1681 0.950 . S
C1687 C1686 1.327 . S
C1687 C1691 1.429 . S
C1688 C1671 1.574 . S
C1688 H1682 0.949 . S
C1688 C1692 1.368 . S
C1689 C1670 1.429 . S
C1689 C1683 1.429 . S
C1689 C1690 1.523 . S
C1690 C1671 1.368 . S
C1690 C1684 1.368 . S
C1690 C1689 1.523 . S
C1691 C1675 1.429 . S
C1691 C1687 1.429 . S
C1691 C1692 1.523 . S
C1692 C1676 1.368 . S
C1692 C1688 1.368 . S
C1692 C1691 1.523 . S
H1693 C1668 0.950 . S
H1694 C1670 0.950 . S
H1695 C1671 0.949 . S
H1696 C1673 0.950 . S
H1697 C1675 0.950 . S
C1698 C1699 1.349 . S
C1698 C1700 1.327 . S
C1698 H1723 0.950 . S
C1699 C1698 1.349 . S
C1699 C1715 1.349 . S
C1700 C1698 1.327 . S
C1700 C1719 1.429 . S
C1700 H1724 0.950 . S
C1701 C1718 1.574 . S
C1701 C1720 1.368 . S
C1701 H1725 0.949 . S
H1702 C1706 0.949 . S
C1703 C1704 1.349 . S
C1703 C1705 1.327 . S
C1703 H1726 0.950 . S
C1704 C1703 1.349 . S
C1704 C1716 1.349 . S
C1705 C1703 1.327 . S
C1705 C1721 1.429 . S
C1705 H1727 0.950 . S
C1706 H1702 0.949 . S
C1706 C1714 1.574 . S
C1706 C1722 1.368 . S
H1707 C1715 0.950 . S
H1708 C1713 0.950 . S
H1709 C1714 0.949 . S
H1710 C1716 0.950 . S
H1711 C1717 0.950 . S
H1712 C1718 0.949 . S
C1713 H1708 0.950 . S
C1713 C1715 1.327 . S
C1713 C1719 1.429 . S
C1714 C1706 1.574 . S
C1714 H1709 0.949 . S
C1714 C1720 1.368 . S
C1715 C1699 1.349 . S
C1715 H1707 0.950 . S
C1715 C1713 1.327 . S
C1716 C1704 1.349 . S
C1716 H1710 0.950 . S
C1716 C1717 1.327 . S
C1717 H1711 0.950 . S
C1717 C1716 1.327 . S
C1717 C1721 1.429 . S
C1718 C1701 1.574 . S
C1718 H1712 0.949 . S
C1718 C1722 1.368 . S
C1719 C1700 1.429 . S
C1719 C1713 1.429 . S
C1719 C1720 1.523 . S
C1720 C1701 1.368 . S
C1720 C1714 1.368 . S
C1720 C1719 1.523 . S
C1721 C1705 1.429 . S
C1721 C1717 1.429 . S
C1721 C1722 1.523 . S
C1722 C1706 1.368 . S
C1722 C1718 1.368 . S
C1722 C1721 1.523 . S
H1723 C1698 0.950 . S
H1724 C1700 0.950 . S
H1725 C1701 0.949 . S
H1726 C1703 0.950 . S
H1727 C1705 0.950 . S
C1728 C1729 1.349 . S
C1728 C1730 1.327 . S
C1728 H1753 0.950 . S
C1729 C1728 1.349 . S
C1729 C1745 1.349 . S
C1730 C1728 1.327 . S
C1730 C1749 1.429 . S
C1730 H1754 0.950 . S
C1731 C1748 1.574 . S
C1731 C1750 1.368 . S
C1731 H1755 0.949 . S
H1732 C1736 0.949 . S
C1733 C1734 1.349 . S
C1733 C1735 1.327 . S
C1733 H1756 0.950 . S
C1734 C1733 1.349 . S
C1734 C1746 1.349 . S
C1735 C1733 1.327 . S
C1735 C1751 1.429 . S
C1735 H1757 0.950 . S
C1736 H1732 0.949 . S
C1736 C1744 1.574 . S
C1736 C1752 1.368 . S
H1737 C1745 0.950 . S
H1738 C1743 0.950 . S
H1739 C1744 0.949 . S
H1740 C1746 0.950 . S
H1741 C1747 0.950 . S
H1742 C1748 0.949 . S
C1743 H1738 0.950 . S
C1743 C1745 1.327 . S
C1743 C1749 1.429 . S
C1744 C1736 1.574 . S
C1744 H1739 0.949 . S
C1744 C1750 1.368 . S
C1745 C1729 1.349 . S
C1745 H1737 0.950 . S
C1745 C1743 1.327 . S
C1746 C1734 1.349 . S
C1746 H1740 0.950 . S
C1746 C1747 1.327 . S
C1747 H1741 0.950 . S
C1747 C1746 1.327 . S
C1747 C1751 1.429 . S
C1748 C1731 1.574 . S
C1748 H1742 0.949 . S
C1748 C1752 1.368 . S
C1749 C1730 1.429 . S
C1749 C1743 1.429 . S
C1749 C1750 1.523 . S
C1750 C1731 1.368 . S
C1750 C1744 1.368 . S
C1750 C1749 1.523 . S
C1751 C1735 1.429 . S
C1751 C1747 1.429 . S
C1751 C1752 1.523 . S
C1752 C1736 1.368 . S
C1752 C1748 1.368 . S
C1752 C1751 1.523 . S
H1753 C1728 0.950 . S
H1754 C1730 0.950 . S
H1755 C1731 0.949 . S
H1756 C1733 0.950 . S
H1757 C1735 0.950 . S
C1758 C1759 1.349 . S
C1758 C1760 1.327 . S
C1758 H1783 0.950 . S
C1759 C1758 1.349 . S
C1759 C1775 1.349 . S
C1760 C1758 1.327 . S
C1760 C1779 1.429 . S
C1760 H1784 0.950 . S
C1761 C1778 1.574 . S
C1761 C1780 1.368 . S
C1761 H1785 0.949 . S
H1762 C1766 0.949 . S
C1763 C1764 1.349 . S
C1763 C1765 1.327 . S
C1763 H1786 0.950 . S
C1764 C1763 1.349 . S
C1764 C1776 1.349 . S
C1765 C1763 1.327 . S
C1765 C1781 1.429 . S
C1765 H1787 0.950 . S
C1766 H1762 0.949 . S
C1766 C1774 1.574 . S
C1766 C1782 1.368 . S
H1767 C1775 0.950 . S
H1768 C1773 0.950 . S
H1769 C1774 0.949 . S
H1770 C1776 0.950 . S
H1771 C1777 0.950 . S
H1772 C1778 0.949 . S
C1773 H1768 0.950 . S
C1773 C1775 1.327 . S
C1773 C1779 1.429 . S
C1774 C1766 1.574 . S
C1774 H1769 0.949 . S
C1774 C1780 1.368 . S
C1775 C1759 1.349 . S
C1775 H1767 0.950 . S
C1775 C1773 1.327 . S
C1776 C1764 1.349 . S
C1776 H1770 0.950 . S
C1776 C1777 1.327 . S
C1777 H1771 0.950 . S
C1777 C1776 1.327 . S
C1777 C1781 1.429 . S
C1778 C1761 1.574 . S
C1778 H1772 0.949 . S
C1778 C1782 1.368 . S
C1779 C1760 1.429 . S
C1779 C1773 1.429 . S
C1779 C1780 1.523 . S
C1780 C1761 1.368 . S
C1780 C1774 1.368 . S
C1780 C1779 1.523 . S
C1781 C1765 1.429 . S
C1781 C1777 1.429 . S
C1781 C1782 1.523 . S
C1782 C1766 1.368 . S
C1782 C1778 1.368 . S
C1782 C1781 1.523 . S
H1783 C1758 0.950 . S
H1784 C1760 0.950 . S
H1785 C1761 0.949 . S
H1786 C1763 0.950 . S
H1787 C1765 0.950 . S
C1788 C1789 1.349 . S
C1788 C1790 1.327 . S
C1788 H1813 0.950 . S
C1789 C1788 1.349 . S
C1789 C1805 1.349 . S
C1790 C1788 1.327 . S
C1790 C1809 1.429 . S
C1790 H1814 0.950 . S
C1791 C1808 1.574 . S
C1791 C1810 1.368 . S
C1791 H1815 0.949 . S
H1792 C1796 0.949 . S
C1793 C1794 1.349 . S
C1793 C1795 1.327 . S
C1793 H1816 0.950 . S
C1794 C1793 1.349 . S
C1794 C1806 1.349 . S
C1795 C1793 1.327 . S
C1795 C1811 1.429 . S
C1795 H1817 0.950 . S
C1796 H1792 0.949 . S
C1796 C1804 1.574 . S
C1796 C1812 1.368 . S
H1797 C1805 0.950 . S
H1798 C1803 0.950 . S
H1799 C1804 0.949 . S
H1800 C1806 0.950 . S
H1801 C1807 0.950 . S
H1802 C1808 0.949 . S
C1803 H1798 0.950 . S
C1803 C1805 1.327 . S
C1803 C1809 1.429 . S
C1804 C1796 1.574 . S
C1804 H1799 0.949 . S
C1804 C1810 1.368 . S
C1805 C1789 1.349 . S
C1805 H1797 0.950 . S
C1805 C1803 1.327 . S
C1806 C1794 1.349 . S
C1806 H1800 0.950 . S
C1806 C1807 1.327 . S
C1807 H1801 0.950 . S
C1807 C1806 1.327 . S
C1807 C1811 1.429 . S
C1808 C1791 1.574 . S
C1808 H1802 0.949 . S
C1808 C1812 1.368 . S
C1809 C1790 1.429 . S
C1809 C1803 1.429 . S
C1809 C1810 1.523 . S
C1810 C1791 1.368 . S
C1810 C1804 1.368 . S
C1810 C1809 1.523 . S
C1811 C1795 1.429 . S
C1811 C1807 1.429 . S
C1811 C1812 1.523 . S
C1812 C1796 1.368 . S
C1812 C1808 1.368 . S
C1812 C1811 1.523 . S
H1813 C1788 0.950 . S
H1814 C1790 0.950 . S
H1815 C1791 0.949 . S
H1816 C1793 0.950 . S
H1817 C1795 0.950 . S
C1818 C1819 1.349 . S
C1818 C1820 1.327 . S
C1818 H1843 0.950 . S
C1819 C1818 1.349 . S
C1819 C1835 1.349 . S
C1820 C1818 1.327 . S
C1820 C1839 1.429 . S
C1820 H1844 0.950 . S
C1821 C1838 1.574 . S
C1821 C1840 1.368 . S
C1821 H1845 0.949 . S
H1822 C1826 0.949 . S
C1823 C1824 1.349 . S
C1823 C1825 1.327 . S
C1823 H1846 0.950 . S
C1824 C1823 1.349 . S
C1824 C1836 1.349 . S
C1825 C1823 1.327 . S
C1825 C1841 1.429 . S
C1825 H1847 0.950 . S
C1826 H1822 0.949 . S
C1826 C1834 1.574 . S
C1826 C1842 1.368 . S
H1827 C1835 0.950 . S
H1828 C1833 0.950 . S
H1829 C1834 0.949 . S
H1830 C1836 0.950 . S
H1831 C1837 0.950 . S
H1832 C1838 0.949 . S
C1833 H1828 0.950 . S
C1833 C1835 1.327 . S
C1833 C1839 1.429 . S
C1834 C1826 1.574 . S
C1834 H1829 0.949 . S
C1834 C1840 1.368 . S
C1835 C1819 1.349 . S
C1835 H1827 0.950 . S
C1835 C1833 1.327 . S
C1836 C1824 1.349 . S
C1836 H1830 0.950 . S
C1836 C1837 1.327 . S
C1837 H1831 0.950 . S
C1837 C1836 1.327 . S
C1837 C1841 1.429 . S
C1838 C1821 1.574 . S
C1838 H1832 0.949 . S
C1838 C1842 1.368 . S
C1839 C1820 1.429 . S
C1839 C1833 1.429 . S
C1839 C1840 1.523 . S
C1840 C1821 1.368 . S
C1840 C1834 1.368 . S
C1840 C1839 1.523 . S
C1841 C1825 1.429 . S
C1841 C1837 1.429 . S
C1841 C1842 1.523 . S
C1842 C1826 1.368 . S
C1842 C1838 1.368 . S
C1842 C1841 1.523 . S
H1843 C1818 0.950 . S
H1844 C1820 0.950 . S
H1845 C1821 0.949 . S
H1846 C1823 0.950 . S
H1847 C1825 0.950 . S
C1848 C1849 1.349 . S
C1848 C1850 1.327 . S
C1848 H1873 0.950 . S
C1849 C1848 1.349 . S
C1849 C1865 1.349 . S
C1850 C1848 1.327 . S
C1850 C1869 1.429 . S
C1850 H1874 0.950 . S
C1851 C1868 1.574 . S
C1851 C1870 1.368 . S
C1851 H1875 0.949 . S
H1852 C1856 0.949 . S
C1853 C1854 1.349 . S
C1853 C1855 1.327 . S
C1853 H1876 0.950 . S
C1854 C1853 1.349 . S
C1854 C1866 1.349 . S
C1855 C1853 1.327 . S
C1855 C1871 1.429 . S
C1855 H1877 0.950 . S
C1856 H1852 0.949 . S
C1856 C1864 1.574 . S
C1856 C1872 1.368 . S
H1857 C1865 0.950 . S
H1858 C1863 0.950 . S
H1859 C1864 0.949 . S
H1860 C1866 0.950 . S
H1861 C1867 0.950 . S
H1862 C1868 0.949 . S
C1863 H1858 0.950 . S
C1863 C1865 1.327 . S
C1863 C1869 1.429 . S
C1864 C1856 1.574 . S
C1864 H1859 0.949 . S
C1864 C1870 1.368 . S
C1865 C1849 1.349 . S
C1865 H1857 0.950 . S
C1865 C1863 1.327 . S
C1866 C1854 1.349 . S
C1866 H1860 0.950 . S
C1866 C1867 1.327 . S
C1867 H1861 0.950 . S
C1867 C1866 1.327 . S
C1867 C1871 1.429 . S
C1868 C1851 1.574 . S
C1868 H1862 0.949 . S
C1868 C1872 1.368 . S
C1869 C1850 1.429 . S
C1869 C1863 1.429 . S
C1869 C1870 1.523 . S
C1870 C1851 1.368 . S
C1870 C1864 1.368 . S
C1870 C1869 1.523 . S
C1871 C1855 1.429 . S
C1871 C1867 1.429 . S
C1871 C1872 1.523 . S
C1872 C1856 1.368 . S
C1872 C1868 1.368 . S
C1872 C1871 1.523 . S
H1873 C1848 0.950 . S
H1874 C1850 0.950 . S
H1875 C1851 0.949 . S
H1876 C1853 0.950 . S
H1877 C1855 0.950 . S
C1878 C1879 1.349 . S
C1878 C1880 1.327 . S
C1878 H1903 0.950 . S
C1879 C1878 1.349 . S
C1879 C1895 1.349 . S
C1880 C1878 1.327 . S
C1880 C1899 1.429 . S
C1880 H1904 0.950 . S
C1881 C1898 1.574 . S
C1881 C1900 1.368 . S
C1881 H1905 0.949 . S
H1882 C1886 0.949 . S
C1883 C1884 1.349 . S
C1883 C1885 1.327 . S
C1883 H1906 0.950 . S
C1884 C1883 1.349 . S
C1884 C1896 1.349 . S
C1885 C1883 1.327 . S
C1885 C1901 1.429 . S
C1885 H1907 0.950 . S
C1886 H1882 0.949 . S
C1886 C1894 1.574 . S
C1886 C1902 1.368 . S
H1887 C1895 0.950 . S
H1888 C1893 0.950 . S
H1889 C1894 0.949 . S
H1890 C1896 0.950 . S
H1891 C1897 0.950 . S
H1892 C1898 0.949 . S
C1893 H1888 0.950 . S
C1893 C1895 1.327 . S
C1893 C1899 1.429 . S
C1894 C1886 1.574 . S
C1894 H1889 0.949 . S
C1894 C1900 1.368 . S
C1895 C1879 1.349 . S
C1895 H1887 0.950 . S
C1895 C1893 1.327 . S
C1896 C1884 1.349 . S
C1896 H1890 0.950 . S
C1896 C1897 1.327 . S
C1897 H1891 0.950 . S
C1897 C1896 1.327 . S
C1897 C1901 1.429 . S
C1898 C1881 1.574 . S
C1898 H1892 0.949 . S
C1898 C1902 1.368 . S
C1899 C1880 1.429 . S
C1899 C1893 1.429 . S
C1899 C1900 1.523 . S
C1900 C1881 1.368 . S
C1900 C1894 1.368 . S
C1900 C1899 1.523 . S
C1901 C1885 1.429 . S
C1901 C1897 1.429 . S
C1901 C1902 1.523 . S
C1902 C1886 1.368 . S
C1902 C1898 1.368 . S
C1902 C1901 1.523 . S
H1903 C1878 0.950 . S
H1904 C1880 0.950 . S
H1905 C1881 0.949 . S
H1906 C1883 0.950 . S
H1907 C1885 0.950 . S
C1908 C1909 1.349 . S
C1908 C1910 1.327 . S
C1908 H1933 0.950 . S
C1909 C1908 1.349 . S
C1909 C1925 1.362 . S
C1910 C1908 1.327 . S
C1910 C1929 1.429 . S
C1910 H1934 0.950 . S
C1911 C1928 1.574 . S
C1911 C1930 1.368 1_554 S
C1911 H1935 0.949 . S
H1912 C1916 0.949 . S
C1913 C1914 1.360 . S
C1913 C1915 1.327 . S
C1913 H1936 0.950 . S
C1914 C1913 1.360 . S
C1914 C1926 1.337 1_554 S
C1915 C1913 1.327 . S
C1915 C1931 1.429 1_554 S
C1915 H1937 0.950 . S
C1916 H1912 0.949 . S
C1916 C1924 1.574 . S
C1916 C1932 1.368 . S
H1917 C1925 0.938 1_554 S
H1918 C1923 0.978 . S
H1919 C1924 0.949 . S
H1920 C1926 0.950 . S
H1921 C1927 0.950 . S
H1922 C1928 0.949 . S
C1923 H1918 0.978 . S
C1923 C1925 1.324 1_554 S
C1923 C1929 1.406 1_554 S
C1924 C1916 1.574 . S
C1924 H1919 0.949 . S
C1924 C1930 1.368 . S
C1925 C1909 1.362 . S
C1925 H1917 0.938 1_556 S
C1925 C1923 1.324 1_556 S
C1926 C1914 1.337 1_556 S
C1926 H1920 0.950 . S
C1926 C1927 1.327 . S
C1927 H1921 0.950 . S
C1927 C1926 1.327 . S
C1927 C1931 1.429 . S
C1928 C1911 1.574 . S
C1928 H1922 0.949 . S
C1928 C1932 1.368 1_554 S
C1929 C1910 1.429 . S
C1929 C1923 1.406 1_556 S
C1929 C1930 1.523 . S
C1930 C1911 1.368 1_556 S
C1930 C1924 1.368 . S
C1930 C1929 1.523 . S
C1931 C1915 1.429 1_556 S
C1931 C1927 1.429 . S
C1931 C1932 1.523 . S
C1932 C1916 1.368 . S
C1932 C1928 1.368 1_556 S
C1932 C1931 1.523 . S
H1933 C1908 0.950 . S
H1934 C1910 0.950 . S
H1935 C1911 0.949 . S
H1936 C1913 0.950 . S
H1937 C1915 0.950 . S
C1938 C1939 1.349 . S
C1938 C1940 1.327 . S
C1938 H1963 0.950 . S
C1939 C1938 1.349 . S
C1939 C1955 1.349 . S
C1940 C1938 1.327 . S
C1940 C1959 1.429 . S
C1940 H1964 0.950 . S
C1941 C1958 1.574 . S
C1941 C1960 1.368 . S
C1941 H1965 0.949 . S
H1942 C1946 0.949 . S
C1943 C1944 1.349 . S
C1943 C1945 1.327 . S
C1943 H1966 0.950 . S
C1944 C1943 1.349 . S
C1944 C1956 1.349 . S
C1945 C1943 1.327 . S
C1945 C1961 1.429 . S
C1945 H1967 0.950 . S
C1946 H1942 0.949 . S
C1946 C1954 1.574 . S
C1946 C1962 1.368 . S
H1947 C1955 0.950 . S
H1948 C1953 0.950 . S
H1949 C1954 0.949 . S
H1950 C1956 0.950 . S
H1951 C1957 0.950 . S
H1952 C1958 0.949 . S
C1953 H1948 0.950 . S
C1953 C1955 1.327 . S
C1953 C1959 1.429 . S
C1954 C1946 1.574 . S
C1954 H1949 0.949 . S
C1954 C1960 1.368 . S
C1955 C1939 1.349 . S
C1955 H1947 0.950 . S
C1955 C1953 1.327 . S
C1956 C1944 1.349 . S
C1956 H1950 0.950 . S
C1956 C1957 1.327 . S
C1957 H1951 0.950 . S
C1957 C1956 1.327 . S
C1957 C1961 1.429 . S
C1958 C1941 1.574 . S
C1958 H1952 0.949 . S
C1958 C1962 1.368 . S
C1959 C1940 1.429 . S
C1959 C1953 1.429 . S
C1959 C1960 1.523 . S
C1960 C1941 1.368 . S
C1960 C1954 1.368 . S
C1960 C1959 1.523 . S
C1961 C1945 1.429 . S
C1961 C1957 1.429 . S
C1961 C1962 1.523 . S
C1962 C1946 1.368 . S
C1962 C1958 1.368 . S
C1962 C1961 1.523 . S
H1963 C1938 0.950 . S
H1964 C1940 0.950 . S
H1965 C1941 0.949 . S
H1966 C1943 0.950 . S
H1967 C1945 0.950 . S
C1968 C1969 1.349 . S
C1968 C1970 1.327 . S
C1968 H1993 0.950 . S
C1969 C1968 1.349 . S
C1969 C1985 1.349 . S
C1970 C1968 1.327 . S
C1970 C1989 1.429 . S
C1970 H1994 0.950 . S
C1971 C1988 1.574 . S
C1971 C1990 1.368 . S
C1971 H1995 0.949 . S
H1972 C1976 0.949 . S
C1973 C1974 1.349 . S
C1973 C1975 1.327 . S
C1973 H1996 0.950 . S
C1974 C1973 1.349 . S
C1974 C1986 1.349 . S
C1975 C1973 1.327 . S
C1975 C1991 1.429 . S
C1975 H1997 0.950 . S
C1976 H1972 0.949 . S
C1976 C1984 1.574 . S
C1976 C1992 1.368 . S
H1977 C1985 0.950 . S
H1978 C1983 0.950 . S
H1979 C1984 0.949 . S
H1980 C1986 0.950 . S
H1981 C1987 0.950 . S
H1982 C1988 0.949 . S
C1983 H1978 0.950 . S
C1983 C1985 1.327 . S
C1983 C1989 1.429 . S
C1984 C1976 1.574 . S
C1984 H1979 0.949 . S
C1984 C1990 1.368 . S
C1985 C1969 1.349 . S
C1985 H1977 0.950 . S
C1985 C1983 1.327 . S
C1986 C1974 1.349 . S
C1986 H1980 0.950 . S
C1986 C1987 1.327 . S
C1987 H1981 0.950 . S
C1987 C1986 1.327 . S
C1987 C1991 1.429 . S
C1988 C1971 1.574 . S
C1988 H1982 0.949 . S
C1988 C1992 1.368 . S
C1989 C1970 1.429 . S
C1989 C1983 1.429 . S
C1989 C1990 1.523 . S
C1990 C1971 1.368 . S
C1990 C1984 1.368 . S
C1990 C1989 1.523 . S
C1991 C1975 1.429 . S
C1991 C1987 1.429 . S
C1991 C1992 1.523 . S
C1992 C1976 1.368 . S
C1992 C1988 1.368 . S
C1992 C1991 1.523 . S
H1993 C1968 0.950 . S
H1994 C1970 0.950 . S
H1995 C1971 0.949 . S
H1996 C1973 0.950 . S
H1997 C1975 0.950 . S
C1998 C1999 1.349 . S
C1998 C2000 1.327 . S
C1998 H2023 0.950 . S
C1999 C1998 1.349 . S
C1999 C2015 1.349 . S
C2000 C1998 1.327 . S
C2000 C2019 1.429 . S
C2000 H2024 0.950 . S
C2001 C2018 1.574 . S
C2001 C2020 1.368 . S
C2001 H2025 0.949 . S
H2002 C2006 0.949 . S
C2003 C2004 1.349 . S
C2003 C2005 1.327 . S
C2003 H2026 0.950 . S
C2004 C2003 1.349 . S
C2004 C2016 1.349 . S
C2005 C2003 1.327 . S
C2005 C2021 1.429 . S
C2005 H2027 0.950 . S
C2006 H2002 0.949 . S
C2006 C2014 1.574 . S
C2006 C2022 1.368 . S
H2007 C2015 0.950 . S
H2008 C2013 0.950 . S
H2009 C2014 0.949 . S
H2010 C2016 0.950 . S
H2011 C2017 0.950 . S
H2012 C2018 0.949 . S
C2013 H2008 0.950 . S
C2013 C2015 1.327 . S
C2013 C2019 1.429 . S
C2014 C2006 1.574 . S
C2014 H2009 0.949 . S
C2014 C2020 1.368 . S
C2015 C1999 1.349 . S
C2015 H2007 0.950 . S
C2015 C2013 1.327 . S
C2016 C2004 1.349 . S
C2016 H2010 0.950 . S
C2016 C2017 1.327 . S
C2017 H2011 0.950 . S
C2017 C2016 1.327 . S
C2017 C2021 1.429 . S
C2018 C2001 1.574 . S
C2018 H2012 0.949 . S
C2018 C2022 1.368 . S
C2019 C2000 1.429 . S
C2019 C2013 1.429 . S
C2019 C2020 1.523 . S
C2020 C2001 1.368 . S
C2020 C2014 1.368 . S
C2020 C2019 1.523 . S
C2021 C2005 1.429 . S
C2021 C2017 1.429 . S
C2021 C2022 1.523 . S
C2022 C2006 1.368 . S
C2022 C2018 1.368 . S
C2022 C2021 1.523 . S
H2023 C1998 0.950 . S
H2024 C2000 0.950 . S
H2025 C2001 0.949 . S
H2026 C2003 0.950 . S
H2027 C2005 0.950 . S
C2028 C2029 1.349 . S
C2028 C2030 1.327 . S
C2028 H2053 0.950 . S
C2029 C2028 1.349 . S
C2029 C2045 1.349 . S
C2030 C2028 1.327 . S
C2030 C2049 1.429 . S
C2030 H2054 0.950 . S
C2031 C2048 1.574 . S
C2031 C2050 1.368 . S
C2031 H2055 0.949 . S
H2032 C2036 0.949 . S
C2033 C2034 1.349 . S
C2033 C2035 1.327 . S
C2033 H2056 0.950 . S
C2034 C2033 1.349 . S
C2034 C2046 1.349 . S
C2035 C2033 1.327 . S
C2035 C2051 1.429 . S
C2035 H2057 0.950 . S
C2036 H2032 0.949 . S
C2036 C2044 1.574 . S
C2036 C2052 1.368 . S
H2037 C2045 0.950 . S
H2038 C2043 0.950 . S
H2039 C2044 0.949 . S
H2040 C2046 0.950 . S
H2041 C2047 0.950 . S
H2042 C2048 0.949 . S
C2043 H2038 0.950 . S
C2043 C2045 1.327 . S
C2043 C2049 1.429 . S
C2044 C2036 1.574 . S
C2044 H2039 0.949 . S
C2044 C2050 1.368 . S
C2045 C2029 1.349 . S
C2045 H2037 0.950 . S
C2045 C2043 1.327 . S
C2046 C2034 1.349 . S
C2046 H2040 0.950 . S
C2046 C2047 1.327 . S
C2047 H2041 0.950 . S
C2047 C2046 1.327 . S
C2047 C2051 1.429 . S
C2048 C2031 1.574 . S
C2048 H2042 0.949 . S
C2048 C2052 1.368 . S
C2049 C2030 1.429 . S
C2049 C2043 1.429 . S
C2049 C2050 1.523 . S
C2050 C2031 1.368 . S
C2050 C2044 1.368 . S
C2050 C2049 1.523 . S
C2051 C2035 1.429 . S
C2051 C2047 1.429 . S
C2051 C2052 1.523 . S
C2052 C2036 1.368 . S
C2052 C2048 1.368 . S
C2052 C2051 1.523 . S
H2053 C2028 0.950 . S
H2054 C2030 0.950 . S
H2055 C2031 0.949 . S
H2056 C2033 0.950 . S
H2057 C2035 0.950 . S
C2058 C2059 1.349 . S
C2058 C2060 1.327 . S
C2058 H2083 0.950 . S
C2059 C2058 1.349 . S
C2059 C2075 1.349 . S
C2060 C2058 1.327 . S
C2060 C2079 1.429 . S
C2060 H2084 0.950 . S
C2061 C2078 1.574 . S
C2061 C2080 1.368 . S
C2061 H2085 0.949 . S
H2062 C2066 0.949 . S
C2063 C2064 1.349 . S
C2063 C2065 1.327 . S
C2063 H2086 0.950 . S
C2064 C2063 1.349 . S
C2064 C2076 1.349 . S
C2065 C2063 1.327 . S
C2065 C2081 1.429 . S
C2065 H2087 0.950 . S
C2066 H2062 0.949 . S
C2066 C2074 1.574 . S
C2066 C2082 1.368 . S
H2067 C2075 0.950 . S
H2068 C2073 0.950 . S
H2069 C2074 0.949 . S
H2070 C2076 0.950 . S
H2071 C2077 0.950 . S
H2072 C2078 0.949 . S
C2073 H2068 0.950 . S
C2073 C2075 1.327 . S
C2073 C2079 1.429 . S
C2074 C2066 1.574 . S
C2074 H2069 0.949 . S
C2074 C2080 1.368 . S
C2075 C2059 1.349 . S
C2075 H2067 0.950 . S
C2075 C2073 1.327 . S
C2076 C2064 1.349 . S
C2076 H2070 0.950 . S
C2076 C2077 1.327 . S
C2077 H2071 0.950 . S
C2077 C2076 1.327 . S
C2077 C2081 1.429 . S
C2078 C2061 1.574 . S
C2078 H2072 0.949 . S
C2078 C2082 1.368 . S
C2079 C2060 1.429 . S
C2079 C2073 1.429 . S
C2079 C2080 1.523 . S
C2080 C2061 1.368 . S
C2080 C2074 1.368 . S
C2080 C2079 1.523 . S
C2081 C2065 1.429 . S
C2081 C2077 1.429 . S
C2081 C2082 1.523 . S
C2082 C2066 1.368 . S
C2082 C2078 1.368 . S
C2082 C2081 1.523 . S
H2083 C2058 0.950 . S
H2084 C2060 0.950 . S
H2085 C2061 0.949 . S
H2086 C2063 0.950 . S
H2087 C2065 0.950 . S
C2088 C2089 1.349 . S
C2088 C2090 1.327 . S
C2088 H2113 0.950 . S
C2089 C2088 1.349 . S
C2089 C2105 1.349 . S
C2090 C2088 1.327 . S
C2090 C2109 1.429 . S
C2090 H2114 0.950 . S
C2091 C2108 1.574 . S
C2091 C2110 1.368 . S
C2091 H2115 0.949 . S
H2092 C2096 0.949 . S
C2093 C2094 1.349 . S
C2093 C2095 1.327 . S
C2093 H2116 0.950 . S
C2094 C2093 1.349 . S
C2094 C2106 1.349 . S
C2095 C2093 1.327 . S
C2095 C2111 1.429 . S
C2095 H2117 0.950 . S
C2096 H2092 0.949 . S
C2096 C2104 1.574 . S
C2096 C2112 1.368 . S
H2097 C2105 0.950 . S
H2098 C2103 0.950 . S
H2099 C2104 0.949 . S
H2100 C2106 0.950 . S
H2101 C2107 0.950 . S
H2102 C2108 0.949 . S
C2103 H2098 0.950 . S
C2103 C2105 1.327 . S
C2103 C2109 1.429 . S
C2104 C2096 1.574 . S
C2104 H2099 0.949 . S
C2104 C2110 1.368 . S
C2105 C2089 1.349 . S
C2105 H2097 0.950 . S
C2105 C2103 1.327 . S
C2106 C2094 1.349 . S
C2106 H2100 0.950 . S
C2106 C2107 1.327 . S
C2107 H2101 0.950 . S
C2107 C2106 1.327 . S
C2107 C2111 1.429 . S
C2108 C2091 1.574 . S
C2108 H2102 0.949 . S
C2108 C2112 1.368 . S
C2109 C2090 1.429 . S
C2109 C2103 1.429 . S
C2109 C2110 1.523 . S
C2110 C2091 1.368 . S
C2110 C2104 1.368 . S
C2110 C2109 1.523 . S
C2111 C2095 1.429 . S
C2111 C2107 1.429 . S
C2111 C2112 1.523 . S
C2112 C2096 1.368 . S
C2112 C2108 1.368 . S
C2112 C2111 1.523 . S
H2113 C2088 0.950 . S
H2114 C2090 0.950 . S
H2115 C2091 0.949 . S
H2116 C2093 0.950 . S
H2117 C2095 0.950 . S
C2118 C2119 1.349 . S
C2118 C2120 1.327 . S
C2118 H2143 0.950 . S
C2119 C2118 1.349 . S
C2119 C2135 1.349 . S
C2120 C2118 1.327 . S
C2120 C2139 1.429 . S
C2120 H2144 0.950 . S
C2121 C2138 1.574 . S
C2121 C2140 1.368 . S
C2121 H2145 0.949 . S
H2122 C2126 0.949 . S
C2123 C2124 1.349 . S
C2123 C2125 1.327 . S
C2123 H2146 0.950 . S
C2124 C2123 1.349 . S
C2124 C2136 1.349 . S
C2125 C2123 1.327 . S
C2125 C2141 1.429 . S
C2125 H2147 0.950 . S
C2126 H2122 0.949 . S
C2126 C2134 1.574 . S
C2126 C2142 1.368 . S
H2127 C2135 0.950 . S
H2128 C2133 0.950 . S
H2129 C2134 0.949 . S
H2130 C2136 0.950 . S
H2131 C2137 0.950 . S
H2132 C2138 0.949 . S
C2133 H2128 0.950 . S
C2133 C2135 1.327 . S
C2133 C2139 1.429 . S
C2134 C2126 1.574 . S
C2134 H2129 0.949 . S
C2134 C2140 1.368 . S
C2135 C2119 1.349 . S
C2135 H2127 0.950 . S
C2135 C2133 1.327 . S
C2136 C2124 1.349 . S
C2136 H2130 0.950 . S
C2136 C2137 1.327 . S
C2137 H2131 0.950 . S
C2137 C2136 1.327 . S
C2137 C2141 1.429 . S
C2138 C2121 1.574 . S
C2138 H2132 0.949 . S
C2138 C2142 1.368 . S
C2139 C2120 1.429 . S
C2139 C2133 1.429 . S
C2139 C2140 1.523 . S
C2140 C2121 1.368 . S
C2140 C2134 1.368 . S
C2140 C2139 1.523 . S
C2141 C2125 1.429 . S
C2141 C2137 1.429 . S
C2141 C2142 1.523 . S
C2142 C2126 1.368 . S
C2142 C2138 1.368 . S
C2142 C2141 1.523 . S
H2143 C2118 0.950 . S
H2144 C2120 0.950 . S
H2145 C2121 0.949 . S
H2146 C2123 0.950 . S
H2147 C2125 0.950 . S
C2148 C2149 1.349 . S
C2148 C2150 1.327 . S
C2148 H2173 0.950 . S
C2149 C2148 1.349 . S
C2149 C2165 1.349 . S
C2150 C2148 1.327 . S
C2150 C2169 1.429 . S
C2150 H2174 0.950 . S
C2151 C2168 1.574 . S
C2151 C2170 1.368 . S
C2151 H2175 0.949 . S
H2152 C2156 0.949 . S
C2153 C2154 1.349 . S
C2153 C2155 1.327 . S
C2153 H2176 0.950 . S
C2154 C2153 1.349 . S
C2154 C2166 1.349 . S
C2155 C2153 1.327 . S
C2155 C2171 1.429 . S
C2155 H2177 0.950 . S
C2156 H2152 0.949 . S
C2156 C2164 1.574 . S
C2156 C2172 1.368 . S
H2157 C2165 0.950 . S
H2158 C2163 0.950 . S
H2159 C2164 0.949 . S
H2160 C2166 0.950 . S
H2161 C2167 0.950 . S
H2162 C2168 0.949 . S
C2163 H2158 0.950 . S
C2163 C2165 1.327 . S
C2163 C2169 1.429 . S
C2164 C2156 1.574 . S
C2164 H2159 0.949 . S
C2164 C2170 1.368 . S
C2165 C2149 1.349 . S
C2165 H2157 0.950 . S
C2165 C2163 1.327 . S
C2166 C2154 1.349 . S
C2166 H2160 0.950 . S
C2166 C2167 1.327 . S
C2167 H2161 0.950 . S
C2167 C2166 1.327 . S
C2167 C2171 1.429 . S
C2168 C2151 1.574 . S
C2168 H2162 0.949 . S
C2168 C2172 1.368 . S
C2169 C2150 1.429 . S
C2169 C2163 1.429 . S
C2169 C2170 1.523 . S
C2170 C2151 1.368 . S
C2170 C2164 1.368 . S
C2170 C2169 1.523 . S
C2171 C2155 1.429 . S
C2171 C2167 1.429 . S
C2171 C2172 1.523 . S
C2172 C2156 1.368 . S
C2172 C2168 1.368 . S
C2172 C2171 1.523 . S
H2173 C2148 0.950 . S
H2174 C2150 0.950 . S
H2175 C2151 0.949 . S
H2176 C2153 0.950 . S
H2177 C2155 0.950 . S
C2178 C2179 1.349 . S
C2178 C2180 1.327 . S
C2178 H2203 0.950 . S
C2179 C2178 1.349 . S
C2179 C2195 1.349 . S
C2180 C2178 1.327 . S
C2180 C2199 1.429 . S
C2180 H2204 0.950 . S
C2181 C2198 1.574 . S
C2181 C2200 1.368 . S
C2181 H2205 0.949 . S
H2182 C2186 0.949 . S
C2183 C2184 1.349 . S
C2183 C2185 1.327 . S
C2183 H2206 0.950 . S
C2184 C2183 1.349 . S
C2184 C2196 1.349 . S
C2185 C2183 1.327 . S
C2185 C2201 1.429 . S
C2185 H2207 0.950 . S
C2186 H2182 0.949 . S
C2186 C2194 1.574 . S
C2186 C2202 1.368 . S
H2187 C2195 0.950 . S
H2188 C2193 0.950 . S
H2189 C2194 0.949 . S
H2190 C2196 0.950 . S
H2191 C2197 0.950 . S
H2192 C2198 0.949 . S
C2193 H2188 0.950 . S
C2193 C2195 1.327 . S
C2193 C2199 1.429 . S
C2194 C2186 1.574 . S
C2194 H2189 0.949 . S
C2194 C2200 1.368 . S
C2195 C2179 1.349 . S
C2195 H2187 0.950 . S
C2195 C2193 1.327 . S
C2196 C2184 1.349 . S
C2196 H2190 0.950 . S
C2196 C2197 1.327 . S
C2197 H2191 0.950 . S
C2197 C2196 1.327 . S
C2197 C2201 1.429 . S
C2198 C2181 1.574 . S
C2198 H2192 0.949 . S
C2198 C2202 1.368 . S
C2199 C2180 1.429 . S
C2199 C2193 1.429 . S
C2199 C2200 1.523 . S
C2200 C2181 1.368 . S
C2200 C2194 1.368 . S
C2200 C2199 1.523 . S
C2201 C2185 1.429 . S
C2201 C2197 1.429 . S
C2201 C2202 1.523 . S
C2202 C2186 1.368 . S
C2202 C2198 1.368 . S
C2202 C2201 1.523 . S
H2203 C2178 0.950 . S
H2204 C2180 0.950 . S
H2205 C2181 0.949 . S
H2206 C2183 0.950 . S
H2207 C2185 0.950 . S
C2208 C2209 1.349 . S
C2208 C2210 1.327 . S
C2208 H2233 0.950 . S
C2209 C2208 1.349 . S
C2209 C2225 1.349 . S
C2210 C2208 1.327 . S
C2210 C2229 1.429 . S
C2210 H2234 0.950 . S
C2211 C2228 1.574 . S
C2211 C2230 1.368 . S
C2211 H2235 0.949 . S
H2212 C2216 0.949 . S
C2213 C2214 1.349 . S
C2213 C2215 1.327 . S
C2213 H2236 0.950 . S
C2214 C2213 1.349 . S
C2214 C2226 1.349 . S
C2215 C2213 1.327 . S
C2215 C2231 1.429 . S
C2215 H2237 0.950 . S
C2216 H2212 0.949 . S
C2216 C2224 1.574 . S
C2216 C2232 1.368 . S
H2217 C2225 0.950 . S
H2218 C2223 0.950 . S
H2219 C2224 0.949 . S
H2220 C2226 0.950 . S
H2221 C2227 0.950 . S
H2222 C2228 0.949 . S
C2223 H2218 0.950 . S
C2223 C2225 1.327 . S
C2223 C2229 1.429 . S
C2224 C2216 1.574 . S
C2224 H2219 0.949 . S
C2224 C2230 1.368 . S
C2225 C2209 1.349 . S
C2225 H2217 0.950 . S
C2225 C2223 1.327 . S
C2226 C2214 1.349 . S
C2226 H2220 0.950 . S
C2226 C2227 1.327 . S
C2227 H2221 0.950 . S
C2227 C2226 1.327 . S
C2227 C2231 1.429 . S
C2228 C2211 1.574 . S
C2228 H2222 0.949 . S
C2228 C2232 1.368 . S
C2229 C2210 1.429 . S
C2229 C2223 1.429 . S
C2229 C2230 1.523 . S
C2230 C2211 1.368 . S
C2230 C2224 1.368 . S
C2230 C2229 1.523 . S
C2231 C2215 1.429 . S
C2231 C2227 1.429 . S
C2231 C2232 1.523 . S
C2232 C2216 1.368 . S
C2232 C2228 1.368 . S
C2232 C2231 1.523 . S
H2233 C2208 0.950 . S
H2234 C2210 0.950 . S
H2235 C2211 0.949 . S
H2236 C2213 0.950 . S
H2237 C2215 0.950 . S
C2238 C2239 1.349 . S
C2238 C2240 1.327 . S
C2238 H2263 0.950 . S
C2239 C2238 1.349 . S
C2239 C2255 1.349 . S
C2240 C2238 1.327 . S
C2240 C2259 1.429 . S
C2240 H2264 0.950 . S
C2241 C2258 1.574 . S
C2241 C2260 1.368 . S
C2241 H2265 0.949 . S
H2242 C2246 0.949 . S
C2243 C2244 1.349 . S
C2243 C2245 1.327 . S
C2243 H2266 0.950 . S
C2244 C2243 1.349 . S
C2244 C2256 1.349 . S
C2245 C2243 1.327 . S
C2245 C2261 1.429 . S
C2245 H2267 0.950 . S
C2246 H2242 0.949 . S
C2246 C2254 1.574 . S
C2246 C2262 1.368 . S
H2247 C2255 0.950 . S
H2248 C2253 0.950 . S
H2249 C2254 0.949 . S
H2250 C2256 0.950 . S
H2251 C2257 0.950 . S
H2252 C2258 0.949 . S
C2253 H2248 0.950 . S
C2253 C2255 1.327 . S
C2253 C2259 1.429 . S
C2254 C2246 1.574 . S
C2254 H2249 0.949 . S
C2254 C2260 1.368 . S
C2255 C2239 1.349 . S
C2255 H2247 0.950 . S
C2255 C2253 1.327 . S
C2256 C2244 1.349 . S
C2256 H2250 0.950 . S
C2256 C2257 1.327 . S
C2257 H2251 0.950 . S
C2257 C2256 1.327 . S
C2257 C2261 1.429 . S
C2258 C2241 1.574 . S
C2258 H2252 0.949 . S
C2258 C2262 1.368 . S
C2259 C2240 1.429 . S
C2259 C2253 1.429 . S
C2259 C2260 1.523 . S
C2260 C2241 1.368 . S
C2260 C2254 1.368 . S
C2260 C2259 1.523 . S
C2261 C2245 1.429 . S
C2261 C2257 1.429 . S
C2261 C2262 1.523 . S
C2262 C2246 1.368 . S
C2262 C2258 1.368 . S
C2262 C2261 1.523 . S
H2263 C2238 0.950 . S
H2264 C2240 0.950 . S
H2265 C2241 0.949 . S
H2266 C2243 0.950 . S
H2267 C2245 0.950 . S
C2268 C2269 1.349 . S
C2268 C2270 1.327 . S
C2268 H2293 0.950 . S
C2269 C2268 1.349 . S
C2269 C2285 1.349 . S
C2270 C2268 1.327 . S
C2270 C2289 1.429 . S
C2270 H2294 0.950 . S
C2271 C2288 1.574 . S
C2271 C2290 1.368 . S
C2271 H2295 0.949 . S
H2272 C2276 0.949 . S
C2273 C2274 1.349 . S
C2273 C2275 1.327 . S
C2273 H2296 0.950 . S
C2274 C2273 1.349 . S
C2274 C2286 1.349 . S
C2275 C2273 1.327 . S
C2275 C2291 1.429 . S
C2275 H2297 0.950 . S
C2276 H2272 0.949 . S
C2276 C2284 1.574 . S
C2276 C2292 1.368 . S
H2277 C2285 0.950 . S
H2278 C2283 0.950 . S
H2279 C2284 0.949 . S
H2280 C2286 0.950 . S
H2281 C2287 0.950 . S
H2282 C2288 0.949 . S
C2283 H2278 0.950 . S
C2283 C2285 1.327 . S
C2283 C2289 1.429 . S
C2284 C2276 1.574 . S
C2284 H2279 0.949 . S
C2284 C2290 1.368 . S
C2285 C2269 1.349 . S
C2285 H2277 0.950 . S
C2285 C2283 1.327 . S
C2286 C2274 1.349 . S
C2286 H2280 0.950 . S
C2286 C2287 1.327 . S
C2287 H2281 0.950 . S
C2287 C2286 1.327 . S
C2287 C2291 1.429 . S
C2288 C2271 1.574 . S
C2288 H2282 0.949 . S
C2288 C2292 1.368 . S
C2289 C2270 1.429 . S
C2289 C2283 1.429 . S
C2289 C2290 1.523 . S
C2290 C2271 1.368 . S
C2290 C2284 1.368 . S
C2290 C2289 1.523 . S
C2291 C2275 1.429 . S
C2291 C2287 1.429 . S
C2291 C2292 1.523 . S
C2292 C2276 1.368 . S
C2292 C2288 1.368 . S
C2292 C2291 1.523 . S
H2293 C2268 0.950 . S
H2294 C2270 0.950 . S
H2295 C2271 0.949 . S
H2296 C2273 0.950 . S
H2297 C2275 0.950 . S
C2298 C2299 1.349 . S
C2298 C2300 1.327 . S
C2298 H2323 0.950 . S
C2299 C2298 1.349 . S
C2299 C2315 1.349 . S
C2300 C2298 1.327 . S
C2300 C2319 1.429 . S
C2300 H2324 0.950 . S
C2301 C2318 1.574 . S
C2301 C2320 1.368 . S
C2301 H2325 0.949 . S
H2302 C2306 0.949 . S
C2303 C2304 1.349 . S
C2303 C2305 1.327 . S
C2303 H2326 0.950 . S
C2304 C2303 1.349 . S
C2304 C2316 1.349 . S
C2305 C2303 1.327 . S
C2305 C2321 1.429 . S
C2305 H2327 0.950 . S
C2306 H2302 0.949 . S
C2306 C2314 1.574 . S
C2306 C2322 1.368 . S
H2307 C2315 0.950 . S
H2308 C2313 0.950 . S
H2309 C2314 0.949 . S
H2310 C2316 0.950 . S
H2311 C2317 0.950 . S
H2312 C2318 0.949 . S
C2313 H2308 0.950 . S
C2313 C2315 1.327 . S
C2313 C2319 1.429 . S
C2314 C2306 1.574 . S
C2314 H2309 0.949 . S
C2314 C2320 1.368 . S
C2315 C2299 1.349 . S
C2315 H2307 0.950 . S
C2315 C2313 1.327 . S
C2316 C2304 1.349 . S
C2316 H2310 0.950 . S
C2316 C2317 1.327 . S
C2317 H2311 0.950 . S
C2317 C2316 1.327 . S
C2317 C2321 1.429 . S
C2318 C2301 1.574 . S
C2318 H2312 0.949 . S
C2318 C2322 1.368 . S
C2319 C2300 1.429 . S
C2319 C2313 1.429 . S
C2319 C2320 1.523 . S
C2320 C2301 1.368 . S
C2320 C2314 1.368 . S
C2320 C2319 1.523 . S
C2321 C2305 1.429 . S
C2321 C2317 1.429 . S
C2321 C2322 1.523 . S
C2322 C2306 1.368 . S
C2322 C2318 1.368 . S
C2322 C2321 1.523 . S
H2323 C2298 0.950 . S
H2324 C2300 0.950 . S
H2325 C2301 0.949 . S
H2326 C2303 0.950 . S
H2327 C2305 0.950 . S
C2328 C2329 1.349 . S
C2328 C2330 1.327 . S
C2328 H2353 0.950 . S
C2329 C2328 1.349 . S
C2329 C2345 1.349 . S
C2330 C2328 1.327 . S
C2330 C2349 1.429 . S
C2330 H2354 0.950 . S
C2331 C2348 1.574 . S
C2331 C2350 1.368 . S
C2331 H2355 0.949 . S
H2332 C2336 0.949 . S
C2333 C2334 1.349 . S
C2333 C2335 1.327 . S
C2333 H2356 0.950 . S
C2334 C2333 1.349 . S
C2334 C2346 1.349 . S
C2335 C2333 1.327 . S
C2335 C2351 1.429 . S
C2335 H2357 0.950 . S
C2336 H2332 0.949 . S
C2336 C2344 1.574 . S
C2336 C2352 1.368 . S
H2337 C2345 0.950 . S
H2338 C2343 0.950 . S
H2339 C2344 0.949 . S
H2340 C2346 0.950 . S
H2341 C2347 0.950 . S
H2342 C2348 0.949 . S
C2343 H2338 0.950 . S
C2343 C2345 1.327 . S
C2343 C2349 1.429 . S
C2344 C2336 1.574 . S
C2344 H2339 0.949 . S
C2344 C2350 1.368 . S
C2345 C2329 1.349 . S
C2345 H2337 0.950 . S
C2345 C2343 1.327 . S
C2346 C2334 1.349 . S
C2346 H2340 0.950 . S
C2346 C2347 1.327 . S
C2347 H2341 0.950 . S
C2347 C2346 1.327 . S
C2347 C2351 1.429 . S
C2348 C2331 1.574 . S
C2348 H2342 0.949 . S
C2348 C2352 1.368 . S
C2349 C2330 1.429 . S
C2349 C2343 1.429 . S
C2349 C2350 1.523 . S
C2350 C2331 1.368 . S
C2350 C2344 1.368 . S
C2350 C2349 1.523 . S
C2351 C2335 1.429 . S
C2351 C2347 1.429 . S
C2351 C2352 1.523 . S
C2352 C2336 1.368 . S
C2352 C2348 1.368 . S
C2352 C2351 1.523 . S
H2353 C2328 0.950 . S
H2354 C2330 0.950 . S
H2355 C2331 0.949 . S
H2356 C2333 0.950 . S
H2357 C2335 0.950 . S
C2358 C2359 1.349 . S
C2358 C2360 1.327 . S
C2358 H2383 0.950 . S
C2359 C2358 1.349 . S
C2359 C2375 1.349 . S
C2360 C2358 1.327 . S
C2360 C2379 1.429 . S
C2360 H2384 0.950 . S
C2361 C2378 1.574 . S
C2361 C2380 1.368 . S
C2361 H2385 0.949 . S
H2362 C2366 0.949 . S
C2363 C2364 1.349 . S
C2363 C2365 1.327 . S
C2363 H2386 0.950 . S
C2364 C2363 1.349 . S
C2364 C2376 1.349 . S
C2365 C2363 1.327 . S
C2365 C2381 1.429 . S
C2365 H2387 0.950 . S
C2366 H2362 0.949 . S
C2366 C2374 1.574 . S
C2366 C2382 1.368 . S
H2367 C2375 0.950 . S
H2368 C2373 0.950 . S
H2369 C2374 0.949 . S
H2370 C2376 0.950 . S
H2371 C2377 0.950 . S
H2372 C2378 0.949 . S
C2373 H2368 0.950 . S
C2373 C2375 1.327 . S
C2373 C2379 1.429 . S
C2374 C2366 1.574 . S
C2374 H2369 0.949 . S
C2374 C2380 1.368 . S
C2375 C2359 1.349 . S
C2375 H2367 0.950 . S
C2375 C2373 1.327 . S
C2376 C2364 1.349 . S
C2376 H2370 0.950 . S
C2376 C2377 1.327 . S
C2377 H2371 0.950 . S
C2377 C2376 1.327 . S
C2377 C2381 1.429 . S
C2378 C2361 1.574 . S
C2378 H2372 0.949 . S
C2378 C2382 1.368 . S
C2379 C2360 1.429 . S
C2379 C2373 1.429 . S
C2379 C2380 1.523 . S
C2380 C2361 1.368 . S
C2380 C2374 1.368 . S
C2380 C2379 1.523 . S
C2381 C2365 1.429 . S
C2381 C2377 1.429 . S
C2381 C2382 1.523 . S
C2382 C2366 1.368 . S
C2382 C2378 1.368 . S
C2382 C2381 1.523 . S
H2383 C2358 0.950 . S
H2384 C2360 0.950 . S
H2385 C2361 0.949 . S
H2386 C2363 0.950 . S
H2387 C2365 0.950 . S
C2388 C2389 1.349 . S
C2388 C2390 1.327 . S
C2388 H2413 0.950 . S
C2389 C2388 1.349 . S
C2389 C2405 1.349 . S
C2390 C2388 1.327 . S
C2390 C2409 1.429 . S
C2390 H2414 0.950 . S
C2391 C2408 1.574 . S
C2391 C2410 1.368 . S
C2391 H2415 0.949 . S
H2392 C2396 0.949 . S
C2393 C2394 1.349 . S
C2393 C2395 1.327 . S
C2393 H2416 0.950 . S
C2394 C2393 1.349 . S
C2394 C2406 1.349 . S
C2395 C2393 1.327 . S
C2395 C2411 1.429 . S
C2395 H2417 0.950 . S
C2396 H2392 0.949 . S
C2396 C2404 1.574 . S
C2396 C2412 1.368 . S
H2397 C2405 0.950 . S
H2398 C2403 0.950 . S
H2399 C2404 0.949 . S
H2400 C2406 0.950 . S
H2401 C2407 0.950 . S
H2402 C2408 0.949 . S
C2403 H2398 0.950 . S
C2403 C2405 1.327 . S
C2403 C2409 1.429 . S
C2404 C2396 1.574 . S
C2404 H2399 0.949 . S
C2404 C2410 1.368 . S
C2405 C2389 1.349 . S
C2405 H2397 0.950 . S
C2405 C2403 1.327 . S
C2406 C2394 1.349 . S
C2406 H2400 0.950 . S
C2406 C2407 1.327 . S
C2407 H2401 0.950 . S
C2407 C2406 1.327 . S
C2407 C2411 1.429 . S
C2408 C2391 1.574 . S
C2408 H2402 0.949 . S
C2408 C2412 1.368 . S
C2409 C2390 1.429 . S
C2409 C2403 1.429 . S
C2409 C2410 1.523 . S
C2410 C2391 1.368 . S
C2410 C2404 1.368 . S
C2410 C2409 1.523 . S
C2411 C2395 1.429 . S
C2411 C2407 1.429 . S
C2411 C2412 1.523 . S
C2412 C2396 1.368 . S
C2412 C2408 1.368 . S
C2412 C2411 1.523 . S
H2413 C2388 0.950 . S
H2414 C2390 0.950 . S
H2415 C2391 0.949 . S
H2416 C2393 0.950 . S
H2417 C2395 0.950 . S
C2418 C2419 1.349 . S
C2418 C2420 1.327 . S
C2418 H2443 0.950 . S
C2419 C2418 1.349 . S
C2419 C2435 1.349 . S
C2420 C2418 1.327 . S
C2420 C2439 1.429 . S
C2420 H2444 0.950 . S
C2421 C2438 1.574 . S
C2421 C2440 1.368 . S
C2421 H2445 0.949 . S
H2422 C2426 0.949 . S
C2423 C2424 1.349 . S
C2423 C2425 1.327 . S
C2423 H2446 0.950 . S
C2424 C2423 1.349 . S
C2424 C2436 1.349 . S
C2425 C2423 1.327 . S
C2425 C2441 1.429 . S
C2425 H2447 0.950 . S
C2426 H2422 0.949 . S
C2426 C2434 1.574 . S
C2426 C2442 1.368 . S
H2427 C2435 0.950 . S
H2428 C2433 0.950 . S
H2429 C2434 0.949 . S
H2430 C2436 0.950 . S
H2431 C2437 0.950 . S
H2432 C2438 0.949 . S
C2433 H2428 0.950 . S
C2433 C2435 1.327 . S
C2433 C2439 1.429 . S
C2434 C2426 1.574 . S
C2434 H2429 0.949 . S
C2434 C2440 1.368 . S
C2435 C2419 1.349 . S
C2435 H2427 0.950 . S
C2435 C2433 1.327 . S
C2436 C2424 1.349 . S
C2436 H2430 0.950 . S
C2436 C2437 1.327 . S
C2437 H2431 0.950 . S
C2437 C2436 1.327 . S
C2437 C2441 1.429 . S
C2438 C2421 1.574 . S
C2438 H2432 0.949 . S
C2438 C2442 1.368 . S
C2439 C2420 1.429 . S
C2439 C2433 1.429 . S
C2439 C2440 1.523 . S
C2440 C2421 1.368 . S
C2440 C2434 1.368 . S
C2440 C2439 1.523 . S
C2441 C2425 1.429 . S
C2441 C2437 1.429 . S
C2441 C2442 1.523 . S
C2442 C2426 1.368 . S
C2442 C2438 1.368 . S
C2442 C2441 1.523 . S
H2443 C2418 0.950 . S
H2444 C2420 0.950 . S
H2445 C2421 0.949 . S
H2446 C2423 0.950 . S
H2447 C2425 0.950 . S
C2448 C2449 1.349 . S
C2448 C2450 1.327 . S
C2448 H2473 0.950 . S
C2449 C2448 1.349 . S
C2449 C2465 1.349 . S
C2450 C2448 1.327 . S
C2450 C2469 1.429 . S
C2450 H2474 0.950 . S
C2451 C2468 1.574 . S
C2451 C2470 1.368 . S
C2451 H2475 0.949 . S
H2452 C2456 0.949 . S
C2453 C2454 1.349 . S
C2453 C2455 1.327 . S
C2453 H2476 0.950 . S
C2454 C2453 1.349 . S
C2454 C2466 1.349 . S
C2455 C2453 1.327 . S
C2455 C2471 1.429 . S
C2455 H2477 0.950 . S
C2456 H2452 0.949 . S
C2456 C2464 1.574 . S
C2456 C2472 1.368 . S
H2457 C2465 0.950 . S
H2458 C2463 0.950 . S
H2459 C2464 0.949 . S
H2460 C2466 0.950 . S
H2461 C2467 0.950 . S
H2462 C2468 0.949 . S
C2463 H2458 0.950 . S
C2463 C2465 1.327 . S
C2463 C2469 1.429 . S
C2464 C2456 1.574 . S
C2464 H2459 0.949 . S
C2464 C2470 1.368 . S
C2465 C2449 1.349 . S
C2465 H2457 0.950 . S
C2465 C2463 1.327 . S
C2466 C2454 1.349 . S
C2466 H2460 0.950 . S
C2466 C2467 1.327 . S
C2467 H2461 0.950 . S
C2467 C2466 1.327 . S
C2467 C2471 1.429 . S
C2468 C2451 1.574 . S
C2468 H2462 0.949 . S
C2468 C2472 1.368 . S
C2469 C2450 1.429 . S
C2469 C2463 1.429 . S
C2469 C2470 1.523 . S
C2470 C2451 1.368 . S
C2470 C2464 1.368 . S
C2470 C2469 1.523 . S
C2471 C2455 1.429 . S
C2471 C2467 1.429 . S
C2471 C2472 1.523 . S
C2472 C2456 1.368 . S
C2472 C2468 1.368 . S
C2472 C2471 1.523 . S
H2473 C2448 0.950 . S
H2474 C2450 0.950 . S
H2475 C2451 0.949 . S
H2476 C2453 0.950 . S
H2477 C2455 0.950 . S
C2478 C2479 1.349 . S
C2478 C2480 1.327 . S
C2478 H2503 0.950 . S
C2479 C2478 1.349 . S
C2479 C2495 1.349 . S
C2480 C2478 1.327 . S
C2480 C2499 1.429 . S
C2480 H2504 0.950 . S
C2481 C2498 1.574 . S
C2481 C2500 1.368 . S
C2481 H2505 0.949 . S
H2482 C2486 0.949 . S
C2483 C2484 1.349 . S
C2483 C2485 1.327 . S
C2483 H2506 0.950 . S
C2484 C2483 1.349 . S
C2484 C2496 1.349 . S
C2485 C2483 1.327 . S
C2485 C2501 1.429 . S
C2485 H2507 0.950 . S
C2486 H2482 0.949 . S
C2486 C2494 1.574 . S
C2486 C2502 1.368 . S
H2487 C2495 0.950 . S
H2488 C2493 0.950 . S
H2489 C2494 0.949 . S
H2490 C2496 0.950 . S
H2491 C2497 0.950 . S
H2492 C2498 0.949 . S
C2493 H2488 0.950 . S
C2493 C2495 1.327 . S
C2493 C2499 1.429 . S
C2494 C2486 1.574 . S
C2494 H2489 0.949 . S
C2494 C2500 1.368 . S
C2495 C2479 1.349 . S
C2495 H2487 0.950 . S
C2495 C2493 1.327 . S
C2496 C2484 1.349 . S
C2496 H2490 0.950 . S
C2496 C2497 1.327 . S
C2497 H2491 0.950 . S
C2497 C2496 1.327 . S
C2497 C2501 1.429 . S
C2498 C2481 1.574 . S
C2498 H2492 0.949 . S
C2498 C2502 1.368 . S
C2499 C2480 1.429 . S
C2499 C2493 1.429 . S
C2499 C2500 1.523 . S
C2500 C2481 1.368 . S
C2500 C2494 1.368 . S
C2500 C2499 1.523 . S
C2501 C2485 1.429 . S
C2501 C2497 1.429 . S
C2501 C2502 1.523 . S
C2502 C2486 1.368 . S
C2502 C2498 1.368 . S
C2502 C2501 1.523 . S
H2503 C2478 0.950 . S
H2504 C2480 0.950 . S
H2505 C2481 0.949 . S
H2506 C2483 0.950 . S
H2507 C2485 0.950 . S
C2508 C2509 1.349 . S
C2508 C2510 1.327 . S
C2508 H2533 0.950 . S
C2509 C2508 1.349 . S
C2509 C2525 1.349 . S
C2510 C2508 1.327 . S
C2510 C2529 1.429 . S
C2510 H2534 0.950 . S
C2511 C2528 1.574 . S
C2511 C2530 1.368 . S
C2511 H2535 0.949 . S
H2512 C2516 0.949 . S
C2513 C2514 1.349 . S
C2513 C2515 1.327 . S
C2513 H2536 0.950 . S
C2514 C2513 1.349 . S
C2514 C2526 1.349 . S
C2515 C2513 1.327 . S
C2515 C2531 1.429 . S
C2515 H2537 0.950 . S
C2516 H2512 0.949 . S
C2516 C2524 1.574 . S
C2516 C2532 1.368 . S
H2517 C2525 0.950 . S
H2518 C2523 0.950 . S
H2519 C2524 0.949 . S
H2520 C2526 0.950 . S
H2521 C2527 0.950 . S
H2522 C2528 0.949 . S
C2523 H2518 0.950 . S
C2523 C2525 1.327 . S
C2523 C2529 1.429 . S
C2524 C2516 1.574 . S
C2524 H2519 0.949 . S
C2524 C2530 1.368 . S
C2525 C2509 1.349 . S
C2525 H2517 0.950 . S
C2525 C2523 1.327 . S
C2526 C2514 1.349 . S
C2526 H2520 0.950 . S
C2526 C2527 1.327 . S
C2527 H2521 0.950 . S
C2527 C2526 1.327 . S
C2527 C2531 1.429 . S
C2528 C2511 1.574 . S
C2528 H2522 0.949 . S
C2528 C2532 1.368 . S
C2529 C2510 1.429 . S
C2529 C2523 1.429 . S
C2529 C2530 1.523 . S
C2530 C2511 1.368 . S
C2530 C2524 1.368 . S
C2530 C2529 1.523 . S
C2531 C2515 1.429 . S
C2531 C2527 1.429 . S
C2531 C2532 1.523 . S
C2532 C2516 1.368 . S
C2532 C2528 1.368 . S
C2532 C2531 1.523 . S
H2533 C2508 0.950 . S
H2534 C2510 0.950 . S
H2535 C2511 0.949 . S
H2536 C2513 0.950 . S
H2537 C2515 0.950 . S
C2538 C2539 1.349 . S
C2538 C2540 1.327 . S
C2538 H2563 0.950 . S
C2539 C2538 1.349 . S
C2539 C2555 1.349 . S
C2540 C2538 1.327 . S
C2540 C2559 1.429 . S
C2540 H2564 0.950 . S
C2541 C2558 1.574 . S
C2541 C2560 1.368 . S
C2541 H2565 0.949 . S
H2542 C2546 0.949 . S
C2543 C2544 1.349 . S
C2543 C2545 1.327 . S
C2543 H2566 0.950 . S
C2544 C2543 1.349 . S
C2544 C2556 1.349 . S
C2545 C2543 1.327 . S
C2545 C2561 1.429 . S
C2545 H2567 0.950 . S
C2546 H2542 0.949 . S
C2546 C2554 1.574 . S
C2546 C2562 1.368 . S
H2547 C2555 0.950 . S
H2548 C2553 0.950 . S
H2549 C2554 0.949 . S
H2550 C2556 0.950 . S
H2551 C2557 0.950 . S
H2552 C2558 0.949 . S
C2553 H2548 0.950 . S
C2553 C2555 1.327 . S
C2553 C2559 1.429 . S
C2554 C2546 1.574 . S
C2554 H2549 0.949 . S
C2554 C2560 1.368 . S
C2555 C2539 1.349 . S
C2555 H2547 0.950 . S
C2555 C2553 1.327 . S
C2556 C2544 1.349 . S
C2556 H2550 0.950 . S
C2556 C2557 1.327 . S
C2557 H2551 0.950 . S
C2557 C2556 1.327 . S
C2557 C2561 1.429 . S
C2558 C2541 1.574 . S
C2558 H2552 0.949 . S
C2558 C2562 1.368 . S
C2559 C2540 1.429 . S
C2559 C2553 1.429 . S
C2559 C2560 1.523 . S
C2560 C2541 1.368 . S
C2560 C2554 1.368 . S
C2560 C2559 1.523 . S
C2561 C2545 1.429 . S
C2561 C2557 1.429 . S
C2561 C2562 1.523 . S
C2562 C2546 1.368 . S
C2562 C2558 1.368 . S
C2562 C2561 1.523 . S
H2563 C2538 0.950 . S
H2564 C2540 0.950 . S
H2565 C2541 0.949 . S
H2566 C2543 0.950 . S
H2567 C2545 0.950 . S
C2568 C2569 1.349 . S
C2568 C2570 1.327 . S
C2568 H2593 0.950 . S
C2569 C2568 1.349 . S
C2569 C2585 1.349 . S
C2570 C2568 1.327 . S
C2570 C2589 1.429 . S
C2570 H2594 0.950 . S
C2571 C2588 1.574 . S
C2571 C2590 1.368 . S
C2571 H2595 0.949 . S
H2572 C2576 0.949 . S
C2573 C2574 1.349 . S
C2573 C2575 1.327 . S
C2573 H2596 0.950 . S
C2574 C2573 1.349 . S
C2574 C2586 1.349 . S
C2575 C2573 1.327 . S
C2575 C2591 1.429 . S
C2575 H2597 0.950 . S
C2576 H2572 0.949 . S
C2576 C2584 1.574 . S
C2576 C2592 1.368 . S
H2577 C2585 0.950 . S
H2578 C2583 0.950 . S
H2579 C2584 0.949 . S
H2580 C2586 0.950 . S
H2581 C2587 0.950 . S
H2582 C2588 0.949 . S
C2583 H2578 0.950 . S
C2583 C2585 1.327 . S
C2583 C2589 1.429 . S
C2584 C2576 1.574 . S
C2584 H2579 0.949 . S
C2584 C2590 1.368 . S
C2585 C2569 1.349 . S
C2585 H2577 0.950 . S
C2585 C2583 1.327 . S
C2586 C2574 1.349 . S
C2586 H2580 0.950 . S
C2586 C2587 1.327 . S
C2587 H2581 0.950 . S
C2587 C2586 1.327 . S
C2587 C2591 1.429 . S
C2588 C2571 1.574 . S
C2588 H2582 0.949 . S
C2588 C2592 1.368 . S
C2589 C2570 1.429 . S
C2589 C2583 1.429 . S
C2589 C2590 1.523 . S
C2590 C2571 1.368 . S
C2590 C2584 1.368 . S
C2590 C2589 1.523 . S
C2591 C2575 1.429 . S
C2591 C2587 1.429 . S
C2591 C2592 1.523 . S
C2592 C2576 1.368 . S
C2592 C2588 1.368 . S
C2592 C2591 1.523 . S
H2593 C2568 0.950 . S
H2594 C2570 0.950 . S
H2595 C2571 0.949 . S
H2596 C2573 0.950 . S
H2597 C2575 0.950 . S
C2598 C2599 1.349 . S
C2598 C2600 1.327 . S
C2598 H2623 0.950 . S
C2599 C2598 1.349 . S
C2599 C2615 1.349 . S
C2600 C2598 1.327 . S
C2600 C2619 1.429 . S
C2600 H2624 0.950 . S
C2601 C2618 1.574 . S
C2601 C2620 1.368 . S
C2601 H2625 0.949 . S
H2602 C2606 0.949 . S
C2603 C2604 1.349 . S
C2603 C2605 1.327 . S
C2603 H2626 0.950 . S
C2604 C2603 1.349 . S
C2604 C2616 1.349 . S
C2605 C2603 1.327 . S
C2605 C2621 1.429 . S
C2605 H2627 0.950 . S
C2606 H2602 0.949 . S
C2606 C2614 1.574 . S
C2606 C2622 1.368 . S
H2607 C2615 0.950 . S
H2608 C2613 0.950 . S
H2609 C2614 0.949 . S
H2610 C2616 0.950 . S
H2611 C2617 0.950 . S
H2612 C2618 0.949 . S
C2613 H2608 0.950 . S
C2613 C2615 1.327 . S
C2613 C2619 1.429 . S
C2614 C2606 1.574 . S
C2614 H2609 0.949 . S
C2614 C2620 1.368 . S
C2615 C2599 1.349 . S
C2615 H2607 0.950 . S
C2615 C2613 1.327 . S
C2616 C2604 1.349 . S
C2616 H2610 0.950 . S
C2616 C2617 1.327 . S
C2617 H2611 0.950 . S
C2617 C2616 1.327 . S
C2617 C2621 1.429 . S
C2618 C2601 1.574 . S
C2618 H2612 0.949 . S
C2618 C2622 1.368 . S
C2619 C2600 1.429 . S
C2619 C2613 1.429 . S
C2619 C2620 1.523 . S
C2620 C2601 1.368 . S
C2620 C2614 1.368 . S
C2620 C2619 1.523 . S
C2621 C2605 1.429 . S
C2621 C2617 1.429 . S
C2621 C2622 1.523 . S
C2622 C2606 1.368 . S
C2622 C2618 1.368 . S
C2622 C2621 1.523 . S
H2623 C2598 0.950 . S
H2624 C2600 0.950 . S
H2625 C2601 0.949 . S
H2626 C2603 0.950 . S
H2627 C2605 0.950 . S
C2628 C2629 1.349 . S
C2628 C2630 1.327 . S
C2628 H2653 0.950 . S
C2629 C2628 1.349 . S
C2629 C2645 1.349 . S
C2630 C2628 1.327 . S
C2630 C2649 1.429 . S
C2630 H2654 0.950 . S
C2631 C2648 1.574 . S
C2631 C2650 1.368 . S
C2631 H2655 0.949 . S
H2632 C2636 0.949 . S
C2633 C2634 1.349 . S
C2633 C2635 1.327 . S
C2633 H2656 0.950 . S
C2634 C2633 1.349 . S
C2634 C2646 1.349 . S
C2635 C2633 1.327 . S
C2635 C2651 1.429 . S
C2635 H2657 0.950 . S
C2636 H2632 0.949 . S
C2636 C2644 1.574 . S
C2636 C2652 1.368 . S
H2637 C2645 0.950 . S
H2638 C2643 0.950 . S
H2639 C2644 0.949 . S
H2640 C2646 0.950 . S
H2641 C2647 0.950 . S
H2642 C2648 0.949 . S
C2643 H2638 0.950 . S
C2643 C2645 1.327 . S
C2643 C2649 1.429 . S
C2644 C2636 1.574 . S
C2644 H2639 0.949 . S
C2644 C2650 1.368 . S
C2645 C2629 1.349 . S
C2645 H2637 0.950 . S
C2645 C2643 1.327 . S
C2646 C2634 1.349 . S
C2646 H2640 0.950 . S
C2646 C2647 1.327 . S
C2647 H2641 0.950 . S
C2647 C2646 1.327 . S
C2647 C2651 1.429 . S
C2648 C2631 1.574 . S
C2648 H2642 0.949 . S
C2648 C2652 1.368 . S
C2649 C2630 1.429 . S
C2649 C2643 1.429 . S
C2649 C2650 1.523 . S
C2650 C2631 1.368 . S
C2650 C2644 1.368 . S
C2650 C2649 1.523 . S
C2651 C2635 1.429 . S
C2651 C2647 1.429 . S
C2651 C2652 1.523 . S
C2652 C2636 1.368 . S
C2652 C2648 1.368 . S
C2652 C2651 1.523 . S
H2653 C2628 0.950 . S
H2654 C2630 0.950 . S
H2655 C2631 0.949 . S
H2656 C2633 0.950 . S
H2657 C2635 0.950 . S
C2658 C2659 1.349 . S
C2658 C2660 1.327 . S
C2658 H2683 0.950 . S
C2659 C2658 1.349 . S
C2659 C2675 1.349 . S
C2660 C2658 1.327 . S
C2660 C2679 1.429 . S
C2660 H2684 0.950 . S
C2661 C2678 1.574 . S
C2661 C2680 1.368 . S
C2661 H2685 0.949 . S
H2662 C2666 0.949 . S
C2663 C2664 1.349 . S
C2663 C2665 1.327 . S
C2663 H2686 0.950 . S
C2664 C2663 1.349 . S
C2664 C2676 1.349 . S
C2665 C2663 1.327 . S
C2665 C2681 1.429 . S
C2665 H2687 0.950 . S
C2666 H2662 0.949 . S
C2666 C2674 1.574 . S
C2666 C2682 1.368 . S
H2667 C2675 0.950 . S
H2668 C2673 0.950 . S
H2669 C2674 0.949 . S
H2670 C2676 0.950 . S
H2671 C2677 0.950 . S
H2672 C2678 0.949 . S
C2673 H2668 0.950 . S
C2673 C2675 1.327 . S
C2673 C2679 1.429 . S
C2674 C2666 1.574 . S
C2674 H2669 0.949 . S
C2674 C2680 1.368 . S
C2675 C2659 1.349 . S
C2675 H2667 0.950 . S
C2675 C2673 1.327 . S
C2676 C2664 1.349 . S
C2676 H2670 0.950 . S
C2676 C2677 1.327 . S
C2677 H2671 0.950 . S
C2677 C2676 1.327 . S
C2677 C2681 1.429 . S
C2678 C2661 1.574 . S
C2678 H2672 0.949 . S
C2678 C2682 1.368 . S
C2679 C2660 1.429 . S
C2679 C2673 1.429 . S
C2679 C2680 1.523 . S
C2680 C2661 1.368 . S
C2680 C2674 1.368 . S
C2680 C2679 1.523 . S
C2681 C2665 1.429 . S
C2681 C2677 1.429 . S
C2681 C2682 1.523 . S
C2682 C2666 1.368 . S
C2682 C2678 1.368 . S
C2682 C2681 1.523 . S
H2683 C2658 0.950 . S
H2684 C2660 0.950 . S
H2685 C2661 0.949 . S
H2686 C2663 0.950 . S
H2687 C2665 0.950 . S
C529 C8 1.882 . S
C534 C250 1.835 . S
C559 C448 1.905 . S
C564 C19 1.833 . S
C589 C30 1.856 . S
C594 C261 1.797 . S
C619 C41 1.818 . S
C624 C503 1.884 . S
C649 C206 1.818 . S
C654 C52 1.884 . S
C679 C63 1.797 . S
C684 C217 1.856 . S
C709 C492 1.759 . S
C714 C74 1.824 . S
C739 C195 1.844 . S
C744 C85 1.779 . S
C769 C151 1.826 . S
C774 C96 1.892 . S
C799 C162 1.875 . S
C804 C107 1.827 . S
C829 C118 1.844 . S
C834 C173 1.779 . S
C859 C129 1.665 . S
C864 C140 1.717 . S
C889 C283 1.826 . S
C894 C184 1.892 . S
C919 C338 1.844 . S
C924 C228 1.779 . S
C949 C305 1.717 . S
C954 C239 1.774 . S
C979 C272 1.905 . S
C984 C514 1.833 . S
C1009 C294 1.717 . S
C1014 C525 1.665 . S
C1039 C316 1.774 . S
C1044 C470 1.717 . S
C1069 C327 1.665 . S
C1074 C481 1.717 . S
C1099 C349 1.759 . S
C1104 C459 1.824 . S
C1129 C415 1.838 . S
C1134 C360 1.901 . S
C1159 C426 1.774 . S
C1164 C371 1.717 . S
C1189 C437 1.759 . S
C1194 C382 1.824 . S
C1219 C404 1.856 . S
C1224 C393 1.797 . S
C1249 C7 1.625 1_455 S
C1254 C84 1.541 . S
C1279 C51 1.603 1_455 S
C1284 C18 1.518 . S
C1309 C29 1.594 . S
C1314 C62 1.502 . S
C1339 C40 1.521 . S
C1344 C73 1.617 . S
C1369 C95 1.625 1_545 S
C1374 C227 1.541 . S
C1399 C106 1.521 . S
C1404 C458 1.617 . S
C1429 C469 1.421 . S
C1434 C117 1.500 . S
C1459 C480 1.547 . S
C1464 C128 1.467 . S
C1489 C139 1.547 . S
C1494 C524 1.467 . S
C1519 C150 1.515 . S
C1524 C238 1.611 . S
C1549 C161 1.603 1_545 S
C1554 C513 1.518 . S
C1579 C183 1.625 1_554 S
C1584 C172 1.541 . S
C1609 C370 1.421 . S
C1614 C194 1.500 . S
C1639 C381 1.617 . S
C1644 C205 1.521 . S
C1669 C392 1.502 . S
C1674 C216 1.594 . S
C1699 C249 1.515 . S
C1704 C425 1.611 . S
C1729 C403 1.594 . S
C1734 C260 1.502 . S
C1759 C348 1.464 . S
C1764 C271 1.563 . S
C1789 C282 1.515 . S
C1794 C315 1.611 . S
C1819 C293 1.547 . S
C1824 C326 1.467 . S
C1849 C337 1.500 . S
C1854 C304 1.421 . S
C1879 C491 1.464 . S
C1884 C359 1.563 . S
C1909 C414 1.519 . S
C1914 C502 1.603 1_554 S
C1939 C447 1.563 . S
C1944 C436 1.464 . S
C1969 C324 1.111 . S
C1974 C5 1.324 . S
C1999 C335 1.745 . S
C2004 C16 1.483 . S
C2029 C346 1.367 . S
C2034 C27 1.628 . S
C2059 C313 1.541 . S
C2064 C38 1.284 . S
C2089 C49 1.440 . S
C2094 C302 1.195 . S
C2119 C60 1.379 . S
C2124 C269 1.639 . S
C2149 C71 1.551 . S
C2154 C280 1.293 . S
C2179 C291 1.633 . S
C2184 C82 1.377 . S
C2209 C93 1.331 . S
C2214 C522 1.104 . S
C2239 C104 1.284 . S
C2244 C236 1.541 . S
C2269 C115 1.745 . S
C2274 C511 1.483 . S
C2299 C181 1.331 . S
C2304 C126 1.104 . S
C2329 C137 1.633 . S
C2334 C225 1.377 . S
C2359 C456 1.551 . S
C2364 C148 1.293 . S
C2389 C159 1.440 . S
C2394 C467 1.195 . S
C2419 C478 1.634 . S
C2424 C170 1.377 . S
C2449 C412 1.474 . S
C2454 C192 1.753 . S
C2479 C423 1.541 . S
C2484 C203 1.284 . S
C2509 C214 1.628 . S
C2514 C434 1.367 . S
C2539 C247 1.293 . S
C2544 C379 1.551 . S
C2569 C258 1.379 . S
C2574 C357 1.639 . S
C2599 C368 1.202 . S
C2604 C500 1.433 . S
C2629 C390 1.379 . S
C2634 C445 1.639 . S
C2659 C401 1.628 . S
C2664 C489 1.367 . S
