# Generated by pormake.
# Topology lcy-e, (6)-cn, num edge types: 1
# Building blocks:
#     Node 0, Type 0, BuildingBlock: MIFKUJ_clean_sbu_0, # of connection points: 6
#     Node 1, Type 0, BuildingBlock: MIFKUJ_clean_sbu_0, # of connection points: 6
#     Node 2, Type 0, BuildingBlock: MIFKUJ_clean_sbu_0, # of connection points: 6
#     Node 3, Type 0, BuildingBlock: MIFKUJ_clean_sbu_0, # of connection points: 6
#     Node 4, Type 0, BuildingBlock: MIFKUJ_clean_sbu_0, # of connection points: 6
#     Node 5, Type 0, BuildingBlock: MIFKUJ_clean_sbu_0, # of connection points: 6
#     Node 6, Type 0, BuildingBlock: MIFKUJ_clean_sbu_0, # of connection points: 6
#     Node 7, Type 0, BuildingBlock: MIFKUJ_clean_sbu_0, # of connection points: 6
#     Node 8, Type 0, BuildingBlock: MIFKUJ_clean_sbu_0, # of connection points: 6
#     Node 9, Type 0, BuildingBlock: MIFKUJ_clean_sbu_0, # of connection points: 6
#     Node 10, Type 0, BuildingBlock: MIFKUJ_clean_sbu_0, # of connection points: 6
#     Node 11, Type 0, BuildingBlock: MIFKUJ_clean_sbu_0, # of connection points: 6
#     Edge 12, Type (0, 0), BuildingBlock: UVAHIK_clean_linker_0, # of connection points: 2
#     Edge 13, Type (0, 0), BuildingBlock: UVAHIK_clean_linker_0, # of connection points: 2
#     Edge 14, Type (0, 0), BuildingBlock: UVAHIK_clean_linker_0, # of connection points: 2
#     Edge 15, Type (0, 0), BuildingBlock: UVAHIK_clean_linker_0, # of connection points: 2
#     Edge 16, Type (0, 0), BuildingBlock: UVAHIK_clean_linker_0, # of connection points: 2
#     Edge 17, Type (0, 0), BuildingBlock: UVAHIK_clean_linker_0, # of connection points: 2
#     Edge 18, Type (0, 0), BuildingBlock: UVAHIK_clean_linker_0, # of connection points: 2
#     Edge 19, Type (0, 0), BuildingBlock: UVAHIK_clean_linker_0, # of connection points: 2
#     Edge 20, Type (0, 0), BuildingBlock: UVAHIK_clean_linker_0, # of connection points: 2
#     Edge 21, Type (0, 0), BuildingBlock: UVAHIK_clean_linker_0, # of connection points: 2
#     Edge 22, Type (0, 0), BuildingBlock: UVAHIK_clean_linker_0, # of connection points: 2
#     Edge 23, Type (0, 0), BuildingBlock: UVAHIK_clean_linker_0, # of connection points: 2
#     Edge 24, Type (0, 0), BuildingBlock: UVAHIK_clean_linker_0, # of connection points: 2
#     Edge 25, Type (0, 0), BuildingBlock: UVAHIK_clean_linker_0, # of connection points: 2
#     Edge 26, Type (0, 0), BuildingBlock: UVAHIK_clean_linker_0, # of connection points: 2
#     Edge 27, Type (0, 0), BuildingBlock: UVAHIK_clean_linker_0, # of connection points: 2
#     Edge 28, Type (0, 0), BuildingBlock: UVAHIK_clean_linker_0, # of connection points: 2
#     Edge 29, Type (0, 0), BuildingBlock: UVAHIK_clean_linker_0, # of connection points: 2
#     Edge 30, Type (0, 0), BuildingBlock: UVAHIK_clean_linker_0, # of connection points: 2
#     Edge 31, Type (0, 0), BuildingBlock: UVAHIK_clean_linker_0, # of connection points: 2
#     Edge 32, Type (0, 0), BuildingBlock: UVAHIK_clean_linker_0, # of connection points: 2
#     Edge 33, Type (0, 0), BuildingBlock: UVAHIK_clean_linker_0, # of connection points: 2
#     Edge 34, Type (0, 0), BuildingBlock: UVAHIK_clean_linker_0, # of connection points: 2
#     Edge 35, Type (0, 0), BuildingBlock: UVAHIK_clean_linker_0, # of connection points: 2
#     Edge 36, Type (0, 0), BuildingBlock: UVAHIK_clean_linker_0, # of connection points: 2
#     Edge 37, Type (0, 0), BuildingBlock: UVAHIK_clean_linker_0, # of connection points: 2
#     Edge 38, Type (0, 0), BuildingBlock: UVAHIK_clean_linker_0, # of connection points: 2
#     Edge 39, Type (0, 0), BuildingBlock: UVAHIK_clean_linker_0, # of connection points: 2
#     Edge 40, Type (0, 0), BuildingBlock: UVAHIK_clean_linker_0, # of connection points: 2
#     Edge 41, Type (0, 0), BuildingBlock: UVAHIK_clean_linker_0, # of connection points: 2
#     Edge 42, Type (0, 0), BuildingBlock: UVAHIK_clean_linker_0, # of connection points: 2
#     Edge 43, Type (0, 0), BuildingBlock: UVAHIK_clean_linker_0, # of connection points: 2
#     Edge 44, Type (0, 0), BuildingBlock: UVAHIK_clean_linker_0, # of connection points: 2
#     Edge 45, Type (0, 0), BuildingBlock: UVAHIK_clean_linker_0, # of connection points: 2
#     Edge 46, Type (0, 0), BuildingBlock: UVAHIK_clean_linker_0, # of connection points: 2
#     Edge 47, Type (0, 0), BuildingBlock: UVAHIK_clean_linker_0, # of connection points: 2
# Relax obj value: 0.172
# Max RMSD: 0.274
# Mean RMSD: 0.237
data_MOF--net-lcy-e--node1-MIFKUJ_clean_sbu_0--edge1-UVAHIK_clean_linker_0
_symmetry_space_group_name_H-M    P1
_symmetry_Int_Tables_number       1
_symmetry_cell_setting            triclinic
loop_
_symmetry_equiv_pos_as_xyz
'x, y, z'
_cell_length_a     46.759739
_cell_length_b     50.244247
_cell_length_c     50.279716
_cell_angle_alpha  87.842123
_cell_angle_beta   88.875473
_cell_angle_gamma 88.729892
loop_
_atom_site_label
_atom_site_type_symbol
_atom_site_fract_x
_atom_site_fract_y
_atom_site_fract_z
_atom_type_partial_charge
Zn0 Zn 0.10991 0.23088 0.44133 0.0
Zn1 Zn 0.11628 0.1808 0.47708 0.0
C2 C 0.12545 0.27474 0.46928 0.0
O3 O 0.09841 0.27964 0.46401 0.0
C4 C 0.08843 0.14953 0.43921 0.0
O5 O 0.11157 0.13468 0.44305 0.0
O6 O 0.09947 0.25394 0.40934 0.0
O7 O 0.13084 0.19944 0.42435 0.0
O8 O 0.15442 0.18403 0.45905 0.0
C9 C 0.12186 0.25958 0.3957 0.0
O10 O 0.14677 0.25068 0.40434 0.0
O11 O 0.13732 0.25343 0.46113 0.0
C12 C 0.09501 0.14315 0.51414 0.0
O13 O 0.07197 0.1579 0.50945 0.0
O14 O 0.11838 0.14938 0.5025 0.0
O15 O 0.10289 0.21124 0.49844 0.0
O16 O 0.07528 0.22702 0.46643 0.0
O17 O 0.08587 0.17146 0.45097 0.0
C18 C 0.15263 0.18737 0.43407 0.0
C19 C 0.08078 0.22442 0.49112 0.0
Zn20 Zn 0.00789 0.86753 0.68639 0.0
Zn21 Zn 0.05546 0.87593 0.72415 0.0
C22 C 0.95641 0.88612 0.70808 0.0
O23 O 0.95029 0.86156 0.70253 0.0
C24 C 0.09102 0.84587 0.68835 0.0
O25 O 0.10933 0.86457 0.69288 0.0
O26 O 0.98536 0.85668 0.65476 0.0
O27 O 0.04141 0.88798 0.66963 0.0
O28 O 0.05404 0.9104 0.70409 0.0
C29 C 0.97569 0.87703 0.64173 0.0
O30 O 0.98259 0.90086 0.64901 0.0
O31 O 0.98171 0.89415 0.70371 0.0
C32 C 0.09136 0.8532 0.76266 0.0
O33 O 0.07791 0.83235 0.75465 0.0
O34 O 0.08573 0.87592 0.75182 0.0
O35 O 0.02 0.86659 0.74383 0.0
O36 O 0.01069 0.83693 0.71443 0.0
O37 O 0.0664 0.84679 0.69939 0.0
C38 C 0.05216 0.90857 0.67912 0.0
C39 C 0.01042 0.84406 0.7385 0.0
Zn40 Zn 0.36238 0.75515 0.9495 0.0
Zn41 Zn 0.36787 0.82237 0.97416 0.0
C42 C 0.36024 0.70239 0.97185 0.0
O43 O 0.38461 0.70071 0.9585 0.0
C44 C 0.39629 0.84127 0.92666 0.0
O45 O 0.37282 0.85604 0.92482 0.0
O46 O 0.37279 0.73924 0.9138 0.0
O47 O 0.32949 0.78126 0.94255 0.0
O48 O 0.32963 0.82203 0.9579 0.0
C49 C 0.35238 0.72554 0.90555 0.0
O50 O 0.32837 0.72469 0.91954 0.0
O51 O 0.34647 0.72451 0.97166 0.0
C52 C 0.39388 0.86154 0.0049 0.0
O53 O 0.41628 0.84594 0.00054 0.0
O54 O 0.37002 0.8557 0.99517 0.0
O55 O 0.37573 0.7921 -0.00016 0.0
O56 O 0.39649 0.7663 0.97039 0.0
O57 O 0.39856 0.82424 0.94587 0.0
C58 C 0.31763 0.80405 0.94536 0.0
C59 C 0.39175 0.77222 0.99449 0.0
Zn60 Zn 0.44041 0.11771 0.23404 0.0
Zn61 Zn 0.48025 0.12432 0.18548 0.0
C62 C 0.46855 0.13596 0.27715 0.0
O63 O 0.46143 0.11151 0.28426 0.0
C64 C 0.44736 0.09505 0.15048 0.0
O65 O 0.45192 0.1168 0.13581 0.0
O66 O 0.40624 0.11032 0.25843 0.0
O67 O 0.42154 0.13448 0.20098 0.0
O68 O 0.45745 0.15815 0.18563 0.0
C69 C 0.3928 0.13214 0.2626 0.0
O70 O 0.40242 0.15416 0.25105 0.0
O71 O 0.46193 0.145 0.25404 0.0
C72 C 0.5261 0.10749 0.15326 0.0
O73 O 0.52345 0.08674 0.16976 0.0
O74 O 0.50993 0.1278 0.15648 0.0
O75 O 0.50113 0.11413 0.21839 0.0
O76 O 0.4685 0.08591 0.23262 0.0
O77 O 0.4563 0.09375 0.17423 0.0
C78 C 0.43076 0.15509 0.18845 0.0
C79 C 0.49466 0.09253 0.23071 0.0
Zn80 Zn 0.63296 0.30825 0.51566 0.0
Zn81 Zn 0.62271 0.27544 0.56908 0.0
C82 C 0.6189 0.27622 0.47348 0.0
O83 O 0.64607 0.28079 0.46848 0.0
C84 C 0.64609 0.3185 0.5976 0.0
O85 O 0.62124 0.31739 0.61021 0.0
O86 O 0.64613 0.33822 0.49035 0.0
O87 O 0.60904 0.32741 0.54379 0.0
O88 O 0.58559 0.29267 0.55933 0.0
C89 C 0.62844 0.34635 0.47276 0.0
O90 O 0.60326 0.3354 0.47203 0.0
O91 O 0.60718 0.28579 0.4942 0.0
C92 C 0.60836 0.22899 0.60224 0.0
O93 O 0.60513 0.21775 0.57935 0.0
O94 O 0.61555 0.25321 0.60244 0.0
O95 O 0.64029 0.25184 0.54237 0.0
O96 O 0.66705 0.28341 0.52416 0.0
O97 O 0.6513 0.30285 0.57872 0.0
C98 C 0.58686 0.3176 0.55505 0.0
C99 C 0.66249 0.25879 0.52921 0.0
Zn100 Zn 0.9401 0.38444 0.75648 0.0
Zn101 Zn 0.95846 0.38786 0.827 0.0
C102 C 0.96625 0.37783 0.70494 0.0
O103 O 0.95648 0.4024 0.70138 0.0
C104 C 0.9136 0.42072 0.8458 0.0
O105 O 0.9096 0.39868 0.86018 0.0
O106 O 0.90431 0.39922 0.73864 0.0
O107 O 0.92672 0.3552 0.78224 0.0
O108 O 0.93599 0.35497 0.82525 0.0
C109 C 0.89321 0.38196 0.72433 0.0
O110 O 0.90505 0.35804 0.72362 0.0
O111 O 0.96274 0.36604 0.72757 0.0
C112 C 0.00053 0.40011 0.86438 0.0
O113 O 0.00906 0.41523 0.844 0.0
O114 O 0.97845 0.3861 0.86219 0.0
O115 O 0.99002 0.39041 0.79956 0.0
O116 O 0.96625 0.41305 0.76855 0.0
O117 O 0.93312 0.42084 0.82782 0.0
C118 C 0.92477 0.34451 0.80552 0.0
C119 C 0.98985 0.40555 0.77882 0.0
Zn120 Zn 0.86755 0.69789 0.01957 0.0
Zn121 Zn 0.87657 0.73732 0.06572 0.0
C122 C 0.88328 0.71585 0.96896 0.0
O123 O 0.85636 0.70948 0.96666 0.0
C124 C 0.84527 0.69852 0.09783 0.0
O125 O 0.86772 0.69953 0.11305 0.0
O126 O 0.85348 0.66514 0.00162 0.0
O127 O 0.89054 0.68252 0.05118 0.0
O128 O 0.91342 0.71758 0.06363 0.0
C129 C 0.87432 0.64922 0.99665 0.0
O130 O 0.89985 0.65509 0.00485 0.0
O131 O 0.89474 0.71317 0.99169 0.0
C132 C 0.86167 0.78243 0.09758 0.0
O133 O 0.84137 0.786 0.08001 0.0
O134 O 0.87946 0.76315 0.09515 0.0
O135 O 0.86698 0.75738 0.03244 0.0
O136 O 0.83631 0.72718 0.02157 0.0
O137 O 0.84456 0.71263 0.07633 0.0
C138 C 0.91205 0.6926 0.06184 0.0
C139 C 0.84496 0.75111 0.01995 0.0
Zn140 Zn 0.54388 0.61505 0.26245 0.0
Zn141 Zn 0.51525 0.61336 0.32288 0.0
C142 C 0.50982 0.62078 0.21625 0.0
O143 O 0.51935 0.59618 0.21373 0.0
C144 C 0.56625 0.58787 0.34248 0.0
O145 O 0.56472 0.60786 0.3586 0.0
O146 O 0.57906 0.60488 0.24054 0.0
O147 O 0.55789 0.64414 0.28608 0.0
O148 O 0.52953 0.64986 0.32112 0.0
C149 C 0.58596 0.62244 0.22279 0.0
O150 O 0.57049 0.64449 0.22041 0.0
O151 O 0.51677 0.63333 0.23656 0.0
C152 C 0.47093 0.62013 0.36276 0.0
O153 O 0.45912 0.63559 0.3442 0.0
O154 O 0.49481 0.60865 0.35793 0.0
O155 O 0.4878 0.60478 0.29489 0.0
O156 O 0.52197 0.58199 0.27496 0.0
O157 O 0.54795 0.58674 0.32422 0.0
C158 C 0.55012 0.65737 0.30617 0.0
C159 C 0.49549 0.58584 0.28022 0.0
Zn160 Zn 0.22415 0.42937 0.1315 0.0
Zn161 Zn 0.17657 0.47175 0.13945 0.0
C162 C 0.27464 0.44966 0.14862 0.0
O163 O 0.27963 0.44533 0.12332 0.0
C164 C 0.13941 0.43957 0.10969 0.0
O165 O 0.12266 0.44239 0.13074 0.0
O166 O 0.24519 0.39575 0.12001 0.0
O167 O 0.1869 0.41647 0.14914 0.0
O168 O 0.17799 0.45087 0.17368 0.0
C169 C 0.24126 0.37504 0.1349 0.0
O170 O 0.22372 0.37654 0.15551 0.0
O171 O 0.25028 0.4439 0.15871 0.0
C172 C 0.14729 0.52374 0.14487 0.0
O173 O 0.17284 0.53364 0.14722 0.0
O174 O 0.14477 0.49885 0.1424 0.0
O175 O 0.21192 0.49001 0.12788 0.0
O176 O 0.22433 0.45772 0.10117 0.0
O177 O 0.1642 0.44946 0.10942 0.0
C178 C 0.17632 0.42616 0.17022 0.0
C179 C 0.22429 0.48228 0.10675 0.0
Zn180 Zn 0.68517 0.01998 0.86643 0.0
Zn181 Zn 0.71969 0.07193 0.86996 0.0
C182 C 0.71958 0.97376 0.8742 0.0
O183 O 0.71274 0.97208 0.84912 0.0
C184 C 0.67335 0.10229 0.84656 0.0
O185 O 0.67977 0.11881 0.86508 0.0
O186 O 0.65206 0.99748 0.85627 0.0
O187 O 0.66778 0.04626 0.89274 0.0
O188 O 0.70624 0.06549 0.90685 0.0
C189 C 0.6443 0.98048 0.87419 0.0
O190 O 0.65682 0.97983 0.89737 0.0
O191 O 0.71115 0.99411 0.88674 0.0
C192 C 0.75195 0.1125 0.8451 0.0
O193 O 0.74383 0.0996 0.82438 0.0
O194 O 0.74397 0.10432 0.86824 0.0
O195 O 0.74398 0.04338 0.85531 0.0
O196 O 0.7078 0.0299 0.83252 0.0
O197 O 0.68673 0.08007 0.84562 0.0
C198 C 0.68051 0.0587 0.9105 0.0
C199 C 0.73454 0.03328 0.83463 0.0
Zn200 Zn 0.7912 0.97989 0.38431 0.0
Zn201 Zn 0.76092 0.9176 0.37551 0.0
C202 C 0.77317 0.03236 0.39402 0.0
O203 O 0.78183 0.03446 0.36902 0.0
C204 C 0.80965 0.90563 0.34248 0.0
O205 O 0.81659 0.89086 0.36359 0.0
O206 O 0.82909 0.99557 0.37166 0.0
O207 O 0.80147 0.94929 0.41057 0.0
O208 O 0.78161 0.90994 0.40882 0.0
C209 C 0.84341 0.00121 0.39193 0.0
O210 O 0.8328 0.99494 0.41567 0.0
O211 O 0.77406 0.00955 0.40591 0.0
C212 C 0.71335 0.88171 0.38024 0.0
O213 O 0.70346 0.89867 0.39762 0.0
O214 O 0.73745 0.88571 0.36888 0.0
O215 O 0.73361 0.94851 0.37708 0.0
O216 O 0.76187 0.9763 0.35492 0.0
O217 O 0.78748 0.92067 0.34362 0.0
C218 C 0.79839 0.92552 0.41963 0.0
C219 C 0.73688 0.96784 0.36046 0.0
Zn220 Zn 0.29789 0.51091 0.63711 0.0
Zn221 Zn 0.26404 0.56622 0.63541 0.0
C222 C 0.26115 0.47334 0.61707 0.0
O223 O 0.263 0.46528 0.64215 0.0
C224 C 0.30599 0.59394 0.66447 0.0
O225 O 0.30648 0.60898 0.64253 0.0
O226 O 0.32989 0.48373 0.64315 0.0
O227 O 0.31992 0.54245 0.621 0.0
O228 O 0.28414 0.56277 0.6008 0.0
C229 C 0.34194 0.47917 0.62078 0.0
O230 O 0.33185 0.49143 0.59929 0.0
O231 O 0.27422 0.49417 0.60902 0.0
C232 C 0.21382 0.59953 0.62383 0.0
O233 O 0.20149 0.57706 0.61884 0.0
O234 O 0.23966 0.59917 0.63118 0.0
O235 O 0.23873 0.53651 0.64581 0.0
O236 O 0.27068 0.51365 0.66944 0.0
O237 O 0.29059 0.57335 0.6655 0.0
C238 C 0.31042 0.55649 0.60145 0.0
C239 C 0.24462 0.51965 0.66441 0.0
C240 C 0.12646 0.30915 0.50337 0.0
C241 C 0.1412 0.2941 0.48434 0.0
C242 C 0.14021 0.32915 0.51635 0.0
C243 C 0.21211 0.35664 0.52899 0.0
H244 H 0.16583 0.41808 0.54883 0.0
C245 C 0.25658 0.45327 0.57259 0.0
C246 C 0.24592 0.45689 0.59855 0.0
C247 C 0.24414 0.43476 0.55643 0.0
C248 C 0.17897 0.40108 0.54325 0.0
H249 H 0.1819 0.28776 0.46411 0.0
H250 H 0.20583 0.32361 0.4859 0.0
H251 H 0.14421 0.38268 0.52482 0.0
H252 H 0.21337 0.44509 0.62764 0.0
H253 H 0.19087 0.41365 0.59894 0.0
H254 H 0.24705 0.37588 0.54697 0.0
C255 C 0.18384 0.31954 0.49145 0.0
C256 C 0.16659 0.38058 0.52978 0.0
C257 C 0.17017 0.29902 0.47887 0.0
C258 C 0.22194 0.44264 0.60768 0.0
C259 C 0.20909 0.42472 0.59131 0.0
C260 C 0.22463 0.37749 0.54198 0.0
C261 C 0.16891 0.33514 0.51014 0.0
C262 C 0.1828 0.35775 0.52296 0.0
C263 C 0.22043 0.42024 0.56579 0.0
C264 C 0.20801 0.39962 0.5496 0.0
H265 H 0.10417 0.30546 0.50821 0.0
H266 H 0.12818 0.33995 0.53123 0.0
H267 H 0.22529 0.33937 0.52442 0.0
H268 H 0.27524 0.46385 0.56524 0.0
H269 H 0.25315 0.43159 0.53676 0.0
C270 C 0.74893 0.00278 0.79825 0.0
C271 C 0.75508 0.02414 0.81422 0.0
C272 C 0.77043 0.9915 0.78226 0.0
C273 C 0.84891 0.98483 0.78073 0.0
H274 H 0.83708 0.95038 0.71424 0.0
C275 C 0.94022 0.93013 0.72532 0.0
C276 C 0.9337 0.90444 0.71753 0.0
C277 C 0.9185 0.94741 0.73405 0.0
C278 C 0.84062 0.95994 0.73282 0.0
H279 H 0.78738 0.05229 0.82407 0.0
H280 H 0.82444 0.03338 0.79548 0.0
H281 H 0.79825 0.97701 0.73387 0.0
H282 H 0.89934 0.87685 0.7123 0.0
H283 H 0.86155 0.90699 0.72765 0.0
H284 H 0.89108 0.96757 0.77987 0.0
C285 C 0.80353 0.02451 0.79608 0.0
C286 C 0.81842 0.97511 0.74407 0.0
C287 C 0.78226 0.03543 0.81234 0.0
C288 C 0.90507 0.89649 0.71829 0.0
C289 C 0.88337 0.91382 0.72682 0.0
C290 C 0.87109 0.96987 0.76941 0.0
C291 C 0.79823 0.00176 0.78171 0.0
C292 C 0.82223 0.98746 0.76833 0.0
C293 C 0.8899 0.93937 0.73492 0.0
C294 C 0.86704 0.95699 0.74556 0.0
H295 H 0.72806 0.99383 0.79923 0.0
H296 H 0.76565 0.97392 0.7715 0.0
H297 H 0.85242 0.99353 0.79974 0.0
H298 H 0.96208 0.93685 0.72482 0.0
H299 H 0.92406 0.96709 0.74007 0.0
C300 C 0.36094 0.65317 0.98167 0.0
C301 C 0.34779 0.67832 0.9848 0.0
C302 C 0.3482 0.63019 0.99245 0.0
C303 C 0.27807 0.60545 0.01646 0.0
H304 H 0.32301 0.54915 0.05162 0.0
C305 C 0.22951 0.52919 0.09024 0.0
C306 C 0.23805 0.50229 0.08881 0.0
C307 C 0.24294 0.54868 0.07442 0.0
C308 C 0.31028 0.56452 0.04146 0.0
H309 H 0.31141 0.69919 0.00237 0.0
H310 H 0.2895 0.65923 0.02162 0.0
H311 H 0.34702 0.58764 0.03095 0.0
H312 H 0.26723 0.47463 0.06953 0.0
H313 H 0.29127 0.50914 0.0419 0.0
H314 H 0.2413 0.58275 0.02772 0.0
C315 C 0.30931 0.65715 0.01029 0.0
C316 C 0.32398 0.58657 0.02966 0.0
C317 C 0.32199 0.68009 -0.00055 0.0
C318 C 0.26017 0.49522 0.07094 0.0
C319 C 0.27398 0.5149 0.05529 0.0
C320 C 0.26442 0.58354 0.02835 0.0
C321 C 0.32207 0.6319 0.00663 0.0
C322 C 0.30795 0.60754 0.01751 0.0
C323 C 0.26544 0.54181 0.05695 0.0
C324 C 0.28032 0.56313 0.04142 0.0
H325 H 0.38081 0.65113 0.97043 0.0
H326 H 0.35848 0.61104 0.98912 0.0
H327 H 0.26515 0.62091 0.00666 0.0
H328 H 0.21244 0.53527 0.10371 0.0
H329 H 0.23615 0.56929 0.07635 0.0
C330 C 0.51235 0.05497 0.26134 0.0
C331 C 0.51792 0.07615 0.24305 0.0
C332 C 0.53503 0.04076 0.27355 0.0
C333 C 0.61328 0.02736 0.26642 0.0
H334 H 0.6099 0.01281 0.34266 0.0
C335 C 0.71394 -9e-05 0.32721 0.0
C336 C 0.71141 0.97936 0.34679 0.0
C337 C 0.68967 0.01026 0.31425 0.0
C338 C 0.61106 0.01647 0.3213 0.0
H339 H 0.55167 0.09862 0.22287 0.0
H340 H 0.59066 0.07426 0.24412 0.0
H341 H 0.56806 0.0321 0.32017 0.0
H342 H 0.68126 0.95367 0.36817 0.0
H343 H 0.63921 0.97168 0.34558 0.0
H344 H 0.65639 0.01217 0.26759 0.0
C345 C 0.56899 0.06831 0.24893 0.0
C346 C 0.58704 0.02742 0.30841 0.0
C347 C 0.54651 0.08246 0.2369 0.0
C348 C 0.68406 0.96954 0.35322 0.0
C349 C 0.65987 0.97994 0.34037 0.0
C350 C 0.63728 0.01651 0.2793 0.0
C351 C 0.56362 0.04737 0.26749 0.0
C352 C 0.58802 0.03334 0.28087 0.0
C353 C 0.66237 0.00036 0.32069 0.0
C354 C 0.63656 0.01123 0.30693 0.0
H355 H 0.49056 0.04967 0.2665 0.0
H356 H 0.53022 0.0246 0.28768 0.0
H357 H 0.61458 0.03123 0.2451 0.0
H358 H 0.73465 0.00798 0.32186 0.0
H359 H 0.69225 0.02623 0.29938 0.0
C360 C 0.6795 0.2115 0.52811 0.0
C361 C 0.68115 0.23783 0.51778 0.0
C362 C 0.694 0.19077 0.51557 0.0
C363 C 0.71866 0.17195 0.44988 0.0
H364 H 0.75618 0.11307 0.48834 0.0
C365 C 0.76771 0.08185 0.39599 0.0
C366 C 0.76433 0.0565 0.4083 0.0
C367 C 0.76026 0.10483 0.40953 0.0
C368 C 0.74552 0.12922 0.47733 0.0
H369 H 0.70039 0.26323 0.48687 0.0
H370 H 0.72552 0.22671 0.4646 0.0
H371 H 0.74008 0.15229 0.51212 0.0
H372 H 0.75024 0.03538 0.44443 0.0
H373 H 0.73649 0.07548 0.46786 0.0
H374 H 0.72311 0.14865 0.41528 0.0
C375 C 0.71289 0.22226 0.48244 0.0
C376 C 0.73648 0.15175 0.49093 0.0
C377 C 0.69865 0.24315 0.49525 0.0
C378 C 0.75317 0.05462 0.43442 0.0
C379 C 0.74551 0.07763 0.44792 0.0
C380 C 0.7275 0.14935 0.4363 0.0
C381 C 0.71029 0.19582 0.49226 0.0
C382 C 0.72265 0.17321 0.47741 0.0
C383 C 0.74904 0.10304 0.43566 0.0
C384 C 0.74074 0.12756 0.44992 0.0
H385 H 0.66632 0.20676 0.54553 0.0
H386 H 0.69139 0.1706 0.52349 0.0
H387 H 0.70765 0.18801 0.43901 0.0
H388 H 0.77647 0.08403 0.37594 0.0
H389 H 0.76367 0.12402 0.39959 0.0
C390 C 0.01825 0.4311 0.74393 0.0
C391 C 0.01739 0.41491 0.7673 0.0
C392 C 0.04441 0.43979 0.73325 0.0
C393 C 0.11936 0.4508 0.75128 0.0
H394 H 0.13137 0.45458 0.67474 0.0
C395 C 0.22516 0.48648 0.69884 0.0
C396 C 0.22069 0.50543 0.67795 0.0
C397 C 0.20196 0.47279 0.71048 0.0
C398 C 0.1283 0.45364 0.69617 0.0
H399 H 0.04345 0.39496 0.79766 0.0
H400 H 0.0889 0.40995 0.7789 0.0
H401 H 0.08738 0.43589 0.69343 0.0
H402 H 0.18827 0.5249 0.6531 0.0
H403 H 0.14845 0.50123 0.67321 0.0
H404 H 0.16029 0.4689 0.75385 0.0
C405 C 0.06938 0.41621 0.76901 0.0
C406 C 0.10306 0.44307 0.70686 0.0
C407 C 0.04327 0.40752 0.77967 0.0
C408 C 0.19266 0.51044 0.6691 0.0
C409 C 0.16974 0.49669 0.68048 0.0
C410 C 0.14472 0.46133 0.74055 0.0
C411 C 0.07027 0.43247 0.74569 0.0
C412 C 0.09802 0.44202 0.73451 0.0
C413 C 0.17407 0.47762 0.70115 0.0
C414 C 0.14912 0.46339 0.71286 0.0
H415 H -0.00126 0.43712 0.73389 0.0
H416 H 0.04432 0.4526 0.71544 0.0
H417 H 0.11606 0.45043 0.77267 0.0
H418 H 0.24649 0.48215 0.70607 0.0
H419 H 0.20585 0.45815 0.72644 0.0
C420 C 0.73324 0.94846 0.91614 0.0
C421 C 0.7336 0.95076 0.8882 0.0
C422 C 0.74425 0.92549 0.92916 0.0
C423 C 0.79424 0.86916 0.92034 0.0
H424 H 0.75184 0.83612 0.97944 0.0
C425 C 0.84547 0.79495 0.99531 0.0
C426 C 0.83066 0.77171 0.00282 0.0
C427 C 0.83252 0.815 0.97963 0.0
C428 C 0.76373 0.84498 0.96278 0.0
H429 H 0.74633 0.9311 0.85201 0.0
H430 H 0.76586 0.89123 0.87476 0.0
H431 H 0.73163 0.87543 0.95571 0.0
H432 H 0.79066 0.75121 -0.00041 0.0
H433 H 0.7676 0.78689 0.97228 0.0
H434 H 0.82652 0.83904 0.92762 0.0
C435 C 0.757 0.90711 0.88658 0.0
C436 C 0.75235 0.86762 0.94943 0.0
C437 C 0.74577 0.92993 0.87357 0.0
C438 C 0.80256 0.7689 0.9941 0.0
C439 C 0.78937 0.7893 0.97861 0.0
C440 C 0.80571 0.84674 0.93383 0.0
C441 C 0.75608 0.90452 0.9145 0.0
C442 C 0.76764 0.88007 0.92823 0.0
C443 C 0.80432 0.81251 0.97122 0.0
C444 C 0.79073 0.83461 0.95537 0.0
H445 H 0.72388 0.96413 0.92795 0.0
H446 H 0.7436 0.92416 0.95072 0.0
H447 H 0.80656 0.87839 0.90415 0.0
H448 H 0.86722 0.79771 0.00154 0.0
H449 H 0.84444 0.83278 0.9745 0.0
C450 C 0.4447 0.5774 0.26937 0.0
C451 C 0.47356 0.569 0.26893 0.0
C452 C 0.42378 0.56199 0.25844 0.0
C453 C 0.38061 0.52107 0.24546 0.0
H454 H 0.39871 0.48444 0.18063 0.0
C455 C 0.29626 0.46 0.19236 0.0
C456 C 0.29712 0.46147 0.16441 0.0
C457 C 0.31831 0.47068 0.20683 0.0
C458 C 0.39317 0.49473 0.19861 0.0
H459 H 0.50306 0.53756 0.25707 0.0
H460 H 0.46638 0.5101 0.23871 0.0
H461 H 0.43592 0.50802 0.20232 0.0
H462 H 0.32124 0.47591 0.12971 0.0
H463 H 0.35882 0.49528 0.1547 0.0
H464 H 0.33745 0.5091 0.24082 0.0
C465 C 0.45997 0.52898 0.24693 0.0
C466 C 0.41471 0.50793 0.21135 0.0
C467 C 0.48101 0.54464 0.25757 0.0
C468 C 0.32012 0.47415 0.15125 0.0
C469 C 0.34187 0.48508 0.16563 0.0
C470 C 0.35896 0.50817 0.23251 0.0
C471 C 0.43106 0.53753 0.2471 0.0
C472 C 0.40864 0.52164 0.23472 0.0
C473 C 0.34145 0.48332 0.19361 0.0
C474 C 0.36485 0.4952 0.20866 0.0
H475 H 0.43826 0.5962 0.27776 0.0
H476 H 0.40194 0.56961 0.25842 0.0
H477 H 0.37521 0.5309 0.26374 0.0
H478 H 0.27883 0.45022 0.20302 0.0
H479 H 0.31738 0.4687 0.22834 0.0
C480 C 0.48917 0.17926 0.29048 0.0
C481 C 0.48327 0.15234 0.29629 0.0
C482 C 0.50238 0.1945 0.30932 0.0
C483 C 0.51598 0.19567 0.38163 0.0
H484 H 0.57759 0.24274 0.36044 0.0
C485 C 0.57208 0.26095 0.45656 0.0
C486 C 0.60198 0.26237 0.45391 0.0
C487 C 0.55619 0.24909 0.43708 0.0
C488 C 0.56048 0.22959 0.36668 0.0
H489 H 0.48708 0.1202 0.32621 0.0
H490 H 0.51025 0.14652 0.35863 0.0
H491 H 0.55256 0.21917 0.32661 0.0
H492 H 0.63871 0.25199 0.42903 0.0
H493 H 0.61112 0.231 0.39543 0.0
H494 H 0.52447 0.20534 0.42174 0.0
C495 C 0.50422 0.15609 0.33984 0.0
C496 C 0.54592 0.21635 0.34726 0.0
C497 C 0.4911 0.14094 0.32111 0.0
C498 C 0.61568 0.25137 0.43161 0.0
C499 C 0.59983 0.23952 0.41221 0.0
C500 C 0.53051 0.2089 0.40103 0.0
C501 C 0.50985 0.18309 0.33429 0.0
C502 C 0.52381 0.1989 0.35457 0.0
C503 C 0.56989 0.2384 0.41459 0.0
C504 C 0.55322 0.2257 0.39383 0.0
H505 H 0.48335 0.18861 0.27153 0.0
H506 H 0.50634 0.2153 0.3045 0.0
H507 H 0.49874 0.18267 0.38788 0.0
H508 H 0.56089 0.26936 0.47345 0.0
H509 H 0.53313 0.24871 0.43942 0.0
C510 C 0.06624 0.23118 0.53835 0.0
C511 C 0.06359 0.2387 0.51129 0.0
C512 C 0.05267 0.24604 0.55797 0.0
C513 C 0.02802 0.3134 0.57122 0.0
H514 H 0.98993 0.2797 0.63244 0.0
C515 C 0.9759 0.37385 0.65605 0.0
C516 C 0.97807 0.36305 0.68215 0.0
C517 C 0.98498 0.35906 0.63432 0.0
C518 C 0.0008 0.28942 0.61565 0.0
H519 H 0.04375 0.26721 0.48353 0.0
H520 H 0.02032 0.29362 0.51808 0.0
H521 H 0.00655 0.25272 0.5957 0.0
H522 H 0.99235 0.3286 0.70597 0.0
H523 H 0.00892 0.3031 0.66821 0.0
H524 H 0.02311 0.34998 0.59146 0.0
C525 C 0.03299 0.27614 0.52395 0.0
C526 C 0.01013 0.27397 0.59453 0.0
C527 C 0.04625 0.26096 0.50421 0.0
C528 C 0.99021 0.33742 0.6861 0.0
C529 C -0.00052 0.32271 0.66441 0.0
C530 C 0.01889 0.32887 0.59247 0.0
C531 C 0.03635 0.26894 0.55103 0.0
C532 C 0.02411 0.28574 0.57224 0.0
C533 C 0.99662 0.33318 0.63821 0.0
C534 C 0.00546 0.31701 0.6151 0.0
H535 H 0.07932 0.21404 0.54445 0.0
H536 H 0.05582 0.24012 0.57867 0.0
H537 H 0.03907 0.32294 0.55442 0.0
H538 H 0.96649 0.39349 0.6523 0.0
H539 H 0.98217 0.36767 0.61446 0.0
C540 C 0.01227 0.82937 0.78605 0.0
C541 C 0.00088 0.82628 0.76075 0.0
C542 C 0.0021 0.81455 0.80802 0.0
C543 C 0.95819 0.75663 0.82923 0.0
H544 H 0.94916 0.79611 0.89385 0.0
C545 C 0.88831 0.72288 0.9198 0.0
C546 C 0.89951 0.72569 0.94526 0.0
C547 C 0.90284 0.73282 0.8972 0.0
C548 C 0.95193 0.78471 0.87608 0.0
H549 H 0.97057 0.80466 0.73831 0.0
H550 H 0.95181 0.77916 0.77715 0.0
H551 H 0.96975 0.81766 0.8541 0.0
H552 H 0.93493 0.7407 0.96703 0.0
H553 H 0.96023 0.75852 0.92735 0.0
H554 H 0.93928 0.72394 0.85131 0.0
C555 C 0.96909 0.79273 0.77985 0.0
C556 C 0.96377 0.79702 0.85325 0.0
C557 C 0.9797 0.80735 0.75763 0.0
C558 C 0.92579 0.73829 0.94766 0.0
C559 C 0.94018 0.74853 0.925 0.0
C560 C 0.94604 0.74438 0.85207 0.0
C561 C 0.97982 0.79661 0.8054 0.0
C562 C 0.96715 0.78314 0.82955 0.0
C563 C 0.92872 0.74602 0.89958 0.0
C564 C 0.94282 0.75834 0.8757 0.0
H565 H 0.02897 0.84352 0.789 0.0
H566 H 0.0115 0.81748 0.82718 0.0
H567 H 0.96077 0.74527 0.81143 0.0
H568 H 0.86817 0.71313 0.91727 0.0
H569 H 0.89337 0.73085 0.87789 0.0
C570 C 0.48321 0.66062 0.19716 0.0
C571 C 0.49447 0.63473 0.19421 0.0
C572 C 0.47104 0.67469 0.17556 0.0
C573 C 0.46511 0.70623 0.12364 0.0
H574 H 0.42023 0.6721 0.07109 0.0
C575 C 0.40256 0.7652 0.04272 0.0
C576 C 0.40461 0.75613 0.01662 0.0
C577 C 0.41383 0.74997 0.06393 0.0
C578 C 0.43298 0.6818 0.08549 0.0
H579 H 0.50106 0.603 0.16649 0.0
H580 H 0.48042 0.62772 0.12873 0.0
H581 H 0.4376 0.64609 0.10975 0.0
H582 H 0.42044 0.72401 0.99234 0.0
H583 H 0.43981 0.69709 0.02967 0.0
H584 H 0.46005 0.74202 0.09959 0.0
C585 C 0.48055 0.63706 0.14779 0.0
C586 C 0.44294 0.66694 0.10763 0.0
C587 C 0.49252 0.62291 0.16944 0.0
C588 C 0.41837 0.73148 0.01221 0.0
C589 C 0.42936 0.71604 0.03356 0.0
C590 C 0.45496 0.7211 0.10166 0.0
C591 C 0.47005 0.66328 0.15047 0.0
C592 C 0.45907 0.679 0.12702 0.0
C593 C 0.42721 0.72519 0.05962 0.0
C594 C 0.43874 0.70906 0.08241 0.0
H595 H 0.48419 0.6702 0.21605 0.0
H596 H 0.4626 0.69463 0.17851 0.0
H597 H 0.47802 0.71606 0.13781 0.0
H598 H 0.39216 0.78412 0.04686 0.0
H599 H 0.41164 0.75741 0.08384 0.0
C600 C 0.14567 0.27882 0.35501 0.0
C601 C 0.12051 0.2752 0.37029 0.0
C602 C 0.14512 0.29338 0.33097 0.0
C603 C 0.13628 0.31224 0.27448 0.0
H604 H 0.10043 0.38257 0.27178 0.0
C605 C 0.15452 0.38273 0.18408 0.0
C606 C 0.16165 0.40878 0.1902 0.0
C607 C 0.14238 0.36566 0.2035 0.0
C608 C 0.11049 0.36294 0.27221 0.0
H609 H 0.07492 0.28404 0.37233 0.0
H610 H 0.074 0.30985 0.32991 0.0
H611 H 0.09316 0.35316 0.31105 0.0
H612 H 0.1606 0.43777 0.22109 0.0
H613 H 0.14038 0.40777 0.25523 0.0
H614 H 0.15515 0.32237 0.23663 0.0
C615 C 0.09412 0.30129 0.33676 0.0
C616 C 0.10604 0.346 0.29455 0.0
C617 C 0.09465 0.28651 0.36095 0.0
C618 C 0.15539 0.41777 0.21581 0.0
C619 C 0.14352 0.40062 0.23532 0.0
C620 C 0.14083 0.32914 0.25227 0.0
C621 C 0.11939 0.30473 0.32151 0.0
C622 C 0.11972 0.32084 0.29624 0.0
C623 C 0.13742 0.37419 0.22954 0.0
C624 C 0.1287 0.35499 0.25121 0.0
H625 H 0.16598 0.27044 0.36161 0.0
H626 H 0.16506 0.29616 0.31998 0.0
H627 H 0.14671 0.29276 0.27506 0.0
H628 H 0.15867 0.37536 0.16437 0.0
H629 H 0.13744 0.34559 0.19825 0.0
C630 C 0.95687 0.85358 0.60266 0.0
C631 C 0.95515 0.87471 0.62017 0.0
C632 C 0.93845 0.85322 0.58101 0.0
C633 C 0.86972 0.87859 0.55622 0.0
H634 H 0.90583 0.88353 0.48614 0.0
C635 C 0.84121 0.92778 0.4484 0.0
C636 C 0.81542 0.91562 0.44254 0.0
C637 C 0.85783 0.91796 0.46949 0.0
C638 C 0.89549 0.88189 0.50559 0.0
H639 H 0.93215 0.91114 0.62981 0.0
H640 H 0.89961 0.91004 0.59265 0.0
H641 H 0.93507 0.8733 0.52531 0.0
H642 H 0.78675 0.88372 0.45424 0.0
H643 H 0.81552 0.86706 0.49176 0.0
H644 H 0.83025 0.88787 0.53662 0.0
C645 C 0.91531 0.89402 0.59534 0.0
C646 C 0.91213 0.87583 0.52789 0.0
C647 C 0.93406 0.89474 0.61645 0.0
C648 C 0.80652 0.8935 0.4583 0.0
C649 C 0.82292 0.88398 0.47973 0.0
C650 C 0.85301 0.88418 0.53389 0.0
C651 C 0.91762 0.87354 0.57718 0.0
C652 C 0.89947 0.87489 0.55343 0.0
C653 C 0.84879 0.89605 0.4854 0.0
C654 C 0.86588 0.88664 0.50848 0.0
H655 H 0.97304 0.83796 0.60516 0.0
H656 H 0.9406 0.83727 0.56715 0.0
H657 H 0.85955 0.878 0.57578 0.0
H658 H 0.84878 0.94467 0.43645 0.0
H659 H 0.87755 0.92778 0.47366 0.0
C660 C 0.31375 0.59019 0.71368 0.0
C661 C 0.31926 0.60322 0.68894 0.0
C662 C 0.32236 0.60126 0.73724 0.0
C663 C 0.3684 0.65092 0.76653 0.0
H664 H 0.3059 0.65653 0.81791 0.0
C665 C 0.37072 0.71809 0.8589 0.0
C666 C 0.35528 0.70936 0.8817 0.0
C667 C 0.36993 0.70375 0.83547 0.0
C668 C 0.32387 0.65475 0.80414 0.0
H669 H 0.33996 0.63714 0.66949 0.0
H670 H 0.35513 0.65636 0.71073 0.0
H671 H 0.29913 0.63304 0.77739 0.0
H672 H 0.32894 0.67789 0.89871 0.0
H673 H 0.32866 0.6524 0.85871 0.0
H674 H 0.39322 0.67261 0.79354 0.0
C675 C 0.34404 0.63764 0.71183 0.0
C676 C 0.3199 0.64129 0.7808 0.0
C677 C 0.33522 0.62666 0.68822 0.0
C678 C 0.34057 0.68536 0.88122 0.0
C679 C 0.34025 0.67084 0.85817 0.0
C680 C 0.37253 0.6642 0.79018 0.0
C681 C 0.33688 0.62549 0.73662 0.0
C682 C 0.34207 0.63916 0.76173 0.0
C683 C 0.35405 0.68025 0.83467 0.0
C684 C 0.3503 0.6662 0.80935 0.0
H685 H 0.30168 0.57202 0.71499 0.0
H686 H 0.31692 0.59124 0.75606 0.0
H687 H 0.38588 0.64959 0.75215 0.0
H688 H 0.38222 0.73657 0.8588 0.0
H689 H 0.38077 0.71166 0.81777 0.0
C690 C 0.54426 0.12581 0.10929 0.0
C691 C 0.5453 0.10594 0.1297 0.0
C692 C 0.5604 0.12294 0.08587 0.0
C693 C 0.62185 0.08628 0.05675 0.0
H694 H 0.58242 0.09948 0.99021 0.0
C695 C 0.63646 0.05913 0.93973 0.0
C696 C 0.66521 0.06588 0.93529 0.0
C697 C 0.62227 0.06574 0.96336 0.0
C698 C 0.59366 0.09563 0.00864 0.0
H699 H 0.56485 0.068 0.14202 0.0
H700 H 0.59296 0.06303 0.10117 0.0
H701 H 0.55767 0.10831 0.03227 0.0
H702 H 0.7015 0.08514 0.95207 0.0
H703 H 0.6767 0.09667 0.99317 0.0
H704 H 0.65759 0.07301 0.03319 0.0
C705 C 0.57977 0.08085 0.10329 0.0
C706 C 0.57962 0.10098 0.03268 0.0
C707 C 0.56355 0.08364 0.12664 0.0
C708 C 0.67939 0.07953 0.95489 0.0
C709 C 0.66524 0.08605 0.9785 0.0
C710 C 0.63591 0.08105 0.03272 0.0
C711 C 0.578 0.10025 0.0825 0.0
C712 C 0.59351 0.09614 0.05698 0.0
C713 C 0.63659 0.07914 0.98304 0.0
C714 C 0.62188 0.08547 0.00844 0.0
H715 H 0.53042 0.14325 0.11108 0.0
H716 H 0.55891 0.13836 0.07028 0.0
H717 H 0.63313 0.08254 0.07518 0.0
H718 H 0.62494 0.04859 0.92504 0.0
H719 H 0.60026 0.05991 0.96646 0.0
C720 C 0.60261 0.18552 0.62775 0.0
C721 C 0.60535 0.21333 0.6276 0.0
C722 C 0.60211 0.1706 0.6518 0.0
C723 C 0.59271 0.17568 0.72484 0.0
H724 H 0.64729 0.1165 0.72815 0.0
C725 C 0.64583 0.13804 0.82157 0.0
C726 C 0.65481 0.11123 0.82433 0.0
C727 C 0.63261 0.14758 0.79833 0.0
C728 C 0.63141 0.13253 0.72757 0.0
H729 H 0.60842 0.24741 0.65259 0.0
H730 H 0.60764 0.22141 0.69441 0.0
H731 H 0.63714 0.13867 0.68551 0.0
H732 H 0.65483 0.0729 0.80584 0.0
H733 H 0.63121 0.08945 0.76551 0.0
H734 H 0.58758 0.16997 0.76707 0.0
C735 C 0.60573 0.21112 0.676 0.0
C736 C 0.62564 0.14528 0.70306 0.0
C737 C 0.60642 0.226 0.652 0.0
C738 C 0.64846 0.09376 0.80418 0.0
C739 C 0.63507 0.10327 0.781 0.0
C740 C 0.59836 0.16282 0.74938 0.0
C741 C 0.60408 0.18323 0.67615 0.0
C742 C 0.60683 0.16744 0.70153 0.0
C743 C 0.62788 0.13047 0.77741 0.0
C744 C 0.61838 0.14155 0.75112 0.0
H745 H 0.60163 0.17517 0.60928 0.0
H746 H 0.6006 0.14914 0.65133 0.0
H747 H 0.57777 0.19247 0.72419 0.0
H748 H 0.65036 0.15203 0.83673 0.0
H749 H 0.62762 0.16869 0.7962 0.0
C750 C 0.10055 0.41802 0.08511 0.0
C751 C 0.12825 0.42832 0.0853 0.0
C752 C 0.08861 0.41071 0.06125 0.0
C753 C 0.09252 0.42911 0.99076 0.0
H754 H 0.04733 0.36652 0.9812 0.0
C755 C 0.04427 0.40966 0.88961 0.0
C756 C 0.01647 0.3997 0.88945 0.0
C757 C 0.05922 0.41026 0.91331 0.0
C758 C 0.05963 0.38424 0.98365 0.0
H759 H 0.16578 0.43754 0.06085 0.0
H760 H 0.14484 0.42493 0.01927 0.0
H761 H 0.07146 0.37192 0.02334 0.0
H762 H 0.98261 0.38215 0.9139 0.0
H763 H 0.00833 0.38401 0.95555 0.0
H764 H 0.08009 0.4421 0.95173 0.0
C765 C 0.1323 0.42275 0.03754 0.0
C766 C 0.07353 0.38724 0.00772 0.0
C767 C 0.14431 0.42986 0.06139 0.0
C768 C 0.00406 0.3899 0.91343 0.0
C769 C 0.01889 0.39082 0.93726 0.0
C770 C 0.07843 0.42629 0.96689 0.0
C771 C 0.10409 0.41375 0.03714 0.0
C772 C 0.09014 0.4097 0.01145 0.0
C773 C 0.04656 0.40128 0.93753 0.0
C774 C 0.06183 0.40382 0.96297 0.0
H775 H 0.08768 0.41647 0.10323 0.0
H776 H 0.06678 0.40391 0.06149 0.0
H777 H 0.10469 0.44691 0.99329 0.0
H778 H 0.05457 0.41702 0.87138 0.0
H779 H 0.08072 0.41785 0.91261 0.0
C780 C 0.84768 0.88329 0.31499 0.0
C781 C 0.8237 0.90056 0.31646 0.0
C782 C 0.85775 0.87449 0.29041 0.0
C783 C 0.85054 0.88438 0.21681 0.0
H784 H 0.86514 0.80808 0.21765 0.0
C785 C 0.84291 0.82074 0.12384 0.0
C786 C 0.86269 0.79953 0.12089 0.0
C787 C 0.84262 0.8357 0.14675 0.0
C788 C 0.86162 0.82948 0.21706 0.0
H789 H 0.79273 0.92362 0.29309 0.0
H790 H 0.8099 0.90792 0.25038 0.0
H791 H 0.8576 0.83024 0.25938 0.0
H792 H 0.89834 0.77801 0.1393 0.0
H793 H 0.89782 0.80413 0.17919 0.0
H794 H 0.85359 0.88325 0.17426 0.0
C795 C 0.82118 0.90132 0.26812 0.0
C796 C 0.85737 0.84224 0.24104 0.0
C797 C 0.81123 0.91027 0.29269 0.0
C798 C 0.88271 0.79412 0.14099 0.0
C799 C 0.88235 0.80901 0.16391 0.0
C800 C 0.85468 0.87155 0.19277 0.0
C801 C 0.84396 0.88262 0.26676 0.0
C802 C 0.85139 0.8698 0.24124 0.0
C803 C 0.86203 0.82972 0.16723 0.0
C804 C 0.8599 0.84389 0.19263 0.0
H805 H 0.85798 0.87567 0.33291 0.0
H806 H 0.87578 0.86059 0.29004 0.0
H807 H 0.84637 0.90568 0.21625 0.0
H808 H 0.82723 0.82547 0.10872 0.0
H809 H 0.82651 0.85135 0.14881 0.0
C810 C 0.35817 0.55601 0.57782 0.0
C811 C 0.32969 0.56545 0.57944 0.0
C812 C 0.3757 0.56353 0.5561 0.0
C813 C 0.38248 0.61366 0.50062 0.0
H814 H 0.42642 0.55798 0.4661 0.0
C815 C 0.42923 0.62675 0.39405 0.0
C816 C 0.45652 0.61565 0.38892 0.0
C817 C 0.41544 0.62186 0.41859 0.0
C818 C 0.41461 0.57385 0.47572 0.0
H819 H 0.2975 0.59065 0.55988 0.0
H820 H 0.32795 0.60354 0.52208 0.0
H821 H 0.39991 0.54749 0.50723 0.0
H822 H 0.49101 0.59114 0.40569 0.0
H823 H 0.46707 0.58288 0.44852 0.0
H824 H 0.39687 0.63994 0.46889 0.0
C825 C 0.33685 0.59056 0.53765 0.0
C826 C 0.39946 0.56783 0.4993 0.0
C827 C 0.31933 0.58299 0.55924 0.0
C828 C 0.4699 0.59987 0.40894 0.0
C829 C 0.45614 0.59502 0.43346 0.0
C830 C 0.39765 0.61968 0.47705 0.0
C831 C 0.36513 0.58073 0.53569 0.0
C832 C 0.38297 0.5876 0.51183 0.0
C833 C 0.42869 0.60581 0.4385 0.0
C834 C 0.41363 0.59977 0.46419 0.0
H835 H 0.36678 0.54248 0.59307 0.0
H836 H 0.39751 0.55583 0.55523 0.0
H837 H 0.37027 0.6294 0.51004 0.0
H838 H 0.41834 0.63895 0.37901 0.0
H839 H 0.39414 0.63019 0.42176 0.0
C840 C 0.20171 0.16774 0.4262 0.0
C841 C 0.17517 0.17656 0.41618 0.0
C842 C 0.22345 0.15882 0.40899 0.0
C843 C 0.26324 0.13109 0.36968 0.0
H844 H 0.27158 0.17173 0.30303 0.0
C845 C 0.3543 0.11063 0.29143 0.0
C846 C 0.367 0.13358 0.28005 0.0
C847 C 0.32952 0.11283 0.30748 0.0
C848 C 0.26963 0.16019 0.32159 0.0
H849 H 0.15012 0.18178 0.38043 0.0
H850 H 0.18763 0.1656 0.35058 0.0
H851 H 0.23122 0.18106 0.33243 0.0
H852 H 0.364 0.1768 0.2771 0.0
H853 H 0.32162 0.18055 0.3051 0.0
H854 H 0.3027 0.11119 0.35919 0.0
C855 C 0.19205 0.16624 0.3716 0.0
C856 C 0.2462 0.1653 0.33834 0.0
C857 C 0.17047 0.17543 0.38874 0.0
C858 C 0.35469 0.15865 0.28529 0.0
C859 C 0.33017 0.16083 0.30125 0.0
C860 C 0.28687 0.12608 0.35292 0.0
C861 C 0.21901 0.15828 0.38141 0.0
C862 C 0.24287 0.15112 0.3628 0.0
C863 C 0.31706 0.138 0.31233 0.0
C864 C 0.29062 0.14099 0.32894 0.0
H865 H 0.206 0.16838 0.44725 0.0
H866 H 0.24402 0.1532 0.41724 0.0
H867 H 0.26112 0.11949 0.38818 0.0
H868 H 0.36333 0.09104 0.28777 0.0
H869 H 0.31986 0.09486 0.31571 0.0
C870 C 0.067 0.11157 0.54332 0.0
C871 C 0.09326 0.11885 0.53147 0.0
C872 C 0.06489 0.08799 0.55869 0.0
C873 C 0.10702 0.03793 0.59705 0.0
H874 H 0.04077 0.99438 0.58761 0.0
C875 C 0.05804 0.92943 0.63345 0.0
C876 C 0.0616 0.93065 0.66106 0.0
C877 C 0.06481 0.95116 0.61658 0.0
C878 C 0.05957 0.00614 0.59026 0.0
H879 H 0.13805 0.10738 0.52677 0.0
H880 H 0.13428 0.06605 0.55362 0.0
H881 H 0.04673 0.03494 0.56023 0.0
H882 H 0.07602 0.95525 0.69253 0.0
H883 H 0.08753 0.99326 0.66309 0.0
H884 H 0.11988 0.00898 0.62707 0.0
C885 C 0.1154 0.0787 0.55112 0.0
C886 C 0.06279 0.02954 0.57482 0.0
C887 C 0.11751 0.10231 0.53568 0.0
C888 C 0.07298 0.9537 0.67135 0.0
C889 C 0.07976 0.97542 0.65447 0.0
C890 C 0.10377 0.0145 0.61256 0.0
C891 C 0.08899 0.0712 0.56255 0.0
C892 C 0.08637 0.04582 0.57825 0.0
C893 C 0.07528 0.97454 0.62697 0.0
C894 C 0.07988 0.99849 0.60946 0.0
H895 H 0.04795 0.12394 0.54056 0.0
H896 H 0.04436 0.08293 0.56763 0.0
H897 H 0.12534 0.05017 0.6002 0.0
H898 H 0.04945 0.91191 0.62487 0.0
H899 H 0.06152 0.94979 0.59542 0.0
C900 C 0.12012 0.82447 0.79412 0.0
C901 C 0.11232 0.85005 0.78419 0.0
C902 C 0.13984 0.82121 0.81448 0.0
C903 C 0.19821 0.85549 0.84631 0.0
H904 H 0.18968 0.79847 0.8999 0.0
C905 C 0.27987 0.83674 0.92959 0.0
C906 C 0.29023 0.81029 0.93207 0.0
C907 C 0.25563 0.84301 0.91463 0.0
C908 C 0.19231 0.81446 0.88504 0.0
H909 H 0.11879 0.89234 0.78804 0.0
H910 H 0.153 0.88665 0.82398 0.0
H911 H 0.15193 0.80732 0.86771 0.0
H912 H 0.28249 0.76952 0.9218 0.0
H913 H 0.24011 0.7805 0.89582 0.0
H914 H 0.2387 0.86246 0.86358 0.0
C915 C 0.14418 0.86909 0.8157 0.0
C916 C 0.17078 0.81948 0.86656 0.0
C917 C 0.12452 0.87236 0.79518 0.0
C918 C 0.27513 0.7901 0.92022 0.0
C919 C 0.25076 0.79636 0.90547 0.0
C920 C 0.21963 0.85059 0.86492 0.0
C921 C 0.15211 0.84346 0.82554 0.0
C922 C 0.17374 0.83972 0.84665 0.0
C923 C 0.24111 0.82292 0.9021 0.0
C924 C 0.21711 0.82973 0.88416 0.0
H925 H 0.11119 0.80686 0.78602 0.0
H926 H 0.14587 0.80117 0.8212 0.0
H927 H 0.20136 0.871 0.83105 0.0
H928 H 0.29099 0.85277 0.93848 0.0
H929 H 0.24846 0.86362 0.91254 0.0
C930 C 0.43289 0.04712 0.15292 0.0
C931 C 0.43545 0.07138 0.1383 0.0
C932 C 0.4246 0.02415 0.14043 0.0
C933 C 0.42784 0.97629 0.10523 0.0
H934 H 0.37383 0.97873 0.04761 0.0
C935 C 0.42325 0.89247 0.03051 0.0
C936 C 0.39643 0.88527 0.02128 0.0
C937 C 0.4258 0.91466 0.04616 0.0
C938 C 0.38872 0.97757 0.06385 0.0
H939 H 0.43028 0.09071 0.09931 0.0
H940 H 0.41633 0.05077 0.07757 0.0
H941 H 0.38032 0.01821 0.07333 0.0
H942 H 0.35117 0.89575 0.02138 0.0
H943 H 0.35557 0.9343 0.04902 0.0
H944 H 0.436 0.93558 0.09599 0.0
C945 C 0.42032 0.04943 0.09873 0.0
C946 C 0.39269 0.00033 0.07843 0.0
C947 C 0.42851 0.07237 0.1112 0.0
C948 C 0.37218 0.90081 0.02807 0.0
C949 C 0.37472 0.92299 0.04383 0.0
C950 C 0.4238 0.95352 0.09073 0.0
C951 C 0.41873 0.02491 0.11305 0.0
C952 C 0.41261 0.0001 0.09906 0.0
C953 C 0.40157 0.93018 0.05309 0.0
C954 C 0.40452 0.95397 0.06958 0.0
H955 H 0.43796 0.0457 0.17386 0.0
H956 H 0.42314 0.0057 0.15218 0.0
H957 H 0.44357 0.9754 0.12078 0.0
H958 H 0.4424 0.88103 0.02555 0.0
H959 H 0.44689 0.91987 0.05249 0.0
C960 C 0.84527 0.40448 0.71745 0.0
C961 C 0.86773 0.38801 0.70824 0.0
C962 C 0.81955 0.40661 0.70355 0.0
C963 C 0.78646 0.39362 0.63911 0.0
H964 H 0.72127 0.36971 0.68164 0.0
C965 C 0.69645 0.33442 0.59578 0.0
C966 C 0.66867 0.33598 0.60682 0.0
C967 C 0.71857 0.3487 0.60636 0.0
C968 C 0.73893 0.37707 0.66943 0.0
H969 H 0.88187 0.36243 0.67661 0.0
H970 H 0.83752 0.36659 0.65219 0.0
H971 H 0.76472 0.38215 0.70354 0.0
H972 H 0.64194 0.35501 0.63665 0.0
H973 H 0.6805 0.38027 0.65487 0.0
H974 H 0.7611 0.38776 0.60494 0.0
C975 C 0.83948 0.37768 0.67011 0.0
C976 C 0.76386 0.38421 0.68205 0.0
C977 C 0.86479 0.37512 0.6842 0.0
C978 C 0.66319 0.35316 0.62785 0.0
C979 C 0.68532 0.36757 0.63837 0.0
C980 C 0.76146 0.38672 0.62649 0.0
C981 C 0.81631 0.39285 0.67996 0.0
C982 C 0.78822 0.39153 0.66697 0.0
C983 C 0.71342 0.36504 0.62815 0.0
C984 C 0.7378 0.3773 0.64146 0.0
H985 H 0.84706 0.41453 0.73601 0.0
H986 H 0.80196 0.41842 0.71155 0.0
H987 H 0.80486 0.39951 0.62703 0.0
H988 H 0.70142 0.32141 0.57955 0.0
H989 H 0.73997 0.3459 0.59818 0.0
C990 C 0.88138 0.44612 0.87655 0.0
C991 C 0.8994 0.44592 0.85383 0.0
C992 C 0.87209 0.47017 0.8872 0.0
C993 C 0.85009 0.52437 0.90448 0.0
H994 H 0.91266 0.57336 0.90801 0.0
C995 C 0.84657 0.6222 0.965 0.0
C996 C 0.87132 0.62596 0.97976 0.0
C997 C 0.84575 0.60157 0.94694 0.0
C998 C 0.89491 0.55993 0.90716 0.0
H999 H 0.91965 0.47084 0.8231 0.0
H1000 H 0.903 0.51285 0.84141 0.0
H1001 H 0.91745 0.53538 0.87974 0.0
H1002 H 0.91395 0.61022 0.98814 0.0
H1003 H 0.91238 0.57456 0.95713 0.0
H1004 H 0.82825 0.54855 0.93315 0.0
C1005 C 0.89666 0.49438 0.8514 0.0
C1006 C 0.89749 0.5383 0.89063 0.0
C1007 C 0.90608 0.47029 0.84081 0.0
C1008 C 0.89466 0.60815 0.97688 0.0
C1009 C 0.89386 0.58776 0.95894 0.0
C1010 C 0.8475 0.54614 0.92108 0.0
C1011 C 0.88048 0.49462 0.87532 0.0
C1012 C 0.87545 0.51981 0.88959 0.0
C1013 C 0.86971 0.58455 0.94332 0.0
C1014 C 0.8703 0.56365 0.92318 0.0
H1015 H 0.87566 0.42771 0.88701 0.0
H1016 H 0.85985 0.46951 0.90571 0.0
H1017 H 0.83255 0.51071 0.90389 0.0
H1018 H 0.82825 0.63563 0.96677 0.0
H1019 H 0.82679 0.59948 0.93522 0.0
C1020 C 0.79529 0.68357 0.09125 0.0
C1021 C 0.82009 0.68292 0.10663 0.0
C1022 C 0.77046 0.67126 0.1008 0.0
C1023 C 0.7408 0.62348 0.15137 0.0
H1024 H 0.67411 0.67052 0.14722 0.0
C1025 C 0.63759 0.60951 0.21636 0.0
C1026 C 0.61178 0.61958 0.20587 0.0
C1027 C 0.66318 0.61222 0.2016 0.0
C1028 C 0.69225 0.65676 0.1481 0.0
H1029 H 0.83876 0.66748 0.14341 0.0
H1030 H 0.79524 0.6461 0.16014 0.0
H1031 H 0.71858 0.68418 0.12599 0.0
H1032 H 0.59172 0.6379 0.17112 0.0
H1033 H 0.63583 0.64136 0.1449 0.0
H1034 H 0.71429 0.59613 0.17382 0.0
C1035 C 0.79509 0.65608 0.14067 0.0
C1036 C 0.71785 0.6647 0.13595 0.0
C1037 C 0.81995 0.66849 0.13114 0.0
C1038 C 0.61149 0.63032 0.17974 0.0
C1039 C 0.63681 0.6325 0.16484 0.0
C1040 C 0.71498 0.61537 0.16342 0.0
C1041 C 0.76988 0.65795 0.1259 0.0
C1042 C 0.74246 0.64827 0.13756 0.0
C1043 C 0.66317 0.62468 0.17601 0.0
C1044 C 0.69041 0.63202 0.16203 0.0
H1045 H 0.79474 0.69427 0.07215 0.0
H1046 H 0.75146 0.67269 0.0888 0.0
H1047 H 0.75945 0.61036 0.15284 0.0
H1048 H 0.63829 0.60127 0.23656 0.0
H1049 H 0.68306 0.60603 0.21089 0.0
C1050 C 0.64755 0.3918 0.46261 0.0
C1051 C 0.63482 0.3687 0.45401 0.0
C1052 C 0.64811 0.41483 0.44599 0.0
C1053 C 0.6067 0.44433 0.38998 0.0
H1054 H 0.66086 0.50143 0.39267 0.0
C1055 C 0.58486 0.54213 0.33272 0.0
C1056 C 0.58513 0.56451 0.34865 0.0
C1057 C 0.59806 0.51821 0.34126 0.0
C1058 C 0.64566 0.48557 0.39166 0.0
H1059 H 0.61528 0.35042 0.42079 0.0
H1060 H 0.61774 0.38983 0.39128 0.0
H1061 H 0.67139 0.45853 0.41557 0.0
H1062 H 0.60174 0.58003 0.38483 0.0
H1063 H 0.62453 0.53815 0.39983 0.0
H1064 H 0.58076 0.47126 0.36661 0.0
C1065 C 0.62605 0.39086 0.41116 0.0
C1066 C 0.6516 0.46104 0.40485 0.0
C1067 C 0.62486 0.36819 0.42794 0.0
C1068 C 0.60095 0.56309 0.37218 0.0
C1069 C 0.61416 0.53912 0.38073 0.0
C1070 C 0.60095 0.46859 0.37667 0.0
C1071 C 0.63639 0.41487 0.42037 0.0
C1072 C 0.63197 0.44021 0.40445 0.0
C1073 C 0.61182 0.51615 0.36588 0.0
C1074 C 0.62012 0.48962 0.37762 0.0
H1075 H 0.65525 0.39264 0.48274 0.0
H1076 H 0.65612 0.43293 0.45387 0.0
H1077 H 0.59061 0.42918 0.38976 0.0
H1078 H 0.57319 0.54265 0.3143 0.0
H1079 H 0.59637 0.50094 0.32916 0.0
C1080 C 0.28598 0.35068 0.12039 0.0
C1081 C 0.25818 0.35026 0.13146 0.0
C1082 C 0.30366 0.3278 0.122 0.0
C1083 C 0.31159 0.26725 0.16499 0.0
H1084 H 0.36924 0.24605 0.11305 0.0
C1085 C 0.38084 0.17293 0.18237 0.0
C1086 C 0.41038 0.17546 0.17758 0.0
C1087 C 0.36166 0.19289 0.17356 0.0
C1088 C 0.3533 0.25185 0.12777 0.0
H1089 H 0.22613 0.32521 0.15065 0.0
H1090 H 0.25642 0.28527 0.15263 0.0
H1091 H 0.33627 0.28331 0.10228 0.0
H1092 H 0.44285 0.20056 0.15898 0.0
H1093 H 0.40929 0.23554 0.1438 0.0
H1094 H 0.32861 0.2362 0.19058 0.0
C1095 C 0.26508 0.30336 0.1436 0.0
C1096 C 0.33445 0.27317 0.12161 0.0
C1097 C 0.24764 0.32619 0.14231 0.0
C1098 C 0.42023 0.19804 0.16307 0.0
C1099 C 0.40099 0.218 0.1542 0.0
C1100 C 0.33027 0.24601 0.17107 0.0
C1101 C 0.29366 0.30414 0.13448 0.0
C1102 C 0.31335 0.28108 0.14018 0.0
C1103 C 0.37155 0.21584 0.15975 0.0
C1104 C 0.35134 0.23804 0.15258 0.0
H1105 H 0.29464 0.36904 0.11199 0.0
H1106 H 0.32559 0.3291 0.11482 0.0
H1107 H 0.29615 0.27323 0.18008 0.0
H1108 H 0.3725 0.15575 0.19336 0.0
H1109 H 0.33905 0.19047 0.17781 0.0
C1110 C 0.89714 0.30704 0.78794 0.0
C1111 C 0.90834 0.31983 0.80972 0.0
C1112 C 0.88084 0.28425 0.79193 0.0
C1113 C 0.86431 0.23008 0.8413 0.0
H1114 H 0.79652 0.22339 0.79904 0.0
C1115 C 0.78025 0.14915 0.86346 0.0
C1116 C 0.77005 0.13612 0.8414 0.0
C1117 C 0.79745 0.17143 0.8598 0.0
C1118 C 0.81553 0.22486 0.81081 0.0
H1119 H 0.91133 0.31854 0.85279 0.0
H1120 H 0.88255 0.27899 0.85972 0.0
H1121 H 0.82621 0.26239 0.79222 0.0
H1122 H 0.76988 0.13622 0.79823 0.0
H1123 H 0.79988 0.17504 0.7919 0.0
H1124 H 0.8534 0.19259 0.86003 0.0
C1125 C 0.88673 0.28637 0.83954 0.0
C1126 C 0.83258 0.24717 0.80688 0.0
C1127 C 0.90312 0.30913 0.83556 0.0
C1128 C 0.77734 0.14583 0.81565 0.0
C1129 C 0.79441 0.16816 0.812 0.0
C1130 C 0.84719 0.2078 0.8453 0.0
C1131 C 0.87527 0.27377 0.81778 0.0
C1132 C 0.85721 0.25001 0.82202 0.0
C1133 C 0.80463 0.18119 0.83402 0.0
C1134 C 0.82267 0.20494 0.83005 0.0
H1135 H 0.90088 0.31465 0.76776 0.0
H1136 H 0.87272 0.27475 0.77472 0.0
H1137 H 0.88335 0.23149 0.85304 0.0
H1138 H 0.77498 0.14215 0.88356 0.0
H1139 H 0.8048 0.18125 0.87714 0.0
C1140 C 0.12414 0.56926 0.14128 0.0
C1141 C 0.12176 0.54141 0.1419 0.0
C1142 C 0.10035 0.58572 0.13556 0.0
C1143 C 0.03316 0.58458 0.0997 0.0
H1144 H 0.01403 0.64938 0.13621 0.0
C1145 C 0.93231 0.64734 0.07416 0.0
C1146 C 0.935 0.67516 0.07309 0.0
C1147 C 0.95422 0.63092 0.08448 0.0
C1148 C 0.01927 0.63147 0.12564 0.0
H1149 H 0.09221 0.50902 0.13832 0.0
H1150 H 0.05092 0.5377 0.12843 0.0
H1151 H 0.05414 0.62112 0.15139 0.0
H1152 H 0.96277 0.70755 0.08209 0.0
H1153 H 0.00119 0.6789 0.09948 0.0
H1154 H -0.0011 0.59504 0.07358 0.0
C1155 C 0.07122 0.5468 0.13199 0.0
C1156 C 0.04218 0.6153 0.13439 0.0
C1157 C 0.09488 0.5304 0.13779 0.0
C1158 C 0.95997 0.68619 0.08272 0.0
C1159 C 0.98194 0.66977 0.09287 0.0
C1160 C 0.01042 0.60079 0.09086 0.0
C1161 C 0.07383 0.57458 0.13025 0.0
C1162 C 0.04932 0.59168 0.1215 0.0
C1163 C 0.97938 0.64193 0.09378 0.0
C1164 C 0.0032 0.62444 0.1037 0.0
H1165 H 0.14453 0.57835 0.14439 0.0
H1166 H 0.10298 0.60709 0.13424 0.0
H1167 H 0.0385 0.56672 0.08907 0.0
H1168 H 0.91327 0.63822 0.06706 0.0
H1169 H 0.95137 0.60957 0.08526 0.0
C1170 C 0.66949 0.85401 0.38537 0.0
C1171 C 0.69628 0.85867 0.37314 0.0
C1172 C 0.65316 0.83256 0.37808 0.0
C1173 C 0.64345 0.78725 0.32324 0.0
H1174 H 0.60572 0.7427 0.37727 0.0
C1175 C 0.59138 0.68806 0.29917 0.0
C1176 C 0.56572 0.68153 0.31264 0.0
C1177 C 0.60676 0.71018 0.30623 0.0
C1178 C 0.61579 0.75516 0.3619 0.0
H1179 H 0.72706 0.84433 0.34382 0.0
H1180 H 0.69865 0.80694 0.33126 0.0
H1181 H 0.63352 0.78031 0.3905 0.0
H1182 H 0.53573 0.69353 0.34369 0.0
H1183 H 0.56221 0.73235 0.35557 0.0
H1184 H 0.62565 0.76223 0.29461 0.0
C1185 C 0.69012 0.82002 0.34626 0.0
C1186 C 0.63175 0.77668 0.36951 0.0
C1187 C 0.70647 0.84136 0.35359 0.0
C1188 C 0.55552 0.69788 0.333 0.0
C1189 C 0.5708 0.72006 0.33995 0.0
C1190 C 0.62739 0.7658 0.31562 0.0
C1191 C 0.66325 0.81544 0.35834 0.0
C1192 C 0.64585 0.79288 0.35027 0.0
C1193 C 0.59673 0.72635 0.32682 0.0
C1194 C 0.61344 0.74944 0.33486 0.0
H1195 H 0.661 0.867 0.40046 0.0
H1196 H 0.63241 0.82966 0.38758 0.0
H1197 H 0.65373 0.79963 0.30794 0.0
H1198 H 0.59992 0.67581 0.28348 0.0
H1199 H 0.62683 0.71425 0.29593 0.0
C1200 C 0.5672 0.36286 0.56569 0.0
C1201 C 0.56376 0.33517 0.56539 0.0
C1202 C 0.54538 0.37933 0.5757 0.0
C1203 C 0.48924 0.40998 0.57985 0.0
H1204 H 0.43912 0.387 0.63831 0.0
C1205 C 0.37766 0.45538 0.59269 0.0
C1206 C 0.3676 0.46168 0.61825 0.0
C1207 C 0.4029 0.44064 0.58932 0.0
C1208 C 0.45315 0.39385 0.6222 0.0
H1209 H 0.53483 0.30302 0.57558 0.0
H1210 H 0.49653 0.33176 0.59226 0.0
H1211 H 0.48192 0.3604 0.62755 0.0
H1212 H 0.37574 0.45675 0.66046 0.0
H1213 H 0.4204 0.43076 0.6545 0.0
H1214 H 0.46065 0.4434 0.5745 0.0
C1215 C 0.51629 0.34075 0.58536 0.0
C1216 C 0.47747 0.37848 0.61582 0.0
C1217 C 0.53817 0.32428 0.57554 0.0
C1218 C 0.383 0.45219 0.64053 0.0
C1219 C 0.40849 0.43734 0.63711 0.0
C1220 C 0.46506 0.42532 0.58626 0.0
C1221 C 0.51955 0.3685 0.58544 0.0
C1222 C 0.49545 0.38608 0.59418 0.0
C1223 C 0.41891 0.43185 0.61139 0.0
C1224 C 0.44633 0.41708 0.60703 0.0
H1225 H 0.5868 0.37184 0.55831 0.0
H1226 H 0.54875 0.40058 0.57579 0.0
H1227 H 0.50242 0.41637 0.56295 0.0
H1228 H 0.36618 0.46206 0.57508 0.0
H1229 H 0.40989 0.43614 0.56929 0.0
C1230 C 0.16788 0.62588 0.61945 0.0
C1231 C 0.19778 0.62513 0.62185 0.0
C1232 C 0.15276 0.65021 0.61956 0.0
C1233 C 0.16126 0.72324 0.61208 0.0
H1234 H 0.09954 0.72644 0.66454 0.0
C1235 C 0.12825 0.81889 0.66447 0.0
C1236 C 0.0996 0.82277 0.67253 0.0
C1237 C 0.13691 0.79557 0.65208 0.0
C1238 C 0.11625 0.72589 0.64934 0.0
H1239 H 0.2354 0.64929 0.62505 0.0
H1240 H 0.20909 0.69152 0.62531 0.0
H1241 H 0.12061 0.68349 0.65348 0.0
H1242 H 0.05717 0.8061 0.67243 0.0
H1243 H 0.07225 0.76557 0.65046 0.0
H1244 H 0.15749 0.76575 0.60855 0.0
C1245 C 0.1973 0.67342 0.6232 0.0
C1246 C 0.12834 0.70124 0.64303 0.0
C1247 C 0.21235 0.64918 0.62332 0.0
C1248 C 0.0795 0.80353 0.66673 0.0
C1249 C 0.08813 0.78027 0.65422 0.0
C1250 C 0.14909 0.74791 0.61831 0.0
C1251 C 0.16734 0.67418 0.62177 0.0
C1252 C 0.15152 0.69974 0.62493 0.0
C1253 C 0.11706 0.77574 0.64736 0.0
C1254 C 0.12702 0.74956 0.6376 0.0
H1255 H 0.15609 0.60767 0.61821 0.0
H1256 H 0.12966 0.65027 0.61831 0.0
H1257 H 0.17885 0.7226 0.59776 0.0
H1258 H 0.14424 0.83336 0.66864 0.0
H1259 H 0.15942 0.79259 0.64735 0.0
C1260 C 0.44721 0.83272 0.9129 0.0
C1261 C 0.42169 0.84773 0.90988 0.0
C1262 C 0.4727 0.84181 0.90132 0.0
C1263 C 0.5056 0.89259 0.85539 0.0
H1264 H 0.56133 0.89495 0.91125 0.0
C1265 C 0.59736 0.96836 0.85538 0.0
C1266 C 0.62212 0.96105 0.86942 0.0
C1267 C 0.57465 0.95069 0.85462 0.0
C1268 C 0.5465 0.89399 0.89506 0.0
H1269 H 0.40236 0.88265 0.89018 0.0
H1270 H 0.44701 0.89869 0.87028 0.0
H1271 H 0.51842 0.86971 0.91886 0.0
H1272 H 0.64402 0.92906 0.89135 0.0
H1273 H 0.60529 0.89782 0.88887 0.0
H1274 H 0.53372 0.91746 0.83177 0.0
C1275 C 0.44728 0.87987 0.88152 0.0
C1276 C 0.52176 0.87947 0.8995 0.0
C1277 C 0.42172 0.87074 0.89308 0.0
C1278 C 0.62483 0.93528 0.88087 0.0
C1279 C 0.60255 0.91747 0.87955 0.0
C1280 C 0.53065 0.907 0.8508 0.0
C1281 C 0.47321 0.8661 0.88654 0.0
C1282 C 0.50084 0.87889 0.87991 0.0
C1283 C 0.57668 0.92532 0.86745 0.0
C1284 C 0.55122 0.90816 0.87078 0.0
H1285 H 0.44782 0.81468 0.92539 0.0
H1286 H 0.49232 0.83053 0.90509 0.0
H1287 H 0.48982 0.89243 0.83992 0.0
H1288 H 0.5949 0.98819 0.84639 0.0
H1289 H 0.55503 0.9575 0.84524 0.0
C1290 C 0.87985 0.02843 0.3656 0.0
C1291 C 0.86995 0.01681 0.38987 0.0
C1292 C 0.90345 0.04531 0.36504 0.0
C1293 C 0.94049 0.08947 0.40878 0.0
H1294 H 0.00746 0.08089 0.363 0.0
C1295 C 0.06602 0.11353 0.41407 0.0
C1296 C 0.06422 0.13915 0.42439 0.0
C1297 C 0.04196 0.10206 0.40351 0.0
C1298 C 0.98881 0.08363 0.37581 0.0
H1299 H 0.87793 0.01281 0.43228 0.0
H1300 H 0.91846 0.04199 0.4312 0.0
H1301 H 0.96569 0.05313 0.35711 0.0
H1302 H 0.03624 0.17361 0.42985 0.0
H1303 H 0.99433 0.1537 0.41117 0.0
H1304 H 0.96362 0.11892 0.42835 0.0
C1305 C 0.90789 0.03849 0.41271 0.0
C1306 C 0.96487 0.06789 0.37228 0.0
C1307 C 0.88468 0.02163 0.41325 0.0
C1308 C 0.03829 0.15372 0.42234 0.0
C1309 C 0.01424 0.14226 0.41172 0.0
C1310 C 0.96422 0.10521 0.41222 0.0
C1311 C 0.9172 0.05096 0.38876 0.0
C1312 C 0.94085 0.07013 0.38931 0.0
C1313 C 0.01554 0.11597 0.40297 0.0
C1314 C 0.98899 0.10202 0.39628 0.0
H1315 H 0.86896 0.02507 0.34725 0.0
H1316 H 0.91035 0.05461 0.34628 0.0
H1317 H 0.9221 0.09182 0.42201 0.0
H1318 H 0.0857 0.1018 0.41521 0.0
H1319 H 0.04373 0.08172 0.39717 0.0
loop_
_geom_bond_atom_site_label_1
_geom_bond_atom_site_label_2
_geom_bond_distance
_geom_bond_site_symmetry_2
_ccdc_geom_bond_type
Zn0 O6 1.969 . S
Zn0 O7 1.965 . S
Zn0 O11 2.024 . S
Zn0 O16 1.969 . S
Zn1 O8 1.969 . S
Zn1 O14 1.969 . S
Zn1 O15 1.965 . S
Zn1 O17 2.024 . S
C2 O3 1.229 . S
C2 O11 1.058 . S
O3 C2 1.229 . S
C4 O5 1.229 . S
C4 O17 1.058 . S
O5 C4 1.229 . S
O6 Zn0 1.969 . S
O6 C9 1.267 . S
O7 Zn0 1.965 . S
O7 C18 1.260 . S
O8 Zn1 1.969 . S
O8 C18 1.258 . S
C9 O6 1.267 . S
C9 O10 1.228 . S
O10 C9 1.228 . S
O11 Zn0 2.024 . S
O11 C2 1.058 . S
C12 O13 1.228 . S
C12 O14 1.267 . S
O13 C12 1.228 . S
O14 Zn1 1.969 . S
O14 C12 1.267 . S
O15 Zn1 1.965 . S
O15 C19 1.260 . S
O16 Zn0 1.969 . S
O16 C19 1.258 . S
O17 Zn1 2.024 . S
O17 C4 1.058 . S
C18 O7 1.260 . S
C18 O8 1.258 . S
C19 O15 1.260 . S
C19 O16 1.258 . S
Zn20 O26 1.969 . S
Zn20 O27 1.965 1_655 S
Zn20 O31 2.024 . S
Zn20 O36 1.969 . S
Zn21 O28 1.969 . S
Zn21 O34 1.969 . S
Zn21 O35 1.965 . S
Zn21 O37 2.024 . S
C22 O23 1.229 . S
C22 O31 1.058 . S
O23 C22 1.229 . S
C24 O25 1.229 . S
C24 O37 1.058 . S
O25 C24 1.229 . S
O26 Zn20 1.969 . S
O26 C29 1.267 . S
O27 Zn20 1.965 1_455 S
O27 C38 1.260 . S
O28 Zn21 1.969 . S
O28 C38 1.258 . S
C29 O26 1.267 . S
C29 O30 1.228 . S
O30 C29 1.228 . S
O31 Zn20 2.024 . S
O31 C22 1.058 . S
C32 O33 1.228 . S
C32 O34 1.267 . S
O33 C32 1.228 . S
O34 Zn21 1.969 . S
O34 C32 1.267 . S
O35 Zn21 1.965 . S
O35 C39 1.260 . S
O36 Zn20 1.969 . S
O36 C39 1.258 1_655 S
O37 Zn21 2.024 . S
O37 C24 1.058 . S
C38 O27 1.260 . S
C38 O28 1.258 . S
C39 O35 1.260 . S
C39 O36 1.258 1_455 S
Zn40 O46 1.969 . S
Zn40 O47 1.965 . S
Zn40 O51 2.024 . S
Zn40 O56 1.969 . S
Zn41 O48 1.969 . S
Zn41 O54 1.969 . S
Zn41 O55 1.965 . S
Zn41 O57 2.024 . S
C42 O43 1.229 . S
C42 O51 1.058 . S
O43 C42 1.229 . S
C44 O45 1.229 . S
C44 O57 1.058 . S
O45 C44 1.229 . S
O46 Zn40 1.969 . S
O46 C49 1.267 . S
O47 Zn40 1.965 . S
O47 C58 1.260 . S
O48 Zn41 1.969 . S
O48 C58 1.258 . S
C49 O46 1.267 . S
C49 O50 1.228 . S
O50 C49 1.228 . S
O51 Zn40 2.024 . S
O51 C42 1.058 . S
C52 O53 1.228 . S
C52 O54 1.267 1_554 S
O53 C52 1.228 . S
O54 Zn41 1.969 . S
O54 C52 1.267 1_556 S
O55 Zn41 1.965 . S
O55 C59 1.260 . S
O56 Zn40 1.969 . S
O56 C59 1.258 . S
O57 Zn41 2.024 . S
O57 C44 1.058 . S
C58 O47 1.260 . S
C58 O48 1.258 . S
C59 O55 1.260 . S
C59 O56 1.258 . S
Zn60 O66 1.969 . S
Zn60 O67 1.965 . S
Zn60 O71 2.024 . S
Zn60 O76 1.969 . S
Zn61 O68 1.969 . S
Zn61 O74 1.969 . S
Zn61 O75 1.965 . S
Zn61 O77 2.024 . S
C62 O63 1.229 . S
C62 O71 1.058 . S
O63 C62 1.229 . S
C64 O65 1.229 . S
C64 O77 1.058 . S
O65 C64 1.229 . S
O66 Zn60 1.969 . S
O66 C69 1.267 . S
O67 Zn60 1.965 . S
O67 C78 1.260 . S
O68 Zn61 1.969 . S
O68 C78 1.258 . S
C69 O66 1.267 . S
C69 O70 1.228 . S
O70 C69 1.228 . S
O71 Zn60 2.024 . S
O71 C62 1.058 . S
C72 O73 1.228 . S
C72 O74 1.267 . S
O73 C72 1.228 . S
O74 Zn61 1.969 . S
O74 C72 1.267 . S
O75 Zn61 1.965 . S
O75 C79 1.260 . S
O76 Zn60 1.969 . S
O76 C79 1.258 . S
O77 Zn61 2.024 . S
O77 C64 1.058 . S
C78 O67 1.260 . S
C78 O68 1.258 . S
C79 O75 1.260 . S
C79 O76 1.258 . S
Zn80 O86 1.969 . S
Zn80 O87 1.965 . S
Zn80 O91 2.024 . S
Zn80 O96 1.969 . S
Zn81 O88 1.969 . S
Zn81 O94 1.969 . S
Zn81 O95 1.965 . S
Zn81 O97 2.024 . S
C82 O83 1.229 . S
C82 O91 1.058 . S
O83 C82 1.229 . S
C84 O85 1.229 . S
C84 O97 1.058 . S
O85 C84 1.229 . S
O86 Zn80 1.969 . S
O86 C89 1.267 . S
O87 Zn80 1.965 . S
O87 C98 1.260 . S
O88 Zn81 1.969 . S
O88 C98 1.258 . S
C89 O86 1.267 . S
C89 O90 1.228 . S
O90 C89 1.228 . S
O91 Zn80 2.024 . S
O91 C82 1.058 . S
C92 O93 1.228 . S
C92 O94 1.267 . S
O93 C92 1.228 . S
O94 Zn81 1.969 . S
O94 C92 1.267 . S
O95 Zn81 1.965 . S
O95 C99 1.260 . S
O96 Zn80 1.969 . S
O96 C99 1.258 . S
O97 Zn81 2.024 . S
O97 C84 1.058 . S
C98 O87 1.260 . S
C98 O88 1.258 . S
C99 O95 1.260 . S
C99 O96 1.258 . S
Zn100 O106 1.969 . S
Zn100 O107 1.965 . S
Zn100 O111 2.024 . S
Zn100 O116 1.969 . S
Zn101 O108 1.969 . S
Zn101 O114 1.969 1_655 S
Zn101 O115 1.965 . S
Zn101 O117 2.024 . S
C102 O103 1.229 . S
C102 O111 1.058 . S
O103 C102 1.229 . S
C104 O105 1.229 . S
C104 O117 1.058 . S
O105 C104 1.229 . S
O106 Zn100 1.969 . S
O106 C109 1.267 . S
O107 Zn100 1.965 . S
O107 C118 1.260 . S
O108 Zn101 1.969 . S
O108 C118 1.258 . S
C109 O106 1.267 . S
C109 O110 1.228 . S
O110 C109 1.228 . S
O111 Zn100 2.024 . S
O111 C102 1.058 . S
C112 O113 1.228 . S
C112 O114 1.267 . S
O113 C112 1.228 . S
O114 Zn101 1.969 1_455 S
O114 C112 1.267 . S
O115 Zn101 1.965 . S
O115 C119 1.260 . S
O116 Zn100 1.969 . S
O116 C119 1.258 . S
O117 Zn101 2.024 . S
O117 C104 1.058 . S
C118 O107 1.260 . S
C118 O108 1.258 . S
C119 O115 1.260 . S
C119 O116 1.258 . S
Zn120 O126 1.969 . S
Zn120 O127 1.965 1_556 S
Zn120 O131 2.024 . S
Zn120 O136 1.969 . S
Zn121 O128 1.969 . S
Zn121 O134 1.969 . S
Zn121 O135 1.965 . S
Zn121 O137 2.024 . S
C122 O123 1.229 . S
C122 O131 1.058 . S
O123 C122 1.229 . S
C124 O125 1.229 . S
C124 O137 1.058 . S
O125 C124 1.229 . S
O126 Zn120 1.969 . S
O126 C129 1.267 . S
O127 Zn120 1.965 1_554 S
O127 C138 1.260 . S
O128 Zn121 1.969 . S
O128 C138 1.258 . S
C129 O126 1.267 . S
C129 O130 1.228 . S
O130 C129 1.228 . S
O131 Zn120 2.024 . S
O131 C122 1.058 . S
C132 O133 1.228 . S
C132 O134 1.267 . S
O133 C132 1.228 . S
O134 Zn121 1.969 . S
O134 C132 1.267 . S
O135 Zn121 1.965 . S
O135 C139 1.260 . S
O136 Zn120 1.969 . S
O136 C139 1.258 1_556 S
O137 Zn121 2.024 . S
O137 C124 1.058 . S
C138 O127 1.260 . S
C138 O128 1.258 . S
C139 O135 1.260 . S
C139 O136 1.258 1_554 S
Zn140 O146 1.969 . S
Zn140 O147 1.965 . S
Zn140 O151 2.024 . S
Zn140 O156 1.969 . S
Zn141 O148 1.969 . S
Zn141 O154 1.969 . S
Zn141 O155 1.965 . S
Zn141 O157 2.024 . S
C142 O143 1.229 . S
C142 O151 1.058 . S
O143 C142 1.229 . S
C144 O145 1.229 . S
C144 O157 1.058 . S
O145 C144 1.229 . S
O146 Zn140 1.969 . S
O146 C149 1.267 . S
O147 Zn140 1.965 . S
O147 C158 1.260 . S
O148 Zn141 1.969 . S
O148 C158 1.258 . S
C149 O146 1.267 . S
C149 O150 1.228 . S
O150 C149 1.228 . S
O151 Zn140 2.024 . S
O151 C142 1.058 . S
C152 O153 1.228 . S
C152 O154 1.267 . S
O153 C152 1.228 . S
O154 Zn141 1.969 . S
O154 C152 1.267 . S
O155 Zn141 1.965 . S
O155 C159 1.260 . S
O156 Zn140 1.969 . S
O156 C159 1.258 . S
O157 Zn141 2.024 . S
O157 C144 1.058 . S
C158 O147 1.260 . S
C158 O148 1.258 . S
C159 O155 1.260 . S
C159 O156 1.258 . S
Zn160 O166 1.969 . S
Zn160 O167 1.965 . S
Zn160 O171 2.024 . S
Zn160 O176 1.969 . S
Zn161 O168 1.969 . S
Zn161 O174 1.969 . S
Zn161 O175 1.965 . S
Zn161 O177 2.024 . S
C162 O163 1.229 . S
C162 O171 1.058 . S
O163 C162 1.229 . S
C164 O165 1.229 . S
C164 O177 1.058 . S
O165 C164 1.229 . S
O166 Zn160 1.969 . S
O166 C169 1.267 . S
O167 Zn160 1.965 . S
O167 C178 1.260 . S
O168 Zn161 1.969 . S
O168 C178 1.258 . S
C169 O166 1.267 . S
C169 O170 1.228 . S
O170 C169 1.228 . S
O171 Zn160 2.024 . S
O171 C162 1.058 . S
C172 O173 1.228 . S
C172 O174 1.267 . S
O173 C172 1.228 . S
O174 Zn161 1.969 . S
O174 C172 1.267 . S
O175 Zn161 1.965 . S
O175 C179 1.260 . S
O176 Zn160 1.969 . S
O176 C179 1.258 . S
O177 Zn161 2.024 . S
O177 C164 1.058 . S
C178 O167 1.260 . S
C178 O168 1.258 . S
C179 O175 1.260 . S
C179 O176 1.258 . S
Zn180 O186 1.969 1_545 S
Zn180 O187 1.965 . S
Zn180 O191 2.024 . S
Zn180 O196 1.969 . S
Zn181 O188 1.969 . S
Zn181 O194 1.969 . S
Zn181 O195 1.965 . S
Zn181 O197 2.024 . S
C182 O183 1.229 . S
C182 O191 1.058 1_565 S
O183 C182 1.229 . S
C184 O185 1.229 . S
C184 O197 1.058 . S
O185 C184 1.229 . S
O186 Zn180 1.969 1_565 S
O186 C189 1.267 . S
O187 Zn180 1.965 . S
O187 C198 1.260 . S
O188 Zn181 1.969 . S
O188 C198 1.258 . S
C189 O186 1.267 . S
C189 O190 1.228 . S
O190 C189 1.228 . S
O191 Zn180 2.024 . S
O191 C182 1.058 1_545 S
C192 O193 1.228 . S
C192 O194 1.267 . S
O193 C192 1.228 . S
O194 Zn181 1.969 . S
O194 C192 1.267 . S
O195 Zn181 1.965 . S
O195 C199 1.260 . S
O196 Zn180 1.969 . S
O196 C199 1.258 . S
O197 Zn181 2.024 . S
O197 C184 1.058 . S
C198 O187 1.260 . S
C198 O188 1.258 . S
C199 O195 1.260 . S
C199 O196 1.258 . S
Zn200 O206 1.969 1_565 S
Zn200 O207 1.965 . S
Zn200 O211 2.024 . S
Zn200 O216 1.969 . S
Zn201 O208 1.969 . S
Zn201 O214 1.969 . S
Zn201 O215 1.965 . S
Zn201 O217 2.024 . S
C202 O203 1.229 . S
C202 O211 1.058 1_545 S
O203 C202 1.229 . S
C204 O205 1.229 . S
C204 O217 1.058 . S
O205 C204 1.229 . S
O206 Zn200 1.969 1_545 S
O206 C209 1.267 . S
O207 Zn200 1.965 . S
O207 C218 1.260 . S
O208 Zn201 1.969 . S
O208 C218 1.258 . S
C209 O206 1.267 . S
C209 O210 1.228 . S
O210 C209 1.228 . S
O211 Zn200 2.024 . S
O211 C202 1.058 1_565 S
C212 O213 1.228 . S
C212 O214 1.267 . S
O213 C212 1.228 . S
O214 Zn201 1.969 . S
O214 C212 1.267 . S
O215 Zn201 1.965 . S
O215 C219 1.260 . S
O216 Zn200 1.969 . S
O216 C219 1.258 . S
O217 Zn201 2.024 . S
O217 C204 1.058 . S
C218 O207 1.260 . S
C218 O208 1.258 . S
C219 O215 1.260 . S
C219 O216 1.258 . S
Zn220 O226 1.969 . S
Zn220 O227 1.965 . S
Zn220 O231 2.024 . S
Zn220 O236 1.969 . S
Zn221 O228 1.969 . S
Zn221 O234 1.969 . S
Zn221 O235 1.965 . S
Zn221 O237 2.024 . S
C222 O223 1.229 . S
C222 O231 1.058 . S
O223 C222 1.229 . S
C224 O225 1.229 . S
C224 O237 1.058 . S
O225 C224 1.229 . S
O226 Zn220 1.969 . S
O226 C229 1.267 . S
O227 Zn220 1.965 . S
O227 C238 1.260 . S
O228 Zn221 1.969 . S
O228 C238 1.258 . S
C229 O226 1.267 . S
C229 O230 1.228 . S
O230 C229 1.228 . S
O231 Zn220 2.024 . S
O231 C222 1.058 . S
C232 O233 1.228 . S
C232 O234 1.267 . S
O233 C232 1.228 . S
O234 Zn221 1.969 . S
O234 C232 1.267 . S
O235 Zn221 1.965 . S
O235 C239 1.260 . S
O236 Zn220 1.969 . S
O236 C239 1.258 . S
O237 Zn221 2.024 . S
O237 C224 1.058 . S
C238 O227 1.260 . S
C238 O228 1.258 . S
C239 O235 1.260 . S
C239 O236 1.258 . S
C240 C241 1.349 . S
C240 C242 1.327 . S
C240 H265 0.950 . S
C241 C240 1.349 . S
C241 C257 1.349 . S
C242 C240 1.327 . S
C242 C261 1.429 . S
C242 H266 0.950 . S
C243 C260 1.574 . S
C243 C262 1.368 . S
C243 H267 0.949 . S
H244 C248 0.949 . S
C245 C246 1.349 . S
C245 C247 1.327 . S
C245 H268 0.950 . S
C246 C245 1.349 . S
C246 C258 1.349 . S
C247 C245 1.327 . S
C247 C263 1.429 . S
C247 H269 0.950 . S
C248 H244 0.949 . S
C248 C256 1.574 . S
C248 C264 1.368 . S
H249 C257 0.950 . S
H250 C255 0.950 . S
H251 C256 0.949 . S
H252 C258 0.950 . S
H253 C259 0.950 . S
H254 C260 0.949 . S
C255 H250 0.950 . S
C255 C257 1.327 . S
C255 C261 1.429 . S
C256 C248 1.574 . S
C256 H251 0.949 . S
C256 C262 1.368 . S
C257 C241 1.349 . S
C257 H249 0.950 . S
C257 C255 1.327 . S
C258 C246 1.349 . S
C258 H252 0.950 . S
C258 C259 1.327 . S
C259 H253 0.950 . S
C259 C258 1.327 . S
C259 C263 1.429 . S
C260 C243 1.574 . S
C260 H254 0.949 . S
C260 C264 1.368 . S
C261 C242 1.429 . S
C261 C255 1.429 . S
C261 C262 1.523 . S
C262 C243 1.368 . S
C262 C256 1.368 . S
C262 C261 1.523 . S
C263 C247 1.429 . S
C263 C259 1.429 . S
C263 C264 1.523 . S
C264 C248 1.368 . S
C264 C260 1.368 . S
C264 C263 1.523 . S
H265 C240 0.950 . S
H266 C242 0.950 . S
H267 C243 0.949 . S
H268 C245 0.950 . S
H269 C247 0.950 . S
C270 C271 1.319 1_565 S
C270 C272 1.340 . S
C270 H295 0.968 . S
C271 C270 1.319 1_545 S
C271 C287 1.349 . S
C272 C270 1.340 . S
C272 C291 1.429 1_565 S
C272 H296 0.950 . S
C273 C290 1.560 1_545 S
C273 C292 1.368 1_545 S
C273 H297 0.949 . S
H274 C278 0.949 . S
C275 C276 1.349 . S
C275 C277 1.327 . S
C275 H298 0.950 . S
C276 C275 1.349 . S
C276 C288 1.349 . S
C277 C275 1.327 . S
C277 C293 1.429 . S
C277 H299 0.950 . S
C278 H274 0.949 . S
C278 C286 1.574 . S
C278 C294 1.368 . S
H279 C287 0.950 . S
H280 C285 0.950 . S
H281 C286 0.949 . S
H282 C288 0.950 . S
H283 C289 0.950 . S
H284 C290 0.931 1_545 S
C285 H280 0.950 . S
C285 C287 1.327 . S
C285 C291 1.429 . S
C286 C278 1.574 . S
C286 H281 0.949 . S
C286 C292 1.368 . S
C287 C271 1.349 . S
C287 H279 0.950 . S
C287 C285 1.327 . S
C288 C276 1.349 . S
C288 H282 0.950 . S
C288 C289 1.327 . S
C289 H283 0.950 . S
C289 C288 1.327 . S
C289 C293 1.429 . S
C290 C273 1.560 1_565 S
C290 H284 0.931 1_565 S
C290 C294 1.403 . S
C291 C272 1.429 1_545 S
C291 C285 1.429 . S
C291 C292 1.523 1_545 S
C292 C273 1.368 1_565 S
C292 C286 1.368 . S
C292 C291 1.523 1_565 S
C293 C277 1.429 . S
C293 C289 1.429 . S
C293 C294 1.523 . S
C294 C278 1.368 . S
C294 C290 1.403 . S
C294 C293 1.523 . S
H295 C270 0.968 . S
H296 C272 0.950 . S
H297 C273 0.949 . S
H298 C275 0.950 . S
H299 C277 0.950 . S
C300 C301 1.349 . S
C300 C302 1.327 . S
C300 H325 0.950 . S
C301 C300 1.349 . S
C301 C317 1.349 1_556 S
C302 C300 1.327 . S
C302 C321 1.429 1_556 S
C302 H326 0.950 . S
C303 C320 1.574 . S
C303 C322 1.368 . S
C303 H327 0.949 . S
H304 C308 0.949 . S
C305 C306 1.349 . S
C305 C307 1.327 . S
C305 H328 0.950 . S
C306 C305 1.349 . S
C306 C318 1.349 . S
C307 C305 1.327 . S
C307 C323 1.429 . S
C307 H329 0.950 . S
C308 H304 0.949 . S
C308 C316 1.574 . S
C308 C324 1.368 . S
H309 C317 0.950 . S
H310 C315 0.950 . S
H311 C316 0.952 . S
H312 C318 0.950 . S
H313 C319 0.950 . S
H314 C320 0.949 . S
C315 H310 0.950 . S
C315 C317 1.327 . S
C315 C321 1.429 . S
C316 C308 1.574 . S
C316 H311 0.952 . S
C316 C322 1.368 . S
C317 C301 1.349 1_554 S
C317 H309 0.950 . S
C317 C315 1.327 . S
C318 C306 1.349 . S
C318 H312 0.950 . S
C318 C319 1.327 . S
C319 H313 0.950 . S
C319 C318 1.327 . S
C319 C323 1.429 . S
C320 C303 1.574 . S
C320 H314 0.949 . S
C320 C324 1.368 . S
C321 C302 1.429 1_554 S
C321 C315 1.429 . S
C321 C322 1.523 . S
C322 C303 1.368 . S
C322 C316 1.368 . S
C322 C321 1.523 . S
C323 C307 1.429 . S
C323 C319 1.429 . S
C323 C324 1.523 . S
C324 C308 1.368 . S
C324 C320 1.368 . S
C324 C323 1.523 . S
H325 C300 0.950 . S
H326 C302 0.950 . S
H327 C303 0.949 . S
H328 C305 0.950 . S
H329 C307 0.950 . S
C330 C331 1.349 . S
C330 C332 1.327 . S
C330 H355 0.950 . S
C331 C330 1.349 . S
C331 C347 1.349 . S
C332 C330 1.327 . S
C332 C351 1.429 . S
C332 H356 0.950 . S
C333 C350 1.574 . S
C333 C352 1.368 . S
C333 H357 0.949 . S
H334 C338 0.949 . S
C335 C336 1.349 . S
C335 C337 1.327 . S
C335 H358 0.950 . S
C336 C335 1.349 . S
C336 C348 1.338 1_565 S
C337 C335 1.327 . S
C337 C353 1.429 1_565 S
C337 H359 0.950 . S
C338 H334 0.949 . S
C338 C346 1.574 . S
C338 C354 1.368 . S
H339 C347 0.950 . S
H340 C345 0.950 . S
H341 C346 0.949 . S
H342 C348 0.953 . S
H343 C349 0.950 . S
H344 C350 0.949 . S
C345 H340 0.950 . S
C345 C347 1.327 . S
C345 C351 1.429 . S
C346 C338 1.574 . S
C346 H341 0.949 . S
C346 C352 1.368 . S
C347 C331 1.349 . S
C347 H339 0.950 . S
C347 C345 1.327 . S
C348 C336 1.338 1_545 S
C348 H342 0.953 . S
C348 C349 1.335 . S
C349 H343 0.950 . S
C349 C348 1.335 . S
C349 C353 1.429 . S
C350 C333 1.574 . S
C350 H344 0.949 . S
C350 C354 1.368 . S
C351 C332 1.429 . S
C351 C345 1.429 . S
C351 C352 1.523 . S
C352 C333 1.368 . S
C352 C346 1.368 . S
C352 C351 1.523 . S
C353 C337 1.429 1_545 S
C353 C349 1.429 . S
C353 C354 1.523 . S
C354 C338 1.368 . S
C354 C350 1.368 . S
C354 C353 1.523 . S
H355 C330 0.950 . S
H356 C332 0.950 . S
H357 C333 0.949 . S
H358 C335 0.950 . S
H359 C337 0.950 . S
C360 C361 1.349 . S
C360 C362 1.327 . S
C360 H385 0.950 . S
C361 C360 1.349 . S
C361 C377 1.349 . S
C362 C360 1.327 . S
C362 C381 1.429 . S
C362 H386 0.950 . S
C363 C380 1.574 . S
C363 C382 1.368 . S
C363 H387 0.949 . S
H364 C368 0.949 . S
C365 C366 1.349 . S
C365 C367 1.327 . S
C365 H388 0.950 . S
C366 C365 1.349 . S
C366 C378 1.349 . S
C367 C365 1.327 . S
C367 C383 1.429 . S
C367 H389 0.950 . S
C368 H364 0.949 . S
C368 C376 1.574 . S
C368 C384 1.368 . S
H369 C377 0.950 . S
H370 C375 0.950 . S
H371 C376 0.949 . S
H372 C378 0.950 . S
H373 C379 0.950 . S
H374 C380 0.949 . S
C375 H370 0.950 . S
C375 C377 1.327 . S
C375 C381 1.429 . S
C376 C368 1.574 . S
C376 H371 0.949 . S
C376 C382 1.368 . S
C377 C361 1.349 . S
C377 H369 0.950 . S
C377 C375 1.327 . S
C378 C366 1.349 . S
C378 H372 0.950 . S
C378 C379 1.327 . S
C379 H373 0.950 . S
C379 C378 1.327 . S
C379 C383 1.429 . S
C380 C363 1.574 . S
C380 H374 0.949 . S
C380 C384 1.368 . S
C381 C362 1.429 . S
C381 C375 1.429 . S
C381 C382 1.523 . S
C382 C363 1.368 . S
C382 C376 1.368 . S
C382 C381 1.523 . S
C383 C367 1.429 . S
C383 C379 1.429 . S
C383 C384 1.523 . S
C384 C368 1.368 . S
C384 C380 1.368 . S
C384 C383 1.523 . S
H385 C360 0.950 . S
H386 C362 0.950 . S
H387 C363 0.949 . S
H388 C365 0.950 . S
H389 C367 0.950 . S
C390 C391 1.349 . S
C390 C392 1.327 . S
C390 H415 0.950 . S
C391 C390 1.349 . S
C391 C407 1.349 . S
C392 C390 1.327 . S
C392 C411 1.429 . S
C392 H416 0.950 . S
C393 C410 1.574 . S
C393 C412 1.368 . S
C393 H417 0.949 . S
H394 C398 0.949 . S
C395 C396 1.349 . S
C395 C397 1.327 . S
C395 H418 0.950 . S
C396 C395 1.349 . S
C396 C408 1.349 . S
C397 C395 1.327 . S
C397 C413 1.429 . S
C397 H419 0.950 . S
C398 H394 0.949 . S
C398 C406 1.574 . S
C398 C414 1.368 . S
H399 C407 0.950 . S
H400 C405 0.950 . S
H401 C406 0.949 . S
H402 C408 0.950 . S
H403 C409 0.950 . S
H404 C410 0.949 . S
C405 H400 0.950 . S
C405 C407 1.327 . S
C405 C411 1.429 . S
C406 C398 1.574 . S
C406 H401 0.949 . S
C406 C412 1.368 . S
C407 C391 1.349 . S
C407 H399 0.950 . S
C407 C405 1.327 . S
C408 C396 1.349 . S
C408 H402 0.950 . S
C408 C409 1.327 . S
C409 H403 0.950 . S
C409 C408 1.327 . S
C409 C413 1.429 . S
C410 C393 1.574 . S
C410 H404 0.949 . S
C410 C414 1.368 . S
C411 C392 1.429 . S
C411 C405 1.429 . S
C411 C412 1.523 . S
C412 C393 1.368 . S
C412 C406 1.368 . S
C412 C411 1.523 . S
C413 C397 1.429 . S
C413 C409 1.429 . S
C413 C414 1.523 . S
C414 C398 1.368 . S
C414 C410 1.368 . S
C414 C413 1.523 . S
H415 C390 0.950 . S
H416 C392 0.950 . S
H417 C393 0.949 . S
H418 C395 0.950 . S
H419 C397 0.950 . S
C420 C421 1.349 . S
C420 C422 1.327 . S
C420 H445 0.950 . S
C421 C420 1.349 . S
C421 C437 1.349 . S
C422 C420 1.327 . S
C422 C441 1.429 . S
C422 H446 0.950 . S
C423 C440 1.574 . S
C423 C442 1.368 . S
C423 H447 0.949 . S
H424 C428 0.949 . S
C425 C426 1.349 . S
C425 C427 1.323 1_554 S
C425 H448 0.950 . S
C426 C425 1.349 . S
C426 C438 1.349 1_554 S
C427 C425 1.323 1_556 S
C427 C443 1.435 . S
C427 H449 0.946 1_556 S
C428 H424 0.949 . S
C428 C436 1.574 . S
C428 C444 1.368 . S
H429 C437 0.950 . S
H430 C435 0.950 . S
H431 C436 0.949 . S
H432 C438 0.950 . S
H433 C439 0.950 . S
H434 C440 0.949 . S
C435 H430 0.950 . S
C435 C437 1.327 . S
C435 C441 1.429 . S
C436 C428 1.574 . S
C436 H431 0.949 . S
C436 C442 1.368 . S
C437 C421 1.349 . S
C437 H429 0.950 . S
C437 C435 1.327 . S
C438 C426 1.349 1_556 S
C438 H432 0.950 . S
C438 C439 1.327 . S
C439 H433 0.950 . S
C439 C438 1.327 . S
C439 C443 1.429 . S
C440 C423 1.574 . S
C440 H434 0.949 . S
C440 C444 1.368 . S
C441 C422 1.429 . S
C441 C435 1.429 . S
C441 C442 1.523 . S
C442 C423 1.368 . S
C442 C436 1.368 . S
C442 C441 1.523 . S
C443 C427 1.435 . S
C443 C439 1.429 . S
C443 C444 1.523 . S
C444 C428 1.368 . S
C444 C440 1.368 . S
C444 C443 1.523 . S
H445 C420 0.950 . S
H446 C422 0.950 . S
H447 C423 0.949 . S
H448 C425 0.950 . S
H449 C427 0.946 1_554 S
C450 C451 1.349 . S
C450 C452 1.327 . S
C450 H475 0.950 . S
C451 C450 1.349 . S
C451 C467 1.349 . S
C452 C450 1.327 . S
C452 C471 1.429 . S
C452 H476 0.950 . S
C453 C470 1.574 . S
C453 C472 1.368 . S
C453 H477 0.949 . S
H454 C458 0.949 . S
C455 C456 1.349 . S
C455 C457 1.327 . S
C455 H478 0.950 . S
C456 C455 1.349 . S
C456 C468 1.349 . S
C457 C455 1.327 . S
C457 C473 1.429 . S
C457 H479 0.950 . S
C458 H454 0.949 . S
C458 C466 1.574 . S
C458 C474 1.368 . S
H459 C467 0.950 . S
H460 C465 0.950 . S
H461 C466 0.949 . S
H462 C468 0.950 . S
H463 C469 0.950 . S
H464 C470 0.949 . S
C465 H460 0.950 . S
C465 C467 1.327 . S
C465 C471 1.429 . S
C466 C458 1.574 . S
C466 H461 0.949 . S
C466 C472 1.368 . S
C467 C451 1.349 . S
C467 H459 0.950 . S
C467 C465 1.327 . S
C468 C456 1.349 . S
C468 H462 0.950 . S
C468 C469 1.327 . S
C469 H463 0.950 . S
C469 C468 1.327 . S
C469 C473 1.429 . S
C470 C453 1.574 . S
C470 H464 0.949 . S
C470 C474 1.368 . S
C471 C452 1.429 . S
C471 C465 1.429 . S
C471 C472 1.523 . S
C472 C453 1.368 . S
C472 C466 1.368 . S
C472 C471 1.523 . S
C473 C457 1.429 . S
C473 C469 1.429 . S
C473 C474 1.523 . S
C474 C458 1.368 . S
C474 C470 1.368 . S
C474 C473 1.523 . S
H475 C450 0.950 . S
H476 C452 0.950 . S
H477 C453 0.949 . S
H478 C455 0.950 . S
H479 C457 0.950 . S
C480 C481 1.349 . S
C480 C482 1.327 . S
C480 H505 0.950 . S
C481 C480 1.349 . S
C481 C497 1.349 . S
C482 C480 1.327 . S
C482 C501 1.429 . S
C482 H506 0.950 . S
C483 C500 1.574 . S
C483 C502 1.368 . S
C483 H507 0.949 . S
H484 C488 0.949 . S
C485 C486 1.349 . S
C485 C487 1.327 . S
C485 H508 0.950 . S
C486 C485 1.349 . S
C486 C498 1.349 . S
C487 C485 1.327 . S
C487 C503 1.429 . S
C487 H509 0.950 . S
C488 H484 0.949 . S
C488 C496 1.574 . S
C488 C504 1.368 . S
H489 C497 0.950 . S
H490 C495 0.950 . S
H491 C496 0.949 . S
H492 C498 0.950 . S
H493 C499 0.950 . S
H494 C500 0.949 . S
C495 H490 0.950 . S
C495 C497 1.327 . S
C495 C501 1.429 . S
C496 C488 1.574 . S
C496 H491 0.949 . S
C496 C502 1.368 . S
C497 C481 1.349 . S
C497 H489 0.950 . S
C497 C495 1.327 . S
C498 C486 1.349 . S
C498 H492 0.950 . S
C498 C499 1.327 . S
C499 H493 0.950 . S
C499 C498 1.327 . S
C499 C503 1.429 . S
C500 C483 1.574 . S
C500 H494 0.949 . S
C500 C504 1.368 . S
C501 C482 1.429 . S
C501 C495 1.429 . S
C501 C502 1.523 . S
C502 C483 1.368 . S
C502 C496 1.368 . S
C502 C501 1.523 . S
C503 C487 1.429 . S
C503 C499 1.429 . S
C503 C504 1.523 . S
C504 C488 1.368 . S
C504 C500 1.368 . S
C504 C503 1.523 . S
H505 C480 0.950 . S
H506 C482 0.950 . S
H507 C483 0.949 . S
H508 C485 0.950 . S
H509 C487 0.950 . S
C510 C511 1.349 . S
C510 C512 1.327 . S
C510 H535 0.950 . S
C511 C510 1.349 . S
C511 C527 1.349 . S
C512 C510 1.327 . S
C512 C531 1.429 . S
C512 H536 0.950 . S
C513 C530 1.574 . S
C513 C532 1.368 . S
C513 H537 0.949 . S
H514 C518 0.949 . S
C515 C516 1.344 1_655 S
C515 C517 1.327 1_655 S
C515 H538 0.950 . S
C516 C515 1.344 1_455 S
C516 C528 1.358 . S
C517 C515 1.327 1_455 S
C517 C533 1.429 . S
C517 H539 0.950 1_455 S
C518 H514 0.949 . S
C518 C526 1.574 . S
C518 C534 1.368 . S
H519 C527 0.950 . S
H520 C525 0.950 . S
H521 C526 0.949 . S
H522 C528 0.950 . S
H523 C529 0.950 . S
H524 C530 0.949 . S
C525 H520 0.950 . S
C525 C527 1.327 . S
C525 C531 1.429 . S
C526 C518 1.574 . S
C526 H521 0.949 . S
C526 C532 1.368 . S
C527 C511 1.349 . S
C527 H519 0.950 . S
C527 C525 1.327 . S
C528 C516 1.358 . S
C528 H522 0.950 . S
C528 C529 1.327 . S
C529 H523 0.950 . S
C529 C528 1.327 . S
C529 C533 1.429 . S
C530 C513 1.574 . S
C530 H524 0.949 . S
C530 C534 1.368 . S
C531 C512 1.429 . S
C531 C525 1.429 . S
C531 C532 1.523 . S
C532 C513 1.368 . S
C532 C526 1.368 . S
C532 C531 1.523 . S
C533 C517 1.429 . S
C533 C529 1.429 . S
C533 C534 1.523 . S
C534 C518 1.368 . S
C534 C530 1.368 . S
C534 C533 1.523 . S
H535 C510 0.950 . S
H536 C512 0.950 . S
H537 C513 0.949 . S
H538 C515 0.950 . S
H539 C517 0.950 1_655 S
C540 C541 1.349 1_655 S
C540 C542 1.327 . S
C540 H565 0.950 . S
C541 C540 1.349 1_455 S
C541 C557 1.349 . S
C542 C540 1.327 . S
C542 C561 1.429 . S
C542 H566 0.950 . S
C543 C560 1.574 . S
C543 C562 1.368 . S
C543 H567 0.949 . S
H544 C548 0.949 . S
C545 C546 1.349 . S
C545 C547 1.327 . S
C545 H568 0.950 . S
C546 C545 1.349 . S
C546 C558 1.349 . S
C547 C545 1.327 . S
C547 C563 1.429 . S
C547 H569 0.950 . S
C548 H544 0.949 . S
C548 C556 1.574 . S
C548 C564 1.368 . S
H549 C557 0.950 . S
H550 C555 0.950 . S
H551 C556 0.949 . S
H552 C558 0.950 . S
H553 C559 0.950 . S
H554 C560 0.949 . S
C555 H550 0.950 . S
C555 C557 1.327 1_655 S
C555 C561 1.429 . S
C556 C548 1.574 . S
C556 H551 0.949 . S
C556 C562 1.368 . S
C557 C541 1.349 . S
C557 H549 0.950 . S
C557 C555 1.327 1_455 S
C558 C546 1.349 . S
C558 H552 0.950 . S
C558 C559 1.327 . S
C559 H553 0.950 . S
C559 C558 1.327 . S
C559 C563 1.429 . S
C560 C543 1.574 . S
C560 H554 0.949 . S
C560 C564 1.368 . S
C561 C542 1.429 . S
C561 C555 1.429 . S
C561 C562 1.523 . S
C562 C543 1.368 . S
C562 C556 1.368 . S
C562 C561 1.523 . S
C563 C547 1.429 . S
C563 C559 1.429 . S
C563 C564 1.523 . S
C564 C548 1.368 . S
C564 C560 1.368 . S
C564 C563 1.523 . S
H565 C540 0.950 . S
H566 C542 0.950 . S
H567 C543 0.949 . S
H568 C545 0.950 . S
H569 C547 0.950 . S
C570 C571 1.349 . S
C570 C572 1.327 . S
C570 H595 0.950 . S
C571 C570 1.349 . S
C571 C587 1.349 . S
C572 C570 1.327 . S
C572 C591 1.429 . S
C572 H596 0.950 . S
C573 C590 1.574 . S
C573 C592 1.368 . S
C573 H597 0.949 . S
H574 C578 0.949 . S
C575 C576 1.349 . S
C575 C577 1.327 . S
C575 H598 0.950 . S
C576 C575 1.349 . S
C576 C588 1.349 . S
C577 C575 1.327 . S
C577 C593 1.429 . S
C577 H599 0.950 . S
C578 H574 0.949 . S
C578 C586 1.574 . S
C578 C594 1.368 . S
H579 C587 0.950 . S
H580 C585 0.950 . S
H581 C586 0.949 . S
H582 C588 0.950 . S
H583 C589 0.950 . S
H584 C590 0.949 . S
C585 H580 0.950 . S
C585 C587 1.327 . S
C585 C591 1.429 . S
C586 C578 1.574 . S
C586 H581 0.949 . S
C586 C592 1.368 . S
C587 C571 1.349 . S
C587 H579 0.950 . S
C587 C585 1.327 . S
C588 C576 1.349 . S
C588 H582 0.950 . S
C588 C589 1.327 . S
C589 H583 0.950 . S
C589 C588 1.327 . S
C589 C593 1.429 . S
C590 C573 1.574 . S
C590 H584 0.949 . S
C590 C594 1.368 . S
C591 C572 1.429 . S
C591 C585 1.429 . S
C591 C592 1.523 . S
C592 C573 1.368 . S
C592 C586 1.368 . S
C592 C591 1.523 . S
C593 C577 1.429 . S
C593 C589 1.429 . S
C593 C594 1.523 . S
C594 C578 1.368 . S
C594 C590 1.368 . S
C594 C593 1.523 . S
H595 C570 0.950 . S
H596 C572 0.950 . S
H597 C573 0.949 . S
H598 C575 0.950 . S
H599 C577 0.950 . S
C600 C601 1.349 . S
C600 C602 1.327 . S
C600 H625 0.950 . S
C601 C600 1.349 . S
C601 C617 1.349 . S
C602 C600 1.327 . S
C602 C621 1.429 . S
C602 H626 0.950 . S
C603 C620 1.574 . S
C603 C622 1.368 . S
C603 H627 0.949 . S
H604 C608 0.949 . S
C605 C606 1.349 . S
C605 C607 1.327 . S
C605 H628 0.950 . S
C606 C605 1.349 . S
C606 C618 1.349 . S
C607 C605 1.327 . S
C607 C623 1.429 . S
C607 H629 0.950 . S
C608 H604 0.949 . S
C608 C616 1.574 . S
C608 C624 1.368 . S
H609 C617 0.950 . S
H610 C615 0.950 . S
H611 C616 0.949 . S
H612 C618 0.950 . S
H613 C619 0.950 . S
H614 C620 0.949 . S
C615 H610 0.950 . S
C615 C617 1.327 . S
C615 C621 1.429 . S
C616 C608 1.574 . S
C616 H611 0.949 . S
C616 C622 1.368 . S
C617 C601 1.349 . S
C617 H609 0.950 . S
C617 C615 1.327 . S
C618 C606 1.349 . S
C618 H612 0.950 . S
C618 C619 1.327 . S
C619 H613 0.950 . S
C619 C618 1.327 . S
C619 C623 1.429 . S
C620 C603 1.574 . S
C620 H614 0.949 . S
C620 C624 1.368 . S
C621 C602 1.429 . S
C621 C615 1.429 . S
C621 C622 1.523 . S
C622 C603 1.368 . S
C622 C616 1.368 . S
C622 C621 1.523 . S
C623 C607 1.429 . S
C623 C619 1.429 . S
C623 C624 1.523 . S
C624 C608 1.368 . S
C624 C620 1.368 . S
C624 C623 1.523 . S
H625 C600 0.950 . S
H626 C602 0.950 . S
H627 C603 0.949 . S
H628 C605 0.950 . S
H629 C607 0.950 . S
C630 C631 1.349 . S
C630 C632 1.327 . S
C630 H655 0.950 . S
C631 C630 1.349 . S
C631 C647 1.349 . S
C632 C630 1.327 . S
C632 C651 1.429 . S
C632 H656 0.950 . S
C633 C650 1.574 . S
C633 C652 1.368 . S
C633 H657 0.949 . S
H634 C638 0.949 . S
C635 C636 1.349 . S
C635 C637 1.327 . S
C635 H658 0.950 . S
C636 C635 1.349 . S
C636 C648 1.349 . S
C637 C635 1.327 . S
C637 C653 1.429 . S
C637 H659 0.950 . S
C638 H634 0.949 . S
C638 C646 1.574 . S
C638 C654 1.368 . S
H639 C647 0.950 . S
H640 C645 0.950 . S
H641 C646 0.949 . S
H642 C648 0.950 . S
H643 C649 0.950 . S
H644 C650 0.949 . S
C645 H640 0.950 . S
C645 C647 1.327 . S
C645 C651 1.429 . S
C646 C638 1.574 . S
C646 H641 0.949 . S
C646 C652 1.368 . S
C647 C631 1.349 . S
C647 H639 0.950 . S
C647 C645 1.327 . S
C648 C636 1.349 . S
C648 H642 0.950 . S
C648 C649 1.327 . S
C649 H643 0.950 . S
C649 C648 1.327 . S
C649 C653 1.429 . S
C650 C633 1.574 . S
C650 H644 0.949 . S
C650 C654 1.368 . S
C651 C632 1.429 . S
C651 C645 1.429 . S
C651 C652 1.523 . S
C652 C633 1.368 . S
C652 C646 1.368 . S
C652 C651 1.523 . S
C653 C637 1.429 . S
C653 C649 1.429 . S
C653 C654 1.523 . S
C654 C638 1.368 . S
C654 C650 1.368 . S
C654 C653 1.523 . S
H655 C630 0.950 . S
H656 C632 0.950 . S
H657 C633 0.949 . S
H658 C635 0.950 . S
H659 C637 0.950 . S
C660 C661 1.349 . S
C660 C662 1.327 . S
C660 H685 0.950 . S
C661 C660 1.349 . S
C661 C677 1.349 . S
C662 C660 1.327 . S
C662 C681 1.429 . S
C662 H686 0.950 . S
C663 C680 1.574 . S
C663 C682 1.368 . S
C663 H687 0.949 . S
H664 C668 0.949 . S
C665 C666 1.349 . S
C665 C667 1.327 . S
C665 H688 0.950 . S
C666 C665 1.349 . S
C666 C678 1.349 . S
C667 C665 1.327 . S
C667 C683 1.429 . S
C667 H689 0.950 . S
C668 H664 0.949 . S
C668 C676 1.574 . S
C668 C684 1.368 . S
H669 C677 0.950 . S
H670 C675 0.950 . S
H671 C676 0.949 . S
H672 C678 0.950 . S
H673 C679 0.950 . S
H674 C680 0.949 . S
C675 H670 0.950 . S
C675 C677 1.327 . S
C675 C681 1.429 . S
C676 C668 1.574 . S
C676 H671 0.949 . S
C676 C682 1.368 . S
C677 C661 1.349 . S
C677 H669 0.950 . S
C677 C675 1.327 . S
C678 C666 1.349 . S
C678 H672 0.950 . S
C678 C679 1.327 . S
C679 H673 0.950 . S
C679 C678 1.327 . S
C679 C683 1.429 . S
C680 C663 1.574 . S
C680 H674 0.949 . S
C680 C684 1.368 . S
C681 C662 1.429 . S
C681 C675 1.429 . S
C681 C682 1.523 . S
C682 C663 1.368 . S
C682 C676 1.368 . S
C682 C681 1.523 . S
C683 C667 1.429 . S
C683 C679 1.429 . S
C683 C684 1.523 . S
C684 C668 1.368 . S
C684 C680 1.368 . S
C684 C683 1.523 . S
H685 C660 0.950 . S
H686 C662 0.950 . S
H687 C663 0.949 . S
H688 C665 0.950 . S
H689 C667 0.950 . S
C690 C691 1.349 . S
C690 C692 1.327 . S
C690 H715 0.950 . S
C691 C690 1.349 . S
C691 C707 1.349 . S
C692 C690 1.327 . S
C692 C711 1.429 . S
C692 H716 0.950 . S
C693 C710 1.574 . S
C693 C712 1.368 . S
C693 H717 0.949 . S
H694 C698 0.949 . S
C695 C696 1.349 . S
C695 C697 1.327 . S
C695 H718 0.950 . S
C696 C695 1.349 . S
C696 C708 1.349 . S
C697 C695 1.327 . S
C697 C713 1.429 . S
C697 H719 0.950 . S
C698 H694 0.949 . S
C698 C706 1.574 . S
C698 C714 1.368 . S
H699 C707 0.950 . S
H700 C705 0.950 . S
H701 C706 0.949 . S
H702 C708 0.950 . S
H703 C709 0.950 . S
H704 C710 0.947 1_556 S
C705 H700 0.950 . S
C705 C707 1.327 . S
C705 C711 1.429 . S
C706 C698 1.574 . S
C706 H701 0.949 . S
C706 C712 1.368 . S
C707 C691 1.349 . S
C707 H699 0.950 . S
C707 C705 1.327 . S
C708 C696 1.349 . S
C708 H702 0.950 . S
C708 C709 1.327 . S
C709 H703 0.950 . S
C709 C708 1.327 . S
C709 C713 1.429 . S
C710 C693 1.574 . S
C710 H704 0.947 1_554 S
C710 C714 1.368 . S
C711 C692 1.429 . S
C711 C705 1.429 . S
C711 C712 1.523 . S
C712 C693 1.368 . S
C712 C706 1.368 . S
C712 C711 1.523 . S
C713 C697 1.429 . S
C713 C709 1.429 . S
C713 C714 1.523 1_556 S
C714 C698 1.368 . S
C714 C710 1.368 . S
C714 C713 1.523 1_554 S
H715 C690 0.950 . S
H716 C692 0.950 . S
H717 C693 0.949 . S
H718 C695 0.950 . S
H719 C697 0.950 . S
C720 C721 1.349 . S
C720 C722 1.327 . S
C720 H745 0.950 . S
C721 C720 1.349 . S
C721 C737 1.349 . S
C722 C720 1.327 . S
C722 C741 1.429 . S
C722 H746 0.950 . S
C723 C740 1.574 . S
C723 C742 1.368 . S
C723 H747 0.949 . S
H724 C728 0.949 . S
C725 C726 1.349 . S
C725 C727 1.327 . S
C725 H748 0.950 . S
C726 C725 1.349 . S
C726 C738 1.349 . S
C727 C725 1.327 . S
C727 C743 1.429 . S
C727 H749 0.950 . S
C728 H724 0.949 . S
C728 C736 1.574 . S
C728 C744 1.368 . S
H729 C737 0.950 . S
H730 C735 0.950 . S
H731 C736 0.949 . S
H732 C738 0.950 . S
H733 C739 0.950 . S
H734 C740 0.949 . S
C735 H730 0.950 . S
C735 C737 1.327 . S
C735 C741 1.429 . S
C736 C728 1.574 . S
C736 H731 0.949 . S
C736 C742 1.368 . S
C737 C721 1.349 . S
C737 H729 0.950 . S
C737 C735 1.327 . S
C738 C726 1.349 . S
C738 H732 0.950 . S
C738 C739 1.327 . S
C739 H733 0.950 . S
C739 C738 1.327 . S
C739 C743 1.429 . S
C740 C723 1.574 . S
C740 H734 0.949 . S
C740 C744 1.368 . S
C741 C722 1.429 . S
C741 C735 1.429 . S
C741 C742 1.523 . S
C742 C723 1.368 . S
C742 C736 1.368 . S
C742 C741 1.523 . S
C743 C727 1.429 . S
C743 C739 1.429 . S
C743 C744 1.523 . S
C744 C728 1.368 . S
C744 C740 1.368 . S
C744 C743 1.523 . S
H745 C720 0.950 . S
H746 C722 0.950 . S
H747 C723 0.949 . S
H748 C725 0.950 . S
H749 C727 0.950 . S
C750 C751 1.349 . S
C750 C752 1.327 . S
C750 H775 0.950 . S
C751 C750 1.349 . S
C751 C767 1.349 . S
C752 C750 1.327 . S
C752 C771 1.429 . S
C752 H776 0.950 . S
C753 C770 1.574 . S
C753 C772 1.368 . S
C753 H777 0.949 . S
H754 C758 0.949 . S
C755 C756 1.349 . S
C755 C757 1.327 . S
C755 H778 0.950 . S
C756 C755 1.349 . S
C756 C768 1.349 . S
C757 C755 1.327 . S
C757 C773 1.429 . S
C757 H779 0.950 . S
C758 H754 0.949 . S
C758 C766 1.574 . S
C758 C774 1.368 . S
H759 C767 0.950 . S
H760 C765 0.950 1_556 S
H761 C766 0.949 1_554 S
H762 C768 0.950 . S
H763 C769 0.950 . S
H764 C770 0.949 . S
C765 H760 0.950 1_554 S
C765 C767 1.327 . S
C765 C771 1.429 . S
C766 C758 1.574 . S
C766 H761 0.949 1_556 S
C766 C772 1.368 . S
C767 C751 1.349 . S
C767 H759 0.950 . S
C767 C765 1.327 . S
C768 C756 1.349 . S
C768 H762 0.950 . S
C768 C769 1.327 . S
C769 H763 0.950 . S
C769 C768 1.327 . S
C769 C773 1.429 . S
C770 C753 1.574 . S
C770 H764 0.949 . S
C770 C774 1.368 . S
C771 C752 1.429 . S
C771 C765 1.429 . S
C771 C772 1.523 1_554 S
C772 C753 1.368 . S
C772 C766 1.368 . S
C772 C771 1.523 1_556 S
C773 C757 1.429 . S
C773 C769 1.429 . S
C773 C774 1.523 . S
C774 C758 1.368 . S
C774 C770 1.368 . S
C774 C773 1.523 . S
H775 C750 0.950 . S
H776 C752 0.950 . S
H777 C753 0.949 . S
H778 C755 0.950 . S
H779 C757 0.950 . S
C780 C781 1.349 . S
C780 C782 1.327 . S
C780 H805 0.950 . S
C781 C780 1.349 . S
C781 C797 1.349 . S
C782 C780 1.327 . S
C782 C801 1.429 . S
C782 H806 0.950 . S
C783 C800 1.574 . S
C783 C802 1.368 . S
C783 H807 0.949 . S
H784 C788 0.949 . S
C785 C786 1.349 . S
C785 C787 1.327 . S
C785 H808 0.950 . S
C786 C785 1.349 . S
C786 C798 1.349 . S
C787 C785 1.327 . S
C787 C803 1.429 . S
C787 H809 0.950 . S
C788 H784 0.949 . S
C788 C796 1.574 . S
C788 C804 1.368 . S
H789 C797 0.950 . S
H790 C795 0.950 . S
H791 C796 0.949 . S
H792 C798 0.950 . S
H793 C799 0.950 . S
H794 C800 0.949 . S
C795 H790 0.950 . S
C795 C797 1.327 . S
C795 C801 1.429 . S
C796 C788 1.574 . S
C796 H791 0.949 . S
C796 C802 1.368 . S
C797 C781 1.349 . S
C797 H789 0.950 . S
C797 C795 1.327 . S
C798 C786 1.349 . S
C798 H792 0.950 . S
C798 C799 1.327 . S
C799 H793 0.950 . S
C799 C798 1.327 . S
C799 C803 1.429 . S
C800 C783 1.574 . S
C800 H794 0.949 . S
C800 C804 1.368 . S
C801 C782 1.429 . S
C801 C795 1.429 . S
C801 C802 1.523 . S
C802 C783 1.368 . S
C802 C796 1.368 . S
C802 C801 1.523 . S
C803 C787 1.429 . S
C803 C799 1.429 . S
C803 C804 1.523 . S
C804 C788 1.368 . S
C804 C800 1.368 . S
C804 C803 1.523 . S
H805 C780 0.950 . S
H806 C782 0.950 . S
H807 C783 0.949 . S
H808 C785 0.950 . S
H809 C787 0.950 . S
C810 C811 1.349 . S
C810 C812 1.327 . S
C810 H835 0.950 . S
C811 C810 1.349 . S
C811 C827 1.349 . S
C812 C810 1.327 . S
C812 C831 1.429 . S
C812 H836 0.950 . S
C813 C830 1.574 . S
C813 C832 1.368 . S
C813 H837 0.949 . S
H814 C818 0.949 . S
C815 C816 1.349 . S
C815 C817 1.327 . S
C815 H838 0.950 . S
C816 C815 1.349 . S
C816 C828 1.349 . S
C817 C815 1.327 . S
C817 C833 1.429 . S
C817 H839 0.950 . S
C818 H814 0.949 . S
C818 C826 1.574 . S
C818 C834 1.368 . S
H819 C827 0.950 . S
H820 C825 0.950 . S
H821 C826 0.949 . S
H822 C828 0.950 . S
H823 C829 0.950 . S
H824 C830 0.949 . S
C825 H820 0.950 . S
C825 C827 1.327 . S
C825 C831 1.429 . S
C826 C818 1.574 . S
C826 H821 0.949 . S
C826 C832 1.368 . S
C827 C811 1.349 . S
C827 H819 0.950 . S
C827 C825 1.327 . S
C828 C816 1.349 . S
C828 H822 0.950 . S
C828 C829 1.327 . S
C829 H823 0.950 . S
C829 C828 1.327 . S
C829 C833 1.429 . S
C830 C813 1.574 . S
C830 H824 0.949 . S
C830 C834 1.368 . S
C831 C812 1.429 . S
C831 C825 1.429 . S
C831 C832 1.523 . S
C832 C813 1.368 . S
C832 C826 1.368 . S
C832 C831 1.523 . S
C833 C817 1.429 . S
C833 C829 1.429 . S
C833 C834 1.523 . S
C834 C818 1.368 . S
C834 C830 1.368 . S
C834 C833 1.523 . S
H835 C810 0.950 . S
H836 C812 0.950 . S
H837 C813 0.949 . S
H838 C815 0.950 . S
H839 C817 0.950 . S
C840 C841 1.349 . S
C840 C842 1.327 . S
C840 H865 0.950 . S
C841 C840 1.349 . S
C841 C857 1.349 . S
C842 C840 1.327 . S
C842 C861 1.429 . S
C842 H866 0.950 . S
C843 C860 1.574 . S
C843 C862 1.368 . S
C843 H867 0.949 . S
H844 C848 0.949 . S
C845 C846 1.349 . S
C845 C847 1.327 . S
C845 H868 0.950 . S
C846 C845 1.349 . S
C846 C858 1.349 . S
C847 C845 1.327 . S
C847 C863 1.429 . S
C847 H869 0.950 . S
C848 H844 0.949 . S
C848 C856 1.574 . S
C848 C864 1.368 . S
H849 C857 0.950 . S
H850 C855 0.950 . S
H851 C856 0.949 . S
H852 C858 0.950 . S
H853 C859 0.950 . S
H854 C860 0.949 . S
C855 H850 0.950 . S
C855 C857 1.327 . S
C855 C861 1.429 . S
C856 C848 1.574 . S
C856 H851 0.949 . S
C856 C862 1.368 . S
C857 C841 1.349 . S
C857 H849 0.950 . S
C857 C855 1.327 . S
C858 C846 1.349 . S
C858 H852 0.950 . S
C858 C859 1.327 . S
C859 H853 0.950 . S
C859 C858 1.327 . S
C859 C863 1.429 . S
C860 C843 1.574 . S
C860 H854 0.949 . S
C860 C864 1.368 . S
C861 C842 1.429 . S
C861 C855 1.429 . S
C861 C862 1.523 . S
C862 C843 1.368 . S
C862 C856 1.368 . S
C862 C861 1.523 . S
C863 C847 1.429 . S
C863 C859 1.429 . S
C863 C864 1.523 . S
C864 C848 1.368 . S
C864 C860 1.368 . S
C864 C863 1.523 . S
H865 C840 0.950 . S
H866 C842 0.950 . S
H867 C843 0.949 . S
H868 C845 0.950 . S
H869 C847 0.950 . S
C870 C871 1.349 . S
C870 C872 1.327 . S
C870 H895 0.950 . S
C871 C870 1.349 . S
C871 C887 1.349 . S
C872 C870 1.327 . S
C872 C891 1.429 . S
C872 H896 0.950 . S
C873 C890 1.574 1_545 S
C873 C892 1.368 . S
C873 H897 0.949 . S
H874 C878 0.949 . S
C875 C876 1.349 . S
C875 C877 1.327 . S
C875 H898 0.950 . S
C876 C875 1.349 . S
C876 C888 1.349 . S
C877 C875 1.327 . S
C877 C893 1.429 . S
C877 H899 0.950 . S
C878 H874 0.949 . S
C878 C886 1.574 . S
C878 C894 1.368 1_545 S
H879 C887 0.950 . S
H880 C885 0.950 . S
H881 C886 0.949 . S
H882 C888 0.950 . S
H883 C889 0.950 . S
H884 C890 0.949 . S
C885 H880 0.950 . S
C885 C887 1.327 . S
C885 C891 1.429 . S
C886 C878 1.574 . S
C886 H881 0.949 . S
C886 C892 1.368 . S
C887 C871 1.349 . S
C887 H879 0.950 . S
C887 C885 1.327 . S
C888 C876 1.349 . S
C888 H882 0.950 . S
C888 C889 1.327 . S
C889 H883 0.950 . S
C889 C888 1.327 . S
C889 C893 1.429 . S
C890 C873 1.574 1_565 S
C890 H884 0.949 . S
C890 C894 1.368 . S
C891 C872 1.429 . S
C891 C885 1.429 . S
C891 C892 1.523 . S
C892 C873 1.368 . S
C892 C886 1.368 . S
C892 C891 1.523 . S
C893 C877 1.429 . S
C893 C889 1.429 . S
C893 C894 1.523 . S
C894 C878 1.368 1_565 S
C894 C890 1.368 . S
C894 C893 1.523 . S
H895 C870 0.950 . S
H896 C872 0.950 . S
H897 C873 0.949 . S
H898 C875 0.950 . S
H899 C877 0.950 . S
C900 C901 1.349 . S
C900 C902 1.327 . S
C900 H925 0.950 . S
C901 C900 1.349 . S
C901 C917 1.349 . S
C902 C900 1.327 . S
C902 C921 1.429 . S
C902 H926 0.950 . S
C903 C920 1.574 . S
C903 C922 1.368 . S
C903 H927 0.949 . S
H904 C908 0.949 . S
C905 C906 1.349 . S
C905 C907 1.327 . S
C905 H928 0.950 . S
C906 C905 1.349 . S
C906 C918 1.349 . S
C907 C905 1.327 . S
C907 C923 1.429 . S
C907 H929 0.950 . S
C908 H904 0.949 . S
C908 C916 1.574 . S
C908 C924 1.368 . S
H909 C917 0.950 . S
H910 C915 0.950 . S
H911 C916 0.949 . S
H912 C918 0.950 . S
H913 C919 0.950 . S
H914 C920 0.949 . S
C915 H910 0.950 . S
C915 C917 1.327 . S
C915 C921 1.429 . S
C916 C908 1.574 . S
C916 H911 0.949 . S
C916 C922 1.368 . S
C917 C901 1.349 . S
C917 H909 0.950 . S
C917 C915 1.327 . S
C918 C906 1.349 . S
C918 H912 0.950 . S
C918 C919 1.327 . S
C919 H913 0.950 . S
C919 C918 1.327 . S
C919 C923 1.429 . S
C920 C903 1.574 . S
C920 H914 0.949 . S
C920 C924 1.368 . S
C921 C902 1.429 . S
C921 C915 1.429 . S
C921 C922 1.523 . S
C922 C903 1.368 . S
C922 C916 1.368 . S
C922 C921 1.523 . S
C923 C907 1.429 . S
C923 C919 1.429 . S
C923 C924 1.523 . S
C924 C908 1.368 . S
C924 C920 1.368 . S
C924 C923 1.523 . S
H925 C900 0.950 . S
H926 C902 0.950 . S
H927 C903 0.949 . S
H928 C905 0.950 . S
H929 C907 0.950 . S
C930 C931 1.349 . S
C930 C932 1.327 . S
C930 H955 0.950 . S
C931 C930 1.349 . S
C931 C947 1.349 . S
C932 C930 1.327 . S
C932 C951 1.429 . S
C932 H956 0.950 . S
C933 C950 1.574 . S
C933 C952 1.368 . S
C933 H957 0.949 1_565 S
H934 C938 0.949 . S
C935 C936 1.349 . S
C935 C937 1.327 . S
C935 H958 0.914 1_554 S
C936 C935 1.349 . S
C936 C948 1.349 . S
C937 C935 1.327 . S
C937 C953 1.429 . S
C937 H959 0.950 . S
C938 H934 0.949 . S
C938 C946 1.574 . S
C938 C954 1.368 . S
H939 C947 0.950 . S
H940 C945 0.950 . S
H941 C946 0.949 . S
H942 C948 0.950 . S
H943 C949 0.950 . S
H944 C950 0.949 . S
C945 H940 0.950 . S
C945 C947 1.327 . S
C945 C951 1.429 . S
C946 C938 1.574 . S
C946 H941 0.949 . S
C946 C952 1.368 . S
C947 C931 1.349 . S
C947 H939 0.950 . S
C947 C945 1.327 . S
C948 C936 1.349 . S
C948 H942 0.950 . S
C948 C949 1.327 . S
C949 H943 0.950 . S
C949 C948 1.327 . S
C949 C953 1.429 . S
C950 C933 1.574 . S
C950 H944 0.949 . S
C950 C954 1.368 . S
C951 C932 1.429 . S
C951 C945 1.429 . S
C951 C952 1.523 1_545 S
C952 C933 1.368 . S
C952 C946 1.368 . S
C952 C951 1.523 1_565 S
C953 C937 1.429 . S
C953 C949 1.429 . S
C953 C954 1.523 . S
C954 C938 1.368 . S
C954 C950 1.368 . S
C954 C953 1.523 . S
H955 C930 0.950 . S
H956 C932 0.950 . S
H957 C933 0.949 1_545 S
H958 C935 0.914 1_556 S
H959 C937 0.950 . S
C960 C961 1.349 . S
C960 C962 1.327 . S
C960 H985 0.950 . S
C961 C960 1.349 . S
C961 C977 1.349 . S
C962 C960 1.327 . S
C962 C981 1.429 . S
C962 H986 0.950 . S
C963 C980 1.574 . S
C963 C982 1.368 . S
C963 H987 0.949 . S
H964 C968 0.949 . S
C965 C966 1.349 . S
C965 C967 1.327 . S
C965 H988 0.950 . S
C966 C965 1.349 . S
C966 C978 1.349 . S
C967 C965 1.327 . S
C967 C983 1.429 . S
C967 H989 0.950 . S
C968 H964 0.949 . S
C968 C976 1.574 . S
C968 C984 1.368 . S
H969 C977 0.950 . S
H970 C975 0.950 . S
H971 C976 0.949 . S
H972 C978 0.950 . S
H973 C979 0.950 . S
H974 C980 0.949 . S
C975 H970 0.950 . S
C975 C977 1.327 . S
C975 C981 1.429 . S
C976 C968 1.574 . S
C976 H971 0.949 . S
C976 C982 1.368 . S
C977 C961 1.349 . S
C977 H969 0.950 . S
C977 C975 1.327 . S
C978 C966 1.349 . S
C978 H972 0.950 . S
C978 C979 1.327 . S
C979 H973 0.950 . S
C979 C978 1.327 . S
C979 C983 1.429 . S
C980 C963 1.574 . S
C980 H974 0.949 . S
C980 C984 1.368 . S
C981 C962 1.429 . S
C981 C975 1.429 . S
C981 C982 1.523 . S
C982 C963 1.368 . S
C982 C976 1.368 . S
C982 C981 1.523 . S
C983 C967 1.429 . S
C983 C979 1.429 . S
C983 C984 1.523 . S
C984 C968 1.368 . S
C984 C980 1.368 . S
C984 C983 1.523 . S
H985 C960 0.950 . S
H986 C962 0.950 . S
H987 C963 0.949 . S
H988 C965 0.950 . S
H989 C967 0.950 . S
C990 C991 1.349 . S
C990 C992 1.327 . S
C990 H1015 0.950 . S
C991 C990 1.349 . S
C991 C1007 1.349 . S
C992 C990 1.327 . S
C992 C1011 1.429 . S
C992 H1016 0.950 . S
C993 C1010 1.574 . S
C993 C1012 1.368 . S
C993 H1017 0.949 . S
H994 C998 0.949 . S
C995 C996 1.349 . S
C995 C997 1.327 . S
C995 H1018 0.950 . S
C996 C995 1.349 . S
C996 C1008 1.349 . S
C997 C995 1.327 . S
C997 C1013 1.429 . S
C997 H1019 0.950 . S
C998 H994 0.949 . S
C998 C1006 1.574 . S
C998 C1014 1.368 . S
H999 C1007 0.950 . S
H1000 C1005 0.950 . S
H1001 C1006 0.949 . S
H1002 C1008 0.950 . S
H1003 C1009 0.950 . S
H1004 C1010 0.949 . S
C1005 H1000 0.950 . S
C1005 C1007 1.327 . S
C1005 C1011 1.429 . S
C1006 C998 1.574 . S
C1006 H1001 0.949 . S
C1006 C1012 1.368 . S
C1007 C991 1.349 . S
C1007 H999 0.950 . S
C1007 C1005 1.327 . S
C1008 C996 1.349 . S
C1008 H1002 0.950 . S
C1008 C1009 1.327 . S
C1009 H1003 0.950 . S
C1009 C1008 1.327 . S
C1009 C1013 1.429 . S
C1010 C993 1.574 . S
C1010 H1004 0.949 . S
C1010 C1014 1.368 . S
C1011 C992 1.429 . S
C1011 C1005 1.429 . S
C1011 C1012 1.523 . S
C1012 C993 1.368 . S
C1012 C1006 1.368 . S
C1012 C1011 1.523 . S
C1013 C997 1.429 . S
C1013 C1009 1.429 . S
C1013 C1014 1.523 . S
C1014 C998 1.368 . S
C1014 C1010 1.368 . S
C1014 C1013 1.523 . S
H1015 C990 0.950 . S
H1016 C992 0.950 . S
H1017 C993 0.949 . S
H1018 C995 0.950 . S
H1019 C997 0.950 . S
C1020 C1021 1.349 . S
C1020 C1022 1.327 . S
C1020 H1045 0.950 . S
C1021 C1020 1.349 . S
C1021 C1037 1.349 . S
C1022 C1020 1.327 . S
C1022 C1041 1.429 . S
C1022 H1046 0.950 . S
C1023 C1040 1.574 . S
C1023 C1042 1.368 . S
C1023 H1047 0.949 . S
H1024 C1028 0.949 . S
C1025 C1026 1.349 . S
C1025 C1027 1.327 . S
C1025 H1048 0.950 . S
C1026 C1025 1.349 . S
C1026 C1038 1.349 . S
C1027 C1025 1.327 . S
C1027 C1043 1.429 . S
C1027 H1049 0.950 . S
C1028 H1024 0.949 . S
C1028 C1036 1.574 . S
C1028 C1044 1.368 . S
H1029 C1037 0.950 . S
H1030 C1035 0.950 . S
H1031 C1036 0.949 . S
H1032 C1038 0.950 . S
H1033 C1039 0.950 . S
H1034 C1040 0.949 . S
C1035 H1030 0.950 . S
C1035 C1037 1.327 . S
C1035 C1041 1.429 . S
C1036 C1028 1.574 . S
C1036 H1031 0.949 . S
C1036 C1042 1.368 . S
C1037 C1021 1.349 . S
C1037 H1029 0.950 . S
C1037 C1035 1.327 . S
C1038 C1026 1.349 . S
C1038 H1032 0.950 . S
C1038 C1039 1.327 . S
C1039 H1033 0.950 . S
C1039 C1038 1.327 . S
C1039 C1043 1.429 . S
C1040 C1023 1.574 . S
C1040 H1034 0.949 . S
C1040 C1044 1.368 . S
C1041 C1022 1.429 . S
C1041 C1035 1.429 . S
C1041 C1042 1.523 . S
C1042 C1023 1.368 . S
C1042 C1036 1.368 . S
C1042 C1041 1.523 . S
C1043 C1027 1.429 . S
C1043 C1039 1.429 . S
C1043 C1044 1.523 . S
C1044 C1028 1.368 . S
C1044 C1040 1.368 . S
C1044 C1043 1.523 . S
H1045 C1020 0.950 . S
H1046 C1022 0.950 . S
H1047 C1023 0.949 . S
H1048 C1025 0.950 . S
H1049 C1027 0.950 . S
C1050 C1051 1.349 . S
C1050 C1052 1.327 . S
C1050 H1075 0.950 . S
C1051 C1050 1.349 . S
C1051 C1067 1.349 . S
C1052 C1050 1.327 . S
C1052 C1071 1.429 . S
C1052 H1076 0.950 . S
C1053 C1070 1.574 . S
C1053 C1072 1.368 . S
C1053 H1077 0.949 . S
H1054 C1058 0.949 . S
C1055 C1056 1.349 . S
C1055 C1057 1.327 . S
C1055 H1078 0.950 . S
C1056 C1055 1.349 . S
C1056 C1068 1.349 . S
C1057 C1055 1.327 . S
C1057 C1073 1.429 . S
C1057 H1079 0.950 . S
C1058 H1054 0.949 . S
C1058 C1066 1.574 . S
C1058 C1074 1.368 . S
H1059 C1067 0.950 . S
H1060 C1065 0.950 . S
H1061 C1066 0.949 . S
H1062 C1068 0.950 . S
H1063 C1069 0.950 . S
H1064 C1070 0.949 . S
C1065 H1060 0.950 . S
C1065 C1067 1.327 . S
C1065 C1071 1.429 . S
C1066 C1058 1.574 . S
C1066 H1061 0.949 . S
C1066 C1072 1.368 . S
C1067 C1051 1.349 . S
C1067 H1059 0.950 . S
C1067 C1065 1.327 . S
C1068 C1056 1.349 . S
C1068 H1062 0.950 . S
C1068 C1069 1.327 . S
C1069 H1063 0.950 . S
C1069 C1068 1.327 . S
C1069 C1073 1.429 . S
C1070 C1053 1.574 . S
C1070 H1064 0.949 . S
C1070 C1074 1.368 . S
C1071 C1052 1.429 . S
C1071 C1065 1.429 . S
C1071 C1072 1.523 . S
C1072 C1053 1.368 . S
C1072 C1066 1.368 . S
C1072 C1071 1.523 . S
C1073 C1057 1.429 . S
C1073 C1069 1.429 . S
C1073 C1074 1.523 . S
C1074 C1058 1.368 . S
C1074 C1070 1.368 . S
C1074 C1073 1.523 . S
H1075 C1050 0.950 . S
H1076 C1052 0.950 . S
H1077 C1053 0.949 . S
H1078 C1055 0.950 . S
H1079 C1057 0.950 . S
C1080 C1081 1.349 . S
C1080 C1082 1.327 . S
C1080 H1105 0.950 . S
C1081 C1080 1.349 . S
C1081 C1097 1.349 . S
C1082 C1080 1.327 . S
C1082 C1101 1.429 . S
C1082 H1106 0.950 . S
C1083 C1100 1.574 . S
C1083 C1102 1.368 . S
C1083 H1107 0.949 . S
H1084 C1088 0.949 . S
C1085 C1086 1.349 . S
C1085 C1087 1.327 . S
C1085 H1108 0.950 . S
C1086 C1085 1.349 . S
C1086 C1098 1.349 . S
C1087 C1085 1.327 . S
C1087 C1103 1.429 . S
C1087 H1109 0.950 . S
C1088 H1084 0.949 . S
C1088 C1096 1.574 . S
C1088 C1104 1.368 . S
H1089 C1097 0.950 . S
H1090 C1095 0.950 . S
H1091 C1096 0.949 . S
H1092 C1098 0.950 . S
H1093 C1099 0.950 . S
H1094 C1100 0.949 . S
C1095 H1090 0.950 . S
C1095 C1097 1.327 . S
C1095 C1101 1.429 . S
C1096 C1088 1.574 . S
C1096 H1091 0.949 . S
C1096 C1102 1.368 . S
C1097 C1081 1.349 . S
C1097 H1089 0.950 . S
C1097 C1095 1.327 . S
C1098 C1086 1.349 . S
C1098 H1092 0.950 . S
C1098 C1099 1.327 . S
C1099 H1093 0.950 . S
C1099 C1098 1.327 . S
C1099 C1103 1.429 . S
C1100 C1083 1.574 . S
C1100 H1094 0.949 . S
C1100 C1104 1.368 . S
C1101 C1082 1.429 . S
C1101 C1095 1.429 . S
C1101 C1102 1.523 . S
C1102 C1083 1.368 . S
C1102 C1096 1.368 . S
C1102 C1101 1.523 . S
C1103 C1087 1.429 . S
C1103 C1099 1.429 . S
C1103 C1104 1.523 . S
C1104 C1088 1.368 . S
C1104 C1100 1.368 . S
C1104 C1103 1.523 . S
H1105 C1080 0.950 . S
H1106 C1082 0.950 . S
H1107 C1083 0.949 . S
H1108 C1085 0.950 . S
H1109 C1087 0.950 . S
C1110 C1111 1.349 . S
C1110 C1112 1.327 . S
C1110 H1135 0.950 . S
C1111 C1110 1.349 . S
C1111 C1127 1.349 . S
C1112 C1110 1.327 . S
C1112 C1131 1.429 . S
C1112 H1136 0.950 . S
C1113 C1130 1.574 . S
C1113 C1132 1.368 . S
C1113 H1137 0.949 . S
H1114 C1118 0.949 . S
C1115 C1116 1.349 . S
C1115 C1117 1.327 . S
C1115 H1138 0.950 . S
C1116 C1115 1.349 . S
C1116 C1128 1.349 . S
C1117 C1115 1.327 . S
C1117 C1133 1.429 . S
C1117 H1139 0.950 . S
C1118 H1114 0.949 . S
C1118 C1126 1.574 . S
C1118 C1134 1.368 . S
H1119 C1127 0.950 . S
H1120 C1125 0.950 . S
H1121 C1126 0.949 . S
H1122 C1128 0.950 . S
H1123 C1129 0.950 . S
H1124 C1130 0.949 . S
C1125 H1120 0.950 . S
C1125 C1127 1.327 . S
C1125 C1131 1.429 . S
C1126 C1118 1.574 . S
C1126 H1121 0.949 . S
C1126 C1132 1.368 . S
C1127 C1111 1.349 . S
C1127 H1119 0.950 . S
C1127 C1125 1.327 . S
C1128 C1116 1.349 . S
C1128 H1122 0.950 . S
C1128 C1129 1.327 . S
C1129 H1123 0.950 . S
C1129 C1128 1.327 . S
C1129 C1133 1.429 . S
C1130 C1113 1.574 . S
C1130 H1124 0.949 . S
C1130 C1134 1.368 . S
C1131 C1112 1.429 . S
C1131 C1125 1.429 . S
C1131 C1132 1.523 . S
C1132 C1113 1.368 . S
C1132 C1126 1.368 . S
C1132 C1131 1.523 . S
C1133 C1117 1.429 . S
C1133 C1129 1.429 . S
C1133 C1134 1.523 . S
C1134 C1118 1.368 . S
C1134 C1130 1.368 . S
C1134 C1133 1.523 . S
H1135 C1110 0.950 . S
H1136 C1112 0.950 . S
H1137 C1113 0.949 . S
H1138 C1115 0.950 . S
H1139 C1117 0.950 . S
C1140 C1141 1.349 . S
C1140 C1142 1.327 . S
C1140 H1165 0.950 . S
C1141 C1140 1.349 . S
C1141 C1157 1.349 . S
C1142 C1140 1.327 . S
C1142 C1161 1.429 . S
C1142 H1166 0.950 . S
C1143 C1160 1.574 1_455 S
C1143 C1162 1.368 . S
C1143 H1167 0.949 . S
H1144 C1148 0.949 . S
C1145 C1146 1.349 . S
C1145 C1147 1.327 . S
C1145 H1168 0.950 . S
C1146 C1145 1.349 . S
C1146 C1158 1.349 . S
C1147 C1145 1.327 . S
C1147 C1163 1.429 . S
C1147 H1169 0.950 . S
C1148 H1144 0.949 . S
C1148 C1156 1.574 . S
C1148 C1164 1.368 1_455 S
H1149 C1157 0.950 . S
H1150 C1155 0.950 . S
H1151 C1156 0.949 . S
H1152 C1158 0.950 . S
H1153 C1159 0.950 . S
H1154 C1160 0.949 . S
C1155 H1150 0.950 . S
C1155 C1157 1.327 . S
C1155 C1161 1.429 . S
C1156 C1148 1.574 . S
C1156 H1151 0.949 . S
C1156 C1162 1.368 . S
C1157 C1141 1.349 . S
C1157 H1149 0.950 . S
C1157 C1155 1.327 . S
C1158 C1146 1.349 . S
C1158 H1152 0.950 . S
C1158 C1159 1.327 . S
C1159 H1153 0.950 . S
C1159 C1158 1.327 . S
C1159 C1163 1.429 . S
C1160 C1143 1.574 1_655 S
C1160 H1154 0.949 . S
C1160 C1164 1.368 . S
C1161 C1142 1.429 . S
C1161 C1155 1.429 . S
C1161 C1162 1.523 . S
C1162 C1143 1.368 . S
C1162 C1156 1.368 . S
C1162 C1161 1.523 . S
C1163 C1147 1.429 . S
C1163 C1159 1.429 . S
C1163 C1164 1.523 . S
C1164 C1148 1.368 1_655 S
C1164 C1160 1.368 . S
C1164 C1163 1.523 . S
H1165 C1140 0.950 . S
H1166 C1142 0.950 . S
H1167 C1143 0.949 . S
H1168 C1145 0.950 . S
H1169 C1147 0.950 . S
C1170 C1171 1.349 . S
C1170 C1172 1.327 . S
C1170 H1195 0.950 . S
C1171 C1170 1.349 . S
C1171 C1187 1.349 . S
C1172 C1170 1.327 . S
C1172 C1191 1.429 . S
C1172 H1196 0.950 . S
C1173 C1190 1.574 . S
C1173 C1192 1.368 . S
C1173 H1197 0.949 . S
H1174 C1178 0.949 . S
C1175 C1176 1.349 . S
C1175 C1177 1.327 . S
C1175 H1198 0.950 . S
C1176 C1175 1.349 . S
C1176 C1188 1.349 . S
C1177 C1175 1.327 . S
C1177 C1193 1.429 . S
C1177 H1199 0.950 . S
C1178 H1174 0.949 . S
C1178 C1186 1.574 . S
C1178 C1194 1.368 . S
H1179 C1187 0.950 . S
H1180 C1185 0.950 . S
H1181 C1186 0.949 . S
H1182 C1188 0.950 . S
H1183 C1189 0.950 . S
H1184 C1190 0.949 . S
C1185 H1180 0.950 . S
C1185 C1187 1.327 . S
C1185 C1191 1.429 . S
C1186 C1178 1.574 . S
C1186 H1181 0.949 . S
C1186 C1192 1.368 . S
C1187 C1171 1.349 . S
C1187 H1179 0.950 . S
C1187 C1185 1.327 . S
C1188 C1176 1.349 . S
C1188 H1182 0.950 . S
C1188 C1189 1.327 . S
C1189 H1183 0.950 . S
C1189 C1188 1.327 . S
C1189 C1193 1.429 . S
C1190 C1173 1.574 . S
C1190 H1184 0.949 . S
C1190 C1194 1.368 . S
C1191 C1172 1.429 . S
C1191 C1185 1.429 . S
C1191 C1192 1.523 . S
C1192 C1173 1.368 . S
C1192 C1186 1.368 . S
C1192 C1191 1.523 . S
C1193 C1177 1.429 . S
C1193 C1189 1.429 . S
C1193 C1194 1.523 . S
C1194 C1178 1.368 . S
C1194 C1190 1.368 . S
C1194 C1193 1.523 . S
H1195 C1170 0.950 . S
H1196 C1172 0.950 . S
H1197 C1173 0.949 . S
H1198 C1175 0.950 . S
H1199 C1177 0.950 . S
C1200 C1201 1.349 . S
C1200 C1202 1.327 . S
C1200 H1225 0.950 . S
C1201 C1200 1.349 . S
C1201 C1217 1.349 . S
C1202 C1200 1.327 . S
C1202 C1221 1.429 . S
C1202 H1226 0.950 . S
C1203 C1220 1.574 . S
C1203 C1222 1.368 . S
C1203 H1227 0.949 . S
H1204 C1208 0.949 . S
C1205 C1206 1.349 . S
C1205 C1207 1.327 . S
C1205 H1228 0.950 . S
C1206 C1205 1.349 . S
C1206 C1218 1.349 . S
C1207 C1205 1.327 . S
C1207 C1223 1.429 . S
C1207 H1229 0.950 . S
C1208 H1204 0.949 . S
C1208 C1216 1.574 . S
C1208 C1224 1.368 . S
H1209 C1217 0.950 . S
H1210 C1215 0.950 . S
H1211 C1216 0.949 . S
H1212 C1218 0.950 . S
H1213 C1219 0.950 . S
H1214 C1220 0.949 . S
C1215 H1210 0.950 . S
C1215 C1217 1.327 . S
C1215 C1221 1.429 . S
C1216 C1208 1.574 . S
C1216 H1211 0.949 . S
C1216 C1222 1.368 . S
C1217 C1201 1.349 . S
C1217 H1209 0.950 . S
C1217 C1215 1.327 . S
C1218 C1206 1.349 . S
C1218 H1212 0.950 . S
C1218 C1219 1.327 . S
C1219 H1213 0.950 . S
C1219 C1218 1.327 . S
C1219 C1223 1.429 . S
C1220 C1203 1.574 . S
C1220 H1214 0.949 . S
C1220 C1224 1.368 . S
C1221 C1202 1.429 . S
C1221 C1215 1.429 . S
C1221 C1222 1.523 . S
C1222 C1203 1.368 . S
C1222 C1216 1.368 . S
C1222 C1221 1.523 . S
C1223 C1207 1.429 . S
C1223 C1219 1.429 . S
C1223 C1224 1.523 . S
C1224 C1208 1.368 . S
C1224 C1220 1.368 . S
C1224 C1223 1.523 . S
H1225 C1200 0.950 . S
H1226 C1202 0.950 . S
H1227 C1203 0.949 . S
H1228 C1205 0.950 . S
H1229 C1207 0.950 . S
C1230 C1231 1.349 . S
C1230 C1232 1.327 . S
C1230 H1255 0.950 . S
C1231 C1230 1.349 . S
C1231 C1247 1.349 . S
C1232 C1230 1.327 . S
C1232 C1251 1.429 . S
C1232 H1256 0.950 . S
C1233 C1250 1.574 . S
C1233 C1252 1.368 . S
C1233 H1257 0.949 . S
H1234 C1238 0.949 . S
C1235 C1236 1.349 . S
C1235 C1237 1.327 . S
C1235 H1258 0.950 . S
C1236 C1235 1.349 . S
C1236 C1248 1.349 . S
C1237 C1235 1.327 . S
C1237 C1253 1.429 . S
C1237 H1259 0.950 . S
C1238 H1234 0.949 . S
C1238 C1246 1.574 . S
C1238 C1254 1.368 . S
H1239 C1247 0.950 . S
H1240 C1245 0.950 . S
H1241 C1246 0.949 . S
H1242 C1248 0.950 . S
H1243 C1249 0.950 . S
H1244 C1250 0.949 . S
C1245 H1240 0.950 . S
C1245 C1247 1.327 . S
C1245 C1251 1.429 . S
C1246 C1238 1.574 . S
C1246 H1241 0.949 . S
C1246 C1252 1.368 . S
C1247 C1231 1.349 . S
C1247 H1239 0.950 . S
C1247 C1245 1.327 . S
C1248 C1236 1.349 . S
C1248 H1242 0.950 . S
C1248 C1249 1.327 . S
C1249 H1243 0.950 . S
C1249 C1248 1.327 . S
C1249 C1253 1.429 . S
C1250 C1233 1.574 . S
C1250 H1244 0.949 . S
C1250 C1254 1.368 . S
C1251 C1232 1.429 . S
C1251 C1245 1.429 . S
C1251 C1252 1.523 . S
C1252 C1233 1.368 . S
C1252 C1246 1.368 . S
C1252 C1251 1.523 . S
C1253 C1237 1.429 . S
C1253 C1249 1.429 . S
C1253 C1254 1.523 . S
C1254 C1238 1.368 . S
C1254 C1250 1.368 . S
C1254 C1253 1.523 . S
H1255 C1230 0.950 . S
H1256 C1232 0.950 . S
H1257 C1233 0.949 . S
H1258 C1235 0.950 . S
H1259 C1237 0.950 . S
C1260 C1261 1.349 . S
C1260 C1262 1.327 . S
C1260 H1285 0.950 . S
C1261 C1260 1.349 . S
C1261 C1277 1.349 . S
C1262 C1260 1.327 . S
C1262 C1281 1.429 . S
C1262 H1286 0.950 . S
C1263 C1280 1.574 . S
C1263 C1282 1.368 . S
C1263 H1287 0.949 . S
H1264 C1268 0.949 . S
C1265 C1266 1.349 . S
C1265 C1267 1.327 . S
C1265 H1288 0.950 . S
C1266 C1265 1.349 . S
C1266 C1278 1.349 . S
C1267 C1265 1.327 . S
C1267 C1283 1.429 . S
C1267 H1289 0.950 . S
C1268 H1264 0.949 . S
C1268 C1276 1.574 . S
C1268 C1284 1.368 . S
H1269 C1277 0.950 . S
H1270 C1275 0.950 . S
H1271 C1276 0.949 . S
H1272 C1278 0.950 . S
H1273 C1279 0.950 . S
H1274 C1280 0.949 . S
C1275 H1270 0.950 . S
C1275 C1277 1.327 . S
C1275 C1281 1.429 . S
C1276 C1268 1.574 . S
C1276 H1271 0.949 . S
C1276 C1282 1.368 . S
C1277 C1261 1.349 . S
C1277 H1269 0.950 . S
C1277 C1275 1.327 . S
C1278 C1266 1.349 . S
C1278 H1272 0.950 . S
C1278 C1279 1.327 . S
C1279 H1273 0.950 . S
C1279 C1278 1.327 . S
C1279 C1283 1.429 . S
C1280 C1263 1.574 . S
C1280 H1274 0.949 . S
C1280 C1284 1.368 . S
C1281 C1262 1.429 . S
C1281 C1275 1.429 . S
C1281 C1282 1.523 . S
C1282 C1263 1.368 . S
C1282 C1276 1.368 . S
C1282 C1281 1.523 . S
C1283 C1267 1.429 . S
C1283 C1279 1.429 . S
C1283 C1284 1.523 . S
C1284 C1268 1.368 . S
C1284 C1280 1.368 . S
C1284 C1283 1.523 . S
H1285 C1260 0.950 . S
H1286 C1262 0.950 . S
H1287 C1263 0.949 . S
H1288 C1265 0.950 . S
H1289 C1267 0.950 . S
C1290 C1291 1.349 . S
C1290 C1292 1.327 . S
C1290 H1315 0.950 . S
C1291 C1290 1.349 . S
C1291 C1307 1.349 . S
C1292 C1290 1.327 . S
C1292 C1311 1.429 . S
C1292 H1316 0.950 . S
C1293 C1310 1.574 . S
C1293 C1312 1.368 . S
C1293 H1317 0.949 . S
H1294 C1298 0.949 . S
C1295 C1296 1.349 . S
C1295 C1297 1.327 . S
C1295 H1318 0.950 . S
C1296 C1295 1.349 . S
C1296 C1308 1.349 . S
C1297 C1295 1.327 . S
C1297 C1313 1.429 1_455 S
C1297 H1319 0.950 . S
C1298 H1294 0.949 . S
C1298 C1306 1.574 . S
C1298 C1314 1.368 . S
H1299 C1307 0.950 . S
H1300 C1305 0.950 . S
H1301 C1306 0.949 . S
H1302 C1308 0.950 . S
H1303 C1309 0.950 . S
H1304 C1310 0.949 . S
C1305 H1300 0.950 . S
C1305 C1307 1.327 . S
C1305 C1311 1.429 . S
C1306 C1298 1.574 . S
C1306 H1301 0.949 . S
C1306 C1312 1.368 . S
C1307 C1291 1.349 . S
C1307 H1299 0.950 . S
C1307 C1305 1.327 . S
C1308 C1296 1.349 . S
C1308 H1302 0.950 . S
C1308 C1309 1.327 1_455 S
C1309 H1303 0.950 . S
C1309 C1308 1.327 1_655 S
C1309 C1313 1.429 . S
C1310 C1293 1.574 . S
C1310 H1304 0.949 . S
C1310 C1314 1.368 . S
C1311 C1292 1.429 . S
C1311 C1305 1.429 . S
C1311 C1312 1.523 . S
C1312 C1293 1.368 . S
C1312 C1306 1.368 . S
C1312 C1311 1.523 . S
C1313 C1297 1.429 1_655 S
C1313 C1309 1.429 . S
C1313 C1314 1.523 . S
C1314 C1298 1.368 . S
C1314 C1310 1.368 . S
C1314 C1313 1.523 . S
H1315 C1290 0.950 . S
H1316 C1292 0.950 . S
H1317 C1293 0.949 . S
H1318 C1295 0.950 . S
H1319 C1297 0.950 . S
C241 C2 0.939 . S
C246 C222 0.945 . S
C271 C199 1.264 . S
C276 C22 1.204 . S
C301 C42 1.411 . S
C306 C179 1.508 . S
C331 C79 1.829 . S
C336 C219 1.844 . S
C361 C99 1.452 . S
C366 C202 1.347 . S
C391 C119 1.708 1_455 S
C396 C239 1.692 . S
C421 C182 1.343 . S
C426 C139 1.458 . S
C451 C159 1.189 . S
C456 C162 1.120 . S
C481 C62 0.946 . S
C486 C82 0.935 . S
C511 C19 1.437 . S
C516 C102 1.345 1_455 S
C541 C39 1.485 . S
C546 C122 1.380 . S
C571 C142 1.352 . S
C576 C59 1.463 1_554 S
C601 C9 1.652 . S
C606 C178 1.713 . S
C631 C29 1.615 . S
C636 C218 1.659 . S
C661 C224 1.226 . S
C666 C49 1.229 . S
C691 C72 1.315 . S
C696 C198 1.382 . S
C721 C92 0.916 . S
C726 C184 0.936 . S
C751 C164 1.263 . S
C756 C112 1.230 . S
C781 C204 1.679 . S
C786 C132 1.647 . S
C811 C238 1.455 . S
C816 C152 1.366 . S
C841 C18 1.517 . S
C846 C69 1.477 . S
C871 C12 1.573 . S
C876 C38 1.647 . S
C901 C32 1.642 . S
C906 C58 1.702 . S
C931 C64 1.640 . S
C936 C52 1.621 . S
C961 C109 0.940 . S
C966 C84 0.953 . S
C991 C104 1.271 . S
C996 C129 1.259 . S
C1021 C124 0.738 . S
C1026 C149 0.737 . S
C1051 C89 0.971 . S
C1056 C144 0.982 . S
C1081 C169 1.433 . S
C1086 C78 1.477 . S
C1111 C118 1.576 . S
C1116 C192 1.491 . S
C1141 C172 1.421 . S
C1146 C138 1.489 . S
C1171 C212 1.507 . S
C1176 C158 1.609 . S
C1201 C98 1.014 . S
C1206 C229 0.981 . S
C1231 C232 1.096 . S
C1236 C24 1.091 . S
C1261 C44 0.924 . S
C1266 C189 0.944 . S
C1291 C209 1.370 . S
C1296 C4 1.348 . S
