# Generated by pormake.
# Topology wni, (7)-cn, num edge types: 1
# Building blocks:
#     Node 0, Type 0, BuildingBlock: NUHQUE_clean_sbu_2, # of connection points: 7
#     Node 1, Type 0, BuildingBlock: NUHQUE_clean_sbu_2, # of connection points: 7
#     Node 2, Type 0, BuildingBlock: NUHQUE_clean_sbu_2, # of connection points: 7
#     Node 3, Type 0, BuildingBlock: NUHQUE_clean_sbu_2, # of connection points: 7
#     Node 4, Type 0, BuildingBlock: NUHQUE_clean_sbu_2, # of connection points: 7
#     Node 5, Type 0, BuildingBlock: NUHQUE_clean_sbu_2, # of connection points: 7
#     Edge 6, Type (0, 0), BuildingBlock: XUDNAN_clean_linker_2, # of connection points: 2
#     Edge 7, Type (0, 0), BuildingBlock: XUDNAN_clean_linker_2, # of connection points: 2
#     Edge 8, Type (0, 0), BuildingBlock: XUDNAN_clean_linker_2, # of connection points: 2
#     Edge 9, Type (0, 0), BuildingBlock: XUDNAN_clean_linker_2, # of connection points: 2
#     Edge 10, Type (0, 0), BuildingBlock: XUDNAN_clean_linker_2, # of connection points: 2
#     Edge 11, Type (0, 0), BuildingBlock: XUDNAN_clean_linker_2, # of connection points: 2
#     Edge 12, Type (0, 0), BuildingBlock: XUDNAN_clean_linker_2, # of connection points: 2
#     Edge 13, Type (0, 0), BuildingBlock: XUDNAN_clean_linker_2, # of connection points: 2
#     Edge 14, Type (0, 0), BuildingBlock: XUDNAN_clean_linker_2, # of connection points: 2
#     Edge 15, Type (0, 0), BuildingBlock: XUDNAN_clean_linker_2, # of connection points: 2
#     Edge 16, Type (0, 0), BuildingBlock: XUDNAN_clean_linker_2, # of connection points: 2
#     Edge 17, Type (0, 0), BuildingBlock: XUDNAN_clean_linker_2, # of connection points: 2
#     Edge 18, Type (0, 0), BuildingBlock: XUDNAN_clean_linker_2, # of connection points: 2
#     Edge 19, Type (0, 0), BuildingBlock: XUDNAN_clean_linker_2, # of connection points: 2
#     Edge 20, Type (0, 0), BuildingBlock: XUDNAN_clean_linker_2, # of connection points: 2
#     Edge 21, Type (0, 0), BuildingBlock: XUDNAN_clean_linker_2, # of connection points: 2
#     Edge 22, Type (0, 0), BuildingBlock: XUDNAN_clean_linker_2, # of connection points: 2
#     Edge 23, Type (0, 0), BuildingBlock: XUDNAN_clean_linker_2, # of connection points: 2
#     Edge 24, Type (0, 0), BuildingBlock: XUDNAN_clean_linker_2, # of connection points: 2
#     Edge 25, Type (0, 0), BuildingBlock: XUDNAN_clean_linker_2, # of connection points: 2
#     Edge 26, Type (0, 0), BuildingBlock: XUDNAN_clean_linker_2, # of connection points: 2
# Relax obj value: 0.270
# Max RMSD: 0.304
# Mean RMSD: 0.304
data_MOF--net-wni--node1-NUHQUE_clean_sbu_2--edge1-XUDNAN_clean_linker_2
_symmetry_space_group_name_H-M    P1
_symmetry_Int_Tables_number       1
_symmetry_cell_setting            triclinic
loop_
_symmetry_equiv_pos_as_xyz
'x, y, z'
_cell_length_a     35.530548
_cell_length_b     35.464954
_cell_length_c     30.422559
_cell_angle_alpha  89.568284
_cell_angle_beta   90.427191
_cell_angle_gamma 119.50127
loop_
_atom_site_label
_atom_site_type_symbol
_atom_site_fract_x
_atom_site_fract_y
_atom_site_fract_z
_atom_type_partial_charge
O0 O 0.30477 0.49187 0.02121 0.0
Tb1 Tb 0.27616 0.46396 0.0839 0.0
Eu2 Eu 0.17452 0.39553 0.13091 0.0
C3 C 0.31573 0.53195 0.01092 0.0
O4 O 0.30359 0.55382 0.03626 0.0
C5 C 0.2288 0.36531 0.07477 0.0
O6 O 0.13342 0.35848 0.18904 0.0
C7 C 0.12762 0.39976 0.06728 0.0
C8 C 0.11462 0.37522 0.21295 0.0
O9 O 0.11975 0.41338 0.20211 0.0
C10 C 0.22863 0.49682 0.146 0.0
C11 C 0.10187 0.42019 0.0539 0.0
C12 C 0.08343 0.41108 0.01167 0.0
C13 C 0.05661 0.42747 0.99776 0.0
C14 C 0.04942 0.45433 0.02585 0.0
C15 C 0.06812 0.46449 0.06793 0.0
C16 C 0.09404 0.44685 0.08233 0.0
O17 O 0.24052 0.4013 0.05277 0.0
O18 O 0.20825 0.35812 0.11232 0.0
O19 O 0.34484 0.49989 0.09951 0.0
O20 O 0.30505 0.44179 0.13497 0.0
C21 C 0.34457 0.47344 0.12938 0.0
O22 O 0.20819 0.45919 0.16626 0.0
O23 O 0.24728 0.50155 0.10763 0.0
O24 O 0.11188 0.37076 0.09897 0.0
O25 O 0.16983 0.42472 0.06928 0.0
H26 H 0.08876 0.38995 0.9901 0.0
H27 H 0.02861 0.46699 0.01506 0.0
H28 H 0.10798 0.45383 0.11509 0.0
O29 O 0.51257 0.79801 0.7026 0.0
Tb30 Tb 0.56116 0.81458 0.75329 0.0
Eu31 Eu 0.64415 0.78475 0.78489 0.0
C32 C 0.51424 0.78275 0.66392 0.0
O33 O 0.54575 0.77474 0.65504 0.0
C34 C 0.65497 0.862 0.72924 0.0
O35 O 0.68059 0.76991 0.83755 0.0
C36 C 0.62758 0.73339 0.71833 0.0
C37 C 0.7051 0.79862 0.86711 0.0
O38 O 0.71149 0.83832 0.86407 0.0
C39 C 0.54619 0.74178 0.82258 0.0
C40 C 0.61107 0.68747 0.70752 0.0
C41 C 0.61382 0.67641 0.66378 0.0
C42 C 0.59773 0.63287 0.65171 0.0
C43 C 0.57941 0.60082 0.68451 0.0
C44 C 0.57526 0.61121 0.72785 0.0
C45 C 0.59158 0.65472 0.73961 0.0
O46 O 0.61811 0.83001 0.71562 0.0
O47 O 0.67359 0.85492 0.76333 0.0
O48 O 0.5399 0.86233 0.76074 0.0
O49 O 0.5859 0.86304 0.80615 0.0
C50 C 0.56329 0.88158 0.795 0.0
O51 O 0.58777 0.75876 0.83165 0.0
O52 O 0.53041 0.75422 0.78973 0.0
O53 O 0.66569 0.75369 0.73764 0.0
O54 O 0.59951 0.74369 0.73423 0.0
H55 H 0.62757 0.70177 0.63909 0.0
H56 H 0.56781 0.56712 0.67653 0.0
H57 H 0.58839 0.66294 0.77311 0.0
O58 O 0.22294 0.72414 0.35724 0.0
Tb59 Tb 0.20534 0.74435 0.41722 0.0
Eu60 Eu 0.23841 0.83897 0.47686 0.0
C61 C 0.19461 0.70402 0.3257 0.0
O62 O 0.15515 0.69793 0.32896 0.0
C63 C 0.15498 0.79354 0.4194 0.0
O64 O 0.24714 0.87967 0.53701 0.0
C65 C 0.28539 0.88658 0.412 0.0
C66 C 0.28402 0.89799 0.55892 0.0
O67 O 0.31562 0.89169 0.54571 0.0
C68 C 0.28263 0.78047 0.48406 0.0
C69 C 0.32828 0.91104 0.39143 0.0
C70 C 0.32938 0.91635 0.34564 0.0
C71 C 0.36871 0.94058 0.32369 0.0
C72 C 0.40734 0.95872 0.34782 0.0
C73 C 0.4071 0.95315 0.39359 0.0
C74 C 0.36729 0.92971 0.41565 0.0
O75 O 0.18029 0.78584 0.39431 0.0
O76 O 0.16741 0.80768 0.45968 0.0
O77 O 0.15037 0.67879 0.41575 0.0
O78 O 0.17348 0.70853 0.47781 0.0
C79 C 0.14474 0.67359 0.45785 0.0
O80 O 0.26525 0.7992 0.50708 0.0
O81 O 0.27029 0.76749 0.44341 0.0
O82 O 0.27747 0.90267 0.44722 0.0
O83 O 0.26691 0.84414 0.41231 0.0
H84 H 0.29935 0.90236 0.32707 0.0
H85 H 0.43788 0.97716 0.33081 0.0
H86 H 0.36671 0.92556 0.45102 0.0
O87 O 0.5128 0.29549 0.98753 0.0
Tb88 Tb 0.47704 0.27112 0.92659 0.0
Eu89 Eu 0.40285 0.16614 0.88509 0.0
C90 C 0.51162 0.32692 0.00907 0.0
O91 O 0.4865 0.34192 0.9948 0.0
C92 C 0.3784 0.22549 0.94119 0.0
O93 O 0.36619 0.11858 0.83082 0.0
C94 C 0.41386 0.12578 0.95112 0.0
C95 C 0.38249 0.09625 0.81242 0.0
O96 O 0.41972 0.10151 0.82679 0.0
C97 C 0.5011 0.22193 0.85731 0.0
C98 C 0.42835 0.09484 0.96394 0.0
C99 C 0.41411 0.07354 0.0045 0.0
C100 C 0.42529 0.04256 0.01814 0.0
C101 C 0.45177 0.03361 0.99144 0.0
C102 C 0.46724 0.05525 0.95117 0.0
C103 C 0.45488 0.08554 0.93696 0.0
O104 O 0.41579 0.23886 0.96107 0.0
O105 O 0.36869 0.20276 0.90472 0.0
O106 O 0.51337 0.33964 0.90882 0.0
O107 O 0.45294 0.29989 0.87749 0.0
C108 C 0.48548 0.33919 0.88073 0.0
O109 O 0.46137 0.2001 0.8421 0.0
O110 O 0.50982 0.23991 0.89641 0.0
O111 O 0.37765 0.11012 0.9285 0.0
O112 O 0.4433 0.16487 0.93868 0.0
H113 H 0.39355 0.08049 0.0252 0.0
H114 H 0.46064 1.00979 1.00226 0.0
H115 H 0.46623 0.10207 0.90571 0.0
O116 O 0.72803 0.22803 0.62679 0.0
Tb117 Tb 0.7544 0.21364 0.56935 0.0
Eu118 Eu 0.85876 0.23033 0.54282 0.0
C119 C 0.69532 0.19661 0.64792 0.0
O120 O 0.6796 0.15647 0.63463 0.0
C121 C 0.78815 0.1516 0.59414 0.0
O122 O 0.90773 0.23539 0.49272 0.0
C123 C 0.89401 0.27688 0.61227 0.0
C124 C 0.93854 0.27416 0.48104 0.0
O125 O 0.94228 0.30791 0.50224 0.0
C126 C 0.81931 0.28788 0.5061 0.0
C127 C 0.92273 0.32112 0.62831 0.0
C128 C 0.93054 0.32688 0.67354 0.0
C129 C 0.95735 0.36816 0.69091 0.0
C130 C 0.97654 0.40406 0.66256 0.0
C131 C 0.96881 0.3992 0.61687 0.0
C132 C 0.94158 0.35723 0.60002 0.0
O133 O 0.78049 0.1814 0.61024 0.0
O134 O 0.8136 0.16045 0.56002 0.0
O135 O 0.68706 0.18384 0.54769 0.0
O136 O 0.72765 0.1621 0.51982 0.0
C137 C 0.68844 0.15635 0.52069 0.0
O138 O 0.83748 0.26478 0.49513 0.0
O139 O 0.79236 0.27743 0.53932 0.0
O140 O 0.91179 0.25802 0.5901 0.0
O141 O 0.85592 0.26845 0.59704 0.0
H142 H 0.91571 0.29905 0.6954 0.0
H143 H 0.99614 0.43597 0.67656 0.0
H144 H 0.93508 0.3525 0.56513 0.0
O145 O 0.82391 0.53137 0.31951 0.0
Tb146 Tb 0.8268 0.56501 0.25879 0.0
Eu147 Eu 0.79744 0.63503 0.20764 0.0
C148 C 0.86017 0.543 0.34108 0.0
O149 O 0.89555 0.57748 0.32769 0.0
C150 C 0.87551 0.66302 0.2723 0.0
O151 O 0.79773 0.67677 0.15047 0.0
C152 C 0.74547 0.63099 0.26961 0.0
C153 C 0.76676 0.66147 0.12046 0.0
O154 O 0.73557 0.62108 0.12365 0.0
C155 C 0.74928 0.53366 0.19283 0.0
C156 C 0.69966 0.60803 0.28279 0.0
C157 C 0.6898 0.60802 0.32752 0.0
C158 C 0.64667 0.58649 0.342 0.0
C159 C 0.61365 0.56519 0.31075 0.0
C160 C 0.6229 0.56396 0.26629 0.0
C161 C 0.66606 0.58583 0.25206 0.0
O162 O 0.85041 0.62632 0.29248 0.0
O163 O 0.86692 0.66964 0.2317 0.0
O164 O 0.8773 0.58935 0.20784 0.0
O165 O 0.8625 0.53158 0.24258 0.0
C166 C 0.88736 0.55875 0.21294 0.0
O167 O 0.76768 0.57127 0.17231 0.0
O168 O 0.76171 0.52857 0.23222 0.0
O169 O 0.75612 0.65772 0.23599 0.0
O170 O 0.76561 0.60835 0.27022 0.0
H171 H 0.71591 0.6243 0.35104 0.0
H172 H 0.58007 0.54964 0.32076 0.0
H173 H 0.67344 0.58517 0.21766 0.0
H174 H 0.59209 0.59617 0.20226 0.0
H175 H 0.56867 0.4773 0.26648 0.0
H176 H 0.49571 0.43875 0.23311 0.0
H177 H 0.4939 0.58569 0.221 0.0
H178 H 0.48712 0.60688 0.16932 0.0
H179 H 0.54055 0.62334 0.18987 0.0
H180 H 0.55977 0.5977 0.11826 0.0
H181 H 0.50668 0.58205 0.09676 0.0
H182 H 0.52536 0.54314 0.09929 0.0
H183 H 0.42116 0.41692 0.20467 0.0
H184 H 0.35337 0.41117 0.1749 0.0
H185 H 0.42533 0.54385 0.12824 0.0
C186 C 0.57231 0.56157 0.20732 0.0
C187 C 0.58604 0.53935 0.23612 0.0
C188 C 0.55879 0.49449 0.24375 0.0
C189 C 0.51727 0.47246 0.22516 0.0
C190 C 0.5036 0.49573 0.19877 0.0
C191 C 0.53065 0.53908 0.18896 0.0
C192 C 0.50678 0.55748 0.16297 0.0
C193 C 0.50712 0.59558 0.18726 0.0
C194 C 0.52577 0.57087 0.11656 0.0
C195 C 0.46175 0.51841 0.16158 0.0
C196 C 0.46059 0.48299 0.18213 0.0
C197 C 0.42186 0.44418 0.1877 0.0
C198 C 0.38346 0.44131 0.17117 0.0
C199 C 0.38421 0.47702 0.14938 0.0
C200 C 0.4239 0.51592 0.14455 0.0
H201 H 0.50883 0.91391 0.77925 0.0
H202 H 0.61378 0.92882 0.86421 0.0
H203 H 0.60777 0.98511 0.90628 0.0
H204 H 0.53514 0.02928 0.78097 0.0
H205 H 0.47926 0.01605 0.78244 0.0
H206 H 0.4944 0.98088 0.75448 0.0
H207 H 0.44165 0.91542 0.80149 0.0
H208 H 0.42462 0.94931 0.82857 0.0
H209 H 0.44436 0.91962 0.8606 0.0
H210 H 0.5851 0.03292 0.94386 0.0
H211 H 0.54457 0.06522 0.97744 0.0
H212 H 0.45362 0.0195 0.86879 0.0
C213 C 0.53114 0.92972 0.80616 0.0
C214 C 0.56201 0.91731 0.81843 0.0
C215 C 0.59011 0.93806 0.85423 0.0
C216 C 0.58705 0.9702 0.87809 0.0
C217 C 0.55585 0.98131 0.86556 0.0
C218 C 0.52834 0.96169 0.83041 0.0
C219 C 0.49497 0.97651 0.82632 0.0
C220 C 0.50132 1.0022 0.78349 0.0
C221 C 0.44868 0.93792 0.82947 0.0
C222 C 0.50656 1.00581 0.86605 0.0
C223 C 0.54249 1.00894 0.88753 0.0
C224 C 0.55747 0.03134 0.92693 0.0
C225 C 0.53432 0.04964 0.94572 0.0
C226 C 0.49644 0.04529 0.92533 0.0
C227 C 0.48316 0.02425 0.88432 0.0
H228 H 0.14881 0.63618 0.53607 0.0
H229 H 0.06564 0.61936 0.42434 0.0
H230 H 1.01042 0.54851 0.4539 0.0
H231 H 0.12578 0.52642 0.53852 0.0
H232 H 0.12781 0.52299 0.59756 0.0
H233 H 0.15897 0.5744 0.57028 0.0
H234 H 0.12239 0.60749 0.61783 0.0
H235 H 0.09128 0.55619 0.64543 0.0
H236 H 0.06421 0.58191 0.61892 0.0
H237 H 0.9646 0.47924 0.49518 0.0
H238 H 0.93279 0.41463 0.54317 0.0
H239 H 0.04894 0.47291 0.62406 0.0
C240 C 0.11855 0.61788 0.51848 0.0
C241 C 0.11097 0.63336 0.47839 0.0
C242 C 0.07171 0.60808 0.45537 0.0
C243 C 0.0402 0.56785 0.47188 0.0
C244 C 0.0488 0.55299 0.51112 0.0
C245 C 0.08711 0.57702 0.534 0.0
C246 C 0.0895 0.55203 0.5736 0.0
C247 C 0.12778 0.54345 0.56973 0.0
C248 C 0.09198 0.57583 0.61648 0.0
C249 C 0.04659 0.51042 0.56941 0.0
C250 C 0.02344 0.51183 0.53343 0.0
C251 C 0.98264 0.47748 0.52318 0.0
C252 C 0.96501 0.44067 0.55045 0.0
C253 C 0.98829 0.43811 0.58737 0.0
C254 C 0.02981 0.47367 0.59656 0.0
H255 H 0.60851 0.583 0.79353 0.0
H256 H 0.48923 0.5561 0.72829 0.0
H257 H 0.45108 0.48487 0.76555 0.0
H258 H 0.59727 0.48273 0.78194 0.0
H259 H 0.61901 0.47929 0.83459 0.0
H260 H 0.63543 0.53139 0.81012 0.0
H261 H 0.61111 0.55556 0.87937 0.0
H262 H 0.59541 0.50378 0.90464 0.0
H263 H 0.55684 0.52267 0.89962 0.0
H264 H 0.42917 0.41245 0.79939 0.0
H265 H 0.42313 0.34631 0.83412 0.0
H266 H 0.55618 0.42011 0.87866 0.0
C267 C 0.57395 0.56283 0.78891 0.0
C268 C 0.55138 0.57511 0.75899 0.0
C269 C 0.50661 0.54738 0.75197 0.0
C270 C 0.48481 0.50685 0.77278 0.0
C271 C 0.50827 0.49468 0.80071 0.0
C272 C 0.55166 0.52217 0.80958 0.0
C273 C 0.57009 0.49975 0.83796 0.0
C274 C 0.60766 0.49821 0.81474 0.0
C275 C 0.58419 0.52175 0.88308 0.0
C276 C 0.53088 0.45495 0.84193 0.0
C277 C 0.49546 0.45278 0.82049 0.0
C278 C 0.45643 0.41396 0.81704 0.0
C279 C 0.45337 0.37651 0.8365 0.0
C280 C 0.48911 0.37822 0.85904 0.0
C281 C 0.52822 0.418 0.86186 0.0
H282 H 0.43785 0.01568 0.45759 0.0
H283 H 0.47212 0.93565 0.37927 0.0
H284 H 0.54747 0.97674 0.40622 0.0
H285 H 0.5307 0.11301 0.43672 0.0
H286 H 0.53655 0.13577 0.49079 0.0
H287 H 0.48389 0.09633 0.47101 0.0
H288 H 0.47309 0.04757 0.53892 0.0
H289 H 0.52547 0.08725 0.55939 0.0
H290 H 0.51313 0.03196 0.55188 0.0
H291 H 0.62049 0.03122 0.43506 0.0
H292 H 0.68547 0.09295 0.46774 0.0
H293 H 0.60452 0.13866 0.52653 0.0
C294 C 0.46097 1.00596 0.4475 0.0
C295 C 0.44925 0.97219 0.4169 0.0
C296 C 0.48055 0.96115 0.40312 0.0
C297 C 0.52339 0.98436 0.41815 0.0
C298 C 0.53446 0.01857 0.44702 0.0
C299 C 0.5041 0.02907 0.46207 0.0
C300 C 0.52523 0.0692 0.49065 0.0
C301 C 0.5187 0.10572 0.4711 0.0
C302 C 0.50822 0.05834 0.53802 0.0
C303 C 0.57221 0.08025 0.4882 0.0
C304 C 0.57679 0.05043 0.46319 0.0
C305 C 0.61727 0.05456 0.45509 0.0
C306 C 0.65401 0.08983 0.47348 0.0
C307 C 0.65001 0.1206 0.49938 0.0
C308 C 0.60854 0.11566 0.50671 0.0
H309 H 0.019 0.44126 0.14238 0.0
H310 H 0.09104 0.54861 0.05341 0.0
H311 H 0.05797 0.58871 0.08666 0.0
H312 H 0.9243 0.44092 0.13503 0.0
H313 H 0.90788 0.42843 0.19162 0.0
H314 H 0.94401 0.41209 0.16852 0.0
H315 H 1.00073 0.45319 0.22941 0.0
H316 H 0.96428 0.46883 0.25354 0.0
H317 H 1.01839 0.50957 0.23897 0.0
H318 H 1.0073 0.61109 0.11982 0.0
H319 H 0.94754 0.61659 0.15522 0.0
H320 H 0.90814 0.49467 0.22254 0.0
C321 C 0.0293 0.47407 0.13156 0.0
C322 C 0.05816 0.49236 0.09604 0.0
C323 C 0.06963 0.53458 0.08124 0.0
C324 C 0.05085 0.55746 0.09981 0.0
C325 C 0.02074 0.53773 0.13333 0.0
C326 C 1.01067 0.49732 0.14975 0.0
C327 C 0.97423 0.48157 0.18284 0.0
C328 C 0.93532 0.4382 0.16861 0.0
C329 C 0.99037 0.4781 0.22892 0.0
C330 C 0.96375 0.51816 0.1805 0.0
C331 C 0.99135 0.5506 0.1523 0.0
C332 C 0.98603 0.58628 0.14263 0.0
C333 C 0.95183 0.58901 0.16255 0.0
C334 C 0.92325 0.55609 0.19148 0.0
C335 C 0.92963 0.52046 0.20067 0.0
H336 H 0.3969 0.30377 0.97337 0.0
H337 H 0.29076 0.174 0.95144 0.0
H338 H 0.24044 0.19422 0.98692 0.0
H339 H 0.36362 0.32405 0.07745 0.0
H340 H 0.38004 0.37976 0.06483 0.0
H341 H 0.40754 0.35421 0.03987 0.0
H342 H 0.3912 0.37374 0.96244 0.0
H343 H 0.36399 0.39968 0.98714 0.0
H344 H 0.33614 0.35739 0.94724 0.0
H345 H 0.20283 0.22891 0.02883 0.0
H346 H 0.17935 0.27751 0.06279 0.0
H347 H 0.30936 0.38562 0.04946 0.0
C348 C 0.36308 0.27958 0.97633 0.0
C349 C 0.34758 0.23721 0.96038 0.0
C350 C 0.30306 0.2066 0.96368 0.0
C351 C 0.27443 0.21777 0.98396 0.0
C352 C 0.29084 0.25989 0.99977 0.0
C353 C 0.33405 0.29051 0.99529 0.0
C354 C 0.3433 0.33428 0.01221 0.0
C355 C 0.37553 0.34892 0.05088 0.0
C356 C 0.3596 0.36826 0.97504 0.0
C357 C 0.29863 0.32356 0.02727 0.0
C358 C 0.26886 0.28035 0.02069 0.0
C359 C 0.22579 0.26287 0.03366 0.0
C360 C 0.21276 0.2905 0.05306 0.0
C361 C 0.24253 0.33509 0.05818 0.0
C362 C 0.28592 0.35162 0.04535 0.0
H363 H 0.81676 0.09962 0.633 0.0
H364 H 0.70156 0.104 0.59333 0.0
H365 H 0.65586 0.03175 0.62596 0.0
H366 H 0.77417 0.9841 0.61469 0.0
H367 H 0.80027 0.9767 0.66239 0.0
H368 H 0.82429 0.02838 0.63467 0.0
H369 H 0.82494 0.06553 0.70786 0.0
H370 H 0.80049 0.01388 0.73571 0.0
H371 H 0.77515 0.0471 0.7376 0.0
H372 H 0.62276 0.96019 0.6612 0.0
H373 H 0.60263 0.89078 0.69729 0.0
H374 H 0.73817 0.93133 0.71928 0.0
C375 C 0.78191 0.08488 0.63087 0.0
C376 C 0.76237 0.107 0.61066 0.0
C377 C 0.71684 0.08744 0.6089 0.0
C378 C 0.69072 0.04648 0.6273 0.0
C379 C 0.71071 0.02569 0.64776 0.0
C380 C 0.75516 0.04395 0.64977 0.0
C381 C 0.76782 0.01445 0.67463 0.0
C382 C 0.79313 1.00005 0.64481 0.0
C383 C 0.79363 0.03657 0.71643 0.0
C384 C 0.72349 0.97674 0.68583 0.0
C385 C 0.69122 0.98422 0.66978 0.0
C386 C 0.64766 0.95401 0.6742 0.0
C387 C 0.63658 0.91466 0.69488 0.0
C388 C 0.6688 0.90582 0.71154 0.0
C389 C 0.7129 0.93758 0.70754 0.0
H390 H 0.95918 0.69238 0.24853 0.0
H391 H 0.87929 0.7008 0.35039 0.0
H392 H 0.9442 0.7429 0.39676 0.0
H393 H 0.02268 0.67095 0.32002 0.0
H394 H 0.07242 0.7004 0.28986 0.0
H395 H 0.0214 0.67828 0.26143 0.0
H396 H 0.04228 0.75432 0.23036 0.0
H397 H 0.09365 0.77665 0.2584 0.0
H398 H 0.05859 0.79912 0.26755 0.0
H399 H 1.01661 0.77715 0.43508 0.0
H400 H 0.09022 0.79919 0.4628 0.0
H401 H 0.1221 0.76529 0.33701 0.0
C402 C 0.95584 0.70481 0.27981 0.0
C403 C 0.91473 0.69488 0.2955 0.0
C404 C 0.91087 0.7093 0.33756 0.0
C405 C 0.94749 0.73308 0.36408 0.0
C406 C 0.98765 0.74155 0.34825 0.0
C407 C 0.99204 0.72784 0.30705 0.0
C408 C 0.0378 0.73652 0.29996 0.0
C409 C 0.03859 0.69402 0.29239 0.0
C410 C 0.05935 0.76857 0.2618 0.0
C411 C 0.05824 0.7567 0.34369 0.0
C412 C 0.02898 0.7598 0.37094 0.0
C413 C 0.03997 0.7754 0.4138 0.0
C414 C 0.08185 0.78783 0.42931 0.0
C415 C 0.11209 0.78422 0.40212 0.0
C416 C 0.1 0.76888 0.35861 0.0
H417 H 0.98369 0.3487 0.43357 0.0
H418 H 0.95291 0.2142 0.43867 0.0
H419 H 0.99575 0.22544 0.37103 0.0
H420 H 0.97431 0.35372 0.31698 0.0
H421 H 1.01769 0.40885 0.31246 0.0
H422 H 0.98651 0.39056 0.36222 0.0
H423 H 0.05671 0.41461 0.40747 0.0
H424 H 0.08811 0.43308 0.35784 0.0
H425 H 0.09263 0.39438 0.39306 0.0
H426 H 0.04255 0.25216 0.3025 0.0
H427 H 0.08663 0.29091 0.23762 0.0
H428 H 0.08338 0.40677 0.27652 0.0
C429 C 0.98635 0.32167 0.42083 0.0
C430 C 0.96539 0.28064 0.44167 0.0
C431 C 0.96891 0.24593 0.42335 0.0
C432 C 0.99317 0.25205 0.38499 0.0
C433 C 1.01323 0.29292 0.36514 0.0
C434 C 1.0098 0.32704 0.38235 0.0
C435 C 0.03289 0.36729 0.35397 0.0
C436 C 1.00094 0.38088 0.3353 0.0
C437 C 0.06978 0.40453 0.37962 0.0
C438 C 0.05021 0.35066 0.31816 0.0
C439 C 0.03877 0.30778 0.32523 0.0
C440 C 0.05157 0.28569 0.29663 0.0
C441 C 0.07665 0.30798 0.25988 0.0
C442 C 0.08836 0.35182 0.25186 0.0
C443 C 0.07481 0.37321 0.28152 0.0
H444 H 0.67867 0.71641 0.89915 0.0
H445 H 0.77127 0.85184 0.92194 0.0
H446 H 0.79889 0.83136 0.98739 0.0
H447 H 0.65302 0.68837 0.01214 0.0
H448 H 0.64719 0.63513 0.00725 0.0
H449 H 0.6366 0.66002 0.96051 0.0
H450 H 0.69226 0.65019 0.91475 0.0
H451 H 0.703 0.6252 0.96133 0.0
H452 H 0.74679 0.67168 0.93506 0.0
H453 H 0.81577 0.79618 0.05145 0.0
H454 H 0.8186 0.74937 0.11052 0.0
H455 H 0.71312 0.63705 0.04791 0.0
C456 C 0.70517 0.74172 0.91754 0.0
C457 C 0.72308 0.78579 0.90508 0.0
C458 C 0.75712 0.81791 0.93066 0.0
C459 C 0.77309 0.80656 0.9679 0.0
C460 C 0.75448 0.76293 0.97953 0.0
C461 C 0.72112 0.73099 0.95523 0.0
C462 C 0.70541 0.6867 0.97606 0.0
C463 C 0.65773 0.66638 0.98981 0.0
C464 C 0.71229 0.65668 0.94494 0.0
C465 C 0.73508 0.69874 0.01587 0.0
C466 C 0.76337 0.74283 0.01708 0.0
C467 C 0.79378 0.76161 0.05079 0.0
C468 C 0.79518 0.73472 0.08423 0.0
C469 C 0.76611 0.6895 0.08406 0.0
C470 C 0.7358 0.67148 0.04918 0.0
H471 H 0.41217 0.0528 0.76124 0.0
H472 H 0.30159 0.0718 0.77973 0.0
H473 H 0.26409 0.02233 0.71788 0.0
H474 H 0.40831 0.05048 0.64353 0.0
H475 H 0.424 1.00947 0.63892 0.0
H476 H 0.44171 0.04537 0.68543 0.0
H477 H 0.40813 0.97944 0.73842 0.0
H478 H 0.39061 0.94337 0.69206 0.0
H479 H 0.35194 0.93924 0.73252 0.0
H480 H 0.23856 0.97085 0.6538 0.0
H481 H 0.22751 0.92253 0.59117 0.0
H482 H 0.35513 0.9378 0.61354 0.0
C483 C 0.37997 0.04643 0.75246 0.0
C484 C 0.35976 0.06615 0.77552 0.0
C485 C 0.31775 0.05713 0.76265 0.0
C486 C 0.29615 0.02901 0.72757 0.0
C487 C 0.317 1.0102 0.70552 0.0
C488 C 0.35802 0.01859 0.71738 0.0
C489 C 0.37354 0.99482 0.68775 0.0
C490 C 0.41429 0.02695 0.66241 0.0
C491 C 0.38151 0.96228 0.71427 0.0
C492 C 0.33482 0.9718 0.65729 0.0
C493 C 0.30251 0.98097 0.66824 0.0
C494 C 0.26364 0.96345 0.64492 0.0
C495 C 0.25764 0.93597 0.60937 0.0
C496 C 0.29039 0.9263 0.59727 0.0
C497 C 0.32943 0.94452 0.6218 0.0
H498 H 0.33515 0.60746 0.96756 0.0
H499 H 0.37236 0.50809 0.97926 0.0
H500 H 0.43496 0.55076 0.93132 0.0
H501 H 0.36701 0.63338 0.85086 0.0
H502 H 0.38547 0.69023 0.85833 0.0
H503 H 0.34209 0.65055 0.89162 0.0
H504 H 0.38506 0.68925 0.9619 0.0
H505 H 0.42882 0.72863 0.92889 0.0
H506 H 0.43897 0.69757 0.96969 0.0
H507 H 0.49822 0.60798 0.89029 0.0
H508 H 0.55228 0.67159 0.84836 0.0
H509 H 0.47108 0.7308 0.85763 0.0
C510 C 0.35605 0.59439 0.95932 0.0
C511 C 0.34897 0.55457 0.9771 0.0
C512 C 0.37698 0.53841 0.9657 0.0
C513 C 0.4128 0.56249 0.93871 0.0
C514 C 0.41958 0.60219 0.9227 0.0
C515 C 0.39148 0.61759 0.93162 0.0
C516 C 0.40631 0.66129 0.91016 0.0
C517 C 0.37325 0.65868 0.87569 0.0
C518 C 0.41532 0.69623 0.94473 0.0
C519 C 0.44766 0.66847 0.88879 0.0
C520 C 0.45497 0.63419 0.89685 0.0
C521 C 0.49253 0.63468 0.88305 0.0
C522 C 0.52312 0.67095 0.85967 0.0
C523 C 0.5154 0.70558 0.84981 0.0
C524 C 0.47726 0.70431 0.86446 0.0
H525 H 0.31834 0.8057 0.5661 0.0
H526 H 0.32776 0.74453 0.44668 0.0
H527 H 0.38785 0.73761 0.47962 0.0
H528 H 0.43179 0.86715 0.58807 0.0
H529 H 0.42553 0.86023 0.64681 0.0
H530 H 0.38308 0.85984 0.61379 0.0
H531 H 0.32846 0.7846 0.64573 0.0
H532 H 0.37073 0.78472 0.67884 0.0
H533 H 0.33979 0.74046 0.64184 0.0
H534 H 0.44804 0.73839 0.52585 0.0
H535 H 0.50251 0.7464 0.58177 0.0
H536 H 0.45206 0.80631 0.67009 0.0
C537 C 0.33286 0.79072 0.54678 0.0
C538 C 0.31824 0.77563 0.50378 0.0
C539 C 0.33834 0.75634 0.47972 0.0
C540 C 0.37252 0.75225 0.49813 0.0
C541 C 0.38615 0.76757 0.5406 0.0
C542 C 0.36687 0.78637 0.56459 0.0
C543 C 0.38754 0.80045 0.60944 0.0
C544 C 0.40821 0.84984 0.61482 0.0
C545 C 0.35467 0.77609 0.64612 0.0
C546 C 0.42147 0.78659 0.60701 0.0
C547 C 0.42033 0.76776 0.56709 0.0
C548 C 0.44913 0.75297 0.5573 0.0
C549 C 0.47994 0.75764 0.58921 0.0
C550 C 0.48146 0.77678 0.63035 0.0
C551 C 0.45166 0.79126 0.63912 0.0
H552 H 0.16362 0.50085 0.18942 0.0
H553 H 0.29673 0.57868 0.14747 0.0
H554 H 0.30069 0.6427 0.18388 0.0
H555 H 0.13537 0.58734 0.17386 0.0
H556 H 0.09997 0.57043 0.22075 0.0
H557 H 0.10691 0.5311 0.18996 0.0
H558 H 0.12964 0.50652 0.26066 0.0
H559 H 0.12247 0.54532 0.29197 0.0
H560 H 0.17357 0.54609 0.29363 0.0
H561 H 0.29295 0.69501 0.23231 0.0
H562 H 0.2722 0.73428 0.28506 0.0
H563 H 0.14203 0.62483 0.28962 0.0
C564 C 0.19348 0.53144 0.1879 0.0
C565 C 0.2301 0.535 0.1663 0.0
C566 C 0.26844 0.57555 0.16406 0.0
C567 C 0.27093 0.61198 0.18452 0.0
C568 C 0.23439 0.60741 0.20596 0.0
C569 C 0.19612 0.56838 0.20714 0.0
C570 C 0.1617 0.57217 0.23268 0.0
C571 C 0.12376 0.56486 0.20251 0.0
C572 C 0.14596 0.54067 0.27207 0.0
C573 C 0.18727 0.61894 0.2474 0.0
C574 C 0.2291 0.63867 0.23154 0.0
C575 C 0.26004 0.68038 0.24408 0.0
C576 C 0.24807 0.70238 0.27406 0.0
C577 C 0.20543 0.68282 0.29051 0.0
C578 C 0.1745 0.64094 0.27639 0.0
H579 H 0.54283 0.41021 0.03735 0.0
H580 H 0.55199 0.29409 0.06041 0.0
H581 H 0.61018 0.33349 0.11477 0.0
H582 H 0.65294 0.48176 0.03751 0.0
H583 H 0.65063 0.52554 0.06475 0.0
H584 H 0.60508 0.487 0.03305 0.0
H585 H 0.55529 0.46985 0.10079 0.0
H586 H 0.60067 0.50859 0.13274 0.0
H587 H 0.56937 0.45343 0.15168 0.0
H588 H 0.6701 0.38613 0.16266 0.0
H589 H 0.73037 0.44968 0.19861 0.0
H590 H 0.68574 0.53283 0.14058 0.0
C591 C 0.55628 0.39279 0.05476 0.0
C592 C 0.54267 0.34898 0.04512 0.0
C593 C 0.56185 0.32758 0.06756 0.0
C594 C 0.59477 0.34963 0.09856 0.0
C595 C 0.60825 0.39311 0.10651 0.0
C596 C 0.58964 0.41454 0.08533 0.0
C597 C 0.61283 0.46231 0.09683 0.0
C598 C 0.63148 0.49081 0.05558 0.0
C599 C 0.58275 0.47423 0.122 0.0
C600 C 0.64834 0.46458 0.12645 0.0
C601 C 0.6444 0.42412 0.13247 0.0
C602 C 0.67345 0.41795 0.15834 0.0
C603 C 0.70755 0.45416 0.17853 0.0
C604 C 0.71281 0.496 0.17185 0.0
C605 C 0.68273 0.50121 0.14562 0.0
H606 H 0.61178 0.14836 0.67545 0.0
H607 H 0.73112 0.26783 0.70078 0.0
H608 H 0.69487 0.28582 0.75951 0.0
H609 H 0.54247 0.19307 0.68748 0.0
H610 H 0.49929 0.14549 0.71298 0.0
H611 H 0.53545 0.14024 0.6756 0.0
H612 H 0.55379 0.09952 0.73547 0.0
H613 H 0.51763 0.10466 0.77303 0.0
H614 H 0.57327 0.12426 0.78843 0.0
H615 H 0.64574 0.29079 0.815 0.0
H616 H 0.58565 0.28511 0.86021 0.0
H617 H 0.49727 0.16497 0.79475 0.0
C618 C 0.63043 0.178 0.69381 0.0
C619 C 0.67433 0.20658 0.68405 0.0
C620 C 0.69747 0.24552 0.70798 0.0
C621 C 0.67722 0.2559 0.74141 0.0
C622 C 0.63376 0.2272 0.74999 0.0
C623 C 0.61051 0.1892 0.72668 0.0
C624 C 0.56351 0.1653 0.74052 0.0
C625 C 0.53343 0.1608 0.70184 0.0
C626 C 0.55137 0.12082 0.76057 0.0
C627 C 0.56395 0.19603 0.77501 0.0
C628 C 0.60491 0.23115 0.78046 0.0
C629 C 0.6135 0.26352 0.81097 0.0
C630 C 0.57924 0.25998 0.8365 0.0
C631 C 0.53689 0.22474 0.83076 0.0
C632 C 0.52926 0.19244 0.79957 0.0
H633 H 0.7699 0.32473 0.48195 0.0
H634 H 0.90019 0.34421 0.47784 0.0
H635 H 0.92566 0.41503 0.44195 0.0
H636 H 0.77522 0.36882 0.37418 0.0
H637 H 0.74235 0.39282 0.38772 0.0
H638 H 0.73508 0.34531 0.41679 0.0
H639 H 0.74769 0.38581 0.49069 0.0
H640 H 0.75549 0.43365 0.46174 0.0
H641 H 0.79668 0.43665 0.49883 0.0
H642 H 0.93759 0.48438 0.40885 0.0
H643 H 0.93314 0.54157 0.36662 0.0
H644 H 0.79397 0.4749 0.3851 0.0
C645 C 0.80382 0.34423 0.47382 0.0
C646 C 0.83331 0.32936 0.48309 0.0
C647 C 0.87719 0.35506 0.47105 0.0
C648 C 0.89202 0.39555 0.45106 0.0
C649 C 0.86236 0.40962 0.44277 0.0
C650 C 0.81899 0.38437 0.4527 0.0
C651 C 0.79327 0.40527 0.43594 0.0
C652 C 0.7595 0.37634 0.40161 0.0
C653 C 0.77203 0.41598 0.47409 0.0
C654 C 0.82903 0.44612 0.41512 0.0
C655 C 0.86873 0.44838 0.42046 0.0
C656 C 0.90668 0.48293 0.40421 0.0
C657 C 0.90381 0.51539 0.38046 0.0
C658 C 0.86317 0.51259 0.37244 0.0
C659 C 0.82545 0.47787 0.39074 0.0
H660 H 0.03431 0.40643 0.73593 0.0
H661 H 0.89537 0.3419 0.75383 0.0
H662 H 0.9058 0.35031 0.83439 0.0
H663 H 0.05601 0.35734 0.82997 0.0
H664 H 0.10615 0.40509 0.84389 0.0
H665 H 0.08789 0.39529 0.7876 0.0
H666 H 0.09228 0.47037 0.78382 0.0
H667 H 0.11065 0.48045 0.84007 0.0
H668 H 0.06352 0.48381 0.82371 0.0
H669 H 0.93122 0.36753 0.91229 0.0
H670 H 0.97001 0.38866 0.98352 0.0
H671 H 0.09241 0.43812 0.91585 0.0
C672 C 1.00621 0.39436 0.75696 0.0
C673 C 0.96404 0.37374 0.73898 0.0
C674 C 0.92789 0.35772 0.76723 0.0
C675 C 0.93352 0.36244 0.81288 0.0
C676 C 0.9755 0.38278 0.82968 0.0
C677 C 1.01125 0.39815 0.8027 0.0
C678 C 0.05276 0.41753 0.82937 0.0
C679 C 0.07713 0.39229 0.82228 0.0
C680 C 0.08149 0.46591 0.8186 0.0
C681 C 0.03476 0.41092 0.87552 0.0
C682 C 0.99013 0.39114 0.87487 0.0
C683 C 0.96614 0.38278 0.91327 0.0
C684 C 0.98836 0.39495 0.95346 0.0
C685 C 0.03399 0.41474 0.95492 0.0
C686 C 0.05744 0.42261 0.91547 0.0
H687 H 0.65908 0.67714 0.58666 0.0
H688 H 0.53653 0.5598 0.60978 0.0
H689 H 0.53921 0.5345 0.53584 0.0
H690 H 0.63253 0.6898 0.47323 0.0
H691 H 0.68724 0.71119 0.45413 0.0
H692 H 0.67732 0.71974 0.51017 0.0
H693 H 0.72285 0.68529 0.53742 0.0
H694 H 0.73245 0.67612 0.48145 0.0
H695 H 0.70872 0.63147 0.51977 0.0
H696 H 0.55644 0.51906 0.46206 0.0
H697 H 0.58096 0.5193 0.38692 0.0
H698 H 0.68699 0.65057 0.40547 0.0
C699 C 0.63256 0.64632 0.57616 0.0
C700 C 0.59831 0.61996 0.60512 0.0
C701 C 0.56421 0.57995 0.58943 0.0
C702 C 0.56515 0.56531 0.54715 0.0
C703 C 0.5998 0.59141 0.52013 0.0
C704 C 0.63237 0.63151 0.5334 0.0
C705 C 0.66451 0.6539 0.49644 0.0
C706 C 0.66543 0.69616 0.48268 0.0
C707 C 0.70982 0.66218 0.50957 0.0
C708 C 0.64486 0.61984 0.46064 0.0
C709 C 0.60794 0.58388 0.47553 0.0
C710 C 0.58474 0.54743 0.44956 0.0
C711 C 0.59885 0.5481 0.40666 0.0
C712 C 0.63527 0.58542 0.38937 0.0
C713 C 0.65899 0.62151 0.4173 0.0
H714 H 0.44023 0.07735 0.10041 0.0
H715 H 0.3757 0.95555 0.03036 0.0
H716 H 0.3509 0.91596 0.1011 0.0
H717 H 0.47964 0.03883 0.18774 0.0
H718 H 0.47308 0.07086 0.22954 0.0
H719 H 0.4826 0.08965 0.17343 0.0
H720 H 0.41276 0.09558 0.17401 0.0
H721 H 0.40307 0.0769 0.23019 0.0
H722 H 0.36211 0.04892 0.18891 0.0
H723 H 0.33382 0.88992 0.17956 0.0
H724 H 0.33002 0.87885 0.26027 0.0
H725 H 0.40944 0.01743 0.27893 0.0
C726 C 0.42038 0.0424 0.10015 0.0
C727 C 0.40933 0.0193 0.06027 0.0
C728 C 0.38418 0.97358 0.06082 0.0
C729 C 0.36993 0.95095 0.10072 0.0
C730 C 0.38161 0.97461 0.13965 0.0
C731 C 0.40657 0.01929 0.1397 0.0
C732 C 0.4169 0.03675 0.1861 0.0
C733 C 0.46597 0.06041 0.19469 0.0
C734 C 0.39754 0.06628 0.19533 0.0
C735 C 0.39406 0.99494 0.21213 0.0
C736 C 0.37339 0.95949 0.18476 0.0
C737 C 0.34992 0.91742 0.20131 0.0
C738 C 0.34783 0.91143 0.24707 0.0
C739 C 0.36961 0.94726 0.27555 0.0
C740 C 0.39284 0.98948 0.25776 0.0
loop_
_geom_bond_atom_site_label_1
_geom_bond_atom_site_label_2
_geom_bond_distance
_geom_bond_site_symmetry_2
_ccdc_geom_bond_type
O0 Tb1 2.292 1_556 S
O0 C3 1.255 . S
Tb1 O0 2.292 1_554 S
Tb1 O17 2.326 . S
Tb1 O19 2.500 . S
Tb1 O20 2.473 . S
Tb1 O23 2.324 . S
Eu2 O6 2.292 . S
Eu2 C7 2.852 . S
Eu2 O18 2.324 . S
Eu2 O22 2.326 . S
Eu2 O24 2.500 . S
Eu2 O25 2.473 . S
C3 O0 1.255 . S
C3 O4 1.247 . S
O4 C3 1.247 . S
C5 O17 1.242 . S
C5 O18 1.258 . S
O6 Eu2 2.292 . S
O6 C8 1.255 . S
C7 Eu2 2.852 . S
C7 C11 1.503 . S
C7 O24 1.273 . S
C7 O25 1.257 . S
C8 O6 1.255 . S
C8 O9 1.247 . S
O9 C8 1.247 . S
C10 O22 1.242 . S
C10 O23 1.258 . S
C11 C7 1.503 . S
C11 C12 1.379 . S
C11 C16 1.392 . S
C12 C11 1.379 . S
C12 C13 1.404 1_554 S
C12 H26 0.929 1_554 S
C13 C12 1.404 1_556 S
C13 C14 1.389 . S
C14 C13 1.389 . S
C14 C15 1.399 1_556 S
C14 H27 0.931 . S
C15 C14 1.399 1_554 S
C15 C16 1.390 . S
C16 C11 1.392 . S
C16 C15 1.390 . S
C16 H28 0.929 . S
O17 Tb1 2.326 . S
O17 C5 1.242 . S
O18 Eu2 2.324 . S
O18 C5 1.258 . S
O19 Tb1 2.500 . S
O19 C21 1.273 . S
O20 Tb1 2.473 . S
O20 C21 1.257 . S
C21 O19 1.273 . S
C21 O20 1.257 . S
O22 Eu2 2.326 . S
O22 C10 1.242 . S
O23 Tb1 2.324 . S
O23 C10 1.258 . S
O24 Eu2 2.500 . S
O24 C7 1.273 . S
O25 Eu2 2.473 . S
O25 C7 1.257 . S
H26 C12 0.929 1_556 S
H27 C14 0.931 . S
H28 C16 0.929 . S
O29 Tb30 2.292 . S
O29 C32 1.255 . S
Tb30 O29 2.292 . S
Tb30 O46 2.326 . S
Tb30 O48 2.500 . S
Tb30 O49 2.473 . S
Tb30 O52 2.324 . S
Eu31 O35 2.292 . S
Eu31 C36 2.852 . S
Eu31 O47 2.324 . S
Eu31 O51 2.326 . S
Eu31 O53 2.500 . S
Eu31 O54 2.473 . S
C32 O29 1.255 . S
C32 O33 1.247 . S
O33 C32 1.247 . S
C34 O46 1.242 . S
C34 O47 1.258 . S
O35 Eu31 2.292 . S
O35 C37 1.255 . S
C36 Eu31 2.852 . S
C36 C40 1.503 . S
C36 O53 1.273 . S
C36 O54 1.257 . S
C37 O35 1.255 . S
C37 O38 1.247 . S
O38 C37 1.247 . S
C39 O51 1.242 . S
C39 O52 1.258 . S
C40 C36 1.503 . S
C40 C41 1.379 . S
C40 C45 1.392 . S
C41 C40 1.379 . S
C41 C42 1.404 . S
C41 H55 0.929 . S
C42 C41 1.404 . S
C42 C43 1.389 . S
C43 C42 1.389 . S
C43 C44 1.399 . S
C43 H56 0.931 . S
C44 C43 1.399 . S
C44 C45 1.390 . S
C45 C40 1.392 . S
C45 C44 1.390 . S
C45 H57 0.929 . S
O46 Tb30 2.326 . S
O46 C34 1.242 . S
O47 Eu31 2.324 . S
O47 C34 1.258 . S
O48 Tb30 2.500 . S
O48 C50 1.273 . S
O49 Tb30 2.473 . S
O49 C50 1.257 . S
C50 O48 1.273 . S
C50 O49 1.257 . S
O51 Eu31 2.326 . S
O51 C39 1.242 . S
O52 Tb30 2.324 . S
O52 C39 1.258 . S
O53 Eu31 2.500 . S
O53 C36 1.273 . S
O54 Eu31 2.473 . S
O54 C36 1.257 . S
H55 C41 0.929 . S
H56 C43 0.931 . S
H57 C45 0.929 . S
O58 Tb59 2.292 . S
O58 C61 1.255 . S
Tb59 O58 2.292 . S
Tb59 O75 2.326 . S
Tb59 O77 2.500 . S
Tb59 O78 2.473 . S
Tb59 O81 2.324 . S
Eu60 O64 2.292 . S
Eu60 C65 2.852 . S
Eu60 O76 2.324 . S
Eu60 O80 2.326 . S
Eu60 O82 2.500 . S
Eu60 O83 2.473 . S
C61 O58 1.255 . S
C61 O62 1.247 . S
O62 C61 1.247 . S
C63 O75 1.242 . S
C63 O76 1.258 . S
O64 Eu60 2.292 . S
O64 C66 1.255 . S
C65 Eu60 2.852 . S
C65 C69 1.503 . S
C65 O82 1.273 . S
C65 O83 1.257 . S
C66 O64 1.255 . S
C66 O67 1.247 . S
O67 C66 1.247 . S
C68 O80 1.242 . S
C68 O81 1.258 . S
C69 C65 1.503 . S
C69 C70 1.379 . S
C69 C74 1.392 . S
C70 C69 1.379 . S
C70 C71 1.404 . S
C70 H84 0.929 . S
C71 C70 1.404 . S
C71 C72 1.389 . S
C72 C71 1.389 . S
C72 C73 1.399 . S
C72 H85 0.931 . S
C73 C72 1.399 . S
C73 C74 1.390 . S
C74 C69 1.392 . S
C74 C73 1.390 . S
C74 H86 0.929 . S
O75 Tb59 2.326 . S
O75 C63 1.242 . S
O76 Eu60 2.324 . S
O76 C63 1.258 . S
O77 Tb59 2.500 . S
O77 C79 1.273 . S
O78 Tb59 2.473 . S
O78 C79 1.257 . S
C79 O77 1.273 . S
C79 O78 1.257 . S
O80 Eu60 2.326 . S
O80 C68 1.242 . S
O81 Tb59 2.324 . S
O81 C68 1.258 . S
O82 Eu60 2.500 . S
O82 C65 1.273 . S
O83 Eu60 2.473 . S
O83 C65 1.257 . S
H84 C70 0.929 . S
H85 C72 0.931 . S
H86 C74 0.929 . S
O87 Tb88 2.292 1_554 S
O87 C90 1.255 . S
Tb88 O87 2.292 1_556 S
Tb88 O104 2.326 . S
Tb88 O106 2.500 . S
Tb88 O107 2.473 . S
Tb88 O110 2.324 . S
Eu89 O93 2.292 . S
Eu89 C94 2.852 . S
Eu89 O105 2.324 . S
Eu89 O109 2.326 . S
Eu89 O111 2.500 . S
Eu89 O112 2.473 . S
C90 O87 1.255 . S
C90 O91 1.247 . S
O91 C90 1.247 . S
C92 O104 1.242 . S
C92 O105 1.258 . S
O93 Eu89 2.292 . S
O93 C95 1.255 . S
C94 Eu89 2.852 . S
C94 C98 1.503 . S
C94 O111 1.273 . S
C94 O112 1.257 . S
C95 O93 1.255 . S
C95 O96 1.247 . S
O96 C95 1.247 . S
C97 O109 1.242 . S
C97 O110 1.258 . S
C98 C94 1.503 . S
C98 C99 1.379 . S
C98 C103 1.392 . S
C99 C98 1.379 . S
C99 C100 1.404 1_556 S
C99 H113 0.929 1_556 S
C100 C99 1.404 1_554 S
C100 C101 1.389 . S
C101 C100 1.389 . S
C101 C102 1.399 1_554 S
C101 H114 0.931 . S
C102 C101 1.399 1_556 S
C102 C103 1.390 . S
C103 C98 1.392 . S
C103 C102 1.390 . S
C103 H115 0.929 . S
O104 Tb88 2.326 . S
O104 C92 1.242 . S
O105 Eu89 2.324 . S
O105 C92 1.258 . S
O106 Tb88 2.500 . S
O106 C108 1.273 . S
O107 Tb88 2.473 . S
O107 C108 1.257 . S
C108 O106 1.273 . S
C108 O107 1.257 . S
O109 Eu89 2.326 . S
O109 C97 1.242 . S
O110 Tb88 2.324 . S
O110 C97 1.258 . S
O111 Eu89 2.500 . S
O111 C94 1.273 . S
O112 Eu89 2.473 . S
O112 C94 1.257 . S
H113 C99 0.929 1_554 S
H114 C101 0.931 . S
H115 C103 0.929 . S
O116 Tb117 2.292 . S
O116 C119 1.255 . S
Tb117 O116 2.292 . S
Tb117 O133 2.326 . S
Tb117 O135 2.500 . S
Tb117 O136 2.473 . S
Tb117 O139 2.324 . S
Eu118 O122 2.292 . S
Eu118 C123 2.852 . S
Eu118 O134 2.324 . S
Eu118 O138 2.326 . S
Eu118 O140 2.500 . S
Eu118 O141 2.473 . S
C119 O116 1.255 . S
C119 O120 1.247 . S
O120 C119 1.247 . S
C121 O133 1.242 . S
C121 O134 1.258 . S
O122 Eu118 2.292 . S
O122 C124 1.255 . S
C123 Eu118 2.852 . S
C123 C127 1.503 . S
C123 O140 1.273 . S
C123 O141 1.257 . S
C124 O122 1.255 . S
C124 O125 1.247 . S
O125 C124 1.247 . S
C126 O138 1.242 . S
C126 O139 1.258 . S
C127 C123 1.503 . S
C127 C128 1.379 . S
C127 C132 1.392 . S
C128 C127 1.379 . S
C128 C129 1.404 . S
C128 H142 0.929 . S
C129 C128 1.404 . S
C129 C130 1.389 . S
C130 C129 1.389 . S
C130 C131 1.399 . S
C130 H143 0.931 . S
C131 C130 1.399 . S
C131 C132 1.390 . S
C132 C127 1.392 . S
C132 C131 1.390 . S
C132 H144 0.929 . S
O133 Tb117 2.326 . S
O133 C121 1.242 . S
O134 Eu118 2.324 . S
O134 C121 1.258 . S
O135 Tb117 2.500 . S
O135 C137 1.273 . S
O136 Tb117 2.473 . S
O136 C137 1.257 . S
C137 O135 1.273 . S
C137 O136 1.257 . S
O138 Eu118 2.326 . S
O138 C126 1.242 . S
O139 Tb117 2.324 . S
O139 C126 1.258 . S
O140 Eu118 2.500 . S
O140 C123 1.273 . S
O141 Eu118 2.473 . S
O141 C123 1.257 . S
H142 C128 0.929 . S
H143 C130 0.931 . S
H144 C132 0.929 . S
O145 Tb146 2.292 . S
O145 C148 1.255 . S
Tb146 O145 2.292 . S
Tb146 O162 2.326 . S
Tb146 O164 2.500 . S
Tb146 O165 2.473 . S
Tb146 O168 2.324 . S
Eu147 O151 2.292 . S
Eu147 C152 2.852 . S
Eu147 O163 2.324 . S
Eu147 O167 2.326 . S
Eu147 O169 2.500 . S
Eu147 O170 2.473 . S
C148 O145 1.255 . S
C148 O149 1.247 . S
O149 C148 1.247 . S
C150 O162 1.242 . S
C150 O163 1.258 . S
O151 Eu147 2.292 . S
O151 C153 1.255 . S
C152 Eu147 2.852 . S
C152 C156 1.503 . S
C152 O169 1.273 . S
C152 O170 1.257 . S
C153 O151 1.255 . S
C153 O154 1.247 . S
O154 C153 1.247 . S
C155 O167 1.242 . S
C155 O168 1.258 . S
C156 C152 1.503 . S
C156 C157 1.379 . S
C156 C161 1.392 . S
C157 C156 1.379 . S
C157 C158 1.404 . S
C157 H171 0.929 . S
C158 C157 1.404 . S
C158 C159 1.389 . S
C159 C158 1.389 . S
C159 C160 1.399 . S
C159 H172 0.931 . S
C160 C159 1.399 . S
C160 C161 1.390 . S
C161 C156 1.392 . S
C161 C160 1.390 . S
C161 H173 0.929 . S
O162 Tb146 2.326 . S
O162 C150 1.242 . S
O163 Eu147 2.324 . S
O163 C150 1.258 . S
O164 Tb146 2.500 . S
O164 C166 1.273 . S
O165 Tb146 2.473 . S
O165 C166 1.257 . S
C166 O164 1.273 . S
C166 O165 1.257 . S
O167 Eu147 2.326 . S
O167 C155 1.242 . S
O168 Tb146 2.324 . S
O168 C155 1.258 . S
O169 Eu147 2.500 . S
O169 C152 1.273 . S
O170 Eu147 2.473 . S
O170 C152 1.257 . S
H171 C157 0.929 . S
H172 C159 0.931 . S
H173 C161 0.929 . S
H174 C186 0.930 . S
H175 C188 0.930 . S
H176 C189 0.930 . S
H177 C193 0.959 . S
H178 C193 0.959 . S
H179 C193 0.961 . S
H180 C194 0.960 . S
H181 C194 0.961 . S
H182 C194 0.959 . S
H183 C197 0.929 . S
H184 C198 0.931 . S
H185 C200 0.930 . S
C186 H174 0.930 . S
C186 C187 1.399 . S
C186 C191 1.399 . S
C187 C186 1.399 . S
C187 C188 1.376 . S
C188 H175 0.930 . S
C188 C187 1.376 . S
C188 C189 1.388 . S
C189 H176 0.930 . S
C189 C188 1.388 . S
C189 C190 1.390 . S
C190 C189 1.390 . S
C190 C191 1.394 . S
C190 C196 1.465 . S
C191 C186 1.399 . S
C191 C190 1.394 . S
C191 C192 1.516 . S
C192 C191 1.516 . S
C192 C193 1.502 . S
C192 C194 1.561 . S
C192 C195 1.526 . S
C193 H177 0.959 . S
C193 H178 0.959 . S
C193 H179 0.961 . S
C193 C192 1.502 . S
C194 H180 0.960 . S
C194 H181 0.961 . S
C194 H182 0.959 . S
C194 C192 1.561 . S
C195 C192 1.526 . S
C195 C196 1.396 . S
C195 C200 1.390 . S
C196 C190 1.465 . S
C196 C195 1.396 . S
C196 C197 1.399 . S
C197 H183 0.929 . S
C197 C196 1.399 . S
C197 C198 1.385 . S
C198 H184 0.931 . S
C198 C197 1.385 . S
C198 C199 1.389 . S
C199 C198 1.389 . S
C199 C200 1.387 . S
C200 H185 0.930 . S
C200 C195 1.390 . S
C200 C199 1.387 . S
H201 C213 0.930 . S
H202 C215 0.930 . S
H203 C216 0.930 . S
H204 C220 0.959 . S
H205 C220 0.959 . S
H206 C220 0.961 . S
H207 C221 0.960 . S
H208 C221 0.961 . S
H209 C221 0.959 . S
H210 C224 0.929 . S
H211 C225 0.939 . S
H212 C227 0.930 . S
C213 H201 0.930 . S
C213 C214 1.399 . S
C213 C218 1.399 . S
C214 C213 1.399 . S
C214 C215 1.376 . S
C215 H202 0.930 . S
C215 C214 1.376 . S
C215 C216 1.388 . S
C216 H203 0.930 . S
C216 C215 1.388 . S
C216 C217 1.390 . S
C217 C216 1.390 . S
C217 C218 1.394 . S
C217 C223 1.465 . S
C218 C213 1.399 . S
C218 C217 1.394 . S
C218 C219 1.516 . S
C219 C218 1.516 . S
C219 C220 1.502 . S
C219 C221 1.561 . S
C219 C222 1.526 . S
C220 H204 0.959 . S
C220 H205 0.959 . S
C220 H206 0.961 . S
C220 C219 1.502 . S
C221 H207 0.960 . S
C221 H208 0.961 . S
C221 H209 0.959 . S
C221 C219 1.561 . S
C222 C219 1.526 . S
C222 C223 1.396 . S
C222 C227 1.390 . S
C223 C217 1.465 . S
C223 C222 1.396 . S
C223 C224 1.399 . S
C224 H210 0.929 . S
C224 C223 1.399 . S
C224 C225 1.385 . S
C225 H211 0.939 . S
C225 C224 1.385 . S
C225 C226 1.389 . S
C226 C225 1.389 . S
C226 C227 1.387 . S
C227 H212 0.930 . S
C227 C222 1.390 . S
C227 C226 1.387 . S
H228 C240 0.930 . S
H229 C242 0.930 . S
H230 C243 0.930 . S
H231 C247 0.959 . S
H232 C247 0.959 . S
H233 C247 0.961 . S
H234 C248 0.960 . S
H235 C248 0.961 . S
H236 C248 0.959 . S
H237 C251 0.929 . S
H238 C252 0.931 1_655 S
H239 C254 0.930 . S
C240 H228 0.930 . S
C240 C241 1.399 . S
C240 C245 1.399 . S
C241 C240 1.399 . S
C241 C242 1.376 . S
C242 H229 0.930 . S
C242 C241 1.376 . S
C242 C243 1.388 . S
C243 H230 0.930 . S
C243 C242 1.388 . S
C243 C244 1.390 . S
C244 C243 1.390 . S
C244 C245 1.394 . S
C244 C250 1.465 . S
C245 C240 1.399 . S
C245 C244 1.394 . S
C245 C246 1.516 . S
C246 C245 1.516 . S
C246 C247 1.502 . S
C246 C248 1.561 . S
C246 C249 1.526 . S
C247 H231 0.959 . S
C247 H232 0.959 . S
C247 H233 0.961 . S
C247 C246 1.502 . S
C248 H234 0.960 . S
C248 H235 0.961 . S
C248 H236 0.959 . S
C248 C246 1.561 . S
C249 C246 1.526 . S
C249 C250 1.396 . S
C249 C254 1.390 . S
C250 C244 1.465 . S
C250 C249 1.396 . S
C250 C251 1.399 . S
C251 H237 0.929 . S
C251 C250 1.399 . S
C251 C252 1.385 . S
C252 H238 0.931 1_455 S
C252 C251 1.385 . S
C252 C253 1.389 . S
C253 C252 1.389 . S
C253 C254 1.387 . S
C254 H239 0.930 . S
C254 C249 1.390 . S
C254 C253 1.387 . S
H255 C267 0.930 . S
H256 C269 0.930 . S
H257 C270 0.930 . S
H258 C274 0.959 . S
H259 C274 0.959 . S
H260 C274 0.961 . S
H261 C275 0.960 . S
H262 C275 0.961 . S
H263 C275 0.959 . S
H264 C278 0.929 . S
H265 C279 0.931 . S
H266 C281 0.930 . S
C267 H255 0.930 . S
C267 C268 1.399 . S
C267 C272 1.399 . S
C268 C267 1.399 . S
C268 C269 1.376 . S
C269 H256 0.930 . S
C269 C268 1.376 . S
C269 C270 1.388 . S
C270 H257 0.930 . S
C270 C269 1.388 . S
C270 C271 1.390 . S
C271 C270 1.390 . S
C271 C272 1.394 . S
C271 C277 1.465 . S
C272 C267 1.399 . S
C272 C271 1.394 . S
C272 C273 1.516 . S
C273 C272 1.516 . S
C273 C274 1.502 . S
C273 C275 1.561 . S
C273 C276 1.526 . S
C274 H258 0.959 . S
C274 H259 0.959 . S
C274 H260 0.961 . S
C274 C273 1.502 . S
C275 H261 0.960 . S
C275 H262 0.961 . S
C275 H263 0.959 . S
C275 C273 1.561 . S
C276 C273 1.526 . S
C276 C277 1.396 . S
C276 C281 1.390 . S
C277 C271 1.465 . S
C277 C276 1.396 . S
C277 C278 1.399 . S
C278 H264 0.929 . S
C278 C277 1.399 . S
C278 C279 1.385 . S
C279 H265 0.931 . S
C279 C278 1.385 . S
C279 C280 1.389 . S
C280 C279 1.389 . S
C280 C281 1.387 . S
C281 H266 0.930 . S
C281 C276 1.390 . S
C281 C280 1.387 . S
H282 C294 0.930 . S
H283 C296 0.930 . S
H284 C297 0.930 . S
H285 C301 0.959 . S
H286 C301 0.959 . S
H287 C301 0.961 . S
H288 C302 0.960 . S
H289 C302 0.961 . S
H290 C302 0.959 . S
H291 C305 0.929 . S
H292 C306 0.931 . S
H293 C308 0.930 . S
C294 H282 0.930 . S
C294 C295 1.399 . S
C294 C299 1.399 . S
C295 C294 1.399 . S
C295 C296 1.376 . S
C296 H283 0.930 . S
C296 C295 1.376 . S
C296 C297 1.388 . S
C297 H284 0.930 . S
C297 C296 1.388 . S
C297 C298 1.390 . S
C298 C297 1.390 . S
C298 C299 1.394 . S
C298 C304 1.465 . S
C299 C294 1.399 . S
C299 C298 1.394 . S
C299 C300 1.516 . S
C300 C299 1.516 . S
C300 C301 1.502 . S
C300 C302 1.561 . S
C300 C303 1.526 . S
C301 H285 0.959 . S
C301 H286 0.959 . S
C301 H287 0.961 . S
C301 C300 1.502 . S
C302 H288 0.960 . S
C302 H289 0.961 . S
C302 H290 0.959 . S
C302 C300 1.561 . S
C303 C300 1.526 . S
C303 C304 1.396 . S
C303 C308 1.390 . S
C304 C298 1.465 . S
C304 C303 1.396 . S
C304 C305 1.399 . S
C305 H291 0.929 . S
C305 C304 1.399 . S
C305 C306 1.385 . S
C306 H292 0.931 . S
C306 C305 1.385 . S
C306 C307 1.389 . S
C307 C306 1.389 . S
C307 C308 1.387 . S
C308 H293 0.930 . S
C308 C303 1.390 . S
C308 C307 1.387 . S
H309 C321 0.930 . S
H310 C323 0.930 1_455 S
H311 C324 0.930 . S
H312 C328 0.959 . S
H313 C328 0.959 . S
H314 C328 0.961 . S
H315 C329 0.960 . S
H316 C329 0.961 . S
H317 C329 0.959 . S
H318 C332 0.929 . S
H319 C333 0.931 . S
H320 C335 0.930 . S
C321 H309 0.930 . S
C321 C322 1.399 . S
C321 C326 1.399 . S
C322 C321 1.399 . S
C322 C323 1.376 . S
C323 H310 0.930 1_655 S
C323 C322 1.376 . S
C323 C324 1.388 . S
C324 H311 0.930 . S
C324 C323 1.388 . S
C324 C325 1.390 . S
C325 C324 1.390 . S
C325 C326 1.394 . S
C325 C331 1.465 . S
C326 C321 1.399 . S
C326 C325 1.394 . S
C326 C327 1.516 . S
C327 C326 1.516 . S
C327 C328 1.502 . S
C327 C329 1.561 . S
C327 C330 1.526 . S
C328 H312 0.959 . S
C328 H313 0.959 . S
C328 H314 0.961 . S
C328 C327 1.502 . S
C329 H315 0.960 . S
C329 H316 0.961 . S
C329 H317 0.959 . S
C329 C327 1.561 . S
C330 C327 1.526 . S
C330 C331 1.396 . S
C330 C335 1.390 . S
C331 C325 1.465 . S
C331 C330 1.396 . S
C331 C332 1.399 . S
C332 H318 0.929 . S
C332 C331 1.399 . S
C332 C333 1.385 . S
C333 H319 0.931 . S
C333 C332 1.385 . S
C333 C334 1.389 . S
C334 C333 1.389 . S
C334 C335 1.387 . S
C335 H320 0.930 . S
C335 C330 1.390 . S
C335 C334 1.387 . S
H336 C348 0.930 . S
H337 C350 0.930 . S
H338 C351 0.930 . S
H339 C355 0.959 . S
H340 C355 0.959 . S
H341 C355 0.961 . S
H342 C356 0.960 . S
H343 C356 0.961 . S
H344 C356 0.959 . S
H345 C359 0.929 . S
H346 C360 0.931 . S
H347 C362 0.948 . S
C348 H336 0.930 . S
C348 C349 1.399 . S
C348 C353 1.399 . S
C349 C348 1.399 . S
C349 C350 1.376 1_556 S
C350 H337 0.930 . S
C350 C349 1.376 1_554 S
C350 C351 1.388 . S
C351 H338 0.930 . S
C351 C350 1.388 . S
C351 C352 1.390 . S
C352 C351 1.390 . S
C352 C353 1.394 1_554 S
C352 C358 1.465 . S
C353 C348 1.399 . S
C353 C352 1.394 1_556 S
C353 C354 1.516 . S
C354 C353 1.516 . S
C354 C355 1.502 . S
C354 C356 1.561 . S
C354 C357 1.526 . S
C355 H339 0.959 . S
C355 H340 0.959 . S
C355 H341 0.961 . S
C355 C354 1.502 . S
C356 H342 0.960 . S
C356 H343 0.961 . S
C356 H344 0.959 . S
C356 C354 1.561 . S
C357 C354 1.526 . S
C357 C358 1.396 1_556 S
C357 C362 1.394 . S
C358 C352 1.465 . S
C358 C357 1.396 1_554 S
C358 C359 1.399 . S
C359 H345 0.929 . S
C359 C358 1.399 . S
C359 C360 1.385 . S
C360 H346 0.931 . S
C360 C359 1.385 . S
C360 C361 1.389 . S
C361 C360 1.389 . S
C361 C362 1.365 1_554 S
C362 H347 0.948 . S
C362 C357 1.394 . S
C362 C361 1.365 1_556 S
H363 C375 0.930 . S
H364 C377 0.930 . S
H365 C378 0.930 . S
H366 C382 0.959 . S
H367 C382 0.959 . S
H368 C382 0.961 1_545 S
H369 C383 0.960 . S
H370 C383 0.961 1_565 S
H371 C383 0.959 . S
H372 C386 0.929 . S
H373 C387 0.931 . S
H374 C389 0.930 . S
C375 H363 0.930 . S
C375 C376 1.399 . S
C375 C380 1.399 . S
C376 C375 1.399 . S
C376 C377 1.376 . S
C377 H364 0.930 . S
C377 C376 1.376 . S
C377 C378 1.388 . S
C378 H365 0.930 . S
C378 C377 1.388 . S
C378 C379 1.390 . S
C379 C378 1.390 . S
C379 C380 1.394 . S
C379 C385 1.465 1_545 S
C380 C375 1.399 . S
C380 C379 1.394 . S
C380 C381 1.543 . S
C381 C380 1.543 . S
C381 C382 1.487 1_545 S
C381 C383 1.560 . S
C381 C384 1.517 1_545 S
C382 H366 0.959 . S
C382 H367 0.959 . S
C382 H368 0.961 1_565 S
C382 C381 1.487 1_565 S
C383 H369 0.960 . S
C383 H370 0.961 1_545 S
C383 H371 0.959 . S
C383 C381 1.560 . S
C384 C381 1.517 1_565 S
C384 C385 1.396 . S
C384 C389 1.390 . S
C385 C379 1.465 1_565 S
C385 C384 1.396 . S
C385 C386 1.399 . S
C386 H372 0.929 . S
C386 C385 1.399 . S
C386 C387 1.385 . S
C387 H373 0.931 . S
C387 C386 1.385 . S
C387 C388 1.389 . S
C388 C387 1.389 . S
C388 C389 1.387 . S
C389 H374 0.930 . S
C389 C384 1.390 . S
C389 C388 1.387 . S
H390 C402 0.930 . S
H391 C404 0.930 . S
H392 C405 0.930 . S
H393 C409 0.959 . S
H394 C409 0.959 . S
H395 C409 0.961 . S
H396 C410 0.962 1_655 S
H397 C410 0.961 . S
H398 C410 0.959 . S
H399 C413 0.929 . S
H400 C414 0.931 . S
H401 C416 0.930 . S
C402 H390 0.930 . S
C402 C403 1.399 . S
C402 C407 1.399 . S
C403 C402 1.399 . S
C403 C404 1.376 . S
C404 H391 0.930 . S
C404 C403 1.376 . S
C404 C405 1.388 . S
C405 H392 0.930 . S
C405 C404 1.388 . S
C405 C406 1.390 . S
C406 C405 1.390 . S
C406 C407 1.394 . S
C406 C412 1.465 1_655 S
C407 C402 1.399 . S
C407 C406 1.394 . S
C407 C408 1.516 1_655 S
C408 C407 1.516 1_455 S
C408 C409 1.502 . S
C408 C410 1.561 . S
C408 C411 1.526 . S
C409 H393 0.959 . S
C409 H394 0.959 . S
C409 H395 0.961 . S
C409 C408 1.502 . S
C410 H396 0.962 1_455 S
C410 H397 0.961 . S
C410 H398 0.959 . S
C410 C408 1.561 . S
C411 C408 1.526 . S
C411 C412 1.396 . S
C411 C416 1.390 . S
C412 C406 1.465 1_455 S
C412 C411 1.396 . S
C412 C413 1.399 . S
C413 H399 0.929 . S
C413 C412 1.399 . S
C413 C414 1.385 . S
C414 H400 0.931 . S
C414 C413 1.385 . S
C414 C415 1.389 . S
C415 C414 1.389 . S
C415 C416 1.387 . S
C416 H401 0.930 . S
C416 C411 1.390 . S
C416 C415 1.387 . S
H417 C429 0.930 . S
H418 C431 0.930 . S
H419 C432 0.930 . S
H420 C436 0.959 1_655 S
H421 C436 0.959 . S
H422 C436 0.961 1_655 S
H423 C437 0.960 . S
H424 C437 0.961 . S
H425 C437 0.959 . S
H426 C440 0.929 . S
H427 C441 0.931 . S
H428 C443 0.930 . S
C429 H417 0.930 . S
C429 C430 1.399 . S
C429 C434 1.399 . S
C430 C429 1.399 . S
C430 C431 1.376 . S
C431 H418 0.930 . S
C431 C430 1.376 . S
C431 C432 1.388 . S
C432 H419 0.930 . S
C432 C431 1.388 . S
C432 C433 1.390 . S
C433 C432 1.390 . S
C433 C434 1.394 . S
C433 C439 1.465 1_655 S
C434 C429 1.399 . S
C434 C433 1.394 . S
C434 C435 1.516 1_655 S
C435 C434 1.516 1_455 S
C435 C436 1.502 . S
C435 C437 1.561 . S
C435 C438 1.526 . S
C436 H420 0.959 1_455 S
C436 H421 0.959 . S
C436 H422 0.961 1_455 S
C436 C435 1.502 . S
C437 H423 0.960 . S
C437 H424 0.961 . S
C437 H425 0.959 . S
C437 C435 1.561 . S
C438 C435 1.526 . S
C438 C439 1.396 . S
C438 C443 1.390 . S
C439 C433 1.465 1_455 S
C439 C438 1.396 . S
C439 C440 1.399 . S
C440 H426 0.929 . S
C440 C439 1.399 . S
C440 C441 1.385 . S
C441 H427 0.931 . S
C441 C440 1.385 . S
C441 C442 1.389 . S
C442 C441 1.389 . S
C442 C443 1.387 . S
C443 H428 0.930 . S
C443 C438 1.390 . S
C443 C442 1.387 . S
H444 C456 0.930 . S
H445 C458 0.930 . S
H446 C459 0.930 . S
H447 C463 0.959 . S
H448 C463 0.959 . S
H449 C463 0.961 . S
H450 C464 0.960 . S
H451 C464 0.961 . S
H452 C464 0.959 . S
H453 C467 0.929 . S
H454 C468 0.931 . S
H455 C470 0.931 . S
C456 H444 0.930 . S
C456 C457 1.399 . S
C456 C461 1.399 . S
C457 C456 1.399 . S
C457 C458 1.376 . S
C458 H445 0.930 . S
C458 C457 1.376 . S
C458 C459 1.388 1_556 S
C459 H446 0.930 . S
C459 C458 1.388 1_554 S
C459 C460 1.390 . S
C460 C459 1.390 . S
C460 C461 1.394 1_554 S
C460 C466 1.465 . S
C461 C456 1.399 . S
C461 C460 1.394 1_556 S
C461 C462 1.516 . S
C462 C461 1.516 . S
C462 C463 1.502 . S
C462 C464 1.561 . S
C462 C465 1.526 1_556 S
C463 H447 0.959 . S
C463 H448 0.959 . S
C463 H449 0.961 . S
C463 C462 1.502 . S
C464 H450 0.960 . S
C464 H451 0.961 . S
C464 H452 0.959 . S
C464 C462 1.561 . S
C465 C462 1.526 1_554 S
C465 C466 1.396 . S
C465 C470 1.390 . S
C466 C460 1.465 . S
C466 C465 1.396 . S
C466 C467 1.399 . S
C467 H453 0.929 . S
C467 C466 1.399 . S
C467 C468 1.385 . S
C468 H454 0.931 . S
C468 C467 1.385 . S
C468 C469 1.389 . S
C469 C468 1.389 . S
C469 C470 1.387 . S
C470 H455 0.931 . S
C470 C465 1.390 . S
C470 C469 1.387 . S
H471 C483 0.930 . S
H472 C485 0.930 . S
H473 C486 0.930 1_565 S
H474 C490 0.959 . S
H475 C490 0.959 . S
H476 C490 0.961 . S
H477 C491 0.960 . S
H478 C491 0.961 . S
H479 C491 0.959 . S
H480 C494 0.929 . S
H481 C495 0.931 . S
H482 C497 0.930 . S
C483 H471 0.930 . S
C483 C484 1.399 . S
C483 C488 1.399 . S
C484 C483 1.399 . S
C484 C485 1.376 . S
C485 H472 0.930 . S
C485 C484 1.376 . S
C485 C486 1.388 . S
C486 H473 0.930 1_545 S
C486 C485 1.388 . S
C486 C487 1.390 . S
C487 C486 1.390 . S
C487 C488 1.394 . S
C487 C493 1.465 1_545 S
C488 C483 1.399 . S
C488 C487 1.394 . S
C488 C489 1.516 . S
C489 C488 1.516 . S
C489 C490 1.502 . S
C489 C491 1.561 . S
C489 C492 1.526 1_545 S
C490 H474 0.959 . S
C490 H475 0.959 . S
C490 H476 0.961 . S
C490 C489 1.502 . S
C491 H477 0.960 . S
C491 H478 0.961 . S
C491 H479 0.959 . S
C491 C489 1.561 . S
C492 C489 1.526 1_565 S
C492 C493 1.396 . S
C492 C497 1.390 . S
C493 C487 1.465 1_565 S
C493 C492 1.396 . S
C493 C494 1.399 . S
C494 H480 0.929 . S
C494 C493 1.399 . S
C494 C495 1.385 . S
C495 H481 0.931 . S
C495 C494 1.385 . S
C495 C496 1.389 . S
C496 C495 1.389 . S
C496 C497 1.387 . S
C497 H482 0.930 . S
C497 C492 1.390 . S
C497 C496 1.387 . S
H498 C510 0.930 . S
H499 C512 0.930 . S
H500 C513 0.930 . S
H501 C517 0.959 . S
H502 C517 0.959 . S
H503 C517 0.961 . S
H504 C518 0.960 . S
H505 C518 0.961 . S
H506 C518 0.959 . S
H507 C521 0.929 . S
H508 C522 0.931 . S
H509 C524 0.930 . S
C510 H498 0.930 . S
C510 C511 1.399 . S
C510 C515 1.399 . S
C511 C510 1.399 . S
C511 C512 1.376 . S
C512 H499 0.930 . S
C512 C511 1.376 . S
C512 C513 1.388 . S
C513 H500 0.930 . S
C513 C512 1.388 . S
C513 C514 1.390 . S
C514 C513 1.390 . S
C514 C515 1.394 . S
C514 C520 1.465 . S
C515 C510 1.399 . S
C515 C514 1.394 . S
C515 C516 1.516 . S
C516 C515 1.516 . S
C516 C517 1.502 . S
C516 C518 1.561 . S
C516 C519 1.526 . S
C517 H501 0.959 . S
C517 H502 0.959 . S
C517 H503 0.961 . S
C517 C516 1.502 . S
C518 H504 0.960 . S
C518 H505 0.961 . S
C518 H506 0.959 . S
C518 C516 1.561 . S
C519 C516 1.526 . S
C519 C520 1.396 . S
C519 C524 1.390 . S
C520 C514 1.465 . S
C520 C519 1.396 . S
C520 C521 1.399 . S
C521 H507 0.929 . S
C521 C520 1.399 . S
C521 C522 1.385 . S
C522 H508 0.931 . S
C522 C521 1.385 . S
C522 C523 1.389 . S
C523 C522 1.389 . S
C523 C524 1.387 . S
C524 H509 0.930 . S
C524 C519 1.390 . S
C524 C523 1.387 . S
H525 C537 0.930 . S
H526 C539 0.930 . S
H527 C540 0.930 . S
H528 C544 0.959 . S
H529 C544 0.959 . S
H530 C544 0.961 . S
H531 C545 0.960 . S
H532 C545 0.961 . S
H533 C545 0.959 . S
H534 C548 0.929 . S
H535 C549 0.931 . S
H536 C551 0.930 . S
C537 H525 0.930 . S
C537 C538 1.399 . S
C537 C542 1.399 . S
C538 C537 1.399 . S
C538 C539 1.376 . S
C539 H526 0.930 . S
C539 C538 1.376 . S
C539 C540 1.388 . S
C540 H527 0.930 . S
C540 C539 1.388 . S
C540 C541 1.390 . S
C541 C540 1.390 . S
C541 C542 1.394 . S
C541 C547 1.465 . S
C542 C537 1.399 . S
C542 C541 1.394 . S
C542 C543 1.516 . S
C543 C542 1.516 . S
C543 C544 1.502 . S
C543 C545 1.561 . S
C543 C546 1.526 . S
C544 H528 0.959 . S
C544 H529 0.959 . S
C544 H530 0.961 . S
C544 C543 1.502 . S
C545 H531 0.960 . S
C545 H532 0.961 . S
C545 H533 0.959 . S
C545 C543 1.561 . S
C546 C543 1.526 . S
C546 C547 1.396 . S
C546 C551 1.390 . S
C547 C541 1.465 . S
C547 C546 1.396 . S
C547 C548 1.399 . S
C548 H534 0.929 . S
C548 C547 1.399 . S
C548 C549 1.385 . S
C549 H535 0.931 . S
C549 C548 1.385 . S
C549 C550 1.389 . S
C550 C549 1.389 . S
C550 C551 1.387 . S
C551 H536 0.930 . S
C551 C546 1.390 . S
C551 C550 1.387 . S
H552 C564 0.930 . S
H553 C566 0.930 . S
H554 C567 0.930 . S
H555 C571 0.959 . S
H556 C571 0.959 . S
H557 C571 0.961 . S
H558 C572 0.960 . S
H559 C572 0.961 . S
H560 C572 0.959 . S
H561 C575 0.929 . S
H562 C576 0.931 . S
H563 C578 0.930 . S
C564 H552 0.930 . S
C564 C565 1.399 . S
C564 C569 1.399 . S
C565 C564 1.399 . S
C565 C566 1.376 . S
C566 H553 0.930 . S
C566 C565 1.376 . S
C566 C567 1.388 . S
C567 H554 0.930 . S
C567 C566 1.388 . S
C567 C568 1.390 . S
C568 C567 1.390 . S
C568 C569 1.394 . S
C568 C574 1.465 . S
C569 C564 1.399 . S
C569 C568 1.394 . S
C569 C570 1.516 . S
C570 C569 1.516 . S
C570 C571 1.502 . S
C570 C572 1.561 . S
C570 C573 1.526 . S
C571 H555 0.959 . S
C571 H556 0.959 . S
C571 H557 0.961 . S
C571 C570 1.502 . S
C572 H558 0.960 . S
C572 H559 0.961 . S
C572 H560 0.959 . S
C572 C570 1.561 . S
C573 C570 1.526 . S
C573 C574 1.396 . S
C573 C578 1.390 . S
C574 C568 1.465 . S
C574 C573 1.396 . S
C574 C575 1.399 . S
C575 H561 0.929 . S
C575 C574 1.399 . S
C575 C576 1.385 . S
C576 H562 0.931 . S
C576 C575 1.385 . S
C576 C577 1.389 . S
C577 C576 1.389 . S
C577 C578 1.387 . S
C578 H563 0.930 . S
C578 C573 1.390 . S
C578 C577 1.387 . S
H579 C591 0.930 . S
H580 C593 0.930 . S
H581 C594 0.930 . S
H582 C598 0.959 . S
H583 C598 0.959 . S
H584 C598 0.961 . S
H585 C599 0.960 . S
H586 C599 0.961 . S
H587 C599 0.959 . S
H588 C602 0.929 . S
H589 C603 0.931 . S
H590 C605 0.930 . S
C591 H579 0.930 . S
C591 C592 1.399 . S
C591 C596 1.399 . S
C592 C591 1.399 . S
C592 C593 1.376 . S
C593 H580 0.930 . S
C593 C592 1.376 . S
C593 C594 1.388 . S
C594 H581 0.930 . S
C594 C593 1.388 . S
C594 C595 1.390 . S
C595 C594 1.390 . S
C595 C596 1.394 . S
C595 C601 1.465 . S
C596 C591 1.399 . S
C596 C595 1.394 . S
C596 C597 1.516 . S
C597 C596 1.516 . S
C597 C598 1.502 . S
C597 C599 1.561 . S
C597 C600 1.526 . S
C598 H582 0.959 . S
C598 H583 0.959 . S
C598 H584 0.961 . S
C598 C597 1.502 . S
C599 H585 0.960 . S
C599 H586 0.961 . S
C599 H587 0.959 . S
C599 C597 1.561 . S
C600 C597 1.526 . S
C600 C601 1.396 . S
C600 C605 1.390 . S
C601 C595 1.465 . S
C601 C600 1.396 . S
C601 C602 1.399 . S
C602 H588 0.929 . S
C602 C601 1.399 . S
C602 C603 1.385 . S
C603 H589 0.931 . S
C603 C602 1.385 . S
C603 C604 1.389 . S
C604 C603 1.389 . S
C604 C605 1.387 . S
C605 H590 0.930 . S
C605 C600 1.390 . S
C605 C604 1.387 . S
H606 C618 0.930 . S
H607 C620 0.930 . S
H608 C621 0.930 . S
H609 C625 0.959 . S
H610 C625 0.959 . S
H611 C625 0.961 . S
H612 C626 0.960 . S
H613 C626 0.961 . S
H614 C626 0.959 . S
H615 C629 0.929 . S
H616 C630 0.931 . S
H617 C632 0.930 . S
C618 H606 0.930 . S
C618 C619 1.399 . S
C618 C623 1.399 . S
C619 C618 1.399 . S
C619 C620 1.376 . S
C620 H607 0.930 . S
C620 C619 1.376 . S
C620 C621 1.388 . S
C621 H608 0.930 . S
C621 C620 1.388 . S
C621 C622 1.390 . S
C622 C621 1.390 . S
C622 C623 1.394 . S
C622 C628 1.465 . S
C623 C618 1.399 . S
C623 C622 1.394 . S
C623 C624 1.516 . S
C624 C623 1.516 . S
C624 C625 1.502 . S
C624 C626 1.561 . S
C624 C627 1.526 . S
C625 H609 0.959 . S
C625 H610 0.959 . S
C625 H611 0.961 . S
C625 C624 1.502 . S
C626 H612 0.960 . S
C626 H613 0.961 . S
C626 H614 0.959 . S
C626 C624 1.561 . S
C627 C624 1.526 . S
C627 C628 1.396 . S
C627 C632 1.390 . S
C628 C622 1.465 . S
C628 C627 1.396 . S
C628 C629 1.399 . S
C629 H615 0.929 . S
C629 C628 1.399 . S
C629 C630 1.385 . S
C630 H616 0.931 . S
C630 C629 1.385 . S
C630 C631 1.389 . S
C631 C630 1.389 . S
C631 C632 1.387 . S
C632 H617 0.930 . S
C632 C627 1.390 . S
C632 C631 1.387 . S
H633 C645 0.930 . S
H634 C647 0.930 . S
H635 C648 0.930 . S
H636 C652 0.959 . S
H637 C652 0.959 . S
H638 C652 0.961 . S
H639 C653 0.960 . S
H640 C653 0.961 . S
H641 C653 0.959 . S
H642 C656 0.929 . S
H643 C657 0.931 . S
H644 C659 0.930 . S
C645 H633 0.930 . S
C645 C646 1.399 . S
C645 C650 1.399 . S
C646 C645 1.399 . S
C646 C647 1.376 . S
C647 H634 0.930 . S
C647 C646 1.376 . S
C647 C648 1.388 . S
C648 H635 0.930 . S
C648 C647 1.388 . S
C648 C649 1.390 . S
C649 C648 1.390 . S
C649 C650 1.394 . S
C649 C655 1.465 . S
C650 C645 1.399 . S
C650 C649 1.394 . S
C650 C651 1.516 . S
C651 C650 1.516 . S
C651 C652 1.502 . S
C651 C653 1.561 . S
C651 C654 1.526 . S
C652 H636 0.959 . S
C652 H637 0.959 . S
C652 H638 0.961 . S
C652 C651 1.502 . S
C653 H639 0.960 . S
C653 H640 0.961 . S
C653 H641 0.959 . S
C653 C651 1.561 . S
C654 C651 1.526 . S
C654 C655 1.396 . S
C654 C659 1.390 . S
C655 C649 1.465 . S
C655 C654 1.396 . S
C655 C656 1.399 . S
C656 H642 0.929 . S
C656 C655 1.399 . S
C656 C657 1.385 . S
C657 H643 0.931 . S
C657 C656 1.385 . S
C657 C658 1.389 . S
C658 C657 1.389 . S
C658 C659 1.387 . S
C659 H644 0.930 . S
C659 C654 1.390 . S
C659 C658 1.387 . S
H660 C672 0.930 . S
H661 C674 0.930 . S
H662 C675 0.930 . S
H663 C679 0.959 . S
H664 C679 0.959 . S
H665 C679 0.961 . S
H666 C680 0.960 . S
H667 C680 0.961 . S
H668 C680 0.959 1_655 S
H669 C683 0.929 . S
H670 C684 0.931 . S
H671 C686 0.930 . S
C672 H660 0.930 . S
C672 C673 1.399 . S
C672 C677 1.399 . S
C673 C672 1.399 . S
C673 C674 1.376 . S
C674 H661 0.930 . S
C674 C673 1.376 . S
C674 C675 1.388 . S
C675 H662 0.930 . S
C675 C674 1.388 . S
C675 C676 1.390 . S
C676 C675 1.390 . S
C676 C677 1.394 . S
C676 C682 1.465 . S
C677 C672 1.399 . S
C677 C676 1.394 . S
C677 C678 1.516 1_655 S
C678 C677 1.516 1_455 S
C678 C679 1.502 . S
C678 C680 1.561 . S
C678 C681 1.526 . S
C679 H663 0.959 . S
C679 H664 0.959 . S
C679 H665 0.961 . S
C679 C678 1.502 . S
C680 H666 0.960 . S
C680 H667 0.961 . S
C680 H668 0.959 1_455 S
C680 C678 1.561 . S
C681 C678 1.526 . S
C681 C682 1.396 1_455 S
C681 C686 1.390 . S
C682 C676 1.465 . S
C682 C681 1.396 1_655 S
C682 C683 1.399 . S
C683 H669 0.929 . S
C683 C682 1.399 . S
C683 C684 1.385 1_655 S
C684 H670 0.931 . S
C684 C683 1.385 1_455 S
C684 C685 1.389 . S
C685 C684 1.389 . S
C685 C686 1.387 . S
C686 H671 0.930 . S
C686 C681 1.390 . S
C686 C685 1.387 . S
H687 C699 0.930 . S
H688 C701 0.930 . S
H689 C702 0.930 . S
H690 C706 0.959 . S
H691 C706 0.959 . S
H692 C706 0.961 . S
H693 C707 0.960 . S
H694 C707 0.961 . S
H695 C707 0.959 . S
H696 C710 0.929 . S
H697 C711 0.931 . S
H698 C713 0.930 . S
C699 H687 0.930 . S
C699 C700 1.399 . S
C699 C704 1.399 . S
C700 C699 1.399 . S
C700 C701 1.376 . S
C701 H688 0.930 . S
C701 C700 1.376 . S
C701 C702 1.388 . S
C702 H689 0.930 . S
C702 C701 1.388 . S
C702 C703 1.390 . S
C703 C702 1.390 . S
C703 C704 1.394 . S
C703 C709 1.465 . S
C704 C699 1.399 . S
C704 C703 1.394 . S
C704 C705 1.516 . S
C705 C704 1.516 . S
C705 C706 1.502 . S
C705 C707 1.561 . S
C705 C708 1.526 . S
C706 H690 0.959 . S
C706 H691 0.959 . S
C706 H692 0.961 . S
C706 C705 1.502 . S
C707 H693 0.960 . S
C707 H694 0.961 . S
C707 H695 0.959 . S
C707 C705 1.561 . S
C708 C705 1.526 . S
C708 C709 1.396 . S
C708 C713 1.390 . S
C709 C703 1.465 . S
C709 C708 1.396 . S
C709 C710 1.399 . S
C710 H696 0.929 . S
C710 C709 1.399 . S
C710 C711 1.385 . S
C711 H697 0.931 . S
C711 C710 1.385 . S
C711 C712 1.389 . S
C712 C711 1.389 . S
C712 C713 1.387 . S
C713 H698 0.930 . S
C713 C708 1.390 . S
C713 C712 1.387 . S
H714 C726 0.930 . S
H715 C728 0.930 . S
H716 C729 0.930 . S
H717 C733 0.959 . S
H718 C733 0.959 . S
H719 C733 0.961 . S
H720 C734 0.960 . S
H721 C734 0.961 . S
H722 C734 0.959 . S
H723 C737 0.929 . S
H724 C738 0.931 . S
H725 C740 0.930 . S
C726 H714 0.930 . S
C726 C727 1.399 . S
C726 C731 1.399 . S
C727 C726 1.399 . S
C727 C728 1.376 . S
C728 H715 0.930 . S
C728 C727 1.376 . S
C728 C729 1.388 1_545 S
C729 H716 0.930 . S
C729 C728 1.388 1_565 S
C729 C730 1.390 . S
C730 C729 1.390 . S
C730 C731 1.394 1_565 S
C730 C736 1.465 . S
C731 C726 1.399 . S
C731 C730 1.394 1_545 S
C731 C732 1.516 . S
C732 C731 1.516 . S
C732 C733 1.502 . S
C732 C734 1.561 . S
C732 C735 1.526 1_545 S
C733 H717 0.959 . S
C733 H718 0.959 . S
C733 H719 0.961 . S
C733 C732 1.502 . S
C734 H720 0.960 . S
C734 H721 0.961 . S
C734 H722 0.959 . S
C734 C732 1.561 . S
C735 C732 1.526 1_565 S
C735 C736 1.396 . S
C735 C740 1.390 . S
C736 C730 1.465 . S
C736 C735 1.396 . S
C736 C737 1.399 . S
C737 H723 0.929 . S
C737 C736 1.399 . S
C737 C738 1.385 . S
C738 H724 0.931 . S
C738 C737 1.385 . S
C738 C739 1.389 . S
C739 C738 1.389 . S
C739 C740 1.387 . S
C740 H725 0.930 . S
C740 C735 1.390 . S
C740 C739 1.387 . S
C187 C160 1.494 . S
C199 C21 1.516 . S
C214 C50 1.503 . S
C226 C102 1.516 1_565 S
C241 C79 1.497 . S
C253 C131 1.500 1_455 S
C268 C44 1.495 . S
C280 C108 1.518 . S
C295 C73 1.507 1_545 S
C307 C137 1.514 . S
C322 C15 1.502 1_655 S
C334 C166 1.518 . S
C349 C92 2.477 . S
C361 C5 2.458 . S
C376 C121 2.474 . S
C388 C34 2.465 . S
C403 C150 2.483 . S
C415 C63 2.454 . S
C430 C124 1.998 . S
C442 C8 1.996 . S
C457 C37 2.016 . S
C469 C153 1.998 . S
C484 C95 2.007 . S
C496 C66 2.027 . S
C511 C3 1.105 . S
C523 C39 1.191 . S
C538 C68 1.181 . S
C550 C32 1.180 . S
C565 C10 1.168 . S
C577 C61 1.071 . S
C592 C90 1.066 . S
C604 C155 1.164 . S
C619 C119 1.097 . S
C631 C97 1.117 . S
C646 C126 1.170 . S
C658 C148 1.182 . S
C673 C129 1.486 . S
C685 C13 1.380 . S
C700 C42 1.424 . S
C712 C158 1.467 . S
C727 C100 1.389 . S
C739 C71 1.469 . S
