# Generated by pormake.
# Topology whm, (6)-cn, num edge types: 1
# Building blocks:
#     Node 0, Type 0, BuildingBlock: IZENUY_clean_sbu_0, # of connection points: 6
#     Node 1, Type 0, BuildingBlock: IZENUY_clean_sbu_0, # of connection points: 6
#     Node 2, Type 0, BuildingBlock: IZENUY_clean_sbu_0, # of connection points: 6
#     Node 3, Type 0, BuildingBlock: IZENUY_clean_sbu_0, # of connection points: 6
#     Node 4, Type 0, BuildingBlock: IZENUY_clean_sbu_0, # of connection points: 6
#     Node 5, Type 0, BuildingBlock: IZENUY_clean_sbu_0, # of connection points: 6
#     Node 6, Type 0, BuildingBlock: IZENUY_clean_sbu_0, # of connection points: 6
#     Node 7, Type 0, BuildingBlock: IZENUY_clean_sbu_0, # of connection points: 6
#     Node 8, Type 0, BuildingBlock: IZENUY_clean_sbu_0, # of connection points: 6
#     Node 9, Type 0, BuildingBlock: IZENUY_clean_sbu_0, # of connection points: 6
#     Node 10, Type 0, BuildingBlock: IZENUY_clean_sbu_0, # of connection points: 6
#     Node 11, Type 0, BuildingBlock: IZENUY_clean_sbu_0, # of connection points: 6
#     Node 12, Type 0, BuildingBlock: IZENUY_clean_sbu_0, # of connection points: 6
#     Node 13, Type 0, BuildingBlock: IZENUY_clean_sbu_0, # of connection points: 6
#     Node 14, Type 0, BuildingBlock: IZENUY_clean_sbu_0, # of connection points: 6
#     Node 15, Type 0, BuildingBlock: IZENUY_clean_sbu_0, # of connection points: 6
#     Edge 16, Type (0, 0), BuildingBlock: XUDNAN_clean_linker_2, # of connection points: 2
#     Edge 17, Type (0, 0), BuildingBlock: XUDNAN_clean_linker_2, # of connection points: 2
#     Edge 18, Type (0, 0), BuildingBlock: XUDNAN_clean_linker_2, # of connection points: 2
#     Edge 19, Type (0, 0), BuildingBlock: XUDNAN_clean_linker_2, # of connection points: 2
#     Edge 20, Type (0, 0), BuildingBlock: XUDNAN_clean_linker_2, # of connection points: 2
#     Edge 21, Type (0, 0), BuildingBlock: XUDNAN_clean_linker_2, # of connection points: 2
#     Edge 22, Type (0, 0), BuildingBlock: XUDNAN_clean_linker_2, # of connection points: 2
#     Edge 23, Type (0, 0), BuildingBlock: XUDNAN_clean_linker_2, # of connection points: 2
#     Edge 24, Type (0, 0), BuildingBlock: XUDNAN_clean_linker_2, # of connection points: 2
#     Edge 25, Type (0, 0), BuildingBlock: XUDNAN_clean_linker_2, # of connection points: 2
#     Edge 26, Type (0, 0), BuildingBlock: XUDNAN_clean_linker_2, # of connection points: 2
#     Edge 27, Type (0, 0), BuildingBlock: XUDNAN_clean_linker_2, # of connection points: 2
#     Edge 28, Type (0, 0), BuildingBlock: XUDNAN_clean_linker_2, # of connection points: 2
#     Edge 29, Type (0, 0), BuildingBlock: XUDNAN_clean_linker_2, # of connection points: 2
#     Edge 30, Type (0, 0), BuildingBlock: XUDNAN_clean_linker_2, # of connection points: 2
#     Edge 31, Type (0, 0), BuildingBlock: XUDNAN_clean_linker_2, # of connection points: 2
#     Edge 32, Type (0, 0), BuildingBlock: XUDNAN_clean_linker_2, # of connection points: 2
#     Edge 33, Type (0, 0), BuildingBlock: XUDNAN_clean_linker_2, # of connection points: 2
#     Edge 34, Type (0, 0), BuildingBlock: XUDNAN_clean_linker_2, # of connection points: 2
#     Edge 35, Type (0, 0), BuildingBlock: XUDNAN_clean_linker_2, # of connection points: 2
#     Edge 36, Type (0, 0), BuildingBlock: XUDNAN_clean_linker_2, # of connection points: 2
#     Edge 37, Type (0, 0), BuildingBlock: XUDNAN_clean_linker_2, # of connection points: 2
#     Edge 38, Type (0, 0), BuildingBlock: XUDNAN_clean_linker_2, # of connection points: 2
#     Edge 39, Type (0, 0), BuildingBlock: XUDNAN_clean_linker_2, # of connection points: 2
#     Edge 40, Type (0, 0), BuildingBlock: XUDNAN_clean_linker_2, # of connection points: 2
#     Edge 41, Type (0, 0), BuildingBlock: XUDNAN_clean_linker_2, # of connection points: 2
#     Edge 42, Type (0, 0), BuildingBlock: XUDNAN_clean_linker_2, # of connection points: 2
#     Edge 43, Type (0, 0), BuildingBlock: XUDNAN_clean_linker_2, # of connection points: 2
#     Edge 44, Type (0, 0), BuildingBlock: XUDNAN_clean_linker_2, # of connection points: 2
#     Edge 45, Type (0, 0), BuildingBlock: XUDNAN_clean_linker_2, # of connection points: 2
#     Edge 46, Type (0, 0), BuildingBlock: XUDNAN_clean_linker_2, # of connection points: 2
#     Edge 47, Type (0, 0), BuildingBlock: XUDNAN_clean_linker_2, # of connection points: 2
#     Edge 48, Type (0, 0), BuildingBlock: XUDNAN_clean_linker_2, # of connection points: 2
#     Edge 49, Type (0, 0), BuildingBlock: XUDNAN_clean_linker_2, # of connection points: 2
#     Edge 50, Type (0, 0), BuildingBlock: XUDNAN_clean_linker_2, # of connection points: 2
#     Edge 51, Type (0, 0), BuildingBlock: XUDNAN_clean_linker_2, # of connection points: 2
#     Edge 52, Type (0, 0), BuildingBlock: XUDNAN_clean_linker_2, # of connection points: 2
#     Edge 53, Type (0, 0), BuildingBlock: XUDNAN_clean_linker_2, # of connection points: 2
#     Edge 54, Type (0, 0), BuildingBlock: XUDNAN_clean_linker_2, # of connection points: 2
#     Edge 55, Type (0, 0), BuildingBlock: XUDNAN_clean_linker_2, # of connection points: 2
#     Edge 56, Type (0, 0), BuildingBlock: XUDNAN_clean_linker_2, # of connection points: 2
#     Edge 57, Type (0, 0), BuildingBlock: XUDNAN_clean_linker_2, # of connection points: 2
#     Edge 58, Type (0, 0), BuildingBlock: XUDNAN_clean_linker_2, # of connection points: 2
#     Edge 59, Type (0, 0), BuildingBlock: XUDNAN_clean_linker_2, # of connection points: 2
#     Edge 60, Type (0, 0), BuildingBlock: XUDNAN_clean_linker_2, # of connection points: 2
#     Edge 61, Type (0, 0), BuildingBlock: XUDNAN_clean_linker_2, # of connection points: 2
#     Edge 62, Type (0, 0), BuildingBlock: XUDNAN_clean_linker_2, # of connection points: 2
#     Edge 63, Type (0, 0), BuildingBlock: XUDNAN_clean_linker_2, # of connection points: 2
# Relax obj value: 0.316
# Max RMSD: 0.231
# Mean RMSD: 0.231
data_MOF--net-whm--node1-IZENUY_clean_sbu_0--edge1-XUDNAN_clean_linker_2
_symmetry_space_group_name_H-M    P1
_symmetry_Int_Tables_number       1
_symmetry_cell_setting            triclinic
loop_
_symmetry_equiv_pos_as_xyz
'x, y, z'
_cell_length_a     50.836189
_cell_length_b     50.828523
_cell_length_c     28.197568
_cell_angle_alpha  89.999667
_cell_angle_beta   90.023989
_cell_angle_gamma 89.902975
loop_
_atom_site_label
_atom_site_type_symbol
_atom_site_fract_x
_atom_site_fract_y
_atom_site_fract_z
_atom_type_partial_charge
Fe0 Fe 0.54142 0.17199 0.20774 0.0
Fe1 Fe 0.57077 0.11919 0.19323 0.0
O2 O 0.56639 0.15306 0.17955 0.0
Fe3 Fe 0.58752 0.16837 0.1381 0.0
O4 O 0.59944 0.19104 0.18259 0.0
O5 O 0.56031 0.20304 0.20788 0.0
O6 O 0.55516 0.16529 0.26612 0.0
C7 C 0.56076 0.14272 0.28196 0.0
C8 C 0.53808 0.19186 0.11825 0.0
O9 O 0.5617 0.12274 0.25538 0.0
C10 C 0.5792 0.12169 0.09334 0.0
O11 O 0.51828 0.14447 0.21339 0.0
O12 O 0.53714 0.11114 0.17679 0.0
O13 O 0.56293 0.19192 0.11709 0.0
O14 O 0.52589 0.18017 0.15108 0.0
C15 C 0.62221 0.13523 0.18791 0.0
O16 O 0.58097 0.10994 0.13291 0.0
O17 O 0.57703 0.14641 0.09136 0.0
C18 C 0.51709 0.12168 0.19528 0.0
O19 O 0.60458 0.1243 0.21221 0.0
O20 O 0.61634 0.14808 0.15113 0.0
C21 C 0.58491 0.20681 0.20499 0.0
Fe22 Fe 0.34458 0.54299 0.71057 0.0
Fe23 Fe 0.39905 0.56782 0.69632 0.0
O24 O 0.36479 0.56773 0.68527 0.0
Fe25 Fe 0.3505 0.59266 0.64979 0.0
O26 O 0.32965 0.60337 0.69802 0.0
O27 O 0.31499 0.56404 0.71579 0.0
O28 O 0.35342 0.55343 0.77023 0.0
C29 C 0.37678 0.55581 0.78509 0.0
C30 C 0.3233 0.54621 0.6222 0.0
O31 O 0.39609 0.55497 0.75679 0.0
C32 C 0.39526 0.58395 0.59957 0.0
O33 O 0.37038 0.51743 0.71082 0.0
O34 O 0.40316 0.53518 0.67165 0.0
O35 O 0.32479 0.57105 0.62557 0.0
O36 O 0.33453 0.5314 0.65207 0.0
C37 C 0.3886 0.62041 0.70328 0.0
O38 O 0.40797 0.58151 0.63803 0.0
O39 O 0.37048 0.58368 0.59931 0.0
C40 C 0.39219 0.51522 0.68934 0.0
O41 O 0.39743 0.59997 0.72264 0.0
O42 O 0.37355 0.61892 0.6676 0.0
C43 C 0.31281 0.58889 0.71766 0.0
Fe44 Fe 0.93407 0.3892 0.18762 0.0
Fe45 Fe 0.92195 0.33768 0.13648 0.0
O46 O 0.94163 0.35577 0.17668 0.0
Fe47 Fe 0.96827 0.34033 0.20631 0.0
O48 O 0.96397 0.35903 0.26207 0.0
O49 O 0.92824 0.38259 0.24951 0.0
O50 O 0.89837 0.38548 0.17901 0.0
C51 C 0.88398 0.36527 0.1831 0.0
C52 C 0.99036 0.38845 0.1918 0.0
O53 O 0.89281 0.34284 0.17239 0.0
C54 C 0.97034 0.31946 0.11173 0.0
O55 O 0.93922 0.3978 0.12583 0.0
O56 O 0.91421 0.36606 0.09849 0.0
O57 O 0.99197 0.36404 0.18389 0.0
O58 O 0.96821 0.39909 0.19953 0.0
C59 C 0.93209 0.30055 0.20883 0.0
O60 O 0.94989 0.33156 0.0987 0.0
O61 O 0.97681 0.31867 0.15538 0.0
C62 C 0.92583 0.38786 0.09267 0.0
O63 O 0.92591 0.30571 0.16642 0.0
O64 O 0.94672 0.31582 0.232 0.0
C65 C 0.94442 0.37206 0.27755 0.0
Fe66 Fe 0.11731 0.93037 0.69154 0.0
Fe67 Fe 0.16899 0.91807 0.64115 0.0
O68 O 0.15085 0.93757 0.68149 0.0
Fe69 Fe 0.16638 0.96374 0.71216 0.0
O70 O 0.14696 0.95962 0.76703 0.0
O71 O 0.12348 0.92406 0.75351 0.0
O72 O 0.12068 0.89472 0.68212 0.0
C73 C 0.14066 0.87992 0.68542 0.0
C74 C 0.11863 0.98654 0.69604 0.0
O75 O 0.16328 0.88858 0.67581 0.0
C76 C 0.18807 0.96631 0.61834 0.0
O77 O 0.10908 0.93602 0.62971 0.0
O78 O 0.14092 0.91108 0.60233 0.0
O79 O 0.14318 0.98797 0.68914 0.0
O80 O 0.1078 0.96453 0.70377 0.0
C81 C 0.20513 0.92636 0.71522 0.0
O82 O 0.17563 0.94631 0.60444 0.0
O83 O 0.18881 0.9722 0.66226 0.0
C84 C 0.11918 0.92283 0.59645 0.0
O85 O 0.20062 0.92133 0.67214 0.0
O86 O 0.1902 0.94136 0.73843 0.0
C87 C 0.13365 0.94021 0.78199 0.0
Fe88 Fe 0.59317 0.34151 0.8578 0.0
Fe89 Fe 0.54893 0.33576 0.78422 0.0
O90 O 0.57291 0.35552 0.81341 0.0
Fe91 Fe 0.57715 0.38915 0.79788 0.0
O92 O 0.61134 0.38394 0.78112 0.0
O93 O 0.62206 0.36167 0.8448 0.0
O94 O 0.60639 0.3177 0.81655 0.0
C95 C 0.59292 0.30164 0.79277 0.0
C96 C 0.5843 0.38913 0.89809 0.0
O97 O 0.56844 0.30517 0.78682 0.0
C98 C 0.52355 0.38583 0.79361 0.0
O99 O 0.56829 0.31859 0.87933 0.0
O100 O 0.5322 0.32792 0.83967 0.0
O101 O 0.58659 0.39978 0.85771 0.0
O102 O 0.58144 0.3646 0.90185 0.0
C103 C 0.569 0.36427 0.70994 0.0
O104 O 0.52539 0.36291 0.7761 0.0
O105 O 0.54321 0.39697 0.81235 0.0
C106 C 0.54353 0.31816 0.87546 0.0
O107 O 0.56375 0.34184 0.72655 0.0
O108 O 0.56892 0.38457 0.73567 0.0
C109 C 0.6286 0.37407 0.80785 0.0
Fe110 Fe 0.17009 0.53873 0.28345 0.0
Fe111 Fe 0.12151 0.57418 0.29693 0.0
O112 O 0.15474 0.56655 0.30971 0.0
Fe113 Fe 0.1726 0.5873 0.34819 0.0
O114 O 0.20461 0.58255 0.31922 0.0
O115 O 0.19519 0.55902 0.25624 0.0
O116 O 0.15186 0.54157 0.22691 0.0
C117 C 0.13977 0.56117 0.20936 0.0
C118 C 0.19066 0.53978 0.3783 0.0
O119 O 0.12935 0.5784 0.2354 0.0
C120 C 0.1225 0.58371 0.3912 0.0
O121 O 0.14575 0.51613 0.30761 0.0
O122 O 0.11148 0.53992 0.28722 0.0
O123 O 0.17844 0.56056 0.38858 0.0
O124 O 0.19138 0.53154 0.33565 0.0
C125 C 0.14529 0.62454 0.29918 0.0
O126 O 0.11199 0.57054 0.35841 0.0
O127 O 0.14407 0.59561 0.38473 0.0
C128 C 0.1215 0.5179 0.29811 0.0
O129 O 0.12513 0.61009 0.30316 0.0
O130 O 0.16769 0.61564 0.30993 0.0
C131 C 0.2102 0.57456 0.27801 0.0
Fe132 Fe 0.93553 0.1178 0.79455 0.0
Fe133 Fe 0.91971 0.16549 0.85461 0.0
O134 O 0.93975 0.15142 0.80986 0.0
Fe135 Fe 0.96372 0.17093 0.78039 0.0
O136 O 0.94861 0.16495 0.72284 0.0
O137 O 0.94369 0.12224 0.73219 0.0
O138 O 0.90139 0.12315 0.77785 0.0
C139 C 0.88417 0.13227 0.80548 0.0
C140 C 0.9891 0.12089 0.78995 0.0
O141 O 0.89073 0.14518 0.84193 0.0
C142 C 0.96936 0.18919 0.87109 0.0
O143 O 0.92603 0.10718 0.85443 0.0
O144 O 0.93162 0.1423 0.89844 0.0
O145 O 0.98712 0.14368 0.77189 0.0
O146 O 0.96948 0.10998 0.80922 0.0
C147 C 0.92027 0.20594 0.79129 0.0
O148 O 0.94466 0.18849 0.87547 0.0
O149 O 0.98065 0.17865 0.83595 0.0
C150 C 0.92829 0.11782 0.89483 0.0
O151 O 0.90646 0.18973 0.81415 0.0
O152 O 0.94443 0.20159 0.78333 0.0
C153 C 0.94333 0.14249 0.70633 0.0
Fe154 Fe 0.3898 0.93767 0.29742 0.0
Fe155 Fe 0.33993 0.91963 0.34942 0.0
O156 O 0.35572 0.94165 0.31007 0.0
Fe157 Fe 0.33729 0.96736 0.28323 0.0
O158 O 0.34477 0.95502 0.224 0.0
O159 O 0.38727 0.94939 0.2364 0.0
O160 O 0.38476 0.90447 0.27464 0.0
C161 C 0.37337 0.88621 0.2969 0.0
C162 C 0.38735 0.99122 0.30071 0.0
O163 O 0.36001 0.89107 0.33363 0.0
C164 C 0.3168 0.96872 0.37286 0.0
O165 O 0.39844 0.92521 0.3567 0.0
O166 O 0.3617 0.92867 0.39722 0.0
O167 O 0.36498 0.99051 0.28087 0.0
O168 O 0.39756 0.97065 0.31806 0.0
C169 C 0.30123 0.92441 0.28368 0.0
O170 O 0.31666 0.94388 0.37249 0.0
O171 O 0.32848 0.98156 0.34079 0.0
C172 C 0.38635 0.92622 0.39595 0.0
O173 O 0.31698 0.9091 0.30433 0.0
O174 O 0.30615 0.94879 0.28067 0.0
C175 C 0.36792 0.95184 0.20865 0.0
Fe176 Fe 0.43039 0.89203 0.80361 0.0
Fe177 Fe 0.46464 0.84273 0.78764 0.0
O178 O 0.43829 0.85892 0.81713 0.0
Fe179 Fe 0.41948 0.84186 0.86007 0.0
O180 O 0.38946 0.84571 0.82576 0.0
O181 O 0.39487 0.88807 0.81272 0.0
O182 O 0.42431 0.88387 0.74245 0.0
C183 C 0.44033 0.87279 0.71487 0.0
C184 C 0.42245 0.89324 0.89871 0.0
O185 O 0.45981 0.85991 0.7307 0.0
C186 C 0.46836 0.82424 0.88354 0.0
O187 O 0.46436 0.90188 0.79065 0.0
O188 O 0.48841 0.8671 0.80716 0.0
O189 O 0.41177 0.87091 0.89538 0.0
O190 O 0.43557 0.90256 0.86465 0.0
C191 C 0.4296 0.80233 0.79169 0.0
O192 O 0.47398 0.8226 0.83968 0.0
O193 O 0.44829 0.83691 0.89702 0.0
C194 C 0.48658 0.89139 0.79834 0.0
O195 O 0.44303 0.81702 0.76513 0.0
O196 O 0.42363 0.80951 0.83313 0.0
C197 C 0.38055 0.86771 0.81242 0.0
Fe198 Fe 0.62053 0.4367 0.29835 0.0
Fe199 Fe 0.6739 0.46492 0.2842 0.0
O200 O 0.65444 0.44034 0.31232 0.0
Fe201 Fe 0.66906 0.41877 0.35391 0.0
O202 O 0.64845 0.39044 0.33957 0.0
O203 O 0.6253 0.40304 0.27807 0.0
O204 O 0.62406 0.44664 0.23674 0.0
C205 C 0.64392 0.44683 0.20997 0.0
C206 C 0.62237 0.42688 0.39777 0.0
O207 O 0.66666 0.4516 0.22572 0.0
C208 C 0.69318 0.4676 0.37478 0.0
O209 O 0.61319 0.47023 0.3163 0.0
O210 O 0.6467 0.48884 0.27966 0.0
O211 O 0.64697 0.42953 0.40022 0.0
O212 O 0.61093 0.42561 0.35791 0.0
C213 C 0.70771 0.42041 0.28681 0.0
O214 O 0.68291 0.48008 0.34069 0.0
O215 O 0.69262 0.44278 0.37615 0.0
C216 C 0.624 0.49029 0.29833 0.0
O217 O 0.70443 0.44509 0.28328 0.0
O218 O 0.69186 0.40651 0.31014 0.0
C219 C 0.63586 0.38505 0.30224 0.0
Fe220 Fe 0.09401 0.66692 0.85072 0.0
Fe221 Fe 0.08262 0.61663 0.79602 0.0
O222 O 0.07407 0.6494 0.81042 0.0
Fe223 Fe 0.04611 0.6647 0.78373 0.0
O224 O 0.06646 0.69044 0.75793 0.0
O225 O 0.08938 0.69884 0.82236 0.0
O226 O 0.12306 0.66308 0.81398 0.0
C227 C 0.13241 0.64117 0.80162 0.0
C228 C 0.04576 0.68407 0.87916 0.0
O229 O 0.1183 0.62074 0.80321 0.0
C230 C 0.02677 0.61531 0.79901 0.0
O231 O 0.10223 0.63815 0.88651 0.0
O232 O 0.07884 0.60576 0.85676 0.0
O233 O 0.03823 0.68537 0.83617 0.0
O234 O 0.06653 0.67195 0.88997 0.0
C235 C 0.06947 0.6357 0.70907 0.0
O236 O 0.04876 0.60624 0.78584 0.0
O237 O 0.02362 0.63966 0.80658 0.0
C238 C 0.09105 0.61607 0.89088 0.0
O239 O 0.087 0.62565 0.73496 0.0
O240 O 0.0495 0.64699 0.72686 0.0
C241 C 0.08267 0.70442 0.78048 0.0
Fe242 Fe 0.84035 0.08859 0.35033 0.0
Fe243 Fe 0.88909 0.07122 0.29459 0.0
O244 O 0.85528 0.06734 0.3085 0.0
Fe245 Fe 0.83607 0.04265 0.2803 0.0
O246 O 0.80525 0.06195 0.28067 0.0
O247 O 0.81762 0.10093 0.30609 0.0
O248 O 0.86117 0.11709 0.33761 0.0
C249 C 0.87496 0.12298 0.30194 0.0
C250 C 0.81668 0.0394 0.37019 0.0
O251 O 0.88434 0.10521 0.27577 0.0
C252 C 0.88592 0.0175 0.29299 0.0
O253 O 0.86239 0.07769 0.39691 0.0
O254 O 0.89859 0.08148 0.35474 0.0
O255 O 0.82802 0.02718 0.33695 0.0
O256 O 0.81657 0.06425 0.37138 0.0
C257 C 0.86537 0.06163 0.20592 0.0
O258 O 0.89678 0.03747 0.31112 0.0
O259 O 0.86328 0.01908 0.27439 0.0
C260 C 0.88705 0.08033 0.39456 0.0
O261 O 0.88535 0.06209 0.23254 0.0
O262 O 0.84274 0.05639 0.22184 0.0
C263 C 0.80159 0.08656 0.28395 0.0
Fe264 Fe 0.43895 0.61918 0.19822 0.0
Fe265 Fe 0.46763 0.67243 0.2091 0.0
O266 O 0.44313 0.6526 0.18168 0.0
Fe267 Fe 0.42225 0.66642 0.13796 0.0
O268 O 0.3937 0.64581 0.1514 0.0
O269 O 0.40494 0.62466 0.21591 0.0
O270 O 0.44773 0.62419 0.26012 0.0
C271 C 0.44836 0.6447 0.28529 0.0
C272 C 0.43096 0.61864 0.098 0.0
O273 O 0.45373 0.66692 0.2678 0.0
C274 C 0.47135 0.69048 0.11829 0.0
O275 O 0.47265 0.61096 0.1829 0.0
O276 O 0.49126 0.64524 0.21695 0.0
O277 O 0.43371 0.64321 0.09346 0.0
O278 O 0.429 0.60827 0.13874 0.0
C279 C 0.42349 0.7067 0.20189 0.0
O280 O 0.48341 0.67971 0.15234 0.0
O281 O 0.44656 0.68987 0.11595 0.0
C282 C 0.49262 0.62202 0.20057 0.0
O283 O 0.44808 0.70313 0.20662 0.0
O284 O 0.40945 0.69022 0.18 0.0
C285 C 0.38745 0.63311 0.18817 0.0
Fe286 Fe 0.89455 0.43892 0.69507 0.0
Fe287 Fe 0.8429 0.46926 0.70805 0.0
O288 O 0.86064 0.44232 0.68371 0.0
Fe289 Fe 0.84433 0.41874 0.64852 0.0
O290 O 0.86494 0.39064 0.667 0.0
O291 O 0.88985 0.40728 0.72309 0.0
O292 O 0.89268 0.45288 0.75495 0.0
C293 C 0.87347 0.45459 0.78321 0.0
C294 C 0.88983 0.42334 0.5985 0.0
O295 O 0.85031 0.4582 0.76821 0.0
C296 C 0.82147 0.4674 0.61981 0.0
O297 O 0.90095 0.47063 0.66823 0.0
O298 O 0.87148 0.49208 0.70905 0.0
O299 O 0.86513 0.42553 0.59798 0.0
O300 O 0.9024 0.42386 0.63735 0.0
C301 C 0.80738 0.42672 0.71653 0.0
O302 O 0.83426 0.48138 0.649 0.0
O303 O 0.82078 0.44254 0.62391 0.0
C304 C 0.89365 0.49157 0.68825 0.0
O305 O 0.81137 0.45127 0.71301 0.0
O306 O 0.82263 0.41045 0.69704 0.0
C307 C 0.87875 0.38788 0.70403 0.0
Fe308 Fe 0.04194 0.83583 0.21404 0.0
Fe309 Fe 0.09086 0.84241 0.15182 0.0
O310 O 0.06615 0.85629 0.1881 0.0
Fe311 Fe 0.06607 0.89054 0.19931 0.0
O312 O 0.05277 0.88769 0.25939 0.0
O313 O 0.05268 0.84507 0.27345 0.0
O314 O 0.06352 0.80654 0.21923 0.0
C315 C 0.08844 0.80461 0.21987 0.0
C316 C 0.0136 0.88333 0.1926 0.0
O317 O 0.10245 0.82166 0.19962 0.0
C318 C 0.08072 0.88706 0.10211 0.0
O319 O 0.03005 0.8253 0.15596 0.0
O320 O 0.06961 0.81629 0.12839 0.0
O321 O 0.03344 0.89436 0.17449 0.0
O322 O 0.01601 0.86146 0.21408 0.0
C323 C 0.11859 0.87981 0.20592 0.0
O324 O 0.08085 0.86227 0.10184 0.0
O325 O 0.07961 0.89963 0.14092 0.0
C326 C 0.04481 0.81425 0.12582 0.0
O327 O 0.11674 0.86596 0.16879 0.0
O328 O 0.09839 0.88877 0.22605 0.0
C329 C 0.05336 0.86857 0.28798 0.0
Fe330 Fe 0.61888 0.07618 0.68709 0.0
Fe331 Fe 0.66651 0.04041 0.70672 0.0
O332 O 0.6521 0.06749 0.6767 0.0
Fe333 Fe 0.67109 0.08648 0.63693 0.0
O334 O 0.66662 0.11589 0.67252 0.0
O335 O 0.6238 0.1117 0.67862 0.0
O336 O 0.62548 0.08174 0.74888 0.0
C337 C 0.63493 0.06506 0.77712 0.0
C338 C 0.62118 0.08398 0.59222 0.0
O339 O 0.64734 0.04506 0.76192 0.0
C340 C 0.68798 0.03759 0.61281 0.0
O341 O 0.60791 0.0423 0.69853 0.0
O342 O 0.64236 0.01757 0.68317 0.0
O343 O 0.64334 0.09481 0.59817 0.0
O344 O 0.61017 0.07155 0.62541 0.0
C345 C 0.70709 0.07554 0.71059 0.0
O346 O 0.68848 0.03128 0.65654 0.0
O347 O 0.67653 0.05831 0.59951 0.0
C348 C 0.61795 0.01989 0.69047 0.0
O349 O 0.69131 0.06126 0.73332 0.0
O350 O 0.70258 0.08161 0.66788 0.0
C351 C 0.64445 0.12537 0.6832 0.0
H352 H 0.56431 0.25665 0.20011 0.0
H353 H 0.63203 0.21218 0.24881 0.0
H354 H 0.65258 0.25324 0.27769 0.0
H355 H 0.60278 0.31288 0.1579 0.0
H356 H 0.57778 0.33641 0.1742 0.0
H357 H 0.5687 0.30333 0.15829 0.0
H358 H 0.54417 0.29876 0.23861 0.0
H359 H 0.55385 0.33161 0.25484 0.0
H360 H 0.56191 0.30434 0.29308 0.0
H361 H 0.66482 0.29823 0.30403 0.0
H362 H 0.66952 0.34532 0.32286 0.0
H363 H 0.59552 0.36177 0.25179 0.0
C364 C 0.58336 0.25564 0.21723 0.0
C365 C 0.59653 0.23134 0.22303 0.0
C366 C 0.62167 0.23068 0.24446 0.0
C367 C 0.63346 0.25384 0.26086 0.0
C368 C 0.62007 0.27752 0.25451 0.0
C369 C 0.59576 0.27872 0.23268 0.0
C370 C 0.58612 0.30692 0.2289 0.0
C371 C 0.58372 0.3154 0.17672 0.0
C372 C 0.55996 0.31061 0.25546 0.0
C373 C 0.60844 0.32127 0.25339 0.0
C374 C 0.62778 0.30385 0.26783 0.0
C375 C 0.64993 0.3121 0.29263 0.0
C376 C 0.65235 0.33886 0.3033 0.0
C377 C 0.63287 0.35714 0.28883 0.0
C378 C 0.61079 0.34824 0.26298 0.0
H379 H 0.26476 0.56541 0.73191 0.0
H380 H 0.30523 0.64034 0.74221 0.0
H381 H 0.26358 0.6619 0.76517 0.0
H382 H 0.20627 0.59062 0.68048 0.0
H383 H 0.18438 0.56889 0.71187 0.0
H384 H 0.21757 0.55864 0.69934 0.0
H385 H 0.2261 0.54985 0.78829 0.0
H386 H 0.19278 0.55952 0.80145 0.0
H387 H 0.21985 0.57555 0.8309 0.0
H388 H 0.21723 0.67562 0.78458 0.0
H389 H 0.16975 0.68021 0.80106 0.0
H390 H 0.15944 0.59647 0.77665 0.0
C391 C 0.26496 0.58627 0.73977 0.0
C392 C 0.2883 0.60117 0.73554 0.0
C393 C 0.2876 0.62852 0.74528 0.0
C394 C 0.26404 0.64096 0.75832 0.0
C395 C 0.2413 0.6258 0.7613 0.0
C396 C 0.24157 0.59905 0.75247 0.0
C397 C 0.21424 0.58745 0.7568 0.0
C398 C 0.20508 0.57572 0.70929 0.0
C399 C 0.21319 0.56688 0.79675 0.0
C400 C 0.1986 0.61185 0.76949 0.0
C401 C 0.21457 0.63376 0.77193 0.0
C402 C 0.20454 0.65857 0.78291 0.0
C403 C 0.17751 0.66099 0.79211 0.0
C404 C 0.16079 0.63872 0.79026 0.0
C405 C 0.17162 0.6139 0.77848 0.0
H406 H 0.89003 0.1485 0.21963 0.0
H407 H 0.87865 0.16001 0.37086 0.0
H408 H 0.89249 0.20616 0.36308 0.0
H409 H 0.94717 0.19096 0.207 0.0
H410 H 0.93692 0.20364 0.15022 0.0
H411 H 0.92725 0.17107 0.16827 0.0
H412 H 0.87815 0.18393 0.15475 0.0
H413 H 0.88817 0.21646 0.13715 0.0
H414 H 0.86493 0.2123 0.18481 0.0
H415 H 0.90863 0.2504 0.34038 0.0
H416 H 0.92328 0.29162 0.30248 0.0
H417 H 0.92164 0.2533 0.16495 0.0
C418 C 0.89057 0.16077 0.25102 0.0
C419 C 0.88327 0.15066 0.29587 0.0
C420 C 0.88397 0.16736 0.3361 0.0
C421 C 0.89192 0.19359 0.33213 0.0
C422 C 0.89885 0.20302 0.28757 0.0
C423 C 0.89805 0.1873 0.24758 0.0
C424 C 0.90571 0.20286 0.20375 0.0
C425 C 0.93074 0.19145 0.18096 0.0
C426 C 0.88288 0.20395 0.16801 0.0
C427 C 0.91089 0.22968 0.22553 0.0
C428 C 0.90712 0.22915 0.27403 0.0
C429 C 0.91148 0.25116 0.30238 0.0
C430 C 0.91986 0.27445 0.28059 0.0
C431 C 0.92339 0.27567 0.23086 0.0
C432 C 0.91875 0.25298 0.203 0.0
H433 H 0.35823 0.89499 0.73991 0.0
H434 H 0.3395 0.84846 0.86414 0.0
H435 H 0.29217 0.8588 0.85335 0.0
H436 H 0.31159 0.9456 0.75627 0.0
H437 H 0.30317 0.94877 0.69442 0.0
H438 H 0.33537 0.93727 0.71124 0.0
H439 H 0.3289 0.89522 0.66139 0.0
H440 H 0.29681 0.90657 0.64366 0.0
H441 H 0.30049 0.87476 0.67123 0.0
H442 H 0.24759 0.87826 0.83332 0.0
H443 H 0.20804 0.89924 0.7981 0.0
H444 H 0.25548 0.92911 0.68247 0.0
C445 C 0.34404 0.88674 0.76441 0.0
C446 C 0.35228 0.87097 0.80285 0.0
C447 C 0.33338 0.86038 0.83425 0.0
C448 C 0.30656 0.86631 0.82857 0.0
C449 C 0.29907 0.88235 0.79072 0.0
C450 C 0.31721 0.89188 0.75849 0.0
C451 C 0.30402 0.90812 0.7202 0.0
C452 C 0.31414 0.93663 0.7206 0.0
C453 C 0.30775 0.89538 0.67121 0.0
C454 C 0.27567 0.90664 0.73631 0.0
C455 C 0.27326 0.89206 0.7775 0.0
C456 C 0.24917 0.88932 0.80066 0.0
C457 C 0.22691 0.90141 0.7807 0.0
C458 C 0.22889 0.91549 0.73762 0.0
C459 C 0.25354 0.91813 0.71521 0.0
H460 H 0.56919 0.25531 0.76675 0.0
H461 H 0.64548 0.2929 0.77986 0.0
H462 H 0.66704 0.25212 0.75225 0.0
H463 H 0.59026 0.19186 0.8091 0.0
H464 H 0.56922 0.17382 0.76932 0.0
H465 H 0.55977 0.20619 0.78898 0.0
H466 H 0.55549 0.22139 0.70146 0.0
H467 H 0.56496 0.18906 0.6816 0.0
H468 H 0.58308 0.21748 0.6619 0.0
H469 H 0.68033 0.20714 0.72339 0.0
H470 H 0.68434 0.16098 0.69686 0.0
H471 H 0.59941 0.1527 0.7043 0.0
C472 C 0.59041 0.25503 0.76349 0.0
C473 C 0.60565 0.27732 0.77527 0.0
C474 C 0.63341 0.27603 0.77111 0.0
C475 C 0.64584 0.25298 0.75539 0.0
C476 C 0.63026 0.23132 0.74432 0.0
C477 C 0.60317 0.23209 0.74838 0.0
C478 C 0.59104 0.20587 0.73546 0.0
C479 C 0.57673 0.19373 0.77826 0.0
C480 C 0.57255 0.20862 0.69255 0.0
C481 C 0.61551 0.19035 0.72294 0.0
C482 C 0.63794 0.20536 0.72829 0.0
C483 C 0.6629 0.19519 0.71901 0.0
C484 C 0.66497 0.16896 0.7039 0.0
C485 C 0.64221 0.1532 0.69826 0.0
C486 C 0.61721 0.16419 0.70802 0.0
H487 H 0.36066 0.62125 0.27053 0.0
H488 H 0.35231 0.62479 0.11739 0.0
H489 H 0.30659 0.60934 0.12407 0.0
H490 H 0.32062 0.56332 0.2896 0.0
H491 H 0.3059 0.57566 0.34335 0.0
H492 H 0.33845 0.58607 0.32659 0.0
H493 H 0.32338 0.63479 0.3307 0.0
H494 H 0.29081 0.62439 0.34733 0.0
H495 H 0.29535 0.6453 0.29636 0.0
H496 H 0.26251 0.59245 0.14628 0.0
H497 H 0.22093 0.57839 0.18371 0.0
H498 H 0.25617 0.58835 0.32281 0.0
C499 C 0.34916 0.61868 0.23852 0.0
C500 C 0.35998 0.62422 0.19345 0.0
C501 C 0.34433 0.62088 0.15231 0.0
C502 C 0.31839 0.61197 0.15567 0.0
C503 C 0.30823 0.60677 0.20048 0.0
C504 C 0.32294 0.61023 0.24127 0.0
C505 C 0.30674 0.60413 0.28507 0.0
C506 C 0.31864 0.58091 0.31277 0.0
C507 C 0.3039 0.62862 0.31672 0.0
C508 C 0.28072 0.5967 0.26234 0.0
C509 C 0.28219 0.59804 0.21349 0.0
C510 C 0.261 0.59146 0.18452 0.0
C511 C 0.23752 0.58343 0.20604 0.0
C512 C 0.23532 0.58246 0.25603 0.0
C513 C 0.25724 0.58921 0.28448 0.0
H514 H 0.89231 0.34222 0.6584 0.0
H515 H 0.87435 0.37492 0.79661 0.0
H516 H 0.88047 0.33103 0.83311 0.0
H517 H 0.86302 0.27785 0.67458 0.0
H518 H 0.88908 0.26061 0.64427 0.0
H519 H 0.88136 0.29408 0.62837 0.0
H520 H 0.92972 0.30762 0.64384 0.0
H521 H 0.93761 0.27419 0.65955 0.0
H522 H 0.9445 0.3005 0.70055 0.0
H523 H 0.88739 0.28373 0.85399 0.0
H524 H 0.90037 0.23696 0.86017 0.0
H525 H 0.91862 0.23565 0.71003 0.0
C526 C 0.88943 0.33993 0.69624 0.0
C527 C 0.88252 0.36164 0.72487 0.0
C528 C 0.87953 0.35833 0.77435 0.0
C529 C 0.88284 0.33353 0.79524 0.0
C530 C 0.88968 0.31244 0.76615 0.0
C531 C 0.89343 0.31543 0.71788 0.0
C532 C 0.90277 0.28997 0.69541 0.0
C533 C 0.88286 0.28004 0.65847 0.0
C534 C 0.93029 0.29328 0.67356 0.0
C535 C 0.90352 0.27217 0.73853 0.0
C536 C 0.8954 0.28545 0.77877 0.0
C537 C 0.89383 0.27313 0.82279 0.0
C538 C 0.90106 0.24659 0.8259 0.0
C539 C 0.91024 0.23288 0.7855 0.0
C540 C 0.91154 0.24581 0.7413 0.0
H541 H 0.16373 0.89227 0.15756 0.0
H542 H 0.13188 0.88134 0.29886 0.0
H543 H 0.17572 0.89008 0.33335 0.0
H544 H 0.22788 0.86429 0.17765 0.0
H545 H 0.24507 0.8885 0.14277 0.0
H546 H 0.21149 0.88027 0.12876 0.0
H547 H 0.19822 0.92933 0.13615 0.0
H548 H 0.23177 0.93773 0.14994 0.0
H549 H 0.2057 0.94696 0.18996 0.0
H550 H 0.22293 0.89749 0.35199 0.0
H551 H 0.26996 0.90949 0.35539 0.0
H552 H 0.27088 0.92034 0.2029 0.0
C553 C 0.16614 0.89165 0.19571 0.0
C554 C 0.14465 0.88592 0.22572 0.0
C555 C 0.14821 0.88571 0.27547 0.0
C556 C 0.173 0.89051 0.29528 0.0
C557 C 0.19385 0.89602 0.26481 0.0
C558 C 0.19064 0.89715 0.21618 0.0
C559 C 0.21604 0.90505 0.1918 0.0
C560 C 0.22569 0.88322 0.15827 0.0
C561 C 0.21273 0.93133 0.16541 0.0
C562 C 0.23408 0.90792 0.23432 0.0
C563 C 0.22088 0.90216 0.27594 0.0
C564 C 0.23342 0.90237 0.3198 0.0
C565 C 0.26008 0.90903 0.32133 0.0
C566 C 0.27378 0.9158 0.27943 0.0
C567 C 0.26067 0.9153 0.23534 0.0
H568 H 0.38087 0.67008 0.66463 0.0
H569 H 0.41715 0.62894 0.78293 0.0
H570 H 0.43305 0.67087 0.81479 0.0
H571 H 0.43284 0.71909 0.65094 0.0
H572 H 0.41049 0.74554 0.63694 0.0
H573 H 0.40201 0.71214 0.62193 0.0
H574 H 0.35853 0.71652 0.66915 0.0
H575 H 0.36681 0.74994 0.68413 0.0
H576 H 0.35962 0.72659 0.73043 0.0
H577 H 0.44333 0.71602 0.83652 0.0
H578 H 0.44798 0.76381 0.84724 0.0
H579 H 0.40714 0.7775 0.71434 0.0
C580 C 0.39219 0.66995 0.69717 0.0
C581 C 0.39771 0.64615 0.72134 0.0
C582 C 0.41263 0.64683 0.76379 0.0
C583 C 0.42183 0.67055 0.78217 0.0
C584 C 0.41616 0.69354 0.75759 0.0
C585 C 0.40179 0.69362 0.71603 0.0
C586 C 0.39836 0.72149 0.69747 0.0
C587 C 0.41173 0.72475 0.64893 0.0
C588 C 0.36909 0.72908 0.69518 0.0
C589 C 0.41271 0.73692 0.73564 0.0
C590 C 0.4228 0.72019 0.7698 0.0
C591 C 0.43579 0.72937 0.80987 0.0
C592 C 0.43829 0.75648 0.81567 0.0
C593 C 0.42806 0.77409 0.78145 0.0
C594 C 0.41543 0.76428 0.74051 0.0
H595 H 0.75503 0.44356 0.26416 0.0
H596 H 0.71465 0.36837 0.26729 0.0
H597 H 0.75504 0.34622 0.23972 0.0
H598 H 0.79491 0.43097 0.15983 0.0
H599 H 0.82342 0.44749 0.18332 0.0
H600 H 0.79097 0.45767 0.20134 0.0
H601 H 0.80385 0.45067 0.28948 0.0
H602 H 0.8363 0.44041 0.27166 0.0
H603 H 0.81647 0.41915 0.30814 0.0
H604 H 0.79999 0.33197 0.21386 0.0
H605 H 0.84658 0.32667 0.19114 0.0
H606 H 0.85802 0.41095 0.20611 0.0
C607 C 0.75461 0.42249 0.25846 0.0
C608 C 0.73167 0.4077 0.26769 0.0
C609 C 0.73203 0.3801 0.26053 0.0
C610 C 0.75485 0.36733 0.24481 0.0
C611 C 0.77724 0.38239 0.23666 0.0
C612 C 0.77735 0.40935 0.24325 0.0
C613 C 0.80433 0.42075 0.23348 0.0
C614 C 0.80334 0.44038 0.19202 0.0
C615 C 0.81591 0.43349 0.27836 0.0
C616 C 0.81926 0.39601 0.22011 0.0
C617 C 0.80327 0.37411 0.22217 0.0
C618 C 0.8127 0.34899 0.21192 0.0
C619 C 0.83921 0.34618 0.19907 0.0
C620 C 0.85598 0.36838 0.19658 0.0
C621 C 0.84574 0.39358 0.20739 0.0
H622 H 0.09418 0.85391 0.70066 0.0
H623 H 0.17876 0.84195 0.69443 0.0
H624 H 0.17242 0.79484 0.71222 0.0
H625 H 0.08235 0.81094 0.79755 0.0
H626 H 0.05141 0.79901 0.77496 0.0
H627 H 0.06254 0.83151 0.7596 0.0
H628 H 0.0584 0.82 0.67036 0.0
H629 H 0.04739 0.78737 0.6854 0.0
H630 H 0.07549 0.79167 0.64724 0.0
H631 H 0.15729 0.74994 0.73508 0.0
H632 H 0.13423 0.70998 0.76252 0.0
H633 H 0.05941 0.75044 0.75155 0.0
C634 C 0.1114 0.84139 0.70271 0.0
C635 C 0.13699 0.85164 0.69593 0.0
C636 C 0.15897 0.83457 0.69928 0.0
C637 C 0.15556 0.80777 0.70926 0.0
C638 C 0.13008 0.79834 0.71557 0.0
C639 C 0.10837 0.8146 0.71247 0.0
C640 C 0.08316 0.79969 0.72241 0.0
C641 C 0.06905 0.81096 0.76623 0.0
C642 C 0.06505 0.79968 0.67874 0.0
C643 C 0.09412 0.77249 0.73208 0.0
C644 C 0.12125 0.7722 0.72785 0.0
C645 C 0.13606 0.74982 0.73784 0.0
C646 C 0.12285 0.72727 0.75331 0.0
C647 C 0.09517 0.72722 0.75813 0.0
C648 C 0.08055 0.74994 0.74679 0.0
H649 H 0.64638 0.09516 0.23788 0.0
H650 H 0.66135 0.16952 0.16721 0.0
H651 H 0.70849 0.16567 0.18644 0.0
H652 H 0.69522 0.10282 0.33237 0.0
H653 H 0.70468 0.06866 0.33124 0.0
H654 H 0.67169 0.0781 0.31518 0.0
H655 H 0.67714 0.05425 0.23449 0.0
H656 H 0.71017 0.04489 0.2504 0.0
H657 H 0.70424 0.06288 0.19632 0.0
H658 H 0.75377 0.15423 0.21324 0.0
H659 H 0.79526 0.13411 0.24155 0.0
H660 H 0.75205 0.06555 0.28934 0.0
C661 C 0.65959 0.11069 0.22686 0.0
C662 C 0.65025 0.13263 0.20102 0.0
C663 C 0.66814 0.15245 0.18675 0.0
C664 C 0.69492 0.15053 0.1977 0.0
C665 C 0.70361 0.12853 0.22259 0.0
C666 C 0.68659 0.10885 0.23678 0.0
C667 C 0.7014 0.08668 0.26101 0.0
C668 C 0.69272 0.08392 0.31304 0.0
C669 C 0.69804 0.06064 0.23392 0.0
C670 C 0.72939 0.09683 0.25745 0.0
C671 C 0.7301 0.12126 0.23598 0.0
C672 C 0.75353 0.13503 0.22983 0.0
C673 C 0.77695 0.1235 0.24595 0.0
C674 C 0.77678 0.09823 0.26689 0.0
C675 C 0.7527 0.08472 0.27264 0.0
H676 H 0.41608 0.86161 0.25516 0.0
H677 H 0.33664 0.84808 0.30566 0.0
H678 H 0.3405 0.80111 0.2849 0.0
H679 H 0.4144 0.8145 0.15709 0.0
H680 H 0.44773 0.80364 0.16634 0.0
H681 H 0.4384 0.83675 0.18171 0.0
H682 H 0.45537 0.82929 0.26727 0.0
H683 H 0.46487 0.79621 0.25199 0.0
H684 H 0.443 0.80192 0.30125 0.0
H685 H 0.35266 0.75576 0.25894 0.0
H686 H 0.37344 0.71411 0.23332 0.0
H687 H 0.44617 0.75578 0.20491 0.0
C688 C 0.39945 0.84877 0.26123 0.0
C689 C 0.376 0.85847 0.28179 0.0
C690 C 0.35479 0.84101 0.29002 0.0
C691 C 0.35675 0.81433 0.27823 0.0
C692 C 0.3802 0.80524 0.25872 0.0
C693 C 0.40126 0.82182 0.25052 0.0
C694 C 0.42464 0.80659 0.23135 0.0
C695 C 0.43169 0.81595 0.18112 0.0
C696 C 0.44837 0.80863 0.26499 0.0
C697 C 0.4135 0.7789 0.2306 0.0
C698 C 0.38768 0.77869 0.24583 0.0
C699 C 0.37291 0.75562 0.24716 0.0
C700 C 0.38485 0.73209 0.23255 0.0
C701 C 0.41143 0.7317 0.21767 0.0
C702 C 0.42592 0.75544 0.21684 0.0
H703 H 0.65187 0.41078 0.74871 0.0
H704 H 0.66949 0.34697 0.84627 0.0
H705 H 0.71684 0.35416 0.83417 0.0
H706 H 0.70491 0.39733 0.66779 0.0
H707 H 0.71296 0.43114 0.65604 0.0
H708 H 0.6797 0.42227 0.67096 0.0
H709 H 0.67881 0.45453 0.74111 0.0
H710 H 0.71159 0.46501 0.726 0.0
H711 H 0.70457 0.45334 0.78504 0.0
H712 H 0.76205 0.36716 0.81084 0.0
H713 H 0.80296 0.38648 0.77867 0.0
H714 H 0.75698 0.44367 0.70006 0.0
C715 C 0.66571 0.39829 0.76737 0.0
C716 C 0.65694 0.37837 0.79861 0.0
C717 C 0.6757 0.36248 0.82244 0.0
C718 C 0.70267 0.36636 0.81576 0.0
C719 C 0.71068 0.38632 0.78534 0.0
C720 C 0.69286 0.4021 0.76156 0.0
C721 C 0.70695 0.4223 0.7312 0.0
C722 C 0.70074 0.41799 0.67837 0.0
C723 C 0.70007 0.45046 0.7468 0.0
C724 C 0.73539 0.41561 0.74233 0.0
C725 C 0.73702 0.39453 0.77315 0.0
C726 C 0.76108 0.38385 0.78709 0.0
C727 C 0.78415 0.39493 0.76879 0.0
C728 C 0.78297 0.41674 0.73779 0.0
C729 C 0.75831 0.42736 0.72467 0.0
H730 H 0.0659 0.75605 0.23506 0.0
H731 H 0.14032 0.79767 0.24186 0.0
H732 H 0.16291 0.75627 0.26288 0.0
H733 H 0.07862 0.71079 0.33294 0.0
H734 H 0.0625 0.68358 0.30409 0.0
H735 H 0.05204 0.71679 0.29197 0.0
H736 H 0.05931 0.70878 0.20243 0.0
H737 H 0.07033 0.6757 0.21392 0.0
H738 H 0.0911 0.69809 0.18154 0.0
H739 H 0.17779 0.71004 0.28022 0.0
H740 H 0.18356 0.66258 0.29575 0.0
H741 H 0.09957 0.65087 0.27698 0.0
C742 C 0.08687 0.75655 0.24178 0.0
C743 C 0.10131 0.78018 0.23704 0.0
C744 C 0.12882 0.77984 0.2453 0.0
C745 C 0.14185 0.75641 0.25722 0.0
C746 C 0.12715 0.73339 0.26066 0.0
C747 C 0.10025 0.73327 0.25343 0.0
C748 C 0.08922 0.70569 0.2581 0.0
C749 C 0.06943 0.70413 0.29923 0.0
C750 C 0.07677 0.69653 0.2112 0.0
C751 C 0.1141 0.69037 0.26912 0.0
C752 C 0.13576 0.70671 0.27037 0.0
C753 C 0.16094 0.69706 0.27954 0.0
C754 C 0.16403 0.67003 0.28824 0.0
C755 C 0.14204 0.65291 0.28781 0.0
C756 C 0.11681 0.66336 0.27774 0.0
H757 H 0.85823 0.11911 0.72303 0.0
H758 H 0.8474 0.12777 0.87498 0.0
H759 H 0.80123 0.11377 0.86699 0.0
H760 H 0.79365 0.14429 0.69075 0.0
H761 H 0.79005 0.12196 0.64151 0.0
H762 H 0.82232 0.13245 0.65984 0.0
H763 H 0.8362 0.0832 0.66961 0.0
H764 H 0.80376 0.07327 0.65127 0.0
H765 H 0.81685 0.06211 0.70719 0.0
H766 H 0.75699 0.0973 0.84359 0.0
H767 H 0.71594 0.08264 0.80495 0.0
H768 H 0.75413 0.0872 0.66753 0.0
C769 C 0.8461 0.11802 0.75454 0.0
C770 C 0.85638 0.12448 0.79964 0.0
C771 C 0.83988 0.12307 0.84005 0.0
C772 C 0.81366 0.11503 0.83593 0.0
C773 C 0.80411 0.10878 0.79109 0.0
C774 C 0.81966 0.11046 0.75098 0.0
C775 C 0.80414 0.10338 0.70687 0.0
C776 C 0.80245 0.12692 0.67272 0.0
C777 C 0.81594 0.07905 0.68229 0.0
C778 C 0.77755 0.09728 0.7286 0.0
C779 C 0.7781 0.10028 0.77729 0.0
C780 C 0.75622 0.09505 0.80546 0.0
C781 C 0.73305 0.08667 0.78325 0.0
C782 C 0.73185 0.08395 0.73334 0.0
C783 C 0.75442 0.08939 0.70574 0.0
H784 H 0.58044 0.14097 0.00265 0.0
H785 H 0.59173 0.06934 0.08423 0.0
H786 H 0.60714 0.04656 0.01205 0.0
H787 H 0.55821 0.10941 0.89322 0.0
H788 H 0.57516 0.13289 0.85638 0.0
H789 H 0.56318 0.1426 0.91388 0.0
H790 H 0.61015 0.15792 0.93667 0.0
H791 H 0.62226 0.14783 0.87952 0.0
H792 H 0.63716 0.13497 0.93275 0.0
H793 H 0.62453 0.03256 0.93146 0.0
H794 H 0.6388 0.02778 0.84783 0.0
H795 H 0.61601 0.1088 0.82108 0.0
C796 C 0.5857 0.12037 0.00533 0.0
C797 C 0.58487 0.10699 0.04919 0.0
C798 C 0.59211 0.08004 0.05102 0.0
C799 C 0.60099 0.06692 0.01024 0.0
C800 C 0.60236 0.08099 0.96792 0.0
C801 C 0.59459 0.10703 0.96513 0.0
C802 C 0.5986 0.11799 0.91586 0.0
C803 C 0.57221 0.12619 0.89352 0.0
C804 C 0.61821 0.14103 0.91626 0.0
C805 C 0.61007 0.09413 0.89146 0.0
C806 C 0.61217 0.07295 0.92191 0.0
C807 C 0.62278 0.04896 0.90718 0.0
C808 C 0.63099 0.04646 0.85979 0.0
C809 C 0.6284 0.06784 0.82791 0.0
C810 C 0.61805 0.09198 0.8444 0.0
H811 H 0.37824 0.58035 0.50774 0.0
H812 H 0.44279 0.60895 0.59424 0.0
H813 H 0.46248 0.62996 0.52369 0.0
H814 H 0.41772 0.56559 0.40353 0.0
H815 H 0.39209 0.57546 0.36301 0.0
H816 H 0.38366 0.56253 0.42045 0.0
H817 H 0.35627 0.60451 0.43693 0.0
H818 H 0.36535 0.61806 0.38025 0.0
H819 H 0.37187 0.6363 0.43375 0.0
H820 H 0.47345 0.65059 0.44407 0.0
H821 H 0.47846 0.66275 0.35914 0.0
H822 H 0.40811 0.61851 0.3254 0.0
C823 C 0.3967 0.59075 0.51171 0.0
C824 C 0.409 0.59301 0.55642 0.0
C825 C 0.43315 0.60675 0.56021 0.0
C826 C 0.44436 0.61898 0.52045 0.0
C827 C 0.43132 0.61699 0.47713 0.0
C828 C 0.40832 0.60273 0.47236 0.0
C829 C 0.39855 0.60297 0.4217 0.0
C830 C 0.398 0.57498 0.40096 0.0
C831 C 0.3714 0.61625 0.41798 0.0
C832 C 0.41964 0.61958 0.39875 0.0
C833 C 0.43815 0.62793 0.43131 0.0
C834 C 0.45918 0.64401 0.41818 0.0
C835 C 0.46177 0.65102 0.37017 0.0
C836 C 0.44365 0.64151 0.33628 0.0
C837 C 0.42221 0.62596 0.35091 0.0
H838 H 0.88892 0.37749 0.02446 0.0
H839 H 0.94968 0.43351 0.0631 0.0
H840 H 0.93933 0.45958 0.99139 0.0
H841 H 0.89998 0.37821 0.90009 0.0
H842 H 0.86554 0.37535 0.88576 0.0
H843 H 0.87779 0.36215 0.94064 0.0
H844 H 0.84302 0.3902 0.9857 0.0
H845 H 0.83153 0.40397 0.93054 0.0
H846 H 0.84244 0.42537 0.97754 0.0
H847 H 0.92481 0.4774 0.9125 0.0
H848 H 0.90751 0.48534 0.83171 0.0
H849 H 0.85453 0.41925 0.84694 0.0
C850 C 0.90008 0.39526 0.01801 0.0
C851 C 0.92019 0.40343 0.04942 0.0
C852 C 0.93419 0.42687 0.03961 0.0
C853 C 0.92838 0.44185 -0.00092 0.0
C854 C 0.90832 0.43327 0.96908 0.0
C855 C 0.89436 0.41054 0.97811 0.0
C856 C 0.87427 0.40517 0.93961 0.0
C857 C 0.87975 0.37866 0.91508 0.0
C858 C 0.84615 0.40625 0.95956 0.0
C859 C 0.87952 0.42813 0.90678 0.0
C860 C 0.89917 0.44418 0.92456 0.0
C861 C 0.90904 0.46534 0.89872 0.0
C862 C 0.89906 0.46978 0.85307 0.0
C863 C 0.87921 0.45338 0.83414 0.0
C864 C 0.86894 0.43266 0.86164 0.0
H865 H 0.08958 0.85103 0.35126 0.0
H866 H 0.02166 0.90192 0.3364 0.0
H867 H 0.02929 0.91962 0.417 0.0
H868 H 0.08458 0.83893 0.4816 0.0
H869 H 0.11976 0.84063 0.48893 0.0
H870 H 0.10601 0.82875 0.43406 0.0
H871 H 0.13291 0.8637 0.38835 0.0
H872 H 0.14622 0.87631 0.44287 0.0
H873 H 0.12898 0.89801 0.40294 0.0
H874 H 0.04686 0.93474 0.49577 0.0
H875 H 0.0728 0.94573 0.56736 0.0
H876 H 0.13071 0.88679 0.52764 0.0
C877 C 0.07573 0.86504 0.36601 0.0
C878 C 0.05462 0.87465 0.33869 0.0
C879 C 0.03759 0.89401 0.35765 0.0
C880 C 0.04182 0.90419 0.40318 0.0
C881 C 0.06339 0.89502 0.42881 0.0
C882 C 0.08003 0.87581 0.411 0.0
C883 C 0.10337 0.87145 0.44336 0.0
C884 C 0.10342 0.84327 0.46317 0.0
C885 C 0.12939 0.87776 0.41785 0.0
C886 C 0.09743 0.8914 0.48172 0.0
C887 C 0.07417 0.90461 0.47305 0.0
C888 C 0.065 0.92437 0.50319 0.0
C889 C 0.0799 0.93056 0.54362 0.0
C890 C 0.1038 0.9172 0.55311 0.0
C891 C 0.11258 0.89747 0.52146 0.0
H892 H 0.57653 0.37579 0.99124 0.0
H893 H 0.61047 0.43604 0.90088 0.0
H894 H 0.63038 0.45712 0.97091 0.0
H895 H 0.56179 0.41965 0.0915 0.0
H896 H 0.5696 0.39466 0.13468 0.0
H897 H 0.55689 0.38539 0.07746 0.0
H898 H 0.59721 0.35509 0.06542 0.0
H899 H 0.61071 0.36492 0.12172 0.0
H900 H 0.62987 0.3688 0.06845 0.0
H901 H 0.65063 0.46888 0.04983 0.0
H902 H 0.66328 0.47465 0.13434 0.0
H903 H 0.61409 0.40838 0.17251 0.0
C904 C 0.5877 0.39372 0.98629 0.0
C905 C 0.59195 0.40424 0.94061 0.0
C906 C 0.60676 0.4277 0.93558 0.0
C907 C 0.61835 0.43972 0.97509 0.0
C908 C 0.61461 0.42827 0.01939 0.0
C909 C 0.59911 0.40616 0.02536 0.0
C910 C 0.59814 0.39779 0.07677 0.0
C911 C 0.56993 0.39949 0.09624 0.0
C912 C 0.60967 0.37001 0.08344 0.0
C913 C 0.61572 0.41848 0.09859 0.0
C914 C 0.62537 0.43568 0.06493 0.0
C915 C 0.64292 0.45577 0.07666 0.0
C916 C 0.65019 0.45878 0.12443 0.0
C917 C 0.63947 0.44204 0.15939 0.0
C918 C 0.62231 0.42155 0.14619 0.0
H919 H 0.14443 0.59458 0.47585 0.0
H920 H 0.06899 0.58449 0.40633 0.0
H921 H 0.04635 0.59845 0.4802 0.0
H922 H 0.12453 0.5708 0.59102 0.0
H923 H 0.14506 0.59408 0.62186 0.0
H924 H 0.15444 0.58249 0.56397 0.0
H925 H 0.15705 0.63071 0.53453 0.0
H926 H 0.14715 0.64247 0.59203 0.0
H927 H 0.12867 0.65182 0.54011 0.0
H928 H 0.03261 0.61628 0.56139 0.0
H929 H 0.02886 0.63092 0.64512 0.0
H930 H 0.11385 0.62828 0.65841 0.0
C931 C 0.12312 0.59511 0.47624 0.0
C932 C 0.10837 0.58866 0.43565 0.0
C933 C 0.08055 0.58927 0.43742 0.0
C934 C 0.0676 0.59735 0.47897 0.0
C935 C 0.08287 0.60437 0.5181 0.0
C936 C 0.11003 0.60285 0.51714 0.0
C937 C 0.12216 0.61116 0.56353 0.0
C938 C 0.13743 0.58827 0.58645 0.0
C939 C 0.13979 0.63549 0.55713 0.0
C940 C 0.09759 0.61777 0.59094 0.0
C941 C 0.07508 0.61401 0.5643 0.0
C942 C 0.0501 0.61916 0.58263 0.0
C943 C 0.04816 0.62767 0.62993 0.0
C944 C 0.07108 0.63059 0.65794 0.0
C945 C 0.096 0.62604 0.63778 0.0
H946 H 0.93494 0.13141 0.9882 0.0
H947 H 0.90113 0.07139 0.89719 0.0
H948 H 0.87996 0.05095 0.96666 0.0
H949 H 0.94781 0.08813 0.08952 0.0
H950 H 0.93976 0.11346 0.13191 0.0
H951 H 0.95317 0.12225 0.075 0.0
H952 H 0.91323 0.15286 0.06135 0.0
H953 H 0.89878 0.14322 0.11699 0.0
H954 H 0.88044 0.13938 0.0628 0.0
H955 H 0.85892 0.03949 0.04559 0.0
H956 H 0.84589 0.03393 0.12998 0.0
H957 H 0.89522 0.10005 0.16843 0.0
C958 C 0.92352 0.11367 0.98298 0.0
C959 C 0.91975 0.10301 0.93726 0.0
C960 C 0.90454 0.07982 0.93193 0.0
C961 C 0.89221 0.06817 0.97112 0.0
C962 C 0.89557 0.07973 0.01545 0.0
C963 C 0.91134 0.10162 0.02172 0.0
C964 C 0.91182 0.11021 0.07303 0.0
C965 C 0.9398 0.10838 0.09357 0.0
C966 C 0.90039 0.13808 0.07882 0.0
C967 C 0.89384 0.0898 0.09455 0.0
C968 C 0.88427 0.0726 0.06081 0.0
C969 C 0.86653 0.05265 0.07244 0.0
C970 C 0.85904 0.04976 0.12016 0.0
C971 C 0.86969 0.0665 0.15523 0.0
C972 C 0.88698 0.0869 0.14208 0.0
H973 H 0.39596 0.88752 0.66803 0.0
H974 H 0.4787 0.87008 0.64637 0.0
H975 H 0.47447 0.88318 0.56206 0.0
H976 H 0.37396 0.86381 0.5517 0.0
H977 H 0.34874 0.88874 0.54903 0.0
H978 H 0.3595 0.87615 0.60552 0.0
H979 H 0.36914 0.92468 0.63107 0.0
H980 H 0.35976 0.93652 0.57332 0.0
H981 H 0.39192 0.94398 0.5966 0.0
H982 H 0.46106 0.8999 0.48059 0.0
H983 H 0.43898 0.91534 0.40753 0.0
H984 H 0.36533 0.92174 0.4848 0.0
C985 C 0.4132 0.8863 0.64553 0.0
C986 C 0.43769 0.87792 0.66364 0.0
C987 C 0.45971 0.87634 0.63302 0.0
C988 C 0.45753 0.88388 0.58525 0.0
C989 C 0.43315 0.89266 0.56885 0.0
C990 C 0.41132 0.89351 0.59799 0.0
C991 C 0.38727 0.90331 0.57192 0.0
C992 C 0.36612 0.88173 0.56938 0.0
C993 C 0.3764 0.92863 0.59459 0.0
C994 C 0.39908 0.90854 0.52373 0.0
C995 C 0.42551 0.90219 0.52244 0.0
C996 C 0.44036 0.9049 0.48119 0.0
C997 C 0.42767 0.91378 0.43994 0.0
C998 C 0.40042 0.9198 0.44038 0.0
C999 C 0.38619 0.91748 0.48317 0.0
H1000 H 0.38195 0.88527 0.95968 0.0
H1001 H 0.44717 0.93802 0.93151 0.0
H1002 H 0.43577 0.96341 0.00384 0.0
H1003 H 0.33654 0.93498 0.00837 0.0
H1004 H 0.3236 0.91226 0.05152 0.0
H1005 H 0.33525 0.90031 0.9951 0.0
H1006 H 0.36707 0.86826 0.03808 0.0
H1007 H 0.35543 0.87995 0.09443 0.0
H1008 H 0.39006 0.88109 0.08091 0.0
H1009 H 0.42083 0.97878 0.08436 0.0
H1010 H 0.40373 0.98312 0.16606 0.0
H1011 H 0.3469 0.9216 0.13873 0.0
C1012 C 0.39377 0.90232 0.96828 0.0
C1013 C 0.4156 0.90962 0.94016 0.0
C1014 C 0.43038 0.93214 0.95259 0.0
C1015 C 0.42396 0.94668 0.99342 0.0
C1016 C 0.40245 0.93866 0.02063 0.0
C1017 C 0.38748 0.91709 0.00827 0.0
C1018 C 0.36648 0.9113 0.04479 0.0
C1019 C 0.33883 0.91494 0.02367 0.0
C1020 C 0.36999 0.88352 0.06579 0.0
C1021 C 0.37252 0.93239 0.08088 0.0
C1022 C 0.39319 0.94815 0.0661 0.0
C1023 C 0.40422 0.96707 0.09571 0.0
C1024 C 0.3944 0.9694 0.14192 0.0
C1025 C 0.37365 0.95309 0.15778 0.0
C1026 C 0.36209 0.93491 0.12656 0.0
H1027 H 0.6381 0.43203 0.49017 0.0
H1028 H 0.57502 0.40145 0.40217 0.0
H1029 H 0.55529 0.38025 0.4723 0.0
H1030 H 0.64565 0.37642 0.56239 0.0
H1031 H 0.65137 0.39406 0.6168 0.0
H1032 H 0.66031 0.4087 0.56094 0.0
H1033 H 0.63162 0.44959 0.57791 0.0
H1034 H 0.62347 0.43596 0.63496 0.0
H1035 H 0.59763 0.44541 0.59454 0.0
H1036 H 0.54462 0.35901 0.55099 0.0
H1037 H 0.53979 0.34587 0.63543 0.0
H1038 H 0.60858 0.39204 0.67127 0.0
C1039 C 0.61988 0.42129 0.48577 0.0
C1040 C 0.60813 0.41838 0.44071 0.0
C1041 C 0.5843 0.40411 0.43642 0.0
C1042 C 0.57305 0.39178 0.47595 0.0
C1043 C 0.5857 0.3942 0.51951 0.0
C1044 C 0.60825 0.4091 0.52485 0.0
C1045 C 0.61792 0.40876 0.57554 0.0
C1046 C 0.64544 0.39624 0.57908 0.0
C1047 C 0.61762 0.43658 0.597 0.0
C1048 C 0.59727 0.39134 0.59783 0.0
C1049 C 0.57909 0.38272 0.56489 0.0
C1050 C 0.55858 0.36581 0.57723 0.0
C1051 C 0.55611 0.35824 0.62493 0.0
C1052 C 0.57383 0.36802 0.65924 0.0
C1053 C 0.5948 0.3844 0.64538 0.0
H1054 H 0.09914 0.63714 0.97711 0.0
H1055 H 0.09319 0.56236 0.90384 0.0
H1056 H 0.10622 0.53919 0.97783 0.0
H1057 H 0.15541 0.6226 0.04407 0.0
H1058 H 0.14451 0.64009 0.0961 0.0
H1059 H 0.1334 0.65027 0.03833 0.0
H1060 H 0.08482 0.64556 0.06482 0.0
H1061 H 0.09574 0.63589 0.123 0.0
H1062 H 0.07377 0.61492 0.09003 0.0
H1063 H 0.12303 0.52504 0.05983 0.0
H1064 H 0.13685 0.52092 0.14405 0.0
H1065 H 0.13086 0.60562 0.15992 0.0
C1066 C 0.10035 0.61585 0.97668 0.0
C1067 C 0.09538 0.60145 0.93504 0.0
C1068 C 0.09686 0.57365 0.93574 0.0
C1069 C 0.10439 0.56041 0.97738 0.0
C1070 C 0.10999 0.57539 0.01761 0.0
C1071 C 0.10759 0.60249 0.01758 0.0
C1072 C 0.11463 0.61434 0.06485 0.0
C1073 C 0.1384 0.63291 0.06054 0.0
C1074 C 0.09082 0.62849 0.08698 0.0
C1075 C 0.12164 0.58969 0.09167 0.0
C1076 C 0.11907 0.56736 0.06409 0.0
C1077 C 0.12494 0.54238 0.08181 0.0
C1078 C 0.13296 0.54024 0.12938 0.0
C1079 C 0.13475 0.56296 0.15822 0.0
C1080 C 0.12944 0.5879 0.13871 0.0
H1081 H 0.87171 0.07556 0.48754 0.0
H1082 H 0.93431 0.10588 0.39825 0.0
H1083 H 0.95464 0.12695 0.46789 0.0
H1084 H 0.86538 0.13127 0.5609 0.0
H1085 H 0.86014 0.11349 0.61528 0.0
H1086 H 0.85034 0.09917 0.5596 0.0
H1087 H 0.87878 0.05788 0.575 0.0
H1088 H 0.88768 0.07119 0.63194 0.0
H1089 H 0.91298 0.06165 0.59054 0.0
H1090 H 0.9662 0.14796 0.54653 0.0
H1091 H 0.97195 0.16079 0.63095 0.0
H1092 H 0.90336 0.11478 0.66846 0.0
C1093 C 0.88993 0.08625 0.48276 0.0
C1094 C 0.90139 0.08902 0.43743 0.0
C1095 C 0.92523 0.10325 0.43267 0.0
C1096 C 0.93684 0.11553 0.47195 0.0
C1097 C 0.92456 0.11312 0.51583 0.0
C1098 C 0.90197 0.09834 0.52165 0.0
C1099 C 0.89287 0.09857 0.5727 0.0
C1100 C 0.86555 0.11138 0.57733 0.0
C1101 C 0.89311 0.07066 0.59378 0.0
C1102 C 0.91391 0.11569 0.59463 0.0
C1103 C 0.93176 0.12435 0.5612 0.0
C1104 C 0.95249 0.14111 0.57313 0.0
C1105 C 0.95549 0.14849 0.62086 0.0
C1106 C 0.93809 0.1387 0.65566 0.0
C1107 C 0.91693 0.12243 0.64224 0.0
H1108 H 0.41628 0.58471 0.82342 0.0
H1109 H 0.34897 0.53679 0.86118 0.0
H1110 H 0.35826 0.54469 0.94636 0.0
H1111 H 0.45889 0.56737 0.9224 0.0
H1112 H 0.47132 0.60036 0.92903 0.0
H1113 H 0.46094 0.58879 0.87158 0.0
H1114 H 0.42948 0.6283 0.86479 0.0
H1115 H 0.43879 0.64 0.92246 0.0
H1116 H 0.40466 0.63363 0.90942 0.0
H1117 H 0.37503 0.55801 0.02695 0.0
H1118 H 0.39397 0.58021 0.09679 0.0
H1119 H 0.44784 0.62285 0.0057 0.0
C1120 C 0.4037 0.57559 0.84967 0.0
C1121 C 0.38214 0.5598 0.83599 0.0
C1122 C 0.36568 0.54877 0.87113 0.0
C1123 C 0.3709 0.55307 0.91945 0.0
C1124 C 0.39235 0.56879 0.93173 0.0
C1125 C 0.40822 0.58023 0.89781 0.0
C1126 C 0.4286 0.59813 0.92009 0.0
C1127 C 0.4566 0.58805 0.91019 0.0
C1128 C 0.42513 0.62671 0.90321 0.0
C1129 C 0.42157 0.59523 0.97192 0.0
C1130 C 0.40101 0.57773 0.97793 0.0
C1131 C 0.39112 0.57171 0.02263 0.0
C1132 C 0.40214 0.5843 0.06209 0.0
C1133 C 0.42246 0.60313 0.05653 0.0
C1134 C 0.43239 0.60848 0.01086 0.0
H1135 H 0.90117 0.39164 0.3228 0.0
H1136 H 0.98108 0.36482 0.34828 0.0
H1137 H 0.97636 0.37625 0.43323 0.0
H1138 H 0.90217 0.44654 0.4015 0.0
H1139 H 0.86871 0.44209 0.421 0.0
H1140 H 0.87834 0.43163 0.36251 0.0
H1141 H 0.86165 0.38457 0.38018 0.0
H1142 H 0.85172 0.39485 0.43859 0.0
H1143 H 0.87377 0.36731 0.43164 0.0
H1144 H 0.96293 0.39176 0.5152 0.0
H1145 H 0.94105 0.40704 0.58842 0.0
H1146 H 0.86984 0.42297 0.50815 0.0
C1147 C 0.91774 0.38813 0.34615 0.0
C1148 C 0.94157 0.37745 0.32886 0.0
C1149 C 0.96263 0.37294 0.36076 0.0
C1150 C 0.96016 0.37948 0.40898 0.0
C1151 C 0.93647 0.39032 0.42464 0.0
C1152 C 0.91557 0.39437 0.39418 0.0
C1153 C 0.89205 0.40584 0.41977 0.0
C1154 C 0.88491 0.43315 0.40001 0.0
C1155 C 0.86841 0.38701 0.41741 0.0
C1156 C 0.90297 0.40771 0.46954 0.0
C1157 C 0.92866 0.39882 0.47164 0.0
C1158 C 0.94281 0.39871 0.51397 0.0
C1159 C 0.93022 0.40753 0.55534 0.0
C1160 C 0.90369 0.41618 0.55412 0.0
C1161 C 0.8901 0.41646 0.5104 0.0
H1162 H 0.11362 0.89724 0.82724 0.0
H1163 H 0.13913 0.97756 0.85185 0.0
H1164 H 0.12613 0.9736 0.93613 0.0
H1165 H 0.05727 0.89841 0.90351 0.0
H1166 H 0.06197 0.86516 0.92408 0.0
H1167 H 0.073 0.87446 0.86576 0.0
H1168 H 0.12011 0.85845 0.88577 0.0
H1169 H 0.10922 0.84882 0.94395 0.0
H1170 H 0.1365 0.87115 0.93763 0.0
H1171 H 0.10972 0.9607 0.01776 0.0
H1172 H 0.09484 0.93885 0.09128 0.0
H1173 H 0.08082 0.86694 0.01208 0.0
C1174 C 0.11646 0.91406 0.85026 0.0
C1175 C 0.12728 0.93777 0.83294 0.0
C1176 C 0.13094 0.95919 0.86439 0.0
C1177 C 0.12347 0.95717 0.91221 0.0
C1178 C 0.11254 0.93357 0.92792 0.0
C1179 C 0.10931 0.91233 0.89792 0.0
C1180 C 0.09788 0.88889 0.92365 0.0
C1181 C 0.07093 0.8813 0.90301 0.0
C1182 C 0.11708 0.86545 0.9227 0.0
C1183 C 0.09522 0.9002 0.973 0.0
C1184 C 0.10355 0.92606 0.97474 0.0
C1185 C 0.10315 0.94046 0.0168 0.0
C1186 C 0.09455 0.92791 0.05833 0.0
C1187 C 0.08669 0.90116 0.0575 0.0
C1188 C 0.0867 0.88739 0.01398 0.0
H1189 H 0.63761 0.08181 0.50081 0.0
H1190 H 0.57139 0.10359 0.58931 0.0
H1191 H 0.54895 0.123 0.51948 0.0
H1192 H 0.63849 0.13716 0.42666 0.0
H1193 H 0.6458 0.11944 0.37285 0.0
H1194 H 0.65636 0.1065 0.42915 0.0
H1195 H 0.63198 0.06284 0.41271 0.0
H1196 H 0.6218 0.07535 0.35584 0.0
H1197 H 0.59756 0.06352 0.39729 0.0
H1198 H 0.53599 0.14382 0.44109 0.0
H1199 H 0.52969 0.15708 0.35696 0.0
H1200 H 0.60278 0.11825 0.31982 0.0
C1201 C 0.61816 0.09024 0.5051 0.0
C1202 C 0.60603 0.0912 0.54995 0.0
C1203 C 0.58069 0.10241 0.55481 0.0
C1204 C 0.56799 0.11369 0.51556 0.0
C1205 C 0.58076 0.11303 0.47183 0.0
C1206 C 0.60497 0.10093 0.46616 0.0
C1207 C 0.61415 0.1021 0.41522 0.0
C1208 C 0.64024 0.11721 0.41076 0.0
C1209 C 0.61649 0.0743 0.39402 0.0
C1210 C 0.5916 0.11726 0.39333 0.0
C1211 C 0.57269 0.12376 0.42655 0.0
C1212 C 0.55049 0.13858 0.41463 0.0
C1213 C 0.54717 0.14623 0.36711 0.0
C1214 C 0.56577 0.13859 0.33254 0.0
C1215 C 0.5883 0.12422 0.34591 0.0
H1216 H 0.44021 0.99306 0.28129 0.0
H1217 H 0.37105 0.04227 0.29766 0.0
H1218 H 0.39643 0.08081 0.27008 0.0
H1219 H 0.48944 0.04224 0.31586 0.0
H1220 H 0.51276 0.03127 0.27194 0.0
H1221 H 0.48969 0.00833 0.29712 0.0
H1222 H 0.47366 0.99643 0.21257 0.0
H1223 H 0.49624 0.01977 0.18714 0.0
H1224 H 0.4616 0.02208 0.17409 0.0
H1225 H 0.42893 0.1137 0.23855 0.0
H1226 H 0.46686 0.13911 0.20868 0.0
H1227 H 0.51429 0.06806 0.20803 0.0
C1228 C 0.43066 0.01212 0.28045 0.0
C1229 C 0.40379 0.01483 0.29258 0.0
C1230 C 0.39171 0.03988 0.28923 0.0
C1231 C 0.40592 0.06183 0.27333 0.0
C1232 C 0.43214 0.05835 0.26025 0.0
C1233 C 0.44446 0.03416 0.26382 0.0
C1234 C 0.47247 0.03552 0.24537 0.0
C1235 C 0.49226 0.02896 0.28494 0.0
C1236 C 0.4762 0.01737 0.20223 0.0
C1237 C 0.47403 0.06427 0.23114 0.0
C1238 C 0.45054 0.07707 0.2401 0.0
C1239 C 0.44738 0.10386 0.23123 0.0
C1240 C 0.469 0.11811 0.21403 0.0
C1241 C 0.49343 0.10555 0.20537 0.0
C1242 C 0.49572 0.07813 0.21324 0.0
H1243 H 0.52041 0.43869 0.77553 0.0
H1244 H 0.47314 0.36792 0.78413 0.0
H1245 H 0.43435 0.39286 0.75563 0.0
H1246 H 0.46962 0.48557 0.8103 0.0
H1247 H 0.48067 0.51016 0.76882 0.0
H1248 H 0.5038 0.48702 0.79344 0.0
H1249 H 0.51746 0.47326 0.70841 0.0
H1250 H 0.49398 0.49598 0.68355 0.0
H1251 H 0.49273 0.46166 0.66763 0.0
H1252 H 0.40057 0.42599 0.72629 0.0
H1253 H 0.37478 0.46453 0.69893 0.0
H1254 H 0.44531 0.51233 0.70315 0.0
C1255 C 0.50175 0.42859 0.77251 0.0
C1256 C 0.49964 0.40146 0.78287 0.0
C1257 C 0.47508 0.38876 0.77691 0.0
C1258 C 0.45299 0.40274 0.76057 0.0
C1259 C 0.45589 0.42932 0.74954 0.0
C1260 C 0.47967 0.44211 0.75528 0.0
C1261 C 0.47791 0.47046 0.73895 0.0
C1262 C 0.48331 0.48942 0.78035 0.0
C1263 C 0.49663 0.47563 0.69715 0.0
C1264 C 0.44941 0.4717 0.72334 0.0
C1265 C 0.43696 0.44785 0.73002 0.0
C1266 C 0.41021 0.44467 0.72042 0.0
C1267 C 0.39574 0.46659 0.70466 0.0
C1268 C 0.40813 0.49124 0.69784 0.0
C1269 C 0.43543 0.49356 0.70658 0.0
H1270 H 0.99399 0.4413 0.21004 0.0
H1271 H 0.04145 0.37045 0.19976 0.0
H1272 H 0.08005 0.39519 0.22912 0.0
H1273 H 0.04495 0.48719 0.1735 0.0
H1274 H 0.03384 0.51232 0.21392 0.0
H1275 H 0.01073 0.48903 0.18997 0.0
H1276 H 0.99678 0.47636 0.27539 0.0
H1277 H 0.02024 0.49922 0.29961 0.0
H1278 H 0.02135 0.46509 0.31683 0.0
H1279 H 0.11325 0.42794 0.26392 0.0
H1280 H 0.13864 0.46637 0.29241 0.0
H1281 H 0.06868 0.51497 0.28008 0.0
C1282 C 0.01256 0.43097 0.21323 0.0
C1283 C 0.01458 0.40385 0.20241 0.0
C1284 C 0.03934 0.39123 0.20742 0.0
C1285 C 0.06137 0.40509 0.22444 0.0
C1286 C 0.0584 0.43161 0.23616 0.0
C1287 C 0.03465 0.44446 0.23009 0.0
C1288 C 0.03641 0.47297 0.24533 0.0
C1289 C 0.03118 0.49146 0.20317 0.0
C1290 C 0.01758 0.47873 0.28675 0.0
C1291 C 0.06484 0.47423 0.26114 0.0
C1292 C 0.07725 0.45021 0.25587 0.0
C1293 C 0.10368 0.44684 0.26803 0.0
C1294 C 0.11792 0.46876 0.28458 0.0
C1295 C 0.10574 0.49378 0.28867 0.0
C1296 C 0.07868 0.49619 0.27759 0.0
H1297 H 0.06813 0.98973 0.72919 0.0
H1298 H 0.13372 0.03837 0.68445 0.0
H1299 H 0.10844 0.07822 0.70675 0.0
H1300 H 0.01607 0.03263 0.68971 0.0
H1301 H 0.99534 0.02524 0.73979 0.0
H1302 H 0.01843 1.00107 0.71859 0.0
H1303 H 0.03885 0.9981 0.80268 0.0
H1304 H 0.01607 0.02257 0.82398 0.0
H1305 H 0.05097 0.02753 0.83083 0.0
H1306 H 0.07548 0.11281 0.73467 0.0
H1307 H 0.03751 0.13902 0.76251 0.0
H1308 H 0.99463 0.06705 0.79163 0.0
C1309 C 0.0772 0.00872 0.72345 0.0
C1310 C 0.10296 0.01083 0.70471 0.0
C1311 C 0.11401 0.03618 0.69845 0.0
C1312 C 0.09983 0.05892 0.71123 0.0
C1313 C 0.0747 0.05599 0.73052 0.0
C1314 C 0.06349 0.03148 0.7364 0.0
C1315 C 0.03637 0.03346 0.75838 0.0
C1316 C 0.01531 0.02246 0.7246 0.0
C1317 C 0.03553 0.01959 0.80684 0.0
C1318 C 0.03387 0.06298 0.76379 0.0
C1319 C 0.05616 0.07567 0.74755 0.0
C1320 C 0.05802 0.10303 0.74764 0.0
C1321 C 0.03635 0.11775 0.76367 0.0
C1322 C 0.01311 0.10515 0.7797 0.0
C1323 C 0.0122 0.07735 0.78044 0.0
H1324 H 0.56504 0.01759 0.7088 0.0
H1325 H 0.63463 0.96839 0.69683 0.0
H1326 H 0.60907 0.93029 0.7257 0.0
H1327 H 0.54109 0.99033 0.81524 0.0
H1328 H 0.50689 0.99227 0.79865 0.0
H1329 H 0.53013 0.0153 0.77431 0.0
H1330 H 0.51666 1.00195 0.68895 0.0
H1331 H 0.49301 0.97926 0.71303 0.0
H1332 H 0.51766 0.96776 0.67201 0.0
H1333 H 0.5761 0.89801 0.76084 0.0
H1334 H 0.53756 0.8734 0.79054 0.0
H1335 H 0.49002 0.94418 0.77926 0.0
C1336 C 0.57489 0.99874 0.71145 0.0
C1337 C 0.60192 0.99608 0.70042 0.0
C1338 C 0.61394 0.97099 0.70472 0.0
C1339 C 0.59961 0.94923 0.72143 0.0
C1340 C 0.57324 0.95282 0.73347 0.0
C1341 C 0.56092 0.97688 0.72798 0.0
C1342 C 0.53247 0.97571 0.74369 0.0
C1343 C 0.52736 0.99452 0.78545 0.0
C1344 C 0.51385 0.98151 0.70193 0.0
C1345 C 0.53067 0.94726 0.75917 0.0
C1346 C 0.55439 0.93436 0.75329 0.0
C1347 C 0.55741 0.90791 0.76536 0.0
C1348 C 0.53542 0.89413 0.78255 0.0
C1349 C 0.51067 0.90678 0.78734 0.0
C1350 C 0.50859 0.93385 0.77618 0.0
H1351 H 0.57076 0.49337 0.28352 0.0
H1352 H 0.64136 0.541 0.28987 0.0
H1353 H 0.61566 0.57997 0.26455 0.0
H1354 H 0.54582 0.52212 0.17823 0.0
H1355 H 0.51178 0.52046 0.19581 0.0
H1356 H 0.53503 0.49689 0.2187 0.0
H1357 H 0.52248 0.50957 0.30479 0.0
H1358 H 0.49886 0.53286 0.28217 0.0
H1359 H 0.52404 0.54356 0.32282 0.0
H1360 H 0.58198 0.61376 0.23756 0.0
H1361 H 0.54324 0.63943 0.21104 0.0
H1362 H 0.49556 0.56881 0.21643 0.0
C1363 C 0.58069 0.51214 0.28075 0.0
C1364 C 0.60801 0.51427 0.28957 0.0
C1365 C 0.62041 0.53901 0.28389 0.0
C1366 C 0.60598 0.56121 0.26936 0.0
C1367 C 0.5792 0.5583 0.25987 0.0
C1368 C 0.56669 0.53437 0.26533 0.0
C1369 C 0.53806 0.53614 0.25047 0.0
C1370 C 0.53235 0.51781 0.2083 0.0
C1371 C 0.51979 0.53019 0.29257 0.0
C1372 C 0.53636 0.56481 0.23591 0.0
C1373 C 0.56025 0.57732 0.24193 0.0
C1374 C 0.56324 0.60409 0.23243 0.0
C1375 C 0.54116 0.6185 0.21721 0.0
C1376 C 0.51648 0.60609 0.21087 0.0
C1377 C 0.51428 0.57878 0.21982 0.0
H1378 H 0.89823 0.54652 0.69059 0.0
H1379 H 0.93715 0.47393 0.73203 0.0
H1380 H 0.97008 0.49896 0.77617 0.0
H1381 H 0.96005 0.58003 0.66768 0.0
H1382 H 0.94858 0.61182 0.68713 0.0
H1383 H 0.92565 0.58836 0.66315 0.0
H1384 H 0.89773 0.59213 0.73969 0.0
H1385 H 0.92094 0.61522 0.76424 0.0
H1386 H 0.91284 0.58566 0.79637 0.0
H1387 H 0.99838 0.53011 0.81643 0.0
H1388 H 0.02829 0.56661 0.8347 0.0
H1389 H 0.97651 0.62084 0.76088 0.0
C1390 C 0.91375 0.53606 0.70897 0.0
C1391 C 0.9148 0.50819 0.70848 0.0
C1392 C 0.93569 0.49518 0.73216 0.0
C1393 C 0.95444 0.50923 0.7578 0.0
C1394 C 0.95272 0.53649 0.75843 0.0
C1395 C 0.93362 0.54998 0.73336 0.0
C1396 C 0.93886 0.57948 0.7354 0.0
C1397 C 0.94357 0.59057 0.68537 0.0
C1398 C 0.91624 0.59398 0.76042 0.0
C1399 C 0.9639 0.58017 0.76519 0.0
C1400 C 0.97081 0.55504 0.77915 0.0
C1401 C 0.99328 0.54992 0.80571 0.0
C1402 C 0.01008 0.57081 0.81615 0.0
C1403 C 0.00464 0.59651 0.79953 0.0
C1404 C 0.98078 0.60149 0.77502 0.0
H1405 H 0.9388 0.01362 0.27499 0.0
H1406 H 0.86781 0.96703 0.28808 0.0
H1407 H 0.89234 0.92745 0.26214 0.0
H1408 H 0.96083 0.98377 0.16901 0.0
H1409 H 0.99529 0.98495 0.18393 0.0
H1410 H 0.97301 0.00905 0.20809 0.0
H1411 H 0.98733 0.99667 0.2935 0.0
H1412 H 0.01006 0.97293 0.26951 0.0
H1413 H 0.98575 0.96279 0.31222 0.0
H1414 H 0.92496 0.89286 0.23385 0.0
H1415 H 0.96292 0.86639 0.20588 0.0
H1416 H 0.01123 0.93662 0.20491 0.0
C1417 C 0.9286 0.99494 0.27362 0.0
C1418 C 0.9015 0.99327 0.28443 0.0
C1419 C 0.88864 0.96865 0.28054 0.0
C1420 C 0.90239 0.9461 0.26567 0.0
C1421 C 0.92893 0.94856 0.25404 0.0
C1422 C 0.9419 0.97236 0.25788 0.0
C1423 C 0.97009 0.97006 0.24088 0.0
C1424 C 0.97508 0.98802 0.19793 0.0
C1425 C 0.98945 0.97595 0.28145 0.0
C1426 C 0.97097 0.94128 0.22684 0.0
C1427 C 0.94713 0.92911 0.23509 0.0
C1428 C 0.94364 0.90226 0.22683 0.0
C1429 C 0.96523 0.8874 0.21069 0.0
C1430 C 0.98984 0.89949 0.20211 0.0
C1431 C 0.99248 0.92689 0.2097 0.0
H1432 H 0.54641 0.24381 0.11549 0.0
H1433 H 0.5019 0.18178 0.04818 0.0
H1434 H 0.48994 0.21231 0.98278 0.0
H1435 H 0.5036 0.30222 0.07047 0.0
H1436 H 0.53322 0.32153 0.06622 0.0
H1437 H 0.52997 0.29689 0.1119 0.0
H1438 H 0.57432 0.2765 0.08121 0.0
H1439 H 0.57588 0.30048 0.03473 0.0
H1440 H 0.57633 0.26592 0.02028 0.0
H1441 H 0.49093 0.24696 0.91742 0.0
H1442 H 0.50565 0.28068 0.85962 0.0
H1443 H 0.55051 0.31906 0.97013 0.0
C1444 C 0.53304 0.23714 0.08809 0.0
C1445 C 0.52455 0.21078 0.08707 0.0
C1446 C 0.50793 0.20218 0.05005 0.0
C1447 C 0.50116 0.2194 0.01278 0.0
C1448 C 0.51092 0.24513 0.01366 0.0
C1449 C 0.52618 0.25404 0.05101 0.0
C1450 C 0.53749 0.28099 0.04105 0.0
C1451 C 0.52536 0.30164 0.07437 0.0
C1452 C 0.56777 0.28093 0.04448 0.0
C1453 C 0.52812 0.28503 0.9907 0.0
C1454 C 0.512 0.2647 0.97589 0.0
C1455 C 0.50296 0.26326 0.92911 0.0
C1456 C 0.51129 0.28254 0.89652 0.0
C1457 C 0.52892 0.30253 0.91078 0.0
C1458 C 0.53666 0.30417 0.95869 0.0
H1459 H 0.19381 0.55497 0.47068 0.0
H1460 H 0.22981 0.50213 0.36863 0.0
H1461 H 0.26542 0.49262 0.42626 0.0
H1462 H 0.25038 0.5849 0.503 0.0
H1463 H 0.2418 0.58968 0.56443 0.0
H1464 H 0.21634 0.58738 0.52049 0.0
H1465 H 0.19482 0.54891 0.56637 0.0
H1466 H 0.22011 0.55133 0.61093 0.0
H1467 H 0.21422 0.5204 0.58157 0.0
H1468 H 0.30038 0.49371 0.49235 0.0
H1469 H 0.33111 0.50685 0.55682 0.0
H1470 H 0.27295 0.56168 0.61008 0.0
C1471 C 0.20867 0.54071 0.4607 0.0
C1472 C 0.20883 0.52917 0.41503 0.0
C1473 C 0.229 0.51097 0.40354 0.0
C1474 C 0.24936 0.50551 0.43609 0.0
C1475 C 0.24922 0.51835 0.47995 0.0
C1476 C 0.22921 0.5355 0.49217 0.0
C1477 C 0.23497 0.54961 0.53824 0.0
C1478 C 0.23595 0.57965 0.53106 0.0
C1479 C 0.21483 0.54209 0.57654 0.0
C1480 C 0.26183 0.5385 0.54944 0.0
C1481 C 0.26957 0.51997 0.51628 0.0
C1482 C 0.29431 0.50796 0.51871 0.0
C1483 C 0.31162 0.51545 0.55536 0.0
C1484 C 0.30426 0.5352 0.58811 0.0
C1485 C 0.27895 0.54646 0.58541 0.0
H1486 H 0.96245 0.31867 0.0161 0.0
H1487 H 0.00504 0.27858 0.1282 0.0
H1488 H 0.01742 0.24345 0.07163 0.0
H1489 H 0.93322 0.26466 0.97172 0.0
H1490 H 0.93417 0.27452 0.91034 0.0
H1491 H 0.93416 0.29905 0.95605 0.0
H1492 H 0.9772 0.31874 0.92201 0.0
H1493 H 0.97725 0.29412 0.87598 0.0
H1494 H 0.00556 0.29787 0.91389 0.0
H1495 H 0.01773 0.20861 0.00657 0.0
H1496 H 0.00519 0.1783 0.94125 0.0
H1497 H 0.96214 0.24135 0.87337 0.0
C1498 C 0.97518 0.30301 0.02853 0.0
C1499 C 0.98287 0.30152 0.07666 0.0
C1500 C 0.99915 0.28039 0.09143 0.0
C1501 C 0.00627 0.2603 0.05947 0.0
C1502 C 0.99723 0.26178 0.01273 0.0
C1503 C 0.98224 0.28284 0.9973 0.0
C1504 C 0.97192 0.27843 0.94759 0.0
C1505 C 0.94159 0.27919 0.94642 0.0
C1506 C 0.9837 0.29848 0.91281 0.0
C1507 C 0.98234 0.25106 0.93811 0.0
C1508 C 0.9974 0.24186 0.97551 0.0
C1509 C 0.00664 0.21591 0.97655 0.0
C1510 C 0.99962 0.19884 0.93925 0.0
C1511 C 0.9834 0.20784 0.9019 0.0
C1512 C 0.97535 0.23438 0.90083 0.0
H1513 H 0.26468 0.96117 0.37764 0.0
H1514 H 0.32856 1.00281 0.44543 0.0
H1515 H 0.29916 0.01388 0.51302 0.0
H1516 H 0.20892 1.00388 0.42252 0.0
H1517 H 0.18809 0.97547 0.4295 0.0
H1518 H 0.21238 0.97621 0.38296 0.0
H1519 H 0.23221 0.9326 0.41427 0.0
H1520 H 0.20814 0.9317 0.46073 0.0
H1521 H 0.24267 0.93045 0.47522 0.0
H1522 H 0.26486 0.01247 0.57962 0.0
H1523 H 0.2298 0.99977 0.63614 0.0
H1524 H 0.18857 0.95978 0.52245 0.0
C1525 C 0.27206 0.97366 0.40578 0.0
C1526 C 0.29858 0.9817 0.40612 0.0
C1527 C 0.30803 0.99718 0.44409 0.0
C1528 C 0.29148 1.00339 0.48265 0.0
C1529 C 0.26554 0.9942 0.48216 0.0
C1530 C 0.25583 0.98002 0.4441 0.0
C1531 C 0.22854 0.96958 0.45394 0.0
C1532 C 0.20828 0.98204 0.42023 0.0
C1533 C 0.22788 0.9393 0.4509 0.0
C1534 C 0.22468 0.97904 0.50429 0.0
C1535 C 0.24599 0.99349 0.52002 0.0
C1536 C 0.24782 1.00175 0.5672 0.0
C1537 C 0.22776 0.99449 0.59912 0.0
C1538 C 0.20628 0.97889 0.58382 0.0
C1539 C 0.2045 0.97196 0.53536 0.0
H1540 H 0.46498 0.74284 0.11969 0.0
H1541 H 0.50483 0.68034 0.04435 0.0
H1542 H 0.51615 0.71161 0.97988 0.0
H1543 H 0.43366 0.76895 0.02832 0.0
H1544 H 0.43637 0.80305 0.04515 0.0
H1545 H 0.43778 0.77791 0.08972 0.0
H1546 H 0.48429 0.7948 0.11805 0.0
H1547 H 0.48072 0.82085 0.07498 0.0
H1548 H 0.50946 0.80003 0.07438 0.0
H1549 H 0.5153 0.74751 0.91764 0.0
H1550 H 0.50224 0.7835 0.86384 0.0
H1551 H 0.46203 0.82235 0.98014 0.0
C1552 C 0.47726 0.73618 0.09067 0.0
C1553 C 0.48471 0.70951 0.08726 0.0
C1554 C 0.49974 0.70094 0.04808 0.0
C1555 C 0.50611 0.71857 0.01131 0.0
C1556 C 0.4975 0.74467 0.01476 0.0
C1557 C 0.48376 0.75351 0.054 0.0
C1558 C 0.47373 0.78131 0.04686 0.0
C1559 C 0.44362 0.78287 0.05284 0.0
C1560 C 0.48786 0.8004 0.08056 0.0
C1561 C 0.482 0.78604 0.99605 0.0
C1562 C 0.49647 0.76509 0.97859 0.0
C1563 C 0.5045 0.76422 0.93133 0.0
C1564 C 0.49699 0.78485 0.90098 0.0
C1565 C 0.48112 0.80589 0.91768 0.0
C1566 C 0.47435 0.80675 0.96628 0.0
H1567 H 0.77014 0.45561 0.61191 0.0
H1568 H 0.83065 0.50511 0.55155 0.0
H1569 H 0.80006 0.51789 0.48659 0.0
H1570 H 0.74786 0.42884 0.51196 0.0
H1571 H 0.71346 0.42829 0.52746 0.0
H1572 H 0.73789 0.42805 0.57332 0.0
H1573 H 0.71742 0.47058 0.61104 0.0
H1574 H 0.69234 0.4692 0.56582 0.0
H1575 H 0.71147 0.49871 0.57386 0.0
H1576 H 0.76499 0.51851 0.42092 0.0
H1577 H 0.73047 0.50628 0.36259 0.0
H1578 H 0.69357 0.45675 0.46809 0.0
C1579 C 0.7766 0.46987 0.58584 0.0
C1580 C 0.80256 0.47957 0.58663 0.0
C1581 C 0.81064 0.49784 0.55178 0.0
C1582 C 0.79337 0.50515 0.51485 0.0
C1583 C 0.76802 0.49444 0.51415 0.0
C1584 C 0.75959 0.47753 0.54946 0.0
C1585 C 0.73264 0.46647 0.5388 0.0
C1586 C 0.73302 0.43614 0.53779 0.0
C1587 C 0.71225 0.47684 0.57448 0.0
C1588 C 0.72799 0.47803 0.49013 0.0
C1589 C 0.7481 0.4948 0.47687 0.0
C1590 C 0.74887 0.50593 0.4315 0.0
C1591 C 0.72912 0.49905 0.39863 0.0
C1592 C 0.70927 0.48087 0.41122 0.0
C1593 C 0.70833 0.47104 0.45795 0.0
H1594 H 0.05926 0.68643 0.97256 0.0
H1595 H 0.00707 0.72204 0.86894 0.0
H1596 H 0.99519 0.75641 0.92745 0.0
H1597 H 0.02139 0.70411 0.08202 0.0
H1598 H 0.05139 0.71059 0.11397 0.0
H1599 H 0.05083 0.6858 0.06831 0.0
H1600 H 0.08956 0.70902 0.02606 0.0
H1601 H 0.09014 0.7339 0.07122 0.0
H1602 H 0.08645 0.74322 0.00988 0.0
H1603 H 0.99422 0.79068 0.9942 0.0
H1604 H 0.0058 0.82142 0.05956 0.0
H1605 H 0.06077 0.76403 0.11509 0.0
C1606 C 0.04465 0.70091 0.96241 0.0
C1607 C 0.03401 0.70138 0.91606 0.0
C1608 C 0.01529 0.72103 0.90433 0.0
C1609 C 0.00844 0.74067 0.9374 0.0
C1610 C 0.02037 0.7403 0.98206 0.0
C1611 C 0.03799 0.72072 0.99452 0.0
C1612 C 0.05089 0.7263 0.0418 0.0
C1613 C 0.04314 0.70545 0.0787 0.0
C1614 C 0.08102 0.72824 0.03689 0.0
C1615 C 0.03871 0.75268 0.05324 0.0
C1616 C 0.0206 0.76023 0.01922 0.0
C1617 C 0.00805 0.78472 0.02134 0.0
C1618 C 0.01465 0.80203 0.05852 0.0
C1619 C 0.03402 0.7949 0.09215 0.0
C1620 C 0.04572 0.76977 0.08988 0.0
H1621 H 0.76429 0.04562 0.37363 0.0
H1622 H 0.82884 0.00494 0.44168 0.0
H1623 H 0.7992 0.99202 0.5077 0.0
H1624 H 0.73975 0.07433 0.47043 0.0
H1625 H 0.70548 0.07176 0.45463 0.0
H1626 H 0.73007 0.0721 0.40906 0.0
H1627 H 0.71245 0.0273 0.37675 0.0
H1628 H 0.68759 0.02773 0.42237 0.0
H1629 H 0.7093 0.99982 0.41666 0.0
H1630 H 0.76479 0.99193 0.57324 0.0
H1631 H 0.72968 1.00402 0.63004 0.0
H1632 H 0.68746 0.04361 0.51692 0.0
C1633 C 0.77177 0.03291 0.40141 0.0
C1634 C 0.79853 0.02571 0.40241 0.0
C1635 C 0.80814 0.00996 0.4399 0.0
C1636 C 0.79145 1.00266 0.47752 0.0
C1637 C 0.7652 0.01097 0.47646 0.0
C1638 C 0.75535 0.02537 0.43873 0.0
C1639 C 0.72759 0.03476 0.44817 0.0
C1640 C 0.72564 0.06501 0.44544 0.0
C1641 C 0.70807 0.02162 0.41396 0.0
C1642 C 0.72384 0.02488 0.49831 0.0
C1643 C 0.74545 0.01075 0.5139 0.0
C1644 C 0.7475 1.00234 0.56095 0.0
C1645 C 0.7274 0.00924 0.59303 0.0
C1646 C 0.70571 0.02466 0.57798 0.0
C1647 C 0.7036 0.03156 0.52955 0.0
loop_
_geom_bond_atom_site_label_1
_geom_bond_atom_site_label_2
_geom_bond_distance
_geom_bond_site_symmetry_2
_ccdc_geom_bond_type
Fe0 O2 1.918 . S
Fe0 O5 1.997 . S
Fe0 O6 2.002 . S
Fe0 O11 1.976 . S
Fe0 O14 1.996 . S
Fe1 O2 1.918 . S
Fe1 O9 1.997 . S
Fe1 O12 1.996 . S
Fe1 O16 1.976 . S
Fe1 O19 2.002 . S
O2 Fe0 1.918 . S
O2 Fe1 1.918 . S
O2 Fe3 1.918 . S
Fe3 O2 1.918 . S
Fe3 O4 2.002 . S
Fe3 O13 1.976 . S
Fe3 O17 1.996 . S
Fe3 O20 1.997 . S
O4 Fe3 2.002 . S
O4 C21 1.295 . S
O5 Fe0 1.997 . S
O5 C21 1.235 . S
O6 Fe0 2.002 . S
O6 C7 1.295 . S
C7 O6 1.295 . S
C7 O9 1.235 . S
C8 O13 1.287 . S
C8 O14 1.255 . S
O9 Fe1 1.997 . S
O9 C7 1.235 . S
C10 O16 1.287 . S
C10 O17 1.255 . S
O11 Fe0 1.976 . S
O11 C18 1.287 . S
O12 Fe1 1.996 . S
O12 C18 1.255 . S
O13 Fe3 1.976 . S
O13 C8 1.287 . S
O14 Fe0 1.996 . S
O14 C8 1.255 . S
C15 O19 1.295 . S
C15 O20 1.235 . S
O16 Fe1 1.976 . S
O16 C10 1.287 . S
O17 Fe3 1.996 . S
O17 C10 1.255 . S
C18 O11 1.287 . S
C18 O12 1.255 . S
O19 Fe1 2.002 . S
O19 C15 1.295 . S
O20 Fe3 1.997 . S
O20 C15 1.235 . S
C21 O4 1.295 . S
C21 O5 1.235 . S
Fe22 O24 1.918 . S
Fe22 O27 1.997 . S
Fe22 O28 2.002 . S
Fe22 O33 1.976 . S
Fe22 O36 1.996 . S
Fe23 O24 1.918 . S
Fe23 O31 1.997 . S
Fe23 O34 1.996 . S
Fe23 O38 1.976 . S
Fe23 O41 2.002 . S
O24 Fe22 1.918 . S
O24 Fe23 1.918 . S
O24 Fe25 1.918 . S
Fe25 O24 1.918 . S
Fe25 O26 2.002 . S
Fe25 O35 1.976 . S
Fe25 O39 1.996 . S
Fe25 O42 1.997 . S
O26 Fe25 2.002 . S
O26 C43 1.295 . S
O27 Fe22 1.997 . S
O27 C43 1.235 . S
O28 Fe22 2.002 . S
O28 C29 1.295 . S
C29 O28 1.295 . S
C29 O31 1.235 . S
C30 O35 1.287 . S
C30 O36 1.255 . S
O31 Fe23 1.997 . S
O31 C29 1.235 . S
C32 O38 1.287 . S
C32 O39 1.255 . S
O33 Fe22 1.976 . S
O33 C40 1.287 . S
O34 Fe23 1.996 . S
O34 C40 1.255 . S
O35 Fe25 1.976 . S
O35 C30 1.287 . S
O36 Fe22 1.996 . S
O36 C30 1.255 . S
C37 O41 1.295 . S
C37 O42 1.235 . S
O38 Fe23 1.976 . S
O38 C32 1.287 . S
O39 Fe25 1.996 . S
O39 C32 1.255 . S
C40 O33 1.287 . S
C40 O34 1.255 . S
O41 Fe23 2.002 . S
O41 C37 1.295 . S
O42 Fe25 1.997 . S
O42 C37 1.235 . S
C43 O26 1.295 . S
C43 O27 1.235 . S
Fe44 O46 1.918 . S
Fe44 O49 1.997 . S
Fe44 O50 2.002 . S
Fe44 O55 1.976 . S
Fe44 O58 1.996 . S
Fe45 O46 1.918 . S
Fe45 O53 1.997 . S
Fe45 O56 1.996 . S
Fe45 O60 1.976 . S
Fe45 O63 2.002 . S
O46 Fe44 1.918 . S
O46 Fe45 1.918 . S
O46 Fe47 1.918 . S
Fe47 O46 1.918 . S
Fe47 O48 2.002 . S
Fe47 O57 1.976 . S
Fe47 O61 1.996 . S
Fe47 O64 1.997 . S
O48 Fe47 2.002 . S
O48 C65 1.295 . S
O49 Fe44 1.997 . S
O49 C65 1.235 . S
O50 Fe44 2.002 . S
O50 C51 1.295 . S
C51 O50 1.295 . S
C51 O53 1.235 . S
C52 O57 1.287 . S
C52 O58 1.255 . S
O53 Fe45 1.997 . S
O53 C51 1.235 . S
C54 O60 1.287 . S
C54 O61 1.255 . S
O55 Fe44 1.976 . S
O55 C62 1.287 . S
O56 Fe45 1.996 . S
O56 C62 1.255 . S
O57 Fe47 1.976 . S
O57 C52 1.287 . S
O58 Fe44 1.996 . S
O58 C52 1.255 . S
C59 O63 1.295 . S
C59 O64 1.235 . S
O60 Fe45 1.976 . S
O60 C54 1.287 . S
O61 Fe47 1.996 . S
O61 C54 1.255 . S
C62 O55 1.287 . S
C62 O56 1.255 . S
O63 Fe45 2.002 . S
O63 C59 1.295 . S
O64 Fe47 1.997 . S
O64 C59 1.235 . S
C65 O48 1.295 . S
C65 O49 1.235 . S
Fe66 O68 1.918 . S
Fe66 O71 1.997 . S
Fe66 O72 2.002 . S
Fe66 O77 1.976 . S
Fe66 O80 1.996 . S
Fe67 O68 1.918 . S
Fe67 O75 1.997 . S
Fe67 O78 1.996 . S
Fe67 O82 1.976 . S
Fe67 O85 2.002 . S
O68 Fe66 1.918 . S
O68 Fe67 1.918 . S
O68 Fe69 1.918 . S
Fe69 O68 1.918 . S
Fe69 O70 2.002 . S
Fe69 O79 1.976 . S
Fe69 O83 1.996 . S
Fe69 O86 1.997 . S
O70 Fe69 2.002 . S
O70 C87 1.295 . S
O71 Fe66 1.997 . S
O71 C87 1.235 . S
O72 Fe66 2.002 . S
O72 C73 1.295 . S
C73 O72 1.295 . S
C73 O75 1.235 . S
C74 O79 1.287 . S
C74 O80 1.255 . S
O75 Fe67 1.997 . S
O75 C73 1.235 . S
C76 O82 1.287 . S
C76 O83 1.255 . S
O77 Fe66 1.976 . S
O77 C84 1.287 . S
O78 Fe67 1.996 . S
O78 C84 1.255 . S
O79 Fe69 1.976 . S
O79 C74 1.287 . S
O80 Fe66 1.996 . S
O80 C74 1.255 . S
C81 O85 1.295 . S
C81 O86 1.235 . S
O82 Fe67 1.976 . S
O82 C76 1.287 . S
O83 Fe69 1.996 . S
O83 C76 1.255 . S
C84 O77 1.287 . S
C84 O78 1.255 . S
O85 Fe67 2.002 . S
O85 C81 1.295 . S
O86 Fe69 1.997 . S
O86 C81 1.235 . S
C87 O70 1.295 . S
C87 O71 1.235 . S
Fe88 O90 1.918 . S
Fe88 O93 1.997 . S
Fe88 O94 2.002 . S
Fe88 O99 1.976 . S
Fe88 O102 1.996 . S
Fe89 O90 1.918 . S
Fe89 O97 1.997 . S
Fe89 O100 1.996 . S
Fe89 O104 1.976 . S
Fe89 O107 2.002 . S
O90 Fe88 1.918 . S
O90 Fe89 1.918 . S
O90 Fe91 1.918 . S
Fe91 O90 1.918 . S
Fe91 O92 2.002 . S
Fe91 O101 1.976 . S
Fe91 O105 1.996 . S
Fe91 O108 1.997 . S
O92 Fe91 2.002 . S
O92 C109 1.295 . S
O93 Fe88 1.997 . S
O93 C109 1.235 . S
O94 Fe88 2.002 . S
O94 C95 1.295 . S
C95 O94 1.295 . S
C95 O97 1.235 . S
C96 O101 1.287 . S
C96 O102 1.255 . S
O97 Fe89 1.997 . S
O97 C95 1.235 . S
C98 O104 1.287 . S
C98 O105 1.255 . S
O99 Fe88 1.976 . S
O99 C106 1.287 . S
O100 Fe89 1.996 . S
O100 C106 1.255 . S
O101 Fe91 1.976 . S
O101 C96 1.287 . S
O102 Fe88 1.996 . S
O102 C96 1.255 . S
C103 O107 1.295 . S
C103 O108 1.235 . S
O104 Fe89 1.976 . S
O104 C98 1.287 . S
O105 Fe91 1.996 . S
O105 C98 1.255 . S
C106 O99 1.287 . S
C106 O100 1.255 . S
O107 Fe89 2.002 . S
O107 C103 1.295 . S
O108 Fe91 1.997 . S
O108 C103 1.235 . S
C109 O92 1.295 . S
C109 O93 1.235 . S
Fe110 O112 1.918 . S
Fe110 O115 1.997 . S
Fe110 O116 2.002 . S
Fe110 O121 1.976 . S
Fe110 O124 1.996 . S
Fe111 O112 1.918 . S
Fe111 O119 1.997 . S
Fe111 O122 1.996 . S
Fe111 O126 1.976 . S
Fe111 O129 2.002 . S
O112 Fe110 1.918 . S
O112 Fe111 1.918 . S
O112 Fe113 1.918 . S
Fe113 O112 1.918 . S
Fe113 O114 2.002 . S
Fe113 O123 1.976 . S
Fe113 O127 1.996 . S
Fe113 O130 1.997 . S
O114 Fe113 2.002 . S
O114 C131 1.295 . S
O115 Fe110 1.997 . S
O115 C131 1.235 . S
O116 Fe110 2.002 . S
O116 C117 1.295 . S
C117 O116 1.295 . S
C117 O119 1.235 . S
C118 O123 1.287 . S
C118 O124 1.255 . S
O119 Fe111 1.997 . S
O119 C117 1.235 . S
C120 O126 1.287 . S
C120 O127 1.255 . S
O121 Fe110 1.976 . S
O121 C128 1.287 . S
O122 Fe111 1.996 . S
O122 C128 1.255 . S
O123 Fe113 1.976 . S
O123 C118 1.287 . S
O124 Fe110 1.996 . S
O124 C118 1.255 . S
C125 O129 1.295 . S
C125 O130 1.235 . S
O126 Fe111 1.976 . S
O126 C120 1.287 . S
O127 Fe113 1.996 . S
O127 C120 1.255 . S
C128 O121 1.287 . S
C128 O122 1.255 . S
O129 Fe111 2.002 . S
O129 C125 1.295 . S
O130 Fe113 1.997 . S
O130 C125 1.235 . S
C131 O114 1.295 . S
C131 O115 1.235 . S
Fe132 O134 1.918 . S
Fe132 O137 1.997 . S
Fe132 O138 2.002 . S
Fe132 O143 1.976 . S
Fe132 O146 1.996 . S
Fe133 O134 1.918 . S
Fe133 O141 1.997 . S
Fe133 O144 1.996 . S
Fe133 O148 1.976 . S
Fe133 O151 2.002 . S
O134 Fe132 1.918 . S
O134 Fe133 1.918 . S
O134 Fe135 1.918 . S
Fe135 O134 1.918 . S
Fe135 O136 2.002 . S
Fe135 O145 1.976 . S
Fe135 O149 1.996 . S
Fe135 O152 1.997 . S
O136 Fe135 2.002 . S
O136 C153 1.295 . S
O137 Fe132 1.997 . S
O137 C153 1.235 . S
O138 Fe132 2.002 . S
O138 C139 1.295 . S
C139 O138 1.295 . S
C139 O141 1.235 . S
C140 O145 1.287 . S
C140 O146 1.255 . S
O141 Fe133 1.997 . S
O141 C139 1.235 . S
C142 O148 1.287 . S
C142 O149 1.255 . S
O143 Fe132 1.976 . S
O143 C150 1.287 . S
O144 Fe133 1.996 . S
O144 C150 1.255 . S
O145 Fe135 1.976 . S
O145 C140 1.287 . S
O146 Fe132 1.996 . S
O146 C140 1.255 . S
C147 O151 1.295 . S
C147 O152 1.235 . S
O148 Fe133 1.976 . S
O148 C142 1.287 . S
O149 Fe135 1.996 . S
O149 C142 1.255 . S
C150 O143 1.287 . S
C150 O144 1.255 . S
O151 Fe133 2.002 . S
O151 C147 1.295 . S
O152 Fe135 1.997 . S
O152 C147 1.235 . S
C153 O136 1.295 . S
C153 O137 1.235 . S
Fe154 O156 1.918 . S
Fe154 O159 1.997 . S
Fe154 O160 2.002 . S
Fe154 O165 1.976 . S
Fe154 O168 1.996 . S
Fe155 O156 1.918 . S
Fe155 O163 1.997 . S
Fe155 O166 1.996 . S
Fe155 O170 1.976 . S
Fe155 O173 2.002 . S
O156 Fe154 1.918 . S
O156 Fe155 1.918 . S
O156 Fe157 1.918 . S
Fe157 O156 1.918 . S
Fe157 O158 2.002 . S
Fe157 O167 1.976 . S
Fe157 O171 1.996 . S
Fe157 O174 1.997 . S
O158 Fe157 2.002 . S
O158 C175 1.295 . S
O159 Fe154 1.997 . S
O159 C175 1.235 . S
O160 Fe154 2.002 . S
O160 C161 1.295 . S
C161 O160 1.295 . S
C161 O163 1.235 . S
C162 O167 1.287 . S
C162 O168 1.255 . S
O163 Fe155 1.997 . S
O163 C161 1.235 . S
C164 O170 1.287 . S
C164 O171 1.255 . S
O165 Fe154 1.976 . S
O165 C172 1.287 . S
O166 Fe155 1.996 . S
O166 C172 1.255 . S
O167 Fe157 1.976 . S
O167 C162 1.287 . S
O168 Fe154 1.996 . S
O168 C162 1.255 . S
C169 O173 1.295 . S
C169 O174 1.235 . S
O170 Fe155 1.976 . S
O170 C164 1.287 . S
O171 Fe157 1.996 . S
O171 C164 1.255 . S
C172 O165 1.287 . S
C172 O166 1.255 . S
O173 Fe155 2.002 . S
O173 C169 1.295 . S
O174 Fe157 1.997 . S
O174 C169 1.235 . S
C175 O158 1.295 . S
C175 O159 1.235 . S
Fe176 O178 1.918 . S
Fe176 O181 1.997 . S
Fe176 O182 2.002 . S
Fe176 O187 1.976 . S
Fe176 O190 1.996 . S
Fe177 O178 1.918 . S
Fe177 O185 1.997 . S
Fe177 O188 1.996 . S
Fe177 O192 1.976 . S
Fe177 O195 2.002 . S
O178 Fe176 1.918 . S
O178 Fe177 1.918 . S
O178 Fe179 1.918 . S
Fe179 O178 1.918 . S
Fe179 O180 2.002 . S
Fe179 O189 1.976 . S
Fe179 O193 1.996 . S
Fe179 O196 1.997 . S
O180 Fe179 2.002 . S
O180 C197 1.295 . S
O181 Fe176 1.997 . S
O181 C197 1.235 . S
O182 Fe176 2.002 . S
O182 C183 1.295 . S
C183 O182 1.295 . S
C183 O185 1.235 . S
C184 O189 1.287 . S
C184 O190 1.255 . S
O185 Fe177 1.997 . S
O185 C183 1.235 . S
C186 O192 1.287 . S
C186 O193 1.255 . S
O187 Fe176 1.976 . S
O187 C194 1.287 . S
O188 Fe177 1.996 . S
O188 C194 1.255 . S
O189 Fe179 1.976 . S
O189 C184 1.287 . S
O190 Fe176 1.996 . S
O190 C184 1.255 . S
C191 O195 1.295 . S
C191 O196 1.235 . S
O192 Fe177 1.976 . S
O192 C186 1.287 . S
O193 Fe179 1.996 . S
O193 C186 1.255 . S
C194 O187 1.287 . S
C194 O188 1.255 . S
O195 Fe177 2.002 . S
O195 C191 1.295 . S
O196 Fe179 1.997 . S
O196 C191 1.235 . S
C197 O180 1.295 . S
C197 O181 1.235 . S
Fe198 O200 1.918 . S
Fe198 O203 1.997 . S
Fe198 O204 2.002 . S
Fe198 O209 1.976 . S
Fe198 O212 1.996 . S
Fe199 O200 1.918 . S
Fe199 O207 1.997 . S
Fe199 O210 1.996 . S
Fe199 O214 1.976 . S
Fe199 O217 2.002 . S
O200 Fe198 1.918 . S
O200 Fe199 1.918 . S
O200 Fe201 1.918 . S
Fe201 O200 1.918 . S
Fe201 O202 2.002 . S
Fe201 O211 1.976 . S
Fe201 O215 1.996 . S
Fe201 O218 1.997 . S
O202 Fe201 2.002 . S
O202 C219 1.295 . S
O203 Fe198 1.997 . S
O203 C219 1.235 . S
O204 Fe198 2.002 . S
O204 C205 1.295 . S
C205 O204 1.295 . S
C205 O207 1.235 . S
C206 O211 1.287 . S
C206 O212 1.255 . S
O207 Fe199 1.997 . S
O207 C205 1.235 . S
C208 O214 1.287 . S
C208 O215 1.255 . S
O209 Fe198 1.976 . S
O209 C216 1.287 . S
O210 Fe199 1.996 . S
O210 C216 1.255 . S
O211 Fe201 1.976 . S
O211 C206 1.287 . S
O212 Fe198 1.996 . S
O212 C206 1.255 . S
C213 O217 1.295 . S
C213 O218 1.235 . S
O214 Fe199 1.976 . S
O214 C208 1.287 . S
O215 Fe201 1.996 . S
O215 C208 1.255 . S
C216 O209 1.287 . S
C216 O210 1.255 . S
O217 Fe199 2.002 . S
O217 C213 1.295 . S
O218 Fe201 1.997 . S
O218 C213 1.235 . S
C219 O202 1.295 . S
C219 O203 1.235 . S
Fe220 O222 1.918 . S
Fe220 O225 1.997 . S
Fe220 O226 2.002 . S
Fe220 O231 1.976 . S
Fe220 O234 1.996 . S
Fe221 O222 1.918 . S
Fe221 O229 1.997 . S
Fe221 O232 1.996 . S
Fe221 O236 1.976 . S
Fe221 O239 2.002 . S
O222 Fe220 1.918 . S
O222 Fe221 1.918 . S
O222 Fe223 1.918 . S
Fe223 O222 1.918 . S
Fe223 O224 2.002 . S
Fe223 O233 1.976 . S
Fe223 O237 1.996 . S
Fe223 O240 1.997 . S
O224 Fe223 2.002 . S
O224 C241 1.295 . S
O225 Fe220 1.997 . S
O225 C241 1.235 . S
O226 Fe220 2.002 . S
O226 C227 1.295 . S
C227 O226 1.295 . S
C227 O229 1.235 . S
C228 O233 1.287 . S
C228 O234 1.255 . S
O229 Fe221 1.997 . S
O229 C227 1.235 . S
C230 O236 1.287 . S
C230 O237 1.255 . S
O231 Fe220 1.976 . S
O231 C238 1.287 . S
O232 Fe221 1.996 . S
O232 C238 1.255 . S
O233 Fe223 1.976 . S
O233 C228 1.287 . S
O234 Fe220 1.996 . S
O234 C228 1.255 . S
C235 O239 1.295 . S
C235 O240 1.235 . S
O236 Fe221 1.976 . S
O236 C230 1.287 . S
O237 Fe223 1.996 . S
O237 C230 1.255 . S
C238 O231 1.287 . S
C238 O232 1.255 . S
O239 Fe221 2.002 . S
O239 C235 1.295 . S
O240 Fe223 1.997 . S
O240 C235 1.235 . S
C241 O224 1.295 . S
C241 O225 1.235 . S
Fe242 O244 1.918 . S
Fe242 O247 1.997 . S
Fe242 O248 2.002 . S
Fe242 O253 1.976 . S
Fe242 O256 1.996 . S
Fe243 O244 1.918 . S
Fe243 O251 1.997 . S
Fe243 O254 1.996 . S
Fe243 O258 1.976 . S
Fe243 O261 2.002 . S
O244 Fe242 1.918 . S
O244 Fe243 1.918 . S
O244 Fe245 1.918 . S
Fe245 O244 1.918 . S
Fe245 O246 2.002 . S
Fe245 O255 1.976 . S
Fe245 O259 1.996 . S
Fe245 O262 1.997 . S
O246 Fe245 2.002 . S
O246 C263 1.295 . S
O247 Fe242 1.997 . S
O247 C263 1.235 . S
O248 Fe242 2.002 . S
O248 C249 1.295 . S
C249 O248 1.295 . S
C249 O251 1.235 . S
C250 O255 1.287 . S
C250 O256 1.255 . S
O251 Fe243 1.997 . S
O251 C249 1.235 . S
C252 O258 1.287 . S
C252 O259 1.255 . S
O253 Fe242 1.976 . S
O253 C260 1.287 . S
O254 Fe243 1.996 . S
O254 C260 1.255 . S
O255 Fe245 1.976 . S
O255 C250 1.287 . S
O256 Fe242 1.996 . S
O256 C250 1.255 . S
C257 O261 1.295 . S
C257 O262 1.235 . S
O258 Fe243 1.976 . S
O258 C252 1.287 . S
O259 Fe245 1.996 . S
O259 C252 1.255 . S
C260 O253 1.287 . S
C260 O254 1.255 . S
O261 Fe243 2.002 . S
O261 C257 1.295 . S
O262 Fe245 1.997 . S
O262 C257 1.235 . S
C263 O246 1.295 . S
C263 O247 1.235 . S
Fe264 O266 1.918 . S
Fe264 O269 1.997 . S
Fe264 O270 2.002 . S
Fe264 O275 1.976 . S
Fe264 O278 1.996 . S
Fe265 O266 1.918 . S
Fe265 O273 1.997 . S
Fe265 O276 1.996 . S
Fe265 O280 1.976 . S
Fe265 O283 2.002 . S
O266 Fe264 1.918 . S
O266 Fe265 1.918 . S
O266 Fe267 1.918 . S
Fe267 O266 1.918 . S
Fe267 O268 2.002 . S
Fe267 O277 1.976 . S
Fe267 O281 1.996 . S
Fe267 O284 1.997 . S
O268 Fe267 2.002 . S
O268 C285 1.295 . S
O269 Fe264 1.997 . S
O269 C285 1.235 . S
O270 Fe264 2.002 . S
O270 C271 1.295 . S
C271 O270 1.295 . S
C271 O273 1.235 . S
C272 O277 1.287 . S
C272 O278 1.255 . S
O273 Fe265 1.997 . S
O273 C271 1.235 . S
C274 O280 1.287 . S
C274 O281 1.255 . S
O275 Fe264 1.976 . S
O275 C282 1.287 . S
O276 Fe265 1.996 . S
O276 C282 1.255 . S
O277 Fe267 1.976 . S
O277 C272 1.287 . S
O278 Fe264 1.996 . S
O278 C272 1.255 . S
C279 O283 1.295 . S
C279 O284 1.235 . S
O280 Fe265 1.976 . S
O280 C274 1.287 . S
O281 Fe267 1.996 . S
O281 C274 1.255 . S
C282 O275 1.287 . S
C282 O276 1.255 . S
O283 Fe265 2.002 . S
O283 C279 1.295 . S
O284 Fe267 1.997 . S
O284 C279 1.235 . S
C285 O268 1.295 . S
C285 O269 1.235 . S
Fe286 O288 1.918 . S
Fe286 O291 1.997 . S
Fe286 O292 2.002 . S
Fe286 O297 1.976 . S
Fe286 O300 1.996 . S
Fe287 O288 1.918 . S
Fe287 O295 1.997 . S
Fe287 O298 1.996 . S
Fe287 O302 1.976 . S
Fe287 O305 2.002 . S
O288 Fe286 1.918 . S
O288 Fe287 1.918 . S
O288 Fe289 1.918 . S
Fe289 O288 1.918 . S
Fe289 O290 2.002 . S
Fe289 O299 1.976 . S
Fe289 O303 1.996 . S
Fe289 O306 1.997 . S
O290 Fe289 2.002 . S
O290 C307 1.295 . S
O291 Fe286 1.997 . S
O291 C307 1.235 . S
O292 Fe286 2.002 . S
O292 C293 1.295 . S
C293 O292 1.295 . S
C293 O295 1.235 . S
C294 O299 1.287 . S
C294 O300 1.255 . S
O295 Fe287 1.997 . S
O295 C293 1.235 . S
C296 O302 1.287 . S
C296 O303 1.255 . S
O297 Fe286 1.976 . S
O297 C304 1.287 . S
O298 Fe287 1.996 . S
O298 C304 1.255 . S
O299 Fe289 1.976 . S
O299 C294 1.287 . S
O300 Fe286 1.996 . S
O300 C294 1.255 . S
C301 O305 1.295 . S
C301 O306 1.235 . S
O302 Fe287 1.976 . S
O302 C296 1.287 . S
O303 Fe289 1.996 . S
O303 C296 1.255 . S
C304 O297 1.287 . S
C304 O298 1.255 . S
O305 Fe287 2.002 . S
O305 C301 1.295 . S
O306 Fe289 1.997 . S
O306 C301 1.235 . S
C307 O290 1.295 . S
C307 O291 1.235 . S
Fe308 O310 1.918 . S
Fe308 O313 1.997 . S
Fe308 O314 2.002 . S
Fe308 O319 1.976 . S
Fe308 O322 1.996 . S
Fe309 O310 1.918 . S
Fe309 O317 1.997 . S
Fe309 O320 1.996 . S
Fe309 O324 1.976 . S
Fe309 O327 2.002 . S
O310 Fe308 1.918 . S
O310 Fe309 1.918 . S
O310 Fe311 1.918 . S
Fe311 O310 1.918 . S
Fe311 O312 2.002 . S
Fe311 O321 1.976 . S
Fe311 O325 1.996 . S
Fe311 O328 1.997 . S
O312 Fe311 2.002 . S
O312 C329 1.295 . S
O313 Fe308 1.997 . S
O313 C329 1.235 . S
O314 Fe308 2.002 . S
O314 C315 1.295 . S
C315 O314 1.295 . S
C315 O317 1.235 . S
C316 O321 1.287 . S
C316 O322 1.255 . S
O317 Fe309 1.997 . S
O317 C315 1.235 . S
C318 O324 1.287 . S
C318 O325 1.255 . S
O319 Fe308 1.976 . S
O319 C326 1.287 . S
O320 Fe309 1.996 . S
O320 C326 1.255 . S
O321 Fe311 1.976 . S
O321 C316 1.287 . S
O322 Fe308 1.996 . S
O322 C316 1.255 . S
C323 O327 1.295 . S
C323 O328 1.235 . S
O324 Fe309 1.976 . S
O324 C318 1.287 . S
O325 Fe311 1.996 . S
O325 C318 1.255 . S
C326 O319 1.287 . S
C326 O320 1.255 . S
O327 Fe309 2.002 . S
O327 C323 1.295 . S
O328 Fe311 1.997 . S
O328 C323 1.235 . S
C329 O312 1.295 . S
C329 O313 1.235 . S
Fe330 O332 1.918 . S
Fe330 O335 1.997 . S
Fe330 O336 2.002 . S
Fe330 O341 1.976 . S
Fe330 O344 1.996 . S
Fe331 O332 1.918 . S
Fe331 O339 1.997 . S
Fe331 O342 1.996 . S
Fe331 O346 1.976 . S
Fe331 O349 2.002 . S
O332 Fe330 1.918 . S
O332 Fe331 1.918 . S
O332 Fe333 1.918 . S
Fe333 O332 1.918 . S
Fe333 O334 2.002 . S
Fe333 O343 1.976 . S
Fe333 O347 1.996 . S
Fe333 O350 1.997 . S
O334 Fe333 2.002 . S
O334 C351 1.295 . S
O335 Fe330 1.997 . S
O335 C351 1.235 . S
O336 Fe330 2.002 . S
O336 C337 1.295 . S
C337 O336 1.295 . S
C337 O339 1.235 . S
C338 O343 1.287 . S
C338 O344 1.255 . S
O339 Fe331 1.997 . S
O339 C337 1.235 . S
C340 O346 1.287 . S
C340 O347 1.255 . S
O341 Fe330 1.976 . S
O341 C348 1.287 . S
O342 Fe331 1.996 . S
O342 C348 1.255 . S
O343 Fe333 1.976 . S
O343 C338 1.287 . S
O344 Fe330 1.996 . S
O344 C338 1.255 . S
C345 O349 1.295 . S
C345 O350 1.235 . S
O346 Fe331 1.976 . S
O346 C340 1.287 . S
O347 Fe333 1.996 . S
O347 C340 1.255 . S
C348 O341 1.287 . S
C348 O342 1.255 . S
O349 Fe331 2.002 . S
O349 C345 1.295 . S
O350 Fe333 1.997 . S
O350 C345 1.235 . S
C351 O334 1.295 . S
C351 O335 1.235 . S
H352 C364 0.930 . S
H353 C366 0.930 . S
H354 C367 0.930 . S
H355 C371 0.959 . S
H356 C371 0.959 . S
H357 C371 0.961 . S
H358 C372 0.960 . S
H359 C372 0.961 . S
H360 C372 0.959 . S
H361 C375 0.929 . S
H362 C376 0.931 . S
H363 C378 0.930 . S
C364 H352 0.930 . S
C364 C365 1.399 . S
C364 C369 1.399 . S
C365 C364 1.399 . S
C365 C366 1.376 . S
C366 H353 0.930 . S
C366 C365 1.376 . S
C366 C367 1.388 . S
C367 H354 0.930 . S
C367 C366 1.388 . S
C367 C368 1.390 . S
C368 C367 1.390 . S
C368 C369 1.394 . S
C368 C374 1.465 . S
C369 C364 1.399 . S
C369 C368 1.394 . S
C369 C370 1.516 . S
C370 C369 1.516 . S
C370 C371 1.502 . S
C370 C372 1.561 . S
C370 C373 1.526 . S
C371 H355 0.959 . S
C371 H356 0.959 . S
C371 H357 0.961 . S
C371 C370 1.502 . S
C372 H358 0.960 . S
C372 H359 0.961 . S
C372 H360 0.959 . S
C372 C370 1.561 . S
C373 C370 1.526 . S
C373 C374 1.396 . S
C373 C378 1.390 . S
C374 C368 1.465 . S
C374 C373 1.396 . S
C374 C375 1.399 . S
C375 H361 0.929 . S
C375 C374 1.399 . S
C375 C376 1.385 . S
C376 H362 0.931 . S
C376 C375 1.385 . S
C376 C377 1.389 . S
C377 C376 1.389 . S
C377 C378 1.387 . S
C378 H363 0.930 . S
C378 C373 1.390 . S
C378 C377 1.387 . S
H379 C391 0.930 . S
H380 C393 0.930 . S
H381 C394 0.930 . S
H382 C398 0.959 . S
H383 C398 0.959 . S
H384 C398 0.961 . S
H385 C399 0.960 . S
H386 C399 0.961 . S
H387 C399 0.959 . S
H388 C402 0.929 . S
H389 C403 0.931 . S
H390 C405 0.930 . S
C391 H379 0.930 . S
C391 C392 1.399 . S
C391 C396 1.399 . S
C392 C391 1.399 . S
C392 C393 1.376 . S
C393 H380 0.930 . S
C393 C392 1.376 . S
C393 C394 1.388 . S
C394 H381 0.930 . S
C394 C393 1.388 . S
C394 C395 1.390 . S
C395 C394 1.390 . S
C395 C396 1.394 . S
C395 C401 1.465 . S
C396 C391 1.399 . S
C396 C395 1.394 . S
C396 C397 1.516 . S
C397 C396 1.516 . S
C397 C398 1.502 . S
C397 C399 1.561 . S
C397 C400 1.526 . S
C398 H382 0.959 . S
C398 H383 0.959 . S
C398 H384 0.961 . S
C398 C397 1.502 . S
C399 H385 0.960 . S
C399 H386 0.961 . S
C399 H387 0.959 . S
C399 C397 1.561 . S
C400 C397 1.526 . S
C400 C401 1.396 . S
C400 C405 1.390 . S
C401 C395 1.465 . S
C401 C400 1.396 . S
C401 C402 1.399 . S
C402 H388 0.929 . S
C402 C401 1.399 . S
C402 C403 1.385 . S
C403 H389 0.931 . S
C403 C402 1.385 . S
C403 C404 1.389 . S
C404 C403 1.389 . S
C404 C405 1.387 . S
C405 H390 0.930 . S
C405 C400 1.390 . S
C405 C404 1.387 . S
H406 C418 0.930 . S
H407 C420 0.930 . S
H408 C421 0.930 . S
H409 C425 0.959 . S
H410 C425 0.959 . S
H411 C425 0.961 . S
H412 C426 0.960 . S
H413 C426 0.961 . S
H414 C426 0.959 . S
H415 C429 0.929 . S
H416 C430 0.931 . S
H417 C432 0.930 . S
C418 H406 0.930 . S
C418 C419 1.399 . S
C418 C423 1.399 . S
C419 C418 1.399 . S
C419 C420 1.376 . S
C420 H407 0.930 . S
C420 C419 1.376 . S
C420 C421 1.388 . S
C421 H408 0.930 . S
C421 C420 1.388 . S
C421 C422 1.390 . S
C422 C421 1.390 . S
C422 C423 1.394 . S
C422 C428 1.465 . S
C423 C418 1.399 . S
C423 C422 1.394 . S
C423 C424 1.516 . S
C424 C423 1.516 . S
C424 C425 1.502 . S
C424 C426 1.561 . S
C424 C427 1.526 . S
C425 H409 0.959 . S
C425 H410 0.959 . S
C425 H411 0.961 . S
C425 C424 1.502 . S
C426 H412 0.960 . S
C426 H413 0.961 . S
C426 H414 0.959 . S
C426 C424 1.561 . S
C427 C424 1.526 . S
C427 C428 1.396 . S
C427 C432 1.390 . S
C428 C422 1.465 . S
C428 C427 1.396 . S
C428 C429 1.399 . S
C429 H415 0.929 . S
C429 C428 1.399 . S
C429 C430 1.385 . S
C430 H416 0.931 . S
C430 C429 1.385 . S
C430 C431 1.389 . S
C431 C430 1.389 . S
C431 C432 1.387 . S
C432 H417 0.930 . S
C432 C427 1.390 . S
C432 C431 1.387 . S
H433 C445 0.930 . S
H434 C447 0.930 . S
H435 C448 0.930 . S
H436 C452 0.959 . S
H437 C452 0.959 . S
H438 C452 0.961 . S
H439 C453 0.960 . S
H440 C453 0.961 . S
H441 C453 0.959 . S
H442 C456 0.929 . S
H443 C457 0.931 . S
H444 C459 0.930 . S
C445 H433 0.930 . S
C445 C446 1.399 . S
C445 C450 1.399 . S
C446 C445 1.399 . S
C446 C447 1.376 . S
C447 H434 0.930 . S
C447 C446 1.376 . S
C447 C448 1.388 . S
C448 H435 0.930 . S
C448 C447 1.388 . S
C448 C449 1.390 . S
C449 C448 1.390 . S
C449 C450 1.394 . S
C449 C455 1.465 . S
C450 C445 1.399 . S
C450 C449 1.394 . S
C450 C451 1.516 . S
C451 C450 1.516 . S
C451 C452 1.502 . S
C451 C453 1.561 . S
C451 C454 1.526 . S
C452 H436 0.959 . S
C452 H437 0.959 . S
C452 H438 0.961 . S
C452 C451 1.502 . S
C453 H439 0.960 . S
C453 H440 0.961 . S
C453 H441 0.959 . S
C453 C451 1.561 . S
C454 C451 1.526 . S
C454 C455 1.396 . S
C454 C459 1.390 . S
C455 C449 1.465 . S
C455 C454 1.396 . S
C455 C456 1.399 . S
C456 H442 0.929 . S
C456 C455 1.399 . S
C456 C457 1.385 . S
C457 H443 0.931 . S
C457 C456 1.385 . S
C457 C458 1.389 . S
C458 C457 1.389 . S
C458 C459 1.387 . S
C459 H444 0.930 . S
C459 C454 1.390 . S
C459 C458 1.387 . S
H460 C472 0.930 . S
H461 C474 0.930 . S
H462 C475 0.930 . S
H463 C479 0.959 . S
H464 C479 0.959 . S
H465 C479 0.961 . S
H466 C480 0.960 . S
H467 C480 0.961 . S
H468 C480 0.959 . S
H469 C483 0.929 . S
H470 C484 0.931 . S
H471 C486 0.930 . S
C472 H460 0.930 . S
C472 C473 1.399 . S
C472 C477 1.399 . S
C473 C472 1.399 . S
C473 C474 1.376 . S
C474 H461 0.930 . S
C474 C473 1.376 . S
C474 C475 1.388 . S
C475 H462 0.930 . S
C475 C474 1.388 . S
C475 C476 1.390 . S
C476 C475 1.390 . S
C476 C477 1.394 . S
C476 C482 1.465 . S
C477 C472 1.399 . S
C477 C476 1.394 . S
C477 C478 1.516 . S
C478 C477 1.516 . S
C478 C479 1.502 . S
C478 C480 1.561 . S
C478 C481 1.526 . S
C479 H463 0.959 . S
C479 H464 0.959 . S
C479 H465 0.961 . S
C479 C478 1.502 . S
C480 H466 0.960 . S
C480 H467 0.961 . S
C480 H468 0.959 . S
C480 C478 1.561 . S
C481 C478 1.526 . S
C481 C482 1.396 . S
C481 C486 1.390 . S
C482 C476 1.465 . S
C482 C481 1.396 . S
C482 C483 1.399 . S
C483 H469 0.929 . S
C483 C482 1.399 . S
C483 C484 1.385 . S
C484 H470 0.931 . S
C484 C483 1.385 . S
C484 C485 1.389 . S
C485 C484 1.389 . S
C485 C486 1.387 . S
C486 H471 0.930 . S
C486 C481 1.390 . S
C486 C485 1.387 . S
H487 C499 0.930 . S
H488 C501 0.930 . S
H489 C502 0.930 . S
H490 C506 0.959 . S
H491 C506 0.959 . S
H492 C506 0.961 . S
H493 C507 0.960 . S
H494 C507 0.961 . S
H495 C507 0.959 . S
H496 C510 0.929 . S
H497 C511 0.931 . S
H498 C513 0.930 . S
C499 H487 0.930 . S
C499 C500 1.399 . S
C499 C504 1.399 . S
C500 C499 1.399 . S
C500 C501 1.376 . S
C501 H488 0.930 . S
C501 C500 1.376 . S
C501 C502 1.388 . S
C502 H489 0.930 . S
C502 C501 1.388 . S
C502 C503 1.390 . S
C503 C502 1.390 . S
C503 C504 1.394 . S
C503 C509 1.465 . S
C504 C499 1.399 . S
C504 C503 1.394 . S
C504 C505 1.516 . S
C505 C504 1.516 . S
C505 C506 1.502 . S
C505 C507 1.561 . S
C505 C508 1.526 . S
C506 H490 0.959 . S
C506 H491 0.959 . S
C506 H492 0.961 . S
C506 C505 1.502 . S
C507 H493 0.960 . S
C507 H494 0.961 . S
C507 H495 0.959 . S
C507 C505 1.561 . S
C508 C505 1.526 . S
C508 C509 1.396 . S
C508 C513 1.390 . S
C509 C503 1.465 . S
C509 C508 1.396 . S
C509 C510 1.399 . S
C510 H496 0.929 . S
C510 C509 1.399 . S
C510 C511 1.385 . S
C511 H497 0.931 . S
C511 C510 1.385 . S
C511 C512 1.389 . S
C512 C511 1.389 . S
C512 C513 1.387 . S
C513 H498 0.930 . S
C513 C508 1.390 . S
C513 C512 1.387 . S
H514 C526 0.930 . S
H515 C528 0.930 . S
H516 C529 0.930 . S
H517 C533 0.959 . S
H518 C533 0.959 . S
H519 C533 0.961 . S
H520 C534 0.960 . S
H521 C534 0.961 . S
H522 C534 0.959 . S
H523 C537 0.929 . S
H524 C538 0.931 . S
H525 C540 0.930 . S
C526 H514 0.930 . S
C526 C527 1.399 . S
C526 C531 1.399 . S
C527 C526 1.399 . S
C527 C528 1.376 . S
C528 H515 0.930 . S
C528 C527 1.376 . S
C528 C529 1.388 . S
C529 H516 0.930 . S
C529 C528 1.388 . S
C529 C530 1.390 . S
C530 C529 1.390 . S
C530 C531 1.394 . S
C530 C536 1.465 . S
C531 C526 1.399 . S
C531 C530 1.394 . S
C531 C532 1.516 . S
C532 C531 1.516 . S
C532 C533 1.502 . S
C532 C534 1.561 . S
C532 C535 1.526 . S
C533 H517 0.959 . S
C533 H518 0.959 . S
C533 H519 0.961 . S
C533 C532 1.502 . S
C534 H520 0.960 . S
C534 H521 0.961 . S
C534 H522 0.959 . S
C534 C532 1.561 . S
C535 C532 1.526 . S
C535 C536 1.396 . S
C535 C540 1.390 . S
C536 C530 1.465 . S
C536 C535 1.396 . S
C536 C537 1.399 . S
C537 H523 0.929 . S
C537 C536 1.399 . S
C537 C538 1.385 . S
C538 H524 0.931 . S
C538 C537 1.385 . S
C538 C539 1.389 . S
C539 C538 1.389 . S
C539 C540 1.387 . S
C540 H525 0.930 . S
C540 C535 1.390 . S
C540 C539 1.387 . S
H541 C553 0.930 . S
H542 C555 0.930 . S
H543 C556 0.930 . S
H544 C560 0.959 . S
H545 C560 0.959 . S
H546 C560 0.961 . S
H547 C561 0.960 . S
H548 C561 0.961 . S
H549 C561 0.959 . S
H550 C564 0.929 . S
H551 C565 0.931 . S
H552 C567 0.930 . S
C553 H541 0.930 . S
C553 C554 1.399 . S
C553 C558 1.399 . S
C554 C553 1.399 . S
C554 C555 1.376 . S
C555 H542 0.930 . S
C555 C554 1.376 . S
C555 C556 1.388 . S
C556 H543 0.930 . S
C556 C555 1.388 . S
C556 C557 1.390 . S
C557 C556 1.390 . S
C557 C558 1.394 . S
C557 C563 1.465 . S
C558 C553 1.399 . S
C558 C557 1.394 . S
C558 C559 1.516 . S
C559 C558 1.516 . S
C559 C560 1.502 . S
C559 C561 1.561 . S
C559 C562 1.526 . S
C560 H544 0.959 . S
C560 H545 0.959 . S
C560 H546 0.961 . S
C560 C559 1.502 . S
C561 H547 0.960 . S
C561 H548 0.961 . S
C561 H549 0.959 . S
C561 C559 1.561 . S
C562 C559 1.526 . S
C562 C563 1.396 . S
C562 C567 1.390 . S
C563 C557 1.465 . S
C563 C562 1.396 . S
C563 C564 1.399 . S
C564 H550 0.929 . S
C564 C563 1.399 . S
C564 C565 1.385 . S
C565 H551 0.931 . S
C565 C564 1.385 . S
C565 C566 1.389 . S
C566 C565 1.389 . S
C566 C567 1.387 . S
C567 H552 0.930 . S
C567 C562 1.390 . S
C567 C566 1.387 . S
H568 C580 0.930 . S
H569 C582 0.930 . S
H570 C583 0.930 . S
H571 C587 0.959 . S
H572 C587 0.959 . S
H573 C587 0.961 . S
H574 C588 0.960 . S
H575 C588 0.961 . S
H576 C588 0.959 . S
H577 C591 0.929 . S
H578 C592 0.931 . S
H579 C594 0.930 . S
C580 H568 0.930 . S
C580 C581 1.399 . S
C580 C585 1.399 . S
C581 C580 1.399 . S
C581 C582 1.376 . S
C582 H569 0.930 . S
C582 C581 1.376 . S
C582 C583 1.388 . S
C583 H570 0.930 . S
C583 C582 1.388 . S
C583 C584 1.390 . S
C584 C583 1.390 . S
C584 C585 1.394 . S
C584 C590 1.465 . S
C585 C580 1.399 . S
C585 C584 1.394 . S
C585 C586 1.516 . S
C586 C585 1.516 . S
C586 C587 1.502 . S
C586 C588 1.561 . S
C586 C589 1.526 . S
C587 H571 0.959 . S
C587 H572 0.959 . S
C587 H573 0.961 . S
C587 C586 1.502 . S
C588 H574 0.960 . S
C588 H575 0.961 . S
C588 H576 0.959 . S
C588 C586 1.561 . S
C589 C586 1.526 . S
C589 C590 1.396 . S
C589 C594 1.390 . S
C590 C584 1.465 . S
C590 C589 1.396 . S
C590 C591 1.399 . S
C591 H577 0.929 . S
C591 C590 1.399 . S
C591 C592 1.385 . S
C592 H578 0.931 . S
C592 C591 1.385 . S
C592 C593 1.389 . S
C593 C592 1.389 . S
C593 C594 1.387 . S
C594 H579 0.930 . S
C594 C589 1.390 . S
C594 C593 1.387 . S
H595 C607 0.930 . S
H596 C609 0.930 . S
H597 C610 0.930 . S
H598 C614 0.959 . S
H599 C614 0.959 . S
H600 C614 0.961 . S
H601 C615 0.960 . S
H602 C615 0.961 . S
H603 C615 0.959 . S
H604 C618 0.929 . S
H605 C619 0.931 . S
H606 C621 0.930 . S
C607 H595 0.930 . S
C607 C608 1.399 . S
C607 C612 1.399 . S
C608 C607 1.399 . S
C608 C609 1.376 . S
C609 H596 0.930 . S
C609 C608 1.376 . S
C609 C610 1.388 . S
C610 H597 0.930 . S
C610 C609 1.388 . S
C610 C611 1.390 . S
C611 C610 1.390 . S
C611 C612 1.394 . S
C611 C617 1.465 . S
C612 C607 1.399 . S
C612 C611 1.394 . S
C612 C613 1.516 . S
C613 C612 1.516 . S
C613 C614 1.502 . S
C613 C615 1.561 . S
C613 C616 1.526 . S
C614 H598 0.959 . S
C614 H599 0.959 . S
C614 H600 0.961 . S
C614 C613 1.502 . S
C615 H601 0.960 . S
C615 H602 0.961 . S
C615 H603 0.959 . S
C615 C613 1.561 . S
C616 C613 1.526 . S
C616 C617 1.396 . S
C616 C621 1.390 . S
C617 C611 1.465 . S
C617 C616 1.396 . S
C617 C618 1.399 . S
C618 H604 0.929 . S
C618 C617 1.399 . S
C618 C619 1.385 . S
C619 H605 0.931 . S
C619 C618 1.385 . S
C619 C620 1.389 . S
C620 C619 1.389 . S
C620 C621 1.387 . S
C621 H606 0.930 . S
C621 C616 1.390 . S
C621 C620 1.387 . S
H622 C634 0.930 . S
H623 C636 0.930 . S
H624 C637 0.930 . S
H625 C641 0.959 . S
H626 C641 0.959 . S
H627 C641 0.961 . S
H628 C642 0.960 . S
H629 C642 0.961 . S
H630 C642 0.959 . S
H631 C645 0.929 . S
H632 C646 0.931 . S
H633 C648 0.930 . S
C634 H622 0.930 . S
C634 C635 1.399 . S
C634 C639 1.399 . S
C635 C634 1.399 . S
C635 C636 1.376 . S
C636 H623 0.930 . S
C636 C635 1.376 . S
C636 C637 1.388 . S
C637 H624 0.930 . S
C637 C636 1.388 . S
C637 C638 1.390 . S
C638 C637 1.390 . S
C638 C639 1.394 . S
C638 C644 1.465 . S
C639 C634 1.399 . S
C639 C638 1.394 . S
C639 C640 1.516 . S
C640 C639 1.516 . S
C640 C641 1.502 . S
C640 C642 1.561 . S
C640 C643 1.526 . S
C641 H625 0.959 . S
C641 H626 0.959 . S
C641 H627 0.961 . S
C641 C640 1.502 . S
C642 H628 0.960 . S
C642 H629 0.961 . S
C642 H630 0.959 . S
C642 C640 1.561 . S
C643 C640 1.526 . S
C643 C644 1.396 . S
C643 C648 1.390 . S
C644 C638 1.465 . S
C644 C643 1.396 . S
C644 C645 1.399 . S
C645 H631 0.929 . S
C645 C644 1.399 . S
C645 C646 1.385 . S
C646 H632 0.931 . S
C646 C645 1.385 . S
C646 C647 1.389 . S
C647 C646 1.389 . S
C647 C648 1.387 . S
C648 H633 0.930 . S
C648 C643 1.390 . S
C648 C647 1.387 . S
H649 C661 0.930 . S
H650 C663 0.930 . S
H651 C664 0.930 . S
H652 C668 0.959 . S
H653 C668 0.959 . S
H654 C668 0.961 . S
H655 C669 0.960 . S
H656 C669 0.961 . S
H657 C669 0.959 . S
H658 C672 0.929 . S
H659 C673 0.931 . S
H660 C675 0.930 . S
C661 H649 0.930 . S
C661 C662 1.399 . S
C661 C666 1.399 . S
C662 C661 1.399 . S
C662 C663 1.376 . S
C663 H650 0.930 . S
C663 C662 1.376 . S
C663 C664 1.388 . S
C664 H651 0.930 . S
C664 C663 1.388 . S
C664 C665 1.390 . S
C665 C664 1.390 . S
C665 C666 1.394 . S
C665 C671 1.465 . S
C666 C661 1.399 . S
C666 C665 1.394 . S
C666 C667 1.516 . S
C667 C666 1.516 . S
C667 C668 1.502 . S
C667 C669 1.561 . S
C667 C670 1.526 . S
C668 H652 0.959 . S
C668 H653 0.959 . S
C668 H654 0.961 . S
C668 C667 1.502 . S
C669 H655 0.960 . S
C669 H656 0.961 . S
C669 H657 0.959 . S
C669 C667 1.561 . S
C670 C667 1.526 . S
C670 C671 1.396 . S
C670 C675 1.390 . S
C671 C665 1.465 . S
C671 C670 1.396 . S
C671 C672 1.399 . S
C672 H658 0.929 . S
C672 C671 1.399 . S
C672 C673 1.385 . S
C673 H659 0.931 . S
C673 C672 1.385 . S
C673 C674 1.389 . S
C674 C673 1.389 . S
C674 C675 1.387 . S
C675 H660 0.930 . S
C675 C670 1.390 . S
C675 C674 1.387 . S
H676 C688 0.930 . S
H677 C690 0.930 . S
H678 C691 0.930 . S
H679 C695 0.959 . S
H680 C695 0.959 . S
H681 C695 0.961 . S
H682 C696 0.960 . S
H683 C696 0.961 . S
H684 C696 0.959 . S
H685 C699 0.929 . S
H686 C700 0.931 . S
H687 C702 0.930 . S
C688 H676 0.930 . S
C688 C689 1.399 . S
C688 C693 1.399 . S
C689 C688 1.399 . S
C689 C690 1.376 . S
C690 H677 0.930 . S
C690 C689 1.376 . S
C690 C691 1.388 . S
C691 H678 0.930 . S
C691 C690 1.388 . S
C691 C692 1.390 . S
C692 C691 1.390 . S
C692 C693 1.394 . S
C692 C698 1.465 . S
C693 C688 1.399 . S
C693 C692 1.394 . S
C693 C694 1.516 . S
C694 C693 1.516 . S
C694 C695 1.502 . S
C694 C696 1.561 . S
C694 C697 1.526 . S
C695 H679 0.959 . S
C695 H680 0.959 . S
C695 H681 0.961 . S
C695 C694 1.502 . S
C696 H682 0.960 . S
C696 H683 0.961 . S
C696 H684 0.959 . S
C696 C694 1.561 . S
C697 C694 1.526 . S
C697 C698 1.396 . S
C697 C702 1.390 . S
C698 C692 1.465 . S
C698 C697 1.396 . S
C698 C699 1.399 . S
C699 H685 0.929 . S
C699 C698 1.399 . S
C699 C700 1.385 . S
C700 H686 0.931 . S
C700 C699 1.385 . S
C700 C701 1.389 . S
C701 C700 1.389 . S
C701 C702 1.387 . S
C702 H687 0.930 . S
C702 C697 1.390 . S
C702 C701 1.387 . S
H703 C715 0.930 . S
H704 C717 0.930 . S
H705 C718 0.930 . S
H706 C722 0.959 . S
H707 C722 0.959 . S
H708 C722 0.961 . S
H709 C723 0.960 . S
H710 C723 0.961 . S
H711 C723 0.959 . S
H712 C726 0.929 . S
H713 C727 0.931 . S
H714 C729 0.930 . S
C715 H703 0.930 . S
C715 C716 1.399 . S
C715 C720 1.399 . S
C716 C715 1.399 . S
C716 C717 1.376 . S
C717 H704 0.930 . S
C717 C716 1.376 . S
C717 C718 1.388 . S
C718 H705 0.930 . S
C718 C717 1.388 . S
C718 C719 1.390 . S
C719 C718 1.390 . S
C719 C720 1.394 . S
C719 C725 1.465 . S
C720 C715 1.399 . S
C720 C719 1.394 . S
C720 C721 1.516 . S
C721 C720 1.516 . S
C721 C722 1.502 . S
C721 C723 1.561 . S
C721 C724 1.526 . S
C722 H706 0.959 . S
C722 H707 0.959 . S
C722 H708 0.961 . S
C722 C721 1.502 . S
C723 H709 0.960 . S
C723 H710 0.961 . S
C723 H711 0.959 . S
C723 C721 1.561 . S
C724 C721 1.526 . S
C724 C725 1.396 . S
C724 C729 1.390 . S
C725 C719 1.465 . S
C725 C724 1.396 . S
C725 C726 1.399 . S
C726 H712 0.929 . S
C726 C725 1.399 . S
C726 C727 1.385 . S
C727 H713 0.931 . S
C727 C726 1.385 . S
C727 C728 1.389 . S
C728 C727 1.389 . S
C728 C729 1.387 . S
C729 H714 0.930 . S
C729 C724 1.390 . S
C729 C728 1.387 . S
H730 C742 0.930 . S
H731 C744 0.930 . S
H732 C745 0.930 . S
H733 C749 0.959 . S
H734 C749 0.959 . S
H735 C749 0.961 . S
H736 C750 0.960 . S
H737 C750 0.961 . S
H738 C750 0.959 . S
H739 C753 0.929 . S
H740 C754 0.931 . S
H741 C756 0.930 . S
C742 H730 0.930 . S
C742 C743 1.399 . S
C742 C747 1.399 . S
C743 C742 1.399 . S
C743 C744 1.376 . S
C744 H731 0.930 . S
C744 C743 1.376 . S
C744 C745 1.388 . S
C745 H732 0.930 . S
C745 C744 1.388 . S
C745 C746 1.390 . S
C746 C745 1.390 . S
C746 C747 1.394 . S
C746 C752 1.465 . S
C747 C742 1.399 . S
C747 C746 1.394 . S
C747 C748 1.516 . S
C748 C747 1.516 . S
C748 C749 1.502 . S
C748 C750 1.561 . S
C748 C751 1.526 . S
C749 H733 0.959 . S
C749 H734 0.959 . S
C749 H735 0.961 . S
C749 C748 1.502 . S
C750 H736 0.960 . S
C750 H737 0.961 . S
C750 H738 0.959 . S
C750 C748 1.561 . S
C751 C748 1.526 . S
C751 C752 1.396 . S
C751 C756 1.390 . S
C752 C746 1.465 . S
C752 C751 1.396 . S
C752 C753 1.399 . S
C753 H739 0.929 . S
C753 C752 1.399 . S
C753 C754 1.385 . S
C754 H740 0.931 . S
C754 C753 1.385 . S
C754 C755 1.389 . S
C755 C754 1.389 . S
C755 C756 1.387 . S
C756 H741 0.930 . S
C756 C751 1.390 . S
C756 C755 1.387 . S
H757 C769 0.930 . S
H758 C771 0.930 . S
H759 C772 0.930 . S
H760 C776 0.959 . S
H761 C776 0.959 . S
H762 C776 0.961 . S
H763 C777 0.960 . S
H764 C777 0.961 . S
H765 C777 0.959 . S
H766 C780 0.929 . S
H767 C781 0.931 . S
H768 C783 0.930 . S
C769 H757 0.930 . S
C769 C770 1.399 . S
C769 C774 1.399 . S
C770 C769 1.399 . S
C770 C771 1.376 . S
C771 H758 0.930 . S
C771 C770 1.376 . S
C771 C772 1.388 . S
C772 H759 0.930 . S
C772 C771 1.388 . S
C772 C773 1.390 . S
C773 C772 1.390 . S
C773 C774 1.394 . S
C773 C779 1.465 . S
C774 C769 1.399 . S
C774 C773 1.394 . S
C774 C775 1.516 . S
C775 C774 1.516 . S
C775 C776 1.502 . S
C775 C777 1.561 . S
C775 C778 1.526 . S
C776 H760 0.959 . S
C776 H761 0.959 . S
C776 H762 0.961 . S
C776 C775 1.502 . S
C777 H763 0.960 . S
C777 H764 0.961 . S
C777 H765 0.959 . S
C777 C775 1.561 . S
C778 C775 1.526 . S
C778 C779 1.396 . S
C778 C783 1.390 . S
C779 C773 1.465 . S
C779 C778 1.396 . S
C779 C780 1.399 . S
C780 H766 0.929 . S
C780 C779 1.399 . S
C780 C781 1.385 . S
C781 H767 0.931 . S
C781 C780 1.385 . S
C781 C782 1.389 . S
C782 C781 1.389 . S
C782 C783 1.387 . S
C783 H768 0.930 . S
C783 C778 1.390 . S
C783 C782 1.387 . S
H784 C796 0.930 . S
H785 C798 0.930 . S
H786 C799 0.930 . S
H787 C803 0.959 . S
H788 C803 0.959 . S
H789 C803 0.961 . S
H790 C804 0.960 . S
H791 C804 0.961 . S
H792 C804 0.959 . S
H793 C807 0.929 . S
H794 C808 0.931 . S
H795 C810 0.930 . S
C796 H784 0.930 . S
C796 C797 1.399 . S
C796 C801 1.399 1_554 S
C797 C796 1.399 . S
C797 C798 1.376 . S
C798 H785 0.930 . S
C798 C797 1.376 . S
C798 C799 1.388 . S
C799 H786 0.930 . S
C799 C798 1.388 . S
C799 C800 1.390 1_554 S
C800 C799 1.390 1_556 S
C800 C801 1.394 . S
C800 C806 1.465 . S
C801 C796 1.399 1_556 S
C801 C800 1.394 . S
C801 C802 1.516 . S
C802 C801 1.516 . S
C802 C803 1.502 . S
C802 C804 1.561 . S
C802 C805 1.526 . S
C803 H787 0.959 . S
C803 H788 0.959 . S
C803 H789 0.961 . S
C803 C802 1.502 . S
C804 H790 0.960 . S
C804 H791 0.961 . S
C804 H792 0.959 . S
C804 C802 1.561 . S
C805 C802 1.526 . S
C805 C806 1.396 . S
C805 C810 1.390 . S
C806 C800 1.465 . S
C806 C805 1.396 . S
C806 C807 1.399 . S
C807 H793 0.929 . S
C807 C806 1.399 . S
C807 C808 1.385 . S
C808 H794 0.931 . S
C808 C807 1.385 . S
C808 C809 1.389 . S
C809 C808 1.389 . S
C809 C810 1.387 . S
C810 H795 0.930 . S
C810 C805 1.390 . S
C810 C809 1.387 . S
H811 C823 0.930 . S
H812 C825 0.930 . S
H813 C826 0.930 . S
H814 C830 0.959 . S
H815 C830 0.959 . S
H816 C830 0.961 . S
H817 C831 0.960 . S
H818 C831 0.961 . S
H819 C831 0.959 . S
H820 C834 0.929 . S
H821 C835 0.931 . S
H822 C837 0.930 . S
C823 H811 0.930 . S
C823 C824 1.399 . S
C823 C828 1.399 . S
C824 C823 1.399 . S
C824 C825 1.376 . S
C825 H812 0.930 . S
C825 C824 1.376 . S
C825 C826 1.388 . S
C826 H813 0.930 . S
C826 C825 1.388 . S
C826 C827 1.390 . S
C827 C826 1.390 . S
C827 C828 1.394 . S
C827 C833 1.465 . S
C828 C823 1.399 . S
C828 C827 1.394 . S
C828 C829 1.516 . S
C829 C828 1.516 . S
C829 C830 1.502 . S
C829 C831 1.561 . S
C829 C832 1.526 . S
C830 H814 0.959 . S
C830 H815 0.959 . S
C830 H816 0.961 . S
C830 C829 1.502 . S
C831 H817 0.960 . S
C831 H818 0.961 . S
C831 H819 0.959 . S
C831 C829 1.561 . S
C832 C829 1.526 . S
C832 C833 1.396 . S
C832 C837 1.390 . S
C833 C827 1.465 . S
C833 C832 1.396 . S
C833 C834 1.399 . S
C834 H820 0.929 . S
C834 C833 1.399 . S
C834 C835 1.385 . S
C835 H821 0.931 . S
C835 C834 1.385 . S
C835 C836 1.389 . S
C836 C835 1.389 . S
C836 C837 1.387 . S
C837 H822 0.930 . S
C837 C832 1.390 . S
C837 C836 1.387 . S
H838 C850 0.930 . S
H839 C852 0.930 . S
H840 C853 0.930 . S
H841 C857 0.959 1_556 S
H842 C857 0.959 1_556 S
H843 C857 0.961 . S
H844 C858 0.960 1_554 S
H845 C858 0.961 . S
H846 C858 0.959 . S
H847 C861 0.929 . S
H848 C862 0.931 . S
H849 C864 0.930 . S
C850 H838 0.930 . S
C850 C851 1.399 . S
C850 C855 1.399 . S
C851 C850 1.399 . S
C851 C852 1.376 . S
C852 H839 0.930 . S
C852 C851 1.376 . S
C852 C853 1.388 1_554 S
C853 H840 0.930 . S
C853 C852 1.388 1_556 S
C853 C854 1.390 . S
C854 C853 1.390 . S
C854 C855 1.394 1_556 S
C854 C860 1.465 . S
C855 C850 1.399 . S
C855 C854 1.394 1_554 S
C855 C856 1.516 1_554 S
C856 C855 1.516 1_556 S
C856 C857 1.502 1_556 S
C856 C858 1.561 . S
C856 C859 1.526 . S
C857 H841 0.959 1_554 S
C857 H842 0.959 1_554 S
C857 H843 0.961 . S
C857 C856 1.502 1_554 S
C858 H844 0.960 1_556 S
C858 H845 0.961 . S
C858 H846 0.959 . S
C858 C856 1.561 . S
C859 C856 1.526 . S
C859 C860 1.396 . S
C859 C864 1.390 . S
C860 C854 1.465 . S
C860 C859 1.396 . S
C860 C861 1.399 . S
C861 H847 0.929 . S
C861 C860 1.399 . S
C861 C862 1.385 . S
C862 H848 0.931 . S
C862 C861 1.385 . S
C862 C863 1.389 . S
C863 C862 1.389 . S
C863 C864 1.387 . S
C864 H849 0.930 . S
C864 C859 1.390 . S
C864 C863 1.387 . S
H865 C877 0.930 . S
H866 C879 0.930 . S
H867 C880 0.930 . S
H868 C884 0.959 . S
H869 C884 0.959 . S
H870 C884 0.961 . S
H871 C885 0.960 . S
H872 C885 0.961 . S
H873 C885 0.959 . S
H874 C888 0.929 . S
H875 C889 0.931 . S
H876 C891 0.930 . S
C877 H865 0.930 . S
C877 C878 1.399 . S
C877 C882 1.399 . S
C878 C877 1.399 . S
C878 C879 1.376 . S
C879 H866 0.930 . S
C879 C878 1.376 . S
C879 C880 1.388 . S
C880 H867 0.930 . S
C880 C879 1.388 . S
C880 C881 1.390 . S
C881 C880 1.390 . S
C881 C882 1.394 . S
C881 C887 1.465 . S
C882 C877 1.399 . S
C882 C881 1.394 . S
C882 C883 1.516 . S
C883 C882 1.516 . S
C883 C884 1.502 . S
C883 C885 1.561 . S
C883 C886 1.526 . S
C884 H868 0.959 . S
C884 H869 0.959 . S
C884 H870 0.961 . S
C884 C883 1.502 . S
C885 H871 0.960 . S
C885 H872 0.961 . S
C885 H873 0.959 . S
C885 C883 1.561 . S
C886 C883 1.526 . S
C886 C887 1.396 . S
C886 C891 1.390 . S
C887 C881 1.465 . S
C887 C886 1.396 . S
C887 C888 1.399 . S
C888 H874 0.929 . S
C888 C887 1.399 . S
C888 C889 1.385 . S
C889 H875 0.931 . S
C889 C888 1.385 . S
C889 C890 1.389 . S
C890 C889 1.389 . S
C890 C891 1.387 . S
C891 H876 0.930 . S
C891 C886 1.390 . S
C891 C890 1.387 . S
H892 C904 0.930 . S
H893 C906 0.930 . S
H894 C907 0.930 . S
H895 C911 0.959 1_554 S
H896 C911 0.959 1_554 S
H897 C911 0.961 . S
H898 C912 0.960 1_556 S
H899 C912 0.961 . S
H900 C912 0.959 . S
H901 C915 0.929 . S
H902 C916 0.931 . S
H903 C918 0.930 . S
C904 H892 0.930 . S
C904 C905 1.399 . S
C904 C909 1.389 1_556 S
C905 C904 1.399 . S
C905 C906 1.376 . S
C906 H893 0.930 . S
C906 C905 1.376 . S
C906 C907 1.388 1_556 S
C907 H894 0.930 . S
C907 C906 1.388 1_554 S
C907 C908 1.390 . S
C908 C907 1.390 . S
C908 C909 1.401 . S
C908 C914 1.465 . S
C909 C904 1.389 1_554 S
C909 C908 1.401 . S
C909 C910 1.520 . S
C910 C909 1.520 . S
C910 C911 1.502 1_554 S
C910 C912 1.561 . S
C910 C913 1.526 . S
C911 H895 0.959 1_556 S
C911 H896 0.959 1_556 S
C911 H897 0.961 . S
C911 C910 1.502 1_556 S
C912 H898 0.960 1_554 S
C912 H899 0.961 . S
C912 H900 0.959 . S
C912 C910 1.561 . S
C913 C910 1.526 . S
C913 C914 1.396 . S
C913 C918 1.390 . S
C914 C908 1.465 . S
C914 C913 1.396 . S
C914 C915 1.399 . S
C915 H901 0.929 . S
C915 C914 1.399 . S
C915 C916 1.385 . S
C916 H902 0.931 . S
C916 C915 1.385 . S
C916 C917 1.389 . S
C917 C916 1.389 . S
C917 C918 1.387 . S
C918 H903 0.930 . S
C918 C913 1.390 . S
C918 C917 1.387 . S
H919 C931 0.930 . S
H920 C933 0.930 . S
H921 C934 0.930 . S
H922 C938 0.959 . S
H923 C938 0.959 . S
H924 C938 0.961 . S
H925 C939 0.960 . S
H926 C939 0.961 . S
H927 C939 0.959 . S
H928 C942 0.929 . S
H929 C943 0.931 . S
H930 C945 0.930 . S
C931 H919 0.930 . S
C931 C932 1.399 . S
C931 C936 1.399 . S
C932 C931 1.399 . S
C932 C933 1.376 . S
C933 H920 0.930 . S
C933 C932 1.376 . S
C933 C934 1.388 . S
C934 H921 0.930 . S
C934 C933 1.388 . S
C934 C935 1.390 . S
C935 C934 1.390 . S
C935 C936 1.394 . S
C935 C941 1.465 . S
C936 C931 1.399 . S
C936 C935 1.394 . S
C936 C937 1.516 . S
C937 C936 1.516 . S
C937 C938 1.502 . S
C937 C939 1.561 . S
C937 C940 1.526 . S
C938 H922 0.959 . S
C938 H923 0.959 . S
C938 H924 0.961 . S
C938 C937 1.502 . S
C939 H925 0.960 . S
C939 H926 0.961 . S
C939 H927 0.959 . S
C939 C937 1.561 . S
C940 C937 1.526 . S
C940 C941 1.396 . S
C940 C945 1.390 . S
C941 C935 1.465 . S
C941 C940 1.396 . S
C941 C942 1.399 . S
C942 H928 0.929 . S
C942 C941 1.399 . S
C942 C943 1.385 . S
C943 H929 0.931 . S
C943 C942 1.385 . S
C943 C944 1.389 . S
C944 C943 1.389 . S
C944 C945 1.387 . S
C945 H930 0.930 . S
C945 C940 1.390 . S
C945 C944 1.387 . S
H946 C958 0.930 . S
H947 C960 0.930 . S
H948 C961 0.930 . S
H949 C965 0.959 1_554 S
H950 C965 0.959 1_554 S
H951 C965 0.961 . S
H952 C966 0.960 1_556 S
H953 C966 0.961 . S
H954 C966 0.959 . S
H955 C969 0.929 . S
H956 C970 0.931 . S
H957 C972 0.930 . S
C958 H946 0.930 . S
C958 C959 1.399 . S
C958 C963 1.398 . S
C959 C958 1.399 . S
C959 C960 1.376 . S
C960 H947 0.930 . S
C960 C959 1.376 . S
C960 C961 1.388 1_556 S
C961 H948 0.930 . S
C961 C960 1.388 1_554 S
C961 C962 1.390 . S
C962 C961 1.390 . S
C962 C963 1.395 1_554 S
C962 C968 1.465 . S
C963 C958 1.398 . S
C963 C962 1.395 1_556 S
C963 C964 1.517 1_556 S
C964 C963 1.517 1_554 S
C964 C965 1.502 1_554 S
C964 C966 1.561 . S
C964 C967 1.526 . S
C965 H949 0.959 1_556 S
C965 H950 0.959 1_556 S
C965 H951 0.961 . S
C965 C964 1.502 1_556 S
C966 H952 0.960 1_554 S
C966 H953 0.961 . S
C966 H954 0.959 . S
C966 C964 1.561 . S
C967 C964 1.526 . S
C967 C968 1.396 . S
C967 C972 1.390 . S
C968 C962 1.465 . S
C968 C967 1.396 . S
C968 C969 1.399 . S
C969 H955 0.929 . S
C969 C968 1.399 . S
C969 C970 1.385 . S
C970 H956 0.931 . S
C970 C969 1.385 . S
C970 C971 1.389 . S
C971 C970 1.389 . S
C971 C972 1.387 . S
C972 H957 0.930 . S
C972 C967 1.390 . S
C972 C971 1.387 . S
H973 C985 0.930 . S
H974 C987 0.930 . S
H975 C988 0.930 . S
H976 C992 0.959 . S
H977 C992 0.959 . S
H978 C992 0.961 . S
H979 C993 0.960 . S
H980 C993 0.961 . S
H981 C993 0.959 . S
H982 C996 0.929 . S
H983 C997 0.931 . S
H984 C999 0.930 . S
C985 H973 0.930 . S
C985 C986 1.399 . S
C985 C990 1.399 . S
C986 C985 1.399 . S
C986 C987 1.376 . S
C987 H974 0.930 . S
C987 C986 1.376 . S
C987 C988 1.388 . S
C988 H975 0.930 . S
C988 C987 1.388 . S
C988 C989 1.390 . S
C989 C988 1.390 . S
C989 C990 1.394 . S
C989 C995 1.465 . S
C990 C985 1.399 . S
C990 C989 1.394 . S
C990 C991 1.516 . S
C991 C990 1.516 . S
C991 C992 1.502 . S
C991 C993 1.561 . S
C991 C994 1.526 . S
C992 H976 0.959 . S
C992 H977 0.959 . S
C992 H978 0.961 . S
C992 C991 1.502 . S
C993 H979 0.960 . S
C993 H980 0.961 . S
C993 H981 0.959 . S
C993 C991 1.561 . S
C994 C991 1.526 . S
C994 C995 1.396 . S
C994 C999 1.390 . S
C995 C989 1.465 . S
C995 C994 1.396 . S
C995 C996 1.399 . S
C996 H982 0.929 . S
C996 C995 1.399 . S
C996 C997 1.385 . S
C997 H983 0.931 . S
C997 C996 1.385 . S
C997 C998 1.389 . S
C998 C997 1.389 . S
C998 C999 1.387 . S
C999 H984 0.930 . S
C999 C994 1.390 . S
C999 C998 1.387 . S
H1000 C1012 0.930 . S
H1001 C1014 0.930 . S
H1002 C1015 0.930 . S
H1003 C1019 0.959 1_556 S
H1004 C1019 0.959 . S
H1005 C1019 0.961 1_556 S
H1006 C1020 0.960 . S
H1007 C1020 0.961 . S
H1008 C1020 0.959 . S
H1009 C1023 0.929 . S
H1010 C1024 0.931 . S
H1011 C1026 0.930 . S
C1012 H1000 0.930 . S
C1012 C1013 1.399 . S
C1012 C1017 1.399 1_556 S
C1013 C1012 1.399 . S
C1013 C1014 1.376 . S
C1014 H1001 0.930 . S
C1014 C1013 1.376 . S
C1014 C1015 1.388 1_556 S
C1015 H1002 0.930 . S
C1015 C1014 1.388 1_554 S
C1015 C1016 1.390 . S
C1016 C1015 1.390 . S
C1016 C1017 1.394 . S
C1016 C1022 1.465 . S
C1017 C1012 1.399 1_554 S
C1017 C1016 1.394 . S
C1017 C1018 1.516 . S
C1018 C1017 1.516 . S
C1018 C1019 1.502 . S
C1018 C1020 1.561 . S
C1018 C1021 1.526 . S
C1019 H1003 0.959 1_554 S
C1019 H1004 0.959 . S
C1019 H1005 0.961 1_554 S
C1019 C1018 1.502 . S
C1020 H1006 0.960 . S
C1020 H1007 0.961 . S
C1020 H1008 0.959 . S
C1020 C1018 1.561 . S
C1021 C1018 1.526 . S
C1021 C1022 1.396 . S
C1021 C1026 1.390 . S
C1022 C1016 1.465 . S
C1022 C1021 1.396 . S
C1022 C1023 1.399 . S
C1023 H1009 0.929 . S
C1023 C1022 1.399 . S
C1023 C1024 1.385 . S
C1024 H1010 0.931 . S
C1024 C1023 1.385 . S
C1024 C1025 1.389 . S
C1025 C1024 1.389 . S
C1025 C1026 1.387 . S
C1026 H1011 0.930 . S
C1026 C1021 1.390 . S
C1026 C1025 1.387 . S
H1027 C1039 0.930 . S
H1028 C1041 0.930 . S
H1029 C1042 0.930 . S
H1030 C1046 0.959 . S
H1031 C1046 0.959 . S
H1032 C1046 0.961 . S
H1033 C1047 0.960 . S
H1034 C1047 0.961 . S
H1035 C1047 0.959 . S
H1036 C1050 0.929 . S
H1037 C1051 0.931 . S
H1038 C1053 0.930 . S
C1039 H1027 0.930 . S
C1039 C1040 1.399 . S
C1039 C1044 1.399 . S
C1040 C1039 1.399 . S
C1040 C1041 1.376 . S
C1041 H1028 0.930 . S
C1041 C1040 1.376 . S
C1041 C1042 1.388 . S
C1042 H1029 0.930 . S
C1042 C1041 1.388 . S
C1042 C1043 1.390 . S
C1043 C1042 1.390 . S
C1043 C1044 1.394 . S
C1043 C1049 1.465 . S
C1044 C1039 1.399 . S
C1044 C1043 1.394 . S
C1044 C1045 1.516 . S
C1045 C1044 1.516 . S
C1045 C1046 1.502 . S
C1045 C1047 1.561 . S
C1045 C1048 1.526 . S
C1046 H1030 0.959 . S
C1046 H1031 0.959 . S
C1046 H1032 0.961 . S
C1046 C1045 1.502 . S
C1047 H1033 0.960 . S
C1047 H1034 0.961 . S
C1047 H1035 0.959 . S
C1047 C1045 1.561 . S
C1048 C1045 1.526 . S
C1048 C1049 1.396 . S
C1048 C1053 1.390 . S
C1049 C1043 1.465 . S
C1049 C1048 1.396 . S
C1049 C1050 1.399 . S
C1050 H1036 0.929 . S
C1050 C1049 1.399 . S
C1050 C1051 1.385 . S
C1051 H1037 0.931 . S
C1051 C1050 1.385 . S
C1051 C1052 1.389 . S
C1052 C1051 1.389 . S
C1052 C1053 1.387 . S
C1053 H1038 0.930 . S
C1053 C1048 1.390 . S
C1053 C1052 1.387 . S
H1054 C1066 0.930 . S
H1055 C1068 0.930 . S
H1056 C1069 0.930 . S
H1057 C1073 0.959 . S
H1058 C1073 0.959 . S
H1059 C1073 0.961 1_556 S
H1060 C1074 0.960 . S
H1061 C1074 0.961 . S
H1062 C1074 0.959 . S
H1063 C1077 0.929 . S
H1064 C1078 0.931 . S
H1065 C1080 0.930 . S
C1066 H1054 0.930 . S
C1066 C1067 1.399 . S
C1066 C1071 1.399 1_556 S
C1067 C1066 1.399 . S
C1067 C1068 1.376 . S
C1068 H1055 0.930 . S
C1068 C1067 1.376 . S
C1068 C1069 1.388 1_556 S
C1069 H1056 0.930 . S
C1069 C1068 1.388 1_554 S
C1069 C1070 1.390 . S
C1070 C1069 1.390 . S
C1070 C1071 1.394 . S
C1070 C1076 1.465 . S
C1071 C1066 1.399 1_554 S
C1071 C1070 1.394 . S
C1071 C1072 1.516 . S
C1072 C1071 1.516 . S
C1072 C1073 1.502 . S
C1072 C1074 1.561 . S
C1072 C1075 1.526 . S
C1073 H1057 0.959 . S
C1073 H1058 0.959 . S
C1073 H1059 0.961 1_554 S
C1073 C1072 1.502 . S
C1074 H1060 0.960 . S
C1074 H1061 0.961 . S
C1074 H1062 0.959 . S
C1074 C1072 1.561 . S
C1075 C1072 1.526 . S
C1075 C1076 1.396 . S
C1075 C1080 1.390 . S
C1076 C1070 1.465 . S
C1076 C1075 1.396 . S
C1076 C1077 1.399 . S
C1077 H1063 0.929 . S
C1077 C1076 1.399 . S
C1077 C1078 1.385 . S
C1078 H1064 0.931 . S
C1078 C1077 1.385 . S
C1078 C1079 1.389 . S
C1079 C1078 1.389 . S
C1079 C1080 1.387 . S
C1080 H1065 0.930 . S
C1080 C1075 1.390 . S
C1080 C1079 1.387 . S
H1081 C1093 0.930 . S
H1082 C1095 0.930 . S
H1083 C1096 0.930 . S
H1084 C1100 0.959 . S
H1085 C1100 0.959 . S
H1086 C1100 0.961 . S
H1087 C1101 0.960 . S
H1088 C1101 0.961 . S
H1089 C1101 0.959 . S
H1090 C1104 0.929 . S
H1091 C1105 0.931 . S
H1092 C1107 0.930 . S
C1093 H1081 0.930 . S
C1093 C1094 1.399 . S
C1093 C1098 1.399 . S
C1094 C1093 1.399 . S
C1094 C1095 1.376 . S
C1095 H1082 0.930 . S
C1095 C1094 1.376 . S
C1095 C1096 1.388 . S
C1096 H1083 0.930 . S
C1096 C1095 1.388 . S
C1096 C1097 1.390 . S
C1097 C1096 1.390 . S
C1097 C1098 1.394 . S
C1097 C1103 1.465 . S
C1098 C1093 1.399 . S
C1098 C1097 1.394 . S
C1098 C1099 1.516 . S
C1099 C1098 1.516 . S
C1099 C1100 1.502 . S
C1099 C1101 1.561 . S
C1099 C1102 1.526 . S
C1100 H1084 0.959 . S
C1100 H1085 0.959 . S
C1100 H1086 0.961 . S
C1100 C1099 1.502 . S
C1101 H1087 0.960 . S
C1101 H1088 0.961 . S
C1101 H1089 0.959 . S
C1101 C1099 1.561 . S
C1102 C1099 1.526 . S
C1102 C1103 1.396 . S
C1102 C1107 1.390 . S
C1103 C1097 1.465 . S
C1103 C1102 1.396 . S
C1103 C1104 1.399 . S
C1104 H1090 0.929 . S
C1104 C1103 1.399 . S
C1104 C1105 1.385 . S
C1105 H1091 0.931 . S
C1105 C1104 1.385 . S
C1105 C1106 1.389 . S
C1106 C1105 1.389 . S
C1106 C1107 1.387 . S
C1107 H1092 0.930 . S
C1107 C1102 1.390 . S
C1107 C1106 1.387 . S
H1108 C1120 0.930 . S
H1109 C1122 0.930 . S
H1110 C1123 0.930 . S
H1111 C1127 0.959 . S
H1112 C1127 0.959 . S
H1113 C1127 0.961 . S
H1114 C1128 0.960 . S
H1115 C1128 0.961 . S
H1116 C1128 0.959 . S
H1117 C1131 0.929 . S
H1118 C1132 0.931 . S
H1119 C1134 0.930 . S
C1120 H1108 0.930 . S
C1120 C1121 1.399 . S
C1120 C1125 1.399 . S
C1121 C1120 1.399 . S
C1121 C1122 1.376 . S
C1122 H1109 0.930 . S
C1122 C1121 1.376 . S
C1122 C1123 1.388 . S
C1123 H1110 0.930 . S
C1123 C1122 1.388 . S
C1123 C1124 1.390 . S
C1124 C1123 1.390 . S
C1124 C1125 1.394 . S
C1124 C1130 1.465 . S
C1125 C1120 1.399 . S
C1125 C1124 1.394 . S
C1125 C1126 1.516 . S
C1126 C1125 1.516 . S
C1126 C1127 1.502 . S
C1126 C1128 1.561 . S
C1126 C1129 1.526 . S
C1127 H1111 0.959 . S
C1127 H1112 0.959 . S
C1127 H1113 0.961 . S
C1127 C1126 1.502 . S
C1128 H1114 0.960 . S
C1128 H1115 0.961 . S
C1128 H1116 0.959 . S
C1128 C1126 1.561 . S
C1129 C1126 1.526 . S
C1129 C1130 1.396 . S
C1129 C1134 1.390 1_556 S
C1130 C1124 1.465 . S
C1130 C1129 1.396 . S
C1130 C1131 1.399 1_556 S
C1131 H1117 0.929 . S
C1131 C1130 1.399 1_554 S
C1131 C1132 1.385 . S
C1132 H1118 0.931 . S
C1132 C1131 1.385 . S
C1132 C1133 1.389 . S
C1133 C1132 1.389 . S
C1133 C1134 1.387 . S
C1134 H1119 0.930 . S
C1134 C1129 1.390 1_554 S
C1134 C1133 1.387 . S
H1135 C1147 0.930 . S
H1136 C1149 0.930 . S
H1137 C1150 0.930 . S
H1138 C1154 0.959 . S
H1139 C1154 0.959 . S
H1140 C1154 0.961 . S
H1141 C1155 0.960 . S
H1142 C1155 0.961 . S
H1143 C1155 0.959 . S
H1144 C1158 0.929 . S
H1145 C1159 0.931 . S
H1146 C1161 0.930 . S
C1147 H1135 0.930 . S
C1147 C1148 1.399 . S
C1147 C1152 1.399 . S
C1148 C1147 1.399 . S
C1148 C1149 1.376 . S
C1149 H1136 0.930 . S
C1149 C1148 1.376 . S
C1149 C1150 1.388 . S
C1150 H1137 0.930 . S
C1150 C1149 1.388 . S
C1150 C1151 1.390 . S
C1151 C1150 1.390 . S
C1151 C1152 1.394 . S
C1151 C1157 1.465 . S
C1152 C1147 1.399 . S
C1152 C1151 1.394 . S
C1152 C1153 1.516 . S
C1153 C1152 1.516 . S
C1153 C1154 1.502 . S
C1153 C1155 1.561 . S
C1153 C1156 1.526 . S
C1154 H1138 0.959 . S
C1154 H1139 0.959 . S
C1154 H1140 0.961 . S
C1154 C1153 1.502 . S
C1155 H1141 0.960 . S
C1155 H1142 0.961 . S
C1155 H1143 0.959 . S
C1155 C1153 1.561 . S
C1156 C1153 1.526 . S
C1156 C1157 1.396 . S
C1156 C1161 1.390 . S
C1157 C1151 1.465 . S
C1157 C1156 1.396 . S
C1157 C1158 1.399 . S
C1158 H1144 0.929 . S
C1158 C1157 1.399 . S
C1158 C1159 1.385 . S
C1159 H1145 0.931 . S
C1159 C1158 1.385 . S
C1159 C1160 1.389 . S
C1160 C1159 1.389 . S
C1160 C1161 1.387 . S
C1161 H1146 0.930 . S
C1161 C1156 1.390 . S
C1161 C1160 1.387 . S
H1162 C1174 0.930 . S
H1163 C1176 0.930 . S
H1164 C1177 0.930 . S
H1165 C1181 0.959 . S
H1166 C1181 0.959 . S
H1167 C1181 0.961 . S
H1168 C1182 0.960 . S
H1169 C1182 0.961 . S
H1170 C1182 0.959 . S
H1171 C1185 0.929 . S
H1172 C1186 0.931 . S
H1173 C1188 0.930 . S
C1174 H1162 0.930 . S
C1174 C1175 1.399 . S
C1174 C1179 1.399 . S
C1175 C1174 1.399 . S
C1175 C1176 1.376 . S
C1176 H1163 0.930 . S
C1176 C1175 1.376 . S
C1176 C1177 1.388 . S
C1177 H1164 0.930 . S
C1177 C1176 1.388 . S
C1177 C1178 1.390 . S
C1178 C1177 1.390 . S
C1178 C1179 1.394 . S
C1178 C1184 1.465 . S
C1179 C1174 1.399 . S
C1179 C1178 1.394 . S
C1179 C1180 1.516 . S
C1180 C1179 1.516 . S
C1180 C1181 1.502 . S
C1180 C1182 1.561 . S
C1180 C1183 1.526 . S
C1181 H1165 0.959 . S
C1181 H1166 0.959 . S
C1181 H1167 0.961 . S
C1181 C1180 1.502 . S
C1182 H1168 0.960 . S
C1182 H1169 0.961 . S
C1182 H1170 0.959 . S
C1182 C1180 1.561 . S
C1183 C1180 1.526 . S
C1183 C1184 1.396 . S
C1183 C1188 1.390 1_556 S
C1184 C1178 1.465 . S
C1184 C1183 1.396 . S
C1184 C1185 1.399 1_556 S
C1185 H1171 0.929 . S
C1185 C1184 1.399 1_554 S
C1185 C1186 1.385 . S
C1186 H1172 0.931 . S
C1186 C1185 1.385 . S
C1186 C1187 1.389 . S
C1187 C1186 1.389 . S
C1187 C1188 1.387 . S
C1188 H1173 0.930 . S
C1188 C1183 1.390 1_554 S
C1188 C1187 1.387 . S
H1189 C1201 0.930 . S
H1190 C1203 0.930 . S
H1191 C1204 0.930 . S
H1192 C1208 0.959 . S
H1193 C1208 0.959 . S
H1194 C1208 0.961 . S
H1195 C1209 0.960 . S
H1196 C1209 0.961 . S
H1197 C1209 0.959 . S
H1198 C1212 0.929 . S
H1199 C1213 0.931 . S
H1200 C1215 0.930 . S
C1201 H1189 0.930 . S
C1201 C1202 1.399 . S
C1201 C1206 1.399 . S
C1202 C1201 1.399 . S
C1202 C1203 1.376 . S
C1203 H1190 0.930 . S
C1203 C1202 1.376 . S
C1203 C1204 1.388 . S
C1204 H1191 0.930 . S
C1204 C1203 1.388 . S
C1204 C1205 1.390 . S
C1205 C1204 1.390 . S
C1205 C1206 1.394 . S
C1205 C1211 1.465 . S
C1206 C1201 1.399 . S
C1206 C1205 1.394 . S
C1206 C1207 1.516 . S
C1207 C1206 1.516 . S
C1207 C1208 1.502 . S
C1207 C1209 1.561 . S
C1207 C1210 1.526 . S
C1208 H1192 0.959 . S
C1208 H1193 0.959 . S
C1208 H1194 0.961 . S
C1208 C1207 1.502 . S
C1209 H1195 0.960 . S
C1209 H1196 0.961 . S
C1209 H1197 0.959 . S
C1209 C1207 1.561 . S
C1210 C1207 1.526 . S
C1210 C1211 1.396 . S
C1210 C1215 1.390 . S
C1211 C1205 1.465 . S
C1211 C1210 1.396 . S
C1211 C1212 1.399 . S
C1212 H1198 0.929 . S
C1212 C1211 1.399 . S
C1212 C1213 1.385 . S
C1213 H1199 0.931 . S
C1213 C1212 1.385 . S
C1213 C1214 1.389 . S
C1214 C1213 1.389 . S
C1214 C1215 1.387 . S
C1215 H1200 0.930 . S
C1215 C1210 1.390 . S
C1215 C1214 1.387 . S
H1216 C1228 0.930 . S
H1217 C1230 0.930 . S
H1218 C1231 0.930 . S
H1219 C1235 0.959 . S
H1220 C1235 0.959 . S
H1221 C1235 0.961 . S
H1222 C1236 0.960 . S
H1223 C1236 0.961 . S
H1224 C1236 0.959 . S
H1225 C1239 0.929 . S
H1226 C1240 0.931 . S
H1227 C1242 0.930 . S
C1228 H1216 0.930 . S
C1228 C1229 1.399 . S
C1228 C1233 1.399 . S
C1229 C1228 1.399 . S
C1229 C1230 1.376 . S
C1230 H1217 0.930 . S
C1230 C1229 1.376 . S
C1230 C1231 1.388 . S
C1231 H1218 0.930 . S
C1231 C1230 1.388 . S
C1231 C1232 1.390 . S
C1232 C1231 1.390 . S
C1232 C1233 1.394 . S
C1232 C1238 1.465 . S
C1233 C1228 1.399 . S
C1233 C1232 1.394 . S
C1233 C1234 1.516 . S
C1234 C1233 1.516 . S
C1234 C1235 1.502 . S
C1234 C1236 1.561 . S
C1234 C1237 1.526 . S
C1235 H1219 0.959 . S
C1235 H1220 0.959 . S
C1235 H1221 0.961 . S
C1235 C1234 1.502 . S
C1236 H1222 0.960 . S
C1236 H1223 0.961 . S
C1236 H1224 0.959 . S
C1236 C1234 1.561 . S
C1237 C1234 1.526 . S
C1237 C1238 1.396 . S
C1237 C1242 1.390 . S
C1238 C1232 1.465 . S
C1238 C1237 1.396 . S
C1238 C1239 1.399 . S
C1239 H1225 0.929 . S
C1239 C1238 1.399 . S
C1239 C1240 1.385 . S
C1240 H1226 0.931 . S
C1240 C1239 1.385 . S
C1240 C1241 1.389 . S
C1241 C1240 1.389 . S
C1241 C1242 1.387 . S
C1242 H1227 0.930 . S
C1242 C1237 1.390 . S
C1242 C1241 1.387 . S
H1243 C1255 0.930 . S
H1244 C1257 0.930 . S
H1245 C1258 0.930 . S
H1246 C1262 0.959 . S
H1247 C1262 0.959 . S
H1248 C1262 0.961 . S
H1249 C1263 0.960 . S
H1250 C1263 0.961 . S
H1251 C1263 0.959 . S
H1252 C1266 0.929 . S
H1253 C1267 0.931 . S
H1254 C1269 0.930 . S
C1255 H1243 0.930 . S
C1255 C1256 1.399 . S
C1255 C1260 1.399 . S
C1256 C1255 1.399 . S
C1256 C1257 1.376 . S
C1257 H1244 0.930 . S
C1257 C1256 1.376 . S
C1257 C1258 1.388 . S
C1258 H1245 0.930 . S
C1258 C1257 1.388 . S
C1258 C1259 1.390 . S
C1259 C1258 1.390 . S
C1259 C1260 1.394 . S
C1259 C1265 1.465 . S
C1260 C1255 1.399 . S
C1260 C1259 1.394 . S
C1260 C1261 1.516 . S
C1261 C1260 1.516 . S
C1261 C1262 1.502 . S
C1261 C1263 1.561 . S
C1261 C1264 1.526 . S
C1262 H1246 0.959 . S
C1262 H1247 0.959 . S
C1262 H1248 0.961 . S
C1262 C1261 1.502 . S
C1263 H1249 0.960 . S
C1263 H1250 0.961 . S
C1263 H1251 0.959 . S
C1263 C1261 1.561 . S
C1264 C1261 1.526 . S
C1264 C1265 1.396 . S
C1264 C1269 1.390 . S
C1265 C1259 1.465 . S
C1265 C1264 1.396 . S
C1265 C1266 1.399 . S
C1266 H1252 0.929 . S
C1266 C1265 1.399 . S
C1266 C1267 1.385 . S
C1267 H1253 0.931 . S
C1267 C1266 1.385 . S
C1267 C1268 1.389 . S
C1268 C1267 1.389 . S
C1268 C1269 1.387 . S
C1269 H1254 0.930 . S
C1269 C1264 1.390 . S
C1269 C1268 1.387 . S
H1270 C1282 0.930 . S
H1271 C1284 0.930 . S
H1272 C1285 0.930 . S
H1273 C1289 0.959 . S
H1274 C1289 0.959 . S
H1275 C1289 0.961 . S
H1276 C1290 0.960 . S
H1277 C1290 0.961 . S
H1278 C1290 0.959 . S
H1279 C1293 0.929 . S
H1280 C1294 0.931 . S
H1281 C1296 0.930 . S
C1282 H1270 0.930 . S
C1282 C1283 1.399 . S
C1282 C1287 1.399 . S
C1283 C1282 1.399 . S
C1283 C1284 1.376 . S
C1284 H1271 0.930 . S
C1284 C1283 1.376 . S
C1284 C1285 1.388 . S
C1285 H1272 0.930 . S
C1285 C1284 1.388 . S
C1285 C1286 1.390 . S
C1286 C1285 1.390 . S
C1286 C1287 1.394 . S
C1286 C1292 1.465 . S
C1287 C1282 1.399 . S
C1287 C1286 1.394 . S
C1287 C1288 1.516 . S
C1288 C1287 1.516 . S
C1288 C1289 1.502 . S
C1288 C1290 1.561 . S
C1288 C1291 1.526 . S
C1289 H1273 0.959 . S
C1289 H1274 0.959 . S
C1289 H1275 0.961 . S
C1289 C1288 1.502 . S
C1290 H1276 0.960 . S
C1290 H1277 0.961 . S
C1290 H1278 0.959 . S
C1290 C1288 1.561 . S
C1291 C1288 1.526 . S
C1291 C1292 1.396 . S
C1291 C1296 1.390 . S
C1292 C1286 1.465 . S
C1292 C1291 1.396 . S
C1292 C1293 1.399 . S
C1293 H1279 0.929 . S
C1293 C1292 1.399 . S
C1293 C1294 1.385 . S
C1294 H1280 0.931 . S
C1294 C1293 1.385 . S
C1294 C1295 1.389 . S
C1295 C1294 1.389 . S
C1295 C1296 1.387 . S
C1296 H1281 0.930 . S
C1296 C1291 1.390 . S
C1296 C1295 1.387 . S
H1297 C1309 0.930 . S
H1298 C1311 0.930 . S
H1299 C1312 0.930 . S
H1300 C1316 0.959 . S
H1301 C1316 0.959 . S
H1302 C1316 0.961 . S
H1303 C1317 0.960 . S
H1304 C1317 0.961 . S
H1305 C1317 0.959 . S
H1306 C1320 0.929 . S
H1307 C1321 0.931 . S
H1308 C1323 0.930 . S
C1309 H1297 0.930 . S
C1309 C1310 1.399 . S
C1309 C1314 1.399 . S
C1310 C1309 1.399 . S
C1310 C1311 1.376 . S
C1311 H1298 0.930 . S
C1311 C1310 1.376 . S
C1311 C1312 1.388 . S
C1312 H1299 0.930 . S
C1312 C1311 1.388 . S
C1312 C1313 1.390 . S
C1313 C1312 1.390 . S
C1313 C1314 1.394 . S
C1313 C1319 1.465 . S
C1314 C1309 1.399 . S
C1314 C1313 1.394 . S
C1314 C1315 1.516 . S
C1315 C1314 1.516 . S
C1315 C1316 1.502 . S
C1315 C1317 1.561 . S
C1315 C1318 1.526 . S
C1316 H1300 0.959 . S
C1316 H1301 0.959 . S
C1316 H1302 0.961 . S
C1316 C1315 1.502 . S
C1317 H1303 0.960 . S
C1317 H1304 0.961 . S
C1317 H1305 0.959 . S
C1317 C1315 1.561 . S
C1318 C1315 1.526 . S
C1318 C1319 1.396 . S
C1318 C1323 1.390 . S
C1319 C1313 1.465 . S
C1319 C1318 1.396 . S
C1319 C1320 1.399 . S
C1320 H1306 0.929 . S
C1320 C1319 1.399 . S
C1320 C1321 1.385 . S
C1321 H1307 0.931 . S
C1321 C1320 1.385 . S
C1321 C1322 1.389 . S
C1322 C1321 1.389 . S
C1322 C1323 1.387 . S
C1323 H1308 0.930 . S
C1323 C1318 1.390 . S
C1323 C1322 1.387 . S
H1324 C1336 0.930 . S
H1325 C1338 0.930 . S
H1326 C1339 0.930 . S
H1327 C1343 0.959 . S
H1328 C1343 0.959 . S
H1329 C1343 0.961 . S
H1330 C1344 0.960 . S
H1331 C1344 0.961 . S
H1332 C1344 0.959 . S
H1333 C1347 0.929 . S
H1334 C1348 0.931 . S
H1335 C1350 0.930 . S
C1336 H1324 0.930 . S
C1336 C1337 1.399 . S
C1336 C1341 1.399 . S
C1337 C1336 1.399 . S
C1337 C1338 1.376 . S
C1338 H1325 0.930 . S
C1338 C1337 1.376 . S
C1338 C1339 1.388 . S
C1339 H1326 0.930 . S
C1339 C1338 1.388 . S
C1339 C1340 1.390 . S
C1340 C1339 1.390 . S
C1340 C1341 1.394 . S
C1340 C1346 1.465 . S
C1341 C1336 1.399 . S
C1341 C1340 1.394 . S
C1341 C1342 1.516 . S
C1342 C1341 1.516 . S
C1342 C1343 1.502 . S
C1342 C1344 1.561 . S
C1342 C1345 1.526 . S
C1343 H1327 0.959 . S
C1343 H1328 0.959 . S
C1343 H1329 0.961 . S
C1343 C1342 1.502 . S
C1344 H1330 0.960 . S
C1344 H1331 0.961 . S
C1344 H1332 0.959 . S
C1344 C1342 1.561 . S
C1345 C1342 1.526 . S
C1345 C1346 1.396 . S
C1345 C1350 1.390 . S
C1346 C1340 1.465 . S
C1346 C1345 1.396 . S
C1346 C1347 1.399 . S
C1347 H1333 0.929 . S
C1347 C1346 1.399 . S
C1347 C1348 1.385 . S
C1348 H1334 0.931 . S
C1348 C1347 1.385 . S
C1348 C1349 1.389 . S
C1349 C1348 1.389 . S
C1349 C1350 1.387 . S
C1350 H1335 0.930 . S
C1350 C1345 1.390 . S
C1350 C1349 1.387 . S
H1351 C1363 0.930 . S
H1352 C1365 0.930 . S
H1353 C1366 0.930 . S
H1354 C1370 0.959 . S
H1355 C1370 0.959 . S
H1356 C1370 0.961 . S
H1357 C1371 0.960 . S
H1358 C1371 0.961 . S
H1359 C1371 0.959 . S
H1360 C1374 0.929 . S
H1361 C1375 0.931 . S
H1362 C1377 0.930 . S
C1363 H1351 0.930 . S
C1363 C1364 1.399 . S
C1363 C1368 1.399 . S
C1364 C1363 1.399 . S
C1364 C1365 1.376 . S
C1365 H1352 0.930 . S
C1365 C1364 1.376 . S
C1365 C1366 1.388 . S
C1366 H1353 0.930 . S
C1366 C1365 1.388 . S
C1366 C1367 1.390 . S
C1367 C1366 1.390 . S
C1367 C1368 1.394 . S
C1367 C1373 1.465 . S
C1368 C1363 1.399 . S
C1368 C1367 1.394 . S
C1368 C1369 1.516 . S
C1369 C1368 1.516 . S
C1369 C1370 1.502 . S
C1369 C1371 1.561 . S
C1369 C1372 1.526 . S
C1370 H1354 0.959 . S
C1370 H1355 0.959 . S
C1370 H1356 0.961 . S
C1370 C1369 1.502 . S
C1371 H1357 0.960 . S
C1371 H1358 0.961 . S
C1371 H1359 0.959 . S
C1371 C1369 1.561 . S
C1372 C1369 1.526 . S
C1372 C1373 1.396 . S
C1372 C1377 1.390 . S
C1373 C1367 1.465 . S
C1373 C1372 1.396 . S
C1373 C1374 1.399 . S
C1374 H1360 0.929 . S
C1374 C1373 1.399 . S
C1374 C1375 1.385 . S
C1375 H1361 0.931 . S
C1375 C1374 1.385 . S
C1375 C1376 1.389 . S
C1376 C1375 1.389 . S
C1376 C1377 1.387 . S
C1377 H1362 0.930 . S
C1377 C1372 1.390 . S
C1377 C1376 1.387 . S
H1378 C1390 0.930 . S
H1379 C1392 0.930 . S
H1380 C1393 0.930 . S
H1381 C1397 0.959 . S
H1382 C1397 0.959 . S
H1383 C1397 0.961 . S
H1384 C1398 0.960 . S
H1385 C1398 0.961 . S
H1386 C1398 0.959 . S
H1387 C1401 0.929 . S
H1388 C1402 0.931 1_455 S
H1389 C1404 0.930 . S
C1390 H1378 0.930 . S
C1390 C1391 1.399 . S
C1390 C1395 1.399 . S
C1391 C1390 1.399 . S
C1391 C1392 1.376 . S
C1392 H1379 0.930 . S
C1392 C1391 1.376 . S
C1392 C1393 1.388 . S
C1393 H1380 0.930 . S
C1393 C1392 1.388 . S
C1393 C1394 1.390 . S
C1394 C1393 1.390 . S
C1394 C1395 1.394 . S
C1394 C1400 1.465 . S
C1395 C1390 1.399 . S
C1395 C1394 1.394 . S
C1395 C1396 1.516 . S
C1396 C1395 1.516 . S
C1396 C1397 1.502 . S
C1396 C1398 1.561 . S
C1396 C1399 1.526 . S
C1397 H1381 0.959 . S
C1397 H1382 0.959 . S
C1397 H1383 0.961 . S
C1397 C1396 1.502 . S
C1398 H1384 0.960 . S
C1398 H1385 0.961 . S
C1398 H1386 0.959 . S
C1398 C1396 1.561 . S
C1399 C1396 1.526 . S
C1399 C1400 1.396 . S
C1399 C1404 1.390 . S
C1400 C1394 1.465 . S
C1400 C1399 1.396 . S
C1400 C1401 1.399 . S
C1401 H1387 0.929 . S
C1401 C1400 1.399 . S
C1401 C1402 1.385 . S
C1402 H1388 0.931 1_655 S
C1402 C1401 1.385 . S
C1402 C1403 1.389 . S
C1403 C1402 1.389 . S
C1403 C1404 1.387 . S
C1404 H1389 0.930 . S
C1404 C1399 1.390 . S
C1404 C1403 1.387 . S
H1405 C1417 0.930 . S
H1406 C1419 0.930 . S
H1407 C1420 0.930 . S
H1408 C1424 0.959 . S
H1409 C1424 0.959 . S
H1410 C1424 0.961 . S
H1411 C1425 0.960 . S
H1412 C1425 0.961 . S
H1413 C1425 0.959 . S
H1414 C1428 0.929 . S
H1415 C1429 0.931 . S
H1416 C1431 0.930 . S
C1417 H1405 0.930 . S
C1417 C1418 1.399 . S
C1417 C1422 1.399 . S
C1418 C1417 1.399 . S
C1418 C1419 1.376 . S
C1419 H1406 0.930 . S
C1419 C1418 1.376 . S
C1419 C1420 1.388 . S
C1420 H1407 0.930 . S
C1420 C1419 1.388 . S
C1420 C1421 1.390 . S
C1421 C1420 1.390 . S
C1421 C1422 1.394 . S
C1421 C1427 1.465 . S
C1422 C1417 1.399 . S
C1422 C1421 1.394 . S
C1422 C1423 1.516 . S
C1423 C1422 1.516 . S
C1423 C1424 1.502 . S
C1423 C1425 1.561 . S
C1423 C1426 1.526 . S
C1424 H1408 0.959 . S
C1424 H1409 0.959 . S
C1424 H1410 0.961 . S
C1424 C1423 1.502 . S
C1425 H1411 0.960 . S
C1425 H1412 0.961 . S
C1425 H1413 0.959 . S
C1425 C1423 1.561 . S
C1426 C1423 1.526 . S
C1426 C1427 1.396 . S
C1426 C1431 1.390 . S
C1427 C1421 1.465 . S
C1427 C1426 1.396 . S
C1427 C1428 1.399 . S
C1428 H1414 0.929 . S
C1428 C1427 1.399 . S
C1428 C1429 1.385 . S
C1429 H1415 0.931 . S
C1429 C1428 1.385 . S
C1429 C1430 1.389 . S
C1430 C1429 1.389 . S
C1430 C1431 1.387 . S
C1431 H1416 0.930 . S
C1431 C1426 1.390 . S
C1431 C1430 1.387 . S
H1432 C1444 0.930 . S
H1433 C1446 0.930 . S
H1434 C1447 0.930 . S
H1435 C1451 0.959 . S
H1436 C1451 0.959 . S
H1437 C1451 0.961 . S
H1438 C1452 0.960 1_554 S
H1439 C1452 0.961 . S
H1440 C1452 0.959 . S
H1441 C1455 0.929 . S
H1442 C1456 0.931 . S
H1443 C1458 0.930 . S
C1444 H1432 0.930 . S
C1444 C1445 1.399 . S
C1444 C1449 1.399 . S
C1445 C1444 1.399 . S
C1445 C1446 1.376 . S
C1446 H1433 0.930 . S
C1446 C1445 1.376 . S
C1446 C1447 1.388 . S
C1447 H1434 0.930 . S
C1447 C1446 1.388 . S
C1447 C1448 1.390 . S
C1448 C1447 1.390 . S
C1448 C1449 1.394 . S
C1448 C1454 1.465 1_554 S
C1449 C1444 1.399 . S
C1449 C1448 1.394 . S
C1449 C1450 1.516 . S
C1450 C1449 1.516 . S
C1450 C1451 1.502 . S
C1450 C1452 1.561 1_554 S
C1450 C1453 1.526 1_554 S
C1451 H1435 0.959 . S
C1451 H1436 0.959 . S
C1451 H1437 0.961 . S
C1451 C1450 1.502 . S
C1452 H1438 0.960 1_556 S
C1452 H1439 0.961 . S
C1452 H1440 0.959 . S
C1452 C1450 1.561 1_556 S
C1453 C1450 1.526 1_556 S
C1453 C1454 1.396 . S
C1453 C1458 1.390 . S
C1454 C1448 1.465 1_556 S
C1454 C1453 1.396 . S
C1454 C1455 1.399 . S
C1455 H1441 0.929 . S
C1455 C1454 1.399 . S
C1455 C1456 1.385 . S
C1456 H1442 0.931 . S
C1456 C1455 1.385 . S
C1456 C1457 1.389 . S
C1457 C1456 1.389 . S
C1457 C1458 1.387 . S
C1458 H1443 0.930 . S
C1458 C1453 1.390 . S
C1458 C1457 1.387 . S
H1459 C1471 0.930 . S
H1460 C1473 0.930 . S
H1461 C1474 0.930 . S
H1462 C1478 0.959 . S
H1463 C1478 0.959 . S
H1464 C1478 0.961 . S
H1465 C1479 0.960 . S
H1466 C1479 0.961 . S
H1467 C1479 0.959 . S
H1468 C1482 0.929 . S
H1469 C1483 0.931 . S
H1470 C1485 0.930 . S
C1471 H1459 0.930 . S
C1471 C1472 1.399 . S
C1471 C1476 1.399 . S
C1472 C1471 1.399 . S
C1472 C1473 1.376 . S
C1473 H1460 0.930 . S
C1473 C1472 1.376 . S
C1473 C1474 1.388 . S
C1474 H1461 0.930 . S
C1474 C1473 1.388 . S
C1474 C1475 1.390 . S
C1475 C1474 1.390 . S
C1475 C1476 1.394 . S
C1475 C1481 1.465 . S
C1476 C1471 1.399 . S
C1476 C1475 1.394 . S
C1476 C1477 1.516 . S
C1477 C1476 1.516 . S
C1477 C1478 1.502 . S
C1477 C1479 1.561 . S
C1477 C1480 1.526 . S
C1478 H1462 0.959 . S
C1478 H1463 0.959 . S
C1478 H1464 0.961 . S
C1478 C1477 1.502 . S
C1479 H1465 0.960 . S
C1479 H1466 0.961 . S
C1479 H1467 0.959 . S
C1479 C1477 1.561 . S
C1480 C1477 1.526 . S
C1480 C1481 1.396 . S
C1480 C1485 1.390 . S
C1481 C1475 1.465 . S
C1481 C1480 1.396 . S
C1481 C1482 1.399 . S
C1482 H1468 0.929 . S
C1482 C1481 1.399 . S
C1482 C1483 1.385 . S
C1483 H1469 0.931 . S
C1483 C1482 1.385 . S
C1483 C1484 1.389 . S
C1484 C1483 1.389 . S
C1484 C1485 1.387 . S
C1485 H1470 0.930 . S
C1485 C1480 1.390 . S
C1485 C1484 1.387 . S
H1486 C1498 0.930 . S
H1487 C1500 0.930 . S
H1488 C1501 0.930 . S
H1489 C1505 0.959 . S
H1490 C1505 0.959 . S
H1491 C1505 0.961 . S
H1492 C1506 0.960 . S
H1493 C1506 0.961 . S
H1494 C1506 0.959 . S
H1495 C1509 0.929 1_554 S
H1496 C1510 0.931 . S
H1497 C1512 0.930 . S
C1498 H1486 0.930 . S
C1498 C1499 1.399 . S
C1498 C1503 1.399 . S
C1499 C1498 1.399 . S
C1499 C1500 1.376 . S
C1500 H1487 0.930 . S
C1500 C1499 1.376 . S
C1500 C1501 1.388 . S
C1501 H1488 0.930 . S
C1501 C1500 1.388 . S
C1501 C1502 1.390 . S
C1502 C1501 1.390 . S
C1502 C1503 1.394 . S
C1502 C1508 1.465 1_554 S
C1503 C1498 1.399 . S
C1503 C1502 1.394 . S
C1503 C1504 1.516 1_554 S
C1504 C1503 1.516 1_556 S
C1504 C1505 1.502 . S
C1504 C1506 1.561 1_655 S
C1504 C1507 1.526 . S
C1505 H1489 0.959 . S
C1505 H1490 0.959 . S
C1505 H1491 0.961 . S
C1505 C1504 1.502 . S
C1506 H1492 0.960 . S
C1506 H1493 0.961 . S
C1506 H1494 0.959 . S
C1506 C1504 1.561 1_455 S
C1507 C1504 1.526 . S
C1507 C1508 1.396 . S
C1507 C1512 1.390 . S
C1508 C1502 1.465 1_556 S
C1508 C1507 1.396 . S
C1508 C1509 1.399 . S
C1509 H1495 0.929 1_556 S
C1509 C1508 1.399 . S
C1509 C1510 1.385 . S
C1510 H1496 0.931 . S
C1510 C1509 1.385 . S
C1510 C1511 1.389 . S
C1511 C1510 1.389 . S
C1511 C1512 1.387 . S
C1512 H1497 0.930 . S
C1512 C1507 1.390 . S
C1512 C1511 1.387 . S
H1513 C1525 0.930 1_545 S
H1514 C1527 0.930 . S
H1515 C1528 0.930 . S
H1516 C1532 0.959 . S
H1517 C1532 0.959 . S
H1518 C1532 0.961 . S
H1519 C1533 0.960 . S
H1520 C1533 0.961 . S
H1521 C1533 0.959 . S
H1522 C1536 0.929 . S
H1523 C1537 0.931 . S
H1524 C1539 0.930 1_545 S
C1525 H1513 0.930 1_565 S
C1525 C1526 1.399 . S
C1525 C1530 1.399 . S
C1526 C1525 1.399 . S
C1526 C1527 1.376 . S
C1527 H1514 0.930 . S
C1527 C1526 1.376 . S
C1527 C1528 1.388 . S
C1528 H1515 0.930 . S
C1528 C1527 1.388 . S
C1528 C1529 1.390 . S
C1529 C1528 1.390 . S
C1529 C1530 1.394 . S
C1529 C1535 1.465 . S
C1530 C1525 1.399 . S
C1530 C1529 1.394 . S
C1530 C1531 1.516 . S
C1531 C1530 1.516 . S
C1531 C1532 1.502 1_565 S
C1531 C1533 1.561 . S
C1531 C1534 1.526 . S
C1532 H1516 0.959 . S
C1532 H1517 0.959 . S
C1532 H1518 0.961 . S
C1532 C1531 1.502 1_545 S
C1533 H1519 0.960 . S
C1533 H1520 0.961 . S
C1533 H1521 0.959 . S
C1533 C1531 1.561 . S
C1534 C1531 1.526 . S
C1534 C1535 1.396 . S
C1534 C1539 1.390 . S
C1535 C1529 1.465 . S
C1535 C1534 1.396 . S
C1535 C1536 1.399 . S
C1536 H1522 0.929 . S
C1536 C1535 1.399 . S
C1536 C1537 1.385 . S
C1537 H1523 0.931 . S
C1537 C1536 1.385 . S
C1537 C1538 1.389 . S
C1538 C1537 1.389 . S
C1538 C1539 1.387 . S
C1539 H1524 0.930 1_565 S
C1539 C1534 1.390 . S
C1539 C1538 1.387 . S
H1540 C1552 0.930 . S
H1541 C1554 0.930 . S
H1542 C1555 0.930 1_556 S
H1543 C1559 0.959 . S
H1544 C1559 0.959 . S
H1545 C1559 0.961 . S
H1546 C1560 0.960 . S
H1547 C1560 0.961 . S
H1548 C1560 0.959 . S
H1549 C1563 0.929 . S
H1550 C1564 0.931 . S
H1551 C1566 0.930 . S
C1552 H1540 0.930 . S
C1552 C1553 1.399 . S
C1552 C1557 1.399 . S
C1553 C1552 1.399 . S
C1553 C1554 1.376 . S
C1554 H1541 0.930 . S
C1554 C1553 1.376 . S
C1554 C1555 1.388 . S
C1555 H1542 0.930 1_554 S
C1555 C1554 1.388 . S
C1555 C1556 1.390 . S
C1556 C1555 1.390 . S
C1556 C1557 1.394 . S
C1556 C1562 1.465 1_554 S
C1557 C1552 1.399 . S
C1557 C1556 1.394 . S
C1557 C1558 1.516 . S
C1558 C1557 1.516 . S
C1558 C1559 1.502 . S
C1558 C1560 1.561 . S
C1558 C1561 1.526 1_554 S
C1559 H1543 0.959 . S
C1559 H1544 0.959 . S
C1559 H1545 0.961 . S
C1559 C1558 1.502 . S
C1560 H1546 0.960 . S
C1560 H1547 0.961 . S
C1560 H1548 0.959 . S
C1560 C1558 1.561 . S
C1561 C1558 1.526 1_556 S
C1561 C1562 1.396 . S
C1561 C1566 1.390 . S
C1562 C1556 1.465 1_556 S
C1562 C1561 1.396 . S
C1562 C1563 1.399 . S
C1563 H1549 0.929 . S
C1563 C1562 1.399 . S
C1563 C1564 1.385 . S
C1564 H1550 0.931 . S
C1564 C1563 1.385 . S
C1564 C1565 1.389 . S
C1565 C1564 1.389 . S
C1565 C1566 1.387 . S
C1566 H1551 0.930 . S
C1566 C1561 1.390 . S
C1566 C1565 1.387 . S
H1567 C1579 0.930 . S
H1568 C1581 0.930 . S
H1569 C1582 0.930 . S
H1570 C1586 0.959 . S
H1571 C1586 0.959 . S
H1572 C1586 0.961 . S
H1573 C1587 0.960 . S
H1574 C1587 0.961 . S
H1575 C1587 0.959 . S
H1576 C1590 0.929 . S
H1577 C1591 0.931 . S
H1578 C1593 0.930 . S
C1579 H1567 0.930 . S
C1579 C1580 1.399 . S
C1579 C1584 1.399 . S
C1580 C1579 1.399 . S
C1580 C1581 1.376 . S
C1581 H1568 0.930 . S
C1581 C1580 1.376 . S
C1581 C1582 1.388 . S
C1582 H1569 0.930 . S
C1582 C1581 1.388 . S
C1582 C1583 1.390 . S
C1583 C1582 1.390 . S
C1583 C1584 1.394 . S
C1583 C1589 1.465 . S
C1584 C1579 1.399 . S
C1584 C1583 1.394 . S
C1584 C1585 1.516 . S
C1585 C1584 1.516 . S
C1585 C1586 1.502 . S
C1585 C1587 1.561 . S
C1585 C1588 1.526 . S
C1586 H1570 0.959 . S
C1586 H1571 0.959 . S
C1586 H1572 0.961 . S
C1586 C1585 1.502 . S
C1587 H1573 0.960 . S
C1587 H1574 0.961 . S
C1587 H1575 0.959 . S
C1587 C1585 1.561 . S
C1588 C1585 1.526 . S
C1588 C1589 1.396 . S
C1588 C1593 1.390 . S
C1589 C1583 1.465 . S
C1589 C1588 1.396 . S
C1589 C1590 1.399 . S
C1590 H1576 0.929 . S
C1590 C1589 1.399 . S
C1590 C1591 1.385 . S
C1591 H1577 0.931 . S
C1591 C1590 1.385 . S
C1591 C1592 1.389 . S
C1592 C1591 1.389 . S
C1592 C1593 1.387 . S
C1593 H1578 0.930 . S
C1593 C1588 1.390 . S
C1593 C1592 1.387 . S
H1594 C1606 0.930 . S
H1595 C1608 0.930 . S
H1596 C1609 0.930 . S
H1597 C1613 0.959 . S
H1598 C1613 0.959 . S
H1599 C1613 0.961 . S
H1600 C1614 0.960 . S
H1601 C1614 0.961 . S
H1602 C1614 0.959 . S
H1603 C1617 0.929 1_556 S
H1604 C1618 0.931 . S
H1605 C1620 0.930 . S
C1606 H1594 0.930 . S
C1606 C1607 1.399 . S
C1606 C1611 1.399 . S
C1607 C1606 1.399 . S
C1607 C1608 1.376 . S
C1608 H1595 0.930 . S
C1608 C1607 1.376 . S
C1608 C1609 1.388 . S
C1609 H1596 0.930 . S
C1609 C1608 1.388 . S
C1609 C1610 1.390 . S
C1610 C1609 1.390 . S
C1610 C1611 1.394 . S
C1610 C1616 1.465 1_556 S
C1611 C1606 1.399 . S
C1611 C1610 1.394 . S
C1611 C1612 1.516 1_556 S
C1612 C1611 1.516 1_554 S
C1612 C1613 1.502 1_455 S
C1612 C1614 1.561 . S
C1612 C1615 1.526 . S
C1613 H1597 0.959 . S
C1613 H1598 0.959 . S
C1613 H1599 0.961 . S
C1613 C1612 1.502 1_655 S
C1614 H1600 0.960 . S
C1614 H1601 0.961 . S
C1614 H1602 0.959 . S
C1614 C1612 1.561 . S
C1615 C1612 1.526 . S
C1615 C1616 1.396 . S
C1615 C1620 1.390 . S
C1616 C1610 1.465 1_554 S
C1616 C1615 1.396 . S
C1616 C1617 1.399 . S
C1617 H1603 0.929 1_554 S
C1617 C1616 1.399 . S
C1617 C1618 1.385 . S
C1618 H1604 0.931 . S
C1618 C1617 1.385 . S
C1618 C1619 1.389 . S
C1619 C1618 1.389 . S
C1619 C1620 1.387 . S
C1620 H1605 0.930 . S
C1620 C1615 1.390 . S
C1620 C1619 1.387 . S
H1621 C1633 0.930 . S
H1622 C1635 0.930 . S
H1623 C1636 0.930 . S
H1624 C1640 0.959 . S
H1625 C1640 0.959 . S
H1626 C1640 0.961 . S
H1627 C1641 0.960 . S
H1628 C1641 0.961 . S
H1629 C1641 0.959 . S
H1630 C1644 0.929 . S
H1631 C1645 0.931 . S
H1632 C1647 0.930 . S
C1633 H1621 0.930 . S
C1633 C1634 1.399 . S
C1633 C1638 1.399 . S
C1634 C1633 1.399 . S
C1634 C1635 1.376 . S
C1635 H1622 0.930 . S
C1635 C1634 1.376 . S
C1635 C1636 1.388 . S
C1636 H1623 0.930 . S
C1636 C1635 1.388 . S
C1636 C1637 1.390 . S
C1637 C1636 1.390 . S
C1637 C1638 1.394 . S
C1637 C1643 1.465 . S
C1638 C1633 1.399 . S
C1638 C1637 1.394 . S
C1638 C1639 1.516 . S
C1639 C1638 1.516 . S
C1639 C1640 1.502 . S
C1639 C1641 1.561 1_545 S
C1639 C1642 1.526 . S
C1640 H1624 0.959 . S
C1640 H1625 0.959 . S
C1640 H1626 0.961 . S
C1640 C1639 1.502 . S
C1641 H1627 0.960 . S
C1641 H1628 0.961 . S
C1641 H1629 0.959 . S
C1641 C1639 1.561 1_565 S
C1642 C1639 1.526 . S
C1642 C1643 1.396 . S
C1642 C1647 1.390 . S
C1643 C1637 1.465 . S
C1643 C1642 1.396 . S
C1643 C1644 1.399 . S
C1644 H1630 0.929 . S
C1644 C1643 1.399 . S
C1644 C1645 1.385 . S
C1645 H1631 0.931 . S
C1645 C1644 1.385 . S
C1645 C1646 1.389 . S
C1646 C1645 1.389 . S
C1646 C1647 1.387 . S
C1647 H1632 0.930 . S
C1647 C1642 1.390 . S
C1647 C1646 1.387 . S
C365 C21 1.349 . S
C377 C219 1.334 . S
C392 C43 1.345 . S
C404 C227 1.368 . S
C419 C249 1.355 . S
C431 C59 1.365 . S
C446 C197 1.345 . S
C458 C81 1.366 . S
C473 C95 1.312 . S
C485 C351 1.366 . S
C500 C285 1.333 . S
C512 C131 1.349 . S
C527 C307 1.362 . S
C539 C147 1.308 . S
C554 C323 1.352 . S
C566 C169 1.306 . S
C581 C37 1.364 . S
C593 C191 1.316 . S
C608 C213 1.359 . S
C620 C51 1.344 . S
C635 C73 1.364 . S
C647 C241 1.317 . S
C662 C15 1.361 . S
C674 C263 1.338 . S
C689 C161 1.341 . S
C701 C279 1.360 . S
C716 C109 1.365 . S
C728 C301 1.322 . S
C743 C315 1.359 . S
C755 C125 1.344 . S
C770 C139 1.325 . S
C782 C345 1.357 . S
C797 C10 1.336 . S
C809 C337 1.354 . S
C824 C32 1.358 . S
C836 C271 1.323 . S
C851 C62 1.345 . S
C863 C293 1.296 . S
C878 C329 1.299 . S
C890 C84 1.354 . S
C905 C96 1.337 . S
C917 C205 1.298 . S
C932 C120 1.346 . S
C944 C235 1.346 . S
C959 C150 1.339 . S
C971 C257 1.298 . S
C986 C183 1.300 . S
C998 C172 1.354 . S
C1013 C184 1.361 . S
C1025 C175 1.323 . S
C1040 C206 1.344 . S
C1052 C103 1.366 . S
C1067 C238 1.364 . S
C1079 C117 1.328 . S
C1094 C260 1.337 . S
C1106 C153 1.319 . S
C1121 C29 1.367 . S
C1133 C272 1.346 . S
C1148 C65 1.339 . S
C1160 C294 1.368 . S
C1175 C87 1.367 . S
C1187 C318 1.349 . S
C1202 C338 1.337 . S
C1214 C7 1.319 . S
C1229 C162 1.272 1_545 S
C1241 C18 1.224 . S
C1256 C98 1.243 . S
C1268 C40 1.261 . S
C1283 C52 1.197 1_455 S
C1295 C128 1.266 . S
C1310 C74 1.199 1_545 S
C1322 C140 1.269 1_455 S
C1337 C348 1.249 1_565 S
C1349 C194 1.280 . S
C1364 C216 1.256 . S
C1376 C282 1.208 . S
C1391 C304 1.208 . S
C1403 C230 1.244 1_655 S
C1418 C252 1.237 1_565 S
C1430 C316 1.282 1_655 S
C1445 C8 1.316 . S
C1457 C106 1.330 . S
C1472 C118 1.271 . S
C1484 C30 1.258 . S
C1499 C54 1.300 . S
C1511 C142 1.281 . S
C1526 C164 1.253 . S
C1538 C76 1.264 . S
C1553 C274 1.293 . S
C1565 C186 1.290 . S
C1580 C296 1.313 . S
C1592 C208 1.312 . S
C1607 C228 1.228 . S
C1619 C326 1.232 . S
C1634 C250 1.285 . S
C1646 C340 1.281 . S
