# Generated by pormake.
# Topology vbm, (6)-cn, num edge types: 1
# Building blocks:
#     Node 0, Type 0, BuildingBlock: BETGAK_clean_sbu_0, # of connection points: 6
#     Node 1, Type 0, BuildingBlock: BETGAK_clean_sbu_0, # of connection points: 6
#     Node 2, Type 0, BuildingBlock: BETGAK_clean_sbu_0, # of connection points: 6
#     Node 3, Type 0, BuildingBlock: BETGAK_clean_sbu_0, # of connection points: 6
#     Node 4, Type 0, BuildingBlock: BETGAK_clean_sbu_0, # of connection points: 6
#     Node 5, Type 0, BuildingBlock: BETGAK_clean_sbu_0, # of connection points: 6
#     Node 6, Type 0, BuildingBlock: BETGAK_clean_sbu_0, # of connection points: 6
#     Node 7, Type 0, BuildingBlock: BETGAK_clean_sbu_0, # of connection points: 6
#     Node 8, Type 0, BuildingBlock: BETGAK_clean_sbu_0, # of connection points: 6
#     Node 9, Type 0, BuildingBlock: BETGAK_clean_sbu_0, # of connection points: 6
#     Node 10, Type 0, BuildingBlock: BETGAK_clean_sbu_0, # of connection points: 6
#     Node 11, Type 0, BuildingBlock: BETGAK_clean_sbu_0, # of connection points: 6
#     Node 12, Type 0, BuildingBlock: BETGAK_clean_sbu_0, # of connection points: 6
#     Node 13, Type 0, BuildingBlock: BETGAK_clean_sbu_0, # of connection points: 6
#     Node 14, Type 0, BuildingBlock: BETGAK_clean_sbu_0, # of connection points: 6
#     Node 15, Type 0, BuildingBlock: BETGAK_clean_sbu_0, # of connection points: 6
#     Edge 16, Type (0, 0), None
#     Edge 17, Type (0, 0), None
#     Edge 18, Type (0, 0), None
#     Edge 19, Type (0, 0), None
#     Edge 20, Type (0, 0), None
#     Edge 21, Type (0, 0), None
#     Edge 22, Type (0, 0), None
#     Edge 23, Type (0, 0), None
#     Edge 24, Type (0, 0), None
#     Edge 25, Type (0, 0), None
#     Edge 26, Type (0, 0), None
#     Edge 27, Type (0, 0), None
#     Edge 28, Type (0, 0), None
#     Edge 29, Type (0, 0), None
#     Edge 30, Type (0, 0), None
#     Edge 31, Type (0, 0), None
#     Edge 32, Type (0, 0), None
#     Edge 33, Type (0, 0), None
#     Edge 34, Type (0, 0), None
#     Edge 35, Type (0, 0), None
#     Edge 36, Type (0, 0), None
#     Edge 37, Type (0, 0), None
#     Edge 38, Type (0, 0), None
#     Edge 39, Type (0, 0), None
#     Edge 40, Type (0, 0), None
#     Edge 41, Type (0, 0), None
#     Edge 42, Type (0, 0), None
#     Edge 43, Type (0, 0), None
#     Edge 44, Type (0, 0), None
#     Edge 45, Type (0, 0), None
#     Edge 46, Type (0, 0), None
#     Edge 47, Type (0, 0), None
#     Edge 48, Type (0, 0), None
#     Edge 49, Type (0, 0), None
#     Edge 50, Type (0, 0), None
#     Edge 51, Type (0, 0), None
#     Edge 52, Type (0, 0), None
#     Edge 53, Type (0, 0), None
#     Edge 54, Type (0, 0), None
#     Edge 55, Type (0, 0), None
#     Edge 56, Type (0, 0), None
#     Edge 57, Type (0, 0), None
#     Edge 58, Type (0, 0), None
#     Edge 59, Type (0, 0), None
#     Edge 60, Type (0, 0), None
#     Edge 61, Type (0, 0), None
#     Edge 62, Type (0, 0), None
#     Edge 63, Type (0, 0), None
# Relax obj value: 0.101
# Max RMSD: 0.209
# Mean RMSD: 0.209
data_MOF--net-vbm--node1-BETGAK_clean_sbu_0--edge1-none
_symmetry_space_group_name_H-M    P1
_symmetry_Int_Tables_number       1
_symmetry_cell_setting            triclinic
loop_
_symmetry_equiv_pos_as_xyz
'x, y, z'
_cell_length_a     23.017137
_cell_length_b     15.751497
_cell_length_c     22.70277
_cell_angle_alpha  90.136327
_cell_angle_beta   90.132153
_cell_angle_gamma 89.821903
loop_
_atom_site_label
_atom_site_type_symbol
_atom_site_fract_x
_atom_site_fract_y
_atom_site_fract_z
_atom_type_partial_charge
La0 La 0.11561 0.14787 0.18049 0.0
La1 La 0.03838 0.27727 0.20306 0.0
C2 C 0.15727 1.00183 0.17366 0.0
C3 C 0.12663 0.91991 0.1747 0.0
C4 C 0.09145 0.89351 0.12728 0.0
C5 C 0.06579 0.81324 0.12745 0.0
C6 C 0.07437 0.75866 0.17539 0.0
C7 C 0.10528 0.78866 0.22487 0.0
C8 C 0.13096 0.86834 0.22452 0.0
C9 C 0.11 0.24725 0.08744 0.0
C10 C -0.02481 0.12593 0.16092 0.0
C11 C -0.01124 0.41961 0.20595 0.0
C12 C 0.01201 0.50391 0.19081 0.0
C13 C 0.06812 0.52593 0.20857 0.0
C14 C 0.0888 0.60708 0.20036 0.0
C15 C 0.05423 0.66938 0.17382 0.0
C16 C 0.00049 0.64529 0.14925 0.0
C17 C -0.02021 0.56226 0.15719 0.0
C18 C 0.04423 0.15533 0.28941 0.0
C19 C 0.17258 0.32193 0.21265 0.0
O20 O 0.14819 1.04954 0.12767 0.0
O21 O 0.15661 1.04536 0.22274 0.0
O22 O 0.1571 0.2223 0.11346 0.0
O23 O 0.06699 0.22367 0.11875 0.0
O24 O 0.02656 1.08971 0.17195 0.0
O25 O -0.02977 0.20795 0.16237 0.0
O26 O 0.01083 0.38267 0.25273 0.0
O27 O -0.01537 0.36725 0.16162 0.0
O28 O -0.00223 0.19464 0.27187 0.0
O29 O 0.08537 0.19056 0.26204 0.0
O30 O 0.12008 0.34903 0.20039 0.0
O31 O 0.18205 0.23863 0.21371 0.0
H32 H 0.08458 0.93406 0.08945 0.0
H33 H 0.04114 0.79304 0.08928 0.0
H34 H 0.11098 0.74987 0.26375 0.0
H35 H 0.15545 0.88874 0.26281 0.0
H36 H 0.09485 0.48333 0.23383 0.0
H37 H 0.1308 0.62179 0.21838 0.0
H38 H -0.02668 0.69106 0.12665 0.0
H39 H 0.93779 0.54493 0.13937 0.0
La40 La 0.78041 1.06082 0.1832 0.0
La41 La 0.85558 0.93248 0.21478 0.0
C42 C 0.73386 0.20548 0.1744 0.0
C43 C 0.75518 0.29321 0.18195 0.0
C44 C 0.76002 0.34693 0.13307 0.0
C45 C 0.78323 0.42843 0.13924 0.0
C46 C 0.79961 0.45914 0.19511 0.0
C47 C 0.79111 0.40691 0.24446 0.0
C48 C 0.77026 0.32453 0.23789 0.0
C49 C 0.78803 0.95208 0.09475 0.0
C50 C 0.92101 1.07642 0.16382 0.0
C51 C 0.90165 0.79011 0.23071 0.0
C52 C 0.87704 0.70571 0.21864 0.0
C53 C 0.89395 0.63744 0.25332 0.0
C54 C 0.86907 0.55767 0.24554 0.0
C55 C 0.82598 0.54462 0.20249 0.0
C56 C 0.80948 0.61339 0.16658 0.0
C57 C 0.83518 0.69306 0.17428 0.0
C58 C 0.84989 1.06264 0.29462 0.0
C59 C 0.7217 0.88574 0.21467 0.0
O60 O 0.75434 0.16312 0.12949 0.0
O61 O 0.73231 0.1588 0.22185 0.0
O62 O 0.74059 0.9843 0.11581 0.0
O63 O 0.83004 0.97698 0.12708 0.0
O64 O 0.87 0.11537 0.17206 0.0
O65 O 0.9254 0.99485 0.17147 0.0
O66 O 0.87639 0.83323 0.2728 0.0
O67 O 0.91164 0.83683 0.18443 0.0
O68 O 0.89613 1.02123 0.2795 0.0
O69 O 0.80831 1.02642 0.26804 0.0
O70 O 0.77519 0.85781 0.21166 0.0
O71 O 0.71213 0.9689 0.21063 0.0
H72 H 0.74563 0.32578 0.09017 0.0
H73 H 0.78826 0.46708 0.10026 0.0
H74 H 0.80014 0.42986 0.28846 0.0
H75 H 0.76496 0.28616 0.27691 0.0
H76 H 0.92734 0.64613 0.28565 0.0
H77 H 0.88488 0.50569 0.27225 0.0
H78 H 0.77623 0.60629 0.13314 0.0
H79 H 0.82195 0.7447 0.14583 0.0
La80 La 0.11434 1.0594 0.43285 0.0
La81 La 0.04123 0.93581 0.39938 0.0
C82 C 0.15529 0.2059 0.44451 0.0
C83 C 0.12853 0.29037 0.43525 0.0
C84 C 0.08958 0.32583 0.47632 0.0
C85 C 0.06758 0.40796 0.46848 0.0
C86 C 0.08377 0.45605 0.4192 0.0
C87 C 0.12069 0.41859 0.37694 0.0
C88 C 0.14189 0.33645 0.38444 0.0
C89 C 0.11118 0.95091 0.52056 0.0
C90 C -0.02621 1.07214 0.45495 0.0
C91 C -0.00175 0.7954 0.37287 0.0
C92 C 0.0195 0.70937 0.38715 0.0
C93 C 0.03072 0.65321 0.34107 0.0
C94 C 0.0493 0.57095 0.35271 0.0
C95 C 0.06119 0.54375 0.41003 0.0
C96 C 0.05164 0.60087 0.45682 0.0
C97 C 0.03049 0.68298 0.44549 0.0
C98 C 0.04483 1.07017 0.32248 0.0
C99 C 0.17275 0.88336 0.40225 0.0
O100 O 0.13569 0.16129 0.48844 0.0
O101 O 0.1632 0.15944 0.39742 0.0
O102 O 0.15742 0.98447 0.49832 0.0
O103 O 0.06732 0.97358 0.48942 0.0
O104 O 0.02408 0.11188 0.44564 0.0
O105 O -0.02915 0.99058 0.44697 0.0
O106 O 0.03081 0.83881 0.33675 0.0
O107 O -0.02042 0.84142 0.41694 0.0
O108 O -0.00084 1.02898 0.33842 0.0
O109 O 0.08702 1.03196 0.34679 0.0
O110 O 0.11939 0.85709 0.40871 0.0
O111 O 0.18236 0.96678 0.40335 0.0
H112 H 0.07601 0.2903 0.51461 0.0
H113 H 0.03755 0.43335 0.50072 0.0
H114 H 0.13474 0.45339 0.33849 0.0
H115 H 0.1703 0.30996 0.35112 0.0
H116 H 0.02298 0.67212 0.29603 0.0
H117 H 0.05155 0.52645 0.31728 0.0
H118 H 0.06088 0.58262 0.50184 0.0
H119 H 0.02338 0.72575 0.48221 0.0
La120 La 0.77856 0.14342 0.44058 0.0
La121 La 0.85511 0.27155 0.41296 0.0
C122 C 0.73177 1.00018 0.45312 0.0
C123 C 0.75469 0.9126 0.44862 0.0
C124 C 0.7562 0.86062 0.49869 0.0
C125 C 0.7795 0.77843 0.49585 0.0
C126 C 0.80094 0.74627 0.44233 0.0
C127 C 0.79692 0.79736 0.39174 0.0
C128 C 0.77544 0.8801 0.395 0.0
C129 C 0.7882 0.24849 0.53133 0.0
C130 C 0.91911 0.12111 0.4571 0.0
C131 C 0.90254 0.41419 0.40774 0.0
C132 C 0.87868 0.49862 0.42202 0.0
C133 C 0.90087 0.56867 0.39305 0.0
C134 C 0.87667 0.649 0.40123 0.0
C135 C 0.82869 0.66091 0.43843 0.0
C136 C 0.80745 0.59061 0.46985 0.0
C137 C 0.83251 0.51002 0.46191 0.0
C138 C 0.84963 0.14614 0.32952 0.0
C139 C 0.72159 0.31889 0.40508 0.0
O140 O 0.752 1.04516 0.49679 0.0
O141 O 0.7289 1.0444 0.40451 0.0
O142 O 0.74014 0.22393 0.50715 0.0
O143 O 0.82928 0.22186 0.49877 0.0
O144 O 0.86781 1.08429 0.44697 0.0
O145 O 0.92371 0.20319 0.45412 0.0
O146 O 0.8801 0.37622 0.36166 0.0
O147 O 0.90864 0.36285 0.45233 0.0
O148 O 0.89574 0.18797 0.3448 0.0
O149 O 0.80795 0.18069 0.35705 0.0
O150 O 0.77472 0.34652 0.4117 0.0
O151 O 0.7117 0.23578 0.40893 0.0
H152 H 0.7398 0.88439 0.54013 0.0
H153 H 0.78115 0.74056 0.53553 0.0
H154 H 0.80984 0.77282 0.34926 0.0
H155 H 0.77384 0.91761 0.35517 0.0
H156 H 0.93599 0.55972 0.36265 0.0
H157 H 0.89493 0.7019 0.37754 0.0
H158 H 0.7706 0.59721 0.4991 0.0
H159 H 0.81507 0.45668 0.48601 0.0
La160 La 0.86175 0.91582 0.91399 0.0
La161 La 0.78418 1.04568 0.93654 0.0
C162 C 0.91146 0.77355 0.91156 0.0
C163 C 0.88821 0.68925 0.92664 0.0
C164 C 0.8321 0.66729 0.90886 0.0
C165 C 0.81139 0.58618 0.91705 0.0
C166 C 0.84594 0.52382 0.94354 0.0
C167 C 0.89969 0.54783 0.96812 0.0
C168 C 0.92042 0.63084 0.96023 0.0
C169 C 0.85582 1.03766 0.82763 0.0
C170 C 0.72741 0.87139 0.90423 0.0
C171 C 0.74259 0.19168 0.94337 0.0
C172 C 0.77333 0.2735 0.94241 0.0
C173 C 0.80853 0.29971 0.98986 0.0
C174 C 0.83428 0.37991 0.98976 0.0
C175 C 0.82578 0.43457 0.94186 0.0
C176 C 0.79488 0.40472 0.89233 0.0
C177 C 0.7691 0.32512 0.89261 0.0
C178 C 0.78995 0.94615 1.02932 0.0
C179 C 0.9248 1.06739 0.95595 0.0
O180 O 0.88962 0.81033 0.86459 0.0
O181 O 0.91524 0.82598 0.95589 0.0
O182 O 0.90228 0.99811 0.84497 0.0
O183 O 0.81469 1.00275 0.85523 0.0
O184 O 0.77994 0.84425 0.91641 0.0
O185 O 0.71789 0.95471 0.90325 0.0
O186 O 0.75154 0.14392 0.98937 0.0
O187 O 0.74326 0.1482 0.89426 0.0
O188 O 0.74275 0.97099 1.00344 0.0
O189 O 0.83295 0.96994 0.99805 0.0
O190 O 0.87337 0.10361 0.94501 0.0
O191 O 0.9298 0.98537 0.95457 0.0
H192 H 0.8054 0.70991 0.88361 0.0
H193 H 0.76937 0.57153 0.89905 0.0
H194 H 0.92685 0.502 0.99068 0.0
H195 H -0.03757 0.64813 0.97805 0.0
H196 H 0.81534 0.25908 1.02766 0.0
H197 H 0.85893 0.4 1.02797 0.0
H198 H 0.78922 0.44359 0.85349 0.0
H199 H 0.74462 0.30484 0.85429 0.0
La200 La 0.04434 0.26094 0.90213 0.0
La201 La 0.11979 0.13224 0.93385 0.0
C202 C -0.00175 0.40328 0.88635 0.0
C203 C 0.02288 0.48766 0.89838 0.0
C204 C 0.00598 0.55593 0.86371 0.0
C205 C 0.03086 0.63568 0.87149 0.0
C206 C 0.07395 0.6487 0.91455 0.0
C207 C 0.09048 0.57991 0.95042 0.0
C208 C 0.06477 0.50026 0.94272 0.0
C209 C 0.05016 0.13081 0.82232 0.0
C210 C 0.17831 0.30754 0.90221 0.0
C211 C 0.1663 0.98762 0.94267 0.0
C212 C 0.14489 0.89996 0.93513 0.0
C213 C 0.13996 0.84627 0.98401 0.0
C214 C 0.11668 0.76483 0.97782 0.0
C215 C 0.10032 0.73414 0.92194 0.0
C216 C 0.10887 0.78636 0.8726 0.0
C217 C 0.1298 0.86869 0.87918 0.0
C218 C 0.11199 0.24112 1.02201 0.0
C219 C -0.02101 0.11689 0.95303 0.0
O220 O 0.02342 0.3602 0.84418 0.0
O221 O -0.01165 0.35655 0.93265 0.0
O222 O 0.00393 0.1724 0.83723 0.0
O223 O 0.09171 0.16675 0.84915 0.0
O224 O 0.12481 0.33548 0.90519 0.0
O225 O 0.18792 0.22437 0.90631 0.0
O226 O 0.14586 1.03001 0.9876 0.0
O227 O 0.16789 1.03428 0.89521 0.0
O228 O 0.15953 0.20904 1.0011 0.0
O229 O 0.06999 0.21604 0.98972 0.0
O230 O 0.03005 1.07793 0.94489 0.0
O231 O -0.02543 0.19846 0.94539 0.0
H232 H -0.0274 0.54725 0.83137 0.0
H233 H 0.01505 0.68767 0.84479 0.0
H234 H 0.12374 0.58699 0.98385 0.0
H235 H 0.07802 0.44859 0.97114 0.0
H236 H 0.15433 0.8674 1.02692 0.0
H237 H 0.1116 0.72618 1.0168 0.0
H238 H 0.09983 0.76343 0.82859 0.0
H239 H 0.13513 0.90706 0.84016 0.0
La240 La 0.85884 0.2575 0.71784 0.0
La241 La 0.78566 0.13381 0.68435 0.0
C242 C 0.90184 0.3979 0.7443 0.0
C243 C 0.88057 0.48392 0.73007 0.0
C244 C 0.86925 0.54001 0.77616 0.0
C245 C 0.85065 0.62226 0.76457 0.0
C246 C 0.83887 0.64956 0.70724 0.0
C247 C 0.84849 0.59251 0.66043 0.0
C248 C 0.86965 0.5104 0.67173 0.0
C249 C 0.85525 0.12308 0.79485 0.0
C250 C 0.7273 0.30996 0.71506 0.0
C251 C 0.74474 0.98734 0.67265 0.0
C252 C 0.77153 0.90291 0.68196 0.0
C253 C 0.8105 0.86745 0.64091 0.0
C254 C 0.83252 0.78533 0.64879 0.0
C255 C 0.81632 0.73728 0.69808 0.0
C256 C 0.77942 0.77476 0.74033 0.0
C257 C 0.75821 0.85689 0.7328 0.0
C258 C 0.7889 0.24244 0.59685 0.0
C259 C 0.92631 0.12125 0.66233 0.0
O260 O 0.86934 0.35448 0.78047 0.0
O261 O 0.92045 0.3519 0.7002 0.0
O262 O 0.9009 0.16434 0.77891 0.0
O263 O 0.81312 0.16117 0.77039 0.0
O264 O 0.78067 0.33622 0.7086 0.0
O265 O 0.71768 0.22653 0.71391 0.0
O266 O 0.76436 1.03195 0.62872 0.0
O267 O 0.73676 1.0338 0.71973 0.0
O268 O 0.74257 0.20904 0.61901 0.0
O269 O 0.83274 0.21945 0.62791 0.0
O270 O 0.87601 1.08149 0.67161 0.0
O271 O 0.92925 0.2028 0.67028 0.0
H272 H 0.87695 0.52104 0.8212 0.0
H273 H 0.84831 0.66667 0.80004 0.0
H274 H 0.83932 0.61081 0.6154 0.0
H275 H 0.87682 0.46769 0.63498 0.0
H276 H 0.82407 0.90295 0.60261 0.0
H277 H 0.86255 0.75994 0.61655 0.0
H278 H 0.76536 0.74 0.7788 0.0
H279 H 0.72978 0.88339 0.76611 0.0
La280 La 0.04487 0.9217 0.70426 0.0
La281 La 0.12172 1.05016 0.67658 0.0
C282 C -0.00259 0.7791 0.70923 0.0
C283 C 0.02131 0.69469 0.69499 0.0
C284 C -0.00089 0.62463 0.72392 0.0
C285 C 0.02335 0.54433 0.71578 0.0
C286 C 0.07138 0.53247 0.67863 0.0
C287 C 0.09265 0.60278 0.64726 0.0
C288 C 0.06756 0.68335 0.65518 0.0
C289 C 0.05044 1.04706 0.78768 0.0
C290 C 0.17847 0.87447 0.71222 0.0
C291 C 0.16849 0.19335 0.66403 0.0
C292 C 0.1455 0.2809 0.6685 0.0
C293 C 0.144 0.33286 0.61843 0.0
C294 C 0.12065 0.41501 0.62125 0.0
C295 C 0.09916 0.44714 0.67476 0.0
C296 C 0.10315 0.39606 0.72536 0.0
C297 C 0.12468 0.31335 0.7221 0.0
C298 C 0.11192 0.94502 0.58609 0.0
C299 C -0.01899 1.07229 0.66018 0.0
O300 O 0.01969 0.81699 0.75542 0.0
O301 O -0.00852 0.83048 0.66462 0.0
O302 O 0.00434 1.00506 0.77257 0.0
O303 O 0.09209 1.01278 0.75994 0.0
O304 O 0.12533 0.84683 0.70564 0.0
O305 O 0.18842 0.95758 0.70832 0.0
O306 O 0.14832 0.14835 0.62034 0.0
O307 O 0.17135 0.14916 0.71267 0.0
O308 O 0.16008 0.96942 0.61015 0.0
O309 O 0.07083 0.97179 0.61859 0.0
O310 O 0.03235 0.10912 0.67024 0.0
O311 O -0.02363 0.99021 0.66313 0.0
H312 H -0.03606 0.63355 0.75428 0.0
H313 H 0.00508 0.49141 0.73945 0.0
H314 H 0.12955 0.59622 0.61807 0.0
H315 H 0.08503 0.73671 0.63113 0.0
H316 H 0.16044 0.30911 0.577 0.0
H317 H 0.11902 0.45289 0.58158 0.0
H318 H 0.09016 0.42057 0.76783 0.0
H319 H 0.12626 0.27583 0.76194 0.0
La320 La 0.61562 0.64786 0.1805 0.0
La321 La 0.53838 0.77726 0.20307 0.0
C322 C 0.65727 0.50183 0.17367 0.0
C323 C 0.62664 0.4199 0.17471 0.0
C324 C 0.59146 0.39349 0.12729 0.0
C325 C 0.56581 0.31322 0.12746 0.0
C326 C 0.57438 0.25865 0.17541 0.0
C327 C 0.60528 0.28866 0.22489 0.0
C328 C 0.63097 0.36834 0.22454 0.0
C329 C 0.61 0.74724 0.08744 0.0
C330 C 0.47519 0.62593 0.16092 0.0
C331 C 0.48876 0.9196 0.20596 0.0
C332 C 0.51202 1.0039 0.19082 0.0
C333 C 0.56813 1.02592 0.2086 0.0
C334 C 0.5888 0.10707 0.20039 0.0
C335 C 0.55424 0.16937 0.17384 0.0
C336 C 0.50051 0.14527 0.14925 0.0
C337 C 0.47981 1.06225 0.15719 0.0
C338 C 0.54423 0.65531 0.28942 0.0
C339 C 0.67258 0.82192 0.21265 0.0
O340 O 0.64819 0.54953 0.12768 0.0
O341 O 0.65662 0.54536 0.22275 0.0
O342 O 0.6571 0.72229 0.11346 0.0
O343 O 0.56699 0.72366 0.11876 0.0
O344 O 0.52656 0.58971 0.17195 0.0
O345 O 0.47024 0.70795 0.16237 0.0
O346 O 0.51082 0.88266 0.25274 0.0
O347 O 0.48464 0.86725 0.16162 0.0
O348 O 0.49777 0.69463 0.27187 0.0
O349 O 0.58537 0.69055 0.26204 0.0
O350 O 0.62008 0.84903 0.2004 0.0
O351 O 0.68205 0.73863 0.21371 0.0
H352 H 0.5846 0.43404 0.08946 0.0
H353 H 0.54116 0.29302 0.08929 0.0
H354 H 0.61097 0.24988 0.26377 0.0
H355 H 0.65544 0.38875 0.26283 0.0
H356 H 0.59485 0.98333 0.23386 0.0
H357 H 0.63079 0.12179 0.21842 0.0
H358 H 0.47334 0.19104 0.12664 0.0
H359 H 0.43782 1.04491 0.13936 0.0
La360 La 0.28041 0.56082 0.18319 0.0
La361 La 0.35558 0.43248 0.21477 0.0
C362 C 0.23386 0.70548 0.1744 0.0
C363 C 0.25518 0.79321 0.18193 0.0
C364 C 0.26001 0.84693 0.13306 0.0
C365 C 0.28322 0.92843 0.13923 0.0
C366 C 0.29961 0.95914 0.19509 0.0
C367 C 0.29112 0.90691 0.24444 0.0
C368 C 0.27026 0.82453 0.23787 0.0
C369 C 0.28803 0.45209 0.09474 0.0
C370 C 0.42101 0.57642 0.16381 0.0
C371 C 0.40165 0.29011 0.23069 0.0
C372 C 0.37704 0.2057 0.21862 0.0
C373 C 0.39396 0.13743 0.25329 0.0
C374 C 0.36908 1.05766 0.24551 0.0
C375 C 0.32598 1.04462 0.20246 0.0
C376 C 0.30947 0.11339 0.16657 0.0
C377 C 0.33518 0.19306 0.17426 0.0
C378 C 0.34989 0.56264 0.29461 0.0
C379 C 0.2217 0.38574 0.21466 0.0
O380 O 0.25433 0.66312 0.12949 0.0
O381 O 0.23232 0.6588 0.22184 0.0
O382 O 0.24059 0.4843 0.1158 0.0
O383 O 0.33004 0.47698 0.12707 0.0
O384 O 0.37 0.61537 0.17206 0.0
O385 O 0.4254 0.49485 0.17146 0.0
O386 O 0.3764 0.33322 0.27278 0.0
O387 O 0.41164 0.33683 0.18441 0.0
O388 O 0.39613 0.52122 0.27949 0.0
O389 O 0.30831 0.52642 0.26804 0.0
O390 O 0.27519 0.35781 0.21166 0.0
O391 O 0.21213 0.4689 0.21062 0.0
H392 H 0.24561 0.82578 0.09016 0.0
H393 H 0.28823 0.96708 0.10024 0.0
H394 H 0.30015 0.92986 0.28844 0.0
H395 H 0.26497 0.78616 0.2769 0.0
H396 H 0.42736 0.14612 0.2856 0.0
H397 H 0.38489 1.00568 0.27221 0.0
H398 H 0.27622 0.1063 0.13313 0.0
H399 H 0.32194 0.24471 0.14582 0.0
La400 La 0.61434 0.5594 0.43286 0.0
La401 La 0.54123 0.4358 0.39939 0.0
C402 C 0.65529 0.70589 0.44451 0.0
C403 C 0.62853 0.79037 0.43527 0.0
C404 C 0.58957 0.82581 0.47633 0.0
C405 C 0.56756 0.90794 0.4685 0.0
C406 C 0.58376 0.95604 0.41923 0.0
C407 C 0.62069 0.9186 0.37697 0.0
C408 C 0.64188 0.83646 0.38446 0.0
C409 C 0.61118 0.45091 0.52057 0.0
C410 C 0.47379 0.57214 0.45496 0.0
C411 C 0.49823 0.2954 0.37291 0.0
C412 C 0.51948 0.20937 0.38718 0.0
C413 C 0.53071 0.15321 0.3411 0.0
C414 C 0.54929 1.07095 0.35274 0.0
C415 C 0.56117 1.04374 0.41006 0.0
C416 C 0.55161 0.10085 0.45685 0.0
C417 C 0.53046 0.18296 0.44552 0.0
C418 C 0.54483 0.57015 0.32249 0.0
C419 C 0.67275 0.38336 0.40226 0.0
O420 O 0.6357 0.66128 0.48845 0.0
O421 O 0.66319 0.65944 0.39742 0.0
O422 O 0.65742 0.48447 0.49833 0.0
O423 O 0.56732 0.47358 0.48943 0.0
O424 O 0.52408 0.61188 0.44564 0.0
O425 O 0.47084 0.49059 0.44698 0.0
O426 O 0.53078 0.3388 0.33677 0.0
O427 O 0.47958 0.34143 0.41697 0.0
O428 O 0.49915 0.52896 0.33843 0.0
O429 O 0.58702 0.53195 0.34681 0.0
O430 O 0.61939 0.35708 0.40871 0.0
O431 O 0.68236 0.46677 0.40337 0.0
H432 H 0.576 0.79028 0.51462 0.0
H433 H 0.53753 0.93332 0.50074 0.0
H434 H 0.63474 0.95341 0.33852 0.0
H435 H 0.67031 0.80998 0.35114 0.0
H436 H 0.52298 0.17213 0.29606 0.0
H437 H 0.55155 1.02646 0.31731 0.0
H438 H 0.56084 1.0826 0.50187 0.0
H439 H 0.52334 0.22572 0.48224 0.0
La440 La 0.27856 0.64342 0.44057 0.0
La441 La 0.35511 0.77155 0.41295 0.0
C442 C 0.23177 0.50018 0.45311 0.0
C443 C 0.25469 0.4126 0.44861 0.0
C444 C 0.25621 0.36062 0.49867 0.0
C445 C 0.27951 0.27843 0.49583 0.0
C446 C 0.30094 0.24627 0.4423 0.0
C447 C 0.29691 0.29736 0.39171 0.0
C448 C 0.27543 0.3801 0.39498 0.0
C449 C 0.2882 0.74849 0.53132 0.0
C450 C 0.41911 0.62112 0.4571 0.0
C451 C 0.40255 0.91418 0.40772 0.0
C452 C 0.37869 0.99862 0.422 0.0
C453 C 0.40086 1.06866 0.39301 0.0
C454 C 0.37666 0.14899 0.40118 0.0
C455 C 0.32869 0.1609 0.4384 0.0
C456 C 0.30746 1.09061 0.46984 0.0
C457 C 0.33252 1.01003 0.4619 0.0
C458 C 0.34963 0.64613 0.32952 0.0
C459 C 0.2216 0.81889 0.40508 0.0
O460 O 0.252 0.54516 0.49678 0.0
O461 O 0.2289 0.54441 0.4045 0.0
O462 O 0.24014 0.72393 0.50715 0.0
O463 O 0.32928 0.72186 0.49876 0.0
O464 O 0.36781 0.58429 0.44697 0.0
O465 O 0.42371 0.7032 0.45412 0.0
O466 O 0.38011 0.87622 0.36164 0.0
O467 O 0.40864 0.86285 0.45232 0.0
O468 O 0.39574 0.68796 0.34479 0.0
O469 O 0.30795 0.68069 0.35704 0.0
O470 O 0.27472 0.84653 0.41169 0.0
O471 O 0.2117 0.73578 0.40892 0.0
H472 H 0.23982 0.38439 0.54012 0.0
H473 H 0.28117 0.24057 0.5355 0.0
H474 H 0.30983 0.27282 0.34923 0.0
H475 H 0.27382 0.41761 0.35514 0.0
H476 H 0.43597 1.0597 0.3626 0.0
H477 H 0.39491 0.20189 0.37748 0.0
H478 H 0.27062 0.09721 0.49909 0.0
H479 H 0.31509 0.95669 0.486 0.0
La480 La 0.36174 0.41582 0.91398 0.0
La481 La 0.28417 0.54568 0.93653 0.0
C482 C 0.41146 0.27356 0.91155 0.0
C483 C 0.38821 0.18926 0.92663 0.0
C484 C 0.3321 0.1673 0.90884 0.0
C485 C 0.31139 1.08618 0.91702 0.0
C486 C 0.34593 1.02383 0.94352 0.0
C487 C 0.39968 1.04784 0.96812 0.0
C488 C 0.42041 0.13086 0.96023 0.0
C489 C 0.35582 0.53767 0.82763 0.0
C490 C 0.22741 0.3714 0.90423 0.0
C491 C 0.24258 0.69168 0.94336 0.0
C492 C 0.27332 0.7735 0.9424 0.0
C493 C 0.30852 0.79973 0.98985 0.0
C494 C 0.33427 0.87992 0.98975 0.0
C495 C 0.32577 0.93458 0.94185 0.0
C496 C 0.29488 0.90473 0.89232 0.0
C497 C 0.2691 0.82512 0.89259 0.0
C498 C 0.28995 0.44616 1.02931 0.0
C499 C 0.42479 0.56739 0.95595 0.0
O500 O 0.38962 0.31034 0.86458 0.0
O501 O 0.41524 0.32599 0.95588 0.0
O502 O 0.40227 0.49812 0.84497 0.0
O503 O 0.31469 0.50276 0.85522 0.0
O504 O 0.27994 0.34425 0.9164 0.0
O505 O 0.21789 0.45471 0.90325 0.0
O506 O 0.25154 0.64393 0.98936 0.0
O507 O 0.24325 0.6482 0.89425 0.0
O508 O 0.24275 0.471 1.00344 0.0
O509 O 0.33295 0.46994 0.99804 0.0
O510 O 0.37337 0.60362 0.94501 0.0
O511 O 0.4298 0.48538 0.95457 0.0
H512 H 0.3054 0.20991 0.88358 0.0
H513 H 0.26937 1.07154 0.89901 0.0
H514 H 0.42683 1.00202 0.99069 0.0
H515 H 0.46241 0.14815 0.97805 0.0
H516 H 0.31533 0.7591 1.02765 0.0
H517 H 0.35892 0.90001 1.02796 0.0
H518 H 0.28923 0.94358 0.85347 0.0
H519 H 0.24462 0.80483 0.85428 0.0
La520 La 0.54434 0.76094 0.90214 0.0
La521 La 0.61979 0.63224 0.93385 0.0
C522 C 0.49824 0.90329 0.88636 0.0
C523 C 0.52288 0.98766 0.8984 0.0
C524 C 0.50597 1.05593 0.86373 0.0
C525 C 0.53086 0.13569 0.87152 0.0
C526 C 0.57396 0.14869 0.91456 0.0
C527 C 0.59049 1.07991 0.95043 0.0
C528 C 0.56477 1.00026 0.94273 0.0
C529 C 0.55016 0.63081 0.82233 0.0
C530 C 0.67831 0.80754 0.90222 0.0
C531 C 0.6663 0.48762 0.94268 0.0
C532 C 0.6449 0.39996 0.93514 0.0
C533 C 0.63997 0.34626 0.98401 0.0
C534 C 0.61669 0.26482 0.97783 0.0
C535 C 0.60033 0.23414 0.92195 0.0
C536 C 0.60887 0.28635 0.87261 0.0
C537 C 0.62979 0.36869 0.87919 0.0
C538 C 0.61199 0.74112 1.02202 0.0
C539 C 0.47899 0.61689 0.95303 0.0
O540 O 0.52341 0.8602 0.84419 0.0
O541 O 0.48835 0.85655 0.93267 0.0
O542 O 0.50393 0.67241 0.83723 0.0
O543 O 0.59171 0.66675 0.84915 0.0
O544 O 0.62481 0.83548 0.90519 0.0
O545 O 0.68792 0.72437 0.90632 0.0
O546 O 0.64586 0.53 0.9876 0.0
O547 O 0.66789 0.53428 0.89522 0.0
O548 O 0.65953 0.70903 1.0011 0.0
O549 O 0.57 0.71604 0.98972 0.0
O550 O 0.53005 0.57793 0.94489 0.0
O551 O 0.47457 0.69846 0.94539 0.0
H552 H 0.47258 1.04726 0.8314 0.0
H553 H 0.51504 0.18767 0.84482 0.0
H554 H 0.62375 1.08699 0.98385 0.0
H555 H 0.57803 0.94859 0.97115 0.0
H556 H 0.65435 0.3674 1.02692 0.0
H557 H 0.61162 0.22617 1.01681 0.0
H558 H 0.59982 0.26343 0.8286 0.0
H559 H 0.63512 0.40706 0.84017 0.0
La560 La 0.35885 0.75751 0.71783 0.0
La561 La 0.28565 0.63381 0.68434 0.0
C562 C 0.40186 0.89791 0.74427 0.0
C563 C 0.38058 0.98393 0.73004 0.0
C564 C 0.36926 1.04001 0.77614 0.0
C565 C 0.35066 0.12226 0.76454 0.0
C566 C 0.33888 0.14956 0.70722 0.0
C567 C 0.34852 1.09252 0.6604 0.0
C568 C 0.36967 1.01041 0.6717 0.0
C569 C 0.35525 0.62309 0.79485 0.0
C570 C 0.22731 0.80996 0.71505 0.0
C571 C 0.24474 0.48734 0.67265 0.0
C572 C 0.27153 0.40291 0.68194 0.0
C573 C 0.31051 0.36746 0.6409 0.0
C574 C 0.33253 0.28535 0.64877 0.0
C575 C 0.31633 0.23728 0.69806 0.0
C576 C 0.27942 0.27476 0.74031 0.0
C577 C 0.25821 0.35688 0.73278 0.0
C578 C 0.2889 0.74244 0.59684 0.0
C579 C 0.42631 0.62124 0.66233 0.0
O580 O 0.36936 0.85449 0.78045 0.0
O581 O 0.42046 0.8519 0.70017 0.0
O582 O 0.4009 0.66435 0.7789 0.0
O583 O 0.31312 0.66118 0.77038 0.0
O584 O 0.28067 0.83623 0.7086 0.0
O585 O 0.21768 0.72653 0.7139 0.0
O586 O 0.26435 0.53196 0.62871 0.0
O587 O 0.23676 0.53379 0.71973 0.0
O588 O 0.24257 0.70904 0.619 0.0
O589 O 0.33274 0.71945 0.6279 0.0
O590 O 0.37601 0.58149 0.67161 0.0
O591 O 0.42925 0.7028 0.67027 0.0
H592 H 0.37695 1.02104 0.82118 0.0
H593 H 0.3483 0.16667 0.80001 0.0
H594 H 0.33935 0.11083 0.61538 0.0
H595 H 0.37686 0.96771 0.63496 0.0
H596 H 0.32408 0.40297 0.6026 0.0
H597 H 0.36257 0.25996 0.61654 0.0
H598 H 0.26536 0.23999 0.77877 0.0
H599 H 0.22977 0.38338 0.76609 0.0
La600 La 0.54487 0.4217 0.70427 0.0
La601 La 0.62172 0.55016 0.67659 0.0
C602 C 0.4974 0.2791 0.70924 0.0
C603 C 0.52131 0.19469 0.695 0.0
C604 C 0.49911 0.12463 0.72395 0.0
C605 C 0.52336 1.04434 0.71581 0.0
C606 C 0.57138 1.03247 0.67866 0.0
C607 C 0.59265 0.10278 0.64727 0.0
C608 C 0.56755 0.18334 0.65519 0.0
C609 C 0.55043 0.54706 0.78769 0.0
C610 C 0.67847 0.37447 0.71222 0.0
C611 C 0.66849 0.69335 0.66404 0.0
C612 C 0.6455 0.7809 0.66852 0.0
C613 C 0.64399 0.83286 0.61845 0.0
C614 C 0.62064 0.91501 0.62127 0.0
C615 C 0.59915 0.94714 0.67478 0.0
C616 C 0.60316 0.89606 0.72538 0.0
C617 C 0.62468 0.81335 0.72212 0.0
C618 C 0.61192 0.44502 0.5861 0.0
C619 C 0.48101 0.57228 0.66018 0.0
O620 O 0.51968 0.317 0.75543 0.0
O621 O 0.49148 0.33048 0.66463 0.0
O622 O 0.50433 0.50506 0.77258 0.0
O623 O 0.59209 0.51278 0.75995 0.0
O624 O 0.62532 0.34683 0.70565 0.0
O625 O 0.68842 0.45758 0.70832 0.0
O626 O 0.64832 0.64835 0.62035 0.0
O627 O 0.67135 0.64916 0.71268 0.0
O628 O 0.66008 0.46942 0.61015 0.0
O629 O 0.57083 0.47179 0.6186 0.0
O630 O 0.53235 0.60912 0.67024 0.0
O631 O 0.47637 0.49021 0.66313 0.0
H632 H 0.46395 0.13356 0.75431 0.0
H633 H 0.50509 0.99142 0.73949 0.0
H634 H 0.62954 1.09621 0.61808 0.0
H635 H 0.58502 0.23671 0.63113 0.0
H636 H 0.66043 0.80911 0.57701 0.0
H637 H 0.619 0.95288 0.5816 0.0
H638 H 0.59018 0.92058 0.76785 0.0
H639 H 0.62627 0.77584 0.76196 0.0
loop_
_geom_bond_atom_site_label_1
_geom_bond_atom_site_label_2
_geom_bond_distance
_geom_bond_site_symmetry_2
_ccdc_geom_bond_type
La0 C2 2.928 1_545 S
La0 O20 2.521 1_545 S
La0 O21 2.628 1_545 S
La0 O22 2.554 . S
La0 O23 2.757 . S
La0 O24 2.470 1_545 S
La0 O29 2.482 . S
La0 O31 2.503 . S
La1 C11 2.928 . S
La1 O23 2.482 . S
La1 O25 2.503 . S
La1 O26 2.521 . S
La1 O27 2.628 . S
La1 O28 2.554 . S
La1 O29 2.757 . S
La1 O30 2.470 . S
C2 La0 2.928 1_565 S
C2 C3 1.503 . S
C2 O20 1.261 . S
C2 O21 1.243 . S
C3 C2 1.503 . S
C3 C4 1.394 . S
C3 C8 1.373 . S
C4 C3 1.394 . S
C4 C5 1.380 . S
C4 H32 0.930 . S
C5 C4 1.380 . S
C5 C6 1.376 . S
C5 H33 0.930 . S
C6 C5 1.376 . S
C6 C7 1.370 . S
C7 C6 1.370 . S
C7 C8 1.396 . S
C7 H34 0.929 . S
C8 C3 1.373 . S
C8 C7 1.396 . S
C8 H35 0.929 . S
C9 O22 1.240 . S
C9 O23 1.289 . S
C10 O24 1.257 1_545 S
C10 O25 1.260 . S
C11 La1 2.928 . S
C11 C12 1.503 . S
C11 O26 1.261 . S
C11 O27 1.243 . S
C12 C11 1.503 . S
C12 C13 1.394 . S
C12 C17 1.373 . S
C13 C12 1.394 . S
C13 C14 1.380 . S
C13 H36 0.930 . S
C14 C13 1.380 . S
C14 C15 1.376 . S
C14 H37 0.930 . S
C15 C14 1.376 . S
C15 C16 1.370 . S
C16 C15 1.370 . S
C16 C17 1.396 . S
C16 H38 0.929 . S
C17 C12 1.373 . S
C17 C16 1.396 . S
C17 H39 0.929 . S
C18 O28 1.240 . S
C18 O29 1.289 . S
C19 O30 1.258 . S
C19 O31 1.256 . S
O20 La0 2.521 1_565 S
O20 C2 1.261 . S
O21 La0 2.628 1_565 S
O21 C2 1.243 . S
O22 La0 2.554 . S
O22 C9 1.240 . S
O23 La0 2.757 . S
O23 La1 2.482 . S
O23 C9 1.289 . S
O24 La0 2.470 1_565 S
O24 C10 1.257 1_565 S
O25 La1 2.503 . S
O25 C10 1.260 . S
O26 La1 2.521 . S
O26 C11 1.261 . S
O27 La1 2.628 . S
O27 C11 1.243 . S
O28 La1 2.554 . S
O28 C18 1.240 . S
O29 La0 2.482 . S
O29 La1 2.757 . S
O29 C18 1.289 . S
O30 La1 2.470 . S
O30 C19 1.258 . S
O31 La0 2.503 . S
O31 C19 1.256 . S
H32 C4 0.930 . S
H33 C5 0.930 . S
H34 C7 0.929 . S
H35 C8 0.929 . S
H36 C13 0.930 . S
H37 C14 0.930 . S
H38 C16 0.929 . S
H39 C17 0.929 . S
La40 C42 2.928 1_565 S
La40 O60 2.521 1_565 S
La40 O61 2.628 1_565 S
La40 O62 2.554 . S
La40 O63 2.757 . S
La40 O64 2.470 1_565 S
La40 O69 2.482 . S
La40 O71 2.503 . S
La41 C51 2.928 . S
La41 O63 2.482 . S
La41 O65 2.503 . S
La41 O66 2.521 . S
La41 O67 2.628 . S
La41 O68 2.554 . S
La41 O69 2.757 . S
La41 O70 2.470 . S
C42 La40 2.928 1_545 S
C42 C43 1.503 . S
C42 O60 1.261 . S
C42 O61 1.243 . S
C43 C42 1.503 . S
C43 C44 1.394 . S
C43 C48 1.373 . S
C44 C43 1.394 . S
C44 C45 1.380 . S
C44 H72 0.930 . S
C45 C44 1.380 . S
C45 C46 1.376 . S
C45 H73 0.930 . S
C46 C45 1.376 . S
C46 C47 1.370 . S
C47 C46 1.370 . S
C47 C48 1.396 . S
C47 H74 0.929 . S
C48 C43 1.373 . S
C48 C47 1.396 . S
C48 H75 0.929 . S
C49 O62 1.240 . S
C49 O63 1.289 . S
C50 O64 1.257 1_565 S
C50 O65 1.260 . S
C51 La41 2.928 . S
C51 C52 1.503 . S
C51 O66 1.261 . S
C51 O67 1.243 . S
C52 C51 1.503 . S
C52 C53 1.394 . S
C52 C57 1.373 . S
C53 C52 1.394 . S
C53 C54 1.380 . S
C53 H76 0.930 . S
C54 C53 1.380 . S
C54 C55 1.376 . S
C54 H77 0.930 . S
C55 C54 1.376 . S
C55 C56 1.370 . S
C56 C55 1.370 . S
C56 C57 1.396 . S
C56 H78 0.929 . S
C57 C52 1.373 . S
C57 C56 1.396 . S
C57 H79 0.929 . S
C58 O68 1.240 . S
C58 O69 1.289 . S
C59 O70 1.258 . S
C59 O71 1.256 . S
O60 La40 2.521 1_545 S
O60 C42 1.261 . S
O61 La40 2.628 1_545 S
O61 C42 1.243 . S
O62 La40 2.554 . S
O62 C49 1.240 . S
O63 La40 2.757 . S
O63 La41 2.482 . S
O63 C49 1.289 . S
O64 La40 2.470 1_545 S
O64 C50 1.257 1_545 S
O65 La41 2.503 . S
O65 C50 1.260 . S
O66 La41 2.521 . S
O66 C51 1.261 . S
O67 La41 2.628 . S
O67 C51 1.243 . S
O68 La41 2.554 . S
O68 C58 1.240 . S
O69 La40 2.482 . S
O69 La41 2.757 . S
O69 C58 1.289 . S
O70 La41 2.470 . S
O70 C59 1.258 . S
O71 La40 2.503 . S
O71 C59 1.256 . S
H72 C44 0.930 . S
H73 C45 0.930 . S
H74 C47 0.929 . S
H75 C48 0.929 . S
H76 C53 0.930 . S
H77 C54 0.930 . S
H78 C56 0.929 . S
H79 C57 0.929 . S
La80 C82 2.928 1_565 S
La80 O100 2.521 1_565 S
La80 O101 2.628 1_565 S
La80 O102 2.554 . S
La80 O103 2.757 . S
La80 O104 2.470 1_565 S
La80 O109 2.482 . S
La80 O111 2.503 . S
La81 C91 2.928 . S
La81 O103 2.482 . S
La81 O105 2.503 . S
La81 O106 2.521 . S
La81 O107 2.628 . S
La81 O108 2.554 . S
La81 O109 2.757 . S
La81 O110 2.470 . S
C82 La80 2.928 1_545 S
C82 C83 1.503 . S
C82 O100 1.261 . S
C82 O101 1.243 . S
C83 C82 1.503 . S
C83 C84 1.394 . S
C83 C88 1.373 . S
C84 C83 1.394 . S
C84 C85 1.380 . S
C84 H112 0.930 . S
C85 C84 1.380 . S
C85 C86 1.376 . S
C85 H113 0.930 . S
C86 C85 1.376 . S
C86 C87 1.370 . S
C87 C86 1.370 . S
C87 C88 1.396 . S
C87 H114 0.929 . S
C88 C83 1.373 . S
C88 C87 1.396 . S
C88 H115 0.929 . S
C89 O102 1.240 . S
C89 O103 1.289 . S
C90 O104 1.257 1_565 S
C90 O105 1.260 . S
C91 La81 2.928 . S
C91 C92 1.503 . S
C91 O106 1.261 . S
C91 O107 1.243 . S
C92 C91 1.503 . S
C92 C93 1.394 . S
C92 C97 1.373 . S
C93 C92 1.394 . S
C93 C94 1.380 . S
C93 H116 0.930 . S
C94 C93 1.380 . S
C94 C95 1.376 . S
C94 H117 0.930 . S
C95 C94 1.376 . S
C95 C96 1.370 . S
C96 C95 1.370 . S
C96 C97 1.396 . S
C96 H118 0.929 . S
C97 C92 1.373 . S
C97 C96 1.396 . S
C97 H119 0.929 . S
C98 O108 1.240 . S
C98 O109 1.289 . S
C99 O110 1.258 . S
C99 O111 1.256 . S
O100 La80 2.521 1_545 S
O100 C82 1.261 . S
O101 La80 2.628 1_545 S
O101 C82 1.243 . S
O102 La80 2.554 . S
O102 C89 1.240 . S
O103 La80 2.757 . S
O103 La81 2.482 . S
O103 C89 1.289 . S
O104 La80 2.470 1_545 S
O104 C90 1.257 1_545 S
O105 La81 2.503 . S
O105 C90 1.260 . S
O106 La81 2.521 . S
O106 C91 1.261 . S
O107 La81 2.628 . S
O107 C91 1.243 . S
O108 La81 2.554 . S
O108 C98 1.240 . S
O109 La80 2.482 . S
O109 La81 2.757 . S
O109 C98 1.289 . S
O110 La81 2.470 . S
O110 C99 1.258 . S
O111 La80 2.503 . S
O111 C99 1.256 . S
H112 C84 0.930 . S
H113 C85 0.930 . S
H114 C87 0.929 . S
H115 C88 0.929 . S
H116 C93 0.930 . S
H117 C94 0.930 . S
H118 C96 0.929 . S
H119 C97 0.929 . S
La120 C122 2.928 1_545 S
La120 O140 2.521 1_545 S
La120 O141 2.628 1_545 S
La120 O142 2.554 . S
La120 O143 2.757 . S
La120 O144 2.470 1_545 S
La120 O149 2.482 . S
La120 O151 2.503 . S
La121 C131 2.928 . S
La121 O143 2.482 . S
La121 O145 2.503 . S
La121 O146 2.521 . S
La121 O147 2.628 . S
La121 O148 2.554 . S
La121 O149 2.757 . S
La121 O150 2.470 . S
C122 La120 2.928 1_565 S
C122 C123 1.503 . S
C122 O140 1.261 . S
C122 O141 1.243 . S
C123 C122 1.503 . S
C123 C124 1.394 . S
C123 C128 1.373 . S
C124 C123 1.394 . S
C124 C125 1.380 . S
C124 H152 0.930 . S
C125 C124 1.380 . S
C125 C126 1.376 . S
C125 H153 0.930 . S
C126 C125 1.376 . S
C126 C127 1.370 . S
C127 C126 1.370 . S
C127 C128 1.396 . S
C127 H154 0.929 . S
C128 C123 1.373 . S
C128 C127 1.396 . S
C128 H155 0.929 . S
C129 O142 1.240 . S
C129 O143 1.289 . S
C130 O144 1.257 1_545 S
C130 O145 1.260 . S
C131 La121 2.928 . S
C131 C132 1.503 . S
C131 O146 1.261 . S
C131 O147 1.243 . S
C132 C131 1.503 . S
C132 C133 1.394 . S
C132 C137 1.373 . S
C133 C132 1.394 . S
C133 C134 1.380 . S
C133 H156 0.930 . S
C134 C133 1.380 . S
C134 C135 1.376 . S
C134 H157 0.930 . S
C135 C134 1.376 . S
C135 C136 1.370 . S
C136 C135 1.370 . S
C136 C137 1.396 . S
C136 H158 0.929 . S
C137 C132 1.373 . S
C137 C136 1.396 . S
C137 H159 0.929 . S
C138 O148 1.240 . S
C138 O149 1.289 . S
C139 O150 1.258 . S
C139 O151 1.256 . S
O140 La120 2.521 1_565 S
O140 C122 1.261 . S
O141 La120 2.628 1_565 S
O141 C122 1.243 . S
O142 La120 2.554 . S
O142 C129 1.240 . S
O143 La120 2.757 . S
O143 La121 2.482 . S
O143 C129 1.289 . S
O144 La120 2.470 1_565 S
O144 C130 1.257 1_565 S
O145 La121 2.503 . S
O145 C130 1.260 . S
O146 La121 2.521 . S
O146 C131 1.261 . S
O147 La121 2.628 . S
O147 C131 1.243 . S
O148 La121 2.554 . S
O148 C138 1.240 . S
O149 La120 2.482 . S
O149 La121 2.757 . S
O149 C138 1.289 . S
O150 La121 2.470 . S
O150 C139 1.258 . S
O151 La120 2.503 . S
O151 C139 1.256 . S
H152 C124 0.930 . S
H153 C125 0.930 . S
H154 C127 0.929 . S
H155 C128 0.929 . S
H156 C133 0.930 . S
H157 C134 0.930 . S
H158 C136 0.929 . S
H159 C137 0.929 . S
La160 C162 2.928 . S
La160 O180 2.521 . S
La160 O181 2.628 . S
La160 O182 2.554 . S
La160 O183 2.757 . S
La160 O184 2.470 . S
La160 O189 2.482 . S
La160 O191 2.503 . S
La161 C171 2.928 1_565 S
La161 O183 2.482 . S
La161 O185 2.503 . S
La161 O186 2.521 1_565 S
La161 O187 2.628 1_565 S
La161 O188 2.554 . S
La161 O189 2.757 . S
La161 O190 2.470 1_565 S
C162 La160 2.928 . S
C162 C163 1.503 . S
C162 O180 1.261 . S
C162 O181 1.243 . S
C163 C162 1.503 . S
C163 C164 1.394 . S
C163 C168 1.373 . S
C164 C163 1.394 . S
C164 C165 1.380 . S
C164 H192 0.930 . S
C165 C164 1.380 . S
C165 C166 1.376 . S
C165 H193 0.930 . S
C166 C165 1.376 . S
C166 C167 1.370 . S
C167 C166 1.370 . S
C167 C168 1.396 . S
C167 H194 0.929 . S
C168 C163 1.373 . S
C168 C167 1.396 . S
C168 H195 0.929 . S
C169 O182 1.240 . S
C169 O183 1.289 . S
C170 O184 1.258 . S
C170 O185 1.256 . S
C171 La161 2.928 1_545 S
C171 C172 1.503 . S
C171 O186 1.261 . S
C171 O187 1.243 . S
C172 C171 1.503 . S
C172 C173 1.394 . S
C172 C177 1.373 . S
C173 C172 1.394 . S
C173 C174 1.380 . S
C173 H196 0.930 . S
C174 C173 1.380 . S
C174 C175 1.376 . S
C174 H197 0.930 . S
C175 C174 1.376 . S
C175 C176 1.370 . S
C176 C175 1.370 . S
C176 C177 1.396 . S
C176 H198 0.929 . S
C177 C172 1.373 . S
C177 C176 1.396 . S
C177 H199 0.929 . S
C178 O188 1.240 . S
C178 O189 1.289 . S
C179 O190 1.257 1_565 S
C179 O191 1.260 . S
O180 La160 2.521 . S
O180 C162 1.261 . S
O181 La160 2.628 . S
O181 C162 1.243 . S
O182 La160 2.554 . S
O182 C169 1.240 . S
O183 La160 2.757 . S
O183 La161 2.482 . S
O183 C169 1.289 . S
O184 La160 2.470 . S
O184 C170 1.258 . S
O185 La161 2.503 . S
O185 C170 1.256 . S
O186 La161 2.521 1_545 S
O186 C171 1.261 . S
O187 La161 2.628 1_545 S
O187 C171 1.243 . S
O188 La161 2.554 . S
O188 C178 1.240 . S
O189 La160 2.482 . S
O189 La161 2.757 . S
O189 C178 1.289 . S
O190 La161 2.470 1_545 S
O190 C179 1.257 1_545 S
O191 La160 2.503 . S
O191 C179 1.260 . S
H192 C164 0.930 . S
H193 C165 0.930 . S
H194 C167 0.929 . S
H195 C168 0.929 . S
H196 C173 0.930 . S
H197 C174 0.930 . S
H198 C176 0.929 . S
H199 C177 0.929 . S
La200 C202 2.928 . S
La200 O220 2.521 . S
La200 O221 2.628 . S
La200 O222 2.554 . S
La200 O223 2.757 . S
La200 O224 2.470 . S
La200 O229 2.482 . S
La200 O231 2.503 . S
La201 C211 2.928 1_545 S
La201 O223 2.482 . S
La201 O225 2.503 . S
La201 O226 2.521 1_545 S
La201 O227 2.628 1_545 S
La201 O228 2.554 . S
La201 O229 2.757 . S
La201 O230 2.470 1_545 S
C202 La200 2.928 . S
C202 C203 1.503 . S
C202 O220 1.261 . S
C202 O221 1.243 . S
C203 C202 1.503 . S
C203 C204 1.394 . S
C203 C208 1.373 . S
C204 C203 1.394 . S
C204 C205 1.380 . S
C204 H232 0.930 . S
C205 C204 1.380 . S
C205 C206 1.376 . S
C205 H233 0.930 . S
C206 C205 1.376 . S
C206 C207 1.370 . S
C207 C206 1.370 . S
C207 C208 1.396 . S
C207 H234 0.929 . S
C208 C203 1.373 . S
C208 C207 1.396 . S
C208 H235 0.929 . S
C209 O222 1.240 . S
C209 O223 1.289 . S
C210 O224 1.258 . S
C210 O225 1.256 . S
C211 La201 2.928 1_565 S
C211 C212 1.503 . S
C211 O226 1.261 . S
C211 O227 1.243 . S
C212 C211 1.503 . S
C212 C213 1.394 . S
C212 C217 1.373 . S
C213 C212 1.394 . S
C213 C214 1.380 . S
C213 H236 0.930 . S
C214 C213 1.380 . S
C214 C215 1.376 . S
C214 H237 0.930 . S
C215 C214 1.376 . S
C215 C216 1.370 . S
C216 C215 1.370 . S
C216 C217 1.396 . S
C216 H238 0.929 . S
C217 C212 1.373 . S
C217 C216 1.396 . S
C217 H239 0.929 . S
C218 O228 1.240 . S
C218 O229 1.289 . S
C219 O230 1.257 1_545 S
C219 O231 1.260 . S
O220 La200 2.521 . S
O220 C202 1.261 . S
O221 La200 2.628 . S
O221 C202 1.243 . S
O222 La200 2.554 . S
O222 C209 1.240 . S
O223 La200 2.757 . S
O223 La201 2.482 . S
O223 C209 1.289 . S
O224 La200 2.470 . S
O224 C210 1.258 . S
O225 La201 2.503 . S
O225 C210 1.256 . S
O226 La201 2.521 1_565 S
O226 C211 1.261 . S
O227 La201 2.628 1_565 S
O227 C211 1.243 . S
O228 La201 2.554 . S
O228 C218 1.240 . S
O229 La200 2.482 . S
O229 La201 2.757 . S
O229 C218 1.289 . S
O230 La201 2.470 1_565 S
O230 C219 1.257 1_565 S
O231 La200 2.503 . S
O231 C219 1.260 . S
H232 C204 0.930 . S
H233 C205 0.930 . S
H234 C207 0.929 . S
H235 C208 0.929 . S
H236 C213 0.930 . S
H237 C214 0.930 . S
H238 C216 0.929 . S
H239 C217 0.929 . S
La240 C242 2.928 . S
La240 O260 2.521 . S
La240 O261 2.628 . S
La240 O262 2.554 . S
La240 O263 2.757 . S
La240 O264 2.470 . S
La240 O269 2.482 . S
La240 O271 2.503 . S
La241 C251 2.928 1_545 S
La241 O263 2.482 . S
La241 O265 2.503 . S
La241 O266 2.521 1_545 S
La241 O267 2.628 1_545 S
La241 O268 2.554 . S
La241 O269 2.757 . S
La241 O270 2.470 1_545 S
C242 La240 2.928 . S
C242 C243 1.503 . S
C242 O260 1.261 . S
C242 O261 1.243 . S
C243 C242 1.503 . S
C243 C244 1.394 . S
C243 C248 1.373 . S
C244 C243 1.394 . S
C244 C245 1.380 . S
C244 H272 0.930 . S
C245 C244 1.380 . S
C245 C246 1.376 . S
C245 H273 0.930 . S
C246 C245 1.376 . S
C246 C247 1.370 . S
C247 C246 1.370 . S
C247 C248 1.396 . S
C247 H274 0.929 . S
C248 C243 1.373 . S
C248 C247 1.396 . S
C248 H275 0.929 . S
C249 O262 1.240 . S
C249 O263 1.289 . S
C250 O264 1.258 . S
C250 O265 1.256 . S
C251 La241 2.928 1_565 S
C251 C252 1.503 . S
C251 O266 1.261 . S
C251 O267 1.243 . S
C252 C251 1.503 . S
C252 C253 1.394 . S
C252 C257 1.373 . S
C253 C252 1.394 . S
C253 C254 1.380 . S
C253 H276 0.930 . S
C254 C253 1.380 . S
C254 C255 1.376 . S
C254 H277 0.930 . S
C255 C254 1.376 . S
C255 C256 1.370 . S
C256 C255 1.370 . S
C256 C257 1.396 . S
C256 H278 0.929 . S
C257 C252 1.373 . S
C257 C256 1.396 . S
C257 H279 0.929 . S
C258 O268 1.240 . S
C258 O269 1.289 . S
C259 O270 1.257 1_545 S
C259 O271 1.260 . S
O260 La240 2.521 . S
O260 C242 1.261 . S
O261 La240 2.628 . S
O261 C242 1.243 . S
O262 La240 2.554 . S
O262 C249 1.240 . S
O263 La240 2.757 . S
O263 La241 2.482 . S
O263 C249 1.289 . S
O264 La240 2.470 . S
O264 C250 1.258 . S
O265 La241 2.503 . S
O265 C250 1.256 . S
O266 La241 2.521 1_565 S
O266 C251 1.261 . S
O267 La241 2.628 1_565 S
O267 C251 1.243 . S
O268 La241 2.554 . S
O268 C258 1.240 . S
O269 La240 2.482 . S
O269 La241 2.757 . S
O269 C258 1.289 . S
O270 La241 2.470 1_565 S
O270 C259 1.257 1_565 S
O271 La240 2.503 . S
O271 C259 1.260 . S
H272 C244 0.930 . S
H273 C245 0.930 . S
H274 C247 0.929 . S
H275 C248 0.929 . S
H276 C253 0.930 . S
H277 C254 0.930 . S
H278 C256 0.929 . S
H279 C257 0.929 . S
La280 C282 2.928 . S
La280 O300 2.521 . S
La280 O301 2.628 . S
La280 O302 2.554 . S
La280 O303 2.757 . S
La280 O304 2.470 . S
La280 O309 2.482 . S
La280 O311 2.503 . S
La281 C291 2.928 1_565 S
La281 O303 2.482 . S
La281 O305 2.503 . S
La281 O306 2.521 1_565 S
La281 O307 2.628 1_565 S
La281 O308 2.554 . S
La281 O309 2.757 . S
La281 O310 2.470 1_565 S
C282 La280 2.928 . S
C282 C283 1.503 . S
C282 O300 1.261 . S
C282 O301 1.243 . S
C283 C282 1.503 . S
C283 C284 1.394 . S
C283 C288 1.373 . S
C284 C283 1.394 . S
C284 C285 1.380 . S
C284 H312 0.930 . S
C285 C284 1.380 . S
C285 C286 1.376 . S
C285 H313 0.930 . S
C286 C285 1.376 . S
C286 C287 1.370 . S
C287 C286 1.370 . S
C287 C288 1.396 . S
C287 H314 0.929 . S
C288 C283 1.373 . S
C288 C287 1.396 . S
C288 H315 0.929 . S
C289 O302 1.240 . S
C289 O303 1.289 . S
C290 O304 1.258 . S
C290 O305 1.256 . S
C291 La281 2.928 1_545 S
C291 C292 1.503 . S
C291 O306 1.261 . S
C291 O307 1.243 . S
C292 C291 1.503 . S
C292 C293 1.394 . S
C292 C297 1.373 . S
C293 C292 1.394 . S
C293 C294 1.380 . S
C293 H316 0.930 . S
C294 C293 1.380 . S
C294 C295 1.376 . S
C294 H317 0.930 . S
C295 C294 1.376 . S
C295 C296 1.370 . S
C296 C295 1.370 . S
C296 C297 1.396 . S
C296 H318 0.929 . S
C297 C292 1.373 . S
C297 C296 1.396 . S
C297 H319 0.929 . S
C298 O308 1.240 . S
C298 O309 1.289 . S
C299 O310 1.257 1_565 S
C299 O311 1.260 . S
O300 La280 2.521 . S
O300 C282 1.261 . S
O301 La280 2.628 . S
O301 C282 1.243 . S
O302 La280 2.554 . S
O302 C289 1.240 . S
O303 La280 2.757 . S
O303 La281 2.482 . S
O303 C289 1.289 . S
O304 La280 2.470 . S
O304 C290 1.258 . S
O305 La281 2.503 . S
O305 C290 1.256 . S
O306 La281 2.521 1_545 S
O306 C291 1.261 . S
O307 La281 2.628 1_545 S
O307 C291 1.243 . S
O308 La281 2.554 . S
O308 C298 1.240 . S
O309 La280 2.482 . S
O309 La281 2.757 . S
O309 C298 1.289 . S
O310 La281 2.470 1_545 S
O310 C299 1.257 1_545 S
O311 La280 2.503 . S
O311 C299 1.260 . S
H312 C284 0.930 . S
H313 C285 0.930 . S
H314 C287 0.929 . S
H315 C288 0.929 . S
H316 C293 0.930 . S
H317 C294 0.930 . S
H318 C296 0.929 . S
H319 C297 0.929 . S
La320 C322 2.928 . S
La320 O340 2.521 . S
La320 O341 2.628 . S
La320 O342 2.554 . S
La320 O343 2.757 . S
La320 O344 2.470 . S
La320 O349 2.482 . S
La320 O351 2.503 . S
La321 C331 2.928 . S
La321 O343 2.482 . S
La321 O345 2.503 . S
La321 O346 2.521 . S
La321 O347 2.628 . S
La321 O348 2.554 . S
La321 O349 2.757 . S
La321 O350 2.470 . S
C322 La320 2.928 . S
C322 C323 1.503 . S
C322 O340 1.261 . S
C322 O341 1.243 . S
C323 C322 1.503 . S
C323 C324 1.394 . S
C323 C328 1.373 . S
C324 C323 1.394 . S
C324 C325 1.380 . S
C324 H352 0.930 . S
C325 C324 1.380 . S
C325 C326 1.376 . S
C325 H353 0.930 . S
C326 C325 1.376 . S
C326 C327 1.370 . S
C327 C326 1.370 . S
C327 C328 1.396 . S
C327 H354 0.929 . S
C328 C323 1.373 . S
C328 C327 1.396 . S
C328 H355 0.929 . S
C329 O342 1.240 . S
C329 O343 1.289 . S
C330 O344 1.258 . S
C330 O345 1.256 . S
C331 La321 2.928 . S
C331 C332 1.503 . S
C331 O346 1.261 . S
C331 O347 1.243 . S
C332 C331 1.503 . S
C332 C333 1.394 . S
C332 C337 1.373 . S
C333 C332 1.394 . S
C333 C334 1.380 1_565 S
C333 H356 0.930 . S
C334 C333 1.380 1_545 S
C334 C335 1.376 . S
C334 H357 0.930 . S
C335 C334 1.376 . S
C335 C336 1.370 . S
C336 C335 1.370 . S
C336 C337 1.396 1_545 S
C336 H358 0.929 . S
C337 C332 1.373 . S
C337 C336 1.396 1_565 S
C337 H359 0.929 . S
C338 O348 1.240 . S
C338 O349 1.289 . S
C339 O350 1.258 . S
C339 O351 1.256 . S
O340 La320 2.521 . S
O340 C322 1.261 . S
O341 La320 2.628 . S
O341 C322 1.243 . S
O342 La320 2.554 . S
O342 C329 1.240 . S
O343 La320 2.757 . S
O343 La321 2.482 . S
O343 C329 1.289 . S
O344 La320 2.470 . S
O344 C330 1.258 . S
O345 La321 2.503 . S
O345 C330 1.256 . S
O346 La321 2.521 . S
O346 C331 1.261 . S
O347 La321 2.628 . S
O347 C331 1.243 . S
O348 La321 2.554 . S
O348 C338 1.240 . S
O349 La320 2.482 . S
O349 La321 2.757 . S
O349 C338 1.289 . S
O350 La321 2.470 . S
O350 C339 1.258 . S
O351 La320 2.503 . S
O351 C339 1.256 . S
H352 C324 0.930 . S
H353 C325 0.930 . S
H354 C327 0.929 . S
H355 C328 0.929 . S
H356 C333 0.930 . S
H357 C334 0.930 . S
H358 C336 0.929 . S
H359 C337 0.929 . S
La360 C362 2.928 . S
La360 O380 2.521 . S
La360 O381 2.628 . S
La360 O382 2.554 . S
La360 O383 2.757 . S
La360 O384 2.470 . S
La360 O389 2.482 . S
La360 O391 2.503 . S
La361 C371 2.928 . S
La361 O383 2.482 . S
La361 O385 2.503 . S
La361 O386 2.521 . S
La361 O387 2.628 . S
La361 O388 2.554 . S
La361 O389 2.757 . S
La361 O390 2.470 . S
C362 La360 2.928 . S
C362 C363 1.503 . S
C362 O380 1.261 . S
C362 O381 1.243 . S
C363 C362 1.503 . S
C363 C364 1.394 . S
C363 C368 1.373 . S
C364 C363 1.394 . S
C364 C365 1.380 . S
C364 H392 0.930 . S
C365 C364 1.380 . S
C365 C366 1.376 . S
C365 H393 0.930 . S
C366 C365 1.376 . S
C366 C367 1.370 . S
C367 C366 1.370 . S
C367 C368 1.396 . S
C367 H394 0.929 . S
C368 C363 1.373 . S
C368 C367 1.396 . S
C368 H395 0.929 . S
C369 O382 1.240 . S
C369 O383 1.289 . S
C370 O384 1.258 . S
C370 O385 1.256 . S
C371 La361 2.928 . S
C371 C372 1.503 . S
C371 O386 1.261 . S
C371 O387 1.243 . S
C372 C371 1.503 . S
C372 C373 1.394 . S
C372 C377 1.373 . S
C373 C372 1.394 . S
C373 C374 1.380 1_545 S
C373 H396 0.930 . S
C374 C373 1.380 1_565 S
C374 C375 1.376 . S
C374 H397 0.930 . S
C375 C374 1.376 . S
C375 C376 1.370 . S
C376 C375 1.370 . S
C376 C377 1.396 1_565 S
C376 H398 0.929 . S
C377 C372 1.373 . S
C377 C376 1.396 1_545 S
C377 H399 0.929 . S
C378 O388 1.240 . S
C378 O389 1.289 . S
C379 O390 1.258 . S
C379 O391 1.256 . S
O380 La360 2.521 . S
O380 C362 1.261 . S
O381 La360 2.628 . S
O381 C362 1.243 . S
O382 La360 2.554 . S
O382 C369 1.240 . S
O383 La360 2.757 . S
O383 La361 2.482 . S
O383 C369 1.289 . S
O384 La360 2.470 . S
O384 C370 1.258 . S
O385 La361 2.503 . S
O385 C370 1.256 . S
O386 La361 2.521 . S
O386 C371 1.261 . S
O387 La361 2.628 . S
O387 C371 1.243 . S
O388 La361 2.554 . S
O388 C378 1.240 . S
O389 La360 2.482 . S
O389 La361 2.757 . S
O389 C378 1.289 . S
O390 La361 2.470 . S
O390 C379 1.258 . S
O391 La360 2.503 . S
O391 C379 1.256 . S
H392 C364 0.930 . S
H393 C365 0.930 . S
H394 C367 0.929 . S
H395 C368 0.929 . S
H396 C373 0.930 . S
H397 C374 0.930 . S
H398 C376 0.929 . S
H399 C377 0.929 . S
La400 C402 2.928 . S
La400 O420 2.521 . S
La400 O421 2.628 . S
La400 O422 2.554 . S
La400 O423 2.757 . S
La400 O424 2.470 . S
La400 O429 2.482 . S
La400 O431 2.503 . S
La401 C411 2.928 . S
La401 O423 2.482 . S
La401 O425 2.503 . S
La401 O426 2.521 . S
La401 O427 2.628 . S
La401 O428 2.554 . S
La401 O429 2.757 . S
La401 O430 2.470 . S
C402 La400 2.928 . S
C402 C403 1.503 . S
C402 O420 1.261 . S
C402 O421 1.243 . S
C403 C402 1.503 . S
C403 C404 1.394 . S
C403 C408 1.373 . S
C404 C403 1.394 . S
C404 C405 1.380 . S
C404 H432 0.930 . S
C405 C404 1.380 . S
C405 C406 1.376 . S
C405 H433 0.930 . S
C406 C405 1.376 . S
C406 C407 1.370 . S
C407 C406 1.370 . S
C407 C408 1.396 . S
C407 H434 0.929 . S
C408 C403 1.373 . S
C408 C407 1.396 . S
C408 H435 0.929 . S
C409 O422 1.240 . S
C409 O423 1.289 . S
C410 O424 1.258 . S
C410 O425 1.256 . S
C411 La401 2.928 . S
C411 C412 1.503 . S
C411 O426 1.261 . S
C411 O427 1.243 . S
C412 C411 1.503 . S
C412 C413 1.394 . S
C412 C417 1.373 . S
C413 C412 1.394 . S
C413 C414 1.380 1_545 S
C413 H436 0.930 . S
C414 C413 1.380 1_565 S
C414 C415 1.376 . S
C414 H437 0.930 . S
C415 C414 1.376 . S
C415 C416 1.370 . S
C416 C415 1.370 . S
C416 C417 1.396 1_565 S
C416 H438 0.929 . S
C417 C412 1.373 . S
C417 C416 1.396 1_545 S
C417 H439 0.929 . S
C418 O428 1.240 . S
C418 O429 1.289 . S
C419 O430 1.258 . S
C419 O431 1.256 . S
O420 La400 2.521 . S
O420 C402 1.261 . S
O421 La400 2.628 . S
O421 C402 1.243 . S
O422 La400 2.554 . S
O422 C409 1.240 . S
O423 La400 2.757 . S
O423 La401 2.482 . S
O423 C409 1.289 . S
O424 La400 2.470 . S
O424 C410 1.258 . S
O425 La401 2.503 . S
O425 C410 1.256 . S
O426 La401 2.521 . S
O426 C411 1.261 . S
O427 La401 2.628 . S
O427 C411 1.243 . S
O428 La401 2.554 . S
O428 C418 1.240 . S
O429 La400 2.482 . S
O429 La401 2.757 . S
O429 C418 1.289 . S
O430 La401 2.470 . S
O430 C419 1.258 . S
O431 La400 2.503 . S
O431 C419 1.256 . S
H432 C404 0.930 . S
H433 C405 0.930 . S
H434 C407 0.929 . S
H435 C408 0.929 . S
H436 C413 0.930 . S
H437 C414 0.930 . S
H438 C416 0.929 . S
H439 C417 0.929 . S
La440 C442 2.928 . S
La440 O460 2.521 . S
La440 O461 2.628 . S
La440 O462 2.554 . S
La440 O463 2.757 . S
La440 O464 2.470 . S
La440 O469 2.482 . S
La440 O471 2.503 . S
La441 C451 2.928 . S
La441 O463 2.482 . S
La441 O465 2.503 . S
La441 O466 2.521 . S
La441 O467 2.628 . S
La441 O468 2.554 . S
La441 O469 2.757 . S
La441 O470 2.470 . S
C442 La440 2.928 . S
C442 C443 1.503 . S
C442 O460 1.261 . S
C442 O461 1.243 . S
C443 C442 1.503 . S
C443 C444 1.394 . S
C443 C448 1.373 . S
C444 C443 1.394 . S
C444 C445 1.380 . S
C444 H472 0.930 . S
C445 C444 1.380 . S
C445 C446 1.376 . S
C445 H473 0.930 . S
C446 C445 1.376 . S
C446 C447 1.370 . S
C447 C446 1.370 . S
C447 C448 1.396 . S
C447 H474 0.929 . S
C448 C443 1.373 . S
C448 C447 1.396 . S
C448 H475 0.929 . S
C449 O462 1.240 . S
C449 O463 1.289 . S
C450 O464 1.258 . S
C450 O465 1.256 . S
C451 La441 2.928 . S
C451 C452 1.503 . S
C451 O466 1.261 . S
C451 O467 1.243 . S
C452 C451 1.503 . S
C452 C453 1.394 . S
C452 C457 1.373 . S
C453 C452 1.394 . S
C453 C454 1.380 1_565 S
C453 H476 0.930 . S
C454 C453 1.380 1_545 S
C454 C455 1.376 . S
C454 H477 0.930 . S
C455 C454 1.376 . S
C455 C456 1.370 . S
C456 C455 1.370 . S
C456 C457 1.396 1_545 S
C456 H478 0.929 . S
C457 C452 1.373 . S
C457 C456 1.396 1_565 S
C457 H479 0.929 . S
C458 O468 1.240 . S
C458 O469 1.289 . S
C459 O470 1.258 . S
C459 O471 1.256 . S
O460 La440 2.521 . S
O460 C442 1.261 . S
O461 La440 2.628 . S
O461 C442 1.243 . S
O462 La440 2.554 . S
O462 C449 1.240 . S
O463 La440 2.757 . S
O463 La441 2.482 . S
O463 C449 1.289 . S
O464 La440 2.470 . S
O464 C450 1.258 . S
O465 La441 2.503 . S
O465 C450 1.256 . S
O466 La441 2.521 . S
O466 C451 1.261 . S
O467 La441 2.628 . S
O467 C451 1.243 . S
O468 La441 2.554 . S
O468 C458 1.240 . S
O469 La440 2.482 . S
O469 La441 2.757 . S
O469 C458 1.289 . S
O470 La441 2.470 . S
O470 C459 1.258 . S
O471 La440 2.503 . S
O471 C459 1.256 . S
H472 C444 0.930 . S
H473 C445 0.930 . S
H474 C447 0.929 . S
H475 C448 0.929 . S
H476 C453 0.930 . S
H477 C454 0.930 . S
H478 C456 0.929 . S
H479 C457 0.929 . S
La480 C482 2.928 . S
La480 O500 2.521 . S
La480 O501 2.628 . S
La480 O502 2.554 . S
La480 O503 2.757 . S
La480 O504 2.470 . S
La480 O509 2.482 . S
La480 O511 2.503 . S
La481 C491 2.928 . S
La481 O503 2.482 . S
La481 O505 2.503 . S
La481 O506 2.521 . S
La481 O507 2.628 . S
La481 O508 2.554 . S
La481 O509 2.757 . S
La481 O510 2.470 . S
C482 La480 2.928 . S
C482 C483 1.503 . S
C482 O500 1.261 . S
C482 O501 1.243 . S
C483 C482 1.503 . S
C483 C484 1.394 . S
C483 C488 1.373 . S
C484 C483 1.394 . S
C484 C485 1.380 1_545 S
C484 H512 0.930 . S
C485 C484 1.380 1_565 S
C485 C486 1.376 . S
C485 H513 0.930 . S
C486 C485 1.376 . S
C486 C487 1.370 . S
C487 C486 1.370 . S
C487 C488 1.396 1_565 S
C487 H514 0.929 . S
C488 C483 1.373 . S
C488 C487 1.396 1_545 S
C488 H515 0.929 . S
C489 O502 1.240 . S
C489 O503 1.289 . S
C490 O504 1.258 . S
C490 O505 1.256 . S
C491 La481 2.928 . S
C491 C492 1.503 . S
C491 O506 1.261 . S
C491 O507 1.243 . S
C492 C491 1.503 . S
C492 C493 1.394 . S
C492 C497 1.373 . S
C493 C492 1.394 . S
C493 C494 1.380 . S
C493 H516 0.930 . S
C494 C493 1.380 . S
C494 C495 1.376 . S
C494 H517 0.930 . S
C495 C494 1.376 . S
C495 C496 1.370 . S
C496 C495 1.370 . S
C496 C497 1.396 . S
C496 H518 0.929 . S
C497 C492 1.373 . S
C497 C496 1.396 . S
C497 H519 0.929 . S
C498 O508 1.240 . S
C498 O509 1.289 . S
C499 O510 1.258 . S
C499 O511 1.256 . S
O500 La480 2.521 . S
O500 C482 1.261 . S
O501 La480 2.628 . S
O501 C482 1.243 . S
O502 La480 2.554 . S
O502 C489 1.240 . S
O503 La480 2.757 . S
O503 La481 2.482 . S
O503 C489 1.289 . S
O504 La480 2.470 . S
O504 C490 1.258 . S
O505 La481 2.503 . S
O505 C490 1.256 . S
O506 La481 2.521 . S
O506 C491 1.261 . S
O507 La481 2.628 . S
O507 C491 1.243 . S
O508 La481 2.554 . S
O508 C498 1.240 . S
O509 La480 2.482 . S
O509 La481 2.757 . S
O509 C498 1.289 . S
O510 La481 2.470 . S
O510 C499 1.258 . S
O511 La480 2.503 . S
O511 C499 1.256 . S
H512 C484 0.930 . S
H513 C485 0.930 . S
H514 C487 0.929 . S
H515 C488 0.929 . S
H516 C493 0.930 . S
H517 C494 0.930 . S
H518 C496 0.929 . S
H519 C497 0.929 . S
La520 C522 2.928 . S
La520 O540 2.521 . S
La520 O541 2.628 . S
La520 O542 2.554 . S
La520 O543 2.757 . S
La520 O544 2.470 . S
La520 O549 2.482 . S
La520 O551 2.503 . S
La521 C531 2.928 . S
La521 O543 2.482 . S
La521 O545 2.503 . S
La521 O546 2.521 . S
La521 O547 2.628 . S
La521 O548 2.554 . S
La521 O549 2.757 . S
La521 O550 2.470 . S
C522 La520 2.928 . S
C522 C523 1.503 . S
C522 O540 1.261 . S
C522 O541 1.243 . S
C523 C522 1.503 . S
C523 C524 1.394 . S
C523 C528 1.373 . S
C524 C523 1.394 . S
C524 C525 1.380 1_565 S
C524 H552 0.930 . S
C525 C524 1.380 1_545 S
C525 C526 1.376 . S
C525 H553 0.930 . S
C526 C525 1.376 . S
C526 C527 1.370 . S
C527 C526 1.370 . S
C527 C528 1.396 1_545 S
C527 H554 0.929 . S
C528 C523 1.373 . S
C528 C527 1.396 1_565 S
C528 H555 0.929 . S
C529 O542 1.240 . S
C529 O543 1.289 . S
C530 O544 1.258 . S
C530 O545 1.256 . S
C531 La521 2.928 . S
C531 C532 1.503 . S
C531 O546 1.261 . S
C531 O547 1.243 . S
C532 C531 1.503 . S
C532 C533 1.394 . S
C532 C537 1.373 . S
C533 C532 1.394 . S
C533 C534 1.380 . S
C533 H556 0.930 . S
C534 C533 1.380 . S
C534 C535 1.376 . S
C534 H557 0.930 . S
C535 C534 1.376 . S
C535 C536 1.370 . S
C536 C535 1.370 . S
C536 C537 1.396 . S
C536 H558 0.929 . S
C537 C532 1.373 . S
C537 C536 1.396 . S
C537 H559 0.929 . S
C538 O548 1.240 . S
C538 O549 1.289 . S
C539 O550 1.258 . S
C539 O551 1.256 . S
O540 La520 2.521 . S
O540 C522 1.261 . S
O541 La520 2.628 . S
O541 C522 1.243 . S
O542 La520 2.554 . S
O542 C529 1.240 . S
O543 La520 2.757 . S
O543 La521 2.482 . S
O543 C529 1.289 . S
O544 La520 2.470 . S
O544 C530 1.258 . S
O545 La521 2.503 . S
O545 C530 1.256 . S
O546 La521 2.521 . S
O546 C531 1.261 . S
O547 La521 2.628 . S
O547 C531 1.243 . S
O548 La521 2.554 . S
O548 C538 1.240 . S
O549 La520 2.482 . S
O549 La521 2.757 . S
O549 C538 1.289 . S
O550 La521 2.470 . S
O550 C539 1.258 . S
O551 La520 2.503 . S
O551 C539 1.256 . S
H552 C524 0.930 . S
H553 C525 0.930 . S
H554 C527 0.929 . S
H555 C528 0.929 . S
H556 C533 0.930 . S
H557 C534 0.930 . S
H558 C536 0.929 . S
H559 C537 0.929 . S
La560 C562 2.928 . S
La560 O580 2.521 . S
La560 O581 2.628 . S
La560 O582 2.554 . S
La560 O583 2.757 . S
La560 O584 2.470 . S
La560 O589 2.482 . S
La560 O591 2.503 . S
La561 C571 2.928 . S
La561 O583 2.482 . S
La561 O585 2.503 . S
La561 O586 2.521 . S
La561 O587 2.628 . S
La561 O588 2.554 . S
La561 O589 2.757 . S
La561 O590 2.470 . S
C562 La560 2.928 . S
C562 C563 1.503 . S
C562 O580 1.261 . S
C562 O581 1.243 . S
C563 C562 1.503 . S
C563 C564 1.394 . S
C563 C568 1.373 . S
C564 C563 1.394 . S
C564 C565 1.380 1_565 S
C564 H592 0.930 . S
C565 C564 1.380 1_545 S
C565 C566 1.376 . S
C565 H593 0.930 . S
C566 C565 1.376 . S
C566 C567 1.370 . S
C567 C566 1.370 . S
C567 C568 1.396 1_545 S
C567 H594 0.929 . S
C568 C563 1.373 . S
C568 C567 1.396 1_565 S
C568 H595 0.929 . S
C569 O582 1.240 . S
C569 O583 1.289 . S
C570 O584 1.258 . S
C570 O585 1.256 . S
C571 La561 2.928 . S
C571 C572 1.503 . S
C571 O586 1.261 . S
C571 O587 1.243 . S
C572 C571 1.503 . S
C572 C573 1.394 . S
C572 C577 1.373 . S
C573 C572 1.394 . S
C573 C574 1.380 . S
C573 H596 0.930 . S
C574 C573 1.380 . S
C574 C575 1.376 . S
C574 H597 0.930 . S
C575 C574 1.376 . S
C575 C576 1.370 . S
C576 C575 1.370 . S
C576 C577 1.396 . S
C576 H598 0.929 . S
C577 C572 1.373 . S
C577 C576 1.396 . S
C577 H599 0.929 . S
C578 O588 1.240 . S
C578 O589 1.289 . S
C579 O590 1.258 . S
C579 O591 1.256 . S
O580 La560 2.521 . S
O580 C562 1.261 . S
O581 La560 2.628 . S
O581 C562 1.243 . S
O582 La560 2.554 . S
O582 C569 1.240 . S
O583 La560 2.757 . S
O583 La561 2.482 . S
O583 C569 1.289 . S
O584 La560 2.470 . S
O584 C570 1.258 . S
O585 La561 2.503 . S
O585 C570 1.256 . S
O586 La561 2.521 . S
O586 C571 1.261 . S
O587 La561 2.628 . S
O587 C571 1.243 . S
O588 La561 2.554 . S
O588 C578 1.240 . S
O589 La560 2.482 . S
O589 La561 2.757 . S
O589 C578 1.289 . S
O590 La561 2.470 . S
O590 C579 1.258 . S
O591 La560 2.503 . S
O591 C579 1.256 . S
H592 C564 0.930 . S
H593 C565 0.930 . S
H594 C567 0.929 . S
H595 C568 0.929 . S
H596 C573 0.930 . S
H597 C574 0.930 . S
H598 C576 0.929 . S
H599 C577 0.929 . S
La600 C602 2.928 . S
La600 O620 2.521 . S
La600 O621 2.628 . S
La600 O622 2.554 . S
La600 O623 2.757 . S
La600 O624 2.470 . S
La600 O629 2.482 . S
La600 O631 2.503 . S
La601 C611 2.928 . S
La601 O623 2.482 . S
La601 O625 2.503 . S
La601 O626 2.521 . S
La601 O627 2.628 . S
La601 O628 2.554 . S
La601 O629 2.757 . S
La601 O630 2.470 . S
C602 La600 2.928 . S
C602 C603 1.503 . S
C602 O620 1.261 . S
C602 O621 1.243 . S
C603 C602 1.503 . S
C603 C604 1.394 . S
C603 C608 1.373 . S
C604 C603 1.394 . S
C604 C605 1.380 1_545 S
C604 H632 0.930 . S
C605 C604 1.380 1_565 S
C605 C606 1.376 . S
C605 H633 0.930 . S
C606 C605 1.376 . S
C606 C607 1.370 . S
C607 C606 1.370 . S
C607 C608 1.396 1_565 S
C607 H634 0.929 . S
C608 C603 1.373 . S
C608 C607 1.396 1_545 S
C608 H635 0.929 . S
C609 O622 1.240 . S
C609 O623 1.289 . S
C610 O624 1.258 . S
C610 O625 1.256 . S
C611 La601 2.928 . S
C611 C612 1.503 . S
C611 O626 1.261 . S
C611 O627 1.243 . S
C612 C611 1.503 . S
C612 C613 1.394 . S
C612 C617 1.373 . S
C613 C612 1.394 . S
C613 C614 1.380 . S
C613 H636 0.930 . S
C614 C613 1.380 . S
C614 C615 1.376 . S
C614 H637 0.930 . S
C615 C614 1.376 . S
C615 C616 1.370 . S
C616 C615 1.370 . S
C616 C617 1.396 . S
C616 H638 0.929 . S
C617 C612 1.373 . S
C617 C616 1.396 . S
C617 H639 0.929 . S
C618 O628 1.240 . S
C618 O629 1.289 . S
C619 O630 1.258 . S
C619 O631 1.256 . S
O620 La600 2.521 . S
O620 C602 1.261 . S
O621 La600 2.628 . S
O621 C602 1.243 . S
O622 La600 2.554 . S
O622 C609 1.240 . S
O623 La600 2.757 . S
O623 La601 2.482 . S
O623 C609 1.289 . S
O624 La600 2.470 . S
O624 C610 1.258 . S
O625 La601 2.503 . S
O625 C610 1.256 . S
O626 La601 2.521 . S
O626 C611 1.261 . S
O627 La601 2.628 . S
O627 C611 1.243 . S
O628 La601 2.554 . S
O628 C618 1.240 . S
O629 La600 2.482 . S
O629 La601 2.757 . S
O629 C618 1.289 . S
O630 La601 2.470 . S
O630 C619 1.258 . S
O631 La600 2.503 . S
O631 C619 1.256 . S
H632 C604 0.930 . S
H633 C605 0.930 . S
H634 C607 0.929 . S
H635 C608 0.929 . S
H636 C613 0.930 . S
H637 C614 0.930 . S
H638 C616 0.929 . S
H639 C617 0.929 . S
C19 C379 2.837 . S
C59 C339 2.837 . S
C459 C99 2.837 . S
C139 C419 2.837 . S
C530 C170 2.837 . S
C490 C210 2.837 . S
C610 C250 2.837 . S
C290 C570 2.837 . S
C98 C18 3.077 1_565 S
C138 C58 3.077 1_545 S
C249 C169 3.077 1_545 S
C209 C289 3.077 1_545 S
C418 C338 3.077 . S
C458 C378 3.077 . S
C489 C569 3.077 . S
C529 C609 3.077 . S
C218 C9 1.397 1_556 S
C178 C49 1.397 1_556 S
C89 C298 1.397 . S
C258 C129 1.397 . S
C329 C538 1.397 1_554 S
C498 C369 1.397 1_556 S
C409 C618 1.397 . S
C578 C449 1.397 . S
C50 C10 1.795 1_665 S
C130 C90 1.795 1_645 S
C219 C179 1.795 1_445 S
C259 C299 1.795 1_645 S
C370 C330 1.795 . S
C450 C410 1.795 . S
C499 C539 1.795 . S
C579 C619 1.795 . S
C6 C15 2.007 . S
C46 C55 2.007 . S
C86 C95 2.007 . S
C135 C126 2.007 . S
C175 C166 2.007 . S
C206 C215 2.007 . S
C255 C246 2.007 . S
C295 C286 2.007 . S
C335 C326 2.007 . S
C366 C375 2.007 . S
C415 C406 2.007 . S
C455 C446 2.007 . S
C495 C486 2.007 . S
C535 C526 2.007 . S
C566 C575 2.007 . S
C615 C606 2.007 . S
