# Generated by pormake.
# Topology zfb, (5)-cn, num edge types: 1
# Building blocks:
#     Node 0, Type 0, BuildingBlock: BEQFEK_clean_sbu_0, # of connection points: 5
#     Node 1, Type 0, BuildingBlock: BEQFEK_clean_sbu_0, # of connection points: 5
#     Node 2, Type 0, BuildingBlock: BEQFEK_clean_sbu_0, # of connection points: 5
#     Node 3, Type 0, BuildingBlock: BEQFEK_clean_sbu_0, # of connection points: 5
#     Node 4, Type 0, BuildingBlock: BEQFEK_clean_sbu_0, # of connection points: 5
#     Node 5, Type 0, BuildingBlock: BEQFEK_clean_sbu_0, # of connection points: 5
#     Node 6, Type 0, BuildingBlock: BEQFEK_clean_sbu_0, # of connection points: 5
#     Node 7, Type 0, BuildingBlock: BEQFEK_clean_sbu_0, # of connection points: 5
#     Edge 8, Type (0, 0), BuildingBlock: XIVTED_clean_linker_0, # of connection points: 2
#     Edge 9, Type (0, 0), BuildingBlock: XIVTED_clean_linker_0, # of connection points: 2
#     Edge 10, Type (0, 0), BuildingBlock: XIVTED_clean_linker_0, # of connection points: 2
#     Edge 11, Type (0, 0), BuildingBlock: XIVTED_clean_linker_0, # of connection points: 2
#     Edge 12, Type (0, 0), BuildingBlock: XIVTED_clean_linker_0, # of connection points: 2
#     Edge 13, Type (0, 0), BuildingBlock: XIVTED_clean_linker_0, # of connection points: 2
#     Edge 14, Type (0, 0), BuildingBlock: XIVTED_clean_linker_0, # of connection points: 2
#     Edge 15, Type (0, 0), BuildingBlock: XIVTED_clean_linker_0, # of connection points: 2
#     Edge 16, Type (0, 0), BuildingBlock: XIVTED_clean_linker_0, # of connection points: 2
#     Edge 17, Type (0, 0), BuildingBlock: XIVTED_clean_linker_0, # of connection points: 2
#     Edge 18, Type (0, 0), BuildingBlock: XIVTED_clean_linker_0, # of connection points: 2
#     Edge 19, Type (0, 0), BuildingBlock: XIVTED_clean_linker_0, # of connection points: 2
#     Edge 20, Type (0, 0), BuildingBlock: XIVTED_clean_linker_0, # of connection points: 2
#     Edge 21, Type (0, 0), BuildingBlock: XIVTED_clean_linker_0, # of connection points: 2
#     Edge 22, Type (0, 0), BuildingBlock: XIVTED_clean_linker_0, # of connection points: 2
#     Edge 23, Type (0, 0), BuildingBlock: XIVTED_clean_linker_0, # of connection points: 2
#     Edge 24, Type (0, 0), BuildingBlock: XIVTED_clean_linker_0, # of connection points: 2
#     Edge 25, Type (0, 0), BuildingBlock: XIVTED_clean_linker_0, # of connection points: 2
#     Edge 26, Type (0, 0), BuildingBlock: XIVTED_clean_linker_0, # of connection points: 2
#     Edge 27, Type (0, 0), BuildingBlock: XIVTED_clean_linker_0, # of connection points: 2
# Relax obj value: 0.117
# Max RMSD: 0.139
# Mean RMSD: 0.139
data_MOF--net-zfb--node1-BEQFEK_clean_sbu_0--edge1-XIVTED_clean_linker_0
_symmetry_space_group_name_H-M    P1
_symmetry_Int_Tables_number       1
_symmetry_cell_setting            triclinic
loop_
_symmetry_equiv_pos_as_xyz
'x, y, z'
_cell_length_a     30.706038
_cell_length_b     30.672223
_cell_length_c     38.971369
_cell_angle_alpha  89.954013
_cell_angle_beta   89.925177
_cell_angle_gamma 89.990803
loop_
_atom_site_label
_atom_site_type_symbol
_atom_site_fract_x
_atom_site_fract_y
_atom_site_fract_z
_atom_type_partial_charge
Co0 Co 0.19953 0.36193 0.08176 0.0
Co1 Co 0.20661 0.36553 1.00101 0.0
C2 C 0.12791 0.39836 0.03766 0.0
O3 O 0.1443 0.3884 0.06664 0.0
O4 O 0.14789 0.3905 0.00959 0.0
C5 C 0.17534 0.3777 0.15094 0.0
O6 O 0.15966 0.41324 0.13673 0.0
C7 C 0.19092 0.35265 0.9269 0.0
C8 C 0.25794 0.35898 0.90667 0.0
C9 C 0.21535 0.35098 0.89691 0.0
N10 N 0.21801 0.36114 0.95313 0.0
N11 N 0.25789 0.36539 0.94078 0.0
C12 C 0.14346 0.34311 0.93115 0.0
H13 H 0.13663 0.33162 0.95763 0.0
H14 H 0.13268 0.31822 0.91233 0.0
H15 H 0.12465 0.37346 0.92663 0.0
C16 C 0.20429 0.26704 0.0662 0.0
N17 N 0.208 0.30917 0.05669 0.0
N18 N 0.21303 0.31104 0.02319 0.0
C19 C 0.21465 0.27026 0.01048 0.0
C20 C 0.2083 0.2408 0.03715 0.0
C21 C 0.1911 0.25306 0.10154 0.0
H22 H 0.16642 0.27593 0.11192 0.0
H23 H 0.17724 0.21968 0.10171 0.0
H24 H 0.21999 0.25407 0.11859 0.0
O25 O 0.24534 0.40777 0.07432 0.0
O26 O 0.24798 0.40857 0.01758 0.0
H27 H 0.2346 0.22586 0.97022 0.0
H28 H 0.19254 0.26437 0.95866 0.0
C29 C 0.22299 0.25984 0.97351 0.0
H30 H 0.24817 0.28203 0.9631 0.0
H31 H 0.28526 0.37176 0.95581 0.0
O32 O 0.19507 0.35016 0.13212 0.0
C33 C 0.26013 0.42353 0.04635 0.0
Co34 Co 0.62856 0.20521 0.57835 0.0
Co35 Co 0.62441 0.2037 0.49761 0.0
C36 C 0.5935 0.12831 0.5373 0.0
O37 O 0.6023 0.14782 0.5654 0.0
O38 O 0.60174 0.14558 0.50827 0.0
C39 C 0.65795 0.17218 0.64368 0.0
O40 O 0.67284 0.13971 0.6251 0.0
C41 C 0.62723 0.18665 0.42288 0.0
C42 C 0.6403 0.25312 0.40339 0.0
C43 C 0.63451 0.21036 0.39304 0.0
N44 N 0.62946 0.21418 0.44964 0.0
N45 N 0.6368 0.25387 0.43776 0.0
C46 C 0.6157 0.13944 0.42612 0.0
H47 H 0.58737 0.13596 0.44355 0.0
H48 H 0.64348 0.12152 0.43762 0.0
H49 H 0.60722 0.12485 0.40098 0.0
C50 C 0.72368 0.2182 0.56131 0.0
N51 N 0.68119 0.21462 0.55266 0.0
N52 N 0.67852 0.21177 0.51903 0.0
C53 C 0.71871 0.21206 0.50534 0.0
C54 C 0.74881 0.21674 0.53152 0.0
C55 C 0.73998 0.22255 0.59727 0.0
H56 H 0.71574 0.24002 0.61328 0.0
H57 H 0.74519 0.18958 0.60824 0.0
H58 H 0.77147 0.2403 0.59777 0.0
O59 O 0.58239 0.24981 0.56945 0.0
O60 O 0.58061 0.24543 0.51283 0.0
H61 H 0.72355 0.23115 0.45267 0.0
H62 H 0.76191 0.18943 0.46495 0.0
C63 C 0.72817 0.20148 0.46853 0.0
H64 H 0.70551 0.1759 0.45946 0.0
H65 H 0.63998 0.28143 0.45325 0.0
O66 O 0.63913 0.20396 0.62883 0.0
C67 C 0.56607 0.26101 0.54073 0.0
Co68 Co 0.79045 0.62842 0.08325 0.0
Co69 Co 0.79204 0.62502 0.00245 0.0
C70 C 0.86771 0.59454 0.04216 0.0
O71 O 0.84832 0.60297 0.07043 0.0
O72 O 0.85013 0.60272 0.01328 0.0
C73 C 0.82229 0.65635 0.1494 0.0
O74 O 0.8563 0.6692 0.13157 0.0
C75 C 0.81122 0.62989 0.92827 0.0
C76 C 0.74472 0.63716 0.90726 0.0
C77 C 0.78815 0.6348 0.89793 0.0
N78 N 0.78262 0.62998 0.9544 0.0
N79 N 0.74296 0.634 0.94164 0.0
C80 C 0.859 0.6221 0.93256 0.0
H81 H 0.87329 0.64841 0.9485 0.0
H82 H 0.87625 0.62015 0.90761 0.0
H83 H 0.86374 0.59089 0.94642 0.0
C84 C 0.77749 0.72369 0.06671 0.0
N85 N 0.78072 0.68121 0.05777 0.0
N86 N 0.78313 0.67885 0.0241 0.0
C87 C 0.78264 0.71918 0.01063 0.0
C88 C 0.77855 0.74909 0.03705 0.0
C89 C 0.77439 0.73973 0.10284 0.0
H90 H 0.75592 0.71614 0.11878 0.0
H91 H 0.80767 0.74302 0.11356 0.0
H92 H 0.75827 0.7721 0.10382 0.0
O93 O 0.74656 0.58163 0.07381 0.0
O94 O 0.75061 0.58086 0.01716 0.0
H95 H 0.76345 0.72232 0.95793 0.0
H96 H 0.80307 0.7631 0.96979 0.0
C97 C 0.79272 0.72885 0.97376 0.0
H98 H 0.81945 0.70742 0.96488 0.0
H99 H 0.71468 0.63486 0.9565 0.0
O100 O 0.7903 0.63901 0.13383 0.0
C101 C 0.73535 0.5657 0.04496 0.0
Co102 Co 0.36026 0.79666 0.58731 0.0
Co103 Co 0.36999 0.78707 0.50685 0.0
C104 C 0.39737 0.86801 0.54195 0.0
O105 O 0.3855 0.85265 0.57093 0.0
O106 O 0.39259 0.84645 0.51424 0.0
C107 C 0.37053 0.82519 0.65603 0.0
O108 O 0.40602 0.84188 0.6425 0.0
C109 C 0.36618 0.79626 0.43098 0.0
C110 C 0.36174 0.72683 0.41615 0.0
C111 C 0.36192 0.76871 0.40288 0.0
N112 N 0.36812 0.77157 0.45951 0.0
N113 N 0.36612 0.73015 0.45034 0.0
C114 C 0.36416 0.84502 0.43116 0.0
H115 H 0.39726 0.85821 0.42633 0.0
H116 H 0.35275 0.85714 0.45641 0.0
H117 H 0.34211 0.85706 0.4107 0.0
C118 C 0.26741 0.7817 0.56852 0.0
N119 N 0.31016 0.78306 0.56057 0.0
N120 N 0.31444 0.78074 0.52702 0.0
C121 C 0.27476 0.77843 0.51252 0.0
C122 C 0.24348 0.7787 0.53828 0.0
C123 C 0.25007 0.78482 0.60432 0.0
H124 H 0.27052 0.76503 0.62185 0.0
H125 H 0.25171 0.81927 0.61291 0.0
H126 H 0.21583 0.7734 0.60579 0.0
O127 O 0.40835 0.75326 0.58331 0.0
O128 O 0.4132 0.74762 0.52675 0.0
H129 H 0.2764 0.75175 0.46183 0.0
H130 H 0.23269 0.79027 0.46853 0.0
C131 C 0.26705 0.7826 0.4747 0.0
H132 H 0.28752 0.8092 0.46434 0.0
H133 H 0.36646 0.70415 0.46762 0.0
O134 O 0.34492 0.80348 0.63691 0.0
C135 C 0.42646 0.73763 0.55658 0.0
Co136 Co 0.69828 0.12964 0.96757 0.0
Co137 Co 0.71063 0.12472 0.04764 0.0
C138 C 0.62878 0.09383 0.01247 0.0
O139 O 0.64227 0.10498 0.98278 0.0
O140 O 0.65179 0.09997 0.03925 0.0
C141 C 0.66137 0.14787 0.90061 0.0
O142 O 0.62431 0.1493 0.91745 0.0
C143 C 0.69072 0.13907 0.12017 0.0
C144 C 0.754 0.1241 0.14459 0.0
C145 C 0.71155 0.13642 0.15168 0.0
N146 N 0.71976 0.12905 0.09563 0.0
N147 N 0.75748 0.12014 0.11033 0.0
C148 C 0.64338 0.14658 0.11314 0.0
H149 H 0.63961 0.16731 0.08997 0.0
H150 H 0.62617 0.16146 0.13517 0.0
H151 H 0.62782 0.11474 0.10764 0.0
C152 C 0.70598 0.22431 0.98381 0.0
N153 N 0.70951 0.18192 0.99266 0.0
N154 N 0.71683 0.17931 0.02585 0.0
C155 C 0.71983 0.21978 0.03898 0.0
C156 C 0.71216 0.24981 0.01301 0.0
C157 C 0.69046 0.23913 0.94931 0.0
H158 H 0.6594 0.22248 0.94331 0.0
H159 H 0.68482 0.27475 0.94815 0.0
H160 H 0.71465 0.2296 0.92951 0.0
O161 O 0.7417 0.08182 0.97516 0.0
O162 O 0.75247 0.08185 0.03133 0.0
H163 H 0.74298 0.263 0.0788 0.0
H164 H 0.70004 0.22615 0.09138 0.0
C165 C 0.73006 0.22945 0.07575 0.0
H166 H 0.75468 0.2061 0.08543 0.0
H167 H 0.78549 0.11097 0.09698 0.0
O168 O 0.69649 0.14078 0.917 0.0
C169 C 0.75994 0.06612 0.00182 0.0
Co170 Co 0.86044 0.70402 0.47243 0.0
Co171 Co 0.86898 0.70839 0.553 0.0
C172 C 0.8961 0.62937 0.51457 0.0
O173 O 0.88517 0.64645 0.48595 0.0
O174 O 0.89087 0.64948 0.54288 0.0
C175 C 0.8313 0.67005 0.40695 0.0
O176 O 0.81988 0.63575 0.42506 0.0
C177 C 0.86767 0.69072 0.62734 0.0
C178 C 0.86058 0.7574 0.64813 0.0
C179 C 0.8636 0.71402 0.65765 0.0
N180 N 0.86641 0.71905 0.60105 0.0
N181 N 0.86259 0.75886 0.61367 0.0
C182 C 0.87566 0.6429 0.62314 0.0
H183 H 0.90666 0.63833 0.609 0.0
H184 H 0.8492 0.62832 0.60754 0.0
H185 H 0.87823 0.62578 0.6481 0.0
C186 C 0.76673 0.71806 0.49162 0.0
N187 N 0.80956 0.71607 0.49934 0.0
N188 N 0.81375 0.71615 0.53295 0.0
C189 C 0.77409 0.71703 0.54765 0.0
C190 C 0.74282 0.71869 0.52203 0.0
C191 C 0.74903 0.71802 0.4559 0.0
H192 H 0.77119 0.7362 0.43855 0.0
H193 H 0.74662 0.6839 0.44668 0.0
H194 H 0.71611 0.73294 0.45512 0.0
O195 O 0.90873 0.74656 0.47924 0.0
O196 O 0.91255 0.74951 0.53592 0.0
H197 H 0.77412 0.73919 0.59968 0.0
H198 H 0.73242 0.69931 0.59069 0.0
C199 C 0.76643 0.70911 0.58513 0.0
H200 H 0.7881 0.68265 0.59414 0.0
H201 H 0.86088 0.787 0.59867 0.0
O202 O 0.84786 0.70276 0.42216 0.0
C203 C 0.92634 0.76092 0.50656 0.0
Co204 Co 0.29602 0.86164 0.97682 0.0
Co205 Co 0.29097 0.8654 0.05762 0.0
C206 C 0.36903 0.89743 0.01985 0.0
O207 O 0.35173 0.88772 0.99115 0.0
O208 O 0.34975 0.8897 0.04823 0.0
C209 C 0.31785 0.87824 0.90738 0.0
O210 O 0.33282 0.91408 0.92153 0.0
C211 C 0.30882 0.85093 0.13112 0.0
C212 C 0.24296 0.85983 0.15303 0.0
C213 C 0.28552 0.84974 0.16167 0.0
N214 N 0.28112 0.8611 0.10566 0.0
N215 N 0.24196 0.86691 0.11901 0.0
C216 C 0.35559 0.83925 0.12556 0.0
H217 H 0.36095 0.82858 0.09867 0.0
H218 H 0.36574 0.81305 0.14351 0.0
H219 H 0.37605 0.86841 0.13041 0.0
C220 C 0.29113 0.76676 0.99268 0.0
N221 N 0.28783 0.80895 0.0021 0.0
N222 N 0.28339 0.81095 0.03564 0.0
C223 C 0.28159 0.77021 0.04848 0.0
C224 C 0.28738 0.74063 0.02185 0.0
C225 C 0.30371 0.75259 0.95727 0.0
H226 H 0.32782 0.77567 0.94635 0.0
H227 H 0.31801 0.71939 0.95719 0.0
H228 H 0.27441 0.753 0.94063 0.0
O229 O 0.2506 0.90775 0.98488 0.0
O230 O 0.24953 0.90881 0.04166 0.0
H231 H 0.26074 0.72626 0.08876 0.0
H232 H 0.30416 0.76321 0.10009 0.0
C233 C 0.27338 0.75988 0.08549 0.0
H234 H 0.24909 0.78283 0.09618 0.0
H235 H 0.21432 0.87471 0.10471 0.0
O236 O 0.29936 0.85 0.92638 0.0
C237 C 0.23666 0.9237 0.01304 0.0
Co238 Co 0.13071 0.30147 0.47115 0.0
Co239 Co 0.12412 0.28811 0.55133 0.0
C240 C 0.09345 0.37012 0.51716 0.0
O241 O 0.10506 0.3562 0.48774 0.0
O242 O 0.09938 0.34759 0.54434 0.0
C243 C 0.11802 0.32944 0.40232 0.0
O244 O 0.0832 0.34682 0.41637 0.0
C245 C 0.13601 0.30018 0.62593 0.0
C246 C 0.12864 0.2323 0.64417 0.0
C247 C 0.1371 0.27434 0.6552 0.0
N248 N 0.12742 0.27441 0.59889 0.0
N249 N 0.12252 0.23401 0.61005 0.0
C250 C 0.14637 0.34769 0.62308 0.0
H251 H 0.15791 0.3556 0.5968 0.0
H252 H 0.17147 0.35712 0.64216 0.0
H253 H 0.11641 0.36683 0.62826 0.0
C254 C 0.22449 0.29513 0.48814 0.0
N255 N 0.18221 0.2905 0.49674 0.0
N256 N 0.17932 0.28292 0.52989 0.0
C257 C 0.21973 0.28053 0.5432 0.0
C258 C 0.24986 0.28902 0.51737 0.0
C259 C 0.23929 0.31152 0.45384 0.0
H260 H 0.23934 0.28408 0.4353 0.0
H261 H 0.21632 0.33666 0.44433 0.0
H262 H 0.27236 0.32594 0.45504 0.0
O263 O 0.08366 0.25689 0.47645 0.0
O264 O 0.08131 0.24753 0.53278 0.0
H265 H 0.20672 0.24419 0.58909 0.0
H266 H 0.26309 0.25796 0.5832 0.0
C267 C 0.22924 0.26987 0.57993 0.0
H268 H 0.22456 0.29944 0.59586 0.0
H269 H 0.11601 0.20739 0.5942 0.0
O270 O 0.14388 0.30754 0.4211 0.0
C271 C 0.06695 0.2392 0.50299 0.0
H272 H 0.22059 0.98049 0.95945 0.0
H273 H 0.24131 0.17798 0.07959 0.0
H274 H 0.20163 0.96475 0.06863 0.0
H275 H 0.16297 0.19435 0.98865 0.0
H276 H 0.23451 0.09881 0.07344 0.0
H277 H 0.2039 0.05846 0.96565 0.0
C278 C 0.21166 0.99298 0.98448 0.0
C279 C 0.21344 0.9661 0.01365 0.0
C280 C 0.2186 0.11988 0.05499 0.0
C281 C 0.19593 0.05498 0.02089 0.0
C282 C 0.22239 0.16497 0.05852 0.0
C283 C 0.20303 0.1928 0.03446 0.0
C284 C 0.19628 0.10251 0.02671 0.0
C285 C 0.17944 0.17406 0.00728 0.0
C286 C 0.20244 0.03749 0.98799 0.0
C287 C 0.20158 0.98428 0.04547 0.0
N288 N 0.17733 0.12999 0.00374 0.0
N289 N 0.19458 0.02777 0.0484 0.0
H290 H 0.02761 0.18621 0.55031 0.0
H291 H 0.79621 0.26422 0.48622 0.0
H292 H 0.00619 0.24789 0.4522 0.0
H293 H 0.80996 0.16891 0.56681 0.0
H294 H 0.87404 0.2586 0.47434 0.0
H295 H 0.94906 0.17552 0.55619 0.0
C296 C 0.00651 0.19624 0.52948 0.0
C297 C 0.0235 0.21857 0.50092 0.0
C298 C 0.86015 0.23875 0.49458 0.0
C299 C 0.93359 0.20768 0.50806 0.0
C300 C 0.81581 0.24222 0.50153 0.0
C301 C 0.79674 0.21692 0.52745 0.0
C302 C 0.88594 0.21023 0.51407 0.0
C303 C 0.82357 0.18931 0.54683 0.0
C304 C 0.96163 0.19047 0.53303 0.0
C305 C 0.99464 0.23072 0.47472 0.0
N306 N 0.86696 0.18674 0.5398 0.0
N307 N 0.95101 0.22602 0.47929 0.0
H308 H 0.75278 0.00494 0.95107 0.0
H309 H 0.82935 0.80829 0.07166 0.0
H310 H 0.81073 0.02654 0.0505 0.0
H311 H 0.73116 0.79843 0.99308 0.0
H312 H 0.83601 0.8867 0.05926 0.0
H313 H 0.76284 0.92663 0.95884 0.0
C314 C 0.76899 0.99343 0.97403 0.0
C315 C 0.78013 0.02235 1.00047 0.0
C316 C 0.81306 0.86724 0.04479 0.0
C317 C 0.79073 0.93271 0.00983 0.0
C318 C 0.80883 0.82277 0.05216 0.0
C319 C 0.77962 0.79707 0.03335 0.0
C320 C 0.78826 0.88569 0.01818 0.0
C321 C 0.75429 0.81716 0.00796 0.0
C322 C 0.77409 0.94862 0.97868 0.0
C323 C 0.80102 0.00533 0.02967 0.0
N324 N 0.75941 0.86017 1.00095 0.0
N325 N 0.805 0.96151 0.03386 0.0
H326 H 0.96536 0.81224 0.55498 0.0
H327 H 0.1944 0.72624 0.49777 0.0
H328 H 0.98743 0.75319 0.456 0.0
H329 H 0.18445 0.83534 0.56701 0.0
H330 H 0.11686 0.73333 0.48485 0.0
H331 H 0.04399 0.82271 0.56118 0.0
C332 C 0.98662 0.80281 0.53405 0.0
C333 C 0.96986 0.78136 0.50508 0.0
C334 C 0.13163 0.75587 0.50277 0.0
C335 C 0.05964 0.79179 0.51263 0.0
C336 C 0.17572 0.75161 0.51034 0.0
C337 C 0.19573 0.7803 0.53339 0.0
C338 C 0.10704 0.7885 0.51895 0.0
C339 C 0.17006 0.81227 0.54936 0.0
C340 C 0.03149 0.80851 0.53774 0.0
C341 C -0.00113 0.76977 0.47879 0.0
N342 N 0.12684 0.8154 0.54199 0.0
N343 N 0.04246 0.77412 0.48357 0.0
H344 H 0.71741 0.5072 0.09698 0.0
H345 H 0.74503 0.3146 0.97238 0.0
H346 H 0.70294 0.52643 0.98776 0.0
H347 H 0.66637 0.29347 0.06267 0.0
H348 H 0.73662 0.39339 0.98022 0.0
H349 H 0.70203 0.42929 0.08877 0.0
C350 C 0.70968 0.49545 0.0715 0.0
C351 C 0.71245 0.52328 0.04293 0.0
C352 C 0.7209 0.37138 0.99812 0.0
C353 C 0.69641 0.43455 0.03344 0.0
C354 C 0.72562 0.32654 0.99361 0.0
C355 C 0.70639 0.29754 0.01687 0.0
C356 C 0.69786 0.38728 0.02663 0.0
C357 C 0.68242 0.31478 0.04449 0.0
C358 C 0.70122 0.45099 0.06684 0.0
C359 C 0.70213 0.5061 0.01048 0.0
N360 N 0.67935 0.35864 0.04897 0.0
N361 N 0.69581 0.46267 0.00649 0.0
H362 H 0.4865 0.74648 0.60782 0.0
H363 H 0.68402 0.6645 0.49039 0.0
H364 H 0.46647 0.68502 0.50951 0.0
H365 H 0.69354 0.76676 0.56585 0.0
H366 H 0.60593 0.65776 0.50334 0.0
H367 H 0.56491 0.73566 0.60118 0.0
C368 C 0.49838 0.72924 0.58543 0.0
C369 C 0.46996 0.71723 0.55893 0.0
C370 C 0.62525 0.68156 0.51706 0.0
C371 C 0.55959 0.70574 0.55085 0.0
C372 C 0.66956 0.68582 0.50938 0.0
C373 C 0.69507 0.71638 0.52702 0.0
C374 C 0.60668 0.70767 0.54283 0.0
C375 C 0.67498 0.74261 0.55187 0.0
C376 C 0.54323 0.72372 0.58141 0.0
C377 C 0.48736 0.69526 0.53037 0.0
N378 N 0.63206 0.73751 0.55918 0.0
N379 N 0.53116 0.69081 0.52681 0.0
H380 H 0.27498 0.48041 0.10002 0.0
H381 H 0.25423 0.67755 0.97975 0.0
H382 H 0.29626 0.46455 0.99113 0.0
H383 H 0.33296 0.69443 0.07041 0.0
H384 H 0.26132 0.59841 0.98615 0.0
H385 H 0.29129 0.55847 0.09382 0.0
C386 C 0.28436 0.49289 0.07508 0.0
C387 C 0.28332 0.46594 0.04595 0.0
C388 C 0.27723 0.6196 0.00448 0.0
C389 C 0.30037 0.55491 0.0387 0.0
C390 C 0.27328 0.66467 1.00081 0.0
C391 C 0.29268 0.69264 0.02472 0.0
C392 C 0.29974 0.60241 0.03276 0.0
C393 C 0.31643 0.67405 0.05191 0.0
C394 C 0.29335 0.53744 0.07156 0.0
C395 C 0.29573 0.48412 0.01424 0.0
N396 N 0.31869 0.63 0.05558 0.0
N397 N 0.30246 0.52765 0.01128 0.0
H398 H 0.29415 0.33191 0.56843 0.0
H399 H 0.52636 0.29407 0.48388 0.0
H400 H 0.31421 0.26028 0.47449 0.0
H401 H 0.50883 0.28002 0.59333 0.0
H402 H 0.44898 0.31003 0.47811 0.0
H403 H 0.37341 0.33712 0.57562 0.0
C404 C 0.31516 0.31719 0.54936 0.0
C405 C 0.29758 0.2949 0.52108 0.0
C406 C 0.46237 0.30438 0.50344 0.0
C407 C 0.38772 0.30292 0.52832 0.0
C408 C 0.50657 0.29553 0.50689 0.0
C409 C 0.52401 0.28457 0.53911 0.0
C410 C 0.43546 0.30306 0.53242 0.0
C411 C 0.49673 0.28777 0.56797 0.0
C412 C 0.36022 0.32064 0.55336 0.0
C413 C 0.32632 0.27791 0.49655 0.0
N414 N 0.45346 0.29611 0.5639 0.0
N415 N 0.37001 0.28235 0.50069 0.0
H416 H 0.08701 0.43545 0.98222 0.0
H417 H 0.90909 0.55802 0.0975 0.0
H418 H 0.07657 0.42086 0.09222 0.0
H419 H 0.92042 0.57422 0.98774 0.0
H420 H 0.97166 0.50896 0.09621 0.0
H421 H 0.02512 0.48549 0.98353 0.0
C422 C 0.07145 0.44234 0.00659 0.0
C423 C 0.08718 0.42403 0.03717 0.0
C424 C 0.96054 0.52342 0.07242 0.0
C425 C 0.01676 0.48174 0.03889 0.0
C426 C 0.92499 0.55171 0.07318 0.0
C427 C 0.90914 0.57 0.04263 0.0
C428 C 0.9804 0.51333 0.04091 0.0
C429 C 0.93112 0.56055 0.01188 0.0
C430 C 0.0363 0.47117 0.00735 0.0
C431 C 0.06573 0.43429 0.06799 0.0
N432 N 0.96543 0.53266 0.01178 0.0
N433 N 0.03178 0.46259 0.06807 0.0
H434 H 0.41797 0.92129 0.59594 0.0
H435 H 0.57292 0.07476 0.4835 0.0
H436 H 0.43453 0.90821 0.4863 0.0
H437 H 0.55623 0.0884 0.59304 0.0
H438 H 0.52332 0.0128 0.48429 0.0
H439 H 0.46746 0.98342 0.59523 0.0
C440 C 0.43159 0.93174 0.57163 0.0
C441 C 0.42219 0.90929 0.54114 0.0
C442 C 0.53063 0.02922 0.50818 0.0
C443 C 0.47941 0.98012 0.54029 0.0
C444 C 0.55913 0.06456 0.50779 0.0
C445 C 0.56854 0.08712 0.53822 0.0
C446 C 0.5113 0.0163 0.53922 0.0
C447 C 0.54991 0.07208 0.56894 0.0
C448 C 0.46009 0.9671 0.57131 0.0
C449 C 0.44086 0.92442 0.51045 0.0
N450 N 0.52195 0.03777 0.56861 0.0
N451 N 0.46878 0.95874 0.51086 0.0
H452 H 0.41728 0.92187 0.96419 0.0
H453 H 0.59059 0.06037 0.07059 0.0
H454 H 0.41382 0.9314 0.07478 0.0
H455 H 0.57436 0.06864 0.96067 0.0
H456 H 0.52829 0.01094 0.07338 0.0
H457 H 0.47916 0.97119 0.96321 0.0
C458 C 0.42975 0.93398 0.98835 0.0
C459 C 0.41005 0.92263 0.01963 0.0
C460 C 0.53823 0.02388 0.04872 0.0
C461 C 0.48091 0.97971 0.01858 0.0
C462 C 0.57366 0.05231 0.0471 0.0
C463 C 0.58789 0.06867 0.01532 0.0
C464 C 0.51715 0.01148 0.01834 0.0
C465 C 0.56472 0.05683 0.98574 0.0
C466 C 0.46498 0.96245 0.98772 0.0
C467 C 0.42789 0.93935 0.05008 0.0
N468 N 0.53074 0.02874 0.98796 0.0
N469 N 0.46228 0.96724 0.04878 0.0
H470 H 0.92901 0.58499 0.45942 0.0
H471 H 0.05362 0.40722 0.57326 0.0
H472 H 0.91947 0.57925 0.56991 0.0
H473 H 0.07353 0.42517 0.46437 0.0
H474 H 0.0029 0.46878 0.57293 0.0
H475 H 0.97817 0.52264 0.46077 0.0
C476 C 0.9368 0.57034 0.48397 0.0
C477 C 0.9204 0.58776 0.51465 0.0
C478 C 0.01861 0.45931 0.54919 0.0
C479 C 0.97726 0.51666 0.5164 0.0
C480 C 0.04779 0.42437 0.5494 0.0
C481 C 0.06774 0.41081 0.51878 0.0
C482 C 0.00926 0.48065 0.51813 0.0
C483 C 0.05882 0.43423 0.4886 0.0
C484 C 0.96521 0.53493 0.48474 0.0
C485 C 0.93173 0.56733 0.54566 0.0
N486 N 0.03007 0.46776 0.48903 0.0
N487 N 0.95965 0.53299 0.54577 0.0
H488 H 0.20943 0.312 0.19101 0.0
H489 H 0.0749 0.38292 0.35784 0.0
H490 H 0.12572 0.42492 0.19565 0.0
H491 H 0.18145 0.29126 0.36227 0.0
H492 H 0.0896 0.39417 0.29702 0.0
H493 H 0.19645 0.29959 0.25243 0.0
C494 C 0.1884 0.33419 0.2049 0.0
C495 C 0.16869 0.36961 0.18811 0.0
C496 C 0.10986 0.37162 0.31124 0.0
C497 C 0.15347 0.35538 0.25821 0.0
C498 C 0.1014 0.36506 0.34603 0.0
C499 C 0.12697 0.33608 0.36527 0.0
C500 C 0.14397 0.34881 0.29528 0.0
C501 C 0.16094 0.31396 0.34845 0.0
C502 C 0.18108 0.32712 0.23995 0.0
C503 C 0.14172 0.39727 0.20743 0.0
N504 N 0.16837 0.32066 0.31437 0.0
N505 N 0.13481 0.38947 0.24131 0.0
H506 H 0.59795 0.18343 0.86004 0.0
H507 H 0.71111 0.12076 0.68304 0.0
H508 H 0.72637 0.12656 0.85529 0.0
H509 H 0.61235 0.22042 0.6907 0.0
H510 H 0.71374 0.11689 0.74582 0.0
H511 H 0.59888 0.1917 0.79757 0.0
C512 C 0.62636 0.1727 0.84587 0.0
C513 C 0.66212 0.15421 0.86292 0.0
C514 C 0.6917 0.13976 0.73372 0.0
C515 C 0.66319 0.16322 0.79138 0.0
C516 C 0.69006 0.1419 0.69791 0.0
C517 C 0.66142 0.17092 0.68159 0.0
C518 C 0.66393 0.16626 0.75336 0.0
C519 C 0.63501 0.19766 0.70218 0.0
C520 C 0.62693 0.1776 0.81023 0.0
C521 C 0.69814 0.14108 0.84321 0.0
N522 N 0.63661 0.19439 0.73697 0.0
N523 N 0.69761 0.14548 0.80846 0.0
H524 H 0.78533 0.61267 0.36705 0.0
H525 H 0.87711 0.70479 0.18958 0.0
H526 H 0.86704 0.72685 0.36042 0.0
H527 H 0.76627 0.61861 0.19559 0.0
H528 H 0.87718 0.71015 0.25222 0.0
H529 H 0.78099 0.61114 0.30433 0.0
C530 C 0.80226 0.6375 0.35243 0.0
C531 C 0.82666 0.66989 0.36906 0.0
C532 C 0.85271 0.69024 0.23982 0.0
C533 C 0.82213 0.66806 0.29722 0.0
C534 C 0.85273 0.68705 0.20405 0.0
C535 C 0.82169 0.66113 0.18727 0.0
C536 C 0.82181 0.66688 0.25907 0.0
C537 C 0.79077 0.63903 0.2074 0.0
C538 C 0.79966 0.63666 0.31663 0.0
C539 C 0.84779 0.70131 0.34874 0.0
N540 N 0.79182 0.64214 0.24223 0.0
N541 N 0.84532 0.6994 0.31392 0.0
H542 H 0.36516 0.92727 0.86233 0.0
H543 H 0.30679 0.78673 0.69568 0.0
H544 H 0.28477 0.81199 0.86733 0.0
H545 H 0.41206 0.87976 0.7005 0.0
H546 H 0.29249 0.79922 0.75694 0.0
H547 H 0.3766 0.9143 0.80133 0.0
C548 C 0.34975 0.89924 0.8506 0.0
C549 C 0.32398 0.87065 0.87008 0.0
C550 C 0.31872 0.8168 0.74451 0.0
C551 C 0.33698 0.8556 0.79986 0.0
C552 C 0.32683 0.80978 0.70956 0.0
C553 C 0.36076 0.83216 0.69291 0.0
C554 C 0.34437 0.84677 0.76279 0.0
C555 C 0.38568 0.86163 0.7122 0.0
C556 C 0.35644 0.89178 0.8157 0.0
C557 C 0.30495 0.83483 0.85333 0.0
N558 N 0.3769 0.86815 0.74597 0.0
N559 N 0.31175 0.82836 0.81914 0.0
H560 H 0.75636 0.59799 0.83985 0.0
H561 H 0.90084 0.74603 0.71562 0.0
H562 H 0.85566 0.68588 0.87617 0.0
H563 H 0.81311 0.64634 0.67967 0.0
H564 H 0.88727 0.72236 0.77472 0.0
H565 H 0.77917 0.61282 0.78083 0.0
C566 C 0.78342 0.61993 0.8353 0.0
C567 C 0.80473 0.64016 0.86274 0.0
C568 C 0.8715 0.7052 0.75388 0.0
C569 C 0.83049 0.65799 0.79553 0.0
C570 C 0.87922 0.71873 0.72025 0.0
C571 C 0.85873 0.69747 0.69289 0.0
C572 C 0.84242 0.67072 0.76011 0.0
C573 C 0.83054 0.66271 0.70006 0.0
C574 C 0.79645 0.62839 0.80169 0.0
C575 C 0.83922 0.66872 0.85567 0.0
N576 N 0.82302 0.65054 0.73303 0.0
N577 N 0.85088 0.67703 0.82269 0.0
H578 H 0.30538 0.72848 0.36012 0.0
H579 H 0.36147 0.87189 0.19482 0.0
H580 H 0.39882 0.83341 0.36325 0.0
H581 H 0.24216 0.79938 0.20736 0.0
H582 H 0.38265 0.85129 0.25343 0.0
H583 H 0.28909 0.7469 0.30062 0.0
C584 C 0.32251 0.75542 0.34821 0.0
C585 C 0.35296 0.77993 0.36673 0.0
C586 C 0.35195 0.83982 0.2432 0.0
C587 C 0.33469 0.80104 0.29857 0.0
C588 C 0.34007 0.85118 0.20973 0.0
C589 C 0.30024 0.83688 0.19623 0.0
C590 C 0.32393 0.81366 0.26294 0.0
C591 C 0.27315 0.81107 0.21687 0.0
C592 C 0.31307 0.76603 0.31431 0.0
C593 C 0.37435 0.81439 0.35006 0.0
N594 N 0.28558 0.80011 0.24911 0.0
N595 N 0.36485 0.82396 0.31679 0.0
H596 H 0.18864 0.22949 0.69909 0.0
H597 H 0.14265 0.37898 0.86213 0.0
H598 H 0.11035 0.3459 0.69213 0.0
H599 H 0.25722 0.29867 0.85171 0.0
H600 H 0.12257 0.36097 0.80275 0.0
H601 H 0.20651 0.24808 0.75838 0.0
C602 C 0.1753 0.25905 0.7101 0.0
C603 C 0.1485 0.28654 0.69067 0.0
C604 C 0.15202 0.34729 0.8136 0.0
C605 C 0.16825 0.30768 0.75851 0.0
C606 C 0.16322 0.35716 0.84748 0.0
C607 C 0.20137 0.33984 0.86181 0.0
C608 C 0.1789 0.31949 0.79431 0.0
C609 C 0.22751 0.31263 0.84155 0.0
C610 C 0.1856 0.2697 0.74384 0.0
C611 C 0.13188 0.32436 0.70611 0.0
N612 N 0.21564 0.30304 0.80891 0.0
N613 N 0.14185 0.33378 0.73931 0.0
H614 H 0.66341 0.20613 0.17345 0.0
H615 H 0.67493 0.13598 0.37054 0.0
H616 H 0.72262 0.08678 0.20864 0.0
H617 H 0.60803 0.25098 0.33473 0.0
H618 H 0.68824 0.11471 0.31113 0.0
H619 H 0.63856 0.22082 0.23192 0.0
C620 C 0.67016 0.18248 0.19339 0.0
C621 C 0.694 0.14463 0.18622 0.0
C622 C 0.67008 0.14428 0.3162 0.0
C623 C 0.66729 0.16192 0.2533 0.0
C624 C 0.662 0.15614 0.35015 0.0
C625 C 0.63945 0.19477 0.35747 0.0
C626 C 0.65608 0.1716 0.28945 0.0
C627 C 0.62529 0.22076 0.33007 0.0
C628 C 0.65645 0.19109 0.22683 0.0
C629 C 0.70391 0.11614 0.21322 0.0
N630 N 0.63393 0.20877 0.29724 0.0
N631 N 0.69054 0.12537 0.24562 0.0
loop_
_geom_bond_atom_site_label_1
_geom_bond_atom_site_label_2
_geom_bond_distance
_geom_bond_site_symmetry_2
_ccdc_geom_bond_type
Co0 O3 1.970 . S
Co0 N17 1.989 . S
Co0 O25 1.967 . S
Co0 O32 1.920 . S
Co1 O4 1.966 1_556 S
Co1 N10 2.022 . S
Co1 N18 1.993 1_556 S
Co1 O26 1.941 1_556 S
C2 O3 1.258 . S
C2 O4 1.263 . S
O3 Co0 1.970 . S
O3 C2 1.258 . S
O4 Co1 1.966 1_554 S
O4 C2 1.263 . S
C5 O6 1.235 . S
C5 O32 1.289 . S
O6 C5 1.235 . S
C7 C9 1.400 . S
C7 N10 1.351 . S
C7 C12 1.501 . S
C8 C9 1.387 . S
C8 N11 1.341 . S
C9 C7 1.400 . S
C9 C8 1.387 . S
N10 Co1 2.022 . S
N10 C7 1.351 . S
N10 N11 1.365 . S
N11 C8 1.341 . S
N11 N10 1.365 . S
N11 H31 0.862 . S
C12 C7 1.501 . S
C12 H13 0.961 . S
C12 H14 0.961 . S
C12 H15 0.960 . S
H13 C12 0.961 . S
H14 C12 0.961 . S
H15 C12 0.960 . S
C16 N17 1.342 . S
C16 C20 1.401 . S
C16 C21 1.499 . S
N17 Co0 1.989 . S
N17 C16 1.342 . S
N17 N18 1.388 . S
N18 Co1 1.993 1_554 S
N18 N17 1.388 . S
N18 C19 1.346 . S
C19 N18 1.346 . S
C19 C20 1.396 . S
C19 C29 1.510 1_554 S
C20 C16 1.401 . S
C20 C19 1.396 . S
C21 C16 1.499 . S
C21 H22 0.959 . S
C21 H23 0.960 . S
C21 H24 0.961 . S
H22 C21 0.959 . S
H23 C21 0.960 . S
H24 C21 0.961 . S
O25 Co0 1.967 . S
O25 C33 1.258 . S
O26 Co1 1.941 1_554 S
O26 C33 1.266 . S
H27 C29 0.959 . S
H28 C29 0.961 . S
C29 C19 1.510 1_556 S
C29 H27 0.959 . S
C29 H28 0.961 . S
C29 H30 0.960 . S
H30 C29 0.960 . S
H31 N11 0.862 . S
O32 Co0 1.920 . S
O32 C5 1.289 . S
C33 O25 1.258 . S
C33 O26 1.266 . S
Co34 O37 1.970 . S
Co34 N51 1.989 . S
Co34 O59 1.967 . S
Co34 O66 1.920 . S
Co35 O38 1.966 . S
Co35 N44 2.022 . S
Co35 N52 1.993 . S
Co35 O60 1.941 . S
C36 O37 1.258 . S
C36 O38 1.263 . S
O37 Co34 1.970 . S
O37 C36 1.258 . S
O38 Co35 1.966 . S
O38 C36 1.263 . S
C39 O40 1.235 . S
C39 O66 1.289 . S
O40 C39 1.235 . S
C41 C43 1.400 . S
C41 N44 1.351 . S
C41 C46 1.501 . S
C42 C43 1.387 . S
C42 N45 1.341 . S
C43 C41 1.400 . S
C43 C42 1.387 . S
N44 Co35 2.022 . S
N44 C41 1.351 . S
N44 N45 1.365 . S
N45 C42 1.341 . S
N45 N44 1.365 . S
N45 H65 0.862 . S
C46 C41 1.501 . S
C46 H47 0.961 . S
C46 H48 0.961 . S
C46 H49 0.960 . S
H47 C46 0.961 . S
H48 C46 0.961 . S
H49 C46 0.960 . S
C50 N51 1.342 . S
C50 C54 1.401 . S
C50 C55 1.499 . S
N51 Co34 1.989 . S
N51 C50 1.342 . S
N51 N52 1.388 . S
N52 Co35 1.993 . S
N52 N51 1.388 . S
N52 C53 1.346 . S
C53 N52 1.346 . S
C53 C54 1.396 . S
C53 C63 1.510 . S
C54 C50 1.401 . S
C54 C53 1.396 . S
C55 C50 1.499 . S
C55 H56 0.959 . S
C55 H57 0.960 . S
C55 H58 0.961 . S
H56 C55 0.959 . S
H57 C55 0.960 . S
H58 C55 0.961 . S
O59 Co34 1.967 . S
O59 C67 1.258 . S
O60 Co35 1.941 . S
O60 C67 1.266 . S
H61 C63 0.959 . S
H62 C63 0.961 . S
C63 C53 1.510 . S
C63 H61 0.959 . S
C63 H62 0.961 . S
C63 H64 0.960 . S
H64 C63 0.960 . S
H65 N45 0.862 . S
O66 Co34 1.920 . S
O66 C39 1.289 . S
C67 O59 1.258 . S
C67 O60 1.266 . S
Co68 O71 1.970 . S
Co68 N85 1.989 . S
Co68 O93 1.967 . S
Co68 O100 1.920 . S
Co69 O72 1.966 1_556 S
Co69 N78 2.022 . S
Co69 N86 1.993 1_556 S
Co69 O94 1.941 1_556 S
C70 O71 1.258 . S
C70 O72 1.263 . S
O71 Co68 1.970 . S
O71 C70 1.258 . S
O72 Co69 1.966 1_554 S
O72 C70 1.263 . S
C73 O74 1.235 . S
C73 O100 1.289 . S
O74 C73 1.235 . S
C75 C77 1.400 . S
C75 N78 1.351 . S
C75 C80 1.501 . S
C76 C77 1.387 . S
C76 N79 1.341 . S
C77 C75 1.400 . S
C77 C76 1.387 . S
N78 Co69 2.022 . S
N78 C75 1.351 . S
N78 N79 1.365 . S
N79 C76 1.341 . S
N79 N78 1.365 . S
N79 H99 0.862 . S
C80 C75 1.501 . S
C80 H81 0.961 . S
C80 H82 0.961 . S
C80 H83 0.960 . S
H81 C80 0.961 . S
H82 C80 0.961 . S
H83 C80 0.960 . S
C84 N85 1.342 . S
C84 C88 1.401 . S
C84 C89 1.499 . S
N85 Co68 1.989 . S
N85 C84 1.342 . S
N85 N86 1.388 . S
N86 Co69 1.993 1_554 S
N86 N85 1.388 . S
N86 C87 1.346 . S
C87 N86 1.346 . S
C87 C88 1.396 . S
C87 C97 1.510 1_554 S
C88 C84 1.401 . S
C88 C87 1.396 . S
C89 C84 1.499 . S
C89 H90 0.959 . S
C89 H91 0.960 . S
C89 H92 0.961 . S
H90 C89 0.959 . S
H91 C89 0.960 . S
H92 C89 0.961 . S
O93 Co68 1.967 . S
O93 C101 1.258 . S
O94 Co69 1.941 1_554 S
O94 C101 1.266 . S
H95 C97 0.959 . S
H96 C97 0.961 . S
C97 C87 1.510 1_556 S
C97 H95 0.959 . S
C97 H96 0.961 . S
C97 H98 0.960 . S
H98 C97 0.960 . S
H99 N79 0.862 . S
O100 Co68 1.920 . S
O100 C73 1.289 . S
C101 O93 1.258 . S
C101 O94 1.266 . S
Co102 O105 1.970 . S
Co102 N119 1.989 . S
Co102 O127 1.967 . S
Co102 O134 1.920 . S
Co103 O106 1.966 . S
Co103 N112 2.022 . S
Co103 N120 1.993 . S
Co103 O128 1.941 . S
C104 O105 1.258 . S
C104 O106 1.263 . S
O105 Co102 1.970 . S
O105 C104 1.258 . S
O106 Co103 1.966 . S
O106 C104 1.263 . S
C107 O108 1.235 . S
C107 O134 1.289 . S
O108 C107 1.235 . S
C109 C111 1.400 . S
C109 N112 1.351 . S
C109 C114 1.501 . S
C110 C111 1.387 . S
C110 N113 1.341 . S
C111 C109 1.400 . S
C111 C110 1.387 . S
N112 Co103 2.022 . S
N112 C109 1.351 . S
N112 N113 1.365 . S
N113 C110 1.341 . S
N113 N112 1.365 . S
N113 H133 0.862 . S
C114 C109 1.501 . S
C114 H115 0.961 . S
C114 H116 0.961 . S
C114 H117 0.960 . S
H115 C114 0.961 . S
H116 C114 0.961 . S
H117 C114 0.960 . S
C118 N119 1.342 . S
C118 C122 1.401 . S
C118 C123 1.499 . S
N119 Co102 1.989 . S
N119 C118 1.342 . S
N119 N120 1.388 . S
N120 Co103 1.993 . S
N120 N119 1.388 . S
N120 C121 1.346 . S
C121 N120 1.346 . S
C121 C122 1.396 . S
C121 C131 1.510 . S
C122 C118 1.401 . S
C122 C121 1.396 . S
C123 C118 1.499 . S
C123 H124 0.959 . S
C123 H125 0.960 . S
C123 H126 0.961 . S
H124 C123 0.959 . S
H125 C123 0.960 . S
H126 C123 0.961 . S
O127 Co102 1.967 . S
O127 C135 1.258 . S
O128 Co103 1.941 . S
O128 C135 1.266 . S
H129 C131 0.959 . S
H130 C131 0.961 . S
C131 C121 1.510 . S
C131 H129 0.959 . S
C131 H130 0.961 . S
C131 H132 0.960 . S
H132 C131 0.960 . S
H133 N113 0.862 . S
O134 Co102 1.920 . S
O134 C107 1.289 . S
C135 O127 1.258 . S
C135 O128 1.266 . S
Co136 O139 1.970 . S
Co136 N153 1.975 1_556 S
Co136 O161 1.967 . S
Co136 O168 1.920 . S
Co137 O140 1.966 . S
Co137 N146 2.022 . S
Co137 N154 1.993 . S
Co137 O162 1.941 . S
C138 O139 1.258 1_554 S
C138 O140 1.263 . S
O139 Co136 1.970 . S
O139 C138 1.258 1_556 S
O140 Co137 1.966 . S
O140 C138 1.263 . S
C141 O142 1.235 . S
C141 O168 1.289 . S
O142 C141 1.235 . S
C143 C145 1.400 . S
C143 N146 1.351 . S
C143 C148 1.501 . S
C144 C145 1.387 . S
C144 N147 1.341 . S
C145 C143 1.400 . S
C145 C144 1.387 . S
N146 Co137 2.022 . S
N146 C143 1.351 . S
N146 N147 1.365 . S
N147 C144 1.341 . S
N147 N146 1.365 . S
N147 H167 0.862 . S
C148 C143 1.501 . S
C148 H149 0.961 . S
C148 H150 0.961 . S
C148 H151 0.960 . S
H149 C148 0.961 . S
H150 C148 0.961 . S
H151 C148 0.960 . S
C152 N153 1.333 1_556 S
C152 C156 1.401 1_556 S
C152 C157 1.499 . S
N153 Co136 1.975 1_554 S
N153 C152 1.333 1_554 S
N153 N154 1.417 . S
N154 Co137 1.993 . S
N154 N153 1.417 . S
N154 C155 1.346 . S
C155 N154 1.346 . S
C155 C156 1.396 . S
C155 C165 1.510 . S
C156 C152 1.401 1_554 S
C156 C155 1.396 . S
C157 C152 1.499 . S
C157 H158 0.959 . S
C157 H159 0.960 . S
C157 H160 0.961 . S
H158 C157 0.959 . S
H159 C157 0.960 . S
H160 C157 0.961 . S
O161 Co136 1.967 . S
O161 C169 1.258 1_556 S
O162 Co137 1.941 . S
O162 C169 1.266 . S
H163 C165 0.959 . S
H164 C165 0.961 . S
C165 C155 1.510 . S
C165 H163 0.959 . S
C165 H164 0.961 . S
C165 H166 0.960 . S
H166 C165 0.960 . S
H167 N147 0.862 . S
O168 Co136 1.920 . S
O168 C141 1.289 . S
C169 O161 1.258 1_554 S
C169 O162 1.266 . S
Co170 O173 1.970 . S
Co170 N187 1.989 . S
Co170 O195 1.967 . S
Co170 O202 1.920 . S
Co171 O174 1.966 . S
Co171 N180 2.022 . S
Co171 N188 1.993 . S
Co171 O196 1.941 . S
C172 O173 1.258 . S
C172 O174 1.263 . S
O173 Co170 1.970 . S
O173 C172 1.258 . S
O174 Co171 1.966 . S
O174 C172 1.263 . S
C175 O176 1.235 . S
C175 O202 1.289 . S
O176 C175 1.235 . S
C177 C179 1.400 . S
C177 N180 1.351 . S
C177 C182 1.501 . S
C178 C179 1.387 . S
C178 N181 1.341 . S
C179 C177 1.400 . S
C179 C178 1.387 . S
N180 Co171 2.022 . S
N180 C177 1.351 . S
N180 N181 1.365 . S
N181 C178 1.341 . S
N181 N180 1.365 . S
N181 H201 0.862 . S
C182 C177 1.501 . S
C182 H183 0.961 . S
C182 H184 0.961 . S
C182 H185 0.960 . S
H183 C182 0.961 . S
H184 C182 0.961 . S
H185 C182 0.960 . S
C186 N187 1.342 . S
C186 C190 1.401 . S
C186 C191 1.499 . S
N187 Co170 1.989 . S
N187 C186 1.342 . S
N187 N188 1.388 . S
N188 Co171 1.993 . S
N188 N187 1.388 . S
N188 C189 1.346 . S
C189 N188 1.346 . S
C189 C190 1.396 . S
C189 C199 1.510 . S
C190 C186 1.401 . S
C190 C189 1.396 . S
C191 C186 1.499 . S
C191 H192 0.959 . S
C191 H193 0.960 . S
C191 H194 0.961 . S
H192 C191 0.959 . S
H193 C191 0.960 . S
H194 C191 0.961 . S
O195 Co170 1.967 . S
O195 C203 1.258 . S
O196 Co171 1.941 . S
O196 C203 1.266 . S
H197 C199 0.959 . S
H198 C199 0.961 . S
C199 C189 1.510 . S
C199 H197 0.959 . S
C199 H198 0.961 . S
C199 H200 0.960 . S
H200 C199 0.960 . S
H201 N181 0.862 . S
O202 Co170 1.920 . S
O202 C175 1.289 . S
C203 O195 1.258 . S
C203 O196 1.266 . S
Co204 O207 1.970 . S
Co204 N221 1.975 1_556 S
Co204 O229 1.967 . S
Co204 O236 1.920 . S
Co205 O208 1.966 . S
Co205 N214 2.022 . S
Co205 N222 1.993 . S
Co205 O230 1.941 . S
C206 O207 1.258 1_554 S
C206 O208 1.263 . S
O207 Co204 1.970 . S
O207 C206 1.258 1_556 S
O208 Co205 1.966 . S
O208 C206 1.263 . S
C209 O210 1.235 . S
C209 O236 1.289 . S
O210 C209 1.235 . S
C211 C213 1.400 . S
C211 N214 1.351 . S
C211 C216 1.501 . S
C212 C213 1.387 . S
C212 N215 1.341 . S
C213 C211 1.400 . S
C213 C212 1.387 . S
N214 Co205 2.022 . S
N214 C211 1.351 . S
N214 N215 1.365 . S
N215 C212 1.341 . S
N215 N214 1.365 . S
N215 H235 0.862 . S
C216 C211 1.501 . S
C216 H217 0.961 . S
C216 H218 0.961 . S
C216 H219 0.960 . S
H217 C216 0.961 . S
H218 C216 0.961 . S
H219 C216 0.960 . S
C220 N221 1.333 1_556 S
C220 C224 1.401 1_556 S
C220 C225 1.499 . S
N221 Co204 1.975 1_554 S
N221 C220 1.333 1_554 S
N221 N222 1.417 . S
N222 Co205 1.993 . S
N222 N221 1.417 . S
N222 C223 1.346 . S
C223 N222 1.346 . S
C223 C224 1.396 . S
C223 C233 1.510 . S
C224 C220 1.401 1_554 S
C224 C223 1.396 . S
C225 C220 1.499 . S
C225 H226 0.959 . S
C225 H227 0.960 . S
C225 H228 0.961 . S
H226 C225 0.959 . S
H227 C225 0.960 . S
H228 C225 0.961 . S
O229 Co204 1.967 . S
O229 C237 1.258 1_556 S
O230 Co205 1.941 . S
O230 C237 1.266 . S
H231 C233 0.959 . S
H232 C233 0.961 . S
C233 C223 1.510 . S
C233 H231 0.959 . S
C233 H232 0.961 . S
C233 H234 0.960 . S
H234 C233 0.960 . S
H235 N215 0.862 . S
O236 Co204 1.920 . S
O236 C209 1.289 . S
C237 O229 1.258 1_554 S
C237 O230 1.266 . S
Co238 O241 1.970 . S
Co238 N255 1.989 . S
Co238 O263 1.967 . S
Co238 O270 1.920 . S
Co239 O242 1.966 . S
Co239 N248 2.022 . S
Co239 N256 1.993 . S
Co239 O264 1.941 . S
C240 O241 1.258 . S
C240 O242 1.263 . S
O241 Co238 1.970 . S
O241 C240 1.258 . S
O242 Co239 1.966 . S
O242 C240 1.263 . S
C243 O244 1.235 . S
C243 O270 1.289 . S
O244 C243 1.235 . S
C245 C247 1.400 . S
C245 N248 1.351 . S
C245 C250 1.501 . S
C246 C247 1.387 . S
C246 N249 1.341 . S
C247 C245 1.400 . S
C247 C246 1.387 . S
N248 Co239 2.022 . S
N248 C245 1.351 . S
N248 N249 1.365 . S
N249 C246 1.341 . S
N249 N248 1.365 . S
N249 H269 0.862 . S
C250 C245 1.501 . S
C250 H251 0.961 . S
C250 H252 0.961 . S
C250 H253 0.960 . S
H251 C250 0.961 . S
H252 C250 0.961 . S
H253 C250 0.960 . S
C254 N255 1.342 . S
C254 C258 1.401 . S
C254 C259 1.499 . S
N255 Co238 1.989 . S
N255 C254 1.342 . S
N255 N256 1.388 . S
N256 Co239 1.993 . S
N256 N255 1.388 . S
N256 C257 1.346 . S
C257 N256 1.346 . S
C257 C258 1.396 . S
C257 C267 1.510 . S
C258 C254 1.401 . S
C258 C257 1.396 . S
C259 C254 1.499 . S
C259 H260 0.959 . S
C259 H261 0.960 . S
C259 H262 0.961 . S
H260 C259 0.959 . S
H261 C259 0.960 . S
H262 C259 0.961 . S
O263 Co238 1.967 . S
O263 C271 1.258 . S
O264 Co239 1.941 . S
O264 C271 1.266 . S
H265 C267 0.959 . S
H266 C267 0.961 . S
C267 C257 1.510 . S
C267 H265 0.959 . S
C267 H266 0.961 . S
C267 H268 0.960 . S
H268 C267 0.960 . S
H269 N249 0.862 . S
O270 Co238 1.920 . S
O270 C243 1.289 . S
C271 O263 1.258 . S
C271 O264 1.266 . S
H272 C278 0.930 . S
H273 C282 0.930 . S
H274 C287 0.929 . S
H275 C285 0.929 1_556 S
H276 C280 0.929 . S
H277 C286 0.929 . S
C278 H272 0.930 . S
C278 C279 1.371 1_556 S
C278 C286 1.378 . S
C279 C278 1.371 1_554 S
C279 C287 1.437 . S
C280 H276 0.929 . S
C280 C282 1.378 . S
C280 C284 1.350 . S
C281 C284 1.463 . S
C281 C286 1.350 1_554 S
C281 N289 1.427 . S
C282 H273 0.930 . S
C282 C280 1.378 . S
C282 C283 1.367 . S
C283 C282 1.367 . S
C283 C285 1.433 . S
C284 C280 1.350 . S
C284 C281 1.463 . S
C284 N288 1.427 1_554 S
C285 H275 0.929 1_554 S
C285 C283 1.433 . S
C285 N288 1.384 1_554 S
C286 H277 0.929 . S
C286 C278 1.378 . S
C286 C281 1.350 1_556 S
C287 H274 0.929 . S
C287 C279 1.437 . S
C287 N289 1.384 . S
N288 C284 1.427 1_556 S
N288 C285 1.384 1_556 S
N289 C281 1.427 . S
N289 C287 1.384 . S
H290 C296 0.930 . S
H291 C300 0.930 . S
H292 C305 0.929 . S
H293 C303 0.929 . S
H294 C298 0.929 . S
H295 C304 0.929 . S
C296 H290 0.930 . S
C296 C297 1.370 . S
C296 C304 1.378 . S
C297 C296 1.370 . S
C297 C305 1.437 . S
C298 H294 0.929 . S
C298 C300 1.378 . S
C298 C302 1.350 . S
C299 C302 1.463 . S
C299 C304 1.350 . S
C299 N307 1.427 . S
C300 H291 0.930 . S
C300 C298 1.378 . S
C300 C301 1.367 . S
C301 C300 1.367 . S
C301 C303 1.433 . S
C302 C298 1.350 . S
C302 C299 1.463 . S
C302 N306 1.427 . S
C303 H293 0.929 . S
C303 C301 1.433 . S
C303 N306 1.384 . S
C304 H295 0.929 . S
C304 C296 1.378 . S
C304 C299 1.350 . S
C305 H292 0.929 . S
C305 C297 1.437 . S
C305 N307 1.384 . S
N306 C302 1.427 . S
N306 C303 1.384 . S
N307 C299 1.427 . S
N307 C305 1.384 . S
H308 C314 0.930 . S
H309 C318 0.930 . S
H310 C323 0.929 1_545 S
H311 C321 0.929 . S
H312 C316 0.929 . S
H313 C322 0.929 . S
C314 H308 0.930 . S
C314 C315 1.374 . S
C314 C322 1.378 . S
C315 C314 1.374 . S
C315 C323 1.437 . S
C316 H312 0.929 . S
C316 C318 1.378 . S
C316 C320 1.350 . S
C317 C320 1.463 . S
C317 C322 1.350 . S
C317 N325 1.427 . S
C318 H309 0.930 . S
C318 C316 1.378 . S
C318 C319 1.367 . S
C319 C318 1.367 . S
C319 C321 1.433 . S
C320 C316 1.350 . S
C320 C317 1.463 . S
C320 N324 1.427 . S
C321 H311 0.929 . S
C321 C319 1.433 . S
C321 N324 1.384 . S
C322 H313 0.929 . S
C322 C314 1.378 . S
C322 C317 1.350 . S
C323 H310 0.929 1_565 S
C323 C315 1.437 . S
C323 N325 1.384 . S
N324 C320 1.427 . S
N324 C321 1.384 . S
N325 C317 1.427 . S
N325 C323 1.384 . S
H326 C332 0.930 1_655 S
H327 C336 0.930 . S
H328 C341 0.929 . S
H329 C339 0.929 . S
H330 C334 0.929 . S
H331 C340 0.929 . S
C332 H326 0.930 1_455 S
C332 C333 1.368 . S
C332 C340 1.378 . S
C333 C332 1.368 . S
C333 C341 1.436 . S
C334 H330 0.929 . S
C334 C336 1.378 . S
C334 C338 1.350 . S
C335 C338 1.463 . S
C335 C340 1.350 . S
C335 N343 1.427 . S
C336 H327 0.930 . S
C336 C334 1.378 . S
C336 C337 1.367 . S
C337 C336 1.367 . S
C337 C339 1.433 . S
C338 C334 1.350 . S
C338 C335 1.463 . S
C338 N342 1.427 . S
C339 H329 0.929 . S
C339 C337 1.433 . S
C339 N342 1.384 . S
C340 H331 0.929 . S
C340 C332 1.378 . S
C340 C335 1.350 . S
C341 H328 0.929 . S
C341 C333 1.436 . S
C341 N343 1.384 . S
N342 C338 1.427 . S
N342 C339 1.384 . S
N343 C335 1.427 . S
N343 C341 1.384 . S
H344 C350 0.930 . S
H345 C354 0.930 . S
H346 C359 0.929 1_556 S
H347 C357 0.929 . S
H348 C352 0.929 . S
H349 C358 0.929 . S
C350 H344 0.930 . S
C350 C351 1.367 . S
C350 C358 1.378 . S
C351 C350 1.367 . S
C351 C359 1.433 . S
C352 H348 0.929 . S
C352 C354 1.378 . S
C352 C356 1.350 1_556 S
C353 C356 1.463 . S
C353 C358 1.350 . S
C353 N361 1.427 . S
C354 H345 0.930 . S
C354 C352 1.378 . S
C354 C355 1.367 1_556 S
C355 C354 1.367 1_554 S
C355 C357 1.433 . S
C356 C352 1.350 1_554 S
C356 C353 1.463 . S
C356 N360 1.427 . S
C357 H347 0.929 . S
C357 C355 1.433 . S
C357 N360 1.384 . S
C358 H349 0.929 . S
C358 C350 1.378 . S
C358 C353 1.350 . S
C359 H346 0.929 1_554 S
C359 C351 1.433 . S
C359 N361 1.384 . S
N360 C356 1.427 . S
N360 C357 1.384 . S
N361 C353 1.427 . S
N361 C359 1.384 . S
H362 C368 0.930 . S
H363 C372 0.930 . S
H364 C377 0.929 . S
H365 C375 0.929 . S
H366 C370 0.929 . S
H367 C376 0.929 . S
C368 H362 0.930 . S
C368 C369 1.367 . S
C368 C376 1.378 . S
C369 C368 1.367 . S
C369 C377 1.433 . S
C370 H366 0.929 . S
C370 C372 1.378 . S
C370 C374 1.350 . S
C371 C374 1.463 . S
C371 C376 1.350 . S
C371 N379 1.427 . S
C372 H363 0.930 . S
C372 C370 1.378 . S
C372 C373 1.367 . S
C373 C372 1.367 . S
C373 C375 1.433 . S
C374 C370 1.350 . S
C374 C371 1.463 . S
C374 N378 1.427 . S
C375 H365 0.929 . S
C375 C373 1.433 . S
C375 N378 1.384 . S
C376 H367 0.929 . S
C376 C368 1.378 . S
C376 C371 1.350 . S
C377 H364 0.929 . S
C377 C369 1.433 . S
C377 N379 1.384 . S
N378 C374 1.427 . S
N378 C375 1.384 . S
N379 C371 1.427 . S
N379 C377 1.384 . S
H380 C386 0.930 . S
H381 C390 0.930 . S
H382 C395 0.929 1_556 S
H383 C393 0.929 . S
H384 C388 0.941 . S
H385 C394 0.929 . S
C386 H380 0.930 . S
C386 C387 1.367 . S
C386 C394 1.378 . S
C387 C386 1.367 . S
C387 C395 1.433 . S
C388 H384 0.941 . S
C388 C390 1.379 . S
C388 C392 1.336 1_556 S
C389 C392 1.463 . S
C389 C394 1.350 . S
C389 N397 1.427 . S
C390 H381 0.930 . S
C390 C388 1.379 . S
C390 C391 1.367 1_556 S
C391 C390 1.367 1_554 S
C391 C393 1.433 . S
C392 C388 1.336 1_554 S
C392 C389 1.463 . S
C392 N396 1.427 . S
C393 H383 0.929 . S
C393 C391 1.433 . S
C393 N396 1.384 . S
C394 H385 0.929 . S
C394 C386 1.378 . S
C394 C389 1.350 . S
C395 H382 0.929 1_554 S
C395 C387 1.433 . S
C395 N397 1.384 . S
N396 C392 1.427 . S
N396 C393 1.384 . S
N397 C389 1.427 . S
N397 C395 1.384 . S
H398 C404 0.930 . S
H399 C408 0.930 . S
H400 C413 0.929 . S
H401 C411 0.929 . S
H402 C406 0.929 . S
H403 C412 0.929 . S
C404 H398 0.930 . S
C404 C405 1.367 . S
C404 C412 1.378 . S
C405 C404 1.367 . S
C405 C413 1.433 . S
C406 H402 0.929 . S
C406 C408 1.378 . S
C406 C410 1.350 . S
C407 C410 1.463 . S
C407 C412 1.350 . S
C407 N415 1.427 . S
C408 H399 0.930 . S
C408 C406 1.378 . S
C408 C409 1.367 . S
C409 C408 1.367 . S
C409 C411 1.433 . S
C410 C406 1.350 . S
C410 C407 1.463 . S
C410 N414 1.427 . S
C411 H401 0.929 . S
C411 C409 1.433 . S
C411 N414 1.384 . S
C412 H403 0.929 . S
C412 C404 1.378 . S
C412 C407 1.350 . S
C413 H400 0.929 . S
C413 C405 1.433 . S
C413 N415 1.384 . S
N414 C410 1.427 . S
N414 C411 1.384 . S
N415 C407 1.427 . S
N415 C413 1.384 . S
H416 C422 0.929 1_556 S
H417 C426 0.930 . S
H418 C431 0.929 . S
H419 C429 0.941 . S
H420 C424 0.929 . S
H421 C430 0.928 1_556 S
C422 H416 0.929 1_554 S
C422 C423 1.368 . S
C422 C430 1.378 . S
C423 C422 1.368 . S
C423 C431 1.433 . S
C424 H420 0.929 . S
C424 C426 1.378 . S
C424 C428 1.350 . S
C425 C428 1.463 1_455 S
C425 C430 1.350 . S
C425 N433 1.427 . S
C426 H417 0.930 . S
C426 C424 1.378 . S
C426 C427 1.367 . S
C427 C426 1.367 . S
C427 C429 1.421 1_554 S
C428 C424 1.350 . S
C428 C425 1.463 1_655 S
C428 N432 1.430 1_554 S
C429 H419 0.941 . S
C429 C427 1.421 1_556 S
C429 N432 1.383 . S
C430 H421 0.928 1_554 S
C430 C422 1.378 . S
C430 C425 1.350 . S
C431 H418 0.929 . S
C431 C423 1.433 . S
C431 N433 1.384 . S
N432 C428 1.430 1_556 S
N432 C429 1.383 . S
N433 C425 1.427 . S
N433 C431 1.384 . S
H434 C440 0.930 . S
H435 C444 0.930 . S
H436 C449 0.929 . S
H437 C447 0.929 . S
H438 C442 0.929 1_565 S
H439 C448 0.929 1_545 S
C440 H434 0.930 . S
C440 C441 1.367 . S
C440 C448 1.378 . S
C441 C440 1.367 . S
C441 C449 1.433 . S
C442 H438 0.929 1_545 S
C442 C444 1.378 . S
C442 C446 1.350 . S
C443 C446 1.463 1_565 S
C443 C448 1.350 . S
C443 N451 1.427 . S
C444 H435 0.930 . S
C444 C442 1.378 . S
C444 C445 1.367 . S
C445 C444 1.367 . S
C445 C447 1.433 . S
C446 C442 1.350 . S
C446 C443 1.463 1_545 S
C446 N450 1.427 . S
C447 H437 0.929 . S
C447 C445 1.433 . S
C447 N450 1.384 . S
C448 H439 0.929 1_565 S
C448 C440 1.378 . S
C448 C443 1.350 . S
C449 H436 0.929 . S
C449 C441 1.433 . S
C449 N451 1.384 . S
N450 C446 1.427 . S
N450 C447 1.384 . S
N451 C443 1.427 . S
N451 C449 1.384 . S
H452 C458 0.930 . S
H453 C462 0.930 . S
H454 C467 0.929 . S
H455 C465 0.929 . S
H456 C460 0.929 . S
H457 C466 0.929 . S
C458 H452 0.930 . S
C458 C459 1.367 1_556 S
C458 C466 1.378 . S
C459 C458 1.367 1_554 S
C459 C467 1.433 . S
C460 H456 0.929 . S
C460 C462 1.378 . S
C460 C464 1.350 . S
C461 C464 1.463 1_565 S
C461 C466 1.350 1_554 S
C461 N469 1.427 . S
C462 H453 0.930 . S
C462 C460 1.378 . S
C462 C463 1.367 . S
C463 C462 1.367 . S
C463 C465 1.433 1_554 S
C464 C460 1.350 . S
C464 C461 1.463 1_545 S
C464 N468 1.427 1_554 S
C465 H455 0.929 . S
C465 C463 1.433 1_556 S
C465 N468 1.384 . S
C466 H457 0.929 . S
C466 C458 1.378 . S
C466 C461 1.350 1_556 S
C467 H454 0.929 . S
C467 C459 1.433 . S
C467 N469 1.384 . S
N468 C464 1.427 1_556 S
N468 C465 1.384 . S
N469 C461 1.427 . S
N469 C467 1.384 . S
H470 C476 0.930 . S
H471 C480 0.930 . S
H472 C485 0.929 . S
H473 C483 0.929 . S
H474 C478 0.929 . S
H475 C484 0.929 . S
C476 H470 0.930 . S
C476 C477 1.367 . S
C476 C484 1.378 . S
C477 C476 1.367 . S
C477 C485 1.433 . S
C478 H474 0.929 . S
C478 C480 1.378 . S
C478 C482 1.350 . S
C479 C482 1.463 1_655 S
C479 C484 1.350 . S
C479 N487 1.427 . S
C480 H471 0.930 . S
C480 C478 1.378 . S
C480 C481 1.367 . S
C481 C480 1.367 . S
C481 C483 1.433 . S
C482 C478 1.350 . S
C482 C479 1.463 1_455 S
C482 N486 1.427 . S
C483 H473 0.929 . S
C483 C481 1.433 . S
C483 N486 1.384 . S
C484 H475 0.929 . S
C484 C476 1.378 . S
C484 C479 1.350 . S
C485 H472 0.929 . S
C485 C477 1.433 . S
C485 N487 1.384 . S
N486 C482 1.427 . S
N486 C483 1.384 . S
N487 C479 1.427 . S
N487 C485 1.384 . S
H488 C494 0.930 . S
H489 C498 0.930 . S
H490 C503 0.929 . S
H491 C501 0.929 . S
H492 C496 0.929 . S
H493 C502 0.929 . S
C494 H488 0.930 . S
C494 C495 1.367 . S
C494 C502 1.378 . S
C495 C494 1.367 . S
C495 C503 1.433 . S
C496 H492 0.929 . S
C496 C498 1.378 . S
C496 C500 1.350 . S
C497 C500 1.463 . S
C497 C502 1.350 . S
C497 N505 1.427 . S
C498 H489 0.930 . S
C498 C496 1.378 . S
C498 C499 1.367 . S
C499 C498 1.367 . S
C499 C501 1.433 . S
C500 C496 1.350 . S
C500 C497 1.463 . S
C500 N504 1.427 . S
C501 H491 0.929 . S
C501 C499 1.433 . S
C501 N504 1.384 . S
C502 H493 0.929 . S
C502 C494 1.378 . S
C502 C497 1.350 . S
C503 H490 0.929 . S
C503 C495 1.433 . S
C503 N505 1.384 . S
N504 C500 1.427 . S
N504 C501 1.384 . S
N505 C497 1.427 . S
N505 C503 1.384 . S
H506 C512 0.930 . S
H507 C516 0.930 . S
H508 C521 0.929 . S
H509 C519 0.929 . S
H510 C514 0.929 . S
H511 C520 0.929 . S
C512 H506 0.930 . S
C512 C513 1.367 . S
C512 C520 1.378 . S
C513 C512 1.367 . S
C513 C521 1.433 . S
C514 H510 0.929 . S
C514 C516 1.378 . S
C514 C518 1.350 . S
C515 C518 1.463 . S
C515 C520 1.350 . S
C515 N523 1.427 . S
C516 H507 0.930 . S
C516 C514 1.378 . S
C516 C517 1.367 . S
C517 C516 1.367 . S
C517 C519 1.433 . S
C518 C514 1.350 . S
C518 C515 1.463 . S
C518 N522 1.427 . S
C519 H509 0.929 . S
C519 C517 1.433 . S
C519 N522 1.384 . S
C520 H511 0.929 . S
C520 C512 1.378 . S
C520 C515 1.350 . S
C521 H508 0.929 . S
C521 C513 1.433 . S
C521 N523 1.384 . S
N522 C518 1.427 . S
N522 C519 1.384 . S
N523 C515 1.427 . S
N523 C521 1.384 . S
H524 C530 0.930 . S
H525 C534 0.930 . S
H526 C539 0.929 . S
H527 C537 0.929 . S
H528 C532 0.929 . S
H529 C538 0.929 . S
C530 H524 0.930 . S
C530 C531 1.367 . S
C530 C538 1.378 . S
C531 C530 1.367 . S
C531 C539 1.433 . S
C532 H528 0.929 . S
C532 C534 1.378 . S
C532 C536 1.350 . S
C533 C536 1.463 . S
C533 C538 1.350 . S
C533 N541 1.427 . S
C534 H525 0.930 . S
C534 C532 1.378 . S
C534 C535 1.367 . S
C535 C534 1.367 . S
C535 C537 1.433 . S
C536 C532 1.350 . S
C536 C533 1.463 . S
C536 N540 1.427 . S
C537 H527 0.929 . S
C537 C535 1.433 . S
C537 N540 1.384 . S
C538 H529 0.929 . S
C538 C530 1.378 . S
C538 C533 1.350 . S
C539 H526 0.929 . S
C539 C531 1.433 . S
C539 N541 1.384 . S
N540 C536 1.427 . S
N540 C537 1.384 . S
N541 C533 1.427 . S
N541 C539 1.384 . S
H542 C548 0.930 . S
H543 C552 0.930 . S
H544 C557 0.929 . S
H545 C555 0.929 . S
H546 C550 0.929 . S
H547 C556 0.929 . S
C548 H542 0.930 . S
C548 C549 1.367 . S
C548 C556 1.378 . S
C549 C548 1.367 . S
C549 C557 1.433 . S
C550 H546 0.929 . S
C550 C552 1.378 . S
C550 C554 1.350 . S
C551 C554 1.463 . S
C551 C556 1.350 . S
C551 N559 1.427 . S
C552 H543 0.930 . S
C552 C550 1.378 . S
C552 C553 1.367 . S
C553 C552 1.367 . S
C553 C555 1.433 . S
C554 C550 1.350 . S
C554 C551 1.463 . S
C554 N558 1.427 . S
C555 H545 0.929 . S
C555 C553 1.433 . S
C555 N558 1.384 . S
C556 H547 0.929 . S
C556 C548 1.378 . S
C556 C551 1.350 . S
C557 H544 0.929 . S
C557 C549 1.433 . S
C557 N559 1.384 . S
N558 C554 1.427 . S
N558 C555 1.384 . S
N559 C551 1.427 . S
N559 C557 1.384 . S
H560 C566 0.930 . S
H561 C570 0.930 . S
H562 C575 0.929 . S
H563 C573 0.929 . S
H564 C568 0.929 . S
H565 C574 0.929 . S
C566 H560 0.930 . S
C566 C567 1.367 . S
C566 C574 1.378 . S
C567 C566 1.367 . S
C567 C575 1.433 . S
C568 H564 0.929 . S
C568 C570 1.378 . S
C568 C572 1.350 . S
C569 C572 1.463 . S
C569 C574 1.350 . S
C569 N577 1.427 . S
C570 H561 0.930 . S
C570 C568 1.378 . S
C570 C571 1.367 . S
C571 C570 1.367 . S
C571 C573 1.433 . S
C572 C568 1.350 . S
C572 C569 1.463 . S
C572 N576 1.427 . S
C573 H563 0.929 . S
C573 C571 1.433 . S
C573 N576 1.384 . S
C574 H565 0.929 . S
C574 C566 1.378 . S
C574 C569 1.350 . S
C575 H562 0.929 . S
C575 C567 1.433 . S
C575 N577 1.384 . S
N576 C572 1.427 . S
N576 C573 1.384 . S
N577 C569 1.427 . S
N577 C575 1.384 . S
H578 C584 0.930 . S
H579 C588 0.930 . S
H580 C593 0.929 . S
H581 C591 0.929 . S
H582 C586 0.929 . S
H583 C592 0.929 . S
C584 H578 0.930 . S
C584 C585 1.367 . S
C584 C592 1.378 . S
C585 C584 1.367 . S
C585 C593 1.433 . S
C586 H582 0.929 . S
C586 C588 1.378 . S
C586 C590 1.350 . S
C587 C590 1.463 . S
C587 C592 1.350 . S
C587 N595 1.427 . S
C588 H579 0.930 . S
C588 C586 1.378 . S
C588 C589 1.367 . S
C589 C588 1.367 . S
C589 C591 1.433 . S
C590 C586 1.350 . S
C590 C587 1.463 . S
C590 N594 1.427 . S
C591 H581 0.929 . S
C591 C589 1.433 . S
C591 N594 1.384 . S
C592 H583 0.929 . S
C592 C584 1.378 . S
C592 C587 1.350 . S
C593 H580 0.929 . S
C593 C585 1.433 . S
C593 N595 1.384 . S
N594 C590 1.427 . S
N594 C591 1.384 . S
N595 C587 1.427 . S
N595 C593 1.384 . S
H596 C602 0.930 . S
H597 C606 0.930 . S
H598 C611 0.929 . S
H599 C609 0.929 . S
H600 C604 0.929 . S
H601 C610 0.929 . S
C602 H596 0.930 . S
C602 C603 1.367 . S
C602 C610 1.378 . S
C603 C602 1.367 . S
C603 C611 1.433 . S
C604 H600 0.929 . S
C604 C606 1.378 . S
C604 C608 1.350 . S
C605 C608 1.463 . S
C605 C610 1.350 . S
C605 N613 1.427 . S
C606 H597 0.930 . S
C606 C604 1.378 . S
C606 C607 1.367 . S
C607 C606 1.367 . S
C607 C609 1.433 . S
C608 C604 1.350 . S
C608 C605 1.463 . S
C608 N612 1.427 . S
C609 H599 0.929 . S
C609 C607 1.433 . S
C609 N612 1.384 . S
C610 H601 0.929 . S
C610 C602 1.378 . S
C610 C605 1.350 . S
C611 H598 0.929 . S
C611 C603 1.433 . S
C611 N613 1.384 . S
N612 C608 1.427 . S
N612 C609 1.384 . S
N613 C605 1.427 . S
N613 C611 1.384 . S
H614 C620 0.930 . S
H615 C624 0.930 . S
H616 C629 0.929 . S
H617 C627 0.929 . S
H618 C622 0.929 . S
H619 C628 0.929 . S
C620 H614 0.930 . S
C620 C621 1.367 . S
C620 C628 1.378 . S
C621 C620 1.367 . S
C621 C629 1.433 . S
C622 H618 0.929 . S
C622 C624 1.378 . S
C622 C626 1.350 . S
C623 C626 1.463 . S
C623 C628 1.350 . S
C623 N631 1.427 . S
C624 H615 0.930 . S
C624 C622 1.378 . S
C624 C625 1.367 . S
C625 C624 1.367 . S
C625 C627 1.433 . S
C626 C622 1.350 . S
C626 C623 1.463 . S
C626 N630 1.427 . S
C627 H617 0.929 . S
C627 C625 1.433 . S
C627 N630 1.384 . S
C628 H619 0.929 . S
C628 C620 1.378 . S
C628 C623 1.350 . S
C629 H616 0.929 . S
C629 C621 1.433 . S
C629 N631 1.384 . S
N630 C626 1.427 . S
N630 C627 1.384 . S
N631 C623 1.427 . S
N631 C629 1.384 . S
C279 C237 1.503 1_545 S
C283 C20 1.537 . S
C297 C271 1.496 1_655 S
C301 C54 1.533 . S
C315 C169 1.487 1_565 S
C319 C88 1.528 . S
C333 C203 1.506 1_455 S
C337 C122 1.539 . S
C351 C101 1.511 . S
C355 C156 1.537 . S
C369 C135 1.509 . S
C373 C190 1.535 . S
C387 C33 1.511 . S
C391 C224 1.537 . S
C405 C258 1.529 . S
C409 C67 1.498 . S
C423 C2 0.477 . S
C427 C70 0.471 . S
C441 C104 0.482 . S
C445 C36 0.484 . S
C459 C206 0.468 . S
C463 C138 0.474 . S
C477 C172 0.465 . S
C481 C240 0.470 . S
C495 C5 1.801 . S
C499 C243 1.800 . S
C513 C141 1.798 . S
C517 C39 1.798 . S
C531 C175 1.799 . S
C535 C73 1.798 . S
C549 C209 1.801 . S
C553 C107 1.802 . S
C567 C77 1.098 . S
C571 C179 1.096 . S
C585 C111 1.103 . S
C589 C213 1.108 . S
C603 C247 1.105 . S
C607 C9 1.111 . S
C621 C145 1.120 . S
C625 C43 1.121 . S
