# Generated by pormake.
# Topology wnt, (7)-cn, num edge types: 1
# Building blocks:
#     Node 0, Type 0, BuildingBlock: OLANEW_clean_sbu_3, # of connection points: 7
#     Node 1, Type 0, BuildingBlock: OLANEW_clean_sbu_3, # of connection points: 7
#     Node 2, Type 0, BuildingBlock: OLANEW_clean_sbu_3, # of connection points: 7
#     Node 3, Type 0, BuildingBlock: OLANEW_clean_sbu_3, # of connection points: 7
#     Node 4, Type 0, BuildingBlock: OLANEW_clean_sbu_3, # of connection points: 7
#     Node 5, Type 0, BuildingBlock: OLANEW_clean_sbu_3, # of connection points: 7
#     Node 6, Type 0, BuildingBlock: OLANEW_clean_sbu_3, # of connection points: 7
#     Node 7, Type 0, BuildingBlock: OLANEW_clean_sbu_3, # of connection points: 7
#     Node 8, Type 0, BuildingBlock: OLANEW_clean_sbu_3, # of connection points: 7
#     Node 9, Type 0, BuildingBlock: OLANEW_clean_sbu_3, # of connection points: 7
#     Node 10, Type 0, BuildingBlock: OLANEW_clean_sbu_3, # of connection points: 7
#     Node 11, Type 0, BuildingBlock: OLANEW_clean_sbu_3, # of connection points: 7
#     Edge 12, Type (0, 0), BuildingBlock: AJUNOK_clean_linker_0, # of connection points: 2
#     Edge 13, Type (0, 0), BuildingBlock: AJUNOK_clean_linker_0, # of connection points: 2
#     Edge 14, Type (0, 0), BuildingBlock: AJUNOK_clean_linker_0, # of connection points: 2
#     Edge 15, Type (0, 0), BuildingBlock: AJUNOK_clean_linker_0, # of connection points: 2
#     Edge 16, Type (0, 0), BuildingBlock: AJUNOK_clean_linker_0, # of connection points: 2
#     Edge 17, Type (0, 0), BuildingBlock: AJUNOK_clean_linker_0, # of connection points: 2
#     Edge 18, Type (0, 0), BuildingBlock: AJUNOK_clean_linker_0, # of connection points: 2
#     Edge 19, Type (0, 0), BuildingBlock: AJUNOK_clean_linker_0, # of connection points: 2
#     Edge 20, Type (0, 0), BuildingBlock: AJUNOK_clean_linker_0, # of connection points: 2
#     Edge 21, Type (0, 0), BuildingBlock: AJUNOK_clean_linker_0, # of connection points: 2
#     Edge 22, Type (0, 0), BuildingBlock: AJUNOK_clean_linker_0, # of connection points: 2
#     Edge 23, Type (0, 0), BuildingBlock: AJUNOK_clean_linker_0, # of connection points: 2
#     Edge 24, Type (0, 0), BuildingBlock: AJUNOK_clean_linker_0, # of connection points: 2
#     Edge 25, Type (0, 0), BuildingBlock: AJUNOK_clean_linker_0, # of connection points: 2
#     Edge 26, Type (0, 0), BuildingBlock: AJUNOK_clean_linker_0, # of connection points: 2
#     Edge 27, Type (0, 0), BuildingBlock: AJUNOK_clean_linker_0, # of connection points: 2
#     Edge 28, Type (0, 0), BuildingBlock: AJUNOK_clean_linker_0, # of connection points: 2
#     Edge 29, Type (0, 0), BuildingBlock: AJUNOK_clean_linker_0, # of connection points: 2
#     Edge 30, Type (0, 0), BuildingBlock: AJUNOK_clean_linker_0, # of connection points: 2
#     Edge 31, Type (0, 0), BuildingBlock: AJUNOK_clean_linker_0, # of connection points: 2
#     Edge 32, Type (0, 0), BuildingBlock: AJUNOK_clean_linker_0, # of connection points: 2
#     Edge 33, Type (0, 0), BuildingBlock: AJUNOK_clean_linker_0, # of connection points: 2
#     Edge 34, Type (0, 0), BuildingBlock: AJUNOK_clean_linker_0, # of connection points: 2
#     Edge 35, Type (0, 0), BuildingBlock: AJUNOK_clean_linker_0, # of connection points: 2
#     Edge 36, Type (0, 0), BuildingBlock: AJUNOK_clean_linker_0, # of connection points: 2
#     Edge 37, Type (0, 0), BuildingBlock: AJUNOK_clean_linker_0, # of connection points: 2
#     Edge 38, Type (0, 0), BuildingBlock: AJUNOK_clean_linker_0, # of connection points: 2
#     Edge 39, Type (0, 0), BuildingBlock: AJUNOK_clean_linker_0, # of connection points: 2
#     Edge 40, Type (0, 0), BuildingBlock: AJUNOK_clean_linker_0, # of connection points: 2
#     Edge 41, Type (0, 0), BuildingBlock: AJUNOK_clean_linker_0, # of connection points: 2
#     Edge 42, Type (0, 0), BuildingBlock: AJUNOK_clean_linker_0, # of connection points: 2
#     Edge 43, Type (0, 0), BuildingBlock: AJUNOK_clean_linker_0, # of connection points: 2
#     Edge 44, Type (0, 0), BuildingBlock: AJUNOK_clean_linker_0, # of connection points: 2
#     Edge 45, Type (0, 0), BuildingBlock: AJUNOK_clean_linker_0, # of connection points: 2
#     Edge 46, Type (0, 0), BuildingBlock: AJUNOK_clean_linker_0, # of connection points: 2
#     Edge 47, Type (0, 0), BuildingBlock: AJUNOK_clean_linker_0, # of connection points: 2
#     Edge 48, Type (0, 0), BuildingBlock: AJUNOK_clean_linker_0, # of connection points: 2
#     Edge 49, Type (0, 0), BuildingBlock: AJUNOK_clean_linker_0, # of connection points: 2
#     Edge 50, Type (0, 0), BuildingBlock: AJUNOK_clean_linker_0, # of connection points: 2
#     Edge 51, Type (0, 0), BuildingBlock: AJUNOK_clean_linker_0, # of connection points: 2
#     Edge 52, Type (0, 0), BuildingBlock: AJUNOK_clean_linker_0, # of connection points: 2
#     Edge 53, Type (0, 0), BuildingBlock: AJUNOK_clean_linker_0, # of connection points: 2
# Relax obj value: 0.247
# Max RMSD: 0.279
# Mean RMSD: 0.279
data_MOF--net-wnt--node1-OLANEW_clean_sbu_3--edge1-AJUNOK_clean_linker_0
_symmetry_space_group_name_H-M    P1
_symmetry_Int_Tables_number       1
_symmetry_cell_setting            triclinic
loop_
_symmetry_equiv_pos_as_xyz
'x, y, z'
_cell_length_a     35.765847
_cell_length_b     35.754784
_cell_length_c     50.4835
_cell_angle_alpha  89.982625
_cell_angle_beta   90.049577
_cell_angle_gamma 119.98659
loop_
_atom_site_label
_atom_site_type_symbol
_atom_site_fract_x
_atom_site_fract_y
_atom_site_fract_z
_atom_type_partial_charge
C0 C 0.3816 0.22925 0.1663 0.0
C1 C 0.35096 0.1982 0.18334 0.0
C2 C 0.30719 0.17653 0.17521 0.0
C3 C 0.29501 0.18574 0.15044 0.0
C4 C 0.32733 0.21697 0.13437 0.0
N5 N 0.36793 0.23651 0.14332 0.0
C6 C 0.32329 0.23287 0.10802 0.0
C7 C 0.36482 0.28771 0.07349 0.0
C8 C 0.35398 0.26397 0.04984 0.0
C9 C 0.35602 0.28382 0.02562 0.0
C10 C 0.36881 0.32762 0.02481 0.0
C11 C 0.37937 0.35151 0.04825 0.0
C12 C 0.37736 0.33169 0.07249 0.0
Cd13 Cd 0.21453 0.20817 0.08754 0.0
Cd14 Cd 0.19056 0.18466 0.13191 0.0
C15 C 0.49597 0.29118 0.14235 0.0
C16 C 0.57111 0.34753 0.13554 0.0
C17 C 0.58216 0.3155 0.13188 0.0
C18 C 0.55153 0.27168 0.13423 0.0
C19 C 0.50827 0.25945 0.13928 0.0
C20 C 0.528 0.33535 0.14137 0.0
Co21 Co 0.40962 0.27627 0.12151 0.0
N22 N 0.41546 0.23329 0.10055 0.0
N23 N 0.45157 0.3166 0.09994 0.0
C24 C 0.4684 0.30175 0.08209 0.0
C25 C 0.50368 0.33169 0.06714 0.0
C26 C 0.51988 0.37614 0.07213 0.0
C27 C 0.50121 0.38973 0.09191 0.0
C28 C 0.46615 0.35793 0.10616 0.0
N29 N 0.41103 0.32573 0.13957 0.0
N30 N 0.3614 0.26694 0.09849 0.0
N31 N 0.45128 0.27822 0.14742 0.0
O32 O 0.12122 0.17436 0.13528 0.0
O33 O 0.13282 0.18096 0.09255 0.0
C34 C 0.22566 0.25213 0.03757 0.0
O35 O 0.22096 0.26736 0.0592 0.0
O36 O 0.22624 0.21703 0.03924 0.0
C37 C 0.18316 0.10266 0.10504 0.0
O38 O 0.18809 0.12752 0.08556 0.0
O39 O 0.18654 0.11674 0.12846 0.0
C40 C 0.44738 0.25427 0.08207 0.0
O41 O 0.45848 0.23336 0.06532 0.0
O42 O 0.256 0.26158 0.12406 0.0
O43 O 0.23463 0.23377 0.16374 0.0
C44 C 0.44296 0.36326 0.12873 0.0
O45 O 0.44934 0.4013 0.13604 0.0
C46 C 0.37774 0.32455 0.15622 0.0
C47 C 0.33793 0.31219 0.14482 0.0
C48 C 0.30136 0.29831 0.16051 0.0
C49 C 0.30642 0.30713 0.1877 0.0
C50 C 0.3478 0.32766 0.1993 0.0
C51 C 0.38345 0.33386 0.18365 0.0
C52 C 0.10702 0.17228 0.11208 0.0
O53 O 0.28695 0.21112 0.09294 0.0
C54 C 0.26001 0.26511 0.14927 0.0
C55 C 0.38636 0.18715 0.0999 0.0
C56 C 0.38139 0.16169 0.12216 0.0
C57 C 0.35315 0.11714 0.12149 0.0
C58 C 0.33007 0.09721 0.09847 0.0
C59 C 0.33559 0.12163 0.0755 0.0
C60 C 0.36416 0.16665 0.0764 0.0
C61 C 0.42916 0.25308 0.16873 0.0
O62 O 0.44898 0.24624 0.18848 0.0
H63 H 0.3604 0.19044 0.202 0.0
H64 H 0.28278 0.15239 0.18799 0.0
H65 H 0.26168 0.16941 0.14428 0.0
H66 H 0.34389 0.23021 0.05012 0.0
H67 H 0.37033 0.34298 0.00608 0.0
H68 H 0.38469 0.35063 0.09034 0.0
H69 H 0.61566 0.32491 0.12823 0.0
H70 H 0.48429 0.22553 0.14089 0.0
H71 H 0.51962 0.35996 0.14538 0.0
H72 H 0.51864 0.32128 0.0525 0.0
H73 H 0.54734 0.40001 0.061 0.0
H74 H 0.51428 0.42367 0.09618 0.0
H75 H 0.33455 0.30863 0.12367 0.0
H76 H 0.27805 0.29665 0.19999 0.0
H77 H 0.41494 0.34571 0.19256 0.0
H78 H 0.40008 0.17586 0.13985 0.0
H79 H 0.30821 0.06266 0.09861 0.0
H80 H 0.37003 0.18566 0.05865 0.0
C81 C 0.79531 0.15413 0.16832 0.0
C82 C 0.82525 0.15349 0.18592 0.0
C83 C 0.84709 0.13142 0.17805 0.0
C84 C 0.83908 0.11096 0.15301 0.0
C85 C 0.80885 0.11301 0.13642 0.0
N86 N 0.78931 0.13429 0.14505 0.0
C87 C 0.79396 0.09379 0.10983 0.0
C88 C 0.74246 0.0833 0.07385 0.0
C89 C 0.76914 0.09607 0.05133 0.0
C90 C 0.75171 0.08012 0.02631 0.0
C91 C 0.70762 0.05107 0.02355 0.0
C92 C 0.681 0.03755 0.04585 0.0
C93 C 0.69832 0.05345 0.0709 0.0
Cd94 Cd 0.81629 1.00898 0.08748 0.0
Cd95 Cd 0.83458 0.99754 0.13177 0.0
C96 C 0.73434 0.20735 0.14385 0.0
C97 C 0.67863 0.22678 0.13614 0.0
C98 C 0.71092 0.26993 0.13325 0.0
C99 C 0.75455 0.28283 0.13624 0.0
C100 C 0.76637 0.25146 0.1414 0.0
C101 C 0.69031 0.19547 0.14199 0.0
Co102 Co 0.74984 0.13635 0.12293 0.0
N103 N 0.7927 0.18589 0.10254 0.0
N104 N 0.70965 0.13788 0.10112 0.0
C105 C 0.72447 0.16955 0.08328 0.0
C106 C 0.6946 0.17379 0.06752 0.0
C107 C 0.65017 0.14445 0.07173 0.0
C108 C 0.63654 0.11242 0.09166 0.0
C109 C 0.66829 0.1103 0.10672 0.0
N110 N 0.70029 0.0876 0.14041 0.0
N111 N 0.76049 0.09835 0.09976 0.0
N112 N 0.74679 0.17522 0.14902 0.0
O113 O 0.83872 0.93445 0.13048 0.0
O114 O 0.84372 0.95405 0.08893 0.0
C115 C 0.77134 0.97909 0.03747 0.0
O116 O 0.75666 0.95831 0.0589 0.0
O117 O 0.80654 0.01475 0.03927 0.0
C118 C 0.92049 0.07591 0.10829 0.0
O119 O 0.89661 0.06179 0.08773 0.0
O120 O 0.90462 0.05991 0.13074 0.0
C121 C 0.77181 0.19671 0.08386 0.0
O122 O 0.7927 0.22922 0.06743 0.0
O123 O 0.76375 0.99731 0.12425 0.0
O124 O 0.78617 0.99323 0.16408 0.0
C125 C 0.66283 0.08151 0.12916 0.0
O126 O 0.62487 0.04919 0.13594 0.0
C127 C 0.70149 0.05541 0.15695 0.0
C128 C 0.71328 0.02771 0.14535 0.0
C129 C 0.72625 1.004 0.16087 0.0
C130 C 0.7174 1.00003 0.18809 0.0
C131 C 0.69777 0.02162 0.1999 0.0
C132 C 0.69223 0.05165 0.18438 0.0
C133 C 0.84646 0.92993 0.10665 0.0
O134 O 0.81623 0.07952 0.09497 0.0
C135 C 0.75789 0.99379 0.14932 0.0
C136 C 0.83887 0.20359 0.10225 0.0
C137 C 0.86377 0.22311 0.12487 0.0
C138 C 0.90849 0.24055 0.12428 0.0
C139 C 0.92908 0.23974 0.10097 0.0
C140 C 0.90511 0.22239 0.07766 0.0
C141 C 0.85992 0.2039 0.07862 0.0
C142 C 0.77117 0.1776 0.17064 0.0
O143 O 0.77718 0.20359 0.19063 0.0
H144 H 0.83196 0.16978 0.20486 0.0
H145 H 0.87037 0.13038 0.19128 0.0
H146 H 0.85561 0.09398 0.14704 0.0
H147 H 0.80344 0.11784 0.05307 0.0
H148 H 0.69417 0.03869 1.00419 0.0
H149 H 0.67739 0.04138 0.08792 0.0
H150 H 0.7018 0.29422 0.12943 0.0
H151 H 0.80015 0.26116 0.14349 0.0
H152 H 0.66541 0.16235 0.14527 0.0
H153 H 0.705 0.19897 0.05274 0.0
H154 H 0.62632 0.14697 0.05986 0.0
H155 H 0.60257 0.09062 0.0953 0.0
H156 H 0.71674 0.02828 0.12413 0.0
H157 H 0.72718 0.98139 0.20025 0.0
H158 H 0.68084 0.07161 0.19337 0.0
H159 H 0.84909 0.22614 0.14276 0.0
H160 H 0.96385 0.25407 0.10097 0.0
H161 H 0.84104 0.19014 0.06087 0.0
C162 C 0.87226 0.64514 0.16653 0.0
C163 C 0.87274 0.67611 0.18368 0.0
C164 C 0.89514 0.71986 0.17549 0.0
C165 C 0.91599 0.73171 0.15056 0.0
C166 C 0.91407 0.69908 0.13439 0.0
N167 N 0.89264 0.6585 0.14338 0.0
C168 C 0.93324 0.7027 0.10783 0.0
C169 C 0.94408 0.66038 0.07269 0.0
C170 C 0.93071 0.67213 0.04956 0.0
C171 C 0.9469 0.66961 0.02485 0.0
C172 C 0.97677 0.65546 0.02302 0.0
C173 C 0.99061 0.64404 0.04591 0.0
C174 C 0.97444 0.64653 0.07064 0.0
Cd175 Cd 0.01672 0.80977 0.08379 0.0
Cd176 Cd 0.01877 0.83565 0.12768 0.0
C177 C 0.81858 0.53036 0.14283 0.0
C178 C 0.79923 0.45496 0.13617 0.0
C179 C 0.75611 0.44404 0.13292 0.0
C180 C 0.74317 0.47485 0.13534 0.0
C181 C 0.77449 0.51818 0.14015 0.0
C182 C 0.83049 0.49815 0.14163 0.0
Co183 Co 0.88988 0.61643 0.12158 0.0
N184 N 0.84078 0.61068 0.10102 0.0
N185 N 0.88757 0.5742 0.10004 0.0
C186 C 0.85628 0.5581 0.08191 0.0
C187 C 0.85193 0.52409 0.06602 0.0
C188 C 0.88079 0.50841 0.07038 0.0
C189 C 0.91253 0.5262 0.09054 0.0
C190 C 0.91481 0.56002 0.10572 0.0
N191 N 0.93823 0.61508 0.13927 0.0
N192 N 0.92843 0.66431 0.09821 0.0
N193 N 0.8506 0.57509 0.14773 0.0
O194 O 0.07885 0.90481 0.1302 0.0
O195 O 0.07249 0.89126 0.08761 0.0
C196 C 0.04627 0.79567 0.03352 0.0
O197 O 0.06711 0.80088 0.05482 0.0
O198 O 1.01106 0.79588 0.03565 0.0
C199 C 0.94333 0.84195 0.10124 0.0
O200 O 0.96317 0.83707 0.08171 0.0
O201 O 0.95411 0.83858 0.12465 0.0
C202 C 0.82985 0.57917 0.08221 0.0
O203 O 0.79794 0.56852 0.06544 0.0
O204 O 0.03102 0.76877 0.11952 0.0
O205 O 0.02524 0.7917 0.1588 0.0
C206 C 0.94377 0.58326 0.12815 0.0
O207 O 0.97599 0.57739 0.13486 0.0
C208 C 0.97136 0.64917 0.15503 0.0
C209 C 0.99967 0.68757 0.14238 0.0
C210 C 0.0237 0.72528 0.15686 0.0
C211 C 0.02793 0.72249 0.18419 0.0
C212 C 1.00416 0.68282 0.19765 0.0
C213 C 0.97423 0.64609 0.18286 0.0
C214 C 0.0907 0.91762 0.10678 0.0
O215 O 0.94715 0.73873 0.09253 0.0
C216 C 0.03123 0.76591 0.14476 0.0
C217 C 0.8235 0.63959 0.10101 0.0
C218 C 0.80328 0.644 0.12358 0.0
C219 C 0.78694 0.67224 0.12354 0.0
C220 C 0.78982 0.6959 0.10086 0.0
C221 C 0.80848 0.69095 0.07763 0.0
C222 C 0.82492 0.66236 0.07787 0.0
C223 C 0.84826 0.59755 0.16909 0.0
O224 O 0.82199 0.57804 0.18903 0.0
H225 H 0.85603 0.66697 0.20249 0.0
H226 H 0.89607 0.74451 0.18836 0.0
H227 H 0.9332 0.76505 0.14437 0.0
H228 H 0.90798 0.68337 0.05059 0.0
H229 H 0.98935 0.65357 1.00391 0.0
H230 H 0.98653 0.63855 0.08802 0.0
H231 H 0.73185 0.41052 0.12946 0.0
H232 H 0.76472 0.54226 0.14192 0.0
H233 H 0.86358 0.50647 0.14517 0.0
H234 H 0.8271 0.50989 0.05099 0.0
H235 H 0.8782 0.48213 0.05839 0.0
H236 H 0.93407 0.5137 0.09419 0.0
H237 H 0.99885 0.6893 0.12114 0.0
H238 H 0.0484 0.75195 0.19504 0.0
H239 H 0.95256 0.61611 0.19282 0.0
H240 H 0.79899 0.6249 0.14103 0.0
H241 H 0.77709 0.71773 0.10144 0.0
H242 H 0.83784 0.65697 0.05987 0.0
C243 C 0.23903 0.37675 0.34242 0.0
C244 C 0.21099 0.34704 0.32374 0.0
C245 C 0.1886 0.30278 0.33079 0.0
C246 C 0.19429 0.28915 0.35606 0.0
C247 C 0.22277 0.32059 0.37376 0.0
N248 N 0.24284 0.36181 0.36589 0.0
C249 C 0.23549 0.31493 0.40075 0.0
C250 C 0.28415 0.35418 0.43826 0.0
C251 C 0.25585 0.33878 0.46 0.0
C252 C 0.27145 0.33859 0.48536 0.0
C253 C 0.31531 0.35345 0.48924 0.0
C254 C 0.34355 0.36812 0.46771 0.0
C255 C 0.32807 0.36841 0.44232 0.0
Cd256 Cd 0.21138 0.20657 0.42344 0.0
Cd257 Cd 0.18803 0.18357 0.3787 0.0
C258 C 0.2985 0.48984 0.36869 0.0
C259 C 0.3542 0.56484 0.3767 0.0
C260 C 0.32192 0.57576 0.37951 0.0
C261 C 0.27832 0.54519 0.37605 0.0
C262 C 0.26652 0.50202 0.37079 0.0
C263 C 0.3425 0.52187 0.37081 0.0
Co264 Co 0.28069 0.40225 0.38919 0.0
N265 N 0.23653 0.40855 0.40826 0.0
N266 N 0.31941 0.44306 0.41211 0.0
C267 C 0.3035 0.46035 0.4289 0.0
C268 C 0.33242 0.49547 0.44438 0.0
C269 C 0.37712 0.51124 0.44094 0.0
C270 C 0.39196 0.49238 0.42207 0.0
C271 C 0.36113 0.45751 0.4072 0.0
N272 N 0.33125 0.40327 0.37319 0.0
N273 N 0.26796 0.35252 0.41195 0.0
N274 N 0.28609 0.44536 0.36322 0.0
O275 O 0.17463 0.11284 0.37514 0.0
O276 O 0.18477 0.12494 0.41778 0.0
C277 C 0.2556 0.21938 0.47373 0.0
O278 O 0.27154 0.21666 0.45191 0.0
O279 O 0.21903 0.21705 0.47244 0.0
C280 C 0.10734 0.17868 0.4059 0.0
O281 O 0.13128 0.18105 0.42535 0.0
O282 O 0.12206 0.18379 0.38253 0.0
C283 C 0.25626 0.44026 0.42707 0.0
O284 O 0.23436 0.45189 0.44263 0.0
O285 O 0.26653 0.24821 0.38792 0.0
O286 O 0.23974 0.22779 0.34795 0.0
C287 C 0.36799 0.43455 0.38513 0.0
O288 O 0.4064 0.44061 0.37913 0.0
C289 C 0.33093 0.37037 0.35663 0.0
C290 C 0.31833 0.33041 0.36788 0.0
C291 C 0.30469 0.29402 0.35196 0.0
C292 C 0.31384 0.2995 0.32477 0.0
C293 C 0.33383 0.34099 0.31332 0.0
C294 C 0.34035 0.37644 0.32928 0.0
C295 C 0.17461 0.09898 0.39817 0.0
O296 O 0.21223 0.27758 0.41477 0.0
C297 C 0.27087 0.25259 0.36278 0.0
C298 C 0.19048 0.37942 0.40802 0.0
C299 C 0.16627 0.37289 0.38491 0.0
C300 C 0.12164 0.34491 0.38501 0.0
C301 C 0.10042 0.32403 0.40832 0.0
C302 C 0.12366 0.33191 0.43207 0.0
C303 C 0.16879 0.3591 0.43158 0.0
C304 C 0.26346 0.4244 0.34088 0.0
O305 O 0.25933 0.44535 0.32071 0.0
H306 H 0.20619 0.35751 0.30455 0.0
H307 H 0.1668 0.27907 0.3167 0.0
H308 H 0.17759 0.25537 0.3613 0.0
H309 H 0.22169 0.32636 0.45738 0.0
H310 H 0.32733 0.35318 0.50886 0.0
H311 H 0.35026 0.37847 0.42589 0.0
H312 H 0.33107 0.60921 0.38319 0.0
H313 H 0.23279 0.47806 0.36818 0.0
H314 H 0.36737 0.51357 0.36759 0.0
H315 H 0.32109 0.51074 0.4582 0.0
H316 H 0.40024 0.5386 0.45248 0.0
H317 H 0.42615 0.50524 0.41885 0.0
H318 H 0.31399 0.32686 0.38905 0.0
H319 H 0.30352 0.27131 0.31231 0.0
H320 H 0.35232 0.40815 0.32067 0.0
H321 H 0.1814 0.39022 0.36697 0.0
H322 H 0.06574 0.30305 0.40794 0.0
H323 H 0.18714 0.36494 0.44966 0.0
C324 C 0.64968 0.8677 0.34402 0.0
C325 C 0.68006 0.87004 0.32566 0.0
C326 C 0.72418 0.89281 0.33303 0.0
C327 C 0.73701 0.91229 0.35832 0.0
C328 C 0.70492 0.90877 0.37563 0.0
N329 N 0.66392 0.88684 0.36747 0.0
C330 C 0.70953 0.92677 0.40262 0.0
C331 C 0.66884 0.93581 0.43945 0.0
C332 C 0.68393 0.92348 0.46157 0.0
C333 C 0.68287 0.939 0.48679 0.0
C334 C 0.66696 0.96726 0.49013 0.0
C335 C 0.65252 0.98031 0.4682 0.0
C336 C 0.65354 0.96477 0.44296 0.0
Cd337 Cd 0.81569 0.01052 0.42589 0.0
Cd338 Cd 0.84125 0.01306 0.38134 0.0
C339 C 0.53604 0.81226 0.36966 0.0
C340 C 0.46097 0.79305 0.37707 0.0
C341 C 0.45027 0.75007 0.38082 0.0
C342 C 0.48102 0.7371 0.37811 0.0
C343 C 0.52412 0.76832 0.37266 0.0
C344 C 0.50386 0.82413 0.37095 0.0
Co345 Co 0.62268 0.88291 0.39053 0.0
N346 N 0.6181 0.83323 0.41005 0.0
N347 N 0.581 0.87947 0.41314 0.0
C348 C 0.56426 0.84619 0.42988 0.0
C349 C 0.5285 0.83888 0.44506 0.0
C350 C 0.51155 0.8668 0.44135 0.0
C351 C 0.52988 0.9006 0.42251 0.0
C352 C 0.56546 0.9058 0.40796 0.0
N353 N 0.62008 0.9314 0.37416 0.0
N354 N 0.6715 0.92113 0.41338 0.0
N355 N 0.58053 0.84429 0.36449 0.0
O356 O 0.90989 0.07452 0.37959 0.0
O357 O 0.89646 0.06672 0.42218 0.0
C358 C 0.80123 0.03963 0.47621 0.0
O359 O 0.80643 0.06037 0.45488 0.0
O360 O 0.80128 1.00427 0.47417 0.0
C361 C 0.84937 0.93854 0.40854 0.0
O362 O 0.84395 0.95812 0.42801 0.0
O363 O 0.84537 0.94886 0.3851 0.0
C364 C 0.58573 0.82022 0.42846 0.0
O365 O 0.57487 0.78698 0.44415 0.0
O366 O 0.77419 0.02367 0.38997 0.0
O367 O 0.79609 0.01831 0.35026 0.0
C368 C 0.58804 0.93583 0.38587 0.0
O369 O 0.58085 0.9674 0.37965 0.0
C370 C 0.65275 0.96441 0.35767 0.0
C371 C 0.6923 0.99256 0.36914 0.0
C372 C 0.72895 0.01536 0.35346 0.0
C373 C 0.72396 0.01837 0.32613 0.0
C374 C 0.68279 0.99601 0.31431 0.0
C375 C 0.64721 0.96697 0.33014 0.0
C376 C 0.92262 0.08582 0.40311 0.0
O377 O 0.74622 0.94034 0.41715 0.0
C378 C 0.7704 0.02373 0.36477 0.0
C379 C 0.64989 0.8195 0.41105 0.0
C380 C 0.66146 0.80596 0.38804 0.0
C381 C 0.69562 0.79767 0.38841 0.0
C382 C 0.71716 0.80043 0.41201 0.0
C383 C 0.70319 0.80911 0.43613 0.0
C384 C 0.66976 0.81935 0.43524 0.0
C385 C 0.60205 0.84305 0.34234 0.0
O386 O 0.58178 0.81756 0.3222 0.0
H387 H 0.6702 0.8545 0.30651 0.0
H388 H 0.74838 0.89513 0.31923 0.0
H389 H 0.77067 0.92977 0.36391 0.0
H390 H 0.69696 0.90231 0.45923 0.0
H391 H 0.66621 0.97935 0.50963 0.0
H392 H 0.64356 0.97646 0.42625 0.0
H393 H 0.41687 0.72586 0.38462 0.0
H394 H 0.54825 0.75864 0.37067 0.0
H395 H 0.51203 0.85709 0.36703 0.0
H396 H 0.51366 0.81221 0.45886 0.0
H397 H 0.48368 0.86168 0.45265 0.0
H398 H 0.51609 0.92109 0.41907 0.0
H399 H 0.69549 0.99224 0.39036 0.0
H400 H 0.75235 0.03635 0.31387 0.0
H401 H 0.61584 0.94651 0.32129 0.0
H402 H 0.64423 0.80174 0.36976 0.0
H403 H 0.74454 0.79542 0.41116 0.0
H404 H 0.65882 0.82692 0.45334 0.0
C405 C 0.16006 0.79064 0.34606 0.0
C406 C 0.16011 0.82225 0.32968 0.0
C407 C 0.13778 0.84334 0.3385 0.0
C408 C 0.11646 0.833 0.36331 0.0
C409 C 0.11784 0.8012 0.37868 0.0
N410 N 0.13918 0.78231 0.3691 0.0
C411 C 0.09828 0.78435 0.40498 0.0
C412 C 0.08684 0.72919 0.43892 0.0
C413 C 0.10033 0.7528 0.4626 0.0
C414 C 0.08401 0.73257 0.48693 0.0
C415 C 0.05392 0.68851 0.48784 0.0
C416 C 0.04002 0.66474 0.46438 0.0
C417 C 0.05634 0.68494 0.44003 0.0
Cd418 Cd 1.0145 0.80874 0.42672 0.0
Cd419 Cd 1.00265 0.82547 0.38298 0.0
C420 C 0.21369 0.72867 0.36834 0.0
C421 C 0.23296 0.67244 0.37451 0.0
C422 C 0.27596 0.70455 0.37829 0.0
C423 C 0.2889 0.74835 0.37629 0.0
C424 C 0.25769 0.76049 0.3715 0.0
C425 C 0.20184 0.68452 0.36894 0.0
Co426 Co 0.14195 0.74219 0.39016 0.0
N427 N 0.19073 0.78483 0.41126 0.0
N428 N 0.14433 0.70152 0.41101 0.0
C429 C 0.17592 0.71612 0.42894 0.0
C430 C 0.18144 0.68597 0.44356 0.0
C431 C 0.15342 0.6416 0.4382 0.0
C432 C 0.12118 0.62831 0.4184 0.0
C433 C 0.11773 0.66031 0.40449 0.0
N434 N 0.0941 0.69307 0.37178 0.0
N435 N 0.10292 0.75025 0.41383 0.0
N436 N 0.18168 0.74152 0.3638 0.0
O437 O 0.94003 0.82978 0.3826 0.0
O438 O 0.95998 0.83688 0.42414 0.0
C439 C 0.9842 0.76667 0.47735 0.0
O440 O 0.96364 0.75053 0.45601 0.0
O441 O 0.01955 0.80203 0.47515 0.0
C442 C 0.08087 0.91267 0.40376 0.0
O443 O 0.06771 0.88959 0.42471 0.0
O444 O 0.06389 0.89593 0.38166 0.0
C445 C 0.20196 0.76364 0.42944 0.0
O446 O 0.234 0.78434 0.44622 0.0
O447 O 1.00167 0.7537 0.39106 0.0
O448 O 0.99718 0.7763 0.35139 0.0
C449 C 0.08891 0.65537 0.38214 0.0
O450 O 0.0573 0.61742 0.37465 0.0
C451 C 0.06124 0.69426 0.35587 0.0
C452 C 0.03261 0.70394 0.36846 0.0
C453 C 1.00755 0.71631 0.35392 0.0
C454 C 1.00331 0.70895 0.32663 0.0
C455 C 0.02811 0.69426 0.3132 0.0
C456 C 0.05851 0.68824 0.32804 0.0
C457 C 0.93607 0.83931 0.40612 0.0
O458 O 0.08394 0.80562 0.42074 0.0
C459 C 0.99767 0.74784 0.366 0.0
C460 C 0.20813 0.83101 0.41188 0.0
C461 C 0.22871 0.85636 0.38962 0.0
C462 C 0.24506 0.9009 0.3902 0.0
C463 C 0.24184 0.92093 0.41313 0.0
C464 C 0.22294 0.89662 0.43613 0.0
C465 C 0.20655 0.8516 0.43533 0.0
C466 C 0.18424 0.7673 0.34293 0.0
O467 O 0.2109 0.77516 0.32305 0.0
H468 H 0.17728 0.83092 0.31102 0.0
H469 H 0.13735 0.86797 0.32625 0.0
H470 H 0.09951 0.84912 0.37008 0.0
H471 H 0.12337 0.78674 0.46227 0.0
H472 H 0.04125 0.67286 0.50666 0.0
H473 H 0.04434 0.666 0.4222 0.0
H474 H 0.30017 0.69521 0.38176 0.0
H475 H 0.26747 0.79439 0.37017 0.0
H476 H 0.16891 0.65986 0.36488 0.0
H477 H 0.20674 0.69616 0.45825 0.0
H478 H 0.15712 0.61757 0.44908 0.0
H479 H 0.1004 0.59444 0.41389 0.0
H480 H 0.03335 0.7065 0.38969 0.0
H481 H 0.98204 0.71682 0.31572 0.0
H482 H 0.08057 0.68042 0.31813 0.0
H483 H 0.23326 0.84214 0.37199 0.0
H484 H 0.2545 0.95547 0.41288 0.0
H485 H 0.19349 0.83263 0.4531 0.0
C486 C 0.64657 0.78806 0.84699 0.0
C487 C 0.67688 0.81864 0.8296 0.0
C488 C 0.72078 0.84063 0.83745 0.0
C489 C 0.73341 0.83212 0.86229 0.0
C490 C 0.70138 0.80128 0.87869 0.0
N491 N 0.6606 0.78157 0.87006 0.0
C492 C 0.70594 0.786 0.9051 0.0
C493 C 0.66471 0.73381 0.94089 0.0
C494 C 0.67732 0.76006 0.96359 0.0
C495 C 0.67257 0.74186 0.98872 0.0
C496 C 0.65587 0.69745 0.9914 0.0
C497 C 0.64469 0.67133 0.96891 0.0
C498 C 0.64929 0.68943 0.94376 0.0
Cd499 Cd 0.81396 0.81113 0.92664 0.0
Cd500 Cd 0.83809 0.83282 0.8827 0.0
C501 C 0.53293 0.72631 0.87162 0.0
C502 C 0.45808 0.67085 0.88001 0.0
C503 C 0.44744 0.70328 0.88315 0.0
C504 C 0.47814 0.74682 0.87964 0.0
C505 C 0.52103 0.7584 0.87407 0.0
C506 C 0.5008 0.68235 0.87364 0.0
Co507 Co 0.61937 0.74159 0.89205 0.0
N508 N 0.61271 0.78406 0.91296 0.0
N509 N 0.57784 0.70096 0.91374 0.0
C510 C 0.56122 0.71545 0.93194 0.0
C511 C 0.52719 0.68528 0.94759 0.0
C512 C 0.51196 0.64092 0.94292 0.0
C513 C 0.53021 0.62766 0.9227 0.0
C514 C 0.56398 0.65969 0.90776 0.0
N515 N 0.61864 0.69232 0.87415 0.0
N516 N 0.66812 0.75207 0.91501 0.0
N517 N 0.57731 0.7387 0.86616 0.0
O518 O 0.90702 0.84211 0.87907 0.0
O519 O 0.89618 0.84227 0.92171 0.0
C520 C 0.80726 0.77079 0.97723 0.0
O521 O 0.82474 0.76442 0.95724 0.0
O522 O 0.79095 0.79484 0.97382 0.0
C523 C 0.8476 0.91609 0.90847 0.0
O524 O 0.84201 0.89147 0.92818 0.0
O525 O 0.84313 0.90119 0.88519 0.0
C526 C 0.58137 0.76281 0.93176 0.0
O527 O 0.56984 0.78337 0.9485 0.0
O528 O 0.77348 0.755 0.89101 0.0
O529 O 0.794 0.78365 0.8514 0.0
C530 C 0.58722 0.65464 0.88516 0.0
O531 O 0.58166 0.61679 0.87811 0.0
C532 C 0.65227 0.69365 0.85784 0.0
C533 C 0.69153 0.70512 0.86973 0.0
C534 C 0.72838 0.71842 0.85441 0.0
C535 C 0.72393 0.70986 0.82717 0.0
C536 C 0.68295 0.69031 0.81509 0.0
C537 C 0.64716 0.68466 0.83036 0.0
C538 C 0.92174 0.84848 0.9024 0.0
O539 O 0.74226 0.80862 0.92004 0.0
C540 C 0.76943 0.75178 0.86578 0.0
C541 C 0.63982 0.83046 0.91299 0.0
C542 C 0.64132 0.85475 0.89087 0.0
C543 C 0.6643 0.89977 0.89187 0.0
C544 C 0.6862 0.92122 0.91488 0.0
C545 C 0.68547 0.8978 0.93749 0.0
C546 C 0.66171 0.85226 0.93626 0.0
C547 C 0.59904 0.76353 0.84465 0.0
O548 O 0.57881 0.76972 0.82487 0.0
H549 H 0.66711 0.82571 0.81083 0.0
H550 H 0.74494 0.86439 0.82438 0.0
H551 H 0.76688 0.84868 0.86822 0.0
H552 H 0.69096 0.79452 0.96196 0.0
H553 H 0.65224 0.6834 0.01086 0.0
H554 H 0.64146 0.66878 0.92664 0.0
H555 H 0.41412 0.69429 0.88706 0.0
H556 H 0.54495 0.79211 0.87146 0.0
H557 H 0.50879 0.65736 0.87003 0.0
H558 H 0.51255 0.69541 0.96261 0.0
H559 H 0.48561 0.61685 0.95468 0.0
H560 H 0.51797 0.59374 0.91875 0.0
H561 H 0.69431 0.70861 0.89095 0.0
H562 H 0.75258 0.72012 0.81518 0.0
H563 H 0.616 0.67344 0.82114 0.0
H564 H 0.62327 0.83925 0.8732 0.0
H565 H 0.70235 0.9561 0.91508 0.0
H566 H 0.65946 0.83353 0.95356 0.0
C567 C 0.23506 0.8648 0.84337 0.0
C568 C 0.20465 0.86552 0.82624 0.0
C569 C 0.18294 0.88743 0.83469 0.0
C570 C 0.19154 0.9076 0.85984 0.0
C571 C 0.22228 0.90553 0.87593 0.0
N572 N 0.24176 0.88455 0.86673 0.0
C573 C 0.23768 0.92435 0.90255 0.0
C574 C 0.28984 0.93375 0.93801 0.0
C575 C 0.26378 0.91973 0.96077 0.0
C576 C 0.28216 0.93293 0.98589 0.0
C577 C 0.32656 0.96069 0.98851 0.0
C578 C 0.35251 0.97589 0.96597 0.0
C579 C 0.33423 0.96267 0.94083 0.0
Cd580 Cd 0.21391 1.00807 0.92431 0.0
Cd581 Cd 0.19401 0.01529 0.88035 0.0
C582 C 0.29618 0.81126 0.86663 0.0
C583 C 0.35174 0.79199 0.8748 0.0
C584 C 0.31943 0.74897 0.87825 0.0
C585 C 0.27581 0.73611 0.87519 0.0
C586 C 0.26409 0.76734 0.86952 0.0
C587 C 0.34013 0.82308 0.86834 0.0
Co588 Co 0.28138 0.88186 0.88842 0.0
N589 N 0.23855 0.83205 0.90856 0.0
N590 N 0.32162 0.87953 0.90987 0.0
C591 C 0.30672 0.84725 0.9273 0.0
C592 C 0.33654 0.84159 0.94219 0.0
C593 C 0.381 0.87026 0.93763 0.0
C594 C 0.3947 0.90318 0.91827 0.0
C595 C 0.363 0.90667 0.90403 0.0
N596 N 0.33099 0.93071 0.87118 0.0
N597 N 0.27132 0.91961 0.91213 0.0
N598 N 0.28387 0.84349 0.8618 0.0
O599 O 0.19014 0.07844 0.87932 0.0
O600 O 0.18369 0.06011 0.92115 0.0
C601 C 0.25542 0.04168 0.97472 0.0
O602 O 0.26214 0.06542 0.9546 0.0
O603 O 0.23051 1.00138 0.97151 0.0
C604 C 0.10831 0.94151 0.9049 0.0
O605 O 0.13305 0.95733 0.925 0.0
O606 O 0.1236 0.95422 0.88189 0.0
C607 C 0.25935 0.82055 0.92689 0.0
O608 O 0.23836 0.78753 0.94295 0.0
O609 O 0.26888 0.02274 0.88807 0.0
O610 O 0.24176 0.01874 0.84838 0.0
C611 C 0.36846 0.93607 0.88198 0.0
O612 O 0.40651 0.9681 0.87505 0.0
C613 C 0.32995 0.96313 0.85486 0.0
C614 C 0.31842 0.9909 0.86664 0.0
C615 C 0.3052 0.01452 0.85125 0.0
C616 C 0.31337 0.01817 0.82392 0.0
C617 C 0.33205 0.9959 0.81184 0.0
C618 C 0.33843 0.96646 0.82738 0.0
C619 C 0.18123 0.08339 0.90279 0.0
O620 O 0.21559 0.93827 0.91783 0.0
C621 C 0.27266 0.02332 0.86282 0.0
C622 C 0.19228 0.81325 0.90843 0.0
C623 C 0.16798 0.79142 0.88608 0.0
C624 C 0.12298 0.7701 0.88693 0.0
C625 C 0.10162 0.7702 0.91005 0.0
C626 C 0.12518 0.79173 0.93287 0.0
C627 C 0.17061 0.81295 0.93176 0.0
C628 C 0.25914 0.84139 0.84045 0.0
O629 O 0.25267 0.81556 0.8203 0.0
H630 H 0.19749 0.84942 0.80722 0.0
H631 H 0.15928 0.88852 0.82184 0.0
H632 H 0.17505 0.92438 0.86628 0.0
H633 H 0.22933 0.89886 0.95919 0.0
H634 H 0.34074 0.97092 0.00796 0.0
H635 H 0.35472 0.97573 0.92368 0.0
H636 H 0.32848 0.72476 0.88251 0.0
H637 H 0.23031 0.75765 0.86749 0.0
H638 H 0.36503 0.85605 0.86462 0.0
H639 H 0.32604 0.8157 0.95648 0.0
H640 H 0.4048 0.86648 0.94874 0.0
H641 H 0.42868 0.92442 0.91431 0.0
H642 H 0.31494 0.99013 0.88787 0.0
H643 H 0.3033 0.03669 0.81187 0.0
H644 H 0.3497 0.94641 0.81837 0.0
H645 H 0.18341 0.78915 0.86832 0.0
H646 H 0.06672 0.75217 0.91017 0.0
H647 H 0.18937 0.8287 0.94921 0.0
C648 C 0.16097 0.37534 0.8462 0.0
C649 C 0.16207 0.34511 0.8291 0.0
C650 C 0.14044 0.30125 0.83705 0.0
C651 C 0.11874 0.28859 0.86169 0.0
C652 C 0.1191 0.32055 0.8778 0.0
N653 N 0.13995 0.36129 0.86909 0.0
C654 C 0.0989 0.31596 0.90406 0.0
C655 C 0.08595 0.35637 0.93939 0.0
C656 C 0.09742 0.34191 0.96226 0.0
C657 C 0.08012 0.34288 0.98689 0.0
C658 C 0.05104 0.358 0.98894 0.0
C659 C 0.03891 0.37177 0.96632 0.0
C660 C 0.05617 0.37089 0.94166 0.0
Cd661 Cd 0.01642 0.20903 0.92739 0.0
Cd662 Cd 1.01202 0.18292 0.88352 0.0
C663 C 0.21137 0.48915 0.87051 0.0
C664 C 0.2301 0.5642 0.87747 0.0
C665 C 0.27304 0.57513 0.88166 0.0
C666 C 0.28614 0.54443 0.87956 0.0
C667 C 0.25525 0.50132 0.8741 0.0
C668 C 0.19925 0.52118 0.87138 0.0
Co669 Co 0.14043 0.40247 0.8908 0.0
N670 N 0.18934 0.40979 0.91214 0.0
N671 N 0.14053 0.44394 0.91218 0.0
C672 C 0.17141 0.46103 0.93053 0.0
C673 C 0.17491 0.49528 0.94581 0.0
C674 C 0.1457 0.51025 0.94061 0.0
C675 C 0.11454 0.49158 0.9202 0.0
C676 C 0.11319 0.45762 0.90564 0.0
N677 N 0.09202 0.40258 0.8723 0.0
N678 N 0.10217 0.35366 0.91378 0.0
N679 N 0.17981 0.44459 0.86505 0.0
O680 O 0.95197 0.11416 0.88148 0.0
O681 O 0.961 0.12806 0.92398 0.0
C682 C 0.98653 0.22262 0.97755 0.0
O683 O 0.96713 0.21921 0.9559 0.0
O684 O 0.02097 0.22068 0.97611 0.0
C685 C 0.08689 0.17442 0.90782 0.0
O686 O 0.06846 0.18014 0.92781 0.0
O687 O 0.07551 0.17824 0.88467 0.0
C688 C 0.1989 0.4412 0.93081 0.0
O689 O 0.23075 0.45306 0.94781 0.0
O690 O 1.0015 0.2492 0.89141 0.0
O691 O 1.00486 0.22538 0.8519 0.0
C692 C 0.08537 0.43401 0.88291 0.0
O693 O 0.05303 0.4392 0.87544 0.0
C694 C 0.0598 0.36831 0.85627 0.0
C695 C 0.03153 0.32986 0.8688 0.0
C696 C 1.0076 0.2923 0.8542 0.0
C697 C 1.00356 0.29527 0.82686 0.0
C698 C 0.02747 0.33501 0.81351 0.0
C699 C 0.05717 0.37166 0.82845 0.0
C700 C 0.94187 0.10146 0.90509 0.0
O701 O 0.08574 0.2799 0.91921 0.0
C702 C 1.00003 0.25166 0.8662 0.0
C703 C 0.20872 0.3828 0.91255 0.0
C704 C 0.23197 0.38127 0.8907 0.0
C705 C 0.25357 0.35789 0.89198 0.0
C706 C 0.25234 0.33576 0.91505 0.0
C707 C 0.22935 0.33674 0.9374 0.0
C708 C 0.20783 0.3607 0.93587 0.0
C709 C 0.18364 0.42287 0.84377 0.0
O710 O 0.21049 0.44317 0.82421 0.0
H711 H 0.17936 0.3549 0.8105 0.0
H712 H 0.14074 0.27716 0.82423 0.0
H713 H 0.10214 0.25517 0.86773 0.0
H714 H 0.11921 0.32934 0.96112 0.0
H715 H 0.03758 0.35862 0.008 0.0
H716 H 0.04511 0.38031 0.9244 0.0
H717 H 0.29707 0.60858 0.88557 0.0
H718 H 0.26524 0.47739 0.87257 0.0
H719 H 0.16633 0.51284 0.86713 0.0
H720 H 0.19949 0.51031 0.96093 0.0
H721 H 0.14768 0.53675 0.95208 0.0
H722 H 0.09286 0.50366 0.91581 0.0
H723 H 0.03217 0.32813 0.89008 0.0
H724 H 0.9832 0.2659 0.8159 0.0
H725 H 0.07878 0.40179 0.81861 0.0
H726 H 0.23506 0.39947 0.87301 0.0
H727 H 0.27068 0.3192 0.91552 0.0
H728 H 0.19084 0.36283 0.95295 0.0
C729 C 0.79646 0.64501 0.66821 0.0
C730 C 0.8274 0.67594 0.6852 0.0
C731 C 0.84919 0.7196 0.67682 0.0
C732 C 0.84013 0.73142 0.65187 0.0
C733 C 0.80892 0.69882 0.6359 0.0
N734 N 0.78937 0.65831 0.64505 0.0
C735 C 0.79305 0.70251 0.60948 0.0
C736 C 0.73955 0.65982 0.57452 0.0
C737 C 0.7643 0.66944 0.55134 0.0
C738 C 0.74464 0.66268 0.52653 0.0
C739 C 0.70036 0.64727 0.52465 0.0
C740 C 0.67578 0.63914 0.54761 0.0
C741 C 0.69529 0.64554 0.57245 0.0
Cd742 Cd 0.81827 0.81143 0.58956 0.0
Cd743 Cd 0.83654 0.83785 0.63392 0.0
C744 C 0.73486 0.53045 0.64469 0.0
C745 C 0.67913 0.45556 0.63666 0.0
C746 C 0.71134 0.44462 0.63368 0.0
C747 C 0.75498 0.47527 0.63679 0.0
C748 C 0.76684 0.51836 0.64215 0.0
C749 C 0.69085 0.49842 0.6428 0.0
Co750 Co 0.74944 0.61622 0.62341 0.0
N751 N 0.79205 0.60956 0.6027 0.0
N752 N 0.70894 0.57396 0.60198 0.0
C753 C 0.7236 0.55743 0.58383 0.0
C754 C 0.69359 0.5236 0.56797 0.0
C755 C 0.6492 0.5085 0.57237 0.0
C756 C 0.63575 0.52667 0.59254 0.0
C757 C 0.66764 0.56029 0.60767 0.0
N758 N 0.70002 0.61529 0.6411 0.0
N759 N 0.75905 0.66424 0.60007 0.0
N760 N 0.74736 0.57503 0.64967 0.0
O761 O 0.84304 0.9059 0.63523 0.0
O762 O 0.84961 0.89385 0.59349 0.0
C763 C 0.77866 0.80531 0.53866 0.0
O764 O 0.76885 0.81902 0.55917 0.0
O765 O 0.80602 0.79288 0.54178 0.0
C766 C 0.9227 0.84896 0.61072 0.0
O767 O 0.89887 0.84083 0.59026 0.0
O768 O 0.90666 0.84633 0.63349 0.0
C769 C 0.77096 0.57786 0.58406 0.0
O770 O 0.79168 0.56633 0.56745 0.0
O771 O 0.76324 0.7698 0.62554 0.0
O772 O 0.78783 0.79347 0.6656 0.0
C773 C 0.66242 0.58372 0.6301 0.0
O774 O 0.62452 0.57804 0.63708 0.0
C775 C 0.70126 0.64856 0.65771 0.0
C776 C 0.7131 0.68818 0.64628 0.0
C777 C 0.72588 0.72463 0.66196 0.0
C778 C 0.71707 0.7194 0.68921 0.0
C779 C 0.69805 0.6781 0.70091 0.0
C780 C 0.692 0.64268 0.68508 0.0
C781 C 0.85309 0.92002 0.61185 0.0
O782 O 0.81486 0.73864 0.59422 0.0
C783 C 0.75819 0.76644 0.65072 0.0
C784 C 0.83835 0.63716 0.60259 0.0
C785 C 0.86297 0.64 0.62487 0.0
C786 C 0.90794 0.66457 0.624 0.0
C787 C 0.92898 0.68646 0.6009 0.0
C788 C 0.90515 0.68379 0.57809 0.0
C789 C 0.85976 0.65869 0.57921 0.0
C790 C 0.77239 0.59749 0.67097 0.0
O791 O 0.77908 0.57795 0.69095 0.0
H792 H 0.83497 0.6668 0.70403 0.0
H793 H 0.87328 0.7442 0.68955 0.0
H794 H 0.85667 0.7647 0.64548 0.0
H795 H 0.79866 0.68218 0.55234 0.0
H796 H 0.68521 0.64215 0.50542 0.0
H797 H 0.67581 0.63974 0.58993 0.0
H798 H 0.70218 0.41126 0.62966 0.0
H799 H 0.80063 0.54235 0.64428 0.0
H800 H 0.66599 0.50665 0.6462 0.0
H801 H 0.70386 0.5091 0.55293 0.0
H802 H 0.62525 0.48236 0.56041 0.0
H803 H 0.60181 0.5146 0.59624 0.0
H804 H 0.71681 0.69144 0.62509 0.0
H805 H 0.72677 0.74765 0.7015 0.0
H806 H 0.6803 0.61108 0.69378 0.0
H807 H 0.84784 0.62199 0.64259 0.0
H808 H 0.96389 0.70416 0.60076 0.0
H809 H 0.84093 0.65522 0.56173 0.0
C810 C 0.38277 0.15718 0.66727 0.0
C811 C 0.35267 0.15698 0.68503 0.0
C812 C 0.30869 0.13521 0.67739 0.0
C813 C 0.29577 0.11462 0.65242 0.0
C814 C 0.32757 0.11613 0.63566 0.0
N815 N 0.36847 0.13718 0.64406 0.0
C816 C 0.32273 0.09693 0.609 0.0
C817 C 0.36363 0.08733 0.57243 0.0
C818 C 0.34976 0.10077 0.55018 0.0
C819 C 0.35423 0.08811 0.52475 0.0
C820 C 0.37189 0.06136 0.52132 0.0
C821 C 0.3842 0.04647 0.54335 0.0
C822 C 0.37987 0.05918 0.5688 0.0
Cd823 Cd 0.2151 0.01407 0.58584 0.0
Cd824 Cd 0.19365 0.01931 0.62967 0.0
C825 C 0.49637 0.20927 0.64233 0.0
C826 C 0.57135 0.22809 0.63497 0.0
C827 C 0.58233 0.2712 0.63155 0.0
C828 C 0.55167 0.2843 0.63416 0.0
C829 C 0.50854 0.25327 0.63942 0.0
C830 C 0.52834 0.19709 0.64093 0.0
Co831 Co 0.4095 0.13912 0.6216 0.0
N832 N 0.41599 0.18891 0.60135 0.0
N833 N 0.45097 0.1407 0.59956 0.0
C834 C 0.46806 0.17284 0.58203 0.0
C835 C 0.50244 0.17754 0.56641 0.0
C836 C 0.51765 0.14825 0.57048 0.0
C837 C 0.49919 0.11589 0.59021 0.0
C838 C 0.46507 0.11334 0.60516 0.0
N839 N 0.41029 0.0901 0.63876 0.0
N840 N 0.36053 0.10142 0.5986 0.0
N841 N 0.45181 0.1776 0.64761 0.0
O842 O 0.12312 0.96276 0.63528 0.0
O843 O 0.13372 0.96233 0.59258 0.0
C844 C 0.22229 0.97848 0.53603 0.0
O845 O 0.20375 0.95538 0.5561 0.0
O846 O 0.23947 0.01902 0.53901 0.0
C847 C 0.18825 0.09201 0.59908 0.0
O848 O 0.18871 0.06757 0.58082 0.0
O849 O 0.19516 0.08568 0.62283 0.0
C850 C 0.44795 0.20007 0.58282 0.0
O851 O 0.45955 0.23271 0.56649 0.0
O852 O 0.25501 0.99786 0.62146 0.0
O853 O 0.23752 0.01194 0.66041 0.0
C854 C 0.44178 0.08427 0.62748 0.0
O855 O 0.44746 0.05187 0.63405 0.0
C856 C 0.37661 0.05737 0.65486 0.0
C857 C 0.33736 0.02985 0.64285 0.0
C858 C 0.30028 1.00693 0.65809 0.0
C859 C 0.30439 1.00273 0.68537 0.0
C860 C 0.34533 0.02352 0.69755 0.0
C861 C 0.3814 0.05337 0.68236 0.0
C862 C 0.10852 0.94787 0.61255 0.0
O863 O 0.28613 0.08329 0.59433 0.0
C864 C 0.25984 1.00083 0.64664 0.0
C865 C 0.38638 0.20532 0.60024 0.0
C866 C 0.37882 0.22366 0.62264 0.0
C867 C 0.35022 0.23951 0.62137 0.0
C868 C 0.32952 0.2382 0.59761 0.0
C869 C 0.33809 0.22196 0.57447 0.0
C870 C 0.36642 0.20532 0.57611 0.0
C871 C 0.43032 0.18036 0.66933 0.0
O872 O 0.45076 0.20638 0.68924 0.0
H873 H 0.36266 0.1734 0.70391 0.0
H874 H 0.28468 0.13449 0.69073 0.0
H875 H 0.26223 0.0978 0.64671 0.0
H876 H 0.3353 0.1208 0.55238 0.0
H877 H 0.37533 0.05157 0.50163 0.0
H878 H 0.38846 0.0463 0.58555 0.0
H879 H 0.61577 0.29532 0.62776 0.0
H880 H 0.48454 0.26314 0.64128 0.0
H881 H 0.51994 0.164 0.64461 0.0
H882 H 0.51737 0.20307 0.55186 0.0
H883 H 0.54422 0.15112 0.5587 0.0
H884 H 0.51156 0.09423 0.59381 0.0
H885 H 0.33476 0.03076 0.62162 0.0
H886 H 0.27557 0.98485 0.6973 0.0
H887 H 0.41253 0.07309 0.69167 0.0
H888 H 0.39579 0.22693 0.64092 0.0
H889 H 0.30794 0.25122 0.59721 0.0
H890 H 0.37323 0.19252 0.55856 0.0
C891 C 0.87059 0.22901 0.66604 0.0
C892 C 0.87066 0.19799 0.68292 0.0
C893 C 0.89278 0.17647 0.67451 0.0
C894 C 0.91382 0.18584 0.64963 0.0
C895 C 0.91234 0.21713 0.63377 0.0
N896 N 0.89106 0.23634 0.64291 0.0
C897 C 0.93181 0.23312 0.60737 0.0
C898 C 0.94257 0.28605 0.57226 0.0
C899 C 0.93012 0.26016 0.54937 0.0
C900 C 0.94631 0.27847 0.52458 0.0
C901 C 0.97528 0.32268 0.52238 0.0
C902 C 0.98838 0.34856 0.54502 0.0
C903 C 0.97222 0.33036 0.56984 0.0
Cd904 Cd 0.01577 0.21106 0.58333 0.0
Cd905 Cd 0.02847 0.19337 0.62692 0.0
C906 C 0.81825 0.29166 0.64312 0.0
C907 C 0.79947 0.3481 0.63673 0.0
C908 C 0.75628 0.31618 0.6334 0.0
C909 C 0.7431 0.27236 0.63552 0.0
C910 C 0.77413 0.26002 0.64025 0.0
C911 C 0.83048 0.33585 0.64214 0.0
Co912 Co 0.88914 0.27667 0.62153 0.0
N913 N 0.83999 0.23453 0.6006 0.0
N914 N 0.88769 0.31758 0.6004 0.0
C915 C 0.85662 0.30332 0.58216 0.0
C916 C 0.85281 0.33369 0.56667 0.0
C917 C 0.88199 0.37799 0.5715 0.0
C918 C 0.91346 0.39099 0.59176 0.0
C919 C 0.91515 0.35875 0.60654 0.0
N920 N 0.93756 0.32562 0.63968 0.0
N921 N 0.92742 0.26706 0.59797 0.0
N922 N 0.85002 0.2786 0.64783 0.0
O923 O 0.09284 0.19207 0.6257 0.0
O924 O 0.07329 0.18749 0.58416 0.0
C925 C 0.0426 0.25371 0.53276 0.0
O926 O 0.0624 0.27074 0.55415 0.0
O927 O 1.00897 0.21675 0.53471 0.0
C928 C 0.95191 0.10644 0.60536 0.0
O929 O 0.96509 0.13023 0.58474 0.0
O930 O 0.96771 0.12266 0.62778 0.0
C931 C 0.82965 0.25593 0.58203 0.0
O932 O 0.79748 0.2355 0.5653 0.0
O933 O 0.02965 0.26548 0.61947 0.0
O934 O 0.03372 0.24182 0.6589 0.0
C935 C 0.94366 0.36345 0.62898 0.0
O936 O 0.976 0.40119 0.63614 0.0
C937 C 0.97028 0.32407 0.65546 0.0
C938 C 0.99895 0.31477 0.64263 0.0
C939 C 0.02407 0.30224 0.65695 0.0
C940 C 0.0284 0.30922 0.6843 0.0
C941 C 1.00368 0.3238 0.69795 0.0
C942 C 0.97313 0.32983 0.6833 0.0
C943 C 0.098 0.18557 0.60175 0.0
O944 O 0.94555 0.21103 0.59191 0.0
C945 C 0.03369 0.27079 0.64457 0.0
C946 C 0.82057 0.18815 0.60064 0.0
C947 C 0.79783 0.16393 0.6228 0.0
C948 C 0.77617 0.11891 0.62196 0.0
C949 C 0.77675 0.09741 0.59902 0.0
C950 C 0.79906 0.12084 0.57636 0.0
C951 C 0.82076 0.16634 0.57746 0.0
C952 C 0.84725 0.25318 0.66896 0.0
O953 O 0.82098 0.2463 0.68892 0.0
H954 H 0.85389 0.19021 0.70171 0.0
H955 H 0.89335 0.15234 0.68718 0.0
H956 H 0.93072 0.16945 0.64321 0.0
H957 H 0.90839 0.22579 0.55063 0.0
H958 H 0.98788 0.3368 0.50319 0.0
H959 H 0.98395 0.35083 0.58709 0.0
H960 H 0.73222 0.32569 0.62987 0.0
H961 H 0.76409 0.22609 0.64172 0.0
H962 H 0.86362 0.36042 0.64576 0.0
H963 H 0.82811 0.32376 0.55159 0.0
H964 H 0.87982 0.40222 0.55982 0.0
H965 H 0.93522 0.42484 0.5958 0.0
H966 H 0.99798 0.31248 0.62135 0.0
H967 H 0.04971 0.3012 0.69504 0.0
H968 H 0.95109 0.33752 0.69335 0.0
H969 H 0.79515 0.17944 0.64039 0.0
H970 H 0.75844 0.0625 0.59886 0.0
H971 H 0.83729 0.18499 0.56013 0.0
C972 C 0.03481 0.15169 0.13084 0.0
C973 C 0.05993 0.15559 0.10843 0.0
C974 C 0.98973 0.12836 0.12995 0.0
C975 C 0.96746 0.10784 0.10659 0.0
H976 H 0.05004 0.16505 0.14973 0.0
H977 H 0.97225 0.12481 0.14816 0.0
S978 S 0.01751 0.11423 0.04111 0.0
N979 N 0.05897 0.14154 0.06119 0.0
N980 N 0.97383 0.09767 0.05949 0.0
C981 C 0.99188 0.11463 0.08336 0.0
C982 C 0.03819 0.13848 0.08429 0.0
C983 C 0.89516 0.91107 0.08104 0.0
C984 C 0.86317 0.90027 0.10054 0.0
C985 C 0.91881 0.88927 0.07957 0.0
C986 C 0.91114 0.85608 0.09756 0.0
H987 H 0.90421 0.93855 0.06817 0.0
H988 H 0.94539 0.90073 0.06569 0.0
S989 S 0.82429 0.80896 0.14793 0.0
N990 N 0.82027 0.84925 0.13501 0.0
N991 N 0.86462 0.80867 0.13223 0.0
C992 C 0.87641 0.84223 0.11523 0.0
C993 C 0.85244 0.86424 0.11673 0.0
C994 C 0.11629 0.98677 0.08148 0.0
C995 C 0.12225 0.96394 0.10225 0.0
C996 C 0.13909 0.03228 0.081 0.0
C997 C 0.16853 0.05619 0.10126 0.0
H998 H 0.09158 0.96957 0.06667 0.0
H999 H 0.13116 0.04867 0.06586 0.0
S1000 S 0.2029 0.01149 0.15636 0.0
N1001 N 0.16488 0.96856 0.14091 0.0
N1002 N 0.20778 0.05359 0.13987 0.0
C1003 C 0.17787 0.03357 0.12047 0.0
C1004 C 0.15468 0.98755 0.12102 0.0
C1005 C 0.11385 0.98502 0.42652 0.0
C1006 C 0.11256 0.9597 0.40478 0.0
C1007 C 0.13663 0.03051 0.42511 0.0
C1008 C 0.15884 0.0521 0.4019 0.0
H1009 H 0.0949 0.96968 0.44406 0.0
H1010 H 0.13451 0.04868 0.44163 0.0
S1011 S 0.17279 1.00061 0.34173 0.0
N1012 N 0.14091 0.95972 0.36105 0.0
N1013 N 0.18338 0.04458 0.35835 0.0
C1014 C 0.16079 0.02706 0.38101 0.0
C1015 C 0.13777 0.98105 0.38246 0.0
C1016 C 0.03678 0.13419 0.42945 0.0
C1017 C 0.06089 0.16414 0.40949 0.0
C1018 C 0.99134 0.11123 0.42868 0.0
C1019 C 0.96877 0.11752 0.4079 0.0
H1020 H 0.05298 0.12594 0.44455 0.0
H1021 H 0.97404 0.08613 0.44324 0.0
S1022 S 0.01672 0.19982 0.35477 0.0
N1023 N 0.05866 0.20449 0.37135 0.0
N1024 N 0.97366 0.16114 0.36973 0.0
C1025 C 0.99248 0.15053 0.38951 0.0
C1026 C 0.03847 0.17395 0.39037 0.0
C1027 C 0.85568 0.87623 0.3923 0.0
C1028 C 0.8641 0.90672 0.41234 0.0
C1029 C 0.87665 0.85208 0.39178 0.0
C1030 C 0.90725 0.85746 0.41121 0.0
H1031 H 0.8342 0.87245 0.37607 0.0
H1032 H 0.87043 0.83062 0.37513 0.0
S1033 S 0.93617 0.92857 0.47024 0.0
N1034 N 0.90122 0.93738 0.45394 0.0
N1035 N 0.94107 0.89206 0.45289 0.0
C1036 C 0.91321 0.88509 0.43268 0.0
C1037 C 0.89154 0.9097 0.43326 0.0
C1038 C 0.99315 0.86304 0.88539 0.0
C1039 C 0.9688 0.86607 0.90631 0.0
C1040 C 0.03827 0.88533 0.88605 0.0
C1041 C 0.06118 0.91162 0.90768 0.0
H1042 H 0.9773 0.84458 0.86777 0.0
H1043 H 0.05537 0.88327 0.8689 0.0
S1044 S 1.01302 0.92655 0.96902 0.0
N1045 N 0.971 0.89435 0.95047 0.0
N1046 N 0.05617 0.93632 0.95173 0.0
C1047 C 0.0374 0.91265 0.9296 0.0
C1048 C 0.99114 0.88989 0.92891 0.0
C1049 C 0.13293 0.10339 0.9277 0.0
C1050 C 0.16414 0.11293 0.90787 0.0
C1051 C 0.11009 0.12596 0.92912 0.0
C1052 C 0.11782 0.15868 0.91076 0.0
H1053 H 0.12415 0.0766 0.94111 0.0
H1054 H 0.0843 0.11573 0.94348 0.0
S1055 S 0.20233 0.20198 0.85885 0.0
N1056 N 0.20603 0.1618 0.87224 0.0
N1057 N 0.16309 0.2038 0.87491 0.0
C1058 C 0.15141 0.17088 0.8924 0.0
C1059 C 0.17459 0.1481 0.89096 0.0
C1060 C 0.88153 0.03079 0.88996 0.0
C1061 C 0.91118 0.05511 0.90997 0.0
C1062 C 0.85842 0.98569 0.89086 0.0
C1063 C 0.86405 0.96295 0.91175 0.0
H1064 H 0.87765 0.04664 0.87275 0.0
H1065 H 0.83761 0.96848 0.87428 0.0
S1066 S 0.93336 0.01147 0.97093 0.0
N1067 N 0.94153 0.05335 0.95278 0.0
N1068 N 0.89797 0.9682 0.95445 0.0
C1069 C 0.8909 0.98682 0.93302 0.0
C1070 C 0.91455 0.03303 0.93211 0.0
C1071 C 0.89512 0.03847 0.62593 0.0
C1072 C 0.92085 0.05945 0.60375 0.0
C1073 C 0.87129 0.99341 0.62749 0.0
C1074 C 0.8724 0.96719 0.60704 0.0
H1075 H 0.89459 0.05704 0.64274 0.0
H1076 H 0.85324 0.97912 0.64548 0.0
S1077 S 0.93098 1.0063 0.54325 0.0
N1078 N 0.94303 0.05086 0.55972 0.0
N1079 N 0.89851 0.96583 0.56272 0.0
C1080 C 0.89587 0.98773 0.58395 0.0
C1081 C 0.91999 0.03393 0.58229 0.0
C1082 C 0.99316 0.89375 0.58715 0.0
C1083 C 0.96987 0.86654 0.60843 0.0
C1084 C 0.03855 0.91813 0.58767 0.0
C1085 C 0.06196 0.91614 0.60953 0.0
H1086 H 0.97622 0.89824 0.57077 0.0
H1087 H 0.05517 0.94051 0.57164 0.0
S1088 S 0.01656 0.84384 0.66774 0.0
N1089 N 0.97394 0.8346 0.65005 0.0
N1090 N 0.05883 0.88049 0.65114 0.0
C1091 C 0.03914 0.88658 0.62987 0.0
C1092 C 0.9932 0.86174 0.62928 0.0
C1093 C 0.11737 0.13683 0.57702 0.0
C1094 C 0.12869 0.17046 0.5954 0.0
C1095 C 0.13972 0.11374 0.57631 0.0
C1096 C 0.17395 0.12369 0.59397 0.0
H1097 H 0.08894 0.1259 0.56473 0.0
H1098 H 0.12776 0.08575 0.56352 0.0
S1099 S 0.22282 0.21576 0.64084 0.0
N1100 N 0.18126 0.21755 0.62798 0.0
N1101 N 0.2231 0.17434 0.6266 0.0
C1102 C 0.18848 0.16027 0.61018 0.0
C1103 C 0.16586 0.18363 0.61092 0.0
C1104 C 0.31214 0.06234 0.04146 0.0
C1105 C 0.31271 0.1 0.05044 0.0
C1106 C 0.29267 0.04283 0.01722 0.0
C1107 C 0.27394 0.06081 1.00085 0.0
H1108 H 0.32763 0.04831 0.05297 0.0
H1109 H 0.29334 0.01426 0.01092 0.0
S1110 S 0.26083 0.15469 0.01691 0.0
N1111 N 0.28733 0.15058 0.04248 0.0
N1112 N 0.25352 0.1158 0.99628 0.0
C1113 C 0.27308 0.0975 0.00992 0.0
C1114 C 0.29177 0.11661 0.03484 0.0
C1115 C 0.9582 0.21131 0.05091 0.0
C1116 C 0.92722 0.22461 0.05222 0.0
C1117 C 0.97837 0.21206 0.02685 0.0
C1118 C 0.96817 0.22598 1.00322 0.0
H1119 H 0.96617 0.19928 0.06846 0.0
H1120 H 1.00114 0.20044 0.02665 0.0
S1121 S 0.89321 0.26899 0.99671 0.0
N1122 N 0.89038 0.25581 0.02828 0.0
N1123 N 0.92758 0.25656 0.98315 0.0
C1124 C 0.93835 0.2407 1.00449 0.0
C1125 C 0.91804 0.24014 0.02894 0.0
C1126 C 0.7716 0.73352 0.01975 0.0
C1127 C 0.80831 0.75282 1.00344 0.0
C1128 C 0.772 0.71416 0.04395 0.0
C1129 C 0.80945 0.7143 0.0529 0.0
H1130 H 0.74209 0.7322 0.01341 0.0
H1131 H 0.7425 0.69809 0.05541 0.0
S1132 S 0.91608 0.76824 0.01963 0.0
N1133 N 0.88407 0.77488 0.999 0.0
N1134 N 0.88568 0.74117 0.04512 0.0
C1135 C 0.84701 0.736 0.03743 0.0
C1136 C 0.84624 0.7546 0.01256 0.0
C1137 C 0.0503 0.24979 0.48352 0.0
C1138 C 0.06006 0.27473 0.50679 0.0
C1139 C 0.07043 0.2685 0.45932 0.0
C1140 C 0.10092 0.31285 0.45749 0.0
H1141 H 0.0281 0.2153 0.48417 0.0
H1142 H 0.06296 0.24787 0.4421 0.0
S1143 S 0.13308 0.39324 0.51173 0.0
N1144 N 0.09928 0.34674 0.52584 0.0
N1145 N 0.13639 0.38187 0.48043 0.0
C1146 C 0.10937 0.3384 0.48033 0.0
C1147 C 0.08911 0.31937 0.50493 0.0
C1148 C 0.72869 0.83664 0.4826 0.0
C1149 C 0.72325 0.80761 0.46205 0.0
C1150 C 0.74618 0.83529 0.50723 0.0
C1151 C 0.76015 0.80557 0.51233 0.0
H1152 H 0.71976 0.86104 0.47976 0.0
H1153 H 0.74941 0.85832 0.52228 0.0
S1154 S 0.75312 0.72183 0.46604 0.0
N1155 N 0.73188 0.74646 0.44945 0.0
N1156 N 0.76798 0.74665 0.49492 0.0
C1157 C 0.75587 0.77686 0.49201 0.0
C1158 C 0.73671 0.77722 0.46714 0.0
C1159 C 0.25811 0.97683 0.4936 0.0
C1160 C 0.22176 0.95855 0.51022 0.0
C1161 C 0.25822 0.95686 0.46962 0.0
C1162 C 0.22157 0.9184 0.46109 0.0
H1163 H 0.28698 1.0061 0.49948 0.0
H1164 H 0.28752 0.97125 0.45793 0.0
S1165 S 0.11592 0.8621 0.49553 0.0
N1166 N 0.14715 0.90208 0.51561 0.0
N1167 N 0.14628 0.86639 0.46982 0.0
C1168 C 0.18433 0.90131 0.47697 0.0
C1169 C 0.18467 0.92091 0.50168 0.0
C1170 C 0.68782 0.90409 0.98731 0.0
C1171 C 0.70777 0.92044 0.96262 0.0
C1172 C 0.70822 0.92377 0.01122 0.0
C1173 C 0.74936 0.96107 0.01165 0.0
H1174 H 0.65595 0.87579 0.98826 0.0
H1175 H 0.69154 0.90936 0.02958 0.0
S1176 S 0.81537 0.01809 0.95275 0.0
N1177 N 0.77155 0.97667 0.94032 0.0
N1178 N 0.80884 0.01456 0.98518 0.0
C1179 C 0.76931 0.97856 0.98718 0.0
C1180 C 0.74883 0.95811 0.96276 0.0
C1181 C 0.09959 0.78593 0.00662 0.0
C1182 C 0.06358 0.79187 0.0075 0.0
C1183 C 0.11865 0.78521 0.98249 0.0
C1184 C 0.10288 0.79091 0.95812 0.0
H1185 H 0.11347 0.78201 0.02476 0.0
H1186 H 0.14604 0.78011 0.98302 0.0
S1187 S 1.00862 0.80686 0.94947 0.0
N1188 N 1.01193 0.80219 0.98178 0.0
N1189 N 0.04866 0.80256 0.93653 0.0
C1190 C 0.06644 0.7963 0.95869 0.0
C1191 C 0.04663 0.7964 0.9833 0.0
C1192 C 0.23349 0.33504 0.98718 0.0
C1193 C 0.22917 0.31452 0.9626 0.0
C1194 C 0.23292 0.31491 0.01117 0.0
C1195 C 0.22843 0.2735 0.01173 0.0
H1196 H 0.23767 0.36718 0.98795 0.0
H1197 H 0.23601 0.33207 0.02946 0.0
S1198 S 0.21633 0.20565 0.95315 0.0
N1199 N 0.21965 0.24979 0.94053 0.0
N1200 N 0.22018 0.21282 0.98551 0.0
C1201 C 0.22479 0.25282 0.98735 0.0
C1202 C 0.2248 0.27308 0.96288 0.0
C1203 C 0.93133 0.70343 0.50438 0.0
C1204 C 0.96656 0.74586 0.50343 0.0
C1205 C 0.91224 0.68364 0.5285 0.0
C1206 C 0.9272 0.70551 0.55282 0.0
H1207 H 0.91817 0.68522 0.48628 0.0
H1208 H 0.88552 0.65076 0.52803 0.0
S1209 S 0.01862 0.81739 0.56132 0.0
N1210 N 0.01617 0.80901 0.52906 0.0
N1211 N 0.97945 0.77245 0.5743 0.0
C1212 C 0.9627 0.74792 0.5522 0.0
C1213 C 0.98252 0.7679 0.52759 0.0
C1214 C 0.25395 0.20972 0.52318 0.0
C1215 C 0.27766 0.22276 0.4994 0.0
C1216 C 0.27366 0.2097 0.54731 0.0
C1217 C 0.31795 0.22294 0.54869 0.0
H1218 H 0.21964 0.19841 0.52309 0.0
H1219 H 0.25384 0.19844 0.56494 0.0
S1220 S 0.39544 0.2649 0.49266 0.0
N1221 N 0.34849 0.2521 0.47913 0.0
N1222 N 0.38556 0.253 0.5244 0.0
C1223 C 0.34226 0.23743 0.52519 0.0
C1224 C 0.32216 0.23715 0.50062 0.0
C1225 C 0.79247 0.09387 0.50281 0.0
C1226 C 0.79786 0.05748 0.50216 0.0
C1227 C 0.79245 0.11365 0.52679 0.0
C1228 C 0.79821 0.09822 0.55125 0.0
H1229 H 0.78849 0.10751 0.48459 0.0
H1230 H 0.78775 0.1413 0.5261 0.0
S1231 S 0.81328 1.00351 0.56055 0.0
N1232 N 0.80805 1.00605 0.52822 0.0
N1233 N 0.80959 0.04409 0.57321 0.0
C1234 C 0.80316 0.06148 0.55093 0.0
C1235 C 0.80261 0.04096 0.52646 0.0
C1236 C 0.5788 0.22799 0.15672 0.0
C1237 C 0.56767 0.24068 0.13296 0.0
C1238 C 0.61116 0.21648 0.15723 0.0
C1239 C 0.63332 0.21737 0.134 0.0
H1240 H 0.56613 0.23182 0.17537 0.0
H1241 H 0.62232 0.21187 0.17626 0.0
S1242 S 0.61126 0.2416 0.06634 0.0
N1243 N 0.5771 0.24772 0.08533 0.0
N1244 N 0.6379 0.2265 0.0863 0.0
C1245 C 0.61882 0.22506 0.10983 0.0
C1246 C 0.58597 0.23664 0.10931 0.0
C1247 C 0.80827 0.39789 0.15867 0.0
C1248 C 0.80862 0.41892 0.13501 0.0
C1249 C 0.79695 0.35405 0.15867 0.0
C1250 C 0.7857 0.32996 0.13501 0.0
H1251 H 0.8118 0.41385 0.1775 0.0
H1252 H 0.79212 0.33775 0.17752 0.0
S1253 S 0.7881 0.37185 0.0676 0.0
N1254 N 0.80196 0.41378 0.08718 0.0
N1255 N 0.78118 0.33185 0.08717 0.0
C1256 C 0.79091 0.35205 0.11107 0.0
C1257 C 0.80224 0.39645 0.11107 0.0
C1258 C 0.6736 0.44107 0.11073 0.0
C1259 C 0.69601 0.45877 0.13455 0.0
C1260 C 0.62983 0.40883 0.11081 0.0
C1261 C 0.60701 0.39302 0.13473 0.0
H1262 H 0.69118 0.44867 0.0922 0.0
H1263 H 0.61519 0.3927 0.09233 0.0
S1264 S 0.64913 0.43344 0.20199 0.0
N1265 N 0.69067 0.46224 0.18227 0.0
N1266 N 0.6085 0.40147 0.18243 0.0
C1267 C 0.62765 0.41402 0.15832 0.0
C1268 C 0.6722 0.44696 0.15823 0.0
C1269 C 0.22937 0.61062 0.39925 0.0
C1270 C 0.22366 0.62701 0.37516 0.0
C1271 C 0.2411 0.57849 0.39968 0.0
C1272 C 0.24734 0.56148 0.37604 0.0
H1273 H 0.22965 0.62618 0.41773 0.0
H1274 H 0.24995 0.57039 0.41847 0.0
S1275 S 0.23013 0.58889 0.30806 0.0
N1276 N 0.21996 0.62009 0.32733 0.0
N1277 N 0.24173 0.55957 0.32813 0.0
C1278 C 0.23686 0.57402 0.35204 0.0
C1279 C 0.22504 0.60683 0.35161 0.0
C1280 C 0.41438 0.62353 0.40219 0.0
C1281 C 0.39956 0.60084 0.37814 0.0
C1282 C 0.44649 0.66735 0.40257 0.0
C1283 C 0.465 0.68993 0.37892 0.0
H1284 H 0.3976 0.60874 0.42046 0.0
H1285 H 0.45335 0.68482 0.42112 0.0
S1286 S 0.44237 0.64341 0.31135 0.0
N1287 N 0.40981 0.60261 0.3306 0.0
N1288 N 0.4703 0.68488 0.33131 0.0
C1289 C 0.45419 0.66625 0.35519 0.0
C1290 C 0.4214 0.62164 0.3548 0.0
C1291 C 0.40166 0.79488 0.40158 0.0
C1292 C 0.42489 0.80237 0.3778 0.0
C1293 C 0.35794 0.78351 0.40142 0.0
C1294 C 0.33602 0.77941 0.37748 0.0
H1295 H 0.41593 0.79296 0.42011 0.0
H1296 H 0.34 0.77316 0.41982 0.0
S1297 S 0.38412 0.8023 0.31037 0.0
N1298 N 0.42435 0.81043 0.33014 0.0
N1299 N 0.34224 0.78924 0.32984 0.0
C1300 C 0.36025 0.79186 0.35397 0.0
C1301 C 0.40476 0.80335 0.35413 0.0
C1302 C 0.44324 0.78276 0.90271 0.0
C1303 C 0.46227 0.77803 0.87952 0.0
C1304 C 0.41118 0.79443 0.90144 0.0
C1305 C 0.39702 0.80159 0.87693 0.0
H1306 H 0.44957 0.7726 0.9216 0.0
H1307 H 0.39386 0.79281 0.91939 0.0
S1308 S 0.44182 0.80051 0.81106 0.0
N1309 N 0.46914 0.78741 0.83185 0.0
N1310 N 0.40866 0.8091 0.82946 0.0
C1311 C 0.41953 0.80219 0.85402 0.0
C1312 C 0.45229 0.79043 0.85532 0.0
C1313 C 0.22109 0.62049 0.85409 0.0
C1314 C 0.22061 0.60013 0.87805 0.0
C1315 C 0.23288 0.66442 0.85353 0.0
C1316 C 0.24443 0.68918 0.87691 0.0
H1317 H 0.21743 0.60394 0.83547 0.0
H1318 H 0.23786 0.6802 0.83448 0.0
S1319 S 0.24122 0.64906 0.94493 0.0
N1320 N 0.22696 0.60648 0.92587 0.0
N1321 N 0.24874 0.68867 0.92481 0.0
C1322 C 0.23889 0.66777 0.90114 0.0
C1323 C 0.22703 0.62327 0.90172 0.0
C1324 C 0.35771 0.57166 0.85807 0.0
C1325 C 0.33311 0.56029 0.88149 0.0
C1326 C 0.40161 0.60386 0.85816 0.0
C1327 C 0.42207 0.62558 0.88169 0.0
H1328 H 0.34182 0.55936 0.83919 0.0
H1329 H 0.41803 0.61529 0.83936 0.0
S1330 S 0.37365 0.60232 0.94873 0.0
N1331 N 0.33392 0.56874 0.92916 0.0
N1332 N 0.41608 0.62919 0.92935 0.0
C1333 C 0.39912 0.61069 0.90556 0.0
C1334 C 0.35465 0.57802 0.90546 0.0
C1335 C 0.79797 0.44702 0.65904 0.0
C1336 C 0.78617 0.45942 0.63543 0.0
C1337 C 0.80938 0.41457 0.65905 0.0
C1338 C 0.80925 0.3936 0.63544 0.0
H1339 H 0.79345 0.45871 0.67789 0.0
H1340 H 0.81324 0.40238 0.67789 0.0
S1341 S 0.78741 0.41917 0.56808 0.0
N1342 N 0.7808 0.45246 0.58763 0.0
N1343 N 0.80176 0.39145 0.58764 0.0
C1344 C 0.80249 0.4094 0.61149 0.0
C1345 C 0.79105 0.44236 0.61148 0.0
C1346 C 0.61105 0.39879 0.65734 0.0
C1347 C 0.6338 0.41995 0.63425 0.0
C1348 C 0.57842 0.35505 0.65667 0.0
C1349 C 0.56768 0.33135 0.63288 0.0
H1350 H 0.62192 0.41445 0.67641 0.0
H1351 H 0.56531 0.3385 0.67526 0.0
S1352 S 0.61275 0.37402 0.56652 0.0
N1353 N 0.6393 0.4156 0.5866 0.0
N1354 N 0.57792 0.33385 0.58533 0.0
C1355 C 0.58647 0.35371 0.60931 0.0
C1356 C 0.61961 0.39797 0.61 0.0
C1357 C 0.67152 0.22891 0.65726 0.0
C1358 C 0.69603 0.24141 0.63378 0.0
C1359 C 0.62769 0.21756 0.65713 0.0
C1360 C 0.60719 0.21851 0.63353 0.0
H1361 H 0.68745 0.23276 0.67615 0.0
H1362 H 0.61138 0.21308 0.67593 0.0
S1363 S 0.65553 0.24244 0.56645 0.0
N1364 N 0.69513 0.24838 0.58607 0.0
N1365 N 0.61322 0.22753 0.58584 0.0
C1366 C 0.63009 0.22603 0.60967 0.0
C1367 C 0.67446 0.23739 0.6098 0.0
C1368 C 0.3657 0.32487 0.27351 0.0
C1369 C 0.34388 0.34508 0.28436 0.0
C1370 C 0.36963 0.32187 0.24594 0.0
C1371 C 0.35151 0.33861 0.22812 0.0
H1372 H 0.3785 0.30982 0.28648 0.0
H1373 H 0.38478 0.3042 0.23858 0.0
S1374 S 0.29416 0.39757 0.24612 0.0
N1375 N 0.30619 0.38426 0.27491 0.0
N1376 N 0.31387 0.37911 0.22329 0.0
C1377 C 0.33165 0.3609 0.23871 0.0
C1378 C 0.3278 0.36408 0.26674 0.0
C1379 C 0.69937 0.04318 0.27401 0.0
C1380 C 0.67933 1.00135 0.28516 0.0
C1381 C 0.70294 0.04968 0.24641 0.0
C1382 C 0.68694 0.01457 0.22878 0.0
H1383 H 0.71379 0.07126 0.28681 0.0
H1384 H 0.72035 0.08242 0.23888 0.0
S1385 S 0.62867 0.89853 0.24757 0.0
N1386 N 0.64119 0.92435 0.27618 0.0
N1387 N 0.64724 0.93631 0.22447 0.0
C1388 C 0.66488 0.97256 0.23965 0.0
C1389 C 0.66117 0.96599 0.26774 0.0
C1390 C 1.0117 0.71773 0.24193 0.0
C1391 C 1.00838 0.68268 0.22725 0.0
C1392 C 0.02032 0.72192 0.2691 0.0
C1393 C 0.02428 0.69037 0.28357 0.0
H1394 H 1.0078 0.74267 0.23233 0.0
H1395 H 0.02359 0.75036 0.27888 0.0
S1396 S 0.01742 0.59141 0.25511 0.0
N1397 N 1.01045 0.61579 0.22933 0.0
N1398 N 0.02377 0.62222 0.28107 0.0
C1399 C 0.02062 0.65473 0.26937 0.0
C1400 C 1.01283 0.65096 0.24124 0.0
C1401 C 0.66207 0.69705 0.76834 0.0
C1402 C 0.67985 0.67997 0.78618 0.0
C1403 C 0.66628 0.69433 0.74078 0.0
C1404 C 0.68811 0.67413 0.72991 0.0
H1405 H 0.64687 0.71468 0.7757 0.0
H1406 H 0.65357 0.7095 0.72782 0.0
S1407 S 0.73704 0.62085 0.76816 0.0
N1408 N 0.71715 0.63913 0.79098 0.0
N1409 N 0.7255 0.63466 0.73939 0.0
C1410 C 0.70393 0.65489 0.74753 0.0
C1411 C 0.69974 0.65772 0.77556 0.0
C1412 C 0.3669 0.05084 0.74432 0.0
C1413 C 0.34825 0.01604 0.72646 0.0
C1414 C 0.36323 0.04385 0.77189 0.0
C1415 C 0.34115 1.00182 0.78274 0.0
H1416 H 0.3825 0.0837 0.737 0.0
H1417 H 0.37665 0.0717 0.78488 0.0
S1418 S 0.2897 0.89969 0.74443 0.0
N1419 N 0.30957 0.93789 0.72161 0.0
N1420 N 0.30235 0.92498 0.77323 0.0
C1421 C 0.32431 0.96678 0.76508 0.0
C1422 C 0.32788 0.97385 0.73704 0.0
C1423 C 1.01211 0.29635 0.742 0.0
C1424 C 1.0078 0.32774 0.72757 0.0
C1425 C 0.02062 0.30048 0.76919 0.0
C1426 C 0.02355 0.33533 0.7839 0.0
H1427 H 1.0091 0.26804 0.73218 0.0
H1428 H 0.02466 0.27564 0.77878 0.0
S1429 S 1.0138 0.42625 0.75615 0.0
N1430 N 1.00775 0.39562 0.73016 0.0
N1431 N 0.02094 0.40193 0.7819 0.0
C1432 C 0.01888 0.36694 0.76995 0.0
C1433 C 1.01116 0.36322 0.74181 0.0
loop_
_geom_bond_atom_site_label_1
_geom_bond_atom_site_label_2
_geom_bond_distance
_geom_bond_site_symmetry_2
_ccdc_geom_bond_type
C0 C1 1.359 . S
C0 N5 1.330 . S
C0 C61 1.504 . S
C1 C0 1.359 . S
C1 C2 1.366 . S
C1 H63 0.929 . S
C2 C1 1.366 . S
C2 C3 1.415 . S
C2 H64 0.932 . S
C3 C2 1.415 . S
C3 C4 1.366 . S
C3 H65 0.931 . S
C4 C3 1.366 . S
C4 N5 1.325 . S
C4 C6 1.516 . S
N5 C0 1.330 . S
N5 C4 1.325 . S
N5 Co21 1.869 . S
C6 C4 1.516 . S
C6 N30 1.316 . S
C6 O53 1.263 . S
C7 C8 1.421 . S
C7 C12 1.360 . S
C7 N30 1.436 . S
C8 C7 1.421 . S
C8 C9 1.379 . S
C8 H66 0.929 . S
C9 C8 1.379 . S
C9 C10 1.417 . S
C10 C9 1.417 . S
C10 C11 1.352 . S
C10 H67 0.929 . S
C11 C10 1.352 . S
C11 C12 1.393 . S
C12 C7 1.360 . S
C12 C11 1.393 . S
C12 H68 0.931 . S
Cd13 O33 2.329 . S
Cd13 O35 2.350 . S
Cd13 O36 2.277 . S
Cd13 O38 2.173 . S
Cd13 O42 2.263 . S
Cd13 O53 2.366 . S
Cd14 O32 2.352 . S
Cd14 O39 2.250 . S
Cd14 O43 2.308 . S
C15 C19 1.403 . S
C15 C20 1.370 . S
C15 N31 1.423 . S
C16 C17 1.389 . S
C16 C20 1.389 . S
C17 C16 1.389 . S
C17 C18 1.379 . S
C17 H69 0.929 . S
C18 C17 1.379 . S
C18 C19 1.405 . S
C19 C15 1.403 . S
C19 C18 1.405 . S
C19 H70 0.932 . S
C20 C15 1.370 . S
C20 C16 1.389 . S
C20 H71 0.931 . S
Co21 N5 1.869 . S
Co21 N22 1.955 . S
Co21 N23 1.864 . S
Co21 N29 1.958 . S
Co21 N30 1.953 . S
Co21 N31 1.974 . S
N22 Co21 1.955 . S
N22 C40 1.329 . S
N22 C55 1.432 . S
N23 Co21 1.864 . S
N23 C24 1.327 . S
N23 C28 1.342 . S
C24 N23 1.327 . S
C24 C25 1.407 . S
C24 C40 1.481 . S
C25 C24 1.407 . S
C25 C26 1.364 . S
C25 H72 0.930 . S
C26 C25 1.364 . S
C26 C27 1.390 . S
C26 H73 0.931 . S
C27 C26 1.390 . S
C27 C28 1.346 . S
C27 H74 0.930 . S
C28 N23 1.342 . S
C28 C27 1.346 . S
C28 C44 1.516 . S
N29 Co21 1.958 . S
N29 C44 1.324 . S
N29 C46 1.427 . S
N30 C6 1.316 . S
N30 C7 1.436 . S
N30 Co21 1.953 . S
N31 C15 1.423 . S
N31 Co21 1.974 . S
N31 C61 1.309 . S
O32 Cd14 2.352 . S
O32 C52 1.235 . S
O33 Cd13 2.329 . S
O33 C52 1.270 . S
C34 O35 1.270 . S
C34 O36 1.248 . S
O35 Cd13 2.350 . S
O35 C34 1.270 . S
O36 Cd13 2.277 . S
O36 C34 1.248 . S
C37 O38 1.277 . S
C37 O39 1.230 . S
O38 Cd13 2.173 . S
O38 C37 1.277 . S
O39 Cd14 2.250 . S
O39 C37 1.230 . S
C40 N22 1.329 . S
C40 C24 1.481 . S
C40 O41 1.246 . S
O41 C40 1.246 . S
O42 Cd13 2.263 . S
O42 C54 1.258 . S
O43 Cd14 2.308 . S
O43 C54 1.274 . S
C44 C28 1.516 . S
C44 N29 1.324 . S
C44 O45 1.238 . S
O45 C44 1.238 . S
C46 N29 1.427 . S
C46 C47 1.394 . S
C46 C51 1.395 . S
C47 C46 1.394 . S
C47 C48 1.380 . S
C47 H75 0.929 . S
C48 C47 1.380 . S
C48 C49 1.384 . S
C48 C54 1.495 . S
C49 C48 1.384 . S
C49 C50 1.382 . S
C49 H76 0.930 . S
C50 C49 1.382 . S
C50 C51 1.398 . S
C51 C46 1.395 . S
C51 C50 1.398 . S
C51 H77 0.930 . S
C52 O32 1.235 . S
C52 O33 1.270 . S
O53 C6 1.263 . S
O53 Cd13 2.366 . S
C54 O42 1.258 . S
C54 O43 1.274 . S
C54 C48 1.495 . S
C55 N22 1.432 . S
C55 C56 1.381 . S
C55 C60 1.385 . S
C56 C55 1.381 . S
C56 C57 1.371 . S
C56 H78 0.932 . S
C57 C56 1.371 . S
C57 C58 1.400 . S
C58 C57 1.400 . S
C58 C59 1.351 . S
C58 H79 0.930 . S
C59 C58 1.351 . S
C59 C60 1.388 . S
C60 C55 1.385 . S
C60 C59 1.388 . S
C60 H80 0.929 . S
C61 C0 1.504 . S
C61 N31 1.309 . S
C61 O62 1.258 . S
O62 C61 1.258 . S
H63 C1 0.929 . S
H64 C2 0.932 . S
H65 C3 0.931 . S
H66 C8 0.929 . S
H67 C10 0.929 . S
H68 C12 0.931 . S
H69 C17 0.929 . S
H70 C19 0.932 . S
H71 C20 0.931 . S
H72 C25 0.930 . S
H73 C26 0.931 . S
H74 C27 0.930 . S
H75 C47 0.929 . S
H76 C49 0.930 . S
H77 C51 0.930 . S
H78 C56 0.932 . S
H79 C58 0.930 . S
H80 C60 0.929 . S
C81 C82 1.359 . S
C81 N86 1.330 . S
C81 C142 1.504 . S
C82 C81 1.359 . S
C82 C83 1.366 . S
C82 H144 0.929 . S
C83 C82 1.366 . S
C83 C84 1.415 . S
C83 H145 0.932 . S
C84 C83 1.415 . S
C84 C85 1.366 . S
C84 H146 0.931 . S
C85 C84 1.366 . S
C85 N86 1.325 . S
C85 C87 1.516 . S
N86 C81 1.330 . S
N86 C85 1.325 . S
N86 Co102 1.869 . S
C87 C85 1.516 . S
C87 N111 1.316 . S
C87 O134 1.263 . S
C88 C89 1.421 . S
C88 C93 1.360 . S
C88 N111 1.436 . S
C89 C88 1.421 . S
C89 C90 1.379 . S
C89 H147 0.929 . S
C90 C89 1.379 . S
C90 C91 1.417 . S
C91 C90 1.417 . S
C91 C92 1.352 . S
C91 H148 0.925 1_545 S
C92 C91 1.352 . S
C92 C93 1.393 . S
C93 C88 1.360 . S
C93 C92 1.393 . S
C93 H149 0.931 . S
Cd94 O114 2.308 1_545 S
Cd94 O116 2.349 1_545 S
Cd94 O117 2.275 1_545 S
Cd94 O119 2.177 . S
Cd94 O123 2.264 1_545 S
Cd94 O134 2.386 . S
Cd95 O113 2.352 . S
Cd95 O120 2.250 1_565 S
Cd95 O124 2.308 . S
C96 C100 1.403 . S
C96 C101 1.370 . S
C96 N112 1.423 . S
C97 C98 1.389 . S
C97 C101 1.389 . S
C98 C97 1.389 . S
C98 C99 1.379 . S
C98 H150 0.929 . S
C99 C98 1.379 . S
C99 C100 1.405 . S
C100 C96 1.403 . S
C100 C99 1.405 . S
C100 H151 0.932 . S
C101 C96 1.370 . S
C101 C97 1.389 . S
C101 H152 0.931 . S
Co102 N86 1.869 . S
Co102 N103 1.955 . S
Co102 N104 1.864 . S
Co102 N110 1.958 . S
Co102 N111 1.953 . S
Co102 N112 1.974 . S
N103 Co102 1.955 . S
N103 C121 1.329 . S
N103 C136 1.432 . S
N104 Co102 1.864 . S
N104 C105 1.327 . S
N104 C109 1.342 . S
C105 N104 1.327 . S
C105 C106 1.407 . S
C105 C121 1.481 . S
C106 C105 1.407 . S
C106 C107 1.364 . S
C106 H153 0.930 . S
C107 C106 1.364 . S
C107 C108 1.390 . S
C107 H154 0.931 . S
C108 C107 1.390 . S
C108 C109 1.346 . S
C108 H155 0.930 . S
C109 N104 1.342 . S
C109 C108 1.346 . S
C109 C125 1.516 . S
N110 Co102 1.958 . S
N110 C125 1.324 . S
N110 C127 1.427 . S
N111 C87 1.316 . S
N111 C88 1.436 . S
N111 Co102 1.953 . S
N112 C96 1.423 . S
N112 Co102 1.974 . S
N112 C142 1.309 . S
O113 Cd95 2.352 . S
O113 C133 1.235 . S
O114 Cd94 2.308 1_565 S
O114 C133 1.270 . S
C115 O116 1.270 . S
C115 O117 1.248 . S
O116 Cd94 2.349 1_565 S
O116 C115 1.270 . S
O117 Cd94 2.275 1_565 S
O117 C115 1.248 . S
C118 O119 1.277 . S
C118 O120 1.230 . S
O119 Cd94 2.177 . S
O119 C118 1.277 . S
O120 Cd95 2.250 1_545 S
O120 C118 1.230 . S
C121 N103 1.329 . S
C121 C105 1.481 . S
C121 O122 1.246 . S
O122 C121 1.246 . S
O123 Cd94 2.264 1_565 S
O123 C135 1.258 . S
O124 Cd95 2.308 . S
O124 C135 1.274 . S
C125 C109 1.516 . S
C125 N110 1.324 . S
C125 O126 1.238 . S
O126 C125 1.238 . S
C127 N110 1.427 . S
C127 C128 1.394 . S
C127 C132 1.395 . S
C128 C127 1.394 . S
C128 C129 1.380 . S
C128 H156 0.929 . S
C129 C128 1.380 . S
C129 C130 1.384 . S
C129 C135 1.495 1_545 S
C130 C129 1.384 . S
C130 C131 1.382 . S
C130 H157 0.930 . S
C131 C130 1.382 . S
C131 C132 1.398 . S
C132 C127 1.395 . S
C132 C131 1.398 . S
C132 H158 0.930 . S
C133 O113 1.235 . S
C133 O114 1.270 . S
O134 C87 1.263 . S
O134 Cd94 2.386 . S
C135 O123 1.258 . S
C135 O124 1.274 . S
C135 C129 1.495 1_565 S
C136 N103 1.432 . S
C136 C137 1.381 . S
C136 C141 1.385 . S
C137 C136 1.381 . S
C137 C138 1.371 . S
C137 H159 0.932 . S
C138 C137 1.371 . S
C138 C139 1.400 . S
C139 C138 1.400 . S
C139 C140 1.351 . S
C139 H160 0.930 . S
C140 C139 1.351 . S
C140 C141 1.388 . S
C141 C136 1.385 . S
C141 C140 1.388 . S
C141 H161 0.929 . S
C142 C81 1.504 . S
C142 N112 1.309 . S
C142 O143 1.258 . S
O143 C142 1.258 . S
H144 C82 0.929 . S
H145 C83 0.932 . S
H146 C84 0.931 . S
H147 C89 0.929 . S
H148 C91 0.925 1_565 S
H149 C93 0.931 . S
H150 C98 0.929 . S
H151 C100 0.932 . S
H152 C101 0.931 . S
H153 C106 0.930 . S
H154 C107 0.931 . S
H155 C108 0.930 . S
H156 C128 0.929 . S
H157 C130 0.930 . S
H158 C132 0.930 . S
H159 C137 0.932 . S
H160 C139 0.930 . S
H161 C141 0.929 . S
C162 C163 1.359 . S
C162 N167 1.330 . S
C162 C223 1.504 . S
C163 C162 1.359 . S
C163 C164 1.366 . S
C163 H225 0.929 . S
C164 C163 1.366 . S
C164 C165 1.415 . S
C164 H226 0.932 . S
C165 C164 1.415 . S
C165 C166 1.366 . S
C165 H227 0.931 . S
C166 C165 1.366 . S
C166 N167 1.325 . S
C166 C168 1.516 . S
N167 C162 1.330 . S
N167 C166 1.325 . S
N167 Co183 1.869 . S
C168 C166 1.516 . S
C168 N192 1.316 . S
C168 O215 1.263 . S
C169 C170 1.421 . S
C169 C174 1.360 . S
C169 N192 1.436 . S
C170 C169 1.421 . S
C170 C171 1.379 . S
C170 H228 0.929 . S
C171 C170 1.379 . S
C171 C172 1.417 . S
C172 C171 1.417 . S
C172 C173 1.352 . S
C172 H229 0.910 1_655 S
C173 C172 1.352 . S
C173 C174 1.393 . S
C174 C169 1.360 . S
C174 C173 1.393 . S
C174 H230 0.931 . S
Cd175 O195 2.320 1_655 S
Cd175 O197 2.333 1_655 S
Cd175 O198 2.274 1_655 S
Cd175 O200 2.192 . S
Cd175 O204 2.255 1_655 S
Cd175 O215 2.375 . S
Cd176 O194 2.352 . S
Cd176 O201 2.250 1_455 S
Cd176 O205 2.308 . S
C177 C181 1.403 . S
C177 C182 1.370 . S
C177 N193 1.423 . S
C178 C179 1.389 . S
C178 C182 1.389 . S
C179 C178 1.389 . S
C179 C180 1.379 . S
C179 H231 0.929 . S
C180 C179 1.379 . S
C180 C181 1.405 . S
C181 C177 1.403 . S
C181 C180 1.405 . S
C181 H232 0.932 . S
C182 C177 1.370 . S
C182 C178 1.389 . S
C182 H233 0.931 . S
Co183 N167 1.869 . S
Co183 N184 1.955 . S
Co183 N185 1.864 . S
Co183 N191 1.958 . S
Co183 N192 1.953 . S
Co183 N193 1.974 . S
N184 Co183 1.955 . S
N184 C202 1.329 . S
N184 C217 1.432 . S
N185 Co183 1.864 . S
N185 C186 1.327 . S
N185 C190 1.342 . S
C186 N185 1.327 . S
C186 C187 1.407 . S
C186 C202 1.481 . S
C187 C186 1.407 . S
C187 C188 1.364 . S
C187 H234 0.930 . S
C188 C187 1.364 . S
C188 C189 1.390 . S
C188 H235 0.931 . S
C189 C188 1.390 . S
C189 C190 1.346 . S
C189 H236 0.930 . S
C190 N185 1.342 . S
C190 C189 1.346 . S
C190 C206 1.516 . S
N191 Co183 1.958 . S
N191 C206 1.324 . S
N191 C208 1.427 . S
N192 C168 1.316 . S
N192 C169 1.436 . S
N192 Co183 1.953 . S
N193 C177 1.423 . S
N193 Co183 1.974 . S
N193 C223 1.309 . S
O194 Cd176 2.352 . S
O194 C214 1.235 . S
O195 Cd175 2.320 1_455 S
O195 C214 1.270 . S
C196 O197 1.270 . S
C196 O198 1.248 . S
O197 Cd175 2.333 1_455 S
O197 C196 1.270 . S
O198 Cd175 2.274 1_455 S
O198 C196 1.248 . S
C199 O200 1.277 . S
C199 O201 1.230 . S
O200 Cd175 2.192 . S
O200 C199 1.277 . S
O201 Cd176 2.250 1_655 S
O201 C199 1.230 . S
C202 N184 1.329 . S
C202 C186 1.481 . S
C202 O203 1.246 . S
O203 C202 1.246 . S
O204 Cd175 2.255 1_455 S
O204 C216 1.258 . S
O205 Cd176 2.308 . S
O205 C216 1.274 . S
C206 C190 1.516 . S
C206 N191 1.324 . S
C206 O207 1.238 . S
O207 C206 1.238 . S
C208 N191 1.427 . S
C208 C209 1.394 . S
C208 C213 1.395 . S
C209 C208 1.394 . S
C209 C210 1.380 . S
C209 H237 0.929 . S
C210 C209 1.380 . S
C210 C211 1.384 . S
C210 C216 1.495 1_655 S
C211 C210 1.384 . S
C211 C212 1.382 . S
C211 H238 0.930 . S
C212 C211 1.382 . S
C212 C213 1.398 . S
C213 C208 1.395 . S
C213 C212 1.398 . S
C213 H239 0.930 . S
C214 O194 1.235 . S
C214 O195 1.270 . S
O215 C168 1.263 . S
O215 Cd175 2.375 . S
C216 O204 1.258 . S
C216 O205 1.274 . S
C216 C210 1.495 1_455 S
C217 N184 1.432 . S
C217 C218 1.381 . S
C217 C222 1.385 . S
C218 C217 1.381 . S
C218 C219 1.371 . S
C218 H240 0.932 . S
C219 C218 1.371 . S
C219 C220 1.400 . S
C220 C219 1.400 . S
C220 C221 1.351 . S
C220 H241 0.930 . S
C221 C220 1.351 . S
C221 C222 1.388 . S
C222 C217 1.385 . S
C222 C221 1.388 . S
C222 H242 0.929 . S
C223 C162 1.504 . S
C223 N193 1.309 . S
C223 O224 1.258 . S
O224 C223 1.258 . S
H225 C163 0.929 . S
H226 C164 0.932 . S
H227 C165 0.931 . S
H228 C170 0.929 . S
H229 C172 0.910 1_455 S
H230 C174 0.931 . S
H231 C179 0.929 . S
H232 C181 0.932 . S
H233 C182 0.931 . S
H234 C187 0.930 . S
H235 C188 0.931 . S
H236 C189 0.930 . S
H237 C209 0.929 . S
H238 C211 0.930 . S
H239 C213 0.930 . S
H240 C218 0.932 . S
H241 C220 0.930 . S
H242 C222 0.929 . S
C243 C244 1.359 . S
C243 N248 1.330 . S
C243 C304 1.504 . S
C244 C243 1.359 . S
C244 C245 1.366 . S
C244 H306 0.929 . S
C245 C244 1.366 . S
C245 C246 1.415 . S
C245 H307 0.932 . S
C246 C245 1.415 . S
C246 C247 1.366 . S
C246 H308 0.931 . S
C247 C246 1.366 . S
C247 N248 1.325 . S
C247 C249 1.516 . S
N248 C243 1.330 . S
N248 C247 1.325 . S
N248 Co264 1.869 . S
C249 C247 1.516 . S
C249 N273 1.316 . S
C249 O296 1.263 . S
C250 C251 1.421 . S
C250 C255 1.360 . S
C250 N273 1.436 . S
C251 C250 1.421 . S
C251 C252 1.379 . S
C251 H309 0.929 . S
C252 C251 1.379 . S
C252 C253 1.417 . S
C253 C252 1.417 . S
C253 C254 1.352 . S
C253 H310 0.929 . S
C254 C253 1.352 . S
C254 C255 1.393 . S
C255 C250 1.360 . S
C255 C254 1.393 . S
C255 H311 0.931 . S
Cd256 O276 2.329 . S
Cd256 O278 2.350 . S
Cd256 O279 2.277 . S
Cd256 O281 2.173 . S
Cd256 O285 2.263 . S
Cd256 O296 2.366 . S
Cd257 O275 2.352 . S
Cd257 O282 2.250 . S
Cd257 O286 2.308 . S
C258 C262 1.403 . S
C258 C263 1.370 . S
C258 N274 1.423 . S
C259 C260 1.389 . S
C259 C263 1.389 . S
C260 C259 1.389 . S
C260 C261 1.379 . S
C260 H312 0.929 . S
C261 C260 1.379 . S
C261 C262 1.405 . S
C262 C258 1.403 . S
C262 C261 1.405 . S
C262 H313 0.932 . S
C263 C258 1.370 . S
C263 C259 1.389 . S
C263 H314 0.931 . S
Co264 N248 1.869 . S
Co264 N265 1.955 . S
Co264 N266 1.864 . S
Co264 N272 1.958 . S
Co264 N273 1.953 . S
Co264 N274 1.974 . S
N265 Co264 1.955 . S
N265 C283 1.329 . S
N265 C298 1.432 . S
N266 Co264 1.864 . S
N266 C267 1.327 . S
N266 C271 1.342 . S
C267 N266 1.327 . S
C267 C268 1.407 . S
C267 C283 1.481 . S
C268 C267 1.407 . S
C268 C269 1.364 . S
C268 H315 0.930 . S
C269 C268 1.364 . S
C269 C270 1.390 . S
C269 H316 0.931 . S
C270 C269 1.390 . S
C270 C271 1.346 . S
C270 H317 0.930 . S
C271 N266 1.342 . S
C271 C270 1.346 . S
C271 C287 1.516 . S
N272 Co264 1.958 . S
N272 C287 1.324 . S
N272 C289 1.427 . S
N273 C249 1.316 . S
N273 C250 1.436 . S
N273 Co264 1.953 . S
N274 C258 1.423 . S
N274 Co264 1.974 . S
N274 C304 1.309 . S
O275 Cd257 2.352 . S
O275 C295 1.235 . S
O276 Cd256 2.329 . S
O276 C295 1.270 . S
C277 O278 1.270 . S
C277 O279 1.248 . S
O278 Cd256 2.350 . S
O278 C277 1.270 . S
O279 Cd256 2.277 . S
O279 C277 1.248 . S
C280 O281 1.277 . S
C280 O282 1.230 . S
O281 Cd256 2.173 . S
O281 C280 1.277 . S
O282 Cd257 2.250 . S
O282 C280 1.230 . S
C283 N265 1.329 . S
C283 C267 1.481 . S
C283 O284 1.246 . S
O284 C283 1.246 . S
O285 Cd256 2.263 . S
O285 C297 1.258 . S
O286 Cd257 2.308 . S
O286 C297 1.274 . S
C287 C271 1.516 . S
C287 N272 1.324 . S
C287 O288 1.238 . S
O288 C287 1.238 . S
C289 N272 1.427 . S
C289 C290 1.394 . S
C289 C294 1.395 . S
C290 C289 1.394 . S
C290 C291 1.380 . S
C290 H318 0.929 . S
C291 C290 1.380 . S
C291 C292 1.384 . S
C291 C297 1.495 . S
C292 C291 1.384 . S
C292 C293 1.382 . S
C292 H319 0.930 . S
C293 C292 1.382 . S
C293 C294 1.398 . S
C294 C289 1.395 . S
C294 C293 1.398 . S
C294 H320 0.930 . S
C295 O275 1.235 . S
C295 O276 1.270 . S
O296 C249 1.263 . S
O296 Cd256 2.366 . S
C297 O285 1.258 . S
C297 O286 1.274 . S
C297 C291 1.495 . S
C298 N265 1.432 . S
C298 C299 1.381 . S
C298 C303 1.385 . S
C299 C298 1.381 . S
C299 C300 1.371 . S
C299 H321 0.932 . S
C300 C299 1.371 . S
C300 C301 1.400 . S
C301 C300 1.400 . S
C301 C302 1.351 . S
C301 H322 0.930 . S
C302 C301 1.351 . S
C302 C303 1.388 . S
C303 C298 1.385 . S
C303 C302 1.388 . S
C303 H323 0.929 . S
C304 C243 1.504 . S
C304 N274 1.309 . S
C304 O305 1.258 . S
O305 C304 1.258 . S
H306 C244 0.929 . S
H307 C245 0.932 . S
H308 C246 0.931 . S
H309 C251 0.929 . S
H310 C253 0.929 . S
H311 C255 0.931 . S
H312 C260 0.929 . S
H313 C262 0.932 . S
H314 C263 0.931 . S
H315 C268 0.930 . S
H316 C269 0.931 . S
H317 C270 0.930 . S
H318 C290 0.929 . S
H319 C292 0.930 . S
H320 C294 0.930 . S
H321 C299 0.932 . S
H322 C301 0.930 . S
H323 C303 0.929 . S
C324 C325 1.359 . S
C324 N329 1.330 . S
C324 C385 1.504 . S
C325 C324 1.359 . S
C325 C326 1.366 . S
C325 H387 0.929 . S
C326 C325 1.366 . S
C326 C327 1.415 . S
C326 H388 0.932 . S
C327 C326 1.415 . S
C327 C328 1.366 . S
C327 H389 0.931 . S
C328 C327 1.366 . S
C328 N329 1.325 . S
C328 C330 1.516 . S
N329 C324 1.330 . S
N329 C328 1.325 . S
N329 Co345 1.869 . S
C330 C328 1.516 . S
C330 N354 1.316 . S
C330 O377 1.263 . S
C331 C332 1.421 . S
C331 C336 1.360 . S
C331 N354 1.436 . S
C332 C331 1.421 . S
C332 C333 1.379 . S
C332 H390 0.929 . S
C333 C332 1.379 . S
C333 C334 1.417 . S
C334 C333 1.417 . S
C334 C335 1.352 . S
C334 H391 0.910 1_565 S
C335 C334 1.352 . S
C335 C336 1.393 . S
C336 C331 1.360 . S
C336 C335 1.393 . S
C336 H392 0.931 . S
Cd337 O357 2.320 1_565 S
Cd337 O359 2.333 1_565 S
Cd337 O360 2.274 1_565 S
Cd337 O362 2.192 . S
Cd337 O366 2.255 1_565 S
Cd337 O377 2.375 . S
Cd338 O356 2.352 . S
Cd338 O363 2.250 1_545 S
Cd338 O367 2.308 . S
C339 C343 1.403 . S
C339 C344 1.370 . S
C339 N355 1.423 . S
C340 C341 1.389 . S
C340 C344 1.389 . S
C341 C340 1.389 . S
C341 C342 1.379 . S
C341 H393 0.929 . S
C342 C341 1.379 . S
C342 C343 1.405 . S
C343 C339 1.403 . S
C343 C342 1.405 . S
C343 H394 0.932 . S
C344 C339 1.370 . S
C344 C340 1.389 . S
C344 H395 0.931 . S
Co345 N329 1.869 . S
Co345 N346 1.955 . S
Co345 N347 1.864 . S
Co345 N353 1.958 . S
Co345 N354 1.953 . S
Co345 N355 1.974 . S
N346 Co345 1.955 . S
N346 C364 1.329 . S
N346 C379 1.432 . S
N347 Co345 1.864 . S
N347 C348 1.327 . S
N347 C352 1.342 . S
C348 N347 1.327 . S
C348 C349 1.407 . S
C348 C364 1.481 . S
C349 C348 1.407 . S
C349 C350 1.364 . S
C349 H396 0.930 . S
C350 C349 1.364 . S
C350 C351 1.390 . S
C350 H397 0.931 . S
C351 C350 1.390 . S
C351 C352 1.346 . S
C351 H398 0.930 . S
C352 N347 1.342 . S
C352 C351 1.346 . S
C352 C368 1.516 . S
N353 Co345 1.958 . S
N353 C368 1.324 . S
N353 C370 1.427 . S
N354 C330 1.316 . S
N354 C331 1.436 . S
N354 Co345 1.953 . S
N355 C339 1.423 . S
N355 Co345 1.974 . S
N355 C385 1.309 . S
O356 Cd338 2.352 . S
O356 C376 1.235 . S
O357 Cd337 2.320 1_545 S
O357 C376 1.270 . S
C358 O359 1.270 . S
C358 O360 1.248 . S
O359 Cd337 2.333 1_545 S
O359 C358 1.270 . S
O360 Cd337 2.274 1_545 S
O360 C358 1.248 . S
C361 O362 1.277 . S
C361 O363 1.230 . S
O362 Cd337 2.192 . S
O362 C361 1.277 . S
O363 Cd338 2.250 1_565 S
O363 C361 1.230 . S
C364 N346 1.329 . S
C364 C348 1.481 . S
C364 O365 1.246 . S
O365 C364 1.246 . S
O366 Cd337 2.255 1_545 S
O366 C378 1.258 . S
O367 Cd338 2.308 . S
O367 C378 1.274 . S
C368 C352 1.516 . S
C368 N353 1.324 . S
C368 O369 1.238 . S
O369 C368 1.238 . S
C370 N353 1.427 . S
C370 C371 1.394 . S
C370 C375 1.395 . S
C371 C370 1.394 . S
C371 C372 1.380 . S
C371 H399 0.929 . S
C372 C371 1.380 . S
C372 C373 1.384 . S
C372 C378 1.495 1_565 S
C373 C372 1.384 . S
C373 C374 1.382 . S
C373 H400 0.930 . S
C374 C373 1.382 . S
C374 C375 1.398 . S
C375 C370 1.395 . S
C375 C374 1.398 . S
C375 H401 0.930 . S
C376 O356 1.235 . S
C376 O357 1.270 . S
O377 C330 1.263 . S
O377 Cd337 2.375 . S
C378 O366 1.258 . S
C378 O367 1.274 . S
C378 C372 1.495 1_545 S
C379 N346 1.432 . S
C379 C380 1.381 . S
C379 C384 1.385 . S
C380 C379 1.381 . S
C380 C381 1.371 . S
C380 H402 0.932 . S
C381 C380 1.371 . S
C381 C382 1.400 . S
C382 C381 1.400 . S
C382 C383 1.351 . S
C382 H403 0.930 . S
C383 C382 1.351 . S
C383 C384 1.388 . S
C384 C379 1.385 . S
C384 C383 1.388 . S
C384 H404 0.929 . S
C385 C324 1.504 . S
C385 N355 1.309 . S
C385 O386 1.258 . S
O386 C385 1.258 . S
H387 C325 0.929 . S
H388 C326 0.932 . S
H389 C327 0.931 . S
H390 C332 0.929 . S
H391 C334 0.910 1_545 S
H392 C336 0.931 . S
H393 C341 0.929 . S
H394 C343 0.932 . S
H395 C344 0.931 . S
H396 C349 0.930 . S
H397 C350 0.931 . S
H398 C351 0.930 . S
H399 C371 0.929 . S
H400 C373 0.930 . S
H401 C375 0.930 . S
H402 C380 0.932 . S
H403 C382 0.930 . S
H404 C384 0.929 . S
C405 C406 1.359 . S
C405 N410 1.330 . S
C405 C466 1.504 . S
C406 C405 1.359 . S
C406 C407 1.366 . S
C406 H468 0.929 . S
C407 C406 1.366 . S
C407 C408 1.415 . S
C407 H469 0.932 . S
C408 C407 1.415 . S
C408 C409 1.366 . S
C408 H470 0.931 . S
C409 C408 1.366 . S
C409 N410 1.325 . S
C409 C411 1.516 . S
N410 C405 1.330 . S
N410 C409 1.325 . S
N410 Co426 1.869 . S
C411 C409 1.516 . S
C411 N435 1.316 . S
C411 O458 1.263 . S
C412 C413 1.421 . S
C412 C417 1.360 . S
C412 N435 1.436 . S
C413 C412 1.421 . S
C413 C414 1.379 . S
C413 H471 0.929 . S
C414 C413 1.379 . S
C414 C415 1.417 . S
C415 C414 1.417 . S
C415 C416 1.352 . S
C415 H472 0.925 1_455 S
C416 C415 1.352 . S
C416 C417 1.393 . S
C417 C412 1.360 . S
C417 C416 1.393 . S
C417 H473 0.931 . S
Cd418 O438 2.308 1_455 S
Cd418 O440 2.349 1_455 S
Cd418 O441 2.275 1_455 S
Cd418 O443 2.177 . S
Cd418 O447 2.264 1_455 S
Cd418 O458 2.386 . S
Cd419 O437 2.352 . S
Cd419 O444 2.250 1_655 S
Cd419 O448 2.308 . S
C420 C424 1.403 . S
C420 C425 1.370 . S
C420 N436 1.423 . S
C421 C422 1.389 . S
C421 C425 1.389 . S
C422 C421 1.389 . S
C422 C423 1.379 . S
C422 H474 0.929 . S
C423 C422 1.379 . S
C423 C424 1.405 . S
C424 C420 1.403 . S
C424 C423 1.405 . S
C424 H475 0.932 . S
C425 C420 1.370 . S
C425 C421 1.389 . S
C425 H476 0.931 . S
Co426 N410 1.869 . S
Co426 N427 1.955 . S
Co426 N428 1.864 . S
Co426 N434 1.958 . S
Co426 N435 1.953 . S
Co426 N436 1.974 . S
N427 Co426 1.955 . S
N427 C445 1.329 . S
N427 C460 1.432 . S
N428 Co426 1.864 . S
N428 C429 1.327 . S
N428 C433 1.342 . S
C429 N428 1.327 . S
C429 C430 1.407 . S
C429 C445 1.481 . S
C430 C429 1.407 . S
C430 C431 1.364 . S
C430 H477 0.930 . S
C431 C430 1.364 . S
C431 C432 1.390 . S
C431 H478 0.931 . S
C432 C431 1.390 . S
C432 C433 1.346 . S
C432 H479 0.930 . S
C433 N428 1.342 . S
C433 C432 1.346 . S
C433 C449 1.516 . S
N434 Co426 1.958 . S
N434 C449 1.324 . S
N434 C451 1.427 . S
N435 C411 1.316 . S
N435 C412 1.436 . S
N435 Co426 1.953 . S
N436 C420 1.423 . S
N436 Co426 1.974 . S
N436 C466 1.309 . S
O437 Cd419 2.352 . S
O437 C457 1.235 . S
O438 Cd418 2.308 1_655 S
O438 C457 1.270 . S
C439 O440 1.270 . S
C439 O441 1.248 . S
O440 Cd418 2.349 1_655 S
O440 C439 1.270 . S
O441 Cd418 2.275 1_655 S
O441 C439 1.248 . S
C442 O443 1.277 . S
C442 O444 1.230 . S
O443 Cd418 2.177 . S
O443 C442 1.277 . S
O444 Cd419 2.250 1_455 S
O444 C442 1.230 . S
C445 N427 1.329 . S
C445 C429 1.481 . S
C445 O446 1.246 . S
O446 C445 1.246 . S
O447 Cd418 2.264 1_655 S
O447 C459 1.258 . S
O448 Cd419 2.308 . S
O448 C459 1.274 . S
C449 C433 1.516 . S
C449 N434 1.324 . S
C449 O450 1.238 . S
O450 C449 1.238 . S
C451 N434 1.427 . S
C451 C452 1.394 . S
C451 C456 1.395 . S
C452 C451 1.394 . S
C452 C453 1.380 . S
C452 H480 0.929 . S
C453 C452 1.380 . S
C453 C454 1.384 . S
C453 C459 1.495 1_455 S
C454 C453 1.384 . S
C454 C455 1.382 . S
C454 H481 0.930 . S
C455 C454 1.382 . S
C455 C456 1.398 . S
C456 C451 1.395 . S
C456 C455 1.398 . S
C456 H482 0.930 . S
C457 O437 1.235 . S
C457 O438 1.270 . S
O458 C411 1.263 . S
O458 Cd418 2.386 . S
C459 O447 1.258 . S
C459 O448 1.274 . S
C459 C453 1.495 1_655 S
C460 N427 1.432 . S
C460 C461 1.381 . S
C460 C465 1.385 . S
C461 C460 1.381 . S
C461 C462 1.371 . S
C461 H483 0.932 . S
C462 C461 1.371 . S
C462 C463 1.400 . S
C463 C462 1.400 . S
C463 C464 1.351 . S
C463 H484 0.930 . S
C464 C463 1.351 . S
C464 C465 1.388 . S
C465 C460 1.385 . S
C465 C464 1.388 . S
C465 H485 0.929 . S
C466 C405 1.504 . S
C466 N436 1.309 . S
C466 O467 1.258 . S
O467 C466 1.258 . S
H468 C406 0.929 . S
H469 C407 0.932 . S
H470 C408 0.931 . S
H471 C413 0.929 . S
H472 C415 0.925 1_655 S
H473 C417 0.931 . S
H474 C422 0.929 . S
H475 C424 0.932 . S
H476 C425 0.931 . S
H477 C430 0.930 . S
H478 C431 0.931 . S
H479 C432 0.930 . S
H480 C452 0.929 . S
H481 C454 0.930 . S
H482 C456 0.930 . S
H483 C461 0.932 . S
H484 C463 0.930 . S
H485 C465 0.929 . S
C486 C487 1.359 . S
C486 N491 1.330 . S
C486 C547 1.504 . S
C487 C486 1.359 . S
C487 C488 1.366 . S
C487 H549 0.929 . S
C488 C487 1.366 . S
C488 C489 1.415 . S
C488 H550 0.932 . S
C489 C488 1.415 . S
C489 C490 1.366 . S
C489 H551 0.931 . S
C490 C489 1.366 . S
C490 N491 1.325 . S
C490 C492 1.516 . S
N491 C486 1.330 . S
N491 C490 1.325 . S
N491 Co507 1.869 . S
C492 C490 1.516 . S
C492 N516 1.316 . S
C492 O539 1.263 . S
C493 C494 1.421 . S
C493 C498 1.360 . S
C493 N516 1.436 . S
C494 C493 1.421 . S
C494 C495 1.379 . S
C494 H552 0.929 . S
C495 C494 1.379 . S
C495 C496 1.417 . S
C496 C495 1.417 . S
C496 C497 1.352 . S
C496 H553 0.929 . S
C497 C496 1.352 . S
C497 C498 1.393 . S
C498 C493 1.360 . S
C498 C497 1.393 . S
C498 H554 0.931 . S
Cd499 O519 2.329 . S
Cd499 O521 2.350 . S
Cd499 O522 2.277 . S
Cd499 O524 2.173 . S
Cd499 O528 2.263 . S
Cd499 O539 2.366 . S
Cd500 O518 2.352 . S
Cd500 O525 2.250 . S
Cd500 O529 2.308 . S
C501 C505 1.403 . S
C501 C506 1.370 . S
C501 N517 1.423 . S
C502 C503 1.389 . S
C502 C506 1.389 . S
C503 C502 1.389 . S
C503 C504 1.379 . S
C503 H555 0.929 . S
C504 C503 1.379 . S
C504 C505 1.405 . S
C505 C501 1.403 . S
C505 C504 1.405 . S
C505 H556 0.932 . S
C506 C501 1.370 . S
C506 C502 1.389 . S
C506 H557 0.931 . S
Co507 N491 1.869 . S
Co507 N508 1.955 . S
Co507 N509 1.864 . S
Co507 N515 1.958 . S
Co507 N516 1.953 . S
Co507 N517 1.974 . S
N508 Co507 1.955 . S
N508 C526 1.329 . S
N508 C541 1.432 . S
N509 Co507 1.864 . S
N509 C510 1.327 . S
N509 C514 1.342 . S
C510 N509 1.327 . S
C510 C511 1.407 . S
C510 C526 1.481 . S
C511 C510 1.407 . S
C511 C512 1.364 . S
C511 H558 0.930 . S
C512 C511 1.364 . S
C512 C513 1.390 . S
C512 H559 0.931 . S
C513 C512 1.390 . S
C513 C514 1.346 . S
C513 H560 0.930 . S
C514 N509 1.342 . S
C514 C513 1.346 . S
C514 C530 1.516 . S
N515 Co507 1.958 . S
N515 C530 1.324 . S
N515 C532 1.427 . S
N516 C492 1.316 . S
N516 C493 1.436 . S
N516 Co507 1.953 . S
N517 C501 1.423 . S
N517 Co507 1.974 . S
N517 C547 1.309 . S
O518 Cd500 2.352 . S
O518 C538 1.235 . S
O519 Cd499 2.329 . S
O519 C538 1.270 . S
C520 O521 1.270 . S
C520 O522 1.248 . S
O521 Cd499 2.350 . S
O521 C520 1.270 . S
O522 Cd499 2.277 . S
O522 C520 1.248 . S
C523 O524 1.277 . S
C523 O525 1.230 . S
O524 Cd499 2.173 . S
O524 C523 1.277 . S
O525 Cd500 2.250 . S
O525 C523 1.230 . S
C526 N508 1.329 . S
C526 C510 1.481 . S
C526 O527 1.246 . S
O527 C526 1.246 . S
O528 Cd499 2.263 . S
O528 C540 1.258 . S
O529 Cd500 2.308 . S
O529 C540 1.274 . S
C530 C514 1.516 . S
C530 N515 1.324 . S
C530 O531 1.238 . S
O531 C530 1.238 . S
C532 N515 1.427 . S
C532 C533 1.394 . S
C532 C537 1.395 . S
C533 C532 1.394 . S
C533 C534 1.380 . S
C533 H561 0.929 . S
C534 C533 1.380 . S
C534 C535 1.384 . S
C534 C540 1.495 . S
C535 C534 1.384 . S
C535 C536 1.382 . S
C535 H562 0.930 . S
C536 C535 1.382 . S
C536 C537 1.398 . S
C537 C532 1.395 . S
C537 C536 1.398 . S
C537 H563 0.930 . S
C538 O518 1.235 . S
C538 O519 1.270 . S
O539 C492 1.263 . S
O539 Cd499 2.366 . S
C540 O528 1.258 . S
C540 O529 1.274 . S
C540 C534 1.495 . S
C541 N508 1.432 . S
C541 C542 1.381 . S
C541 C546 1.385 . S
C542 C541 1.381 . S
C542 C543 1.371 . S
C542 H564 0.932 . S
C543 C542 1.371 . S
C543 C544 1.400 . S
C544 C543 1.400 . S
C544 C545 1.351 . S
C544 H565 0.930 . S
C545 C544 1.351 . S
C545 C546 1.388 . S
C546 C541 1.385 . S
C546 C545 1.388 . S
C546 H566 0.929 . S
C547 C486 1.504 . S
C547 N517 1.309 . S
C547 O548 1.258 . S
O548 C547 1.258 . S
H549 C487 0.929 . S
H550 C488 0.932 . S
H551 C489 0.931 . S
H552 C494 0.929 . S
H553 C496 0.929 . S
H554 C498 0.931 . S
H555 C503 0.929 . S
H556 C505 0.932 . S
H557 C506 0.931 . S
H558 C511 0.930 . S
H559 C512 0.931 . S
H560 C513 0.930 . S
H561 C533 0.929 . S
H562 C535 0.930 . S
H563 C537 0.930 . S
H564 C542 0.932 . S
H565 C544 0.930 . S
H566 C546 0.929 . S
C567 C568 1.359 . S
C567 N572 1.330 . S
C567 C628 1.504 . S
C568 C567 1.359 . S
C568 C569 1.366 . S
C568 H630 0.929 . S
C569 C568 1.366 . S
C569 C570 1.415 . S
C569 H631 0.932 . S
C570 C569 1.415 . S
C570 C571 1.366 . S
C570 H632 0.931 . S
C571 C570 1.366 . S
C571 N572 1.325 . S
C571 C573 1.516 . S
N572 C567 1.330 . S
N572 C571 1.325 . S
N572 Co588 1.869 . S
C573 C571 1.516 . S
C573 N597 1.316 . S
C573 O620 1.263 . S
C574 C575 1.421 . S
C574 C579 1.360 . S
C574 N597 1.436 . S
C575 C574 1.421 . S
C575 C576 1.379 . S
C575 H633 0.929 . S
C576 C575 1.379 . S
C576 C577 1.417 . S
C577 C576 1.417 . S
C577 C578 1.352 . S
C577 H634 0.925 1_565 S
C578 C577 1.352 . S
C578 C579 1.393 . S
C579 C574 1.360 . S
C579 C578 1.393 . S
C579 H635 0.931 . S
Cd580 O600 2.308 1_565 S
Cd580 O602 2.349 1_565 S
Cd580 O603 2.275 1_565 S
Cd580 O605 2.177 . S
Cd580 O609 2.264 1_565 S
Cd580 O620 2.386 . S
Cd581 O599 2.352 . S
Cd581 O606 2.250 1_545 S
Cd581 O610 2.308 . S
C582 C586 1.403 . S
C582 C587 1.370 . S
C582 N598 1.423 . S
C583 C584 1.389 . S
C583 C587 1.389 . S
C584 C583 1.389 . S
C584 C585 1.379 . S
C584 H636 0.929 . S
C585 C584 1.379 . S
C585 C586 1.405 . S
C586 C582 1.403 . S
C586 C585 1.405 . S
C586 H637 0.932 . S
C587 C582 1.370 . S
C587 C583 1.389 . S
C587 H638 0.931 . S
Co588 N572 1.869 . S
Co588 N589 1.955 . S
Co588 N590 1.864 . S
Co588 N596 1.958 . S
Co588 N597 1.953 . S
Co588 N598 1.974 . S
N589 Co588 1.955 . S
N589 C607 1.329 . S
N589 C622 1.432 . S
N590 Co588 1.864 . S
N590 C591 1.327 . S
N590 C595 1.342 . S
C591 N590 1.327 . S
C591 C592 1.407 . S
C591 C607 1.481 . S
C592 C591 1.407 . S
C592 C593 1.364 . S
C592 H639 0.930 . S
C593 C592 1.364 . S
C593 C594 1.390 . S
C593 H640 0.931 . S
C594 C593 1.390 . S
C594 C595 1.346 . S
C594 H641 0.930 . S
C595 N590 1.342 . S
C595 C594 1.346 . S
C595 C611 1.516 . S
N596 Co588 1.958 . S
N596 C611 1.324 . S
N596 C613 1.427 . S
N597 C573 1.316 . S
N597 C574 1.436 . S
N597 Co588 1.953 . S
N598 C582 1.423 . S
N598 Co588 1.974 . S
N598 C628 1.309 . S
O599 Cd581 2.352 . S
O599 C619 1.235 . S
O600 Cd580 2.308 1_545 S
O600 C619 1.270 . S
C601 O602 1.270 . S
C601 O603 1.248 . S
O602 Cd580 2.349 1_545 S
O602 C601 1.270 . S
O603 Cd580 2.275 1_545 S
O603 C601 1.248 . S
C604 O605 1.277 . S
C604 O606 1.230 . S
O605 Cd580 2.177 . S
O605 C604 1.277 . S
O606 Cd581 2.250 1_565 S
O606 C604 1.230 . S
C607 N589 1.329 . S
C607 C591 1.481 . S
C607 O608 1.246 . S
O608 C607 1.246 . S
O609 Cd580 2.264 1_545 S
O609 C621 1.258 . S
O610 Cd581 2.308 . S
O610 C621 1.274 . S
C611 C595 1.516 . S
C611 N596 1.324 . S
C611 O612 1.238 . S
O612 C611 1.238 . S
C613 N596 1.427 . S
C613 C614 1.394 . S
C613 C618 1.395 . S
C614 C613 1.394 . S
C614 C615 1.380 . S
C614 H642 0.929 . S
C615 C614 1.380 . S
C615 C616 1.384 . S
C615 C621 1.495 1_565 S
C616 C615 1.384 . S
C616 C617 1.382 . S
C616 H643 0.930 . S
C617 C616 1.382 . S
C617 C618 1.398 . S
C618 C613 1.395 . S
C618 C617 1.398 . S
C618 H644 0.930 . S
C619 O599 1.235 . S
C619 O600 1.270 . S
O620 C573 1.263 . S
O620 Cd580 2.386 . S
C621 O609 1.258 . S
C621 O610 1.274 . S
C621 C615 1.495 1_545 S
C622 N589 1.432 . S
C622 C623 1.381 . S
C622 C627 1.385 . S
C623 C622 1.381 . S
C623 C624 1.371 . S
C623 H645 0.932 . S
C624 C623 1.371 . S
C624 C625 1.400 . S
C625 C624 1.400 . S
C625 C626 1.351 . S
C625 H646 0.930 . S
C626 C625 1.351 . S
C626 C627 1.388 . S
C627 C622 1.385 . S
C627 C626 1.388 . S
C627 H647 0.929 . S
C628 C567 1.504 . S
C628 N598 1.309 . S
C628 O629 1.258 . S
O629 C628 1.258 . S
H630 C568 0.929 . S
H631 C569 0.932 . S
H632 C570 0.931 . S
H633 C575 0.929 . S
H634 C577 0.925 1_545 S
H635 C579 0.931 . S
H636 C584 0.929 . S
H637 C586 0.932 . S
H638 C587 0.931 . S
H639 C592 0.930 . S
H640 C593 0.931 . S
H641 C594 0.930 . S
H642 C614 0.929 . S
H643 C616 0.930 . S
H644 C618 0.930 . S
H645 C623 0.932 . S
H646 C625 0.930 . S
H647 C627 0.929 . S
C648 C649 1.359 . S
C648 N653 1.330 . S
C648 C709 1.504 . S
C649 C648 1.359 . S
C649 C650 1.366 . S
C649 H711 0.929 . S
C650 C649 1.366 . S
C650 C651 1.415 . S
C650 H712 0.932 . S
C651 C650 1.415 . S
C651 C652 1.366 . S
C651 H713 0.931 . S
C652 C651 1.366 . S
C652 N653 1.325 . S
C652 C654 1.516 . S
N653 C648 1.330 . S
N653 C652 1.325 . S
N653 Co669 1.869 . S
C654 C652 1.516 . S
C654 N678 1.316 . S
C654 O701 1.263 . S
C655 C656 1.421 . S
C655 C660 1.360 . S
C655 N678 1.436 . S
C656 C655 1.421 . S
C656 C657 1.379 . S
C656 H714 0.929 . S
C657 C656 1.379 . S
C657 C658 1.417 . S
C658 C657 1.417 . S
C658 C659 1.352 . S
C658 H715 0.910 1_455 S
C659 C658 1.352 . S
C659 C660 1.393 . S
C660 C655 1.360 . S
C660 C659 1.393 . S
C660 H716 0.931 . S
Cd661 O681 2.320 1_455 S
Cd661 O683 2.333 1_455 S
Cd661 O684 2.274 1_455 S
Cd661 O686 2.192 . S
Cd661 O690 2.255 1_455 S
Cd661 O701 2.375 . S
Cd662 O680 2.352 . S
Cd662 O687 2.250 1_655 S
Cd662 O691 2.308 . S
C663 C667 1.403 . S
C663 C668 1.370 . S
C663 N679 1.423 . S
C664 C665 1.389 . S
C664 C668 1.389 . S
C665 C664 1.389 . S
C665 C666 1.379 . S
C665 H717 0.929 . S
C666 C665 1.379 . S
C666 C667 1.405 . S
C667 C663 1.403 . S
C667 C666 1.405 . S
C667 H718 0.932 . S
C668 C663 1.370 . S
C668 C664 1.389 . S
C668 H719 0.931 . S
Co669 N653 1.869 . S
Co669 N670 1.955 . S
Co669 N671 1.864 . S
Co669 N677 1.958 . S
Co669 N678 1.953 . S
Co669 N679 1.974 . S
N670 Co669 1.955 . S
N670 C688 1.329 . S
N670 C703 1.432 . S
N671 Co669 1.864 . S
N671 C672 1.327 . S
N671 C676 1.342 . S
C672 N671 1.327 . S
C672 C673 1.407 . S
C672 C688 1.481 . S
C673 C672 1.407 . S
C673 C674 1.364 . S
C673 H720 0.930 . S
C674 C673 1.364 . S
C674 C675 1.390 . S
C674 H721 0.931 . S
C675 C674 1.390 . S
C675 C676 1.346 . S
C675 H722 0.930 . S
C676 N671 1.342 . S
C676 C675 1.346 . S
C676 C692 1.516 . S
N677 Co669 1.958 . S
N677 C692 1.324 . S
N677 C694 1.427 . S
N678 C654 1.316 . S
N678 C655 1.436 . S
N678 Co669 1.953 . S
N679 C663 1.423 . S
N679 Co669 1.974 . S
N679 C709 1.309 . S
O680 Cd662 2.352 . S
O680 C700 1.235 . S
O681 Cd661 2.320 1_655 S
O681 C700 1.270 . S
C682 O683 1.270 . S
C682 O684 1.248 . S
O683 Cd661 2.333 1_655 S
O683 C682 1.270 . S
O684 Cd661 2.274 1_655 S
O684 C682 1.248 . S
C685 O686 1.277 . S
C685 O687 1.230 . S
O686 Cd661 2.192 . S
O686 C685 1.277 . S
O687 Cd662 2.250 1_455 S
O687 C685 1.230 . S
C688 N670 1.329 . S
C688 C672 1.481 . S
C688 O689 1.246 . S
O689 C688 1.246 . S
O690 Cd661 2.255 1_655 S
O690 C702 1.258 . S
O691 Cd662 2.308 . S
O691 C702 1.274 . S
C692 C676 1.516 . S
C692 N677 1.324 . S
C692 O693 1.238 . S
O693 C692 1.238 . S
C694 N677 1.427 . S
C694 C695 1.394 . S
C694 C699 1.395 . S
C695 C694 1.394 . S
C695 C696 1.380 . S
C695 H723 0.929 . S
C696 C695 1.380 . S
C696 C697 1.384 . S
C696 C702 1.495 1_455 S
C697 C696 1.384 . S
C697 C698 1.382 . S
C697 H724 0.930 . S
C698 C697 1.382 . S
C698 C699 1.398 . S
C699 C694 1.395 . S
C699 C698 1.398 . S
C699 H725 0.930 . S
C700 O680 1.235 . S
C700 O681 1.270 . S
O701 C654 1.263 . S
O701 Cd661 2.375 . S
C702 O690 1.258 . S
C702 O691 1.274 . S
C702 C696 1.495 1_655 S
C703 N670 1.432 . S
C703 C704 1.381 . S
C703 C708 1.385 . S
C704 C703 1.381 . S
C704 C705 1.371 . S
C704 H726 0.932 . S
C705 C704 1.371 . S
C705 C706 1.400 . S
C706 C705 1.400 . S
C706 C707 1.351 . S
C706 H727 0.930 . S
C707 C706 1.351 . S
C707 C708 1.388 . S
C708 C703 1.385 . S
C708 C707 1.388 . S
C708 H728 0.929 . S
C709 C648 1.504 . S
C709 N679 1.309 . S
C709 O710 1.258 . S
O710 C709 1.258 . S
H711 C649 0.929 . S
H712 C650 0.932 . S
H713 C651 0.931 . S
H714 C656 0.929 . S
H715 C658 0.910 1_655 S
H716 C660 0.931 . S
H717 C665 0.929 . S
H718 C667 0.932 . S
H719 C668 0.931 . S
H720 C673 0.930 . S
H721 C674 0.931 . S
H722 C675 0.930 . S
H723 C695 0.929 . S
H724 C697 0.930 . S
H725 C699 0.930 . S
H726 C704 0.932 . S
H727 C706 0.930 . S
H728 C708 0.929 . S
C729 C730 1.359 . S
C729 N734 1.330 . S
C729 C790 1.504 . S
C730 C729 1.359 . S
C730 C731 1.366 . S
C730 H792 0.929 . S
C731 C730 1.366 . S
C731 C732 1.415 . S
C731 H793 0.932 . S
C732 C731 1.415 . S
C732 C733 1.366 . S
C732 H794 0.931 . S
C733 C732 1.366 . S
C733 N734 1.325 . S
C733 C735 1.516 . S
N734 C729 1.330 . S
N734 C733 1.325 . S
N734 Co750 1.869 . S
C735 C733 1.516 . S
C735 N759 1.316 . S
C735 O782 1.263 . S
C736 C737 1.421 . S
C736 C741 1.360 . S
C736 N759 1.436 . S
C737 C736 1.421 . S
C737 C738 1.379 . S
C737 H795 0.929 . S
C738 C737 1.379 . S
C738 C739 1.417 . S
C739 C738 1.417 . S
C739 C740 1.352 . S
C739 H796 0.929 . S
C740 C739 1.352 . S
C740 C741 1.393 . S
C741 C736 1.360 . S
C741 C740 1.393 . S
C741 H797 0.931 . S
Cd742 O762 2.329 . S
Cd742 O764 2.350 . S
Cd742 O765 2.277 . S
Cd742 O767 2.173 . S
Cd742 O771 2.263 . S
Cd742 O782 2.366 . S
Cd743 O761 2.352 . S
Cd743 O768 2.250 . S
Cd743 O772 2.308 . S
C744 C748 1.403 . S
C744 C749 1.370 . S
C744 N760 1.423 . S
C745 C746 1.389 . S
C745 C749 1.389 . S
C746 C745 1.389 . S
C746 C747 1.379 . S
C746 H798 0.929 . S
C747 C746 1.379 . S
C747 C748 1.405 . S
C748 C744 1.403 . S
C748 C747 1.405 . S
C748 H799 0.932 . S
C749 C744 1.370 . S
C749 C745 1.389 . S
C749 H800 0.931 . S
Co750 N734 1.869 . S
Co750 N751 1.955 . S
Co750 N752 1.864 . S
Co750 N758 1.958 . S
Co750 N759 1.953 . S
Co750 N760 1.974 . S
N751 Co750 1.955 . S
N751 C769 1.329 . S
N751 C784 1.432 . S
N752 Co750 1.864 . S
N752 C753 1.327 . S
N752 C757 1.342 . S
C753 N752 1.327 . S
C753 C754 1.407 . S
C753 C769 1.481 . S
C754 C753 1.407 . S
C754 C755 1.364 . S
C754 H801 0.930 . S
C755 C754 1.364 . S
C755 C756 1.390 . S
C755 H802 0.931 . S
C756 C755 1.390 . S
C756 C757 1.346 . S
C756 H803 0.930 . S
C757 N752 1.342 . S
C757 C756 1.346 . S
C757 C773 1.516 . S
N758 Co750 1.958 . S
N758 C773 1.324 . S
N758 C775 1.427 . S
N759 C735 1.316 . S
N759 C736 1.436 . S
N759 Co750 1.953 . S
N760 C744 1.423 . S
N760 Co750 1.974 . S
N760 C790 1.309 . S
O761 Cd743 2.352 . S
O761 C781 1.235 . S
O762 Cd742 2.329 . S
O762 C781 1.270 . S
C763 O764 1.270 . S
C763 O765 1.248 . S
O764 Cd742 2.350 . S
O764 C763 1.270 . S
O765 Cd742 2.277 . S
O765 C763 1.248 . S
C766 O767 1.277 . S
C766 O768 1.230 . S
O767 Cd742 2.173 . S
O767 C766 1.277 . S
O768 Cd743 2.250 . S
O768 C766 1.230 . S
C769 N751 1.329 . S
C769 C753 1.481 . S
C769 O770 1.246 . S
O770 C769 1.246 . S
O771 Cd742 2.263 . S
O771 C783 1.258 . S
O772 Cd743 2.308 . S
O772 C783 1.274 . S
C773 C757 1.516 . S
C773 N758 1.324 . S
C773 O774 1.238 . S
O774 C773 1.238 . S
C775 N758 1.427 . S
C775 C776 1.394 . S
C775 C780 1.395 . S
C776 C775 1.394 . S
C776 C777 1.380 . S
C776 H804 0.929 . S
C777 C776 1.380 . S
C777 C778 1.384 . S
C777 C783 1.495 . S
C778 C777 1.384 . S
C778 C779 1.382 . S
C778 H805 0.930 . S
C779 C778 1.382 . S
C779 C780 1.398 . S
C780 C775 1.395 . S
C780 C779 1.398 . S
C780 H806 0.930 . S
C781 O761 1.235 . S
C781 O762 1.270 . S
O782 C735 1.263 . S
O782 Cd742 2.366 . S
C783 O771 1.258 . S
C783 O772 1.274 . S
C783 C777 1.495 . S
C784 N751 1.432 . S
C784 C785 1.381 . S
C784 C789 1.385 . S
C785 C784 1.381 . S
C785 C786 1.371 . S
C785 H807 0.932 . S
C786 C785 1.371 . S
C786 C787 1.400 . S
C787 C786 1.400 . S
C787 C788 1.351 . S
C787 H808 0.930 . S
C788 C787 1.351 . S
C788 C789 1.388 . S
C789 C784 1.385 . S
C789 C788 1.388 . S
C789 H809 0.929 . S
C790 C729 1.504 . S
C790 N760 1.309 . S
C790 O791 1.258 . S
O791 C790 1.258 . S
H792 C730 0.929 . S
H793 C731 0.932 . S
H794 C732 0.931 . S
H795 C737 0.929 . S
H796 C739 0.929 . S
H797 C741 0.931 . S
H798 C746 0.929 . S
H799 C748 0.932 . S
H800 C749 0.931 . S
H801 C754 0.930 . S
H802 C755 0.931 . S
H803 C756 0.930 . S
H804 C776 0.929 . S
H805 C778 0.930 . S
H806 C780 0.930 . S
H807 C785 0.932 . S
H808 C787 0.930 . S
H809 C789 0.929 . S
C810 C811 1.359 . S
C810 N815 1.330 . S
C810 C871 1.504 . S
C811 C810 1.359 . S
C811 C812 1.366 . S
C811 H873 0.929 . S
C812 C811 1.366 . S
C812 C813 1.415 . S
C812 H874 0.932 . S
C813 C812 1.415 . S
C813 C814 1.366 . S
C813 H875 0.931 . S
C814 C813 1.366 . S
C814 N815 1.325 . S
C814 C816 1.516 . S
N815 C810 1.330 . S
N815 C814 1.325 . S
N815 Co831 1.869 . S
C816 C814 1.516 . S
C816 N840 1.316 . S
C816 O863 1.263 . S
C817 C818 1.421 . S
C817 C822 1.360 . S
C817 N840 1.436 . S
C818 C817 1.421 . S
C818 C819 1.379 . S
C818 H876 0.929 . S
C819 C818 1.379 . S
C819 C820 1.417 . S
C820 C819 1.417 . S
C820 C821 1.352 . S
C820 H877 0.910 1_545 S
C821 C820 1.352 . S
C821 C822 1.393 . S
C822 C817 1.360 . S
C822 C821 1.393 . S
C822 H878 0.931 . S
Cd823 O843 2.320 1_545 S
Cd823 O845 2.333 1_545 S
Cd823 O846 2.274 1_545 S
Cd823 O848 2.192 . S
Cd823 O852 2.255 1_545 S
Cd823 O863 2.375 . S
Cd824 O842 2.352 . S
Cd824 O849 2.250 1_565 S
Cd824 O853 2.308 . S
C825 C829 1.403 . S
C825 C830 1.370 . S
C825 N841 1.423 . S
C826 C827 1.389 . S
C826 C830 1.389 . S
C827 C826 1.389 . S
C827 C828 1.379 . S
C827 H879 0.929 . S
C828 C827 1.379 . S
C828 C829 1.405 . S
C829 C825 1.403 . S
C829 C828 1.405 . S
C829 H880 0.932 . S
C830 C825 1.370 . S
C830 C826 1.389 . S
C830 H881 0.931 . S
Co831 N815 1.869 . S
Co831 N832 1.955 . S
Co831 N833 1.864 . S
Co831 N839 1.958 . S
Co831 N840 1.953 . S
Co831 N841 1.974 . S
N832 Co831 1.955 . S
N832 C850 1.329 . S
N832 C865 1.432 . S
N833 Co831 1.864 . S
N833 C834 1.327 . S
N833 C838 1.342 . S
C834 N833 1.327 . S
C834 C835 1.407 . S
C834 C850 1.481 . S
C835 C834 1.407 . S
C835 C836 1.364 . S
C835 H882 0.930 . S
C836 C835 1.364 . S
C836 C837 1.390 . S
C836 H883 0.931 . S
C837 C836 1.390 . S
C837 C838 1.346 . S
C837 H884 0.930 . S
C838 N833 1.342 . S
C838 C837 1.346 . S
C838 C854 1.516 . S
N839 Co831 1.958 . S
N839 C854 1.324 . S
N839 C856 1.427 . S
N840 C816 1.316 . S
N840 C817 1.436 . S
N840 Co831 1.953 . S
N841 C825 1.423 . S
N841 Co831 1.974 . S
N841 C871 1.309 . S
O842 Cd824 2.352 . S
O842 C862 1.235 . S
O843 Cd823 2.320 1_565 S
O843 C862 1.270 . S
C844 O845 1.270 . S
C844 O846 1.248 . S
O845 Cd823 2.333 1_565 S
O845 C844 1.270 . S
O846 Cd823 2.274 1_565 S
O846 C844 1.248 . S
C847 O848 1.277 . S
C847 O849 1.230 . S
O848 Cd823 2.192 . S
O848 C847 1.277 . S
O849 Cd824 2.250 1_545 S
O849 C847 1.230 . S
C850 N832 1.329 . S
C850 C834 1.481 . S
C850 O851 1.246 . S
O851 C850 1.246 . S
O852 Cd823 2.255 1_565 S
O852 C864 1.258 . S
O853 Cd824 2.308 . S
O853 C864 1.274 . S
C854 C838 1.516 . S
C854 N839 1.324 . S
C854 O855 1.238 . S
O855 C854 1.238 . S
C856 N839 1.427 . S
C856 C857 1.394 . S
C856 C861 1.395 . S
C857 C856 1.394 . S
C857 C858 1.380 . S
C857 H885 0.929 . S
C858 C857 1.380 . S
C858 C859 1.384 . S
C858 C864 1.495 1_545 S
C859 C858 1.384 . S
C859 C860 1.382 . S
C859 H886 0.930 . S
C860 C859 1.382 . S
C860 C861 1.398 . S
C861 C856 1.395 . S
C861 C860 1.398 . S
C861 H887 0.930 . S
C862 O842 1.235 . S
C862 O843 1.270 . S
O863 C816 1.263 . S
O863 Cd823 2.375 . S
C864 O852 1.258 . S
C864 O853 1.274 . S
C864 C858 1.495 1_565 S
C865 N832 1.432 . S
C865 C866 1.381 . S
C865 C870 1.385 . S
C866 C865 1.381 . S
C866 C867 1.371 . S
C866 H888 0.932 . S
C867 C866 1.371 . S
C867 C868 1.400 . S
C868 C867 1.400 . S
C868 C869 1.351 . S
C868 H889 0.930 . S
C869 C868 1.351 . S
C869 C870 1.388 . S
C870 C865 1.385 . S
C870 C869 1.388 . S
C870 H890 0.929 . S
C871 C810 1.504 . S
C871 N841 1.309 . S
C871 O872 1.258 . S
O872 C871 1.258 . S
H873 C811 0.929 . S
H874 C812 0.932 . S
H875 C813 0.931 . S
H876 C818 0.929 . S
H877 C820 0.910 1_565 S
H878 C822 0.931 . S
H879 C827 0.929 . S
H880 C829 0.932 . S
H881 C830 0.931 . S
H882 C835 0.930 . S
H883 C836 0.931 . S
H884 C837 0.930 . S
H885 C857 0.929 . S
H886 C859 0.930 . S
H887 C861 0.930 . S
H888 C866 0.932 . S
H889 C868 0.930 . S
H890 C870 0.929 . S
C891 C892 1.359 . S
C891 N896 1.330 . S
C891 C952 1.504 . S
C892 C891 1.359 . S
C892 C893 1.366 . S
C892 H954 0.929 . S
C893 C892 1.366 . S
C893 C894 1.415 . S
C893 H955 0.932 . S
C894 C893 1.415 . S
C894 C895 1.366 . S
C894 H956 0.931 . S
C895 C894 1.366 . S
C895 N896 1.325 . S
C895 C897 1.516 . S
N896 C891 1.330 . S
N896 C895 1.325 . S
N896 Co912 1.869 . S
C897 C895 1.516 . S
C897 N921 1.316 . S
C897 O944 1.263 . S
C898 C899 1.421 . S
C898 C903 1.360 . S
C898 N921 1.436 . S
C899 C898 1.421 . S
C899 C900 1.379 . S
C899 H957 0.929 . S
C900 C899 1.379 . S
C900 C901 1.417 . S
C901 C900 1.417 . S
C901 C902 1.352 . S
C901 H958 0.925 1_655 S
C902 C901 1.352 . S
C902 C903 1.393 . S
C903 C898 1.360 . S
C903 C902 1.393 . S
C903 H959 0.931 . S
Cd904 O924 2.308 1_655 S
Cd904 O926 2.349 1_655 S
Cd904 O927 2.275 1_655 S
Cd904 O929 2.177 . S
Cd904 O933 2.264 1_655 S
Cd904 O944 2.386 . S
Cd905 O923 2.352 . S
Cd905 O930 2.250 1_455 S
Cd905 O934 2.308 . S
C906 C910 1.403 . S
C906 C911 1.370 . S
C906 N922 1.423 . S
C907 C908 1.389 . S
C907 C911 1.389 . S
C908 C907 1.389 . S
C908 C909 1.379 . S
C908 H960 0.929 . S
C909 C908 1.379 . S
C909 C910 1.405 . S
C910 C906 1.403 . S
C910 C909 1.405 . S
C910 H961 0.932 . S
C911 C906 1.370 . S
C911 C907 1.389 . S
C911 H962 0.931 . S
Co912 N896 1.869 . S
Co912 N913 1.955 . S
Co912 N914 1.864 . S
Co912 N920 1.958 . S
Co912 N921 1.953 . S
Co912 N922 1.974 . S
N913 Co912 1.955 . S
N913 C931 1.329 . S
N913 C946 1.432 . S
N914 Co912 1.864 . S
N914 C915 1.327 . S
N914 C919 1.342 . S
C915 N914 1.327 . S
C915 C916 1.407 . S
C915 C931 1.481 . S
C916 C915 1.407 . S
C916 C917 1.364 . S
C916 H963 0.930 . S
C917 C916 1.364 . S
C917 C918 1.390 . S
C917 H964 0.931 . S
C918 C917 1.390 . S
C918 C919 1.346 . S
C918 H965 0.930 . S
C919 N914 1.342 . S
C919 C918 1.346 . S
C919 C935 1.516 . S
N920 Co912 1.958 . S
N920 C935 1.324 . S
N920 C937 1.427 . S
N921 C897 1.316 . S
N921 C898 1.436 . S
N921 Co912 1.953 . S
N922 C906 1.423 . S
N922 Co912 1.974 . S
N922 C952 1.309 . S
O923 Cd905 2.352 . S
O923 C943 1.235 . S
O924 Cd904 2.308 1_455 S
O924 C943 1.270 . S
C925 O926 1.270 . S
C925 O927 1.248 . S
O926 Cd904 2.349 1_455 S
O926 C925 1.270 . S
O927 Cd904 2.275 1_455 S
O927 C925 1.248 . S
C928 O929 1.277 . S
C928 O930 1.230 . S
O929 Cd904 2.177 . S
O929 C928 1.277 . S
O930 Cd905 2.250 1_655 S
O930 C928 1.230 . S
C931 N913 1.329 . S
C931 C915 1.481 . S
C931 O932 1.246 . S
O932 C931 1.246 . S
O933 Cd904 2.264 1_455 S
O933 C945 1.258 . S
O934 Cd905 2.308 . S
O934 C945 1.274 . S
C935 C919 1.516 . S
C935 N920 1.324 . S
C935 O936 1.238 . S
O936 C935 1.238 . S
C937 N920 1.427 . S
C937 C938 1.394 . S
C937 C942 1.395 . S
C938 C937 1.394 . S
C938 C939 1.380 . S
C938 H966 0.929 . S
C939 C938 1.380 . S
C939 C940 1.384 . S
C939 C945 1.495 1_655 S
C940 C939 1.384 . S
C940 C941 1.382 . S
C940 H967 0.930 . S
C941 C940 1.382 . S
C941 C942 1.398 . S
C942 C937 1.395 . S
C942 C941 1.398 . S
C942 H968 0.930 . S
C943 O923 1.235 . S
C943 O924 1.270 . S
O944 C897 1.263 . S
O944 Cd904 2.386 . S
C945 O933 1.258 . S
C945 O934 1.274 . S
C945 C939 1.495 1_455 S
C946 N913 1.432 . S
C946 C947 1.381 . S
C946 C951 1.385 . S
C947 C946 1.381 . S
C947 C948 1.371 . S
C947 H969 0.932 . S
C948 C947 1.371 . S
C948 C949 1.400 . S
C949 C948 1.400 . S
C949 C950 1.351 . S
C949 H970 0.930 . S
C950 C949 1.351 . S
C950 C951 1.388 . S
C951 C946 1.385 . S
C951 C950 1.388 . S
C951 H971 0.929 . S
C952 C891 1.504 . S
C952 N922 1.309 . S
C952 O953 1.258 . S
O953 C952 1.258 . S
H954 C892 0.929 . S
H955 C893 0.932 . S
H956 C894 0.931 . S
H957 C899 0.929 . S
H958 C901 0.925 1_455 S
H959 C903 0.931 . S
H960 C908 0.929 . S
H961 C910 0.932 . S
H962 C911 0.931 . S
H963 C916 0.930 . S
H964 C917 0.931 . S
H965 C918 0.930 . S
H966 C938 0.929 . S
H967 C940 0.930 . S
H968 C942 0.930 . S
H969 C947 0.932 . S
H970 C949 0.930 . S
H971 C951 0.929 . S
C972 C973 1.369 . S
C972 C974 1.419 1_455 S
C972 H976 0.930 . S
C973 C972 1.369 . S
C973 C982 1.429 . S
C974 C972 1.419 1_655 S
C974 C975 1.363 . S
C974 H977 0.929 . S
C975 C974 1.363 . S
C975 C981 1.428 . S
H976 C972 0.930 . S
H977 C974 0.929 . S
S978 N979 1.613 1_655 S
S978 N980 1.610 . S
N979 S978 1.613 1_455 S
N979 C982 1.350 . S
N980 S978 1.610 . S
N980 C981 1.351 . S
C981 C975 1.428 . S
C981 N980 1.351 . S
C981 C982 1.434 1_655 S
C982 C973 1.429 . S
C982 N979 1.350 . S
C982 C981 1.434 1_455 S
C983 C984 1.369 . S
C983 C985 1.419 . S
C983 H987 0.930 . S
C984 C983 1.369 . S
C984 C993 1.429 . S
C985 C983 1.419 . S
C985 C986 1.363 . S
C985 H988 0.929 . S
C986 C985 1.363 . S
C986 C992 1.428 . S
H987 C983 0.930 . S
H988 C985 0.929 . S
S989 N990 1.613 . S
S989 N991 1.610 . S
N990 S989 1.613 . S
N990 C993 1.350 . S
N991 S989 1.610 . S
N991 C992 1.351 . S
C992 C986 1.428 . S
C992 N991 1.351 . S
C992 C993 1.434 . S
C993 C984 1.429 . S
C993 N990 1.350 . S
C993 C992 1.434 . S
C994 C995 1.369 . S
C994 C996 1.419 1_565 S
C994 H998 0.930 . S
C995 C994 1.369 . S
C995 C1004 1.429 . S
C996 C994 1.419 1_545 S
C996 C997 1.363 . S
C996 H999 0.929 . S
C997 C996 1.363 . S
C997 C1003 1.428 . S
H998 C994 0.930 . S
H999 C996 0.929 . S
S1000 N1001 1.613 . S
S1000 N1002 1.610 1_565 S
N1001 S1000 1.613 . S
N1001 C1004 1.350 . S
N1002 S1000 1.610 1_545 S
N1002 C1003 1.351 . S
C1003 C997 1.428 . S
C1003 N1002 1.351 . S
C1003 C1004 1.434 1_545 S
C1004 C995 1.429 . S
C1004 N1001 1.350 . S
C1004 C1003 1.434 1_565 S
C1005 C1006 1.369 . S
C1005 C1007 1.419 1_565 S
C1005 H1009 0.930 . S
C1006 C1005 1.369 . S
C1006 C1015 1.429 . S
C1007 C1005 1.419 1_545 S
C1007 C1008 1.363 . S
C1007 H1010 0.929 . S
C1008 C1007 1.363 . S
C1008 C1014 1.428 . S
H1009 C1005 0.930 . S
H1010 C1007 0.929 . S
S1011 N1012 1.613 1_545 S
S1011 N1013 1.610 . S
N1012 S1011 1.613 1_565 S
N1012 C1015 1.350 . S
N1013 S1011 1.610 . S
N1013 C1014 1.351 . S
C1014 C1008 1.428 . S
C1014 N1013 1.351 . S
C1014 C1015 1.434 1_545 S
C1015 C1006 1.429 . S
C1015 N1012 1.350 . S
C1015 C1014 1.434 1_565 S
C1016 C1017 1.369 . S
C1016 C1018 1.419 1_455 S
C1016 H1020 0.930 . S
C1017 C1016 1.369 . S
C1017 C1026 1.429 . S
C1018 C1016 1.419 1_655 S
C1018 C1019 1.363 . S
C1018 H1021 0.929 . S
C1019 C1018 1.363 . S
C1019 C1025 1.428 . S
H1020 C1016 0.930 . S
H1021 C1018 0.929 . S
S1022 N1023 1.628 . S
S1022 N1024 1.606 1_455 S
N1023 S1022 1.628 . S
N1023 C1026 1.350 . S
N1024 S1022 1.606 1_655 S
N1024 C1025 1.351 . S
C1025 C1019 1.428 . S
C1025 N1024 1.351 . S
C1025 C1026 1.434 1_655 S
C1026 C1017 1.429 . S
C1026 N1023 1.350 . S
C1026 C1025 1.434 1_455 S
C1027 C1028 1.369 . S
C1027 C1029 1.419 . S
C1027 H1031 0.930 . S
C1028 C1027 1.369 . S
C1028 C1037 1.429 . S
C1029 C1027 1.419 . S
C1029 C1030 1.363 . S
C1029 H1032 0.929 . S
C1030 C1029 1.363 . S
C1030 C1036 1.428 . S
H1031 C1027 0.930 . S
H1032 C1029 0.929 . S
S1033 N1034 1.613 . S
S1033 N1035 1.610 . S
N1034 S1033 1.613 . S
N1034 C1037 1.350 . S
N1035 S1033 1.610 . S
N1035 C1036 1.351 . S
C1036 C1030 1.428 . S
C1036 N1035 1.351 . S
C1036 C1037 1.434 . S
C1037 C1028 1.429 . S
C1037 N1034 1.350 . S
C1037 C1036 1.434 . S
C1038 C1039 1.369 . S
C1038 C1040 1.419 1_655 S
C1038 H1042 0.930 . S
C1039 C1038 1.369 . S
C1039 C1048 1.454 . S
C1040 C1038 1.419 1_455 S
C1040 C1041 1.363 . S
C1040 H1043 0.929 . S
C1041 C1040 1.363 . S
C1041 C1047 1.428 . S
H1042 C1038 0.930 . S
H1043 C1040 0.929 . S
S1044 N1045 1.613 1_455 S
S1044 N1046 1.610 . S
N1045 S1044 1.613 1_655 S
N1045 C1048 1.343 . S
N1046 S1044 1.610 . S
N1046 C1047 1.351 . S
C1047 C1041 1.428 . S
C1047 N1046 1.351 . S
C1047 C1048 1.413 1_455 S
C1048 C1039 1.454 . S
C1048 N1045 1.343 . S
C1048 C1047 1.413 1_655 S
C1049 C1050 1.369 . S
C1049 C1051 1.419 . S
C1049 H1053 0.930 . S
C1050 C1049 1.369 . S
C1050 C1059 1.429 . S
C1051 C1049 1.419 . S
C1051 C1052 1.363 . S
C1051 H1054 0.929 . S
C1052 C1051 1.363 . S
C1052 C1058 1.428 . S
H1053 C1049 0.930 . S
H1054 C1051 0.929 . S
S1055 N1056 1.613 . S
S1055 N1057 1.610 . S
N1056 S1055 1.613 . S
N1056 C1059 1.350 . S
N1057 S1055 1.610 . S
N1057 C1058 1.351 . S
C1058 C1052 1.428 . S
C1058 N1057 1.351 . S
C1058 C1059 1.434 . S
C1059 C1050 1.429 . S
C1059 N1056 1.350 . S
C1059 C1058 1.434 . S
C1060 C1061 1.369 . S
C1060 C1062 1.419 1_545 S
C1060 H1064 0.930 . S
C1061 C1060 1.369 . S
C1061 C1070 1.434 . S
C1062 C1060 1.419 1_565 S
C1062 C1063 1.363 . S
C1062 H1065 0.929 . S
C1063 C1062 1.363 . S
C1063 C1069 1.428 . S
H1064 C1060 0.930 . S
H1065 C1062 0.929 . S
S1066 N1067 1.613 1_565 S
S1066 N1068 1.610 . S
N1067 S1066 1.613 1_545 S
N1067 C1070 1.354 . S
N1068 S1066 1.610 . S
N1068 C1069 1.351 . S
C1069 C1063 1.428 . S
C1069 N1068 1.351 . S
C1069 C1070 1.423 1_565 S
C1070 C1061 1.434 . S
C1070 N1067 1.354 . S
C1070 C1069 1.423 1_545 S
C1071 C1072 1.369 . S
C1071 C1073 1.419 1_545 S
C1071 H1075 0.930 . S
C1072 C1071 1.369 . S
C1072 C1081 1.429 . S
C1073 C1071 1.419 1_565 S
C1073 C1074 1.363 . S
C1073 H1076 0.929 . S
C1074 C1073 1.363 . S
C1074 C1080 1.428 . S
H1075 C1071 0.930 . S
H1076 C1073 0.929 . S
S1077 N1078 1.613 1_565 S
S1077 N1079 1.610 . S
N1078 S1077 1.613 1_545 S
N1078 C1081 1.350 . S
N1079 S1077 1.610 . S
N1079 C1080 1.351 . S
C1080 C1074 1.428 . S
C1080 N1079 1.351 . S
C1080 C1081 1.434 1_565 S
C1081 C1072 1.429 . S
C1081 N1078 1.350 . S
C1081 C1080 1.434 1_545 S
C1082 C1083 1.369 . S
C1082 C1084 1.419 1_655 S
C1082 H1086 0.930 . S
C1083 C1082 1.369 . S
C1083 C1092 1.429 . S
C1084 C1082 1.419 1_455 S
C1084 C1085 1.363 . S
C1084 H1087 0.929 . S
C1085 C1084 1.363 . S
C1085 C1091 1.428 . S
H1086 C1082 0.930 . S
H1087 C1084 0.929 . S
S1088 N1089 1.589 1_455 S
S1088 N1090 1.618 . S
N1089 S1088 1.589 1_655 S
N1089 C1092 1.350 . S
N1090 S1088 1.618 . S
N1090 C1091 1.351 . S
C1091 C1085 1.428 . S
C1091 N1090 1.351 . S
C1091 C1092 1.434 1_455 S
C1092 C1083 1.429 . S
C1092 N1089 1.350 . S
C1092 C1091 1.434 1_655 S
C1093 C1094 1.369 . S
C1093 C1095 1.419 . S
C1093 H1097 0.930 . S
C1094 C1093 1.369 . S
C1094 C1103 1.429 . S
C1095 C1093 1.419 . S
C1095 C1096 1.363 . S
C1095 H1098 0.929 . S
C1096 C1095 1.363 . S
C1096 C1102 1.428 . S
H1097 C1093 0.930 . S
H1098 C1095 0.929 . S
S1099 N1100 1.613 . S
S1099 N1101 1.610 . S
N1100 S1099 1.613 . S
N1100 C1103 1.350 . S
N1101 S1099 1.610 . S
N1101 C1102 1.351 . S
C1102 C1096 1.428 . S
C1102 N1101 1.351 . S
C1102 C1103 1.434 . S
C1103 C1094 1.429 . S
C1103 N1100 1.350 . S
C1103 C1102 1.434 . S
C1104 C1105 1.369 . S
C1104 C1106 1.419 1_554 S
C1104 H1108 0.930 . S
C1105 C1104 1.369 . S
C1105 C1114 1.429 1_554 S
C1106 C1104 1.419 1_556 S
C1106 C1107 1.363 . S
C1106 H1109 0.929 . S
C1107 C1106 1.363 . S
C1107 C1113 1.428 . S
H1108 C1104 0.930 . S
H1109 C1106 0.929 . S
S1110 N1111 1.613 . S
S1110 N1112 1.610 . S
N1111 S1110 1.613 . S
N1111 C1114 1.350 . S
N1112 S1110 1.610 . S
N1112 C1113 1.351 . S
C1113 C1107 1.428 . S
C1113 N1112 1.351 . S
C1113 C1114 1.434 . S
C1114 C1105 1.429 1_556 S
C1114 N1111 1.350 . S
C1114 C1113 1.434 . S
C1115 C1116 1.369 . S
C1115 C1117 1.419 1_554 S
C1115 H1119 0.930 . S
C1116 C1115 1.369 . S
C1116 C1125 1.429 1_554 S
C1117 C1115 1.419 1_556 S
C1117 C1118 1.363 . S
C1117 H1120 0.929 . S
C1118 C1117 1.363 . S
C1118 C1124 1.428 . S
H1119 C1115 0.930 . S
H1120 C1117 0.929 . S
S1121 N1122 1.613 . S
S1121 N1123 1.610 . S
N1122 S1121 1.613 . S
N1122 C1125 1.350 . S
N1123 S1121 1.610 . S
N1123 C1124 1.351 . S
C1124 C1118 1.428 . S
C1124 N1123 1.351 . S
C1124 C1125 1.434 . S
C1125 C1116 1.429 1_556 S
C1125 N1122 1.350 . S
C1125 C1124 1.434 . S
C1126 C1127 1.369 . S
C1126 C1128 1.419 1_556 S
C1126 H1130 0.930 . S
C1127 C1126 1.369 . S
C1127 C1136 1.429 . S
C1128 C1126 1.419 1_554 S
C1128 C1129 1.363 . S
C1128 H1131 0.929 . S
C1129 C1128 1.363 . S
C1129 C1135 1.428 1_554 S
H1130 C1126 0.930 . S
H1131 C1128 0.929 . S
S1132 N1133 1.613 . S
S1132 N1134 1.610 . S
N1133 S1132 1.613 . S
N1133 C1136 1.350 . S
N1134 S1132 1.610 . S
N1134 C1135 1.351 . S
C1135 C1129 1.428 1_556 S
C1135 N1134 1.351 . S
C1135 C1136 1.434 . S
C1136 C1127 1.429 . S
C1136 N1133 1.350 . S
C1136 C1135 1.434 . S
C1137 C1138 1.369 . S
C1137 C1139 1.419 . S
C1137 H1141 0.930 . S
C1138 C1137 1.369 . S
C1138 C1147 1.429 . S
C1139 C1137 1.419 . S
C1139 C1140 1.363 . S
C1139 H1142 0.929 . S
C1140 C1139 1.363 . S
C1140 C1146 1.428 . S
H1141 C1137 0.930 . S
H1142 C1139 0.929 . S
S1143 N1144 1.613 . S
S1143 N1145 1.610 . S
N1144 S1143 1.613 . S
N1144 C1147 1.350 . S
N1145 S1143 1.610 . S
N1145 C1146 1.351 . S
C1146 C1140 1.428 . S
C1146 N1145 1.351 . S
C1146 C1147 1.434 . S
C1147 C1138 1.429 . S
C1147 N1144 1.350 . S
C1147 C1146 1.434 . S
C1148 C1149 1.369 . S
C1148 C1150 1.419 . S
C1148 H1152 0.930 . S
C1149 C1148 1.369 . S
C1149 C1158 1.429 . S
C1150 C1148 1.419 . S
C1150 C1151 1.363 . S
C1150 H1153 0.929 . S
C1151 C1150 1.363 . S
C1151 C1157 1.428 . S
H1152 C1148 0.930 . S
H1153 C1150 0.929 . S
S1154 N1155 1.613 . S
S1154 N1156 1.610 . S
N1155 S1154 1.613 . S
N1155 C1158 1.350 . S
N1156 S1154 1.610 . S
N1156 C1157 1.351 . S
C1157 C1151 1.428 . S
C1157 N1156 1.351 . S
C1157 C1158 1.434 . S
C1158 C1149 1.429 . S
C1158 N1155 1.350 . S
C1158 C1157 1.434 . S
C1159 C1160 1.369 . S
C1159 C1161 1.419 . S
C1159 H1163 0.930 . S
C1160 C1159 1.369 . S
C1160 C1169 1.429 . S
C1161 C1159 1.419 . S
C1161 C1162 1.363 . S
C1161 H1164 0.929 . S
C1162 C1161 1.363 . S
C1162 C1168 1.428 . S
H1163 C1159 0.930 . S
H1164 C1161 0.929 . S
S1165 N1166 1.613 . S
S1165 N1167 1.610 . S
N1166 S1165 1.613 . S
N1166 C1169 1.350 . S
N1167 S1165 1.610 . S
N1167 C1168 1.351 . S
C1168 C1162 1.428 . S
C1168 N1167 1.351 . S
C1168 C1169 1.434 . S
C1169 C1160 1.429 . S
C1169 N1166 1.350 . S
C1169 C1168 1.434 . S
C1170 C1171 1.369 1_554 S
C1170 C1172 1.419 . S
C1170 H1174 0.930 . S
C1171 C1170 1.369 1_556 S
C1171 C1180 1.429 . S
C1172 C1170 1.419 . S
C1172 C1173 1.363 . S
C1172 H1175 0.929 . S
C1173 C1172 1.363 . S
C1173 C1179 1.428 . S
H1174 C1170 0.930 . S
H1175 C1172 0.929 . S
S1176 N1177 1.613 1_545 S
S1176 N1178 1.610 . S
N1177 S1176 1.613 1_565 S
N1177 C1180 1.350 . S
N1178 S1176 1.610 . S
N1178 C1179 1.351 1_546 S
C1179 C1173 1.428 . S
C1179 N1178 1.351 1_564 S
C1179 C1180 1.434 1_554 S
C1180 C1171 1.429 . S
C1180 N1177 1.350 . S
C1180 C1179 1.434 1_556 S
C1181 C1182 1.369 . S
C1181 C1183 1.419 . S
C1181 H1185 0.930 . S
C1182 C1181 1.369 . S
C1182 C1191 1.429 . S
C1183 C1181 1.419 . S
C1183 C1184 1.363 1_554 S
C1183 H1186 0.929 . S
C1184 C1183 1.363 1_556 S
C1184 C1190 1.428 . S
H1185 C1181 0.930 . S
H1186 C1183 0.929 . S
S1187 N1188 1.631 . S
S1187 N1189 1.610 1_655 S
N1188 S1187 1.631 . S
N1188 C1191 1.346 1_656 S
N1189 S1187 1.610 1_455 S
N1189 C1190 1.351 . S
C1190 C1184 1.428 . S
C1190 N1189 1.351 . S
C1190 C1191 1.434 1_556 S
C1191 C1182 1.429 . S
C1191 N1188 1.346 1_454 S
C1191 C1190 1.434 1_554 S
C1192 C1193 1.369 1_554 S
C1192 C1194 1.419 . S
C1192 H1196 0.930 . S
C1193 C1192 1.369 1_556 S
C1193 C1202 1.429 . S
C1194 C1192 1.419 . S
C1194 C1195 1.363 . S
C1194 H1197 0.929 . S
C1195 C1194 1.363 . S
C1195 C1201 1.428 . S
H1196 C1192 0.930 . S
H1197 C1194 0.929 . S
S1198 N1199 1.613 . S
S1198 N1200 1.610 . S
N1199 S1198 1.613 . S
N1199 C1202 1.350 . S
N1200 S1198 1.610 . S
N1200 C1201 1.351 1_556 S
C1201 C1195 1.428 . S
C1201 N1200 1.351 1_554 S
C1201 C1202 1.434 1_554 S
C1202 C1193 1.429 . S
C1202 N1199 1.350 . S
C1202 C1201 1.434 1_556 S
C1203 C1204 1.369 . S
C1203 C1205 1.419 . S
C1203 H1207 0.930 . S
C1204 C1203 1.369 . S
C1204 C1213 1.429 . S
C1205 C1203 1.419 . S
C1205 C1206 1.363 . S
C1205 H1208 0.929 . S
C1206 C1205 1.363 . S
C1206 C1212 1.428 . S
H1207 C1203 0.930 . S
H1208 C1205 0.929 . S
S1209 N1210 1.613 . S
S1209 N1211 1.610 1_455 S
N1210 S1209 1.613 . S
N1210 C1213 1.350 1_455 S
N1211 S1209 1.610 1_655 S
N1211 C1212 1.351 . S
C1212 C1206 1.428 . S
C1212 N1211 1.351 . S
C1212 C1213 1.434 . S
C1213 C1204 1.429 . S
C1213 N1210 1.350 1_655 S
C1213 C1212 1.434 . S
C1214 C1215 1.369 . S
C1214 C1216 1.419 . S
C1214 H1218 0.930 . S
C1215 C1214 1.369 . S
C1215 C1224 1.429 . S
C1216 C1214 1.419 . S
C1216 C1217 1.363 . S
C1216 H1219 0.929 . S
C1217 C1216 1.363 . S
C1217 C1223 1.428 . S
H1218 C1214 0.930 . S
H1219 C1216 0.929 . S
S1220 N1221 1.613 . S
S1220 N1222 1.610 . S
N1221 S1220 1.613 . S
N1221 C1224 1.350 . S
N1222 S1220 1.610 . S
N1222 C1223 1.351 . S
C1223 C1217 1.428 . S
C1223 N1222 1.351 . S
C1223 C1224 1.434 . S
C1224 C1215 1.429 . S
C1224 N1221 1.350 . S
C1224 C1223 1.434 . S
C1225 C1226 1.369 . S
C1225 C1227 1.419 . S
C1225 H1229 0.930 . S
C1226 C1225 1.369 . S
C1226 C1235 1.429 . S
C1227 C1225 1.419 . S
C1227 C1228 1.363 . S
C1227 H1230 0.929 . S
C1228 C1227 1.363 . S
C1228 C1234 1.428 . S
H1229 C1225 0.930 . S
H1230 C1227 0.929 . S
S1231 N1232 1.613 . S
S1231 N1233 1.610 . S
N1232 S1231 1.613 . S
N1232 C1235 1.350 . S
N1233 S1231 1.610 . S
N1233 C1234 1.351 . S
C1234 C1228 1.428 . S
C1234 N1233 1.351 . S
C1234 C1235 1.434 . S
C1235 C1226 1.429 . S
C1235 N1232 1.350 . S
C1235 C1234 1.434 . S
C1236 C1237 1.369 . S
C1236 C1238 1.419 . S
C1236 H1240 0.930 . S
C1237 C1236 1.369 . S
C1237 C1246 1.429 . S
C1238 C1236 1.419 . S
C1238 C1239 1.363 . S
C1238 H1241 0.929 . S
C1239 C1238 1.363 . S
C1239 C1245 1.428 . S
H1240 C1236 0.930 . S
H1241 C1238 0.929 . S
S1242 N1243 1.613 . S
S1242 N1244 1.610 . S
N1243 S1242 1.613 . S
N1243 C1246 1.350 . S
N1244 S1242 1.610 . S
N1244 C1245 1.351 . S
C1245 C1239 1.428 . S
C1245 N1244 1.351 . S
C1245 C1246 1.434 . S
C1246 C1237 1.429 . S
C1246 N1243 1.350 . S
C1246 C1245 1.434 . S
C1247 C1248 1.369 . S
C1247 C1249 1.419 . S
C1247 H1251 0.930 . S
C1248 C1247 1.369 . S
C1248 C1257 1.429 . S
C1249 C1247 1.419 . S
C1249 C1250 1.363 . S
C1249 H1252 0.929 . S
C1250 C1249 1.363 . S
C1250 C1256 1.428 . S
H1251 C1247 0.930 . S
H1252 C1249 0.929 . S
S1253 N1254 1.613 . S
S1253 N1255 1.610 . S
N1254 S1253 1.613 . S
N1254 C1257 1.350 . S
N1255 S1253 1.610 . S
N1255 C1256 1.351 . S
C1256 C1250 1.428 . S
C1256 N1255 1.351 . S
C1256 C1257 1.434 . S
C1257 C1248 1.429 . S
C1257 N1254 1.350 . S
C1257 C1256 1.434 . S
C1258 C1259 1.369 . S
C1258 C1260 1.419 . S
C1258 H1262 0.930 . S
C1259 C1258 1.369 . S
C1259 C1268 1.429 . S
C1260 C1258 1.419 . S
C1260 C1261 1.363 . S
C1260 H1263 0.929 . S
C1261 C1260 1.363 . S
C1261 C1267 1.428 . S
H1262 C1258 0.930 . S
H1263 C1260 0.929 . S
S1264 N1265 1.613 . S
S1264 N1266 1.610 . S
N1265 S1264 1.613 . S
N1265 C1268 1.350 . S
N1266 S1264 1.610 . S
N1266 C1267 1.351 . S
C1267 C1261 1.428 . S
C1267 N1266 1.351 . S
C1267 C1268 1.434 . S
C1268 C1259 1.429 . S
C1268 N1265 1.350 . S
C1268 C1267 1.434 . S
C1269 C1270 1.369 . S
C1269 C1271 1.419 . S
C1269 H1273 0.930 . S
C1270 C1269 1.369 . S
C1270 C1279 1.429 . S
C1271 C1269 1.419 . S
C1271 C1272 1.363 . S
C1271 H1274 0.929 . S
C1272 C1271 1.363 . S
C1272 C1278 1.428 . S
H1273 C1269 0.930 . S
H1274 C1271 0.929 . S
S1275 N1276 1.613 . S
S1275 N1277 1.610 . S
N1276 S1275 1.613 . S
N1276 C1279 1.350 . S
N1277 S1275 1.610 . S
N1277 C1278 1.351 . S
C1278 C1272 1.428 . S
C1278 N1277 1.351 . S
C1278 C1279 1.434 . S
C1279 C1270 1.429 . S
C1279 N1276 1.350 . S
C1279 C1278 1.434 . S
C1280 C1281 1.369 . S
C1280 C1282 1.419 . S
C1280 H1284 0.930 . S
C1281 C1280 1.369 . S
C1281 C1290 1.429 . S
C1282 C1280 1.419 . S
C1282 C1283 1.363 . S
C1282 H1285 0.929 . S
C1283 C1282 1.363 . S
C1283 C1289 1.428 . S
H1284 C1280 0.930 . S
H1285 C1282 0.929 . S
S1286 N1287 1.613 . S
S1286 N1288 1.610 . S
N1287 S1286 1.613 . S
N1287 C1290 1.350 . S
N1288 S1286 1.610 . S
N1288 C1289 1.351 . S
C1289 C1283 1.428 . S
C1289 N1288 1.351 . S
C1289 C1290 1.434 . S
C1290 C1281 1.429 . S
C1290 N1287 1.350 . S
C1290 C1289 1.434 . S
C1291 C1292 1.369 . S
C1291 C1293 1.419 . S
C1291 H1295 0.930 . S
C1292 C1291 1.369 . S
C1292 C1301 1.429 . S
C1293 C1291 1.419 . S
C1293 C1294 1.363 . S
C1293 H1296 0.929 . S
C1294 C1293 1.363 . S
C1294 C1300 1.428 . S
H1295 C1291 0.930 . S
H1296 C1293 0.929 . S
S1297 N1298 1.613 . S
S1297 N1299 1.610 . S
N1298 S1297 1.613 . S
N1298 C1301 1.350 . S
N1299 S1297 1.610 . S
N1299 C1300 1.351 . S
C1300 C1294 1.428 . S
C1300 N1299 1.351 . S
C1300 C1301 1.434 . S
C1301 C1292 1.429 . S
C1301 N1298 1.350 . S
C1301 C1300 1.434 . S
C1302 C1303 1.369 . S
C1302 C1304 1.419 . S
C1302 H1306 0.930 . S
C1303 C1302 1.369 . S
C1303 C1312 1.429 . S
C1304 C1302 1.419 . S
C1304 C1305 1.363 . S
C1304 H1307 0.929 . S
C1305 C1304 1.363 . S
C1305 C1311 1.428 . S
H1306 C1302 0.930 . S
H1307 C1304 0.929 . S
S1308 N1309 1.613 . S
S1308 N1310 1.610 . S
N1309 S1308 1.613 . S
N1309 C1312 1.350 . S
N1310 S1308 1.610 . S
N1310 C1311 1.351 . S
C1311 C1305 1.428 . S
C1311 N1310 1.351 . S
C1311 C1312 1.434 . S
C1312 C1303 1.429 . S
C1312 N1309 1.350 . S
C1312 C1311 1.434 . S
C1313 C1314 1.369 . S
C1313 C1315 1.419 . S
C1313 H1317 0.930 . S
C1314 C1313 1.369 . S
C1314 C1323 1.429 . S
C1315 C1313 1.419 . S
C1315 C1316 1.363 . S
C1315 H1318 0.929 . S
C1316 C1315 1.363 . S
C1316 C1322 1.428 . S
H1317 C1313 0.930 . S
H1318 C1315 0.929 . S
S1319 N1320 1.613 . S
S1319 N1321 1.610 . S
N1320 S1319 1.613 . S
N1320 C1323 1.350 . S
N1321 S1319 1.610 . S
N1321 C1322 1.351 . S
C1322 C1316 1.428 . S
C1322 N1321 1.351 . S
C1322 C1323 1.434 . S
C1323 C1314 1.429 . S
C1323 N1320 1.350 . S
C1323 C1322 1.434 . S
C1324 C1325 1.369 . S
C1324 C1326 1.419 . S
C1324 H1328 0.930 . S
C1325 C1324 1.369 . S
C1325 C1334 1.429 . S
C1326 C1324 1.419 . S
C1326 C1327 1.363 . S
C1326 H1329 0.929 . S
C1327 C1326 1.363 . S
C1327 C1333 1.428 . S
H1328 C1324 0.930 . S
H1329 C1326 0.929 . S
S1330 N1331 1.613 . S
S1330 N1332 1.610 . S
N1331 S1330 1.613 . S
N1331 C1334 1.350 . S
N1332 S1330 1.610 . S
N1332 C1333 1.351 . S
C1333 C1327 1.428 . S
C1333 N1332 1.351 . S
C1333 C1334 1.434 . S
C1334 C1325 1.429 . S
C1334 N1331 1.350 . S
C1334 C1333 1.434 . S
C1335 C1336 1.369 . S
C1335 C1337 1.419 . S
C1335 H1339 0.930 . S
C1336 C1335 1.369 . S
C1336 C1345 1.429 . S
C1337 C1335 1.419 . S
C1337 C1338 1.363 . S
C1337 H1340 0.929 . S
C1338 C1337 1.363 . S
C1338 C1344 1.428 . S
H1339 C1335 0.930 . S
H1340 C1337 0.929 . S
S1341 N1342 1.613 . S
S1341 N1343 1.610 . S
N1342 S1341 1.613 . S
N1342 C1345 1.350 . S
N1343 S1341 1.610 . S
N1343 C1344 1.351 . S
C1344 C1338 1.428 . S
C1344 N1343 1.351 . S
C1344 C1345 1.434 . S
C1345 C1336 1.429 . S
C1345 N1342 1.350 . S
C1345 C1344 1.434 . S
C1346 C1347 1.369 . S
C1346 C1348 1.419 . S
C1346 H1350 0.930 . S
C1347 C1346 1.369 . S
C1347 C1356 1.429 . S
C1348 C1346 1.419 . S
C1348 C1349 1.363 . S
C1348 H1351 0.929 . S
C1349 C1348 1.363 . S
C1349 C1355 1.428 . S
H1350 C1346 0.930 . S
H1351 C1348 0.929 . S
S1352 N1353 1.613 . S
S1352 N1354 1.610 . S
N1353 S1352 1.613 . S
N1353 C1356 1.350 . S
N1354 S1352 1.610 . S
N1354 C1355 1.351 . S
C1355 C1349 1.428 . S
C1355 N1354 1.351 . S
C1355 C1356 1.434 . S
C1356 C1347 1.429 . S
C1356 N1353 1.350 . S
C1356 C1355 1.434 . S
C1357 C1358 1.369 . S
C1357 C1359 1.419 . S
C1357 H1361 0.930 . S
C1358 C1357 1.369 . S
C1358 C1367 1.429 . S
C1359 C1357 1.419 . S
C1359 C1360 1.363 . S
C1359 H1362 0.929 . S
C1360 C1359 1.363 . S
C1360 C1366 1.428 . S
H1361 C1357 0.930 . S
H1362 C1359 0.929 . S
S1363 N1364 1.613 . S
S1363 N1365 1.610 . S
N1364 S1363 1.613 . S
N1364 C1367 1.350 . S
N1365 S1363 1.610 . S
N1365 C1366 1.351 . S
C1366 C1360 1.428 . S
C1366 N1365 1.351 . S
C1366 C1367 1.434 . S
C1367 C1358 1.429 . S
C1367 N1364 1.350 . S
C1367 C1366 1.434 . S
C1368 C1369 1.369 . S
C1368 C1370 1.419 . S
C1368 H1372 0.930 . S
C1369 C1368 1.369 . S
C1369 C1378 1.429 . S
C1370 C1368 1.419 . S
C1370 C1371 1.363 . S
C1370 H1373 0.929 . S
C1371 C1370 1.363 . S
C1371 C1377 1.428 . S
H1372 C1368 0.930 . S
H1373 C1370 0.929 . S
S1374 N1375 1.613 . S
S1374 N1376 1.610 . S
N1375 S1374 1.613 . S
N1375 C1378 1.350 . S
N1376 S1374 1.610 . S
N1376 C1377 1.351 . S
C1377 C1371 1.428 . S
C1377 N1376 1.351 . S
C1377 C1378 1.434 . S
C1378 C1369 1.429 . S
C1378 N1375 1.350 . S
C1378 C1377 1.434 . S
C1379 C1380 1.369 1_545 S
C1379 C1381 1.419 . S
C1379 H1383 0.930 . S
C1380 C1379 1.369 1_565 S
C1380 C1389 1.429 . S
C1381 C1379 1.419 . S
C1381 C1382 1.363 . S
C1381 H1384 0.929 . S
C1382 C1381 1.363 . S
C1382 C1388 1.428 1_545 S
H1383 C1379 0.930 . S
H1384 C1381 0.929 . S
S1385 N1386 1.613 . S
S1385 N1387 1.610 . S
N1386 S1385 1.613 . S
N1386 C1389 1.350 . S
N1387 S1385 1.610 . S
N1387 C1388 1.351 . S
C1388 C1382 1.428 1_565 S
C1388 N1387 1.351 . S
C1388 C1389 1.434 . S
C1389 C1380 1.429 . S
C1389 N1386 1.350 . S
C1389 C1388 1.434 . S
C1390 C1391 1.369 . S
C1390 C1392 1.419 1_655 S
C1390 H1394 0.930 . S
C1391 C1390 1.369 . S
C1391 C1400 1.429 . S
C1392 C1390 1.419 1_455 S
C1392 C1393 1.363 . S
C1392 H1395 0.929 . S
C1393 C1392 1.363 . S
C1393 C1399 1.428 . S
H1394 C1390 0.930 . S
H1395 C1392 0.929 . S
S1396 N1397 1.613 1_455 S
S1396 N1398 1.610 . S
N1397 S1396 1.613 1_655 S
N1397 C1400 1.350 . S
N1398 S1396 1.610 . S
N1398 C1399 1.351 . S
C1399 C1393 1.428 . S
C1399 N1398 1.351 . S
C1399 C1400 1.434 1_455 S
C1400 C1391 1.429 . S
C1400 N1397 1.350 . S
C1400 C1399 1.434 1_655 S
C1401 C1402 1.369 . S
C1401 C1403 1.419 . S
C1401 H1405 0.930 . S
C1402 C1401 1.369 . S
C1402 C1411 1.429 . S
C1403 C1401 1.419 . S
C1403 C1404 1.363 . S
C1403 H1406 0.929 . S
C1404 C1403 1.363 . S
C1404 C1410 1.428 . S
H1405 C1401 0.930 . S
H1406 C1403 0.929 . S
S1407 N1408 1.613 . S
S1407 N1409 1.610 . S
N1408 S1407 1.613 . S
N1408 C1411 1.350 . S
N1409 S1407 1.610 . S
N1409 C1410 1.351 . S
C1410 C1404 1.428 . S
C1410 N1409 1.351 . S
C1410 C1411 1.434 . S
C1411 C1402 1.429 . S
C1411 N1408 1.350 . S
C1411 C1410 1.434 . S
C1412 C1413 1.369 . S
C1412 C1414 1.419 . S
C1412 H1416 0.930 . S
C1413 C1412 1.369 . S
C1413 C1422 1.429 1_545 S
C1414 C1412 1.419 . S
C1414 C1415 1.363 1_545 S
C1414 H1417 0.929 . S
C1415 C1414 1.363 1_565 S
C1415 C1421 1.428 . S
H1416 C1412 0.930 . S
H1417 C1414 0.929 . S
S1418 N1419 1.613 . S
S1418 N1420 1.610 . S
N1419 S1418 1.613 . S
N1419 C1422 1.350 . S
N1420 S1418 1.610 . S
N1420 C1421 1.351 . S
C1421 C1415 1.428 . S
C1421 N1420 1.351 . S
C1421 C1422 1.434 . S
C1422 C1413 1.429 1_565 S
C1422 N1419 1.350 . S
C1422 C1421 1.434 . S
C1423 C1424 1.369 . S
C1423 C1425 1.419 1_655 S
C1423 H1427 0.930 . S
C1424 C1423 1.369 . S
C1424 C1433 1.429 . S
C1425 C1423 1.419 1_455 S
C1425 C1426 1.363 . S
C1425 H1428 0.929 . S
C1426 C1425 1.363 . S
C1426 C1432 1.428 . S
H1427 C1423 0.930 . S
H1428 C1425 0.929 . S
S1429 N1430 1.613 . S
S1429 N1431 1.610 1_655 S
N1430 S1429 1.613 . S
N1430 C1433 1.350 . S
N1431 S1429 1.610 1_455 S
N1431 C1432 1.351 . S
C1432 C1426 1.428 . S
C1432 N1431 1.351 . S
C1432 C1433 1.434 1_455 S
C1433 C1424 1.429 . S
C1433 N1430 1.350 . S
C1433 C1432 1.434 1_655 S
C973 C52 1.532 . S
C975 C118 1.832 . S
C984 C133 1.523 . S
C986 C199 1.837 . S
C995 C214 1.518 . S
C997 C37 1.838 . S
C1006 C442 1.837 . S
C1008 C295 1.521 . S
C1017 C280 1.837 . S
C1019 C376 1.526 . S
C1028 C361 1.833 . S
C1030 C457 1.526 . S
C1039 C538 1.534 . S
C1041 C604 1.833 . S
C1050 C619 1.524 . S
C1052 C685 1.837 . S
C1061 C700 1.534 . S
C1063 C523 1.833 . S
C1072 C928 1.832 . S
C1074 C781 1.526 . S
C1083 C766 1.839 . S
C1085 C862 1.522 . S
C1094 C943 1.531 . S
C1096 C847 1.835 . S
C1105 C59 1.458 . S
C1107 C601 1.444 . S
C1116 C140 1.457 . S
C1118 C682 1.447 . S
C1127 C520 1.444 . S
C1129 C221 1.458 . S
C1138 C925 1.447 . S
C1140 C302 1.456 . S
C1149 C383 1.453 . S
C1151 C763 1.450 . S
C1160 C844 1.445 . S
C1162 C464 1.458 . S
C1171 C545 1.454 . S
C1173 C115 1.447 . S
C1182 C196 1.450 . S
C1184 C626 1.453 . S
C1193 C707 1.455 . S
C1195 C34 1.447 . S
C1204 C439 1.450 . S
C1206 C788 1.454 . S
C1215 C277 1.444 . S
C1217 C869 1.458 . S
C1226 C358 1.449 . S
C1228 C950 1.454 . S
C1237 C18 2.540 . S
C1239 C97 2.281 . S
C1248 C178 2.274 . S
C1250 C99 2.539 . S
C1259 C180 2.537 . S
C1261 C16 2.278 . S
C1270 C421 2.277 . S
C1272 C261 2.538 . S
C1281 C259 2.280 . S
C1283 C342 2.537 . S
C1292 C340 2.277 . S
C1294 C423 2.537 . S
C1303 C504 2.536 . S
C1305 C583 2.279 . S
C1314 C664 2.284 . S
C1316 C585 2.538 . S
C1325 C666 2.538 . S
C1327 C502 2.275 . S
C1336 C747 2.541 . S
C1338 C907 2.277 . S
C1347 C745 2.276 . S
C1349 C828 2.541 . S
C1358 C909 2.540 . S
C1360 C826 2.281 . S
C1369 C293 1.933 . S
C1371 C50 1.927 . S
C1380 C374 1.936 . S
C1382 C131 1.927 . S
C1391 C212 1.933 . S
C1393 C455 1.931 . S
C1402 C536 1.926 . S
C1404 C779 1.932 . S
C1413 C860 1.924 . S
C1415 C617 1.935 . S
C1424 C941 1.930 . S
C1426 C698 1.932 . S
