# Generated by pormake.
# Topology whk, (6)-cn, num edge types: 1
# Building blocks:
#     Node 0, Type 0, BuildingBlock: UKALOJ_clean_sbu_0, # of connection points: 6
#     Node 1, Type 0, BuildingBlock: UKALOJ_clean_sbu_0, # of connection points: 6
#     Node 2, Type 0, BuildingBlock: UKALOJ_clean_sbu_0, # of connection points: 6
#     Node 3, Type 0, BuildingBlock: UKALOJ_clean_sbu_0, # of connection points: 6
#     Node 4, Type 0, BuildingBlock: UKALOJ_clean_sbu_0, # of connection points: 6
#     Node 5, Type 0, BuildingBlock: UKALOJ_clean_sbu_0, # of connection points: 6
#     Node 6, Type 0, BuildingBlock: UKALOJ_clean_sbu_0, # of connection points: 6
#     Node 7, Type 0, BuildingBlock: UKALOJ_clean_sbu_0, # of connection points: 6
#     Node 8, Type 0, BuildingBlock: UKALOJ_clean_sbu_0, # of connection points: 6
#     Node 9, Type 0, BuildingBlock: UKALOJ_clean_sbu_0, # of connection points: 6
#     Node 10, Type 0, BuildingBlock: UKALOJ_clean_sbu_0, # of connection points: 6
#     Node 11, Type 0, BuildingBlock: UKALOJ_clean_sbu_0, # of connection points: 6
#     Node 12, Type 0, BuildingBlock: UKALOJ_clean_sbu_0, # of connection points: 6
#     Node 13, Type 0, BuildingBlock: UKALOJ_clean_sbu_0, # of connection points: 6
#     Node 14, Type 0, BuildingBlock: UKALOJ_clean_sbu_0, # of connection points: 6
#     Node 15, Type 0, BuildingBlock: UKALOJ_clean_sbu_0, # of connection points: 6
#     Edge 16, Type (0, 0), None
#     Edge 17, Type (0, 0), None
#     Edge 18, Type (0, 0), None
#     Edge 19, Type (0, 0), None
#     Edge 20, Type (0, 0), None
#     Edge 21, Type (0, 0), None
#     Edge 22, Type (0, 0), None
#     Edge 23, Type (0, 0), None
#     Edge 24, Type (0, 0), None
#     Edge 25, Type (0, 0), None
#     Edge 26, Type (0, 0), None
#     Edge 27, Type (0, 0), None
#     Edge 28, Type (0, 0), None
#     Edge 29, Type (0, 0), None
#     Edge 30, Type (0, 0), None
#     Edge 31, Type (0, 0), None
#     Edge 32, Type (0, 0), None
#     Edge 33, Type (0, 0), None
#     Edge 34, Type (0, 0), None
#     Edge 35, Type (0, 0), None
#     Edge 36, Type (0, 0), None
#     Edge 37, Type (0, 0), None
#     Edge 38, Type (0, 0), None
#     Edge 39, Type (0, 0), None
#     Edge 40, Type (0, 0), None
#     Edge 41, Type (0, 0), None
#     Edge 42, Type (0, 0), None
#     Edge 43, Type (0, 0), None
#     Edge 44, Type (0, 0), None
#     Edge 45, Type (0, 0), None
#     Edge 46, Type (0, 0), None
#     Edge 47, Type (0, 0), None
#     Edge 48, Type (0, 0), None
#     Edge 49, Type (0, 0), None
#     Edge 50, Type (0, 0), None
#     Edge 51, Type (0, 0), None
#     Edge 52, Type (0, 0), None
#     Edge 53, Type (0, 0), None
#     Edge 54, Type (0, 0), None
#     Edge 55, Type (0, 0), None
#     Edge 56, Type (0, 0), None
#     Edge 57, Type (0, 0), None
#     Edge 58, Type (0, 0), None
#     Edge 59, Type (0, 0), None
#     Edge 60, Type (0, 0), None
#     Edge 61, Type (0, 0), None
#     Edge 62, Type (0, 0), None
#     Edge 63, Type (0, 0), None
# Relax obj value: 0.467
# Max RMSD: 0.288
# Mean RMSD: 0.288
data_MOF--net-whk--node1-UKALOJ_clean_sbu_0--edge1-none
_symmetry_space_group_name_H-M    P1
_symmetry_Int_Tables_number       1
_symmetry_cell_setting            triclinic
loop_
_symmetry_equiv_pos_as_xyz
'x, y, z'
_cell_length_a     18.962916
_cell_length_b     18.963194
_cell_length_c     26.685849
_cell_angle_alpha  90.000072
_cell_angle_beta   89.999928
_cell_angle_gamma 90.000069
loop_
_atom_site_label
_atom_site_type_symbol
_atom_site_fract_x
_atom_site_fract_y
_atom_site_fract_z
_atom_type_partial_charge
Zn0 Zn 0.57181 0.23678 0.34477 0.0
O1 O 0.59151 0.20372 0.27402 0.0
C2 C 0.479 0.11288 0.35464 0.0
Zn3 Zn 0.62869 0.14847 0.38274 0.0
C4 C 0.62967 0.14955 0.26856 0.0
O5 O 0.65436 0.11638 0.30681 0.0
C6 C 0.56289 0.2491 0.45633 0.0
O7 O 0.72036 0.19759 0.38595 0.0
O8 O 0.67816 0.28735 0.34531 0.0
N9 N 0.6821 0.06688 0.41926 0.0
C10 C 0.74604 0.07402 0.44228 0.0
C11 C 0.67878 0.01944 0.49257 0.0
N12 N 0.64154 0.03101 0.45047 0.0
N13 N 0.74388 0.04809 0.48926 0.0
C14 C 0.46327 0.35845 0.33525 0.0
C15 C 0.53633 0.44346 0.32848 0.0
N16 N 0.52677 0.33044 0.32272 0.0
N17 N 0.57137 0.3837 0.31795 0.0
N18 N 0.46867 0.42929 0.34009 0.0
H19 H 0.38248 0.28202 0.3228 0.0
H20 H 0.35886 0.34884 0.36802 0.0
H21 H 0.41944 0.28131 0.38498 0.0
C22 C 0.40224 0.31566 0.35377 0.0
C23 C 0.81306 0.09694 0.41705 0.0
H24 H 0.80674 0.09834 0.3757 0.0
H25 H 0.85612 0.05963 0.42666 0.0
H26 H 0.8292 0.1495 0.43134 0.0
O27 O 0.59826 0.19172 0.45816 0.0
O28 O 0.54814 0.27387 0.41401 0.0
C29 C 0.73098 0.25338 0.36283 0.0
O30 O 0.47459 0.17772 0.34203 0.0
O31 O 0.5354 0.09018 0.37491 0.0
Zn32 Zn 0.38549 0.62868 0.38273 0.0
O33 O 0.33637 0.72035 0.38595 0.0
C34 C 0.28486 0.56288 0.45632 0.0
Zn35 Zn 0.29717 0.5718 0.34476 0.0
C36 C 0.28058 0.73097 0.36282 0.0
O37 O 0.24661 0.67815 0.3453 0.0
C38 C 0.42107 0.479 0.35463 0.0
O39 O 0.33023 0.5915 0.27401 0.0
O40 O 0.41758 0.65435 0.3068 0.0
N41 N 0.20351 0.52676 0.32272 0.0
C42 C 0.17551 0.46327 0.33525 0.0
C43 C 0.09049 0.53632 0.32849 0.0
N44 N 0.15025 0.57136 0.31795 0.0
N45 N 0.10466 0.46866 0.34009 0.0
C46 C 0.45994 0.74603 0.44227 0.0
C47 C 0.51452 0.67877 0.49256 0.0
N48 N 0.46708 0.68209 0.41925 0.0
N49 N 0.50295 0.64153 0.45046 0.0
N50 N 0.48587 0.74387 0.48925 0.0
H51 H 0.43562 0.80673 0.37569 0.0
H52 H 0.47433 0.8561 0.42664 0.0
H53 H 0.38447 0.82918 0.43133 0.0
C54 C 0.43702 0.81305 0.41704 0.0
C55 C 0.2183 0.40224 0.35376 0.0
H56 H 0.25195 0.38249 0.32279 0.0
H57 H 0.18512 0.35885 0.368 0.0
H58 H 0.25264 0.41944 0.38498 0.0
O59 O 0.35623 0.47458 0.34202 0.0
O60 O 0.44378 0.53539 0.3749 0.0
C61 C 0.3844 0.62966 0.26855 0.0
O62 O 0.34224 0.59825 0.45815 0.0
O63 O 0.26008 0.54813 0.41401 0.0
Zn64 Zn 0.96216 0.29716 0.34477 0.0
O65 O 0.94245 0.33023 0.27402 0.0
C66 C 0.05496 0.42106 0.35463 0.0
Zn67 Zn 0.90528 0.38548 0.38274 0.0
C68 C 0.90429 0.38439 0.26856 0.0
O69 O 0.8796 0.41757 0.30681 0.0
C70 C 0.97108 0.28485 0.45633 0.0
O71 O 0.8136 0.33636 0.38595 0.0
O72 O 0.85581 0.2466 0.34531 0.0
N73 N 0.85187 0.46707 0.41926 0.0
C74 C 0.78793 0.45993 0.44227 0.0
C75 C 0.85519 0.51451 0.49256 0.0
N76 N 0.89243 0.50294 0.45046 0.0
N77 N 0.79009 0.48586 0.48925 0.0
C78 C 0.07069 0.1755 0.33525 0.0
C79 C 0.99763 0.09049 0.32848 0.0
N80 N 1.00719 0.2035 0.32272 0.0
N81 N 0.9626 0.15025 0.31795 0.0
N82 N 0.06529 0.10465 0.34009 0.0
H83 H 0.15148 0.25193 0.3228 0.0
H84 H 0.1751 0.1851 0.36802 0.0
H85 H 0.11452 0.25264 0.38498 0.0
C86 C 0.13172 0.21828 0.35377 0.0
C87 C 0.7209 0.43702 0.41705 0.0
H88 H 0.72722 0.43561 0.3757 0.0
H89 H 0.67785 0.47432 0.42665 0.0
H90 H 0.70477 0.38446 0.43134 0.0
O91 O 0.93571 0.34223 0.45816 0.0
O92 O 0.98583 0.26008 0.41401 0.0
C93 C 0.80299 0.28057 0.36283 0.0
O94 O 0.05937 0.35622 0.34202 0.0
O95 O 0.99856 0.44377 0.3749 0.0
Zn96 Zn 0.14847 0.90527 0.38273 0.0
O97 O 0.19759 0.8136 0.38595 0.0
C98 C 0.2491 0.97107 0.45632 0.0
Zn99 Zn 0.23679 0.96215 0.34476 0.0
C100 C 0.25339 0.80298 0.36282 0.0
O101 O 0.28736 0.8558 0.3453 0.0
C102 C 0.11289 0.05495 0.35463 0.0
O103 O 0.20373 0.94244 0.27401 0.0
O104 O 0.11638 0.8796 0.3068 0.0
N105 N 0.33045 1.00719 0.32271 0.0
C106 C 0.35845 0.07068 0.33525 0.0
C107 C 0.44347 0.99762 0.3285 0.0
N108 N 0.38371 0.96259 0.31795 0.0
N109 N 0.4293 0.06528 0.34012 0.0
C110 C 0.07402 0.78792 0.44227 0.0
C111 C 0.01945 0.85518 0.49256 0.0
N112 N 0.06688 0.85186 0.41925 0.0
N113 N 0.03101 0.89242 0.45046 0.0
N114 N 0.0481 0.79008 0.48925 0.0
H115 H 0.09834 0.72722 0.3757 0.0
H116 H 0.05963 0.67785 0.42665 0.0
H117 H 0.1495 0.70476 0.43133 0.0
C118 C 0.09694 0.7209 0.41705 0.0
C119 C 0.31566 0.13171 0.35376 0.0
H120 H 0.28201 0.15145 0.32279 0.0
H121 H 0.34884 0.1751 0.368 0.0
H122 H 0.28132 0.11451 0.38498 0.0
O123 O 0.17773 0.05936 0.34202 0.0
O124 O 0.09018 0.99855 0.37489 0.0
C125 C 0.14956 0.90428 0.26855 0.0
O126 O 0.19172 0.9357 0.45815 0.0
O127 O 0.27388 0.98582 0.414 0.0
Zn128 Zn 0.07181 0.79716 0.14167 0.0
O129 O 0.0915 0.83023 0.21242 0.0
C130 C 0.979 0.92106 0.1318 0.0
Zn131 Zn 0.12869 0.88548 0.1037 0.0
C132 C 0.12967 0.8844 0.21788 0.0
O133 O 0.15436 0.91757 0.17963 0.0
C134 C 0.06289 0.78485 0.03011 0.0
O135 O 0.22036 0.83636 0.10049 0.0
O136 O 0.17815 0.7466 0.14113 0.0
N137 N 0.1821 0.96707 0.06718 0.0
C138 C 0.24604 0.95993 0.04417 0.0
C139 C 0.17878 1.0145 -0.00612 0.0
N140 N 0.14154 1.00294 0.03598 0.0
N141 N 0.24388 0.98585 -0.00281 0.0
C142 C 0.96327 0.6755 0.15119 0.0
C143 C 0.03633 0.59049 0.15796 0.0
N144 N 0.02677 0.70351 0.16372 0.0
N145 N 0.07137 0.65025 0.16849 0.0
N146 N 0.96867 0.60465 0.14635 0.0
H147 H 0.88248 0.75193 0.16364 0.0
H148 H 0.85886 0.6851 0.11842 0.0
H149 H 0.91945 0.75264 0.10146 0.0
C150 C 0.90224 0.71829 0.13267 0.0
C151 C 0.31306 0.93701 0.06939 0.0
H152 H 0.30674 0.93561 0.11074 0.0
H153 H 0.35612 0.97432 0.05979 0.0
H154 H 0.3292 0.88445 0.0551 0.0
O155 O 0.09826 0.84223 0.02828 0.0
O156 O 0.04814 0.76008 0.07243 0.0
C157 C 0.23098 0.78057 0.12362 0.0
O158 O 0.97459 0.85623 0.14441 0.0
O159 O 0.0354 0.94376 0.11153 0.0
Zn160 Zn 0.73679 0.0718 0.14168 0.0
O161 O 0.70372 0.0915 0.21243 0.0
C162 C 0.61289 0.979 0.1318 0.0
Zn163 Zn 0.64847 0.12868 0.10371 0.0
C164 C 0.64956 0.12966 0.21789 0.0
O165 O 0.61638 0.15435 0.17964 0.0
C166 C 0.7491 0.06288 0.03012 0.0
O167 O 0.69759 0.22035 0.1005 0.0
O168 O 0.78735 0.17815 0.14114 0.0
N169 N 0.56689 0.1821 0.06719 0.0
C170 C 0.57403 0.24603 0.04417 0.0
C171 C 0.51945 0.17878 -0.00612 0.0
N172 N 0.53101 0.14153 0.03598 0.0
N173 N 0.5481 0.24387 -0.00281 0.0
C174 C 0.85845 0.96327 0.15119 0.0
C175 C 0.94346 0.03633 0.15794 0.0
N176 N 0.83045 0.02676 0.16372 0.0
N177 N 0.88371 0.07136 0.16849 0.0
N178 N 0.9293 0.96867 0.14632 0.0
H179 H 0.78201 0.88249 0.16365 0.0
H180 H 0.84883 0.85884 0.11844 0.0
H181 H 0.78132 0.91943 0.10146 0.0
C182 C 0.81566 0.90223 0.13268 0.0
C183 C 0.59694 0.31306 0.06939 0.0
H184 H 0.59834 0.30674 0.11074 0.0
H185 H 0.55964 0.35611 0.05979 0.0
H186 H 0.6495 0.32919 0.05511 0.0
O187 O 0.69173 0.09825 0.02829 0.0
O188 O 0.77388 0.04813 0.07243 0.0
C189 C 0.75338 0.23097 0.12362 0.0
O190 O 0.67773 0.97458 0.14441 0.0
O191 O 0.59019 0.0354 0.11154 0.0
Zn192 Zn 0.40527 0.64847 0.1037 0.0
O193 O 0.3136 0.69758 0.10049 0.0
C194 C 0.47108 0.7491 0.03011 0.0
Zn195 Zn 0.46216 0.73678 0.14167 0.0
C196 C 0.30298 0.75338 0.12361 0.0
O197 O 0.35581 0.78735 0.14113 0.0
C198 C 0.55496 0.61288 0.1318 0.0
O199 O 0.44246 0.70372 0.21243 0.0
O200 O 0.3796 0.61638 0.17964 0.0
N201 N 0.5072 0.83044 0.16372 0.0
C202 C 0.57069 0.85845 0.15118 0.0
C203 C 0.49762 0.94345 0.15794 0.0
N204 N 0.4626 0.8837 0.16849 0.0
N205 N 0.56529 0.92929 0.14633 0.0
C206 C 0.28792 0.57402 0.04417 0.0
C207 C 0.35518 0.51944 -0.00612 0.0
N208 N 0.35186 0.56688 0.06718 0.0
N209 N 0.39242 0.531 0.03598 0.0
N210 N 0.29009 0.54809 -0.00282 0.0
H211 H 0.22722 0.59833 0.11074 0.0
H212 H 0.17785 0.55963 0.05978 0.0
H213 H 0.20477 0.6495 0.0551 0.0
C214 C 0.2209 0.59694 0.06939 0.0
C215 C 0.63172 0.81566 0.13267 0.0
H216 H 0.65148 0.78202 0.16364 0.0
H217 H 0.67511 0.84884 0.11842 0.0
H218 H 0.61452 0.78131 0.10146 0.0
O219 O 0.55937 0.67772 0.14441 0.0
O220 O 0.49856 0.59018 0.11153 0.0
C221 C 0.40429 0.64955 0.21788 0.0
O222 O 0.4357 0.69172 0.02828 0.0
O223 O 0.48583 0.77387 0.07243 0.0
Zn224 Zn 0.79717 0.46215 0.14168 0.0
O225 O 0.83024 0.44245 0.21243 0.0
C226 C 0.92107 0.55495 0.13182 0.0
Zn227 Zn 0.88549 0.40527 0.10371 0.0
C228 C 0.8844 0.40429 0.21789 0.0
O229 O 0.91758 0.3796 0.17964 0.0
C230 C 0.78486 0.47107 0.03012 0.0
O231 O 0.83637 0.3136 0.1005 0.0
O232 O 0.74661 0.3558 0.14114 0.0
N233 N 0.96708 0.35186 0.06719 0.0
C234 C 0.95994 0.28792 0.04418 0.0
C235 C 1.01452 0.35518 -0.00611 0.0
N236 N 1.00296 0.39242 0.03599 0.0
N237 N 0.98587 0.29008 -0.00281 0.0
C238 C 0.67551 0.57068 0.15119 0.0
C239 C 0.5905 0.49762 0.15794 0.0
N240 N 0.70351 0.50719 0.16373 0.0
N241 N 0.65025 0.46259 0.16849 0.0
N242 N 0.60466 0.56528 0.14633 0.0
H243 H 0.75195 0.65145 0.16365 0.0
H244 H 0.68513 0.6751 0.11844 0.0
H245 H 0.75265 0.61451 0.10146 0.0
C246 C 0.7183 0.63171 0.13268 0.0
C247 C 0.93702 0.2209 0.0694 0.0
H248 H 0.93563 0.22722 0.11075 0.0
H249 H 0.97433 0.17785 0.05979 0.0
H250 H 0.88447 0.20476 0.05511 0.0
O251 O 0.84224 0.4357 0.02829 0.0
O252 O 0.76009 0.48582 0.07244 0.0
C253 C 0.78058 0.30298 0.12362 0.0
O254 O 0.85623 0.55936 0.14442 0.0
O255 O 0.94378 0.49855 0.11155 0.0
Zn256 Zn 0.46216 0.79717 0.64165 0.0
O257 O 0.4424 0.8302 0.7124 0.0
C258 C 0.55496 0.92108 0.63184 0.0
Zn259 Zn 0.40528 0.88552 0.60371 0.0
C260 C 0.40425 0.88437 0.71788 0.0
O261 O 0.37959 0.91758 0.67964 0.0
C262 C 0.47115 0.78494 0.53009 0.0
O263 O 0.31359 0.83642 0.60047 0.0
O264 O 0.35582 0.74659 0.64104 0.0
N265 N 0.35191 0.96714 0.56721 0.0
C266 C 0.28801 0.95993 0.54417 0.0
C267 C 0.35535 1.01434 0.49383 0.0
N268 N 0.39252 1.00293 0.53598 0.0
N269 N 0.29028 0.98563 0.49713 0.0
C270 C 0.57068 0.67551 0.6512 0.0
C271 C 0.49762 0.5905 0.65798 0.0
N272 N 0.50718 0.70352 0.6637 0.0
N273 N 0.46258 0.65027 0.66848 0.0
N274 N 0.56529 0.60466 0.64638 0.0
H275 H 0.65149 0.75191 0.66366 0.0
H276 H 0.6751 0.6851 0.61844 0.0
H277 H 0.61454 0.75265 0.60148 0.0
C278 C 0.63173 0.71828 0.63269 0.0
C279 C 0.22094 0.93716 0.56939 0.0
H280 H 0.22725 0.93578 0.61075 0.0
H281 H 0.17796 0.97455 0.55977 0.0
H282 H 0.20471 0.88462 0.55513 0.0
O283 O 0.43575 0.8423 0.52828 0.0
O284 O 0.48591 0.76013 0.5724 0.0
C285 C 0.30298 0.78058 0.62354 0.0
O286 O 0.55938 0.85624 0.64444 0.0
O287 O 0.49856 0.94378 0.61157 0.0
Zn288 Zn 0.64844 0.40528 0.60372 0.0
O289 O 0.69754 0.31358 0.60048 0.0
C290 C 0.74902 0.47115 0.53009 0.0
Zn291 Zn 0.73679 0.46215 0.64165 0.0
C292 C 0.75338 0.30298 0.62355 0.0
O293 O 0.78737 0.35581 0.64104 0.0
C294 C 0.61289 0.55495 0.63185 0.0
O295 O 0.70377 0.44239 0.71241 0.0
O296 O 0.61638 0.37958 0.67965 0.0
N297 N 0.83045 0.50717 0.66371 0.0
C298 C 0.85845 0.57067 0.6512 0.0
C299 C 0.94346 0.49761 0.65797 0.0
N300 N 0.8837 0.46257 0.66848 0.0
N301 N 0.9293 0.56528 0.64638 0.0
C302 C 0.57402 0.288 0.54418 0.0
C303 C 0.51962 0.35534 0.49384 0.0
N304 N 0.56681 0.35191 0.56722 0.0
N305 N 0.53103 0.39251 0.53599 0.0
N306 N 0.54832 0.29028 0.49714 0.0
H307 H 0.59818 0.22725 0.61076 0.0
H308 H 0.55941 0.17796 0.55979 0.0
H309 H 0.64933 0.2047 0.55514 0.0
C310 C 0.59679 0.22094 0.5694 0.0
C311 C 0.81567 0.63172 0.6327 0.0
H312 H 0.78204 0.65147 0.66367 0.0
H313 H 0.84886 0.6751 0.61845 0.0
H314 H 0.78131 0.61453 0.60148 0.0
O315 O 0.67773 0.55936 0.64445 0.0
O316 O 0.59017 0.49856 0.61158 0.0
C317 C 0.64959 0.40424 0.71789 0.0
O318 O 0.69166 0.43574 0.52829 0.0
O319 O 0.77383 0.4859 0.5724 0.0
Zn320 Zn 0.12869 0.64843 0.60371 0.0
O321 O 0.22038 0.69754 0.60047 0.0
C322 C 0.06281 0.74901 0.53009 0.0
Zn323 Zn 0.07181 0.73678 0.64165 0.0
C324 C 0.23098 0.75338 0.62354 0.0
O325 O 0.17815 0.78736 0.64104 0.0
C326 C 0.97901 0.61288 0.63185 0.0
O327 O 0.09157 0.70376 0.7124 0.0
O328 O 0.15438 0.61638 0.67964 0.0
N329 N 0.02679 0.83044 0.6637 0.0
C330 C 0.96329 0.85845 0.6512 0.0
C331 C 0.03635 0.94345 0.65798 0.0
N332 N 0.07139 0.88369 0.66848 0.0
N333 N 0.96868 0.9293 0.64639 0.0
C334 C 0.24596 0.57401 0.54417 0.0
C335 C 0.17861 0.51961 0.49383 0.0
N336 N 0.18205 0.56681 0.56722 0.0
N337 N 0.14144 0.53102 0.53598 0.0
N338 N 0.24368 0.54832 0.49713 0.0
H339 H 0.30671 0.59817 0.61075 0.0
H340 H 0.356 0.5594 0.55978 0.0
H341 H 0.32926 0.64932 0.55513 0.0
C342 C 0.31303 0.59679 0.5694 0.0
C343 C 0.90224 0.81567 0.63269 0.0
H344 H 0.88248 0.78204 0.66366 0.0
H345 H 0.85887 0.84886 0.61844 0.0
H346 H 0.91943 0.7813 0.60148 0.0
O347 O 0.97459 0.67772 0.64445 0.0
O348 O 0.0354 0.59017 0.61158 0.0
C349 C 0.12972 0.64959 0.71788 0.0
O350 O 0.09822 0.69165 0.52828 0.0
O351 O 0.04806 0.77382 0.5724 0.0
Zn352 Zn 0.88553 0.12868 0.60372 0.0
O353 O 0.83643 0.22037 0.60048 0.0
C354 C 0.78495 0.0628 0.5301 0.0
Zn355 Zn 0.79718 0.0718 0.64166 0.0
C356 C 0.78058 0.23097 0.62354 0.0
O357 O 0.7466 0.17814 0.64104 0.0
C358 C 0.92108 0.979 0.63185 0.0
O359 O 0.8302 0.09157 0.71241 0.0
O360 O 0.91759 0.15438 0.67965 0.0
N361 N 0.70352 0.02678 0.66371 0.0
C362 C 0.67552 0.96328 0.6512 0.0
C363 C 0.59051 0.03635 0.65796 0.0
N364 N 0.65027 0.07138 0.66848 0.0
N365 N 0.60467 0.96868 0.64636 0.0
C366 C 0.95995 0.24595 0.54418 0.0
C367 C 1.01435 0.17861 0.49384 0.0
N368 N 0.96716 0.18205 0.56722 0.0
N369 N 1.00294 0.14144 0.53599 0.0
N370 N 0.98564 0.24368 0.49714 0.0
H371 H 0.93579 0.30671 0.61075 0.0
H372 H 0.97456 0.35599 0.55978 0.0
H373 H 0.88464 0.32925 0.55514 0.0
C374 C 0.93718 0.31302 0.5694 0.0
C375 C 0.7183 0.90224 0.6327 0.0
H376 H 0.75194 0.88249 0.66367 0.0
H377 H 0.68512 0.85885 0.61846 0.0
H378 H 0.75266 0.91942 0.60148 0.0
O379 O 0.85624 0.97459 0.64445 0.0
O380 O 0.94379 0.0354 0.61158 0.0
C381 C 0.88438 0.12971 0.71789 0.0
O382 O 0.84231 0.09821 0.52829 0.0
O383 O 0.76014 0.04805 0.5724 0.0
Zn384 Zn 0.96216 0.23678 0.84479 0.0
O385 O 0.9424 0.20376 0.77404 0.0
C386 C 0.05496 0.11288 0.8546 0.0
Zn387 Zn 0.90528 0.14843 0.88273 0.0
C388 C 0.90426 0.14958 0.76856 0.0
O389 O 0.87959 0.11637 0.8068 0.0
C390 C 0.97115 0.24901 0.95635 0.0
O391 O 0.81359 0.19754 0.88597 0.0
O392 O 0.85582 0.28736 0.8454 0.0
N393 N 0.85191 0.06681 0.91923 0.0
C394 C 0.78801 0.07402 0.94227 0.0
C395 C 0.85535 0.01962 0.99261 0.0
N396 N 0.89252 0.03102 0.95046 0.0
N397 N 0.79028 0.04832 0.98931 0.0
C398 C 0.07068 0.35845 0.83524 0.0
C399 C 0.99762 0.44345 0.82846 0.0
N400 N 1.00718 0.33043 0.82274 0.0
N401 N 0.96258 0.38369 0.81796 0.0
N402 N 0.06529 0.42929 0.84006 0.0
H403 H 0.15149 0.28204 0.82278 0.0
H404 H 0.1751 0.34886 0.86801 0.0
H405 H 0.11453 0.2813 0.88496 0.0
C406 C 0.13173 0.31567 0.85375 0.0
C407 C 0.72094 0.09679 0.91704 0.0
H408 H 0.72725 0.09817 0.87569 0.0
H409 H 0.67796 0.05941 0.92667 0.0
H410 H 0.70471 0.14933 0.93131 0.0
O411 O 0.93575 0.19166 0.95816 0.0
O412 O 0.98591 0.27382 0.91405 0.0
C413 C 0.80298 0.25337 0.8629 0.0
O414 O 0.05938 0.17772 0.842 0.0
O415 O 0.99856 0.09017 0.87487 0.0
Zn416 Zn 0.38553 0.90527 0.88272 0.0
O417 O 0.33643 0.81358 0.88596 0.0
C418 C 0.28495 0.97114 0.95635 0.0
Zn419 Zn 0.29718 0.96215 0.84479 0.0
C420 C 0.28059 0.80298 0.86289 0.0
O421 O 0.2466 0.85581 0.84539 0.0
C422 C 0.42109 0.05495 0.8546 0.0
O423 O 0.33021 0.94239 0.77403 0.0
O424 O 0.41759 0.87958 0.80679 0.0
N425 N 0.20353 1.00718 0.82273 0.0
C426 C 0.17552 0.07067 0.83525 0.0
C427 C 0.09051 0.99761 0.82848 0.0
N428 N 0.15027 0.96257 0.81796 0.0
N429 N 0.10467 0.06528 0.84008 0.0
C430 C 0.45994 0.788 0.94226 0.0
C431 C 0.51434 0.85534 0.99261 0.0
N432 N 0.46716 0.8519 0.91922 0.0
N433 N 0.50294 0.89251 0.95045 0.0
N434 N 0.48564 0.79027 0.9893 0.0
H435 H 0.43579 0.72724 0.87569 0.0
H436 H 0.47455 0.67796 0.92666 0.0
H437 H 0.38463 0.7047 0.9313 0.0
C438 C 0.43717 0.72093 0.91704 0.0
C439 C 0.2183 0.13172 0.85375 0.0
H440 H 0.25194 0.15147 0.82277 0.0
H441 H 0.18512 0.1751 0.86799 0.0
H442 H 0.25266 0.11453 0.88496 0.0
O443 O 0.35625 0.05936 0.84199 0.0
O444 O 0.44379 0.99855 0.87486 0.0
C445 C 0.38438 0.90425 0.76855 0.0
O446 O 0.34231 0.93574 0.95815 0.0
O447 O 0.26014 0.9859 0.91404 0.0
Zn448 Zn 0.62869 0.38552 0.88273 0.0
O449 O 0.72038 0.33642 0.88597 0.0
C450 C 0.56281 0.28494 0.95635 0.0
Zn451 Zn 0.57181 0.29717 0.84479 0.0
C452 C 0.73098 0.28058 0.8629 0.0
O453 O 0.67815 0.2466 0.8454 0.0
C454 C 0.47901 0.42108 0.8546 0.0
O455 O 0.59157 0.3302 0.77403 0.0
O456 O 0.65439 0.41758 0.8068 0.0
N457 N 0.52678 0.20352 0.82274 0.0
C458 C 0.46329 0.17551 0.83525 0.0
C459 C 0.53636 0.09051 0.82848 0.0
N460 N 0.57139 0.15027 0.81796 0.0
N461 N 0.46869 0.10466 0.84008 0.0
C462 C 0.74596 0.45993 0.94227 0.0
C463 C 0.67862 0.51434 0.99261 0.0
N464 N 0.68206 0.46715 0.91923 0.0
N465 N 0.64145 0.50293 0.95046 0.0
N466 N 0.74369 0.48563 0.98931 0.0
H467 H 0.80672 0.43578 0.8757 0.0
H468 H 0.85601 0.47455 0.92667 0.0
H469 H 0.82926 0.38462 0.93131 0.0
C470 C 0.81303 0.43716 0.91705 0.0
C471 C 0.40224 0.21829 0.85375 0.0
H472 H 0.38248 0.25192 0.82278 0.0
H473 H 0.35886 0.1851 0.868 0.0
H474 H 0.41943 0.25266 0.88496 0.0
O475 O 0.47459 0.35624 0.842 0.0
O476 O 0.53541 0.44378 0.87487 0.0
C477 C 0.62972 0.38437 0.76856 0.0
O478 O 0.59822 0.3423 0.95816 0.0
O479 O 0.54806 0.26014 0.91404 0.0
Zn480 Zn 0.23679 0.5718 0.84478 0.0
O481 O 0.20377 0.59156 0.77403 0.0
C482 C 0.11289 0.479 0.85459 0.0
Zn483 Zn 0.14844 0.62868 0.88272 0.0
C484 C 0.14959 0.62971 0.76855 0.0
O485 O 0.11638 0.65438 0.80679 0.0
C486 C 0.24902 0.56281 0.95634 0.0
O487 O 0.19754 0.72037 0.88596 0.0
O488 O 0.28737 0.67814 0.84539 0.0
N489 N 0.06681 0.68204 0.91922 0.0
C490 C 0.07402 0.74595 0.94226 0.0
C491 C 0.01962 0.67861 0.9926 0.0
N492 N 0.03103 0.64144 0.95045 0.0
N493 N 0.04833 0.74367 0.9893 0.0
C494 C 0.35845 0.46328 0.83524 0.0
C495 C 0.44346 0.53635 0.82848 0.0
N496 N 0.33045 0.52678 0.82273 0.0
N497 N 0.3837 0.57138 0.81796 0.0
N498 N 0.4293 0.46868 0.84008 0.0
H499 H 0.28203 0.38249 0.82277 0.0
H500 H 0.34885 0.35885 0.86798 0.0
H501 H 0.28131 0.41942 0.88496 0.0
C502 C 0.31567 0.40224 0.85374 0.0
C503 C 0.09679 0.81302 0.91704 0.0
H504 H 0.09817 0.80671 0.87569 0.0
H505 H 0.05941 0.85599 0.92666 0.0
H506 H 0.14933 0.82925 0.9313 0.0
O507 O 0.19166 0.59821 0.95815 0.0
O508 O 0.27382 0.54805 0.91404 0.0
C509 C 0.25339 0.73097 0.86289 0.0
O510 O 0.17773 0.47459 0.84199 0.0
O511 O 0.09017 0.5354 0.87485 0.0
loop_
_geom_bond_atom_site_label_1
_geom_bond_atom_site_label_2
_geom_bond_distance
_geom_bond_site_symmetry_2
_ccdc_geom_bond_type
Zn0 O1 2.055 . S
Zn0 O8 2.046 . S
Zn0 N16 2.036 . S
Zn0 O28 2.053 . S
Zn0 O30 2.066 . S
O1 Zn0 2.055 . S
O1 C4 1.259 . S
C2 O30 1.256 . S
C2 O31 1.244 . S
Zn3 O5 2.046 . S
Zn3 O7 2.055 . S
Zn3 N9 2.036 . S
Zn3 O27 2.066 . S
Zn3 O31 2.053 . S
C4 O1 1.259 . S
C4 O5 1.254 . S
O5 Zn3 2.046 . S
O5 C4 1.254 . S
C6 O27 1.256 . S
C6 O28 1.244 . S
O7 Zn3 2.055 . S
O7 C29 1.259 . S
O8 Zn0 2.046 . S
O8 C29 1.254 . S
N9 Zn3 2.036 . S
N9 C10 1.298 . S
N9 N12 1.398 1_545 S
C10 N9 1.298 . S
C10 N13 1.367 1_545 S
C10 C23 1.481 . S
C11 N12 1.299 . S
C11 N13 1.379 . S
N12 N9 1.398 1_565 S
N12 C11 1.299 . S
N13 C10 1.367 1_565 S
N13 C11 1.379 . S
C14 N16 1.298 . S
C14 N18 1.367 . S
C14 C22 1.481 . S
C15 N17 1.299 . S
C15 N18 1.379 . S
N16 Zn0 2.036 . S
N16 C14 1.298 . S
N16 N17 1.398 . S
N17 C15 1.299 . S
N17 N16 1.398 . S
N18 C14 1.367 . S
N18 C15 1.379 . S
H19 C22 0.980 . S
H20 C22 0.981 . S
H21 C22 0.981 . S
C22 C14 1.481 . S
C22 H19 0.980 . S
C22 H20 0.981 . S
C22 H21 0.981 . S
C23 C10 1.481 . S
C23 H24 0.980 . S
C23 H25 0.981 . S
C23 H26 0.981 . S
H24 C23 0.980 . S
H25 C23 0.981 . S
H26 C23 0.981 . S
O27 Zn3 2.066 . S
O27 C6 1.256 . S
O28 Zn0 2.053 . S
O28 C6 1.244 . S
C29 O7 1.259 . S
C29 O8 1.254 . S
O30 Zn0 2.066 . S
O30 C2 1.256 . S
O31 C2 1.244 . S
O31 Zn3 2.053 . S
Zn32 O33 2.055 . S
Zn32 O40 2.046 . S
Zn32 N48 2.036 . S
Zn32 O60 2.053 . S
Zn32 O62 2.066 . S
O33 Zn32 2.055 . S
O33 C36 1.259 . S
C34 O62 1.256 . S
C34 O63 1.244 . S
Zn35 O37 2.046 . S
Zn35 O39 2.055 . S
Zn35 N41 2.036 . S
Zn35 O59 2.066 . S
Zn35 O63 2.053 . S
C36 O33 1.259 . S
C36 O37 1.254 . S
O37 Zn35 2.046 . S
O37 C36 1.254 . S
C38 O59 1.256 . S
C38 O60 1.244 . S
O39 Zn35 2.055 . S
O39 C61 1.259 . S
O40 Zn32 2.046 . S
O40 C61 1.254 . S
N41 Zn35 2.036 . S
N41 C42 1.298 . S
N41 N44 1.398 . S
C42 N41 1.298 . S
C42 N45 1.367 . S
C42 C55 1.481 . S
C43 N44 1.299 . S
C43 N45 1.379 . S
N44 N41 1.398 . S
N44 C43 1.299 . S
N45 C42 1.367 . S
N45 C43 1.379 . S
C46 N48 1.298 . S
C46 N50 1.367 . S
C46 C54 1.481 . S
C47 N49 1.299 . S
C47 N50 1.379 . S
N48 Zn32 2.036 . S
N48 C46 1.298 . S
N48 N49 1.398 . S
N49 C47 1.299 . S
N49 N48 1.398 . S
N50 C46 1.367 . S
N50 C47 1.379 . S
H51 C54 0.980 . S
H52 C54 0.981 . S
H53 C54 0.981 . S
C54 C46 1.481 . S
C54 H51 0.980 . S
C54 H52 0.981 . S
C54 H53 0.981 . S
C55 C42 1.481 . S
C55 H56 0.980 . S
C55 H57 0.981 . S
C55 H58 0.981 . S
H56 C55 0.980 . S
H57 C55 0.981 . S
H58 C55 0.981 . S
O59 Zn35 2.066 . S
O59 C38 1.256 . S
O60 Zn32 2.053 . S
O60 C38 1.244 . S
C61 O39 1.259 . S
C61 O40 1.254 . S
O62 Zn32 2.066 . S
O62 C34 1.256 . S
O63 C34 1.244 . S
O63 Zn35 2.053 . S
Zn64 O65 2.055 . S
Zn64 O72 2.046 . S
Zn64 N80 2.036 . S
Zn64 O92 2.053 . S
Zn64 O94 2.066 1_655 S
O65 Zn64 2.055 . S
O65 C68 1.259 . S
C66 O94 1.256 . S
C66 O95 1.244 1_455 S
Zn67 O69 2.046 . S
Zn67 O71 2.055 . S
Zn67 N73 2.036 . S
Zn67 O91 2.066 . S
Zn67 O95 2.053 . S
C68 O65 1.259 . S
C68 O69 1.254 . S
O69 Zn67 2.046 . S
O69 C68 1.254 . S
C70 O91 1.256 . S
C70 O92 1.244 . S
O71 Zn67 2.055 . S
O71 C93 1.259 . S
O72 Zn64 2.046 . S
O72 C93 1.254 . S
N73 Zn67 2.036 . S
N73 C74 1.298 . S
N73 N76 1.398 . S
C74 N73 1.298 . S
C74 N77 1.367 . S
C74 C87 1.481 . S
C75 N76 1.299 . S
C75 N77 1.379 . S
N76 N73 1.398 . S
N76 C75 1.299 . S
N77 C74 1.367 . S
N77 C75 1.379 . S
C78 N80 1.298 1_455 S
C78 N82 1.367 . S
C78 C86 1.481 . S
C79 N81 1.299 . S
C79 N82 1.379 . S
N80 Zn64 2.036 . S
N80 C78 1.298 1_655 S
N80 N81 1.398 1_655 S
N81 C79 1.299 . S
N81 N80 1.398 1_455 S
N82 C78 1.367 . S
N82 C79 1.379 . S
H83 C86 0.980 . S
H84 C86 0.981 . S
H85 C86 0.981 . S
C86 C78 1.481 . S
C86 H83 0.980 . S
C86 H84 0.981 . S
C86 H85 0.981 . S
C87 C74 1.481 . S
C87 H88 0.980 . S
C87 H89 0.981 . S
C87 H90 0.981 . S
H88 C87 0.980 . S
H89 C87 0.981 . S
H90 C87 0.981 . S
O91 Zn67 2.066 . S
O91 C70 1.256 . S
O92 Zn64 2.053 . S
O92 C70 1.244 . S
C93 O71 1.259 . S
C93 O72 1.254 . S
O94 Zn64 2.066 1_455 S
O94 C66 1.256 . S
O95 C66 1.244 1_655 S
O95 Zn67 2.053 . S
Zn96 O97 2.055 . S
Zn96 O104 2.046 . S
Zn96 N112 2.036 . S
Zn96 O124 2.053 . S
Zn96 O126 2.066 . S
O97 Zn96 2.055 . S
O97 C100 1.259 . S
C98 O126 1.256 . S
C98 O127 1.244 . S
Zn99 O101 2.046 . S
Zn99 O103 2.055 . S
Zn99 N105 2.036 . S
Zn99 O123 2.066 1_565 S
Zn99 O127 2.053 . S
C100 O97 1.259 . S
C100 O101 1.254 . S
O101 Zn99 2.046 . S
O101 C100 1.254 . S
C102 O123 1.256 . S
C102 O124 1.244 1_545 S
O103 Zn99 2.055 . S
O103 C125 1.259 . S
O104 Zn96 2.046 . S
O104 C125 1.254 . S
N105 Zn99 2.036 . S
N105 C106 1.298 1_565 S
N105 N108 1.398 1_565 S
C106 N105 1.298 1_545 S
C106 N109 1.367 . S
C106 C119 1.481 . S
C107 N108 1.299 . S
C107 N109 1.379 . S
N108 N105 1.398 1_545 S
N108 C107 1.299 . S
N109 C106 1.367 . S
N109 C107 1.379 . S
C110 N112 1.298 . S
C110 N114 1.367 1_455 S
C110 C118 1.481 . S
C111 N113 1.299 . S
C111 N114 1.379 . S
N112 Zn96 2.036 . S
N112 C110 1.298 . S
N112 N113 1.398 1_455 S
N113 C111 1.299 . S
N113 N112 1.398 1_655 S
N114 C110 1.367 1_655 S
N114 C111 1.379 . S
H115 C118 0.980 . S
H116 C118 0.981 . S
H117 C118 0.981 . S
C118 C110 1.481 . S
C118 H115 0.980 . S
C118 H116 0.981 . S
C118 H117 0.981 . S
C119 C106 1.481 . S
C119 H120 0.980 . S
C119 H121 0.981 . S
C119 H122 0.981 . S
H120 C119 0.980 . S
H121 C119 0.981 . S
H122 C119 0.981 . S
O123 Zn99 2.066 1_545 S
O123 C102 1.256 . S
O124 Zn96 2.053 . S
O124 C102 1.244 1_565 S
C125 O103 1.259 . S
C125 O104 1.254 . S
O126 Zn96 2.066 . S
O126 C98 1.256 . S
O127 C98 1.244 . S
O127 Zn99 2.053 . S
Zn128 O129 2.055 . S
Zn128 O136 2.046 . S
Zn128 N144 2.036 . S
Zn128 O156 2.053 . S
Zn128 O158 2.066 1_455 S
O129 Zn128 2.055 . S
O129 C132 1.259 . S
C130 O158 1.256 . S
C130 O159 1.244 1_655 S
Zn131 O133 2.046 . S
Zn131 O135 2.055 . S
Zn131 N137 2.036 . S
Zn131 O155 2.066 . S
Zn131 O159 2.053 . S
C132 O129 1.259 . S
C132 O133 1.254 . S
O133 Zn131 2.046 . S
O133 C132 1.254 . S
C134 O155 1.256 . S
C134 O156 1.244 . S
O135 Zn131 2.055 . S
O135 C157 1.259 . S
O136 Zn128 2.046 . S
O136 C157 1.254 . S
N137 Zn131 2.036 . S
N137 C138 1.298 . S
N137 N140 1.398 1_565 S
C138 N137 1.298 . S
C138 N141 1.367 1_565 S
C138 C151 1.481 . S
C139 N140 1.299 . S
C139 N141 1.379 . S
N140 N137 1.398 1_545 S
N140 C139 1.299 . S
N141 C138 1.367 1_545 S
N141 C139 1.379 . S
C142 N144 1.298 1_655 S
C142 N146 1.367 . S
C142 C150 1.481 . S
C143 N145 1.299 . S
C143 N146 1.379 . S
N144 Zn128 2.036 . S
N144 C142 1.298 1_455 S
N144 N145 1.398 1_455 S
N145 C143 1.299 . S
N145 N144 1.398 1_655 S
N146 C142 1.367 . S
N146 C143 1.379 . S
H147 C150 0.980 . S
H148 C150 0.981 . S
H149 C150 0.981 . S
C150 C142 1.481 . S
C150 H147 0.980 . S
C150 H148 0.981 . S
C150 H149 0.981 . S
C151 C138 1.481 . S
C151 H152 0.980 . S
C151 H153 0.981 . S
C151 H154 0.981 . S
H152 C151 0.980 . S
H153 C151 0.981 . S
H154 C151 0.981 . S
O155 Zn131 2.066 . S
O155 C134 1.256 . S
O156 Zn128 2.053 . S
O156 C134 1.244 . S
C157 O135 1.259 . S
C157 O136 1.254 . S
O158 Zn128 2.066 1_655 S
O158 C130 1.256 . S
O159 C130 1.244 1_455 S
O159 Zn131 2.053 . S
Zn160 O161 2.055 . S
Zn160 O168 2.046 . S
Zn160 N176 2.036 . S
Zn160 O188 2.053 . S
Zn160 O190 2.066 1_545 S
O161 Zn160 2.055 . S
O161 C164 1.259 . S
C162 O190 1.256 . S
C162 O191 1.244 1_565 S
Zn163 O165 2.046 . S
Zn163 O167 2.055 . S
Zn163 N169 2.036 . S
Zn163 O187 2.066 . S
Zn163 O191 2.053 . S
C164 O161 1.259 . S
C164 O165 1.254 . S
O165 Zn163 2.046 . S
O165 C164 1.254 . S
C166 O187 1.256 . S
C166 O188 1.244 . S
O167 Zn163 2.055 . S
O167 C189 1.259 . S
O168 Zn160 2.046 . S
O168 C189 1.254 . S
N169 Zn163 2.036 . S
N169 C170 1.298 . S
N169 N172 1.398 . S
C170 N169 1.298 . S
C170 N173 1.367 . S
C170 C183 1.481 . S
C171 N172 1.299 . S
C171 N173 1.379 . S
N172 N169 1.398 . S
N172 C171 1.299 . S
N173 C170 1.367 . S
N173 C171 1.379 . S
C174 N176 1.298 1_565 S
C174 N178 1.367 . S
C174 C182 1.481 . S
C175 N177 1.299 . S
C175 N178 1.379 . S
N176 Zn160 2.036 . S
N176 C174 1.298 1_545 S
N176 N177 1.398 1_545 S
N177 C175 1.299 . S
N177 N176 1.398 1_565 S
N178 C174 1.367 . S
N178 C175 1.379 . S
H179 C182 0.980 . S
H180 C182 0.981 . S
H181 C182 0.981 . S
C182 C174 1.481 . S
C182 H179 0.980 . S
C182 H180 0.981 . S
C182 H181 0.981 . S
C183 C170 1.481 . S
C183 H184 0.980 . S
C183 H185 0.981 . S
C183 H186 0.981 . S
H184 C183 0.980 . S
H185 C183 0.981 . S
H186 C183 0.981 . S
O187 Zn163 2.066 . S
O187 C166 1.256 . S
O188 Zn160 2.053 . S
O188 C166 1.244 . S
C189 O167 1.259 . S
C189 O168 1.254 . S
O190 Zn160 2.066 1_565 S
O190 C162 1.256 . S
O191 C162 1.244 1_545 S
O191 Zn163 2.053 . S
Zn192 O193 2.055 . S
Zn192 O200 2.046 . S
Zn192 N208 2.036 . S
Zn192 O220 2.053 . S
Zn192 O222 2.066 . S
O193 Zn192 2.055 . S
O193 C196 1.259 . S
C194 O222 1.256 . S
C194 O223 1.244 . S
Zn195 O197 2.046 . S
Zn195 O199 2.055 . S
Zn195 N201 2.036 . S
Zn195 O219 2.066 . S
Zn195 O223 2.053 . S
C196 O193 1.259 . S
C196 O197 1.254 . S
O197 Zn195 2.046 . S
O197 C196 1.254 . S
C198 O219 1.256 . S
C198 O220 1.244 . S
O199 Zn195 2.055 . S
O199 C221 1.259 . S
O200 Zn192 2.046 . S
O200 C221 1.254 . S
N201 Zn195 2.036 . S
N201 C202 1.298 . S
N201 N204 1.398 . S
C202 N201 1.298 . S
C202 N205 1.367 . S
C202 C215 1.481 . S
C203 N204 1.299 . S
C203 N205 1.379 . S
N204 N201 1.398 . S
N204 C203 1.299 . S
N205 C202 1.367 . S
N205 C203 1.379 . S
C206 N208 1.298 . S
C206 N210 1.367 . S
C206 C214 1.481 . S
C207 N209 1.299 . S
C207 N210 1.379 . S
N208 Zn192 2.036 . S
N208 C206 1.298 . S
N208 N209 1.398 . S
N209 C207 1.299 . S
N209 N208 1.398 . S
N210 C206 1.367 . S
N210 C207 1.379 . S
H211 C214 0.980 . S
H212 C214 0.981 . S
H213 C214 0.981 . S
C214 C206 1.481 . S
C214 H211 0.980 . S
C214 H212 0.981 . S
C214 H213 0.981 . S
C215 C202 1.481 . S
C215 H216 0.980 . S
C215 H217 0.981 . S
C215 H218 0.981 . S
H216 C215 0.980 . S
H217 C215 0.981 . S
H218 C215 0.981 . S
O219 Zn195 2.066 . S
O219 C198 1.256 . S
O220 Zn192 2.053 . S
O220 C198 1.244 . S
C221 O199 1.259 . S
C221 O200 1.254 . S
O222 Zn192 2.066 . S
O222 C194 1.256 . S
O223 C194 1.244 . S
O223 Zn195 2.053 . S
Zn224 O225 2.055 . S
Zn224 O232 2.046 . S
Zn224 N240 2.036 . S
Zn224 O252 2.053 . S
Zn224 O254 2.066 . S
O225 Zn224 2.055 . S
O225 C228 1.259 . S
C226 O254 1.256 . S
C226 O255 1.244 . S
Zn227 O229 2.046 . S
Zn227 O231 2.055 . S
Zn227 N233 2.036 . S
Zn227 O251 2.066 . S
Zn227 O255 2.053 . S
C228 O225 1.259 . S
C228 O229 1.254 . S
O229 Zn227 2.046 . S
O229 C228 1.254 . S
C230 O251 1.256 . S
C230 O252 1.244 . S
O231 Zn227 2.055 . S
O231 C253 1.259 . S
O232 Zn224 2.046 . S
O232 C253 1.254 . S
N233 Zn227 2.036 . S
N233 C234 1.298 . S
N233 N236 1.398 1_655 S
C234 N233 1.298 . S
C234 N237 1.367 1_655 S
C234 C247 1.481 . S
C235 N236 1.299 . S
C235 N237 1.379 . S
N236 N233 1.398 1_455 S
N236 C235 1.299 . S
N237 C234 1.367 1_455 S
N237 C235 1.379 . S
C238 N240 1.298 . S
C238 N242 1.367 . S
C238 C246 1.481 . S
C239 N241 1.299 . S
C239 N242 1.379 . S
N240 Zn224 2.036 . S
N240 C238 1.298 . S
N240 N241 1.398 . S
N241 C239 1.299 . S
N241 N240 1.398 . S
N242 C238 1.367 . S
N242 C239 1.379 . S
H243 C246 0.980 . S
H244 C246 0.981 . S
H245 C246 0.981 . S
C246 C238 1.481 . S
C246 H243 0.980 . S
C246 H244 0.981 . S
C246 H245 0.981 . S
C247 C234 1.481 . S
C247 H248 0.980 . S
C247 H249 0.981 . S
C247 H250 0.981 . S
H248 C247 0.980 . S
H249 C247 0.981 . S
H250 C247 0.981 . S
O251 Zn227 2.066 . S
O251 C230 1.256 . S
O252 Zn224 2.053 . S
O252 C230 1.244 . S
C253 O231 1.259 . S
C253 O232 1.254 . S
O254 Zn224 2.066 . S
O254 C226 1.256 . S
O255 C226 1.244 . S
O255 Zn227 2.053 . S
Zn256 O257 2.055 . S
Zn256 O264 2.046 . S
Zn256 N272 2.036 . S
Zn256 O284 2.053 . S
Zn256 O286 2.066 . S
O257 Zn256 2.055 . S
O257 C260 1.259 . S
C258 O286 1.256 . S
C258 O287 1.244 . S
Zn259 O261 2.046 . S
Zn259 O263 2.055 . S
Zn259 N265 2.036 . S
Zn259 O283 2.066 . S
Zn259 O287 2.053 . S
C260 O257 1.259 . S
C260 O261 1.254 . S
O261 Zn259 2.046 . S
O261 C260 1.254 . S
C262 O283 1.256 . S
C262 O284 1.244 . S
O263 Zn259 2.055 . S
O263 C285 1.259 . S
O264 Zn256 2.046 . S
O264 C285 1.254 . S
N265 Zn259 2.036 . S
N265 C266 1.298 . S
N265 N268 1.398 1_565 S
C266 N265 1.298 . S
C266 N269 1.367 1_565 S
C266 C279 1.481 . S
C267 N268 1.299 . S
C267 N269 1.379 . S
N268 N265 1.398 1_545 S
N268 C267 1.299 . S
N269 C266 1.367 1_545 S
N269 C267 1.379 . S
C270 N272 1.298 . S
C270 N274 1.367 . S
C270 C278 1.481 . S
C271 N273 1.299 . S
C271 N274 1.379 . S
N272 Zn256 2.036 . S
N272 C270 1.298 . S
N272 N273 1.398 . S
N273 C271 1.299 . S
N273 N272 1.398 . S
N274 C270 1.367 . S
N274 C271 1.379 . S
H275 C278 0.980 . S
H276 C278 0.981 . S
H277 C278 0.981 . S
C278 C270 1.481 . S
C278 H275 0.980 . S
C278 H276 0.981 . S
C278 H277 0.981 . S
C279 C266 1.481 . S
C279 H280 0.980 . S
C279 H281 0.981 . S
C279 H282 0.981 . S
H280 C279 0.980 . S
H281 C279 0.981 . S
H282 C279 0.981 . S
O283 Zn259 2.066 . S
O283 C262 1.256 . S
O284 Zn256 2.053 . S
O284 C262 1.244 . S
C285 O263 1.259 . S
C285 O264 1.254 . S
O286 Zn256 2.066 . S
O286 C258 1.256 . S
O287 C258 1.244 . S
O287 Zn259 2.053 . S
Zn288 O289 2.055 . S
Zn288 O296 2.046 . S
Zn288 N304 2.036 . S
Zn288 O316 2.053 . S
Zn288 O318 2.066 . S
O289 Zn288 2.055 . S
O289 C292 1.259 . S
C290 O318 1.256 . S
C290 O319 1.244 . S
Zn291 O293 2.046 . S
Zn291 O295 2.055 . S
Zn291 N297 2.036 . S
Zn291 O315 2.066 . S
Zn291 O319 2.053 . S
C292 O289 1.259 . S
C292 O293 1.254 . S
O293 Zn291 2.046 . S
O293 C292 1.254 . S
C294 O315 1.256 . S
C294 O316 1.244 . S
O295 Zn291 2.055 . S
O295 C317 1.259 . S
O296 Zn288 2.046 . S
O296 C317 1.254 . S
N297 Zn291 2.036 . S
N297 C298 1.298 . S
N297 N300 1.398 . S
C298 N297 1.298 . S
C298 N301 1.367 . S
C298 C311 1.481 . S
C299 N300 1.299 . S
C299 N301 1.379 . S
N300 N297 1.398 . S
N300 C299 1.299 . S
N301 C298 1.367 . S
N301 C299 1.379 . S
C302 N304 1.298 . S
C302 N306 1.367 . S
C302 C310 1.481 . S
C303 N305 1.299 . S
C303 N306 1.379 . S
N304 Zn288 2.036 . S
N304 C302 1.298 . S
N304 N305 1.398 . S
N305 C303 1.299 . S
N305 N304 1.398 . S
N306 C302 1.367 . S
N306 C303 1.379 . S
H307 C310 0.980 . S
H308 C310 0.981 . S
H309 C310 0.981 . S
C310 C302 1.481 . S
C310 H307 0.980 . S
C310 H308 0.981 . S
C310 H309 0.981 . S
C311 C298 1.481 . S
C311 H312 0.980 . S
C311 H313 0.981 . S
C311 H314 0.981 . S
H312 C311 0.980 . S
H313 C311 0.981 . S
H314 C311 0.981 . S
O315 Zn291 2.066 . S
O315 C294 1.256 . S
O316 Zn288 2.053 . S
O316 C294 1.244 . S
C317 O295 1.259 . S
C317 O296 1.254 . S
O318 Zn288 2.066 . S
O318 C290 1.256 . S
O319 C290 1.244 . S
O319 Zn291 2.053 . S
Zn320 O321 2.055 . S
Zn320 O328 2.046 . S
Zn320 N336 2.036 . S
Zn320 O348 2.053 . S
Zn320 O350 2.066 . S
O321 Zn320 2.055 . S
O321 C324 1.259 . S
C322 O350 1.256 . S
C322 O351 1.244 . S
Zn323 O325 2.046 . S
Zn323 O327 2.055 . S
Zn323 N329 2.036 . S
Zn323 O347 2.066 1_455 S
Zn323 O351 2.053 . S
C324 O321 1.259 . S
C324 O325 1.254 . S
O325 Zn323 2.046 . S
O325 C324 1.254 . S
C326 O347 1.256 . S
C326 O348 1.244 1_655 S
O327 Zn323 2.055 . S
O327 C349 1.259 . S
O328 Zn320 2.046 . S
O328 C349 1.254 . S
N329 Zn323 2.036 . S
N329 C330 1.298 1_455 S
N329 N332 1.398 1_455 S
C330 N329 1.298 1_655 S
C330 N333 1.367 . S
C330 C343 1.481 . S
C331 N332 1.299 . S
C331 N333 1.379 . S
N332 N329 1.398 1_655 S
N332 C331 1.299 . S
N333 C330 1.367 . S
N333 C331 1.379 . S
C334 N336 1.298 . S
C334 N338 1.367 . S
C334 C342 1.481 . S
C335 N337 1.299 . S
C335 N338 1.379 . S
N336 Zn320 2.036 . S
N336 C334 1.298 . S
N336 N337 1.398 . S
N337 C335 1.299 . S
N337 N336 1.398 . S
N338 C334 1.367 . S
N338 C335 1.379 . S
H339 C342 0.980 . S
H340 C342 0.981 . S
H341 C342 0.981 . S
C342 C334 1.481 . S
C342 H339 0.980 . S
C342 H340 0.981 . S
C342 H341 0.981 . S
C343 C330 1.481 . S
C343 H344 0.980 . S
C343 H345 0.981 . S
C343 H346 0.981 . S
H344 C343 0.980 . S
H345 C343 0.981 . S
H346 C343 0.981 . S
O347 Zn323 2.066 1_655 S
O347 C326 1.256 . S
O348 Zn320 2.053 . S
O348 C326 1.244 1_455 S
C349 O327 1.259 . S
C349 O328 1.254 . S
O350 Zn320 2.066 . S
O350 C322 1.256 . S
O351 C322 1.244 . S
O351 Zn323 2.053 . S
Zn352 O353 2.055 . S
Zn352 O360 2.046 . S
Zn352 N368 2.036 . S
Zn352 O380 2.053 . S
Zn352 O382 2.066 . S
O353 Zn352 2.055 . S
O353 C356 1.259 . S
C354 O382 1.256 . S
C354 O383 1.244 . S
Zn355 O357 2.046 . S
Zn355 O359 2.055 . S
Zn355 N361 2.036 . S
Zn355 O379 2.066 1_545 S
Zn355 O383 2.053 . S
C356 O353 1.259 . S
C356 O357 1.254 . S
O357 Zn355 2.046 . S
O357 C356 1.254 . S
C358 O379 1.256 . S
C358 O380 1.244 1_565 S
O359 Zn355 2.055 . S
O359 C381 1.259 . S
O360 Zn352 2.046 . S
O360 C381 1.254 . S
N361 Zn355 2.036 . S
N361 C362 1.298 1_545 S
N361 N364 1.398 1_545 S
C362 N361 1.298 1_565 S
C362 N365 1.367 . S
C362 C375 1.481 . S
C363 N364 1.299 . S
C363 N365 1.379 . S
N364 N361 1.398 1_565 S
N364 C363 1.299 . S
N365 C362 1.367 . S
N365 C363 1.379 . S
C366 N368 1.298 . S
C366 N370 1.367 1_655 S
C366 C374 1.481 . S
C367 N369 1.299 . S
C367 N370 1.379 . S
N368 Zn352 2.036 . S
N368 C366 1.298 . S
N368 N369 1.398 1_655 S
N369 C367 1.299 . S
N369 N368 1.398 1_455 S
N370 C366 1.367 1_455 S
N370 C367 1.379 . S
H371 C374 0.980 . S
H372 C374 0.981 . S
H373 C374 0.981 . S
C374 C366 1.481 . S
C374 H371 0.980 . S
C374 H372 0.981 . S
C374 H373 0.981 . S
C375 C362 1.481 . S
C375 H376 0.980 . S
C375 H377 0.981 . S
C375 H378 0.981 . S
H376 C375 0.980 . S
H377 C375 0.981 . S
H378 C375 0.981 . S
O379 Zn355 2.066 1_565 S
O379 C358 1.256 . S
O380 Zn352 2.053 . S
O380 C358 1.244 1_545 S
C381 O359 1.259 . S
C381 O360 1.254 . S
O382 Zn352 2.066 . S
O382 C354 1.256 . S
O383 C354 1.244 . S
O383 Zn355 2.053 . S
Zn384 O385 2.055 . S
Zn384 O392 2.046 . S
Zn384 N400 2.036 . S
Zn384 O412 2.053 . S
Zn384 O414 2.066 1_655 S
O385 Zn384 2.055 . S
O385 C388 1.259 . S
C386 O414 1.256 . S
C386 O415 1.244 1_455 S
Zn387 O389 2.046 . S
Zn387 O391 2.055 . S
Zn387 N393 2.036 . S
Zn387 O411 2.066 . S
Zn387 O415 2.053 . S
C388 O385 1.259 . S
C388 O389 1.254 . S
O389 Zn387 2.046 . S
O389 C388 1.254 . S
C390 O411 1.256 . S
C390 O412 1.244 . S
O391 Zn387 2.055 . S
O391 C413 1.259 . S
O392 Zn384 2.046 . S
O392 C413 1.254 . S
N393 Zn387 2.036 . S
N393 C394 1.298 . S
N393 N396 1.398 1_545 S
C394 N393 1.298 . S
C394 N397 1.367 1_545 S
C394 C407 1.481 . S
C395 N396 1.299 . S
C395 N397 1.379 . S
N396 N393 1.398 1_565 S
N396 C395 1.299 . S
N397 C394 1.367 1_565 S
N397 C395 1.379 . S
C398 N400 1.298 1_455 S
C398 N402 1.367 . S
C398 C406 1.481 . S
C399 N401 1.299 . S
C399 N402 1.379 . S
N400 Zn384 2.036 . S
N400 C398 1.298 1_655 S
N400 N401 1.398 1_655 S
N401 C399 1.299 . S
N401 N400 1.398 1_455 S
N402 C398 1.367 . S
N402 C399 1.379 . S
H403 C406 0.980 . S
H404 C406 0.981 . S
H405 C406 0.981 . S
C406 C398 1.481 . S
C406 H403 0.980 . S
C406 H404 0.981 . S
C406 H405 0.981 . S
C407 C394 1.481 . S
C407 H408 0.980 . S
C407 H409 0.981 . S
C407 H410 0.981 . S
H408 C407 0.980 . S
H409 C407 0.981 . S
H410 C407 0.981 . S
O411 Zn387 2.066 . S
O411 C390 1.256 . S
O412 Zn384 2.053 . S
O412 C390 1.244 . S
C413 O391 1.259 . S
C413 O392 1.254 . S
O414 Zn384 2.066 1_455 S
O414 C386 1.256 . S
O415 C386 1.244 1_655 S
O415 Zn387 2.053 . S
Zn416 O417 2.055 . S
Zn416 O424 2.046 . S
Zn416 N432 2.036 . S
Zn416 O444 2.053 . S
Zn416 O446 2.066 . S
O417 Zn416 2.055 . S
O417 C420 1.259 . S
C418 O446 1.256 . S
C418 O447 1.244 . S
Zn419 O421 2.046 . S
Zn419 O423 2.055 . S
Zn419 N425 2.036 . S
Zn419 O443 2.066 1_565 S
Zn419 O447 2.053 . S
C420 O417 1.259 . S
C420 O421 1.254 . S
O421 Zn419 2.046 . S
O421 C420 1.254 . S
C422 O443 1.256 . S
C422 O444 1.244 1_545 S
O423 Zn419 2.055 . S
O423 C445 1.259 . S
O424 Zn416 2.046 . S
O424 C445 1.254 . S
N425 Zn419 2.036 . S
N425 C426 1.298 1_565 S
N425 N428 1.398 1_565 S
C426 N425 1.298 1_545 S
C426 N429 1.367 . S
C426 C439 1.481 . S
C427 N428 1.299 . S
C427 N429 1.379 . S
N428 N425 1.398 1_545 S
N428 C427 1.299 . S
N429 C426 1.367 . S
N429 C427 1.379 . S
C430 N432 1.298 . S
C430 N434 1.367 . S
C430 C438 1.481 . S
C431 N433 1.299 . S
C431 N434 1.379 . S
N432 Zn416 2.036 . S
N432 C430 1.298 . S
N432 N433 1.398 . S
N433 C431 1.299 . S
N433 N432 1.398 . S
N434 C430 1.367 . S
N434 C431 1.379 . S
H435 C438 0.980 . S
H436 C438 0.981 . S
H437 C438 0.981 . S
C438 C430 1.481 . S
C438 H435 0.980 . S
C438 H436 0.981 . S
C438 H437 0.981 . S
C439 C426 1.481 . S
C439 H440 0.980 . S
C439 H441 0.981 . S
C439 H442 0.981 . S
H440 C439 0.980 . S
H441 C439 0.981 . S
H442 C439 0.981 . S
O443 Zn419 2.066 1_545 S
O443 C422 1.256 . S
O444 Zn416 2.053 . S
O444 C422 1.244 1_565 S
C445 O423 1.259 . S
C445 O424 1.254 . S
O446 Zn416 2.066 . S
O446 C418 1.256 . S
O447 C418 1.244 . S
O447 Zn419 2.053 . S
Zn448 O449 2.055 . S
Zn448 O456 2.046 . S
Zn448 N464 2.036 . S
Zn448 O476 2.053 . S
Zn448 O478 2.066 . S
O449 Zn448 2.055 . S
O449 C452 1.259 . S
C450 O478 1.256 . S
C450 O479 1.244 . S
Zn451 O453 2.046 . S
Zn451 O455 2.055 . S
Zn451 N457 2.036 . S
Zn451 O475 2.066 . S
Zn451 O479 2.053 . S
C452 O449 1.259 . S
C452 O453 1.254 . S
O453 Zn451 2.046 . S
O453 C452 1.254 . S
C454 O475 1.256 . S
C454 O476 1.244 . S
O455 Zn451 2.055 . S
O455 C477 1.259 . S
O456 Zn448 2.046 . S
O456 C477 1.254 . S
N457 Zn451 2.036 . S
N457 C458 1.298 . S
N457 N460 1.398 . S
C458 N457 1.298 . S
C458 N461 1.367 . S
C458 C471 1.481 . S
C459 N460 1.299 . S
C459 N461 1.379 . S
N460 N457 1.398 . S
N460 C459 1.299 . S
N461 C458 1.367 . S
N461 C459 1.379 . S
C462 N464 1.298 . S
C462 N466 1.367 . S
C462 C470 1.481 . S
C463 N465 1.299 . S
C463 N466 1.379 . S
N464 Zn448 2.036 . S
N464 C462 1.298 . S
N464 N465 1.398 . S
N465 C463 1.299 . S
N465 N464 1.398 . S
N466 C462 1.367 . S
N466 C463 1.379 . S
H467 C470 0.980 . S
H468 C470 0.981 . S
H469 C470 0.981 . S
C470 C462 1.481 . S
C470 H467 0.980 . S
C470 H468 0.981 . S
C470 H469 0.981 . S
C471 C458 1.481 . S
C471 H472 0.980 . S
C471 H473 0.981 . S
C471 H474 0.981 . S
H472 C471 0.980 . S
H473 C471 0.981 . S
H474 C471 0.981 . S
O475 Zn451 2.066 . S
O475 C454 1.256 . S
O476 Zn448 2.053 . S
O476 C454 1.244 . S
C477 O455 1.259 . S
C477 O456 1.254 . S
O478 Zn448 2.066 . S
O478 C450 1.256 . S
O479 C450 1.244 . S
O479 Zn451 2.053 . S
Zn480 O481 2.055 . S
Zn480 O488 2.046 . S
Zn480 N496 2.036 . S
Zn480 O508 2.053 . S
Zn480 O510 2.066 . S
O481 Zn480 2.055 . S
O481 C484 1.259 . S
C482 O510 1.256 . S
C482 O511 1.244 . S
Zn483 O485 2.046 . S
Zn483 O487 2.055 . S
Zn483 N489 2.036 . S
Zn483 O507 2.066 . S
Zn483 O511 2.053 . S
C484 O481 1.259 . S
C484 O485 1.254 . S
O485 Zn483 2.046 . S
O485 C484 1.254 . S
C486 O507 1.256 . S
C486 O508 1.244 . S
O487 Zn483 2.055 . S
O487 C509 1.259 . S
O488 Zn480 2.046 . S
O488 C509 1.254 . S
N489 Zn483 2.036 . S
N489 C490 1.298 . S
N489 N492 1.398 1_455 S
C490 N489 1.298 . S
C490 N493 1.367 1_455 S
C490 C503 1.481 . S
C491 N492 1.299 . S
C491 N493 1.379 . S
N492 N489 1.398 1_655 S
N492 C491 1.299 . S
N493 C490 1.367 1_655 S
N493 C491 1.379 . S
C494 N496 1.298 . S
C494 N498 1.367 . S
C494 C502 1.481 . S
C495 N497 1.299 . S
C495 N498 1.379 . S
N496 Zn480 2.036 . S
N496 C494 1.298 . S
N496 N497 1.398 . S
N497 C495 1.299 . S
N497 N496 1.398 . S
N498 C494 1.367 . S
N498 C495 1.379 . S
H499 C502 0.980 . S
H500 C502 0.981 . S
H501 C502 0.981 . S
C502 C494 1.481 . S
C502 H499 0.980 . S
C502 H500 0.981 . S
C502 H501 0.981 . S
C503 C490 1.481 . S
C503 H504 0.980 . S
C503 H505 0.981 . S
C503 H506 0.981 . S
H504 C503 0.980 . S
H505 C503 0.981 . S
H506 C503 0.981 . S
O507 Zn483 2.066 . S
O507 C486 1.256 . S
O508 Zn480 2.053 . S
O508 C486 1.244 . S
C509 O487 1.259 . S
C509 O488 1.254 . S
O510 Zn480 2.066 . S
O510 C482 1.256 . S
O511 C482 1.244 . S
O511 Zn483 2.053 . S
C4 C164 1.647 . S
C221 C61 1.647 . S
C68 C228 1.647 . S
C125 C132 1.647 . S
C445 C260 1.647 . S
C477 C317 1.647 . S
C349 C484 1.647 . S
C381 C388 1.647 . S
C2 N109 3.125 . S
C38 N18 3.125 . S
C66 N45 3.125 . S
C102 N82 3.125 . S
C130 N178 3.125 . S
N205 C162 3.125 . S
C198 N242 3.125 . S
N146 C226 3.125 . S
N365 C258 3.125 . S
C294 N274 3.125 . S
C326 N301 3.125 . S
C358 N333 3.125 . S
C386 N429 3.125 . S
C422 N461 3.125 . S
C454 N498 3.125 . S
C482 N402 3.125 . S
C29 C93 1.863 . S
C36 C100 1.863 . S
C196 C157 1.863 . S
C253 C189 1.863 . S
C324 C285 1.863 . S
C356 C292 1.863 . S
C413 C452 1.863 . S
C420 C509 1.863 . S
N13 C354 2.825 1_565 S
C262 N50 2.825 . S
N77 C290 2.825 . S
C322 N114 2.825 1_455 S
C418 N141 2.825 1_566 S
N173 C450 2.825 1_554 S
C486 N210 2.825 1_556 S
N237 C390 2.825 1_454 S
N269 C98 2.825 1_545 S
N306 C6 2.825 . S
C34 N338 2.825 . S
N370 C70 2.825 1_455 S
N397 C166 2.825 1_566 S
N434 C194 2.825 1_556 S
C230 N466 2.825 1_554 S
C134 N493 2.825 1_454 S
