# Generated by pormake.
# Topology wjt, (5)-cn, num edge types: 1
# Building blocks:
#     Node 0, Type 0, BuildingBlock: BEQFEK_clean_sbu_0, # of connection points: 5
#     Node 1, Type 0, BuildingBlock: BEQFEK_clean_sbu_0, # of connection points: 5
#     Node 2, Type 0, BuildingBlock: BEQFEK_clean_sbu_0, # of connection points: 5
#     Node 3, Type 0, BuildingBlock: BEQFEK_clean_sbu_0, # of connection points: 5
#     Node 4, Type 0, BuildingBlock: BEQFEK_clean_sbu_0, # of connection points: 5
#     Node 5, Type 0, BuildingBlock: BEQFEK_clean_sbu_0, # of connection points: 5
#     Node 6, Type 0, BuildingBlock: BEQFEK_clean_sbu_0, # of connection points: 5
#     Node 7, Type 0, BuildingBlock: BEQFEK_clean_sbu_0, # of connection points: 5
#     Node 8, Type 0, BuildingBlock: BEQFEK_clean_sbu_0, # of connection points: 5
#     Node 9, Type 0, BuildingBlock: BEQFEK_clean_sbu_0, # of connection points: 5
#     Node 10, Type 0, BuildingBlock: BEQFEK_clean_sbu_0, # of connection points: 5
#     Node 11, Type 0, BuildingBlock: BEQFEK_clean_sbu_0, # of connection points: 5
#     Edge 12, Type (0, 0), BuildingBlock: OJICUG_clean_linker_0, # of connection points: 2
#     Edge 13, Type (0, 0), BuildingBlock: OJICUG_clean_linker_0, # of connection points: 2
#     Edge 14, Type (0, 0), BuildingBlock: OJICUG_clean_linker_0, # of connection points: 2
#     Edge 15, Type (0, 0), BuildingBlock: OJICUG_clean_linker_0, # of connection points: 2
#     Edge 16, Type (0, 0), BuildingBlock: OJICUG_clean_linker_0, # of connection points: 2
#     Edge 17, Type (0, 0), BuildingBlock: OJICUG_clean_linker_0, # of connection points: 2
#     Edge 18, Type (0, 0), BuildingBlock: OJICUG_clean_linker_0, # of connection points: 2
#     Edge 19, Type (0, 0), BuildingBlock: OJICUG_clean_linker_0, # of connection points: 2
#     Edge 20, Type (0, 0), BuildingBlock: OJICUG_clean_linker_0, # of connection points: 2
#     Edge 21, Type (0, 0), BuildingBlock: OJICUG_clean_linker_0, # of connection points: 2
#     Edge 22, Type (0, 0), BuildingBlock: OJICUG_clean_linker_0, # of connection points: 2
#     Edge 23, Type (0, 0), BuildingBlock: OJICUG_clean_linker_0, # of connection points: 2
#     Edge 24, Type (0, 0), BuildingBlock: OJICUG_clean_linker_0, # of connection points: 2
#     Edge 25, Type (0, 0), BuildingBlock: OJICUG_clean_linker_0, # of connection points: 2
#     Edge 26, Type (0, 0), BuildingBlock: OJICUG_clean_linker_0, # of connection points: 2
#     Edge 27, Type (0, 0), BuildingBlock: OJICUG_clean_linker_0, # of connection points: 2
#     Edge 28, Type (0, 0), BuildingBlock: OJICUG_clean_linker_0, # of connection points: 2
#     Edge 29, Type (0, 0), BuildingBlock: OJICUG_clean_linker_0, # of connection points: 2
#     Edge 30, Type (0, 0), BuildingBlock: OJICUG_clean_linker_0, # of connection points: 2
#     Edge 31, Type (0, 0), BuildingBlock: OJICUG_clean_linker_0, # of connection points: 2
#     Edge 32, Type (0, 0), BuildingBlock: OJICUG_clean_linker_0, # of connection points: 2
#     Edge 33, Type (0, 0), BuildingBlock: OJICUG_clean_linker_0, # of connection points: 2
#     Edge 34, Type (0, 0), BuildingBlock: OJICUG_clean_linker_0, # of connection points: 2
#     Edge 35, Type (0, 0), BuildingBlock: OJICUG_clean_linker_0, # of connection points: 2
#     Edge 36, Type (0, 0), BuildingBlock: OJICUG_clean_linker_0, # of connection points: 2
#     Edge 37, Type (0, 0), BuildingBlock: OJICUG_clean_linker_0, # of connection points: 2
#     Edge 38, Type (0, 0), BuildingBlock: OJICUG_clean_linker_0, # of connection points: 2
#     Edge 39, Type (0, 0), BuildingBlock: OJICUG_clean_linker_0, # of connection points: 2
#     Edge 40, Type (0, 0), BuildingBlock: OJICUG_clean_linker_0, # of connection points: 2
#     Edge 41, Type (0, 0), BuildingBlock: OJICUG_clean_linker_0, # of connection points: 2
# Relax obj value: 0.336
# Max RMSD: 0.196
# Mean RMSD: 0.196
data_MOF--net-wjt--node1-BEQFEK_clean_sbu_0--edge1-OJICUG_clean_linker_0
_symmetry_space_group_name_H-M    P1
_symmetry_Int_Tables_number       1
_symmetry_cell_setting            triclinic
loop_
_symmetry_equiv_pos_as_xyz
'x, y, z'
_cell_length_a     51.187043
_cell_length_b     51.180593
_cell_length_c     14.298591
_cell_angle_alpha  89.984486
_cell_angle_beta   90.032149
_cell_angle_gamma 120.00861
loop_
_atom_site_label
_atom_site_type_symbol
_atom_site_fract_x
_atom_site_fract_y
_atom_site_fract_z
_atom_type_partial_charge
Co0 Co 0.32318 0.44936 0.31589 0.0
Co1 Co 0.35442 0.45686 0.12233 0.0
C2 C 0.35022 0.41176 0.2655 0.0
O3 O 0.33606 0.41941 0.32157 0.0
O4 O 0.35825 0.42388 0.18493 0.0
C5 C 0.29632 0.42374 0.48728 0.0
O6 O 0.28798 0.39754 0.44804 0.0
C7 C 0.3505 0.43775 0.92952 0.0
C8 C 0.38097 0.48091 0.85957 0.0
C9 C 0.35868 0.45132 0.84161 0.0
N10 N 0.36582 0.45885 0.99482 0.0
N11 N 0.38482 0.48432 0.95263 0.0
C12 C 0.32805 0.4057 0.9534 0.0
H13 H 0.33473 0.39914 0.01922 0.0
H14 H 0.30555 0.40332 0.96513 0.0
H15 H 0.32652 0.39027 0.89645 0.0
C16 C 0.2726 0.44168 0.1944 0.0
N17 N 0.30032 0.44534 0.20755 0.0
N18 N 0.31444 0.45114 0.12664 0.0
C19 C 0.29664 0.45303 0.06039 0.0
C20 C 0.26942 0.44627 0.10048 0.0
C21 C 0.25091 0.43667 0.27155 0.0
H22 H 0.25931 0.4579 0.31193 0.0
H23 H 0.2497 0.41915 0.32 0.0
H24 H 0.22812 0.42982 0.24368 0.0
O25 O 0.36015 0.48956 0.32048 0.0
O26 O 0.38284 0.49552 0.18346 0.0
H27 H 0.33085 0.48139 0.96176 0.0
H28 H 0.29424 0.47614 0.93664 0.0
C29 C 0.30642 0.46485 0.96322 0.0
H30 H 0.30109 0.44584 0.91537 0.0
H31 H 0.39849 0.50464 0.98731 0.0
O32 O 0.30284 0.44634 0.43529 0.0
C33 C 0.38191 0.50512 0.26486 0.0
Co34 Co 0.87225 0.32499 0.64889 0.0
Co35 Co 0.89515 0.3565 0.45518 0.0
C36 C 0.93664 0.35168 0.59397 0.0
O37 O 0.91513 0.33792 0.65124 0.0
O38 O 0.93218 0.35964 0.51383 0.0
C39 C 0.87256 0.2989 0.82077 0.0
O40 O 0.89257 0.29368 0.78063 0.0
C41 C 0.90823 0.35157 0.26156 0.0
C42 C 0.89777 0.38401 0.19359 0.0
C43 C 0.9033 0.36059 0.17497 0.0
N44 N 0.90437 0.36794 0.32781 0.0
N45 N 0.89935 0.38813 0.28676 0.0
C46 C 0.91174 0.32479 0.28246 0.0
H47 H 0.90821 0.31908 0.35796 0.0
H48 H 0.89579 0.305 0.24015 0.0
H49 H 0.93494 0.33026 0.26344 0.0
C50 C 0.82845 0.27476 0.52768 0.0
N51 N 0.85267 0.30239 0.54073 0.0
N52 N 0.86031 0.31691 0.46039 0.0
C53 C 0.83985 0.29964 0.39507 0.0
C54 C 0.81968 0.27219 0.43474 0.0
C55 C 0.81253 0.2526 0.60451 0.0
H56 H 0.79944 0.26033 0.64648 0.0
H57 H 0.82932 0.25171 0.65157 0.0
H58 H 0.79688 0.2298 0.57617 0.0
O59 O 0.86915 0.36212 0.65514 0.0
O60 O 0.88581 0.38518 0.51841 0.0
H61 H 0.84682 0.33489 0.29878 0.0
H62 H 0.81316 0.29975 0.27781 0.0
C63 C 0.83706 0.31014 0.29965 0.0
H64 H 0.84843 0.3032 0.24767 0.0
H65 H 0.89412 0.40271 0.32246 0.0
O66 O 0.85567 0.30451 0.76926 0.0
C67 C 0.87541 0.38407 0.60014 0.0
Co68 Co 0.54584 0.8729 0.98302 0.0
Co69 Co 0.53749 0.89601 0.7892 0.0
C70 C 0.5831 0.93751 0.92942 0.0
O71 O 0.57533 0.91591 0.98634 0.0
O72 O 0.57101 0.93314 0.84876 0.0
C73 C 0.57232 0.87334 0.15473 0.0
O74 O 0.59751 0.89338 0.11436 0.0
C75 C 0.55552 0.90919 0.59547 0.0
C76 C 0.51254 0.89852 0.52766 0.0
C77 C 0.54151 0.90416 0.50893 0.0
N78 N 0.53529 0.90527 0.6618 0.0
N79 N 0.51002 0.90013 0.62082 0.0
C80 C 0.58588 0.91288 0.61626 0.0
H81 H 0.58817 0.90953 0.69184 0.0
H82 H 0.58976 0.89692 0.57425 0.0
H83 H 0.60353 0.93608 0.59676 0.0
C84 C 0.55302 0.82963 0.86172 0.0
N85 N 0.54945 0.85374 0.87478 0.0
N86 N 0.5427 0.86146 0.79431 0.0
C87 C 0.53981 0.84116 0.72884 0.0
C88 C 0.54716 0.82107 0.76857 0.0
C89 C 0.55896 0.81351 0.93863 0.0
H90 H 0.53788 0.8 0.97909 0.0
H91 H 0.57621 0.83017 0.98702 0.0
H92 H 0.56655 0.79821 0.91038 0.0
O93 O 0.50538 0.86924 0.98834 0.0
O94 O 0.49922 0.88614 0.85171 0.0
H95 H 0.5111 0.84767 0.63299 0.0
H96 H 0.51283 0.8141 0.61252 0.0
C97 C 0.52623 0.83808 0.63372 0.0
H98 H 0.54439 0.84945 0.58124 0.0
H99 H 0.49021 0.89481 0.65658 0.0
O100 O 0.54982 0.85637 0.10341 0.0
C101 C 0.48972 0.87545 0.93305 0.0
Co102 Co 0.67067 0.54684 0.31734 0.0
Co103 Co 0.63959 0.53903 0.12336 0.0
C104 C 0.64389 0.58453 0.26501 0.0
O105 O 0.65794 0.57697 0.32187 0.0
O106 O 0.63588 0.5722 0.18473 0.0
C107 C 0.69751 0.57256 0.48864 0.0
O108 O 0.70569 0.59873 0.44939 0.0
C109 C 0.64333 0.55797 0.93055 0.0
C110 C 0.61316 0.51471 0.86058 0.0
C111 C 0.63522 0.54439 0.84269 0.0
N112 N 0.62819 0.53682 0.99583 0.0
N113 N 0.60936 0.51128 0.95365 0.0
C114 C 0.66557 0.5901 0.95432 0.0
H115 H 0.6586 0.59669 0.01947 0.0
H116 H 0.68808 0.59263 0.96723 0.0
H117 H 0.6672 0.60543 0.89685 0.0
C118 C 0.72125 0.55412 0.19685 0.0
N119 N 0.69353 0.55053 0.20939 0.0
N120 N 0.6795 0.54464 0.12829 0.0
C121 C 0.69734 0.54264 0.06251 0.0
C122 C 0.7245 0.54934 0.10316 0.0
C123 C 0.74288 0.55929 0.27443 0.0
H124 H 0.73427 0.53825 0.31598 0.0
H125 H 0.7443 0.57715 0.32171 0.0
H126 H 0.76561 0.56576 0.24697 0.0
O127 O 0.63359 0.50671 0.32267 0.0
O128 O 0.61112 0.50056 0.18505 0.0
H129 H 0.66336 0.51444 0.96305 0.0
H130 H 0.70013 0.52015 0.93772 0.0
C131 C 0.68774 0.53114 0.96495 0.0
H132 H 0.69292 0.55027 0.91787 0.0
H133 H 0.59585 0.49093 0.98834 0.0
O134 O 0.69104 0.54998 0.43669 0.0
C135 C 0.61191 0.49111 0.26682 0.0
Co136 Co 0.12223 0.67116 0.64995 0.0
Co137 Co 0.09862 0.64017 0.45606 0.0
C138 C 0.05769 0.64452 0.59856 0.0
O139 O 0.07942 0.65847 0.65513 0.0
O140 O 0.06185 0.63655 0.51802 0.0
C141 C 0.12357 0.69818 0.82108 0.0
O142 O 0.10582 0.7066 0.78147 0.0
C143 C 0.08356 0.64431 0.26331 0.0
C144 C 0.09592 0.61363 0.19312 0.0
C145 C 0.08876 0.63603 0.17537 0.0
N146 N 0.08926 0.6289 0.32849 0.0
N147 N 0.09554 0.60979 0.28618 0.0
C148 C 0.07418 0.66692 0.28724 0.0
H149 H 0.0944 0.6893 0.29976 0.0
H150 H 0.06053 0.66875 0.22999 0.0
H151 H 0.06075 0.66018 0.35266 0.0
C152 C 0.16555 0.72169 0.52937 0.0
N153 N 0.14129 0.69406 0.54199 0.0
N154 N 0.13303 0.68003 0.46093 0.0
C155 C 0.15294 0.69776 0.3951 0.0
C156 C 0.17354 0.72487 0.43567 0.0
C157 C 0.18222 0.74324 0.60693 0.0
H158 H 0.19463 0.7345 0.64799 0.0
H159 H 0.16593 0.74473 0.65465 0.0
H160 H 0.19853 0.76596 0.57945 0.0
O161 O 0.12532 0.63411 0.6544 0.0
O162 O 0.10862 0.61158 0.51707 0.0
H163 H 0.17831 0.7001 0.27103 0.0
H164 H 0.14123 0.69347 0.25016 0.0
C165 C 0.15486 0.68802 0.29778 0.0
H166 H 0.14683 0.66356 0.29607 0.0
H167 H 0.10209 0.59602 0.32076 0.0
O168 O 0.13953 0.69145 0.76942 0.0
C169 C 0.11911 0.6124 0.5985 0.0
Co170 Co 0.44916 0.12292 0.98279 0.0
Co171 Co 0.45663 0.09924 0.78873 0.0
C172 C 0.41193 0.05799 0.93035 0.0
O173 O 0.42001 0.07976 0.9868 0.0
O174 O 0.42352 0.06212 0.84903 0.0
C175 C 0.42239 0.12222 0.1541 0.0
O176 O 0.3973 0.10222 0.11312 0.0
C177 C 0.43869 0.08568 0.59476 0.0
C178 C 0.48202 0.09728 0.52774 0.0
C179 C 0.45289 0.09111 0.50847 0.0
N180 N 0.45896 0.08995 0.66146 0.0
N181 N 0.48444 0.09563 0.62091 0.0
C182 C 0.408 0.08122 0.61503 0.0
H183 H 0.40549 0.08443 0.69056 0.0
H184 H 0.40368 0.09687 0.57287 0.0
H185 H 0.39077 0.05788 0.59532 0.0
C186 C 0.44115 0.16565 0.86119 0.0
N187 N 0.44494 0.14167 0.87442 0.0
N188 N 0.45051 0.13323 0.79333 0.0
C189 C 0.45182 0.15257 0.72674 0.0
C190 C 0.44485 0.17287 0.76677 0.0
C191 C 0.43604 0.18231 0.93823 0.0
H192 H 0.45776 0.19685 0.97454 0.0
H193 H 0.42004 0.16604 0.99006 0.0
H194 H 0.42724 0.19669 0.91054 0.0
O195 O 0.48972 0.12706 0.9875 0.0
O196 O 0.49525 0.10972 0.85094 0.0
H197 H 0.47867 0.18055 0.61223 0.0
H198 H 0.44793 0.14483 0.57874 0.0
C199 C 0.46581 0.15634 0.63202 0.0
H200 H 0.48154 0.14746 0.63136 0.0
H201 H 0.50431 0.1013 0.657 0.0
O202 O 0.445 0.13927 0.1033 0.0
C203 C 0.50514 0.12072 0.93176 0.0
Co204 Co 0.5438 0.67066 0.34769 0.0
Co205 Co 0.53611 0.63949 0.54144 0.0
C206 C 0.58196 0.64443 0.39995 0.0
O207 O 0.57422 0.65836 0.34315 0.0
O208 O 0.56956 0.63623 0.48007 0.0
C209 C 0.56933 0.69757 0.17622 0.0
O210 O 0.59557 0.70599 0.21539 0.0
C211 C 0.55518 0.64339 0.73427 0.0
C212 C 0.51203 0.61293 0.80424 0.0
C213 C 0.54163 0.6352 0.82214 0.0
N214 N 0.53406 0.6281 0.66897 0.0
N215 N 0.5086 0.6091 0.71116 0.0
C216 C 0.58724 0.66583 0.71048 0.0
H217 H 0.59391 0.65895 0.64532 0.0
H218 H 0.58957 0.68826 0.6976 0.0
H219 H 0.60263 0.6676 0.76793 0.0
C220 C 0.55084 0.72109 0.46861 0.0
N221 N 0.54727 0.69339 0.45577 0.0
N222 N 0.54131 0.67925 0.53669 0.0
C223 C 0.53913 0.69697 0.60258 0.0
C224 C 0.54584 0.72418 0.56224 0.0
C225 C 0.55627 0.74288 0.39129 0.0
H226 H 0.53537 0.73437 0.34912 0.0
H227 H 0.57426 0.74435 0.3445 0.0
H228 H 0.56269 0.76557 0.41901 0.0
O229 O 0.50381 0.6334 0.34241 0.0
O230 O 0.49772 0.61077 0.47967 0.0
H231 H 0.51134 0.66286 0.7022 0.0
H232 H 0.51663 0.69943 0.72786 0.0
C233 C 0.52782 0.6873 0.70025 0.0
H234 H 0.54709 0.69271 0.74706 0.0
H235 H 0.48828 0.59545 0.67648 0.0
O236 O 0.54674 0.69095 0.22825 0.0
C237 C 0.48825 0.61161 0.39794 0.0
Co238 Co 0.87157 0.54572 0.68375 0.0
Co239 Co 0.89502 0.53801 0.87753 0.0
C240 C 0.93604 0.58358 0.73552 0.0
O241 O 0.91434 0.57593 0.6789 0.0
O242 O 0.93183 0.57127 0.81581 0.0
C243 C 0.87026 0.5713 0.51232 0.0
O244 O 0.88813 0.59752 0.55152 0.0
C245 C 0.91015 0.55708 0.07033 0.0
C246 C 0.89738 0.51391 0.14038 0.0
C247 C 0.90477 0.54353 0.15822 0.0
N248 N 0.90431 0.53595 0.00508 0.0
N249 N 0.89779 0.51048 0.04732 0.0
C250 C 0.91983 0.58915 0.04646 0.0
H251 H 0.9333 0.59577 0.98113 0.0
H252 H 0.89974 0.59153 0.03384 0.0
H253 H 0.93354 0.60455 0.10377 0.0
C254 C 0.82845 0.55319 0.80449 0.0
N255 N 0.85247 0.54944 0.79174 0.0
N256 N 0.8606 0.54346 0.87272 0.0
C257 C 0.84079 0.54148 0.9386 0.0
C258 C 0.82042 0.54836 0.89818 0.0
C259 C 0.81212 0.55863 0.7271 0.0
H260 H 0.79954 0.53766 0.68537 0.0
H261 H 0.82865 0.57646 0.67993 0.0
H262 H 0.796 0.56527 0.75475 0.0
O263 O 0.86862 0.50564 0.67886 0.0
O264 O 0.88514 0.49951 0.81612 0.0
H265 H 0.8468 0.51344 0.03811 0.0
H266 H 0.8155 0.51878 0.06313 0.0
C267 C 0.83891 0.52998 0.03613 0.0
H268 H 0.85269 0.54914 0.08337 0.0
H269 H 0.89109 0.49015 0.01268 0.0
O270 O 0.85424 0.5487 0.56431 0.0
C271 C 0.8748 0.49004 0.73445 0.0
Co272 Co 0.32426 0.87197 0.01598 0.0
Co273 Co 0.35566 0.89513 0.20986 0.0
C274 C 0.3513 0.93651 0.06971 0.0
O275 O 0.33753 0.91488 0.01285 0.0
O276 O 0.35908 0.9322 0.15036 0.0
C277 C 0.29814 0.87233 0.84428 0.0
O278 O 0.2929 0.89229 0.8847 0.0
C279 C 0.3508 0.90834 0.40359 0.0
C280 C 0.38316 0.89774 0.4714 0.0
C281 C 0.35981 0.90335 0.49014 0.0
N282 N 0.36711 0.90442 0.33725 0.0
N283 N 0.38726 0.89932 0.37823 0.0
C284 C 0.32412 0.91202 0.38281 0.0
H285 H 0.31837 0.90849 0.30732 0.0
H286 H 0.30433 0.89618 0.42523 0.0
H287 H 0.32974 0.93528 0.40179 0.0
C288 C 0.27376 0.82874 0.13713 0.0
N289 N 0.30151 0.85275 0.12413 0.0
N290 N 0.31596 0.86041 0.20462 0.0
C291 C 0.29851 0.84012 0.27002 0.0
C292 C 0.27103 0.8201 0.23021 0.0
C293 C 0.25161 0.8129 0.0602 0.0
H294 H 0.25922 0.79967 0.01843 0.0
H295 H 0.25089 0.82974 0.01298 0.0
H296 H 0.22876 0.79738 0.08841 0.0
O297 O 0.3612 0.86856 0.01061 0.0
O298 O 0.38422 0.88551 0.14729 0.0
H299 H 0.33359 0.84693 0.36686 0.0
H300 H 0.29835 0.81332 0.38725 0.0
C301 C 0.30885 0.83725 0.3656 0.0
H302 H 0.30189 0.84863 0.41748 0.0
H303 H 0.40178 0.89403 0.34247 0.0
O304 O 0.30377 0.85541 0.89557 0.0
C305 C 0.38311 0.87489 0.0659 0.0
Co306 Co 0.4509 0.32605 0.34923 0.0
Co307 Co 0.45718 0.35635 0.54432 0.0
C308 C 0.41226 0.35262 0.40675 0.0
O309 O 0.42114 0.33962 0.34998 0.0
O310 O 0.42349 0.36004 0.4886 0.0
C311 C 0.42449 0.30227 0.17564 0.0
O312 O 0.39847 0.29533 0.21365 0.0
C313 C 0.44377 0.36198 0.74076 0.0
C314 C 0.48922 0.37984 0.80141 0.0
C315 C 0.45899 0.36677 0.82561 0.0
N316 N 0.46392 0.36965 0.671 0.0
N317 N 0.49116 0.38159 0.7078 0.0
C318 C 0.41078 0.35012 0.72482 0.0
H319 H 0.40784 0.3631 0.66769 0.0
H320 H 0.39957 0.32624 0.70204 0.0
H321 H 0.39973 0.35209 0.78906 0.0
C322 C 0.44651 0.27629 0.46858 0.0
N323 N 0.44832 0.30329 0.45664 0.0
N324 N 0.45021 0.31569 0.53896 0.0
C325 C 0.44919 0.29656 0.6059 0.0
C326 C 0.44724 0.27125 0.56384 0.0
C327 C 0.44613 0.25685 0.38994 0.0
H328 H 0.46055 0.27114 0.33184 0.0
H329 H 0.42271 0.24333 0.36322 0.0
H330 H 0.45402 0.24128 0.41333 0.0
O331 O 0.49082 0.36223 0.34066 0.0
O332 O 0.49519 0.38459 0.47707 0.0
H333 H 0.47023 0.32076 0.73127 0.0
H334 H 0.44381 0.28134 0.75066 0.0
C335 C 0.44842 0.3014 0.70881 0.0
H336 H 0.42995 0.30587 0.72383 0.0
H337 H 0.5108 0.38838 0.66908 0.0
O338 O 0.44605 0.3058 0.22829 0.0
C339 C 0.50554 0.38403 0.39658 0.0
Co340 Co 0.12298 0.45053 0.6784 0.0
Co341 Co 0.09932 0.45789 0.87217 0.0
C342 C 0.05847 0.41246 0.72959 0.0
O343 O 0.08019 0.4203 0.67301 0.0
O344 O 0.06261 0.42459 0.81014 0.0
C345 C 0.12437 0.425 0.50703 0.0
O346 O 0.10661 0.39876 0.54626 0.0
C347 C 0.08403 0.43882 0.06501 0.0
C348 C 0.09686 0.48204 0.1348 0.0
C349 C 0.08944 0.45242 0.15285 0.0
N350 N 0.08992 0.45993 -0.00037 0.0
N351 N 0.09646 0.48543 0.04171 0.0
C352 C 0.07428 0.40672 0.04132 0.0
H353 H 0.06078 0.40009 0.97599 0.0
H354 H 0.09432 0.40427 0.02875 0.0
H355 H 0.06055 0.39137 0.09868 0.0
C356 C 0.16617 0.44316 0.7995 0.0
N357 N 0.14207 0.44677 0.78659 0.0
N358 N 0.13384 0.45261 0.86757 0.0
C359 C 0.15365 0.45465 0.93359 0.0
C360 C 0.17417 0.44798 0.89326 0.0
C361 C 0.1826 0.43785 0.72217 0.0
H362 H 0.19496 0.4588 0.6802 0.0
H363 H 0.16613 0.41989 0.67517 0.0
H364 H 0.19891 0.43148 0.74985 0.0
O365 O 0.12591 0.49061 0.67366 0.0
O366 O 0.10913 0.49638 0.81087 0.0
H367 H 0.14734 0.48235 0.03353 0.0
H368 H 0.17851 0.47693 0.05934 0.0
C369 C 0.15522 0.46582 0.03142 0.0
H370 H 0.14129 0.44651 0.0779 0.0
H371 H 0.10319 0.50575 0.00696 0.0
O372 O 0.14035 0.44762 0.55901 0.0
C373 C 0.11958 0.50604 0.72945 0.0
Co374 Co 0.67062 0.12385 0.01298 0.0
Co375 Co 0.63924 0.10057 0.20676 0.0
C376 C 0.64363 0.05926 0.06655 0.0
O377 O 0.65733 0.08089 0.00963 0.0
O378 O 0.6359 0.06356 0.14723 0.0
C379 C 0.69676 0.12354 0.84139 0.0
O380 O 0.70206 0.10361 0.88189 0.0
C381 C 0.64413 0.08738 0.40054 0.0
C382 C 0.61165 0.09781 0.46817 0.0
C383 C 0.63508 0.09232 0.48704 0.0
N384 N 0.62778 0.09123 0.33411 0.0
N385 N 0.60755 0.09622 0.37499 0.0
C386 C 0.67089 0.08384 0.3799 0.0
H387 H 0.6766 0.0873 0.30439 0.0
H388 H 0.69068 0.09979 0.42219 0.0
H389 H 0.66541 0.06064 0.39915 0.0
C390 C 0.72102 0.16726 0.13451 0.0
N391 N 0.69336 0.14308 0.12133 0.0
N392 N 0.67891 0.1353 0.20176 0.0
C393 C 0.69624 0.15563 0.26728 0.0
C394 C 0.72367 0.17582 0.22765 0.0
C395 C 0.74309 0.18339 0.05769 0.0
H396 H 0.73548 0.19685 0.01705 0.0
H397 H 0.74373 0.16674 0.00943 0.0
H398 H 0.76597 0.19874 0.08603 0.0
O399 O 0.63368 0.12728 0.00746 0.0
O400 O 0.6107 0.11023 0.1441 0.0
H401 H 0.69617 0.18243 0.38413 0.0
H402 H 0.69267 0.14717 0.41478 0.0
C403 C 0.68574 0.1585 0.36258 0.0
H404 H 0.661 0.14876 0.3634 0.0
H405 H 0.59299 0.10144 0.33915 0.0
O406 O 0.6911 0.14044 0.89261 0.0
C407 C 0.61179 0.12092 0.06279 0.0
C408 C 0.21967 0.4195 0.02002 0.0
C409 C 0.24414 0.44656 0.05245 0.0
H410 H 0.17826 0.39892 0.9417 0.0
C411 C 0.24623 0.47412 0.02872 0.0
H412 H 0.21808 0.39808 0.03639 0.0
C413 C 0.22404 0.47463 0.97321 0.0
C414 C 0.19941 0.44758 0.94136 0.0
H415 H 0.26529 0.49522 0.0519 0.0
H416 H 0.22582 0.4961 0.95624 0.0
C417 C 0.19734 0.42001 0.96486 0.0
C418 C 0.77397 0.19889 0.30475 0.0
C419 C 0.74907 0.20128 0.27577 0.0
H420 H 0.81589 0.21967 0.38041 0.0
C421 C 0.74689 0.22648 0.30247 0.0
H422 H 0.77572 0.17933 0.28586 0.0
C423 C 0.76928 0.24899 0.35797 0.0
C424 C 0.79428 0.24671 0.38663 0.0
H425 H 0.72761 0.22848 0.28152 0.0
H426 H 0.76735 0.26841 0.37748 0.0
C427 C 0.79651 0.22155 0.35984 0.0
C428 C 0.51903 0.74733 0.64137 0.0
C429 C 0.54614 0.74977 0.61021 0.0
H430 H 0.49827 0.76791 0.71944 0.0
C431 C 0.57366 0.77526 0.63428 0.0
H432 H 0.4976 0.72763 0.62406 0.0
C433 C 0.57405 0.79807 0.68919 0.0
C434 C 0.54692 0.79551 0.72073 0.0
H435 H 0.5948 0.77727 0.61174 0.0
H436 H 0.59544 0.81788 0.706 0.0
C437 C 0.51942 0.77001 0.69664 0.0
C438 C 0.76999 0.52144 0.97434 0.0
C439 C 0.79511 0.54865 0.94595 0.0
H440 H 0.72812 0.50049 0.04963 0.0
C441 C 0.79752 0.57613 0.97263 0.0
H442 H 0.768 0.50004 0.95514 0.0
C443 C 0.77497 0.57639 0.0272 0.0
C444 C 0.74991 0.54916 0.05576 0.0
H445 H 0.81702 0.59732 0.95232 0.0
H446 H 0.77684 0.59777 0.046 0.0
C447 C 0.74756 0.5217 0.02917 0.0
C448 C 0.22429 0.74748 0.36223 0.0
C449 C 0.1993 0.75012 0.38828 0.0
H450 H 0.26636 0.76744 0.28816 0.0
C451 C 0.1974 0.77526 0.35904 0.0
H452 H 0.22583 0.72794 0.38312 0.0
C453 C 0.22036 0.79764 0.30439 0.0
C454 C 0.24533 0.79496 0.27831 0.0
H455 H 0.17798 0.77734 0.37737 0.0
H456 H 0.21885 0.8172 0.28354 0.0
C457 C 0.24712 0.76972 0.30724 0.0
C458 C 0.46871 0.25147 0.68313 0.0
C459 C 0.44748 0.24577 0.61204 0.0
H460 H 0.48361 0.23273 0.79109 0.0
C461 C 0.42547 0.21588 0.59222 0.0
H462 H 0.48635 0.27432 0.69828 0.0
C463 C 0.42432 0.19217 0.64421 0.0
C464 C 0.44476 0.19811 0.71775 0.0
H465 H 0.40888 0.21091 0.53789 0.0
H466 H 0.40738 0.16917 0.62743 0.0
C467 C 0.46707 0.22786 0.7366 0.0
C468 C 0.45408 0.58077 0.26759 0.0
C469 C 0.45965 0.58583 0.36413 0.0
H470 H 0.42522 0.55116 0.16038 0.0
C471 C 0.43846 0.56511 0.42749 0.0
H472 H 0.47004 0.59627 0.21694 0.0
C473 C 0.41258 0.53949 0.395 0.0
C474 C 0.40763 0.5338 0.29848 0.0
H475 H 0.44207 0.56845 0.50223 0.0
H476 H 0.39699 0.52362 0.44569 0.0
C477 C 0.42846 0.55488 0.23511 0.0
C478 C 0.87149 0.45598 0.60395 0.0
C479 C 0.87204 0.46148 0.70053 0.0
H480 H 0.87235 0.4273 0.49644 0.0
C481 C 0.87176 0.44032 0.76368 0.0
H482 H 0.8718 0.47191 0.55343 0.0
C483 C 0.87167 0.41454 0.73091 0.0
C484 C 0.87239 0.4097 0.63434 0.0
H485 H 0.87207 0.44389 0.83845 0.0
H486 H 0.87208 0.39897 0.78138 0.0
C487 C 0.87193 0.43049 0.57121 0.0
C488 C 0.45527 0.87146 0.0632 0.0
C489 C 0.46095 0.87222 0.96672 0.0
H490 H 0.42628 0.87192 0.17033 0.0
C491 C 0.43975 0.87174 0.90329 0.0
H492 H 0.47121 0.87189 0.11391 0.0
C493 C 0.4138 0.87131 0.93568 0.0
C494 C 0.4088 0.87192 0.03217 0.0
H495 H 0.44345 0.87217 0.82856 0.0
H496 H 0.39822 0.87163 0.88499 0.0
C497 C 0.42959 0.87159 0.0956 0.0
C498 C 0.58056 0.457 0.39658 0.0
C499 C 0.58616 0.46243 0.30018 0.0
H500 H 0.55049 0.42803 0.50284 0.0
C501 C 0.56598 0.44103 0.23626 0.0
H502 H 0.59565 0.47315 0.44762 0.0
C503 C 0.54038 0.41502 0.26798 0.0
C504 C 0.53414 0.41014 0.36425 0.0
H505 H 0.56974 0.44455 0.16163 0.0
H506 H 0.52497 0.39924 0.21675 0.0
C507 C 0.55465 0.43123 0.42829 0.0
C508 C 0.12293 0.54042 0.5998 0.0
C509 C 0.12238 0.53468 0.69622 0.0
H510 H 0.12209 0.5694 0.49318 0.0
C511 C 0.12269 0.55569 0.76 0.0
H512 H 0.12258 0.52459 0.54882 0.0
C513 C 0.12283 0.58156 0.72804 0.0
C514 C 0.12212 0.58667 0.63163 0.0
H515 H 0.12238 0.55194 0.83467 0.0
H516 H 0.12243 0.59701 0.77904 0.0
C517 C 0.12252 0.56602 0.56783 0.0
C518 C 0.58089 0.12442 0.9329 0.0
C519 C 0.58614 0.124 0.02932 0.0
H520 H 0.55101 0.12348 0.82628 0.0
C521 C 0.56563 0.12468 0.09307 0.0
H522 H 0.59626 0.12384 0.88199 0.0
C523 C 0.53997 0.12494 0.06109 0.0
C524 C 0.534 0.12396 0.96472 0.0
H525 H 0.56914 0.12452 0.16775 0.0
H526 H 0.52424 0.12476 0.1121 0.0
C527 C 0.55493 0.12411 0.90092 0.0
C528 C 0.37331 0.37924 0.23924 0.0
C529 C 0.3612 0.39178 0.30063 0.0
H530 H 0.39833 0.35635 0.22483 0.0
C531 C 0.36273 0.38793 0.39771 0.0
H532 H 0.37233 0.38168 0.16425 0.0
C533 C 0.37808 0.37386 0.43273 0.0
C534 C 0.39169 0.36284 0.37138 0.0
H535 H 0.3536 0.39732 0.44711 0.0
H536 H 0.38025 0.37263 0.50776 0.0
C537 C 0.38815 0.36466 0.27424 0.0
C538 C 0.00316 0.37869 0.75773 0.0
C539 C 0.02749 0.39214 0.69532 0.0
H540 H 0.9553 0.3546 0.77437 0.0
C541 C 0.02168 0.38877 0.59841 0.0
H542 H 0.00692 0.38073 0.83261 0.0
C543 C 0.99208 0.37426 0.56476 0.0
C544 C 0.96772 0.3623 0.62731 0.0
H545 H 0.03998 0.39888 0.54828 0.0
H546 H 0.98831 0.37343 0.48999 0.0
C547 C 0.97357 0.36364 0.72407 0.0
C548 C 0.62154 0.00381 0.09456 0.0
C549 C 0.63293 0.02825 0.03237 0.0
H550 H 0.59754 0.95592 0.11055 0.0
C551 C 0.63106 0.02256 0.93542 0.0
H552 H 0.62279 0.00747 0.16945 0.0
C553 C 0.6161 0.99301 0.90138 0.0
C554 C 0.60326 0.96857 0.96357 0.0
H555 H 0.63966 0.04091 0.8854 0.0
H556 H 0.61366 0.98935 0.8265 0.0
C557 C 0.60713 0.97427 0.06052 0.0
C558 C 0.61556 0.62273 0.42904 0.0
C559 C 0.60254 0.63403 0.36637 0.0
H560 H 0.63957 0.59886 0.44589 0.0
C561 C 0.60664 0.63229 0.26958 0.0
H562 H 0.61295 0.6239 0.50385 0.0
C563 C 0.62144 0.6175 0.23612 0.0
C564 C 0.63298 0.60469 0.29876 0.0
H565 H 0.59689 0.64081 0.21925 0.0
H566 H 0.62285 0.6151 0.16129 0.0
C567 C 0.6309 0.60847 0.39558 0.0
C568 C 0.00227 0.62241 0.5706 0.0
C569 C 0.02671 0.6338 0.63283 0.0
H570 H 0.95437 0.59825 0.55451 0.0
C571 C 0.02102 0.63183 0.72976 0.0
H572 H 0.00593 0.62374 0.4957 0.0
C573 C 0.99148 0.61676 0.76371 0.0
C574 C 0.96704 0.60391 0.70145 0.0
H575 H 0.03939 0.6404 0.77977 0.0
H576 H 0.98781 0.61423 0.83858 0.0
C577 C 0.97273 0.60788 0.60455 0.0
C578 C 0.38851 0.02156 0.06254 0.0
C579 C 0.39187 0.02705 0.96544 0.0
H580 H 0.37316 0.98855 0.17203 0.0
C581 C 0.37847 0.00251 0.90376 0.0
H582 H 0.39853 0.04001 0.11217 0.0
C583 C 0.36346 0.97304 0.93835 0.0
C584 C 0.36208 0.96751 0.03534 0.0
H585 H 0.3805 0.00602 0.82878 0.0
H586 H 0.35442 0.9546 0.8886 0.0
C587 C 0.37402 0.99207 0.09712 0.0
C588 C 0.29699 0.41255 0.6572 0.0
C589 C 0.31166 0.42983 0.57825 0.0
H590 H 0.29937 0.40612 0.80287 0.0
C591 C 0.34219 0.45214 0.5846 0.0
H592 H 0.2735 0.39505 0.65335 0.0
C593 C 0.35765 0.45758 0.66909 0.0
C594 C 0.34287 0.44123 0.75 0.0
H595 H 0.35426 0.46528 0.52376 0.0
H596 H 0.38111 0.4752 0.6714 0.0
C597 C 0.31226 0.41855 0.74277 0.0
C598 C 0.86861 0.3378 0.03965 0.0
C599 C 0.8947 0.34287 0.0875 0.0
H600 H 0.84036 0.3188 0.91996 0.0
C601 C 0.91155 0.33028 0.05242 0.0
H602 H 0.85477 0.34665 0.06634 0.0
C603 C 0.90315 0.31401 0.96851 0.0
C604 C 0.87772 0.31006 0.91838 0.0
H605 H 0.93174 0.33383 0.08809 0.0
H606 H 0.91736 0.30573 0.94098 0.0
C607 C 0.8601 0.32144 0.95641 0.0
C608 C 0.53742 0.86088 0.29059 0.0
C609 C 0.56638 0.87854 0.25234 0.0
H610 H 0.50693 0.85553 0.40069 0.0
C611 C 0.58786 0.90402 0.30226 0.0
H612 H 0.52032 0.84109 0.25432 0.0
C613 C 0.58003 0.91244 0.38617 0.0
C614 C 0.55062 0.89555 0.42148 0.0
H615 H 0.61033 0.91827 0.27454 0.0
H616 H 0.59665 0.93267 0.42166 0.0
C617 C 0.5296 0.8694 0.37383 0.0
C618 C 0.68164 0.57723 0.74435 0.0
C619 C 0.65099 0.55464 0.7512 0.0
H620 H 0.72042 0.60082 0.6552 0.0
C621 C 0.63615 0.53855 0.67002 0.0
H622 H 0.69456 0.58944 0.80473 0.0
C623 C 0.65159 0.54416 0.5855 0.0
C624 C 0.68216 0.56638 0.5795 0.0
H625 H 0.61266 0.52098 0.67215 0.0
H626 H 0.63949 0.53121 0.5244 0.0
C627 C 0.69689 0.58341 0.65878 0.0
C628 C 0.103 0.68261 0.07691 0.0
C629 C 0.09443 0.65182 0.08383 0.0
H630 H 0.11877 0.72146 0.98764 0.0
C631 C 0.0953 0.63679 0.00264 0.0
H632 H 0.10398 0.69564 0.13729 0.0
C633 C 0.10529 0.65217 0.91805 0.0
C634 C 0.11418 0.68288 0.912 0.0
H635 H 0.08896 0.61319 0.00481 0.0
H636 H 0.10585 0.63993 0.85695 0.0
C637 C 0.11224 0.69782 0.99127 0.0
C638 C 0.41452 0.08266 0.3848 0.0
C639 C 0.44378 0.09978 0.42107 0.0
H640 H 0.38442 0.07671 0.27232 0.0
C641 C 0.46468 0.12622 0.37441 0.0
H642 H 0.39799 0.06222 0.41956 0.0
C643 C 0.45691 0.13479 0.29111 0.0
C644 C 0.42814 0.11691 0.25183 0.0
H645 H 0.48721 0.14028 0.40204 0.0
H646 H 0.47393 0.1548 0.25559 0.0
C647 C 0.40674 0.09113 0.30084 0.0
C648 C 0.54116 0.65159 0.07928 0.0
C649 C 0.56324 0.68221 0.08533 0.0
H650 H 0.51823 0.61261 0.99264 0.0
C651 C 0.58026 0.697 0.0061 0.0
H652 H 0.52823 0.63946 0.14033 0.0
C653 C 0.57421 0.68173 0.92055 0.0
C654 C 0.55177 0.65102 0.91365 0.0
H655 H 0.59757 0.72057 0.00971 0.0
H656 H 0.5864 0.69468 0.86021 0.0
C657 C 0.53569 0.63614 0.99478 0.0
C658 C 0.89097 0.5762 0.25665 0.0
C659 C 0.89914 0.55369 0.24973 0.0
H660 H 0.87561 0.59963 0.34584 0.0
C661 C 0.89788 0.53757 0.33085 0.0
H662 H 0.89027 0.58843 0.19633 0.0
C663 C 0.88795 0.54307 0.41535 0.0
C664 C 0.8795 0.56521 0.42142 0.0
H665 H 0.90389 0.52007 0.3287 0.0
H666 H 0.88711 0.53011 0.47639 0.0
C667 C 0.88179 0.58227 0.34221 0.0
C668 C 0.33697 0.86853 0.62509 0.0
C669 C 0.34208 0.89469 0.57758 0.0
H670 H 0.31795 0.84017 0.74449 0.0
C671 C 0.32955 0.91155 0.61299 0.0
H672 H 0.34578 0.85468 0.59814 0.0
C673 C 0.31329 0.90309 0.6969 0.0
C674 C 0.3093 0.87758 0.74669 0.0
H675 H 0.33314 0.93179 0.57758 0.0
H676 H 0.30506 0.91731 0.72471 0.0
C677 C 0.32062 0.85996 0.70832 0.0
C678 C 0.42016 0.32428 0.9258 0.0
C679 C 0.44737 0.352 0.91766 0.0
H680 H 0.39151 0.28678 0.01439 0.0
C681 C 0.46645 0.3631 0.99599 0.0
H682 H 0.40531 0.31414 0.86679 0.0
C683 C 0.45919 0.34653 0.07876 0.0
C684 C 0.43235 0.31867 0.08604 0.0
H685 H 0.48762 0.38422 0.99238 0.0
H686 H 0.47457 0.3557 0.13744 0.0
C687 C 0.41249 0.30807 0.00986 0.0
C688 C 0.11252 0.41379 0.33713 0.0
C689 C 0.11503 0.43102 0.41611 0.0
H690 H 0.10375 0.40739 0.19141 0.0
C691 C 0.10669 0.45323 0.40984 0.0
H692 H 0.11862 0.39637 0.34092 0.0
C693 C 0.09662 0.45863 0.32537 0.0
C694 C 0.09515 0.44234 0.24444 0.0
H695 H 0.10769 0.46633 0.47071 0.0
H696 H 0.0907 0.47619 0.32308 0.0
C697 C 0.10321 0.41976 0.25158 0.0
C698 C 0.66546 0.08428 0.61002 0.0
C699 C 0.6528 0.10103 0.57455 0.0
H700 H 0.69005 0.07865 0.7218 0.0
C701 C 0.65779 0.12715 0.62209 0.0
H702 H 0.66196 0.06408 0.5746 0.0
C703 C 0.67413 0.13577 0.70537 0.0
C704 C 0.68559 0.11825 0.74377 0.0
H705 H 0.64888 0.14091 0.59512 0.0
H706 H 0.67671 0.15551 0.74155 0.0
C707 C 0.68171 0.0928 0.69397 0.0
loop_
_geom_bond_atom_site_label_1
_geom_bond_atom_site_label_2
_geom_bond_distance
_geom_bond_site_symmetry_2
_ccdc_geom_bond_type
Co0 O3 1.970 . S
Co0 N17 1.989 . S
Co0 O25 1.967 . S
Co0 O32 1.920 . S
Co1 O4 1.966 . S
Co1 N10 2.022 1_554 S
Co1 N18 1.993 . S
Co1 O26 1.941 . S
C2 O3 1.258 . S
C2 O4 1.263 . S
O3 Co0 1.970 . S
O3 C2 1.258 . S
O4 Co1 1.966 . S
O4 C2 1.263 . S
C5 O6 1.235 . S
C5 O32 1.289 . S
O6 C5 1.235 . S
C7 C9 1.400 . S
C7 N10 1.351 . S
C7 C12 1.501 . S
C8 C9 1.387 . S
C8 N11 1.341 . S
C9 C7 1.400 . S
C9 C8 1.387 . S
N10 Co1 2.022 1_556 S
N10 C7 1.351 . S
N10 N11 1.365 . S
N11 C8 1.341 . S
N11 N10 1.365 . S
N11 H31 0.862 . S
C12 C7 1.501 . S
C12 H13 0.961 1_556 S
C12 H14 0.961 . S
C12 H15 0.960 . S
H13 C12 0.961 1_554 S
H14 C12 0.961 . S
H15 C12 0.960 . S
C16 N17 1.342 . S
C16 C20 1.401 . S
C16 C21 1.499 . S
N17 Co0 1.989 . S
N17 C16 1.342 . S
N17 N18 1.388 . S
N18 Co1 1.993 . S
N18 N17 1.388 . S
N18 C19 1.346 . S
C19 N18 1.346 . S
C19 C20 1.396 . S
C19 C29 1.510 1_554 S
C20 C16 1.401 . S
C20 C19 1.396 . S
C21 C16 1.499 . S
C21 H22 0.959 . S
C21 H23 0.960 . S
C21 H24 0.961 . S
H22 C21 0.959 . S
H23 C21 0.960 . S
H24 C21 0.961 . S
O25 Co0 1.967 . S
O25 C33 1.258 . S
O26 Co1 1.941 . S
O26 C33 1.266 . S
H27 C29 0.959 . S
H28 C29 0.961 . S
C29 C19 1.510 1_556 S
C29 H27 0.959 . S
C29 H28 0.961 . S
C29 H30 0.960 . S
H30 C29 0.960 . S
H31 N11 0.862 . S
O32 Co0 1.920 . S
O32 C5 1.289 . S
C33 O25 1.258 . S
C33 O26 1.266 . S
Co34 O37 1.970 . S
Co34 N51 1.989 . S
Co34 O59 1.967 . S
Co34 O66 1.920 . S
Co35 O38 1.966 . S
Co35 N44 2.022 . S
Co35 N52 1.993 . S
Co35 O60 1.941 . S
C36 O37 1.258 . S
C36 O38 1.263 . S
O37 Co34 1.970 . S
O37 C36 1.258 . S
O38 Co35 1.966 . S
O38 C36 1.263 . S
C39 O40 1.235 . S
C39 O66 1.289 . S
O40 C39 1.235 . S
C41 C43 1.400 . S
C41 N44 1.351 . S
C41 C46 1.501 . S
C42 C43 1.387 . S
C42 N45 1.341 . S
C43 C41 1.400 . S
C43 C42 1.387 . S
N44 Co35 2.022 . S
N44 C41 1.351 . S
N44 N45 1.365 . S
N45 C42 1.341 . S
N45 N44 1.365 . S
N45 H65 0.862 . S
C46 C41 1.501 . S
C46 H47 0.961 . S
C46 H48 0.961 . S
C46 H49 0.960 . S
H47 C46 0.961 . S
H48 C46 0.961 . S
H49 C46 0.960 . S
C50 N51 1.342 . S
C50 C54 1.401 . S
C50 C55 1.499 . S
N51 Co34 1.989 . S
N51 C50 1.342 . S
N51 N52 1.388 . S
N52 Co35 1.993 . S
N52 N51 1.388 . S
N52 C53 1.346 . S
C53 N52 1.346 . S
C53 C54 1.396 . S
C53 C63 1.510 . S
C54 C50 1.401 . S
C54 C53 1.396 . S
C55 C50 1.499 . S
C55 H56 0.959 . S
C55 H57 0.960 . S
C55 H58 0.961 . S
H56 C55 0.959 . S
H57 C55 0.960 . S
H58 C55 0.961 . S
O59 Co34 1.967 . S
O59 C67 1.258 . S
O60 Co35 1.941 . S
O60 C67 1.266 . S
H61 C63 0.959 . S
H62 C63 0.961 . S
C63 C53 1.510 . S
C63 H61 0.959 . S
C63 H62 0.961 . S
C63 H64 0.960 . S
H64 C63 0.960 . S
H65 N45 0.862 . S
O66 Co34 1.920 . S
O66 C39 1.289 . S
C67 O59 1.258 . S
C67 O60 1.266 . S
Co68 O71 1.970 . S
Co68 N85 1.989 . S
Co68 O93 1.967 . S
Co68 O100 1.920 1_556 S
Co69 O72 1.966 . S
Co69 N78 2.022 . S
Co69 N86 1.993 . S
Co69 O94 1.941 . S
C70 O71 1.258 . S
C70 O72 1.263 . S
O71 Co68 1.970 . S
O71 C70 1.258 . S
O72 Co69 1.966 . S
O72 C70 1.263 . S
C73 O74 1.235 . S
C73 O100 1.289 . S
O74 C73 1.235 . S
C75 C77 1.400 . S
C75 N78 1.351 . S
C75 C80 1.501 . S
C76 C77 1.387 . S
C76 N79 1.341 . S
C77 C75 1.400 . S
C77 C76 1.387 . S
N78 Co69 2.022 . S
N78 C75 1.351 . S
N78 N79 1.365 . S
N79 C76 1.341 . S
N79 N78 1.365 . S
N79 H99 0.862 . S
C80 C75 1.501 . S
C80 H81 0.961 . S
C80 H82 0.961 . S
C80 H83 0.960 . S
H81 C80 0.961 . S
H82 C80 0.961 . S
H83 C80 0.960 . S
C84 N85 1.342 . S
C84 C88 1.401 . S
C84 C89 1.499 1_556 S
N85 Co68 1.989 . S
N85 C84 1.342 . S
N85 N86 1.388 . S
N86 Co69 1.993 . S
N86 N85 1.388 . S
N86 C87 1.346 . S
C87 N86 1.346 . S
C87 C88 1.396 . S
C87 C97 1.510 . S
C88 C84 1.401 . S
C88 C87 1.396 . S
C89 C84 1.499 1_554 S
C89 H90 0.959 . S
C89 H91 0.960 . S
C89 H92 0.961 . S
H90 C89 0.959 . S
H91 C89 0.960 . S
H92 C89 0.961 . S
O93 Co68 1.967 . S
O93 C101 1.258 . S
O94 Co69 1.941 . S
O94 C101 1.266 . S
H95 C97 0.959 . S
H96 C97 0.961 . S
C97 C87 1.510 . S
C97 H95 0.959 . S
C97 H96 0.961 . S
C97 H98 0.960 . S
H98 C97 0.960 . S
H99 N79 0.862 . S
O100 Co68 1.920 1_554 S
O100 C73 1.289 . S
C101 O93 1.258 . S
C101 O94 1.266 . S
Co102 O105 1.970 . S
Co102 N119 1.989 . S
Co102 O127 1.967 . S
Co102 O134 1.920 . S
Co103 O106 1.966 . S
Co103 N112 2.022 1_554 S
Co103 N120 1.993 . S
Co103 O128 1.941 . S
C104 O105 1.258 . S
C104 O106 1.263 . S
O105 Co102 1.970 . S
O105 C104 1.258 . S
O106 Co103 1.966 . S
O106 C104 1.263 . S
C107 O108 1.235 . S
C107 O134 1.289 . S
O108 C107 1.235 . S
C109 C111 1.400 . S
C109 N112 1.351 . S
C109 C114 1.501 . S
C110 C111 1.387 . S
C110 N113 1.341 . S
C111 C109 1.400 . S
C111 C110 1.387 . S
N112 Co103 2.022 1_556 S
N112 C109 1.351 . S
N112 N113 1.365 . S
N113 C110 1.341 . S
N113 N112 1.365 . S
N113 H133 0.862 . S
C114 C109 1.501 . S
C114 H115 0.961 1_556 S
C114 H116 0.961 . S
C114 H117 0.960 . S
H115 C114 0.961 1_554 S
H116 C114 0.961 . S
H117 C114 0.960 . S
C118 N119 1.342 . S
C118 C122 1.401 . S
C118 C123 1.499 . S
N119 Co102 1.989 . S
N119 C118 1.342 . S
N119 N120 1.388 . S
N120 Co103 1.993 . S
N120 N119 1.388 . S
N120 C121 1.346 . S
C121 N120 1.346 . S
C121 C122 1.396 . S
C121 C131 1.510 1_554 S
C122 C118 1.401 . S
C122 C121 1.396 . S
C123 C118 1.499 . S
C123 H124 0.959 . S
C123 H125 0.960 . S
C123 H126 0.961 . S
H124 C123 0.959 . S
H125 C123 0.960 . S
H126 C123 0.961 . S
O127 Co102 1.967 . S
O127 C135 1.258 . S
O128 Co103 1.941 . S
O128 C135 1.266 . S
H129 C131 0.959 . S
H130 C131 0.961 . S
C131 C121 1.510 1_556 S
C131 H129 0.959 . S
C131 H130 0.961 . S
C131 H132 0.960 . S
H132 C131 0.960 . S
H133 N113 0.862 . S
O134 Co102 1.920 . S
O134 C107 1.289 . S
C135 O127 1.258 . S
C135 O128 1.266 . S
Co136 O139 1.970 . S
Co136 N153 1.989 . S
Co136 O161 1.967 . S
Co136 O168 1.920 . S
Co137 O140 1.966 . S
Co137 N146 2.022 . S
Co137 N154 1.993 . S
Co137 O162 1.941 . S
C138 O139 1.258 . S
C138 O140 1.263 . S
O139 Co136 1.970 . S
O139 C138 1.258 . S
O140 Co137 1.966 . S
O140 C138 1.263 . S
C141 O142 1.235 . S
C141 O168 1.289 . S
O142 C141 1.235 . S
C143 C145 1.400 . S
C143 N146 1.351 . S
C143 C148 1.501 . S
C144 C145 1.387 . S
C144 N147 1.341 . S
C145 C143 1.400 . S
C145 C144 1.387 . S
N146 Co137 2.022 . S
N146 C143 1.351 . S
N146 N147 1.365 . S
N147 C144 1.341 . S
N147 N146 1.365 . S
N147 H167 0.862 . S
C148 C143 1.501 . S
C148 H149 0.961 . S
C148 H150 0.961 . S
C148 H151 0.960 . S
H149 C148 0.961 . S
H150 C148 0.961 . S
H151 C148 0.960 . S
C152 N153 1.342 . S
C152 C156 1.401 . S
C152 C157 1.499 . S
N153 Co136 1.989 . S
N153 C152 1.342 . S
N153 N154 1.388 . S
N154 Co137 1.993 . S
N154 N153 1.388 . S
N154 C155 1.346 . S
C155 N154 1.346 . S
C155 C156 1.396 . S
C155 C165 1.510 . S
C156 C152 1.401 . S
C156 C155 1.396 . S
C157 C152 1.499 . S
C157 H158 0.959 . S
C157 H159 0.960 . S
C157 H160 0.961 . S
H158 C157 0.959 . S
H159 C157 0.960 . S
H160 C157 0.961 . S
O161 Co136 1.967 . S
O161 C169 1.258 . S
O162 Co137 1.941 . S
O162 C169 1.266 . S
H163 C165 0.959 . S
H164 C165 0.961 . S
C165 C155 1.510 . S
C165 H163 0.959 . S
C165 H164 0.961 . S
C165 H166 0.960 . S
H166 C165 0.960 . S
H167 N147 0.862 . S
O168 Co136 1.920 . S
O168 C141 1.289 . S
C169 O161 1.258 . S
C169 O162 1.266 . S
Co170 O173 1.970 . S
Co170 N187 1.989 . S
Co170 O195 1.967 . S
Co170 O202 1.920 1_556 S
Co171 O174 1.966 . S
Co171 N180 2.022 . S
Co171 N188 1.993 . S
Co171 O196 1.941 . S
C172 O173 1.258 . S
C172 O174 1.263 . S
O173 Co170 1.970 . S
O173 C172 1.258 . S
O174 Co171 1.966 . S
O174 C172 1.263 . S
C175 O176 1.235 . S
C175 O202 1.289 . S
O176 C175 1.235 . S
C177 C179 1.400 . S
C177 N180 1.351 . S
C177 C182 1.501 . S
C178 C179 1.387 . S
C178 N181 1.341 . S
C179 C177 1.400 . S
C179 C178 1.387 . S
N180 Co171 2.022 . S
N180 C177 1.351 . S
N180 N181 1.365 . S
N181 C178 1.341 . S
N181 N180 1.365 . S
N181 H201 0.862 . S
C182 C177 1.501 . S
C182 H183 0.961 . S
C182 H184 0.961 . S
C182 H185 0.960 . S
H183 C182 0.961 . S
H184 C182 0.961 . S
H185 C182 0.960 . S
C186 N187 1.342 . S
C186 C190 1.401 . S
C186 C191 1.499 1_556 S
N187 Co170 1.989 . S
N187 C186 1.342 . S
N187 N188 1.388 . S
N188 Co171 1.993 . S
N188 N187 1.388 . S
N188 C189 1.346 . S
C189 N188 1.346 . S
C189 C190 1.396 . S
C189 C199 1.510 . S
C190 C186 1.401 . S
C190 C189 1.396 . S
C191 C186 1.499 1_554 S
C191 H192 0.959 . S
C191 H193 0.960 . S
C191 H194 0.961 . S
H192 C191 0.959 . S
H193 C191 0.960 . S
H194 C191 0.961 . S
O195 Co170 1.967 . S
O195 C203 1.258 . S
O196 Co171 1.941 . S
O196 C203 1.266 . S
H197 C199 0.959 . S
H198 C199 0.961 . S
C199 C189 1.510 . S
C199 H197 0.959 . S
C199 H198 0.961 . S
C199 H200 0.960 . S
H200 C199 0.960 . S
H201 N181 0.862 . S
O202 Co170 1.920 1_554 S
O202 C175 1.289 . S
C203 O195 1.258 . S
C203 O196 1.266 . S
Co204 O207 1.970 . S
Co204 N221 1.989 . S
Co204 O229 1.967 . S
Co204 O236 1.920 . S
Co205 O208 1.966 . S
Co205 N214 2.022 . S
Co205 N222 1.993 . S
Co205 O230 1.941 . S
C206 O207 1.258 . S
C206 O208 1.263 . S
O207 Co204 1.970 . S
O207 C206 1.258 . S
O208 Co205 1.966 . S
O208 C206 1.263 . S
C209 O210 1.235 . S
C209 O236 1.289 . S
O210 C209 1.235 . S
C211 C213 1.400 . S
C211 N214 1.351 . S
C211 C216 1.501 . S
C212 C213 1.387 . S
C212 N215 1.341 . S
C213 C211 1.400 . S
C213 C212 1.387 . S
N214 Co205 2.022 . S
N214 C211 1.351 . S
N214 N215 1.365 . S
N215 C212 1.341 . S
N215 N214 1.365 . S
N215 H235 0.862 . S
C216 C211 1.501 . S
C216 H217 0.961 . S
C216 H218 0.961 . S
C216 H219 0.960 . S
H217 C216 0.961 . S
H218 C216 0.961 . S
H219 C216 0.960 . S
C220 N221 1.342 . S
C220 C224 1.401 . S
C220 C225 1.499 . S
N221 Co204 1.989 . S
N221 C220 1.342 . S
N221 N222 1.388 . S
N222 Co205 1.993 . S
N222 N221 1.388 . S
N222 C223 1.346 . S
C223 N222 1.346 . S
C223 C224 1.396 . S
C223 C233 1.510 . S
C224 C220 1.401 . S
C224 C223 1.396 . S
C225 C220 1.499 . S
C225 H226 0.959 . S
C225 H227 0.960 . S
C225 H228 0.961 . S
H226 C225 0.959 . S
H227 C225 0.960 . S
H228 C225 0.961 . S
O229 Co204 1.967 . S
O229 C237 1.258 . S
O230 Co205 1.941 . S
O230 C237 1.266 . S
H231 C233 0.959 . S
H232 C233 0.961 . S
C233 C223 1.510 . S
C233 H231 0.959 . S
C233 H232 0.961 . S
C233 H234 0.960 . S
H234 C233 0.960 . S
H235 N215 0.862 . S
O236 Co204 1.920 . S
O236 C209 1.289 . S
C237 O229 1.258 . S
C237 O230 1.266 . S
Co238 O241 1.970 . S
Co238 N255 1.989 . S
Co238 O263 1.967 . S
Co238 O270 1.920 . S
Co239 O242 1.966 . S
Co239 N248 2.022 1_556 S
Co239 N256 1.993 . S
Co239 O264 1.941 . S
C240 O241 1.258 . S
C240 O242 1.263 . S
O241 Co238 1.970 . S
O241 C240 1.258 . S
O242 Co239 1.966 . S
O242 C240 1.263 . S
C243 O244 1.235 . S
C243 O270 1.289 . S
O244 C243 1.235 . S
C245 C247 1.400 . S
C245 N248 1.351 . S
C245 C250 1.501 . S
C246 C247 1.387 . S
C246 N249 1.341 . S
C247 C245 1.400 . S
C247 C246 1.387 . S
N248 Co239 2.022 1_554 S
N248 C245 1.351 . S
N248 N249 1.365 . S
N249 C246 1.341 . S
N249 N248 1.365 . S
N249 H269 0.862 . S
C250 C245 1.501 . S
C250 H251 0.961 1_554 S
C250 H252 0.961 . S
C250 H253 0.960 . S
H251 C250 0.961 1_556 S
H252 C250 0.961 . S
H253 C250 0.960 . S
C254 N255 1.342 . S
C254 C258 1.401 . S
C254 C259 1.499 . S
N255 Co238 1.989 . S
N255 C254 1.342 . S
N255 N256 1.388 . S
N256 Co239 1.993 . S
N256 N255 1.388 . S
N256 C257 1.346 . S
C257 N256 1.346 . S
C257 C258 1.396 . S
C257 C267 1.510 1_556 S
C258 C254 1.401 . S
C258 C257 1.396 . S
C259 C254 1.499 . S
C259 H260 0.959 . S
C259 H261 0.960 . S
C259 H262 0.961 . S
H260 C259 0.959 . S
H261 C259 0.960 . S
H262 C259 0.961 . S
O263 Co238 1.967 . S
O263 C271 1.258 . S
O264 Co239 1.941 . S
O264 C271 1.266 . S
H265 C267 0.959 . S
H266 C267 0.961 . S
C267 C257 1.510 1_554 S
C267 H265 0.959 . S
C267 H266 0.961 . S
C267 H268 0.960 . S
H268 C267 0.960 . S
H269 N249 0.862 . S
O270 Co238 1.920 . S
O270 C243 1.289 . S
C271 O263 1.258 . S
C271 O264 1.266 . S
Co272 O275 1.970 . S
Co272 N289 1.989 . S
Co272 O297 1.967 . S
Co272 O304 1.920 1_554 S
Co273 O276 1.966 . S
Co273 N282 2.022 . S
Co273 N290 1.993 . S
Co273 O298 1.941 . S
C274 O275 1.258 . S
C274 O276 1.263 . S
O275 Co272 1.970 . S
O275 C274 1.258 . S
O276 Co273 1.966 . S
O276 C274 1.263 . S
C277 O278 1.235 . S
C277 O304 1.289 . S
O278 C277 1.235 . S
C279 C281 1.400 . S
C279 N282 1.351 . S
C279 C284 1.501 . S
C280 C281 1.387 . S
C280 N283 1.341 . S
C281 C279 1.400 . S
C281 C280 1.387 . S
N282 Co273 2.022 . S
N282 C279 1.351 . S
N282 N283 1.365 . S
N283 C280 1.341 . S
N283 N282 1.365 . S
N283 H303 0.862 . S
C284 C279 1.501 . S
C284 H285 0.961 . S
C284 H286 0.961 . S
C284 H287 0.960 . S
H285 C284 0.961 . S
H286 C284 0.961 . S
H287 C284 0.960 . S
C288 N289 1.342 . S
C288 C292 1.401 . S
C288 C293 1.499 1_554 S
N289 Co272 1.989 . S
N289 C288 1.342 . S
N289 N290 1.388 . S
N290 Co273 1.993 . S
N290 N289 1.388 . S
N290 C291 1.346 . S
C291 N290 1.346 . S
C291 C292 1.396 . S
C291 C301 1.510 . S
C292 C288 1.401 . S
C292 C291 1.396 . S
C293 C288 1.499 1_556 S
C293 H294 0.959 . S
C293 H295 0.960 . S
C293 H296 0.961 . S
H294 C293 0.959 . S
H295 C293 0.960 . S
H296 C293 0.961 . S
O297 Co272 1.967 . S
O297 C305 1.258 . S
O298 Co273 1.941 . S
O298 C305 1.266 . S
H299 C301 0.959 . S
H300 C301 0.961 . S
C301 C291 1.510 . S
C301 H299 0.959 . S
C301 H300 0.961 . S
C301 H302 0.960 . S
H302 C301 0.960 . S
H303 N283 0.862 . S
O304 Co272 1.920 1_556 S
O304 C277 1.289 . S
C305 O297 1.258 . S
C305 O298 1.266 . S
Co306 O309 1.970 . S
Co306 N323 1.989 . S
Co306 O331 1.967 . S
Co306 O338 1.920 . S
Co307 O310 1.966 . S
Co307 N316 2.022 . S
Co307 N324 1.993 . S
Co307 O332 1.941 . S
C308 O309 1.258 . S
C308 O310 1.263 . S
O309 Co306 1.970 . S
O309 C308 1.258 . S
O310 Co307 1.966 . S
O310 C308 1.263 . S
C311 O312 1.235 . S
C311 O338 1.289 . S
O312 C311 1.235 . S
C313 C315 1.400 . S
C313 N316 1.351 . S
C313 C318 1.501 . S
C314 C315 1.387 . S
C314 N317 1.341 . S
C315 C313 1.400 . S
C315 C314 1.387 . S
N316 Co307 2.022 . S
N316 C313 1.351 . S
N316 N317 1.365 . S
N317 C314 1.341 . S
N317 N316 1.365 . S
N317 H337 0.862 . S
C318 C313 1.501 . S
C318 H319 0.961 . S
C318 H320 0.961 . S
C318 H321 0.960 . S
H319 C318 0.961 . S
H320 C318 0.961 . S
H321 C318 0.960 . S
C322 N323 1.342 . S
C322 C326 1.401 . S
C322 C327 1.499 . S
N323 Co306 1.989 . S
N323 C322 1.342 . S
N323 N324 1.388 . S
N324 Co307 1.993 . S
N324 N323 1.388 . S
N324 C325 1.346 . S
C325 N324 1.346 . S
C325 C326 1.396 . S
C325 C335 1.510 . S
C326 C322 1.401 . S
C326 C325 1.396 . S
C327 C322 1.499 . S
C327 H328 0.959 . S
C327 H329 0.960 . S
C327 H330 0.961 . S
H328 C327 0.959 . S
H329 C327 0.960 . S
H330 C327 0.961 . S
O331 Co306 1.967 . S
O331 C339 1.258 . S
O332 Co307 1.941 . S
O332 C339 1.266 . S
H333 C335 0.959 . S
H334 C335 0.961 . S
C335 C325 1.510 . S
C335 H333 0.959 . S
C335 H334 0.961 . S
C335 H336 0.960 . S
H336 C335 0.960 . S
H337 N317 0.862 . S
O338 Co306 1.920 . S
O338 C311 1.289 . S
C339 O331 1.258 . S
C339 O332 1.266 . S
Co340 O343 1.970 . S
Co340 N357 1.989 . S
Co340 O365 1.967 . S
Co340 O372 1.920 . S
Co341 O344 1.966 . S
Co341 N350 2.022 1_556 S
Co341 N358 1.993 . S
Co341 O366 1.941 . S
C342 O343 1.258 . S
C342 O344 1.263 . S
O343 Co340 1.970 . S
O343 C342 1.258 . S
O344 Co341 1.966 . S
O344 C342 1.263 . S
C345 O346 1.235 . S
C345 O372 1.289 . S
O346 C345 1.235 . S
C347 C349 1.400 . S
C347 N350 1.351 . S
C347 C352 1.501 . S
C348 C349 1.387 . S
C348 N351 1.341 . S
C349 C347 1.400 . S
C349 C348 1.387 . S
N350 Co341 2.022 1_554 S
N350 C347 1.351 . S
N350 N351 1.365 . S
N351 C348 1.341 . S
N351 N350 1.365 . S
N351 H371 0.862 . S
C352 C347 1.501 . S
C352 H353 0.961 1_554 S
C352 H354 0.961 . S
C352 H355 0.960 . S
H353 C352 0.961 1_556 S
H354 C352 0.961 . S
H355 C352 0.960 . S
C356 N357 1.342 . S
C356 C360 1.401 . S
C356 C361 1.499 . S
N357 Co340 1.989 . S
N357 C356 1.342 . S
N357 N358 1.388 . S
N358 Co341 1.993 . S
N358 N357 1.388 . S
N358 C359 1.346 . S
C359 N358 1.346 . S
C359 C360 1.396 . S
C359 C369 1.510 1_556 S
C360 C356 1.401 . S
C360 C359 1.396 . S
C361 C356 1.499 . S
C361 H362 0.959 . S
C361 H363 0.960 . S
C361 H364 0.961 . S
H362 C361 0.959 . S
H363 C361 0.960 . S
H364 C361 0.961 . S
O365 Co340 1.967 . S
O365 C373 1.258 . S
O366 Co341 1.941 . S
O366 C373 1.266 . S
H367 C369 0.959 . S
H368 C369 0.961 . S
C369 C359 1.510 1_554 S
C369 H367 0.959 . S
C369 H368 0.961 . S
C369 H370 0.960 . S
H370 C369 0.960 . S
H371 N351 0.862 . S
O372 Co340 1.920 . S
O372 C345 1.289 . S
C373 O365 1.258 . S
C373 O366 1.266 . S
Co374 O377 1.970 . S
Co374 N391 1.989 . S
Co374 O399 1.967 . S
Co374 O406 1.920 1_554 S
Co375 O378 1.966 . S
Co375 N384 2.022 . S
Co375 N392 1.993 . S
Co375 O400 1.941 . S
C376 O377 1.258 . S
C376 O378 1.263 . S
O377 Co374 1.970 . S
O377 C376 1.258 . S
O378 Co375 1.966 . S
O378 C376 1.263 . S
C379 O380 1.235 . S
C379 O406 1.289 . S
O380 C379 1.235 . S
C381 C383 1.400 . S
C381 N384 1.351 . S
C381 C386 1.501 . S
C382 C383 1.387 . S
C382 N385 1.341 . S
C383 C381 1.400 . S
C383 C382 1.387 . S
N384 Co375 2.022 . S
N384 C381 1.351 . S
N384 N385 1.365 . S
N385 C382 1.341 . S
N385 N384 1.365 . S
N385 H405 0.862 . S
C386 C381 1.501 . S
C386 H387 0.961 . S
C386 H388 0.961 . S
C386 H389 0.960 . S
H387 C386 0.961 . S
H388 C386 0.961 . S
H389 C386 0.960 . S
C390 N391 1.342 . S
C390 C394 1.401 . S
C390 C395 1.499 1_554 S
N391 Co374 1.989 . S
N391 C390 1.342 . S
N391 N392 1.388 . S
N392 Co375 1.993 . S
N392 N391 1.388 . S
N392 C393 1.346 . S
C393 N392 1.346 . S
C393 C394 1.396 . S
C393 C403 1.510 . S
C394 C390 1.401 . S
C394 C393 1.396 . S
C395 C390 1.499 1_556 S
C395 H396 0.959 . S
C395 H397 0.960 . S
C395 H398 0.961 . S
H396 C395 0.959 . S
H397 C395 0.960 . S
H398 C395 0.961 . S
O399 Co374 1.967 . S
O399 C407 1.258 . S
O400 Co375 1.941 . S
O400 C407 1.266 . S
H401 C403 0.959 . S
H402 C403 0.961 . S
C403 C393 1.510 . S
C403 H401 0.959 . S
C403 H402 0.961 . S
C403 H404 0.960 . S
H404 C403 0.960 . S
H405 N385 0.862 . S
O406 Co374 1.920 1_556 S
O406 C379 1.289 . S
C407 O399 1.258 . S
C407 O400 1.266 . S
C408 C409 1.387 . S
C408 H412 0.950 . S
C408 C417 1.390 1_554 S
C409 C408 1.387 . S
C409 C411 1.387 . S
H410 C417 0.950 . S
C411 C409 1.387 . S
C411 C413 1.390 1_554 S
C411 H415 0.950 . S
H412 C408 0.950 . S
C413 C411 1.390 1_556 S
C413 C414 1.387 . S
C413 H416 0.950 . S
C414 C413 1.387 . S
C414 C417 1.387 . S
H415 C411 0.950 . S
H416 C413 0.950 . S
C417 C408 1.390 1_556 S
C417 H410 0.950 . S
C417 C414 1.387 . S
C418 C419 1.387 . S
C418 H422 0.950 . S
C418 C427 1.390 . S
C419 C418 1.387 . S
C419 C421 1.387 . S
H420 C427 0.950 . S
C421 C419 1.387 . S
C421 C423 1.390 . S
C421 H425 0.950 . S
H422 C418 0.950 . S
C423 C421 1.390 . S
C423 C424 1.387 . S
C423 H426 0.950 . S
C424 C423 1.387 . S
C424 C427 1.387 . S
H425 C421 0.950 . S
H426 C423 0.950 . S
C427 C418 1.390 . S
C427 H420 0.950 . S
C427 C424 1.387 . S
C428 C429 1.387 . S
C428 H432 0.950 . S
C428 C437 1.390 . S
C429 C428 1.387 . S
C429 C431 1.387 . S
H430 C437 0.950 . S
C431 C429 1.387 . S
C431 C433 1.390 . S
C431 H435 0.950 . S
H432 C428 0.950 . S
C433 C431 1.390 . S
C433 C434 1.387 . S
C433 H436 0.950 . S
C434 C433 1.387 . S
C434 C437 1.387 . S
H435 C431 0.950 . S
H436 C433 0.950 . S
C437 C428 1.390 . S
C437 H430 0.950 . S
C437 C434 1.387 . S
C438 C439 1.387 . S
C438 H442 0.950 . S
C438 C447 1.390 1_556 S
C439 C438 1.387 . S
C439 C441 1.387 . S
H440 C447 0.950 . S
C441 C439 1.387 . S
C441 C443 1.390 1_556 S
C441 H445 0.950 . S
H442 C438 0.950 . S
C443 C441 1.390 1_554 S
C443 C444 1.387 . S
C443 H446 0.950 . S
C444 C443 1.387 . S
C444 C447 1.387 . S
H445 C441 0.950 . S
H446 C443 0.950 . S
C447 C438 1.390 1_554 S
C447 H440 0.950 . S
C447 C444 1.387 . S
C448 C449 1.387 . S
C448 H452 0.950 . S
C448 C457 1.390 . S
C449 C448 1.387 . S
C449 C451 1.387 . S
H450 C457 0.950 . S
C451 C449 1.387 . S
C451 C453 1.390 . S
C451 H455 0.950 . S
H452 C448 0.950 . S
C453 C451 1.390 . S
C453 C454 1.387 . S
C453 H456 0.950 . S
C454 C453 1.387 . S
C454 C457 1.387 . S
H455 C451 0.950 . S
H456 C453 0.950 . S
C457 C448 1.390 . S
C457 H450 0.950 . S
C457 C454 1.387 . S
C458 C459 1.387 . S
C458 H462 0.950 . S
C458 C467 1.390 . S
C459 C458 1.387 . S
C459 C461 1.387 . S
H460 C467 0.950 . S
C461 C459 1.387 . S
C461 C463 1.390 . S
C461 H465 0.950 . S
H462 C458 0.950 . S
C463 C461 1.390 . S
C463 C464 1.387 . S
C463 H466 0.950 . S
C464 C463 1.387 . S
C464 C467 1.387 . S
H465 C461 0.950 . S
H466 C463 0.950 . S
C467 C458 1.390 . S
C467 H460 0.950 . S
C467 C464 1.387 . S
C468 C469 1.387 . S
C468 H472 0.950 . S
C468 C477 1.390 . S
C469 C468 1.387 . S
C469 C471 1.387 . S
H470 C477 0.950 . S
C471 C469 1.387 . S
C471 C473 1.390 . S
C471 H475 0.950 . S
H472 C468 0.950 . S
C473 C471 1.390 . S
C473 C474 1.387 . S
C473 H476 0.950 . S
C474 C473 1.387 . S
C474 C477 1.387 . S
H475 C471 0.950 . S
H476 C473 0.950 . S
C477 C468 1.390 . S
C477 H470 0.950 . S
C477 C474 1.387 . S
C478 C479 1.387 . S
C478 H482 0.950 . S
C478 C487 1.390 . S
C479 C478 1.387 . S
C479 C481 1.387 . S
H480 C487 0.950 . S
C481 C479 1.387 . S
C481 C483 1.390 . S
C481 H485 0.950 . S
H482 C478 0.950 . S
C483 C481 1.390 . S
C483 C484 1.387 . S
C483 H486 0.950 . S
C484 C483 1.387 . S
C484 C487 1.387 . S
H485 C481 0.950 . S
H486 C483 0.950 . S
C487 C478 1.390 . S
C487 H480 0.950 . S
C487 C484 1.387 . S
C488 C489 1.387 . S
C488 H492 0.950 . S
C488 C497 1.390 1_556 S
C489 C488 1.387 . S
C489 C491 1.387 . S
H490 C497 0.950 . S
C491 C489 1.387 . S
C491 C493 1.390 1_556 S
C491 H495 0.950 . S
H492 C488 0.950 . S
C493 C491 1.390 1_554 S
C493 C494 1.387 . S
C493 H496 0.950 . S
C494 C493 1.387 . S
C494 C497 1.387 . S
H495 C491 0.950 . S
H496 C493 0.950 . S
C497 C488 1.390 1_554 S
C497 H490 0.950 . S
C497 C494 1.387 . S
C498 C499 1.387 . S
C498 H502 0.950 . S
C498 C507 1.390 . S
C499 C498 1.387 . S
C499 C501 1.387 . S
H500 C507 0.950 . S
C501 C499 1.387 . S
C501 C503 1.390 . S
C501 H505 0.950 . S
H502 C498 0.950 . S
C503 C501 1.390 . S
C503 C504 1.387 . S
C503 H506 0.950 . S
C504 C503 1.387 . S
C504 C507 1.387 . S
H505 C501 0.950 . S
H506 C503 0.950 . S
C507 C498 1.390 . S
C507 H500 0.950 . S
C507 C504 1.387 . S
C508 C509 1.387 . S
C508 H512 0.950 . S
C508 C517 1.390 . S
C509 C508 1.387 . S
C509 C511 1.387 . S
H510 C517 0.950 . S
C511 C509 1.387 . S
C511 C513 1.390 . S
C511 H515 0.950 . S
H512 C508 0.950 . S
C513 C511 1.390 . S
C513 C514 1.387 . S
C513 H516 0.950 . S
C514 C513 1.387 . S
C514 C517 1.387 . S
H515 C511 0.950 . S
H516 C513 0.950 . S
C517 C508 1.390 . S
C517 H510 0.950 . S
C517 C514 1.387 . S
C518 C519 1.387 . S
C518 H522 0.950 . S
C518 C527 1.390 1_554 S
C519 C518 1.387 . S
C519 C521 1.387 . S
H520 C527 0.950 . S
C521 C519 1.387 . S
C521 C523 1.390 1_554 S
C521 H525 0.950 . S
H522 C518 0.950 . S
C523 C521 1.390 1_556 S
C523 C524 1.387 . S
C523 H526 0.950 . S
C524 C523 1.387 . S
C524 C527 1.387 . S
H525 C521 0.950 . S
H526 C523 0.950 . S
C527 C518 1.390 1_556 S
C527 H520 0.950 . S
C527 C524 1.387 . S
C528 C529 1.387 . S
C528 H532 0.950 . S
C528 C537 1.390 . S
C529 C528 1.387 . S
C529 C531 1.387 . S
H530 C537 0.950 . S
C531 C529 1.387 . S
C531 C533 1.390 . S
C531 H535 0.950 . S
H532 C528 0.950 . S
C533 C531 1.390 . S
C533 C534 1.387 . S
C533 H536 0.950 . S
C534 C533 1.387 . S
C534 C537 1.387 . S
H535 C531 0.950 . S
H536 C533 0.950 . S
C537 C528 1.390 . S
C537 H530 0.950 . S
C537 C534 1.387 . S
C538 C539 1.428 . S
C538 H542 0.941 . S
C538 C547 1.360 1_455 S
C539 C538 1.428 . S
C539 C541 1.387 . S
H540 C547 0.950 . S
C541 C539 1.387 . S
C541 C543 1.359 1_455 S
C541 H545 0.950 . S
H542 C538 0.941 . S
C543 C541 1.359 1_655 S
C543 C544 1.428 . S
C543 H546 0.941 . S
C544 C543 1.428 . S
C544 C547 1.387 . S
H545 C541 0.950 . S
H546 C543 0.941 . S
C547 C538 1.360 1_655 S
C547 H540 0.950 . S
C547 C544 1.387 . S
C548 C549 1.387 . S
C548 H552 0.950 . S
C548 C557 1.390 1_544 S
C549 C548 1.387 . S
C549 C551 1.387 . S
H550 C557 0.950 . S
C551 C549 1.387 . S
C551 C553 1.390 1_544 S
C551 H555 0.950 . S
H552 C548 0.950 . S
C553 C551 1.390 1_566 S
C553 C554 1.387 . S
C553 H556 0.950 . S
C554 C553 1.387 . S
C554 C557 1.387 . S
H555 C551 0.950 . S
H556 C553 0.950 . S
C557 C548 1.390 1_566 S
C557 H550 0.950 . S
C557 C554 1.387 . S
C558 C559 1.387 . S
C558 H562 0.950 . S
C558 C567 1.390 . S
C559 C558 1.387 . S
C559 C561 1.387 . S
H560 C567 0.950 . S
C561 C559 1.387 . S
C561 C563 1.390 . S
C561 H565 0.950 . S
H562 C558 0.950 . S
C563 C561 1.390 . S
C563 C564 1.387 . S
C563 H566 0.950 . S
C564 C563 1.387 . S
C564 C567 1.387 . S
H565 C561 0.950 . S
H566 C563 0.950 . S
C567 C558 1.390 . S
C567 H560 0.950 . S
C567 C564 1.387 . S
C568 C569 1.387 . S
C568 H572 0.950 . S
C568 C577 1.390 1_455 S
C569 C568 1.387 . S
C569 C571 1.387 . S
H570 C577 0.950 . S
C571 C569 1.387 . S
C571 C573 1.390 1_455 S
C571 H575 0.950 . S
H572 C568 0.950 . S
C573 C571 1.390 1_655 S
C573 C574 1.387 . S
C573 H576 0.950 . S
C574 C573 1.387 . S
C574 C577 1.387 . S
H575 C571 0.950 . S
H576 C573 0.950 . S
C577 C568 1.390 1_655 S
C577 H570 0.950 . S
C577 C574 1.387 . S
C578 C579 1.387 . S
C578 H582 0.950 . S
C578 C587 1.390 1_546 S
C579 C578 1.387 . S
C579 C581 1.387 . S
H580 C587 0.950 . S
C581 C579 1.387 . S
C581 C583 1.390 1_546 S
C581 H585 0.950 . S
H582 C578 0.950 . S
C583 C581 1.390 1_564 S
C583 C584 1.387 . S
C583 H586 0.950 . S
C584 C583 1.387 . S
C584 C587 1.387 . S
H585 C581 0.950 . S
H586 C583 0.950 . S
C587 C578 1.390 1_564 S
C587 H580 0.950 . S
C587 C584 1.387 . S
C588 C589 1.387 . S
C588 H592 0.950 . S
C588 C597 1.390 . S
C589 C588 1.387 . S
C589 C591 1.387 . S
H590 C597 0.950 . S
C591 C589 1.387 . S
C591 C593 1.390 . S
C591 H595 0.950 . S
H592 C588 0.950 . S
C593 C591 1.390 . S
C593 C594 1.387 . S
C593 H596 0.950 . S
C594 C593 1.387 . S
C594 C597 1.387 . S
H595 C591 0.950 . S
H596 C593 0.950 . S
C597 C588 1.390 . S
C597 H590 0.950 . S
C597 C594 1.387 . S
C598 C599 1.387 . S
C598 H602 0.950 . S
C598 C607 1.382 1_554 S
C599 C598 1.387 . S
C599 C601 1.387 . S
H600 C607 0.950 . S
C601 C599 1.387 . S
C601 C603 1.390 1_554 S
C601 H605 0.950 . S
H602 C598 0.950 . S
C603 C601 1.390 1_556 S
C603 C604 1.387 . S
C603 H606 0.950 . S
C604 C603 1.387 . S
C604 C607 1.395 . S
H605 C601 0.950 . S
H606 C603 0.950 . S
C607 C598 1.382 1_556 S
C607 H600 0.950 . S
C607 C604 1.395 . S
C608 C609 1.387 . S
C608 H612 0.950 . S
C608 C617 1.390 . S
C609 C608 1.387 . S
C609 C611 1.387 . S
H610 C617 0.950 . S
C611 C609 1.387 . S
C611 C613 1.390 . S
C611 H615 0.950 . S
H612 C608 0.950 . S
C613 C611 1.390 . S
C613 C614 1.387 . S
C613 H616 0.950 . S
C614 C613 1.387 . S
C614 C617 1.387 . S
H615 C611 0.950 . S
H616 C613 0.950 . S
C617 C608 1.390 . S
C617 H610 0.950 . S
C617 C614 1.387 . S
C618 C619 1.387 . S
C618 H622 0.950 . S
C618 C627 1.390 . S
C619 C618 1.387 . S
C619 C621 1.387 . S
H620 C627 0.950 . S
C621 C619 1.387 . S
C621 C623 1.390 . S
C621 H625 0.950 . S
H622 C618 0.950 . S
C623 C621 1.390 . S
C623 C624 1.387 . S
C623 H626 0.950 . S
C624 C623 1.387 . S
C624 C627 1.387 . S
H625 C621 0.950 . S
H626 C623 0.950 . S
C627 C618 1.390 . S
C627 H620 0.950 . S
C627 C624 1.387 . S
C628 C629 1.387 . S
C628 H632 0.950 . S
C628 C637 1.390 . S
C629 C628 1.387 . S
C629 C631 1.387 1_554 S
H630 C637 0.950 . S
C631 C629 1.387 1_556 S
C631 C633 1.390 . S
C631 H635 0.950 . S
H632 C628 0.950 . S
C633 C631 1.390 . S
C633 C634 1.387 . S
C633 H636 0.950 . S
C634 C633 1.387 . S
C634 C637 1.387 1_556 S
H635 C631 0.950 . S
H636 C633 0.950 . S
C637 C628 1.390 . S
C637 H630 0.950 . S
C637 C634 1.387 1_554 S
C638 C639 1.387 . S
C638 H642 0.950 . S
C638 C647 1.390 . S
C639 C638 1.387 . S
C639 C641 1.387 . S
H640 C647 0.950 . S
C641 C639 1.387 . S
C641 C643 1.390 . S
C641 H645 0.950 . S
H642 C638 0.950 . S
C643 C641 1.390 . S
C643 C644 1.387 . S
C643 H646 0.950 . S
C644 C643 1.387 . S
C644 C647 1.387 . S
H645 C641 0.950 . S
H646 C643 0.950 . S
C647 C638 1.390 . S
C647 H640 0.950 . S
C647 C644 1.387 . S
C648 C649 1.387 . S
C648 H652 0.950 . S
C648 C657 1.385 1_554 S
C649 C648 1.387 . S
C649 C651 1.387 1_554 S
H650 C657 0.950 . S
C651 C649 1.387 1_556 S
C651 C653 1.390 . S
C651 H655 0.950 . S
H652 C648 0.950 . S
C653 C651 1.390 . S
C653 C654 1.387 . S
C653 H656 0.950 . S
C654 C653 1.387 . S
C654 C657 1.393 . S
H655 C651 0.950 . S
H656 C653 0.950 . S
C657 C648 1.385 1_556 S
C657 H650 0.950 . S
C657 C654 1.393 . S
C658 C659 1.387 . S
C658 H662 0.950 . S
C658 C667 1.390 . S
C659 C658 1.387 . S
C659 C661 1.387 . S
H660 C667 0.950 . S
C661 C659 1.387 . S
C661 C663 1.390 . S
C661 H665 0.950 . S
H662 C658 0.950 . S
C663 C661 1.390 . S
C663 C664 1.387 . S
C663 H666 0.950 . S
C664 C663 1.387 . S
C664 C667 1.387 . S
H665 C661 0.950 . S
H666 C663 0.950 . S
C667 C658 1.390 . S
C667 H660 0.950 . S
C667 C664 1.387 . S
C668 C669 1.387 . S
C668 H672 0.950 . S
C668 C677 1.390 . S
C669 C668 1.387 . S
C669 C671 1.387 . S
H670 C677 0.950 . S
C671 C669 1.387 . S
C671 C673 1.390 . S
C671 H675 0.950 . S
H672 C668 0.950 . S
C673 C671 1.390 . S
C673 C674 1.387 . S
C673 H676 0.950 . S
C674 C673 1.387 . S
C674 C677 1.387 . S
H675 C671 0.950 . S
H676 C673 0.950 . S
C677 C668 1.390 . S
C677 H670 0.950 . S
C677 C674 1.387 . S
C678 C679 1.387 . S
C678 H682 0.950 . S
C678 C687 1.390 1_556 S
C679 C678 1.387 . S
C679 C681 1.387 . S
H680 C687 0.950 . S
C681 C679 1.387 . S
C681 C683 1.390 1_556 S
C681 H685 0.950 . S
H682 C678 0.950 . S
C683 C681 1.390 1_554 S
C683 C684 1.387 . S
C683 H686 0.950 . S
C684 C683 1.387 . S
C684 C687 1.387 . S
H685 C681 0.950 . S
H686 C683 0.950 . S
C687 C678 1.390 1_554 S
C687 H680 0.950 . S
C687 C684 1.387 . S
C688 C689 1.387 . S
C688 H692 0.950 . S
C688 C697 1.390 . S
C689 C688 1.387 . S
C689 C691 1.387 . S
H690 C697 0.950 . S
C691 C689 1.387 . S
C691 C693 1.390 . S
C691 H695 0.950 . S
H692 C688 0.950 . S
C693 C691 1.390 . S
C693 C694 1.387 . S
C693 H696 0.950 . S
C694 C693 1.387 . S
C694 C697 1.387 . S
H695 C691 0.950 . S
H696 C693 0.950 . S
C697 C688 1.390 . S
C697 H690 0.950 . S
C697 C694 1.387 . S
C698 C699 1.387 . S
C698 H702 0.950 . S
C698 C707 1.390 . S
C699 C698 1.387 . S
C699 C701 1.387 . S
H700 C707 0.950 . S
C701 C699 1.387 . S
C701 C703 1.390 . S
C701 H705 0.950 . S
H702 C698 0.950 . S
C703 C701 1.390 . S
C703 C704 1.387 . S
C703 H706 0.950 . S
C704 C703 1.387 . S
C704 C707 1.387 . S
H705 C701 0.950 . S
H706 C703 0.950 . S
C707 C698 1.390 . S
C707 H700 0.950 . S
C707 C704 1.387 . S
C409 C20 1.743 . S
C414 C360 1.743 . S
C419 C394 1.744 . S
C424 C54 1.743 . S
C429 C224 1.746 . S
C434 C88 1.746 . S
C439 C258 1.746 . S
C444 C122 1.746 . S
C449 C156 1.746 . S
C454 C292 1.746 . S
C459 C326 1.746 . S
C464 C190 1.746 . S
C469 C237 1.473 . S
C474 C33 1.472 . S
C479 C271 1.472 . S
C484 C67 1.471 . S
C489 C101 1.471 . S
C494 C305 1.471 . S
C499 C135 1.472 . S
C504 C339 1.472 . S
C509 C373 1.472 . S
C514 C169 1.471 . S
C519 C407 1.473 . S
C524 C203 1.473 . S
C529 C2 1.507 . S
C534 C308 1.506 . S
C539 C342 1.508 . S
C544 C36 1.508 . S
C549 C376 1.506 . S
C554 C70 1.506 . S
C559 C206 1.509 . S
C564 C104 1.509 . S
C569 C138 1.509 . S
C574 C240 1.508 . S
C579 C172 1.506 . S
C584 C274 1.506 . S
C589 C5 1.249 . S
C594 C9 1.207 . S
C599 C43 1.205 . S
C604 C39 1.245 . S
C609 C73 1.244 . S
C614 C77 1.204 . S
C619 C111 1.207 . S
C624 C107 1.249 . S
C629 C145 1.207 . S
C634 C141 1.247 . S
C639 C179 1.205 . S
C644 C175 1.248 . S
C649 C209 1.245 . S
C654 C213 1.202 . S
C659 C247 1.207 . S
C664 C243 1.249 . S
C669 C281 1.206 . S
C674 C277 1.246 . S
C679 C315 1.207 . S
C684 C311 1.249 . S
C689 C345 1.249 . S
C694 C349 1.207 . S
C699 C383 1.205 . S
C704 C379 1.248 . S
