# Generated by pormake.
# Topology ecv, (8)-cn, num edge types: 1
# Building blocks:
#     Node 0, Type 0, BuildingBlock: TAGTUT_clean_sbu_1, # of connection points: 8
#     Node 1, Type 0, BuildingBlock: TAGTUT_clean_sbu_1, # of connection points: 8
#     Node 2, Type 0, BuildingBlock: TAGTUT_clean_sbu_1, # of connection points: 8
#     Node 3, Type 0, BuildingBlock: TAGTUT_clean_sbu_1, # of connection points: 8
#     Node 4, Type 0, BuildingBlock: TAGTUT_clean_sbu_1, # of connection points: 8
#     Node 5, Type 0, BuildingBlock: TAGTUT_clean_sbu_1, # of connection points: 8
#     Node 6, Type 0, BuildingBlock: TAGTUT_clean_sbu_1, # of connection points: 8
#     Node 7, Type 0, BuildingBlock: TAGTUT_clean_sbu_1, # of connection points: 8
#     Node 8, Type 0, BuildingBlock: TAGTUT_clean_sbu_1, # of connection points: 8
#     Node 9, Type 0, BuildingBlock: TAGTUT_clean_sbu_1, # of connection points: 8
#     Node 10, Type 0, BuildingBlock: TAGTUT_clean_sbu_1, # of connection points: 8
#     Node 11, Type 0, BuildingBlock: TAGTUT_clean_sbu_1, # of connection points: 8
#     Node 12, Type 0, BuildingBlock: TAGTUT_clean_sbu_1, # of connection points: 8
#     Node 13, Type 0, BuildingBlock: TAGTUT_clean_sbu_1, # of connection points: 8
#     Node 14, Type 0, BuildingBlock: TAGTUT_clean_sbu_1, # of connection points: 8
#     Node 15, Type 0, BuildingBlock: TAGTUT_clean_sbu_1, # of connection points: 8
#     Edge 16, Type (0, 0), BuildingBlock: XUDNAN_clean_linker_2, # of connection points: 2
#     Edge 17, Type (0, 0), BuildingBlock: XUDNAN_clean_linker_2, # of connection points: 2
#     Edge 18, Type (0, 0), BuildingBlock: XUDNAN_clean_linker_2, # of connection points: 2
#     Edge 19, Type (0, 0), BuildingBlock: XUDNAN_clean_linker_2, # of connection points: 2
#     Edge 20, Type (0, 0), BuildingBlock: XUDNAN_clean_linker_2, # of connection points: 2
#     Edge 21, Type (0, 0), BuildingBlock: XUDNAN_clean_linker_2, # of connection points: 2
#     Edge 22, Type (0, 0), BuildingBlock: XUDNAN_clean_linker_2, # of connection points: 2
#     Edge 23, Type (0, 0), BuildingBlock: XUDNAN_clean_linker_2, # of connection points: 2
#     Edge 24, Type (0, 0), BuildingBlock: XUDNAN_clean_linker_2, # of connection points: 2
#     Edge 25, Type (0, 0), BuildingBlock: XUDNAN_clean_linker_2, # of connection points: 2
#     Edge 26, Type (0, 0), BuildingBlock: XUDNAN_clean_linker_2, # of connection points: 2
#     Edge 27, Type (0, 0), BuildingBlock: XUDNAN_clean_linker_2, # of connection points: 2
#     Edge 28, Type (0, 0), BuildingBlock: XUDNAN_clean_linker_2, # of connection points: 2
#     Edge 29, Type (0, 0), BuildingBlock: XUDNAN_clean_linker_2, # of connection points: 2
#     Edge 30, Type (0, 0), BuildingBlock: XUDNAN_clean_linker_2, # of connection points: 2
#     Edge 31, Type (0, 0), BuildingBlock: XUDNAN_clean_linker_2, # of connection points: 2
#     Edge 32, Type (0, 0), BuildingBlock: XUDNAN_clean_linker_2, # of connection points: 2
#     Edge 33, Type (0, 0), BuildingBlock: XUDNAN_clean_linker_2, # of connection points: 2
#     Edge 34, Type (0, 0), BuildingBlock: XUDNAN_clean_linker_2, # of connection points: 2
#     Edge 35, Type (0, 0), BuildingBlock: XUDNAN_clean_linker_2, # of connection points: 2
#     Edge 36, Type (0, 0), BuildingBlock: XUDNAN_clean_linker_2, # of connection points: 2
#     Edge 37, Type (0, 0), BuildingBlock: XUDNAN_clean_linker_2, # of connection points: 2
#     Edge 38, Type (0, 0), BuildingBlock: XUDNAN_clean_linker_2, # of connection points: 2
#     Edge 39, Type (0, 0), BuildingBlock: XUDNAN_clean_linker_2, # of connection points: 2
#     Edge 40, Type (0, 0), BuildingBlock: XUDNAN_clean_linker_2, # of connection points: 2
#     Edge 41, Type (0, 0), BuildingBlock: XUDNAN_clean_linker_2, # of connection points: 2
#     Edge 42, Type (0, 0), BuildingBlock: XUDNAN_clean_linker_2, # of connection points: 2
#     Edge 43, Type (0, 0), BuildingBlock: XUDNAN_clean_linker_2, # of connection points: 2
#     Edge 44, Type (0, 0), BuildingBlock: XUDNAN_clean_linker_2, # of connection points: 2
#     Edge 45, Type (0, 0), BuildingBlock: XUDNAN_clean_linker_2, # of connection points: 2
#     Edge 46, Type (0, 0), BuildingBlock: XUDNAN_clean_linker_2, # of connection points: 2
#     Edge 47, Type (0, 0), BuildingBlock: XUDNAN_clean_linker_2, # of connection points: 2
#     Edge 48, Type (0, 0), BuildingBlock: XUDNAN_clean_linker_2, # of connection points: 2
#     Edge 49, Type (0, 0), BuildingBlock: XUDNAN_clean_linker_2, # of connection points: 2
#     Edge 50, Type (0, 0), BuildingBlock: XUDNAN_clean_linker_2, # of connection points: 2
#     Edge 51, Type (0, 0), BuildingBlock: XUDNAN_clean_linker_2, # of connection points: 2
#     Edge 52, Type (0, 0), BuildingBlock: XUDNAN_clean_linker_2, # of connection points: 2
#     Edge 53, Type (0, 0), BuildingBlock: XUDNAN_clean_linker_2, # of connection points: 2
#     Edge 54, Type (0, 0), BuildingBlock: XUDNAN_clean_linker_2, # of connection points: 2
#     Edge 55, Type (0, 0), BuildingBlock: XUDNAN_clean_linker_2, # of connection points: 2
#     Edge 56, Type (0, 0), BuildingBlock: XUDNAN_clean_linker_2, # of connection points: 2
#     Edge 57, Type (0, 0), BuildingBlock: XUDNAN_clean_linker_2, # of connection points: 2
#     Edge 58, Type (0, 0), BuildingBlock: XUDNAN_clean_linker_2, # of connection points: 2
#     Edge 59, Type (0, 0), BuildingBlock: XUDNAN_clean_linker_2, # of connection points: 2
#     Edge 60, Type (0, 0), BuildingBlock: XUDNAN_clean_linker_2, # of connection points: 2
#     Edge 61, Type (0, 0), BuildingBlock: XUDNAN_clean_linker_2, # of connection points: 2
#     Edge 62, Type (0, 0), BuildingBlock: XUDNAN_clean_linker_2, # of connection points: 2
#     Edge 63, Type (0, 0), BuildingBlock: XUDNAN_clean_linker_2, # of connection points: 2
#     Edge 64, Type (0, 0), BuildingBlock: XUDNAN_clean_linker_2, # of connection points: 2
#     Edge 65, Type (0, 0), BuildingBlock: XUDNAN_clean_linker_2, # of connection points: 2
#     Edge 66, Type (0, 0), BuildingBlock: XUDNAN_clean_linker_2, # of connection points: 2
#     Edge 67, Type (0, 0), BuildingBlock: XUDNAN_clean_linker_2, # of connection points: 2
#     Edge 68, Type (0, 0), BuildingBlock: XUDNAN_clean_linker_2, # of connection points: 2
#     Edge 69, Type (0, 0), BuildingBlock: XUDNAN_clean_linker_2, # of connection points: 2
#     Edge 70, Type (0, 0), BuildingBlock: XUDNAN_clean_linker_2, # of connection points: 2
#     Edge 71, Type (0, 0), BuildingBlock: XUDNAN_clean_linker_2, # of connection points: 2
#     Edge 72, Type (0, 0), BuildingBlock: XUDNAN_clean_linker_2, # of connection points: 2
#     Edge 73, Type (0, 0), BuildingBlock: XUDNAN_clean_linker_2, # of connection points: 2
#     Edge 74, Type (0, 0), BuildingBlock: XUDNAN_clean_linker_2, # of connection points: 2
#     Edge 75, Type (0, 0), BuildingBlock: XUDNAN_clean_linker_2, # of connection points: 2
#     Edge 76, Type (0, 0), BuildingBlock: XUDNAN_clean_linker_2, # of connection points: 2
#     Edge 77, Type (0, 0), BuildingBlock: XUDNAN_clean_linker_2, # of connection points: 2
#     Edge 78, Type (0, 0), BuildingBlock: XUDNAN_clean_linker_2, # of connection points: 2
#     Edge 79, Type (0, 0), BuildingBlock: XUDNAN_clean_linker_2, # of connection points: 2
# Relax obj value: 0.109
# Max RMSD: 0.179
# Mean RMSD: 0.179
data_MOF--net-ecv--node1-TAGTUT_clean_sbu_1--edge1-XUDNAN_clean_linker_2
_symmetry_space_group_name_H-M    P1
_symmetry_Int_Tables_number       1
_symmetry_cell_setting            triclinic
loop_
_symmetry_equiv_pos_as_xyz
'x, y, z'
_cell_length_a     19.717154
_cell_length_b     26.517256
_cell_length_c     117.64142
_cell_angle_alpha  92.621738
_cell_angle_beta   89.98379
_cell_angle_gamma 90.141135
loop_
_atom_site_label
_atom_site_type_symbol
_atom_site_fract_x
_atom_site_fract_y
_atom_site_fract_z
_atom_type_partial_charge
C0 C 0.15364 0.15873 0.49645 0.0
C1 C 0.04514 0.07571 0.4724 0.0
C2 C 0.29906 0.05762 0.44853 0.0
Mg3 Mg 0.08784 0.18811 0.47415 0.0
O4 O 0.16118 0.15822 0.46661 0.0
Mg5 Mg 0.21276 0.09919 0.4723 0.0
Mg6 Mg 0.19186 0.16109 0.45083 0.0
O7 O 0.22617 0.16309 0.43515 0.0
Mg8 Mg 0.31274 0.144 0.43111 0.0
Mg9 Mg 0.18594 0.22624 0.42973 0.0
C10 C 0.09052 0.26653 0.45379 0.0
C11 C 0.07528 0.13458 0.43112 0.0
O12 O 0.18536 0.12497 0.49045 0.0
O13 O 0.11618 0.1919 0.49198 0.0
O14 O 0.10716 0.0604 0.47155 0.0
O15 O 0.02786 0.12226 0.47293 0.0
O16 O 0.06784 0.25287 0.46346 0.0
O17 O 0.13647 0.23962 0.44828 0.0
C18 C 0.30411 0.19402 0.47088 0.0
O19 O 0.27739 0.20513 0.46129 0.0
O20 O 0.3067 0.14806 0.47359 0.0
O21 O 0.2377 0.2082 0.41155 0.0
O22 O 0.30752 0.14199 0.41315 0.0
O23 O 0.28554 0.26882 0.43406 0.0
C24 C 0.279 0.17492 0.40719 0.0
O25 O 0.36686 0.21016 0.43578 0.0
O26 O 0.32889 0.07561 0.43994 0.0
C27 C 0.34758 0.25605 0.43566 0.0
O28 O 0.2478 0.08121 0.45338 0.0
O29 O 0.10008 0.12198 0.44077 0.0
O30 O 0.09732 0.17287 0.4259 0.0
C31 C 0.07667 0.21406 0.7962 0.0
C32 C 0.10665 0.23669 0.83266 0.0
C33 C 0.35053 0.16658 0.8274 0.0
Mg34 Mg 0.05519 0.14701 0.8167 0.0
O35 O 0.14761 0.13449 0.81391 0.0
Mg36 Mg 0.21297 0.19351 0.81245 0.0
Mg37 Mg 0.19975 0.10023 0.82555 0.0
O38 O 0.25047 0.06876 0.83786 0.0
Mg39 Mg 0.34266 0.05514 0.83606 0.0
Mg40 Mg 0.18659 0.0131 0.84213 0.0
C41 C 0.05507 0.02952 0.82385 0.0
C42 C 0.11439 0.11699 0.85005 0.0
O43 O 0.13743 0.22075 0.79975 0.0
O44 O 0.0347 0.18423 0.80088 0.0
O45 O 0.16071 0.23913 0.82672 0.0
O46 O 0.06022 0.20378 0.83046 0.0
O47 O 0.02318 0.06811 0.82019 0.0
O48 O 0.11932 0.03302 0.82617 0.0
C49 C 0.26386 0.09016 0.79914 0.0
O50 O 0.25031 0.0656 0.80819 0.0
O51 O 0.25844 0.13839 0.79908 0.0
O52 O 0.26143 1.00345 0.85819 0.0
O53 O 0.36349 0.03269 0.85303 0.0
O54 O 0.24541 0.95817 0.83084 0.0
C55 C 0.32423 0.01427 0.86047 0.0
O56 O 0.33884 0.99324 0.82392 0.0
O57 O 0.38127 0.12839 0.83128 0.0
C58 C 0.29602 0.95704 0.82408 0.0
O59 O 0.28572 0.1638 0.82545 0.0
O60 O 0.13953 0.13704 0.84122 0.0
O61 O 0.12532 0.07096 0.85216 0.0
C62 C 0.64891 0.75805 0.60378 0.0
C63 C 0.70423 0.72382 0.56549 0.0
C64 C 0.94785 0.77465 0.57589 0.0
Mg65 Mg 0.65309 0.81193 0.5806 0.0
O66 O 0.74447 0.81878 0.58438 0.0
Mg67 Mg 0.7986 0.75778 0.58836 0.0
Mg68 Mg 0.8103 0.85264 0.57458 0.0
O69 O 0.88029 0.88851 0.56605 0.0
Mg70 Mg 0.96478 0.89367 0.57375 0.0
Mg71 Mg 0.82497 0.95219 0.56444 0.0
C72 C 0.66755 0.92672 0.5746 0.0
C73 C 0.77552 0.85856 0.54704 0.0
O74 O 0.71069 0.74341 0.60203 0.0
O75 O 0.61688 0.78299 0.59641 0.0
O76 O 0.74726 0.71563 0.57335 0.0
O77 O 0.66236 0.76042 0.56632 0.0
O78 O 0.62994 0.88943 0.57718 0.0
O79 O 0.73283 0.92076 0.57367 0.0
C80 C 0.86835 0.8532 0.6011 0.0
O81 O 0.85317 0.87784 0.59232 0.0
O82 O 0.85415 0.80637 0.6017 0.0
O83 O 0.92189 0.98343 0.5562 0.0
O84 O 0.0145 0.94245 0.56212 0.0
O85 O 0.86209 0.98724 0.58126 0.0
C86 C 0.98644 0.97685 0.55641 0.0
O87 O 0.94738 0.9433 0.58843 0.0
O88 O 0.98943 0.81211 0.57547 0.0
C89 C 0.90474 0.97963 0.58918 0.0
O90 O 0.88295 0.78226 0.57554 0.0
O91 O 0.77384 0.8292 0.55557 0.0
O92 O 0.79103 0.90567 0.54849 0.0
C93 C 0.63004 0.95966 0.1676 0.0
C94 C 0.65683 0.02195 0.19839 0.0
C95 C 0.9303 0.97055 0.19548 0.0
Mg96 Mg 0.63522 0.91867 0.19204 0.0
O97 O 0.72866 0.91747 0.18858 0.0
Mg98 Mg 0.7775 0.97894 0.18287 0.0
Mg99 Mg 0.79876 0.88912 0.19845 0.0
O100 O 0.87101 0.85871 0.20756 0.0
Mg101 Mg 0.95421 0.85239 0.19971 0.0
Mg102 Mg 0.8182 0.7951 0.21105 0.0
C103 C 0.66097 0.80878 0.20042 0.0
C104 C 0.7695 0.89498 0.22631 0.0
O105 O 0.68721 0.98289 0.1692 0.0
O106 O 0.60301 0.93268 0.17512 0.0
O107 O 0.72055 0.02615 0.19686 0.0
O108 O 0.63583 0.98358 0.20348 0.0
O109 O 0.61909 0.84266 0.19748 0.0
O110 O 0.72535 0.81913 0.20108 0.0
C111 C 0.85522 0.88258 0.17152 0.0
O112 O 0.84479 0.86079 0.18091 0.0
O113 O 0.83457 0.92744 0.17007 0.0
O114 O 0.91793 0.76973 0.21922 0.0
O115 O 1.00819 0.80974 0.21201 0.0
O116 O 0.8507 0.75333 0.19482 0.0
C117 C 0.98222 0.77706 0.21847 0.0
O118 O 0.93362 0.79537 0.18646 0.0
O119 O 0.97315 0.93423 0.19645 0.0
C120 C 0.89086 0.75907 0.18647 0.0
O121 O 0.86559 0.96176 0.196 0.0
O122 O 0.76419 0.91789 0.21684 0.0
O123 O 0.78627 0.84807 0.22643 0.0
C124 C 0.09609 0.62797 0.98419 0.0
C125 C 0.06101 0.57657 0.94864 0.0
C126 C 0.33573 0.58225 0.94513 0.0
Mg127 Mg 0.07421 0.67849 0.96188 0.0
O128 O 0.165 0.66436 0.95959 0.0
Mg129 Mg 0.20496 0.59744 0.96302 0.0
Mg130 Mg 0.21795 0.67795 0.94604 0.0
O131 O 0.27431 0.69062 0.93258 0.0
Mg132 Mg 0.36863 0.68496 0.9339 0.0
Mg133 Mg 0.23249 0.7551 0.92773 0.0
C134 C 0.10257 0.77517 0.94786 0.0
C135 C 0.13104 0.66094 0.92217 0.0
O136 O 0.13922 0.59963 0.9789 0.0
O137 O 0.06633 0.66457 0.97957 0.0
O138 O 0.11896 0.5612 0.95211 0.0
O139 O 0.03601 0.61934 0.95164 0.0
O140 O 0.06589 0.75202 0.95495 0.0
O141 O 0.15886 0.7553 0.94389 0.0
C142 C 0.2958 0.69318 0.97109 0.0
O143 O 0.28521 0.71153 0.96122 0.0
O144 O 0.27988 0.64744 0.97307 0.0
O145 O 0.3088 0.7485 0.91193 0.0
O146 O 0.39418 0.69741 0.91684 0.0
O147 O 0.30839 0.7998 0.93876 0.0
C148 C 0.36399 0.72402 0.90963 0.0
O149 O 0.38995 0.74829 0.94475 0.0
O150 O 0.37938 0.60921 0.94007 0.0
C151 C 0.35969 0.79076 0.945 0.0
O152 O 0.27582 0.6003 0.94748 0.0
O153 O 0.14389 0.64506 0.93213 0.0
O154 O 0.15777 0.70136 0.91854 0.0
C155 C 0.15799 0.58928 0.27485 0.0
C156 C 0.03862 0.67873 0.29668 0.0
C157 C 0.3052 0.68847 0.31995 0.0
Mg158 Mg 0.08199 0.56563 0.29653 0.0
O159 O 0.14697 0.60162 0.30506 0.0
Mg160 Mg 0.20542 0.65648 0.29861 0.0
Mg161 Mg 0.18893 0.59191 0.31953 0.0
O162 O 0.23698 0.58475 0.33404 0.0
Mg163 Mg 0.33028 0.58659 0.33217 0.0
Mg164 Mg 0.19533 0.52132 0.33934 0.0
C165 C 0.08526 0.48672 0.31678 0.0
C166 C 0.08878 0.6159 0.34152 0.0
O167 O 0.18243 0.62755 0.28046 0.0
O168 O 0.12307 0.55538 0.27959 0.0
O169 O 0.10006 0.69397 0.29858 0.0
O170 O 0.02102 0.632 0.29577 0.0
O171 O 0.06034 0.50101 0.30733 0.0
O172 O 0.13257 0.51337 0.32201 0.0
C173 C 0.29812 0.56481 0.29848 0.0
O174 O 0.263 0.54706 0.30657 0.0
O175 O 0.30077 0.61211 0.29752 0.0
O176 O 0.26513 0.53506 0.35584 0.0
O177 O 0.3573 0.57518 0.34935 0.0
O178 O 0.28325 0.47333 0.3322 0.0
C179 C 0.32485 0.55459 0.35734 0.0
O180 O 0.35392 0.52085 0.32248 0.0
O181 O 0.34563 0.65936 0.32507 0.0
C182 C 0.33682 0.47844 0.32621 0.0
O183 O 0.24336 0.67413 0.3174 0.0
O184 O 0.10638 0.62968 0.33156 0.0
O185 O 0.11408 0.57668 0.34591 0.0
C186 C 0.64018 0.29207 0.10184 0.0
C187 C 0.66802 0.24492 0.06692 0.0
C188 C 0.9353 0.2929 0.07325 0.0
Mg189 Mg 0.64679 0.34502 0.07865 0.0
O190 O 0.73877 0.347 0.08214 0.0
Mg191 Mg 0.78663 0.28363 0.0864 0.0
Mg192 Mg 0.80641 0.37795 0.07224 0.0
O193 O 0.87796 0.41113 0.06362 0.0
Mg194 Mg 0.96362 0.41209 0.07104 0.0
Mg195 Mg 0.82695 0.47749 0.06254 0.0
C196 C 0.66913 0.45851 0.07248 0.0
C197 C 0.77017 0.3873 0.04493 0.0
O198 O 0.70139 0.27613 0.10031 0.0
O199 O 0.60957 0.31792 0.09448 0.0
O200 O 0.71775 0.23882 0.07375 0.0
O201 O 0.64454 0.28872 0.06529 0.0
O202 O 0.62802 0.42302 0.07489 0.0
O203 O 0.73386 0.44955 0.07176 0.0
C204 C 0.87058 0.37574 0.09827 0.0
O205 O 0.85666 0.40064 0.0895 0.0
O206 O 0.851 0.33021 0.09911 0.0
O207 O 0.92532 0.50392 0.05458 0.0
O208 O 0.01614 0.45677 0.05898 0.0
O209 O 0.86636 0.51075 0.07953 0.0
C210 C 0.98888 0.49391 0.05409 0.0
O211 O 0.95341 0.46519 0.08549 0.0
O212 O 0.97942 0.32888 0.07291 0.0
C213 C 0.91143 0.50156 0.08696 0.0
O214 O 0.8709 0.30272 0.07278 0.0
O215 O 0.76691 0.35789 0.05345 0.0
O216 O 0.78879 0.43381 0.04628 0.0
C217 C 0.62464 0.48069 0.66851 0.0
C218 C 0.67552 0.51476 0.70574 0.0
C219 C 0.92987 0.48972 0.69579 0.0
Mg220 Mg 0.6422 0.42237 0.69057 0.0
O221 O 0.73342 0.42696 0.6863 0.0
Mg222 Mg 0.77628 0.49326 0.68287 0.0
Mg223 Mg 0.80477 0.39968 0.69588 0.0
O224 O 0.87783 0.37057 0.70476 0.0
Mg225 Mg 0.9665 0.37519 0.69914 0.0
Mg226 Mg 0.8357 0.3016 0.70593 0.0
C227 C 0.68002 0.30978 0.69509 0.0
C228 C 0.76558 0.3883 0.72268 0.0
O229 O 0.68412 0.50042 0.66998 0.0
O230 O 0.59869 0.45104 0.67561 0.0
O231 O 0.71842 0.52831 0.69827 0.0
O232 O 0.64096 0.47415 0.70468 0.0
O233 O 0.63319 0.34194 0.6933 0.0
O234 O 0.74285 0.32406 0.69572 0.0
C235 C 0.85872 0.40376 0.66966 0.0
O236 O 0.851 0.37897 0.67863 0.0
O237 O 0.83714 0.44911 0.66899 0.0
O238 O 0.92965 0.28462 0.71665 0.0
O239 O 0.01414 0.33853 0.7129 0.0
O240 O 0.88909 0.27158 0.68954 0.0
C241 C 0.98918 0.30271 0.71856 0.0
O242 O 0.96653 0.3276 0.68423 0.0
O243 O 0.97574 0.45635 0.69722 0.0
C244 C 0.93326 0.28673 0.68244 0.0
O245 O 0.86613 0.47685 0.6954 0.0
O246 O 0.76227 0.41809 0.71429 0.0
O247 O 0.78663 0.34259 0.72124 0.0
C248 C 0.66841 0.15914 0.99476 0.0
C249 C 0.57424 0.05855 0.97449 0.0
C250 C 0.82363 0.0836 0.94783 0.0
Mg251 Mg 0.58817 0.17626 0.97354 0.0
O252 O 0.65285 0.14684 0.96401 0.0
Mg253 Mg 0.72719 0.10391 0.97048 0.0
Mg254 Mg 0.68385 0.15979 0.94868 0.0
O255 O 0.72118 0.17065 0.93342 0.0
Mg256 Mg 0.81421 0.17961 0.93299 0.0
Mg257 Mg 0.66136 0.2256 0.92816 0.0
C258 C 0.56082 0.24972 0.95265 0.0
C259 C 0.58003 0.11859 0.92768 0.0
O260 O 0.69932 0.12525 0.98874 0.0
O261 O 0.63039 0.19182 0.99028 0.0
O262 O 0.63625 0.04996 0.97137 0.0
O263 O 0.54771 0.10278 0.97549 0.0
O264 O 0.54682 0.23449 0.96263 0.0
O265 O 0.60777 0.22789 0.9464 0.0
C266 C 0.78756 0.21194 0.96886 0.0
O267 O 0.75078 0.21782 0.95998 0.0
O268 O 0.80263 0.1677 0.97171 0.0
O269 O 0.72617 0.21981 0.91075 0.0
O270 O 0.82657 0.18524 0.9153 0.0
O271 O 0.73391 0.28583 0.93423 0.0
C272 C 0.78614 0.20336 0.90807 0.0
O273 O 0.83031 0.25226 0.94042 0.0
O274 O 0.85148 0.11413 0.94111 0.0
C275 C 0.79251 0.29008 0.93872 0.0
O276 O 0.76159 0.09048 0.95135 0.0
O277 O 0.60542 0.10818 0.93748 0.0
O278 O 0.59366 0.15991 0.92292 0.0
C279 C 0.59601 0.17153 0.29574 0.0
C280 C 0.6194 0.21703 0.33184 0.0
C281 C 0.85902 0.15459 0.33149 0.0
Mg282 Mg 0.57582 0.12009 0.31846 0.0
O283 O 0.66737 0.10689 0.31577 0.0
Mg284 Mg 0.72972 0.16682 0.31326 0.0
Mg285 Mg 0.71677 0.07793 0.32838 0.0
O286 O 0.76552 0.05242 0.34165 0.0
Mg287 Mg 0.85966 0.04401 0.34081 0.0
Mg288 Mg 0.7052 0.99412 0.3454 0.0
C289 C 0.57312 0.00739 0.32722 0.0
C290 C 0.62298 0.09602 0.35176 0.0
O291 O 0.65654 0.18393 0.29874 0.0
O292 O 0.55614 0.14602 0.30188 0.0
O293 O 0.67252 0.21839 0.32567 0.0
O294 O 0.57595 0.18141 0.33076 0.0
O295 O 0.54223 0.04568 0.32338 0.0
O296 O 0.63823 0.00908 0.32908 0.0
C297 C 0.79225 0.06025 0.30314 0.0
O298 O 0.77636 0.03888 0.31248 0.0
O299 O 0.78289 0.10763 0.30201 0.0
O300 O 0.7758 0.98835 0.36197 0.0
O301 O 0.87724 0.02149 0.35774 0.0
O302 O 0.77055 0.94194 0.33408 0.0
C303 C 0.83691 1.0016 0.36479 0.0
O304 O 0.86222 0.98416 0.32833 0.0
O305 O 0.89125 0.12001 0.33653 0.0
C306 C 0.82141 0.94676 0.32746 0.0
O307 O 0.79764 0.14554 0.32795 0.0
O308 O 0.64842 0.1156 0.34287 0.0
O309 O 0.63811 0.05131 0.35454 0.0
C310 C 0.12091 0.79236 0.10342 0.0
C311 C 0.14883 0.73761 0.07221 0.0
C312 C 0.4234 0.78794 0.07612 0.0
Mg313 Mg 0.12755 0.84004 0.07962 0.0
O314 O 0.22106 0.84047 0.08317 0.0
Mg315 Mg 0.27002 0.77791 0.0882 0.0
Mg316 Mg 0.29263 0.87143 0.07398 0.0
O317 O 0.3666 0.90347 0.06562 0.0
Mg318 Mg 0.45088 0.90594 0.07325 0.0
Mg319 Mg 0.31737 0.96884 0.06308 0.0
C320 C 0.15737 0.95296 0.07253 0.0
C321 C 0.26319 0.875 0.04636 0.0
O322 O 0.17989 0.77233 0.10164 0.0
O323 O 0.09238 0.82002 0.09617 0.0
O324 O 0.21239 0.73266 0.07385 0.0
O325 O 0.12919 0.77732 0.0675 0.0
O326 O 0.11485 0.91803 0.07479 0.0
O327 O 0.22208 0.9435 0.07244 0.0
C328 C 0.34497 0.87325 0.10093 0.0
O329 O 0.3344 0.89779 0.09193 0.0
O330 O 0.32711 0.82705 0.10143 0.0
O331 O 0.41671 0.99299 0.0546 0.0
O332 O 0.50534 0.94899 0.06102 0.0
O333 O 0.35802 0.00586 0.07941 0.0
C334 C 0.48044 0.98319 0.05488 0.0
O335 O 0.43796 0.95931 0.08738 0.0
O336 O 0.46706 0.82403 0.07565 0.0
C337 C 0.40012 0.99846 0.08743 0.0
O338 O 0.35883 0.7972 0.07549 0.0
O339 O 0.25835 0.84704 0.05508 0.0
O340 O 0.28105 0.92167 0.04751 0.0
C341 C 0.18811 0.94606 0.6611 0.0
C342 C 0.20589 0.02931 0.69188 0.0
C343 C 0.44599 0.98169 0.69971 0.0
Mg344 Mg 0.17866 0.9194 0.68652 0.0
O345 O 0.27038 0.90779 0.68397 0.0
Mg346 Mg 0.32703 0.96349 0.67799 0.0
Mg347 Mg 0.32165 0.89137 0.69767 0.0
O348 O 0.36691 0.87363 0.71145 0.0
Mg349 Mg 0.43346 0.9065 0.72009 0.0
Mg350 Mg 0.2972 0.8309 0.71945 0.0
C351 C 0.18368 0.81504 0.6992 0.0
C352 C 0.23305 0.93652 0.72068 0.0
O353 O 0.25057 0.96008 0.66234 0.0
O354 O 0.15242 0.92924 0.66919 0.0
O355 O 0.25971 0.02349 0.68597 0.0
O356 O 0.17151 0.9917 0.6951 0.0
O357 O 0.15024 0.84964 0.69438 0.0
O358 O 0.24854 0.81961 0.70107 0.0
C359 C 0.40679 0.85671 0.67387 0.0
O360 O 0.38968 0.84308 0.68393 0.0
O361 O 0.38972 0.89974 0.67032 0.0
O362 O 0.33596 0.85346 0.737 0.0
O363 O 0.39986 0.92307 0.73716 0.0
O364 O 0.39202 0.77928 0.71876 0.0
C365 C 0.3668 0.88964 0.74232 0.0
O366 O 0.47902 0.83512 0.72177 0.0
O367 O 0.46857 0.96547 0.7091 0.0
C368 C 0.45478 0.79005 0.72114 0.0
O369 O 0.39394 0.96086 0.69462 0.0
O370 O 0.26562 0.94582 0.71152 0.0
O371 O 0.21811 0.89119 0.72258 0.0
C372 C 0.57447 0.56382 0.47154 0.0
C373 C 0.6168 0.53619 0.43699 0.0
C374 C 0.85846 0.59662 0.44107 0.0
Mg375 Mg 0.56725 0.63085 0.45117 0.0
O376 O 0.65873 0.64183 0.45524 0.0
Mg377 Mg 0.71976 0.5814 0.45749 0.0
Mg378 Mg 0.71503 0.67136 0.44343 0.0
O379 O 0.76878 0.69811 0.43077 0.0
Mg380 Mg 0.86225 0.70753 0.43228 0.0
Mg381 Mg 0.70948 0.75555 0.42629 0.0
C382 C 0.57469 0.74617 0.44413 0.0
C383 C 0.63035 0.65322 0.4191 0.0
O384 O 0.63733 0.557 0.46932 0.0
O385 O 0.53625 0.59383 0.46623 0.0
O386 O 0.66903 0.53392 0.44337 0.0
O387 O 0.57251 0.57109 0.43831 0.0
O388 O 0.53779 0.70918 0.4473 0.0
O389 O 0.63925 0.74001 0.44233 0.0
C390 C 0.77516 0.68714 0.46971 0.0
O391 O 0.76819 0.70735 0.45994 0.0
O392 O 0.76397 0.63973 0.47082 0.0
O393 O 0.78431 0.76207 0.41031 0.0
O394 O 0.884 0.72949 0.41551 0.0
O395 O 0.77148 0.80859 0.43796 0.0
C396 C 0.84612 0.74893 0.40807 0.0
O397 O 0.86215 0.76805 0.44452 0.0
O398 O 0.8923 0.63175 0.43649 0.0
C399 C 0.82127 0.8053 0.44484 0.0
O400 O 0.79664 0.60552 0.44441 0.0
O401 O 0.65188 0.63527 0.42839 0.0
O402 O 0.646 0.69766 0.41622 0.0
C403 C 0.55385 0.67501 0.79551 0.0
C404 C 0.59477 0.70389 0.82962 0.0
C405 C 0.85159 0.68033 0.82345 0.0
Mg406 Mg 0.57012 0.60622 0.81568 0.0
O407 O 0.66137 0.60773 0.81145 0.0
Mg408 Mg 0.70561 0.67466 0.80867 0.0
Mg409 Mg 0.72699 0.58723 0.82301 0.0
O410 O 0.79129 0.56811 0.83481 0.0
Mg411 Mg 0.88626 0.57289 0.83221 0.0
Mg412 Mg 0.74416 0.50359 0.83938 0.0
C413 C 0.6001 0.49662 0.82363 0.0
C414 C 0.6546 0.59935 0.84815 0.0
O415 O 0.61612 0.68796 0.79687 0.0
O416 O 0.52506 0.64197 0.80152 0.0
O417 O 0.64302 0.71459 0.82281 0.0
O418 O 0.5649 0.66114 0.82911 0.0
O419 O 0.55613 0.52758 0.81996 0.0
O420 O 0.66322 0.51073 0.82494 0.0
C421 C 0.7828 0.57661 0.7969 0.0
O422 O 0.78143 0.5567 0.80671 0.0
O423 O 0.76108 0.62177 0.79555 0.0
O424 O 0.82646 0.50602 0.85423 0.0
O425 O 0.91448 0.5546 0.84912 0.0
O426 O 0.81292 0.45999 0.82634 0.0
C427 C 0.88397 0.5279 0.85636 0.0
O428 O 0.89189 0.51008 0.82031 0.0
O429 O 0.89719 0.65176 0.82748 0.0
C430 C 0.87579 0.46997 0.82521 0.0
O431 O 0.79141 0.66204 0.82132 0.0
O432 O 0.66946 0.61884 0.8387 0.0
O433 O 0.67471 0.55504 0.8505 0.0
C434 C 0.14924 0.29377 0.60676 0.0
C435 C 0.16593 0.23028 0.57311 0.0
C436 C 0.43277 0.2598 0.57477 0.0
Mg437 Mg 0.15708 0.33627 0.58264 0.0
O438 O 0.24892 0.33498 0.58616 0.0
Mg439 Mg 0.29089 0.27058 0.59109 0.0
Mg440 Mg 0.31278 0.35353 0.57427 0.0
O441 O 0.37636 0.37259 0.56266 0.0
Mg442 Mg 0.46911 0.36583 0.56523 0.0
Mg443 Mg 0.33535 0.44014 0.55958 0.0
C444 C 0.18819 0.44392 0.57371 0.0
C445 C 0.25127 0.34692 0.548 0.0
O446 O 0.20827 0.27349 0.60559 0.0
O447 O 0.12091 0.31887 0.59905 0.0
O448 O 0.21579 0.22477 0.57993 0.0
O449 O 0.14365 0.27389 0.57096 0.0
O450 O 0.14414 0.41238 0.5771 0.0
O451 O 0.25173 0.43106 0.57289 0.0
C452 C 0.38661 0.36493 0.59958 0.0
O453 O 0.37673 0.38416 0.58988 0.0
O454 O 0.36079 0.32232 0.60196 0.0
O455 O 0.41931 0.44363 0.54641 0.0
O456 O 0.50215 0.38662 0.54882 0.0
O457 O 0.40564 0.47924 0.57255 0.0
C458 C 0.4743 0.42142 0.54328 0.0
O459 O 0.48975 0.4268 0.57677 0.0
O460 O 0.47799 0.28881 0.57072 0.0
C461 C 0.46019 0.46948 0.57793 0.0
O462 O 0.37067 0.2755 0.57616 0.0
O463 O 0.25645 0.32344 0.55738 0.0
O464 O 0.27171 0.3925 0.54723 0.0
C465 C 0.14976 0.46643 0.16435 0.0
C466 C 0.17454 0.51661 0.19875 0.0
C467 C 0.43666 0.47 0.19608 0.0
Mg468 Mg 0.15208 0.41639 0.18788 0.0
O469 O 0.24383 0.41126 0.18421 0.0
Mg470 Mg 0.29419 0.47431 0.1802 0.0
Mg471 Mg 0.30614 0.38532 0.19574 0.0
O472 O 0.37027 0.35775 0.20665 0.0
Mg473 Mg 0.46189 0.3544 0.20213 0.0
Mg474 Mg 0.31693 0.29371 0.20919 0.0
C475 C 0.16807 0.3051 0.19571 0.0
C476 C 0.25616 0.39437 0.22252 0.0
O477 O 0.21227 0.47985 0.16571 0.0
O478 O 0.11663 0.44381 0.17199 0.0
O479 O 0.22364 0.52243 0.1918 0.0
O480 O 0.15497 0.4727 0.20119 0.0
O481 O 0.12876 0.33959 0.19223 0.0
O482 O 0.23237 0.31448 0.19706 0.0
C483 C 0.37965 0.37811 0.17035 0.0
O484 O 0.36487 0.35576 0.1795 0.0
O485 O 0.3595 0.42294 0.16869 0.0
O486 O 0.40637 0.27382 0.22023 0.0
O487 O 0.50129 0.31835 0.21687 0.0
O488 O 0.36735 0.25208 0.19406 0.0
C489 C 0.46856 0.28502 0.22223 0.0
O490 O 0.45793 0.29647 0.18874 0.0
O491 O 0.47954 0.4357 0.19867 0.0
C492 C 0.41669 0.25943 0.18727 0.0
O493 O 0.37281 0.45893 0.19485 0.0
O494 O 0.2573 0.41558 0.21284 0.0
O495 O 0.27147 0.34748 0.22332 0.0
H496 H 0.33341 0.3527 0.42894 0.0
H497 H 0.48337 0.24378 0.4391 0.0
H498 H 0.57448 0.29974 0.43306 0.0
H499 H 0.43549 0.4039 0.40454 0.0
H500 H 0.40669 0.46728 0.40791 0.0
H501 H 0.35179 0.41428 0.41034 0.0
H502 H 0.3378 0.44325 0.43164 0.0
H503 H 0.38891 0.49719 0.42893 0.0
H504 H 0.41269 0.45617 0.44009 0.0
H505 H 0.64815 0.36866 0.42857 0.0
H506 H 0.69572 0.45299 0.43244 0.0
H507 H 0.50066 0.51911 0.42512 0.0
C508 C 0.38543 0.34061 0.42988 0.0
C509 C 0.40121 0.29379 0.4344 0.0
C510 C 0.46994 0.27949 0.4356 0.0
C511 C 0.52207 0.31043 0.43193 0.0
C512 C 0.50476 0.35541 0.42704 0.0
C513 C 0.43813 0.37107 0.42627 0.0
C514 C 0.4336 0.42502 0.4228 0.0
C515 C 0.40521 0.42774 0.41067 0.0
C516 C 0.39088 0.45727 0.43138 0.0
C517 C 0.50806 0.43892 0.42312 0.0
C518 C 0.54848 0.39718 0.42472 0.0
C519 C 0.61742 0.40154 0.42715 0.0
C520 C 0.64406 0.44974 0.42936 0.0
C521 C 0.60086 0.49224 0.42943 0.0
C522 C 0.53455 0.48717 0.42508 0.0
H523 H 0.05843 0.97717 0.47722 0.0
H524 H 0.90931 0.09189 0.47054 0.0
H525 H 0.8195 0.02835 0.47034 0.0
H526 H 0.02268 0.89803 0.45909 0.0
H527 H 0.02771 0.83934 0.46623 0.0
H528 H 0.07266 0.89321 0.47186 0.0
H529 H 0.01165 0.88586 0.49121 0.0
H530 H 0.966 0.83126 0.48553 0.0
H531 H 0.92032 0.88429 0.49179 0.0
H532 H 0.75993 0.95691 0.46299 0.0
H533 H 0.7382 0.88599 0.44946 0.0
H534 H 0.92112 0.81249 0.46063 0.0
C535 C 1.00637 0.98874 0.47609 0.0
C536 C 0.9908 0.03871 0.47361 0.0
C537 C 0.9225 0.0534 0.47231 0.0
C538 C 0.8708 0.01765 0.47241 0.0
C539 C 0.88806 0.96755 0.47397 0.0
C540 C 0.95427 0.95314 0.47615 0.0
C541 C 0.9624 0.89655 0.47483 0.0
C542 C 0.0249 0.881 0.46755 0.0
C543 C 0.96523 0.87314 0.48654 0.0
C544 C 0.89613 0.88354 0.46899 0.0
C545 C 0.85162 0.92396 0.4695 0.0
C546 C 0.79313 0.92447 0.46286 0.0
C547 C 0.78189 0.88442 0.45501 0.0
C548 C 0.82922 0.84461 0.45386 0.0
C549 C 0.88468 0.84292 0.46134 0.0
H550 H 0.40874 0.93492 0.8115 0.0
H551 H 0.22915 0.86671 0.82557 0.0
H552 H 0.29621 0.79367 0.83082 0.0
H553 H 0.50177 0.80712 0.80368 0.0
H554 H 0.58043 0.83887 0.80719 0.0
H555 H 0.51212 0.87289 0.80087 0.0
H556 H 0.52387 0.93857 0.8178 0.0
H557 H 0.58527 0.90152 0.82498 0.0
H558 H 0.50716 0.9192 0.83204 0.0
H559 H 0.38621 0.74633 0.84045 0.0
H560 H 0.4888 0.69855 0.84474 0.0
H561 H 0.61028 0.80398 0.82618 0.0
C562 C 0.3827 0.90313 0.815 0.0
C563 C 0.31577 0.90775 0.81903 0.0
C564 C 0.28184 0.86473 0.82297 0.0
C565 C 0.31969 0.82336 0.82616 0.0
C566 C 0.38946 0.82538 0.82458 0.0
C567 C 0.42025 0.8623 0.8184 0.0
C568 C 0.49653 0.85853 0.81882 0.0
C569 C 0.52445 0.84338 0.80694 0.0
C570 C 0.53005 0.90738 0.8237 0.0
C571 C 0.50358 0.81646 0.82689 0.0
C572 C 0.44131 0.79793 0.83012 0.0
C573 C 0.43524 0.75908 0.83759 0.0
C574 C 0.49421 0.73329 0.84032 0.0
C575 C 0.55643 0.74565 0.83504 0.0
C576 C 0.56278 0.7923 0.82989 0.0
H577 H 0.99551 0.24903 0.8459 0.0
H578 H 0.19187 0.31412 0.83939 0.0
H579 H 0.15407 0.39495 0.84777 0.0
H580 H 0.90006 0.30611 0.83723 0.0
H581 H 0.83404 0.32327 0.84732 0.0
H582 H 0.88573 0.26988 0.84968 0.0
H583 H 0.91476 0.30798 0.86923 0.0
H584 H 0.8661 0.3639 0.86692 0.0
H585 H 0.95391 0.36923 0.87107 0.0
H586 H 0.0856 0.46317 0.84281 0.0
H587 H 1.0057 0.50197 0.82998 0.0
H588 H 0.84697 0.4025 0.84099 0.0
C589 C 0.03124 0.27989 0.84695 0.0
C590 C 0.09478 0.2765 0.84157 0.0
C591 C 0.14178 0.31639 0.84316 0.0
C592 C 0.1209 0.36249 0.84813 0.0
C593 C 0.0533 0.36777 0.85153 0.0
C594 C 0.01042 0.32606 0.85201 0.0
C595 C 0.93732 0.3427 0.85326 0.0
C596 C 0.88653 0.30854 0.84641 0.0
C597 C 0.91696 0.34629 0.86588 0.0
C598 C 0.94426 0.395 0.84888 0.0
C599 C 0.01144 0.41108 0.84918 0.0
C600 C 0.03286 0.45186 0.84294 0.0
C601 C 0.98734 0.47318 0.83546 0.0
C602 C 0.92031 0.45468 0.83448 0.0
C603 C 0.89794 0.41742 0.84174 0.0
H604 H 0.43249 0.57003 0.57644 0.0
H605 H 0.58822 0.4684 0.58762 0.0
H606 H 0.67434 0.51629 0.57753 0.0
H607 H 0.49036 0.57664 0.54878 0.0
H608 H 0.47108 0.64237 0.54732 0.0
H609 H 0.42188 0.60546 0.55685 0.0
H610 H 0.45009 0.66619 0.5743 0.0
H611 H 0.49194 0.70567 0.56447 0.0
H612 H 0.53705 0.68488 0.57674 0.0
H613 H 0.73962 0.56611 0.5639 0.0
H614 H 0.78923 0.64569 0.55806 0.0
H615 H 0.58986 0.70644 0.5529 0.0
C616 C 0.48511 0.55895 0.5772 0.0
C617 C 0.503 0.51249 0.5817 0.0
C618 C 0.57269 0.50209 0.58346 0.0
C619 C 0.62174 0.5278 0.57739 0.0
C620 C 0.59952 0.56532 0.5704 0.0
C621 C 0.53379 0.58312 0.57086 0.0
C622 C 0.52336 0.62614 0.56313 0.0
C623 C 0.47365 0.61177 0.55345 0.0
C624 C 0.49933 0.67353 0.57007 0.0
C625 C 0.59467 0.63135 0.55862 0.0
C626 C 0.63702 0.59407 0.5625 0.0
C627 C 0.70704 0.59562 0.56097 0.0
C628 C 0.73485 0.64069 0.55738 0.0
C629 C 0.69188 0.68311 0.55682 0.0
C630 C 0.62288 0.67485 0.55441 0.0
H631 H 0.0193 0.99793 0.60164 0.0
H632 H 0.8221 0.06068 0.59531 0.0
H633 H 0.87483 0.13933 0.58954 0.0
H634 H 0.11771 0.12841 0.6068 0.0
H635 H 0.18883 0.09959 0.59942 0.0
H636 H 0.13632 0.06261 0.60844 0.0
H637 H 0.12124 0.99896 0.59127 0.0
H638 H 0.1667 0.03794 0.58178 0.0
H639 H 0.08068 0.01934 0.57852 0.0
H640 H 0.94447 0.18834 0.57631 0.0
H641 H 0.03298 0.23322 0.56603 0.0
H642 H 0.18516 0.13296 0.57913 0.0
C643 C 0.98724 0.02977 0.59989 0.0
C644 C 0.91811 0.02219 0.59737 0.0
C645 C 0.87647 0.06511 0.59629 0.0
C646 C 0.90612 0.10967 0.59275 0.0
C647 C 0.9765 0.11073 0.59172 0.0
C648 C 0.01718 0.07332 0.59596 0.0
C649 C 0.08998 0.07863 0.5921 0.0
C650 C 0.13593 0.09322 0.60229 0.0
C651 C 0.11604 0.03086 0.58553 0.0
C652 C 0.08239 0.12163 0.58427 0.0
C653 C 0.01681 0.13965 0.58417 0.0
C654 C 0.99685 0.17657 0.57684 0.0
C655 C 0.04733 0.20076 0.57074 0.0
C656 C 0.1166 0.18854 0.57237 0.0
C657 C 0.13296 0.14453 0.57808 0.0
H658 H 0.68707 0.0943 0.18373 0.0
H659 H 0.52633 0.99292 0.19313 0.0
H660 H 0.44908 0.03299 0.18011 0.0
H661 H 0.62038 0.19213 0.18769 0.0
H662 H 0.64398 0.22897 0.17574 0.0
H663 H 0.69486 0.17677 0.17929 0.0
H664 H 0.68003 0.13687 0.15884 0.0
H665 H 0.63082 0.19162 0.15554 0.0
H666 H 0.59617 0.1295 0.15288 0.0
H667 H 0.38119 0.09832 0.17354 0.0
H668 H 0.33592 0.18029 0.17997 0.0
H669 H 0.53251 0.24833 0.17525 0.0
C670 C 0.63629 0.07939 0.18257 0.0
C671 C 0.61296 0.04045 0.18933 0.0
C672 C 0.54575 0.02259 0.18799 0.0
C673 C 0.5017 0.04464 0.18039 0.0
C674 C 0.5245 0.08566 0.1744 0.0
C675 C 0.59115 0.10252 0.17529 0.0
C676 C 0.59831 0.15508 0.17094 0.0
C677 C 0.64167 0.19022 0.17892 0.0
C678 C 0.62808 0.15304 0.15884 0.0
C679 C 0.52409 0.16955 0.17058 0.0
C680 C 0.4826 0.12714 0.17098 0.0
C681 C 0.41313 0.13143 0.17313 0.0
C682 C 0.38772 0.17829 0.1769 0.0
C683 C 0.43211 0.2198 0.17849 0.0
C684 C 0.49822 0.21676 0.17404 0.0
H685 H 0.99584 0.74172 0.17184 0.0
H686 H 0.80835 0.67578 0.18296 0.0
H687 H 0.86667 0.59639 0.18611 0.0
H688 H 0.08843 0.60904 0.16295 0.0
H689 H 0.16587 0.63755 0.16828 0.0
H690 H 0.10569 0.67467 0.16072 0.0
H691 H 0.10765 0.73895 0.17791 0.0
H692 H 0.16151 0.70028 0.18611 0.0
H693 H 0.07988 0.71939 0.19166 0.0
H694 H 0.94723 0.54956 0.1975 0.0
H695 H 0.04392 0.51009 0.20679 0.0
H696 H 0.18169 0.60952 0.18957 0.0
C697 C 0.9662 0.70921 0.17401 0.0
C698 C 0.90025 0.71555 0.1784 0.0
C699 C 0.86089 0.67213 0.18036 0.0
C700 C 0.89395 0.62689 0.18234 0.0
C701 C 0.96429 0.62597 0.18123 0.0
C702 C 0.99985 0.66466 0.17631 0.0
C703 C 0.07552 0.65943 0.17813 0.0
C704 C 0.11097 0.64423 0.16685 0.0
C705 C 0.10786 0.70736 0.18379 0.0
C706 C 0.07571 0.61663 0.18611 0.0
C707 C 0.01147 0.59739 0.18767 0.0
C708 C 0.99837 0.56195 0.19576 0.0
C709 C 0.05357 0.54092 0.20128 0.0
C710 C 0.12082 0.555 0.19847 0.0
C711 C 0.13116 0.59659 0.19161 0.0
H712 H 0.61017 0.95993 0.97545 0.0
H713 H 0.44055 0.06237 0.9803 0.0
H714 H 0.36275 0.99114 0.9804 0.0
H715 H 0.56583 0.89478 0.95637 0.0
H716 H 0.58517 0.83079 0.9598 0.0
H717 H 0.63003 0.88175 0.96679 0.0
H718 H 0.59359 0.85179 0.98648 0.0
H719 H 0.54957 0.79929 0.9795 0.0
H720 H 0.5052 0.84097 0.98946 0.0
H721 H 0.30973 0.9286 0.96894 0.0
H722 H 0.28284 0.8691 0.95316 0.0
H723 H 0.47734 0.7963 0.95693 0.0
C724 C 0.55684 0.96675 0.97701 0.0
C725 C 0.53083 0.0161 0.97729 0.0
C726 C 0.46143 0.0246 0.97965 0.0
C727 C 0.41676 0.98419 0.97995 0.0
C728 C 0.44246 0.93576 0.97802 0.0
C729 C 0.51162 0.92628 0.97732 0.0
C730 C 0.52518 0.87282 0.97286 0.0
C731 C 0.5796 0.87002 0.96338 0.0
C732 C 0.54448 0.83924 0.98266 0.0
C733 C 0.45534 0.85936 0.96845 0.0
C734 C 0.4077 0.89503 0.97203 0.0
C735 C 0.34506 0.89869 0.96665 0.0
C736 C 0.33079 0.86553 0.95747 0.0
C737 C 0.37783 0.82791 0.954 0.0
C738 C 0.44003 0.82409 0.95971 0.0
H739 H 0.92675 0.31058 0.93852 0.0
H740 H 0.7277 0.38063 0.93865 0.0
H741 H 0.78053 0.46204 0.93468 0.0
H742 H 0.00872 0.40085 0.9535 0.0
H743 H 0.0874 0.39652 0.94568 0.0
H744 H 0.03232 0.34287 0.94592 0.0
H745 H 0.03064 0.3389 0.9238 0.0
H746 H 0.0844 0.39401 0.92361 0.0
H747 H 1.00397 0.39325 0.91632 0.0
H748 H 0.85098 0.53443 0.93415 0.0
H749 H 0.93313 0.59615 0.94143 0.0
H750 H 0.09016 0.48142 0.94055 0.0
C751 C 0.89426 0.34311 0.93775 0.0
C752 C 0.82344 0.33973 0.93889 0.0
C753 C 0.78235 0.38282 0.93781 0.0
C754 C 0.81167 0.42872 0.93526 0.0
C755 C 0.88163 0.43032 0.9337 0.0
C756 C 0.92253 0.38886 0.93508 0.0
C757 C 0.99675 0.40232 0.93493 0.0
C758 C 0.03333 0.38468 0.94565 0.0
C759 C 0.03092 0.38085 0.92401 0.0
C760 C 0.99083 0.45893 0.9348 0.0
C761 C 0.92413 0.47387 0.93332 0.0
C762 C 0.90353 0.52356 0.93501 0.0
C763 C 0.95073 0.55826 0.93926 0.0
C764 C 0.01789 0.54303 0.94164 0.0
C765 C 0.03925 0.49377 0.93867 0.0
H766 H 0.50399 0.23314 0.3438 0.0
H767 H 0.69452 0.30329 0.33513 0.0
H768 H 0.64222 0.38644 0.33755 0.0
H769 H 0.41223 0.27984 0.32861 0.0
H770 H 0.33668 0.29673 0.33652 0.0
H771 H 0.39029 0.24799 0.34137 0.0
H772 H 0.40725 0.29369 0.36093 0.0
H773 H 0.34931 0.34174 0.35661 0.0
H774 H 0.43243 0.35913 0.36184 0.0
H775 H 0.56502 0.44548 0.32996 0.0
H776 H 0.47149 0.49132 0.32153 0.0
H777 H 0.32744 0.38626 0.33545 0.0
C778 C 0.53577 0.26625 0.34328 0.0
C779 C 0.60181 0.26223 0.33881 0.0
C780 C 0.64286 0.30574 0.33824 0.0
C781 C 0.61359 0.35331 0.33968 0.0
C782 C 0.5444 0.35594 0.34201 0.0
C783 C 0.50664 0.3138 0.34466 0.0
C784 C 0.43129 0.32469 0.3445 0.0
C785 C 0.39043 0.28498 0.33731 0.0
C786 C 0.40345 0.33019 0.3567 0.0
C787 C 0.43281 0.37487 0.33903 0.0
C788 C 0.49822 0.39305 0.33804 0.0
C789 C 0.51327 0.43356 0.33136 0.0
C790 C 0.45979 0.45837 0.32628 0.0
C791 C 0.39189 0.44279 0.32801 0.0
C792 C 0.37874 0.39953 0.33416 0.0
H793 H 0.92515 0.94155 0.31238 0.0
H794 H 0.73534 0.86966 0.32093 0.0
H795 H 0.75757 0.80188 0.30659 0.0
H796 H 0.93614 0.88149 0.28047 0.0
H797 H 0.02633 0.87654 0.28242 0.0
H798 H 0.98089 0.93003 0.28863 0.0
H799 H 0.03183 0.91047 0.30826 0.0
H800 H 0.07506 0.85693 0.30214 0.0
H801 H 0.01771 0.8491 0.31388 0.0
H802 H 0.81478 0.73097 0.29802 0.0
H803 H 0.90114 0.66466 0.29675 0.0
H804 H 0.05756 0.77815 0.2934 0.0
C805 C 0.88738 0.9123 0.31092 0.0
C806 C 0.82985 0.90982 0.31793 0.0
C807 C 0.78087 0.87155 0.31581 0.0
C808 C 0.79242 0.83339 0.3075 0.0
C809 C 0.85284 0.83429 0.30135 0.0
C810 C 0.89913 0.87353 0.3028 0.0
C811 C 0.9669 0.86005 0.29752 0.0
C812 C 0.97817 0.88871 0.28661 0.0
C813 C 0.02617 0.86959 0.30597 0.0
C814 C 0.95504 0.80455 0.29478 0.0
C815 C 0.88767 0.79126 0.29625 0.0
C816 C 0.86708 0.74097 0.29646 0.0
C817 C 0.91666 0.70351 0.2959 0.0
C818 C 0.98594 0.7168 0.29528 0.0
C819 C 1.00473 0.76741 0.29399 0.0
H820 H 0.52276 0.01693 0.09738 0.0
H821 H 0.32599 0.08435 0.09297 0.0
H822 H 0.37958 0.15923 0.08531 0.0
H823 H 0.62654 0.14504 0.10043 0.0
H824 H 0.69448 0.11373 0.09269 0.0
H825 H 0.6432 0.07915 0.10236 0.0
H826 H 0.62143 0.01397 0.08571 0.0
H827 H 0.66506 0.05078 0.07554 0.0
H828 H 0.57757 0.03351 0.07322 0.0
H829 H 0.44685 0.20513 0.0711 0.0
H830 H 0.53416 0.24885 0.06035 0.0
H831 H 0.68682 0.1468 0.07263 0.0
C832 C 0.49136 0.04913 0.09563 0.0
C833 C 0.42065 0.04343 0.09441 0.0
C834 C 0.38084 0.08717 0.09312 0.0
C835 C 0.41079 0.12942 0.08847 0.0
C836 C 0.48046 0.12798 0.08652 0.0
C837 C 0.52121 0.09068 0.09075 0.0
C838 C 0.593 0.09415 0.08628 0.0
C839 C 0.64222 0.10894 0.09601 0.0
C840 C 0.61551 0.04518 0.07981 0.0
C841 C 0.58466 0.1364 0.07824 0.0
C842 C 0.51949 0.15528 0.07849 0.0
C843 C 0.49898 0.19251 0.0713 0.0
C844 C 0.54882 0.21614 0.06496 0.0
C845 C 0.61821 0.20327 0.06624 0.0
C846 C 0.63465 0.15883 0.0718 0.0
H847 H 0.0244 0.51376 0.09985 0.0
H848 H 0.82724 0.57833 0.09429 0.0
H849 H 0.87265 0.66255 0.09867 0.0
H850 H 0.09479 0.64587 0.11841 0.0
H851 H 0.17642 0.63197 0.11216 0.0
H852 H 0.12543 0.58183 0.1176 0.0
H853 H 0.13592 0.53362 0.09814 0.0
H854 H 0.1846 0.58359 0.09265 0.0
H855 H 0.10782 0.56331 0.08543 0.0
H856 H 0.939 0.72482 0.09004 0.0
H857 H 0.01612 0.763 0.07657 0.0
H858 H 0.17799 0.66553 0.08718 0.0
C859 C 0.99028 0.54557 0.10046 0.0
C860 C 0.92403 0.54049 0.09609 0.0
C861 C 0.87927 0.58185 0.09719 0.0
C862 C 0.90491 0.63014 0.09972 0.0
C863 C 0.97478 0.63574 0.10127 0.0
C864 C 0.01665 0.5942 0.10261 0.0
C865 C 0.09068 0.60885 0.1013 0.0
C866 C 0.12374 0.61768 0.11307 0.0
C867 C 0.13191 0.57009 0.09391 0.0
C868 C 0.08192 0.65848 0.09566 0.0
C869 C 0.01553 0.67527 0.09653 0.0
C870 C 0.99175 0.71369 0.08985 0.0
C871 C 0.03573 0.73458 0.08201 0.0
C872 C 0.10361 0.71783 0.081 0.0
C873 C 0.12692 0.68001 0.08807 0.0
H874 H 0.42162 0.69328 0.72567 0.0
H875 H 0.59017 0.79852 0.72544 0.0
H876 H 0.66738 0.73222 0.7308 0.0
H877 H 0.51591 0.60204 0.74805 0.0
H878 H 0.47674 0.54863 0.74063 0.0
H879 H 0.43018 0.60674 0.7429 0.0
H880 H 0.407 0.60853 0.72128 0.0
H881 H 0.45242 0.551 0.71906 0.0
H882 H 0.47758 0.60575 0.71149 0.0
H883 H 0.72827 0.65715 0.7277 0.0
H884 H 0.76178 0.58498 0.71528 0.0
H885 H 0.5611 0.52074 0.7182 0.0
C886 C 0.47463 0.70222 0.72705 0.0
C887 C 0.50016 0.75029 0.72482 0.0
C888 C 0.56941 0.76148 0.72686 0.0
C889 C 0.61364 0.72423 0.7302 0.0
C890 C 0.58812 0.6759 0.73155 0.0
C891 C 0.51954 0.66497 0.73034 0.0
C892 C 0.5073 0.60868 0.72955 0.0
C893 C 0.48101 0.59047 0.74096 0.0
C894 C 0.45841 0.59267 0.71974 0.0
C895 C 0.57933 0.59103 0.7275 0.0
C896 C 0.62566 0.6297 0.72981 0.0
C897 C 0.6929 0.62635 0.72615 0.0
C898 C 0.7114 0.58559 0.71894 0.0
C899 C 0.6629 0.54869 0.71563 0.0
C900 C 0.59851 0.54896 0.72075 0.0
H901 H 0.8923 0.18988 0.67811 0.0
H902 H 0.03599 0.30115 0.66716 0.0
H903 H 0.12422 0.2369 0.66562 0.0
H904 H 0.96889 0.15066 0.69692 0.0
H905 H 0.9585 0.08305 0.69621 0.0
H906 H 0.89659 0.1218 0.68976 0.0
H907 H 0.91244 0.07708 0.66999 0.0
H908 H 0.97037 0.03439 0.67647 0.0
H909 H 0.99653 0.06807 0.66425 0.0
H910 H 0.20153 0.1828 0.67555 0.0
H911 H 0.26095 0.12023 0.68674 0.0
H912 H 0.06937 0.04419 0.69245 0.0
C913 C 0.94106 0.19955 0.67457 0.0
C914 C 0.95971 0.25047 0.67371 0.0
C915 C 0.02205 0.2623 0.66849 0.0
C916 C 0.07285 0.22594 0.66764 0.0
C917 C 0.05821 0.17826 0.67149 0.0
C918 C 0.99249 0.16352 0.67407 0.0
C919 C 0.99228 0.11446 0.68019 0.0
C920 C 0.95172 0.11783 0.69143 0.0
C921 C 0.96642 0.07092 0.67225 0.0
C922 C 0.0671 0.10933 0.68239 0.0
C923 C 0.10439 0.14553 0.67707 0.0
C924 C 0.17342 0.1523 0.67916 0.0
C925 C 0.20632 0.11766 0.68584 0.0
C926 C 0.16998 0.07672 0.69025 0.0
C927 C 0.09888 0.07466 0.6891 0.0
H928 H 0.27585 0.95642 0.4428 0.0
H929 H 0.40908 0.05714 0.4623 0.0
H930 H 0.49543 0.98977 0.46271 0.0
H931 H 0.32779 0.83785 0.4576 0.0
H932 H 0.31997 0.79944 0.44462 0.0
H933 H 0.26646 0.85392 0.447 0.0
H934 H 0.30773 0.88791 0.42793 0.0
H935 H 0.36297 0.83441 0.42566 0.0
H936 H 0.39721 0.8975 0.42568 0.0
H937 H 0.5759 0.91497 0.4581 0.0
H938 H 0.63208 0.83354 0.45305 0.0
H939 H 0.44459 0.7767 0.43809 0.0
C940 C 0.32147 0.96333 0.44776 0.0
C941 C 0.33386 0.01209 0.45297 0.0
C942 C 0.39655 0.01994 0.4587 0.0
C943 C 0.44672 0.98194 0.45877 0.0
C944 C 0.43401 0.93523 0.45316 0.0
C945 C 0.37181 0.92511 0.44812 0.0
C946 C 0.37146 0.87175 0.44259 0.0
C947 C 0.31827 0.83878 0.44829 0.0
C948 C 0.35909 0.873 0.4297 0.0
C949 C 0.44339 0.85389 0.44509 0.0
C950 C 0.47908 0.89153 0.45101 0.0
C951 C 0.5477 0.8851 0.45365 0.0
C952 C 0.57975 0.83875 0.45058 0.0
C953 C 0.54355 0.79833 0.44507 0.0
C954 C 0.47422 0.80661 0.44226 0.0
H955 H 0.98085 0.32189 0.46235 0.0
H956 H 0.13123 0.32191 0.43539 0.0
H957 H 0.08474 0.40312 0.42923 0.0
H958 H 0.84226 0.37696 0.44613 0.0
H959 H 0.80957 0.41342 0.45821 0.0
H960 H 0.85263 0.35463 0.46027 0.0
H961 H 0.93623 0.40051 0.47418 0.0
H962 H 0.89357 0.45942 0.47215 0.0
H963 H 0.98344 0.45417 0.46956 0.0
H964 H 0.02493 0.48623 0.4265 0.0
H965 H 0.95789 0.56359 0.42684 0.0
H966 H 0.84174 0.51257 0.45555 0.0
C967 C 1.00407 0.33856 0.45507 0.0
C968 C 0.06044 0.31457 0.44936 0.0
C969 C 0.08834 0.33855 0.4399 0.0
C970 C 0.06209 0.38499 0.43637 0.0
C971 C 1.00722 0.40745 0.44226 0.0
C972 C 0.97815 0.38484 0.45138 0.0
C973 C 0.91991 0.41733 0.45633 0.0
C974 C 0.85207 0.38888 0.45517 0.0
C975 C 0.93416 0.43383 0.4688 0.0
C976 C 0.92132 0.46251 0.4487 0.0
C977 C 0.97219 0.45549 0.44065 0.0
C978 C 0.98513 0.49175 0.43277 0.0
C979 C 0.94631 0.53615 0.43311 0.0
C980 C 0.89385 0.54558 0.44128 0.0
C981 C 0.88078 0.50728 0.44914 0.0
H982 H 0.31778 0.27163 0.82644 0.0
H983 H 0.4867 0.16686 0.82409 0.0
H984 H 0.5666 0.23758 0.82384 0.0
H985 H 0.39507 0.3642 0.80743 0.0
H986 H 0.36244 0.41834 0.81546 0.0
H987 H 0.31684 0.35932 0.81525 0.0
H988 H 0.31982 0.36126 0.83722 0.0
H989 H 0.36629 0.41992 0.83751 0.0
H990 H 0.40023 0.36638 0.84448 0.0
H991 H 0.63234 0.3204 0.82505 0.0
H992 H 0.67507 0.40845 0.825 0.0
H993 H 0.4674 0.46228 0.82566 0.0
C994 C 0.3714 0.26352 0.82565 0.0
C995 C 0.39482 0.21255 0.82534 0.0
C996 C 0.46616 0.20474 0.82444 0.0
C997 C 0.5127 0.24502 0.82431 0.0
C998 C 0.48857 0.29432 0.82499 0.0
C999 C 0.41953 0.30395 0.82541 0.0
C1000 C 0.40805 0.36107 0.82588 0.0
C1001 C 0.36824 0.37665 0.81538 0.0
C1002 C 0.37141 0.37815 0.83693 0.0
C1003 C 0.48096 0.38146 0.82573 0.0
C1004 C 0.52665 0.34219 0.82532 0.0
C1005 C 0.59678 0.35145 0.82529 0.0
C1006 C 0.62091 0.40185 0.82535 0.0
C1007 C 0.57543 0.44313 0.82534 0.0
C1008 C 0.50428 0.4321 0.82567 0.0
H1009 H 0.97924 0.72608 0.8245 0.0
H1010 H 0.76673 0.76155 0.81979 0.0
H1011 H 0.79605 0.85248 0.81998 0.0
H1012 H 0.02172 0.83115 0.8434 0.0
H1013 H 0.10438 0.84176 0.83739 0.0
H1014 H 0.06762 0.77942 0.83657 0.0
H1015 H 0.08187 0.77562 0.81473 0.0
H1016 H 0.11882 0.8379 0.81544 0.0
H1017 H 0.04599 0.82482 0.80654 0.0
H1018 H 0.84827 0.94103 0.82174 0.0
H1019 H 0.91746 0.01813 0.82293 0.0
H1020 H 0.09955 0.92798 0.82594 0.0
C1021 C 0.93865 0.75278 0.82337 0.0
C1022 C 0.86999 0.7356 0.82208 0.0
C1023 C 0.81936 0.7727 0.82068 0.0
C1024 C 0.83574 0.82481 0.82086 0.0
C1025 C 0.90343 0.84019 0.82236 0.0
C1026 C 0.95432 0.80513 0.82342 0.0
C1027 C 0.02324 0.83178 0.82478 0.0
C1028 C 0.05618 0.82033 0.83622 0.0
C1029 C 0.07027 0.81662 0.81478 0.0
C1030 C 1.0033 0.88746 0.82449 0.0
C1031 C 0.93375 0.89114 0.82313 0.0
C1032 C 0.90269 0.93819 0.82272 0.0
C1033 C 0.94302 0.98222 0.82344 0.0
C1034 C 0.01492 0.98038 0.82454 0.0
C1035 C 0.04509 0.93164 0.8252 0.0
H1036 H 0.55982 0.22362 0.58029 0.0
H1037 H 0.35591 0.17326 0.57173 0.0
H1038 H 0.39744 0.08519 0.56976 0.0
H1039 H 0.65026 0.13988 0.56158 0.0
H1040 H 0.71859 0.12736 0.57123 0.0
H1041 H 0.67354 0.18639 0.57256 0.0
H1042 H 0.64501 0.17032 0.59354 0.0
H1043 H 0.69129 0.11179 0.59232 0.0
H1044 H 0.60419 0.11206 0.59699 0.0
H1045 H 0.46325 1.00448 0.56643 0.0
H1046 H 0.54093 0.93263 0.56615 0.0
H1047 H 0.70422 0.03059 0.57858 0.0
C1048 C 0.52344 0.1939 0.57827 0.0
C1049 C 0.45393 0.20584 0.57623 0.0
C1050 C 0.40868 0.16556 0.57352 0.0
C1051 C 0.43224 0.11533 0.57223 0.0
C1052 C 0.50124 0.10533 0.57389 0.0
C1053 C 0.54595 0.14322 0.5772 0.0
C1054 C 0.61736 0.12166 0.57871 0.0
C1055 C 0.66792 0.14525 0.57053 0.0
C1056 C 0.64085 0.12942 0.59113 0.0
C1057 C 0.60618 0.06571 0.57555 0.0
C1058 C 0.5388 0.05778 0.57262 0.0
C1059 C 0.51559 0.01028 0.56895 0.0
C1060 C 0.56081 0.96947 0.56877 0.0
C1061 C 0.62939 0.97493 0.57244 0.0
C1062 C 0.65271 0.02451 0.57563 0.0
H1063 H 0.21857 0.54383 0.5817 0.0
H1064 H 0.08578 0.45617 0.55902 0.0
H1065 H 0.01078 0.52963 0.55755 0.0
H1066 H 0.09221 0.61214 0.59675 0.0
H1067 H 0.13529 0.67221 0.59776 0.0
H1068 H 0.18358 0.61464 0.59644 0.0
H1069 H 0.24424 0.64605 0.5786 0.0
H1070 H 0.19724 0.70424 0.58002 0.0
H1071 H 0.19449 0.66677 0.56685 0.0
H1072 H 0.93976 0.60803 0.56072 0.0
H1073 H 0.89044 0.69232 0.56493 0.0
H1074 H 0.07065 0.73618 0.58408 0.0
C1075 C 0.17549 0.54085 0.57601 0.0
C1076 C 0.15937 0.49374 0.57027 0.0
C1077 C 0.10045 0.49155 0.56332 0.0
C1078 C 0.05681 0.53315 0.56253 0.0
C1079 C 0.07223 0.57803 0.56863 0.0
C1080 C 0.13124 0.58295 0.57495 0.0
C1081 C 0.13471 0.63608 0.58065 0.0
C1082 C 0.13657 0.63359 0.59367 0.0
C1083 C 0.19634 0.66501 0.57627 0.0
C1084 C 0.06812 0.65948 0.57671 0.0
C1085 C 0.03253 0.62473 0.56994 0.0
C1086 C 0.96792 0.63579 0.56584 0.0
C1087 C 0.93973 0.68384 0.5684 0.0
C1088 C 0.97595 0.72149 0.57485 0.0
C1089 C 0.04131 0.70864 0.57909 0.0
H1090 H 0.56431 0.51031 0.19079 0.0
H1091 H 0.36438 0.55353 0.20312 0.0
H1092 H 0.40563 0.64047 0.20715 0.0
H1093 H 0.66453 0.58903 0.21011 0.0
H1094 H 0.72587 0.60757 0.19971 0.0
H1095 H 0.68248 0.54783 0.19786 0.0
H1096 H 0.64059 0.57203 0.17802 0.0
H1097 H 0.68493 0.63138 0.17977 0.0
H1098 H 0.59545 0.63047 0.17662 0.0
H1099 H 0.46975 0.72103 0.2114 0.0
H1100 H 0.54315 0.79588 0.21148 0.0
H1101 H 0.70177 0.70782 0.19451 0.0
C1102 C 0.52895 0.53829 0.19419 0.0
C1103 C 0.46045 0.52442 0.19661 0.0
C1104 C 0.4164 0.56262 0.20105 0.0
C1105 C 0.43979 0.61224 0.2035 0.0
C1106 C 0.50748 0.62427 0.20127 0.0
C1107 C 0.5511 0.58894 0.19637 0.0
C1108 C 0.6203 0.61346 0.19419 0.0
C1109 C 0.67663 0.58793 0.20087 0.0
C1110 C 0.63626 0.61174 0.18139 0.0
C1111 C 0.60892 0.66783 0.19877 0.0
C1112 C 0.54365 0.67239 0.20302 0.0
C1113 C 0.52052 0.71789 0.20794 0.0
C1114 C 0.56325 0.76039 0.20803 0.0
C1115 C 0.62901 0.75862 0.20307 0.0
C1116 C 0.65269 0.71086 0.1986 0.0
H1117 H 0.20458 0.20199 0.19099 0.0
H1118 H 0.04799 0.29754 0.20635 0.0
H1119 H 0.97215 0.22438 0.20731 0.0
H1120 H 0.09598 0.12226 0.17403 0.0
H1121 H 0.13928 0.06375 0.17626 0.0
H1122 H 0.18535 0.12257 0.17728 0.0
H1123 H 0.22478 0.10381 0.19758 0.0
H1124 H 0.17985 0.04447 0.19657 0.0
H1125 H 0.16267 0.08925 0.2082 0.0
H1126 H 0.90626 0.14384 0.20463 0.0
H1127 H 0.86208 0.05713 0.20187 0.0
H1128 H 0.05978 0.00711 0.18973 0.0
C1129 C 0.15527 0.20714 0.19492 0.0
C1130 C 0.13305 0.2564 0.19866 0.0
C1131 C 0.067 0.26086 0.20344 0.0
C1132 C 0.02294 0.2193 0.20397 0.0
C1133 C 0.04483 0.17211 0.19982 0.0
C1134 C 0.11001 0.16516 0.19567 0.0
C1135 C 0.1195 0.10949 0.19187 0.0
C1136 C 0.13602 0.10423 0.1791 0.0
C1137 C 0.17501 0.08532 0.19898 0.0
C1138 C 0.04947 0.087 0.19438 0.0
C1139 C 1.00718 0.12432 0.19881 0.0
C1140 C 0.93934 0.11414 0.20132 0.0
C1141 C 0.91431 0.0645 0.19961 0.0
C1142 C 0.95671 0.02444 0.19557 0.0
C1143 C 0.02552 0.03642 0.19285 0.0
H1144 H 0.46493 0.54183 0.94512 0.0
H1145 H 0.25419 0.49964 0.94956 0.0
H1146 H 0.28894 0.40992 0.95034 0.0
H1147 H 0.51481 0.4355 0.92726 0.0
H1148 H 0.59761 0.42958 0.93355 0.0
H1149 H 0.55681 0.49032 0.93359 0.0
H1150 H 0.56849 0.49973 0.9555 0.0
H1151 H 0.61047 0.43947 0.95546 0.0
H1152 H 0.5362 0.45064 0.96414 0.0
H1153 H 0.34771 0.32332 0.95002 0.0
H1154 H 0.42423 0.25009 0.95107 0.0
H1155 H 0.59816 0.34765 0.94702 0.0
C1156 C 0.4258 0.51393 0.94639 0.0
C1157 C 0.35624 0.52854 0.94732 0.0
C1158 C 0.3075 0.49017 0.94895 0.0
C1159 C 0.32695 0.43884 0.94929 0.0
C1160 C 0.39562 0.42591 0.94805 0.0
C1161 C 0.44443 0.46261 0.94682 0.0
C1162 C 0.51505 0.43902 0.94591 0.0
C1163 C 0.548 0.44923 0.93439 0.0
C1164 C 0.56022 0.45836 0.95584 0.0
C1165 C 0.49873 0.38308 0.94678 0.0
C1166 C 0.42935 0.37643 0.94791 0.0
C1167 C 0.40187 0.32843 0.94909 0.0
C1168 C 0.44592 0.28676 0.94955 0.0
C1169 C 0.5174 0.29232 0.94878 0.0
C1170 C 0.54388 0.34144 0.9472 0.0
H1171 H 0.97244 0.80055 0.9423 0.0
H1172 H 0.17033 0.86607 0.94895 0.0
H1173 H 0.11779 0.95084 0.95126 0.0
H1174 H 0.90406 0.90828 0.92633 0.0
H1175 H 0.82003 0.90048 0.93204 0.0
H1176 H 0.87493 0.84661 0.93 0.0
H1177 H 0.85871 0.82727 0.95118 0.0
H1178 H 0.80569 0.88208 0.95339 0.0
H1179 H 0.88012 0.87479 0.96205 0.0
H1180 H 0.04063 0.02713 0.95517 0.0
H1181 H 0.95125 0.09201 0.9559 0.0
H1182 H 0.80152 0.97887 0.94576 0.0
C1183 C 1.00518 0.83305 0.94378 0.0
C1184 C 0.07642 0.82646 0.9452 0.0
C1185 C 0.11662 0.86997 0.94747 0.0
C1186 C 0.08665 0.91823 0.94901 0.0
C1187 C 0.01604 0.92283 0.94812 0.0
C1188 C 0.97602 0.88156 0.94517 0.0
C1189 C 0.90134 0.89669 0.94466 0.0
C1190 C 0.87344 0.88748 0.93253 0.0
C1191 C 0.85898 0.86851 0.95334 0.0
C1192 C 0.90514 0.95295 0.94793 0.0
C1193 C 0.97186 0.96688 0.95006 0.0
C1194 C 0.98855 0.01646 0.9534 0.0
C1195 C 0.93695 0.05309 0.95396 0.0
C1196 C 0.86858 0.04092 0.95113 0.0
C1197 C 0.85248 0.98954 0.94833 0.0
H1198 H 0.4359 0.72027 0.31572 0.0
H1199 H 0.23486 0.77796 0.32347 0.0
H1200 H 0.28412 0.86323 0.32733 0.0
H1201 H 0.5265 0.79162 0.33667 0.0
H1202 H 0.5998 0.80379 0.32804 0.0
H1203 H 0.54928 0.748 0.3251 0.0
H1204 H 0.53102 0.77338 0.30435 0.0
H1205 H 0.58303 0.82852 0.30717 0.0
H1206 H 0.49828 0.83517 0.3017 0.0
H1207 H 0.35763 0.94033 0.33254 0.0
H1208 H 0.44342 0.00756 0.33464 0.0
H1209 H 0.59898 0.90328 0.32235 0.0
C1210 C 0.40179 0.75118 0.31789 0.0
C1211 C 0.33072 0.74198 0.31912 0.0
C1212 C 0.28868 0.78364 0.32219 0.0
C1213 C 0.31667 0.83223 0.32457 0.0
C1214 C 0.38703 0.83927 0.32373 0.0
C1215 C 0.42886 0.80016 0.32011 0.0
C1216 C 0.50279 0.81805 0.31974 0.0
C1217 C 0.5472 0.78859 0.32787 0.0
C1218 C 0.53041 0.81352 0.30751 0.0
C1219 C 0.49644 0.87329 0.32388 0.0
C1220 C 0.42912 0.88425 0.32628 0.0
C1221 C 0.41008 0.93207 0.3305 0.0
C1222 C 0.45976 0.97013 0.33176 0.0
C1223 C 0.52876 0.96144 0.32873 0.0
C1224 C 0.54738 0.91153 0.32497 0.0
H1225 H 0.97389 0.43016 0.30898 0.0
H1226 H 0.13233 0.43077 0.3346 0.0
H1227 H 0.08933 0.34883 0.34098 0.0
H1228 H 0.84144 0.37326 0.3263 0.0
H1229 H 0.80542 0.33656 0.31451 0.0
H1230 H 0.84706 0.39572 0.31209 0.0
H1231 H 0.92673 0.35064 0.29745 0.0
H1232 H 0.88546 0.29134 0.29983 0.0
H1233 H 0.97596 0.29736 0.30163 0.0
H1234 H 0.03197 0.2649 0.34412 0.0
H1235 H 0.96517 0.18732 0.34446 0.0
H1236 H 0.83858 0.23815 0.31703 0.0
C1237 C 0.99959 0.41342 0.31601 0.0
C1238 C 0.05722 0.43791 0.32128 0.0
C1239 C 0.08842 0.41381 0.33041 0.0
C1240 C 0.06419 0.36691 0.33408 0.0
C1241 C 1.00797 0.34397 0.32864 0.0
C1242 C 0.97564 0.36661 0.31984 0.0
C1243 C 0.91626 0.3336 0.31542 0.0
C1244 C 0.84853 0.36145 0.31718 0.0
C1245 C 0.92674 0.31728 0.30283 0.0
C1246 C 0.9206 0.28831 0.32299 0.0
C1247 C 0.97414 0.29554 0.33053 0.0
C1248 C 0.99005 0.25923 0.33825 0.0
C1249 C 0.95128 0.21467 0.33832 0.0
C1250 C 0.89576 0.20515 0.33074 0.0
C1251 C 0.88004 0.24341 0.32299 0.0
H1252 H 0.54774 0.75035 0.08357 0.0
H1253 H 0.36094 0.70361 0.06665 0.0
H1254 H 0.40956 0.61896 0.06257 0.0
H1255 H 0.6648 0.68057 0.06553 0.0
H1256 H 0.7198 0.66169 0.0768 0.0
H1257 H 0.67175 0.71931 0.07848 0.0
H1258 H 0.61815 0.68855 0.097 0.0
H1259 H 0.6671 0.63134 0.09547 0.0
H1260 H 0.57613 0.62806 0.09681 0.0
H1261 H 0.48069 0.54124 0.05895 0.0
H1262 H 0.55841 0.46919 0.05952 0.0
H1263 H 0.69891 0.55946 0.08031 0.0
C1264 C 0.51666 0.72206 0.07914 0.0
C1265 C 0.44982 0.7343 0.07545 0.0
C1266 C 0.41147 0.69574 0.06969 0.0
C1267 C 0.43917 0.64744 0.06722 0.0
C1268 C 0.50535 0.63715 0.07072 0.0
C1269 C 0.54307 0.6728 0.07686 0.0
C1270 C 0.61172 0.6504 0.08012 0.0
C1271 C 0.6705 0.67976 0.07492 0.0
C1272 C 0.61868 0.64953 0.09312 0.0
C1273 C 0.60697 0.5968 0.07473 0.0
C1274 C 0.54538 0.59079 0.06918 0.0
C1275 C 0.52858 0.54554 0.06338 0.0
C1276 C 0.57374 0.5047 0.06369 0.0
C1277 C 0.63566 0.50795 0.06986 0.0
C1278 C 0.65307 0.55549 0.07528 0.0
H1279 H 0.19676 0.05469 0.07852 0.0
H1280 H 0.0423 0.96512 0.06067 0.0
H1281 H 0.97079 0.04018 0.05946 0.0
H1282 H 0.08538 0.13463 0.09482 0.0
H1283 H 0.13241 0.19246 0.09353 0.0
H1284 H 0.17583 0.13269 0.09257 0.0
H1285 H 0.22456 0.15349 0.07297 0.0
H1286 H 0.18222 0.21373 0.07391 0.0
H1287 H 0.1678 0.17095 0.0618 0.0
H1288 H 0.90775 0.1217 0.06212 0.0
H1289 H 0.86639 0.2089 0.06522 0.0
H1290 H 0.06113 0.25284 0.07979 0.0
C1291 C 0.14896 0.05126 0.07403 0.0
C1292 C 0.12591 1.00303 0.06966 0.0
C1293 C 0.06187 1.00088 0.0641 0.0
C1294 C 0.02025 0.04357 0.06341 0.0
C1295 C 0.04268 0.08965 0.06817 0.0
C1296 C 0.10626 0.09446 0.07309 0.0
C1297 C 0.11689 0.1494 0.07742 0.0
C1298 C 0.12831 0.15245 0.09035 0.0
C1299 C 0.17641 0.17331 0.07115 0.0
C1300 C 0.04921 0.1739 0.07431 0.0
C1301 C 1.00706 0.13817 0.06913 0.0
C1302 C 0.94083 0.15019 0.066 0.0
C1303 C 0.91739 0.20008 0.06789 0.0
C1304 C 0.95988 0.2386 0.07272 0.0
C1305 C 0.02698 0.22477 0.07602 0.0
H1306 H 0.40987 0.08238 0.69927 0.0
H1307 H 0.57375 0.97834 0.69138 0.0
H1308 H 0.65261 0.05011 0.68943 0.0
H1309 H 0.467 0.18355 0.68007 0.0
H1310 H 0.44086 0.2332 0.69009 0.0
H1311 H 0.39643 0.17367 0.68946 0.0
H1312 H 0.41832 0.16547 0.71099 0.0
H1313 H 0.4643 0.22427 0.71162 0.0
H1314 H 0.50415 0.16769 0.71627 0.0
H1315 H 0.71763 0.13442 0.69053 0.0
H1316 H 0.75804 0.22319 0.69205 0.0
H1317 H 0.55201 0.2726 0.69905 0.0
C1318 C 0.46155 0.07489 0.69659 0.0
C1319 C 0.48494 0.02451 0.69505 0.0
C1320 C 0.55406 0.01645 0.69219 0.0
C1321 C 0.59953 0.05711 0.69121 0.0
C1322 C 0.57564 0.10624 0.69316 0.0
C1323 C 0.50786 0.11533 0.69556 0.0
C1324 C 0.49583 0.17162 0.69774 0.0
C1325 C 0.44715 0.1917 0.68881 0.0
C1326 C 0.46907 0.18289 0.70988 0.0
C1327 C 0.56724 0.19256 0.69634 0.0
C1328 C 0.61279 0.15431 0.69377 0.0
C1329 C 0.68203 0.16464 0.69243 0.0
C1330 C 0.70484 0.21528 0.69343 0.0
C1331 C 0.6587 0.2554 0.69568 0.0
C1332 C 0.58906 0.2432 0.69729 0.0
H1333 H 0.05813 0.52539 0.69106 0.0
H1334 H 0.85812 0.57725 0.70143 0.0
H1335 H 0.90446 0.66372 0.7049 0.0
H1336 H 0.15452 0.60024 0.71115 0.0
H1337 H 0.22262 0.61344 0.7015 0.0
H1338 H 0.17392 0.55613 0.6995 0.0
H1339 H 0.14431 0.57889 0.67893 0.0
H1340 H 0.19415 0.63569 0.68078 0.0
H1341 H 0.10665 0.6393 0.67647 0.0
H1342 H 0.97529 0.74429 0.70826 0.0
H1343 H 0.05773 0.81431 0.70833 0.0
H1344 H 0.2129 0.71184 0.69521 0.0
C1345 C 0.02356 0.55501 0.69391 0.0
C1346 C 0.9538 0.54395 0.69594 0.0
C1347 C 0.91112 0.58428 0.69968 0.0
C1348 C 0.93743 0.63357 0.70179 0.0
C1349 C 1.00671 0.64255 0.70003 0.0
C1350 C 0.04889 0.6045 0.69594 0.0
C1351 C 0.12115 0.62426 0.69448 0.0
C1352 C 0.17099 0.59687 0.70211 0.0
C1353 C 0.14284 0.61925 0.68192 0.0
C1354 C 0.11356 0.67952 0.69845 0.0
C1355 C 0.04712 0.68895 0.70174 0.0
C1356 C 0.02715 0.73704 0.70566 0.0
C1357 C 0.07485 0.77669 0.70577 0.0
C1358 C 0.14267 0.76905 0.70197 0.0
C1359 C 0.16239 0.71913 0.69849 0.0
H1360 H 0.30067 0.0986 0.39158 0.0
H1361 H 0.3281 0.2595 0.39761 0.0
H1362 H 0.4139 0.25975 0.38222 0.0
H1363 H 0.46281 0.06858 0.38894 0.0
H1364 H 0.45521 0.01988 0.37781 0.0
H1365 H 0.38453 0.0339 0.38703 0.0
H1366 H 0.30789 0.05098 0.36976 0.0
H1367 H 0.37783 0.0354 0.36038 0.0
H1368 H 0.33528 0.09517 0.35949 0.0
H1369 H 0.51546 0.23771 0.36918 0.0
H1370 H 0.60983 0.19742 0.35804 0.0
H1371 H 0.51225 0.05194 0.36053 0.0
C1372 C 0.32188 0.13432 0.38919 0.0
C1373 C 0.30677 0.17917 0.3956 0.0
C1374 C 0.33737 0.22501 0.39256 0.0
C1375 C 0.38688 0.22532 0.38392 0.0
C1376 C 0.40411 0.17963 0.37826 0.0
C1377 C 0.37078 0.1352 0.38057 0.0
C1378 C 0.40263 0.09026 0.37424 0.0
C1379 C 0.42777 0.05089 0.3825 0.0
C1380 C 0.35295 0.06657 0.36545 0.0
C1381 C 0.46122 0.11569 0.3685 0.0
C1382 C 0.46132 0.16728 0.37077 0.0
C1383 C 0.5145 0.19755 0.36708 0.0
C1384 C 0.56785 0.17453 0.36075 0.0
C1385 C 0.56772 0.12187 0.35827 0.0
C1386 C 0.51356 0.09244 0.36223 0.0
H1387 H 0.96734 0.00739 0.37233 0.0
H1388 H 0.76042 1.00012 0.38459 0.0
H1389 H 0.80096 0.02196 0.40419 0.0
H1390 H 0.05406 0.96284 0.39834 0.0
H1391 H 0.12299 0.00658 0.39658 0.0
H1392 H 0.07883 0.98007 0.38428 0.0
H1393 H 0.05392 0.07028 0.3778 0.0
H1394 H 0.09729 0.09696 0.39008 0.0
H1395 H 0.0107 0.11448 0.38738 0.0
H1396 H 0.86511 0.05843 0.4222 0.0
H1397 H 0.94346 0.10414 0.43578 0.0
H1398 H 0.10472 0.08937 0.41092 0.0
C1399 C 0.9305 0.00863 0.37917 0.0
C1400 C 0.86057 1.00156 0.37687 0.0
C1401 C 0.81433 1.00442 0.38611 0.0
C1402 C 0.83701 0.01716 0.39728 0.0
C1403 C 0.90618 0.02647 0.39912 0.0
C1404 C 0.95215 0.02162 0.39025 0.0
C1405 C 0.02239 0.03875 0.39393 0.0
C1406 C 0.07252 0.99441 0.39325 0.0
C1407 C 0.04747 0.08272 0.38689 0.0
C1408 C 0.00877 0.05592 0.40615 0.0
C1409 C 0.94195 0.04784 0.40917 0.0
C1410 C 0.91769 0.06401 0.41993 0.0
C1411 C 0.96243 0.08978 0.42762 0.0
C1412 C 0.03015 0.09969 0.42441 0.0
C1413 C 0.05337 0.0816 0.41364 0.0
H1414 H 0.60681 0.08259 0.9064 0.0
H1415 H 0.45428 0.07833 0.93276 0.0
H1416 H 0.37287 0.03951 0.91872 0.0
H1417 H 0.50439 0.12203 0.88553 0.0
H1418 H 0.54352 0.086 0.87395 0.0
H1419 H 0.59207 0.10347 0.88644 0.0
H1420 H 0.62139 0.0097 0.8892 0.0
H1421 H 0.57353 0.9918 0.8766 0.0
H1422 H 0.55409 0.96379 0.88989 0.0
H1423 H 0.30277 0.01359 0.90042 0.0
H1424 H 0.25565 1.00231 0.88088 0.0
H1425 H 0.45705 0.02338 0.86705 0.0
C1426 C 0.55719 0.07131 0.90934 0.0
C1427 C 0.5375 0.08221 0.92075 0.0
C1428 C 0.47125 0.06881 0.92417 0.0
C1429 C 0.42451 0.04717 0.91619 0.0
C1430 C 0.44498 0.03874 0.90484 0.0
C1431 C 0.51053 0.04972 0.90153 0.0
C1432 C 0.51932 0.04192 0.88877 0.0
C1433 C 0.54107 0.09128 0.88337 0.0
C1434 C 0.57009 0.99925 0.88595 0.0
C1435 C 0.44802 0.0266 0.88525 0.0
C1436 C 0.4056 0.0243 0.89457 0.0
C1437 C 0.33619 0.01445 0.89313 0.0
C1438 C 0.30972 0.00786 0.88197 0.0
C1439 C 0.35231 0.01152 0.87231 0.0
C1440 C 0.42265 0.01979 0.87415 0.0
H1441 H 0.78842 0.13684 0.88967 0.0
H1442 H 0.86246 0.28224 0.90243 0.0
H1443 H 0.9526 0.2795 0.88787 0.0
H1444 H 0.94024 0.08227 0.88531 0.0
H1445 H 0.92088 0.04645 0.87232 0.0
H1446 H 0.85404 0.06363 0.88212 0.0
H1447 H 0.78863 0.10793 0.86632 0.0
H1448 H 0.85448 0.08966 0.85633 0.0
H1449 H 0.83096 0.15512 0.85832 0.0
H1450 H 0.046 0.25425 0.8739 0.0
H1451 H 0.12824 0.21118 0.86071 0.0
H1452 H 0.9912 0.08383 0.85664 0.0
C1453 C 0.82059 0.16963 0.88883 0.0
C1454 C 0.81663 0.21082 0.89684 0.0
C1455 C 0.86269 0.25152 0.89603 0.0
C1456 C 0.91465 0.24994 0.88786 0.0
C1457 C 0.91884 0.20802 0.8803 0.0
C1458 C 0.87195 0.16909 0.88052 0.0
C1459 C 0.89149 0.12613 0.87222 0.0
C1460 C 0.9023 0.07674 0.87837 0.0
C1461 C 0.83822 0.11932 0.86273 0.0
C1462 C 0.95774 0.14606 0.86763 0.0
C1463 C 0.97265 0.19349 0.87232 0.0
C1464 C 0.03392 0.21764 0.86997 0.0
C1465 C 0.08031 0.19309 0.86246 0.0
C1466 C 0.06524 0.1449 0.85748 0.0
C1467 C 1.00335 0.1212 0.86018 0.0
H1468 H 0.38312 0.84708 0.65124 0.0
H1469 H 0.51737 0.79317 0.67712 0.0
H1470 H 0.58973 0.75262 0.66193 0.0
H1471 H 0.39913 0.73702 0.63074 0.0
H1472 H 0.39534 0.77684 0.61875 0.0
H1473 H 0.35121 0.79488 0.63172 0.0
H1474 H 0.41449 0.88065 0.63258 0.0
H1475 H 0.45898 0.86291 0.61968 0.0
H1476 H 0.50592 0.8815 0.63234 0.0
H1477 H 0.65554 0.72764 0.643 0.0
H1478 H 0.70316 0.71999 0.62347 0.0
H1479 H 0.52183 0.78971 0.61055 0.0
C1480 C 0.42684 0.82562 0.65377 0.0
C1481 C 0.44418 0.82307 0.66543 0.0
C1482 C 0.50224 0.795 0.6683 0.0
C1483 C 0.54385 0.77213 0.65968 0.0
C1484 C 0.52621 0.77698 0.64822 0.0
C1485 C 0.46813 0.80254 0.64534 0.0
C1486 C 0.46133 0.80562 0.63255 0.0
C1487 C 0.398 0.77686 0.62819 0.0
C1488 C 0.46015 0.86094 0.62909 0.0
C1489 C 0.52569 0.77921 0.62855 0.0
C1490 C 0.56258 0.76247 0.63763 0.0
C1491 C 0.62615 0.73999 0.63588 0.0
C1492 C 0.65285 0.7356 0.62469 0.0
C1493 C 0.6164 0.75368 0.6153 0.0
C1494 C 0.55119 0.77467 0.61739 0.0
H1495 H 0.97957 0.81385 0.61103 0.0
H1496 H 0.85332 0.94734 0.61139 0.0
H1497 H 0.93245 0.99077 0.62504 0.0
H1498 H 0.02025 0.82084 0.64065 0.0
H1499 H 0.10551 0.79792 0.6385 0.0
H1500 H 0.04001 0.7795 0.62851 0.0
H1501 H 0.1134 0.81317 0.61219 0.0
H1502 H 0.17843 0.8329 0.62222 0.0
H1503 H 0.14175 0.87792 0.61299 0.0
H1504 H 0.02412 0.01822 0.63911 0.0
H1505 H 0.11209 0.02366 0.65415 0.0
H1506 H 0.17821 0.87225 0.64449 0.0
C1507 C 0.96844 0.85214 0.61405 0.0
C1508 C 0.91097 0.8777 0.61009 0.0
C1509 C 0.89786 0.92763 0.61421 0.0
C1510 C 0.94254 0.95249 0.62192 0.0
C1511 C 1.00016 0.9268 0.62538 0.0
C1512 C 0.01265 0.87747 0.62168 0.0
C1513 C 0.07609 0.85727 0.62711 0.0
C1514 C 0.05945 0.81118 0.63411 0.0
C1515 C 0.13064 0.84457 0.61809 0.0
C1516 C 0.09671 0.90252 0.63466 0.0
C1517 C 0.05294 0.94261 0.6334 0.0
C1518 C 0.05933 0.98741 0.64001 0.0
C1519 C 0.10987 0.99047 0.64843 0.0
C1520 C 0.15328 0.94911 0.65012 0.0
C1521 C 0.1475 0.90511 0.64299 0.0
H1522 H 0.58777 0.87734 0.15525 0.0
H1523 H 0.59294 0.04028 0.15489 0.0
H1524 H 0.51693 0.03716 0.13798 0.0
H1525 H 0.59265 0.85696 0.12411 0.0
H1526 H 0.53979 0.8015 0.12446 0.0
H1527 H 0.59469 0.81811 0.13629 0.0
H1528 H 0.49117 0.81734 0.14987 0.0
H1529 H 0.43576 0.80168 0.13807 0.0
H1530 H 0.41917 0.85682 0.14716 0.0
H1531 H 0.42706 0.01396 0.12246 0.0
H1532 H 0.35165 0.97394 0.10776 0.0
H1533 H 0.42086 0.82635 0.11684 0.0
C1534 C 0.57362 0.91237 0.1515 0.0
C1535 C 0.59506 0.95928 0.15646 0.0
C1536 C 0.57633 1.00421 0.15128 0.0
C1537 C 0.5331 1.0026 0.1417 0.0
C1538 C 0.51102 0.95553 0.13724 0.0
C1539 C 0.53256 0.91122 0.1418 0.0
C1540 C 0.50399 0.86531 0.13532 0.0
C1541 C 0.56118 0.83361 0.12971 0.0
C1542 C 0.45992 0.83343 0.14307 0.0
C1543 C 0.46138 0.89042 0.12651 0.0
C1544 C 0.46518 0.94247 0.12781 0.0
C1545 C 0.42601 0.97332 0.12112 0.0
C1546 C 0.38406 0.95037 0.11267 0.0
C1547 C 0.38324 0.89731 0.11067 0.0
C1548 C 0.42133 0.86713 0.11793 0.0
H1549 H 0.83004 0.86261 0.14863 0.0
H1550 H 0.98672 0.8563 0.17426 0.0
H1551 H 0.06539 0.81804 0.16008 0.0
H1552 H 0.8788 0.7484 0.13096 0.0
H1553 H 0.86364 0.7783 0.11775 0.0
H1554 H 0.81502 0.79676 0.13024 0.0
H1555 H 0.85179 0.88986 0.12833 0.0
H1556 H 0.89975 0.87178 0.11579 0.0
H1557 H 0.94083 0.90504 0.1276 0.0
H1558 H 0.12937 0.78378 0.14294 0.0
H1559 H 0.17977 0.77126 0.12379 0.0
H1560 H 0.9863 0.8078 0.10867 0.0
C1561 C 0.88032 0.85171 0.15127 0.0
C1562 C 0.90061 0.85853 0.16278 0.0
C1563 C 0.96818 0.84709 0.16576 0.0
C1564 C 0.01367 0.82613 0.15769 0.0
C1565 C 0.99165 0.8181 0.1465 0.0
C1566 C 0.927 0.83152 0.14322 0.0
C1567 C 0.91934 0.82533 0.13038 0.0
C1568 C 0.86601 0.78479 0.12715 0.0
C1569 C 0.90193 0.87602 0.12522 0.0
C1570 C 0.99011 0.8077 0.12698 0.0
C1571 C 0.03041 0.80237 0.13644 0.0
C1572 C 0.09823 0.78775 0.13546 0.0
C1573 C 0.12639 0.78038 0.12453 0.0
C1574 C 0.08727 0.78867 0.1147 0.0
C1575 C 0.01766 0.80109 0.11601 0.0
H1576 H 0.55649 0.56365 0.86213 0.0
H1577 H 0.6569 0.70123 0.85276 0.0
H1578 H 0.58176 0.75113 0.86584 0.0
H1579 H 0.3863 0.61615 0.86481 0.0
H1580 H 0.3651 0.57968 0.87688 0.0
H1581 H 0.4246 0.55521 0.8664 0.0
H1582 H 0.5152 0.5444 0.88208 0.0
H1583 H 0.45548 0.56765 0.89261 0.0
H1584 H 0.53714 0.5977 0.89144 0.0
H1585 H 0.49741 0.78557 0.88071 0.0
H1586 H 0.42133 0.79924 0.89743 0.0
H1587 H 0.3761 0.63932 0.89654 0.0
C1588 C 0.56255 0.60428 0.86284 0.0
C1589 C 0.6119 0.62873 0.85638 0.0
C1590 C 0.61864 0.68191 0.85755 0.0
C1591 C 0.57615 0.71054 0.86493 0.0
C1592 C 0.52661 0.68543 0.87098 0.0
C1593 C 0.52007 0.6334 0.87006 0.0
C1594 C 0.46545 0.6151 0.8779 0.0
C1595 C 0.4069 0.59006 0.87109 0.0
C1596 C 0.4951 0.57912 0.88652 0.0
C1597 C 0.44346 0.6647 0.88361 0.0
C1598 C 0.47831 0.70509 0.8794 0.0
C1599 C 0.46912 0.75429 0.88395 0.0
C1600 C 0.42536 0.76192 0.89335 0.0
C1601 C 0.39201 0.72047 0.89803 0.0
C1602 C 0.39979 0.67175 0.89288 0.0
H1603 H 0.15877 0.62816 0.90042 0.0
H1604 H 1.00213 0.62997 0.92608 0.0
H1605 H 0.92601 0.58085 0.91281 0.0
H1606 H 0.05292 0.65089 0.87771 0.0
H1607 H 0.09827 0.61138 0.86742 0.0
H1608 H 0.14221 0.63916 0.87954 0.0
H1609 H 0.18178 0.55027 0.88497 0.0
H1610 H 0.13698 0.52209 0.87291 0.0
H1611 H 0.11968 0.50149 0.88702 0.0
H1612 H 0.86404 0.53874 0.89591 0.0
H1613 H 0.81845 0.51604 0.87673 0.0
H1614 H 0.01639 0.5434 0.86214 0.0
C1615 C 0.10884 0.61723 0.90328 0.0
C1616 C 0.08652 0.63084 0.91439 0.0
C1617 C 0.02059 0.6173 0.91779 0.0
C1618 C 0.97721 0.58988 0.91028 0.0
C1619 C 1.0009 0.57637 0.89937 0.0
C1620 C 0.06525 0.58984 0.89589 0.0
C1621 C 0.07652 0.57528 0.88344 0.0
C1622 C 0.09342 0.62195 0.87663 0.0
C1623 C 0.13204 0.53488 0.88201 0.0
C1624 C 1.00754 0.55364 0.8803 0.0
C1625 C 0.96496 0.5534 0.88963 0.0
C1626 C 0.89727 0.53816 0.88858 0.0
C1627 C 0.87185 0.52496 0.87766 0.0
C1628 C 0.91382 0.52791 0.86794 0.0
C1629 C 0.98309 0.54051 0.86941 0.0
H1630 H 0.46042 0.56103 0.36103 0.0
H1631 H 0.26905 0.54992 0.37895 0.0
H1632 H 0.33005 0.5635 0.39733 0.0
H1633 H 0.56873 0.50232 0.38269 0.0
H1634 H 0.63784 0.54481 0.38002 0.0
H1635 H 0.58034 0.52592 0.36869 0.0
H1636 H 0.55539 0.62 0.3653 0.0
H1637 H 0.61216 0.63914 0.37664 0.0
H1638 H 0.52542 0.66048 0.37696 0.0
H1639 H 0.41086 0.59185 0.41338 0.0
H1640 H 0.50269 0.62861 0.4255 0.0
H1641 H 0.6402 0.62039 0.39683 0.0
C1642 C 0.43114 0.56045 0.36881 0.0
C1643 C 0.35975 0.55461 0.36854 0.0
C1644 C 0.32371 0.55397 0.37894 0.0
C1645 C 0.35803 0.56176 0.38941 0.0
C1646 C 0.42832 0.56939 0.38929 0.0
C1647 C 0.46439 0.56808 0.37922 0.0
C1648 C 0.53843 0.58127 0.38115 0.0
C1649 C 0.58402 0.53587 0.37795 0.0
C1650 C 0.55899 0.62799 0.37463 0.0
C1651 C 0.53832 0.59253 0.39386 0.0
C1652 C 0.47465 0.58472 0.39846 0.0
C1653 C 0.46117 0.5966 0.40991 0.0
C1654 C 0.5138 0.617 0.41676 0.0
C1655 C 0.57913 0.62509 0.41219 0.0
C1656 C 0.59132 0.61278 0.4006 0.0
H1657 H 0.97651 0.73087 0.40153 0.0
H1658 H 0.77779 0.76135 0.38766 0.0
H1659 H 0.82181 0.7402 0.36824 0.0
H1660 H 0.0815 0.77101 0.3774 0.0
H1661 H 0.13994 0.7198 0.37916 0.0
H1662 H 0.09607 0.74759 0.39134 0.0
H1663 H 0.05048 0.65925 0.3961 0.0
H1664 H 0.09333 0.63131 0.38391 0.0
H1665 H 1.00315 0.62276 0.38549 0.0
H1666 H 0.88802 0.70536 0.35021 0.0
H1667 H 0.96476 0.65897 0.33653 0.0
H1668 H 0.11312 0.6455 0.36333 0.0
C1669 C 0.94227 0.73468 0.39443 0.0
C1670 C 0.87354 0.74826 0.3962 0.0
C1671 C 0.83086 0.75189 0.38657 0.0
C1672 C 0.85548 0.73964 0.37549 0.0
C1673 C 0.92287 0.72384 0.37418 0.0
C1674 C 0.96548 0.72171 0.38347 0.0
C1675 C 0.033 0.69812 0.38027 0.0
C1676 C 0.09105 0.73643 0.38215 0.0
C1677 C 0.04566 0.65003 0.38683 0.0
C1678 C 0.02164 0.68581 0.36776 0.0
C1679 C 0.95867 0.70182 0.36423 0.0
C1680 C 0.93745 0.69305 0.35294 0.0
C1681 C 0.98124 0.66676 0.34522 0.0
C1682 C 0.04451 0.64847 0.34893 0.0
C1683 C 0.06481 0.65886 0.36029 0.0
H1684 H 0.35493 0.36351 0.14754 0.0
H1685 H 0.50792 0.34322 0.17325 0.0
H1686 H 0.58466 0.3048 0.15873 0.0
H1687 H 0.39487 0.25065 0.1288 0.0
H1688 H 0.38235 0.28424 0.11599 0.0
H1689 H 0.33496 0.30188 0.12866 0.0
H1690 H 0.37886 0.39382 0.12779 0.0
H1691 H 0.42586 0.37657 0.1151 0.0
H1692 H 0.46894 0.40538 0.12727 0.0
H1693 H 0.64807 0.27426 0.14116 0.0
H1694 H 0.69817 0.26502 0.12193 0.0
H1695 H 0.50682 0.31055 0.10735 0.0
C1696 C 0.4039 0.34955 0.15012 0.0
C1697 C 0.42393 0.35305 0.16165 0.0
C1698 C 0.48965 0.33715 0.16464 0.0
C1699 C 0.53398 0.31601 0.15639 0.0
C1700 C 0.51228 0.31188 0.14511 0.0
C1701 C 0.44906 0.32886 0.14194 0.0
C1702 C 0.44128 0.32595 0.1291 0.0
C1703 C 0.38502 0.28844 0.12542 0.0
C1704 C 0.42799 0.37855 0.12455 0.0
C1705 C 0.51062 0.30614 0.12555 0.0
C1706 C 0.55028 0.29712 0.13491 0.0
C1707 C 0.6173 0.28086 0.13376 0.0
C1708 C 0.64528 0.27547 0.12278 0.0
C1709 C 0.60665 0.28705 0.11308 0.0
C1710 C 0.53779 0.30113 0.11455 0.0
H1711 H 0.01366 0.46446 0.15939 0.0
H1712 H 0.2123 0.47258 0.14367 0.0
H1713 H 0.15998 0.45699 0.12477 0.0
H1714 H 0.95086 0.36578 0.14322 0.0
H1715 H 0.86541 0.38867 0.1418 0.0
H1716 H 0.91567 0.40904 0.15391 0.0
H1717 H 0.89808 0.50267 0.14926 0.0
H1718 H 0.84625 0.48264 0.13725 0.0
H1719 H 0.91854 0.523 0.13525 0.0
H1720 H 0.09049 0.42243 0.10842 0.0
H1721 H 1.00486 0.38711 0.09493 0.0
H1722 H 0.84897 0.40719 0.12065 0.0
C1723 C 0.04591 0.46458 0.15193 0.0
C1724 C 0.1172 0.46971 0.15302 0.0
C1725 C 0.15764 0.4693 0.14307 0.0
C1726 C 0.12836 0.46013 0.13229 0.0
C1727 C 0.05841 0.45256 0.13158 0.0
C1728 C 0.01735 0.45622 0.14109 0.0
C1729 C 0.94404 0.44407 0.13805 0.0
C1730 C 0.91749 0.39923 0.14464 0.0
C1731 C 0.89907 0.49089 0.14007 0.0
C1732 C 0.95089 0.43025 0.12545 0.0
C1733 C 0.01739 0.43554 0.12191 0.0
C1734 C 0.03789 0.42011 0.11097 0.0
C1735 C 0.98895 0.40025 0.10337 0.0
C1736 C 0.92009 0.39688 0.10662 0.0
C1737 C 0.90095 0.41125 0.11786 0.0
H1738 H 0.36377 0.37063 0.6226 0.0
H1739 H 0.50294 0.41949 0.59695 0.0
H1740 H 0.56886 0.46763 0.61157 0.0
H1741 H 0.3702 0.48563 0.64146 0.0
H1742 H 0.36865 0.45048 0.65421 0.0
H1743 H 0.32741 0.42547 0.64149 0.0
H1744 H 0.39815 0.34341 0.64224 0.0
H1745 H 0.43878 0.3679 0.65502 0.0
H1746 H 0.48936 0.34762 0.6429 0.0
H1747 H 0.62556 0.50426 0.62939 0.0
H1748 H 0.67317 0.51935 0.64869 0.0
H1749 H 0.49769 0.44547 0.66287 0.0
C1750 C 0.40761 0.39207 0.62006 0.0
C1751 C 0.42669 0.39319 0.60848 0.0
C1752 C 0.48515 0.42069 0.60558 0.0
C1753 C 0.5234 0.4476 0.6139 0.0
C1754 C 0.50271 0.44645 0.62521 0.0
C1755 C 0.44638 0.41904 0.6283 0.0
C1756 C 0.43827 0.42028 0.64112 0.0
C1757 C 0.3722 0.44707 0.64478 0.0
C1758 C 0.44137 0.36663 0.64558 0.0
C1759 C 0.49993 0.45131 0.64475 0.0
C1760 C 0.53596 0.46677 0.63546 0.0
C1761 C 0.59729 0.49289 0.63674 0.0
C1762 C 0.62383 0.50161 0.64776 0.0
C1763 C 0.58934 0.48385 0.65737 0.0
C1764 C 0.52531 0.4601 0.65577 0.0
H1765 H 0.14347 0.37185 0.62201 0.0
H1766 H 0.07108 0.2192 0.61526 0.0
H1767 H 0.98853 0.23032 0.63113 0.0
H1768 H 0.12026 0.37506 0.65369 0.0
H1769 H 0.09468 0.44031 0.65394 0.0
H1770 H 0.15409 0.41658 0.64336 0.0
H1771 H 0.07536 0.44862 0.62759 0.0
H1772 H 0.01467 0.47087 0.63808 0.0
H1773 H 0.98873 0.4268 0.62678 0.0
H1774 H 0.90583 0.26223 0.6462 0.0
H1775 H 0.83747 0.30872 0.66087 0.0
H1776 H 0.96219 0.44173 0.65716 0.0
C1777 C 0.11206 0.34017 0.62423 0.0
C1778 C 0.11436 0.29423 0.61774 0.0
C1779 C 0.07106 0.25403 0.62045 0.0
C1780 C 0.02376 0.2603 0.62934 0.0
C1781 C 0.02083 0.30699 0.63532 0.0
C1782 C 0.0648 0.34591 0.63303 0.0
C1783 C 0.04884 0.3933 0.64018 0.0
C1784 C 0.10798 0.40711 0.64827 0.0
C1785 C 0.03083 0.43748 0.63271 0.0
C1786 C 0.98764 0.37562 0.64665 0.0
C1787 C 0.97245 0.32567 0.64376 0.0
C1788 C 0.91756 0.3012 0.64855 0.0
C1789 C 0.87891 0.3279 0.65682 0.0
C1790 C 0.89464 0.37867 0.66003 0.0
C1791 C 0.94885 0.40307 0.65473 0.0
H1792 H 0.33919 0.28375 0.53678 0.0
H1793 H 0.14307 0.35466 0.53362 0.0
H1794 H 0.14088 0.32906 0.51307 0.0
H1795 H 0.39863 0.32614 0.50948 0.0
H1796 H 0.45035 0.27114 0.50653 0.0
H1797 H 0.43472 0.29291 0.52103 0.0
H1798 H 0.39294 0.20579 0.52531 0.0
H1799 H 0.4006 0.18137 0.51083 0.0
H1800 H 0.3204 0.1792 0.51815 0.0
H1801 H 0.16685 0.3043 0.49236 0.0
H1802 H 0.20362 0.26394 0.47412 0.0
H1803 H 0.38105 0.20452 0.49064 0.0
C1804 C 0.29442 0.29181 0.53185 0.0
C1805 C 0.2396 0.31909 0.53693 0.0
C1806 C 0.18408 0.33198 0.53003 0.0
C1807 C 0.18315 0.31838 0.5183 0.0
C1808 C 0.23903 0.29301 0.51348 0.0
C1809 C 0.29338 0.27934 0.52008 0.0
C1810 C 0.34838 0.25416 0.51272 0.0
C1811 C 0.41174 0.2881 0.51242 0.0
C1812 C 0.36661 0.20198 0.51697 0.0
C1813 C 0.31367 0.25137 0.50113 0.0
C1814 C 0.25256 0.27685 0.50166 0.0
C1815 C 0.21408 0.2836 0.4919 0.0
C1816 C 0.23606 0.26104 0.48148 0.0
C1817 C 0.29537 0.23082 0.48084 0.0
C1818 C 0.33551 0.22727 0.49081 0.0
H1819 H 0.94641 0.06126 0.54573 0.0
H1820 H 0.12458 0.97344 0.55355 0.0
H1821 H 0.19513 0.03059 0.54257 0.0
H1822 H 0.97831 0.07589 0.51849 0.0
H1823 H 0.94848 0.13986 0.51769 0.0
H1824 H 0.91591 0.10073 0.52845 0.0
H1825 H 0.95299 0.1677 0.5441 0.0
H1826 H 0.98547 0.20695 0.5332 0.0
H1827 H 0.03988 0.18897 0.54462 0.0
H1828 H 0.23949 0.08119 0.52747 0.0
H1829 H 0.25292 0.11798 0.50886 0.0
H1830 H 0.04993 0.17922 0.51127 0.0
C1831 C 1.00053 0.05462 0.54534 0.0
C1832 C 0.02984 0.01248 0.55038 0.0
C1833 C 0.10081 0.00521 0.54969 0.0
C1834 C 0.14146 0.03793 0.5436 0.0
C1835 C 0.11064 0.07834 0.53845 0.0
C1836 C 0.0418 0.08713 0.53936 0.0
C1837 C 0.01956 0.12848 0.53172 0.0
C1838 C 0.96228 0.11009 0.52361 0.0
C1839 C 0.99819 0.17583 0.53884 0.0
C1840 C 0.08518 0.13767 0.52544 0.0
C1841 C 0.13771 0.10978 0.52981 0.0
C1842 C 0.1998 0.10479 0.52426 0.0
C1843 C 0.20712 0.12608 0.51369 0.0
C1844 C 0.1532 0.15274 0.50882 0.0
C1845 C 0.09287 0.16094 0.51506 0.0
H1846 H 0.15456 0.9403 0.74052 0.0
H1847 H 0.32682 0.01173 0.72481 0.0
H1848 H 0.35685 0.05328 0.74333 0.0
H1849 H 0.11888 0.05744 0.75916 0.0
H1850 H 0.08638 0.02208 0.77069 0.0
H1851 H 0.07632 0.99803 0.7562 0.0
H1852 H 0.1422 0.91286 0.76064 0.0
H1853 H 0.13764 0.93862 0.77505 0.0
H1854 H 0.21793 0.92015 0.76924 0.0
H1855 H 0.37616 0.08032 0.76417 0.0
H1856 H 0.36908 0.1052 0.78468 0.0
H1857 H 0.181 0.02179 0.78717 0.0
C1858 C 0.19767 0.96568 0.74091 0.0
C1859 C 0.23819 0.97241 0.73102 0.0
C1860 C 0.29405 0.00617 0.73204 0.0
C1861 C 0.31226 0.02947 0.74264 0.0
C1862 C 0.27326 0.02018 0.75225 0.0
C1863 C 0.21552 0.99062 0.75142 0.0
C1864 C 0.17923 0.99078 0.76294 0.0
C1865 C 0.11118 0.01873 0.76221 0.0
C1866 C 0.16864 0.93734 0.76715 0.0
C1867 C 0.22908 0.02072 0.77056 0.0
C1868 C 0.28255 0.03783 0.76416 0.0
C1869 C 0.33445 0.06697 0.76922 0.0
C1870 C 0.33063 0.08032 0.78095 0.0
C1871 C 0.2761 0.06396 0.78773 0.0
C1872 C 0.22498 0.03319 0.7824 0.0
H1873 H 0.9956 0.17797 0.7786 0.0
H1874 H 0.12373 0.30402 0.78982 0.0
H1875 H 0.12392 0.33508 0.77045 0.0
H1876 H 0.07135 0.15485 0.75188 0.0
H1877 H 0.99398 0.14133 0.74416 0.0
H1878 H 0.99904 0.12959 0.7591 0.0
H1879 H 0.89464 0.18691 0.76333 0.0
H1880 H 0.88776 0.19713 0.74835 0.0
H1881 H 0.89423 0.2503 0.75839 0.0
H1882 H 0.12099 0.34777 0.74989 0.0
H1883 H 0.09038 0.35473 0.72977 0.0
H1884 H 0.96078 0.22251 0.73169 0.0
C1885 C 0.02164 0.21299 0.77703 0.0
C1886 C 0.05989 0.23854 0.78564 0.0
C1887 C 0.09438 0.28384 0.78328 0.0
C1888 C 0.09536 0.30154 0.77231 0.0
C1889 C 0.06095 0.2738 0.76384 0.0
C1890 C 0.02287 0.23151 0.76608 0.0
C1891 C 0.98973 0.20954 0.75535 0.0
C1892 C 0.01506 0.15564 0.75246 0.0
C1893 C 0.91198 0.2111 0.75642 0.0
C1894 C 0.01534 0.24617 0.74681 0.0
C1895 C 0.05748 0.28221 0.75187 0.0
C1896 C 0.08746 0.32015 0.7458 0.0
C1897 C 0.07035 0.3234 0.73433 0.0
C1898 C 0.02274 0.28944 0.72918 0.0
C1899 C 0.99728 0.24906 0.73539 0.0
H1900 H 0.78839 0.65979 0.4923 0.0
H1901 H 0.77504 0.79048 0.47155 0.0
H1902 H 0.77179 0.84606 0.48887 0.0
H1903 H 0.67261 0.70443 0.51385 0.0
H1904 H 0.7182 0.67963 0.52563 0.0
H1905 H 0.72492 0.64918 0.51167 0.0
H1906 H 0.85556 0.65849 0.51233 0.0
H1907 H 0.84923 0.68818 0.52638 0.0
H1908 H 0.89269 0.71992 0.51526 0.0
H1909 H 0.75994 0.88748 0.50826 0.0
H1910 H 0.75577 0.91418 0.52846 0.0
H1911 H 0.7777 0.75827 0.53771 0.0
C1912 C 0.78627 0.70018 0.49138 0.0
C1913 C 0.78383 0.72055 0.48035 0.0
C1914 C 0.77944 0.77369 0.47971 0.0
C1915 C 0.77639 0.80566 0.48958 0.0
C1916 C 0.77715 0.78432 0.50021 0.0
C1917 C 0.7829 0.73287 0.50123 0.0
C1918 C 0.78188 0.72011 0.51379 0.0
C1919 C 0.72078 0.68633 0.51638 0.0
C1920 C 0.84883 0.6952 0.51714 0.0
C1921 C 0.77441 0.77243 0.51964 0.0
C1922 C 0.77117 0.8086 0.51155 0.0
C1923 C 0.76317 0.85949 0.51465 0.0
C1924 C 0.76061 0.87426 0.52625 0.0
C1925 C 0.76668 0.8387 0.53489 0.0
C1926 C 0.77246 0.78666 0.53144 0.0
H1927 H 0.72146 0.87398 0.24813 0.0
H1928 H 0.83217 0.98515 0.22947 0.0
H1929 H 0.86198 0.0306 0.2475 0.0
H1930 H 0.65145 0.97011 0.26896 0.0
H1931 H 0.65298 0.92817 0.2806 0.0
H1932 H 0.64209 0.903 0.26623 0.0
H1933 H 0.74423 0.84462 0.26908 0.0
H1934 H 0.75829 0.87119 0.28326 0.0
H1935 H 0.82547 0.87143 0.27286 0.0
H1936 H 0.88742 0.06123 0.26729 0.0
H1937 H 0.88142 0.09016 0.2874 0.0
H1938 H 0.74431 0.96689 0.29418 0.0
C1939 C 0.75106 0.90834 0.24786 0.0
C1940 C 0.77434 0.92595 0.23728 0.0
C1941 C 0.8129 0.97111 0.23736 0.0
C1942 C 0.831 0.99688 0.24761 0.0
C1943 C 0.80892 0.97805 0.25785 0.0
C1944 C 0.76754 0.93602 0.2581 0.0
C1945 C 0.74583 0.92727 0.27036 0.0
C1946 C 0.6685 0.93246 0.27161 0.0
C1947 C 0.76993 0.87555 0.27411 0.0
C1948 C 0.78275 0.9703 0.27691 0.0
C1949 C 0.81993 0.99818 0.26944 0.0
C1950 C 0.85798 0.03998 0.2732 0.0
C1951 C 0.85476 0.05587 0.28471 0.0
C1952 C 0.81281 0.03094 0.29249 0.0
C1953 C 0.77813 0.98626 0.28857 0.0
H1954 H 0.05586 0.56541 0.26036 0.0
H1955 H 0.26111 0.62296 0.26188 0.0
H1956 H 0.24433 0.66356 0.24374 0.0
H1957 H 0.03799 0.56438 0.2266 0.0
H1958 H 0.95143 0.58502 0.22832 0.0
H1959 H 0.98728 0.54163 0.23804 0.0
H1960 H 0.95384 0.60226 0.2549 0.0
H1961 H 0.9199 0.6468 0.24547 0.0
H1962 H 0.98533 0.66629 0.25544 0.0
H1963 H 0.19484 0.72179 0.23034 0.0
H1964 H 0.12107 0.78238 0.22091 0.0
H1965 H 0.94557 0.69091 0.22863 0.0
C1966 C 0.09856 0.58335 0.25639 0.0
C1967 C 0.15959 0.59112 0.2624 0.0
C1968 C 0.21411 0.61632 0.25728 0.0
C1969 C 0.20486 0.63968 0.24698 0.0
C1970 C 0.14098 0.63704 0.24192 0.0
C1971 C 0.08917 0.60798 0.24624 0.0
C1972 C 0.02187 0.61971 0.24077 0.0
C1973 C 0.99824 0.57504 0.23296 0.0
C1974 C 0.96717 0.63469 0.24968 0.0
C1975 C 0.04242 0.66395 0.23388 0.0
C1976 C 0.11157 0.67217 0.23425 0.0
C1977 C 0.1409 0.71468 0.22966 0.0
C1978 C 0.09852 0.74934 0.22448 0.0
C1979 C 0.02746 0.74175 0.22416 0.0
C1980 C 0.99966 0.69805 0.22879 0.0
H1981 H 0.27491 0.77433 0.03802 0.0
H1982 H 0.2427 0.92698 0.02728 0.0
H1983 H 0.25753 0.89775 1.00734 0.0
H1984 H 0.40141 0.73857 0.01771 0.0
H1985 H 0.37082 0.67519 0.01478 0.0
H1986 H 0.35489 0.70648 0.02843 0.0
H1987 H 0.22583 0.69169 0.0259 0.0
H1988 H 0.24117 0.65966 0.01231 0.0
H1989 H 0.18448 0.71287 0.01333 0.0
H1990 H 0.28117 0.85428 0.98854 0.0
H1991 H 0.29322 0.79598 0.97181 0.0
H1992 H 0.31121 0.67029 0.99384 0.0
C1993 C 0.26928 0.80133 0.03146 0.0
C1994 C 0.25772 0.85327 0.03437 0.0
C1995 C 0.25171 0.88717 0.02542 0.0
C1996 C 0.26047 0.87098 0.014 0.0
C1997 C 0.27469 0.82036 0.01146 0.0
C1998 C 0.27743 0.78561 0.01986 0.0
C1999 C 0.29201 0.7331 0.01459 0.0
C2000 C 0.35876 0.71211 0.01915 0.0
C2001 C 0.23237 0.69717 0.01666 0.0
C2002 C 0.29808 0.74423 1.002 0.0
C2003 C 0.28828 0.79495 1.00046 0.0
C2004 C 0.28951 0.81449 0.98965 0.0
C2005 C 0.29804 0.78116 0.98013 0.0
C2006 C 0.30591 0.72861 0.9813 0.0
C2007 C 0.30726 0.71031 0.99252 0.0
H2008 H 0.13247 0.54566 0.99554 0.0
H2009 H 0.0416 0.69408 1.00033 0.0
H2010 H 0.03443 0.68217 0.02098 0.0
H2011 H 0.02821 0.48561 0.01294 0.0
H2012 H 0.09096 0.44353 0.01834 0.0
H2013 H 0.10227 0.46886 1.00461 0.0
H2014 H 0.21971 0.50425 1.01104 0.0
H2015 H 0.20772 0.47989 0.02497 0.0
H2016 H 0.22576 0.54598 0.02354 0.0
H2017 H 0.0213 0.6502 0.03997 0.0
H2018 H 0.98302 0.59536 0.05502 0.0
H2019 H 0.08274 0.46746 0.03812 0.0
C2020 C 0.11221 0.57613 1.00095 0.0
C2021 C 0.08769 0.6208 0.99639 0.0
C2022 C 0.06023 0.65937 1.00368 0.0
C2023 C 0.05723 0.65334 0.01542 0.0
C2024 C 0.08257 0.60886 0.01966 0.0
C2025 C 0.10881 0.57068 0.01262 0.0
C2026 C 0.12191 0.52331 0.01891 0.0
C2027 C 0.08349 0.47772 0.01338 0.0
C2028 C 0.19833 0.51276 0.01966 0.0
C2029 C 0.09333 0.53928 0.03041 0.0
C2030 C 0.07402 0.58962 0.03081 0.0
C2031 C 0.03752 0.61123 0.03989 0.0
C2032 C 0.01587 0.57983 0.04836 0.0
C2033 C 0.03041 0.52762 0.04757 0.0
C2034 C 0.07295 0.50764 0.03894 0.0
H2035 H 0.24116 0.47311 0.29002 0.0
H2036 H 0.38718 0.58931 0.28212 0.0
H2037 H 0.38397 0.56107 0.26199 0.0
H2038 H 0.31782 0.377 0.26874 0.0
H2039 H 0.23653 0.3491 0.26529 0.0
H2040 H 0.25185 0.37656 0.27936 0.0
H2041 H 0.14679 0.43507 0.27733 0.0
H2042 H 0.13217 0.40624 0.26337 0.0
H2043 H 0.14142 0.47364 0.26512 0.0
H2044 H 0.34741 0.53345 0.24245 0.0
H2045 H 0.31488 0.48645 0.2248 0.0
H2046 H 0.20849 0.37654 0.24452 0.0
C2047 C 0.27474 0.49114 0.28415 0.0
C2048 C 0.31401 0.53409 0.28779 0.0
C2049 C 0.35639 0.5567 0.27968 0.0
C2050 C 0.35437 0.54128 0.26813 0.0
C2051 C 0.31155 0.50171 0.26471 0.0
C2052 C 0.27524 0.47497 0.27249 0.0
C2053 C 0.23658 0.43176 0.26633 0.0
C2054 C 0.26223 0.38056 0.27016 0.0
C2055 C 0.15969 0.43703 0.26817 0.0
C2056 C 0.25535 0.43979 0.25393 0.0
C2057 C 0.2969 0.48153 0.25328 0.0
C2058 C 0.31658 0.49976 0.24286 0.0
C2059 C 0.29677 0.47309 0.23283 0.0
C2060 C 0.2591 0.42755 0.23316 0.0
C2061 C 0.23731 0.41112 0.24393 0.0
H2062 H 0.85819 0.21214 0.98924 0.0
H2063 H 0.71899 0.30282 0.97027 0.0
H2064 H 0.69961 0.3576 0.98753 0.0
H2065 H 0.76998 0.2147 0.01569 0.0
H2066 H 0.84711 0.21757 0.02377 0.0
H2067 H 0.84766 0.18937 1.00955 0.0
H2068 H 0.94534 0.25444 1.0054 0.0
H2069 H 0.93671 0.28336 0.0195 0.0
H2070 H 0.92775 0.32102 1.00722 0.0
H2071 H 0.68681 0.39835 1.00776 0.0
H2072 H 0.6903 0.42481 0.02826 0.0
H2073 H 0.83495 0.30634 0.03421 0.0
C2074 C 0.82519 0.24444 0.98857 0.0
C2075 C 0.79073 0.25299 0.97818 0.0
C2076 C 0.74718 0.29549 0.97791 0.0
C2077 C 0.73521 0.32667 0.98778 0.0
C2078 C 0.7676 0.31566 0.99795 0.0
C2079 C 0.8129 0.27611 0.99834 0.0
C2080 C 0.84069 0.27193 1.01037 0.0
C2081 C 0.82557 0.22015 0.01509 0.0
C2082 C 0.91716 0.28337 1.01064 0.0
C2083 C 0.80087 0.31307 0.01683 0.0
C2084 C 0.75984 0.33854 1.00949 0.0
C2085 C 0.71872 0.37836 0.01352 0.0
C2086 C 0.72038 0.39283 0.02523 0.0
C2087 C 0.76114 0.36674 0.03295 0.0
C2088 C 0.80158 0.32608 0.02862 0.0
H2089 H 0.76889 0.59861 0.77421 0.0
H2090 H 0.82091 0.47713 0.79618 0.0
H2091 H 0.8154 0.41652 0.77972 0.0
H2092 H 0.65091 0.53083 0.75783 0.0
H2093 H 0.67148 0.55369 0.74412 0.0
H2094 H 0.68592 0.59335 0.75675 0.0
H2095 H 0.8122 0.60457 0.75253 0.0
H2096 H 0.8005 0.56958 0.73919 0.0
H2097 H 0.86403 0.55009 0.74906 0.0
H2098 H 0.79152 0.36762 0.76151 0.0
H2099 H 0.77484 0.33483 0.7419 0.0
H2100 H 0.74482 0.48753 0.73096 0.0
C2101 C 0.78117 0.55954 0.77554 0.0
C2102 C 0.79551 0.54295 0.7866 0.0
C2103 C 0.81008 0.49115 0.78787 0.0
C2104 C 0.80652 0.45622 0.77856 0.0
C2105 C 0.78906 0.47348 0.76794 0.0
C2106 C 0.77842 0.52404 0.76628 0.0
C2107 C 0.75972 0.53223 0.75395 0.0
C2108 C 0.68777 0.55392 0.75313 0.0
C2109 C 0.81223 0.56613 0.74835 0.0
C2110 C 0.76224 0.47844 0.74891 0.0
C2111 C 0.77778 0.44521 0.75724 0.0
C2112 C 0.78047 0.3934 0.75489 0.0
C2113 C 0.77032 0.37513 0.74365 0.0
C2114 C 0.75887 0.40844 0.73472 0.0
C2115 C 0.7531 0.46088 0.73751 0.0
H2116 H 0.56255 0.18 1.00899 0.0
H2117 H 0.76366 0.11465 1.00758 0.0
H2118 H 0.7437 0.07577 0.02584 0.0
H2119 H 0.54479 0.18996 0.04149 0.0
H2120 H 0.45758 0.16931 0.04082 0.0
H2121 H 0.49201 0.20708 0.02981 0.0
H2122 H 0.4586 0.14036 0.01429 0.0
H2123 H 0.4221 0.10176 0.02483 0.0
H2124 H 0.48659 0.07606 0.01538 0.0
H2125 H 0.69364 0.02639 0.04089 0.0
H2126 H 0.61835 0.97342 0.05214 0.0
H2127 H 0.4469 0.06612 0.04317 0.0
C2128 C 0.60376 0.16023 0.01291 0.0
C2129 C 0.6652 0.15146 1.00705 0.0
C2130 C 0.7167 0.12272 0.01208 0.0
C2131 C 0.70583 0.10049 0.02246 0.0
C2132 C 0.64273 0.10656 0.02762 0.0
C2133 C 0.59263 0.13623 0.02309 0.0
C2134 C 0.52522 0.12834 0.02891 0.0
C2135 C 0.50355 0.17653 0.03567 0.0
C2136 C 0.46998 0.11055 0.02034 0.0
C2137 C 0.5442 0.08704 0.03676 0.0
C2138 C 0.61254 0.07607 0.03616 0.0
C2139 C 0.64033 0.03548 0.04167 0.0
C2140 C 0.59705 0.00521 0.04792 0.0
C2141 C 0.52663 0.01528 0.04845 0.0
C2142 C 0.50049 0.05732 0.04294 0.0
H2143 H 0.62091 0.25488 0.28354 0.0
H2144 H 0.52754 0.10633 0.2817 0.0
H2145 H 0.50342 0.11531 0.26135 0.0
H2146 H 0.4975 0.31126 0.26632 0.0
H2147 H 0.55648 0.35256 0.2596 0.0
H2148 H 0.57361 0.33192 0.27366 0.0
H2149 H 0.69003 0.29729 0.26667 0.0
H2150 H 0.67243 0.31696 0.2525 0.0
H2151 H 0.69329 0.25204 0.25477 0.0
H2152 H 0.48559 0.14008 0.24198 0.0
H2153 H 0.45451 0.18578 0.22505 0.0
H2154 H 0.55372 0.32075 0.23918 0.0
C2155 C 0.59559 0.22437 0.27878 0.0
C2156 C 0.57597 0.17995 0.28405 0.0
C2157 C 0.54219 0.14083 0.27775 0.0
C2158 C 0.52934 0.14523 0.26618 0.0
C2159 C 0.55005 0.18917 0.26116 0.0
C2160 C 0.58096 0.22861 0.26726 0.0
C2161 C 0.59043 0.27397 0.26005 0.0
C2162 C 0.5522 0.32013 0.26522 0.0
C2163 C 0.66606 0.28574 0.2584 0.0
C2164 C 0.55825 0.25416 0.24905 0.0
C2165 C 0.53729 0.20459 0.24984 0.0
C2166 C 0.50212 0.1787 0.24118 0.0
C2167 C 0.48471 0.20493 0.23163 0.0
C2168 C 0.50197 0.25649 0.23093 0.0
C2169 C 0.54142 0.28101 0.23949 0.0
H2170 H 0.5979 0.74054 0.77991 0.0
H2171 H 0.41531 0.6838 0.79564 0.0
H2172 H 0.34836 0.74968 0.78668 0.0
H2173 H 0.55703 0.87469 0.78204 0.0
H2174 H 0.59346 0.88519 0.76833 0.0
H2175 H 0.62605 0.83571 0.77679 0.0
H2176 H 0.60436 0.77074 0.75977 0.0
H2177 H 0.57268 0.82098 0.75155 0.0
H2178 H 0.52069 0.7662 0.75364 0.0
H2179 H 0.30074 0.81411 0.77447 0.0
H2180 H 0.27493 0.86395 0.75788 0.0
H2181 H 0.48866 0.88813 0.75225 0.0
C2182 C 0.54376 0.74177 0.78146 0.0
C2183 C 0.51182 0.70706 0.78848 0.0
C2184 C 0.4408 0.70966 0.79019 0.0
C2185 C 0.40258 0.74753 0.78532 0.0
C2186 C 0.43632 0.7825 0.77886 0.0
C2187 C 0.50512 0.77943 0.77678 0.0
C2188 C 0.52829 0.81843 0.76866 0.0
C2189 C 0.57923 0.85567 0.77431 0.0
C2190 C 0.55819 0.79256 0.75776 0.0
C2191 C 0.46143 0.84381 0.76637 0.0
C2192 C 0.40899 0.82266 0.7724 0.0
C2193 C 0.34128 0.83276 0.77009 0.0
C2194 C 0.3268 0.86218 0.76084 0.0
C2195 C 0.37967 0.88229 0.75432 0.0
C2196 C 0.44757 0.87579 0.75758 0.0
H2197 H 0.4726 0.51287 0.53435 0.0
H2198 H 0.53211 0.3572 0.52734 0.0
H2199 H 0.55339 0.37594 0.50721 0.0
H2200 H 0.38573 0.53124 0.50905 0.0
H2201 H 0.41485 0.59505 0.50749 0.0
H2202 H 0.40754 0.57039 0.52145 0.0
H2203 H 0.5339 0.59096 0.52572 0.0
H2204 H 0.54103 0.61754 0.51197 0.0
H2205 H 0.5982 0.56833 0.51587 0.0
H2206 H 0.56278 0.41081 0.48808 0.0
H2207 H 0.57964 0.46298 0.47146 0.0
H2208 H 0.51319 0.5958 0.49119 0.0
C2209 C 0.4917 0.48311 0.52863 0.0
C2210 C 0.50111 0.43382 0.53225 0.0
C2211 C 0.52559 0.39539 0.52463 0.0
C2212 C 0.53687 0.40553 0.51322 0.0
C2213 C 0.52406 0.45425 0.50981 0.0
C2214 C 0.50377 0.4927 0.51734 0.0
C2215 C 0.49511 0.54205 0.51164 0.0
C2216 C 0.42141 0.56074 0.51246 0.0
C2217 C 0.54504 0.58205 0.51659 0.0
C2218 C 0.51327 0.52532 0.49961 0.0
C2219 C 0.52907 0.47439 0.49874 0.0
C2220 C 0.55034 0.45057 0.48861 0.0
C2221 C 0.55918 0.48026 0.47925 0.0
C2222 C 0.5465 0.53275 0.48019 0.0
C2223 C 0.52112 0.55539 0.49031 0.0
loop_
_geom_bond_atom_site_label_1
_geom_bond_atom_site_label_2
_geom_bond_distance
_geom_bond_site_symmetry_2
_ccdc_geom_bond_type
C0 O12 1.241 . S
C0 O13 1.280 . S
C1 O14 1.277 . S
C1 O15 1.245 . S
C2 O26 1.247 . S
C2 O28 1.289 . S
Mg3 O4 1.926 . S
Mg3 O13 1.984 . S
Mg3 O15 1.988 . S
Mg3 O16 2.061 . S
O4 Mg3 1.926 . S
O4 Mg5 1.986 . S
O4 Mg6 1.917 . S
Mg5 O4 1.986 . S
Mg5 O12 2.042 . S
Mg5 O14 2.040 . S
Mg5 O20 2.038 . S
Mg5 O28 2.238 . S
Mg6 O4 1.917 . S
Mg6 O7 1.917 . S
Mg6 O17 2.106 . S
Mg6 O19 2.079 . S
Mg6 O28 2.106 . S
Mg6 O29 2.079 . S
O7 Mg6 1.917 . S
O7 Mg8 1.926 . S
O7 Mg9 1.986 . S
Mg8 O7 1.926 . S
Mg8 O22 1.984 . S
Mg8 O25 1.988 . S
Mg8 O26 2.061 . S
Mg9 O7 1.986 . S
Mg9 O17 2.238 . S
Mg9 O21 2.042 . S
Mg9 O23 2.041 . S
Mg9 O30 2.038 . S
C10 O16 1.247 . S
C10 O17 1.289 . S
C11 O29 1.245 . S
C11 O30 1.274 . S
O12 C0 1.241 . S
O12 Mg5 2.042 . S
O13 C0 1.280 . S
O13 Mg3 1.984 . S
O14 C1 1.277 . S
O14 Mg5 2.040 . S
O15 C1 1.245 . S
O15 Mg3 1.988 . S
O16 Mg3 2.061 . S
O16 C10 1.247 . S
O17 Mg6 2.106 . S
O17 Mg9 2.238 . S
O17 C10 1.289 . S
C18 O19 1.245 . S
C18 O20 1.274 . S
O19 Mg6 2.079 . S
O19 C18 1.245 . S
O20 Mg5 2.038 . S
O20 C18 1.274 . S
O21 Mg9 2.042 . S
O21 C24 1.241 . S
O22 Mg8 1.984 . S
O22 C24 1.280 . S
O23 Mg9 2.041 . S
O23 C27 1.277 . S
C24 O21 1.241 . S
C24 O22 1.280 . S
O25 Mg8 1.988 . S
O25 C27 1.245 . S
O26 C2 1.247 . S
O26 Mg8 2.061 . S
C27 O23 1.277 . S
C27 O25 1.245 . S
O28 C2 1.289 . S
O28 Mg5 2.238 . S
O28 Mg6 2.106 . S
O29 Mg6 2.079 . S
O29 C11 1.245 . S
O30 Mg9 2.038 . S
O30 C11 1.274 . S
C31 O43 1.241 . S
C31 O44 1.280 . S
C32 O45 1.277 . S
C32 O46 1.245 . S
C33 O57 1.247 . S
C33 O59 1.289 . S
Mg34 O35 1.926 . S
Mg34 O44 1.984 . S
Mg34 O46 1.988 . S
Mg34 O47 2.061 . S
O35 Mg34 1.926 . S
O35 Mg36 1.986 . S
O35 Mg37 1.917 . S
Mg36 O35 1.986 . S
Mg36 O43 2.042 . S
Mg36 O45 2.041 . S
Mg36 O51 2.038 . S
Mg36 O59 2.238 . S
Mg37 O35 1.917 . S
Mg37 O38 1.917 . S
Mg37 O48 2.106 . S
Mg37 O50 2.079 . S
Mg37 O59 2.106 . S
Mg37 O60 2.079 . S
O38 Mg37 1.917 . S
O38 Mg39 1.926 . S
O38 Mg40 1.986 . S
Mg39 O38 1.926 . S
Mg39 O53 1.984 . S
Mg39 O56 1.988 . S
Mg39 O57 2.061 . S
Mg40 O38 1.986 . S
Mg40 O48 2.238 . S
Mg40 O52 2.042 . S
Mg40 O54 2.041 1_545 S
Mg40 O61 2.038 . S
C41 O47 1.247 . S
C41 O48 1.289 . S
C42 O60 1.245 . S
C42 O61 1.274 . S
O43 C31 1.241 . S
O43 Mg36 2.042 . S
O44 C31 1.280 . S
O44 Mg34 1.984 . S
O45 C32 1.277 . S
O45 Mg36 2.041 . S
O46 C32 1.245 . S
O46 Mg34 1.988 . S
O47 Mg34 2.061 . S
O47 C41 1.247 . S
O48 Mg37 2.106 . S
O48 Mg40 2.238 . S
O48 C41 1.289 . S
C49 O50 1.245 . S
C49 O51 1.274 . S
O50 Mg37 2.079 . S
O50 C49 1.245 . S
O51 Mg36 2.038 . S
O51 C49 1.274 . S
O52 Mg40 2.042 . S
O52 C55 1.241 . S
O53 Mg39 1.984 . S
O53 C55 1.280 . S
O54 Mg40 2.041 1_565 S
O54 C58 1.277 . S
C55 O52 1.241 . S
C55 O53 1.280 . S
O56 Mg39 1.988 . S
O56 C58 1.245 1_545 S
O57 C33 1.247 . S
O57 Mg39 2.061 . S
C58 O54 1.277 . S
C58 O56 1.245 1_565 S
O59 C33 1.289 . S
O59 Mg36 2.238 . S
O59 Mg37 2.106 . S
O60 Mg37 2.079 . S
O60 C42 1.245 . S
O61 Mg40 2.038 . S
O61 C42 1.274 . S
C62 O74 1.241 . S
C62 O75 1.280 . S
C63 O76 1.277 . S
C63 O77 1.245 . S
C64 O88 1.247 . S
C64 O90 1.289 . S
Mg65 O66 1.926 . S
Mg65 O75 1.984 . S
Mg65 O77 1.988 . S
Mg65 O78 2.061 . S
O66 Mg65 1.926 . S
O66 Mg67 1.986 . S
O66 Mg68 1.917 . S
Mg67 O66 1.986 . S
Mg67 O74 2.042 . S
Mg67 O76 2.041 . S
Mg67 O82 2.038 . S
Mg67 O90 2.238 . S
Mg68 O66 1.917 . S
Mg68 O69 1.917 . S
Mg68 O79 2.106 . S
Mg68 O81 2.079 . S
Mg68 O90 2.106 . S
Mg68 O91 2.079 . S
O69 Mg68 1.917 . S
O69 Mg70 1.926 . S
O69 Mg71 1.986 . S
Mg70 O69 1.926 . S
Mg70 O84 1.984 . S
Mg70 O87 1.988 . S
Mg70 O88 2.061 . S
Mg71 O69 1.986 . S
Mg71 O79 2.238 . S
Mg71 O83 2.042 . S
Mg71 O85 2.040 . S
Mg71 O92 2.038 . S
C72 O78 1.247 . S
C72 O79 1.289 . S
C73 O91 1.245 . S
C73 O92 1.274 . S
O74 C62 1.241 . S
O74 Mg67 2.042 . S
O75 C62 1.280 . S
O75 Mg65 1.984 . S
O76 C63 1.277 . S
O76 Mg67 2.041 . S
O77 C63 1.245 . S
O77 Mg65 1.988 . S
O78 Mg65 2.061 . S
O78 C72 1.247 . S
O79 Mg68 2.106 . S
O79 Mg71 2.238 . S
O79 C72 1.289 . S
C80 O81 1.245 . S
C80 O82 1.274 . S
O81 Mg68 2.079 . S
O81 C80 1.245 . S
O82 Mg67 2.038 . S
O82 C80 1.274 . S
O83 Mg71 2.042 . S
O83 C86 1.241 . S
O84 Mg70 1.984 . S
O84 C86 1.280 . S
O85 Mg71 2.040 . S
O85 C89 1.277 . S
C86 O83 1.241 . S
C86 O84 1.280 . S
O87 Mg70 1.988 . S
O87 C89 1.245 . S
O88 C64 1.247 . S
O88 Mg70 2.061 . S
C89 O85 1.277 . S
C89 O87 1.245 . S
O90 C64 1.289 . S
O90 Mg67 2.238 . S
O90 Mg68 2.106 . S
O91 Mg68 2.079 . S
O91 C73 1.245 . S
O92 Mg71 2.038 . S
O92 C73 1.274 . S
C93 O105 1.241 . S
C93 O106 1.280 . S
C94 O107 1.277 . S
C94 O108 1.245 1_545 S
C95 O119 1.247 . S
C95 O121 1.289 . S
Mg96 O97 1.926 . S
Mg96 O106 1.984 . S
Mg96 O108 1.988 . S
Mg96 O109 2.061 . S
O97 Mg96 1.926 . S
O97 Mg98 1.986 . S
O97 Mg99 1.917 . S
Mg98 O97 1.986 . S
Mg98 O105 2.042 . S
Mg98 O107 2.041 1_565 S
Mg98 O113 2.038 . S
Mg98 O121 2.238 . S
Mg99 O97 1.917 . S
Mg99 O100 1.917 . S
Mg99 O110 2.106 . S
Mg99 O112 2.079 . S
Mg99 O121 2.106 . S
Mg99 O122 2.079 . S
O100 Mg99 1.917 . S
O100 Mg101 1.926 . S
O100 Mg102 1.986 . S
Mg101 O100 1.926 . S
Mg101 O115 1.984 . S
Mg101 O118 1.988 . S
Mg101 O119 2.061 . S
Mg102 O100 1.986 . S
Mg102 O110 2.238 . S
Mg102 O114 2.042 . S
Mg102 O116 2.041 . S
Mg102 O123 2.038 . S
C103 O109 1.247 . S
C103 O110 1.289 . S
C104 O122 1.245 . S
C104 O123 1.274 . S
O105 C93 1.241 . S
O105 Mg98 2.042 . S
O106 C93 1.280 . S
O106 Mg96 1.984 . S
O107 C94 1.277 . S
O107 Mg98 2.041 1_545 S
O108 C94 1.245 1_565 S
O108 Mg96 1.988 . S
O109 Mg96 2.061 . S
O109 C103 1.247 . S
O110 Mg99 2.106 . S
O110 Mg102 2.238 . S
O110 C103 1.289 . S
C111 O112 1.245 . S
C111 O113 1.274 . S
O112 Mg99 2.079 . S
O112 C111 1.245 . S
O113 Mg98 2.038 . S
O113 C111 1.274 . S
O114 Mg102 2.042 . S
O114 C117 1.241 . S
O115 Mg101 1.984 . S
O115 C117 1.280 . S
O116 Mg102 2.041 . S
O116 C120 1.277 . S
C117 O114 1.241 . S
C117 O115 1.280 . S
O118 Mg101 1.988 . S
O118 C120 1.245 . S
O119 C95 1.247 . S
O119 Mg101 2.061 . S
C120 O116 1.277 . S
C120 O118 1.245 . S
O121 C95 1.289 . S
O121 Mg98 2.238 . S
O121 Mg99 2.106 . S
O122 Mg99 2.079 . S
O122 C104 1.245 . S
O123 Mg102 2.038 . S
O123 C104 1.274 . S
C124 O136 1.241 . S
C124 O137 1.280 . S
C125 O138 1.277 . S
C125 O139 1.245 . S
C126 O150 1.247 . S
C126 O152 1.289 . S
Mg127 O128 1.926 . S
Mg127 O137 1.984 . S
Mg127 O139 1.988 . S
Mg127 O140 2.061 . S
O128 Mg127 1.926 . S
O128 Mg129 1.986 . S
O128 Mg130 1.917 . S
Mg129 O128 1.986 . S
Mg129 O136 2.042 . S
Mg129 O138 2.041 . S
Mg129 O144 2.038 . S
Mg129 O152 2.238 . S
Mg130 O128 1.917 . S
Mg130 O131 1.917 . S
Mg130 O141 2.106 . S
Mg130 O143 2.079 . S
Mg130 O152 2.106 . S
Mg130 O153 2.079 . S
O131 Mg130 1.917 . S
O131 Mg132 1.926 . S
O131 Mg133 1.986 . S
Mg132 O131 1.926 . S
Mg132 O146 1.984 . S
Mg132 O149 1.988 . S
Mg132 O150 2.061 . S
Mg133 O131 1.986 . S
Mg133 O141 2.238 . S
Mg133 O145 2.042 . S
Mg133 O147 2.041 . S
Mg133 O154 2.038 . S
C134 O140 1.247 . S
C134 O141 1.289 . S
C135 O153 1.245 . S
C135 O154 1.274 . S
O136 C124 1.241 . S
O136 Mg129 2.042 . S
O137 C124 1.280 . S
O137 Mg127 1.984 . S
O138 C125 1.277 . S
O138 Mg129 2.041 . S
O139 C125 1.245 . S
O139 Mg127 1.988 . S
O140 Mg127 2.061 . S
O140 C134 1.247 . S
O141 Mg130 2.106 . S
O141 Mg133 2.238 . S
O141 C134 1.289 . S
C142 O143 1.245 . S
C142 O144 1.274 . S
O143 Mg130 2.079 . S
O143 C142 1.245 . S
O144 Mg129 2.038 . S
O144 C142 1.274 . S
O145 Mg133 2.042 . S
O145 C148 1.241 . S
O146 Mg132 1.984 . S
O146 C148 1.280 . S
O147 Mg133 2.041 . S
O147 C151 1.277 . S
C148 O145 1.241 . S
C148 O146 1.280 . S
O149 Mg132 1.988 . S
O149 C151 1.245 . S
O150 C126 1.247 . S
O150 Mg132 2.061 . S
C151 O147 1.277 . S
C151 O149 1.245 . S
O152 C126 1.289 . S
O152 Mg129 2.238 . S
O152 Mg130 2.106 . S
O153 Mg130 2.079 . S
O153 C135 1.245 . S
O154 Mg133 2.038 . S
O154 C135 1.274 . S
C155 O167 1.241 . S
C155 O168 1.280 . S
C156 O169 1.277 . S
C156 O170 1.245 . S
C157 O181 1.247 . S
C157 O183 1.289 . S
Mg158 O159 1.926 . S
Mg158 O168 1.984 . S
Mg158 O170 1.988 . S
Mg158 O171 2.061 . S
O159 Mg158 1.926 . S
O159 Mg160 1.986 . S
O159 Mg161 1.917 . S
Mg160 O159 1.986 . S
Mg160 O167 2.042 . S
Mg160 O169 2.041 . S
Mg160 O175 2.038 . S
Mg160 O183 2.238 . S
Mg161 O159 1.917 . S
Mg161 O162 1.917 . S
Mg161 O172 2.106 . S
Mg161 O174 2.079 . S
Mg161 O183 2.106 . S
Mg161 O184 2.079 . S
O162 Mg161 1.917 . S
O162 Mg163 1.926 . S
O162 Mg164 1.986 . S
Mg163 O162 1.926 . S
Mg163 O177 1.984 . S
Mg163 O180 1.988 . S
Mg163 O181 2.061 . S
Mg164 O162 1.986 . S
Mg164 O172 2.238 . S
Mg164 O176 2.042 . S
Mg164 O178 2.041 . S
Mg164 O185 2.038 . S
C165 O171 1.247 . S
C165 O172 1.289 . S
C166 O184 1.245 . S
C166 O185 1.274 . S
O167 C155 1.241 . S
O167 Mg160 2.042 . S
O168 C155 1.280 . S
O168 Mg158 1.984 . S
O169 C156 1.277 . S
O169 Mg160 2.041 . S
O170 C156 1.245 . S
O170 Mg158 1.988 . S
O171 Mg158 2.061 . S
O171 C165 1.247 . S
O172 Mg161 2.106 . S
O172 Mg164 2.238 . S
O172 C165 1.289 . S
C173 O174 1.245 . S
C173 O175 1.274 . S
O174 Mg161 2.079 . S
O174 C173 1.245 . S
O175 Mg160 2.038 . S
O175 C173 1.274 . S
O176 Mg164 2.042 . S
O176 C179 1.241 . S
O177 Mg163 1.984 . S
O177 C179 1.280 . S
O178 Mg164 2.041 . S
O178 C182 1.277 . S
C179 O176 1.241 . S
C179 O177 1.280 . S
O180 Mg163 1.988 . S
O180 C182 1.245 . S
O181 C157 1.247 . S
O181 Mg163 2.061 . S
C182 O178 1.277 . S
C182 O180 1.245 . S
O183 C157 1.289 . S
O183 Mg160 2.238 . S
O183 Mg161 2.106 . S
O184 Mg161 2.079 . S
O184 C166 1.245 . S
O185 Mg164 2.038 . S
O185 C166 1.274 . S
C186 O198 1.241 . S
C186 O199 1.280 . S
C187 O200 1.277 . S
C187 O201 1.245 . S
C188 O212 1.247 . S
C188 O214 1.289 . S
Mg189 O190 1.926 . S
Mg189 O199 1.984 . S
Mg189 O201 1.988 . S
Mg189 O202 2.061 . S
O190 Mg189 1.926 . S
O190 Mg191 1.986 . S
O190 Mg192 1.917 . S
Mg191 O190 1.986 . S
Mg191 O198 2.042 . S
Mg191 O200 2.041 . S
Mg191 O206 2.038 . S
Mg191 O214 2.238 . S
Mg192 O190 1.917 . S
Mg192 O193 1.917 . S
Mg192 O203 2.106 . S
Mg192 O205 2.079 . S
Mg192 O214 2.106 . S
Mg192 O215 2.079 . S
O193 Mg192 1.917 . S
O193 Mg194 1.926 . S
O193 Mg195 1.986 . S
Mg194 O193 1.926 . S
Mg194 O208 1.984 . S
Mg194 O211 1.988 . S
Mg194 O212 2.061 . S
Mg195 O193 1.986 . S
Mg195 O203 2.238 . S
Mg195 O207 2.042 . S
Mg195 O209 2.041 . S
Mg195 O216 2.038 . S
C196 O202 1.247 . S
C196 O203 1.289 . S
C197 O215 1.245 . S
C197 O216 1.274 . S
O198 C186 1.241 . S
O198 Mg191 2.042 . S
O199 C186 1.280 . S
O199 Mg189 1.984 . S
O200 C187 1.277 . S
O200 Mg191 2.041 . S
O201 C187 1.245 . S
O201 Mg189 1.988 . S
O202 Mg189 2.061 . S
O202 C196 1.247 . S
O203 Mg192 2.106 . S
O203 Mg195 2.238 . S
O203 C196 1.289 . S
C204 O205 1.245 . S
C204 O206 1.274 . S
O205 Mg192 2.079 . S
O205 C204 1.245 . S
O206 Mg191 2.038 . S
O206 C204 1.274 . S
O207 Mg195 2.042 . S
O207 C210 1.241 . S
O208 Mg194 1.984 . S
O208 C210 1.280 . S
O209 Mg195 2.041 . S
O209 C213 1.277 . S
C210 O207 1.241 . S
C210 O208 1.280 . S
O211 Mg194 1.988 . S
O211 C213 1.245 . S
O212 C188 1.247 . S
O212 Mg194 2.061 . S
C213 O209 1.277 . S
C213 O211 1.245 . S
O214 C188 1.289 . S
O214 Mg191 2.238 . S
O214 Mg192 2.106 . S
O215 Mg192 2.079 . S
O215 C197 1.245 . S
O216 Mg195 2.038 . S
O216 C197 1.274 . S
C217 O229 1.241 . S
C217 O230 1.280 . S
C218 O231 1.277 . S
C218 O232 1.245 . S
C219 O243 1.247 . S
C219 O245 1.289 . S
Mg220 O221 1.926 . S
Mg220 O230 1.984 . S
Mg220 O232 1.988 . S
Mg220 O233 2.061 . S
O221 Mg220 1.926 . S
O221 Mg222 1.986 . S
O221 Mg223 1.917 . S
Mg222 O221 1.986 . S
Mg222 O229 2.042 . S
Mg222 O231 2.041 . S
Mg222 O237 2.038 . S
Mg222 O245 2.238 . S
Mg223 O221 1.917 . S
Mg223 O224 1.917 . S
Mg223 O234 2.106 . S
Mg223 O236 2.079 . S
Mg223 O245 2.106 . S
Mg223 O246 2.079 . S
O224 Mg223 1.917 . S
O224 Mg225 1.926 . S
O224 Mg226 1.986 . S
Mg225 O224 1.926 . S
Mg225 O239 1.984 . S
Mg225 O242 1.988 . S
Mg225 O243 2.061 . S
Mg226 O224 1.986 . S
Mg226 O234 2.238 . S
Mg226 O238 2.042 . S
Mg226 O240 2.041 . S
Mg226 O247 2.038 . S
C227 O233 1.247 . S
C227 O234 1.289 . S
C228 O246 1.245 . S
C228 O247 1.274 . S
O229 C217 1.241 . S
O229 Mg222 2.042 . S
O230 C217 1.280 . S
O230 Mg220 1.984 . S
O231 C218 1.277 . S
O231 Mg222 2.041 . S
O232 C218 1.245 . S
O232 Mg220 1.988 . S
O233 Mg220 2.061 . S
O233 C227 1.247 . S
O234 Mg223 2.106 . S
O234 Mg226 2.238 . S
O234 C227 1.289 . S
C235 O236 1.245 . S
C235 O237 1.274 . S
O236 Mg223 2.079 . S
O236 C235 1.245 . S
O237 Mg222 2.038 . S
O237 C235 1.274 . S
O238 Mg226 2.042 . S
O238 C241 1.241 . S
O239 Mg225 1.984 . S
O239 C241 1.280 . S
O240 Mg226 2.041 . S
O240 C244 1.277 . S
C241 O238 1.241 . S
C241 O239 1.280 . S
O242 Mg225 1.988 . S
O242 C244 1.245 . S
O243 C219 1.247 . S
O243 Mg225 2.061 . S
C244 O240 1.277 . S
C244 O242 1.245 . S
O245 C219 1.289 . S
O245 Mg222 2.238 . S
O245 Mg223 2.106 . S
O246 Mg223 2.079 . S
O246 C228 1.245 . S
O247 Mg226 2.038 . S
O247 C228 1.274 . S
C248 O260 1.241 . S
C248 O261 1.280 . S
C249 O262 1.277 . S
C249 O263 1.245 . S
C250 O274 1.247 . S
C250 O276 1.289 . S
Mg251 O252 1.926 . S
Mg251 O261 1.984 . S
Mg251 O263 1.988 . S
Mg251 O264 2.061 . S
O252 Mg251 1.926 . S
O252 Mg253 1.986 . S
O252 Mg254 1.917 . S
Mg253 O252 1.986 . S
Mg253 O260 2.042 . S
Mg253 O262 2.040 . S
Mg253 O268 2.038 . S
Mg253 O276 2.238 . S
Mg254 O252 1.917 . S
Mg254 O255 1.917 . S
Mg254 O265 2.106 . S
Mg254 O267 2.079 . S
Mg254 O276 2.106 . S
Mg254 O277 2.079 . S
O255 Mg254 1.917 . S
O255 Mg256 1.926 . S
O255 Mg257 1.986 . S
Mg256 O255 1.926 . S
Mg256 O270 1.984 . S
Mg256 O273 1.988 . S
Mg256 O274 2.061 . S
Mg257 O255 1.986 . S
Mg257 O265 2.238 . S
Mg257 O269 2.042 . S
Mg257 O271 2.041 . S
Mg257 O278 2.038 . S
C258 O264 1.247 . S
C258 O265 1.289 . S
C259 O277 1.245 . S
C259 O278 1.274 . S
O260 C248 1.241 . S
O260 Mg253 2.042 . S
O261 C248 1.280 . S
O261 Mg251 1.984 . S
O262 C249 1.277 . S
O262 Mg253 2.040 . S
O263 C249 1.245 . S
O263 Mg251 1.988 . S
O264 Mg251 2.061 . S
O264 C258 1.247 . S
O265 Mg254 2.106 . S
O265 Mg257 2.238 . S
O265 C258 1.289 . S
C266 O267 1.245 . S
C266 O268 1.274 . S
O267 Mg254 2.079 . S
O267 C266 1.245 . S
O268 Mg253 2.038 . S
O268 C266 1.274 . S
O269 Mg257 2.042 . S
O269 C272 1.241 . S
O270 Mg256 1.984 . S
O270 C272 1.280 . S
O271 Mg257 2.041 . S
O271 C275 1.277 . S
C272 O269 1.241 . S
C272 O270 1.280 . S
O273 Mg256 1.988 . S
O273 C275 1.245 . S
O274 C250 1.247 . S
O274 Mg256 2.061 . S
C275 O271 1.277 . S
C275 O273 1.245 . S
O276 C250 1.289 . S
O276 Mg253 2.238 . S
O276 Mg254 2.106 . S
O277 Mg254 2.079 . S
O277 C259 1.245 . S
O278 Mg257 2.038 . S
O278 C259 1.274 . S
C279 O291 1.241 . S
C279 O292 1.280 . S
C280 O293 1.277 . S
C280 O294 1.245 . S
C281 O305 1.247 . S
C281 O307 1.289 . S
Mg282 O283 1.926 . S
Mg282 O292 1.984 . S
Mg282 O294 1.988 . S
Mg282 O295 2.061 . S
O283 Mg282 1.926 . S
O283 Mg284 1.986 . S
O283 Mg285 1.917 . S
Mg284 O283 1.986 . S
Mg284 O291 2.042 . S
Mg284 O293 2.041 . S
Mg284 O299 2.038 . S
Mg284 O307 2.238 . S
Mg285 O283 1.917 . S
Mg285 O286 1.917 . S
Mg285 O296 2.106 . S
Mg285 O298 2.079 . S
Mg285 O307 2.106 . S
Mg285 O308 2.079 . S
O286 Mg285 1.917 . S
O286 Mg287 1.926 . S
O286 Mg288 1.986 . S
Mg287 O286 1.926 . S
Mg287 O301 1.984 . S
Mg287 O304 1.988 . S
Mg287 O305 2.061 . S
Mg288 O286 1.986 . S
Mg288 O296 2.238 . S
Mg288 O300 2.042 . S
Mg288 O302 2.041 1_545 S
Mg288 O309 2.038 . S
C289 O295 1.247 . S
C289 O296 1.289 . S
C290 O308 1.245 . S
C290 O309 1.274 . S
O291 C279 1.241 . S
O291 Mg284 2.042 . S
O292 C279 1.280 . S
O292 Mg282 1.984 . S
O293 C280 1.277 . S
O293 Mg284 2.041 . S
O294 C280 1.245 . S
O294 Mg282 1.988 . S
O295 Mg282 2.061 . S
O295 C289 1.247 . S
O296 Mg285 2.106 . S
O296 Mg288 2.238 . S
O296 C289 1.289 . S
C297 O298 1.245 . S
C297 O299 1.274 . S
O298 Mg285 2.079 . S
O298 C297 1.245 . S
O299 Mg284 2.038 . S
O299 C297 1.274 . S
O300 Mg288 2.042 . S
O300 C303 1.241 . S
O301 Mg287 1.984 . S
O301 C303 1.280 . S
O302 Mg288 2.041 1_565 S
O302 C306 1.277 . S
C303 O300 1.241 . S
C303 O301 1.280 . S
O304 Mg287 1.988 . S
O304 C306 1.245 1_545 S
O305 C281 1.247 . S
O305 Mg287 2.061 . S
C306 O302 1.277 . S
C306 O304 1.245 1_565 S
O307 C281 1.289 . S
O307 Mg284 2.238 . S
O307 Mg285 2.106 . S
O308 Mg285 2.079 . S
O308 C290 1.245 . S
O309 Mg288 2.038 . S
O309 C290 1.274 . S
C310 O322 1.241 . S
C310 O323 1.280 . S
C311 O324 1.277 . S
C311 O325 1.245 . S
C312 O336 1.247 . S
C312 O338 1.289 . S
Mg313 O314 1.926 . S
Mg313 O323 1.984 . S
Mg313 O325 1.988 . S
Mg313 O326 2.061 . S
O314 Mg313 1.926 . S
O314 Mg315 1.986 . S
O314 Mg316 1.917 . S
Mg315 O314 1.986 . S
Mg315 O322 2.042 . S
Mg315 O324 2.041 . S
Mg315 O330 2.038 . S
Mg315 O338 2.238 . S
Mg316 O314 1.917 . S
Mg316 O317 1.917 . S
Mg316 O327 2.106 . S
Mg316 O329 2.079 . S
Mg316 O338 2.106 . S
Mg316 O339 2.079 . S
O317 Mg316 1.917 . S
O317 Mg318 1.926 . S
O317 Mg319 1.986 . S
Mg318 O317 1.926 . S
Mg318 O332 1.984 . S
Mg318 O335 1.988 . S
Mg318 O336 2.061 . S
Mg319 O317 1.986 . S
Mg319 O327 2.238 . S
Mg319 O331 2.042 . S
Mg319 O333 2.040 . S
Mg319 O340 2.038 . S
C320 O326 1.247 . S
C320 O327 1.289 . S
C321 O339 1.245 . S
C321 O340 1.274 . S
O322 C310 1.241 . S
O322 Mg315 2.042 . S
O323 C310 1.280 . S
O323 Mg313 1.984 . S
O324 C311 1.277 . S
O324 Mg315 2.041 . S
O325 C311 1.245 . S
O325 Mg313 1.988 . S
O326 Mg313 2.061 . S
O326 C320 1.247 . S
O327 Mg316 2.106 . S
O327 Mg319 2.238 . S
O327 C320 1.289 . S
C328 O329 1.245 . S
C328 O330 1.274 . S
O329 Mg316 2.079 . S
O329 C328 1.245 . S
O330 Mg315 2.038 . S
O330 C328 1.274 . S
O331 Mg319 2.042 . S
O331 C334 1.241 . S
O332 Mg318 1.984 . S
O332 C334 1.280 . S
O333 Mg319 2.040 . S
O333 C337 1.277 . S
C334 O331 1.241 . S
C334 O332 1.280 . S
O335 Mg318 1.988 . S
O335 C337 1.245 . S
O336 C312 1.247 . S
O336 Mg318 2.061 . S
C337 O333 1.277 . S
C337 O335 1.245 . S
O338 C312 1.289 . S
O338 Mg315 2.238 . S
O338 Mg316 2.106 . S
O339 Mg316 2.079 . S
O339 C321 1.245 . S
O340 Mg319 2.038 . S
O340 C321 1.274 . S
C341 O353 1.241 . S
C341 O354 1.280 . S
C342 O355 1.277 . S
C342 O356 1.245 1_545 S
C343 O367 1.247 . S
C343 O369 1.289 . S
Mg344 O345 1.926 . S
Mg344 O354 1.984 . S
Mg344 O356 1.988 . S
Mg344 O357 2.061 . S
O345 Mg344 1.926 . S
O345 Mg346 1.986 . S
O345 Mg347 1.917 . S
Mg346 O345 1.986 . S
Mg346 O353 2.042 . S
Mg346 O355 2.041 1_565 S
Mg346 O361 2.038 . S
Mg346 O369 2.238 . S
Mg347 O345 1.917 . S
Mg347 O348 1.917 . S
Mg347 O358 2.106 . S
Mg347 O360 2.079 . S
Mg347 O369 2.106 . S
Mg347 O370 2.079 . S
O348 Mg347 1.917 . S
O348 Mg349 1.926 . S
O348 Mg350 1.986 . S
Mg349 O348 1.926 . S
Mg349 O363 1.984 . S
Mg349 O366 1.988 . S
Mg349 O367 2.061 . S
Mg350 O348 1.986 . S
Mg350 O358 2.238 . S
Mg350 O362 2.042 . S
Mg350 O364 2.041 . S
Mg350 O371 2.038 . S
C351 O357 1.247 . S
C351 O358 1.289 . S
C352 O370 1.245 . S
C352 O371 1.274 . S
O353 C341 1.241 . S
O353 Mg346 2.042 . S
O354 C341 1.280 . S
O354 Mg344 1.984 . S
O355 C342 1.277 . S
O355 Mg346 2.041 1_545 S
O356 C342 1.245 1_565 S
O356 Mg344 1.988 . S
O357 Mg344 2.061 . S
O357 C351 1.247 . S
O358 Mg347 2.106 . S
O358 Mg350 2.238 . S
O358 C351 1.289 . S
C359 O360 1.245 . S
C359 O361 1.274 . S
O360 Mg347 2.079 . S
O360 C359 1.245 . S
O361 Mg346 2.038 . S
O361 C359 1.274 . S
O362 Mg350 2.042 . S
O362 C365 1.241 . S
O363 Mg349 1.984 . S
O363 C365 1.280 . S
O364 Mg350 2.041 . S
O364 C368 1.277 . S
C365 O362 1.241 . S
C365 O363 1.280 . S
O366 Mg349 1.988 . S
O366 C368 1.245 . S
O367 C343 1.247 . S
O367 Mg349 2.061 . S
C368 O364 1.277 . S
C368 O366 1.245 . S
O369 C343 1.289 . S
O369 Mg346 2.238 . S
O369 Mg347 2.106 . S
O370 Mg347 2.079 . S
O370 C352 1.245 . S
O371 Mg350 2.038 . S
O371 C352 1.274 . S
C372 O384 1.241 . S
C372 O385 1.280 . S
C373 O386 1.277 . S
C373 O387 1.245 . S
C374 O398 1.247 . S
C374 O400 1.289 . S
Mg375 O376 1.926 . S
Mg375 O385 1.984 . S
Mg375 O387 1.988 . S
Mg375 O388 2.061 . S
O376 Mg375 1.926 . S
O376 Mg377 1.986 . S
O376 Mg378 1.917 . S
Mg377 O376 1.986 . S
Mg377 O384 2.042 . S
Mg377 O386 2.041 . S
Mg377 O392 2.038 . S
Mg377 O400 2.238 . S
Mg378 O376 1.917 . S
Mg378 O379 1.917 . S
Mg378 O389 2.106 . S
Mg378 O391 2.079 . S
Mg378 O400 2.106 . S
Mg378 O401 2.079 . S
O379 Mg378 1.917 . S
O379 Mg380 1.926 . S
O379 Mg381 1.986 . S
Mg380 O379 1.926 . S
Mg380 O394 1.984 . S
Mg380 O397 1.988 . S
Mg380 O398 2.061 . S
Mg381 O379 1.986 . S
Mg381 O389 2.238 . S
Mg381 O393 2.042 . S
Mg381 O395 2.041 . S
Mg381 O402 2.038 . S
C382 O388 1.247 . S
C382 O389 1.289 . S
C383 O401 1.245 . S
C383 O402 1.274 . S
O384 C372 1.241 . S
O384 Mg377 2.042 . S
O385 C372 1.280 . S
O385 Mg375 1.984 . S
O386 C373 1.277 . S
O386 Mg377 2.041 . S
O387 C373 1.245 . S
O387 Mg375 1.988 . S
O388 Mg375 2.061 . S
O388 C382 1.247 . S
O389 Mg378 2.106 . S
O389 Mg381 2.238 . S
O389 C382 1.289 . S
C390 O391 1.245 . S
C390 O392 1.274 . S
O391 Mg378 2.079 . S
O391 C390 1.245 . S
O392 Mg377 2.038 . S
O392 C390 1.274 . S
O393 Mg381 2.042 . S
O393 C396 1.241 . S
O394 Mg380 1.984 . S
O394 C396 1.280 . S
O395 Mg381 2.041 . S
O395 C399 1.277 . S
C396 O393 1.241 . S
C396 O394 1.280 . S
O397 Mg380 1.988 . S
O397 C399 1.245 . S
O398 C374 1.247 . S
O398 Mg380 2.061 . S
C399 O395 1.277 . S
C399 O397 1.245 . S
O400 C374 1.289 . S
O400 Mg377 2.238 . S
O400 Mg378 2.106 . S
O401 Mg378 2.079 . S
O401 C383 1.245 . S
O402 Mg381 2.038 . S
O402 C383 1.274 . S
C403 O415 1.241 . S
C403 O416 1.280 . S
C404 O417 1.277 . S
C404 O418 1.245 . S
C405 O429 1.247 . S
C405 O431 1.289 . S
Mg406 O407 1.926 . S
Mg406 O416 1.984 . S
Mg406 O418 1.988 . S
Mg406 O419 2.061 . S
O407 Mg406 1.926 . S
O407 Mg408 1.986 . S
O407 Mg409 1.917 . S
Mg408 O407 1.986 . S
Mg408 O415 2.042 . S
Mg408 O417 2.041 . S
Mg408 O423 2.038 . S
Mg408 O431 2.238 . S
Mg409 O407 1.917 . S
Mg409 O410 1.917 . S
Mg409 O420 2.106 . S
Mg409 O422 2.079 . S
Mg409 O431 2.106 . S
Mg409 O432 2.079 . S
O410 Mg409 1.917 . S
O410 Mg411 1.926 . S
O410 Mg412 1.986 . S
Mg411 O410 1.926 . S
Mg411 O425 1.984 . S
Mg411 O428 1.988 . S
Mg411 O429 2.061 . S
Mg412 O410 1.986 . S
Mg412 O420 2.238 . S
Mg412 O424 2.042 . S
Mg412 O426 2.041 . S
Mg412 O433 2.038 . S
C413 O419 1.247 . S
C413 O420 1.289 . S
C414 O432 1.245 . S
C414 O433 1.274 . S
O415 C403 1.241 . S
O415 Mg408 2.042 . S
O416 C403 1.280 . S
O416 Mg406 1.984 . S
O417 C404 1.277 . S
O417 Mg408 2.041 . S
O418 C404 1.245 . S
O418 Mg406 1.988 . S
O419 Mg406 2.061 . S
O419 C413 1.247 . S
O420 Mg409 2.106 . S
O420 Mg412 2.238 . S
O420 C413 1.289 . S
C421 O422 1.245 . S
C421 O423 1.274 . S
O422 Mg409 2.079 . S
O422 C421 1.245 . S
O423 Mg408 2.038 . S
O423 C421 1.274 . S
O424 Mg412 2.042 . S
O424 C427 1.241 . S
O425 Mg411 1.984 . S
O425 C427 1.280 . S
O426 Mg412 2.041 . S
O426 C430 1.277 . S
C427 O424 1.241 . S
C427 O425 1.280 . S
O428 Mg411 1.988 . S
O428 C430 1.245 . S
O429 C405 1.247 . S
O429 Mg411 2.061 . S
C430 O426 1.277 . S
C430 O428 1.245 . S
O431 C405 1.289 . S
O431 Mg408 2.238 . S
O431 Mg409 2.106 . S
O432 Mg409 2.079 . S
O432 C414 1.245 . S
O433 Mg412 2.038 . S
O433 C414 1.274 . S
C434 O446 1.241 . S
C434 O447 1.280 . S
C435 O448 1.277 . S
C435 O449 1.245 . S
C436 O460 1.247 . S
C436 O462 1.289 . S
Mg437 O438 1.926 . S
Mg437 O447 1.984 . S
Mg437 O449 1.988 . S
Mg437 O450 2.061 . S
O438 Mg437 1.926 . S
O438 Mg439 1.986 . S
O438 Mg440 1.917 . S
Mg439 O438 1.986 . S
Mg439 O446 2.042 . S
Mg439 O448 2.041 . S
Mg439 O454 2.038 . S
Mg439 O462 2.238 . S
Mg440 O438 1.917 . S
Mg440 O441 1.917 . S
Mg440 O451 2.106 . S
Mg440 O453 2.079 . S
Mg440 O462 2.106 . S
Mg440 O463 2.079 . S
O441 Mg440 1.917 . S
O441 Mg442 1.926 . S
O441 Mg443 1.986 . S
Mg442 O441 1.926 . S
Mg442 O456 1.984 . S
Mg442 O459 1.988 . S
Mg442 O460 2.061 . S
Mg443 O441 1.986 . S
Mg443 O451 2.238 . S
Mg443 O455 2.042 . S
Mg443 O457 2.041 . S
Mg443 O464 2.038 . S
C444 O450 1.247 . S
C444 O451 1.289 . S
C445 O463 1.245 . S
C445 O464 1.274 . S
O446 C434 1.241 . S
O446 Mg439 2.042 . S
O447 C434 1.280 . S
O447 Mg437 1.984 . S
O448 C435 1.277 . S
O448 Mg439 2.041 . S
O449 C435 1.245 . S
O449 Mg437 1.988 . S
O450 Mg437 2.061 . S
O450 C444 1.247 . S
O451 Mg440 2.106 . S
O451 Mg443 2.238 . S
O451 C444 1.289 . S
C452 O453 1.245 . S
C452 O454 1.274 . S
O453 Mg440 2.079 . S
O453 C452 1.245 . S
O454 Mg439 2.038 . S
O454 C452 1.274 . S
O455 Mg443 2.042 . S
O455 C458 1.241 . S
O456 Mg442 1.984 . S
O456 C458 1.280 . S
O457 Mg443 2.041 . S
O457 C461 1.277 . S
C458 O455 1.241 . S
C458 O456 1.280 . S
O459 Mg442 1.988 . S
O459 C461 1.245 . S
O460 C436 1.247 . S
O460 Mg442 2.061 . S
C461 O457 1.277 . S
C461 O459 1.245 . S
O462 C436 1.289 . S
O462 Mg439 2.238 . S
O462 Mg440 2.106 . S
O463 Mg440 2.079 . S
O463 C445 1.245 . S
O464 Mg443 2.038 . S
O464 C445 1.274 . S
C465 O477 1.241 . S
C465 O478 1.280 . S
C466 O479 1.277 . S
C466 O480 1.245 . S
C467 O491 1.247 . S
C467 O493 1.289 . S
Mg468 O469 1.926 . S
Mg468 O478 1.984 . S
Mg468 O480 1.988 . S
Mg468 O481 2.061 . S
O469 Mg468 1.926 . S
O469 Mg470 1.986 . S
O469 Mg471 1.917 . S
Mg470 O469 1.986 . S
Mg470 O477 2.042 . S
Mg470 O479 2.041 . S
Mg470 O485 2.038 . S
Mg470 O493 2.238 . S
Mg471 O469 1.917 . S
Mg471 O472 1.917 . S
Mg471 O482 2.106 . S
Mg471 O484 2.079 . S
Mg471 O493 2.106 . S
Mg471 O494 2.079 . S
O472 Mg471 1.917 . S
O472 Mg473 1.926 . S
O472 Mg474 1.986 . S
Mg473 O472 1.926 . S
Mg473 O487 1.984 . S
Mg473 O490 1.988 . S
Mg473 O491 2.061 . S
Mg474 O472 1.986 . S
Mg474 O482 2.238 . S
Mg474 O486 2.042 . S
Mg474 O488 2.041 . S
Mg474 O495 2.038 . S
C475 O481 1.247 . S
C475 O482 1.289 . S
C476 O494 1.245 . S
C476 O495 1.274 . S
O477 C465 1.241 . S
O477 Mg470 2.042 . S
O478 C465 1.280 . S
O478 Mg468 1.984 . S
O479 C466 1.277 . S
O479 Mg470 2.041 . S
O480 C466 1.245 . S
O480 Mg468 1.988 . S
O481 Mg468 2.061 . S
O481 C475 1.247 . S
O482 Mg471 2.106 . S
O482 Mg474 2.238 . S
O482 C475 1.289 . S
C483 O484 1.245 . S
C483 O485 1.274 . S
O484 Mg471 2.079 . S
O484 C483 1.245 . S
O485 Mg470 2.038 . S
O485 C483 1.274 . S
O486 Mg474 2.042 . S
O486 C489 1.241 . S
O487 Mg473 1.984 . S
O487 C489 1.280 . S
O488 Mg474 2.041 . S
O488 C492 1.277 . S
C489 O486 1.241 . S
C489 O487 1.280 . S
O490 Mg473 1.988 . S
O490 C492 1.245 . S
O491 C467 1.247 . S
O491 Mg473 2.061 . S
C492 O488 1.277 . S
C492 O490 1.245 . S
O493 C467 1.289 . S
O493 Mg470 2.238 . S
O493 Mg471 2.106 . S
O494 Mg471 2.079 . S
O494 C476 1.245 . S
O495 Mg474 2.038 . S
O495 C476 1.274 . S
H496 C508 0.930 . S
H497 C510 0.930 . S
H498 C511 0.930 . S
H499 C515 0.959 . S
H500 C515 0.959 . S
H501 C515 0.961 . S
H502 C516 0.960 . S
H503 C516 0.961 . S
H504 C516 0.959 . S
H505 C519 0.929 . S
H506 C520 0.931 . S
H507 C522 0.930 . S
C508 H496 0.930 . S
C508 C509 1.399 . S
C508 C513 1.399 . S
C509 C508 1.399 . S
C509 C510 1.376 . S
C510 H497 0.930 . S
C510 C509 1.376 . S
C510 C511 1.388 . S
C511 H498 0.930 . S
C511 C510 1.388 . S
C511 C512 1.390 . S
C512 C511 1.390 . S
C512 C513 1.394 . S
C512 C518 1.465 . S
C513 C508 1.399 . S
C513 C512 1.394 . S
C513 C514 1.516 . S
C514 C513 1.516 . S
C514 C515 1.502 . S
C514 C516 1.561 . S
C514 C517 1.526 . S
C515 H499 0.959 . S
C515 H500 0.959 . S
C515 H501 0.961 . S
C515 C514 1.502 . S
C516 H502 0.960 . S
C516 H503 0.961 . S
C516 H504 0.959 . S
C516 C514 1.561 . S
C517 C514 1.526 . S
C517 C518 1.396 . S
C517 C522 1.390 . S
C518 C512 1.465 . S
C518 C517 1.396 . S
C518 C519 1.399 . S
C519 H505 0.929 . S
C519 C518 1.399 . S
C519 C520 1.385 . S
C520 H506 0.931 . S
C520 C519 1.385 . S
C520 C521 1.389 . S
C521 C520 1.389 . S
C521 C522 1.387 . S
C522 H507 0.930 . S
C522 C517 1.390 . S
C522 C521 1.387 . S
H523 C535 0.930 . S
H524 C537 0.930 1_545 S
H525 C538 0.930 . S
H526 C542 0.959 . S
H527 C542 0.959 . S
H528 C542 0.961 . S
H529 C543 0.960 1_455 S
H530 C543 0.961 . S
H531 C543 0.959 . S
H532 C546 0.929 . S
H533 C547 0.931 . S
H534 C549 0.930 . S
C535 H523 0.930 . S
C535 C536 1.399 . S
C535 C540 1.389 1_455 S
C536 C535 1.399 . S
C536 C537 1.376 1_455 S
C537 H524 0.930 1_565 S
C537 C536 1.376 1_655 S
C537 C538 1.388 . S
C538 H525 0.930 . S
C538 C537 1.388 . S
C538 C539 1.390 . S
C539 C538 1.390 . S
C539 C540 1.404 . S
C539 C545 1.465 . S
C540 C535 1.389 1_655 S
C540 C539 1.404 . S
C540 C541 1.518 . S
C541 C540 1.518 . S
C541 C542 1.502 1_655 S
C541 C543 1.561 . S
C541 C544 1.526 . S
C542 H526 0.959 . S
C542 H527 0.959 . S
C542 H528 0.961 . S
C542 C541 1.502 1_455 S
C543 H529 0.960 1_655 S
C543 H530 0.961 . S
C543 H531 0.959 . S
C543 C541 1.561 . S
C544 C541 1.526 . S
C544 C545 1.396 . S
C544 C549 1.390 . S
C545 C539 1.465 . S
C545 C544 1.396 . S
C545 C546 1.399 . S
C546 H532 0.929 . S
C546 C545 1.399 . S
C546 C547 1.385 . S
C547 H533 0.931 . S
C547 C546 1.385 . S
C547 C548 1.389 . S
C548 C547 1.389 . S
C548 C549 1.387 . S
C549 H534 0.930 . S
C549 C544 1.390 . S
C549 C548 1.387 . S
H550 C562 0.930 . S
H551 C564 0.930 . S
H552 C565 0.930 . S
H553 C569 0.959 . S
H554 C569 0.959 . S
H555 C569 0.961 . S
H556 C570 0.960 . S
H557 C570 0.961 . S
H558 C570 0.959 . S
H559 C573 0.929 . S
H560 C574 0.931 . S
H561 C576 0.930 . S
C562 H550 0.930 . S
C562 C563 1.399 . S
C562 C567 1.399 . S
C563 C562 1.399 . S
C563 C564 1.376 . S
C564 H551 0.930 . S
C564 C563 1.376 . S
C564 C565 1.388 . S
C565 H552 0.930 . S
C565 C564 1.388 . S
C565 C566 1.390 . S
C566 C565 1.390 . S
C566 C567 1.394 . S
C566 C572 1.465 . S
C567 C562 1.399 . S
C567 C566 1.394 . S
C567 C568 1.516 . S
C568 C567 1.516 . S
C568 C569 1.502 . S
C568 C570 1.561 . S
C568 C571 1.526 . S
C569 H553 0.959 . S
C569 H554 0.959 . S
C569 H555 0.961 . S
C569 C568 1.502 . S
C570 H556 0.960 . S
C570 H557 0.961 . S
C570 H558 0.959 . S
C570 C568 1.561 . S
C571 C568 1.526 . S
C571 C572 1.396 . S
C571 C576 1.390 . S
C572 C566 1.465 . S
C572 C571 1.396 . S
C572 C573 1.399 . S
C573 H559 0.929 . S
C573 C572 1.399 . S
C573 C574 1.385 . S
C574 H560 0.931 . S
C574 C573 1.385 . S
C574 C575 1.389 . S
C575 C574 1.389 . S
C575 C576 1.387 . S
C576 H561 0.930 . S
C576 C571 1.390 . S
C576 C575 1.387 . S
H577 C589 0.930 . S
H578 C591 0.930 . S
H579 C592 0.930 . S
H580 C596 0.959 . S
H581 C596 0.959 . S
H582 C596 0.961 . S
H583 C597 0.960 1_455 S
H584 C597 0.961 . S
H585 C597 0.959 1_455 S
H586 C600 0.929 . S
H587 C601 0.931 . S
H588 C603 0.930 . S
C589 H577 0.930 . S
C589 C590 1.399 . S
C589 C594 1.399 1_455 S
C590 C589 1.399 . S
C590 C591 1.376 . S
C591 H578 0.930 . S
C591 C590 1.376 . S
C591 C592 1.388 . S
C592 H579 0.930 . S
C592 C591 1.388 . S
C592 C593 1.390 1_455 S
C593 C592 1.390 1_655 S
C593 C594 1.394 . S
C593 C599 1.465 . S
C594 C589 1.399 1_655 S
C594 C593 1.394 . S
C594 C595 1.516 . S
C595 C594 1.516 . S
C595 C596 1.502 . S
C595 C597 1.561 . S
C595 C598 1.526 . S
C596 H580 0.959 . S
C596 H581 0.959 . S
C596 H582 0.961 . S
C596 C595 1.502 . S
C597 H583 0.960 1_655 S
C597 H584 0.961 . S
C597 H585 0.959 1_655 S
C597 C595 1.561 . S
C598 C595 1.526 . S
C598 C599 1.396 . S
C598 C603 1.390 . S
C599 C593 1.465 . S
C599 C598 1.396 . S
C599 C600 1.399 . S
C600 H586 0.929 . S
C600 C599 1.399 . S
C600 C601 1.385 . S
C601 H587 0.931 . S
C601 C600 1.385 . S
C601 C602 1.389 . S
C602 C601 1.389 . S
C602 C603 1.387 . S
C603 H588 0.930 . S
C603 C598 1.390 . S
C603 C602 1.387 . S
H604 C616 0.930 . S
H605 C618 0.930 . S
H606 C619 0.930 . S
H607 C623 0.959 . S
H608 C623 0.959 . S
H609 C623 0.961 . S
H610 C624 0.960 . S
H611 C624 0.961 . S
H612 C624 0.959 . S
H613 C627 0.929 . S
H614 C628 0.931 . S
H615 C630 0.930 . S
C616 H604 0.930 . S
C616 C617 1.399 . S
C616 C621 1.399 . S
C617 C616 1.399 . S
C617 C618 1.376 . S
C618 H605 0.930 . S
C618 C617 1.376 . S
C618 C619 1.388 . S
C619 H606 0.930 . S
C619 C618 1.388 . S
C619 C620 1.390 . S
C620 C619 1.390 . S
C620 C621 1.394 . S
C620 C626 1.465 . S
C621 C616 1.399 . S
C621 C620 1.394 . S
C621 C622 1.516 . S
C622 C621 1.516 . S
C622 C623 1.502 . S
C622 C624 1.561 . S
C622 C625 1.526 . S
C623 H607 0.959 . S
C623 H608 0.959 . S
C623 H609 0.961 . S
C623 C622 1.502 . S
C624 H610 0.960 . S
C624 H611 0.961 . S
C624 H612 0.959 . S
C624 C622 1.561 . S
C625 C622 1.526 . S
C625 C626 1.396 . S
C625 C630 1.390 . S
C626 C620 1.465 . S
C626 C625 1.396 . S
C626 C627 1.399 . S
C627 H613 0.929 . S
C627 C626 1.399 . S
C627 C628 1.385 . S
C628 H614 0.931 . S
C628 C627 1.385 . S
C628 C629 1.389 . S
C629 C628 1.389 . S
C629 C630 1.387 . S
C630 H615 0.930 . S
C630 C625 1.390 . S
C630 C629 1.387 . S
H631 C643 0.930 . S
H632 C645 0.930 . S
H633 C646 0.930 . S
H634 C650 0.959 . S
H635 C650 0.959 . S
H636 C650 0.961 . S
H637 C651 0.960 1_655 S
H638 C651 0.961 . S
H639 C651 0.959 1_655 S
H640 C654 0.929 . S
H641 C655 0.931 . S
H642 C657 0.930 . S
C643 H631 0.930 . S
C643 C644 1.399 . S
C643 C648 1.399 1_655 S
C644 C643 1.399 . S
C644 C645 1.376 . S
C645 H632 0.930 . S
C645 C644 1.376 . S
C645 C646 1.388 . S
C646 H633 0.930 . S
C646 C645 1.388 . S
C646 C647 1.390 1_655 S
C647 C646 1.390 1_455 S
C647 C648 1.394 . S
C647 C653 1.465 . S
C648 C643 1.399 1_455 S
C648 C647 1.394 . S
C648 C649 1.516 . S
C649 C648 1.516 . S
C649 C650 1.502 . S
C649 C651 1.561 . S
C649 C652 1.526 . S
C650 H634 0.959 . S
C650 H635 0.959 . S
C650 H636 0.961 . S
C650 C649 1.502 . S
C651 H637 0.960 1_455 S
C651 H638 0.961 . S
C651 H639 0.959 1_455 S
C651 C649 1.561 . S
C652 C649 1.526 . S
C652 C653 1.396 . S
C652 C657 1.390 . S
C653 C647 1.465 . S
C653 C652 1.396 . S
C653 C654 1.399 . S
C654 H640 0.929 . S
C654 C653 1.399 . S
C654 C655 1.385 . S
C655 H641 0.931 . S
C655 C654 1.385 . S
C655 C656 1.389 . S
C656 C655 1.389 . S
C656 C657 1.387 . S
C657 H642 0.930 . S
C657 C652 1.390 . S
C657 C656 1.387 . S
H658 C670 0.930 . S
H659 C672 0.930 . S
H660 C673 0.930 . S
H661 C677 0.959 . S
H662 C677 0.959 . S
H663 C677 0.961 . S
H664 C678 0.960 . S
H665 C678 0.961 . S
H666 C678 0.959 . S
H667 C681 0.929 . S
H668 C682 0.931 . S
H669 C684 0.930 . S
C670 H658 0.930 . S
C670 C671 1.399 . S
C670 C675 1.399 . S
C671 C670 1.399 . S
C671 C672 1.376 . S
C672 H659 0.930 . S
C672 C671 1.376 . S
C672 C673 1.388 . S
C673 H660 0.930 . S
C673 C672 1.388 . S
C673 C674 1.390 . S
C674 C673 1.390 . S
C674 C675 1.394 . S
C674 C680 1.465 . S
C675 C670 1.399 . S
C675 C674 1.394 . S
C675 C676 1.516 . S
C676 C675 1.516 . S
C676 C677 1.502 . S
C676 C678 1.561 . S
C676 C679 1.526 . S
C677 H661 0.959 . S
C677 H662 0.959 . S
C677 H663 0.961 . S
C677 C676 1.502 . S
C678 H664 0.960 . S
C678 H665 0.961 . S
C678 H666 0.959 . S
C678 C676 1.561 . S
C679 C676 1.526 . S
C679 C680 1.396 . S
C679 C684 1.390 . S
C680 C674 1.465 . S
C680 C679 1.396 . S
C680 C681 1.399 . S
C681 H667 0.929 . S
C681 C680 1.399 . S
C681 C682 1.385 . S
C682 H668 0.931 . S
C682 C681 1.385 . S
C682 C683 1.389 . S
C683 C682 1.389 . S
C683 C684 1.387 . S
C684 H669 0.930 . S
C684 C679 1.390 . S
C684 C683 1.387 . S
H685 C697 0.930 . S
H686 C699 0.930 . S
H687 C700 0.930 . S
H688 C704 0.959 . S
H689 C704 0.959 . S
H690 C704 0.961 . S
H691 C705 0.968 . S
H692 C705 0.961 . S
H693 C705 0.959 1_655 S
H694 C708 0.929 . S
H695 C709 0.931 . S
H696 C711 0.930 . S
C697 H685 0.930 . S
C697 C698 1.399 . S
C697 C702 1.399 1_655 S
C698 C697 1.399 . S
C698 C699 1.376 . S
C699 H686 0.930 . S
C699 C698 1.376 . S
C699 C700 1.388 . S
C700 H687 0.930 . S
C700 C699 1.388 . S
C700 C701 1.390 1_655 S
C701 C700 1.390 1_455 S
C701 C702 1.394 . S
C701 C707 1.465 . S
C702 C697 1.399 1_455 S
C702 C701 1.394 . S
C702 C703 1.516 . S
C703 C702 1.516 . S
C703 C704 1.502 . S
C703 C705 1.561 . S
C703 C706 1.526 . S
C704 H688 0.959 . S
C704 H689 0.959 . S
C704 H690 0.961 . S
C704 C703 1.502 . S
C705 H691 0.968 . S
C705 H692 0.961 . S
C705 H693 0.959 1_455 S
C705 C703 1.561 . S
C706 C703 1.526 . S
C706 C707 1.396 . S
C706 C711 1.390 . S
C707 C701 1.465 . S
C707 C706 1.396 . S
C707 C708 1.399 . S
C708 H694 0.929 . S
C708 C707 1.399 . S
C708 C709 1.385 . S
C709 H695 0.931 . S
C709 C708 1.385 . S
C709 C710 1.389 . S
C710 C709 1.389 . S
C710 C711 1.387 . S
C711 H696 0.930 . S
C711 C706 1.390 . S
C711 C710 1.387 . S
H712 C724 0.930 . S
H713 C726 0.930 1_545 S
H714 C727 0.930 . S
H715 C731 0.959 . S
H716 C731 0.959 . S
H717 C731 0.961 . S
H718 C732 0.960 . S
H719 C732 0.961 . S
H720 C732 0.959 . S
H721 C735 0.929 . S
H722 C736 0.931 . S
H723 C738 0.930 . S
C724 H712 0.930 . S
C724 C725 1.399 . S
C724 C729 1.399 . S
C725 C724 1.399 . S
C725 C726 1.376 . S
C726 H713 0.930 1_565 S
C726 C725 1.376 . S
C726 C727 1.388 . S
C727 H714 0.930 . S
C727 C726 1.388 . S
C727 C728 1.390 . S
C728 C727 1.390 . S
C728 C729 1.394 . S
C728 C734 1.465 . S
C729 C724 1.399 . S
C729 C728 1.394 . S
C729 C730 1.516 . S
C730 C729 1.516 . S
C730 C731 1.502 . S
C730 C732 1.561 . S
C730 C733 1.526 . S
C731 H715 0.959 . S
C731 H716 0.959 . S
C731 H717 0.961 . S
C731 C730 1.502 . S
C732 H718 0.960 . S
C732 H719 0.961 . S
C732 H720 0.959 . S
C732 C730 1.561 . S
C733 C730 1.526 . S
C733 C734 1.396 . S
C733 C738 1.390 . S
C734 C728 1.465 . S
C734 C733 1.396 . S
C734 C735 1.399 . S
C735 H721 0.929 . S
C735 C734 1.399 . S
C735 C736 1.385 . S
C736 H722 0.931 . S
C736 C735 1.385 . S
C736 C737 1.389 . S
C737 C736 1.389 . S
C737 C738 1.387 . S
C738 H723 0.930 . S
C738 C733 1.390 . S
C738 C737 1.387 . S
H739 C751 0.930 . S
H740 C753 0.930 . S
H741 C754 0.930 . S
H742 C758 0.959 . S
H743 C758 0.959 1_455 S
H744 C758 0.961 . S
H745 C759 0.960 . S
H746 C759 0.961 . S
H747 C759 0.959 . S
H748 C762 0.929 . S
H749 C763 0.931 . S
H750 C765 0.930 . S
C751 H739 0.930 . S
C751 C752 1.399 . S
C751 C756 1.399 . S
C752 C751 1.399 . S
C752 C753 1.376 . S
C753 H740 0.930 . S
C753 C752 1.376 . S
C753 C754 1.388 . S
C754 H741 0.930 . S
C754 C753 1.388 . S
C754 C755 1.390 . S
C755 C754 1.390 . S
C755 C756 1.394 . S
C755 C761 1.465 . S
C756 C751 1.399 . S
C756 C755 1.394 . S
C756 C757 1.516 . S
C757 C756 1.516 . S
C757 C758 1.502 . S
C757 C759 1.561 1_655 S
C757 C760 1.526 1_655 S
C758 H742 0.959 . S
C758 H743 0.959 1_655 S
C758 H744 0.961 . S
C758 C757 1.502 . S
C759 H745 0.960 . S
C759 H746 0.961 . S
C759 H747 0.959 . S
C759 C757 1.561 1_455 S
C760 C757 1.526 1_455 S
C760 C761 1.396 1_455 S
C760 C765 1.390 . S
C761 C755 1.465 . S
C761 C760 1.396 1_655 S
C761 C762 1.399 . S
C762 H748 0.929 . S
C762 C761 1.399 . S
C762 C763 1.385 1_655 S
C763 H749 0.931 . S
C763 C762 1.385 1_455 S
C763 C764 1.389 . S
C764 C763 1.389 . S
C764 C765 1.387 . S
C765 H750 0.930 . S
C765 C760 1.390 . S
C765 C764 1.387 . S
H766 C778 0.930 . S
H767 C780 0.930 . S
H768 C781 0.930 . S
H769 C785 0.959 . S
H770 C785 0.959 . S
H771 C785 0.961 . S
H772 C786 0.960 . S
H773 C786 0.961 . S
H774 C786 0.959 . S
H775 C789 0.929 . S
H776 C790 0.931 . S
H777 C792 0.930 . S
C778 H766 0.930 . S
C778 C779 1.399 . S
C778 C783 1.399 . S
C779 C778 1.399 . S
C779 C780 1.376 . S
C780 H767 0.930 . S
C780 C779 1.376 . S
C780 C781 1.388 . S
C781 H768 0.930 . S
C781 C780 1.388 . S
C781 C782 1.390 . S
C782 C781 1.390 . S
C782 C783 1.394 . S
C782 C788 1.465 . S
C783 C778 1.399 . S
C783 C782 1.394 . S
C783 C784 1.516 . S
C784 C783 1.516 . S
C784 C785 1.502 . S
C784 C786 1.561 . S
C784 C787 1.526 . S
C785 H769 0.959 . S
C785 H770 0.959 . S
C785 H771 0.961 . S
C785 C784 1.502 . S
C786 H772 0.960 . S
C786 H773 0.961 . S
C786 H774 0.959 . S
C786 C784 1.561 . S
C787 C784 1.526 . S
C787 C788 1.396 . S
C787 C792 1.390 . S
C788 C782 1.465 . S
C788 C787 1.396 . S
C788 C789 1.399 . S
C789 H775 0.929 . S
C789 C788 1.399 . S
C789 C790 1.385 . S
C790 H776 0.931 . S
C790 C789 1.385 . S
C790 C791 1.389 . S
C791 C790 1.389 . S
C791 C792 1.387 . S
C792 H777 0.930 . S
C792 C787 1.390 . S
C792 C791 1.387 . S
H793 C805 0.930 . S
H794 C807 0.930 . S
H795 C808 0.930 . S
H796 C812 0.959 . S
H797 C812 0.959 . S
H798 C812 0.961 . S
H799 C813 0.960 . S
H800 C813 0.961 . S
H801 C813 0.959 . S
H802 C816 0.929 . S
H803 C817 0.931 . S
H804 C819 0.930 . S
C805 H793 0.930 . S
C805 C806 1.399 . S
C805 C810 1.399 . S
C806 C805 1.399 . S
C806 C807 1.376 . S
C807 H794 0.930 . S
C807 C806 1.376 . S
C807 C808 1.388 . S
C808 H795 0.930 . S
C808 C807 1.388 . S
C808 C809 1.390 . S
C809 C808 1.390 . S
C809 C810 1.394 . S
C809 C815 1.465 . S
C810 C805 1.399 . S
C810 C809 1.394 . S
C810 C811 1.516 . S
C811 C810 1.516 . S
C811 C812 1.502 1_655 S
C811 C813 1.561 . S
C811 C814 1.526 . S
C812 H796 0.959 . S
C812 H797 0.959 . S
C812 H798 0.961 . S
C812 C811 1.502 1_455 S
C813 H799 0.960 . S
C813 H800 0.961 . S
C813 H801 0.959 . S
C813 C811 1.561 . S
C814 C811 1.526 . S
C814 C815 1.396 . S
C814 C819 1.390 1_655 S
C815 C809 1.465 . S
C815 C814 1.396 . S
C815 C816 1.399 . S
C816 H802 0.929 . S
C816 C815 1.399 . S
C816 C817 1.385 1_655 S
C817 H803 0.931 . S
C817 C816 1.385 1_455 S
C817 C818 1.389 . S
C818 C817 1.389 . S
C818 C819 1.387 . S
C819 H804 0.930 . S
C819 C814 1.390 1_455 S
C819 C818 1.387 . S
H820 C832 0.930 . S
H821 C834 0.930 . S
H822 C835 0.930 . S
H823 C839 0.959 . S
H824 C839 0.959 . S
H825 C839 0.961 . S
H826 C840 0.960 . S
H827 C840 0.961 . S
H828 C840 0.959 . S
H829 C843 0.929 . S
H830 C844 0.931 . S
H831 C846 0.930 . S
C832 H820 0.930 . S
C832 C833 1.399 . S
C832 C837 1.399 . S
C833 C832 1.399 . S
C833 C834 1.376 . S
C834 H821 0.930 . S
C834 C833 1.376 . S
C834 C835 1.388 . S
C835 H822 0.930 . S
C835 C834 1.388 . S
C835 C836 1.390 . S
C836 C835 1.390 . S
C836 C837 1.394 . S
C836 C842 1.465 . S
C837 C832 1.399 . S
C837 C836 1.394 . S
C837 C838 1.516 . S
C838 C837 1.516 . S
C838 C839 1.502 . S
C838 C840 1.561 . S
C838 C841 1.526 . S
C839 H823 0.959 . S
C839 H824 0.959 . S
C839 H825 0.961 . S
C839 C838 1.502 . S
C840 H826 0.960 . S
C840 H827 0.961 . S
C840 H828 0.959 . S
C840 C838 1.561 . S
C841 C838 1.526 . S
C841 C842 1.396 . S
C841 C846 1.390 . S
C842 C836 1.465 . S
C842 C841 1.396 . S
C842 C843 1.399 . S
C843 H829 0.929 . S
C843 C842 1.399 . S
C843 C844 1.385 . S
C844 H830 0.931 . S
C844 C843 1.385 . S
C844 C845 1.389 . S
C845 C844 1.389 . S
C845 C846 1.387 . S
C846 H831 0.930 . S
C846 C841 1.390 . S
C846 C845 1.387 . S
H847 C859 0.930 . S
H848 C861 0.930 . S
H849 C862 0.930 . S
H850 C866 0.959 . S
H851 C866 0.959 . S
H852 C866 0.961 . S
H853 C867 0.960 . S
H854 C867 0.961 . S
H855 C867 0.959 . S
H856 C870 0.929 1_655 S
H857 C871 0.931 . S
H858 C873 0.930 . S
C859 H847 0.930 . S
C859 C860 1.399 1_455 S
C859 C864 1.399 . S
C860 C859 1.399 1_655 S
C860 C861 1.376 . S
C861 H848 0.930 . S
C861 C860 1.376 . S
C861 C862 1.388 . S
C862 H849 0.930 . S
C862 C861 1.388 . S
C862 C863 1.390 1_655 S
C863 C862 1.390 1_455 S
C863 C864 1.394 . S
C863 C869 1.465 . S
C864 C859 1.399 . S
C864 C863 1.394 . S
C864 C865 1.516 . S
C865 C864 1.516 . S
C865 C866 1.502 . S
C865 C867 1.561 . S
C865 C868 1.526 . S
C866 H850 0.959 . S
C866 H851 0.959 . S
C866 H852 0.961 . S
C866 C865 1.502 . S
C867 H853 0.960 . S
C867 H854 0.961 . S
C867 H855 0.959 . S
C867 C865 1.561 . S
C868 C865 1.526 . S
C868 C869 1.396 . S
C868 C873 1.390 . S
C869 C863 1.465 . S
C869 C868 1.396 . S
C869 C870 1.399 . S
C870 H856 0.929 1_455 S
C870 C869 1.399 . S
C870 C871 1.385 . S
C871 H857 0.931 . S
C871 C870 1.385 . S
C871 C872 1.389 . S
C872 C871 1.389 . S
C872 C873 1.387 . S
C873 H858 0.930 . S
C873 C868 1.390 . S
C873 C872 1.387 . S
H874 C886 0.930 . S
H875 C888 0.930 . S
H876 C889 0.930 . S
H877 C893 0.959 . S
H878 C893 0.959 . S
H879 C893 0.961 . S
H880 C894 0.960 . S
H881 C894 0.961 . S
H882 C894 0.959 . S
H883 C897 0.929 . S
H884 C898 0.931 . S
H885 C900 0.930 . S
C886 H874 0.930 . S
C886 C887 1.399 . S
C886 C891 1.399 . S
C887 C886 1.399 . S
C887 C888 1.376 . S
C888 H875 0.930 . S
C888 C887 1.376 . S
C888 C889 1.388 . S
C889 H876 0.930 . S
C889 C888 1.388 . S
C889 C890 1.390 . S
C890 C889 1.390 . S
C890 C891 1.394 . S
C890 C896 1.465 . S
C891 C886 1.399 . S
C891 C890 1.394 . S
C891 C892 1.516 . S
C892 C891 1.516 . S
C892 C893 1.502 . S
C892 C894 1.561 . S
C892 C895 1.526 . S
C893 H877 0.959 . S
C893 H878 0.959 . S
C893 H879 0.961 . S
C893 C892 1.502 . S
C894 H880 0.960 . S
C894 H881 0.961 . S
C894 H882 0.959 . S
C894 C892 1.561 . S
C895 C892 1.526 . S
C895 C896 1.396 . S
C895 C900 1.390 . S
C896 C890 1.465 . S
C896 C895 1.396 . S
C896 C897 1.399 . S
C897 H883 0.929 . S
C897 C896 1.399 . S
C897 C898 1.385 . S
C898 H884 0.931 . S
C898 C897 1.385 . S
C898 C899 1.389 . S
C899 C898 1.389 . S
C899 C900 1.387 . S
C900 H885 0.930 . S
C900 C895 1.390 . S
C900 C899 1.387 . S
H901 C913 0.930 . S
H902 C915 0.930 . S
H903 C916 0.930 . S
H904 C920 0.959 . S
H905 C920 0.959 1_455 S
H906 C920 0.961 . S
H907 C921 0.960 . S
H908 C921 0.961 . S
H909 C921 0.959 . S
H910 C924 0.929 . S
H911 C925 0.931 . S
H912 C927 0.930 . S
C913 H901 0.930 . S
C913 C914 1.399 . S
C913 C918 1.399 1_655 S
C914 C913 1.399 . S
C914 C915 1.376 . S
C915 H902 0.930 . S
C915 C914 1.376 . S
C915 C916 1.388 1_655 S
C916 H903 0.930 . S
C916 C915 1.388 1_455 S
C916 C917 1.390 . S
C917 C916 1.390 . S
C917 C918 1.394 . S
C917 C923 1.465 . S
C918 C913 1.399 1_455 S
C918 C917 1.394 . S
C918 C919 1.516 . S
C919 C918 1.516 . S
C919 C920 1.502 1_455 S
C919 C921 1.561 . S
C919 C922 1.526 . S
C920 H904 0.959 . S
C920 H905 0.959 1_655 S
C920 H906 0.961 . S
C920 C919 1.502 1_655 S
C921 H907 0.960 . S
C921 H908 0.961 . S
C921 H909 0.959 . S
C921 C919 1.561 . S
C922 C919 1.526 . S
C922 C923 1.396 . S
C922 C927 1.390 . S
C923 C917 1.465 . S
C923 C922 1.396 . S
C923 C924 1.399 . S
C924 H910 0.929 . S
C924 C923 1.399 . S
C924 C925 1.385 . S
C925 H911 0.931 . S
C925 C924 1.385 . S
C925 C926 1.389 . S
C926 C925 1.389 . S
C926 C927 1.387 . S
C927 H912 0.930 . S
C927 C922 1.390 . S
C927 C926 1.387 . S
H928 C940 0.930 . S
H929 C942 0.930 1_545 S
H930 C943 0.930 . S
H931 C947 0.959 . S
H932 C947 0.959 . S
H933 C947 0.961 . S
H934 C948 0.960 . S
H935 C948 0.961 . S
H936 C948 0.959 . S
H937 C951 0.929 . S
H938 C952 0.931 . S
H939 C954 0.930 . S
C940 H928 0.930 . S
C940 C941 1.399 . S
C940 C945 1.399 . S
C941 C940 1.399 . S
C941 C942 1.376 . S
C942 H929 0.930 1_565 S
C942 C941 1.376 . S
C942 C943 1.388 . S
C943 H930 0.930 . S
C943 C942 1.388 . S
C943 C944 1.390 . S
C944 C943 1.390 . S
C944 C945 1.394 . S
C944 C950 1.465 . S
C945 C940 1.399 . S
C945 C944 1.394 . S
C945 C946 1.516 . S
C946 C945 1.516 . S
C946 C947 1.502 . S
C946 C948 1.561 . S
C946 C949 1.526 . S
C947 H931 0.959 . S
C947 H932 0.959 . S
C947 H933 0.961 . S
C947 C946 1.502 . S
C948 H934 0.960 . S
C948 H935 0.961 . S
C948 H936 0.959 . S
C948 C946 1.561 . S
C949 C946 1.526 . S
C949 C950 1.396 . S
C949 C954 1.390 . S
C950 C944 1.465 . S
C950 C949 1.396 . S
C950 C951 1.399 . S
C951 H937 0.929 . S
C951 C950 1.399 . S
C951 C952 1.385 . S
C952 H938 0.931 . S
C952 C951 1.385 . S
C952 C953 1.389 . S
C953 C952 1.389 . S
C953 C954 1.387 . S
C954 H939 0.930 . S
C954 C949 1.390 . S
C954 C953 1.387 . S
H955 C967 0.930 . S
H956 C969 0.930 . S
H957 C970 0.930 . S
H958 C974 0.959 . S
H959 C974 0.959 . S
H960 C974 0.961 . S
H961 C975 0.960 . S
H962 C975 0.961 . S
H963 C975 0.959 . S
H964 C978 0.929 . S
H965 C979 0.931 . S
H966 C981 0.930 . S
C967 H955 0.930 . S
C967 C968 1.399 . S
C967 C972 1.399 1_455 S
C968 C967 1.399 . S
C968 C969 1.376 . S
C969 H956 0.930 . S
C969 C968 1.376 . S
C969 C970 1.388 . S
C970 H957 0.930 . S
C970 C969 1.388 . S
C970 C971 1.390 1_455 S
C971 C970 1.390 1_655 S
C971 C972 1.394 . S
C971 C977 1.465 . S
C972 C967 1.399 1_655 S
C972 C971 1.394 . S
C972 C973 1.516 . S
C973 C972 1.516 . S
C973 C974 1.502 . S
C973 C975 1.561 . S
C973 C976 1.526 . S
C974 H958 0.959 . S
C974 H959 0.959 . S
C974 H960 0.961 . S
C974 C973 1.502 . S
C975 H961 0.960 . S
C975 H962 0.961 . S
C975 H963 0.959 . S
C975 C973 1.561 . S
C976 C973 1.526 . S
C976 C977 1.396 . S
C976 C981 1.390 . S
C977 C971 1.465 . S
C977 C976 1.396 . S
C977 C978 1.399 . S
C978 H964 0.929 . S
C978 C977 1.399 . S
C978 C979 1.385 . S
C979 H965 0.931 . S
C979 C978 1.385 . S
C979 C980 1.389 . S
C980 C979 1.389 . S
C980 C981 1.387 . S
C981 H966 0.930 . S
C981 C976 1.390 . S
C981 C980 1.387 . S
H982 C994 0.930 . S
H983 C996 0.930 . S
H984 C997 0.930 . S
H985 C1001 0.959 . S
H986 C1001 0.959 . S
H987 C1001 0.961 . S
H988 C1002 0.960 . S
H989 C1002 0.961 . S
H990 C1002 0.959 . S
H991 C1005 0.929 . S
H992 C1006 0.931 . S
H993 C1008 0.930 . S
C994 H982 0.930 . S
C994 C995 1.399 . S
C994 C999 1.399 . S
C995 C994 1.399 . S
C995 C996 1.376 . S
C996 H983 0.930 . S
C996 C995 1.376 . S
C996 C997 1.388 . S
C997 H984 0.930 . S
C997 C996 1.388 . S
C997 C998 1.390 . S
C998 C997 1.390 . S
C998 C999 1.394 . S
C998 C1004 1.465 . S
C999 C994 1.399 . S
C999 C998 1.394 . S
C999 C1000 1.516 . S
C1000 C999 1.516 . S
C1000 C1001 1.502 . S
C1000 C1002 1.561 . S
C1000 C1003 1.526 . S
C1001 H985 0.959 . S
C1001 H986 0.959 . S
C1001 H987 0.961 . S
C1001 C1000 1.502 . S
C1002 H988 0.960 . S
C1002 H989 0.961 . S
C1002 H990 0.959 . S
C1002 C1000 1.561 . S
C1003 C1000 1.526 . S
C1003 C1004 1.396 . S
C1003 C1008 1.390 . S
C1004 C998 1.465 . S
C1004 C1003 1.396 . S
C1004 C1005 1.399 . S
C1005 H991 0.929 . S
C1005 C1004 1.399 . S
C1005 C1006 1.385 . S
C1006 H992 0.931 . S
C1006 C1005 1.385 . S
C1006 C1007 1.389 . S
C1007 C1006 1.389 . S
C1007 C1008 1.387 . S
C1008 H993 0.930 . S
C1008 C1003 1.390 . S
C1008 C1007 1.387 . S
H1009 C1021 0.930 . S
H1010 C1023 0.930 . S
H1011 C1024 0.930 . S
H1012 C1028 0.959 . S
H1013 C1028 0.959 . S
H1014 C1028 0.961 1_655 S
H1015 C1029 0.960 . S
H1016 C1029 0.961 . S
H1017 C1029 0.959 . S
H1018 C1032 0.929 . S
H1019 C1033 0.931 . S
H1020 C1035 0.930 . S
C1021 H1009 0.930 . S
C1021 C1022 1.399 . S
C1021 C1026 1.399 . S
C1022 C1021 1.399 . S
C1022 C1023 1.376 . S
C1023 H1010 0.930 . S
C1023 C1022 1.376 . S
C1023 C1024 1.388 . S
C1024 H1011 0.930 . S
C1024 C1023 1.388 . S
C1024 C1025 1.390 . S
C1025 C1024 1.390 . S
C1025 C1026 1.394 . S
C1025 C1031 1.465 . S
C1026 C1021 1.399 . S
C1026 C1025 1.394 . S
C1026 C1027 1.516 . S
C1027 C1026 1.516 . S
C1027 C1028 1.502 1_655 S
C1027 C1029 1.561 . S
C1027 C1030 1.526 . S
C1028 H1012 0.959 . S
C1028 H1013 0.959 . S
C1028 H1014 0.961 1_455 S
C1028 C1027 1.502 1_455 S
C1029 H1015 0.960 . S
C1029 H1016 0.961 . S
C1029 H1017 0.959 . S
C1029 C1027 1.561 . S
C1030 C1027 1.526 . S
C1030 C1031 1.396 . S
C1030 C1035 1.390 1_655 S
C1031 C1025 1.465 . S
C1031 C1030 1.396 . S
C1031 C1032 1.399 . S
C1032 H1018 0.929 . S
C1032 C1031 1.399 . S
C1032 C1033 1.385 1_655 S
C1033 H1019 0.931 . S
C1033 C1032 1.385 1_455 S
C1033 C1034 1.389 . S
C1034 C1033 1.389 . S
C1034 C1035 1.387 . S
C1035 H1020 0.930 . S
C1035 C1030 1.390 1_455 S
C1035 C1034 1.387 . S
H1036 C1048 0.930 . S
H1037 C1050 0.930 . S
H1038 C1051 0.930 . S
H1039 C1055 0.959 . S
H1040 C1055 0.959 . S
H1041 C1055 0.961 . S
H1042 C1056 0.960 . S
H1043 C1056 0.961 . S
H1044 C1056 0.959 . S
H1045 C1059 0.929 . S
H1046 C1060 0.931 . S
H1047 C1062 0.930 . S
C1048 H1036 0.930 . S
C1048 C1049 1.399 . S
C1048 C1053 1.399 . S
C1049 C1048 1.399 . S
C1049 C1050 1.376 . S
C1050 H1037 0.930 . S
C1050 C1049 1.376 . S
C1050 C1051 1.388 . S
C1051 H1038 0.930 . S
C1051 C1050 1.388 . S
C1051 C1052 1.390 . S
C1052 C1051 1.390 . S
C1052 C1053 1.394 . S
C1052 C1058 1.465 . S
C1053 C1048 1.399 . S
C1053 C1052 1.394 . S
C1053 C1054 1.516 . S
C1054 C1053 1.516 . S
C1054 C1055 1.502 . S
C1054 C1056 1.561 . S
C1054 C1057 1.526 . S
C1055 H1039 0.959 . S
C1055 H1040 0.959 . S
C1055 H1041 0.961 . S
C1055 C1054 1.502 . S
C1056 H1042 0.960 . S
C1056 H1043 0.961 . S
C1056 H1044 0.959 . S
C1056 C1054 1.561 . S
C1057 C1054 1.526 . S
C1057 C1058 1.396 . S
C1057 C1062 1.390 . S
C1058 C1052 1.465 . S
C1058 C1057 1.396 . S
C1058 C1059 1.399 . S
C1059 H1045 0.929 . S
C1059 C1058 1.399 . S
C1059 C1060 1.385 . S
C1060 H1046 0.931 . S
C1060 C1059 1.385 . S
C1060 C1061 1.389 . S
C1061 C1060 1.389 . S
C1061 C1062 1.387 . S
C1062 H1047 0.930 . S
C1062 C1057 1.390 . S
C1062 C1061 1.387 . S
H1063 C1075 0.930 . S
H1064 C1077 0.930 . S
H1065 C1078 0.930 . S
H1066 C1082 0.959 . S
H1067 C1082 0.959 . S
H1068 C1082 0.961 1_455 S
H1069 C1083 0.960 . S
H1070 C1083 0.961 . S
H1071 C1083 0.959 . S
H1072 C1086 0.929 . S
H1073 C1087 0.931 . S
H1074 C1089 0.930 . S
C1075 H1063 0.930 . S
C1075 C1076 1.399 . S
C1075 C1080 1.399 . S
C1076 C1075 1.399 . S
C1076 C1077 1.376 . S
C1077 H1064 0.930 . S
C1077 C1076 1.376 . S
C1077 C1078 1.388 . S
C1078 H1065 0.930 . S
C1078 C1077 1.388 . S
C1078 C1079 1.390 . S
C1079 C1078 1.390 . S
C1079 C1080 1.394 . S
C1079 C1085 1.465 . S
C1080 C1075 1.399 . S
C1080 C1079 1.394 . S
C1080 C1081 1.516 . S
C1081 C1080 1.516 . S
C1081 C1082 1.502 1_455 S
C1081 C1083 1.561 . S
C1081 C1084 1.526 . S
C1082 H1066 0.959 . S
C1082 H1067 0.959 . S
C1082 H1068 0.961 1_655 S
C1082 C1081 1.502 1_655 S
C1083 H1069 0.960 . S
C1083 H1070 0.961 . S
C1083 H1071 0.959 . S
C1083 C1081 1.561 . S
C1084 C1081 1.526 . S
C1084 C1085 1.396 . S
C1084 C1089 1.390 1_455 S
C1085 C1079 1.465 . S
C1085 C1084 1.396 . S
C1085 C1086 1.399 . S
C1086 H1072 0.929 . S
C1086 C1085 1.399 . S
C1086 C1087 1.385 1_455 S
C1087 H1073 0.931 . S
C1087 C1086 1.385 1_655 S
C1087 C1088 1.389 . S
C1088 C1087 1.389 . S
C1088 C1089 1.387 . S
C1089 H1074 0.930 . S
C1089 C1084 1.390 1_655 S
C1089 C1088 1.387 . S
H1090 C1102 0.930 . S
H1091 C1104 0.930 . S
H1092 C1105 0.930 . S
H1093 C1109 0.959 . S
H1094 C1109 0.959 . S
H1095 C1109 0.961 . S
H1096 C1110 0.960 . S
H1097 C1110 0.961 . S
H1098 C1110 0.959 . S
H1099 C1113 0.929 . S
H1100 C1114 0.931 . S
H1101 C1116 0.930 . S
C1102 H1090 0.930 . S
C1102 C1103 1.399 . S
C1102 C1107 1.399 . S
C1103 C1102 1.399 . S
C1103 C1104 1.376 . S
C1104 H1091 0.930 . S
C1104 C1103 1.376 . S
C1104 C1105 1.388 . S
C1105 H1092 0.930 . S
C1105 C1104 1.388 . S
C1105 C1106 1.390 . S
C1106 C1105 1.390 . S
C1106 C1107 1.394 . S
C1106 C1112 1.465 . S
C1107 C1102 1.399 . S
C1107 C1106 1.394 . S
C1107 C1108 1.516 . S
C1108 C1107 1.516 . S
C1108 C1109 1.502 . S
C1108 C1110 1.561 . S
C1108 C1111 1.526 . S
C1109 H1093 0.959 . S
C1109 H1094 0.959 . S
C1109 H1095 0.961 . S
C1109 C1108 1.502 . S
C1110 H1096 0.960 . S
C1110 H1097 0.961 . S
C1110 H1098 0.959 . S
C1110 C1108 1.561 . S
C1111 C1108 1.526 . S
C1111 C1112 1.396 . S
C1111 C1116 1.390 . S
C1112 C1106 1.465 . S
C1112 C1111 1.396 . S
C1112 C1113 1.399 . S
C1113 H1099 0.929 . S
C1113 C1112 1.399 . S
C1113 C1114 1.385 . S
C1114 H1100 0.931 . S
C1114 C1113 1.385 . S
C1114 C1115 1.389 . S
C1115 C1114 1.389 . S
C1115 C1116 1.387 . S
C1116 H1101 0.930 . S
C1116 C1111 1.390 . S
C1116 C1115 1.387 . S
H1117 C1129 0.930 . S
H1118 C1131 0.930 . S
H1119 C1132 0.930 . S
H1120 C1136 0.959 . S
H1121 C1136 0.959 . S
H1122 C1136 0.961 . S
H1123 C1137 0.960 . S
H1124 C1137 0.961 . S
H1125 C1137 0.959 . S
H1126 C1140 0.929 . S
H1127 C1141 0.931 . S
H1128 C1143 0.930 . S
C1129 H1117 0.930 . S
C1129 C1130 1.399 . S
C1129 C1134 1.399 . S
C1130 C1129 1.399 . S
C1130 C1131 1.376 . S
C1131 H1118 0.930 . S
C1131 C1130 1.376 . S
C1131 C1132 1.388 . S
C1132 H1119 0.930 . S
C1132 C1131 1.388 . S
C1132 C1133 1.390 . S
C1133 C1132 1.390 . S
C1133 C1134 1.394 . S
C1133 C1139 1.465 . S
C1134 C1129 1.399 . S
C1134 C1133 1.394 . S
C1134 C1135 1.516 . S
C1135 C1134 1.516 . S
C1135 C1136 1.502 1_455 S
C1135 C1137 1.561 . S
C1135 C1138 1.526 . S
C1136 H1120 0.959 . S
C1136 H1121 0.959 . S
C1136 H1122 0.961 . S
C1136 C1135 1.502 1_655 S
C1137 H1123 0.960 . S
C1137 H1124 0.961 . S
C1137 H1125 0.959 . S
C1137 C1135 1.561 . S
C1138 C1135 1.526 . S
C1138 C1139 1.396 . S
C1138 C1143 1.390 1_455 S
C1139 C1133 1.465 . S
C1139 C1138 1.396 . S
C1139 C1140 1.399 . S
C1140 H1126 0.929 . S
C1140 C1139 1.399 . S
C1140 C1141 1.385 1_455 S
C1141 H1127 0.931 . S
C1141 C1140 1.385 1_655 S
C1141 C1142 1.389 . S
C1142 C1141 1.389 . S
C1142 C1143 1.387 . S
C1143 H1128 0.930 . S
C1143 C1138 1.390 1_655 S
C1143 C1142 1.387 . S
H1144 C1156 0.930 . S
H1145 C1158 0.930 . S
H1146 C1159 0.930 . S
H1147 C1163 0.959 . S
H1148 C1163 0.959 . S
H1149 C1163 0.961 . S
H1150 C1164 0.960 . S
H1151 C1164 0.961 . S
H1152 C1164 0.959 . S
H1153 C1167 0.929 . S
H1154 C1168 0.931 . S
H1155 C1170 0.930 . S
C1156 H1144 0.930 . S
C1156 C1157 1.399 . S
C1156 C1161 1.399 . S
C1157 C1156 1.399 . S
C1157 C1158 1.376 . S
C1158 H1145 0.930 . S
C1158 C1157 1.376 . S
C1158 C1159 1.388 . S
C1159 H1146 0.930 . S
C1159 C1158 1.388 . S
C1159 C1160 1.390 . S
C1160 C1159 1.390 . S
C1160 C1161 1.394 . S
C1160 C1166 1.465 . S
C1161 C1156 1.399 . S
C1161 C1160 1.394 . S
C1161 C1162 1.516 . S
C1162 C1161 1.516 . S
C1162 C1163 1.502 . S
C1162 C1164 1.561 . S
C1162 C1165 1.526 . S
C1163 H1147 0.959 . S
C1163 H1148 0.959 . S
C1163 H1149 0.961 . S
C1163 C1162 1.502 . S
C1164 H1150 0.960 . S
C1164 H1151 0.961 . S
C1164 H1152 0.959 . S
C1164 C1162 1.561 . S
C1165 C1162 1.526 . S
C1165 C1166 1.396 . S
C1165 C1170 1.390 . S
C1166 C1160 1.465 . S
C1166 C1165 1.396 . S
C1166 C1167 1.399 . S
C1167 H1153 0.929 . S
C1167 C1166 1.399 . S
C1167 C1168 1.385 . S
C1168 H1154 0.931 . S
C1168 C1167 1.385 . S
C1168 C1169 1.389 . S
C1169 C1168 1.389 . S
C1169 C1170 1.387 . S
C1170 H1155 0.930 . S
C1170 C1165 1.390 . S
C1170 C1169 1.387 . S
H1171 C1183 0.930 . S
H1172 C1185 0.930 . S
H1173 C1186 0.930 . S
H1174 C1190 0.959 . S
H1175 C1190 0.959 . S
H1176 C1190 0.961 . S
H1177 C1191 0.960 . S
H1178 C1191 0.961 . S
H1179 C1191 0.959 . S
H1180 C1194 0.929 . S
H1181 C1195 0.931 1_545 S
H1182 C1197 0.930 . S
C1183 H1171 0.930 . S
C1183 C1184 1.399 1_655 S
C1183 C1188 1.399 . S
C1184 C1183 1.399 1_455 S
C1184 C1185 1.376 . S
C1185 H1172 0.930 . S
C1185 C1184 1.376 . S
C1185 C1186 1.388 . S
C1186 H1173 0.930 . S
C1186 C1185 1.388 . S
C1186 C1187 1.390 1_455 S
C1187 C1186 1.390 1_655 S
C1187 C1188 1.394 . S
C1187 C1193 1.465 . S
C1188 C1183 1.399 . S
C1188 C1187 1.394 . S
C1188 C1189 1.516 . S
C1189 C1188 1.516 . S
C1189 C1190 1.502 . S
C1189 C1191 1.561 . S
C1189 C1192 1.526 . S
C1190 H1174 0.959 . S
C1190 H1175 0.959 . S
C1190 H1176 0.961 . S
C1190 C1189 1.502 . S
C1191 H1177 0.960 . S
C1191 H1178 0.961 . S
C1191 H1179 0.959 . S
C1191 C1189 1.561 . S
C1192 C1189 1.526 . S
C1192 C1193 1.396 . S
C1192 C1197 1.390 . S
C1193 C1187 1.465 . S
C1193 C1192 1.396 . S
C1193 C1194 1.399 . S
C1194 H1180 0.929 . S
C1194 C1193 1.399 . S
C1194 C1195 1.385 . S
C1195 H1181 0.931 1_565 S
C1195 C1194 1.385 . S
C1195 C1196 1.389 . S
C1196 C1195 1.389 . S
C1196 C1197 1.387 . S
C1197 H1182 0.930 . S
C1197 C1192 1.390 . S
C1197 C1196 1.387 . S
H1198 C1210 0.930 . S
H1199 C1212 0.930 . S
H1200 C1213 0.930 . S
H1201 C1217 0.959 . S
H1202 C1217 0.959 . S
H1203 C1217 0.961 . S
H1204 C1218 0.960 . S
H1205 C1218 0.961 . S
H1206 C1218 0.959 . S
H1207 C1221 0.929 . S
H1208 C1222 0.931 . S
H1209 C1224 0.930 . S
C1210 H1198 0.930 . S
C1210 C1211 1.399 . S
C1210 C1215 1.399 . S
C1211 C1210 1.399 . S
C1211 C1212 1.376 . S
C1212 H1199 0.930 . S
C1212 C1211 1.376 . S
C1212 C1213 1.388 . S
C1213 H1200 0.930 . S
C1213 C1212 1.388 . S
C1213 C1214 1.390 . S
C1214 C1213 1.390 . S
C1214 C1215 1.394 . S
C1214 C1220 1.465 . S
C1215 C1210 1.399 . S
C1215 C1214 1.394 . S
C1215 C1216 1.516 . S
C1216 C1215 1.516 . S
C1216 C1217 1.502 . S
C1216 C1218 1.561 . S
C1216 C1219 1.526 . S
C1217 H1201 0.959 . S
C1217 H1202 0.959 . S
C1217 H1203 0.961 . S
C1217 C1216 1.502 . S
C1218 H1204 0.960 . S
C1218 H1205 0.961 . S
C1218 H1206 0.959 . S
C1218 C1216 1.561 . S
C1219 C1216 1.526 . S
C1219 C1220 1.396 . S
C1219 C1224 1.390 . S
C1220 C1214 1.465 . S
C1220 C1219 1.396 . S
C1220 C1221 1.399 . S
C1221 H1207 0.929 . S
C1221 C1220 1.399 . S
C1221 C1222 1.385 . S
C1222 H1208 0.931 . S
C1222 C1221 1.385 . S
C1222 C1223 1.389 . S
C1223 C1222 1.389 . S
C1223 C1224 1.387 . S
C1224 H1209 0.930 . S
C1224 C1219 1.390 . S
C1224 C1223 1.387 . S
H1225 C1237 0.930 . S
H1226 C1239 0.930 . S
H1227 C1240 0.930 . S
H1228 C1244 0.959 . S
H1229 C1244 0.959 . S
H1230 C1244 0.961 . S
H1231 C1245 0.960 . S
H1232 C1245 0.961 . S
H1233 C1245 0.959 . S
H1234 C1248 0.929 . S
H1235 C1249 0.931 . S
H1236 C1251 0.930 . S
C1237 H1225 0.930 . S
C1237 C1238 1.399 . S
C1237 C1242 1.399 1_455 S
C1238 C1237 1.399 . S
C1238 C1239 1.376 . S
C1239 H1226 0.930 . S
C1239 C1238 1.376 . S
C1239 C1240 1.388 1_455 S
C1240 H1227 0.930 . S
C1240 C1239 1.388 1_655 S
C1240 C1241 1.390 . S
C1241 C1240 1.390 . S
C1241 C1242 1.394 . S
C1241 C1247 1.465 . S
C1242 C1237 1.399 1_655 S
C1242 C1241 1.394 . S
C1242 C1243 1.516 . S
C1243 C1242 1.516 . S
C1243 C1244 1.502 1_655 S
C1243 C1245 1.561 . S
C1243 C1246 1.526 . S
C1244 H1228 0.959 . S
C1244 H1229 0.959 . S
C1244 H1230 0.961 . S
C1244 C1243 1.502 1_455 S
C1245 H1231 0.960 . S
C1245 H1232 0.961 . S
C1245 H1233 0.959 . S
C1245 C1243 1.561 . S
C1246 C1243 1.526 . S
C1246 C1247 1.396 . S
C1246 C1251 1.390 . S
C1247 C1241 1.465 . S
C1247 C1246 1.396 . S
C1247 C1248 1.399 . S
C1248 H1234 0.929 . S
C1248 C1247 1.399 . S
C1248 C1249 1.385 . S
C1249 H1235 0.931 . S
C1249 C1248 1.385 . S
C1249 C1250 1.389 . S
C1250 C1249 1.389 . S
C1250 C1251 1.387 . S
C1251 H1236 0.930 . S
C1251 C1246 1.390 . S
C1251 C1250 1.387 . S
H1252 C1264 0.930 . S
H1253 C1266 0.930 . S
H1254 C1267 0.930 . S
H1255 C1271 0.959 . S
H1256 C1271 0.959 . S
H1257 C1271 0.961 . S
H1258 C1272 0.960 . S
H1259 C1272 0.961 . S
H1260 C1272 0.959 . S
H1261 C1275 0.929 . S
H1262 C1276 0.931 . S
H1263 C1278 0.930 . S
C1264 H1252 0.930 . S
C1264 C1265 1.399 . S
C1264 C1269 1.399 . S
C1265 C1264 1.399 . S
C1265 C1266 1.376 . S
C1266 H1253 0.930 . S
C1266 C1265 1.376 . S
C1266 C1267 1.388 . S
C1267 H1254 0.930 . S
C1267 C1266 1.388 . S
C1267 C1268 1.390 . S
C1268 C1267 1.390 . S
C1268 C1269 1.394 . S
C1268 C1274 1.465 . S
C1269 C1264 1.399 . S
C1269 C1268 1.394 . S
C1269 C1270 1.516 . S
C1270 C1269 1.516 . S
C1270 C1271 1.502 . S
C1270 C1272 1.561 . S
C1270 C1273 1.526 . S
C1271 H1255 0.959 . S
C1271 H1256 0.959 . S
C1271 H1257 0.961 . S
C1271 C1270 1.502 . S
C1272 H1258 0.960 . S
C1272 H1259 0.961 . S
C1272 H1260 0.959 . S
C1272 C1270 1.561 . S
C1273 C1270 1.526 . S
C1273 C1274 1.396 . S
C1273 C1278 1.390 . S
C1274 C1268 1.465 . S
C1274 C1273 1.396 . S
C1274 C1275 1.399 . S
C1275 H1261 0.929 . S
C1275 C1274 1.399 . S
C1275 C1276 1.385 . S
C1276 H1262 0.931 . S
C1276 C1275 1.385 . S
C1276 C1277 1.389 . S
C1277 C1276 1.389 . S
C1277 C1278 1.387 . S
C1278 H1263 0.930 . S
C1278 C1273 1.390 . S
C1278 C1277 1.387 . S
H1279 C1291 0.930 . S
H1280 C1293 0.930 . S
H1281 C1294 0.930 . S
H1282 C1298 0.959 . S
H1283 C1298 0.959 . S
H1284 C1298 0.961 1_455 S
H1285 C1299 0.960 . S
H1286 C1299 0.961 . S
H1287 C1299 0.959 . S
H1288 C1302 0.929 . S
H1289 C1303 0.931 . S
H1290 C1305 0.930 . S
C1291 H1279 0.930 . S
C1291 C1292 1.399 . S
C1291 C1296 1.399 . S
C1292 C1291 1.399 . S
C1292 C1293 1.376 . S
C1293 H1280 0.930 . S
C1293 C1292 1.376 . S
C1293 C1294 1.388 . S
C1294 H1281 0.930 . S
C1294 C1293 1.388 . S
C1294 C1295 1.390 . S
C1295 C1294 1.390 . S
C1295 C1296 1.394 . S
C1295 C1301 1.465 . S
C1296 C1291 1.399 . S
C1296 C1295 1.394 . S
C1296 C1297 1.516 . S
C1297 C1296 1.516 . S
C1297 C1298 1.502 1_455 S
C1297 C1299 1.561 . S
C1297 C1300 1.526 . S
C1298 H1282 0.959 . S
C1298 H1283 0.959 . S
C1298 H1284 0.961 1_655 S
C1298 C1297 1.502 1_655 S
C1299 H1285 0.960 . S
C1299 H1286 0.961 . S
C1299 H1287 0.959 . S
C1299 C1297 1.561 . S
C1300 C1297 1.526 . S
C1300 C1301 1.396 . S
C1300 C1305 1.390 1_455 S
C1301 C1295 1.465 . S
C1301 C1300 1.396 . S
C1301 C1302 1.399 . S
C1302 H1288 0.929 . S
C1302 C1301 1.399 . S
C1302 C1303 1.385 1_455 S
C1303 H1289 0.931 . S
C1303 C1302 1.385 1_655 S
C1303 C1304 1.389 . S
C1304 C1303 1.389 . S
C1304 C1305 1.387 . S
C1305 H1290 0.930 . S
C1305 C1300 1.390 1_655 S
C1305 C1304 1.387 . S
H1306 C1318 0.930 . S
H1307 C1320 0.930 . S
H1308 C1321 0.930 . S
H1309 C1325 0.959 . S
H1310 C1325 0.959 . S
H1311 C1325 0.961 . S
H1312 C1326 0.960 . S
H1313 C1326 0.961 . S
H1314 C1326 0.959 . S
H1315 C1329 0.929 . S
H1316 C1330 0.931 . S
H1317 C1332 0.930 . S
C1318 H1306 0.930 . S
C1318 C1319 1.399 . S
C1318 C1323 1.399 . S
C1319 C1318 1.399 . S
C1319 C1320 1.376 . S
C1320 H1307 0.930 . S
C1320 C1319 1.376 . S
C1320 C1321 1.388 . S
C1321 H1308 0.930 . S
C1321 C1320 1.388 . S
C1321 C1322 1.390 . S
C1322 C1321 1.390 . S
C1322 C1323 1.394 . S
C1322 C1328 1.465 . S
C1323 C1318 1.399 . S
C1323 C1322 1.394 . S
C1323 C1324 1.516 . S
C1324 C1323 1.516 . S
C1324 C1325 1.502 . S
C1324 C1326 1.561 . S
C1324 C1327 1.526 . S
C1325 H1309 0.959 . S
C1325 H1310 0.959 . S
C1325 H1311 0.961 . S
C1325 C1324 1.502 . S
C1326 H1312 0.960 . S
C1326 H1313 0.961 . S
C1326 H1314 0.959 . S
C1326 C1324 1.561 . S
C1327 C1324 1.526 . S
C1327 C1328 1.396 . S
C1327 C1332 1.390 . S
C1328 C1322 1.465 . S
C1328 C1327 1.396 . S
C1328 C1329 1.399 . S
C1329 H1315 0.929 . S
C1329 C1328 1.399 . S
C1329 C1330 1.385 . S
C1330 H1316 0.931 . S
C1330 C1329 1.385 . S
C1330 C1331 1.389 . S
C1331 C1330 1.389 . S
C1331 C1332 1.387 . S
C1332 H1317 0.930 . S
C1332 C1327 1.390 . S
C1332 C1331 1.387 . S
H1333 C1345 0.930 . S
H1334 C1347 0.930 . S
H1335 C1348 0.930 . S
H1336 C1352 0.959 . S
H1337 C1352 0.959 . S
H1338 C1352 0.961 . S
H1339 C1353 0.960 1_655 S
H1340 C1353 0.961 . S
H1341 C1353 0.959 1_655 S
H1342 C1356 0.929 . S
H1343 C1357 0.931 . S
H1344 C1359 0.930 . S
C1345 H1333 0.930 . S
C1345 C1346 1.399 . S
C1345 C1350 1.399 1_655 S
C1346 C1345 1.399 . S
C1346 C1347 1.376 . S
C1347 H1334 0.930 . S
C1347 C1346 1.376 . S
C1347 C1348 1.388 . S
C1348 H1335 0.930 . S
C1348 C1347 1.388 . S
C1348 C1349 1.390 1_655 S
C1349 C1348 1.390 1_455 S
C1349 C1350 1.394 . S
C1349 C1355 1.465 . S
C1350 C1345 1.399 1_455 S
C1350 C1349 1.394 . S
C1350 C1351 1.516 . S
C1351 C1350 1.516 . S
C1351 C1352 1.502 . S
C1351 C1353 1.561 . S
C1351 C1354 1.526 . S
C1352 H1336 0.959 . S
C1352 H1337 0.959 . S
C1352 H1338 0.961 . S
C1352 C1351 1.502 . S
C1353 H1339 0.960 1_455 S
C1353 H1340 0.961 . S
C1353 H1341 0.959 1_455 S
C1353 C1351 1.561 . S
C1354 C1351 1.526 . S
C1354 C1355 1.396 . S
C1354 C1359 1.390 . S
C1355 C1349 1.465 . S
C1355 C1354 1.396 . S
C1355 C1356 1.399 . S
C1356 H1342 0.929 . S
C1356 C1355 1.399 . S
C1356 C1357 1.385 . S
C1357 H1343 0.931 . S
C1357 C1356 1.385 . S
C1357 C1358 1.389 . S
C1358 C1357 1.389 . S
C1358 C1359 1.387 . S
C1359 H1344 0.930 . S
C1359 C1354 1.390 . S
C1359 C1358 1.387 . S
H1360 C1372 0.930 . S
H1361 C1374 0.930 . S
H1362 C1375 0.930 . S
H1363 C1379 0.959 . S
H1364 C1379 0.959 . S
H1365 C1379 0.961 . S
H1366 C1380 0.960 . S
H1367 C1380 0.961 . S
H1368 C1380 0.959 . S
H1369 C1383 0.929 . S
H1370 C1384 0.931 . S
H1371 C1386 0.930 . S
C1372 H1360 0.930 . S
C1372 C1373 1.399 . S
C1372 C1377 1.399 . S
C1373 C1372 1.399 . S
C1373 C1374 1.376 . S
C1374 H1361 0.930 . S
C1374 C1373 1.376 . S
C1374 C1375 1.388 . S
C1375 H1362 0.930 . S
C1375 C1374 1.388 . S
C1375 C1376 1.390 . S
C1376 C1375 1.390 . S
C1376 C1377 1.394 . S
C1376 C1382 1.465 . S
C1377 C1372 1.399 . S
C1377 C1376 1.394 . S
C1377 C1378 1.516 . S
C1378 C1377 1.516 . S
C1378 C1379 1.502 . S
C1378 C1380 1.561 . S
C1378 C1381 1.526 . S
C1379 H1363 0.959 . S
C1379 H1364 0.959 . S
C1379 H1365 0.961 . S
C1379 C1378 1.502 . S
C1380 H1366 0.960 . S
C1380 H1367 0.961 . S
C1380 H1368 0.959 . S
C1380 C1378 1.561 . S
C1381 C1378 1.526 . S
C1381 C1382 1.396 . S
C1381 C1386 1.390 . S
C1382 C1376 1.465 . S
C1382 C1381 1.396 . S
C1382 C1383 1.399 . S
C1383 H1369 0.929 . S
C1383 C1382 1.399 . S
C1383 C1384 1.385 . S
C1384 H1370 0.931 . S
C1384 C1383 1.385 . S
C1384 C1385 1.389 . S
C1385 C1384 1.389 . S
C1385 C1386 1.387 . S
C1386 H1371 0.930 . S
C1386 C1381 1.390 . S
C1386 C1385 1.387 . S
H1387 C1399 0.930 . S
H1388 C1401 0.930 . S
H1389 C1402 0.930 . S
H1390 C1406 0.959 . S
H1391 C1406 0.959 . S
H1392 C1406 0.961 . S
H1393 C1407 0.960 . S
H1394 C1407 0.961 1_455 S
H1395 C1407 0.959 . S
H1396 C1410 0.929 1_655 S
H1397 C1411 0.931 . S
H1398 C1413 0.930 . S
C1399 H1387 0.930 . S
C1399 C1400 1.399 . S
C1399 C1404 1.399 . S
C1400 C1399 1.399 . S
C1400 C1401 1.376 . S
C1401 H1388 0.930 . S
C1401 C1400 1.376 . S
C1401 C1402 1.388 . S
C1402 H1389 0.930 . S
C1402 C1401 1.388 . S
C1402 C1403 1.390 . S
C1403 C1402 1.390 . S
C1403 C1404 1.394 . S
C1403 C1409 1.465 . S
C1404 C1399 1.399 . S
C1404 C1403 1.394 . S
C1404 C1405 1.516 1_655 S
C1405 C1404 1.516 1_455 S
C1405 C1406 1.502 . S
C1405 C1407 1.561 1_455 S
C1405 C1408 1.526 . S
C1406 H1390 0.959 . S
C1406 H1391 0.959 . S
C1406 H1392 0.961 . S
C1406 C1405 1.502 . S
C1407 H1393 0.960 . S
C1407 H1394 0.961 1_655 S
C1407 H1395 0.959 . S
C1407 C1405 1.561 1_655 S
C1408 C1405 1.526 . S
C1408 C1409 1.396 1_455 S
C1408 C1413 1.390 . S
C1409 C1403 1.465 . S
C1409 C1408 1.396 1_655 S
C1409 C1410 1.399 1_655 S
C1410 H1396 0.929 1_455 S
C1410 C1409 1.399 1_455 S
C1410 C1411 1.385 . S
C1411 H1397 0.931 . S
C1411 C1410 1.385 . S
C1411 C1412 1.389 . S
C1412 C1411 1.389 . S
C1412 C1413 1.387 . S
C1413 H1398 0.930 . S
C1413 C1408 1.390 . S
C1413 C1412 1.387 . S
H1414 C1426 0.930 . S
H1415 C1428 0.930 . S
H1416 C1429 0.930 . S
H1417 C1433 0.959 . S
H1418 C1433 0.959 . S
H1419 C1433 0.961 . S
H1420 C1434 0.960 . S
H1421 C1434 0.961 . S
H1422 C1434 0.959 . S
H1423 C1437 0.929 . S
H1424 C1438 0.931 . S
H1425 C1440 0.930 . S
C1426 H1414 0.930 . S
C1426 C1427 1.399 . S
C1426 C1431 1.399 . S
C1427 C1426 1.399 . S
C1427 C1428 1.376 . S
C1428 H1415 0.930 . S
C1428 C1427 1.376 . S
C1428 C1429 1.388 . S
C1429 H1416 0.930 . S
C1429 C1428 1.388 . S
C1429 C1430 1.390 . S
C1430 C1429 1.390 . S
C1430 C1431 1.394 . S
C1430 C1436 1.465 . S
C1431 C1426 1.399 . S
C1431 C1430 1.394 . S
C1431 C1432 1.516 . S
C1432 C1431 1.516 . S
C1432 C1433 1.502 . S
C1432 C1434 1.561 . S
C1432 C1435 1.526 . S
C1433 H1417 0.959 . S
C1433 H1418 0.959 . S
C1433 H1419 0.961 . S
C1433 C1432 1.502 . S
C1434 H1420 0.960 . S
C1434 H1421 0.961 . S
C1434 H1422 0.959 . S
C1434 C1432 1.561 . S
C1435 C1432 1.526 . S
C1435 C1436 1.396 . S
C1435 C1440 1.390 . S
C1436 C1430 1.465 . S
C1436 C1435 1.396 . S
C1436 C1437 1.399 . S
C1437 H1423 0.929 . S
C1437 C1436 1.399 . S
C1437 C1438 1.385 . S
C1438 H1424 0.931 . S
C1438 C1437 1.385 . S
C1438 C1439 1.389 . S
C1439 C1438 1.389 . S
C1439 C1440 1.387 . S
C1440 H1425 0.930 . S
C1440 C1435 1.390 . S
C1440 C1439 1.387 . S
H1441 C1453 0.930 . S
H1442 C1455 0.930 . S
H1443 C1456 0.930 . S
H1444 C1460 0.959 . S
H1445 C1460 0.959 . S
H1446 C1460 0.961 . S
H1447 C1461 0.960 . S
H1448 C1461 0.961 . S
H1449 C1461 0.959 . S
H1450 C1464 0.929 1_655 S
H1451 C1465 0.931 . S
H1452 C1467 0.930 . S
C1453 H1441 0.930 . S
C1453 C1454 1.399 . S
C1453 C1458 1.399 . S
C1454 C1453 1.399 . S
C1454 C1455 1.376 . S
C1455 H1442 0.930 . S
C1455 C1454 1.376 . S
C1455 C1456 1.388 . S
C1456 H1443 0.930 . S
C1456 C1455 1.388 . S
C1456 C1457 1.390 . S
C1457 C1456 1.390 . S
C1457 C1458 1.394 . S
C1457 C1463 1.465 . S
C1458 C1453 1.399 . S
C1458 C1457 1.394 . S
C1458 C1459 1.516 1_655 S
C1459 C1458 1.516 1_455 S
C1459 C1460 1.502 . S
C1459 C1461 1.561 1_455 S
C1459 C1462 1.526 . S
C1460 H1444 0.959 . S
C1460 H1445 0.959 . S
C1460 H1446 0.961 . S
C1460 C1459 1.502 . S
C1461 H1447 0.960 . S
C1461 H1448 0.961 . S
C1461 H1449 0.959 . S
C1461 C1459 1.561 1_655 S
C1462 C1459 1.526 . S
C1462 C1463 1.396 1_455 S
C1462 C1467 1.390 . S
C1463 C1457 1.465 . S
C1463 C1462 1.396 1_655 S
C1463 C1464 1.399 1_655 S
C1464 H1450 0.929 1_455 S
C1464 C1463 1.399 1_455 S
C1464 C1465 1.385 . S
C1465 H1451 0.931 . S
C1465 C1464 1.385 . S
C1465 C1466 1.389 . S
C1466 C1465 1.389 . S
C1466 C1467 1.387 . S
C1467 H1452 0.930 . S
C1467 C1462 1.390 . S
C1467 C1466 1.387 . S
H1468 C1480 0.930 . S
H1469 C1482 0.930 . S
H1470 C1483 0.930 . S
H1471 C1487 0.959 . S
H1472 C1487 0.959 . S
H1473 C1487 0.961 . S
H1474 C1488 0.960 . S
H1475 C1488 0.961 . S
H1476 C1488 0.959 . S
H1477 C1491 0.929 . S
H1478 C1492 0.931 . S
H1479 C1494 0.930 . S
C1480 H1468 0.930 . S
C1480 C1481 1.399 . S
C1480 C1485 1.399 . S
C1481 C1480 1.399 . S
C1481 C1482 1.376 . S
C1482 H1469 0.930 . S
C1482 C1481 1.376 . S
C1482 C1483 1.388 . S
C1483 H1470 0.930 . S
C1483 C1482 1.388 . S
C1483 C1484 1.390 . S
C1484 C1483 1.390 . S
C1484 C1485 1.394 . S
C1484 C1490 1.465 . S
C1485 C1480 1.399 . S
C1485 C1484 1.394 . S
C1485 C1486 1.516 . S
C1486 C1485 1.516 . S
C1486 C1487 1.502 . S
C1486 C1488 1.561 . S
C1486 C1489 1.526 . S
C1487 H1471 0.959 . S
C1487 H1472 0.959 . S
C1487 H1473 0.961 . S
C1487 C1486 1.502 . S
C1488 H1474 0.960 . S
C1488 H1475 0.961 . S
C1488 H1476 0.959 . S
C1488 C1486 1.561 . S
C1489 C1486 1.526 . S
C1489 C1490 1.396 . S
C1489 C1494 1.390 . S
C1490 C1484 1.465 . S
C1490 C1489 1.396 . S
C1490 C1491 1.399 . S
C1491 H1477 0.929 . S
C1491 C1490 1.399 . S
C1491 C1492 1.385 . S
C1492 H1478 0.931 . S
C1492 C1491 1.385 . S
C1492 C1493 1.389 . S
C1493 C1492 1.389 . S
C1493 C1494 1.387 . S
C1494 H1479 0.930 . S
C1494 C1489 1.390 . S
C1494 C1493 1.387 . S
H1495 C1507 0.930 . S
H1496 C1509 0.930 . S
H1497 C1510 0.930 . S
H1498 C1514 0.959 . S
H1499 C1514 0.959 . S
H1500 C1514 0.961 . S
H1501 C1515 0.961 . S
H1502 C1515 0.961 . S
H1503 C1515 0.959 1_655 S
H1504 C1518 0.929 1_655 S
H1505 C1519 0.931 . S
H1506 C1521 0.930 . S
C1507 H1495 0.930 . S
C1507 C1508 1.399 . S
C1507 C1512 1.399 . S
C1508 C1507 1.399 . S
C1508 C1509 1.376 . S
C1509 H1496 0.930 . S
C1509 C1508 1.376 . S
C1509 C1510 1.388 . S
C1510 H1497 0.930 . S
C1510 C1509 1.388 . S
C1510 C1511 1.390 . S
C1511 C1510 1.390 . S
C1511 C1512 1.394 . S
C1511 C1517 1.465 1_655 S
C1512 C1507 1.399 . S
C1512 C1511 1.394 . S
C1512 C1513 1.516 1_655 S
C1513 C1512 1.516 1_455 S
C1513 C1514 1.502 . S
C1513 C1515 1.561 1_565 S
C1513 C1516 1.526 . S
C1514 H1498 0.959 . S
C1514 H1499 0.959 . S
C1514 H1500 0.961 . S
C1514 C1513 1.502 . S
C1515 H1501 0.961 . S
C1515 H1502 0.961 . S
C1515 H1503 0.959 1_455 S
C1515 C1513 1.561 1_545 S
C1516 C1513 1.526 . S
C1516 C1517 1.396 . S
C1516 C1521 1.390 . S
C1517 C1511 1.465 1_455 S
C1517 C1516 1.396 . S
C1517 C1518 1.399 . S
C1518 H1504 0.929 1_455 S
C1518 C1517 1.399 . S
C1518 C1519 1.385 . S
C1519 H1505 0.931 . S
C1519 C1518 1.385 . S
C1519 C1520 1.389 . S
C1520 C1519 1.389 . S
C1520 C1521 1.387 . S
C1521 H1506 0.930 . S
C1521 C1516 1.390 . S
C1521 C1520 1.387 . S
H1522 C1534 0.930 . S
H1523 C1536 0.930 . S
H1524 C1537 0.930 1_545 S
H1525 C1541 0.959 . S
H1526 C1541 0.959 . S
H1527 C1541 0.961 . S
H1528 C1542 0.960 . S
H1529 C1542 0.961 . S
H1530 C1542 0.959 . S
H1531 C1545 0.929 1_545 S
H1532 C1546 0.931 . S
H1533 C1548 0.930 . S
C1534 H1522 0.930 . S
C1534 C1535 1.399 . S
C1534 C1539 1.399 . S
C1535 C1534 1.399 . S
C1535 C1536 1.376 . S
C1536 H1523 0.930 . S
C1536 C1535 1.376 . S
C1536 C1537 1.388 . S
C1537 H1524 0.930 1_565 S
C1537 C1536 1.388 . S
C1537 C1538 1.390 . S
C1538 C1537 1.390 . S
C1538 C1539 1.394 . S
C1538 C1544 1.465 . S
C1539 C1534 1.399 . S
C1539 C1538 1.394 . S
C1539 C1540 1.516 . S
C1540 C1539 1.516 . S
C1540 C1541 1.502 . S
C1540 C1542 1.561 . S
C1540 C1543 1.526 . S
C1541 H1525 0.959 . S
C1541 H1526 0.959 . S
C1541 H1527 0.961 . S
C1541 C1540 1.502 . S
C1542 H1528 0.960 . S
C1542 H1529 0.961 . S
C1542 H1530 0.959 . S
C1542 C1540 1.561 . S
C1543 C1540 1.526 . S
C1543 C1544 1.396 . S
C1543 C1548 1.390 . S
C1544 C1538 1.465 . S
C1544 C1543 1.396 . S
C1544 C1545 1.399 . S
C1545 H1531 0.929 1_565 S
C1545 C1544 1.399 . S
C1545 C1546 1.385 . S
C1546 H1532 0.931 . S
C1546 C1545 1.385 . S
C1546 C1547 1.389 . S
C1547 C1546 1.389 . S
C1547 C1548 1.387 . S
C1548 H1533 0.930 . S
C1548 C1543 1.390 . S
C1548 C1547 1.387 . S
H1549 C1561 0.930 . S
H1550 C1563 0.930 . S
H1551 C1564 0.930 . S
H1552 C1568 0.959 . S
H1553 C1568 0.959 . S
H1554 C1568 0.961 . S
H1555 C1569 0.960 . S
H1556 C1569 0.961 1_455 S
H1557 C1569 0.959 . S
H1558 C1572 0.929 . S
H1559 C1573 0.931 . S
H1560 C1575 0.930 . S
C1561 H1549 0.930 . S
C1561 C1562 1.399 . S
C1561 C1566 1.399 . S
C1562 C1561 1.399 . S
C1562 C1563 1.376 . S
C1563 H1550 0.930 . S
C1563 C1562 1.376 . S
C1563 C1564 1.388 . S
C1564 H1551 0.930 . S
C1564 C1563 1.388 . S
C1564 C1565 1.390 . S
C1565 C1564 1.390 . S
C1565 C1566 1.394 . S
C1565 C1571 1.465 1_655 S
C1566 C1561 1.399 . S
C1566 C1565 1.394 . S
C1566 C1567 1.516 1_655 S
C1567 C1566 1.516 1_455 S
C1567 C1568 1.502 . S
C1567 C1569 1.561 1_455 S
C1567 C1570 1.526 . S
C1568 H1552 0.959 . S
C1568 H1553 0.959 . S
C1568 H1554 0.961 . S
C1568 C1567 1.502 . S
C1569 H1555 0.960 . S
C1569 H1556 0.961 1_655 S
C1569 H1557 0.959 . S
C1569 C1567 1.561 1_655 S
C1570 C1567 1.526 . S
C1570 C1571 1.396 . S
C1570 C1575 1.390 . S
C1571 C1565 1.465 1_455 S
C1571 C1570 1.396 . S
C1571 C1572 1.399 . S
C1572 H1558 0.929 . S
C1572 C1571 1.399 . S
C1572 C1573 1.385 . S
C1573 H1559 0.931 . S
C1573 C1572 1.385 . S
C1573 C1574 1.389 . S
C1574 C1573 1.389 . S
C1574 C1575 1.387 . S
C1575 H1560 0.930 . S
C1575 C1570 1.390 . S
C1575 C1574 1.387 . S
H1576 C1588 0.930 . S
H1577 C1590 0.930 . S
H1578 C1591 0.930 . S
H1579 C1595 0.959 . S
H1580 C1595 0.959 . S
H1581 C1595 0.961 . S
H1582 C1596 0.960 . S
H1583 C1596 0.961 . S
H1584 C1596 0.959 . S
H1585 C1599 0.929 . S
H1586 C1600 0.931 . S
H1587 C1602 0.930 . S
C1588 H1576 0.930 . S
C1588 C1589 1.399 . S
C1588 C1593 1.399 . S
C1589 C1588 1.399 . S
C1589 C1590 1.376 . S
C1590 H1577 0.930 . S
C1590 C1589 1.376 . S
C1590 C1591 1.388 . S
C1591 H1578 0.930 . S
C1591 C1590 1.388 . S
C1591 C1592 1.390 . S
C1592 C1591 1.390 . S
C1592 C1593 1.394 . S
C1592 C1598 1.465 . S
C1593 C1588 1.399 . S
C1593 C1592 1.394 . S
C1593 C1594 1.516 . S
C1594 C1593 1.516 . S
C1594 C1595 1.502 . S
C1594 C1596 1.561 . S
C1594 C1597 1.526 . S
C1595 H1579 0.959 . S
C1595 H1580 0.959 . S
C1595 H1581 0.961 . S
C1595 C1594 1.502 . S
C1596 H1582 0.960 . S
C1596 H1583 0.961 . S
C1596 H1584 0.959 . S
C1596 C1594 1.561 . S
C1597 C1594 1.526 . S
C1597 C1598 1.396 . S
C1597 C1602 1.390 . S
C1598 C1592 1.465 . S
C1598 C1597 1.396 . S
C1598 C1599 1.399 . S
C1599 H1585 0.929 . S
C1599 C1598 1.399 . S
C1599 C1600 1.385 . S
C1600 H1586 0.931 . S
C1600 C1599 1.385 . S
C1600 C1601 1.389 . S
C1601 C1600 1.389 . S
C1601 C1602 1.387 . S
C1602 H1587 0.930 . S
C1602 C1597 1.390 . S
C1602 C1601 1.387 . S
H1603 C1615 0.930 . S
H1604 C1617 0.930 . S
H1605 C1618 0.930 1_655 S
H1606 C1622 0.959 . S
H1607 C1622 0.959 . S
H1608 C1622 0.961 . S
H1609 C1623 0.960 . S
H1610 C1623 0.961 . S
H1611 C1623 0.959 . S
H1612 C1626 0.929 . S
H1613 C1627 0.931 . S
H1614 C1629 0.930 . S
C1615 H1603 0.930 . S
C1615 C1616 1.399 . S
C1615 C1620 1.399 . S
C1616 C1615 1.399 . S
C1616 C1617 1.376 . S
C1617 H1604 0.930 . S
C1617 C1616 1.376 . S
C1617 C1618 1.388 . S
C1618 H1605 0.930 1_455 S
C1618 C1617 1.388 . S
C1618 C1619 1.390 1_455 S
C1619 C1618 1.390 1_655 S
C1619 C1620 1.394 1_655 S
C1619 C1625 1.465 . S
C1620 C1615 1.399 . S
C1620 C1619 1.394 1_455 S
C1620 C1621 1.516 . S
C1621 C1620 1.516 . S
C1621 C1622 1.502 . S
C1621 C1623 1.561 1_455 S
C1621 C1624 1.526 1_455 S
C1622 H1606 0.959 . S
C1622 H1607 0.959 . S
C1622 H1608 0.961 . S
C1622 C1621 1.502 . S
C1623 H1609 0.960 . S
C1623 H1610 0.961 . S
C1623 H1611 0.959 . S
C1623 C1621 1.561 1_655 S
C1624 C1621 1.526 1_655 S
C1624 C1625 1.396 . S
C1624 C1629 1.390 . S
C1625 C1619 1.465 . S
C1625 C1624 1.396 . S
C1625 C1626 1.399 . S
C1626 H1612 0.929 . S
C1626 C1625 1.399 . S
C1626 C1627 1.385 . S
C1627 H1613 0.931 . S
C1627 C1626 1.385 . S
C1627 C1628 1.389 . S
C1628 C1627 1.389 . S
C1628 C1629 1.387 . S
C1629 H1614 0.930 . S
C1629 C1624 1.390 . S
C1629 C1628 1.387 . S
H1630 C1642 0.930 . S
H1631 C1644 0.930 . S
H1632 C1645 0.930 . S
H1633 C1649 0.959 . S
H1634 C1649 0.959 . S
H1635 C1649 0.961 . S
H1636 C1650 0.960 . S
H1637 C1650 0.961 . S
H1638 C1650 0.959 . S
H1639 C1653 0.929 . S
H1640 C1654 0.931 . S
H1641 C1656 0.930 . S
C1642 H1630 0.930 . S
C1642 C1643 1.399 . S
C1642 C1647 1.399 . S
C1643 C1642 1.399 . S
C1643 C1644 1.376 . S
C1644 H1631 0.930 . S
C1644 C1643 1.376 . S
C1644 C1645 1.388 . S
C1645 H1632 0.930 . S
C1645 C1644 1.388 . S
C1645 C1646 1.390 . S
C1646 C1645 1.390 . S
C1646 C1647 1.394 . S
C1646 C1652 1.465 . S
C1647 C1642 1.399 . S
C1647 C1646 1.394 . S
C1647 C1648 1.516 . S
C1648 C1647 1.516 . S
C1648 C1649 1.502 . S
C1648 C1650 1.561 . S
C1648 C1651 1.526 . S
C1649 H1633 0.959 . S
C1649 H1634 0.959 . S
C1649 H1635 0.961 . S
C1649 C1648 1.502 . S
C1650 H1636 0.960 . S
C1650 H1637 0.961 . S
C1650 H1638 0.959 . S
C1650 C1648 1.561 . S
C1651 C1648 1.526 . S
C1651 C1652 1.396 . S
C1651 C1656 1.390 . S
C1652 C1646 1.465 . S
C1652 C1651 1.396 . S
C1652 C1653 1.399 . S
C1653 H1639 0.929 . S
C1653 C1652 1.399 . S
C1653 C1654 1.385 . S
C1654 H1640 0.931 . S
C1654 C1653 1.385 . S
C1654 C1655 1.389 . S
C1655 C1654 1.389 . S
C1655 C1656 1.387 . S
C1656 H1641 0.930 . S
C1656 C1651 1.390 . S
C1656 C1655 1.387 . S
H1657 C1669 0.930 . S
H1658 C1671 0.930 . S
H1659 C1672 0.930 . S
H1660 C1676 0.959 . S
H1661 C1676 0.959 . S
H1662 C1676 0.961 . S
H1663 C1677 0.960 . S
H1664 C1677 0.951 1_455 S
H1665 C1677 0.959 . S
H1666 C1680 0.929 1_655 S
H1667 C1681 0.931 . S
H1668 C1683 0.930 . S
C1669 H1657 0.930 . S
C1669 C1670 1.399 . S
C1669 C1674 1.399 . S
C1670 C1669 1.399 . S
C1670 C1671 1.376 . S
C1671 H1658 0.930 . S
C1671 C1670 1.376 . S
C1671 C1672 1.388 . S
C1672 H1659 0.930 . S
C1672 C1671 1.388 . S
C1672 C1673 1.390 . S
C1673 C1672 1.390 . S
C1673 C1674 1.394 . S
C1673 C1679 1.465 . S
C1674 C1669 1.399 . S
C1674 C1673 1.394 . S
C1674 C1675 1.516 1_655 S
C1675 C1674 1.516 1_455 S
C1675 C1676 1.502 . S
C1675 C1677 1.561 1_455 S
C1675 C1678 1.526 . S
C1676 H1660 0.959 . S
C1676 H1661 0.959 . S
C1676 H1662 0.961 . S
C1676 C1675 1.502 . S
C1677 H1663 0.960 . S
C1677 H1664 0.951 1_655 S
C1677 H1665 0.959 . S
C1677 C1675 1.561 1_655 S
C1678 C1675 1.526 . S
C1678 C1679 1.396 1_455 S
C1678 C1683 1.390 . S
C1679 C1673 1.465 . S
C1679 C1678 1.396 1_655 S
C1679 C1680 1.399 1_655 S
C1680 H1666 0.929 1_455 S
C1680 C1679 1.399 1_455 S
C1680 C1681 1.385 . S
C1681 H1667 0.931 . S
C1681 C1680 1.385 . S
C1681 C1682 1.389 . S
C1682 C1681 1.389 . S
C1682 C1683 1.387 . S
C1683 H1668 0.930 . S
C1683 C1678 1.390 . S
C1683 C1682 1.387 . S
H1684 C1696 0.930 . S
H1685 C1698 0.930 . S
H1686 C1699 0.930 . S
H1687 C1703 0.959 . S
H1688 C1703 0.959 . S
H1689 C1703 0.961 . S
H1690 C1704 0.960 . S
H1691 C1704 0.961 . S
H1692 C1704 0.959 . S
H1693 C1707 0.929 . S
H1694 C1708 0.931 . S
H1695 C1710 0.930 . S
C1696 H1684 0.930 . S
C1696 C1697 1.399 . S
C1696 C1701 1.399 . S
C1697 C1696 1.399 . S
C1697 C1698 1.376 . S
C1698 H1685 0.930 . S
C1698 C1697 1.376 . S
C1698 C1699 1.388 . S
C1699 H1686 0.930 . S
C1699 C1698 1.388 . S
C1699 C1700 1.390 . S
C1700 C1699 1.390 . S
C1700 C1701 1.394 . S
C1700 C1706 1.465 . S
C1701 C1696 1.399 . S
C1701 C1700 1.394 . S
C1701 C1702 1.516 . S
C1702 C1701 1.516 . S
C1702 C1703 1.502 . S
C1702 C1704 1.561 . S
C1702 C1705 1.526 . S
C1703 H1687 0.959 . S
C1703 H1688 0.959 . S
C1703 H1689 0.961 . S
C1703 C1702 1.502 . S
C1704 H1690 0.960 . S
C1704 H1691 0.961 . S
C1704 H1692 0.959 . S
C1704 C1702 1.561 . S
C1705 C1702 1.526 . S
C1705 C1706 1.396 . S
C1705 C1710 1.390 . S
C1706 C1700 1.465 . S
C1706 C1705 1.396 . S
C1706 C1707 1.399 . S
C1707 H1693 0.929 . S
C1707 C1706 1.399 . S
C1707 C1708 1.385 . S
C1708 H1694 0.931 . S
C1708 C1707 1.385 . S
C1708 C1709 1.389 . S
C1709 C1708 1.389 . S
C1709 C1710 1.387 . S
C1710 H1695 0.930 . S
C1710 C1705 1.390 . S
C1710 C1709 1.387 . S
H1711 C1723 0.930 . S
H1712 C1725 0.930 . S
H1713 C1726 0.930 . S
H1714 C1730 0.959 . S
H1715 C1730 0.959 . S
H1716 C1730 0.961 . S
H1717 C1731 0.960 . S
H1718 C1731 0.961 . S
H1719 C1731 0.959 1_455 S
H1720 C1734 0.929 . S
H1721 C1735 0.931 . S
H1722 C1737 0.930 . S
C1723 H1711 0.930 . S
C1723 C1724 1.399 . S
C1723 C1728 1.399 . S
C1724 C1723 1.399 . S
C1724 C1725 1.376 . S
C1725 H1712 0.930 . S
C1725 C1724 1.376 . S
C1725 C1726 1.388 . S
C1726 H1713 0.930 . S
C1726 C1725 1.388 . S
C1726 C1727 1.390 . S
C1727 C1726 1.390 . S
C1727 C1728 1.394 . S
C1727 C1733 1.465 . S
C1728 C1723 1.399 . S
C1728 C1727 1.394 . S
C1728 C1729 1.516 1_455 S
C1729 C1728 1.516 1_655 S
C1729 C1730 1.502 . S
C1729 C1731 1.561 . S
C1729 C1732 1.526 . S
C1730 H1714 0.959 . S
C1730 H1715 0.959 . S
C1730 H1716 0.961 . S
C1730 C1729 1.502 . S
C1731 H1717 0.960 . S
C1731 H1718 0.961 . S
C1731 H1719 0.959 1_655 S
C1731 C1729 1.561 . S
C1732 C1729 1.526 . S
C1732 C1733 1.396 1_655 S
C1732 C1737 1.390 . S
C1733 C1727 1.465 . S
C1733 C1732 1.396 1_455 S
C1733 C1734 1.399 . S
C1734 H1720 0.929 . S
C1734 C1733 1.399 . S
C1734 C1735 1.385 1_455 S
C1735 H1721 0.931 . S
C1735 C1734 1.385 1_655 S
C1735 C1736 1.389 . S
C1736 C1735 1.389 . S
C1736 C1737 1.387 . S
C1737 H1722 0.930 . S
C1737 C1732 1.390 . S
C1737 C1736 1.387 . S
H1738 C1750 0.930 . S
H1739 C1752 0.930 . S
H1740 C1753 0.930 . S
H1741 C1757 0.959 . S
H1742 C1757 0.959 . S
H1743 C1757 0.961 . S
H1744 C1758 0.960 . S
H1745 C1758 0.961 . S
H1746 C1758 0.959 . S
H1747 C1761 0.929 . S
H1748 C1762 0.931 . S
H1749 C1764 0.930 . S
C1750 H1738 0.930 . S
C1750 C1751 1.399 . S
C1750 C1755 1.399 . S
C1751 C1750 1.399 . S
C1751 C1752 1.376 . S
C1752 H1739 0.930 . S
C1752 C1751 1.376 . S
C1752 C1753 1.388 . S
C1753 H1740 0.930 . S
C1753 C1752 1.388 . S
C1753 C1754 1.390 . S
C1754 C1753 1.390 . S
C1754 C1755 1.394 . S
C1754 C1760 1.465 . S
C1755 C1750 1.399 . S
C1755 C1754 1.394 . S
C1755 C1756 1.516 . S
C1756 C1755 1.516 . S
C1756 C1757 1.502 . S
C1756 C1758 1.561 . S
C1756 C1759 1.526 . S
C1757 H1741 0.959 . S
C1757 H1742 0.959 . S
C1757 H1743 0.961 . S
C1757 C1756 1.502 . S
C1758 H1744 0.960 . S
C1758 H1745 0.961 . S
C1758 H1746 0.959 . S
C1758 C1756 1.561 . S
C1759 C1756 1.526 . S
C1759 C1760 1.396 . S
C1759 C1764 1.390 . S
C1760 C1754 1.465 . S
C1760 C1759 1.396 . S
C1760 C1761 1.399 . S
C1761 H1747 0.929 . S
C1761 C1760 1.399 . S
C1761 C1762 1.385 . S
C1762 H1748 0.931 . S
C1762 C1761 1.385 . S
C1762 C1763 1.389 . S
C1763 C1762 1.389 . S
C1763 C1764 1.387 . S
C1764 H1749 0.930 . S
C1764 C1759 1.390 . S
C1764 C1763 1.387 . S
H1765 C1777 0.930 . S
H1766 C1779 0.930 . S
H1767 C1780 0.940 . S
H1768 C1784 0.959 . S
H1769 C1784 0.959 . S
H1770 C1784 0.961 . S
H1771 C1785 0.960 . S
H1772 C1785 0.961 . S
H1773 C1785 0.959 . S
H1774 C1788 0.929 . S
H1775 C1789 0.931 . S
H1776 C1791 0.930 . S
C1777 H1765 0.930 . S
C1777 C1778 1.399 . S
C1777 C1782 1.399 . S
C1778 C1777 1.399 . S
C1778 C1779 1.376 . S
C1779 H1766 0.930 . S
C1779 C1778 1.376 . S
C1779 C1780 1.380 1_455 S
C1780 H1767 0.940 . S
C1780 C1779 1.380 1_655 S
C1780 C1781 1.389 1_655 S
C1781 C1780 1.389 1_455 S
C1781 C1782 1.394 . S
C1781 C1787 1.465 1_455 S
C1782 C1777 1.399 . S
C1782 C1781 1.394 . S
C1782 C1783 1.516 . S
C1783 C1782 1.516 . S
C1783 C1784 1.502 . S
C1783 C1785 1.561 . S
C1783 C1786 1.526 1_455 S
C1784 H1768 0.959 . S
C1784 H1769 0.959 . S
C1784 H1770 0.961 . S
C1784 C1783 1.502 . S
C1785 H1771 0.960 . S
C1785 H1772 0.961 . S
C1785 H1773 0.959 . S
C1785 C1783 1.561 . S
C1786 C1783 1.526 1_655 S
C1786 C1787 1.396 . S
C1786 C1791 1.390 . S
C1787 C1781 1.465 1_655 S
C1787 C1786 1.396 . S
C1787 C1788 1.399 . S
C1788 H1774 0.929 . S
C1788 C1787 1.399 . S
C1788 C1789 1.385 . S
C1789 H1775 0.931 . S
C1789 C1788 1.385 . S
C1789 C1790 1.389 . S
C1790 C1789 1.389 . S
C1790 C1791 1.387 . S
C1791 H1776 0.930 . S
C1791 C1786 1.390 . S
C1791 C1790 1.387 . S
H1792 C1804 0.930 . S
H1793 C1806 0.930 . S
H1794 C1807 0.930 . S
H1795 C1811 0.959 . S
H1796 C1811 0.959 . S
H1797 C1811 0.961 . S
H1798 C1812 0.960 . S
H1799 C1812 0.961 . S
H1800 C1812 0.959 . S
H1801 C1815 0.929 . S
H1802 C1816 0.931 . S
H1803 C1818 0.930 . S
C1804 H1792 0.930 . S
C1804 C1805 1.399 . S
C1804 C1809 1.399 . S
C1805 C1804 1.399 . S
C1805 C1806 1.376 . S
C1806 H1793 0.930 . S
C1806 C1805 1.376 . S
C1806 C1807 1.388 . S
C1807 H1794 0.930 . S
C1807 C1806 1.388 . S
C1807 C1808 1.390 . S
C1808 C1807 1.390 . S
C1808 C1809 1.394 . S
C1808 C1814 1.465 . S
C1809 C1804 1.399 . S
C1809 C1808 1.394 . S
C1809 C1810 1.516 . S
C1810 C1809 1.516 . S
C1810 C1811 1.502 . S
C1810 C1812 1.561 . S
C1810 C1813 1.526 . S
C1811 H1795 0.959 . S
C1811 H1796 0.959 . S
C1811 H1797 0.961 . S
C1811 C1810 1.502 . S
C1812 H1798 0.960 . S
C1812 H1799 0.961 . S
C1812 H1800 0.959 . S
C1812 C1810 1.561 . S
C1813 C1810 1.526 . S
C1813 C1814 1.396 . S
C1813 C1818 1.390 . S
C1814 C1808 1.465 . S
C1814 C1813 1.396 . S
C1814 C1815 1.399 . S
C1815 H1801 0.929 . S
C1815 C1814 1.399 . S
C1815 C1816 1.385 . S
C1816 H1802 0.931 . S
C1816 C1815 1.385 . S
C1816 C1817 1.389 . S
C1817 C1816 1.389 . S
C1817 C1818 1.387 . S
C1818 H1803 0.930 . S
C1818 C1813 1.390 . S
C1818 C1817 1.387 . S
H1819 C1831 0.930 . S
H1820 C1833 0.930 . S
H1821 C1834 0.930 . S
H1822 C1838 0.959 . S
H1823 C1838 0.959 . S
H1824 C1838 0.961 . S
H1825 C1839 0.960 . S
H1826 C1839 0.961 . S
H1827 C1839 0.959 . S
H1828 C1842 0.929 1_565 S
H1829 C1843 0.931 . S
H1830 C1845 0.930 . S
C1831 H1819 0.930 . S
C1831 C1832 1.399 . S
C1831 C1836 1.399 . S
C1832 C1831 1.399 . S
C1832 C1833 1.376 1_655 S
C1833 H1820 0.930 . S
C1833 C1832 1.376 1_455 S
C1833 C1834 1.388 . S
C1834 H1821 0.930 . S
C1834 C1833 1.388 . S
C1834 C1835 1.390 . S
C1835 C1834 1.390 . S
C1835 C1836 1.394 1_455 S
C1835 C1841 1.465 1_565 S
C1836 C1831 1.399 . S
C1836 C1835 1.394 1_655 S
C1836 C1837 1.516 1_565 S
C1837 C1836 1.516 1_545 S
C1837 C1838 1.502 . S
C1837 C1839 1.561 . S
C1837 C1840 1.526 . S
C1838 H1822 0.959 . S
C1838 H1823 0.959 . S
C1838 H1824 0.961 . S
C1838 C1837 1.502 . S
C1839 H1825 0.960 . S
C1839 H1826 0.961 . S
C1839 H1827 0.959 . S
C1839 C1837 1.561 . S
C1840 C1837 1.526 . S
C1840 C1841 1.396 1_655 S
C1840 C1845 1.390 . S
C1841 C1835 1.465 1_545 S
C1841 C1840 1.396 1_455 S
C1841 C1842 1.399 . S
C1842 H1828 0.929 1_545 S
C1842 C1841 1.399 . S
C1842 C1843 1.385 . S
C1843 H1829 0.931 . S
C1843 C1842 1.385 . S
C1843 C1844 1.389 . S
C1844 C1843 1.389 . S
C1844 C1845 1.387 1_455 S
C1845 H1830 0.930 . S
C1845 C1840 1.390 . S
C1845 C1844 1.387 1_655 S
H1846 C1858 0.930 . S
H1847 C1860 0.930 . S
H1848 C1861 0.930 . S
H1849 C1865 0.959 . S
H1850 C1865 0.959 . S
H1851 C1865 0.961 . S
H1852 C1866 0.960 . S
H1853 C1866 0.961 . S
H1854 C1866 0.959 . S
H1855 C1869 0.929 . S
H1856 C1870 0.931 . S
H1857 C1872 0.930 1_565 S
C1858 H1846 0.930 . S
C1858 C1859 1.399 . S
C1858 C1863 1.399 . S
C1859 C1858 1.399 . S
C1859 C1860 1.376 . S
C1860 H1847 0.930 . S
C1860 C1859 1.376 . S
C1860 C1861 1.388 1_565 S
C1861 H1848 0.930 . S
C1861 C1860 1.388 1_545 S
C1861 C1862 1.390 . S
C1862 C1861 1.390 . S
C1862 C1863 1.394 1_545 S
C1862 C1868 1.465 . S
C1863 C1858 1.399 . S
C1863 C1862 1.394 1_565 S
C1863 C1864 1.516 . S
C1864 C1863 1.516 . S
C1864 C1865 1.502 . S
C1864 C1866 1.561 . S
C1864 C1867 1.514 1_565 S
C1865 H1849 0.959 . S
C1865 H1850 0.959 . S
C1865 H1851 0.961 . S
C1865 C1864 1.502 . S
C1866 H1852 0.960 . S
C1866 H1853 0.961 . S
C1866 H1854 0.959 . S
C1866 C1864 1.561 . S
C1867 C1864 1.514 1_545 S
C1867 C1868 1.404 . S
C1867 C1872 1.394 . S
C1868 C1862 1.465 . S
C1868 C1867 1.404 . S
C1868 C1869 1.399 . S
C1869 H1855 0.929 . S
C1869 C1868 1.399 . S
C1869 C1870 1.385 . S
C1870 H1856 0.931 . S
C1870 C1869 1.385 . S
C1870 C1871 1.389 . S
C1871 C1870 1.389 . S
C1871 C1872 1.387 . S
C1872 H1857 0.930 1_545 S
C1872 C1867 1.394 . S
C1872 C1871 1.387 . S
H1873 C1885 0.930 . S
H1874 C1887 0.930 . S
H1875 C1888 0.930 . S
H1876 C1892 0.959 . S
H1877 C1892 0.959 . S
H1878 C1892 0.961 . S
H1879 C1893 0.960 . S
H1880 C1893 0.961 . S
H1881 C1893 0.959 . S
H1882 C1896 0.929 . S
H1883 C1897 0.931 . S
H1884 C1899 0.930 1_455 S
C1885 H1873 0.930 . S
C1885 C1886 1.399 . S
C1885 C1890 1.399 . S
C1886 C1885 1.399 . S
C1886 C1887 1.376 1_455 S
C1887 H1874 0.930 . S
C1887 C1886 1.376 1_655 S
C1887 C1888 1.388 . S
C1888 H1875 0.930 . S
C1888 C1887 1.388 . S
C1888 C1889 1.390 . S
C1889 C1888 1.390 . S
C1889 C1890 1.394 1_655 S
C1889 C1895 1.465 . S
C1890 C1885 1.399 . S
C1890 C1889 1.394 1_455 S
C1890 C1891 1.516 . S
C1891 C1890 1.516 . S
C1891 C1892 1.502 . S
C1891 C1893 1.561 1_455 S
C1891 C1894 1.526 1_455 S
C1892 H1876 0.959 . S
C1892 H1877 0.959 . S
C1892 H1878 0.961 . S
C1892 C1891 1.502 . S
C1893 H1879 0.960 . S
C1893 H1880 0.961 . S
C1893 H1881 0.959 . S
C1893 C1891 1.561 1_655 S
C1894 C1891 1.526 1_655 S
C1894 C1895 1.396 . S
C1894 C1899 1.390 . S
C1895 C1889 1.465 . S
C1895 C1894 1.396 . S
C1895 C1896 1.399 . S
C1896 H1882 0.929 . S
C1896 C1895 1.399 . S
C1896 C1897 1.385 . S
C1897 H1883 0.931 . S
C1897 C1896 1.385 . S
C1897 C1898 1.389 . S
C1898 C1897 1.389 . S
C1898 C1899 1.387 . S
C1899 H1884 0.930 1_655 S
C1899 C1894 1.390 . S
C1899 C1898 1.387 . S
H1900 C1912 0.930 . S
H1901 C1914 0.930 . S
H1902 C1915 0.930 . S
H1903 C1919 0.959 . S
H1904 C1919 0.959 . S
H1905 C1919 0.961 . S
H1906 C1920 0.960 . S
H1907 C1920 0.961 . S
H1908 C1920 0.959 . S
H1909 C1923 0.929 . S
H1910 C1924 0.931 . S
H1911 C1926 0.930 . S
C1912 H1900 0.930 . S
C1912 C1913 1.399 . S
C1912 C1917 1.399 . S
C1913 C1912 1.399 . S
C1913 C1914 1.376 . S
C1914 H1901 0.930 . S
C1914 C1913 1.376 . S
C1914 C1915 1.388 . S
C1915 H1902 0.930 . S
C1915 C1914 1.388 . S
C1915 C1916 1.390 . S
C1916 C1915 1.390 . S
C1916 C1917 1.394 . S
C1916 C1922 1.465 . S
C1917 C1912 1.399 . S
C1917 C1916 1.394 . S
C1917 C1918 1.516 . S
C1918 C1917 1.516 . S
C1918 C1919 1.502 . S
C1918 C1920 1.561 . S
C1918 C1921 1.526 . S
C1919 H1903 0.959 . S
C1919 H1904 0.959 . S
C1919 H1905 0.961 . S
C1919 C1918 1.502 . S
C1920 H1906 0.960 . S
C1920 H1907 0.961 . S
C1920 H1908 0.959 . S
C1920 C1918 1.561 . S
C1921 C1918 1.526 . S
C1921 C1922 1.396 . S
C1921 C1926 1.390 . S
C1922 C1916 1.465 . S
C1922 C1921 1.396 . S
C1922 C1923 1.399 . S
C1923 H1909 0.929 . S
C1923 C1922 1.399 . S
C1923 C1924 1.385 . S
C1924 H1910 0.931 . S
C1924 C1923 1.385 . S
C1924 C1925 1.389 . S
C1925 C1924 1.389 . S
C1925 C1926 1.387 . S
C1926 H1911 0.930 . S
C1926 C1921 1.390 . S
C1926 C1925 1.387 . S
H1927 C1939 0.930 . S
H1928 C1941 0.930 . S
H1929 C1942 0.930 . S
H1930 C1946 0.959 . S
H1931 C1946 0.959 . S
H1932 C1946 0.961 . S
H1933 C1947 0.960 . S
H1934 C1947 0.961 . S
H1935 C1947 0.959 . S
H1936 C1950 0.929 . S
H1937 C1951 0.931 . S
H1938 C1953 0.930 1_565 S
C1939 H1927 0.930 . S
C1939 C1940 1.399 . S
C1939 C1944 1.399 . S
C1940 C1939 1.399 . S
C1940 C1941 1.376 . S
C1941 H1928 0.930 . S
C1941 C1940 1.376 . S
C1941 C1942 1.388 1_565 S
C1942 H1929 0.930 . S
C1942 C1941 1.388 1_545 S
C1942 C1943 1.390 . S
C1943 C1942 1.390 . S
C1943 C1944 1.394 1_545 S
C1943 C1949 1.465 . S
C1944 C1939 1.399 . S
C1944 C1943 1.394 1_565 S
C1944 C1945 1.516 . S
C1945 C1944 1.516 . S
C1945 C1946 1.502 . S
C1945 C1947 1.561 . S
C1945 C1948 1.508 1_565 S
C1946 H1930 0.959 . S
C1946 H1931 0.959 . S
C1946 H1932 0.961 . S
C1946 C1945 1.502 . S
C1947 H1933 0.960 . S
C1947 H1934 0.961 . S
C1947 H1935 0.959 . S
C1947 C1945 1.561 . S
C1948 C1945 1.508 1_545 S
C1948 C1949 1.408 . S
C1948 C1953 1.396 . S
C1949 C1943 1.465 . S
C1949 C1948 1.408 . S
C1949 C1950 1.399 . S
C1950 H1936 0.929 . S
C1950 C1949 1.399 . S
C1950 C1951 1.385 . S
C1951 H1937 0.931 . S
C1951 C1950 1.385 . S
C1951 C1952 1.389 . S
C1952 C1951 1.389 . S
C1952 C1953 1.387 . S
C1953 H1938 0.930 1_545 S
C1953 C1948 1.396 . S
C1953 C1952 1.387 . S
H1954 C1966 0.930 1_655 S
H1955 C1968 0.930 . S
H1956 C1969 0.930 . S
H1957 C1973 0.959 . S
H1958 C1973 0.959 . S
H1959 C1973 0.961 . S
H1960 C1974 0.960 . S
H1961 C1974 0.961 . S
H1962 C1974 0.959 1_455 S
H1963 C1977 0.929 . S
H1964 C1978 0.931 . S
H1965 C1980 0.930 . S
C1966 H1954 0.930 1_455 S
C1966 C1967 1.399 . S
C1966 C1971 1.399 . S
C1967 C1966 1.399 . S
C1967 C1968 1.376 . S
C1968 H1955 0.930 . S
C1968 C1967 1.376 . S
C1968 C1969 1.388 . S
C1969 H1956 0.930 . S
C1969 C1968 1.388 . S
C1969 C1970 1.390 . S
C1970 C1969 1.390 . S
C1970 C1971 1.395 . S
C1970 C1976 1.465 . S
C1971 C1966 1.399 . S
C1971 C1970 1.395 . S
C1971 C1972 1.515 1_455 S
C1972 C1971 1.515 1_655 S
C1972 C1973 1.502 . S
C1972 C1974 1.561 . S
C1972 C1975 1.526 . S
C1973 H1957 0.959 . S
C1973 H1958 0.959 . S
C1973 H1959 0.961 . S
C1973 C1972 1.502 . S
C1974 H1960 0.960 . S
C1974 H1961 0.961 . S
C1974 H1962 0.959 1_655 S
C1974 C1972 1.561 . S
C1975 C1972 1.526 . S
C1975 C1976 1.396 1_655 S
C1975 C1980 1.390 . S
C1976 C1970 1.465 . S
C1976 C1975 1.396 1_455 S
C1976 C1977 1.399 . S
C1977 H1963 0.929 . S
C1977 C1976 1.399 . S
C1977 C1978 1.385 . S
C1978 H1964 0.931 . S
C1978 C1977 1.385 . S
C1978 C1979 1.389 1_455 S
C1979 C1978 1.389 1_655 S
C1979 C1980 1.387 . S
C1980 H1965 0.930 . S
C1980 C1975 1.390 . S
C1980 C1979 1.387 . S
H1981 C1993 0.930 . S
H1982 C1995 0.930 . S
H1983 C1996 0.930 . S
H1984 C2000 0.959 . S
H1985 C2000 0.959 . S
H1986 C2000 0.961 . S
H1987 C2001 1.047 . S
H1988 C2001 0.915 1_556 S
H1989 C2001 0.907 1_556 S
H1990 C2004 0.929 . S
H1991 C2005 0.931 . S
H1992 C2007 0.930 . S
C1993 H1981 0.930 . S
C1993 C1994 1.399 . S
C1993 C1998 1.399 . S
C1994 C1993 1.399 . S
C1994 C1995 1.376 . S
C1995 H1982 0.930 . S
C1995 C1994 1.376 . S
C1995 C1996 1.388 . S
C1996 H1983 0.930 . S
C1996 C1995 1.388 . S
C1996 C1997 1.390 . S
C1997 C1996 1.390 . S
C1997 C1998 1.394 . S
C1997 C2003 1.465 1_554 S
C1998 C1993 1.399 . S
C1998 C1997 1.394 . S
C1998 C1999 1.516 . S
C1999 C1998 1.516 . S
C1999 C2000 1.502 . S
C1999 C2001 1.584 . S
C1999 C2002 1.526 1_554 S
C2000 H1984 0.959 . S
C2000 H1985 0.959 . S
C2000 H1986 0.961 . S
C2000 C1999 1.502 . S
C2001 H1987 1.047 . S
C2001 H1988 0.915 1_554 S
C2001 H1989 0.907 1_554 S
C2001 C1999 1.584 . S
C2002 C1999 1.526 1_556 S
C2002 C2003 1.396 . S
C2002 C2007 1.390 . S
C2003 C1997 1.465 1_556 S
C2003 C2002 1.396 . S
C2003 C2004 1.399 . S
C2004 H1990 0.929 . S
C2004 C2003 1.399 . S
C2004 C2005 1.385 . S
C2005 H1991 0.931 . S
C2005 C2004 1.385 . S
C2005 C2006 1.389 . S
C2006 C2005 1.389 . S
C2006 C2007 1.387 . S
C2007 H1992 0.930 . S
C2007 C2002 1.390 . S
C2007 C2006 1.387 . S
H2008 C2020 0.930 1_655 S
H2009 C2022 0.930 . S
H2010 C2023 0.930 1_554 S
H2011 C2027 0.959 . S
H2012 C2027 0.959 . S
H2013 C2027 0.961 . S
H2014 C2028 0.960 . S
H2015 C2028 0.961 . S
H2016 C2028 0.959 1_455 S
H2017 C2031 0.929 . S
H2018 C2032 0.931 . S
H2019 C2034 0.930 . S
C2020 H2008 0.930 1_455 S
C2020 C2021 1.399 . S
C2020 C2025 1.399 1_455 S
C2021 C2020 1.399 . S
C2021 C2022 1.376 . S
C2022 H2009 0.930 . S
C2022 C2021 1.376 . S
C2022 C2023 1.388 . S
C2023 H2010 0.930 1_556 S
C2023 C2022 1.388 . S
C2023 C2024 1.390 . S
C2024 C2023 1.390 . S
C2024 C2025 1.394 1_455 S
C2024 C2030 1.465 1_556 S
C2025 C2020 1.399 1_655 S
C2025 C2024 1.394 1_655 S
C2025 C2026 1.516 . S
C2026 C2025 1.516 . S
C2026 C2027 1.502 . S
C2026 C2028 1.561 . S
C2026 C2029 1.526 1_556 S
C2027 H2011 0.959 . S
C2027 H2012 0.959 . S
C2027 H2013 0.961 . S
C2027 C2026 1.502 . S
C2028 H2014 0.960 . S
C2028 H2015 0.961 . S
C2028 H2016 0.959 1_655 S
C2028 C2026 1.561 . S
C2029 C2026 1.526 1_554 S
C2029 C2030 1.396 1_655 S
C2029 C2034 1.390 . S
C2030 C2024 1.465 1_554 S
C2030 C2029 1.396 1_455 S
C2030 C2031 1.399 . S
C2031 H2017 0.929 . S
C2031 C2030 1.399 . S
C2031 C2032 1.385 . S
C2032 H2018 0.931 . S
C2032 C2031 1.385 . S
C2032 C2033 1.389 1_455 S
C2033 C2032 1.389 1_655 S
C2033 C2034 1.387 . S
C2034 H2019 0.930 . S
C2034 C2029 1.390 . S
C2034 C2033 1.387 . S
H2035 C2047 0.930 . S
H2036 C2049 0.930 . S
H2037 C2050 0.930 . S
H2038 C2054 0.959 . S
H2039 C2054 0.959 . S
H2040 C2054 0.961 . S
H2041 C2055 0.960 . S
H2042 C2055 0.961 . S
H2043 C2055 0.959 . S
H2044 C2058 0.929 . S
H2045 C2059 0.931 . S
H2046 C2061 0.930 . S
C2047 H2035 0.930 . S
C2047 C2048 1.399 . S
C2047 C2052 1.399 . S
C2048 C2047 1.399 . S
C2048 C2049 1.376 . S
C2049 H2036 0.930 . S
C2049 C2048 1.376 . S
C2049 C2050 1.388 . S
C2050 H2037 0.930 . S
C2050 C2049 1.388 . S
C2050 C2051 1.390 . S
C2051 C2050 1.390 . S
C2051 C2052 1.394 . S
C2051 C2057 1.465 . S
C2052 C2047 1.399 . S
C2052 C2051 1.394 . S
C2052 C2053 1.516 . S
C2053 C2052 1.516 . S
C2053 C2054 1.502 . S
C2053 C2055 1.561 . S
C2053 C2056 1.526 . S
C2054 H2038 0.959 . S
C2054 H2039 0.959 . S
C2054 H2040 0.961 . S
C2054 C2053 1.502 . S
C2055 H2041 0.960 . S
C2055 H2042 0.961 . S
C2055 H2043 0.959 . S
C2055 C2053 1.561 . S
C2056 C2053 1.526 . S
C2056 C2057 1.396 . S
C2056 C2061 1.390 . S
C2057 C2051 1.465 . S
C2057 C2056 1.396 . S
C2057 C2058 1.399 . S
C2058 H2044 0.929 . S
C2058 C2057 1.399 . S
C2058 C2059 1.385 . S
C2059 H2045 0.931 . S
C2059 C2058 1.385 . S
C2059 C2060 1.389 . S
C2060 C2059 1.389 . S
C2060 C2061 1.387 . S
C2061 H2046 0.930 . S
C2061 C2056 1.390 . S
C2061 C2060 1.387 . S
H2062 C2074 0.930 . S
H2063 C2076 0.930 . S
H2064 C2077 0.930 . S
H2065 C2081 0.959 . S
H2066 C2081 0.959 . S
H2067 C2081 0.961 . S
H2068 C2082 0.960 . S
H2069 C2082 0.961 . S
H2070 C2082 0.959 . S
H2071 C2085 0.962 . S
H2072 C2086 0.931 . S
H2073 C2088 0.930 . S
C2074 H2062 0.930 . S
C2074 C2075 1.399 . S
C2074 C2079 1.399 . S
C2075 C2074 1.399 . S
C2075 C2076 1.376 . S
C2076 H2063 0.930 . S
C2076 C2075 1.376 . S
C2076 C2077 1.388 . S
C2077 H2064 0.930 . S
C2077 C2076 1.388 . S
C2077 C2078 1.390 . S
C2078 C2077 1.390 . S
C2078 C2079 1.394 . S
C2078 C2084 1.465 1_556 S
C2079 C2074 1.399 . S
C2079 C2078 1.394 . S
C2079 C2080 1.516 1_556 S
C2080 C2079 1.516 1_554 S
C2080 C2081 1.502 . S
C2080 C2082 1.561 . S
C2080 C2083 1.526 . S
C2081 H2065 0.959 . S
C2081 H2066 0.959 . S
C2081 H2067 0.961 . S
C2081 C2080 1.502 . S
C2082 H2068 0.960 . S
C2082 H2069 0.961 . S
C2082 H2070 0.959 . S
C2082 C2080 1.561 . S
C2083 C2080 1.526 . S
C2083 C2084 1.396 . S
C2083 C2088 1.390 . S
C2084 C2078 1.465 1_554 S
C2084 C2083 1.396 . S
C2084 C2085 1.399 . S
C2085 H2071 0.962 . S
C2085 C2084 1.399 . S
C2085 C2086 1.385 . S
C2086 H2072 0.931 . S
C2086 C2085 1.385 . S
C2086 C2087 1.389 . S
C2087 C2086 1.389 . S
C2087 C2088 1.387 . S
C2088 H2073 0.930 . S
C2088 C2083 1.390 . S
C2088 C2087 1.387 . S
H2089 C2101 0.930 . S
H2090 C2103 0.930 . S
H2091 C2104 0.930 . S
H2092 C2108 0.959 . S
H2093 C2108 0.959 . S
H2094 C2108 0.961 . S
H2095 C2109 0.960 . S
H2096 C2109 0.961 . S
H2097 C2109 0.959 . S
H2098 C2112 0.929 . S
H2099 C2113 0.931 . S
H2100 C2115 0.930 . S
C2101 H2089 0.930 . S
C2101 C2102 1.399 . S
C2101 C2106 1.399 . S
C2102 C2101 1.399 . S
C2102 C2103 1.376 . S
C2103 H2090 0.930 . S
C2103 C2102 1.376 . S
C2103 C2104 1.388 . S
C2104 H2091 0.930 . S
C2104 C2103 1.388 . S
C2104 C2105 1.390 . S
C2105 C2104 1.390 . S
C2105 C2106 1.394 . S
C2105 C2111 1.465 . S
C2106 C2101 1.399 . S
C2106 C2105 1.394 . S
C2106 C2107 1.516 . S
C2107 C2106 1.516 . S
C2107 C2108 1.502 . S
C2107 C2109 1.561 . S
C2107 C2110 1.526 . S
C2108 H2092 0.959 . S
C2108 H2093 0.959 . S
C2108 H2094 0.961 . S
C2108 C2107 1.502 . S
C2109 H2095 0.960 . S
C2109 H2096 0.961 . S
C2109 H2097 0.959 . S
C2109 C2107 1.561 . S
C2110 C2107 1.526 . S
C2110 C2111 1.396 . S
C2110 C2115 1.390 . S
C2111 C2105 1.465 . S
C2111 C2110 1.396 . S
C2111 C2112 1.399 . S
C2112 H2098 0.929 . S
C2112 C2111 1.399 . S
C2112 C2113 1.385 . S
C2113 H2099 0.931 . S
C2113 C2112 1.385 . S
C2113 C2114 1.389 . S
C2114 C2113 1.389 . S
C2114 C2115 1.387 . S
C2115 H2100 0.930 . S
C2115 C2110 1.390 . S
C2115 C2114 1.387 . S
H2116 C2128 0.930 . S
H2117 C2130 0.930 . S
H2118 C2131 0.930 1_554 S
H2119 C2135 0.959 1_545 S
H2120 C2135 0.959 . S
H2121 C2135 0.961 . S
H2122 C2136 0.960 . S
H2123 C2136 0.961 . S
H2124 C2136 0.959 . S
H2125 C2139 0.926 1_545 S
H2126 C2140 0.931 . S
H2127 C2142 0.930 . S
C2128 H2116 0.930 . S
C2128 C2129 1.399 . S
C2128 C2133 1.399 . S
C2129 C2128 1.399 . S
C2129 C2130 1.376 . S
C2130 H2117 0.930 . S
C2130 C2129 1.376 . S
C2130 C2131 1.388 . S
C2131 H2118 0.930 1_556 S
C2131 C2130 1.388 . S
C2131 C2132 1.390 . S
C2132 C2131 1.390 . S
C2132 C2133 1.394 . S
C2132 C2138 1.465 1_546 S
C2133 C2128 1.399 . S
C2133 C2132 1.394 . S
C2133 C2134 1.516 1_545 S
C2134 C2133 1.516 1_565 S
C2134 C2135 1.502 . S
C2134 C2136 1.561 . S
C2134 C2137 1.526 1_556 S
C2135 H2119 0.959 1_565 S
C2135 H2120 0.959 . S
C2135 H2121 0.961 . S
C2135 C2134 1.502 . S
C2136 H2122 0.960 . S
C2136 H2123 0.961 . S
C2136 H2124 0.959 . S
C2136 C2134 1.561 . S
C2137 C2134 1.526 1_554 S
C2137 C2138 1.396 . S
C2137 C2142 1.390 . S
C2138 C2132 1.465 1_564 S
C2138 C2137 1.396 . S
C2138 C2139 1.399 . S
C2139 H2125 0.926 1_565 S
C2139 C2138 1.399 . S
C2139 C2140 1.385 . S
C2140 H2126 0.931 . S
C2140 C2139 1.385 . S
C2140 C2141 1.389 . S
C2141 C2140 1.389 . S
C2141 C2142 1.387 . S
C2142 H2127 0.930 . S
C2142 C2137 1.390 . S
C2142 C2141 1.387 . S
H2143 C2155 0.930 . S
H2144 C2157 0.930 . S
H2145 C2158 0.930 . S
H2146 C2162 0.959 . S
H2147 C2162 0.959 . S
H2148 C2162 0.961 . S
H2149 C2163 0.960 . S
H2150 C2163 0.961 . S
H2151 C2163 0.959 . S
H2152 C2166 0.929 . S
H2153 C2167 0.931 . S
H2154 C2169 0.930 . S
C2155 H2143 0.930 . S
C2155 C2156 1.399 . S
C2155 C2160 1.399 . S
C2156 C2155 1.399 . S
C2156 C2157 1.376 . S
C2157 H2144 0.930 . S
C2157 C2156 1.376 . S
C2157 C2158 1.388 . S
C2158 H2145 0.930 . S
C2158 C2157 1.388 . S
C2158 C2159 1.390 . S
C2159 C2158 1.390 . S
C2159 C2160 1.394 . S
C2159 C2165 1.465 . S
C2160 C2155 1.399 . S
C2160 C2159 1.394 . S
C2160 C2161 1.516 . S
C2161 C2160 1.516 . S
C2161 C2162 1.502 . S
C2161 C2163 1.561 . S
C2161 C2164 1.526 . S
C2162 H2146 0.959 . S
C2162 H2147 0.959 . S
C2162 H2148 0.961 . S
C2162 C2161 1.502 . S
C2163 H2149 0.960 . S
C2163 H2150 0.961 . S
C2163 H2151 0.959 . S
C2163 C2161 1.561 . S
C2164 C2161 1.526 . S
C2164 C2165 1.396 . S
C2164 C2169 1.390 . S
C2165 C2159 1.465 . S
C2165 C2164 1.396 . S
C2165 C2166 1.399 . S
C2166 H2152 0.929 . S
C2166 C2165 1.399 . S
C2166 C2167 1.385 . S
C2167 H2153 0.931 . S
C2167 C2166 1.385 . S
C2167 C2168 1.389 . S
C2168 C2167 1.389 . S
C2168 C2169 1.387 . S
C2169 H2154 0.930 . S
C2169 C2164 1.390 . S
C2169 C2168 1.387 . S
H2170 C2182 0.930 . S
H2171 C2184 0.930 . S
H2172 C2185 0.930 . S
H2173 C2189 0.959 . S
H2174 C2189 0.959 . S
H2175 C2189 0.961 . S
H2176 C2190 0.960 . S
H2177 C2190 0.961 . S
H2178 C2190 0.959 . S
H2179 C2193 0.929 . S
H2180 C2194 0.931 . S
H2181 C2196 0.930 . S
C2182 H2170 0.930 . S
C2182 C2183 1.399 . S
C2182 C2187 1.399 . S
C2183 C2182 1.399 . S
C2183 C2184 1.376 . S
C2184 H2171 0.930 . S
C2184 C2183 1.376 . S
C2184 C2185 1.388 . S
C2185 H2172 0.930 . S
C2185 C2184 1.388 . S
C2185 C2186 1.390 . S
C2186 C2185 1.390 . S
C2186 C2187 1.394 . S
C2186 C2192 1.465 . S
C2187 C2182 1.399 . S
C2187 C2186 1.394 . S
C2187 C2188 1.516 . S
C2188 C2187 1.516 . S
C2188 C2189 1.502 . S
C2188 C2190 1.561 . S
C2188 C2191 1.526 . S
C2189 H2173 0.959 . S
C2189 H2174 0.959 . S
C2189 H2175 0.961 . S
C2189 C2188 1.502 . S
C2190 H2176 0.960 . S
C2190 H2177 0.961 . S
C2190 H2178 0.959 . S
C2190 C2188 1.561 . S
C2191 C2188 1.526 . S
C2191 C2192 1.396 . S
C2191 C2196 1.390 . S
C2192 C2186 1.465 . S
C2192 C2191 1.396 . S
C2192 C2193 1.399 . S
C2193 H2179 0.929 . S
C2193 C2192 1.399 . S
C2193 C2194 1.385 . S
C2194 H2180 0.931 . S
C2194 C2193 1.385 . S
C2194 C2195 1.389 . S
C2195 C2194 1.389 . S
C2195 C2196 1.387 . S
C2196 H2181 0.930 . S
C2196 C2191 1.390 . S
C2196 C2195 1.387 . S
H2197 C2209 0.930 . S
H2198 C2211 0.930 . S
H2199 C2212 0.930 . S
H2200 C2216 0.959 . S
H2201 C2216 0.959 . S
H2202 C2216 0.961 . S
H2203 C2217 0.960 . S
H2204 C2217 0.961 . S
H2205 C2217 0.959 . S
H2206 C2220 0.929 . S
H2207 C2221 0.931 . S
H2208 C2223 0.930 . S
C2209 H2197 0.930 . S
C2209 C2210 1.399 . S
C2209 C2214 1.399 . S
C2210 C2209 1.399 . S
C2210 C2211 1.376 . S
C2211 H2198 0.930 . S
C2211 C2210 1.376 . S
C2211 C2212 1.388 . S
C2212 H2199 0.930 . S
C2212 C2211 1.388 . S
C2212 C2213 1.390 . S
C2213 C2212 1.390 . S
C2213 C2214 1.394 . S
C2213 C2219 1.465 . S
C2214 C2209 1.399 . S
C2214 C2213 1.394 . S
C2214 C2215 1.516 . S
C2215 C2214 1.516 . S
C2215 C2216 1.502 . S
C2215 C2217 1.561 . S
C2215 C2218 1.526 . S
C2216 H2200 0.959 . S
C2216 H2201 0.959 . S
C2216 H2202 0.961 . S
C2216 C2215 1.502 . S
C2217 H2203 0.960 . S
C2217 H2204 0.961 . S
C2217 H2205 0.959 . S
C2217 C2215 1.561 . S
C2218 C2215 1.526 . S
C2218 C2219 1.396 . S
C2218 C2223 1.390 . S
C2219 C2213 1.465 . S
C2219 C2218 1.396 . S
C2219 C2220 1.399 . S
C2220 H2206 0.929 . S
C2220 C2219 1.399 . S
C2220 C2221 1.385 . S
C2221 H2207 0.931 . S
C2221 C2220 1.385 . S
C2221 C2222 1.389 . S
C2222 C2221 1.389 . S
C2222 C2223 1.387 . S
C2223 H2208 0.930 . S
C2223 C2218 1.390 . S
C2223 C2222 1.387 . S
C509 C27 0.799 . S
C521 C373 0.645 . S
C536 C1 0.692 1_565 S
C548 C399 0.731 . S
C563 C58 0.799 . S
C575 C404 0.644 . S
C590 C32 0.705 . S
C602 C430 0.763 . S
C617 C461 0.789 . S
C629 C63 0.670 . S
C644 C89 0.798 1_545 S
C656 C435 0.651 . S
C671 C94 0.732 . S
C683 C492 0.692 . S
C698 C120 0.799 . S
C710 C466 0.645 . S
C725 C249 0.703 1_565 S
C737 C151 0.720 . S
C752 C275 0.674 . S
C764 C125 0.749 . S
C779 C280 0.717 . S
C791 C182 0.753 . S
C806 C306 0.796 . S
C818 C156 0.642 . S
C833 C337 0.799 1_545 S
C845 C187 0.646 . S
C860 C213 0.769 . S
C872 C311 0.658 . S
C887 C368 0.653 . S
C899 C218 0.795 . S
C914 C244 0.640 . S
C926 C342 0.793 . S
C941 C2 1.942 1_565 S
C953 C382 1.970 . S
C968 C10 1.962 . S
C980 C374 1.934 . S
C995 C33 1.924 . S
C1007 C413 1.974 . S
C1022 C405 1.978 . S
C1034 C41 1.931 1_565 S
C1049 C436 1.977 . S
C1061 C72 1.933 1_545 S
C1076 C444 1.959 . S
C1088 C64 1.954 . S
C1103 C467 1.973 . S
C1115 C103 1.926 . S
C1130 C475 1.967 . S
C1142 C95 1.946 1_545 S
C1157 C126 1.980 . S
C1169 C258 1.929 . S
C1184 C134 1.974 . S
C1196 C250 1.926 1_565 S
C1211 C157 1.978 . S
C1223 C289 1.932 1_565 S
C1238 C165 1.940 . S
C1250 C281 1.956 . S
C1265 C312 1.979 . S
C1277 C196 1.930 . S
C1292 C320 1.961 1_545 S
C1304 C188 1.953 . S
C1319 C343 1.925 1_545 S
C1331 C227 1.973 . S
C1346 C219 1.978 . S
C1358 C351 1.931 . S
C1373 C24 1.842 . S
C1385 C290 1.815 . S
C1400 C303 1.844 . S
C1412 C11 1.813 . S
C1427 C259 1.815 . S
C1439 C55 1.810 . S
C1454 C272 1.840 . S
C1466 C42 1.816 . S
C1481 C359 1.756 . S
C1493 C62 1.848 . S
C1508 C80 1.779 . S
C1520 C341 1.828 . S
C1535 C93 1.809 . S
C1547 C328 1.824 . S
C1562 C111 1.766 . S
C1574 C310 1.838 . S
C1589 C414 1.808 . S
C1601 C148 1.809 . S
C1616 C135 1.755 . S
C1628 C427 1.856 . S
C1643 C179 1.828 . S
C1655 C383 1.760 . S
C1670 C396 1.843 . S
C1682 C166 1.814 . S
C1697 C483 1.750 . S
C1709 C186 1.858 . S
C1724 C465 1.859 . S
C1736 C204 1.763 . S
C1751 C452 1.766 . S
C1763 C217 1.838 . S
C1778 C434 1.811 . S
C1790 C235 1.809 . S
C1805 C445 2.103 . S
C1817 C18 2.078 . S
C1832 C86 1.233 . S
C1844 C0 1.179 . S
C1859 C352 2.079 . S
C1871 C49 2.087 . S
C1886 C31 1.179 . S
C1898 C241 1.268 . S
C1913 C390 2.089 . S
C1925 C73 2.093 . S
C1940 C104 2.078 . S
C1952 C297 2.088 . S
C1967 C155 1.242 . S
C1979 C117 1.170 . S
C1994 C321 2.068 . S
C2006 C142 2.110 . S
C2021 C124 1.236 . S
C2033 C210 1.176 . S
C2048 C173 2.097 . S
C2060 C476 2.070 . S
C2075 C266 2.111 . S
C2087 C197 2.067 . S
C2102 C421 2.087 . S
C2114 C228 2.095 . S
C2129 C248 1.221 . S
C2141 C334 1.190 . S
C2156 C279 1.259 . S
C2168 C489 1.156 . S
C2183 C403 1.251 . S
C2195 C365 1.202 . S
C2210 C458 1.287 . S
C2222 C372 1.147 . S
