# Generated by pormake.
# Topology ukj, (4)-cn, num edge types: 1
# Building blocks:
#     Node 0, Type 0, BuildingBlock: CEKHIL_clean_sbu_0, # of connection points: 4
#     Node 1, Type 0, BuildingBlock: CEKHIL_clean_sbu_0, # of connection points: 4
#     Node 2, Type 0, BuildingBlock: CEKHIL_clean_sbu_0, # of connection points: 4
#     Node 3, Type 0, BuildingBlock: CEKHIL_clean_sbu_0, # of connection points: 4
#     Node 4, Type 0, BuildingBlock: CEKHIL_clean_sbu_0, # of connection points: 4
#     Node 5, Type 0, BuildingBlock: CEKHIL_clean_sbu_0, # of connection points: 4
#     Node 6, Type 0, BuildingBlock: CEKHIL_clean_sbu_0, # of connection points: 4
#     Node 7, Type 0, BuildingBlock: CEKHIL_clean_sbu_0, # of connection points: 4
#     Node 8, Type 0, BuildingBlock: CEKHIL_clean_sbu_0, # of connection points: 4
#     Node 9, Type 0, BuildingBlock: CEKHIL_clean_sbu_0, # of connection points: 4
#     Node 10, Type 0, BuildingBlock: CEKHIL_clean_sbu_0, # of connection points: 4
#     Node 11, Type 0, BuildingBlock: CEKHIL_clean_sbu_0, # of connection points: 4
#     Node 12, Type 0, BuildingBlock: CEKHIL_clean_sbu_0, # of connection points: 4
#     Node 13, Type 0, BuildingBlock: CEKHIL_clean_sbu_0, # of connection points: 4
#     Node 14, Type 0, BuildingBlock: CEKHIL_clean_sbu_0, # of connection points: 4
#     Node 15, Type 0, BuildingBlock: CEKHIL_clean_sbu_0, # of connection points: 4
#     Node 16, Type 0, BuildingBlock: CEKHIL_clean_sbu_0, # of connection points: 4
#     Node 17, Type 0, BuildingBlock: CEKHIL_clean_sbu_0, # of connection points: 4
#     Node 18, Type 0, BuildingBlock: CEKHIL_clean_sbu_0, # of connection points: 4
#     Node 19, Type 0, BuildingBlock: CEKHIL_clean_sbu_0, # of connection points: 4
#     Node 20, Type 0, BuildingBlock: CEKHIL_clean_sbu_0, # of connection points: 4
#     Node 21, Type 0, BuildingBlock: CEKHIL_clean_sbu_0, # of connection points: 4
#     Node 22, Type 0, BuildingBlock: CEKHIL_clean_sbu_0, # of connection points: 4
#     Node 23, Type 0, BuildingBlock: CEKHIL_clean_sbu_0, # of connection points: 4
#     Node 24, Type 0, BuildingBlock: CEKHIL_clean_sbu_0, # of connection points: 4
#     Node 25, Type 0, BuildingBlock: CEKHIL_clean_sbu_0, # of connection points: 4
#     Node 26, Type 0, BuildingBlock: CEKHIL_clean_sbu_0, # of connection points: 4
#     Node 27, Type 0, BuildingBlock: CEKHIL_clean_sbu_0, # of connection points: 4
#     Node 28, Type 0, BuildingBlock: CEKHIL_clean_sbu_0, # of connection points: 4
#     Node 29, Type 0, BuildingBlock: CEKHIL_clean_sbu_0, # of connection points: 4
#     Node 30, Type 0, BuildingBlock: CEKHIL_clean_sbu_0, # of connection points: 4
#     Node 31, Type 0, BuildingBlock: CEKHIL_clean_sbu_0, # of connection points: 4
#     Edge 32, Type (0, 0), BuildingBlock: ZUJKAS_clean_linker_0, # of connection points: 2
#     Edge 33, Type (0, 0), BuildingBlock: ZUJKAS_clean_linker_0, # of connection points: 2
#     Edge 34, Type (0, 0), BuildingBlock: ZUJKAS_clean_linker_0, # of connection points: 2
#     Edge 35, Type (0, 0), BuildingBlock: ZUJKAS_clean_linker_0, # of connection points: 2
#     Edge 36, Type (0, 0), BuildingBlock: ZUJKAS_clean_linker_0, # of connection points: 2
#     Edge 37, Type (0, 0), BuildingBlock: ZUJKAS_clean_linker_0, # of connection points: 2
#     Edge 38, Type (0, 0), BuildingBlock: ZUJKAS_clean_linker_0, # of connection points: 2
#     Edge 39, Type (0, 0), BuildingBlock: ZUJKAS_clean_linker_0, # of connection points: 2
#     Edge 40, Type (0, 0), BuildingBlock: ZUJKAS_clean_linker_0, # of connection points: 2
#     Edge 41, Type (0, 0), BuildingBlock: ZUJKAS_clean_linker_0, # of connection points: 2
#     Edge 42, Type (0, 0), BuildingBlock: ZUJKAS_clean_linker_0, # of connection points: 2
#     Edge 43, Type (0, 0), BuildingBlock: ZUJKAS_clean_linker_0, # of connection points: 2
#     Edge 44, Type (0, 0), BuildingBlock: ZUJKAS_clean_linker_0, # of connection points: 2
#     Edge 45, Type (0, 0), BuildingBlock: ZUJKAS_clean_linker_0, # of connection points: 2
#     Edge 46, Type (0, 0), BuildingBlock: ZUJKAS_clean_linker_0, # of connection points: 2
#     Edge 47, Type (0, 0), BuildingBlock: ZUJKAS_clean_linker_0, # of connection points: 2
#     Edge 48, Type (0, 0), BuildingBlock: ZUJKAS_clean_linker_0, # of connection points: 2
#     Edge 49, Type (0, 0), BuildingBlock: ZUJKAS_clean_linker_0, # of connection points: 2
#     Edge 50, Type (0, 0), BuildingBlock: ZUJKAS_clean_linker_0, # of connection points: 2
#     Edge 51, Type (0, 0), BuildingBlock: ZUJKAS_clean_linker_0, # of connection points: 2
#     Edge 52, Type (0, 0), BuildingBlock: ZUJKAS_clean_linker_0, # of connection points: 2
#     Edge 53, Type (0, 0), BuildingBlock: ZUJKAS_clean_linker_0, # of connection points: 2
#     Edge 54, Type (0, 0), BuildingBlock: ZUJKAS_clean_linker_0, # of connection points: 2
#     Edge 55, Type (0, 0), BuildingBlock: ZUJKAS_clean_linker_0, # of connection points: 2
#     Edge 56, Type (0, 0), BuildingBlock: ZUJKAS_clean_linker_0, # of connection points: 2
#     Edge 57, Type (0, 0), BuildingBlock: ZUJKAS_clean_linker_0, # of connection points: 2
#     Edge 58, Type (0, 0), BuildingBlock: ZUJKAS_clean_linker_0, # of connection points: 2
#     Edge 59, Type (0, 0), BuildingBlock: ZUJKAS_clean_linker_0, # of connection points: 2
#     Edge 60, Type (0, 0), BuildingBlock: ZUJKAS_clean_linker_0, # of connection points: 2
#     Edge 61, Type (0, 0), BuildingBlock: ZUJKAS_clean_linker_0, # of connection points: 2
#     Edge 62, Type (0, 0), BuildingBlock: ZUJKAS_clean_linker_0, # of connection points: 2
#     Edge 63, Type (0, 0), BuildingBlock: ZUJKAS_clean_linker_0, # of connection points: 2
#     Edge 64, Type (0, 0), BuildingBlock: ZUJKAS_clean_linker_0, # of connection points: 2
#     Edge 65, Type (0, 0), BuildingBlock: ZUJKAS_clean_linker_0, # of connection points: 2
#     Edge 66, Type (0, 0), BuildingBlock: ZUJKAS_clean_linker_0, # of connection points: 2
#     Edge 67, Type (0, 0), BuildingBlock: ZUJKAS_clean_linker_0, # of connection points: 2
#     Edge 68, Type (0, 0), BuildingBlock: ZUJKAS_clean_linker_0, # of connection points: 2
#     Edge 69, Type (0, 0), BuildingBlock: ZUJKAS_clean_linker_0, # of connection points: 2
#     Edge 70, Type (0, 0), BuildingBlock: ZUJKAS_clean_linker_0, # of connection points: 2
#     Edge 71, Type (0, 0), BuildingBlock: ZUJKAS_clean_linker_0, # of connection points: 2
#     Edge 72, Type (0, 0), BuildingBlock: ZUJKAS_clean_linker_0, # of connection points: 2
#     Edge 73, Type (0, 0), BuildingBlock: ZUJKAS_clean_linker_0, # of connection points: 2
#     Edge 74, Type (0, 0), BuildingBlock: ZUJKAS_clean_linker_0, # of connection points: 2
#     Edge 75, Type (0, 0), BuildingBlock: ZUJKAS_clean_linker_0, # of connection points: 2
#     Edge 76, Type (0, 0), BuildingBlock: ZUJKAS_clean_linker_0, # of connection points: 2
#     Edge 77, Type (0, 0), BuildingBlock: ZUJKAS_clean_linker_0, # of connection points: 2
#     Edge 78, Type (0, 0), BuildingBlock: ZUJKAS_clean_linker_0, # of connection points: 2
#     Edge 79, Type (0, 0), BuildingBlock: ZUJKAS_clean_linker_0, # of connection points: 2
#     Edge 80, Type (0, 0), BuildingBlock: ZUJKAS_clean_linker_0, # of connection points: 2
#     Edge 81, Type (0, 0), BuildingBlock: ZUJKAS_clean_linker_0, # of connection points: 2
#     Edge 82, Type (0, 0), BuildingBlock: ZUJKAS_clean_linker_0, # of connection points: 2
#     Edge 83, Type (0, 0), BuildingBlock: ZUJKAS_clean_linker_0, # of connection points: 2
#     Edge 84, Type (0, 0), BuildingBlock: ZUJKAS_clean_linker_0, # of connection points: 2
#     Edge 85, Type (0, 0), BuildingBlock: ZUJKAS_clean_linker_0, # of connection points: 2
#     Edge 86, Type (0, 0), BuildingBlock: ZUJKAS_clean_linker_0, # of connection points: 2
#     Edge 87, Type (0, 0), BuildingBlock: ZUJKAS_clean_linker_0, # of connection points: 2
#     Edge 88, Type (0, 0), BuildingBlock: ZUJKAS_clean_linker_0, # of connection points: 2
#     Edge 89, Type (0, 0), BuildingBlock: ZUJKAS_clean_linker_0, # of connection points: 2
#     Edge 90, Type (0, 0), BuildingBlock: ZUJKAS_clean_linker_0, # of connection points: 2
#     Edge 91, Type (0, 0), BuildingBlock: ZUJKAS_clean_linker_0, # of connection points: 2
#     Edge 92, Type (0, 0), BuildingBlock: ZUJKAS_clean_linker_0, # of connection points: 2
#     Edge 93, Type (0, 0), BuildingBlock: ZUJKAS_clean_linker_0, # of connection points: 2
#     Edge 94, Type (0, 0), BuildingBlock: ZUJKAS_clean_linker_0, # of connection points: 2
#     Edge 95, Type (0, 0), BuildingBlock: ZUJKAS_clean_linker_0, # of connection points: 2
# Relax obj value: 0.081
# Max RMSD: 0.175
# Mean RMSD: 0.174
data_MOF--net-ukj--node1-CEKHIL_clean_sbu_0--edge1-ZUJKAS_clean_linker_0
_symmetry_space_group_name_H-M    P1
_symmetry_Int_Tables_number       1
_symmetry_cell_setting            triclinic
loop_
_symmetry_equiv_pos_as_xyz
'x, y, z'
_cell_length_a     40.210646
_cell_length_b     82.117743
_cell_length_c     72.830781
_cell_angle_alpha  89.994782
_cell_angle_beta   90.005386
_cell_angle_gamma 90.040372
loop_
_atom_site_label
_atom_site_type_symbol
_atom_site_fract_x
_atom_site_fract_y
_atom_site_fract_z
_atom_type_partial_charge
Co0 Co 0.14185 0.34319 0.2445 0.0
O1 O 0.09809 0.33406 0.24363 0.0
O2 O 0.14275 0.32223 0.23195 0.0
C3 C 0.1401 0.34953 0.2744 0.0
O4 O 0.19134 0.34941 0.24374 0.0
Co5 Co 0.14928 0.37995 0.25385 0.0
O6 O 0.19557 0.37321 0.25895 0.0
C7 C 0.13138 0.37017 0.21623 0.0
C8 C 0.11098 0.32158 0.23546 0.0
C9 C 0.20869 0.36069 0.25158 0.0
O10 O 0.13338 0.35509 0.22084 0.0
O11 O 0.13584 0.38201 0.2274 0.0
O12 O 0.14784 0.33491 0.2692 0.0
O13 O 0.13061 0.35935 0.26154 0.0
Co14 Co 0.12073 0.90829 0.24309 0.0
O15 O 0.16401 0.91783 0.24136 0.0
O16 O 0.1177 0.93017 0.23274 0.0
C17 C 0.12606 0.8997 0.27207 0.0
O18 O 0.0716 0.90156 0.24369 0.0
Co19 Co 0.11691 0.87084 0.24884 0.0
O20 O 0.07042 0.87619 0.2555 0.0
C21 C 0.12819 0.88383 0.21167 0.0
C22 C 0.14987 0.93077 0.23495 0.0
C23 C 0.05578 0.88918 0.25033 0.0
O24 O 0.12582 0.8984 0.21801 0.0
O25 O 0.12726 0.87113 0.22187 0.0
O26 O 0.11739 0.91459 0.26865 0.0
O27 O 0.13491 0.89105 0.25807 0.0
Co28 Co 0.14382 0.90912 0.98789 0.0
O29 O 0.1008 0.91855 0.98444 0.0
O30 O 0.14233 0.93092 -0.0014 0.0
C31 C 0.14963 0.90042 0.95886 0.0
O32 O 0.19215 0.90254 -0.00698 0.0
Co33 Co 0.14851 0.87152 0.98309 0.0
O34 O 0.19659 0.87572 0.98647 0.0
C35 C 0.12103 0.88481 0.01721 0.0
C36 C 0.11171 0.93143 -0.0073 0.0
C37 C 0.2092 0.88928 0.9914 0.0
O38 O 0.12891 0.8992 0.01177 0.0
O39 O 0.12421 0.87214 0.00712 0.0
O40 O 0.1567 0.91536 0.96317 0.0
O41 O 0.13595 0.89186 0.97169 0.0
Co42 Co 0.11999 0.34321 -0.0066 0.0
O43 O 0.16317 0.3335 -0.00537 0.0
O44 O 0.11767 0.32248 0.00638 0.0
C45 C 0.1223 0.34899 0.96343 0.0
O46 O 0.0709 0.3501 -0.0061 0.0
Co47 Co 0.11471 0.37982 0.98318 0.0
O48 O 0.06797 0.37369 0.9782 0.0
C49 C 0.13077 0.37051 0.0212 0.0
C50 C 0.14945 0.32137 0.00304 0.0
C51 C 0.05416 0.36147 0.98584 0.0
O52 O 0.12884 0.35538 0.01683 0.0
O53 O 0.12676 0.38221 0.0098 0.0
O54 O 0.11344 0.3346 0.9689 0.0
O55 O 0.13256 0.3589 0.97603 0.0
Co56 Co 0.87411 0.65768 0.74021 0.0
O57 O 0.91641 0.66821 0.74197 0.0
O58 O 0.86896 0.67943 0.75064 0.0
C59 C 0.88065 0.6494 0.71113 0.0
O60 O 0.82565 0.64983 0.73966 0.0
Co61 Co 0.87385 0.62025 0.73413 0.0
O62 O 0.82628 0.62418 0.7287 0.0
C63 C 0.88421 0.63326 0.77139 0.0
C64 C 0.90104 0.68079 0.74842 0.0
C65 C 0.81066 0.63692 0.73376 0.0
O66 O 0.88023 0.64781 0.76523 0.0
O67 O 0.88461 0.62065 0.76105 0.0
O68 O 0.8702 0.66399 0.71466 0.0
O69 O 0.8901 0.64088 0.72512 0.0
Co70 Co 0.88032 0.09255 0.74198 0.0
O71 O 0.83734 0.08268 0.74391 0.0
O72 O 0.884 0.07097 0.75305 0.0
C73 C 0.8746 0.10031 0.71269 0.0
O74 O 0.92928 0.09964 0.74134 0.0
Co75 Co 0.88303 0.12982 0.73496 0.0
O76 O 0.93025 0.12499 0.72953 0.0
C77 C 0.87127 0.11776 0.77247 0.0
C78 C 0.85188 0.07004 0.75079 0.0
C79 C 0.94507 0.11214 0.73497 0.0
O80 O 0.87451 0.10305 0.76669 0.0
O81 O 0.87188 0.13017 0.76184 0.0
O82 O 0.88405 0.08563 0.71663 0.0
O83 O 0.86556 0.10926 0.72642 0.0
Co84 Co 0.86375 0.09348 -0.00417 0.0
O85 O 0.90682 0.08401 -0.0011 0.0
O86 O 0.86485 0.0717 0.98507 0.0
C87 C 0.85859 0.10217 0.02489 0.0
O88 O 0.81531 0.10011 0.99115 0.0
Co89 Co 0.85941 0.13111 0.00073 0.0
O90 O 0.81121 0.12689 -0.00199 0.0
C91 C 0.88565 0.11783 0.96632 0.0
C92 C 0.89562 0.07115 0.99072 0.0
C93 C 0.79836 0.11336 -0.00688 0.0
O94 O 0.878 0.10343 0.97184 0.0
O95 O 0.88277 0.1305 0.97642 0.0
O96 O 0.85151 0.08721 0.02064 0.0
O97 O 0.87205 0.11072 0.01198 0.0
Co98 Co 0.88667 0.65482 -0.00595 0.0
O99 O 0.8449 0.66546 -0.00236 0.0
O100 O 0.8876 0.67651 0.98309 0.0
C101 C 0.89282 0.64621 0.02298 0.0
O102 O 0.93401 0.64687 0.98867 0.0
Co103 Co 0.88721 0.61723 -0.00081 0.0
O104 O 0.93577 0.62021 -0.00376 0.0
C105 C 0.86122 0.63089 0.96492 0.0
C106 C 0.85716 0.67789 0.98909 0.0
C107 C 0.94978 0.6333 0.99084 0.0
O108 O 0.87005 0.64514 0.97038 0.0
O109 O 0.86358 0.61816 0.97497 0.0
O110 O 0.90125 0.66093 0.01847 0.0
O111 O 0.87726 0.63794 0.01056 0.0
Co112 Co 0.13616 0.84399 0.74174 0.0
O113 O 0.09305 0.83414 0.74112 0.0
O114 O 0.13832 0.82297 0.72933 0.0
C115 C 0.13506 0.85058 0.7716 0.0
O116 O 0.18502 0.85123 0.74069 0.0
Co117 Co 0.13844 0.88118 0.75031 0.0
O118 O 0.18679 0.87693 0.75167 0.0
C119 C 0.12032 0.87029 0.71322 0.0
C120 C 0.10659 0.82189 0.73287 0.0
C121 C 0.20115 0.86412 0.74573 0.0
O122 O 0.1266 0.85552 0.71796 0.0
O123 O 0.12123 0.88227 0.72447 0.0
O124 O 0.14329 0.836 0.76651 0.0
O125 O 0.12411 0.86001 0.75873 0.0
Co126 Co 0.11617 0.40561 0.74607 0.0
O127 O 0.15725 0.41669 0.7502 0.0
O128 O 0.11396 0.42787 0.73644 0.0
C129 C 0.11229 0.39568 0.77463 0.0
O130 O 0.06912 0.39713 0.74064 0.0
Co131 Co 0.11798 0.36785 0.74944 0.0
O132 O 0.06913 0.37042 0.74797 0.0
C133 C 0.1424 0.3833 0.7157 0.0
C134 C 0.14418 0.42943 0.74275 0.0
C135 C 0.0541 0.38335 0.74293 0.0
O136 O 0.13274 0.39723 0.72176 0.0
O137 O 0.14117 0.37024 0.72526 0.0
O138 O 0.10207 0.41032 0.77104 0.0
O139 O 0.12747 0.38826 0.76145 0.0
Co140 Co 0.13415 0.40962 0.49039 0.0
O141 O 0.09025 0.41842 0.49247 0.0
O142 O 0.13593 0.43133 0.50114 0.0
C143 C 0.12897 0.40126 0.46126 0.0
O144 O 0.18374 0.4037 0.48956 0.0
Co145 Co 0.14047 0.37222 0.48408 0.0
O146 O 0.18651 0.37847 0.47741 0.0
C147 C 0.12779 0.38464 0.52134 0.0
C148 C 0.10372 0.43147 0.49907 0.0
C149 C 0.20028 0.39164 0.48275 0.0
O150 O 0.12996 0.3993 0.51526 0.0
O151 O 0.12924 0.37207 0.51097 0.0
O152 O 0.13631 0.4163 0.46489 0.0
O153 O 0.12135 0.3923 0.47524 0.0
Co154 Co 0.1169 0.84533 0.49069 0.0
O155 O 0.16008 0.83564 0.49196 0.0
O156 O 0.11434 0.82418 0.50282 0.0
C157 C 0.12027 0.85209 0.46098 0.0
O158 O 0.06788 0.8522 0.49099 0.0
Co159 Co 0.11275 0.88227 0.48211 0.0
O160 O 0.06552 0.8768 0.47736 0.0
C161 C 0.12886 0.87164 0.51966 0.0
C162 C 0.14625 0.82324 0.4998 0.0
C163 C 0.05143 0.86417 0.48392 0.0
O164 O 0.12481 0.85673 0.5147 0.0
O165 O 0.12707 0.88365 0.50849 0.0
O166 O 0.11117 0.83755 0.46574 0.0
O167 O 0.13014 0.86153 0.4741 0.0
Co168 Co 0.87097 0.15942 0.24161 0.0
O169 O 0.91442 0.16888 0.24081 0.0
O170 O 0.8708 0.18056 0.2538 0.0
C171 C 0.86885 0.15247 0.21187 0.0
O172 O 0.82207 0.15268 0.24423 0.0
Co173 Co 0.86691 0.12212 0.23381 0.0
O174 O 0.81858 0.12625 0.23572 0.0
C175 C 0.88776 0.13334 0.27029 0.0
C176 C 0.90217 0.18132 0.24932 0.0
C177 C 0.80536 0.13952 0.24112 0.0
O178 O 0.88214 0.14811 0.2653 0.0
O179 O 0.88553 0.12118 0.25935 0.0
O180 O 0.86173 0.16719 0.21698 0.0
O181 O 0.88076 0.14309 0.22453 0.0
Co182 Co 0.88769 0.59542 0.24053 0.0
O183 O 0.84569 0.58467 0.23838 0.0
O184 O 0.88939 0.57421 0.25257 0.0
C185 C 0.89199 0.60273 0.21105 0.0
O186 O 0.93533 0.60358 0.24456 0.0
Co187 Co 0.88808 0.63273 0.23335 0.0
O188 O 0.93683 0.62963 0.23472 0.0
C189 C 0.86543 0.62062 0.26909 0.0
C190 C 0.85859 0.57258 0.24724 0.0
C191 C 0.95114 0.6169 0.24091 0.0
O192 O 0.87281 0.60608 0.26397 0.0
O193 O 0.86763 0.633 0.25848 0.0
O194 O 0.90059 0.58823 0.21623 0.0
O195 O 0.87725 0.61158 0.22329 0.0
Co196 Co 0.86453 0.59269 0.49392 0.0
O197 O 0.90697 0.58243 0.49139 0.0
O198 O 0.85942 0.5712 0.48281 0.0
C199 C 0.8722 0.60024 0.52316 0.0
O200 O 0.81593 0.60015 0.4952 0.0
Co201 Co 0.86288 0.62986 0.50133 0.0
O202 O 0.81626 0.62502 0.50826 0.0
C203 C 0.87416 0.61801 0.46365 0.0
C204 C 0.89158 0.56996 0.48468 0.0
C205 C 0.80089 0.61241 0.50256 0.0
O206 O 0.86994 0.60328 0.46922 0.0
O207 O 0.87428 0.6303 0.47448 0.0
O208 O 0.86168 0.58571 0.5193 0.0
O209 O 0.88068 0.6092 0.50934 0.0
Co210 Co 0.8846 0.15715 0.495 0.0
O211 O 0.84205 0.16751 0.49403 0.0
O212 O 0.88859 0.17883 0.48415 0.0
C213 C 0.88002 0.14907 0.52426 0.0
O214 O 0.93322 0.1495 0.49468 0.0
Co215 Co 0.88558 0.11977 0.5014 0.0
O216 O 0.93354 0.12381 0.50554 0.0
C217 C 0.87097 0.13244 0.4645 0.0
C218 C 0.85666 0.18007 0.48701 0.0
C219 C 0.94872 0.13662 0.50026 0.0
O220 O 0.87659 0.14699 0.47026 0.0
O221 O 0.87107 0.11996 0.47504 0.0
O222 O 0.89019 0.16366 0.52042 0.0
O223 O 0.86983 0.14044 0.51053 0.0
Co224 Co 0.63366 0.3431 0.74364 0.0
O225 O 0.58935 0.3346 0.74273 0.0
O226 O 0.63337 0.32195 0.73147 0.0
C227 C 0.63235 0.35002 0.77339 0.0
O228 O 0.68342 0.34869 0.74298 0.0
Co229 Co 0.64203 0.38003 0.75199 0.0
O230 O 0.68851 0.3732 0.75664 0.0
C231 C 0.62443 0.36964 0.71455 0.0
C232 C 0.60149 0.32184 0.73477 0.0
C233 C 0.70117 0.36024 0.75001 0.0
O234 O 0.62661 0.35468 0.71965 0.0
O235 O 0.62786 0.38166 0.72559 0.0
O236 O 0.63895 0.33517 0.76856 0.0
O237 O 0.62319 0.35968 0.7603 0.0
Co238 Co 0.61907 0.90654 0.74265 0.0
O239 O 0.66076 0.91773 0.74257 0.0
O240 O 0.6143 0.92783 0.73097 0.0
C241 C 0.6209 0.89915 0.77218 0.0
O242 O 0.57127 0.8978 0.74119 0.0
Co243 Co 0.62142 0.86923 0.74999 0.0
O244 O 0.5727 0.8721 0.75209 0.0
C245 C 0.63812 0.88157 0.71327 0.0
C246 C 0.64583 0.92974 0.73462 0.0
C247 C 0.55672 0.8845 0.7463 0.0
O248 O 0.63037 0.89604 0.7185 0.0
O249 O 0.6384 0.86928 0.72409 0.0
O250 O 0.61034 0.91351 0.76763 0.0
O251 O 0.63347 0.89051 0.75908 0.0
Co252 Co 0.6326 0.90751 0.49028 0.0
O253 O 0.58891 0.9167 0.49076 0.0
O254 O 0.63357 0.92884 0.50207 0.0
C255 C 0.63133 0.90026 0.46071 0.0
O256 O 0.6819 0.90118 0.49135 0.0
Co257 Co 0.63878 0.87043 0.48244 0.0
O258 O 0.68568 0.8766 0.47771 0.0
C259 C 0.62091 0.88148 0.5196 0.0
C260 C 0.60177 0.92936 0.49859 0.0
C261 C 0.69901 0.88941 0.48434 0.0
O262 O 0.62423 0.89635 0.51438 0.0
O263 O 0.62374 0.86932 0.50871 0.0
O264 O 0.63918 0.91502 0.46529 0.0
O265 O 0.62108 0.89092 0.47383 0.0
Co266 Co 0.6164 0.34255 0.49041 0.0
O267 O 0.66009 0.33335 0.49127 0.0
O268 O 0.615 0.32097 0.50161 0.0
C269 C 0.61932 0.35041 0.46096 0.0
O270 O 0.56698 0.3489 0.49087 0.0
Co271 Co 0.61083 0.37985 0.48345 0.0
O272 O 0.56417 0.37383 0.47793 0.0
C273 C 0.62867 0.36799 0.5203 0.0
C274 C 0.64694 0.32049 0.49852 0.0
C275 C 0.55037 0.36089 0.48393 0.0
O276 O 0.62385 0.35326 0.5149 0.0
O277 O 0.62694 0.38031 0.50955 0.0
O278 O 0.61137 0.33554 0.4651 0.0
O279 O 0.62851 0.35947 0.47456 0.0
Co280 Co 0.37054 0.65611 0.24347 0.0
O281 O 0.4134 0.66618 0.2436 0.0
O282 O 0.36838 0.67714 0.25591 0.0
C283 C 0.37068 0.64952 0.2136 0.0
O284 O 0.32195 0.64856 0.24506 0.0
Co285 Co 0.36928 0.61898 0.23523 0.0
O286 O 0.32082 0.62293 0.23393 0.0
C287 C 0.38686 0.63004 0.27227 0.0
C288 C 0.39998 0.67833 0.25208 0.0
C289 C 0.30614 0.63559 0.24004 0.0
O290 O 0.38109 0.64477 0.26721 0.0
O291 O 0.38556 0.61789 0.26128 0.0
O292 O 0.36214 0.66402 0.21884 0.0
O293 O 0.3826 0.64018 0.2263 0.0
Co294 Co 0.38969 0.09228 0.24091 0.0
O295 O 0.34692 0.08221 0.24244 0.0
O296 O 0.39336 0.07096 0.25263 0.0
C297 C 0.38553 0.09945 0.21141 0.0
O298 O 0.43841 0.09978 0.2408 0.0
Co299 Co 0.39113 0.12951 0.23299 0.0
O300 O 0.43867 0.12486 0.22821 0.0
C301 C 0.3779 0.11803 0.27055 0.0
C302 C 0.36137 0.06983 0.24993 0.0
C303 C 0.45384 0.11229 0.23419 0.0
O304 O 0.38231 0.10326 0.2652 0.0
O305 O 0.37834 0.13024 0.25962 0.0
O306 O 0.39496 0.08487 0.21581 0.0
O307 O 0.37539 0.10854 0.22476 0.0
Co308 Co 0.36693 0.09334 0.4934 0.0
O309 O 0.40899 0.08253 0.49389 0.0
O310 O 0.36335 0.07194 0.48185 0.0
C311 C 0.36788 0.10089 0.52291 0.0
O312 O 0.31889 0.10158 0.4913 0.0
Co313 Co 0.36762 0.13068 0.50044 0.0
O314 O 0.31873 0.12788 0.50031 0.0
C315 C 0.38751 0.11822 0.46431 0.0
C316 C 0.39479 0.07033 0.48588 0.0
C317 C 0.30366 0.11504 0.49502 0.0
O318 O 0.37891 0.10381 0.46934 0.0
O319 O 0.38739 0.13048 0.47517 0.0
O320 O 0.35762 0.08647 0.51836 0.0
O321 O 0.38034 0.10959 0.50983 0.0
Co322 Co 0.38444 0.66121 0.49557 0.0
O323 O 0.34082 0.67039 0.49373 0.0
O324 O 0.38656 0.68247 0.48374 0.0
C325 C 0.38037 0.65409 0.52519 0.0
O326 O 0.43384 0.65495 0.49605 0.0
Co327 Co 0.39007 0.6241 0.50383 0.0
O328 O 0.43639 0.63039 0.50983 0.0
C329 C 0.37465 0.63498 0.46624 0.0
C330 C 0.35451 0.68307 0.48638 0.0
C331 C 0.45029 0.64321 0.50359 0.0
O332 O 0.37839 0.64988 0.4713 0.0
O333 O 0.37616 0.62293 0.47737 0.0
O334 O 0.38815 0.66888 0.52069 0.0
O335 O 0.37179 0.64466 0.51178 0.0
Co336 Co 0.63983 0.84104 0.24396 0.0
O337 O 0.59693 0.83109 0.24555 0.0
O338 O 0.64109 0.81919 0.2334 0.0
C339 C 0.64129 0.84977 0.27306 0.0
O340 O 0.68833 0.8482 0.24083 0.0
Co341 Co 0.64233 0.87866 0.24919 0.0
O342 O 0.6909 0.87504 0.2476 0.0
C343 C 0.62018 0.86524 0.21392 0.0
C344 C 0.60975 0.81834 0.23793 0.0
C345 C 0.7046 0.86161 0.24314 0.0
O346 O 0.62776 0.85085 0.21952 0.0
O347 O 0.62144 0.87783 0.22424 0.0
O348 O 0.64984 0.83495 0.26913 0.0
O349 O 0.62874 0.85815 0.25977 0.0
Co350 Co 0.6243 0.40863 0.24383 0.0
O351 O 0.66795 0.41778 0.24191 0.0
O352 O 0.62221 0.42992 0.23207 0.0
C353 C 0.6288 0.40148 0.27344 0.0
O354 O 0.57491 0.40237 0.24432 0.0
Co355 Co 0.6185 0.37155 0.25193 0.0
O356 O 0.57215 0.37773 0.2579 0.0
C357 C 0.63189 0.38255 0.21414 0.0
C358 C 0.65429 0.43049 0.23462 0.0
C359 C 0.55832 0.39054 0.25162 0.0
O360 O 0.62983 0.39743 0.21952 0.0
O361 O 0.62987 0.37038 0.22508 0.0
O362 O 0.62088 0.41625 0.26895 0.0
O363 O 0.63715 0.39202 0.26 0.0
Co364 Co 0.63783 0.40903 0.99007 0.0
O365 O 0.59461 0.41876 0.98969 0.0
O366 O 0.63934 0.43065 0.00119 0.0
C367 C 0.63726 0.4009 0.96069 0.0
O368 O 0.68678 0.40214 0.9919 0.0
Co369 Co 0.64207 0.37161 0.98372 0.0
O370 O 0.68948 0.37703 0.97944 0.0
C371 C 0.6219 0.38403 0.01994 0.0
C372 C 0.60771 0.43146 -0.0027 0.0
C373 C 0.70339 0.38988 0.98559 0.0
O374 O 0.62779 0.39864 0.01445 0.0
O375 O 0.6239 0.37158 0.00941 0.0
O376 O 0.64548 0.41573 0.96484 0.0
O377 O 0.6263 0.39212 0.97411 0.0
Co378 Co 0.62534 0.8437 0.98991 0.0
O379 O 0.66824 0.83368 0.99026 0.0
O380 O 0.62273 0.82229 0.00147 0.0
C381 C 0.62695 0.85128 0.96046 0.0
O382 O 0.57657 0.85103 0.99104 0.0
Co383 Co 0.62289 0.88101 0.98288 0.0
O384 O 0.57519 0.87622 0.97876 0.0
C385 C 0.6386 0.86903 0.01989 0.0
C386 C 0.65448 0.82121 -0.00201 0.0
C387 C 0.56056 0.86353 0.98483 0.0
O388 O 0.63446 0.85435 0.0142 0.0
O389 O 0.63691 0.88147 0.00934 0.0
O390 O 0.61818 0.8366 0.96487 0.0
O391 O 0.63816 0.86025 0.97368 0.0
Co392 Co 0.36175 0.15832 0.74024 0.0
O393 O 0.40382 0.16899 0.73814 0.0
O394 O 0.3591 0.18037 0.75023 0.0
C395 C 0.36102 0.14897 0.71137 0.0
O396 O 0.31378 0.15037 0.7438 0.0
Co397 Co 0.36163 0.12064 0.73605 0.0
O398 O 0.31282 0.12347 0.73735 0.0
C399 C 0.38461 0.13522 0.77056 0.0
C400 C 0.39029 0.18167 0.74551 0.0
C401 C 0.29825 0.13671 0.74167 0.0
O402 O 0.37513 0.14928 0.76482 0.0
O403 O 0.38405 0.12242 0.76054 0.0
O404 O 0.35104 0.16365 0.71496 0.0
O405 O 0.37408 0.14109 0.7249 0.0
Co406 Co 0.39365 0.59083 0.73969 0.0
O407 O 0.35059 0.58151 0.73608 0.0
O408 O 0.39208 0.56876 0.74979 0.0
C409 C 0.39898 0.60012 0.71085 0.0
O410 O 0.4421 0.59736 0.74471 0.0
Co411 Co 0.3981 0.62858 0.73563 0.0
O412 O 0.44626 0.6242 0.73813 0.0
C413 C 0.37191 0.61463 0.76979 0.0
C414 C 0.36152 0.56838 0.74376 0.0
C415 C 0.45909 0.61064 0.74291 0.0
O416 O 0.37926 0.60029 0.76394 0.0
O417 O 0.37486 0.62745 0.75993 0.0
O418 O 0.40612 0.5851 0.71471 0.0
O419 O 0.38557 0.60838 0.72399 0.0
Co420 Co 0.3696 0.5953 -0.00477 0.0
O421 O 0.4131 0.58588 -0.00436 0.0
O422 O 0.36864 0.57355 0.98444 0.0
C423 C 0.36989 0.60373 0.02451 0.0
O424 O 0.32047 0.60188 -0.00664 0.0
Co425 Co 0.36511 0.63275 0.00071 0.0
O426 O 0.31732 0.62767 0.00381 0.0
C427 C 0.3825 0.61985 0.96433 0.0
C428 C 0.40033 0.57301 0.98823 0.0
C429 C 0.30358 0.61453 -0.00166 0.0
O430 O 0.37881 0.60532 0.97059 0.0
O431 O 0.38002 0.63258 0.97438 0.0
O432 O 0.36222 0.58881 0.02047 0.0
O433 O 0.38086 0.61248 0.01103 0.0
Co434 Co 0.38186 0.15773 -0.00527 0.0
O435 O 0.33925 0.16799 -0.00624 0.0
O436 O 0.38575 0.17924 0.98359 0.0
C437 C 0.37841 0.14986 0.02401 0.0
O438 O 0.43047 0.15013 -0.00567 0.0
Co439 Co 0.38319 0.12032 0.00148 0.0
O440 O 0.43081 0.1248 0.00625 0.0
C441 C 0.36973 0.13273 0.96433 0.0
C442 C 0.35385 0.18048 0.98653 0.0
C443 C 0.44595 0.13748 0.00055 0.0
O444 O 0.37386 0.14737 0.97017 0.0
O445 O 0.37059 0.12022 0.9748 0.0
O446 O 0.38779 0.16454 0.01997 0.0
O447 O 0.36773 0.14109 0.0105 0.0
H448 H 0.16469 0.39228 0.19562 0.0
H449 H 0.16246 0.39536 0.16229 0.0
H450 H 0.08305 0.35996 0.15979 0.0
H451 H 0.08728 0.35594 0.193 0.0
H452 H 0.12511 0.3523 0.13643 0.0
H453 H 0.10586 0.41825 0.12704 0.0
H454 H 0.14237 0.41482 0.14056 0.0
H455 H 0.10222 0.40867 0.14922 0.0
C456 C 0.14634 0.38542 0.18793 0.0
C457 C 0.12609 0.37391 0.19674 0.0
C458 C 0.14486 0.38729 0.16889 0.0
C459 C 0.12218 0.37812 0.15845 0.0
C460 C 0.10079 0.36718 0.16749 0.0
H461 H 0.09307 0.39135 0.04101 0.0
H462 H 0.09166 0.39391 0.07448 0.0
C463 C 0.10308 0.36491 0.18643 0.0
C464 C 0.12326 0.37852 0.13806 0.0
H465 H 0.12805 0.40379 0.10093 0.0
C466 C 0.12522 0.3636 0.1287 0.0
C467 C 0.1231 0.39319 0.12784 0.0
C468 C 0.11788 0.4096 0.13671 0.0
C469 C 0.12728 0.3629 0.10954 0.0
C470 C 0.1296 0.37758 0.09941 0.0
C471 C 0.1271 0.39253 0.1087 0.0
C472 C 0.13317 0.37759 0.07913 0.0
C473 C 0.12588 0.34637 0.10046 0.0
C474 C 0.15785 0.36816 0.07055 0.0
C475 C 0.15791 0.36627 0.05151 0.0
C476 C 0.13437 0.37444 0.04073 0.0
C477 C 0.11158 0.38501 0.04912 0.0
C478 C 0.11076 0.38645 0.06822 0.0
H479 H 0.11313 0.33729 0.10932 0.0
H480 H 0.11261 0.34688 0.0871 0.0
H481 H 0.15156 0.34191 0.09806 0.0
H482 H 0.1763 0.36177 0.07861 0.0
H483 H 0.17587 0.35817 0.04522 0.0
H484 H 0.11378 0.9084 0.04339 0.0
H485 H 0.10847 0.90446 0.0764 0.0
H486 H 0.10109 0.85255 0.06849 0.0
H487 H 0.10701 0.85627 0.03533 0.0
H488 H 0.06139 0.88915 0.09941 0.0
H489 H 0.18436 0.8579 0.10072 0.0
H490 H 0.16978 0.86891 0.08085 0.0
H491 H 0.15308 0.84916 0.08611 0.0
C492 C 0.11055 0.89613 0.04856 0.0
C493 C 0.11148 0.88262 0.03669 0.0
C494 C 0.10746 0.89392 0.06747 0.0
C495 C 0.10518 0.8782 0.07486 0.0
C496 C 0.10358 0.86476 0.06302 0.0
H497 H 0.12518 0.85526 0.19213 0.0
H498 H 0.118 0.85223 0.15893 0.0
C499 C 0.10678 0.86694 0.04407 0.0
C500 C 0.10703 0.87604 0.09497 0.0
H501 H 0.15885 0.86305 0.12911 0.0
C502 C 0.08248 0.88329 0.10593 0.0
C503 C 0.1346 0.86834 0.10338 0.0
C504 C 0.16214 0.86071 0.09223 0.0
C505 C 0.08524 0.88344 0.12511 0.0
C506 C 0.11355 0.87641 0.13345 0.0
C507 C 0.13732 0.8685 0.12258 0.0
C508 C 0.11988 0.87808 0.15333 0.0
C509 C 0.05805 0.89131 0.13629 0.0
C510 C 0.12465 0.89356 0.16098 0.0
C511 C 0.12892 0.89537 0.17986 0.0
C512 C 0.12862 0.88167 0.19148 0.0
C513 C 0.12548 0.86608 0.18362 0.0
C514 C 0.12122 0.8643 0.16467 0.0
H515 H 0.03431 0.89195 0.12851 0.0
H516 H 0.05369 0.88455 0.14927 0.0
H517 H 0.06557 0.90393 0.13983 0.0
H518 H 0.12451 0.9043 0.15233 0.0
H519 H 0.13154 0.90755 0.18538 0.0
H520 H 0.8852 0.65673 0.79804 0.0
H521 H 0.87703 0.65296 0.83095 0.0
H522 H 0.87457 0.60089 0.82346 0.0
H523 H 0.88302 0.60445 0.79047 0.0
H524 H 0.81978 0.63667 0.84602 0.0
H525 H 0.93914 0.60779 0.86711 0.0
H526 H 0.93491 0.61901 0.84591 0.0
H527 H 0.9179 0.59888 0.84783 0.0
C528 C 0.88352 0.64444 0.80337 0.0
C529 C 0.88464 0.6309 0.79155 0.0
C530 C 0.87872 0.64233 0.82218 0.0
C531 C 0.87518 0.62667 0.82957 0.0
C532 C 0.87759 0.61308 0.818 0.0
H533 H 0.85305 0.60246 0.94567 0.0
H534 H 0.84939 0.59954 0.91234 0.0
C535 C 0.88242 0.61516 0.79915 0.0
C536 C 0.86712 0.62473 0.84922 0.0
H537 H 0.89882 0.6117 0.89005 0.0
C538 C 0.83693 0.63113 0.85567 0.0
C539 C 0.88936 0.61727 0.86164 0.0
C540 C 0.92227 0.61041 0.85539 0.0
C541 C 0.82878 0.63066 0.87437 0.0
C542 C 0.8517 0.62388 0.88692 0.0
C543 C 0.88126 0.61687 0.88036 0.0
C544 C 0.84742 0.62543 0.907 0.0
C545 C 0.79586 0.63756 0.88054 0.0
C546 C 0.84655 0.64095 0.91503 0.0
C547 C 0.84861 0.64268 0.93404 0.0
C548 C 0.8519 0.62891 0.94538 0.0
C549 C 0.85059 0.61333 0.93736 0.0
C550 C 0.84858 0.61162 0.91831 0.0
H551 H 0.77715 0.63711 0.86932 0.0
H552 H 0.78596 0.63085 0.8926 0.0
H553 H 0.79929 0.65051 0.88447 0.0
H554 H 0.84624 0.65178 0.90654 0.0
H555 H 0.84941 0.65487 0.93973 0.0
H556 H 0.89363 0.09417 0.9403 0.0
H557 H 0.89813 0.09791 0.90727 0.0
H558 H 0.90219 0.14999 0.91462 0.0
H559 H 0.89706 0.14643 0.94783 0.0
H560 H 0.85358 0.14059 0.89073 0.0
H561 H 0.97171 0.11047 0.87219 0.0
H562 H 0.94625 0.09754 0.88619 0.0
H563 H 0.962 0.11636 0.89547 0.0
C564 C 0.8962 0.10643 0.935 0.0
C565 C 0.89466 0.12 0.94675 0.0
C566 C 0.89903 0.10854 0.91607 0.0
C567 C 0.90079 0.12422 0.90851 0.0
C568 C 0.90098 0.13778 0.92022 0.0
H569 H 0.87731 0.14667 0.79107 0.0
H570 H 0.88444 0.15031 0.82417 0.0
C571 C 0.89811 0.1357 0.9392 0.0
C572 C 0.89838 0.12634 0.8884 0.0
H573 H 0.9307 0.11259 0.84801 0.0
C574 C 0.87079 0.13476 0.88133 0.0
C575 C 0.92092 0.11877 0.87622 0.0
C576 C 0.95206 0.11043 0.88292 0.0
C577 C 0.86403 0.13493 0.86244 0.0
C578 C 0.88556 0.12654 0.8504 0.0
C579 C 0.91402 0.11883 0.85736 0.0
C580 C 0.87818 0.12479 0.83065 0.0
C581 C 0.83309 0.14334 0.85556 0.0
C582 C 0.87189 0.10926 0.82344 0.0
C583 C 0.86787 0.10711 0.80459 0.0
C584 C 0.87023 0.12046 0.79256 0.0
C585 C 0.87516 0.13613 0.79994 0.0
C586 C 0.87926 0.13825 0.81884 0.0
H587 H 0.81634 0.14703 0.86696 0.0
H588 H 0.84028 0.15444 0.84783 0.0
H589 H 0.81914 0.13527 0.84606 0.0
H590 H 0.87087 0.09874 0.8324 0.0
H591 H 0.86396 0.09488 0.79942 0.0
H592 H 0.11703 0.90001 0.69603 0.0
H593 H 0.11414 0.90516 0.66295 0.0
H594 H 0.10878 0.85348 0.65284 0.0
H595 H 0.11121 0.84819 0.68568 0.0
H596 H 0.16066 0.89403 0.63738 0.0
H597 H 0.0349 0.87139 0.62027 0.0
H598 H 0.04724 0.87632 0.64346 0.0
H599 H 0.05791 0.8569 0.6336 0.0
C600 C 0.11456 0.88975 0.68679 0.0
C601 C 0.11441 0.87367 0.69353 0.0
C602 C 0.11302 0.89273 0.6679 0.0
C603 C 0.11088 0.87972 0.6555 0.0
C604 C 0.10975 0.86372 0.66221 0.0
H605 H 0.13936 0.84971 0.54723 0.0
H606 H 0.13629 0.85468 0.58019 0.0
C607 C 0.11136 0.86072 0.68102 0.0
C608 C 0.11258 0.88253 0.63549 0.0
H609 H 0.07472 0.87182 0.5954 0.0
C610 C 0.14157 0.88953 0.62815 0.0
C611 C 0.08753 0.87675 0.62355 0.0
C612 C 0.055 0.87008 0.63063 0.0
C613 C 0.14713 0.88983 0.60912 0.0
C614 C 0.12307 0.88297 0.59733 0.0
C615 C 0.09327 0.87688 0.60459 0.0
C616 C 0.12928 0.88068 0.57756 0.0
C617 C 0.17933 0.8966 0.60175 0.0
C618 C 0.12719 0.89377 0.56529 0.0
C619 C 0.12894 0.891 0.54637 0.0
C620 C 0.13256 0.87505 0.53951 0.0
C621 C 0.1363 0.86211 0.55199 0.0
C622 C 0.13456 0.86491 0.57084 0.0
H623 H 0.19622 0.90078 0.61286 0.0
H624 H 0.19229 0.88718 0.59348 0.0
H625 H 0.174 0.90704 0.59253 0.0
H626 H 0.1229 0.90601 0.57031 0.0
H627 H 0.12591 0.90124 0.53715 0.0
H628 H 0.12239 0.40811 0.54775 0.0
H629 H 0.12929 0.40478 0.58078 0.0
H630 H 0.13838 0.35285 0.5739 0.0
H631 H 0.13162 0.35596 0.54065 0.0
H632 H 0.09471 0.36576 0.60475 0.0
H633 H 0.22327 0.39063 0.6027 0.0
H634 H 0.19248 0.40217 0.59037 0.0
H635 H 0.20297 0.38201 0.5828 0.0
C636 C 0.1255 0.39593 0.55319 0.0
C637 C 0.12685 0.38231 0.54148 0.0
C638 C 0.12957 0.39408 0.57207 0.0
C639 C 0.13498 0.37863 0.5796 0.0
C640 C 0.13452 0.36489 0.5682 0.0
H641 H 0.15642 0.35556 0.69626 0.0
H642 H 0.15948 0.35286 0.6629 0.0
C643 C 0.13055 0.3667 0.54924 0.0
C644 C 0.14198 0.37705 0.59937 0.0
H645 H 0.1982 0.38812 0.63218 0.0
C646 C 0.1175 0.37039 0.61079 0.0
C647 C 0.17182 0.3831 0.60703 0.0
C648 C 0.19934 0.38978 0.59512 0.0
C649 C 0.12143 0.37035 0.62992 0.0
C650 C 0.15081 0.37693 0.63763 0.0
C651 C 0.17577 0.38309 0.62615 0.0
C652 C 0.15466 0.37866 0.65766 0.0
C653 C 0.09354 0.36399 0.6418 0.0
C654 C 0.15269 0.39416 0.66564 0.0
C655 C 0.15097 0.39579 0.68469 0.0
C656 C 0.15124 0.38192 0.69603 0.0
C657 C 0.15584 0.3665 0.68796 0.0
C658 C 0.15747 0.3649 0.6689 0.0
H659 H 0.07056 0.36158 0.63377 0.0
H660 H 0.10142 0.35245 0.6484 0.0
H661 H 0.08764 0.37284 0.65286 0.0
H662 H 0.15072 0.40492 0.65711 0.0
H663 H 0.14774 0.40786 0.69042 0.0
H664 H 0.88633 0.10397 0.2883 0.0
H665 H 0.88329 0.09976 0.32155 0.0
H666 H 0.89679 0.15124 0.33032 0.0
H667 H 0.89994 0.15565 0.29725 0.0
H668 H 0.92943 0.11198 0.35335 0.0
H669 H 0.80076 0.13663 0.35118 0.0
H670 H 0.82121 0.12819 0.33125 0.0
H671 H 0.83166 0.14829 0.33905 0.0
C672 C 0.88947 0.11436 0.29729 0.0
C673 C 0.89289 0.13019 0.29009 0.0
C674 C 0.88764 0.11191 0.31627 0.0
C675 C 0.88926 0.12524 0.32822 0.0
C676 C 0.8951 0.14085 0.32119 0.0
H677 H 0.86761 0.15563 0.43763 0.0
H678 H 0.86922 0.1514 0.40452 0.0
C679 C 0.89692 0.14333 0.30229 0.0
C680 C 0.88219 0.12325 0.34794 0.0
H681 H 0.82557 0.13394 0.38063 0.0
C682 C 0.90658 0.11652 0.35937 0.0
C683 C 0.85218 0.1291 0.35557 0.0
C684 C 0.82475 0.13585 0.34366 0.0
C685 C 0.90248 0.11636 0.37852 0.0
C686 C 0.87306 0.12292 0.38621 0.0
C687 C 0.84808 0.12896 0.37466 0.0
C688 C 0.86914 0.1251 0.40622 0.0
C689 C 0.93029 0.10997 0.39042 0.0
C690 C 0.86744 0.11167 0.41807 0.0
C691 C 0.8665 0.11403 0.43706 0.0
C692 C 0.86722 0.12987 0.44448 0.0
C693 C 0.86725 0.14327 0.43245 0.0
C694 C 0.86817 0.14089 0.4135 0.0
H695 H 0.9534 0.10775 0.38244 0.0
H696 H 0.93591 0.11867 0.40167 0.0
H697 H 0.92249 0.09829 0.39676 0.0
H698 H 0.86754 0.09939 0.41264 0.0
H699 H 0.8663 0.10343 0.44591 0.0
H700 H 0.86364 0.64959 0.28791 0.0
H701 H 0.86361 0.65304 0.32133 0.0
H702 H 0.85178 0.60124 0.32825 0.0
H703 H 0.8517 0.59758 0.29502 0.0
H704 H 0.8157 0.63934 0.3519 0.0
H705 H 0.94591 0.61658 0.35134 0.0
H706 H 0.92621 0.62529 0.33132 0.0
H707 H 0.9164 0.60487 0.33827 0.0
C708 C 0.86017 0.63896 0.29652 0.0
C709 C 0.85818 0.62327 0.28879 0.0
C710 C 0.86023 0.64098 0.31559 0.0
C711 C 0.85822 0.62735 0.32711 0.0
C712 C 0.8537 0.61186 0.31948 0.0
H713 H 0.87779 0.59526 0.43633 0.0
H714 H 0.87573 0.59991 0.4033 0.0
C715 C 0.85365 0.60981 0.30049 0.0
C716 C 0.86393 0.62892 0.34701 0.0
H717 H 0.91939 0.61839 0.38038 0.0
C718 C 0.83848 0.63501 0.35819 0.0
C719 C 0.89385 0.62335 0.355 0.0
C720 C 0.92235 0.61726 0.34341 0.0
C721 C 0.84152 0.63483 0.37741 0.0
C722 C 0.87093 0.62857 0.38543 0.0
C723 C 0.89688 0.62314 0.37415 0.0
C724 C 0.87409 0.62617 0.40544 0.0
C725 C 0.81272 0.64056 0.389 0.0
C726 C 0.87476 0.63945 0.41753 0.0
C727 C 0.87598 0.63685 0.43649 0.0
C728 C 0.87657 0.62092 0.44363 0.0
C729 C 0.87717 0.60769 0.43137 0.0
C730 C 0.87599 0.61031 0.41247 0.0
H731 H 0.78989 0.64258 0.38071 0.0
H732 H 0.8071 0.63156 0.39995 0.0
H733 H 0.81944 0.65222 0.39574 0.0
H734 H 0.87391 0.65179 0.4123 0.0
H735 H 0.87561 0.64733 0.44552 0.0
H736 H 0.63668 0.39724 0.53808 0.0
H737 H 0.64095 0.4018 0.5712 0.0
H738 H 0.63669 0.34998 0.58049 0.0
H739 H 0.63297 0.34524 0.54758 0.0
H740 H 0.59411 0.39307 0.59703 0.0
H741 H 0.71425 0.36351 0.61266 0.0
H742 H 0.70222 0.36901 0.58958 0.0
H743 H 0.68758 0.35032 0.59969 0.0
C744 C 0.63719 0.38679 0.54714 0.0
C745 C 0.63445 0.37086 0.54013 0.0
C746 C 0.63959 0.38944 0.56606 0.0
C747 C 0.63957 0.37623 0.57825 0.0
C748 C 0.63751 0.36034 0.57128 0.0
H749 H 0.60979 0.3479 0.68738 0.0
H750 H 0.613 0.35235 0.65434 0.0
C751 C 0.63516 0.35766 0.55243 0.0
C752 C 0.63912 0.37888 0.59832 0.0
H753 H 0.6757 0.36599 0.63797 0.0
C754 C 0.61231 0.38746 0.60602 0.0
C755 C 0.66306 0.37166 0.60997 0.0
C756 C 0.69358 0.36326 0.60253 0.0
C757 C 0.6076 0.38803 0.62511 0.0
C758 C 0.63031 0.37984 0.63662 0.0
C759 C 0.65811 0.37207 0.629 0.0
C760 C 0.6245 0.378 0.6565 0.0
C761 C 0.57756 0.39661 0.63284 0.0
C762 C 0.62912 0.3911 0.66857 0.0
C763 C 0.62727 0.38862 0.68754 0.0
C764 C 0.62102 0.37297 0.69467 0.0
C765 C 0.61488 0.36008 0.68241 0.0
C766 C 0.61671 0.36258 0.66352 0.0
H767 H 0.56087 0.40131 0.6219 0.0
H768 H 0.56326 0.38818 0.64177 0.0
H769 H 0.58578 0.40701 0.64145 0.0
H770 H 0.6354 0.40306 0.66334 0.0
H771 H 0.63223 0.39881 0.69659 0.0
H772 H 0.64246 0.85239 0.6951 0.0
H773 H 0.64374 0.84814 0.66186 0.0
H774 H 0.64672 0.9001 0.65339 0.0
H775 H 0.6458 0.90451 0.68645 0.0
H776 H 0.59457 0.85975 0.638 0.0
H777 H 0.71845 0.88341 0.6184 0.0
H778 H 0.70817 0.8778 0.64171 0.0
H779 H 0.69606 0.89736 0.63278 0.0
C780 C 0.64414 0.86291 0.68619 0.0
C781 C 0.6439 0.87881 0.69345 0.0
C782 C 0.64476 0.86044 0.66721 0.0
C783 C 0.6456 0.8738 0.65523 0.0
C784 C 0.64667 0.88962 0.66243 0.0
H785 H 0.61042 0.90376 0.54684 0.0
H786 H 0.61465 0.89926 0.57984 0.0
C787 C 0.64594 0.89211 0.68135 0.0
C788 C 0.64229 0.87145 0.6352 0.0
H789 H 0.67709 0.88267 0.59445 0.0
C790 C 0.61288 0.86443 0.62842 0.0
C791 C 0.66632 0.87752 0.62282 0.0
C792 C 0.69917 0.88429 0.62929 0.0
C793 C 0.60598 0.86427 0.60953 0.0
C794 C 0.62913 0.87125 0.5973 0.0
C795 C 0.65925 0.87749 0.60399 0.0
C796 C 0.62187 0.87326 0.57761 0.0
C797 C 0.57339 0.85742 0.60279 0.0
C798 C 0.6236 0.85999 0.56557 0.0
C799 C 0.6212 0.86248 0.54662 0.0
C800 C 0.61727 0.87832 0.53951 0.0
C801 C 0.61369 0.89142 0.55179 0.0
C802 C 0.61611 0.8889 0.57066 0.0
H803 H 0.55709 0.85339 0.61424 0.0
H804 H 0.56 0.86673 0.59457 0.0
H805 H 0.57822 0.84685 0.59368 0.0
H806 H 0.62823 0.84784 0.57076 0.0
H807 H 0.62408 0.85212 0.53757 0.0
H808 H 0.40013 0.65245 0.29891 0.0
H809 H 0.39757 0.64843 0.33205 0.0
H810 H 0.38092 0.59706 0.32406 0.0
H811 H 0.38339 0.6009 0.2907 0.0
H812 H 0.33485 0.63259 0.34777 0.0
H813 H 0.45452 0.6026 0.36661 0.0
H814 H 0.45152 0.61573 0.34676 0.0
H815 H 0.43214 0.59608 0.34643 0.0
C816 C 0.39654 0.64022 0.30413 0.0
C817 C 0.39164 0.62702 0.29213 0.0
C818 C 0.39509 0.63797 0.32307 0.0
C819 C 0.38895 0.62248 0.33039 0.0
C820 C 0.3859 0.60908 0.31859 0.0
H821 H 0.37228 0.60523 0.44905 0.0
H822 H 0.37133 0.59995 0.41599 0.0
C823 C 0.38737 0.61132 0.29956 0.0
C824 C 0.38253 0.62088 0.35024 0.0
H825 H 0.419 0.61035 0.39078 0.0
C826 C 0.35302 0.62755 0.35719 0.0
C827 C 0.40609 0.61406 0.36234 0.0
C828 C 0.43797 0.6067 0.35531 0.0
C829 C 0.34704 0.62821 0.37612 0.0
C830 C 0.37159 0.62239 0.38834 0.0
C831 C 0.40032 0.61489 0.38134 0.0
C832 C 0.36941 0.62537 0.40832 0.0
C833 C 0.31474 0.6354 0.38285 0.0
C834 C 0.36849 0.64142 0.41491 0.0
C835 C 0.36897 0.6445 0.43373 0.0
C836 C 0.37066 0.63158 0.44638 0.0
C837 C 0.37087 0.61548 0.43972 0.0
C838 C 0.37042 0.61241 0.42084 0.0
H839 H 0.29481 0.63421 0.37236 0.0
H840 H 0.30632 0.62944 0.39572 0.0
H841 H 0.31835 0.64857 0.38562 0.0
H842 H 0.36839 0.6516 0.40547 0.0
H843 H 0.36888 0.65705 0.43832 0.0
H844 H 0.39877 0.14732 0.44679 0.0
H845 H 0.40261 0.1519 0.41366 0.0
H846 H 0.39585 0.10017 0.40424 0.0
H847 H 0.39246 0.09538 0.43719 0.0
H848 H 0.44346 0.11677 0.3819 0.0
H849 H 0.31864 0.14634 0.38126 0.0
H850 H 0.34962 0.15475 0.39635 0.0
H851 H 0.33334 0.13477 0.4007 0.0
C852 C 0.39862 0.13688 0.43771 0.0
C853 C 0.39482 0.12098 0.44466 0.0
C854 C 0.40062 0.13956 0.41879 0.0
C855 C 0.39884 0.12639 0.40659 0.0
C856 C 0.39705 0.11049 0.4135 0.0
H857 H 0.37193 0.0955 0.29793 0.0
H858 H 0.37779 0.10008 0.33083 0.0
C859 C 0.39505 0.10779 0.43235 0.0
C860 C 0.39685 0.12896 0.38657 0.0
H861 H 0.34349 0.14102 0.35273 0.0
C862 C 0.42187 0.12229 0.3755 0.0
C863 C 0.36866 0.13625 0.37834 0.0
C864 C 0.34085 0.14338 0.3897 0.0
C865 C 0.4188 0.1221 0.35636 0.0
C866 C 0.38973 0.12851 0.3482 0.0
C867 C 0.36559 0.13603 0.35915 0.0
C868 C 0.38292 0.12621 0.32849 0.0
C869 C 0.44626 0.11466 0.34501 0.0
C870 C 0.38223 0.13953 0.31647 0.0
C871 C 0.37875 0.13699 0.29759 0.0
C872 C 0.37581 0.12108 0.29053 0.0
C873 C 0.3745 0.10789 0.30283 0.0
C874 C 0.378 0.11046 0.32164 0.0
H875 H 0.47016 0.11431 0.35266 0.0
H876 H 0.4394 0.10196 0.3414 0.0
H877 H 0.44999 0.12155 0.33205 0.0
H878 H 0.38566 0.15179 0.32162 0.0
H879 H 0.37979 0.14742 0.28851 0.0
H880 H 0.61905 0.84209 0.1869 0.0
H881 H 0.61806 0.84668 0.15385 0.0
H882 H 0.60524 0.8982 0.16274 0.0
H883 H 0.60664 0.89384 0.19593 0.0
H884 H 0.57172 0.86183 0.12987 0.0
H885 H 0.69255 0.89501 0.13308 0.0
H886 H 0.677 0.88314 0.15209 0.0
H887 H 0.65937 0.90273 0.14714 0.0
C888 C 0.61552 0.85439 0.18191 0.0
C889 C 0.61347 0.86763 0.19411 0.0
C890 C 0.61497 0.85698 0.16299 0.0
C891 C 0.61235 0.87281 0.15593 0.0
C892 C 0.60802 0.88594 0.16798 0.0
H893 H 0.63228 0.89766 0.03905 0.0
H894 H 0.62611 0.9006 0.07236 0.0
C895 C 0.60862 0.88338 0.18694 0.0
C896 C 0.61609 0.87546 0.13599 0.0
H897 H 0.6701 0.89014 0.10377 0.0
C898 C 0.593 0.86817 0.12415 0.0
C899 C 0.64389 0.88381 0.12864 0.0
C900 C 0.66982 0.89155 0.14083 0.0
C901 C 0.5975 0.86859 0.10509 0.0
C902 C 0.62606 0.87627 0.09779 0.0
C903 C 0.64837 0.88421 0.10953 0.0
C904 C 0.63409 0.87507 0.0781 0.0
C905 C 0.57202 0.86053 0.09288 0.0
C906 C 0.64217 0.85989 0.07057 0.0
C907 C 0.64582 0.85815 0.05165 0.0
C908 C 0.64148 0.87159 0.03993 0.0
C909 C 0.63572 0.88705 0.04768 0.0
C910 C 0.63205 0.88877 0.06668 0.0
H911 H 0.54794 0.85874 0.10009 0.0
H912 H 0.56763 0.86787 0.0803 0.0
H913 H 0.58138 0.8484 0.08859 0.0
H914 H 0.64442 0.84926 0.07929 0.0
H915 H 0.65065 0.84611 0.04619 0.0
H916 H 0.61156 0.35506 0.03793 0.0
H917 H 0.60673 0.35083 0.07107 0.0
H918 H 0.61311 0.40268 0.07981 0.0
H919 H 0.61733 0.40709 0.04687 0.0
H920 H 0.6543 0.35911 0.09625 0.0
H921 H 0.53654 0.39035 0.11303 0.0
H922 H 0.54748 0.38471 0.08984 0.0
H923 H 0.56346 0.40321 0.0998 0.0
C924 C 0.61129 0.36559 0.04686 0.0
C925 C 0.61495 0.38142 0.0397 0.0
C926 C 0.60857 0.36313 0.0658 0.0
C927 C 0.60917 0.37644 0.07786 0.0
C928 C 0.61183 0.39225 0.07072 0.0
H929 H 0.64335 0.4047 0.18691 0.0
H930 H 0.63772 0.40056 0.15392 0.0
C931 C 0.61448 0.39474 0.05185 0.0
C932 C 0.61018 0.37392 0.09796 0.0
H933 H 0.57596 0.38753 0.13794 0.0
C934 C 0.63679 0.36502 0.10541 0.0
C935 C 0.58717 0.38155 0.10984 0.0
C936 C 0.55687 0.39034 0.1027 0.0
C937 C 0.64227 0.3645 0.12443 0.0
C938 C 0.62048 0.37305 0.13617 0.0
C939 C 0.59286 0.38117 0.1288 0.0
C940 C 0.6271 0.37481 0.156 0.0
C941 C 0.67219 0.35558 0.13181 0.0
C942 C 0.62371 0.36157 0.168 0.0
C943 C 0.62702 0.36387 0.18695 0.0
C944 C 0.63349 0.37948 0.19413 0.0
C945 C 0.63818 0.39254 0.1819 0.0
C946 C 0.63492 0.39022 0.16304 0.0
H947 H 0.68878 0.35116 0.12068 0.0
H948 H 0.68669 0.36363 0.14109 0.0
H949 H 0.66379 0.34492 0.13996 0.0
H950 H 0.61737 0.34962 0.16278 0.0
H951 H 0.62308 0.35356 0.19597 0.0
H952 H 0.38692 0.15905 0.79675 0.0
H953 H 0.39135 0.15536 0.82982 0.0
H954 H 0.40591 0.10377 0.82222 0.0
H955 H 0.40104 0.10724 0.78902 0.0
H956 H 0.35435 0.111 0.84561 0.0
H957 H 0.46662 0.14574 0.86539 0.0
H958 H 0.43936 0.15748 0.85108 0.0
H959 H 0.45872 0.13942 0.84203 0.0
C960 C 0.39177 0.14694 0.80202 0.0
C961 C 0.39326 0.13342 0.7902 0.0
C962 C 0.39454 0.14488 0.82096 0.0
C963 C 0.3992 0.12931 0.82843 0.0
C964 C 0.40242 0.11589 0.81667 0.0
H965 H 0.37813 0.10431 0.94516 0.0
H966 H 0.38506 0.10145 0.91196 0.0
C967 C 0.39965 0.11793 0.7977 0.0
C968 C 0.39664 0.12694 0.84847 0.0
H969 H 0.42595 0.14136 0.88924 0.0
C970 C 0.37036 0.11737 0.85521 0.0
C971 C 0.41764 0.13524 0.86088 0.0
C972 C 0.44737 0.14491 0.85448 0.0
C973 C 0.36329 0.11669 0.87405 0.0
C974 C 0.38323 0.12571 0.88634 0.0
C975 C 0.41047 0.13463 0.87969 0.0
C976 C 0.37542 0.12683 0.90608 0.0
C977 C 0.33367 0.10701 0.88058 0.0
C978 C 0.36717 0.14199 0.91364 0.0
C979 C 0.36329 0.1437 0.93255 0.0
C980 C 0.36773 0.13026 0.94426 0.0
C981 C 0.37433 0.11488 0.93653 0.0
C982 C 0.37834 0.11321 0.91757 0.0
H983 H 0.31755 0.10302 0.86903 0.0
H984 H 0.34247 0.09599 0.88794 0.0
H985 H 0.31852 0.11429 0.89032 0.0
H986 H 0.36468 0.15262 0.90493 0.0
H987 H 0.35802 0.15569 0.93803 0.0
H988 H 0.36718 0.59086 0.79601 0.0
H989 H 0.36386 0.59466 0.82911 0.0
H990 H 0.3548 0.64655 0.82156 0.0
H991 H 0.35862 0.64296 0.78834 0.0
H992 H 0.40542 0.63819 0.84501 0.0
H993 H 0.2899 0.60602 0.86473 0.0
H994 H 0.31633 0.59366 0.85063 0.0
H995 H 0.29856 0.61202 0.84135 0.0
C996 C 0.36372 0.60308 0.8013 0.0
C997 C 0.36346 0.61662 0.78946 0.0
C998 C 0.36165 0.60521 0.82027 0.0
C999 C 0.35888 0.62088 0.82777 0.0
C1000 C 0.35688 0.63436 0.81601 0.0
H1001 H 0.37649 0.64785 0.94401 0.0
H1002 H 0.37196 0.64988 0.91058 0.0
C1003 C 0.35899 0.63225 0.79701 0.0
C1004 C 0.36169 0.62321 0.84785 0.0
H1005 H 0.33017 0.61014 0.88874 0.0
C1006 C 0.38866 0.6323 0.85461 0.0
C1007 C 0.33976 0.61553 0.86029 0.0
C1008 C 0.30932 0.6064 0.85389 0.0
C1009 C 0.39525 0.63321 0.87351 0.0
C1010 C 0.37417 0.6249 0.88585 0.0
C1011 C 0.34649 0.61634 0.87915 0.0
C1012 C 0.38099 0.62427 0.90576 0.0
C1013 C 0.42543 0.64244 0.8801 0.0
C1014 C 0.3882 0.60927 0.914 0.0
C1015 C 0.39079 0.60804 0.93304 0.0
C1016 C 0.38598 0.62181 0.94422 0.0
C1017 C 0.38047 0.63702 0.93583 0.0
C1018 C 0.37785 0.63822 0.91672 0.0
H1019 H 0.44211 0.64597 0.8686 0.0
H1020 H 0.41731 0.65369 0.88723 0.0
H1021 H 0.43977 0.63499 0.89007 0.0
H1022 H 0.39083 0.59839 0.90571 0.0
H1023 H 0.39526 0.59616 0.939 0.0
H1024 H 0.96936 0.18249 0.25017 0.0
H1025 H 0.00475 0.20655 0.24848 0.0
H1026 H 0.91811 0.23737 0.25163 0.0
H1027 H 0.88234 0.21315 0.25363 0.0
H1028 H 1.00152 0.22856 0.22016 0.0
H1029 H 0.98263 0.25951 0.28713 0.0
H1030 H 0.9711 0.23853 0.28331 0.0
H1031 H 0.94493 0.25468 0.27506 0.0
C1032 C 0.95782 0.1944 0.25091 0.0
C1033 C 0.92305 0.19595 0.25198 0.0
C1034 C 0.97812 0.20814 0.24989 0.0
C1035 C 0.96415 0.22376 0.2499 0.0
C1036 C 0.92949 0.22543 0.25185 0.0
H1037 H 0.04383 0.32018 0.23361 0.0
H1038 H 0.00878 0.29599 0.23531 0.0
C1039 C 0.90907 0.2116 0.25301 0.0
C1040 C 0.98579 0.23808 0.24633 0.0
H1041 H 0.01252 0.27412 0.26439 0.0
C1042 C 0.00404 0.2385 0.22986 0.0
C1043 C 0.98904 0.25102 0.25899 0.0
C1044 C 0.97114 0.25092 0.2772 0.0
C1045 C 0.02506 0.25164 0.22559 0.0
C1046 C 0.02822 0.2646 0.23823 0.0
C1047 C 0.01001 0.26416 0.2547 0.0
C1048 C 0.04971 0.27894 0.2346 0.0
C1049 C 0.04313 0.25172 0.20744 0.0
C1050 C 0.08444 0.27739 0.23301 0.0
C1051 C 0.10467 0.29128 0.23187 0.0
C1052 C 0.0904 0.30688 0.23252 0.0
C1053 C 0.05557 0.30832 0.23315 0.0
C1054 C 0.03548 0.29451 0.23419 0.0
H1055 H 0.03211 0.24291 0.19758 0.0
H1056 H 0.04273 0.26405 0.20118 0.0
H1057 H 0.06948 0.24825 0.20971 0.0
H1058 H 0.09599 0.26549 0.23354 0.0
H1059 H 0.13144 0.28982 0.23161 0.0
H1060 H 0.21597 0.93236 0.22842 0.0
H1061 H 0.25195 0.95618 0.23102 0.0
H1062 H 0.1661 0.98671 0.23936 0.0
H1063 H 0.12959 0.96275 0.23655 0.0
H1064 H 0.21776 1.00053 0.21641 0.0
H1065 H 0.26763 0.97652 0.28215 0.0
H1066 H 0.27045 0.96261 0.26318 0.0
H1067 H 0.23029 0.96863 0.27163 0.0
C1068 C 0.20463 0.94419 0.23047 0.0
C1069 C 0.16998 0.94569 0.23246 0.0
C1070 C 0.22528 0.95776 0.23209 0.0
C1071 C 0.21177 0.97311 0.23592 0.0
C1072 C 0.17701 0.97491 0.23661 0.0
H1073 H 0.29574 0.06806 0.25747 0.0
H1074 H 0.26008 0.04408 0.25543 0.0
C1075 C 0.15618 0.96126 0.23487 0.0
C1076 C 0.23422 0.987 0.24 0.0
H1077 H 0.29454 0.99982 0.26983 0.0
C1078 C 0.2344 1.00044 0.22813 0.0
C1079 C 0.25603 0.98679 0.25528 0.0
C1080 C 0.256 0.97294 0.26891 0.0
C1081 C 0.25626 0.01356 0.23095 0.0
C1082 C 0.27806 0.01335 0.24625 0.0
C1083 C 0.2779 0.99991 0.2581 0.0
C1084 C 0.3004 0.02728 0.25032 0.0
C1085 C 0.25629 0.02741 0.21733 0.0
C1086 C 0.33518 0.0256 0.24937 0.0
C1087 C 0.35582 0.03935 0.25081 0.0
C1088 C 0.3418 0.05487 0.25316 0.0
C1089 C 0.30721 0.05625 0.25549 0.0
C1090 C 0.28675 0.04258 0.25419 0.0
H1091 H 0.24462 0.02384 0.2041 0.0
H1092 H 0.24189 0.03775 0.22307 0.0
H1093 H 0.282 0.03171 0.21459 0.0
H1094 H 0.34619 0.01383 0.24658 0.0
H1095 H 0.38237 0.03797 0.24885 0.0
H1096 H 0.04716 0.93364 0.98235 0.0
H1097 H 0.01154 0.95751 0.98213 0.0
H1098 H 0.09023 0.98609 0.00627 0.0
H1099 H 0.12677 0.96203 0.0062 0.0
H1100 H 0.98898 0.97684 0.00995 0.0
H1101 H 0.06546 0.01263 0.96082 0.0
H1102 H 0.07228 0.9912 0.96486 0.0
H1103 H 0.08697 0.00602 0.98111 0.0
C1104 C 0.05707 0.94496 0.98769 0.0
C1105 C 0.08999 0.94595 -0.00581 0.0
C1106 C 0.03654 0.95862 0.98756 0.0
C1107 C 0.0483 0.97365 -0.0061 0.0
C1108 C 0.08085 0.97466 0.00095 0.0
H1109 H 0.9603 0.06878 0.00075 0.0
H1110 H 0.99569 0.04484 0.00078 0.0
C1111 C 0.10161 0.9609 0.00105 0.0
C1112 C 0.02616 0.98811 -0.00713 0.0
H1113 H 0.01782 0.02554 0.97297 0.0
C1114 C 0.99527 0.9875 0.00186 0.0
C1115 C 0.03426 0.00193 0.98218 0.0
C1116 C 0.0664 0.00301 0.97154 0.0
C1117 C 0.97253 1.00045 0.00074 0.0
C1118 C 0.98065 0.01429 0.99007 0.0
C1119 C 0.01153 0.01488 0.98105 0.0
C1120 C 0.95862 0.02879 0.98914 0.0
C1121 C 0.94041 0.99937 0.01139 0.0
C1122 C 0.92598 0.02787 0.98222 0.0
C1123 C 0.90534 0.04167 0.98224 0.0
C1124 C 0.9172 0.05659 0.98908 0.0
C1125 C 0.95021 0.05749 -0.00457 0.0
C1126 C 0.97062 0.04379 -0.00455 0.0
H1127 H 0.94133 0.98973 0.02209 0.0
H1128 H 0.93456 0.01117 0.0181 0.0
H1129 H 0.91981 0.99638 0.00182 0.0
H1130 H 0.91641 0.01647 0.97691 0.0
H1131 H 0.8801 0.04061 0.9772 0.0
H1132 H 0.28757 0.18299 0.98117 0.0
H1133 H 0.25351 0.20745 0.9836 0.0
H1134 H 0.34205 0.23666 0.98953 0.0
H1135 H 0.37652 0.21206 0.98681 0.0
H1136 H 0.25313 0.22643 0.01494 0.0
H1137 H 0.28562 0.2634 0.95362 0.0
H1138 H 0.29483 0.24192 0.95522 0.0
H1139 H 0.32055 0.25652 0.9669 0.0
C1140 C 0.29988 0.19467 0.98252 0.0
C1141 C 0.33471 0.19564 0.98384 0.0
C1142 C 0.28034 0.20863 0.98398 0.0
C1143 C 0.29517 0.22387 0.98681 0.0
C1144 C 0.33008 0.22504 0.98712 0.0
H1145 H 0.21587 0.31965 0.00837 0.0
H1146 H 0.2508 0.29542 0.00664 0.0
C1147 C 0.34977 0.211 0.98552 0.0
C1148 C 0.27382 0.23813 0.99103 0.0
H1149 H 0.25209 0.27606 0.9762 0.0
C1150 C 0.25282 0.23729 0.00645 0.0
C1151 C 0.2735 0.25225 0.97997 0.0
C1152 C 0.29459 0.2536 0.9629 0.0
C1153 C 0.23181 0.25027 0.01122 0.0
C1154 C 0.23143 0.26439 0.00013 0.0
C1155 C 0.25247 0.26523 0.98473 0.0
C1156 C 0.2097 0.27856 0.00418 0.0
C1157 C 0.21074 0.24888 0.02829 0.0
C1158 C 0.17482 0.27709 0.0041 0.0
C1159 C 0.15467 0.29099 0.00536 0.0
C1160 C 0.1692 0.30652 0.00641 0.0
C1161 C 0.20399 0.30782 0.00753 0.0
C1162 C 0.22401 0.294 0.00645 0.0
H1163 H 0.22029 0.23937 0.03776 0.0
H1164 H 0.20973 0.26066 0.03577 0.0
H1165 H 0.18501 0.24549 0.02433 0.0
H1166 H 0.16321 0.26533 0.00208 0.0
H1167 H 0.12794 0.28966 0.00421 0.0
H1168 H 0.87796 0.71227 0.7461 0.0
H1169 H 0.91243 0.73693 0.74301 0.0
H1170 H 1.00063 0.70836 0.75266 0.0
H1171 H 0.96668 0.68387 0.75556 0.0
H1172 H 0.96311 0.75208 0.76619 0.0
H1173 H 0.01488 0.72812 0.70089 0.0
H1174 H 0.97792 0.71981 0.71142 0.0
H1175 H 0.01833 0.71449 0.72009 0.0
C1176 C 0.9046 0.71137 0.74804 0.0
C1177 C 0.91968 0.69615 0.7509 0.0
C1178 C 0.92427 0.72541 0.74613 0.0
C1179 C 0.95914 0.72434 0.7471 0.0
C1180 C 0.97386 0.70937 0.7514 0.0
H1181 H 0.12719 0.79 0.73284 0.0
H1182 H 0.09095 0.7659 0.73504 0.0
C1183 C 0.95438 0.69541 0.75319 0.0
C1184 C 0.98049 0.73859 0.7428 0.0
H1185 H 0.04025 0.75194 0.71294 0.0
C1186 C 0.97979 0.75213 0.75449 0.0
C1187 C 1.00238 0.73855 0.72755 0.0
C1188 C 0.00333 0.72454 0.71415 0.0
C1189 C 1.00097 0.7655 0.75159 0.0
C1190 C 0.0229 0.76547 0.73634 0.0
C1191 C 0.02349 0.75194 0.72461 0.0
C1192 C 0.04508 0.7795 0.73236 0.0
C1193 C 1.0003 0.77937 0.76519 0.0
C1194 C 0.03139 0.79492 0.72909 0.0
C1195 C 0.05191 0.80858 0.72791 0.0
C1196 C 0.08658 0.80707 0.72965 0.0
C1197 C 0.10056 0.79148 0.73135 0.0
C1198 C 0.07987 0.77775 0.73273 0.0
H1199 H 0.98906 0.77563 0.77848 0.0
H1200 H 0.02576 0.78407 0.76784 0.0
H1201 H 0.98512 0.78946 0.75951 0.0
H1202 H 0.00469 0.79649 0.72821 0.0
H1203 H 0.04049 0.82046 0.72642 0.0
H1204 H 0.62243 0.96119 0.73549 0.0
H1205 H 0.65662 0.98605 0.73738 0.0
H1206 H 0.74523 0.95725 0.72987 0.0
H1207 H 0.71151 0.93266 0.72795 0.0
H1208 H 0.70574 0.99027 0.76502 0.0
H1209 H 0.76168 0.99594 0.69579 0.0
H1210 H 0.72493 0.98389 0.70015 0.0
H1211 H 0.76549 0.97589 0.70535 0.0
C1212 C 0.64909 0.96031 0.73363 0.0
C1213 C 0.66435 0.94504 0.73155 0.0
C1214 C 0.66861 0.97446 0.73486 0.0
C1215 C 0.70349 0.97351 0.73367 0.0
C1216 C 0.71841 0.95835 0.73055 0.0
H1217 H 0.87307 0.03825 0.74954 0.0
H1218 H 0.8373 0.01398 0.7475 0.0
C1219 C 0.69908 0.94428 0.72951 0.0
C1220 C 0.7248 0.98788 0.73752 0.0
H1221 H 0.78813 0.0108 0.7199 0.0
C1222 C 0.7235 0.99489 0.75509 0.0
C1223 C 0.74829 0.99374 0.72465 0.0
C1224 C 0.75005 0.98708 0.70537 0.0
C1225 C 0.74552 0.00738 0.76026 0.0
C1226 C 0.76915 0.01316 0.74742 0.0
C1227 C 0.77031 0.00621 0.72982 0.0
C1228 C 0.79128 0.0272 0.75144 0.0
C1229 C 0.74377 0.01404 0.77954 0.0
C1230 C 0.77736 0.04256 0.75479 0.0
C1231 C 0.79763 0.05631 0.75595 0.0
C1232 C 0.83228 0.05504 0.75377 0.0
C1233 C 0.8465 0.03955 0.75148 0.0
C1234 C 0.82607 0.02573 0.75016 0.0
H1235 H 0.73161 0.00531 0.78907 0.0
H1236 H 0.76895 0.01696 0.78487 0.0
H1237 H 0.72887 0.02541 0.77951 0.0
H1238 H 0.75064 0.04405 0.75554 0.0
H1239 H 0.78595 0.0681 0.75768 0.0
H1240 H 0.7216 0.81884 -0.0019 0.0
H1241 H 0.75514 0.7942 -0.00275 0.0
H1242 H 0.66671 0.76498 0.00355 0.0
H1243 H 0.63255 0.78983 0.00405 0.0
H1244 H 0.76498 0.7686 0.02064 0.0
H1245 H 0.70634 0.7479 0.9556 0.0
H1246 H 0.69996 0.76806 0.96479 0.0
H1247 H 0.67794 0.75097 0.97431 0.0
C1248 C 0.70919 0.80719 -0.00048 0.0
C1249 C 0.67434 0.80626 0.00091 0.0
C1250 C 0.72848 0.7931 -0.00095 0.0
C1251 C 0.71342 0.77774 -0.0001 0.0
C1252 C 0.67878 0.77673 0.00244 0.0
H1253 H 0.79042 0.68041 -0.00741 0.0
H1254 H 0.757 0.70507 -0.00579 0.0
C1255 C 0.65932 0.79091 0.00293 0.0
C1256 C 0.73421 0.76297 -0.00271 0.0
H1257 H 0.74684 0.73058 0.96867 0.0
C1258 C 0.76102 0.76028 0.00928 0.0
C1259 C 0.72928 0.75224 0.98231 0.0
C1260 C 0.70203 0.75496 0.96839 0.0
C1261 C 0.78263 0.747 0.00691 0.0
C1262 C 0.77756 0.73625 0.992 0.0
C1263 C 0.75079 0.73892 0.98001 0.0
C1264 C 0.7982 0.72145 0.98944 0.0
C1265 C 0.81025 0.74436 0.02062 0.0
C1266 C 0.83245 0.72244 0.98562 0.0
C1267 C 0.8518 0.70824 0.98457 0.0
C1268 C 0.83709 0.69292 0.98743 0.0
C1269 C 0.80259 0.69203 0.99047 0.0
C1270 C 0.78337 0.70612 0.99139 0.0
H1271 H 0.80694 0.75189 0.03316 0.0
H1272 H 0.81161 0.73135 0.02471 0.0
H1273 H 0.83435 0.74771 0.01423 0.0
H1274 H 0.84427 0.73418 0.98378 0.0
H1275 H 0.87832 0.70928 0.98223 0.0
H1276 H 0.36963 0.53979 0.76347 0.0
H1277 H 0.33197 0.51601 0.7635 0.0
H1278 H 0.26766 0.54033 0.72493 0.0
H1279 H 0.3043 0.56388 0.72495 0.0
H1280 H 0.25399 0.51848 0.77044 0.0
H1281 H 0.29322 0.49314 0.70294 0.0
H1282 H 0.32058 0.50532 0.71707 0.0
H1283 H 0.28771 0.51487 0.7044 0.0
C1284 C 0.34747 0.54001 0.75503 0.0
C1285 C 0.33993 0.55374 0.74429 0.0
C1286 C 0.32602 0.52647 0.75505 0.0
C1287 C 0.2972 0.52644 0.7441 0.0
C1288 C 0.28985 0.54009 0.73338 0.0
H1289 H 0.1362 0.45676 0.72081 0.0
H1290 H 0.17134 0.48147 0.72098 0.0
C1291 C 0.31085 0.55358 0.7335 0.0
C1292 C 0.274 0.51243 0.74391 0.0
H1293 H 0.24533 0.48162 0.71661 0.0
C1294 C 0.25223 0.51032 0.75876 0.0
C1295 C 0.27138 0.50207 0.72847 0.0
C1296 C 0.29453 0.50381 0.7123 0.0
C1297 C 0.22777 0.49809 0.75854 0.0
C1298 C 0.22536 0.4876 0.74318 0.0
C1299 C 0.24699 0.48979 0.72827 0.0
C1300 C 0.20291 0.47326 0.74321 0.0
C1301 C 0.20443 0.49656 0.77466 0.0
C1302 C 0.20921 0.46055 0.75551 0.0
C1303 C 0.18966 0.44656 0.7553 0.0
C1304 C 0.16316 0.4449 0.7428 0.0
C1305 C 0.15636 0.45774 0.73061 0.0
C1306 C 0.17641 0.47179 0.73068 0.0
H1307 H 0.20362 0.50794 0.78292 0.0
H1308 H 0.17884 0.49358 0.77 0.0
H1309 H 0.2131 0.48656 0.78372 0.0
H1310 H 0.22971 0.46134 0.76513 0.0
H1311 H 0.19549 0.43696 0.76498 0.0
H1312 H 0.9569 0.56737 0.47661 0.0
H1313 H 0.99141 0.54303 0.4786 0.0
H1314 H 0.90412 0.51389 0.48895 0.0
H1315 H 0.86916 0.53837 0.4867 0.0
H1316 H 0.99507 0.525 0.51094 0.0
H1317 H 0.95705 0.48618 0.45203 0.0
H1318 H 0.94804 0.5077 0.45301 0.0
H1319 H 0.92368 0.49356 0.46617 0.0
C1320 C 0.9449 0.55571 0.47881 0.0
C1321 C 0.91034 0.55475 0.48153 0.0
C1322 C 0.9647 0.54183 0.48003 0.0
C1323 C 0.95042 0.52666 0.484 0.0
C1324 C 0.91564 0.52545 0.48566 0.0
H1325 H 0.03745 0.43217 0.50548 0.0
H1326 H 1.00056 0.4557 0.50391 0.0
C1327 C 0.89566 0.53942 0.48431 0.0
C1328 C 0.97244 0.51261 0.48805 0.0
H1329 H 0.99421 0.47459 0.47352 0.0
C1330 C 0.99494 0.51397 0.50275 0.0
C1331 C 0.9721 0.49823 0.47741 0.0
C1332 C 0.94914 0.49629 0.46117 0.0
C1333 C 0.01699 0.5013 0.50717 0.0
C1334 C 0.01696 0.48699 0.49639 0.0
C1335 C 0.99425 0.48558 0.48178 0.0
C1336 C 0.04007 0.47323 0.49995 0.0
C1337 C 0.03966 0.50325 0.52353 0.0
C1338 C 0.07476 0.47531 0.49888 0.0
C1339 C 0.09608 0.46182 0.50002 0.0
C1340 C 0.0829 0.44607 0.50197 0.0
C1341 C 0.04833 0.44417 0.50393 0.0
C1342 C 0.02717 0.45759 0.50295 0.0
H1343 H 0.03034 0.51269 0.53317 0.0
H1344 H 0.04236 0.49159 0.53111 0.0
H1345 H 0.06465 0.50709 0.51873 0.0
H1346 H 0.08528 0.48723 0.49626 0.0
H1347 H 0.12257 0.46362 0.49823 0.0
H1348 H 0.28771 0.68467 0.48221 0.0
H1349 H 0.25263 0.70883 0.48404 0.0
H1350 H 0.34002 0.73918 0.48715 0.0
H1351 H 0.37548 0.71491 0.48502 0.0
H1352 H 0.2523 0.72915 0.51413 0.0
H1353 H 0.28143 0.76383 0.45066 0.0
H1354 H 0.29188 0.74258 0.45335 0.0
H1355 H 0.3171 0.758 0.46397 0.0
C1356 C 0.29952 0.69652 0.48282 0.0
C1357 C 0.33436 0.69791 0.48349 0.0
C1358 C 0.27941 0.71031 0.48395 0.0
C1359 C 0.29363 0.72581 0.48576 0.0
C1360 C 0.32848 0.72736 0.4855 0.0
H1361 H 0.21285 0.82167 0.50451 0.0
H1362 H 0.24796 0.79751 0.50311 0.0
C1363 C 0.34874 0.71349 0.48424 0.0
C1364 C 0.27184 0.74003 0.48946 0.0
H1365 H 0.24843 0.7772 0.473 0.0
C1366 C 0.25134 0.73965 0.5051 0.0
C1367 C 0.27069 0.75371 0.4777 0.0
C1368 C 0.29121 0.75457 0.46039 0.0
C1369 C 0.23004 0.75265 0.50943 0.0
C1370 C 0.22886 0.76631 0.49765 0.0
C1371 C 0.24939 0.76671 0.48203 0.0
C1372 C 0.207 0.78052 0.5013 0.0
C1373 C 0.20956 0.75182 0.52676 0.0
C1374 C 0.17214 0.77896 0.50142 0.0
C1375 C 0.15184 0.79284 0.50242 0.0
C1376 C 0.16622 0.80842 0.50306 0.0
C1377 C 0.20104 0.80981 0.50395 0.0
C1378 C 0.22118 0.79602 0.50308 0.0
H1379 H 0.21933 0.74256 0.53648 0.0
H1380 H 0.20896 0.76382 0.53378 0.0
H1381 H 0.18364 0.74841 0.52319 0.0
H1382 H 0.16064 0.76712 0.4998 0.0
H1383 H 0.12511 0.79143 0.50149 0.0
H1384 H 0.88099 0.54118 0.25213 0.0
H1385 H 0.84717 0.5162 0.25045 0.0
H1386 H 0.75833 0.54526 0.24551 0.0
H1387 H 0.79162 0.57001 0.24726 0.0
H1388 H 0.75149 0.51787 0.26898 0.0
H1389 H 0.80493 0.50191 0.20084 0.0
H1390 H 0.83421 0.50487 0.21921 0.0
H1391 H 0.81011 0.52178 0.21105 0.0
C1392 C 0.8542 0.54218 0.25108 0.0
C1393 C 0.83895 0.55751 0.24967 0.0
C1394 C 0.83496 0.52794 0.24994 0.0
C1395 C 0.80031 0.52891 0.24748 0.0
C1396 C 0.78501 0.54422 0.24725 0.0
H1397 H 0.63313 0.46219 0.23114 0.0
H1398 H 0.66819 0.4867 0.23278 0.0
C1399 C 0.80411 0.55836 0.24825 0.0
C1400 C 0.77974 0.51419 0.24424 0.0
H1401 H 0.76433 0.48416 0.2129 0.0
C1402 C 0.75431 0.51046 0.25675 0.0
C1403 C 0.78333 0.50465 0.22818 0.0
C1404 C 0.80942 0.5085 0.21393 0.0
C1405 C 0.73264 0.4973 0.25377 0.0
C1406 C 0.73601 0.48785 0.23762 0.0
C1407 C 0.76157 0.49153 0.22516 0.0
C1408 C 0.71466 0.47343 0.23407 0.0
C1409 C 0.70682 0.4934 0.26816 0.0
C1410 C 0.72924 0.45796 0.23314 0.0
C1411 C 0.7094 0.44406 0.23203 0.0
C1412 C 0.67451 0.44532 0.23174 0.0
C1413 C 0.65992 0.46086 0.23134 0.0
C1414 C 0.6799 0.47483 0.2325 0.0
H1415 H 0.71245 0.49939 0.28149 0.0
H1416 H 0.68219 0.49781 0.26343 0.0
H1417 H 0.70503 0.48006 0.27044 0.0
H1418 H 0.75598 0.45659 0.23414 0.0
H1419 H 0.72142 0.43226 0.23222 0.0
H1420 H 0.71401 0.31931 0.50132 0.0
H1421 H 0.74965 0.29537 0.49942 0.0
H1422 H 0.66309 0.26434 0.49913 0.0
H1423 H 0.62695 0.28847 0.50087 0.0
H1424 H 0.75724 0.26738 0.52092 0.0
H1425 H 0.71134 0.25282 0.45082 0.0
H1426 H 0.70285 0.27201 0.46194 0.0
H1427 H 0.67984 0.25411 0.46826 0.0
C1428 C 0.70247 0.30738 0.50114 0.0
C1429 C 0.66764 0.30577 0.50109 0.0
C1430 C 0.72293 0.29371 0.50005 0.0
C1431 C 0.70906 0.2781 0.49873 0.0
C1432 C 0.67429 0.27632 0.49978 0.0
H1433 H 0.79 0.18253 0.48323 0.0
H1434 H 0.75615 0.20705 0.48482 0.0
C1435 C 0.65368 0.29008 0.50098 0.0
C1436 C 0.73122 0.26393 0.4954 0.0
H1437 H 0.75056 0.23473 0.46373 0.0
C1438 C 0.75583 0.26023 0.50842 0.0
C1439 C 0.72958 0.25476 0.47897 0.0
C1440 C 0.70471 0.25865 0.46409 0.0
C1441 C 0.77828 0.24734 0.50569 0.0
C1442 C 0.77653 0.23811 0.48929 0.0
C1443 C 0.75205 0.24189 0.47622 0.0
C1444 C 0.79793 0.2236 0.48619 0.0
C1445 C 0.803 0.2434 0.52063 0.0
C1446 C 0.83285 0.22476 0.48561 0.0
C1447 C 0.85248 0.21063 0.48463 0.0
C1448 C 0.83735 0.19521 0.48424 0.0
C1449 C 0.80243 0.19424 0.48366 0.0
C1450 C 0.78298 0.20826 0.48458 0.0
H1451 H 0.79645 0.24934 0.53385 0.0
H1452 H 0.80455 0.23005 0.52288 0.0
H1453 H 0.82799 0.24779 0.51646 0.0
H1454 H 0.84491 0.23653 0.48645 0.0
H1455 H 0.8793 0.21175 0.48513 0.0
H1456 H 0.36809 0.21332 0.74947 0.0
H1457 H 0.40219 0.23822 0.74757 0.0
H1458 H 0.49066 0.20888 0.74266 0.0
H1459 H 0.45723 0.18426 0.74477 0.0
H1460 H 0.49875 0.23509 0.76612 0.0
H1461 H 0.44449 0.2542 0.69924 0.0
H1462 H 0.41541 0.25124 0.71769 0.0
H1463 H 0.43799 0.23414 0.70873 0.0
C1464 C 0.39485 0.21225 0.7483 0.0
C1465 C 0.40994 0.19685 0.74713 0.0
C1466 C 0.41425 0.22644 0.74701 0.0
C1467 C 0.44892 0.22538 0.74459 0.0
C1468 C 0.46399 0.21001 0.74437 0.0
H1469 H 0.61969 0.2899 0.72927 0.0
H1470 H 0.58265 0.26606 0.73008 0.0
C1471 C 0.44476 0.19593 0.74558 0.0
C1472 C 0.46997 0.24005 0.74185 0.0
H1473 H 0.4862 0.27106 0.71184 0.0
C1474 C 0.49597 0.24299 0.75428 0.0
C1475 C 0.46644 0.25025 0.7263 0.0
C1476 C 0.43978 0.2473 0.71211 0.0
C1477 C 0.51838 0.25591 0.7517 0.0
C1478 C 0.51511 0.266 0.73605 0.0
C1479 C 0.48888 0.26319 0.72371 0.0
C1480 C 0.53744 0.28015 0.73294 0.0
C1481 C 0.54498 0.25884 0.76594 0.0
C1482 C 0.52416 0.29591 0.73325 0.0
C1483 C 0.54513 0.30944 0.73267 0.0
C1484 C 0.57985 0.30752 0.73165 0.0
C1485 C 0.59306 0.29175 0.73006 0.0
C1486 C 0.57196 0.27814 0.73071 0.0
H1487 H 0.53952 0.25239 0.77901 0.0
H1488 H 0.56914 0.2543 0.76067 0.0
H1489 H 0.54765 0.27205 0.76888 0.0
H1490 H 0.49763 0.29776 0.7348 0.0
H1491 H 0.53414 0.32144 0.73377 0.0
H1492 H 0.37193 0.03871 0.48469 0.0
H1493 H 0.40632 0.01395 0.48704 0.0
H1494 H 0.4951 0.04329 0.48378 0.0
H1495 H 0.46125 0.06783 0.48163 0.0
H1496 H 0.4605 1.00069 0.46464 0.0
H1497 H 0.50248 0.01979 0.534 0.0
H1498 H 0.46683 0.0287 0.52276 0.0
H1499 H 0.50816 0.0349 0.51644 0.0
C1500 C 0.39876 0.03978 0.48403 0.0
C1501 C 0.41395 0.05517 0.48317 0.0
C1502 C 0.41835 0.02568 0.4855 0.0
C1503 C 0.45324 0.02688 0.48609 0.0
C1504 C 0.46825 0.04214 0.48382 0.0
H1505 H 0.62132 0.96142 0.50075 0.0
H1506 H 0.58472 0.98538 0.49875 0.0
C1507 C 0.44884 0.05613 0.48248 0.0
C1508 C 0.47427 0.01244 0.48991 0.0
H1509 H 0.53062 0.99728 0.52065 0.0
C1510 C 0.47562 0.99985 0.47694 0.0
C1511 C 0.49411 0.01145 0.50595 0.0
C1512 C 0.4927 0.02435 0.52069 0.0
C1513 C 0.49694 0.98647 0.47936 0.0
C1514 C 0.51691 0.98552 0.49537 0.0
C1515 C 0.51539 0.99807 0.50839 0.0
C1516 C 0.53904 0.97141 0.49889 0.0
C1517 C 0.49852 0.97365 0.46454 0.0
C1518 C 0.52543 0.95577 0.50058 0.0
C1519 C 0.54614 0.9422 0.50172 0.0
C1520 C 0.58092 0.94397 0.5014 0.0
C1521 C 0.59462 0.95971 0.5011 0.0
C1522 C 0.57375 0.97336 0.49983 0.0
H1523 H 0.48854 0.97822 0.45128 0.0
H1524 H 0.52447 0.96946 0.46236 0.0
H1525 H 0.48335 0.963 0.46875 0.0
H1526 H 0.49873 0.95402 0.50039 0.0
H1527 H 0.53484 0.93022 0.50213 0.0
H1528 H 0.54278 0.81682 0.23565 0.0
H1529 H 0.5075 0.79281 0.23853 0.0
H1530 H 0.59448 0.76214 0.23989 0.0
H1531 H 0.63027 0.78635 0.23671 0.0
H1532 H 0.54039 0.74948 0.21881 0.0
H1533 H 0.49882 0.76923 0.28795 0.0
H1534 H 0.49275 0.78426 0.27037 0.0
H1535 H 0.53423 0.77815 0.2765 0.0
C1536 C 0.55447 0.80495 0.2363 0.0
C1537 C 0.58931 0.80345 0.23614 0.0
C1538 C 0.53424 0.79125 0.23808 0.0
C1539 C 0.54838 0.77576 0.24 0.0
C1540 C 0.58311 0.77405 0.23866 0.0
H1541 H 0.46639 0.67962 0.25725 0.0
H1542 H 0.50207 0.70362 0.2558 0.0
C1543 C 0.60351 0.78784 0.23673 0.0
C1544 C 0.52669 0.76155 0.2439 0.0
H1545 H 0.4698 0.74689 0.27469 0.0
C1546 C 0.52514 0.74884 0.23108 0.0
C1547 C 0.50669 0.76079 0.25991 0.0
C1548 C 0.50835 0.77376 0.27457 0.0
C1549 C 0.5036 0.73556 0.23363 0.0
C1550 C 0.48351 0.73484 0.2496 0.0
C1551 C 0.4851 0.74752 0.26245 0.0
C1552 C 0.46147 0.72073 0.25329 0.0
C1553 C 0.50202 0.72255 0.21902 0.0
C1554 C 0.42668 0.7225 0.2536 0.0
C1555 C 0.40605 0.70872 0.2547 0.0
C1556 C 0.42011 0.69308 0.25543 0.0
C1557 C 0.45488 0.69153 0.25649 0.0
C1558 C 0.47533 0.70521 0.25554 0.0
H1559 H 0.51232 0.72689 0.20573 0.0
H1560 H 0.51688 0.71189 0.2235 0.0
H1561 H 0.47601 0.71844 0.21678 0.0
H1562 H 0.41553 0.73442 0.25207 0.0
H1563 H 0.37935 0.71024 0.25376 0.0
H1564 H 0.62849 0.46307 0.00294 0.0
H1565 H 0.59347 0.48766 0.00229 0.0
H1566 H 0.50618 0.45769 -0.0043 0.0
H1567 H 0.54054 0.43335 -0.00342 0.0
H1568 H 0.55283 0.49676 0.9726 0.0
H1569 H 0.47691 0.48923 0.0355 0.0
H1570 H 0.51503 0.4781 0.03174 0.0
H1571 H 0.47691 0.47146 0.02116 0.0
C1572 C 0.60176 0.46177 0.00182 0.0
C1573 C 0.58729 0.44629 -0.00017 0.0
C1574 C 0.58182 0.4758 0.00133 0.0
C1575 C 0.54715 0.4745 -0.00088 0.0
C1576 C 0.53272 0.45901 -0.00223 0.0
H1577 H 0.3805 0.54124 0.98267 0.0
H1578 H 0.41621 0.51691 0.98348 0.0
C1579 C 0.55251 0.44509 -0.00182 0.0
C1580 C 0.52603 0.48918 -0.00327 0.0
H1581 H 0.45684 0.50828 0.01337 0.0
C1582 C 0.53204 0.49938 0.98162 0.0
C1583 C 0.49864 0.49247 0.00836 0.0
C1584 C 0.49162 0.48232 0.0252 0.0
C1585 C 0.51105 0.5126 0.97762 0.0
C1586 C 0.48359 0.51584 0.98922 0.0
C1587 C 0.47764 0.50567 0.00436 0.0
C1588 C 0.46214 0.53039 0.98669 0.0
C1589 C 0.5181 0.52277 0.96081 0.0
C1590 C 0.47613 0.54597 0.98801 0.0
C1591 C 0.45594 0.55976 0.98752 0.0
C1592 C 0.4212 0.55832 0.98581 0.0
C1593 C 0.40718 0.54274 0.98385 0.0
C1594 C 0.42752 0.52885 0.98442 0.0
H1595 H 0.53311 0.51595 0.95057 0.0
H1596 H 0.4947 0.52687 0.95417 0.0
H1597 H 0.5325 0.53371 0.9649 0.0
H1598 H 0.50261 0.54748 0.99013 0.0
H1599 H 0.46757 0.57158 0.98909 0.0
H1600 H 0.12642 0.36946 0.45014 0.0
H1601 H 0.13238 0.35919 0.41868 0.0
H1602 H 0.14191 0.40847 0.39877 0.0
H1603 H 0.13691 0.41873 0.43002 0.0
H1604 H 0.09352 0.36515 0.38878 0.0
H1605 H 0.22176 0.38685 0.37563 0.0
H1606 H 0.20393 0.3863 0.39837 0.0
H1607 H 0.19482 0.40294 0.38308 0.0
C1608 C 0.12993 0.37805 0.43903 0.0
C1609 C 0.13145 0.39486 0.44248 0.0
C1610 C 0.13338 0.37219 0.42113 0.0
C1611 C 0.13835 0.38307 0.40651 0.0
C1612 C 0.13912 0.39986 0.40993 0.0
H1613 H 0.13016 0.37981 0.2889 0.0
H1614 H 0.13116 0.38736 0.32149 0.0
C1615 C 0.13598 0.4057 0.42778 0.0
C1616 C 0.14125 0.37704 0.38751 0.0
H1617 H 0.18978 0.37922 0.34914 0.0
C1618 C 0.11474 0.36803 0.38017 0.0
C1619 C 0.16906 0.38081 0.37638 0.0
C1620 C 0.19914 0.38961 0.38383 0.0
C1621 C 0.11479 0.36318 0.36174 0.0
C1622 C 0.14201 0.36747 0.35052 0.0
C1623 C 0.16885 0.37615 0.35789 0.0
C1624 C 0.14284 0.36308 0.33099 0.0
C1625 C 0.08548 0.35385 0.3542 0.0
C1626 C 0.14958 0.34702 0.32578 0.0
C1627 C 0.14918 0.3427 0.30729 0.0
C1628 C 0.14189 0.35439 0.29379 0.0
C1629 C 0.13571 0.37056 0.29905 0.0
C1630 C 0.13631 0.37489 0.31758 0.0
H1631 H 0.06469 0.35306 0.36421 0.0
H1632 H 0.07628 0.35971 0.34144 0.0
H1633 H 0.09344 0.3413 0.35063 0.0
H1634 H 0.15484 0.33782 0.33605 0.0
H1635 H 0.15411 0.33015 0.30361 0.0
H1636 H 0.08102 0.90753 0.29806 0.0
H1637 H 0.07959 0.89828 0.32991 0.0
H1638 H 0.16635 0.86855 0.32014 0.0
H1639 H 0.16643 0.87704 0.28781 0.0
H1640 H 0.12563 0.85313 0.34143 0.0
H1641 H 0.13871 0.91562 0.36868 0.0
H1642 H 0.10201 0.91382 0.35491 0.0
H1643 H 0.14239 0.91115 0.34455 0.0
C1644 C 0.09963 0.89894 0.30273 0.0
C1645 C 0.1241 0.89311 0.29071 0.0
C1646 C 0.09898 0.89378 0.32094 0.0
C1647 C 0.12359 0.8832 0.32757 0.0
C1648 C 0.14735 0.87688 0.31534 0.0
H1649 H 0.16067 0.87433 0.44467 0.0
H1650 H 0.16306 0.88115 0.41198 0.0
C1651 C 0.14741 0.88169 0.29694 0.0
C1652 C 0.12456 0.87884 0.34727 0.0
H1653 H 0.12268 0.89518 0.39029 0.0
C1654 C 0.12533 0.86232 0.35214 0.0
C1655 C 0.1249 0.89085 0.36123 0.0
C1656 C 0.12735 0.90883 0.35706 0.0
C1657 C 0.12577 0.85745 0.37058 0.0
C1658 C 0.12384 0.86945 0.38451 0.0
C1659 C 0.12368 0.88597 0.37962 0.0
C1660 C 0.12236 0.86523 0.40425 0.0
C1661 C 0.12908 0.83952 0.37483 0.0
C1662 C 0.09831 0.85428 0.41083 0.0
C1663 C 0.09755 0.85008 0.42937 0.0
C1664 C 0.12001 0.85722 0.44171 0.0
C1665 C 0.14306 0.86872 0.43535 0.0
C1666 C 0.14445 0.87257 0.41671 0.0
H1667 H 0.14154 0.83291 0.36344 0.0
H1668 H 0.14348 0.83746 0.38762 0.0
H1669 H 0.10394 0.83415 0.37653 0.0
H1670 H 0.08015 0.84896 0.40164 0.0
H1671 H 0.07924 0.84134 0.43407 0.0
H1672 H 0.13232 0.8816 0.78513 0.0
H1673 H 0.13984 0.89005 0.81715 0.0
H1674 H 0.15269 0.83983 0.83311 0.0
H1675 H 0.14629 0.8314 0.80121 0.0
H1676 H 0.10287 0.88209 0.84679 0.0
H1677 H 0.2323 0.8607 0.85706 0.0
H1678 H 0.21349 0.86215 0.83462 0.0
H1679 H 0.20506 0.8449 0.84914 0.0
C1680 C 0.13695 0.87241 0.79548 0.0
C1681 C 0.13895 0.85588 0.79074 0.0
C1682 C 0.14128 0.87723 0.81371 0.0
C1683 C 0.14754 0.86558 0.8274 0.0
C1684 C 0.14892 0.84905 0.82268 0.0
H1685 H 0.13481 0.87011 0.94569 0.0
H1686 H 0.1367 0.8612 0.91354 0.0
C1687 C 0.14499 0.84425 0.80448 0.0
C1688 C 0.15102 0.87059 0.84676 0.0
H1689 H 0.20206 0.868 0.88414 0.0
C1690 C 0.12466 0.87912 0.85491 0.0
C1691 C 0.17955 0.86669 0.85729 0.0
C1692 C 0.20934 0.85825 0.84903 0.0
C1693 C 0.12581 0.88361 0.87343 0.0
C1694 C 0.15393 0.87939 0.88397 0.0
C1695 C 0.18046 0.87102 0.8759 0.0
C1696 C 0.15623 0.88403 0.90339 0.0
C1697 C 0.097 0.89277 0.88174 0.0
C1698 C 0.1673 0.89963 0.9081 0.0
C1699 C 0.16628 0.90474 0.92633 0.0
C1700 C 0.15405 0.89429 0.94005 0.0
C1701 C 0.14421 0.87841 0.93536 0.0
C1702 C 0.14531 0.87331 0.91708 0.0
H1703 H 0.07617 0.8944 0.87189 0.0
H1704 H 0.08764 0.88619 0.89402 0.0
H1705 H 0.10555 0.90497 0.88634 0.0
H1706 H 0.17577 0.90801 0.89759 0.0
H1707 H 0.17412 0.91703 0.92957 0.0
H1708 H 0.06517 0.40222 0.80022 0.0
H1709 H 0.06412 0.39285 0.83211 0.0
H1710 H 0.15384 0.36522 0.82266 0.0
H1711 H 0.15367 0.37373 0.79049 0.0
H1712 H 0.1149 0.34893 0.84394 0.0
H1713 H 0.12196 0.41199 0.87054 0.0
H1714 H 0.08528 0.40884 0.85704 0.0
H1715 H 0.1257 0.40738 0.84645 0.0
C1716 C 0.08438 0.39398 0.80497 0.0
C1717 C 0.10968 0.38877 0.79309 0.0
C1718 C 0.08397 0.38878 0.82318 0.0
C1719 C 0.10954 0.3788 0.82991 0.0
C1720 C 0.13402 0.37304 0.8178 0.0
H1721 H 0.15903 0.37175 0.94545 0.0
H1722 H 0.15682 0.37833 0.91267 0.0
C1723 C 0.13391 0.37788 0.79945 0.0
C1724 C 0.11131 0.37462 0.84963 0.0
H1725 H 0.11159 0.39121 0.89253 0.0
C1726 C 0.11438 0.35818 0.85457 0.0
C1727 C 0.11138 0.38674 0.86346 0.0
C1728 C 0.11128 0.40472 0.8591 0.0
C1729 C 0.11727 0.35348 0.87299 0.0
C1730 C 0.11543 0.36553 0.88686 0.0
C1731 C 0.11259 0.38197 0.8819 0.0
C1732 C 0.11684 0.36144 0.90661 0.0
C1733 C 0.12326 0.33573 0.87726 0.0
C1734 C 0.09477 0.34999 0.91411 0.0
C1735 C 0.09661 0.34595 0.93266 0.0
C1736 C 0.11978 0.35372 0.9441 0.0
C1737 C 0.14096 0.36564 0.93682 0.0
C1738 C 0.13971 0.36937 0.91815 0.0
H1739 H 0.13506 0.32935 0.86548 0.0
H1740 H 0.13945 0.33423 0.88949 0.0
H1741 H 0.0991 0.32967 0.87999 0.0
H1742 H 0.0761 0.34417 0.90564 0.0
H1743 H 0.07969 0.33688 0.93809 0.0
H1744 H 0.92351 0.62715 0.69667 0.0
H1745 H 0.92786 0.61902 0.66433 0.0
H1746 H 0.84273 0.64892 0.65138 0.0
H1747 H 0.83973 0.65779 0.68331 0.0
H1748 H 0.88993 0.60349 0.64212 0.0
H1749 H 0.90522 0.66531 0.61383 0.0
H1750 H 0.90671 0.66134 0.63815 0.0
H1751 H 0.86735 0.66419 0.62668 0.0
C1752 C 0.90583 0.63194 0.68684 0.0
C1753 C 0.88157 0.64321 0.69228 0.0
C1754 C 0.90835 0.62735 0.66841 0.0
C1755 C 0.88626 0.63377 0.65532 0.0
C1756 C 0.86092 0.64436 0.66105 0.0
H1757 H 0.83489 0.59052 0.55207 0.0
H1758 H 0.84088 0.59874 0.58412 0.0
C1759 C 0.85898 0.64927 0.67931 0.0
C1760 C 0.88897 0.62912 0.63575 0.0
H1761 H 0.887 0.64475 0.5924 0.0
C1762 C 0.88979 0.61251 0.63124 0.0
C1763 C 0.88977 0.64088 0.62154 0.0
C1764 C 0.89263 0.65891 0.62533 0.0
C1765 C 0.88986 0.60734 0.61291 0.0
C1766 C 0.88743 0.6191 0.59875 0.0
C1767 C 0.88815 0.63571 0.60325 0.0
C1768 C 0.88326 0.61449 0.57923 0.0
C1769 C 0.89288 0.58935 0.60903 0.0
C1770 C 0.90372 0.62138 0.56565 0.0
C1771 C 0.89943 0.61717 0.54722 0.0
C1772 C 0.87503 0.60581 0.54221 0.0
C1773 C 0.8542 0.59915 0.55571 0.0
C1774 C 0.85788 0.60369 0.57402 0.0
H1775 H 0.9067 0.58304 0.62016 0.0
H1776 H 0.86766 0.58388 0.60839 0.0
H1777 H 0.90582 0.58702 0.59583 0.0
H1778 H 0.92326 0.62987 0.56932 0.0
H1779 H 0.91582 0.62241 0.53699 0.0
H1780 H 0.83387 0.12318 0.69763 0.0
H1781 H 0.83072 0.13099 0.66517 0.0
H1782 H 0.91324 0.09911 0.65307 0.0
H1783 H 0.91496 0.09057 0.68515 0.0
H1784 H 0.87052 0.14548 0.64317 0.0
H1785 H 0.85012 0.08381 0.61527 0.0
H1786 H 0.8487 0.08797 0.63955 0.0
H1787 H 0.88793 0.08436 0.62823 0.0
C1788 C 0.85122 0.11787 0.68796 0.0
C1789 C 0.87437 0.10617 0.6937 0.0
C1790 C 0.8494 0.12228 0.66947 0.0
C1791 C 0.8711 0.11525 0.65658 0.0
C1792 C 0.89533 0.10417 0.66258 0.0
H1793 H 0.92104 0.15768 0.55206 0.0
H1794 H 0.91763 0.14914 0.58414 0.0
C1795 C 0.89655 0.09944 0.68093 0.0
C1796 C 0.86915 0.11982 0.63696 0.0
H1797 H 0.86902 0.10399 0.59369 0.0
C1798 C 0.86974 0.13641 0.63235 0.0
C1799 C 0.86728 0.10801 0.62283 0.0
C1800 C 0.86307 0.09007 0.62675 0.0
C1801 C 0.86966 0.1415 0.614 0.0
C1802 C 0.87068 0.12964 0.59989 0.0
C1803 C 0.86891 0.11308 0.6045 0.0
C1804 C 0.87383 0.13412 0.58028 0.0
C1805 C 0.86795 0.15953 0.61004 0.0
C1806 C 0.85172 0.12768 0.56722 0.0
C1807 C 0.85449 0.13204 0.54876 0.0
C1808 C 0.87902 0.14314 0.54321 0.0
C1809 C 0.90162 0.14927 0.55614 0.0
C1810 C 0.89943 0.14455 0.57448 0.0
H1811 H 0.85544 0.16619 0.62138 0.0
H1812 H 0.89356 0.16446 0.60883 0.0
H1813 H 0.85435 0.16205 0.59708 0.0
H1814 H 0.83196 0.11948 0.57135 0.0
H1815 H 0.83677 0.12721 0.53897 0.0
H1816 H 0.85588 0.17161 0.18243 0.0
H1817 H 0.84925 0.16321 0.15054 0.0
H1818 H 0.86304 0.11302 0.16635 0.0
H1819 H 0.87081 0.12144 0.19837 0.0
H1820 H 0.90075 0.12133 0.13728 0.0
H1821 H 0.77131 0.14206 0.12543 0.0
H1822 H 0.79791 0.158 0.13367 0.0
H1823 H 0.78924 0.14071 0.14811 0.0
C1824 C 0.85723 0.15876 0.17915 0.0
C1825 C 0.86381 0.14714 0.19283 0.0
C1826 C 0.85316 0.15398 0.16094 0.0
C1827 C 0.85493 0.13748 0.15617 0.0
C1828 C 0.86133 0.12582 0.16983 0.0
H1829 H 0.83308 0.08579 0.05406 0.0
H1830 H 0.82995 0.0951 0.08589 0.0
C1831 C 0.86581 0.13062 0.18806 0.0
C1832 C 0.85231 0.13253 0.13674 0.0
H1833 H 0.80281 0.13494 0.09872 0.0
C1834 C 0.87922 0.12419 0.1289 0.0
C1835 C 0.82417 0.13633 0.12586 0.0
C1836 C 0.79389 0.14463 0.13374 0.0
C1837 C 0.87897 0.11975 0.11036 0.0
C1838 C 0.85118 0.12381 0.09948 0.0
C1839 C 0.82414 0.13203 0.10723 0.0
C1840 C 0.8497 0.11904 0.08008 0.0
C1841 C 0.90834 0.11076 0.1024 0.0
C1842 C 0.86129 0.12963 0.06642 0.0
C1843 C 0.86324 0.12436 0.04823 0.0
C1844 C 0.85362 0.10843 0.04359 0.0
C1845 C 0.84079 0.09811 0.05726 0.0
C1846 C 0.83889 0.10339 0.0754 0.0
H1847 H 0.9288 0.10925 0.11251 0.0
H1848 H 0.90027 0.09852 0.09769 0.0
H1849 H 0.91804 0.1174 0.09025 0.0
H1850 H 0.86974 0.14177 0.06995 0.0
H1851 H 0.87309 0.13256 0.03793 0.0
H1852 H 0.94343 0.65504 0.04537 0.0
H1853 H 0.95289 0.64628 0.07702 0.0
H1854 H 0.86653 0.6151 0.0738 0.0
H1855 H 0.85827 0.62314 0.04179 0.0
H1856 H 0.91578 0.65177 0.10467 0.0
H1857 H 0.92835 0.5851 0.09896 0.0
H1858 H 0.92946 0.59822 0.0791 0.0
H1859 H 0.89025 0.59153 0.08851 0.0
C1860 C 0.92691 0.64606 0.05136 0.0
C1861 C 0.90014 0.63972 0.04128 0.0
C1862 C 0.93231 0.64108 0.06941 0.0
C1863 C 0.91067 0.62989 0.07775 0.0
C1864 C 0.88418 0.62336 0.06752 0.0
H1865 H 0.85895 0.6261 0.1918 0.0
H1866 H 0.86727 0.63336 0.15953 0.0
C1867 C 0.87929 0.62804 0.0493 0.0
C1868 C 0.9139 0.62627 0.09758 0.0
H1869 H 0.9117 0.59534 0.12871 0.0
C1870 C 0.91546 0.6394 0.10991 0.0
C1871 C 0.9142 0.61016 0.10445 0.0
C1872 C 0.91587 0.59548 0.09201 0.0
C1873 C 0.91592 0.6369 0.12892 0.0
C1874 C 0.91325 0.62085 0.13578 0.0
C1875 C 0.91313 0.60768 0.12346 0.0
C1876 C 0.90958 0.61737 0.15562 0.0
C1877 C 0.91951 0.65148 0.14137 0.0
C1878 C 0.93007 0.60574 0.16402 0.0
C1879 C 0.92466 0.60125 0.18223 0.0
C1880 C 0.89898 0.6085 0.1924 0.0
C1881 C 0.87912 0.6205 0.18424 0.0
C1882 C 0.88405 0.62473 0.16587 0.0
H1883 H 0.93321 0.6615 0.13443 0.0
H1884 H 0.89445 0.65616 0.14495 0.0
H1885 H 0.93283 0.64833 0.15425 0.0
H1886 H 0.94988 0.5999 0.15639 0.0
H1887 H 0.94041 0.592 0.1883 0.0
H1888 H 0.66287 0.41673 0.93113 0.0
H1889 H 0.66523 0.40707 0.89943 0.0
H1890 H 0.62169 0.36135 0.91597 0.0
H1891 H 0.61913 0.37094 0.94783 0.0
H1892 H 0.69595 0.37733 0.88439 0.0
H1893 H 0.55857 0.38111 0.87557 0.0
H1894 H 0.58021 0.39146 0.8939 0.0
H1895 H 0.57337 0.36989 0.89515 0.0
C1896 C 0.65395 0.40458 0.92805 0.0
C1897 C 0.64049 0.39462 0.94187 0.0
C1898 C 0.65543 0.39909 0.90997 0.0
C1899 C 0.64331 0.38361 0.90545 0.0
C1900 C 0.63081 0.37342 0.91927 0.0
H1901 H 0.65607 0.33237 0.80209 0.0
H1902 H 0.66062 0.34086 0.83414 0.0
C1903 C 0.62941 0.37889 0.93741 0.0
C1904 C 0.64255 0.37849 0.8861 0.0
H1905 H 0.58961 0.37121 0.85047 0.0
C1906 C 0.67277 0.37593 0.87694 0.0
C1907 C 0.61219 0.37692 0.8765 0.0
C1908 C 0.57917 0.38008 0.88567 0.0
C1909 C 0.67338 0.37167 0.8583 0.0
C1910 C 0.64298 0.36992 0.84878 0.0
C1911 C 0.6128 0.37258 0.85792 0.0
C1912 C 0.64183 0.36516 0.82931 0.0
C1913 C 0.7064 0.36929 0.84885 0.0
C1914 C 0.62948 0.37603 0.81612 0.0
C1915 C 0.6268 0.37123 0.79779 0.0
C1916 C 0.63613 0.35544 0.79252 0.0
C1917 C 0.64869 0.34463 0.80578 0.0
C1918 C 0.65149 0.34946 0.82405 0.0
H1919 H 0.72734 0.37433 0.85704 0.0
H1920 H 0.71086 0.35608 0.84685 0.0
H1921 H 0.70635 0.37517 0.83512 0.0
H1922 H 0.62176 0.38818 0.82004 0.0
H1923 H 0.61705 0.37978 0.78783 0.0
H1924 H 0.6625 0.87505 0.9433 0.0
H1925 H 0.65793 0.88335 0.9111 0.0
H1926 H 0.57611 0.84988 0.90368 0.0
H1927 H 0.58199 0.84092 0.93547 0.0
H1928 H 0.61692 0.84663 0.877 0.0
H1929 H 0.594 0.9125 0.886 0.0
H1930 H 0.63206 0.90655 0.89688 0.0
H1931 H 0.59306 0.89843 0.905 0.0
C1932 C 0.64339 0.86963 0.93478 0.0
C1933 C 0.62266 0.85736 0.94171 0.0
C1934 C 0.6406 0.87444 0.91646 0.0
C1935 C 0.61628 0.86744 0.90506 0.0
C1936 C 0.59504 0.85545 0.91221 0.0
H1937 H 0.57448 0.90769 0.79727 0.0
H1938 H 0.57079 0.89877 0.82921 0.0
C1939 C 0.59839 0.85036 0.93034 0.0
C1940 C 0.61423 0.87179 0.88539 0.0
H1941 H 0.61065 0.90394 0.8559 0.0
C1942 C 0.61514 0.85917 0.87239 0.0
C1943 C 0.61131 0.8881 0.87938 0.0
C1944 C 0.60717 0.90213 0.89257 0.0
C1945 C 0.61381 0.86241 0.85353 0.0
C1946 C 0.61317 0.87878 0.84751 0.0
C1947 C 0.61161 0.89139 0.86051 0.0
C1948 C 0.61418 0.88318 0.82783 0.0
C1949 C 0.61241 0.84822 0.84037 0.0
C1950 C 0.63962 0.87729 0.8164 0.0
C1951 C 0.64116 0.88201 0.79801 0.0
C1952 C 0.61799 0.89315 0.79103 0.0
C1953 C 0.59269 0.89912 0.80244 0.0
C1954 C 0.59061 0.89406 0.82066 0.0
H1955 H 0.60141 0.83728 0.847 0.0
H1956 H 0.59756 0.85118 0.82796 0.0
H1957 H 0.63804 0.84501 0.83605 0.0
H1958 H 0.65873 0.86932 0.82176 0.0
H1959 H 0.66112 0.87744 0.78946 0.0
H1960 H 0.67777 0.90992 0.43612 0.0
H1961 H 0.68333 0.90115 0.40419 0.0
H1962 H 0.59816 0.8696 0.41073 0.0
H1963 H 0.59407 0.87755 0.44306 0.0
H1964 H 0.64235 0.85494 0.3916 0.0
H1965 H 0.62883 0.91696 0.36278 0.0
H1966 H 0.66403 0.91558 0.37777 0.0
H1967 H 0.62269 0.91272 0.38681 0.0
C1968 C 0.66036 0.90107 0.43069 0.0
C1969 C 0.63529 0.89448 0.44183 0.0
C1970 C 0.66334 0.89619 0.41244 0.0
C1971 C 0.64051 0.88512 0.4049 0.0
C1972 C 0.61591 0.87825 0.41622 0.0
H1973 H 0.60286 0.8729 0.28908 0.0
H1974 H 0.60384 0.88132 0.32129 0.0
C1975 C 0.61354 0.88278 0.43464 0.0
C1976 C 0.64232 0.88057 0.38527 0.0
H1977 H 0.64561 0.89624 0.34194 0.0
C1978 C 0.64284 0.86397 0.38073 0.0
C1979 C 0.64247 0.89237 0.37109 0.0
C1980 C 0.63911 0.91038 0.37485 0.0
C1981 C 0.64333 0.85881 0.36241 0.0
C1982 C 0.64507 0.87061 0.34826 0.0
C1983 C 0.6447 0.88721 0.35281 0.0
C1984 C 0.64574 0.86605 0.32862 0.0
C1985 C 0.64074 0.84079 0.35851 0.0
C1986 C 0.66951 0.85502 0.32194 0.0
C1987 C 0.66834 0.84989 0.30371 0.0
C1988 C 0.6442 0.85617 0.29175 0.0
C1989 C 0.62171 0.86792 0.2981 0.0
C1990 C 0.62227 0.87271 0.31647 0.0
H1991 H 0.62916 0.83413 0.37015 0.0
H1992 H 0.62584 0.83839 0.34596 0.0
H1993 H 0.66605 0.83572 0.35649 0.0
H1994 H 0.68863 0.8502 0.33087 0.0
H1995 H 0.68625 0.84097 0.29897 0.0
H1996 H 0.62986 0.38142 0.44861 0.0
H1997 H 0.62973 0.39071 0.41656 0.0
H1998 H 0.60612 0.34205 0.39854 0.0
H1999 H 0.60595 0.33267 0.43039 0.0
H2000 H 0.66848 0.36224 0.38268 0.0
H2001 H 0.54221 0.39015 0.37942 0.0
H2002 H 0.56768 0.3932 0.39953 0.0
H2003 H 0.5513 0.37337 0.39468 0.0
C2004 C 0.62446 0.37275 0.43781 0.0
C2005 C 0.61803 0.35633 0.44193 0.0
C2006 C 0.62434 0.37806 0.4196 0.0
C2007 C 0.61786 0.36701 0.40538 0.0
C2008 C 0.61109 0.35069 0.40944 0.0
H2009 H 0.63455 0.3704 0.28659 0.0
H2010 H 0.63176 0.36173 0.31877 0.0
C2011 C 0.611 0.34539 0.42761 0.0
C2012 C 0.61947 0.37226 0.38613 0.0
H2013 H 0.5748 0.39109 0.35258 0.0
C2014 C 0.64811 0.36856 0.37602 0.0
C2015 C 0.59279 0.38053 0.37774 0.0
C2016 C 0.56159 0.38457 0.38828 0.0
C2017 C 0.65092 0.37309 0.35754 0.0
C2018 C 0.62394 0.3811 0.34897 0.0
C2019 C 0.59533 0.38485 0.35919 0.0
C2020 C 0.6252 0.38611 0.32952 0.0
C2021 C 0.68299 0.36959 0.34753 0.0
C2022 C 0.62148 0.40258 0.32497 0.0
C2023 C 0.6226 0.4075 0.30668 0.0
C2024 C 0.62754 0.39602 0.29264 0.0
C2025 C 0.63102 0.3795 0.29718 0.0
C2026 C 0.6296 0.37456 0.31552 0.0
H2027 H 0.7039 0.36747 0.35722 0.0
H2028 H 0.67989 0.35843 0.33911 0.0
H2029 H 0.68975 0.37978 0.33824 0.0
H2030 H 0.61796 0.41166 0.33559 0.0
H2031 H 0.61982 0.42033 0.30358 0.0
H2032 H 0.34459 0.66721 0.18565 0.0
H2033 H 0.34138 0.65977 0.1533 0.0
H2034 H 0.38585 0.6132 0.1654 0.0
H2035 H 0.38944 0.62063 0.198 0.0
H2036 H 0.4159 0.63095 0.13596 0.0
H2037 H 0.27864 0.62662 0.12843 0.0
H2038 H 0.29335 0.6451 0.13885 0.0
H2039 H 0.29914 0.62602 0.15049 0.0
C2040 C 0.35347 0.65532 0.18149 0.0
C2041 C 0.36733 0.64448 0.19431 0.0
C2042 C 0.35142 0.65108 0.16301 0.0
C2043 C 0.36302 0.6359 0.15707 0.0
C2044 C 0.37663 0.62496 0.16983 0.0
H2045 H 0.34287 0.58789 0.05354 0.0
H2046 H 0.34042 0.59697 0.08537 0.0
C2047 C 0.37864 0.62919 0.18838 0.0
C2048 C 0.36246 0.63184 0.13737 0.0
H2049 H 0.31049 0.62574 0.10099 0.0
C2050 C 0.3929 0.62977 0.12829 0.0
C2051 C 0.33233 0.63034 0.12752 0.0
C2052 C 0.29896 0.63199 0.13681 0.0
C2053 C 0.39405 0.62625 0.10948 0.0
C2054 C 0.36395 0.62496 0.09958 0.0
C2055 C 0.33348 0.62697 0.10866 0.0
C2056 C 0.3636 0.62027 0.08006 0.0
C2057 C 0.42734 0.62355 0.10042 0.0
C2058 C 0.37685 0.63057 0.06653 0.0
C2059 C 0.3783 0.62541 0.04825 0.0
C2060 C 0.36654 0.6099 0.04338 0.0
C2061 C 0.35235 0.59987 0.05691 0.0
C2062 C 0.35082 0.60504 0.07509 0.0
H2063 H 0.4477 0.62219 0.11063 0.0
H2064 H 0.42668 0.6125 0.09163 0.0
H2065 H 0.43324 0.63412 0.09151 0.0
H2066 H 0.38644 0.64247 0.07016 0.0
H2067 H 0.38917 0.6334 0.03804 0.0
H2068 H 0.42889 0.08939 0.1854 0.0
H2069 H 0.43209 0.09844 0.15349 0.0
H2070 H 0.34906 0.13078 0.16269 0.0
H2071 H 0.34726 0.12247 0.19495 0.0
H2072 H 0.39031 0.09509 0.12729 0.0
H2073 H 0.41015 0.16108 0.13733 0.0
H2074 H 0.41275 0.14675 0.15602 0.0
H2075 H 0.37297 0.15451 0.14867 0.0
C2076 C 0.41163 0.09859 0.18061 0.0
C2077 C 0.38792 0.10534 0.1925 0.0
C2078 C 0.41344 0.10373 0.16242 0.0
C2079 C 0.39116 0.11547 0.15576 0.0
C2080 C 0.36721 0.1221 0.16765 0.0
H2081 H 0.34017 0.12708 0.04101 0.0
H2082 H 0.34452 0.11813 0.073 0.0
C2083 C 0.366 0.11728 0.18601 0.0
C2084 C 0.39197 0.12014 0.13617 0.0
H2085 H 0.39203 0.15281 0.10738 0.0
C2086 C 0.39109 0.10772 0.12292 0.0
C2087 C 0.39364 0.13658 0.13048 0.0
C2088 C 0.39782 0.15046 0.14389 0.0
C2089 C 0.3912 0.11129 0.10413 0.0
C2090 C 0.39055 0.12776 0.09848 0.0
C2091 C 0.39206 0.14017 0.11172 0.0
C2092 C 0.38847 0.13252 0.07894 0.0
C2093 C 0.39274 0.09737 0.09062 0.0
C2094 C 0.41107 0.14392 0.07182 0.0
C2095 C 0.40782 0.14944 0.05385 0.0
C2096 C 0.38233 0.14342 0.0426 0.0
C2097 C 0.3602 0.13172 0.04947 0.0
C2098 C 0.36288 0.12652 0.06765 0.0
H2099 H 0.40463 0.08647 0.09683 0.0
H2100 H 0.3671 0.09389 0.08657 0.0
H2101 H 0.40684 0.10076 0.07808 0.0
H2102 H 0.431 0.1487 0.08026 0.0
H2103 H 0.42529 0.15841 0.04873 0.0
H2104 H 0.40267 0.12644 0.6967 0.0
H2105 H 0.40622 0.1183 0.66444 0.0
H2106 H 0.32086 0.14821 0.65199 0.0
H2107 H 0.31857 0.15712 0.68399 0.0
H2108 H 0.36799 0.10296 0.64207 0.0
H2109 H 0.38445 0.16532 0.61513 0.0
H2110 H 0.38551 0.16088 0.63935 0.0
H2111 H 0.34634 0.16373 0.62772 0.0
C2112 C 0.38463 0.1312 0.68704 0.0
C2113 C 0.3606 0.14252 0.69264 0.0
C2114 C 0.38671 0.12658 0.66865 0.0
C2115 C 0.36441 0.13304 0.65572 0.0
C2116 C 0.33912 0.14359 0.66159 0.0
H2117 H 0.32533 0.09112 0.54952 0.0
H2118 H 0.32575 0.09911 0.58182 0.0
C2119 C 0.33759 0.14853 0.67987 0.0
C2120 C 0.36749 0.12867 0.63612 0.0
H2121 H 0.36969 0.1449 0.59306 0.0
C2122 C 0.3687 0.11213 0.63135 0.0
C2123 C 0.36939 0.14065 0.62218 0.0
C2124 C 0.37176 0.15862 0.62638 0.0
C2125 C 0.37072 0.10722 0.61298 0.0
C2126 C 0.36986 0.11919 0.59899 0.0
C2127 C 0.3697 0.13573 0.60378 0.0
C2128 C 0.36879 0.11485 0.57931 0.0
C2129 C 0.37438 0.08929 0.60887 0.0
C2130 C 0.39158 0.12181 0.56697 0.0
C2131 C 0.39056 0.11772 0.54839 0.0
C2132 C 0.36711 0.10641 0.54201 0.0
C2133 C 0.34391 0.09972 0.55424 0.0
C2134 C 0.34438 0.10413 0.5727 0.0
H2135 H 0.38641 0.08276 0.62046 0.0
H2136 H 0.34937 0.08385 0.60686 0.0
H2137 H 0.38936 0.0872 0.59628 0.0
H2138 H 0.41045 0.13022 0.57176 0.0
H2139 H 0.40876 0.12298 0.53915 0.0
H2140 H 0.42243 0.58419 0.68081 0.0
H2141 H 0.42344 0.59409 0.64914 0.0
H2142 H 0.38581 0.64059 0.66704 0.0
H2143 H 0.38458 0.63081 0.69886 0.0
H2144 H 0.35199 0.61353 0.63479 0.0
H2145 H 0.47791 0.64145 0.62815 0.0
H2146 H 0.47141 0.62366 0.64232 0.0
H2147 H 0.45489 0.6429 0.6494 0.0
C2148 C 0.41482 0.5966 0.67806 0.0
C2149 C 0.40316 0.60672 0.69223 0.0
C2150 C 0.41546 0.60221 0.66001 0.0
C2151 C 0.40471 0.618 0.65595 0.0
C2152 C 0.39427 0.62836 0.67009 0.0
H2153 H 0.39212 0.67249 0.55544 0.0
H2154 H 0.39774 0.66323 0.58713 0.0
C2155 C 0.39356 0.62276 0.68818 0.0
C2156 C 0.40164 0.62315 0.63674 0.0
H2157 H 0.44327 0.64201 0.60203 0.0
C2158 C 0.37186 0.61975 0.62754 0.0
C2159 C 0.42768 0.63127 0.6276 0.0
C2160 C 0.45991 0.6351 0.63726 0.0
C2161 C 0.36726 0.62444 0.60923 0.0
C2162 C 0.3935 0.6324 0.59992 0.0
C2163 C 0.42332 0.63581 0.60921 0.0
C2164 C 0.39012 0.63777 0.58069 0.0
C2165 C 0.33412 0.62119 0.6002 0.0
C2166 C 0.38417 0.62647 0.56661 0.0
C2167 C 0.38059 0.63174 0.54849 0.0
C2168 C 0.3834 0.64836 0.54423 0.0
C2169 C 0.3898 0.6596 0.55834 0.0
C2170 C 0.3931 0.65434 0.57642 0.0
H2171 H 0.31426 0.61886 0.61048 0.0
H2172 H 0.32647 0.6316 0.59145 0.0
H2173 H 0.33622 0.61023 0.59136 0.0
H2174 H 0.38248 0.61358 0.56963 0.0
H2175 H 0.37597 0.62282 0.53784 0.0
H2176 H 0.25086 0.37315 0.27688 0.0
H2177 H 0.31035 0.37799 0.27357 0.0
H2178 H 0.30959 0.35325 0.22136 0.0
H2179 H 0.24949 0.34815 0.22469 0.0
H2180 H 0.36615 0.34633 0.2435 0.0
H2181 H 0.34511 0.41272 0.23768 0.0
H2182 H 0.32612 0.40418 0.2578 0.0
H2183 H 0.31197 0.39799 0.23541 0.0
C2184 C 0.26339 0.36851 0.26479 0.0
C2185 C 0.24546 0.36042 0.25094 0.0
C2186 C 0.29735 0.37141 0.26286 0.0
C2187 C 0.31413 0.36646 0.24696 0.0
C2188 C 0.29691 0.35738 0.23362 0.0
H2189 H 0.51645 0.40435 0.22614 0.0
H2190 H 0.45651 0.39898 0.22281 0.0
C2191 C 0.26271 0.35436 0.2356 0.0
C2192 C 0.34944 0.37121 0.24438 0.0
H2193 H 0.40089 0.40436 0.24489 0.0
C2194 C 0.37375 0.35901 0.24353 0.0
C2195 C 0.35932 0.38777 0.24401 0.0
C2196 C 0.33423 0.40142 0.24357 0.0
C2197 C 0.40776 0.36294 0.24348 0.0
C2198 C 0.41764 0.37948 0.24465 0.0
C2199 C 0.39331 0.39169 0.24432 0.0
C2200 C 0.45296 0.38419 0.24734 0.0
C2201 C 0.43281 0.3493 0.24238 0.0
C2202 C 0.47029 0.37841 0.26271 0.0
C2203 C 0.50422 0.38145 0.26463 0.0
C2204 C 0.52154 0.39053 0.25134 0.0
C2205 C 0.50371 0.39737 0.23663 0.0
C2206 C 0.46959 0.3942 0.23464 0.0
H2207 H 0.42199 0.3383 0.23579 0.0
H2208 H 0.45522 0.35306 0.23454 0.0
H2209 H 0.44066 0.34588 0.25647 0.0
H2210 H 0.45774 0.37113 0.273 0.0
H2211 H 0.51721 0.37618 0.27623 0.0
H2212 H 0.75216 0.84144 0.25766 0.0
H2213 H 0.81258 0.84643 0.25783 0.0
H2214 H 0.79857 0.88796 0.22238 0.0
H2215 H 0.73854 0.88339 0.2228 0.0
H2216 H 0.86186 0.84903 0.23186 0.0
H2217 H 0.84352 0.90874 0.26591 0.0
H2218 H 0.81037 0.89411 0.26339 0.0
H2219 H 0.82177 0.90711 0.2445 0.0
C2220 C 0.7622 0.85141 0.24965 0.0
C2221 C 0.74087 0.86212 0.24034 0.0
C2222 C 0.7966 0.85433 0.24983 0.0
C2223 C 0.80996 0.8679 0.24059 0.0
C2224 C 0.78876 0.87777 0.23012 0.0
H2225 H 0.01176 0.90706 0.22947 0.0
H2226 H 0.9514 0.9026 0.22693 0.0
C2227 C 0.75453 0.87505 0.23021 0.0
C2228 C 0.84572 0.8722 0.24241 0.0
H2229 H 0.89824 0.90287 0.25556 0.0
C2230 C 0.86979 0.86077 0.23709 0.0
C2231 C 0.8561 0.88754 0.24929 0.0
C2232 C 0.83161 0.90002 0.25627 0.0
C2233 C 0.9039 0.86436 0.23823 0.0
C2234 C 0.91418 0.87972 0.245 0.0
C2235 C 0.8902 0.89117 0.25023 0.0
C2236 C 0.94981 0.88369 0.24762 0.0
C2237 C 0.92875 0.85173 0.23207 0.0
C2238 C 0.96842 0.87508 0.26063 0.0
C2239 C 1.00257 0.87764 0.26217 0.0
C2240 C 0.01893 0.88892 0.25074 0.0
C2241 C 0.9999 0.89831 0.23847 0.0
C2242 C 0.96551 0.8957 0.23693 0.0
H2243 H 0.91704 0.84223 0.22333 0.0
H2244 H 0.94942 0.85748 0.22429 0.0
H2245 H 0.93952 0.84566 0.24431 0.0
H2246 H 0.95662 0.86604 0.2693 0.0
H2247 H 0.01638 0.87036 0.27196 0.0
H2248 H 0.2424 0.86657 0.01081 0.0
H2249 H 0.30246 0.86279 0.01288 0.0
H2250 H 0.31756 0.90693 0.9818 0.0
H2251 H 0.25705 0.91104 0.9803 0.0
H2252 H 0.341 0.85718 0.98429 0.0
H2253 H 0.38819 0.91186 0.02045 0.0
H2254 H 0.34465 0.9065 0.02018 0.0
H2255 H 0.36308 0.91679 0.00087 0.0
C2256 C 0.25858 0.87571 0.00485 0.0
C2257 C 0.24518 0.88912 -0.00456 0.0
C2258 C 0.2929 0.8735 0.00598 0.0
C2259 C 0.31466 0.88456 -0.00246 0.0
C2260 C 0.30137 0.89839 0.98876 0.0
H2261 H 0.51985 0.88431 0.96642 0.0
H2262 H 0.46031 0.88816 0.9703 0.0
C2263 C 0.26682 0.90075 0.98788 0.0
C2264 C 0.35075 0.88063 -0.00352 0.0
H2265 H 0.42859 0.89552 0.00495 0.0
C2266 C 0.36012 0.8655 0.98901 0.0
C2267 C 0.37576 0.89146 0.00264 0.0
C2268 C 0.36745 0.90749 0.01165 0.0
C2269 C 0.39369 0.86111 0.9871 0.0
C2270 C 0.41861 0.87208 -0.00712 0.0
C2271 C 0.40936 0.88712 0.00055 0.0
C2272 C 0.45447 0.8687 0.99001 0.0
C2273 C 0.40233 0.845 0.97837 0.0
C2274 C 0.47094 0.8562 -0.00042 0.0
C2275 C 0.50532 0.8539 -0.00262 0.0
C2276 C 0.52368 0.86415 0.98567 0.0
C2277 C 0.50667 0.87626 0.9757 0.0
C2278 C 0.47257 0.87854 0.9779 0.0
H2279 H 0.38035 0.83909 0.97196 0.0
H2280 H 0.42185 0.84665 0.96775 0.0
H2281 H 0.41234 0.83667 0.98902 0.0
H2282 H 0.4574 0.84854 0.0091 0.0
H2283 H 0.51765 0.84454 0.00534 0.0
H2284 H 0.01229 0.3749 0.96095 0.0
H2285 H 0.95281 0.37976 0.96421 0.0
H2286 H 0.95295 0.35404 0.01584 0.0
H2287 H 0.01294 0.34885 0.01249 0.0
H2288 H 0.89751 0.34719 -0.00546 0.0
H2289 H 0.91575 0.4138 -0.00069 0.0
H2290 H 0.9344 0.40549 0.979 0.0
H2291 H 0.94969 0.39952 0.00124 0.0
C2292 C 0.99965 0.3701 0.97293 0.0
C2293 C 0.01736 0.36164 0.98657 0.0
C2294 C 0.96569 0.37303 0.97485 0.0
C2295 C 0.94868 0.36777 0.99057 0.0
C2296 C 0.96575 0.35843 0.00372 0.0
H2297 H 0.74498 0.40432 0.01089 0.0
H2298 H 0.8051 0.39944 0.01437 0.0
C2299 C 0.99992 0.35536 0.00174 0.0
C2300 C 0.91316 0.37222 -0.00694 0.0
H2301 H 0.86023 0.40479 0.99218 0.0
C2302 C 0.88938 0.35978 -0.00572 0.0
C2303 C 0.90254 0.38868 -0.00683 0.0
C2304 C 0.92698 0.40264 -0.00668 0.0
C2305 C 0.85521 0.36333 -0.00551 0.0
C2306 C 0.84456 0.37973 -0.00697 0.0
C2307 C 0.86836 0.39221 -0.00704 0.0
C2308 C 0.80898 0.38398 0.99038 0.0
C2309 C 0.83082 0.34942 -0.00394 0.0
C2310 C 0.7917 0.37762 0.97528 0.0
C2311 C 0.75769 0.38035 0.97332 0.0
C2312 C 0.74018 0.38973 0.98625 0.0
C2313 C 0.75785 0.39708 0.00071 0.0
C2314 C 0.79209 0.3942 0.00276 0.0
H2315 H 0.84222 0.33873 0.00296 0.0
H2316 H 0.80828 0.35309 0.00383 0.0
H2317 H 0.82308 0.34556 0.98209 0.0
H2318 H 0.80441 0.37018 0.96521 0.0
H2319 H 0.74485 0.37472 0.96187 0.0
H2320 H 0.77186 0.61377 0.71763 0.0
H2321 H 0.71232 0.60957 0.72112 0.0
H2322 H 0.70556 0.65294 0.75426 0.0
H2323 H 0.76573 0.65731 0.7509 0.0
H2324 H 0.67892 0.60543 0.75585 0.0
H2325 H 0.63026 0.65754 0.71507 0.0
H2326 H 0.6723 0.65013 0.71261 0.0
H2327 H 0.66113 0.66225 0.73216 0.0
C2328 C 0.75784 0.62257 0.72555 0.0
C2329 C 0.77376 0.63587 0.73407 0.0
C2330 C 0.72373 0.62009 0.72755 0.0
C2331 C 0.70455 0.63089 0.73796 0.0
C2332 C 0.71994 0.64451 0.74603 0.0
H2333 H 0.49372 0.63443 0.7598 0.0
H2334 H 0.55385 0.6381 0.7606 0.0
C2335 C 0.7543 0.64701 0.74407 0.0
C2336 C 0.6687 0.62742 0.74076 0.0
H2337 H 0.59093 0.64095 0.73003 0.0
C2338 C 0.6596 0.6132 0.75027 0.0
C2339 C 0.64367 0.63755 0.73341 0.0
C2340 C 0.65212 0.65268 0.72261 0.0
C2341 C 0.62604 0.60893 0.75279 0.0
C2342 C 0.60096 0.61898 0.74526 0.0
C2343 C 0.61015 0.63323 0.73581 0.0
C2344 C 0.56493 0.61525 0.74716 0.0
C2345 C 0.61777 0.59389 0.76377 0.0
C2346 C 0.55104 0.60087 0.7399 0.0
C2347 C 0.51639 0.59862 0.73967 0.0
C2348 C 0.4953 0.61087 0.7464 0.0
C2349 C 0.50941 0.62483 0.75443 0.0
C2350 C 0.54378 0.62697 0.75485 0.0
H2351 H 0.63886 0.59012 0.77266 0.0
H2352 H 0.59555 0.59591 0.77253 0.0
H2353 H 0.61225 0.58371 0.75422 0.0
H2354 H 0.56681 0.59177 0.73361 0.0
H2355 H 0.50612 0.58786 0.73321 0.0
H2356 H 0.98508 0.134 0.71755 0.0
H2357 H 0.04492 0.13738 0.72055 0.0
H2358 H 0.04949 0.09522 0.75572 0.0
H2359 H 0.98895 0.09171 0.75289 0.0
H2360 H 0.07894 0.1419 0.75575 0.0
H2361 H 0.12393 0.08849 0.71574 0.0
H2362 H 0.08255 0.09668 0.71292 0.0
H2363 H 0.09251 0.08484 0.73287 0.0
C2364 C 0.99866 0.1253 0.72583 0.0
C2365 C 0.98203 0.1126 0.73508 0.0
C2366 C 0.03295 0.1273 0.72754 0.0
C2367 C 0.0516 0.11661 0.73838 0.0
C2368 C 0.03549 0.10356 0.74717 0.0
H2369 H 0.26406 0.11169 0.75669 0.0
H2370 H 0.20401 0.1078 0.75779 0.0
C2371 C 1.00094 0.10154 0.74551 0.0
C2372 C 0.08768 0.11966 0.74086 0.0
H2373 H 0.16441 0.10532 0.72926 0.0
C2374 C 0.09772 0.13388 0.75005 0.0
C2375 C 0.11199 0.10919 0.73339 0.0
C2376 C 0.10243 0.09398 0.72306 0.0
C2377 C 0.13154 0.13786 0.75209 0.0
C2378 C 0.15594 0.12755 0.7443 0.0
C2379 C 0.14577 0.11326 0.73522 0.0
C2380 C 0.19222 0.13109 0.7455 0.0
C2381 C 0.1407 0.15289 0.76288 0.0
C2382 C 0.2058 0.1457 0.73865 0.0
C2383 C 0.24038 0.14809 0.73833 0.0
C2384 C 0.26184 0.13574 0.74444 0.0
C2385 C 0.24812 0.12139 0.75176 0.0
C2386 C 0.21377 0.11913 0.75236 0.0
H2387 H 0.12045 0.15653 0.77241 0.0
H2388 H 0.16377 0.15096 0.77097 0.0
H2389 H 0.14496 0.16314 0.75323 0.0
H2390 H 0.18978 0.15498 0.7329 0.0
H2391 H 0.25033 0.15918 0.73243 0.0
H2392 H 0.49002 0.15723 0.98179 0.0
H2393 H 0.55035 0.15311 0.97848 0.0
H2394 H 0.54519 0.11166 0.01466 0.0
H2395 H 0.4856 0.11564 0.01815 0.0
H2396 H 0.60223 0.15023 0.00785 0.0
H2397 H 0.58781 0.09418 0.96584 0.0
H2398 H 0.55487 0.10895 0.96852 0.0
H2399 H 0.56382 0.09481 0.98666 0.0
C2400 C 0.50183 0.14738 0.98921 0.0
C2401 C 0.48284 0.13667 5e-05 0.0
C2402 C 0.53622 0.14499 0.98723 0.0
C2403 C 0.55197 0.13184 -0.00401 0.0
C2404 C 0.53336 0.12164 0.00745 0.0
H2405 H 0.75122 0.0911 0.004 0.0
H2406 H 0.6905 0.09516 0.00358 0.0
C2407 C 0.49924 0.12401 0.00947 0.0
C2408 C 0.58787 0.12857 -0.0067 0.0
H2409 H 0.64221 0.10023 0.97653 0.0
C2410 C 0.61105 0.13941 0.00084 0.0
C2411 C 0.59917 0.1143 0.98437 0.0
C2412 C 0.5752 0.10242 0.97574 0.0
C2413 C 0.64531 0.13618 6e-05 0.0
C2414 C 0.65672 0.12194 0.99103 0.0
C2415 C 0.63347 0.11113 0.98341 0.0
C2416 C 0.69275 0.11826 0.98926 0.0
C2417 C 0.66889 0.14783 0.00945 0.0
C2418 C 0.71386 0.12943 0.98054 0.0
C2419 C 0.74822 0.1272 0.98093 0.0
C2420 C 0.76219 0.11356 0.98966 0.0
C2421 C 0.74102 0.10166 -0.0029 0.0
C2422 C 0.70643 0.10403 -0.00305 0.0
H2423 H 0.65602 0.15527 0.02003 0.0
H2424 H 0.68973 0.14121 0.01611 0.0
H2425 H 0.67946 0.15629 -0.00089 0.0
H2426 H 0.70383 0.14022 0.97402 0.0
H2427 H 0.76402 0.13647 0.97491 0.0
H2428 H 0.26186 0.59155 0.9827 0.0
H2429 H 0.2013 0.59379 0.97832 0.0
H2430 H 0.20181 0.64022 0.00587 0.0
H2431 H 0.26143 0.63814 0.01046 0.0
H2432 H 0.14944 0.6001 0.00763 0.0
H2433 H 0.15663 0.64844 0.95442 0.0
H2434 H 0.19097 0.63497 0.95948 0.0
H2435 H 0.18183 0.65175 0.97447 0.0
C2436 C 0.24901 0.60216 0.98795 0.0
C2437 C 0.26671 0.6147 -0.0032 0.0
C2438 C 0.21449 0.60345 0.98536 0.0
C2439 C 0.19732 0.61734 0.99144 0.0
C2440 C 0.21472 0.62957 0.00074 0.0
H2441 H 0.99773 0.65672 -0.00358 0.0
H2442 H 0.05837 0.65272 -0.00489 0.0
C2443 C 0.24891 0.62828 0.0034 0.0
C2444 C 0.16107 0.61923 0.98853 0.0
H2445 H 0.10351 0.6437 0.96779 0.0
C2446 C 0.1393 0.60946 -0.00127 0.0
C2447 C 0.14807 0.63162 0.97711 0.0
C2448 C 0.17051 0.64225 0.96561 0.0
C2449 C 0.1048 0.61209 -0.00172 0.0
C2450 C 0.09171 0.62456 0.98691 0.0
C2451 C 0.11354 0.63418 0.9765 0.0
C2452 C 0.0554 0.62772 0.98575 0.0
C2453 C 0.08283 0.60187 0.01054 0.0
C2454 C 0.03379 0.6153 0.98013 0.0
C2455 C 0.99946 0.6175 0.98103 0.0
C2456 C 0.98592 0.63231 0.98722 0.0
C2457 C 0.00751 0.6452 0.99158 0.0
C2458 C 0.04208 0.64289 0.9909 0.0
H2459 H 0.09714 0.59623 0.02193 0.0
H2460 H 0.06242 0.60927 0.01652 0.0
H2461 H 0.07159 0.59191 0.00233 0.0
H2462 H 0.04348 0.60368 0.97555 0.0
H2463 H 0.98342 0.60743 0.97729 0.0
H2464 H 0.5205 0.85671 0.75033 0.0
H2465 H 0.4608 0.85315 0.74842 0.0
H2466 H 0.44874 0.90449 0.73788 0.0
H2467 H 0.50937 0.9082 0.73936 0.0
H2468 H 0.41305 0.86581 0.76958 0.0
H2469 H 0.39327 0.88453 0.69716 0.0
H2470 H 0.43411 0.88068 0.70647 0.0
H2471 H 0.41343 0.89966 0.71105 0.0
C2472 C 0.5054 0.86734 0.74755 0.0
C2473 C 0.51995 0.8828 0.745 0.0
C2474 C 0.47109 0.86523 0.74645 0.0
C2475 C 0.45022 0.87847 0.74281 0.0
C2476 C 0.46442 0.894 0.74033 0.0
H2477 H 0.23947 0.89136 0.74529 0.0
H2478 H 0.29965 0.89344 0.74379 0.0
C2479 C 0.49905 0.89613 0.7413 0.0
C2480 C 0.41363 0.87584 0.74224 0.0
H2481 H 0.34482 0.87946 0.71499 0.0
C2482 C 0.3982 0.8687 0.75759 0.0
C2483 C 0.39427 0.8795 0.72654 0.0
C2484 C 0.40959 0.88637 0.70929 0.0
C2485 C 0.36393 0.86542 0.75779 0.0
C2486 C 0.34458 0.86929 0.74222 0.0
C2487 C 0.35989 0.87637 0.72685 0.0
C2488 C 0.30792 0.86749 0.74233 0.0
C2489 C 0.34837 0.85824 0.77482 0.0
C2490 C 0.29251 0.85211 0.74181 0.0
C2491 C 0.25769 0.85081 0.74259 0.0
C2492 C 0.23795 0.86488 0.7441 0.0
C2493 C 0.25376 0.88021 0.74435 0.0
C2494 C 0.28824 0.88148 0.74339 0.0
H2495 H 0.36621 0.85756 0.78645 0.0
H2496 H 0.32661 0.86564 0.77912 0.0
H2497 H 0.33932 0.84576 0.77178 0.0
H2498 H 0.30741 0.84116 0.7409 0.0
H2499 H 0.24632 0.83885 0.74234 0.0
H2500 H 0.74415 0.37448 0.77375 0.0
H2501 H 0.80411 0.37765 0.7704 0.0
H2502 H 0.80192 0.34812 0.72145 0.0
H2503 H 0.7413 0.34495 0.72468 0.0
H2504 H 0.85558 0.35463 0.7685 0.0
H2505 H 0.84576 0.39166 0.70476 0.0
H2506 H 0.81052 0.38768 0.71947 0.0
H2507 H 0.82555 0.37211 0.70431 0.0
C2508 C 0.75641 0.36848 0.76236 0.0
C2509 C 0.73796 0.35955 0.7494 0.0
C2510 C 0.7907 0.37033 0.76046 0.0
C2511 C 0.80736 0.36342 0.74548 0.0
C2512 C 0.78938 0.35381 0.73294 0.0
H2513 H 0.01986 0.35583 0.73475 0.0
H2514 H 0.95992 0.35189 0.73408 0.0
C2515 C 0.75488 0.35184 0.73492 0.0
C2516 C 0.84344 0.36663 0.7431 0.0
H2517 H 0.90001 0.38618 0.71577 0.0
C2518 C 0.8653 0.36147 0.75693 0.0
C2519 C 0.85595 0.37584 0.72818 0.0
C2520 C 0.8333 0.38229 0.71336 0.0
C2521 C 0.89937 0.36509 0.75616 0.0
C2522 C 0.91202 0.37401 0.74106 0.0
C2523 C 0.89019 0.37934 0.7273 0.0
C2524 C 0.94816 0.37716 0.73917 0.0
C2525 C 0.92163 0.35949 0.7716 0.0
C2526 C 0.96146 0.39287 0.74148 0.0
C2527 C 0.99608 0.39523 0.74185 0.0
C2528 C 0.0177 0.38187 0.73995 0.0
C2529 C 0.004 0.36636 0.73659 0.0
C2530 C 0.96969 0.36405 0.73617 0.0
H2531 H 0.90717 0.35605 0.78401 0.0
H2532 H 0.93592 0.34866 0.76705 0.0
H2533 H 0.9397 0.36916 0.77539 0.0
H2534 H 0.94512 0.40315 0.74374 0.0
H2535 H 0.00585 0.40731 0.74443 0.0
H2536 H 0.24328 0.4058 0.50738 0.0
H2537 H 0.3034 0.40075 0.50977 0.0
H2538 H 0.29989 0.37245 0.45991 0.0
H2539 H 0.24017 0.37717 0.45769 0.0
H2540 H 0.3298 0.35596 0.48819 0.0
H2541 H 0.38313 0.41815 0.48119 0.0
H2542 H 0.35209 0.4158 0.49875 0.0
H2543 H 0.34069 0.41351 0.47504 0.0
C2544 C 0.25559 0.39891 0.49669 0.0
C2545 C 0.23707 0.39188 0.48236 0.0
C2546 C 0.2899 0.39596 0.49809 0.0
C2547 C 0.30616 0.38617 0.48503 0.0
C2548 C 0.28788 0.37992 0.47022 0.0
H2549 H 0.51041 0.37406 0.45807 0.0
H2550 H 0.45067 0.37877 0.45991 0.0
C2551 C 0.25377 0.38271 0.46891 0.0
C2552 C 0.34171 0.38152 0.48706 0.0
H2553 H 0.42072 0.39671 0.4868 0.0
C2554 C 0.34973 0.36487 0.48799 0.0
C2555 C 0.36762 0.39315 0.48678 0.0
C2556 C 0.36063 0.41115 0.48524 0.0
C2557 C 0.38293 0.35951 0.48809 0.0
C2558 C 0.40885 0.37114 0.48758 0.0
C2559 C 0.40081 0.3878 0.48721 0.0
C2560 C 0.44442 0.36642 0.48592 0.0
C2561 C 0.38992 0.34146 0.48797 0.0
C2562 C 0.46073 0.35737 0.49965 0.0
C2563 C 0.49508 0.35442 0.49847 0.0
C2564 C 0.51357 0.36071 0.4837 0.0
C2565 C 0.49684 0.36912 0.46966 0.0
C2566 C 0.46271 0.3719 0.47074 0.0
H2567 H 0.36746 0.33423 0.48442 0.0
H2568 H 0.40995 0.33849 0.47803 0.0
H2569 H 0.39835 0.33765 0.50183 0.0
H2570 H 0.44723 0.35319 0.51162 0.0
H2571 H 0.50743 0.3481 0.50961 0.0
H2572 H 0.00945 0.84883 0.50832 0.0
H2573 H 0.94912 0.85293 0.51126 0.0
H2574 H 0.95033 0.884 0.46351 0.0
H2575 H 0.01018 0.88025 0.46073 0.0
H2576 H 0.91835 0.89815 0.49251 0.0
H2577 H 0.8718 0.83516 0.48113 0.0
H2578 H 0.9021 0.83742 0.49909 0.0
H2579 H 0.91384 0.84114 0.47566 0.0
C2580 C 0.99667 0.85626 0.49826 0.0
C2581 C 0.01458 0.86425 0.48434 0.0
C2582 C 0.96222 0.85861 0.49997 0.0
C2583 C 0.94518 0.86879 0.4876 0.0
C2584 C 0.96294 0.87621 0.4733 0.0
H2585 H 0.7409 0.87693 0.45895 0.0
H2586 H 0.80085 0.87311 0.46154 0.0
C2587 C 0.99717 0.87399 0.47169 0.0
C2588 C 0.90917 0.87243 0.4897 0.0
H2589 H 0.83188 0.85535 0.48747 0.0
C2590 C 0.89939 0.88879 0.49152 0.0
C2591 C 0.88452 0.86021 0.48837 0.0
C2592 C 0.89342 0.8425 0.48581 0.0
C2593 C 0.8657 0.89332 0.49143 0.0
C2594 C 0.84104 0.88112 0.48986 0.0
C2595 C 0.85082 0.86471 0.48867 0.0
C2596 C 0.8051 0.88504 0.48793 0.0
C2597 C 0.85693 0.91117 0.49218 0.0
C2598 C 0.78754 0.89349 0.50166 0.0
C2599 C 0.75312 0.89597 0.50003 0.0
C2600 C 0.73576 0.88976 0.48481 0.0
C2601 C 0.75362 0.8818 0.47087 0.0
C2602 C 0.78787 0.87954 0.47237 0.0
H2603 H 0.8787 0.91905 0.48906 0.0
H2604 H 0.8367 0.91409 0.48234 0.0
H2605 H 0.84813 0.91424 0.5062 0.0
H2606 H 0.80017 0.89762 0.51394 0.0
H2607 H 0.73987 0.90192 0.5111 0.0
H2608 H 0.49815 0.09326 0.2537 0.0
H2609 H 0.55842 0.09775 0.2569 0.0
H2610 H 0.55276 0.13796 0.21902 0.0
H2611 H 0.49327 0.13359 0.2156 0.0
H2612 H 0.61067 0.10035 0.22692 0.0
H2613 H 0.59424 0.15685 0.26794 0.0
H2614 H 0.56204 0.1416 0.2658 0.0
H2615 H 0.56993 0.15549 0.24727 0.0
C2616 C 0.50985 0.10289 0.24586 0.0
C2617 C 0.49074 0.11317 0.23457 0.0
C2618 C 0.5442 0.1055 0.24778 0.0
C2619 C 0.55977 0.11843 0.2385 0.0
C2620 C 0.54106 0.12815 0.22659 0.0
H2621 H 0.75733 0.16113 0.22976 0.0
H2622 H 0.69677 0.1564 0.2302 0.0
C2623 C 0.507 0.12556 0.22463 0.0
C2624 C 0.59555 0.12203 0.24117 0.0
H2625 H 0.64883 0.15113 0.2574 0.0
C2626 C 0.6191 0.11134 0.23375 0.0
C2627 C 0.60632 0.13652 0.24986 0.0
C2628 C 0.5819 0.14827 0.25832 0.0
C2629 C 0.65324 0.11494 0.2344 0.0
C2630 C 0.66412 0.12941 0.24319 0.0
C2631 C 0.64049 0.14006 0.2507 0.0
C2632 C 0.69999 0.13349 0.24484 0.0
C2633 C 0.67723 0.10343 0.22515 0.0
C2634 C 0.72157 0.12264 0.2537 0.0
C2635 C 0.75581 0.12524 0.25329 0.0
C2636 C 0.76919 0.13895 0.2444 0.0
C2637 C 0.74755 0.15053 0.23677 0.0
C2638 C 0.71307 0.14777 0.23695 0.0
H2639 H 0.66459 0.09574 0.2147 0.0
H2640 H 0.69776 0.11018 0.21836 0.0
H2641 H 0.68818 0.09519 0.2356 0.0
H2642 H 0.71201 0.11182 0.26037 0.0
H2643 H 0.77202 0.11622 0.25944 0.0
H2644 H 0.99745 0.59216 0.24267 0.0
H2645 H 0.05823 0.59517 0.24516 0.0
H2646 H 0.04724 0.64731 0.24845 0.0
H2647 H 0.9872 0.64449 0.24602 0.0
H2648 H 0.09754 0.61448 0.2194 0.0
H2649 H 0.1115 0.63628 0.29118 0.0
H2650 H 0.07502 0.62549 0.28328 0.0
H2651 H 0.08039 0.64668 0.2779 0.0
C2652 C 0.00802 0.60422 0.24421 0.0
C2653 C 0.9875 0.61807 0.24404 0.0
C2654 C 0.04267 0.60593 0.2456 0.0
C2655 C 0.05713 0.62147 0.24719 0.0
C2656 C 0.03659 0.63521 0.24753 0.0
H2657 H 0.26054 0.66031 0.24613 0.0
H2658 H 0.19958 0.65759 0.24788 0.0
C2659 C 1.00223 0.63355 0.24598 0.0
C2660 C 0.09372 0.62363 0.247 0.0
H2661 H 0.15891 0.63878 0.27183 0.0
C2662 C 0.11103 0.61965 0.23092 0.0
C2663 C 0.11107 0.63068 0.26192 0.0
C2664 C 0.09367 0.63493 0.27962 0.0
C2665 C 0.14524 0.62269 0.22925 0.0
C2666 C 0.16277 0.62954 0.24425 0.0
C2667 C 0.14541 0.63361 0.26033 0.0
C2668 C 0.19946 0.63147 0.24385 0.0
C2669 C 0.16217 0.61881 0.21127 0.0
C2670 C 0.21945 0.61769 0.24148 0.0
C2671 C 0.25385 0.6192 0.24036 0.0
C2672 C 0.26938 0.63454 0.24182 0.0
C2673 C 0.24941 0.64835 0.24484 0.0
C2674 C 0.21464 0.64681 0.24585 0.0
H2675 H 0.14415 0.61853 0.19971 0.0
H2676 H 0.18187 0.62786 0.20808 0.0
H2677 H 0.17387 0.60661 0.21221 0.0
H2678 H 0.20838 0.6057 0.24042 0.0
H2679 H 0.26828 0.60821 0.23838 0.0
H2680 H 0.76295 0.62817 0.52766 0.0
H2681 H 0.70321 0.63311 0.52655 0.0
H2682 H 0.69588 0.60389 0.47748 0.0
H2683 H 0.75593 0.59853 0.47882 0.0
H2684 H 0.67072 0.64906 0.49958 0.0
H2685 H 0.61869 0.58677 0.50745 0.0
H2686 H 0.66169 0.59141 0.51221 0.0
H2687 H 0.64777 0.589 0.48891 0.0
C2688 C 0.74854 0.62253 0.51681 0.0
C2689 C 0.76412 0.61295 0.50332 0.0
C2690 C 0.7144 0.62543 0.51615 0.0
C2691 C 0.69498 0.61891 0.50194 0.0
C2692 C 0.71023 0.60886 0.48875 0.0
H2693 H 0.49355 0.65635 0.47837 0.0
H2694 H 0.55383 0.65155 0.47673 0.0
C2695 C 0.74453 0.60578 0.48953 0.0
C2696 C 0.65927 0.62344 0.50064 0.0
H2697 H 0.5805 0.60796 0.50151 0.0
C2698 C 0.65096 0.64007 0.49995 0.0
C2699 C 0.63353 0.61172 0.50118 0.0
C2700 C 0.64073 0.59373 0.50264 0.0
C2701 C 0.6177 0.64531 0.5002 0.0
C2702 C 0.59198 0.63358 0.50077 0.0
C2703 C 0.60027 0.61694 0.50103 0.0
C2704 C 0.55633 0.63815 0.50232 0.0
C2705 C 0.61044 0.66333 0.50057 0.0
C2706 C 0.53783 0.63245 0.51732 0.0
C2707 C 0.50362 0.63505 0.51818 0.0
C2708 C 0.48705 0.64349 0.50409 0.0
C2709 C 0.50575 0.64999 0.48952 0.0
C2710 C 0.54016 0.64722 0.48857 0.0
H2711 H 0.63276 0.67057 0.50438 0.0
H2712 H 0.60228 0.66729 0.48672 0.0
H2713 H 0.59019 0.66612 0.51044 0.0
H2714 H 0.54976 0.62554 0.52815 0.0
H2715 H 0.48988 0.62996 0.52962 0.0
H2716 H 0.98814 0.11179 0.51224 0.0
H2717 H 0.04808 0.10906 0.50964 0.0
H2718 H 0.05415 0.15648 0.48453 0.0
H2719 H 0.99342 0.15941 0.48696 0.0
H2720 H 0.08598 0.11109 0.4751 0.0
H2721 H 0.12375 0.15632 0.52814 0.0
H2722 H 0.08266 0.14742 0.52762 0.0
H2723 H 0.0939 0.16272 0.51118 0.0
C2724 C 1.00198 0.12176 0.50621 0.0
C2725 C 0.9857 0.13585 0.49975 0.0
C2726 C 0.03637 0.12011 0.50472 0.0
C2727 C 0.05553 0.13253 0.4969 0.0
C2728 C 0.03973 0.14678 0.49072 0.0
H2729 H 0.2687 0.1421 0.48624 0.0
H2730 H 0.20867 0.14559 0.48518 0.0
C2731 C 0.00505 0.14844 0.49213 0.0
C2732 C 0.09194 0.13019 0.49506 0.0
H2733 H 0.16647 0.14243 0.51268 0.0
C2734 C 0.10368 0.11799 0.48322 0.0
C2735 C 0.11483 0.13915 0.50575 0.0
C2736 C 0.10336 0.15209 0.519 0.0
C2737 C 0.13784 0.11461 0.48162 0.0
C2738 C 0.1608 0.12339 0.49254 0.0
C2739 C 0.14893 0.13565 0.50433 0.0
C2740 C 0.19732 0.1205 0.4917 0.0
C2741 C 0.14898 0.10191 0.46797 0.0
C2742 C 0.2112 0.1051 0.49542 0.0
C2743 C 0.24587 0.10298 0.49578 0.0
C2744 C 0.26711 0.11632 0.49282 0.0
C2745 C 0.25304 0.13159 0.48877 0.0
C2746 C 0.21866 0.13363 0.48815 0.0
H2747 H 0.12989 0.09979 0.4572 0.0
H2748 H 0.1726 0.10552 0.46121 0.0
H2749 H 0.15311 0.09021 0.47525 0.0
H2750 H 0.1953 0.09483 0.49859 0.0
H2751 H 0.25599 0.09112 0.49909 0.0
loop_
_geom_bond_atom_site_label_1
_geom_bond_atom_site_label_2
_geom_bond_distance
_geom_bond_site_symmetry_2
_ccdc_geom_bond_type
Co0 O1 2.216 . S
Co0 O2 2.091 . S
Co0 O4 2.004 . S
Co0 O10 2.021 . S
Co0 O12 2.137 . S
Co0 O13 2.244 . S
O1 Co0 2.216 . S
O1 C8 1.247 . S
O2 Co0 2.091 . S
O2 C8 1.261 . S
C3 O12 1.247 . S
C3 O13 1.272 . S
O4 Co0 2.004 . S
O4 C9 1.259 . S
Co5 O6 2.061 . S
Co5 O11 2.052 . S
Co5 O13 2.135 . S
O6 Co5 2.061 . S
O6 C9 1.235 . S
C7 O10 1.238 . S
C7 O11 1.241 . S
C8 O1 1.247 . S
C8 O2 1.261 . S
C9 O4 1.259 . S
C9 O6 1.235 . S
O10 Co0 2.021 . S
O10 C7 1.238 . S
O11 Co5 2.052 . S
O11 C7 1.241 . S
O12 Co0 2.137 . S
O12 C3 1.247 . S
O13 Co0 2.244 . S
O13 C3 1.272 . S
O13 Co5 2.135 . S
Co14 O15 2.216 . S
Co14 O16 2.091 . S
Co14 O18 2.004 . S
Co14 O24 2.021 . S
Co14 O26 2.137 . S
Co14 O27 2.244 . S
O15 Co14 2.216 . S
O15 C22 1.247 . S
O16 Co14 2.091 . S
O16 C22 1.261 . S
C17 O26 1.247 . S
C17 O27 1.272 . S
O18 Co14 2.004 . S
O18 C23 1.259 . S
Co19 O20 2.061 . S
Co19 O25 2.052 . S
Co19 O27 2.135 . S
O20 Co19 2.061 . S
O20 C23 1.235 . S
C21 O24 1.238 . S
C21 O25 1.241 . S
C22 O15 1.247 . S
C22 O16 1.261 . S
C23 O18 1.259 . S
C23 O20 1.235 . S
O24 Co14 2.021 . S
O24 C21 1.238 . S
O25 Co19 2.052 . S
O25 C21 1.241 . S
O26 Co14 2.137 . S
O26 C17 1.247 . S
O27 Co14 2.244 . S
O27 C17 1.272 . S
O27 Co19 2.135 . S
Co28 O29 2.216 . S
Co28 O30 2.091 . S
Co28 O32 2.004 . S
Co28 O38 2.021 1_556 S
Co28 O40 2.137 . S
Co28 O41 2.244 . S
O29 Co28 2.216 . S
O29 C36 1.247 . S
O30 Co28 2.091 . S
O30 C36 1.261 . S
C31 O40 1.247 . S
C31 O41 1.272 . S
O32 Co28 2.004 . S
O32 C37 1.264 . S
Co33 O34 2.061 . S
Co33 O39 2.052 . S
Co33 O41 2.135 1_554 S
O34 Co33 2.061 . S
O34 C37 1.231 1_554 S
C35 O38 1.238 . S
C35 O39 1.241 . S
C36 O29 1.247 . S
C36 O30 1.261 . S
C37 O32 1.264 . S
C37 O34 1.231 1_556 S
O38 Co28 2.021 1_554 S
O38 C35 1.238 . S
O39 Co33 2.052 . S
O39 C35 1.241 . S
O40 Co28 2.137 . S
O40 C31 1.247 . S
O41 Co28 2.244 . S
O41 C31 1.272 . S
O41 Co33 2.135 1_556 S
Co42 O43 2.216 . S
Co42 O44 2.091 . S
Co42 O46 2.004 . S
Co42 O52 2.021 1_556 S
Co42 O54 2.137 . S
Co42 O55 2.244 . S
O43 Co42 2.216 . S
O43 C50 1.247 . S
O44 Co42 2.091 . S
O44 C50 1.261 . S
C45 O54 1.247 . S
C45 O55 1.272 . S
O46 Co42 2.004 . S
O46 C51 1.264 . S
Co47 O48 2.061 . S
Co47 O53 2.052 . S
Co47 O55 2.135 1_554 S
O48 Co47 2.061 . S
O48 C51 1.231 1_554 S
C49 O52 1.238 . S
C49 O53 1.241 . S
C50 O43 1.247 . S
C50 O44 1.261 . S
C51 O46 1.264 . S
C51 O48 1.231 1_556 S
O52 Co42 2.021 1_554 S
O52 C49 1.238 . S
O53 Co47 2.052 . S
O53 C49 1.241 . S
O54 Co42 2.137 . S
O54 C45 1.247 . S
O55 Co42 2.244 . S
O55 C45 1.272 . S
O55 Co47 2.135 1_556 S
Co56 O57 2.216 . S
Co56 O58 2.091 . S
Co56 O60 2.004 . S
Co56 O66 2.021 . S
Co56 O68 2.137 . S
Co56 O69 2.244 . S
O57 Co56 2.216 . S
O57 C64 1.247 . S
O58 Co56 2.091 . S
O58 C64 1.261 . S
C59 O68 1.247 . S
C59 O69 1.272 . S
O60 Co56 2.004 . S
O60 C65 1.259 . S
Co61 O62 2.061 . S
Co61 O67 2.052 . S
Co61 O69 2.135 . S
O62 Co61 2.061 . S
O62 C65 1.235 . S
C63 O66 1.238 . S
C63 O67 1.241 . S
C64 O57 1.247 . S
C64 O58 1.261 . S
C65 O60 1.259 . S
C65 O62 1.235 . S
O66 Co56 2.021 . S
O66 C63 1.238 . S
O67 Co61 2.052 . S
O67 C63 1.241 . S
O68 Co56 2.137 . S
O68 C59 1.247 . S
O69 Co56 2.244 . S
O69 C59 1.272 . S
O69 Co61 2.135 . S
Co70 O71 2.216 . S
Co70 O72 2.091 . S
Co70 O74 2.004 . S
Co70 O80 2.021 . S
Co70 O82 2.137 . S
Co70 O83 2.244 . S
O71 Co70 2.216 . S
O71 C78 1.247 . S
O72 Co70 2.091 . S
O72 C78 1.261 . S
C73 O82 1.247 . S
C73 O83 1.272 . S
O74 Co70 2.004 . S
O74 C79 1.259 . S
Co75 O76 2.061 . S
Co75 O81 2.052 . S
Co75 O83 2.135 . S
O76 Co75 2.061 . S
O76 C79 1.235 . S
C77 O80 1.238 . S
C77 O81 1.241 . S
C78 O71 1.247 . S
C78 O72 1.261 . S
C79 O74 1.259 . S
C79 O76 1.235 . S
O80 Co70 2.021 . S
O80 C77 1.238 . S
O81 Co75 2.052 . S
O81 C77 1.241 . S
O82 Co70 2.137 . S
O82 C73 1.247 . S
O83 Co70 2.244 . S
O83 C73 1.272 . S
O83 Co75 2.135 . S
Co84 O85 2.216 . S
Co84 O86 2.091 . S
Co84 O88 2.004 . S
Co84 O94 2.021 1_554 S
Co84 O96 2.137 . S
Co84 O97 2.244 . S
O85 Co84 2.216 . S
O85 C92 1.247 . S
O86 Co84 2.091 . S
O86 C92 1.261 . S
C87 O96 1.247 . S
C87 O97 1.272 . S
O88 Co84 2.004 . S
O88 C93 1.264 . S
Co89 O90 2.061 . S
Co89 O95 2.052 . S
Co89 O97 2.135 1_556 S
O90 Co89 2.061 . S
O90 C93 1.231 1_556 S
C91 O94 1.238 . S
C91 O95 1.241 . S
C92 O85 1.247 . S
C92 O86 1.261 . S
C93 O88 1.264 . S
C93 O90 1.231 1_554 S
O94 Co84 2.021 1_556 S
O94 C91 1.238 . S
O95 Co89 2.052 . S
O95 C91 1.241 . S
O96 Co84 2.137 . S
O96 C87 1.247 . S
O97 Co84 2.244 . S
O97 C87 1.272 . S
O97 Co89 2.135 1_554 S
Co98 O99 2.216 . S
Co98 O100 2.091 . S
Co98 O102 2.004 . S
Co98 O108 2.021 1_554 S
Co98 O110 2.137 . S
Co98 O111 2.244 . S
O99 Co98 2.216 . S
O99 C106 1.247 . S
O100 Co98 2.091 . S
O100 C106 1.261 . S
C101 O110 1.247 . S
C101 O111 1.272 . S
O102 Co98 2.004 . S
O102 C107 1.264 . S
Co103 O104 2.061 . S
Co103 O109 2.052 . S
Co103 O111 2.135 1_556 S
O104 Co103 2.061 . S
O104 C107 1.231 1_556 S
C105 O108 1.238 . S
C105 O109 1.241 . S
C106 O99 1.247 . S
C106 O100 1.261 . S
C107 O102 1.264 . S
C107 O104 1.231 1_554 S
O108 Co98 2.021 1_556 S
O108 C105 1.238 . S
O109 Co103 2.052 . S
O109 C105 1.241 . S
O110 Co98 2.137 . S
O110 C101 1.247 . S
O111 Co98 2.244 . S
O111 C101 1.272 . S
O111 Co103 2.135 1_554 S
Co112 O113 2.216 . S
Co112 O114 2.091 . S
Co112 O116 2.004 . S
Co112 O122 2.021 . S
Co112 O124 2.137 . S
Co112 O125 2.244 . S
O113 Co112 2.216 . S
O113 C120 1.247 . S
O114 Co112 2.091 . S
O114 C120 1.261 . S
C115 O124 1.247 . S
C115 O125 1.272 . S
O116 Co112 2.004 . S
O116 C121 1.259 . S
Co117 O118 2.061 . S
Co117 O123 2.052 . S
Co117 O125 2.135 . S
O118 Co117 2.061 . S
O118 C121 1.235 . S
C119 O122 1.238 . S
C119 O123 1.241 . S
C120 O113 1.247 . S
C120 O114 1.261 . S
C121 O116 1.259 . S
C121 O118 1.235 . S
O122 Co112 2.021 . S
O122 C119 1.238 . S
O123 Co117 2.052 . S
O123 C119 1.241 . S
O124 Co112 2.137 . S
O124 C115 1.247 . S
O125 Co112 2.244 . S
O125 C115 1.272 . S
O125 Co117 2.135 . S
Co126 O127 2.216 . S
Co126 O128 2.091 . S
Co126 O130 2.004 . S
Co126 O136 2.021 . S
Co126 O138 2.137 . S
Co126 O139 2.244 . S
O127 Co126 2.216 . S
O127 C134 1.247 . S
O128 Co126 2.091 . S
O128 C134 1.261 . S
C129 O138 1.247 . S
C129 O139 1.272 . S
O130 Co126 2.004 . S
O130 C135 1.259 . S
Co131 O132 2.061 . S
Co131 O137 2.052 . S
Co131 O139 2.135 . S
O132 Co131 2.061 . S
O132 C135 1.235 . S
C133 O136 1.238 . S
C133 O137 1.241 . S
C134 O127 1.247 . S
C134 O128 1.261 . S
C135 O130 1.259 . S
C135 O132 1.235 . S
O136 Co126 2.021 . S
O136 C133 1.238 . S
O137 Co131 2.052 . S
O137 C133 1.241 . S
O138 Co126 2.137 . S
O138 C129 1.247 . S
O139 Co126 2.244 . S
O139 C129 1.272 . S
O139 Co131 2.135 . S
Co140 O141 2.216 . S
Co140 O142 2.091 . S
Co140 O144 2.004 . S
Co140 O150 2.021 . S
Co140 O152 2.137 . S
Co140 O153 2.244 . S
O141 Co140 2.216 . S
O141 C148 1.247 . S
O142 Co140 2.091 . S
O142 C148 1.261 . S
C143 O152 1.247 . S
C143 O153 1.272 . S
O144 Co140 2.004 . S
O144 C149 1.259 . S
Co145 O146 2.061 . S
Co145 O151 2.052 . S
Co145 O153 2.135 . S
O146 Co145 2.061 . S
O146 C149 1.235 . S
C147 O150 1.238 . S
C147 O151 1.241 . S
C148 O141 1.247 . S
C148 O142 1.261 . S
C149 O144 1.259 . S
C149 O146 1.235 . S
O150 Co140 2.021 . S
O150 C147 1.238 . S
O151 Co145 2.052 . S
O151 C147 1.241 . S
O152 Co140 2.137 . S
O152 C143 1.247 . S
O153 Co140 2.244 . S
O153 C143 1.272 . S
O153 Co145 2.135 . S
Co154 O155 2.216 . S
Co154 O156 2.091 . S
Co154 O158 2.004 . S
Co154 O164 2.021 . S
Co154 O166 2.137 . S
Co154 O167 2.244 . S
O155 Co154 2.216 . S
O155 C162 1.247 . S
O156 Co154 2.091 . S
O156 C162 1.261 . S
C157 O166 1.247 . S
C157 O167 1.272 . S
O158 Co154 2.004 . S
O158 C163 1.259 . S
Co159 O160 2.061 . S
Co159 O165 2.052 . S
Co159 O167 2.135 . S
O160 Co159 2.061 . S
O160 C163 1.235 . S
C161 O164 1.238 . S
C161 O165 1.241 . S
C162 O155 1.247 . S
C162 O156 1.261 . S
C163 O158 1.259 . S
C163 O160 1.235 . S
O164 Co154 2.021 . S
O164 C161 1.238 . S
O165 Co159 2.052 . S
O165 C161 1.241 . S
O166 Co154 2.137 . S
O166 C157 1.247 . S
O167 Co154 2.244 . S
O167 C157 1.272 . S
O167 Co159 2.135 . S
Co168 O169 2.216 . S
Co168 O170 2.091 . S
Co168 O172 2.004 . S
Co168 O178 2.021 . S
Co168 O180 2.137 . S
Co168 O181 2.244 . S
O169 Co168 2.216 . S
O169 C176 1.247 . S
O170 Co168 2.091 . S
O170 C176 1.261 . S
C171 O180 1.247 . S
C171 O181 1.272 . S
O172 Co168 2.004 . S
O172 C177 1.259 . S
Co173 O174 2.061 . S
Co173 O179 2.052 . S
Co173 O181 2.135 . S
O174 Co173 2.061 . S
O174 C177 1.235 . S
C175 O178 1.238 . S
C175 O179 1.241 . S
C176 O169 1.247 . S
C176 O170 1.261 . S
C177 O172 1.259 . S
C177 O174 1.235 . S
O178 Co168 2.021 . S
O178 C175 1.238 . S
O179 Co173 2.052 . S
O179 C175 1.241 . S
O180 Co168 2.137 . S
O180 C171 1.247 . S
O181 Co168 2.244 . S
O181 C171 1.272 . S
O181 Co173 2.135 . S
Co182 O183 2.216 . S
Co182 O184 2.091 . S
Co182 O186 2.004 . S
Co182 O192 2.021 . S
Co182 O194 2.137 . S
Co182 O195 2.244 . S
O183 Co182 2.216 . S
O183 C190 1.247 . S
O184 Co182 2.091 . S
O184 C190 1.261 . S
C185 O194 1.247 . S
C185 O195 1.272 . S
O186 Co182 2.004 . S
O186 C191 1.259 . S
Co187 O188 2.061 . S
Co187 O193 2.052 . S
Co187 O195 2.135 . S
O188 Co187 2.061 . S
O188 C191 1.235 . S
C189 O192 1.238 . S
C189 O193 1.241 . S
C190 O183 1.247 . S
C190 O184 1.261 . S
C191 O186 1.259 . S
C191 O188 1.235 . S
O192 Co182 2.021 . S
O192 C189 1.238 . S
O193 Co187 2.052 . S
O193 C189 1.241 . S
O194 Co182 2.137 . S
O194 C185 1.247 . S
O195 Co182 2.244 . S
O195 C185 1.272 . S
O195 Co187 2.135 . S
Co196 O197 2.216 . S
Co196 O198 2.091 . S
Co196 O200 2.004 . S
Co196 O206 2.021 . S
Co196 O208 2.137 . S
Co196 O209 2.244 . S
O197 Co196 2.216 . S
O197 C204 1.247 . S
O198 Co196 2.091 . S
O198 C204 1.261 . S
C199 O208 1.247 . S
C199 O209 1.272 . S
O200 Co196 2.004 . S
O200 C205 1.259 . S
Co201 O202 2.061 . S
Co201 O207 2.052 . S
Co201 O209 2.135 . S
O202 Co201 2.061 . S
O202 C205 1.235 . S
C203 O206 1.238 . S
C203 O207 1.241 . S
C204 O197 1.247 . S
C204 O198 1.261 . S
C205 O200 1.259 . S
C205 O202 1.235 . S
O206 Co196 2.021 . S
O206 C203 1.238 . S
O207 Co201 2.052 . S
O207 C203 1.241 . S
O208 Co196 2.137 . S
O208 C199 1.247 . S
O209 Co196 2.244 . S
O209 C199 1.272 . S
O209 Co201 2.135 . S
Co210 O211 2.216 . S
Co210 O212 2.091 . S
Co210 O214 2.004 . S
Co210 O220 2.021 . S
Co210 O222 2.137 . S
Co210 O223 2.244 . S
O211 Co210 2.216 . S
O211 C218 1.247 . S
O212 Co210 2.091 . S
O212 C218 1.261 . S
C213 O222 1.247 . S
C213 O223 1.272 . S
O214 Co210 2.004 . S
O214 C219 1.259 . S
Co215 O216 2.061 . S
Co215 O221 2.052 . S
Co215 O223 2.135 . S
O216 Co215 2.061 . S
O216 C219 1.235 . S
C217 O220 1.238 . S
C217 O221 1.241 . S
C218 O211 1.247 . S
C218 O212 1.261 . S
C219 O214 1.259 . S
C219 O216 1.235 . S
O220 Co210 2.021 . S
O220 C217 1.238 . S
O221 Co215 2.052 . S
O221 C217 1.241 . S
O222 Co210 2.137 . S
O222 C213 1.247 . S
O223 Co210 2.244 . S
O223 C213 1.272 . S
O223 Co215 2.135 . S
Co224 O225 2.216 . S
Co224 O226 2.091 . S
Co224 O228 2.004 . S
Co224 O234 2.021 . S
Co224 O236 2.137 . S
Co224 O237 2.244 . S
O225 Co224 2.216 . S
O225 C232 1.247 . S
O226 Co224 2.091 . S
O226 C232 1.261 . S
C227 O236 1.247 . S
C227 O237 1.272 . S
O228 Co224 2.004 . S
O228 C233 1.259 . S
Co229 O230 2.061 . S
Co229 O235 2.052 . S
Co229 O237 2.135 . S
O230 Co229 2.061 . S
O230 C233 1.235 . S
C231 O234 1.238 . S
C231 O235 1.241 . S
C232 O225 1.247 . S
C232 O226 1.261 . S
C233 O228 1.259 . S
C233 O230 1.235 . S
O234 Co224 2.021 . S
O234 C231 1.238 . S
O235 Co229 2.052 . S
O235 C231 1.241 . S
O236 Co224 2.137 . S
O236 C227 1.247 . S
O237 Co224 2.244 . S
O237 C227 1.272 . S
O237 Co229 2.135 . S
Co238 O239 2.216 . S
Co238 O240 2.091 . S
Co238 O242 2.004 . S
Co238 O248 2.021 . S
Co238 O250 2.137 . S
Co238 O251 2.244 . S
O239 Co238 2.216 . S
O239 C246 1.247 . S
O240 Co238 2.091 . S
O240 C246 1.261 . S
C241 O250 1.247 . S
C241 O251 1.272 . S
O242 Co238 2.004 . S
O242 C247 1.259 . S
Co243 O244 2.061 . S
Co243 O249 2.052 . S
Co243 O251 2.135 . S
O244 Co243 2.061 . S
O244 C247 1.235 . S
C245 O248 1.238 . S
C245 O249 1.241 . S
C246 O239 1.247 . S
C246 O240 1.261 . S
C247 O242 1.259 . S
C247 O244 1.235 . S
O248 Co238 2.021 . S
O248 C245 1.238 . S
O249 Co243 2.052 . S
O249 C245 1.241 . S
O250 Co238 2.137 . S
O250 C241 1.247 . S
O251 Co238 2.244 . S
O251 C241 1.272 . S
O251 Co243 2.135 . S
Co252 O253 2.216 . S
Co252 O254 2.091 . S
Co252 O256 2.004 . S
Co252 O262 2.021 . S
Co252 O264 2.137 . S
Co252 O265 2.244 . S
O253 Co252 2.216 . S
O253 C260 1.247 . S
O254 Co252 2.091 . S
O254 C260 1.261 . S
C255 O264 1.247 . S
C255 O265 1.272 . S
O256 Co252 2.004 . S
O256 C261 1.259 . S
Co257 O258 2.061 . S
Co257 O263 2.052 . S
Co257 O265 2.135 . S
O258 Co257 2.061 . S
O258 C261 1.235 . S
C259 O262 1.238 . S
C259 O263 1.241 . S
C260 O253 1.247 . S
C260 O254 1.261 . S
C261 O256 1.259 . S
C261 O258 1.235 . S
O262 Co252 2.021 . S
O262 C259 1.238 . S
O263 Co257 2.052 . S
O263 C259 1.241 . S
O264 Co252 2.137 . S
O264 C255 1.247 . S
O265 Co252 2.244 . S
O265 C255 1.272 . S
O265 Co257 2.135 . S
Co266 O267 2.216 . S
Co266 O268 2.091 . S
Co266 O270 2.004 . S
Co266 O276 2.021 . S
Co266 O278 2.137 . S
Co266 O279 2.244 . S
O267 Co266 2.216 . S
O267 C274 1.247 . S
O268 Co266 2.091 . S
O268 C274 1.261 . S
C269 O278 1.247 . S
C269 O279 1.272 . S
O270 Co266 2.004 . S
O270 C275 1.259 . S
Co271 O272 2.061 . S
Co271 O277 2.052 . S
Co271 O279 2.135 . S
O272 Co271 2.061 . S
O272 C275 1.235 . S
C273 O276 1.238 . S
C273 O277 1.241 . S
C274 O267 1.247 . S
C274 O268 1.261 . S
C275 O270 1.259 . S
C275 O272 1.235 . S
O276 Co266 2.021 . S
O276 C273 1.238 . S
O277 Co271 2.052 . S
O277 C273 1.241 . S
O278 Co266 2.137 . S
O278 C269 1.247 . S
O279 Co266 2.244 . S
O279 C269 1.272 . S
O279 Co271 2.135 . S
Co280 O281 2.216 . S
Co280 O282 2.091 . S
Co280 O284 2.004 . S
Co280 O290 2.021 . S
Co280 O292 2.137 . S
Co280 O293 2.244 . S
O281 Co280 2.216 . S
O281 C288 1.247 . S
O282 Co280 2.091 . S
O282 C288 1.261 . S
C283 O292 1.247 . S
C283 O293 1.272 . S
O284 Co280 2.004 . S
O284 C289 1.259 . S
Co285 O286 2.061 . S
Co285 O291 2.052 . S
Co285 O293 2.135 . S
O286 Co285 2.061 . S
O286 C289 1.235 . S
C287 O290 1.238 . S
C287 O291 1.241 . S
C288 O281 1.247 . S
C288 O282 1.261 . S
C289 O284 1.259 . S
C289 O286 1.235 . S
O290 Co280 2.021 . S
O290 C287 1.238 . S
O291 Co285 2.052 . S
O291 C287 1.241 . S
O292 Co280 2.137 . S
O292 C283 1.247 . S
O293 Co280 2.244 . S
O293 C283 1.272 . S
O293 Co285 2.135 . S
Co294 O295 2.216 . S
Co294 O296 2.091 . S
Co294 O298 2.004 . S
Co294 O304 2.021 . S
Co294 O306 2.137 . S
Co294 O307 2.244 . S
O295 Co294 2.216 . S
O295 C302 1.247 . S
O296 Co294 2.091 . S
O296 C302 1.261 . S
C297 O306 1.247 . S
C297 O307 1.272 . S
O298 Co294 2.004 . S
O298 C303 1.259 . S
Co299 O300 2.061 . S
Co299 O305 2.052 . S
Co299 O307 2.135 . S
O300 Co299 2.061 . S
O300 C303 1.235 . S
C301 O304 1.238 . S
C301 O305 1.241 . S
C302 O295 1.247 . S
C302 O296 1.261 . S
C303 O298 1.259 . S
C303 O300 1.235 . S
O304 Co294 2.021 . S
O304 C301 1.238 . S
O305 Co299 2.052 . S
O305 C301 1.241 . S
O306 Co294 2.137 . S
O306 C297 1.247 . S
O307 Co294 2.244 . S
O307 C297 1.272 . S
O307 Co299 2.135 . S
Co308 O309 2.216 . S
Co308 O310 2.091 . S
Co308 O312 2.004 . S
Co308 O318 2.021 . S
Co308 O320 2.137 . S
Co308 O321 2.244 . S
O309 Co308 2.216 . S
O309 C316 1.247 . S
O310 Co308 2.091 . S
O310 C316 1.261 . S
C311 O320 1.247 . S
C311 O321 1.272 . S
O312 Co308 2.004 . S
O312 C317 1.259 . S
Co313 O314 2.061 . S
Co313 O319 2.052 . S
Co313 O321 2.135 . S
O314 Co313 2.061 . S
O314 C317 1.235 . S
C315 O318 1.238 . S
C315 O319 1.241 . S
C316 O309 1.247 . S
C316 O310 1.261 . S
C317 O312 1.259 . S
C317 O314 1.235 . S
O318 Co308 2.021 . S
O318 C315 1.238 . S
O319 Co313 2.052 . S
O319 C315 1.241 . S
O320 Co308 2.137 . S
O320 C311 1.247 . S
O321 Co308 2.244 . S
O321 C311 1.272 . S
O321 Co313 2.135 . S
Co322 O323 2.216 . S
Co322 O324 2.091 . S
Co322 O326 2.004 . S
Co322 O332 2.021 . S
Co322 O334 2.137 . S
Co322 O335 2.244 . S
O323 Co322 2.216 . S
O323 C330 1.247 . S
O324 Co322 2.091 . S
O324 C330 1.261 . S
C325 O334 1.247 . S
C325 O335 1.272 . S
O326 Co322 2.004 . S
O326 C331 1.259 . S
Co327 O328 2.061 . S
Co327 O333 2.052 . S
Co327 O335 2.135 . S
O328 Co327 2.061 . S
O328 C331 1.235 . S
C329 O332 1.238 . S
C329 O333 1.241 . S
C330 O323 1.247 . S
C330 O324 1.261 . S
C331 O326 1.259 . S
C331 O328 1.235 . S
O332 Co322 2.021 . S
O332 C329 1.238 . S
O333 Co327 2.052 . S
O333 C329 1.241 . S
O334 Co322 2.137 . S
O334 C325 1.247 . S
O335 Co322 2.244 . S
O335 C325 1.272 . S
O335 Co327 2.135 . S
Co336 O337 2.216 . S
Co336 O338 2.091 . S
Co336 O340 2.004 . S
Co336 O346 2.021 . S
Co336 O348 2.137 . S
Co336 O349 2.244 . S
O337 Co336 2.216 . S
O337 C344 1.247 . S
O338 Co336 2.091 . S
O338 C344 1.261 . S
C339 O348 1.247 . S
C339 O349 1.272 . S
O340 Co336 2.004 . S
O340 C345 1.259 . S
Co341 O342 2.061 . S
Co341 O347 2.052 . S
Co341 O349 2.135 . S
O342 Co341 2.061 . S
O342 C345 1.235 . S
C343 O346 1.238 . S
C343 O347 1.241 . S
C344 O337 1.247 . S
C344 O338 1.261 . S
C345 O340 1.259 . S
C345 O342 1.235 . S
O346 Co336 2.021 . S
O346 C343 1.238 . S
O347 Co341 2.052 . S
O347 C343 1.241 . S
O348 Co336 2.137 . S
O348 C339 1.247 . S
O349 Co336 2.244 . S
O349 C339 1.272 . S
O349 Co341 2.135 . S
Co350 O351 2.216 . S
Co350 O352 2.091 . S
Co350 O354 2.004 . S
Co350 O360 2.021 . S
Co350 O362 2.137 . S
Co350 O363 2.244 . S
O351 Co350 2.216 . S
O351 C358 1.247 . S
O352 Co350 2.091 . S
O352 C358 1.261 . S
C353 O362 1.247 . S
C353 O363 1.272 . S
O354 Co350 2.004 . S
O354 C359 1.259 . S
Co355 O356 2.061 . S
Co355 O361 2.052 . S
Co355 O363 2.135 . S
O356 Co355 2.061 . S
O356 C359 1.235 . S
C357 O360 1.238 . S
C357 O361 1.241 . S
C358 O351 1.247 . S
C358 O352 1.261 . S
C359 O354 1.259 . S
C359 O356 1.235 . S
O360 Co350 2.021 . S
O360 C357 1.238 . S
O361 Co355 2.052 . S
O361 C357 1.241 . S
O362 Co350 2.137 . S
O362 C353 1.247 . S
O363 Co350 2.244 . S
O363 C353 1.272 . S
O363 Co355 2.135 . S
Co364 O365 2.216 . S
Co364 O366 2.091 . S
Co364 O368 2.004 . S
Co364 O374 2.021 1_556 S
Co364 O376 2.137 . S
Co364 O377 2.244 . S
O365 Co364 2.216 . S
O365 C372 1.247 . S
O366 Co364 2.091 . S
O366 C372 1.261 . S
C367 O376 1.247 . S
C367 O377 1.272 . S
O368 Co364 2.004 . S
O368 C373 1.264 . S
Co369 O370 2.061 . S
Co369 O375 2.052 . S
Co369 O377 2.135 1_554 S
O370 Co369 2.061 . S
O370 C373 1.231 1_554 S
C371 O374 1.238 . S
C371 O375 1.241 . S
C372 O365 1.247 . S
C372 O366 1.261 . S
C373 O368 1.264 . S
C373 O370 1.231 1_556 S
O374 Co364 2.021 1_554 S
O374 C371 1.238 . S
O375 Co369 2.052 . S
O375 C371 1.241 . S
O376 Co364 2.137 . S
O376 C367 1.247 . S
O377 Co364 2.244 . S
O377 C367 1.272 . S
O377 Co369 2.135 1_556 S
Co378 O379 2.216 . S
Co378 O380 2.091 . S
Co378 O382 2.004 . S
Co378 O388 2.021 1_556 S
Co378 O390 2.137 . S
Co378 O391 2.244 . S
O379 Co378 2.216 . S
O379 C386 1.247 . S
O380 Co378 2.091 . S
O380 C386 1.261 . S
C381 O390 1.247 . S
C381 O391 1.272 . S
O382 Co378 2.004 . S
O382 C387 1.264 . S
Co383 O384 2.061 . S
Co383 O389 2.052 . S
Co383 O391 2.135 1_554 S
O384 Co383 2.061 . S
O384 C387 1.231 1_554 S
C385 O388 1.238 . S
C385 O389 1.241 . S
C386 O379 1.247 . S
C386 O380 1.261 . S
C387 O382 1.264 . S
C387 O384 1.231 1_556 S
O388 Co378 2.021 1_554 S
O388 C385 1.238 . S
O389 Co383 2.052 . S
O389 C385 1.241 . S
O390 Co378 2.137 . S
O390 C381 1.247 . S
O391 Co378 2.244 . S
O391 C381 1.272 . S
O391 Co383 2.135 1_556 S
Co392 O393 2.216 . S
Co392 O394 2.091 . S
Co392 O396 2.004 . S
Co392 O402 2.021 . S
Co392 O404 2.137 . S
Co392 O405 2.244 . S
O393 Co392 2.216 . S
O393 C400 1.247 . S
O394 Co392 2.091 . S
O394 C400 1.261 . S
C395 O404 1.247 . S
C395 O405 1.272 . S
O396 Co392 2.004 . S
O396 C401 1.259 . S
Co397 O398 2.061 . S
Co397 O403 2.052 . S
Co397 O405 2.135 . S
O398 Co397 2.061 . S
O398 C401 1.235 . S
C399 O402 1.238 . S
C399 O403 1.241 . S
C400 O393 1.247 . S
C400 O394 1.261 . S
C401 O396 1.259 . S
C401 O398 1.235 . S
O402 Co392 2.021 . S
O402 C399 1.238 . S
O403 Co397 2.052 . S
O403 C399 1.241 . S
O404 Co392 2.137 . S
O404 C395 1.247 . S
O405 Co392 2.244 . S
O405 C395 1.272 . S
O405 Co397 2.135 . S
Co406 O407 2.216 . S
Co406 O408 2.091 . S
Co406 O410 2.004 . S
Co406 O416 2.021 . S
Co406 O418 2.137 . S
Co406 O419 2.244 . S
O407 Co406 2.216 . S
O407 C414 1.247 . S
O408 Co406 2.091 . S
O408 C414 1.261 . S
C409 O418 1.247 . S
C409 O419 1.272 . S
O410 Co406 2.004 . S
O410 C415 1.259 . S
Co411 O412 2.061 . S
Co411 O417 2.052 . S
Co411 O419 2.135 . S
O412 Co411 2.061 . S
O412 C415 1.235 . S
C413 O416 1.238 . S
C413 O417 1.241 . S
C414 O407 1.247 . S
C414 O408 1.261 . S
C415 O410 1.259 . S
C415 O412 1.235 . S
O416 Co406 2.021 . S
O416 C413 1.238 . S
O417 Co411 2.052 . S
O417 C413 1.241 . S
O418 Co406 2.137 . S
O418 C409 1.247 . S
O419 Co406 2.244 . S
O419 C409 1.272 . S
O419 Co411 2.135 . S
Co420 O421 2.216 . S
Co420 O422 2.091 . S
Co420 O424 2.004 . S
Co420 O430 2.021 1_554 S
Co420 O432 2.137 . S
Co420 O433 2.244 . S
O421 Co420 2.216 . S
O421 C428 1.247 . S
O422 Co420 2.091 . S
O422 C428 1.261 . S
C423 O432 1.247 . S
C423 O433 1.272 . S
O424 Co420 2.004 . S
O424 C429 1.264 . S
Co425 O426 2.061 . S
Co425 O431 2.052 . S
Co425 O433 2.135 1_556 S
O426 Co425 2.061 . S
O426 C429 1.231 1_556 S
C427 O430 1.238 . S
C427 O431 1.241 . S
C428 O421 1.247 . S
C428 O422 1.261 . S
C429 O424 1.264 . S
C429 O426 1.231 1_554 S
O430 Co420 2.021 1_556 S
O430 C427 1.238 . S
O431 Co425 2.052 . S
O431 C427 1.241 . S
O432 Co420 2.137 . S
O432 C423 1.247 . S
O433 Co420 2.244 . S
O433 C423 1.272 . S
O433 Co425 2.135 1_554 S
Co434 O435 2.216 . S
Co434 O436 2.091 . S
Co434 O438 2.004 . S
Co434 O444 2.021 1_554 S
Co434 O446 2.137 . S
Co434 O447 2.244 . S
O435 Co434 2.216 . S
O435 C442 1.247 . S
O436 Co434 2.091 . S
O436 C442 1.261 . S
C437 O446 1.247 . S
C437 O447 1.272 . S
O438 Co434 2.004 . S
O438 C443 1.264 . S
Co439 O440 2.061 . S
Co439 O445 2.052 . S
Co439 O447 2.135 1_556 S
O440 Co439 2.061 . S
O440 C443 1.231 1_556 S
C441 O444 1.238 . S
C441 O445 1.241 . S
C442 O435 1.247 . S
C442 O436 1.261 . S
C443 O438 1.264 . S
C443 O440 1.231 1_554 S
O444 Co434 2.021 1_556 S
O444 C441 1.238 . S
O445 Co439 2.052 . S
O445 C441 1.241 . S
O446 Co434 2.137 . S
O446 C437 1.247 . S
O447 Co434 2.244 . S
O447 C437 1.272 . S
O447 Co439 2.135 1_554 S
H448 C456 0.929 . S
H449 C458 0.930 . S
H450 C460 0.930 . S
H451 C463 0.929 . S
H452 C466 0.930 . S
H453 C468 0.960 . S
H454 C468 0.960 . S
H455 C468 0.960 . S
C456 H448 0.929 . S
C456 C457 1.377 . S
C456 C458 1.384 . S
C457 C456 1.377 . S
C457 C463 1.390 . S
C458 H449 0.930 . S
C458 C456 1.384 . S
C458 C459 1.372 . S
C459 C458 1.372 . S
C459 C460 1.400 . S
C459 C464 1.490 . S
C460 H450 0.930 . S
C460 C459 1.400 . S
C460 C463 1.386 . S
H461 C477 0.930 . S
H462 C478 0.931 . S
C463 H451 0.929 . S
C463 C457 1.390 . S
C463 C460 1.386 . S
C464 C459 1.490 . S
C464 C466 1.395 . S
C464 C467 1.403 . S
H465 C471 0.930 . S
C466 H452 0.930 . S
C466 C464 1.395 . S
C466 C469 1.403 . S
C467 C464 1.403 . S
C467 C468 1.524 . S
C467 C471 1.400 . S
C468 H453 0.960 . S
C468 H454 0.960 . S
C468 H455 0.960 . S
C468 C467 1.524 . S
C469 C466 1.403 . S
C469 C470 1.392 . S
C469 C473 1.495 . S
C470 C469 1.392 . S
C470 C471 1.385 . S
C470 C472 1.478 . S
C471 H465 0.930 . S
C471 C467 1.400 . S
C471 C470 1.385 . S
C472 C470 1.478 . S
C472 C474 1.381 . S
C472 C478 1.383 . S
C473 C469 1.495 . S
C473 H479 0.959 . S
C473 H480 0.961 . S
C473 H481 0.960 . S
C474 C472 1.381 . S
C474 C475 1.394 . S
C474 H482 0.930 . S
C475 C474 1.394 . S
C475 C476 1.383 . S
C475 H483 0.929 . S
C476 C475 1.383 . S
C476 C477 1.377 . S
C477 H461 0.930 . S
C477 C476 1.377 . S
C477 C478 1.379 . S
C478 H462 0.931 . S
C478 C472 1.383 . S
C478 C477 1.379 . S
H479 C473 0.959 . S
H480 C473 0.961 . S
H481 C473 0.960 . S
H482 C474 0.930 . S
H483 C475 0.929 . S
H484 C492 0.929 . S
H485 C494 0.930 . S
H486 C496 0.930 . S
H487 C499 0.929 . S
H488 C502 0.930 . S
H489 C504 0.960 . S
H490 C504 0.960 . S
H491 C504 0.960 . S
C492 H484 0.929 . S
C492 C493 1.377 . S
C492 C494 1.384 . S
C493 C492 1.377 . S
C493 C499 1.390 . S
C494 H485 0.930 . S
C494 C492 1.384 . S
C494 C495 1.372 . S
C495 C494 1.372 . S
C495 C496 1.400 . S
C495 C500 1.490 . S
C496 H486 0.930 . S
C496 C495 1.400 . S
C496 C499 1.386 . S
H497 C513 0.930 . S
H498 C514 0.931 . S
C499 H487 0.929 . S
C499 C493 1.390 . S
C499 C496 1.386 . S
C500 C495 1.490 . S
C500 C502 1.395 . S
C500 C503 1.403 . S
H501 C507 0.930 . S
C502 H488 0.930 . S
C502 C500 1.395 . S
C502 C505 1.403 . S
C503 C500 1.403 . S
C503 C504 1.524 . S
C503 C507 1.400 . S
C504 H489 0.960 . S
C504 H490 0.960 . S
C504 H491 0.960 . S
C504 C503 1.524 . S
C505 C502 1.403 . S
C505 C506 1.392 . S
C505 C509 1.495 . S
C506 C505 1.392 . S
C506 C507 1.385 . S
C506 C508 1.478 . S
C507 H501 0.930 . S
C507 C503 1.400 . S
C507 C506 1.385 . S
C508 C506 1.478 . S
C508 C510 1.381 . S
C508 C514 1.383 . S
C509 C505 1.495 . S
C509 H515 0.959 . S
C509 H516 0.961 . S
C509 H517 0.960 . S
C510 C508 1.381 . S
C510 C511 1.394 . S
C510 H518 0.930 . S
C511 C510 1.394 . S
C511 C512 1.383 . S
C511 H519 0.929 . S
C512 C511 1.383 . S
C512 C513 1.377 . S
C513 H497 0.930 . S
C513 C512 1.377 . S
C513 C514 1.379 . S
C514 H498 0.931 . S
C514 C508 1.383 . S
C514 C513 1.379 . S
H515 C509 0.959 . S
H516 C509 0.961 . S
H517 C509 0.960 . S
H518 C510 0.930 . S
H519 C511 0.929 . S
H520 C528 0.929 . S
H521 C530 0.930 . S
H522 C532 0.930 . S
H523 C535 0.929 . S
H524 C538 0.930 . S
H525 C540 0.960 . S
H526 C540 0.960 . S
H527 C540 0.960 . S
C528 H520 0.929 . S
C528 C529 1.377 . S
C528 C530 1.384 . S
C529 C528 1.377 . S
C529 C535 1.390 . S
C530 H521 0.930 . S
C530 C528 1.384 . S
C530 C531 1.372 . S
C531 C530 1.372 . S
C531 C532 1.400 . S
C531 C536 1.490 . S
C532 H522 0.930 . S
C532 C531 1.400 . S
C532 C535 1.386 . S
H533 C549 0.930 . S
H534 C550 0.931 . S
C535 H523 0.929 . S
C535 C529 1.390 . S
C535 C532 1.386 . S
C536 C531 1.490 . S
C536 C538 1.395 . S
C536 C539 1.403 . S
H537 C543 0.930 . S
C538 H524 0.930 . S
C538 C536 1.395 . S
C538 C541 1.403 . S
C539 C536 1.403 . S
C539 C540 1.524 . S
C539 C543 1.400 . S
C540 H525 0.960 . S
C540 H526 0.960 . S
C540 H527 0.960 . S
C540 C539 1.524 . S
C541 C538 1.403 . S
C541 C542 1.392 . S
C541 C545 1.495 . S
C542 C541 1.392 . S
C542 C543 1.385 . S
C542 C544 1.478 . S
C543 H537 0.930 . S
C543 C539 1.400 . S
C543 C542 1.385 . S
C544 C542 1.478 . S
C544 C546 1.381 . S
C544 C550 1.383 . S
C545 C541 1.495 . S
C545 H551 0.959 . S
C545 H552 0.961 . S
C545 H553 0.960 . S
C546 C544 1.381 . S
C546 C547 1.394 . S
C546 H554 0.930 . S
C547 C546 1.394 . S
C547 C548 1.383 . S
C547 H555 0.929 . S
C548 C547 1.383 . S
C548 C549 1.377 . S
C549 H533 0.930 . S
C549 C548 1.377 . S
C549 C550 1.379 . S
C550 H534 0.931 . S
C550 C544 1.383 . S
C550 C549 1.379 . S
H551 C545 0.959 . S
H552 C545 0.961 . S
H553 C545 0.960 . S
H554 C546 0.930 . S
H555 C547 0.929 . S
H556 C564 0.929 . S
H557 C566 0.930 . S
H558 C568 0.930 . S
H559 C571 0.929 . S
H560 C574 0.930 . S
H561 C576 0.960 . S
H562 C576 0.960 . S
H563 C576 0.960 . S
C564 H556 0.929 . S
C564 C565 1.377 . S
C564 C566 1.384 . S
C565 C564 1.377 . S
C565 C571 1.390 . S
C566 H557 0.930 . S
C566 C564 1.384 . S
C566 C567 1.372 . S
C567 C566 1.372 . S
C567 C568 1.400 . S
C567 C572 1.490 . S
C568 H558 0.930 . S
C568 C567 1.400 . S
C568 C571 1.386 . S
H569 C585 0.930 . S
H570 C586 0.931 . S
C571 H559 0.929 . S
C571 C565 1.390 . S
C571 C568 1.386 . S
C572 C567 1.490 . S
C572 C574 1.395 . S
C572 C575 1.403 . S
H573 C579 0.930 . S
C574 H560 0.930 . S
C574 C572 1.395 . S
C574 C577 1.403 . S
C575 C572 1.403 . S
C575 C576 1.524 . S
C575 C579 1.400 . S
C576 H561 0.960 . S
C576 H562 0.960 . S
C576 H563 0.960 . S
C576 C575 1.524 . S
C577 C574 1.403 . S
C577 C578 1.392 . S
C577 C581 1.495 . S
C578 C577 1.392 . S
C578 C579 1.385 . S
C578 C580 1.478 . S
C579 H573 0.930 . S
C579 C575 1.400 . S
C579 C578 1.385 . S
C580 C578 1.478 . S
C580 C582 1.381 . S
C580 C586 1.383 . S
C581 C577 1.495 . S
C581 H587 0.959 . S
C581 H588 0.961 . S
C581 H589 0.960 . S
C582 C580 1.381 . S
C582 C583 1.394 . S
C582 H590 0.930 . S
C583 C582 1.394 . S
C583 C584 1.383 . S
C583 H591 0.929 . S
C584 C583 1.383 . S
C584 C585 1.377 . S
C585 H569 0.930 . S
C585 C584 1.377 . S
C585 C586 1.379 . S
C586 H570 0.931 . S
C586 C580 1.383 . S
C586 C585 1.379 . S
H587 C581 0.959 . S
H588 C581 0.961 . S
H589 C581 0.960 . S
H590 C582 0.930 . S
H591 C583 0.929 . S
H592 C600 0.929 . S
H593 C602 0.930 . S
H594 C604 0.930 . S
H595 C607 0.929 . S
H596 C610 0.930 . S
H597 C612 0.960 . S
H598 C612 0.960 . S
H599 C612 0.960 . S
C600 H592 0.929 . S
C600 C601 1.377 . S
C600 C602 1.384 . S
C601 C600 1.377 . S
C601 C607 1.390 . S
C602 H593 0.930 . S
C602 C600 1.384 . S
C602 C603 1.372 . S
C603 C602 1.372 . S
C603 C604 1.400 . S
C603 C608 1.490 . S
C604 H594 0.930 . S
C604 C603 1.400 . S
C604 C607 1.386 . S
H605 C621 0.930 . S
H606 C622 0.931 . S
C607 H595 0.929 . S
C607 C601 1.390 . S
C607 C604 1.386 . S
C608 C603 1.490 . S
C608 C610 1.395 . S
C608 C611 1.403 . S
H609 C615 0.930 . S
C610 H596 0.930 . S
C610 C608 1.395 . S
C610 C613 1.403 . S
C611 C608 1.403 . S
C611 C612 1.524 . S
C611 C615 1.400 . S
C612 H597 0.960 . S
C612 H598 0.960 . S
C612 H599 0.960 . S
C612 C611 1.524 . S
C613 C610 1.403 . S
C613 C614 1.392 . S
C613 C617 1.495 . S
C614 C613 1.392 . S
C614 C615 1.385 . S
C614 C616 1.478 . S
C615 H609 0.930 . S
C615 C611 1.400 . S
C615 C614 1.385 . S
C616 C614 1.478 . S
C616 C618 1.381 . S
C616 C622 1.383 . S
C617 C613 1.495 . S
C617 H623 0.959 . S
C617 H624 0.961 . S
C617 H625 0.960 . S
C618 C616 1.381 . S
C618 C619 1.394 . S
C618 H626 0.930 . S
C619 C618 1.394 . S
C619 C620 1.383 . S
C619 H627 0.929 . S
C620 C619 1.383 . S
C620 C621 1.377 . S
C621 H605 0.930 . S
C621 C620 1.377 . S
C621 C622 1.379 . S
C622 H606 0.931 . S
C622 C616 1.383 . S
C622 C621 1.379 . S
H623 C617 0.959 . S
H624 C617 0.961 . S
H625 C617 0.960 . S
H626 C618 0.930 . S
H627 C619 0.929 . S
H628 C636 0.929 . S
H629 C638 0.930 . S
H630 C640 0.930 . S
H631 C643 0.929 . S
H632 C646 0.930 . S
H633 C648 0.960 . S
H634 C648 0.960 . S
H635 C648 0.960 . S
C636 H628 0.929 . S
C636 C637 1.377 . S
C636 C638 1.384 . S
C637 C636 1.377 . S
C637 C643 1.390 . S
C638 H629 0.930 . S
C638 C636 1.384 . S
C638 C639 1.372 . S
C639 C638 1.372 . S
C639 C640 1.400 . S
C639 C644 1.490 . S
C640 H630 0.930 . S
C640 C639 1.400 . S
C640 C643 1.386 . S
H641 C657 0.930 . S
H642 C658 0.931 . S
C643 H631 0.929 . S
C643 C637 1.390 . S
C643 C640 1.386 . S
C644 C639 1.490 . S
C644 C646 1.395 . S
C644 C647 1.403 . S
H645 C651 0.930 . S
C646 H632 0.930 . S
C646 C644 1.395 . S
C646 C649 1.403 . S
C647 C644 1.403 . S
C647 C648 1.524 . S
C647 C651 1.400 . S
C648 H633 0.960 . S
C648 H634 0.960 . S
C648 H635 0.960 . S
C648 C647 1.524 . S
C649 C646 1.403 . S
C649 C650 1.392 . S
C649 C653 1.495 . S
C650 C649 1.392 . S
C650 C651 1.385 . S
C650 C652 1.478 . S
C651 H645 0.930 . S
C651 C647 1.400 . S
C651 C650 1.385 . S
C652 C650 1.478 . S
C652 C654 1.381 . S
C652 C658 1.383 . S
C653 C649 1.495 . S
C653 H659 0.959 . S
C653 H660 0.961 . S
C653 H661 0.960 . S
C654 C652 1.381 . S
C654 C655 1.394 . S
C654 H662 0.930 . S
C655 C654 1.394 . S
C655 C656 1.383 . S
C655 H663 0.929 . S
C656 C655 1.383 . S
C656 C657 1.377 . S
C657 H641 0.930 . S
C657 C656 1.377 . S
C657 C658 1.379 . S
C658 H642 0.931 . S
C658 C652 1.383 . S
C658 C657 1.379 . S
H659 C653 0.959 . S
H660 C653 0.961 . S
H661 C653 0.960 . S
H662 C654 0.930 . S
H663 C655 0.929 . S
H664 C672 0.929 . S
H665 C674 0.930 . S
H666 C676 0.930 . S
H667 C679 0.929 . S
H668 C682 0.930 . S
H669 C684 0.960 . S
H670 C684 0.960 . S
H671 C684 0.960 . S
C672 H664 0.929 . S
C672 C673 1.377 . S
C672 C674 1.384 . S
C673 C672 1.377 . S
C673 C679 1.390 . S
C674 H665 0.930 . S
C674 C672 1.384 . S
C674 C675 1.372 . S
C675 C674 1.372 . S
C675 C676 1.400 . S
C675 C680 1.490 . S
C676 H666 0.930 . S
C676 C675 1.400 . S
C676 C679 1.386 . S
H677 C693 0.930 . S
H678 C694 0.931 . S
C679 H667 0.929 . S
C679 C673 1.390 . S
C679 C676 1.386 . S
C680 C675 1.490 . S
C680 C682 1.395 . S
C680 C683 1.403 . S
H681 C687 0.930 . S
C682 H668 0.930 . S
C682 C680 1.395 . S
C682 C685 1.403 . S
C683 C680 1.403 . S
C683 C684 1.524 . S
C683 C687 1.400 . S
C684 H669 0.960 . S
C684 H670 0.960 . S
C684 H671 0.960 . S
C684 C683 1.524 . S
C685 C682 1.403 . S
C685 C686 1.392 . S
C685 C689 1.495 . S
C686 C685 1.392 . S
C686 C687 1.385 . S
C686 C688 1.478 . S
C687 H681 0.930 . S
C687 C683 1.400 . S
C687 C686 1.385 . S
C688 C686 1.478 . S
C688 C690 1.381 . S
C688 C694 1.383 . S
C689 C685 1.495 . S
C689 H695 0.959 . S
C689 H696 0.961 . S
C689 H697 0.960 . S
C690 C688 1.381 . S
C690 C691 1.394 . S
C690 H698 0.930 . S
C691 C690 1.394 . S
C691 C692 1.383 . S
C691 H699 0.929 . S
C692 C691 1.383 . S
C692 C693 1.377 . S
C693 H677 0.930 . S
C693 C692 1.377 . S
C693 C694 1.379 . S
C694 H678 0.931 . S
C694 C688 1.383 . S
C694 C693 1.379 . S
H695 C689 0.959 . S
H696 C689 0.961 . S
H697 C689 0.960 . S
H698 C690 0.930 . S
H699 C691 0.929 . S
H700 C708 0.929 . S
H701 C710 0.930 . S
H702 C712 0.930 . S
H703 C715 0.929 . S
H704 C718 0.930 . S
H705 C720 0.960 . S
H706 C720 0.960 . S
H707 C720 0.960 . S
C708 H700 0.929 . S
C708 C709 1.377 . S
C708 C710 1.384 . S
C709 C708 1.377 . S
C709 C715 1.390 . S
C710 H701 0.930 . S
C710 C708 1.384 . S
C710 C711 1.372 . S
C711 C710 1.372 . S
C711 C712 1.400 . S
C711 C716 1.490 . S
C712 H702 0.930 . S
C712 C711 1.400 . S
C712 C715 1.386 . S
H713 C729 0.930 . S
H714 C730 0.931 . S
C715 H703 0.929 . S
C715 C709 1.390 . S
C715 C712 1.386 . S
C716 C711 1.490 . S
C716 C718 1.395 . S
C716 C719 1.403 . S
H717 C723 0.930 . S
C718 H704 0.930 . S
C718 C716 1.395 . S
C718 C721 1.403 . S
C719 C716 1.403 . S
C719 C720 1.524 . S
C719 C723 1.400 . S
C720 H705 0.960 . S
C720 H706 0.960 . S
C720 H707 0.960 . S
C720 C719 1.524 . S
C721 C718 1.403 . S
C721 C722 1.392 . S
C721 C725 1.495 . S
C722 C721 1.392 . S
C722 C723 1.385 . S
C722 C724 1.478 . S
C723 H717 0.930 . S
C723 C719 1.400 . S
C723 C722 1.385 . S
C724 C722 1.478 . S
C724 C726 1.381 . S
C724 C730 1.383 . S
C725 C721 1.495 . S
C725 H731 0.959 . S
C725 H732 0.961 . S
C725 H733 0.960 . S
C726 C724 1.381 . S
C726 C727 1.394 . S
C726 H734 0.930 . S
C727 C726 1.394 . S
C727 C728 1.383 . S
C727 H735 0.929 . S
C728 C727 1.383 . S
C728 C729 1.377 . S
C729 H713 0.930 . S
C729 C728 1.377 . S
C729 C730 1.379 . S
C730 H714 0.931 . S
C730 C724 1.383 . S
C730 C729 1.379 . S
H731 C725 0.959 . S
H732 C725 0.961 . S
H733 C725 0.960 . S
H734 C726 0.930 . S
H735 C727 0.929 . S
H736 C744 0.929 . S
H737 C746 0.930 . S
H738 C748 0.930 . S
H739 C751 0.929 . S
H740 C754 0.930 . S
H741 C756 0.960 . S
H742 C756 0.960 . S
H743 C756 0.960 . S
C744 H736 0.929 . S
C744 C745 1.377 . S
C744 C746 1.384 . S
C745 C744 1.377 . S
C745 C751 1.390 . S
C746 H737 0.930 . S
C746 C744 1.384 . S
C746 C747 1.372 . S
C747 C746 1.372 . S
C747 C748 1.400 . S
C747 C752 1.490 . S
C748 H738 0.930 . S
C748 C747 1.400 . S
C748 C751 1.386 . S
H749 C765 0.930 . S
H750 C766 0.931 . S
C751 H739 0.929 . S
C751 C745 1.390 . S
C751 C748 1.386 . S
C752 C747 1.490 . S
C752 C754 1.395 . S
C752 C755 1.403 . S
H753 C759 0.930 . S
C754 H740 0.930 . S
C754 C752 1.395 . S
C754 C757 1.403 . S
C755 C752 1.403 . S
C755 C756 1.524 . S
C755 C759 1.400 . S
C756 H741 0.960 . S
C756 H742 0.960 . S
C756 H743 0.960 . S
C756 C755 1.524 . S
C757 C754 1.403 . S
C757 C758 1.392 . S
C757 C761 1.495 . S
C758 C757 1.392 . S
C758 C759 1.385 . S
C758 C760 1.478 . S
C759 H753 0.930 . S
C759 C755 1.400 . S
C759 C758 1.385 . S
C760 C758 1.478 . S
C760 C762 1.381 . S
C760 C766 1.383 . S
C761 C757 1.495 . S
C761 H767 0.959 . S
C761 H768 0.961 . S
C761 H769 0.960 . S
C762 C760 1.381 . S
C762 C763 1.394 . S
C762 H770 0.930 . S
C763 C762 1.394 . S
C763 C764 1.383 . S
C763 H771 0.929 . S
C764 C763 1.383 . S
C764 C765 1.377 . S
C765 H749 0.930 . S
C765 C764 1.377 . S
C765 C766 1.379 . S
C766 H750 0.931 . S
C766 C760 1.383 . S
C766 C765 1.379 . S
H767 C761 0.959 . S
H768 C761 0.961 . S
H769 C761 0.960 . S
H770 C762 0.930 . S
H771 C763 0.929 . S
H772 C780 0.929 . S
H773 C782 0.930 . S
H774 C784 0.930 . S
H775 C787 0.929 . S
H776 C790 0.930 . S
H777 C792 0.960 . S
H778 C792 0.960 . S
H779 C792 0.960 . S
C780 H772 0.929 . S
C780 C781 1.377 . S
C780 C782 1.384 . S
C781 C780 1.377 . S
C781 C787 1.390 . S
C782 H773 0.930 . S
C782 C780 1.384 . S
C782 C783 1.372 . S
C783 C782 1.372 . S
C783 C784 1.400 . S
C783 C788 1.490 . S
C784 H774 0.930 . S
C784 C783 1.400 . S
C784 C787 1.386 . S
H785 C801 0.930 . S
H786 C802 0.931 . S
C787 H775 0.929 . S
C787 C781 1.390 . S
C787 C784 1.386 . S
C788 C783 1.490 . S
C788 C790 1.395 . S
C788 C791 1.403 . S
H789 C795 0.930 . S
C790 H776 0.930 . S
C790 C788 1.395 . S
C790 C793 1.403 . S
C791 C788 1.403 . S
C791 C792 1.524 . S
C791 C795 1.400 . S
C792 H777 0.960 . S
C792 H778 0.960 . S
C792 H779 0.960 . S
C792 C791 1.524 . S
C793 C790 1.403 . S
C793 C794 1.392 . S
C793 C797 1.495 . S
C794 C793 1.392 . S
C794 C795 1.385 . S
C794 C796 1.478 . S
C795 H789 0.930 . S
C795 C791 1.400 . S
C795 C794 1.385 . S
C796 C794 1.478 . S
C796 C798 1.381 . S
C796 C802 1.383 . S
C797 C793 1.495 . S
C797 H803 0.959 . S
C797 H804 0.961 . S
C797 H805 0.960 . S
C798 C796 1.381 . S
C798 C799 1.394 . S
C798 H806 0.930 . S
C799 C798 1.394 . S
C799 C800 1.383 . S
C799 H807 0.929 . S
C800 C799 1.383 . S
C800 C801 1.377 . S
C801 H785 0.930 . S
C801 C800 1.377 . S
C801 C802 1.379 . S
C802 H786 0.931 . S
C802 C796 1.383 . S
C802 C801 1.379 . S
H803 C797 0.959 . S
H804 C797 0.961 . S
H805 C797 0.960 . S
H806 C798 0.930 . S
H807 C799 0.929 . S
H808 C816 0.929 . S
H809 C818 0.930 . S
H810 C820 0.930 . S
H811 C823 0.929 . S
H812 C826 0.930 . S
H813 C828 0.960 . S
H814 C828 0.960 . S
H815 C828 0.960 . S
C816 H808 0.929 . S
C816 C817 1.377 . S
C816 C818 1.384 . S
C817 C816 1.377 . S
C817 C823 1.390 . S
C818 H809 0.930 . S
C818 C816 1.384 . S
C818 C819 1.372 . S
C819 C818 1.372 . S
C819 C820 1.400 . S
C819 C824 1.490 . S
C820 H810 0.930 . S
C820 C819 1.400 . S
C820 C823 1.386 . S
H821 C837 0.930 . S
H822 C838 0.931 . S
C823 H811 0.929 . S
C823 C817 1.390 . S
C823 C820 1.386 . S
C824 C819 1.490 . S
C824 C826 1.395 . S
C824 C827 1.403 . S
H825 C831 0.930 . S
C826 H812 0.930 . S
C826 C824 1.395 . S
C826 C829 1.403 . S
C827 C824 1.403 . S
C827 C828 1.524 . S
C827 C831 1.400 . S
C828 H813 0.960 . S
C828 H814 0.960 . S
C828 H815 0.960 . S
C828 C827 1.524 . S
C829 C826 1.403 . S
C829 C830 1.392 . S
C829 C833 1.495 . S
C830 C829 1.392 . S
C830 C831 1.385 . S
C830 C832 1.478 . S
C831 H825 0.930 . S
C831 C827 1.400 . S
C831 C830 1.385 . S
C832 C830 1.478 . S
C832 C834 1.381 . S
C832 C838 1.383 . S
C833 C829 1.495 . S
C833 H839 0.959 . S
C833 H840 0.961 . S
C833 H841 0.960 . S
C834 C832 1.381 . S
C834 C835 1.394 . S
C834 H842 0.930 . S
C835 C834 1.394 . S
C835 C836 1.383 . S
C835 H843 0.929 . S
C836 C835 1.383 . S
C836 C837 1.377 . S
C837 H821 0.930 . S
C837 C836 1.377 . S
C837 C838 1.379 . S
C838 H822 0.931 . S
C838 C832 1.383 . S
C838 C837 1.379 . S
H839 C833 0.959 . S
H840 C833 0.961 . S
H841 C833 0.960 . S
H842 C834 0.930 . S
H843 C835 0.929 . S
H844 C852 0.929 . S
H845 C854 0.930 . S
H846 C856 0.930 . S
H847 C859 0.929 . S
H848 C862 0.930 . S
H849 C864 0.960 . S
H850 C864 0.960 . S
H851 C864 0.960 . S
C852 H844 0.929 . S
C852 C853 1.377 . S
C852 C854 1.384 . S
C853 C852 1.377 . S
C853 C859 1.390 . S
C854 H845 0.930 . S
C854 C852 1.384 . S
C854 C855 1.372 . S
C855 C854 1.372 . S
C855 C856 1.400 . S
C855 C860 1.490 . S
C856 H846 0.930 . S
C856 C855 1.400 . S
C856 C859 1.386 . S
H857 C873 0.930 . S
H858 C874 0.931 . S
C859 H847 0.929 . S
C859 C853 1.390 . S
C859 C856 1.386 . S
C860 C855 1.490 . S
C860 C862 1.395 . S
C860 C863 1.403 . S
H861 C867 0.930 . S
C862 H848 0.930 . S
C862 C860 1.395 . S
C862 C865 1.403 . S
C863 C860 1.403 . S
C863 C864 1.524 . S
C863 C867 1.400 . S
C864 H849 0.960 . S
C864 H850 0.960 . S
C864 H851 0.960 . S
C864 C863 1.524 . S
C865 C862 1.403 . S
C865 C866 1.392 . S
C865 C869 1.495 . S
C866 C865 1.392 . S
C866 C867 1.385 . S
C866 C868 1.478 . S
C867 H861 0.930 . S
C867 C863 1.400 . S
C867 C866 1.385 . S
C868 C866 1.478 . S
C868 C870 1.381 . S
C868 C874 1.383 . S
C869 C865 1.495 . S
C869 H875 0.959 . S
C869 H876 0.961 . S
C869 H877 0.960 . S
C870 C868 1.381 . S
C870 C871 1.394 . S
C870 H878 0.930 . S
C871 C870 1.394 . S
C871 C872 1.383 . S
C871 H879 0.929 . S
C872 C871 1.383 . S
C872 C873 1.377 . S
C873 H857 0.930 . S
C873 C872 1.377 . S
C873 C874 1.379 . S
C874 H858 0.931 . S
C874 C868 1.383 . S
C874 C873 1.379 . S
H875 C869 0.959 . S
H876 C869 0.961 . S
H877 C869 0.960 . S
H878 C870 0.930 . S
H879 C871 0.929 . S
H880 C888 0.929 . S
H881 C890 0.930 . S
H882 C892 0.930 . S
H883 C895 0.929 . S
H884 C898 0.930 . S
H885 C900 0.960 . S
H886 C900 0.960 . S
H887 C900 0.960 . S
C888 H880 0.929 . S
C888 C889 1.377 . S
C888 C890 1.384 . S
C889 C888 1.377 . S
C889 C895 1.390 . S
C890 H881 0.930 . S
C890 C888 1.384 . S
C890 C891 1.372 . S
C891 C890 1.372 . S
C891 C892 1.400 . S
C891 C896 1.490 . S
C892 H882 0.930 . S
C892 C891 1.400 . S
C892 C895 1.386 . S
H893 C909 0.930 . S
H894 C910 0.931 . S
C895 H883 0.929 . S
C895 C889 1.390 . S
C895 C892 1.386 . S
C896 C891 1.490 . S
C896 C898 1.395 . S
C896 C899 1.403 . S
H897 C903 0.930 . S
C898 H884 0.930 . S
C898 C896 1.395 . S
C898 C901 1.403 . S
C899 C896 1.403 . S
C899 C900 1.524 . S
C899 C903 1.400 . S
C900 H885 0.960 . S
C900 H886 0.960 . S
C900 H887 0.960 . S
C900 C899 1.524 . S
C901 C898 1.403 . S
C901 C902 1.392 . S
C901 C905 1.495 . S
C902 C901 1.392 . S
C902 C903 1.385 . S
C902 C904 1.478 . S
C903 H897 0.930 . S
C903 C899 1.400 . S
C903 C902 1.385 . S
C904 C902 1.478 . S
C904 C906 1.381 . S
C904 C910 1.383 . S
C905 C901 1.495 . S
C905 H911 0.959 . S
C905 H912 0.961 . S
C905 H913 0.960 . S
C906 C904 1.381 . S
C906 C907 1.394 . S
C906 H914 0.930 . S
C907 C906 1.394 . S
C907 C908 1.383 . S
C907 H915 0.929 . S
C908 C907 1.383 . S
C908 C909 1.377 . S
C909 H893 0.930 . S
C909 C908 1.377 . S
C909 C910 1.379 . S
C910 H894 0.931 . S
C910 C904 1.383 . S
C910 C909 1.379 . S
H911 C905 0.959 . S
H912 C905 0.961 . S
H913 C905 0.960 . S
H914 C906 0.930 . S
H915 C907 0.929 . S
H916 C924 0.929 . S
H917 C926 0.930 . S
H918 C928 0.930 . S
H919 C931 0.929 . S
H920 C934 0.930 . S
H921 C936 0.960 . S
H922 C936 0.960 . S
H923 C936 0.960 . S
C924 H916 0.929 . S
C924 C925 1.377 . S
C924 C926 1.384 . S
C925 C924 1.377 . S
C925 C931 1.390 . S
C926 H917 0.930 . S
C926 C924 1.384 . S
C926 C927 1.372 . S
C927 C926 1.372 . S
C927 C928 1.400 . S
C927 C932 1.490 . S
C928 H918 0.930 . S
C928 C927 1.400 . S
C928 C931 1.386 . S
H929 C945 0.930 . S
H930 C946 0.931 . S
C931 H919 0.929 . S
C931 C925 1.390 . S
C931 C928 1.386 . S
C932 C927 1.490 . S
C932 C934 1.395 . S
C932 C935 1.403 . S
H933 C939 0.930 . S
C934 H920 0.930 . S
C934 C932 1.395 . S
C934 C937 1.403 . S
C935 C932 1.403 . S
C935 C936 1.524 . S
C935 C939 1.400 . S
C936 H921 0.960 . S
C936 H922 0.960 . S
C936 H923 0.960 . S
C936 C935 1.524 . S
C937 C934 1.403 . S
C937 C938 1.392 . S
C937 C941 1.495 . S
C938 C937 1.392 . S
C938 C939 1.385 . S
C938 C940 1.478 . S
C939 H933 0.930 . S
C939 C935 1.400 . S
C939 C938 1.385 . S
C940 C938 1.478 . S
C940 C942 1.381 . S
C940 C946 1.383 . S
C941 C937 1.495 . S
C941 H947 0.959 . S
C941 H948 0.961 . S
C941 H949 0.960 . S
C942 C940 1.381 . S
C942 C943 1.394 . S
C942 H950 0.930 . S
C943 C942 1.394 . S
C943 C944 1.383 . S
C943 H951 0.929 . S
C944 C943 1.383 . S
C944 C945 1.377 . S
C945 H929 0.930 . S
C945 C944 1.377 . S
C945 C946 1.379 . S
C946 H930 0.931 . S
C946 C940 1.383 . S
C946 C945 1.379 . S
H947 C941 0.959 . S
H948 C941 0.961 . S
H949 C941 0.960 . S
H950 C942 0.930 . S
H951 C943 0.929 . S
H952 C960 0.929 . S
H953 C962 0.930 . S
H954 C964 0.930 . S
H955 C967 0.929 . S
H956 C970 0.930 . S
H957 C972 0.960 . S
H958 C972 0.960 . S
H959 C972 0.960 . S
C960 H952 0.929 . S
C960 C961 1.377 . S
C960 C962 1.384 . S
C961 C960 1.377 . S
C961 C967 1.390 . S
C962 H953 0.930 . S
C962 C960 1.384 . S
C962 C963 1.372 . S
C963 C962 1.372 . S
C963 C964 1.400 . S
C963 C968 1.490 . S
C964 H954 0.930 . S
C964 C963 1.400 . S
C964 C967 1.386 . S
H965 C981 0.930 . S
H966 C982 0.931 . S
C967 H955 0.929 . S
C967 C961 1.390 . S
C967 C964 1.386 . S
C968 C963 1.490 . S
C968 C970 1.395 . S
C968 C971 1.403 . S
H969 C975 0.930 . S
C970 H956 0.930 . S
C970 C968 1.395 . S
C970 C973 1.403 . S
C971 C968 1.403 . S
C971 C972 1.524 . S
C971 C975 1.400 . S
C972 H957 0.960 . S
C972 H958 0.960 . S
C972 H959 0.960 . S
C972 C971 1.524 . S
C973 C970 1.403 . S
C973 C974 1.392 . S
C973 C977 1.495 . S
C974 C973 1.392 . S
C974 C975 1.385 . S
C974 C976 1.478 . S
C975 H969 0.930 . S
C975 C971 1.400 . S
C975 C974 1.385 . S
C976 C974 1.478 . S
C976 C978 1.381 . S
C976 C982 1.383 . S
C977 C973 1.495 . S
C977 H983 0.959 . S
C977 H984 0.961 . S
C977 H985 0.960 . S
C978 C976 1.381 . S
C978 C979 1.394 . S
C978 H986 0.930 . S
C979 C978 1.394 . S
C979 C980 1.383 . S
C979 H987 0.929 . S
C980 C979 1.383 . S
C980 C981 1.377 . S
C981 H965 0.930 . S
C981 C980 1.377 . S
C981 C982 1.379 . S
C982 H966 0.931 . S
C982 C976 1.383 . S
C982 C981 1.379 . S
H983 C977 0.959 . S
H984 C977 0.961 . S
H985 C977 0.960 . S
H986 C978 0.930 . S
H987 C979 0.929 . S
H988 C996 0.929 . S
H989 C998 0.930 . S
H990 C1000 0.930 . S
H991 C1003 0.929 . S
H992 C1006 0.930 . S
H993 C1008 0.960 . S
H994 C1008 0.960 . S
H995 C1008 0.960 . S
C996 H988 0.929 . S
C996 C997 1.377 . S
C996 C998 1.384 . S
C997 C996 1.377 . S
C997 C1003 1.390 . S
C998 H989 0.930 . S
C998 C996 1.384 . S
C998 C999 1.372 . S
C999 C998 1.372 . S
C999 C1000 1.400 . S
C999 C1004 1.490 . S
C1000 H990 0.930 . S
C1000 C999 1.400 . S
C1000 C1003 1.386 . S
H1001 C1017 0.930 . S
H1002 C1018 0.931 . S
C1003 H991 0.929 . S
C1003 C997 1.390 . S
C1003 C1000 1.386 . S
C1004 C999 1.490 . S
C1004 C1006 1.395 . S
C1004 C1007 1.403 . S
H1005 C1011 0.930 . S
C1006 H992 0.930 . S
C1006 C1004 1.395 . S
C1006 C1009 1.403 . S
C1007 C1004 1.403 . S
C1007 C1008 1.524 . S
C1007 C1011 1.400 . S
C1008 H993 0.960 . S
C1008 H994 0.960 . S
C1008 H995 0.960 . S
C1008 C1007 1.524 . S
C1009 C1006 1.403 . S
C1009 C1010 1.392 . S
C1009 C1013 1.495 . S
C1010 C1009 1.392 . S
C1010 C1011 1.385 . S
C1010 C1012 1.478 . S
C1011 H1005 0.930 . S
C1011 C1007 1.400 . S
C1011 C1010 1.385 . S
C1012 C1010 1.478 . S
C1012 C1014 1.381 . S
C1012 C1018 1.383 . S
C1013 C1009 1.495 . S
C1013 H1019 0.959 . S
C1013 H1020 0.961 . S
C1013 H1021 0.960 . S
C1014 C1012 1.381 . S
C1014 C1015 1.394 . S
C1014 H1022 0.930 . S
C1015 C1014 1.394 . S
C1015 C1016 1.383 . S
C1015 H1023 0.929 . S
C1016 C1015 1.383 . S
C1016 C1017 1.377 . S
C1017 H1001 0.930 . S
C1017 C1016 1.377 . S
C1017 C1018 1.379 . S
C1018 H1002 0.931 . S
C1018 C1012 1.383 . S
C1018 C1017 1.379 . S
H1019 C1013 0.959 . S
H1020 C1013 0.961 . S
H1021 C1013 0.960 . S
H1022 C1014 0.930 . S
H1023 C1015 0.929 . S
H1024 C1032 0.929 . S
H1025 C1034 0.930 . S
H1026 C1036 0.930 . S
H1027 C1039 0.929 . S
H1028 C1042 0.930 . S
H1029 C1044 0.960 . S
H1030 C1044 0.960 . S
H1031 C1044 0.960 . S
C1032 H1024 0.929 . S
C1032 C1033 1.377 . S
C1032 C1034 1.384 . S
C1033 C1032 1.377 . S
C1033 C1039 1.390 . S
C1034 H1025 0.930 . S
C1034 C1032 1.384 . S
C1034 C1035 1.372 . S
C1035 C1034 1.372 . S
C1035 C1036 1.400 . S
C1035 C1040 1.490 . S
C1036 H1026 0.930 . S
C1036 C1035 1.400 . S
C1036 C1039 1.386 . S
H1037 C1053 0.930 . S
H1038 C1054 0.931 . S
C1039 H1027 0.929 . S
C1039 C1033 1.390 . S
C1039 C1036 1.386 . S
C1040 C1035 1.490 . S
C1040 C1042 1.395 . S
C1040 C1043 1.403 . S
H1041 C1047 0.930 . S
C1042 H1028 0.930 . S
C1042 C1040 1.395 . S
C1042 C1045 1.403 1_655 S
C1043 C1040 1.403 . S
C1043 C1044 1.524 . S
C1043 C1047 1.400 1_655 S
C1044 H1029 0.960 . S
C1044 H1030 0.960 . S
C1044 H1031 0.960 . S
C1044 C1043 1.524 . S
C1045 C1042 1.403 1_455 S
C1045 C1046 1.392 . S
C1045 C1049 1.495 . S
C1046 C1045 1.392 . S
C1046 C1047 1.385 . S
C1046 C1048 1.478 . S
C1047 H1041 0.930 . S
C1047 C1043 1.400 1_455 S
C1047 C1046 1.385 . S
C1048 C1046 1.478 . S
C1048 C1050 1.381 . S
C1048 C1054 1.383 . S
C1049 C1045 1.495 . S
C1049 H1055 0.959 . S
C1049 H1056 0.961 . S
C1049 H1057 0.960 . S
C1050 C1048 1.381 . S
C1050 C1051 1.394 . S
C1050 H1058 0.930 . S
C1051 C1050 1.394 . S
C1051 C1052 1.383 . S
C1051 H1059 0.929 . S
C1052 C1051 1.383 . S
C1052 C1053 1.377 . S
C1053 H1037 0.930 . S
C1053 C1052 1.377 . S
C1053 C1054 1.379 . S
C1054 H1038 0.931 . S
C1054 C1048 1.383 . S
C1054 C1053 1.379 . S
H1055 C1049 0.959 . S
H1056 C1049 0.961 . S
H1057 C1049 0.960 . S
H1058 C1050 0.930 . S
H1059 C1051 0.929 . S
H1060 C1068 0.929 . S
H1061 C1070 0.930 . S
H1062 C1072 0.930 . S
H1063 C1075 0.929 . S
H1064 C1078 0.930 . S
H1065 C1080 0.960 . S
H1066 C1080 0.960 . S
H1067 C1080 0.960 . S
C1068 H1060 0.929 . S
C1068 C1069 1.377 . S
C1068 C1070 1.384 . S
C1069 C1068 1.377 . S
C1069 C1075 1.390 . S
C1070 H1061 0.930 . S
C1070 C1068 1.384 . S
C1070 C1071 1.372 . S
C1071 C1070 1.372 . S
C1071 C1072 1.400 . S
C1071 C1076 1.490 . S
C1072 H1062 0.930 . S
C1072 C1071 1.400 . S
C1072 C1075 1.386 . S
H1073 C1089 0.930 . S
H1074 C1090 0.931 . S
C1075 H1063 0.929 . S
C1075 C1069 1.390 . S
C1075 C1072 1.386 . S
C1076 C1071 1.490 . S
C1076 C1078 1.395 . S
C1076 C1079 1.403 . S
H1077 C1083 0.930 . S
C1078 H1064 0.930 . S
C1078 C1076 1.395 . S
C1078 C1081 1.403 1_565 S
C1079 C1076 1.403 . S
C1079 C1080 1.524 . S
C1079 C1083 1.400 1_565 S
C1080 H1065 0.960 . S
C1080 H1066 0.960 . S
C1080 H1067 0.960 . S
C1080 C1079 1.524 . S
C1081 C1078 1.403 1_545 S
C1081 C1082 1.392 . S
C1081 C1085 1.495 . S
C1082 C1081 1.392 . S
C1082 C1083 1.385 . S
C1082 C1084 1.478 . S
C1083 H1077 0.930 . S
C1083 C1079 1.400 1_545 S
C1083 C1082 1.385 . S
C1084 C1082 1.478 . S
C1084 C1086 1.381 . S
C1084 C1090 1.383 . S
C1085 C1081 1.495 . S
C1085 H1091 0.959 . S
C1085 H1092 0.961 . S
C1085 H1093 0.960 . S
C1086 C1084 1.381 . S
C1086 C1087 1.394 . S
C1086 H1094 0.930 . S
C1087 C1086 1.394 . S
C1087 C1088 1.383 . S
C1087 H1095 0.929 . S
C1088 C1087 1.383 . S
C1088 C1089 1.377 . S
C1089 H1073 0.930 . S
C1089 C1088 1.377 . S
C1089 C1090 1.379 . S
C1090 H1074 0.931 . S
C1090 C1084 1.383 . S
C1090 C1089 1.379 . S
H1091 C1085 0.959 . S
H1092 C1085 0.961 . S
H1093 C1085 0.960 . S
H1094 C1086 0.930 . S
H1095 C1087 0.929 . S
H1096 C1104 0.929 . S
H1097 C1106 0.930 . S
H1098 C1108 0.930 . S
H1099 C1111 0.929 . S
H1100 C1114 0.930 . S
H1101 C1116 0.960 . S
H1102 C1116 0.982 1_556 S
H1103 C1116 0.960 1_565 S
C1104 H1096 0.929 . S
C1104 C1105 1.377 . S
C1104 C1106 1.384 . S
C1105 C1104 1.377 . S
C1105 C1111 1.390 1_556 S
C1106 H1097 0.930 . S
C1106 C1104 1.384 . S
C1106 C1107 1.372 . S
C1107 C1106 1.372 . S
C1107 C1108 1.400 1_556 S
C1107 C1112 1.490 . S
C1108 H1098 0.930 . S
C1108 C1107 1.400 1_554 S
C1108 C1111 1.386 . S
H1109 C1125 0.930 . S
H1110 C1126 0.931 . S
C1111 H1099 0.929 . S
C1111 C1105 1.390 1_554 S
C1111 C1108 1.386 . S
C1112 C1107 1.490 . S
C1112 C1114 1.395 1_455 S
C1112 C1115 1.403 1_566 S
H1113 C1119 0.930 . S
C1114 H1100 0.930 . S
C1114 C1112 1.395 1_655 S
C1114 C1117 1.403 . S
C1115 C1112 1.403 1_544 S
C1115 C1116 1.524 . S
C1115 C1119 1.400 . S
C1116 H1101 0.960 . S
C1116 H1102 0.982 1_554 S
C1116 H1103 0.960 1_545 S
C1116 C1115 1.524 . S
C1117 C1114 1.403 . S
C1117 C1118 1.405 1_565 S
C1117 C1121 1.495 . S
C1118 C1117 1.405 1_545 S
C1118 C1119 1.377 1_656 S
C1118 C1120 1.476 1_556 S
C1119 H1113 0.930 . S
C1119 C1115 1.400 . S
C1119 C1118 1.377 1_454 S
C1120 C1118 1.476 1_554 S
C1120 C1122 1.383 1_554 S
C1120 C1126 1.381 . S
C1121 C1117 1.495 . S
C1121 H1127 0.959 . S
C1121 H1128 0.961 1_556 S
C1121 H1129 0.925 1_565 S
C1122 C1120 1.383 1_556 S
C1122 C1123 1.394 . S
C1122 H1130 0.930 . S
C1123 C1122 1.394 . S
C1123 C1124 1.383 1_556 S
C1123 H1131 0.929 . S
C1124 C1123 1.383 1_554 S
C1124 C1125 1.377 . S
C1125 H1109 0.930 . S
C1125 C1124 1.377 . S
C1125 C1126 1.379 . S
C1126 H1110 0.931 . S
C1126 C1120 1.381 . S
C1126 C1125 1.379 . S
H1127 C1121 0.959 . S
H1128 C1121 0.961 1_554 S
H1129 C1121 0.925 1_545 S
H1130 C1122 0.930 . S
H1131 C1123 0.929 . S
H1132 C1140 0.933 . S
H1133 C1142 0.937 . S
H1134 C1144 0.930 . S
H1135 C1147 0.929 . S
H1136 C1150 0.930 . S
H1137 C1152 0.960 . S
H1138 C1152 0.960 . S
H1139 C1152 0.960 . S
C1140 H1132 0.933 . S
C1140 C1141 1.374 1_556 S
C1140 C1142 1.384 . S
C1141 C1140 1.374 1_554 S
C1141 C1147 1.390 . S
C1142 H1133 0.937 . S
C1142 C1140 1.384 . S
C1142 C1143 1.367 1_556 S
C1143 C1142 1.367 1_554 S
C1143 C1144 1.405 . S
C1143 C1148 1.490 . S
C1144 H1134 0.930 . S
C1144 C1143 1.405 . S
C1144 C1147 1.386 . S
H1145 C1161 0.930 . S
H1146 C1162 0.931 . S
C1147 H1135 0.929 . S
C1147 C1141 1.390 . S
C1147 C1144 1.386 . S
C1148 C1143 1.490 . S
C1148 C1150 1.431 . S
C1148 C1151 1.367 1_554 S
H1149 C1155 0.930 . S
C1150 H1136 0.930 . S
C1150 C1148 1.431 . S
C1150 C1153 1.403 . S
C1151 C1148 1.367 1_556 S
C1151 C1152 1.524 . S
C1151 C1155 1.400 . S
C1152 H1137 0.960 . S
C1152 H1138 0.960 . S
C1152 H1139 0.960 . S
C1152 C1151 1.524 . S
C1153 C1150 1.403 . S
C1153 C1154 1.392 . S
C1153 C1157 1.495 . S
C1154 C1153 1.392 . S
C1154 C1155 1.385 1_554 S
C1154 C1156 1.478 . S
C1155 H1149 0.930 . S
C1155 C1151 1.400 . S
C1155 C1154 1.385 1_556 S
C1156 C1154 1.478 . S
C1156 C1158 1.381 1_554 S
C1156 C1162 1.383 . S
C1157 C1153 1.495 . S
C1157 H1163 0.959 . S
C1157 H1164 0.961 . S
C1157 H1165 0.960 . S
C1158 C1156 1.381 1_556 S
C1158 C1159 1.394 . S
C1158 H1166 0.930 . S
C1159 C1158 1.394 . S
C1159 C1160 1.390 . S
C1159 H1167 0.929 . S
C1160 C1159 1.390 . S
C1160 C1161 1.368 1_556 S
C1161 H1145 0.930 . S
C1161 C1160 1.368 1_554 S
C1161 C1162 1.379 . S
C1162 H1146 0.931 . S
C1162 C1156 1.383 . S
C1162 C1161 1.379 . S
H1163 C1157 0.959 . S
H1164 C1157 0.961 . S
H1165 C1157 0.960 . S
H1166 C1158 0.930 . S
H1167 C1159 0.929 . S
H1168 C1176 0.929 . S
H1169 C1178 0.930 . S
H1170 C1180 0.930 . S
H1171 C1183 0.929 . S
H1172 C1186 0.930 . S
H1173 C1188 0.960 . S
H1174 C1188 0.960 . S
H1175 C1188 0.960 . S
C1176 H1168 0.929 . S
C1176 C1177 1.377 . S
C1176 C1178 1.384 . S
C1177 C1176 1.377 . S
C1177 C1183 1.390 . S
C1178 H1169 0.930 . S
C1178 C1176 1.384 . S
C1178 C1179 1.372 . S
C1179 C1178 1.372 . S
C1179 C1180 1.400 . S
C1179 C1184 1.490 . S
C1180 H1170 0.930 . S
C1180 C1179 1.400 . S
C1180 C1183 1.386 . S
H1181 C1197 0.930 . S
H1182 C1198 0.931 . S
C1183 H1171 0.929 . S
C1183 C1177 1.390 . S
C1183 C1180 1.386 . S
C1184 C1179 1.490 . S
C1184 C1186 1.395 . S
C1184 C1187 1.403 1_655 S
H1185 C1191 0.930 . S
C1186 H1172 0.930 . S
C1186 C1184 1.395 . S
C1186 C1189 1.403 . S
C1187 C1184 1.403 1_455 S
C1187 C1188 1.524 . S
C1187 C1191 1.400 . S
C1188 H1173 0.960 . S
C1188 H1174 0.960 . S
C1188 H1175 0.960 . S
C1188 C1187 1.524 . S
C1189 C1186 1.403 . S
C1189 C1190 1.392 1_655 S
C1189 C1193 1.495 . S
C1190 C1189 1.392 1_455 S
C1190 C1191 1.385 . S
C1190 C1192 1.478 . S
C1191 H1185 0.930 . S
C1191 C1187 1.400 . S
C1191 C1190 1.385 . S
C1192 C1190 1.478 . S
C1192 C1194 1.381 . S
C1192 C1198 1.383 . S
C1193 C1189 1.495 . S
C1193 H1199 0.959 . S
C1193 H1200 0.961 . S
C1193 H1201 0.960 . S
C1194 C1192 1.381 . S
C1194 C1195 1.394 . S
C1194 H1202 0.930 . S
C1195 C1194 1.394 . S
C1195 C1196 1.383 . S
C1195 H1203 0.929 . S
C1196 C1195 1.383 . S
C1196 C1197 1.377 . S
C1197 H1181 0.930 . S
C1197 C1196 1.377 . S
C1197 C1198 1.379 . S
C1198 H1182 0.931 . S
C1198 C1192 1.383 . S
C1198 C1197 1.379 . S
H1199 C1193 0.959 . S
H1200 C1193 0.961 . S
H1201 C1193 0.960 . S
H1202 C1194 0.930 . S
H1203 C1195 0.929 . S
H1204 C1212 0.929 . S
H1205 C1214 0.930 . S
H1206 C1216 0.930 . S
H1207 C1219 0.929 . S
H1208 C1222 0.930 . S
H1209 C1224 0.960 . S
H1210 C1224 0.960 . S
H1211 C1224 0.960 . S
C1212 H1204 0.929 . S
C1212 C1213 1.377 . S
C1212 C1214 1.384 . S
C1213 C1212 1.377 . S
C1213 C1219 1.390 . S
C1214 H1205 0.930 . S
C1214 C1212 1.384 . S
C1214 C1215 1.372 . S
C1215 C1214 1.372 . S
C1215 C1216 1.400 . S
C1215 C1220 1.490 . S
C1216 H1206 0.930 . S
C1216 C1215 1.400 . S
C1216 C1219 1.386 . S
H1217 C1233 0.930 . S
H1218 C1234 0.931 . S
C1219 H1207 0.929 . S
C1219 C1213 1.390 . S
C1219 C1216 1.386 . S
C1220 C1215 1.490 . S
C1220 C1222 1.395 . S
C1220 C1223 1.403 . S
H1221 C1227 0.930 . S
C1222 H1208 0.930 . S
C1222 C1220 1.395 . S
C1222 C1225 1.403 1_565 S
C1223 C1220 1.403 . S
C1223 C1224 1.524 . S
C1223 C1227 1.400 1_565 S
C1224 H1209 0.960 . S
C1224 H1210 0.960 . S
C1224 H1211 0.960 . S
C1224 C1223 1.524 . S
C1225 C1222 1.403 1_545 S
C1225 C1226 1.392 . S
C1225 C1229 1.495 . S
C1226 C1225 1.392 . S
C1226 C1227 1.385 . S
C1226 C1228 1.478 . S
C1227 H1221 0.930 . S
C1227 C1223 1.400 1_545 S
C1227 C1226 1.385 . S
C1228 C1226 1.478 . S
C1228 C1230 1.381 . S
C1228 C1234 1.383 . S
C1229 C1225 1.495 . S
C1229 H1235 0.959 . S
C1229 H1236 0.961 . S
C1229 H1237 0.960 . S
C1230 C1228 1.381 . S
C1230 C1231 1.394 . S
C1230 H1238 0.930 . S
C1231 C1230 1.394 . S
C1231 C1232 1.383 . S
C1231 H1239 0.929 . S
C1232 C1231 1.383 . S
C1232 C1233 1.377 . S
C1233 H1217 0.930 . S
C1233 C1232 1.377 . S
C1233 C1234 1.379 . S
C1234 H1218 0.931 . S
C1234 C1228 1.383 . S
C1234 C1233 1.379 . S
H1235 C1229 0.959 . S
H1236 C1229 0.961 . S
H1237 C1229 0.960 . S
H1238 C1230 0.930 . S
H1239 C1231 0.929 . S
H1240 C1248 0.929 . S
H1241 C1250 0.930 . S
H1242 C1252 0.930 . S
H1243 C1255 0.929 . S
H1244 C1258 0.930 . S
H1245 C1260 0.960 . S
H1246 C1260 0.960 . S
H1247 C1260 0.960 . S
C1248 H1240 0.929 . S
C1248 C1249 1.377 . S
C1248 C1250 1.384 . S
C1249 C1248 1.377 . S
C1249 C1255 1.390 1_556 S
C1250 H1241 0.930 . S
C1250 C1248 1.384 . S
C1250 C1251 1.372 . S
C1251 C1250 1.372 . S
C1251 C1252 1.400 1_556 S
C1251 C1256 1.490 . S
C1252 H1242 0.930 . S
C1252 C1251 1.400 1_554 S
C1252 C1255 1.386 . S
H1253 C1269 0.930 . S
H1254 C1270 0.931 . S
C1255 H1243 0.929 . S
C1255 C1249 1.390 1_554 S
C1255 C1252 1.386 . S
C1256 C1251 1.490 . S
C1256 C1258 1.395 1_556 S
C1256 C1259 1.403 . S
H1257 C1263 0.930 . S
C1258 H1244 0.930 . S
C1258 C1256 1.395 1_554 S
C1258 C1261 1.403 . S
C1259 C1256 1.403 . S
C1259 C1260 1.524 . S
C1259 C1263 1.400 . S
C1260 H1245 0.960 . S
C1260 H1246 0.960 . S
C1260 H1247 0.960 . S
C1260 C1259 1.524 . S
C1261 C1258 1.403 . S
C1261 C1262 1.392 . S
C1261 C1265 1.495 . S
C1262 C1261 1.392 . S
C1262 C1263 1.385 1_554 S
C1262 C1264 1.478 . S
C1263 H1257 0.930 . S
C1263 C1259 1.400 . S
C1263 C1262 1.385 1_556 S
C1264 C1262 1.478 . S
C1264 C1266 1.381 1_554 S
C1264 C1270 1.383 . S
C1265 C1261 1.495 . S
C1265 H1271 0.959 . S
C1265 H1272 0.961 . S
C1265 H1273 0.960 . S
C1266 C1264 1.381 1_556 S
C1266 C1267 1.394 . S
C1266 H1274 0.930 . S
C1267 C1266 1.394 . S
C1267 C1268 1.383 1_556 S
C1267 H1275 0.929 . S
C1268 C1267 1.383 1_554 S
C1268 C1269 1.377 . S
C1269 H1253 0.930 . S
C1269 C1268 1.377 . S
C1269 C1270 1.379 . S
C1270 H1254 0.931 . S
C1270 C1264 1.383 . S
C1270 C1269 1.379 . S
H1271 C1265 0.959 . S
H1272 C1265 0.961 . S
H1273 C1265 0.960 . S
H1274 C1266 0.930 . S
H1275 C1267 0.929 . S
H1276 C1284 0.929 . S
H1277 C1286 0.930 . S
H1278 C1288 0.930 . S
H1279 C1291 0.929 . S
H1280 C1294 0.930 . S
H1281 C1296 0.960 . S
H1282 C1296 0.960 . S
H1283 C1296 0.960 . S
C1284 H1276 0.929 . S
C1284 C1285 1.377 . S
C1284 C1286 1.384 . S
C1285 C1284 1.377 . S
C1285 C1291 1.390 . S
C1286 H1277 0.930 . S
C1286 C1284 1.384 . S
C1286 C1287 1.372 . S
C1287 C1286 1.372 . S
C1287 C1288 1.400 . S
C1287 C1292 1.490 . S
C1288 H1278 0.930 . S
C1288 C1287 1.400 . S
C1288 C1291 1.386 . S
H1289 C1305 0.930 . S
H1290 C1306 0.931 . S
C1291 H1279 0.929 . S
C1291 C1285 1.390 . S
C1291 C1288 1.386 . S
C1292 C1287 1.490 . S
C1292 C1294 1.395 . S
C1292 C1295 1.403 . S
H1293 C1299 0.930 . S
C1294 H1280 0.930 . S
C1294 C1292 1.395 . S
C1294 C1297 1.403 . S
C1295 C1292 1.403 . S
C1295 C1296 1.524 . S
C1295 C1299 1.400 . S
C1296 H1281 0.960 . S
C1296 H1282 0.960 . S
C1296 H1283 0.960 . S
C1296 C1295 1.524 . S
C1297 C1294 1.403 . S
C1297 C1298 1.392 . S
C1297 C1301 1.495 . S
C1298 C1297 1.392 . S
C1298 C1299 1.385 . S
C1298 C1300 1.478 . S
C1299 H1293 0.930 . S
C1299 C1295 1.400 . S
C1299 C1298 1.385 . S
C1300 C1298 1.478 . S
C1300 C1302 1.381 . S
C1300 C1306 1.383 . S
C1301 C1297 1.495 . S
C1301 H1307 0.959 . S
C1301 H1308 0.961 . S
C1301 H1309 0.960 . S
C1302 C1300 1.381 . S
C1302 C1303 1.394 . S
C1302 H1310 0.930 . S
C1303 C1302 1.394 . S
C1303 C1304 1.383 . S
C1303 H1311 0.929 . S
C1304 C1303 1.383 . S
C1304 C1305 1.377 . S
C1305 H1289 0.930 . S
C1305 C1304 1.377 . S
C1305 C1306 1.379 . S
C1306 H1290 0.931 . S
C1306 C1300 1.383 . S
C1306 C1305 1.379 . S
H1307 C1301 0.959 . S
H1308 C1301 0.961 . S
H1309 C1301 0.960 . S
H1310 C1302 0.930 . S
H1311 C1303 0.929 . S
H1312 C1320 0.929 . S
H1313 C1322 0.930 . S
H1314 C1324 0.930 . S
H1315 C1327 0.929 . S
H1316 C1330 0.930 . S
H1317 C1332 0.960 . S
H1318 C1332 0.960 . S
H1319 C1332 0.960 . S
C1320 H1312 0.929 . S
C1320 C1321 1.377 . S
C1320 C1322 1.384 . S
C1321 C1320 1.377 . S
C1321 C1327 1.390 . S
C1322 H1313 0.930 . S
C1322 C1320 1.384 . S
C1322 C1323 1.372 . S
C1323 C1322 1.372 . S
C1323 C1324 1.400 . S
C1323 C1328 1.490 . S
C1324 H1314 0.930 . S
C1324 C1323 1.400 . S
C1324 C1327 1.386 . S
H1325 C1341 0.930 . S
H1326 C1342 0.931 . S
C1327 H1315 0.929 . S
C1327 C1321 1.390 . S
C1327 C1324 1.386 . S
C1328 C1323 1.490 . S
C1328 C1330 1.395 1_655 S
C1328 C1331 1.403 . S
H1329 C1335 0.930 . S
C1330 H1316 0.930 . S
C1330 C1328 1.395 1_455 S
C1330 C1333 1.403 . S
C1331 C1328 1.403 . S
C1331 C1332 1.524 . S
C1331 C1335 1.400 . S
C1332 H1317 0.960 . S
C1332 H1318 0.960 . S
C1332 H1319 0.960 . S
C1332 C1331 1.524 . S
C1333 C1330 1.403 . S
C1333 C1334 1.392 . S
C1333 C1337 1.495 . S
C1334 C1333 1.392 . S
C1334 C1335 1.385 1_455 S
C1334 C1336 1.478 . S
C1335 H1329 0.930 . S
C1335 C1331 1.400 . S
C1335 C1334 1.385 1_655 S
C1336 C1334 1.478 . S
C1336 C1338 1.381 . S
C1336 C1342 1.383 . S
C1337 C1333 1.495 . S
C1337 H1343 0.959 . S
C1337 H1344 0.961 . S
C1337 H1345 0.960 . S
C1338 C1336 1.381 . S
C1338 C1339 1.394 . S
C1338 H1346 0.930 . S
C1339 C1338 1.394 . S
C1339 C1340 1.383 . S
C1339 H1347 0.929 . S
C1340 C1339 1.383 . S
C1340 C1341 1.377 . S
C1341 H1325 0.930 . S
C1341 C1340 1.377 . S
C1341 C1342 1.379 . S
C1342 H1326 0.931 . S
C1342 C1336 1.383 . S
C1342 C1341 1.379 . S
H1343 C1337 0.959 . S
H1344 C1337 0.961 . S
H1345 C1337 0.960 . S
H1346 C1338 0.930 . S
H1347 C1339 0.929 . S
H1348 C1356 0.929 . S
H1349 C1358 0.930 . S
H1350 C1360 0.930 . S
H1351 C1363 0.929 . S
H1352 C1366 0.930 . S
H1353 C1368 0.960 . S
H1354 C1368 0.960 . S
H1355 C1368 0.960 . S
C1356 H1348 0.929 . S
C1356 C1357 1.377 . S
C1356 C1358 1.384 . S
C1357 C1356 1.377 . S
C1357 C1363 1.390 . S
C1358 H1349 0.930 . S
C1358 C1356 1.384 . S
C1358 C1359 1.372 . S
C1359 C1358 1.372 . S
C1359 C1360 1.400 . S
C1359 C1364 1.490 . S
C1360 H1350 0.930 . S
C1360 C1359 1.400 . S
C1360 C1363 1.386 . S
H1361 C1377 0.930 . S
H1362 C1378 0.931 . S
C1363 H1351 0.929 . S
C1363 C1357 1.390 . S
C1363 C1360 1.386 . S
C1364 C1359 1.490 . S
C1364 C1366 1.395 . S
C1364 C1367 1.403 . S
H1365 C1371 0.930 . S
C1366 H1352 0.930 . S
C1366 C1364 1.395 . S
C1366 C1369 1.403 . S
C1367 C1364 1.403 . S
C1367 C1368 1.524 . S
C1367 C1371 1.400 . S
C1368 H1353 0.960 . S
C1368 H1354 0.960 . S
C1368 H1355 0.960 . S
C1368 C1367 1.524 . S
C1369 C1366 1.403 . S
C1369 C1370 1.392 . S
C1369 C1373 1.495 . S
C1370 C1369 1.392 . S
C1370 C1371 1.385 . S
C1370 C1372 1.478 . S
C1371 H1365 0.930 . S
C1371 C1367 1.400 . S
C1371 C1370 1.385 . S
C1372 C1370 1.478 . S
C1372 C1374 1.381 . S
C1372 C1378 1.383 . S
C1373 C1369 1.495 . S
C1373 H1379 0.959 . S
C1373 H1380 0.961 . S
C1373 H1381 0.960 . S
C1374 C1372 1.381 . S
C1374 C1375 1.394 . S
C1374 H1382 0.930 . S
C1375 C1374 1.394 . S
C1375 C1376 1.383 . S
C1375 H1383 0.929 . S
C1376 C1375 1.383 . S
C1376 C1377 1.377 . S
C1377 H1361 0.930 . S
C1377 C1376 1.377 . S
C1377 C1378 1.379 . S
C1378 H1362 0.931 . S
C1378 C1372 1.383 . S
C1378 C1377 1.379 . S
H1379 C1373 0.959 . S
H1380 C1373 0.961 . S
H1381 C1373 0.960 . S
H1382 C1374 0.930 . S
H1383 C1375 0.929 . S
H1384 C1392 0.929 . S
H1385 C1394 0.930 . S
H1386 C1396 0.930 . S
H1387 C1399 0.929 . S
H1388 C1402 0.930 . S
H1389 C1404 0.960 . S
H1390 C1404 0.960 . S
H1391 C1404 0.960 . S
C1392 H1384 0.929 . S
C1392 C1393 1.377 . S
C1392 C1394 1.384 . S
C1393 C1392 1.377 . S
C1393 C1399 1.390 . S
C1394 H1385 0.930 . S
C1394 C1392 1.384 . S
C1394 C1395 1.372 . S
C1395 C1394 1.372 . S
C1395 C1396 1.400 . S
C1395 C1400 1.490 . S
C1396 H1386 0.930 . S
C1396 C1395 1.400 . S
C1396 C1399 1.386 . S
H1397 C1413 0.930 . S
H1398 C1414 0.931 . S
C1399 H1387 0.929 . S
C1399 C1393 1.390 . S
C1399 C1396 1.386 . S
C1400 C1395 1.490 . S
C1400 C1402 1.395 . S
C1400 C1403 1.403 . S
H1401 C1407 0.930 . S
C1402 H1388 0.930 . S
C1402 C1400 1.395 . S
C1402 C1405 1.403 . S
C1403 C1400 1.403 . S
C1403 C1404 1.524 . S
C1403 C1407 1.400 . S
C1404 H1389 0.960 . S
C1404 H1390 0.960 . S
C1404 H1391 0.960 . S
C1404 C1403 1.524 . S
C1405 C1402 1.403 . S
C1405 C1406 1.392 . S
C1405 C1409 1.495 . S
C1406 C1405 1.392 . S
C1406 C1407 1.385 . S
C1406 C1408 1.478 . S
C1407 H1401 0.930 . S
C1407 C1403 1.400 . S
C1407 C1406 1.385 . S
C1408 C1406 1.478 . S
C1408 C1410 1.381 . S
C1408 C1414 1.383 . S
C1409 C1405 1.495 . S
C1409 H1415 0.959 . S
C1409 H1416 0.961 . S
C1409 H1417 0.960 . S
C1410 C1408 1.381 . S
C1410 C1411 1.394 . S
C1410 H1418 0.930 . S
C1411 C1410 1.394 . S
C1411 C1412 1.383 . S
C1411 H1419 0.929 . S
C1412 C1411 1.383 . S
C1412 C1413 1.377 . S
C1413 H1397 0.930 . S
C1413 C1412 1.377 . S
C1413 C1414 1.379 . S
C1414 H1398 0.931 . S
C1414 C1408 1.383 . S
C1414 C1413 1.379 . S
H1415 C1409 0.959 . S
H1416 C1409 0.961 . S
H1417 C1409 0.960 . S
H1418 C1410 0.930 . S
H1419 C1411 0.929 . S
H1420 C1428 0.929 . S
H1421 C1430 0.930 . S
H1422 C1432 0.930 . S
H1423 C1435 0.929 . S
H1424 C1438 0.930 . S
H1425 C1440 0.960 . S
H1426 C1440 0.960 . S
H1427 C1440 0.960 . S
C1428 H1420 0.929 . S
C1428 C1429 1.377 . S
C1428 C1430 1.384 . S
C1429 C1428 1.377 . S
C1429 C1435 1.390 . S
C1430 H1421 0.930 . S
C1430 C1428 1.384 . S
C1430 C1431 1.372 . S
C1431 C1430 1.372 . S
C1431 C1432 1.400 . S
C1431 C1436 1.490 . S
C1432 H1422 0.930 . S
C1432 C1431 1.400 . S
C1432 C1435 1.386 . S
H1433 C1449 0.930 . S
H1434 C1450 0.931 . S
C1435 H1423 0.929 . S
C1435 C1429 1.390 . S
C1435 C1432 1.386 . S
C1436 C1431 1.490 . S
C1436 C1438 1.395 . S
C1436 C1439 1.403 . S
H1437 C1443 0.930 . S
C1438 H1424 0.930 . S
C1438 C1436 1.395 . S
C1438 C1441 1.403 . S
C1439 C1436 1.403 . S
C1439 C1440 1.524 . S
C1439 C1443 1.400 . S
C1440 H1425 0.960 . S
C1440 H1426 0.960 . S
C1440 H1427 0.960 . S
C1440 C1439 1.524 . S
C1441 C1438 1.403 . S
C1441 C1442 1.392 . S
C1441 C1445 1.495 . S
C1442 C1441 1.392 . S
C1442 C1443 1.385 . S
C1442 C1444 1.478 . S
C1443 H1437 0.930 . S
C1443 C1439 1.400 . S
C1443 C1442 1.385 . S
C1444 C1442 1.478 . S
C1444 C1446 1.381 . S
C1444 C1450 1.383 . S
C1445 C1441 1.495 . S
C1445 H1451 0.959 . S
C1445 H1452 0.961 . S
C1445 H1453 0.960 . S
C1446 C1444 1.381 . S
C1446 C1447 1.394 . S
C1446 H1454 0.930 . S
C1447 C1446 1.394 . S
C1447 C1448 1.383 . S
C1447 H1455 0.929 . S
C1448 C1447 1.383 . S
C1448 C1449 1.377 . S
C1449 H1433 0.930 . S
C1449 C1448 1.377 . S
C1449 C1450 1.379 . S
C1450 H1434 0.931 . S
C1450 C1444 1.383 . S
C1450 C1449 1.379 . S
H1451 C1445 0.959 . S
H1452 C1445 0.961 . S
H1453 C1445 0.960 . S
H1454 C1446 0.930 . S
H1455 C1447 0.929 . S
H1456 C1464 0.929 . S
H1457 C1466 0.930 . S
H1458 C1468 0.930 . S
H1459 C1471 0.929 . S
H1460 C1474 0.930 . S
H1461 C1476 0.960 . S
H1462 C1476 0.960 . S
H1463 C1476 0.960 . S
C1464 H1456 0.929 . S
C1464 C1465 1.377 . S
C1464 C1466 1.384 . S
C1465 C1464 1.377 . S
C1465 C1471 1.390 . S
C1466 H1457 0.930 . S
C1466 C1464 1.384 . S
C1466 C1467 1.372 . S
C1467 C1466 1.372 . S
C1467 C1468 1.400 . S
C1467 C1472 1.490 . S
C1468 H1458 0.930 . S
C1468 C1467 1.400 . S
C1468 C1471 1.386 . S
H1469 C1485 0.930 . S
H1470 C1486 0.931 . S
C1471 H1459 0.929 . S
C1471 C1465 1.390 . S
C1471 C1468 1.386 . S
C1472 C1467 1.490 . S
C1472 C1474 1.395 . S
C1472 C1475 1.403 . S
H1473 C1479 0.930 . S
C1474 H1460 0.930 . S
C1474 C1472 1.395 . S
C1474 C1477 1.403 . S
C1475 C1472 1.403 . S
C1475 C1476 1.524 . S
C1475 C1479 1.400 . S
C1476 H1461 0.960 . S
C1476 H1462 0.960 . S
C1476 H1463 0.960 . S
C1476 C1475 1.524 . S
C1477 C1474 1.403 . S
C1477 C1478 1.392 . S
C1477 C1481 1.495 . S
C1478 C1477 1.392 . S
C1478 C1479 1.385 . S
C1478 C1480 1.478 . S
C1479 H1473 0.930 . S
C1479 C1475 1.400 . S
C1479 C1478 1.385 . S
C1480 C1478 1.478 . S
C1480 C1482 1.381 . S
C1480 C1486 1.383 . S
C1481 C1477 1.495 . S
C1481 H1487 0.959 . S
C1481 H1488 0.961 . S
C1481 H1489 0.960 . S
C1482 C1480 1.381 . S
C1482 C1483 1.394 . S
C1482 H1490 0.930 . S
C1483 C1482 1.394 . S
C1483 C1484 1.383 . S
C1483 H1491 0.929 . S
C1484 C1483 1.383 . S
C1484 C1485 1.377 . S
C1485 H1469 0.930 . S
C1485 C1484 1.377 . S
C1485 C1486 1.379 . S
C1486 H1470 0.931 . S
C1486 C1480 1.383 . S
C1486 C1485 1.379 . S
H1487 C1481 0.959 . S
H1488 C1481 0.961 . S
H1489 C1481 0.960 . S
H1490 C1482 0.930 . S
H1491 C1483 0.929 . S
H1492 C1500 0.929 . S
H1493 C1502 0.930 . S
H1494 C1504 0.930 . S
H1495 C1507 0.929 . S
H1496 C1510 0.942 . S
H1497 C1512 0.960 . S
H1498 C1512 0.960 . S
H1499 C1512 0.960 . S
C1500 H1492 0.929 . S
C1500 C1501 1.377 . S
C1500 C1502 1.384 . S
C1501 C1500 1.377 . S
C1501 C1507 1.390 . S
C1502 H1493 0.930 . S
C1502 C1500 1.384 . S
C1502 C1503 1.372 . S
C1503 C1502 1.372 . S
C1503 C1504 1.400 . S
C1503 C1508 1.490 . S
C1504 H1494 0.930 . S
C1504 C1503 1.400 . S
C1504 C1507 1.386 . S
H1505 C1521 0.930 . S
H1506 C1522 0.931 . S
C1507 H1495 0.929 . S
C1507 C1501 1.390 . S
C1507 C1504 1.386 . S
C1508 C1503 1.490 . S
C1508 C1510 1.447 . S
C1508 C1511 1.403 . S
H1509 C1515 0.930 . S
C1510 H1496 0.942 . S
C1510 C1508 1.447 . S
C1510 C1513 1.343 1_545 S
C1511 C1508 1.403 . S
C1511 C1512 1.524 . S
C1511 C1515 1.400 1_545 S
C1512 H1497 0.960 . S
C1512 H1498 0.960 . S
C1512 H1499 0.960 . S
C1512 C1511 1.524 . S
C1513 C1510 1.343 1_565 S
C1513 C1514 1.392 . S
C1513 C1517 1.495 . S
C1514 C1513 1.392 . S
C1514 C1515 1.385 . S
C1514 C1516 1.478 . S
C1515 H1509 0.930 . S
C1515 C1511 1.400 1_565 S
C1515 C1514 1.385 . S
C1516 C1514 1.478 . S
C1516 C1518 1.381 . S
C1516 C1522 1.383 . S
C1517 C1513 1.495 . S
C1517 H1523 0.959 . S
C1517 H1524 0.961 . S
C1517 H1525 0.960 . S
C1518 C1516 1.381 . S
C1518 C1519 1.394 . S
C1518 H1526 0.930 . S
C1519 C1518 1.394 . S
C1519 C1520 1.383 . S
C1519 H1527 0.929 . S
C1520 C1519 1.383 . S
C1520 C1521 1.377 . S
C1521 H1505 0.930 . S
C1521 C1520 1.377 . S
C1521 C1522 1.379 . S
C1522 H1506 0.931 . S
C1522 C1516 1.383 . S
C1522 C1521 1.379 . S
H1523 C1517 0.959 . S
H1524 C1517 0.961 . S
H1525 C1517 0.960 . S
H1526 C1518 0.930 . S
H1527 C1519 0.929 . S
H1528 C1536 0.929 . S
H1529 C1538 0.930 . S
H1530 C1540 0.930 . S
H1531 C1543 0.929 . S
H1532 C1546 0.930 . S
H1533 C1548 0.960 . S
H1534 C1548 0.960 . S
H1535 C1548 0.960 . S
C1536 H1528 0.929 . S
C1536 C1537 1.377 . S
C1536 C1538 1.384 . S
C1537 C1536 1.377 . S
C1537 C1543 1.390 . S
C1538 H1529 0.930 . S
C1538 C1536 1.384 . S
C1538 C1539 1.372 . S
C1539 C1538 1.372 . S
C1539 C1540 1.400 . S
C1539 C1544 1.490 . S
C1540 H1530 0.930 . S
C1540 C1539 1.400 . S
C1540 C1543 1.386 . S
H1541 C1557 0.930 . S
H1542 C1558 0.931 . S
C1543 H1531 0.929 . S
C1543 C1537 1.390 . S
C1543 C1540 1.386 . S
C1544 C1539 1.490 . S
C1544 C1546 1.395 . S
C1544 C1547 1.403 . S
H1545 C1551 0.930 . S
C1546 H1532 0.930 . S
C1546 C1544 1.395 . S
C1546 C1549 1.403 . S
C1547 C1544 1.403 . S
C1547 C1548 1.524 . S
C1547 C1551 1.400 . S
C1548 H1533 0.960 . S
C1548 H1534 0.960 . S
C1548 H1535 0.960 . S
C1548 C1547 1.524 . S
C1549 C1546 1.403 . S
C1549 C1550 1.392 . S
C1549 C1553 1.495 . S
C1550 C1549 1.392 . S
C1550 C1551 1.385 . S
C1550 C1552 1.478 . S
C1551 H1545 0.930 . S
C1551 C1547 1.400 . S
C1551 C1550 1.385 . S
C1552 C1550 1.478 . S
C1552 C1554 1.381 . S
C1552 C1558 1.383 . S
C1553 C1549 1.495 . S
C1553 H1559 0.959 . S
C1553 H1560 0.961 . S
C1553 H1561 0.960 . S
C1554 C1552 1.381 . S
C1554 C1555 1.394 . S
C1554 H1562 0.930 . S
C1555 C1554 1.394 . S
C1555 C1556 1.383 . S
C1555 H1563 0.929 . S
C1556 C1555 1.383 . S
C1556 C1557 1.377 . S
C1557 H1541 0.930 . S
C1557 C1556 1.377 . S
C1557 C1558 1.379 . S
C1558 H1542 0.931 . S
C1558 C1552 1.383 . S
C1558 C1557 1.379 . S
H1559 C1553 0.959 . S
H1560 C1553 0.961 . S
H1561 C1553 0.960 . S
H1562 C1554 0.930 . S
H1563 C1555 0.929 . S
H1564 C1572 0.929 . S
H1565 C1574 0.930 . S
H1566 C1576 0.930 . S
H1567 C1579 0.929 . S
H1568 C1582 0.930 . S
H1569 C1584 0.960 . S
H1570 C1584 0.960 1_554 S
H1571 C1584 0.960 . S
C1572 H1564 0.929 . S
C1572 C1573 1.377 1_554 S
C1572 C1574 1.384 . S
C1573 C1572 1.377 1_556 S
C1573 C1579 1.390 . S
C1574 H1565 0.930 . S
C1574 C1572 1.384 . S
C1574 C1575 1.374 1_554 S
C1575 C1574 1.374 1_556 S
C1575 C1576 1.398 . S
C1575 C1580 1.489 1_556 S
C1576 H1566 0.930 . S
C1576 C1575 1.398 . S
C1576 C1579 1.386 . S
H1577 C1593 0.930 . S
H1578 C1594 0.931 . S
C1579 H1567 0.929 . S
C1579 C1573 1.390 . S
C1579 C1576 1.386 . S
C1580 C1575 1.489 1_554 S
C1580 C1582 1.398 . S
C1580 C1583 1.401 1_554 S
H1581 C1587 0.936 . S
C1582 H1568 0.930 . S
C1582 C1580 1.398 . S
C1582 C1585 1.403 . S
C1583 C1580 1.401 1_556 S
C1583 C1584 1.524 . S
C1583 C1587 1.401 . S
C1584 H1569 0.960 . S
C1584 H1570 0.960 1_556 S
C1584 H1571 0.960 . S
C1584 C1583 1.524 . S
C1585 C1582 1.403 . S
C1585 C1586 1.392 . S
C1585 C1589 1.495 . S
C1586 C1585 1.392 . S
C1586 C1587 1.381 1_554 S
C1586 C1588 1.478 . S
C1587 H1581 0.936 . S
C1587 C1583 1.401 . S
C1587 C1586 1.381 1_556 S
C1588 C1586 1.478 . S
C1588 C1590 1.381 . S
C1588 C1594 1.383 1_554 S
C1589 C1585 1.495 . S
C1589 H1595 0.959 . S
C1589 H1596 0.961 1_554 S
C1589 H1597 0.960 . S
C1590 C1588 1.381 . S
C1590 C1591 1.394 . S
C1590 H1598 0.930 . S
C1591 C1590 1.394 . S
C1591 C1592 1.383 . S
C1591 H1599 0.929 . S
C1592 C1591 1.383 . S
C1592 C1593 1.377 1_554 S
C1593 H1577 0.930 . S
C1593 C1592 1.377 1_556 S
C1593 C1594 1.379 . S
C1594 H1578 0.931 . S
C1594 C1588 1.383 1_556 S
C1594 C1593 1.379 . S
H1595 C1589 0.959 . S
H1596 C1589 0.961 1_556 S
H1597 C1589 0.960 . S
H1598 C1590 0.930 . S
H1599 C1591 0.929 . S
H1600 C1608 0.929 . S
H1601 C1610 0.930 . S
H1602 C1612 0.930 . S
H1603 C1615 0.929 . S
H1604 C1618 0.930 . S
H1605 C1620 0.960 . S
H1606 C1620 0.960 . S
H1607 C1620 0.960 . S
C1608 H1600 0.929 . S
C1608 C1609 1.377 . S
C1608 C1610 1.384 . S
C1609 C1608 1.377 . S
C1609 C1615 1.390 . S
C1610 H1601 0.930 . S
C1610 C1608 1.384 . S
C1610 C1611 1.372 . S
C1611 C1610 1.372 . S
C1611 C1612 1.400 . S
C1611 C1616 1.490 . S
C1612 H1602 0.930 . S
C1612 C1611 1.400 . S
C1612 C1615 1.386 . S
H1613 C1629 0.930 . S
H1614 C1630 0.931 . S
C1615 H1603 0.929 . S
C1615 C1609 1.390 . S
C1615 C1612 1.386 . S
C1616 C1611 1.490 . S
C1616 C1618 1.395 . S
C1616 C1619 1.403 . S
H1617 C1623 0.930 . S
C1618 H1604 0.930 . S
C1618 C1616 1.395 . S
C1618 C1621 1.403 . S
C1619 C1616 1.403 . S
C1619 C1620 1.524 . S
C1619 C1623 1.400 . S
C1620 H1605 0.960 . S
C1620 H1606 0.960 . S
C1620 H1607 0.960 . S
C1620 C1619 1.524 . S
C1621 C1618 1.403 . S
C1621 C1622 1.392 . S
C1621 C1625 1.495 . S
C1622 C1621 1.392 . S
C1622 C1623 1.385 . S
C1622 C1624 1.478 . S
C1623 H1617 0.930 . S
C1623 C1619 1.400 . S
C1623 C1622 1.385 . S
C1624 C1622 1.478 . S
C1624 C1626 1.381 . S
C1624 C1630 1.383 . S
C1625 C1621 1.495 . S
C1625 H1631 0.959 . S
C1625 H1632 0.961 . S
C1625 H1633 0.960 . S
C1626 C1624 1.381 . S
C1626 C1627 1.394 . S
C1626 H1634 0.930 . S
C1627 C1626 1.394 . S
C1627 C1628 1.383 . S
C1627 H1635 0.929 . S
C1628 C1627 1.383 . S
C1628 C1629 1.377 . S
C1629 H1613 0.930 . S
C1629 C1628 1.377 . S
C1629 C1630 1.379 . S
C1630 H1614 0.931 . S
C1630 C1624 1.383 . S
C1630 C1629 1.379 . S
H1631 C1625 0.959 . S
H1632 C1625 0.961 . S
H1633 C1625 0.960 . S
H1634 C1626 0.930 . S
H1635 C1627 0.929 . S
H1636 C1644 0.929 . S
H1637 C1646 0.930 . S
H1638 C1648 0.930 . S
H1639 C1651 0.929 . S
H1640 C1654 0.930 . S
H1641 C1656 0.960 . S
H1642 C1656 0.960 . S
H1643 C1656 0.960 . S
C1644 H1636 0.929 . S
C1644 C1645 1.377 . S
C1644 C1646 1.384 . S
C1645 C1644 1.377 . S
C1645 C1651 1.390 . S
C1646 H1637 0.930 . S
C1646 C1644 1.384 . S
C1646 C1647 1.372 . S
C1647 C1646 1.372 . S
C1647 C1648 1.400 . S
C1647 C1652 1.490 . S
C1648 H1638 0.930 . S
C1648 C1647 1.400 . S
C1648 C1651 1.386 . S
H1649 C1665 0.930 . S
H1650 C1666 0.931 . S
C1651 H1639 0.929 . S
C1651 C1645 1.390 . S
C1651 C1648 1.386 . S
C1652 C1647 1.490 . S
C1652 C1654 1.395 . S
C1652 C1655 1.403 . S
H1653 C1659 0.930 . S
C1654 H1640 0.930 . S
C1654 C1652 1.395 . S
C1654 C1657 1.403 . S
C1655 C1652 1.403 . S
C1655 C1656 1.524 . S
C1655 C1659 1.400 . S
C1656 H1641 0.960 . S
C1656 H1642 0.960 . S
C1656 H1643 0.960 . S
C1656 C1655 1.524 . S
C1657 C1654 1.403 . S
C1657 C1658 1.392 . S
C1657 C1661 1.495 . S
C1658 C1657 1.392 . S
C1658 C1659 1.385 . S
C1658 C1660 1.478 . S
C1659 H1653 0.930 . S
C1659 C1655 1.400 . S
C1659 C1658 1.385 . S
C1660 C1658 1.478 . S
C1660 C1662 1.381 . S
C1660 C1666 1.383 . S
C1661 C1657 1.495 . S
C1661 H1667 0.959 . S
C1661 H1668 0.961 . S
C1661 H1669 0.960 . S
C1662 C1660 1.381 . S
C1662 C1663 1.394 . S
C1662 H1670 0.930 . S
C1663 C1662 1.394 . S
C1663 C1664 1.383 . S
C1663 H1671 0.929 . S
C1664 C1663 1.383 . S
C1664 C1665 1.377 . S
C1665 H1649 0.930 . S
C1665 C1664 1.377 . S
C1665 C1666 1.379 . S
C1666 H1650 0.931 . S
C1666 C1660 1.383 . S
C1666 C1665 1.379 . S
H1667 C1661 0.959 . S
H1668 C1661 0.961 . S
H1669 C1661 0.960 . S
H1670 C1662 0.930 . S
H1671 C1663 0.929 . S
H1672 C1680 0.929 . S
H1673 C1682 0.930 . S
H1674 C1684 0.930 . S
H1675 C1687 0.929 . S
H1676 C1690 0.930 . S
H1677 C1692 0.960 . S
H1678 C1692 0.960 . S
H1679 C1692 0.960 . S
C1680 H1672 0.929 . S
C1680 C1681 1.377 . S
C1680 C1682 1.384 . S
C1681 C1680 1.377 . S
C1681 C1687 1.390 . S
C1682 H1673 0.930 . S
C1682 C1680 1.384 . S
C1682 C1683 1.372 . S
C1683 C1682 1.372 . S
C1683 C1684 1.400 . S
C1683 C1688 1.490 . S
C1684 H1674 0.930 . S
C1684 C1683 1.400 . S
C1684 C1687 1.386 . S
H1685 C1701 0.930 . S
H1686 C1702 0.931 . S
C1687 H1675 0.929 . S
C1687 C1681 1.390 . S
C1687 C1684 1.386 . S
C1688 C1683 1.490 . S
C1688 C1690 1.395 . S
C1688 C1691 1.403 . S
H1689 C1695 0.930 . S
C1690 H1676 0.930 . S
C1690 C1688 1.395 . S
C1690 C1693 1.403 . S
C1691 C1688 1.403 . S
C1691 C1692 1.524 . S
C1691 C1695 1.400 . S
C1692 H1677 0.960 . S
C1692 H1678 0.960 . S
C1692 H1679 0.960 . S
C1692 C1691 1.524 . S
C1693 C1690 1.403 . S
C1693 C1694 1.392 . S
C1693 C1697 1.495 . S
C1694 C1693 1.392 . S
C1694 C1695 1.385 . S
C1694 C1696 1.478 . S
C1695 H1689 0.930 . S
C1695 C1691 1.400 . S
C1695 C1694 1.385 . S
C1696 C1694 1.478 . S
C1696 C1698 1.381 . S
C1696 C1702 1.383 . S
C1697 C1693 1.495 . S
C1697 H1703 0.959 . S
C1697 H1704 0.961 . S
C1697 H1705 0.960 . S
C1698 C1696 1.381 . S
C1698 C1699 1.394 . S
C1698 H1706 0.930 . S
C1699 C1698 1.394 . S
C1699 C1700 1.383 . S
C1699 H1707 0.929 . S
C1700 C1699 1.383 . S
C1700 C1701 1.377 . S
C1701 H1685 0.930 . S
C1701 C1700 1.377 . S
C1701 C1702 1.379 . S
C1702 H1686 0.931 . S
C1702 C1696 1.383 . S
C1702 C1701 1.379 . S
H1703 C1697 0.959 . S
H1704 C1697 0.961 . S
H1705 C1697 0.960 . S
H1706 C1698 0.930 . S
H1707 C1699 0.929 . S
H1708 C1716 0.929 . S
H1709 C1718 0.930 . S
H1710 C1720 0.930 . S
H1711 C1723 0.929 . S
H1712 C1726 0.930 . S
H1713 C1728 0.960 . S
H1714 C1728 0.960 . S
H1715 C1728 0.960 . S
C1716 H1708 0.929 . S
C1716 C1717 1.377 . S
C1716 C1718 1.384 . S
C1717 C1716 1.377 . S
C1717 C1723 1.390 . S
C1718 H1709 0.930 . S
C1718 C1716 1.384 . S
C1718 C1719 1.372 . S
C1719 C1718 1.372 . S
C1719 C1720 1.400 . S
C1719 C1724 1.490 . S
C1720 H1710 0.930 . S
C1720 C1719 1.400 . S
C1720 C1723 1.386 . S
H1721 C1737 0.930 . S
H1722 C1738 0.931 . S
C1723 H1711 0.929 . S
C1723 C1717 1.390 . S
C1723 C1720 1.386 . S
C1724 C1719 1.490 . S
C1724 C1726 1.395 . S
C1724 C1727 1.403 . S
H1725 C1731 0.930 . S
C1726 H1712 0.930 . S
C1726 C1724 1.395 . S
C1726 C1729 1.403 . S
C1727 C1724 1.403 . S
C1727 C1728 1.524 . S
C1727 C1731 1.400 . S
C1728 H1713 0.960 . S
C1728 H1714 0.960 . S
C1728 H1715 0.960 . S
C1728 C1727 1.524 . S
C1729 C1726 1.403 . S
C1729 C1730 1.392 . S
C1729 C1733 1.495 . S
C1730 C1729 1.392 . S
C1730 C1731 1.385 . S
C1730 C1732 1.478 . S
C1731 H1725 0.930 . S
C1731 C1727 1.400 . S
C1731 C1730 1.385 . S
C1732 C1730 1.478 . S
C1732 C1734 1.381 . S
C1732 C1738 1.383 . S
C1733 C1729 1.495 . S
C1733 H1739 0.959 . S
C1733 H1740 0.961 . S
C1733 H1741 0.960 . S
C1734 C1732 1.381 . S
C1734 C1735 1.394 . S
C1734 H1742 0.930 . S
C1735 C1734 1.394 . S
C1735 C1736 1.383 . S
C1735 H1743 0.929 . S
C1736 C1735 1.383 . S
C1736 C1737 1.377 . S
C1737 H1721 0.930 . S
C1737 C1736 1.377 . S
C1737 C1738 1.379 . S
C1738 H1722 0.931 . S
C1738 C1732 1.383 . S
C1738 C1737 1.379 . S
H1739 C1733 0.959 . S
H1740 C1733 0.961 . S
H1741 C1733 0.960 . S
H1742 C1734 0.930 . S
H1743 C1735 0.929 . S
H1744 C1752 0.929 . S
H1745 C1754 0.930 . S
H1746 C1756 0.930 . S
H1747 C1759 0.929 . S
H1748 C1762 0.930 . S
H1749 C1764 0.960 . S
H1750 C1764 0.960 . S
H1751 C1764 0.960 . S
C1752 H1744 0.929 . S
C1752 C1753 1.377 . S
C1752 C1754 1.384 . S
C1753 C1752 1.377 . S
C1753 C1759 1.390 . S
C1754 H1745 0.930 . S
C1754 C1752 1.384 . S
C1754 C1755 1.372 . S
C1755 C1754 1.372 . S
C1755 C1756 1.400 . S
C1755 C1760 1.490 . S
C1756 H1746 0.930 . S
C1756 C1755 1.400 . S
C1756 C1759 1.386 . S
H1757 C1773 0.930 . S
H1758 C1774 0.931 . S
C1759 H1747 0.929 . S
C1759 C1753 1.390 . S
C1759 C1756 1.386 . S
C1760 C1755 1.490 . S
C1760 C1762 1.395 . S
C1760 C1763 1.403 . S
H1761 C1767 0.930 . S
C1762 H1748 0.930 . S
C1762 C1760 1.395 . S
C1762 C1765 1.403 . S
C1763 C1760 1.403 . S
C1763 C1764 1.524 . S
C1763 C1767 1.400 . S
C1764 H1749 0.960 . S
C1764 H1750 0.960 . S
C1764 H1751 0.960 . S
C1764 C1763 1.524 . S
C1765 C1762 1.403 . S
C1765 C1766 1.392 . S
C1765 C1769 1.495 . S
C1766 C1765 1.392 . S
C1766 C1767 1.385 . S
C1766 C1768 1.478 . S
C1767 H1761 0.930 . S
C1767 C1763 1.400 . S
C1767 C1766 1.385 . S
C1768 C1766 1.478 . S
C1768 C1770 1.381 . S
C1768 C1774 1.383 . S
C1769 C1765 1.495 . S
C1769 H1775 0.959 . S
C1769 H1776 0.961 . S
C1769 H1777 0.960 . S
C1770 C1768 1.381 . S
C1770 C1771 1.394 . S
C1770 H1778 0.930 . S
C1771 C1770 1.394 . S
C1771 C1772 1.383 . S
C1771 H1779 0.929 . S
C1772 C1771 1.383 . S
C1772 C1773 1.377 . S
C1773 H1757 0.930 . S
C1773 C1772 1.377 . S
C1773 C1774 1.379 . S
C1774 H1758 0.931 . S
C1774 C1768 1.383 . S
C1774 C1773 1.379 . S
H1775 C1769 0.959 . S
H1776 C1769 0.961 . S
H1777 C1769 0.960 . S
H1778 C1770 0.930 . S
H1779 C1771 0.929 . S
H1780 C1788 0.929 . S
H1781 C1790 0.930 . S
H1782 C1792 0.930 . S
H1783 C1795 0.929 . S
H1784 C1798 0.930 . S
H1785 C1800 0.960 . S
H1786 C1800 0.960 . S
H1787 C1800 0.960 . S
C1788 H1780 0.929 . S
C1788 C1789 1.377 . S
C1788 C1790 1.384 . S
C1789 C1788 1.377 . S
C1789 C1795 1.390 . S
C1790 H1781 0.930 . S
C1790 C1788 1.384 . S
C1790 C1791 1.372 . S
C1791 C1790 1.372 . S
C1791 C1792 1.400 . S
C1791 C1796 1.490 . S
C1792 H1782 0.930 . S
C1792 C1791 1.400 . S
C1792 C1795 1.386 . S
H1793 C1809 0.930 . S
H1794 C1810 0.931 . S
C1795 H1783 0.929 . S
C1795 C1789 1.390 . S
C1795 C1792 1.386 . S
C1796 C1791 1.490 . S
C1796 C1798 1.395 . S
C1796 C1799 1.403 . S
H1797 C1803 0.930 . S
C1798 H1784 0.930 . S
C1798 C1796 1.395 . S
C1798 C1801 1.403 . S
C1799 C1796 1.403 . S
C1799 C1800 1.524 . S
C1799 C1803 1.400 . S
C1800 H1785 0.960 . S
C1800 H1786 0.960 . S
C1800 H1787 0.960 . S
C1800 C1799 1.524 . S
C1801 C1798 1.403 . S
C1801 C1802 1.392 . S
C1801 C1805 1.495 . S
C1802 C1801 1.392 . S
C1802 C1803 1.385 . S
C1802 C1804 1.478 . S
C1803 H1797 0.930 . S
C1803 C1799 1.400 . S
C1803 C1802 1.385 . S
C1804 C1802 1.478 . S
C1804 C1806 1.381 . S
C1804 C1810 1.383 . S
C1805 C1801 1.495 . S
C1805 H1811 0.959 . S
C1805 H1812 0.961 . S
C1805 H1813 0.960 . S
C1806 C1804 1.381 . S
C1806 C1807 1.394 . S
C1806 H1814 0.930 . S
C1807 C1806 1.394 . S
C1807 C1808 1.383 . S
C1807 H1815 0.929 . S
C1808 C1807 1.383 . S
C1808 C1809 1.377 . S
C1809 H1793 0.930 . S
C1809 C1808 1.377 . S
C1809 C1810 1.379 . S
C1810 H1794 0.931 . S
C1810 C1804 1.383 . S
C1810 C1809 1.379 . S
H1811 C1805 0.959 . S
H1812 C1805 0.961 . S
H1813 C1805 0.960 . S
H1814 C1806 0.930 . S
H1815 C1807 0.929 . S
H1816 C1824 0.929 . S
H1817 C1826 0.930 . S
H1818 C1828 0.930 . S
H1819 C1831 0.929 . S
H1820 C1834 0.930 . S
H1821 C1836 0.960 . S
H1822 C1836 0.960 . S
H1823 C1836 0.960 . S
C1824 H1816 0.929 . S
C1824 C1825 1.377 . S
C1824 C1826 1.384 . S
C1825 C1824 1.377 . S
C1825 C1831 1.390 . S
C1826 H1817 0.930 . S
C1826 C1824 1.384 . S
C1826 C1827 1.372 . S
C1827 C1826 1.372 . S
C1827 C1828 1.400 . S
C1827 C1832 1.490 . S
C1828 H1818 0.930 . S
C1828 C1827 1.400 . S
C1828 C1831 1.386 . S
H1829 C1845 0.930 . S
H1830 C1846 0.931 . S
C1831 H1819 0.929 . S
C1831 C1825 1.390 . S
C1831 C1828 1.386 . S
C1832 C1827 1.490 . S
C1832 C1834 1.395 . S
C1832 C1835 1.403 . S
H1833 C1839 0.930 . S
C1834 H1820 0.930 . S
C1834 C1832 1.395 . S
C1834 C1837 1.403 . S
C1835 C1832 1.403 . S
C1835 C1836 1.524 . S
C1835 C1839 1.400 . S
C1836 H1821 0.960 . S
C1836 H1822 0.960 . S
C1836 H1823 0.960 . S
C1836 C1835 1.524 . S
C1837 C1834 1.403 . S
C1837 C1838 1.392 . S
C1837 C1841 1.495 . S
C1838 C1837 1.392 . S
C1838 C1839 1.385 . S
C1838 C1840 1.478 . S
C1839 H1833 0.930 . S
C1839 C1835 1.400 . S
C1839 C1838 1.385 . S
C1840 C1838 1.478 . S
C1840 C1842 1.381 . S
C1840 C1846 1.383 . S
C1841 C1837 1.495 . S
C1841 H1847 0.959 . S
C1841 H1848 0.961 . S
C1841 H1849 0.960 . S
C1842 C1840 1.381 . S
C1842 C1843 1.394 . S
C1842 H1850 0.930 . S
C1843 C1842 1.394 . S
C1843 C1844 1.383 . S
C1843 H1851 0.929 . S
C1844 C1843 1.383 . S
C1844 C1845 1.377 . S
C1845 H1829 0.930 . S
C1845 C1844 1.377 . S
C1845 C1846 1.379 . S
C1846 H1830 0.931 . S
C1846 C1840 1.383 . S
C1846 C1845 1.379 . S
H1847 C1841 0.959 . S
H1848 C1841 0.961 . S
H1849 C1841 0.960 . S
H1850 C1842 0.930 . S
H1851 C1843 0.929 . S
H1852 C1860 0.929 . S
H1853 C1862 0.930 . S
H1854 C1864 0.930 . S
H1855 C1867 0.929 . S
H1856 C1870 0.930 . S
H1857 C1872 0.960 . S
H1858 C1872 0.960 . S
H1859 C1872 0.960 . S
C1860 H1852 0.929 . S
C1860 C1861 1.377 . S
C1860 C1862 1.384 . S
C1861 C1860 1.377 . S
C1861 C1867 1.390 . S
C1862 H1853 0.930 . S
C1862 C1860 1.384 . S
C1862 C1863 1.372 . S
C1863 C1862 1.372 . S
C1863 C1864 1.400 . S
C1863 C1868 1.490 . S
C1864 H1854 0.930 . S
C1864 C1863 1.400 . S
C1864 C1867 1.386 . S
H1865 C1881 0.930 . S
H1866 C1882 0.931 . S
C1867 H1855 0.929 . S
C1867 C1861 1.390 . S
C1867 C1864 1.386 . S
C1868 C1863 1.490 . S
C1868 C1870 1.395 . S
C1868 C1871 1.403 . S
H1869 C1875 0.930 . S
C1870 H1856 0.930 . S
C1870 C1868 1.395 . S
C1870 C1873 1.403 . S
C1871 C1868 1.403 . S
C1871 C1872 1.524 . S
C1871 C1875 1.400 . S
C1872 H1857 0.960 . S
C1872 H1858 0.960 . S
C1872 H1859 0.960 . S
C1872 C1871 1.524 . S
C1873 C1870 1.403 . S
C1873 C1874 1.392 . S
C1873 C1877 1.495 . S
C1874 C1873 1.392 . S
C1874 C1875 1.385 . S
C1874 C1876 1.478 . S
C1875 H1869 0.930 . S
C1875 C1871 1.400 . S
C1875 C1874 1.385 . S
C1876 C1874 1.478 . S
C1876 C1878 1.381 . S
C1876 C1882 1.383 . S
C1877 C1873 1.495 . S
C1877 H1883 0.959 . S
C1877 H1884 0.961 . S
C1877 H1885 0.960 . S
C1878 C1876 1.381 . S
C1878 C1879 1.394 . S
C1878 H1886 0.930 . S
C1879 C1878 1.394 . S
C1879 C1880 1.383 . S
C1879 H1887 0.929 . S
C1880 C1879 1.383 . S
C1880 C1881 1.377 . S
C1881 H1865 0.930 . S
C1881 C1880 1.377 . S
C1881 C1882 1.379 . S
C1882 H1866 0.931 . S
C1882 C1876 1.383 . S
C1882 C1881 1.379 . S
H1883 C1877 0.959 . S
H1884 C1877 0.961 . S
H1885 C1877 0.960 . S
H1886 C1878 0.930 . S
H1887 C1879 0.929 . S
H1888 C1896 0.929 . S
H1889 C1898 0.930 . S
H1890 C1900 0.930 . S
H1891 C1903 0.929 . S
H1892 C1906 0.930 . S
H1893 C1908 0.960 . S
H1894 C1908 0.960 . S
H1895 C1908 0.960 . S
C1896 H1888 0.929 . S
C1896 C1897 1.377 . S
C1896 C1898 1.384 . S
C1897 C1896 1.377 . S
C1897 C1903 1.390 . S
C1898 H1889 0.930 . S
C1898 C1896 1.384 . S
C1898 C1899 1.372 . S
C1899 C1898 1.372 . S
C1899 C1900 1.400 . S
C1899 C1904 1.490 . S
C1900 H1890 0.930 . S
C1900 C1899 1.400 . S
C1900 C1903 1.386 . S
H1901 C1917 0.930 . S
H1902 C1918 0.931 . S
C1903 H1891 0.929 . S
C1903 C1897 1.390 . S
C1903 C1900 1.386 . S
C1904 C1899 1.490 . S
C1904 C1906 1.395 . S
C1904 C1907 1.403 . S
H1905 C1911 0.930 . S
C1906 H1892 0.930 . S
C1906 C1904 1.395 . S
C1906 C1909 1.403 . S
C1907 C1904 1.403 . S
C1907 C1908 1.524 . S
C1907 C1911 1.400 . S
C1908 H1893 0.960 . S
C1908 H1894 0.960 . S
C1908 H1895 0.960 . S
C1908 C1907 1.524 . S
C1909 C1906 1.403 . S
C1909 C1910 1.392 . S
C1909 C1913 1.495 . S
C1910 C1909 1.392 . S
C1910 C1911 1.385 . S
C1910 C1912 1.478 . S
C1911 H1905 0.930 . S
C1911 C1907 1.400 . S
C1911 C1910 1.385 . S
C1912 C1910 1.478 . S
C1912 C1914 1.381 . S
C1912 C1918 1.383 . S
C1913 C1909 1.495 . S
C1913 H1919 0.959 . S
C1913 H1920 0.961 . S
C1913 H1921 0.960 . S
C1914 C1912 1.381 . S
C1914 C1915 1.394 . S
C1914 H1922 0.930 . S
C1915 C1914 1.394 . S
C1915 C1916 1.383 . S
C1915 H1923 0.929 . S
C1916 C1915 1.383 . S
C1916 C1917 1.377 . S
C1917 H1901 0.930 . S
C1917 C1916 1.377 . S
C1917 C1918 1.379 . S
C1918 H1902 0.931 . S
C1918 C1912 1.383 . S
C1918 C1917 1.379 . S
H1919 C1913 0.959 . S
H1920 C1913 0.961 . S
H1921 C1913 0.960 . S
H1922 C1914 0.930 . S
H1923 C1915 0.929 . S
H1924 C1932 0.929 . S
H1925 C1934 0.930 . S
H1926 C1936 0.930 . S
H1927 C1939 0.929 . S
H1928 C1942 0.930 . S
H1929 C1944 0.960 . S
H1930 C1944 0.960 . S
H1931 C1944 0.960 . S
C1932 H1924 0.929 . S
C1932 C1933 1.377 . S
C1932 C1934 1.384 . S
C1933 C1932 1.377 . S
C1933 C1939 1.390 . S
C1934 H1925 0.930 . S
C1934 C1932 1.384 . S
C1934 C1935 1.372 . S
C1935 C1934 1.372 . S
C1935 C1936 1.400 . S
C1935 C1940 1.490 . S
C1936 H1926 0.930 . S
C1936 C1935 1.400 . S
C1936 C1939 1.386 . S
H1937 C1953 0.930 . S
H1938 C1954 0.931 . S
C1939 H1927 0.929 . S
C1939 C1933 1.390 . S
C1939 C1936 1.386 . S
C1940 C1935 1.490 . S
C1940 C1942 1.395 . S
C1940 C1943 1.403 . S
H1941 C1947 0.930 . S
C1942 H1928 0.930 . S
C1942 C1940 1.395 . S
C1942 C1945 1.403 . S
C1943 C1940 1.403 . S
C1943 C1944 1.524 . S
C1943 C1947 1.400 . S
C1944 H1929 0.960 . S
C1944 H1930 0.960 . S
C1944 H1931 0.960 . S
C1944 C1943 1.524 . S
C1945 C1942 1.403 . S
C1945 C1946 1.392 . S
C1945 C1949 1.495 . S
C1946 C1945 1.392 . S
C1946 C1947 1.385 . S
C1946 C1948 1.478 . S
C1947 H1941 0.930 . S
C1947 C1943 1.400 . S
C1947 C1946 1.385 . S
C1948 C1946 1.478 . S
C1948 C1950 1.381 . S
C1948 C1954 1.383 . S
C1949 C1945 1.495 . S
C1949 H1955 0.959 . S
C1949 H1956 0.961 . S
C1949 H1957 0.960 . S
C1950 C1948 1.381 . S
C1950 C1951 1.394 . S
C1950 H1958 0.930 . S
C1951 C1950 1.394 . S
C1951 C1952 1.383 . S
C1951 H1959 0.929 . S
C1952 C1951 1.383 . S
C1952 C1953 1.377 . S
C1953 H1937 0.930 . S
C1953 C1952 1.377 . S
C1953 C1954 1.379 . S
C1954 H1938 0.931 . S
C1954 C1948 1.383 . S
C1954 C1953 1.379 . S
H1955 C1949 0.959 . S
H1956 C1949 0.961 . S
H1957 C1949 0.960 . S
H1958 C1950 0.930 . S
H1959 C1951 0.929 . S
H1960 C1968 0.929 . S
H1961 C1970 0.930 . S
H1962 C1972 0.930 . S
H1963 C1975 0.929 . S
H1964 C1978 0.930 . S
H1965 C1980 0.960 . S
H1966 C1980 0.960 . S
H1967 C1980 0.960 . S
C1968 H1960 0.929 . S
C1968 C1969 1.377 . S
C1968 C1970 1.384 . S
C1969 C1968 1.377 . S
C1969 C1975 1.390 . S
C1970 H1961 0.930 . S
C1970 C1968 1.384 . S
C1970 C1971 1.372 . S
C1971 C1970 1.372 . S
C1971 C1972 1.400 . S
C1971 C1976 1.490 . S
C1972 H1962 0.930 . S
C1972 C1971 1.400 . S
C1972 C1975 1.386 . S
H1973 C1989 0.930 . S
H1974 C1990 0.931 . S
C1975 H1963 0.929 . S
C1975 C1969 1.390 . S
C1975 C1972 1.386 . S
C1976 C1971 1.490 . S
C1976 C1978 1.395 . S
C1976 C1979 1.403 . S
H1977 C1983 0.930 . S
C1978 H1964 0.930 . S
C1978 C1976 1.395 . S
C1978 C1981 1.403 . S
C1979 C1976 1.403 . S
C1979 C1980 1.524 . S
C1979 C1983 1.400 . S
C1980 H1965 0.960 . S
C1980 H1966 0.960 . S
C1980 H1967 0.960 . S
C1980 C1979 1.524 . S
C1981 C1978 1.403 . S
C1981 C1982 1.392 . S
C1981 C1985 1.495 . S
C1982 C1981 1.392 . S
C1982 C1983 1.385 . S
C1982 C1984 1.478 . S
C1983 H1977 0.930 . S
C1983 C1979 1.400 . S
C1983 C1982 1.385 . S
C1984 C1982 1.478 . S
C1984 C1986 1.381 . S
C1984 C1990 1.383 . S
C1985 C1981 1.495 . S
C1985 H1991 0.959 . S
C1985 H1992 0.961 . S
C1985 H1993 0.960 . S
C1986 C1984 1.381 . S
C1986 C1987 1.394 . S
C1986 H1994 0.930 . S
C1987 C1986 1.394 . S
C1987 C1988 1.383 . S
C1987 H1995 0.929 . S
C1988 C1987 1.383 . S
C1988 C1989 1.377 . S
C1989 H1973 0.930 . S
C1989 C1988 1.377 . S
C1989 C1990 1.379 . S
C1990 H1974 0.931 . S
C1990 C1984 1.383 . S
C1990 C1989 1.379 . S
H1991 C1985 0.959 . S
H1992 C1985 0.961 . S
H1993 C1985 0.960 . S
H1994 C1986 0.930 . S
H1995 C1987 0.929 . S
H1996 C2004 0.929 . S
H1997 C2006 0.930 . S
H1998 C2008 0.930 . S
H1999 C2011 0.929 . S
H2000 C2014 0.930 . S
H2001 C2016 0.960 . S
H2002 C2016 0.960 . S
H2003 C2016 0.960 . S
C2004 H1996 0.929 . S
C2004 C2005 1.377 . S
C2004 C2006 1.384 . S
C2005 C2004 1.377 . S
C2005 C2011 1.390 . S
C2006 H1997 0.930 . S
C2006 C2004 1.384 . S
C2006 C2007 1.372 . S
C2007 C2006 1.372 . S
C2007 C2008 1.400 . S
C2007 C2012 1.490 . S
C2008 H1998 0.930 . S
C2008 C2007 1.400 . S
C2008 C2011 1.386 . S
H2009 C2025 0.930 . S
H2010 C2026 0.931 . S
C2011 H1999 0.929 . S
C2011 C2005 1.390 . S
C2011 C2008 1.386 . S
C2012 C2007 1.490 . S
C2012 C2014 1.395 . S
C2012 C2015 1.403 . S
H2013 C2019 0.930 . S
C2014 H2000 0.930 . S
C2014 C2012 1.395 . S
C2014 C2017 1.403 . S
C2015 C2012 1.403 . S
C2015 C2016 1.524 . S
C2015 C2019 1.400 . S
C2016 H2001 0.960 . S
C2016 H2002 0.960 . S
C2016 H2003 0.960 . S
C2016 C2015 1.524 . S
C2017 C2014 1.403 . S
C2017 C2018 1.392 . S
C2017 C2021 1.495 . S
C2018 C2017 1.392 . S
C2018 C2019 1.385 . S
C2018 C2020 1.478 . S
C2019 H2013 0.930 . S
C2019 C2015 1.400 . S
C2019 C2018 1.385 . S
C2020 C2018 1.478 . S
C2020 C2022 1.381 . S
C2020 C2026 1.383 . S
C2021 C2017 1.495 . S
C2021 H2027 0.959 . S
C2021 H2028 0.961 . S
C2021 H2029 0.960 . S
C2022 C2020 1.381 . S
C2022 C2023 1.394 . S
C2022 H2030 0.930 . S
C2023 C2022 1.394 . S
C2023 C2024 1.383 . S
C2023 H2031 0.929 . S
C2024 C2023 1.383 . S
C2024 C2025 1.377 . S
C2025 H2009 0.930 . S
C2025 C2024 1.377 . S
C2025 C2026 1.379 . S
C2026 H2010 0.931 . S
C2026 C2020 1.383 . S
C2026 C2025 1.379 . S
H2027 C2021 0.959 . S
H2028 C2021 0.961 . S
H2029 C2021 0.960 . S
H2030 C2022 0.930 . S
H2031 C2023 0.929 . S
H2032 C2040 0.929 . S
H2033 C2042 0.930 . S
H2034 C2044 0.930 . S
H2035 C2047 0.929 . S
H2036 C2050 0.930 . S
H2037 C2052 0.960 . S
H2038 C2052 0.960 . S
H2039 C2052 0.960 . S
C2040 H2032 0.929 . S
C2040 C2041 1.377 . S
C2040 C2042 1.384 . S
C2041 C2040 1.377 . S
C2041 C2047 1.390 . S
C2042 H2033 0.930 . S
C2042 C2040 1.384 . S
C2042 C2043 1.372 . S
C2043 C2042 1.372 . S
C2043 C2044 1.400 . S
C2043 C2048 1.490 . S
C2044 H2034 0.930 . S
C2044 C2043 1.400 . S
C2044 C2047 1.386 . S
H2045 C2061 0.930 . S
H2046 C2062 0.931 . S
C2047 H2035 0.929 . S
C2047 C2041 1.390 . S
C2047 C2044 1.386 . S
C2048 C2043 1.490 . S
C2048 C2050 1.395 . S
C2048 C2051 1.403 . S
H2049 C2055 0.930 . S
C2050 H2036 0.930 . S
C2050 C2048 1.395 . S
C2050 C2053 1.403 . S
C2051 C2048 1.403 . S
C2051 C2052 1.524 . S
C2051 C2055 1.400 . S
C2052 H2037 0.960 . S
C2052 H2038 0.960 . S
C2052 H2039 0.960 . S
C2052 C2051 1.524 . S
C2053 C2050 1.403 . S
C2053 C2054 1.392 . S
C2053 C2057 1.495 . S
C2054 C2053 1.392 . S
C2054 C2055 1.385 . S
C2054 C2056 1.478 . S
C2055 H2049 0.930 . S
C2055 C2051 1.400 . S
C2055 C2054 1.385 . S
C2056 C2054 1.478 . S
C2056 C2058 1.381 . S
C2056 C2062 1.383 . S
C2057 C2053 1.495 . S
C2057 H2063 0.959 . S
C2057 H2064 0.961 . S
C2057 H2065 0.960 . S
C2058 C2056 1.381 . S
C2058 C2059 1.394 . S
C2058 H2066 0.930 . S
C2059 C2058 1.394 . S
C2059 C2060 1.383 . S
C2059 H2067 0.929 . S
C2060 C2059 1.383 . S
C2060 C2061 1.377 . S
C2061 H2045 0.930 . S
C2061 C2060 1.377 . S
C2061 C2062 1.379 . S
C2062 H2046 0.931 . S
C2062 C2056 1.383 . S
C2062 C2061 1.379 . S
H2063 C2057 0.959 . S
H2064 C2057 0.961 . S
H2065 C2057 0.960 . S
H2066 C2058 0.930 . S
H2067 C2059 0.929 . S
H2068 C2076 0.929 . S
H2069 C2078 0.930 . S
H2070 C2080 0.930 . S
H2071 C2083 0.929 . S
H2072 C2086 0.930 . S
H2073 C2088 0.960 . S
H2074 C2088 0.960 . S
H2075 C2088 0.960 . S
C2076 H2068 0.929 . S
C2076 C2077 1.377 . S
C2076 C2078 1.384 . S
C2077 C2076 1.377 . S
C2077 C2083 1.390 . S
C2078 H2069 0.930 . S
C2078 C2076 1.384 . S
C2078 C2079 1.372 . S
C2079 C2078 1.372 . S
C2079 C2080 1.400 . S
C2079 C2084 1.490 . S
C2080 H2070 0.930 . S
C2080 C2079 1.400 . S
C2080 C2083 1.386 . S
H2081 C2097 0.930 . S
H2082 C2098 0.931 . S
C2083 H2071 0.929 . S
C2083 C2077 1.390 . S
C2083 C2080 1.386 . S
C2084 C2079 1.490 . S
C2084 C2086 1.395 . S
C2084 C2087 1.403 . S
H2085 C2091 0.930 . S
C2086 H2072 0.930 . S
C2086 C2084 1.395 . S
C2086 C2089 1.403 . S
C2087 C2084 1.403 . S
C2087 C2088 1.524 . S
C2087 C2091 1.400 . S
C2088 H2073 0.960 . S
C2088 H2074 0.960 . S
C2088 H2075 0.960 . S
C2088 C2087 1.524 . S
C2089 C2086 1.403 . S
C2089 C2090 1.392 . S
C2089 C2093 1.495 . S
C2090 C2089 1.392 . S
C2090 C2091 1.385 . S
C2090 C2092 1.478 . S
C2091 H2085 0.930 . S
C2091 C2087 1.400 . S
C2091 C2090 1.385 . S
C2092 C2090 1.478 . S
C2092 C2094 1.381 . S
C2092 C2098 1.383 . S
C2093 C2089 1.495 . S
C2093 H2099 0.959 . S
C2093 H2100 0.961 . S
C2093 H2101 0.960 . S
C2094 C2092 1.381 . S
C2094 C2095 1.394 . S
C2094 H2102 0.930 . S
C2095 C2094 1.394 . S
C2095 C2096 1.383 . S
C2095 H2103 0.929 . S
C2096 C2095 1.383 . S
C2096 C2097 1.377 . S
C2097 H2081 0.930 . S
C2097 C2096 1.377 . S
C2097 C2098 1.379 . S
C2098 H2082 0.931 . S
C2098 C2092 1.383 . S
C2098 C2097 1.379 . S
H2099 C2093 0.959 . S
H2100 C2093 0.961 . S
H2101 C2093 0.960 . S
H2102 C2094 0.930 . S
H2103 C2095 0.929 . S
H2104 C2112 0.929 . S
H2105 C2114 0.930 . S
H2106 C2116 0.930 . S
H2107 C2119 0.929 . S
H2108 C2122 0.930 . S
H2109 C2124 0.960 . S
H2110 C2124 0.960 . S
H2111 C2124 0.960 . S
C2112 H2104 0.929 . S
C2112 C2113 1.377 . S
C2112 C2114 1.384 . S
C2113 C2112 1.377 . S
C2113 C2119 1.390 . S
C2114 H2105 0.930 . S
C2114 C2112 1.384 . S
C2114 C2115 1.372 . S
C2115 C2114 1.372 . S
C2115 C2116 1.400 . S
C2115 C2120 1.490 . S
C2116 H2106 0.930 . S
C2116 C2115 1.400 . S
C2116 C2119 1.386 . S
H2117 C2133 0.930 . S
H2118 C2134 0.931 . S
C2119 H2107 0.929 . S
C2119 C2113 1.390 . S
C2119 C2116 1.386 . S
C2120 C2115 1.490 . S
C2120 C2122 1.395 . S
C2120 C2123 1.403 . S
H2121 C2127 0.930 . S
C2122 H2108 0.930 . S
C2122 C2120 1.395 . S
C2122 C2125 1.403 . S
C2123 C2120 1.403 . S
C2123 C2124 1.524 . S
C2123 C2127 1.400 . S
C2124 H2109 0.960 . S
C2124 H2110 0.960 . S
C2124 H2111 0.960 . S
C2124 C2123 1.524 . S
C2125 C2122 1.403 . S
C2125 C2126 1.392 . S
C2125 C2129 1.495 . S
C2126 C2125 1.392 . S
C2126 C2127 1.385 . S
C2126 C2128 1.478 . S
C2127 H2121 0.930 . S
C2127 C2123 1.400 . S
C2127 C2126 1.385 . S
C2128 C2126 1.478 . S
C2128 C2130 1.381 . S
C2128 C2134 1.383 . S
C2129 C2125 1.495 . S
C2129 H2135 0.959 . S
C2129 H2136 0.961 . S
C2129 H2137 0.960 . S
C2130 C2128 1.381 . S
C2130 C2131 1.394 . S
C2130 H2138 0.930 . S
C2131 C2130 1.394 . S
C2131 C2132 1.383 . S
C2131 H2139 0.929 . S
C2132 C2131 1.383 . S
C2132 C2133 1.377 . S
C2133 H2117 0.930 . S
C2133 C2132 1.377 . S
C2133 C2134 1.379 . S
C2134 H2118 0.931 . S
C2134 C2128 1.383 . S
C2134 C2133 1.379 . S
H2135 C2129 0.959 . S
H2136 C2129 0.961 . S
H2137 C2129 0.960 . S
H2138 C2130 0.930 . S
H2139 C2131 0.929 . S
H2140 C2148 0.929 . S
H2141 C2150 0.930 . S
H2142 C2152 0.930 . S
H2143 C2155 0.929 . S
H2144 C2158 0.930 . S
H2145 C2160 0.960 . S
H2146 C2160 0.960 . S
H2147 C2160 0.960 . S
C2148 H2140 0.929 . S
C2148 C2149 1.377 . S
C2148 C2150 1.384 . S
C2149 C2148 1.377 . S
C2149 C2155 1.390 . S
C2150 H2141 0.930 . S
C2150 C2148 1.384 . S
C2150 C2151 1.372 . S
C2151 C2150 1.372 . S
C2151 C2152 1.400 . S
C2151 C2156 1.490 . S
C2152 H2142 0.930 . S
C2152 C2151 1.400 . S
C2152 C2155 1.386 . S
H2153 C2169 0.930 . S
H2154 C2170 0.931 . S
C2155 H2143 0.929 . S
C2155 C2149 1.390 . S
C2155 C2152 1.386 . S
C2156 C2151 1.490 . S
C2156 C2158 1.395 . S
C2156 C2159 1.403 . S
H2157 C2163 0.930 . S
C2158 H2144 0.930 . S
C2158 C2156 1.395 . S
C2158 C2161 1.403 . S
C2159 C2156 1.403 . S
C2159 C2160 1.524 . S
C2159 C2163 1.400 . S
C2160 H2145 0.960 . S
C2160 H2146 0.960 . S
C2160 H2147 0.960 . S
C2160 C2159 1.524 . S
C2161 C2158 1.403 . S
C2161 C2162 1.392 . S
C2161 C2165 1.495 . S
C2162 C2161 1.392 . S
C2162 C2163 1.385 . S
C2162 C2164 1.478 . S
C2163 H2157 0.930 . S
C2163 C2159 1.400 . S
C2163 C2162 1.385 . S
C2164 C2162 1.478 . S
C2164 C2166 1.381 . S
C2164 C2170 1.383 . S
C2165 C2161 1.495 . S
C2165 H2171 0.959 . S
C2165 H2172 0.961 . S
C2165 H2173 0.960 . S
C2166 C2164 1.381 . S
C2166 C2167 1.394 . S
C2166 H2174 0.930 . S
C2167 C2166 1.394 . S
C2167 C2168 1.383 . S
C2167 H2175 0.929 . S
C2168 C2167 1.383 . S
C2168 C2169 1.377 . S
C2169 H2153 0.930 . S
C2169 C2168 1.377 . S
C2169 C2170 1.379 . S
C2170 H2154 0.931 . S
C2170 C2164 1.383 . S
C2170 C2169 1.379 . S
H2171 C2165 0.959 . S
H2172 C2165 0.961 . S
H2173 C2165 0.960 . S
H2174 C2166 0.930 . S
H2175 C2167 0.929 . S
H2176 C2184 0.929 . S
H2177 C2186 0.930 . S
H2178 C2188 0.930 . S
H2179 C2191 0.929 . S
H2180 C2194 0.930 . S
H2181 C2196 0.960 . S
H2182 C2196 0.960 . S
H2183 C2196 0.960 . S
C2184 H2176 0.929 . S
C2184 C2185 1.377 . S
C2184 C2186 1.384 . S
C2185 C2184 1.377 . S
C2185 C2191 1.390 . S
C2186 H2177 0.930 . S
C2186 C2184 1.384 . S
C2186 C2187 1.372 . S
C2187 C2186 1.372 . S
C2187 C2188 1.400 . S
C2187 C2192 1.490 . S
C2188 H2178 0.930 . S
C2188 C2187 1.400 . S
C2188 C2191 1.386 . S
H2189 C2205 0.930 . S
H2190 C2206 0.931 . S
C2191 H2179 0.929 . S
C2191 C2185 1.390 . S
C2191 C2188 1.386 . S
C2192 C2187 1.490 . S
C2192 C2194 1.395 . S
C2192 C2195 1.403 . S
H2193 C2199 0.930 . S
C2194 H2180 0.930 . S
C2194 C2192 1.395 . S
C2194 C2197 1.403 . S
C2195 C2192 1.403 . S
C2195 C2196 1.524 . S
C2195 C2199 1.400 . S
C2196 H2181 0.960 . S
C2196 H2182 0.960 . S
C2196 H2183 0.960 . S
C2196 C2195 1.524 . S
C2197 C2194 1.403 . S
C2197 C2198 1.392 . S
C2197 C2201 1.495 . S
C2198 C2197 1.392 . S
C2198 C2199 1.385 . S
C2198 C2200 1.478 . S
C2199 H2193 0.930 . S
C2199 C2195 1.400 . S
C2199 C2198 1.385 . S
C2200 C2198 1.478 . S
C2200 C2202 1.381 . S
C2200 C2206 1.383 . S
C2201 C2197 1.495 . S
C2201 H2207 0.959 . S
C2201 H2208 0.961 . S
C2201 H2209 0.960 . S
C2202 C2200 1.381 . S
C2202 C2203 1.394 . S
C2202 H2210 0.930 . S
C2203 C2202 1.394 . S
C2203 C2204 1.383 . S
C2203 H2211 0.929 . S
C2204 C2203 1.383 . S
C2204 C2205 1.377 . S
C2205 H2189 0.930 . S
C2205 C2204 1.377 . S
C2205 C2206 1.379 . S
C2206 H2190 0.931 . S
C2206 C2200 1.383 . S
C2206 C2205 1.379 . S
H2207 C2201 0.959 . S
H2208 C2201 0.961 . S
H2209 C2201 0.960 . S
H2210 C2202 0.930 . S
H2211 C2203 0.929 . S
H2212 C2220 0.929 . S
H2213 C2222 0.930 . S
H2214 C2224 0.930 . S
H2215 C2227 0.929 . S
H2216 C2230 0.930 . S
H2217 C2232 0.960 . S
H2218 C2232 0.960 . S
H2219 C2232 0.960 . S
C2220 H2212 0.929 . S
C2220 C2221 1.377 . S
C2220 C2222 1.384 . S
C2221 C2220 1.377 . S
C2221 C2227 1.390 . S
C2222 H2213 0.930 . S
C2222 C2220 1.384 . S
C2222 C2223 1.372 . S
C2223 C2222 1.372 . S
C2223 C2224 1.400 . S
C2223 C2228 1.490 . S
C2224 H2214 0.930 . S
C2224 C2223 1.400 . S
C2224 C2227 1.386 . S
H2225 C2241 0.930 1_455 S
H2226 C2242 0.931 . S
C2227 H2215 0.929 . S
C2227 C2221 1.390 . S
C2227 C2224 1.386 . S
C2228 C2223 1.490 . S
C2228 C2230 1.395 . S
C2228 C2231 1.403 . S
H2229 C2235 0.930 . S
C2230 H2216 0.930 . S
C2230 C2228 1.395 . S
C2230 C2233 1.403 . S
C2231 C2228 1.403 . S
C2231 C2232 1.524 . S
C2231 C2235 1.400 . S
C2232 H2217 0.960 . S
C2232 H2218 0.960 . S
C2232 H2219 0.960 . S
C2232 C2231 1.524 . S
C2233 C2230 1.403 . S
C2233 C2234 1.392 . S
C2233 C2237 1.495 . S
C2234 C2233 1.392 . S
C2234 C2235 1.385 . S
C2234 C2236 1.478 . S
C2235 H2229 0.930 . S
C2235 C2231 1.400 . S
C2235 C2234 1.385 . S
C2236 C2234 1.478 . S
C2236 C2238 1.381 . S
C2236 C2242 1.383 . S
C2237 C2233 1.495 . S
C2237 H2243 0.959 . S
C2237 H2244 0.961 . S
C2237 H2245 0.960 . S
C2238 C2236 1.381 . S
C2238 C2239 1.394 . S
C2238 H2246 0.930 . S
C2239 C2238 1.394 . S
C2239 C2240 1.383 1_655 S
C2239 H2247 0.929 1_655 S
C2240 C2239 1.383 1_455 S
C2240 C2241 1.377 1_455 S
C2241 H2225 0.930 1_655 S
C2241 C2240 1.377 1_655 S
C2241 C2242 1.379 . S
C2242 H2226 0.931 . S
C2242 C2236 1.383 . S
C2242 C2241 1.379 . S
H2243 C2237 0.959 . S
H2244 C2237 0.961 . S
H2245 C2237 0.960 . S
H2246 C2238 0.930 . S
H2247 C2239 0.929 1_455 S
H2248 C2256 0.929 . S
H2249 C2258 0.930 . S
H2250 C2260 0.930 . S
H2251 C2263 0.929 . S
H2252 C2266 0.930 . S
H2253 C2268 0.962 . S
H2254 C2268 0.940 1_554 S
H2255 C2268 0.979 . S
C2256 H2248 0.929 . S
C2256 C2257 1.383 . S
C2256 C2258 1.384 . S
C2257 C2256 1.383 . S
C2257 C2263 1.385 1_554 S
C2258 H2249 0.930 . S
C2258 C2256 1.384 . S
C2258 C2259 1.419 . S
C2259 C2258 1.419 . S
C2259 C2260 1.353 1_554 S
C2259 C2264 1.490 . S
C2260 H2250 0.930 . S
C2260 C2259 1.353 1_556 S
C2260 C2263 1.386 . S
H2261 C2277 0.930 . S
H2262 C2278 0.931 . S
C2263 H2251 0.929 . S
C2263 C2257 1.385 1_556 S
C2263 C2260 1.386 . S
C2264 C2259 1.490 . S
C2264 C2266 1.400 . S
C2264 C2267 1.401 1_554 S
H2265 C2271 0.932 . S
C2266 H2252 0.930 . S
C2266 C2264 1.400 . S
C2266 C2269 1.403 . S
C2267 C2264 1.401 1_556 S
C2267 C2268 1.523 . S
C2267 C2271 1.400 . S
C2268 H2253 0.962 . S
C2268 H2254 0.940 1_556 S
C2268 H2255 0.979 . S
C2268 C2267 1.523 . S
C2269 C2266 1.403 . S
C2269 C2270 1.396 . S
C2269 C2273 1.495 . S
C2270 C2269 1.396 . S
C2270 C2271 1.383 1_554 S
C2270 C2272 1.477 . S
C2271 H2265 0.932 . S
C2271 C2267 1.400 . S
C2271 C2270 1.383 1_556 S
C2272 C2270 1.477 . S
C2272 C2274 1.390 . S
C2272 C2278 1.374 1_554 S
C2273 C2269 1.495 . S
C2273 H2279 0.959 . S
C2273 H2280 0.961 1_554 S
C2273 H2281 0.960 . S
C2274 C2272 1.390 . S
C2274 C2275 1.394 . S
C2274 H2282 0.930 . S
C2275 C2274 1.394 . S
C2275 C2276 1.383 1_554 S
C2275 H2283 0.929 . S
C2276 C2275 1.383 1_556 S
C2276 C2277 1.377 . S
C2277 H2261 0.930 . S
C2277 C2276 1.377 . S
C2277 C2278 1.379 . S
C2278 H2262 0.931 . S
C2278 C2272 1.374 1_556 S
C2278 C2277 1.379 . S
H2279 C2273 0.959 . S
H2280 C2273 0.961 1_556 S
H2281 C2273 0.960 . S
H2282 C2274 0.930 . S
H2283 C2275 0.929 . S
H2284 C2292 0.929 1_455 S
H2285 C2294 0.930 . S
H2286 C2296 0.930 . S
H2287 C2299 0.929 1_455 S
H2288 C2302 0.930 . S
H2289 C2304 0.960 . S
H2290 C2304 0.960 1_556 S
H2291 C2304 0.960 . S
C2292 H2284 0.929 1_655 S
C2292 C2293 1.390 1_655 S
C2292 C2294 1.384 . S
C2293 C2292 1.390 1_455 S
C2293 C2299 1.378 1_456 S
C2294 H2285 0.930 . S
C2294 C2292 1.384 . S
C2294 C2295 1.372 . S
C2295 C2294 1.372 . S
C2295 C2296 1.400 1_556 S
C2295 C2300 1.490 . S
C2296 H2286 0.930 . S
C2296 C2295 1.400 1_554 S
C2296 C2299 1.386 . S
H2297 C2313 0.930 . S
H2298 C2314 0.931 . S
C2299 H2287 0.929 1_655 S
C2299 C2293 1.378 1_654 S
C2299 C2296 1.386 . S
C2300 C2295 1.490 . S
C2300 C2302 1.395 . S
C2300 C2303 1.403 1_556 S
H2301 C2307 0.930 . S
C2302 H2288 0.930 . S
C2302 C2300 1.395 . S
C2302 C2305 1.403 . S
C2303 C2300 1.403 1_554 S
C2303 C2304 1.524 . S
C2303 C2307 1.400 . S
C2304 H2289 0.960 . S
C2304 H2290 0.960 1_554 S
C2304 H2291 0.960 . S
C2304 C2303 1.524 . S
C2305 C2302 1.403 . S
C2305 C2306 1.392 . S
C2305 C2309 1.495 . S
C2306 C2305 1.392 . S
C2306 C2307 1.385 1_556 S
C2306 C2308 1.478 . S
C2307 H2301 0.930 . S
C2307 C2303 1.400 . S
C2307 C2306 1.385 1_554 S
C2308 C2306 1.478 . S
C2308 C2310 1.381 . S
C2308 C2314 1.383 1_556 S
C2309 C2305 1.495 . S
C2309 H2315 0.959 . S
C2309 H2316 0.933 1_556 S
C2309 H2317 0.960 . S
C2310 C2308 1.381 . S
C2310 C2311 1.394 . S
C2310 H2318 0.930 . S
C2311 C2310 1.394 . S
C2311 C2312 1.394 . S
C2311 H2319 0.929 . S
C2312 C2311 1.394 . S
C2312 C2313 1.366 1_556 S
C2313 H2297 0.930 . S
C2313 C2312 1.366 1_554 S
C2313 C2314 1.379 . S
C2314 H2298 0.931 . S
C2314 C2308 1.383 1_554 S
C2314 C2313 1.379 . S
H2315 C2309 0.959 . S
H2316 C2309 0.933 1_554 S
H2317 C2309 0.960 . S
H2318 C2310 0.930 . S
H2319 C2311 0.929 . S
H2320 C2328 0.929 . S
H2321 C2330 0.930 . S
H2322 C2332 0.930 . S
H2323 C2335 0.929 . S
H2324 C2338 0.930 . S
H2325 C2340 0.960 . S
H2326 C2340 0.960 . S
H2327 C2340 0.960 . S
C2328 H2320 0.929 . S
C2328 C2329 1.377 . S
C2328 C2330 1.384 . S
C2329 C2328 1.377 . S
C2329 C2335 1.390 . S
C2330 H2321 0.930 . S
C2330 C2328 1.384 . S
C2330 C2331 1.372 . S
C2331 C2330 1.372 . S
C2331 C2332 1.400 . S
C2331 C2336 1.490 . S
C2332 H2322 0.930 . S
C2332 C2331 1.400 . S
C2332 C2335 1.386 . S
H2333 C2349 0.930 . S
H2334 C2350 0.931 . S
C2335 H2323 0.929 . S
C2335 C2329 1.390 . S
C2335 C2332 1.386 . S
C2336 C2331 1.490 . S
C2336 C2338 1.395 . S
C2336 C2339 1.403 . S
H2337 C2343 0.930 . S
C2338 H2324 0.930 . S
C2338 C2336 1.395 . S
C2338 C2341 1.403 . S
C2339 C2336 1.403 . S
C2339 C2340 1.524 . S
C2339 C2343 1.400 . S
C2340 H2325 0.960 . S
C2340 H2326 0.960 . S
C2340 H2327 0.960 . S
C2340 C2339 1.524 . S
C2341 C2338 1.403 . S
C2341 C2342 1.392 . S
C2341 C2345 1.495 . S
C2342 C2341 1.392 . S
C2342 C2343 1.385 . S
C2342 C2344 1.478 . S
C2343 H2337 0.930 . S
C2343 C2339 1.400 . S
C2343 C2342 1.385 . S
C2344 C2342 1.478 . S
C2344 C2346 1.381 . S
C2344 C2350 1.383 . S
C2345 C2341 1.495 . S
C2345 H2351 0.959 . S
C2345 H2352 0.961 . S
C2345 H2353 0.960 . S
C2346 C2344 1.381 . S
C2346 C2347 1.394 . S
C2346 H2354 0.930 . S
C2347 C2346 1.394 . S
C2347 C2348 1.383 . S
C2347 H2355 0.929 . S
C2348 C2347 1.383 . S
C2348 C2349 1.377 . S
C2349 H2333 0.930 . S
C2349 C2348 1.377 . S
C2349 C2350 1.379 . S
C2350 H2334 0.931 . S
C2350 C2344 1.383 . S
C2350 C2349 1.379 . S
H2351 C2345 0.959 . S
H2352 C2345 0.961 . S
H2353 C2345 0.960 . S
H2354 C2346 0.930 . S
H2355 C2347 0.929 . S
H2356 C2364 0.915 1_655 S
H2357 C2366 0.930 . S
H2358 C2368 0.930 . S
H2359 C2371 0.936 . S
H2360 C2374 0.930 . S
H2361 C2376 0.960 . S
H2362 C2376 0.960 . S
H2363 C2376 0.960 . S
C2364 H2356 0.915 1_455 S
C2364 C2365 1.369 1_455 S
C2364 C2366 1.407 . S
C2365 C2364 1.369 1_655 S
C2365 C2371 1.390 1_655 S
C2366 H2357 0.930 . S
C2366 C2364 1.407 . S
C2366 C2367 1.372 . S
C2367 C2366 1.372 . S
C2367 C2368 1.400 . S
C2367 C2372 1.490 . S
C2368 H2358 0.930 . S
C2368 C2367 1.400 . S
C2368 C2371 1.386 . S
H2369 C2385 0.930 . S
H2370 C2386 0.931 . S
C2371 H2359 0.936 . S
C2371 C2365 1.390 1_455 S
C2371 C2368 1.386 . S
C2372 C2367 1.490 . S
C2372 C2374 1.395 . S
C2372 C2375 1.403 . S
H2373 C2379 0.930 . S
C2374 H2360 0.930 . S
C2374 C2372 1.395 . S
C2374 C2377 1.403 . S
C2375 C2372 1.403 . S
C2375 C2376 1.524 . S
C2375 C2379 1.400 . S
C2376 H2361 0.960 . S
C2376 H2362 0.960 . S
C2376 H2363 0.960 . S
C2376 C2375 1.524 . S
C2377 C2374 1.403 . S
C2377 C2378 1.392 . S
C2377 C2381 1.495 . S
C2378 C2377 1.392 . S
C2378 C2379 1.385 . S
C2378 C2380 1.478 . S
C2379 H2373 0.930 . S
C2379 C2375 1.400 . S
C2379 C2378 1.385 . S
C2380 C2378 1.478 . S
C2380 C2382 1.381 . S
C2380 C2386 1.383 . S
C2381 C2377 1.495 . S
C2381 H2387 0.959 . S
C2381 H2388 0.961 . S
C2381 H2389 0.960 . S
C2382 C2380 1.381 . S
C2382 C2383 1.394 . S
C2382 H2390 0.930 . S
C2383 C2382 1.394 . S
C2383 C2384 1.383 . S
C2383 H2391 0.929 . S
C2384 C2383 1.383 . S
C2384 C2385 1.377 . S
C2385 H2369 0.930 . S
C2385 C2384 1.377 . S
C2385 C2386 1.379 . S
C2386 H2370 0.931 . S
C2386 C2380 1.383 . S
C2386 C2385 1.379 . S
H2387 C2381 0.959 . S
H2388 C2381 0.961 . S
H2389 C2381 0.960 . S
H2390 C2382 0.930 . S
H2391 C2383 0.929 . S
H2392 C2400 0.929 . S
H2393 C2402 0.930 . S
H2394 C2404 0.930 . S
H2395 C2407 0.929 . S
H2396 C2410 0.930 . S
H2397 C2412 0.961 . S
H2398 C2412 0.946 1_556 S
H2399 C2412 0.974 . S
C2400 H2392 0.929 . S
C2400 C2401 1.383 . S
C2400 C2402 1.384 . S
C2401 C2400 1.383 . S
C2401 C2407 1.385 1_556 S
C2402 H2393 0.930 . S
C2402 C2400 1.384 . S
C2402 C2403 1.419 . S
C2403 C2402 1.419 . S
C2403 C2404 1.353 1_556 S
C2403 C2408 1.490 . S
C2404 H2394 0.930 . S
C2404 C2403 1.353 1_554 S
C2404 C2407 1.386 . S
H2405 C2421 0.930 . S
H2406 C2422 0.931 . S
C2407 H2395 0.929 . S
C2407 C2401 1.385 1_554 S
C2407 C2404 1.386 . S
C2408 C2403 1.490 . S
C2408 C2410 1.400 . S
C2408 C2411 1.401 1_556 S
H2409 C2415 0.931 . S
C2410 H2396 0.930 . S
C2410 C2408 1.400 . S
C2410 C2413 1.403 . S
C2411 C2408 1.401 1_554 S
C2411 C2412 1.524 . S
C2411 C2415 1.400 . S
C2412 H2397 0.961 . S
C2412 H2398 0.946 1_554 S
C2412 H2399 0.974 . S
C2412 C2411 1.524 . S
C2413 C2410 1.403 . S
C2413 C2414 1.396 . S
C2413 C2417 1.495 . S
C2414 C2413 1.396 . S
C2414 C2415 1.383 1_556 S
C2414 C2416 1.477 . S
C2415 H2409 0.931 . S
C2415 C2411 1.400 . S
C2415 C2414 1.383 1_554 S
C2416 C2414 1.477 . S
C2416 C2418 1.389 . S
C2416 C2422 1.374 1_556 S
C2417 C2413 1.495 . S
C2417 H2423 0.959 . S
C2417 H2424 0.961 1_556 S
C2417 H2425 0.960 . S
C2418 C2416 1.389 . S
C2418 C2419 1.394 . S
C2418 H2426 0.930 . S
C2419 C2418 1.394 . S
C2419 C2420 1.383 1_556 S
C2419 H2427 0.929 . S
C2420 C2419 1.383 1_554 S
C2420 C2421 1.377 . S
C2421 H2405 0.930 . S
C2421 C2420 1.377 . S
C2421 C2422 1.379 . S
C2422 H2406 0.931 . S
C2422 C2416 1.374 1_554 S
C2422 C2421 1.379 . S
H2423 C2417 0.959 . S
H2424 C2417 0.961 1_554 S
H2425 C2417 0.960 . S
H2426 C2418 0.930 . S
H2427 C2419 0.929 . S
H2428 C2436 0.929 . S
H2429 C2438 0.930 . S
H2430 C2440 0.930 . S
H2431 C2443 0.929 . S
H2432 C2446 0.930 . S
H2433 C2448 0.960 . S
H2434 C2448 0.960 . S
H2435 C2448 0.960 . S
C2436 H2428 0.929 . S
C2436 C2437 1.383 . S
C2436 C2438 1.384 . S
C2437 C2436 1.383 . S
C2437 C2443 1.385 1_556 S
C2438 H2429 0.930 . S
C2438 C2436 1.384 . S
C2438 C2439 1.399 . S
C2439 C2438 1.399 . S
C2439 C2440 1.374 1_556 S
C2439 C2444 1.490 . S
C2440 H2430 0.930 . S
C2440 C2439 1.374 1_554 S
C2440 C2443 1.386 . S
H2441 C2457 0.930 . S
H2442 C2458 0.931 . S
C2443 H2431 0.929 . S
C2443 C2437 1.385 1_554 S
C2443 C2440 1.386 . S
C2444 C2439 1.490 . S
C2444 C2446 1.386 1_556 S
C2444 C2447 1.412 . S
H2445 C2451 0.930 . S
C2446 H2432 0.930 . S
C2446 C2444 1.386 1_554 S
C2446 C2449 1.403 . S
C2447 C2444 1.412 . S
C2447 C2448 1.524 . S
C2447 C2451 1.400 . S
C2448 H2433 0.960 . S
C2448 H2434 0.960 . S
C2448 H2435 0.960 . S
C2448 C2447 1.524 . S
C2449 C2446 1.403 . S
C2449 C2450 1.406 . S
C2449 C2453 1.495 . S
C2450 C2449 1.406 . S
C2450 C2451 1.371 1_554 S
C2450 C2452 1.480 . S
C2451 H2445 0.930 . S
C2451 C2447 1.400 . S
C2451 C2450 1.371 1_556 S
C2452 C2450 1.480 . S
C2452 C2454 1.381 1_554 S
C2452 C2458 1.383 . S
C2453 C2449 1.495 . S
C2453 H2459 0.959 . S
C2453 H2460 0.961 . S
C2453 H2461 0.960 . S
C2454 C2452 1.381 1_556 S
C2454 C2455 1.394 1_455 S
C2454 H2462 0.930 . S
C2455 C2454 1.394 1_655 S
C2455 C2456 1.359 1_556 S
C2455 H2463 0.929 . S
C2456 C2455 1.359 1_554 S
C2456 C2457 1.403 1_655 S
C2457 H2441 0.930 . S
C2457 C2456 1.403 1_455 S
C2457 C2458 1.379 . S
C2458 H2442 0.931 . S
C2458 C2452 1.383 . S
C2458 C2457 1.379 . S
H2459 C2453 0.959 . S
H2460 C2453 0.961 . S
H2461 C2453 0.960 . S
H2462 C2454 0.930 . S
H2463 C2455 0.929 . S
H2464 C2472 0.929 . S
H2465 C2474 0.930 . S
H2466 C2476 0.930 . S
H2467 C2479 0.929 . S
H2468 C2482 0.930 . S
H2469 C2484 0.960 . S
H2470 C2484 0.960 . S
H2471 C2484 0.960 . S
C2472 H2464 0.929 . S
C2472 C2473 1.377 . S
C2472 C2474 1.384 . S
C2473 C2472 1.377 . S
C2473 C2479 1.390 . S
C2474 H2465 0.930 . S
C2474 C2472 1.384 . S
C2474 C2475 1.372 . S
C2475 C2474 1.372 . S
C2475 C2476 1.400 . S
C2475 C2480 1.490 . S
C2476 H2466 0.930 . S
C2476 C2475 1.400 . S
C2476 C2479 1.386 . S
H2477 C2493 0.930 . S
H2478 C2494 0.931 . S
C2479 H2467 0.929 . S
C2479 C2473 1.390 . S
C2479 C2476 1.386 . S
C2480 C2475 1.490 . S
C2480 C2482 1.395 . S
C2480 C2483 1.403 . S
H2481 C2487 0.930 . S
C2482 H2468 0.930 . S
C2482 C2480 1.395 . S
C2482 C2485 1.403 . S
C2483 C2480 1.403 . S
C2483 C2484 1.524 . S
C2483 C2487 1.400 . S
C2484 H2469 0.960 . S
C2484 H2470 0.960 . S
C2484 H2471 0.960 . S
C2484 C2483 1.524 . S
C2485 C2482 1.403 . S
C2485 C2486 1.392 . S
C2485 C2489 1.495 . S
C2486 C2485 1.392 . S
C2486 C2487 1.385 . S
C2486 C2488 1.478 . S
C2487 H2481 0.930 . S
C2487 C2483 1.400 . S
C2487 C2486 1.385 . S
C2488 C2486 1.478 . S
C2488 C2490 1.381 . S
C2488 C2494 1.383 . S
C2489 C2485 1.495 . S
C2489 H2495 0.959 . S
C2489 H2496 0.961 . S
C2489 H2497 0.960 . S
C2490 C2488 1.381 . S
C2490 C2491 1.394 . S
C2490 H2498 0.930 . S
C2491 C2490 1.394 . S
C2491 C2492 1.383 . S
C2491 H2499 0.929 . S
C2492 C2491 1.383 . S
C2492 C2493 1.377 . S
C2493 H2477 0.930 . S
C2493 C2492 1.377 . S
C2493 C2494 1.379 . S
C2494 H2478 0.931 . S
C2494 C2488 1.383 . S
C2494 C2493 1.379 . S
H2495 C2489 0.959 . S
H2496 C2489 0.961 . S
H2497 C2489 0.960 . S
H2498 C2490 0.930 . S
H2499 C2491 0.929 . S
H2500 C2508 0.929 . S
H2501 C2510 0.930 . S
H2502 C2512 0.930 . S
H2503 C2515 0.929 . S
H2504 C2518 0.930 . S
H2505 C2520 0.960 . S
H2506 C2520 0.960 . S
H2507 C2520 0.960 . S
C2508 H2500 0.929 . S
C2508 C2509 1.377 . S
C2508 C2510 1.384 . S
C2509 C2508 1.377 . S
C2509 C2515 1.390 . S
C2510 H2501 0.930 . S
C2510 C2508 1.384 . S
C2510 C2511 1.372 . S
C2511 C2510 1.372 . S
C2511 C2512 1.400 . S
C2511 C2516 1.490 . S
C2512 H2502 0.930 . S
C2512 C2511 1.400 . S
C2512 C2515 1.386 . S
H2513 C2529 0.930 1_455 S
H2514 C2530 0.931 . S
C2515 H2503 0.929 . S
C2515 C2509 1.390 . S
C2515 C2512 1.386 . S
C2516 C2511 1.490 . S
C2516 C2518 1.395 . S
C2516 C2519 1.403 . S
H2517 C2523 0.930 . S
C2518 H2504 0.930 . S
C2518 C2516 1.395 . S
C2518 C2521 1.403 . S
C2519 C2516 1.403 . S
C2519 C2520 1.524 . S
C2519 C2523 1.400 . S
C2520 H2505 0.960 . S
C2520 H2506 0.960 . S
C2520 H2507 0.960 . S
C2520 C2519 1.524 . S
C2521 C2518 1.403 . S
C2521 C2522 1.392 . S
C2521 C2525 1.495 . S
C2522 C2521 1.392 . S
C2522 C2523 1.385 . S
C2522 C2524 1.478 . S
C2523 H2517 0.930 . S
C2523 C2519 1.400 . S
C2523 C2522 1.385 . S
C2524 C2522 1.478 . S
C2524 C2526 1.381 . S
C2524 C2530 1.383 . S
C2525 C2521 1.495 . S
C2525 H2531 0.959 . S
C2525 H2532 0.961 . S
C2525 H2533 0.960 . S
C2526 C2524 1.381 . S
C2526 C2527 1.394 . S
C2526 H2534 0.930 . S
C2527 C2526 1.394 . S
C2527 C2528 1.383 1_655 S
C2527 H2535 0.929 1_655 S
C2528 C2527 1.383 1_455 S
C2528 C2529 1.377 1_455 S
C2529 H2513 0.930 1_655 S
C2529 C2528 1.377 1_655 S
C2529 C2530 1.379 . S
C2530 H2514 0.931 . S
C2530 C2524 1.383 . S
C2530 C2529 1.379 . S
H2531 C2525 0.959 . S
H2532 C2525 0.961 . S
H2533 C2525 0.960 . S
H2534 C2526 0.930 . S
H2535 C2527 0.929 1_455 S
H2536 C2544 0.929 . S
H2537 C2546 0.930 . S
H2538 C2548 0.930 . S
H2539 C2551 0.929 . S
H2540 C2554 0.930 . S
H2541 C2556 0.960 . S
H2542 C2556 0.960 . S
H2543 C2556 0.960 . S
C2544 H2536 0.929 . S
C2544 C2545 1.377 . S
C2544 C2546 1.384 . S
C2545 C2544 1.377 . S
C2545 C2551 1.390 . S
C2546 H2537 0.930 . S
C2546 C2544 1.384 . S
C2546 C2547 1.372 . S
C2547 C2546 1.372 . S
C2547 C2548 1.400 . S
C2547 C2552 1.490 . S
C2548 H2538 0.930 . S
C2548 C2547 1.400 . S
C2548 C2551 1.386 . S
H2549 C2565 0.930 . S
H2550 C2566 0.931 . S
C2551 H2539 0.929 . S
C2551 C2545 1.390 . S
C2551 C2548 1.386 . S
C2552 C2547 1.490 . S
C2552 C2554 1.395 . S
C2552 C2555 1.403 . S
H2553 C2559 0.930 . S
C2554 H2540 0.930 . S
C2554 C2552 1.395 . S
C2554 C2557 1.403 . S
C2555 C2552 1.403 . S
C2555 C2556 1.524 . S
C2555 C2559 1.400 . S
C2556 H2541 0.960 . S
C2556 H2542 0.960 . S
C2556 H2543 0.960 . S
C2556 C2555 1.524 . S
C2557 C2554 1.403 . S
C2557 C2558 1.392 . S
C2557 C2561 1.495 . S
C2558 C2557 1.392 . S
C2558 C2559 1.385 . S
C2558 C2560 1.478 . S
C2559 H2553 0.930 . S
C2559 C2555 1.400 . S
C2559 C2558 1.385 . S
C2560 C2558 1.478 . S
C2560 C2562 1.381 . S
C2560 C2566 1.383 . S
C2561 C2557 1.495 . S
C2561 H2567 0.959 . S
C2561 H2568 0.961 . S
C2561 H2569 0.960 . S
C2562 C2560 1.381 . S
C2562 C2563 1.394 . S
C2562 H2570 0.930 . S
C2563 C2562 1.394 . S
C2563 C2564 1.383 . S
C2563 H2571 0.929 . S
C2564 C2563 1.383 . S
C2564 C2565 1.377 . S
C2565 H2549 0.930 . S
C2565 C2564 1.377 . S
C2565 C2566 1.379 . S
C2566 H2550 0.931 . S
C2566 C2560 1.383 . S
C2566 C2565 1.379 . S
H2567 C2561 0.959 . S
H2568 C2561 0.961 . S
H2569 C2561 0.960 . S
H2570 C2562 0.930 . S
H2571 C2563 0.929 . S
H2572 C2580 0.929 1_455 S
H2573 C2582 0.930 . S
H2574 C2584 0.930 . S
H2575 C2587 0.929 1_455 S
H2576 C2590 0.930 . S
H2577 C2592 0.960 . S
H2578 C2592 0.960 . S
H2579 C2592 0.960 . S
C2580 H2572 0.929 1_655 S
C2580 C2581 1.377 1_655 S
C2580 C2582 1.384 . S
C2581 C2580 1.377 1_455 S
C2581 C2587 1.390 1_455 S
C2582 H2573 0.930 . S
C2582 C2580 1.384 . S
C2582 C2583 1.372 . S
C2583 C2582 1.372 . S
C2583 C2584 1.400 . S
C2583 C2588 1.490 . S
C2584 H2574 0.930 . S
C2584 C2583 1.400 . S
C2584 C2587 1.386 . S
H2585 C2601 0.930 . S
H2586 C2602 0.931 . S
C2587 H2575 0.929 1_655 S
C2587 C2581 1.390 1_655 S
C2587 C2584 1.386 . S
C2588 C2583 1.490 . S
C2588 C2590 1.395 . S
C2588 C2591 1.403 . S
H2589 C2595 0.930 . S
C2590 H2576 0.930 . S
C2590 C2588 1.395 . S
C2590 C2593 1.403 . S
C2591 C2588 1.403 . S
C2591 C2592 1.524 . S
C2591 C2595 1.400 . S
C2592 H2577 0.960 . S
C2592 H2578 0.960 . S
C2592 H2579 0.960 . S
C2592 C2591 1.524 . S
C2593 C2590 1.403 . S
C2593 C2594 1.392 . S
C2593 C2597 1.495 . S
C2594 C2593 1.392 . S
C2594 C2595 1.385 . S
C2594 C2596 1.478 . S
C2595 H2589 0.930 . S
C2595 C2591 1.400 . S
C2595 C2594 1.385 . S
C2596 C2594 1.478 . S
C2596 C2598 1.381 . S
C2596 C2602 1.383 . S
C2597 C2593 1.495 . S
C2597 H2603 0.959 . S
C2597 H2604 0.961 . S
C2597 H2605 0.960 . S
C2598 C2596 1.381 . S
C2598 C2599 1.394 . S
C2598 H2606 0.930 . S
C2599 C2598 1.394 . S
C2599 C2600 1.383 . S
C2599 H2607 0.929 . S
C2600 C2599 1.383 . S
C2600 C2601 1.377 . S
C2601 H2585 0.930 . S
C2601 C2600 1.377 . S
C2601 C2602 1.379 . S
C2602 H2586 0.931 . S
C2602 C2596 1.383 . S
C2602 C2601 1.379 . S
H2603 C2597 0.959 . S
H2604 C2597 0.961 . S
H2605 C2597 0.960 . S
H2606 C2598 0.930 . S
H2607 C2599 0.929 . S
H2608 C2616 0.929 . S
H2609 C2618 0.930 . S
H2610 C2620 0.930 . S
H2611 C2623 0.929 . S
H2612 C2626 0.930 . S
H2613 C2628 0.960 . S
H2614 C2628 0.960 . S
H2615 C2628 0.960 . S
C2616 H2608 0.929 . S
C2616 C2617 1.377 . S
C2616 C2618 1.384 . S
C2617 C2616 1.377 . S
C2617 C2623 1.390 . S
C2618 H2609 0.930 . S
C2618 C2616 1.384 . S
C2618 C2619 1.372 . S
C2619 C2618 1.372 . S
C2619 C2620 1.400 . S
C2619 C2624 1.490 . S
C2620 H2610 0.930 . S
C2620 C2619 1.400 . S
C2620 C2623 1.386 . S
H2621 C2637 0.930 . S
H2622 C2638 0.931 . S
C2623 H2611 0.929 . S
C2623 C2617 1.390 . S
C2623 C2620 1.386 . S
C2624 C2619 1.490 . S
C2624 C2626 1.395 . S
C2624 C2627 1.403 . S
H2625 C2631 0.930 . S
C2626 H2612 0.930 . S
C2626 C2624 1.395 . S
C2626 C2629 1.403 . S
C2627 C2624 1.403 . S
C2627 C2628 1.524 . S
C2627 C2631 1.400 . S
C2628 H2613 0.960 . S
C2628 H2614 0.960 . S
C2628 H2615 0.960 . S
C2628 C2627 1.524 . S
C2629 C2626 1.403 . S
C2629 C2630 1.392 . S
C2629 C2633 1.495 . S
C2630 C2629 1.392 . S
C2630 C2631 1.385 . S
C2630 C2632 1.478 . S
C2631 H2625 0.930 . S
C2631 C2627 1.400 . S
C2631 C2630 1.385 . S
C2632 C2630 1.478 . S
C2632 C2634 1.381 . S
C2632 C2638 1.383 . S
C2633 C2629 1.495 . S
C2633 H2639 0.959 . S
C2633 H2640 0.961 . S
C2633 H2641 0.960 . S
C2634 C2632 1.381 . S
C2634 C2635 1.394 . S
C2634 H2642 0.930 . S
C2635 C2634 1.394 . S
C2635 C2636 1.383 . S
C2635 H2643 0.929 . S
C2636 C2635 1.383 . S
C2636 C2637 1.377 . S
C2637 H2621 0.930 . S
C2637 C2636 1.377 . S
C2637 C2638 1.379 . S
C2638 H2622 0.931 . S
C2638 C2632 1.383 . S
C2638 C2637 1.379 . S
H2639 C2633 0.959 . S
H2640 C2633 0.961 . S
H2641 C2633 0.960 . S
H2642 C2634 0.930 . S
H2643 C2635 0.929 . S
H2644 C2652 0.929 . S
H2645 C2654 0.930 . S
H2646 C2656 0.930 . S
H2647 C2659 0.944 . S
H2648 C2662 0.930 . S
H2649 C2664 0.960 . S
H2650 C2664 0.960 . S
H2651 C2664 0.960 . S
C2652 H2644 0.929 . S
C2652 C2653 1.377 1_455 S
C2652 C2654 1.384 . S
C2653 C2652 1.377 1_655 S
C2653 C2659 1.397 . S
C2654 H2645 0.930 . S
C2654 C2652 1.384 . S
C2654 C2655 1.372 . S
C2655 C2654 1.372 . S
C2655 C2656 1.400 . S
C2655 C2660 1.490 . S
C2656 H2646 0.930 . S
C2656 C2655 1.400 . S
C2656 C2659 1.364 1_455 S
H2657 C2673 0.930 . S
H2658 C2674 0.931 . S
C2659 H2647 0.944 . S
C2659 C2653 1.397 . S
C2659 C2656 1.364 1_655 S
C2660 C2655 1.490 . S
C2660 C2662 1.395 . S
C2660 C2663 1.403 . S
H2661 C2667 0.930 . S
C2662 H2648 0.930 . S
C2662 C2660 1.395 . S
C2662 C2665 1.403 . S
C2663 C2660 1.403 . S
C2663 C2664 1.524 . S
C2663 C2667 1.400 . S
C2664 H2649 0.960 . S
C2664 H2650 0.960 . S
C2664 H2651 0.960 . S
C2664 C2663 1.524 . S
C2665 C2662 1.403 . S
C2665 C2666 1.392 . S
C2665 C2669 1.495 . S
C2666 C2665 1.392 . S
C2666 C2667 1.385 . S
C2666 C2668 1.478 . S
C2667 H2661 0.930 . S
C2667 C2663 1.400 . S
C2667 C2666 1.385 . S
C2668 C2666 1.478 . S
C2668 C2670 1.381 . S
C2668 C2674 1.383 . S
C2669 C2665 1.495 . S
C2669 H2675 0.959 . S
C2669 H2676 0.961 . S
C2669 H2677 0.960 . S
C2670 C2668 1.381 . S
C2670 C2671 1.394 . S
C2670 H2678 0.930 . S
C2671 C2670 1.394 . S
C2671 C2672 1.383 . S
C2671 H2679 0.929 . S
C2672 C2671 1.383 . S
C2672 C2673 1.377 . S
C2673 H2657 0.930 . S
C2673 C2672 1.377 . S
C2673 C2674 1.379 . S
C2674 H2658 0.931 . S
C2674 C2668 1.383 . S
C2674 C2673 1.379 . S
H2675 C2669 0.959 . S
H2676 C2669 0.961 . S
H2677 C2669 0.960 . S
H2678 C2670 0.930 . S
H2679 C2671 0.929 . S
H2680 C2688 0.929 . S
H2681 C2690 0.930 . S
H2682 C2692 0.930 . S
H2683 C2695 0.929 . S
H2684 C2698 0.930 . S
H2685 C2700 0.960 . S
H2686 C2700 0.960 . S
H2687 C2700 0.960 . S
C2688 H2680 0.929 . S
C2688 C2689 1.377 . S
C2688 C2690 1.384 . S
C2689 C2688 1.377 . S
C2689 C2695 1.390 . S
C2690 H2681 0.930 . S
C2690 C2688 1.384 . S
C2690 C2691 1.372 . S
C2691 C2690 1.372 . S
C2691 C2692 1.400 . S
C2691 C2696 1.490 . S
C2692 H2682 0.930 . S
C2692 C2691 1.400 . S
C2692 C2695 1.386 . S
H2693 C2709 0.930 . S
H2694 C2710 0.931 . S
C2695 H2683 0.929 . S
C2695 C2689 1.390 . S
C2695 C2692 1.386 . S
C2696 C2691 1.490 . S
C2696 C2698 1.395 . S
C2696 C2699 1.403 . S
H2697 C2703 0.930 . S
C2698 H2684 0.930 . S
C2698 C2696 1.395 . S
C2698 C2701 1.403 . S
C2699 C2696 1.403 . S
C2699 C2700 1.524 . S
C2699 C2703 1.400 . S
C2700 H2685 0.960 . S
C2700 H2686 0.960 . S
C2700 H2687 0.960 . S
C2700 C2699 1.524 . S
C2701 C2698 1.403 . S
C2701 C2702 1.392 . S
C2701 C2705 1.495 . S
C2702 C2701 1.392 . S
C2702 C2703 1.385 . S
C2702 C2704 1.478 . S
C2703 H2697 0.930 . S
C2703 C2699 1.400 . S
C2703 C2702 1.385 . S
C2704 C2702 1.478 . S
C2704 C2706 1.381 . S
C2704 C2710 1.383 . S
C2705 C2701 1.495 . S
C2705 H2711 0.959 . S
C2705 H2712 0.961 . S
C2705 H2713 0.960 . S
C2706 C2704 1.381 . S
C2706 C2707 1.394 . S
C2706 H2714 0.930 . S
C2707 C2706 1.394 . S
C2707 C2708 1.383 . S
C2707 H2715 0.929 . S
C2708 C2707 1.383 . S
C2708 C2709 1.377 . S
C2709 H2693 0.930 . S
C2709 C2708 1.377 . S
C2709 C2710 1.379 . S
C2710 H2694 0.931 . S
C2710 C2704 1.383 . S
C2710 C2709 1.379 . S
H2711 C2705 0.959 . S
H2712 C2705 0.961 . S
H2713 C2705 0.960 . S
H2714 C2706 0.930 . S
H2715 C2707 0.929 . S
H2716 C2724 0.927 . S
H2717 C2726 0.930 . S
H2718 C2728 0.930 . S
H2719 C2731 0.929 . S
H2720 C2734 0.930 . S
H2721 C2736 0.960 . S
H2722 C2736 0.960 . S
H2723 C2736 0.960 . S
C2724 H2716 0.927 . S
C2724 C2725 1.376 . S
C2724 C2726 1.387 1_655 S
C2725 C2724 1.376 . S
C2725 C2731 1.390 1_655 S
C2726 H2717 0.930 . S
C2726 C2724 1.387 1_455 S
C2726 C2727 1.372 . S
C2727 C2726 1.372 . S
C2727 C2728 1.400 . S
C2727 C2732 1.490 . S
C2728 H2718 0.930 . S
C2728 C2727 1.400 . S
C2728 C2731 1.386 . S
H2729 C2745 0.930 . S
H2730 C2746 0.931 . S
C2731 H2719 0.929 . S
C2731 C2725 1.390 1_455 S
C2731 C2728 1.386 . S
C2732 C2727 1.490 . S
C2732 C2734 1.395 . S
C2732 C2735 1.403 . S
H2733 C2739 0.930 . S
C2734 H2720 0.930 . S
C2734 C2732 1.395 . S
C2734 C2737 1.403 . S
C2735 C2732 1.403 . S
C2735 C2736 1.524 . S
C2735 C2739 1.400 . S
C2736 H2721 0.960 . S
C2736 H2722 0.960 . S
C2736 H2723 0.960 . S
C2736 C2735 1.524 . S
C2737 C2734 1.403 . S
C2737 C2738 1.392 . S
C2737 C2741 1.495 . S
C2738 C2737 1.392 . S
C2738 C2739 1.385 . S
C2738 C2740 1.478 . S
C2739 H2733 0.930 . S
C2739 C2735 1.400 . S
C2739 C2738 1.385 . S
C2740 C2738 1.478 . S
C2740 C2742 1.381 . S
C2740 C2746 1.383 . S
C2741 C2737 1.495 . S
C2741 H2747 0.959 . S
C2741 H2748 0.961 . S
C2741 H2749 0.960 . S
C2742 C2740 1.381 . S
C2742 C2743 1.394 . S
C2742 H2750 0.930 . S
C2743 C2742 1.394 . S
C2743 C2744 1.383 . S
C2743 H2751 0.929 . S
C2744 C2743 1.383 . S
C2744 C2745 1.377 . S
C2745 H2729 0.930 . S
C2745 C2744 1.377 . S
C2745 C2746 1.379 . S
C2746 H2730 0.931 . S
C2746 C2740 1.383 . S
C2746 C2745 1.379 . S
H2747 C2741 0.959 . S
H2748 C2741 0.961 . S
H2749 C2741 0.960 . S
H2750 C2742 0.930 . S
H2751 C2743 0.929 . S
C457 C7 0.974 . S
C476 C49 0.998 . S
C493 C35 0.974 . S
C512 C21 0.985 . S
C529 C63 0.986 . S
C548 C105 1.016 . S
C565 C91 0.977 . S
C584 C77 0.991 . S
C601 C119 0.963 . S
C620 C161 0.961 . S
C637 C147 0.957 . S
C656 C133 0.924 . S
C673 C175 0.950 . S
C692 C217 0.932 . S
C709 C189 0.950 . S
C728 C203 0.933 . S
C745 C273 0.963 . S
C764 C231 0.945 . S
C781 C245 0.961 . S
C800 C259 0.984 . S
C817 C287 0.963 . S
C836 C329 0.968 . S
C853 C315 0.960 . S
C872 C301 0.948 . S
C889 C343 0.973 . S
C908 C385 0.984 . S
C925 C371 0.986 . S
C944 C357 0.977 . S
C961 C399 0.977 . S
C980 C441 0.993 . S
C997 C413 0.978 . S
C1016 C427 1.001 . S
C1033 C176 1.532 . S
C1052 C8 1.529 . S
C1069 C22 1.532 . S
C1088 C302 1.529 . S
C1105 C36 1.516 . S
C1124 C92 1.511 . S
C1141 C442 1.516 . S
C1160 C50 1.517 . S
C1177 C64 1.531 . S
C1196 C120 1.530 . S
C1213 C246 1.531 . S
C1232 C78 1.529 . S
C1249 C386 1.516 . S
C1268 C106 1.511 . S
C1285 C414 1.531 . S
C1304 C134 1.526 . S
C1321 C204 1.518 . S
C1340 C148 1.513 . S
C1357 C330 1.519 . S
C1376 C162 1.515 . S
C1393 C190 1.531 . S
C1412 C358 1.526 . S
C1429 C274 1.518 . S
C1448 C218 1.513 . S
C1465 C400 1.531 . S
C1484 C232 1.526 . S
C1501 C316 1.518 . S
C1520 C260 1.516 . S
C1537 C344 1.532 . S
C1556 C288 1.530 . S
C1573 C372 1.516 . S
C1592 C428 1.515 . S
C1609 C143 1.271 . S
C1628 C3 1.247 . S
C1645 C17 1.269 . S
C1664 C157 1.245 . S
C1681 C115 1.249 . S
C1700 C31 1.227 . S
C1717 C129 1.247 . S
C1736 C45 1.218 . S
C1753 C59 1.273 . S
C1772 C199 1.249 . S
C1789 C73 1.275 . S
C1808 C213 1.243 . S
C1825 C171 1.247 . S
C1844 C87 1.232 . S
C1861 C101 1.256 . S
C1880 C185 1.260 . S
C1897 C367 1.249 . S
C1916 C227 1.229 . S
C1933 C381 1.259 . S
C1952 C241 1.275 . S
C1969 C255 1.270 . S
C1988 C339 1.244 . S
C2005 C269 1.282 . S
C2024 C353 1.300 . S
C2041 C283 1.246 . S
C2060 C423 1.249 . S
C2077 C297 1.252 . S
C2096 C437 1.272 . S
C2113 C395 1.273 . S
C2132 C311 1.248 . S
C2149 C409 1.269 . S
C2168 C325 1.298 . S
C2185 C9 1.447 . S
C2204 C359 1.430 . S
C2221 C345 1.446 . S
C2240 C23 1.430 . S
C2257 C37 1.437 1_554 S
C2276 C387 1.449 . S
C2293 C51 1.433 . S
C2312 C373 1.416 . S
C2329 C65 1.449 . S
C2348 C415 1.461 . S
C2365 C79 1.449 . S
C2384 C401 1.461 . S
C2401 C443 1.434 1_556 S
C2420 C93 1.416 . S
C2437 C429 1.435 1_556 S
C2456 C107 1.417 . S
C2473 C247 1.445 . S
C2492 C121 1.444 . S
C2509 C233 1.444 . S
C2528 C135 1.431 . S
C2545 C149 1.439 . S
C2564 C275 1.449 . S
C2581 C163 1.439 . S
C2600 C261 1.448 . S
C2617 C303 1.447 . S
C2636 C177 1.428 . S
C2653 C191 1.449 . S
C2672 C289 1.434 . S
C2689 C205 1.438 . S
C2708 C331 1.448 . S
C2725 C219 1.436 . S
C2744 C317 1.449 . S
