# Generated by pormake.
# Topology wjf, (4)-cn, num edge types: 1
# Building blocks:
#     Node 0, Type 0, BuildingBlock: QUQFOY_clean_sbu_1, # of connection points: 4
#     Node 1, Type 0, BuildingBlock: QUQFOY_clean_sbu_1, # of connection points: 4
#     Node 2, Type 0, BuildingBlock: QUQFOY_clean_sbu_1, # of connection points: 4
#     Node 3, Type 0, BuildingBlock: QUQFOY_clean_sbu_1, # of connection points: 4
#     Node 4, Type 0, BuildingBlock: QUQFOY_clean_sbu_1, # of connection points: 4
#     Node 5, Type 0, BuildingBlock: QUQFOY_clean_sbu_1, # of connection points: 4
#     Node 6, Type 0, BuildingBlock: QUQFOY_clean_sbu_1, # of connection points: 4
#     Node 7, Type 0, BuildingBlock: QUQFOY_clean_sbu_1, # of connection points: 4
#     Node 8, Type 0, BuildingBlock: QUQFOY_clean_sbu_1, # of connection points: 4
#     Node 9, Type 0, BuildingBlock: QUQFOY_clean_sbu_1, # of connection points: 4
#     Node 10, Type 0, BuildingBlock: QUQFOY_clean_sbu_1, # of connection points: 4
#     Node 11, Type 0, BuildingBlock: QUQFOY_clean_sbu_1, # of connection points: 4
#     Edge 12, Type (0, 0), BuildingBlock: XIVTED_clean_linker_0, # of connection points: 2
#     Edge 13, Type (0, 0), BuildingBlock: XIVTED_clean_linker_0, # of connection points: 2
#     Edge 14, Type (0, 0), BuildingBlock: XIVTED_clean_linker_0, # of connection points: 2
#     Edge 15, Type (0, 0), BuildingBlock: XIVTED_clean_linker_0, # of connection points: 2
#     Edge 16, Type (0, 0), BuildingBlock: XIVTED_clean_linker_0, # of connection points: 2
#     Edge 17, Type (0, 0), BuildingBlock: XIVTED_clean_linker_0, # of connection points: 2
#     Edge 18, Type (0, 0), BuildingBlock: XIVTED_clean_linker_0, # of connection points: 2
#     Edge 19, Type (0, 0), BuildingBlock: XIVTED_clean_linker_0, # of connection points: 2
#     Edge 20, Type (0, 0), BuildingBlock: XIVTED_clean_linker_0, # of connection points: 2
#     Edge 21, Type (0, 0), BuildingBlock: XIVTED_clean_linker_0, # of connection points: 2
#     Edge 22, Type (0, 0), BuildingBlock: XIVTED_clean_linker_0, # of connection points: 2
#     Edge 23, Type (0, 0), BuildingBlock: XIVTED_clean_linker_0, # of connection points: 2
#     Edge 24, Type (0, 0), BuildingBlock: XIVTED_clean_linker_0, # of connection points: 2
#     Edge 25, Type (0, 0), BuildingBlock: XIVTED_clean_linker_0, # of connection points: 2
#     Edge 26, Type (0, 0), BuildingBlock: XIVTED_clean_linker_0, # of connection points: 2
#     Edge 27, Type (0, 0), BuildingBlock: XIVTED_clean_linker_0, # of connection points: 2
#     Edge 28, Type (0, 0), BuildingBlock: XIVTED_clean_linker_0, # of connection points: 2
#     Edge 29, Type (0, 0), BuildingBlock: XIVTED_clean_linker_0, # of connection points: 2
#     Edge 30, Type (0, 0), BuildingBlock: XIVTED_clean_linker_0, # of connection points: 2
#     Edge 31, Type (0, 0), BuildingBlock: XIVTED_clean_linker_0, # of connection points: 2
#     Edge 32, Type (0, 0), BuildingBlock: XIVTED_clean_linker_0, # of connection points: 2
#     Edge 33, Type (0, 0), BuildingBlock: XIVTED_clean_linker_0, # of connection points: 2
#     Edge 34, Type (0, 0), BuildingBlock: XIVTED_clean_linker_0, # of connection points: 2
#     Edge 35, Type (0, 0), BuildingBlock: XIVTED_clean_linker_0, # of connection points: 2
# Relax obj value: 0.018
# Max RMSD: 0.065
# Mean RMSD: 0.065
data_MOF--net-wjf--node1-QUQFOY_clean_sbu_1--edge1-XIVTED_clean_linker_0
_symmetry_space_group_name_H-M    P1
_symmetry_Int_Tables_number       1
_symmetry_cell_setting            triclinic
loop_
_symmetry_equiv_pos_as_xyz
'x, y, z'
_cell_length_a     54.122416
_cell_length_b     54.052778
_cell_length_c     28.860722
_cell_angle_alpha  90.030947
_cell_angle_beta   89.95806
_cell_angle_gamma 120.11449
loop_
_atom_site_label
_atom_site_type_symbol
_atom_site_fract_x
_atom_site_fract_y
_atom_site_fract_z
_atom_type_partial_charge
O0 O 0.33105 0.38714 1.00787 0.0
Cd1 Cd 0.3388 0.4158 0.06047 0.0
Cd2 Cd 0.34843 0.37402 0.10358 0.0
O3 O 0.33206 0.35134 0.0427 0.0
O4 O 0.3275 0.44113 0.0278 0.0
O5 O 0.30451 0.41543 0.0891 0.0
C6 C 0.30616 0.43213 0.05574 0.0
C7 C 0.33468 0.3531 0.177 0.0
C8 C 0.32789 0.36224 1.00663 0.0
C9 C 0.39825 0.43454 0.09343 0.0
O10 O 0.38955 0.40827 0.10115 0.0
O11 O 0.38085 0.44255 0.08057 0.0
O12 O 0.3503 0.3476 0.14997 0.0
O13 O 0.32544 0.36936 0.16124 0.0
O14 O 0.95139 0.32993 0.33691 0.0
Cd15 Cd 0.93056 0.33872 0.38834 0.0
Cd16 Cd 0.98184 0.34893 0.43212 0.0
O17 O 0.98834 0.33175 0.37249 0.0
O18 O 0.89404 0.32715 0.35502 0.0
O19 O 0.89627 0.30489 0.41759 0.0
C20 C 0.88142 0.3062 0.38364 0.0
C21 C 0.98752 0.33541 0.50652 0.0
C22 C 0.97315 0.32683 0.33637 0.0
C23 C 0.9717 0.39875 0.41942 0.0
O24 O 0.98921 0.39015 0.42785 0.0
O25 O 0.9462 0.38116 0.40691 0.0
O26 O 0.0092 0.35082 0.48026 0.0
O27 O 0.96231 0.32629 0.48948 0.0
O28 O 0.61834 0.94876 0.67221 0.0
Cd29 Cd 0.59403 0.92904 0.72983 0.0
Cd30 Cd 0.63548 0.97921 0.76743 0.0
O31 O 0.6566 0.98393 0.70539 0.0
O32 O 0.5683 0.88926 0.7072 0.0
O33 O 0.60246 0.90023 0.75888 0.0
C34 C 0.58297 0.88144 0.73201 0.0
C35 C 0.65631 0.98486 0.84035 0.0
C36 C 0.64385 0.96945 0.66953 0.0
C37 C 0.5757 0.96937 0.7638 0.0
O38 O 0.60222 0.98745 0.76663 0.0
O39 O 0.56731 0.94333 0.75435 0.0
O40 O 0.66286 0.00654 0.8139 0.0
O41 O 0.6392 0.95962 0.82403 0.0
O42 O 0.67206 0.61519 1.00275 0.0
Cd43 Cd 0.66777 0.59135 0.06075 0.0
Cd44 Cd 0.65971 0.63303 0.09773 0.0
O45 O 0.67679 0.65412 0.03586 0.0
O46 O 0.68161 0.56553 0.03819 0.0
O47 O 0.70515 0.60003 0.08935 0.0
C48 C 0.70429 0.58044 0.06257 0.0
C49 C 0.67482 0.65376 0.17081 0.0
C50 C 0.67776 0.64097 0.99994 0.0
C51 C 0.60927 0.5734 0.09421 0.0
O52 O 0.61793 0.60001 0.0962 0.0
O53 O 0.62683 0.56481 0.08581 0.0
O54 O 0.66008 0.66061 0.14411 0.0
O55 O 0.68258 0.63636 0.15468 0.0
O56 O 0.05567 0.67787 0.3469 0.0
Cd57 Cd 0.07772 0.66919 0.39616 0.0
Cd58 Cd 0.0258 0.65749 0.443 0.0
O59 O 0.01795 0.67374 0.38358 0.0
O60 O 0.11322 0.68056 0.35969 0.0
O61 O 0.11302 0.70304 0.42336 0.0
C62 C 0.1268 0.70155 0.38792 0.0
C63 C 0.01838 0.67 0.51728 0.0
C64 C 0.03316 0.67966 0.34722 0.0
C65 C 0.03759 0.60873 0.42743 0.0
O66 O 0.02003 0.61691 0.4382 0.0
O67 O 0.06265 0.62663 0.41336 0.0
O68 O 0.9973 0.65389 0.49047 0.0
O69 O 0.04394 0.68027 0.50099 0.0
O70 O 0.39255 0.05837 0.66671 0.0
Cd71 Cd 0.41627 0.07782 0.72497 0.0
Cd72 Cd 0.37454 0.02828 0.76207 0.0
O73 O 0.35369 0.02413 0.70001 0.0
O74 O 0.44199 0.11791 0.70377 0.0
O75 O 0.40707 0.10595 0.75446 0.0
C76 C 0.42681 0.12519 0.72845 0.0
C77 C 0.35366 0.02309 0.83482 0.0
C78 C 0.36677 0.03821 0.66403 0.0
C79 C 0.43388 0.03717 0.7596 0.0
O80 O 0.40728 0.01925 0.76157 0.0
O81 O 0.44258 0.06331 0.75048 0.0
O82 O 0.34672 1.0013 0.8084 0.0
O83 O 0.37121 0.04822 0.81853 0.0
O84 O 0.62333 0.67435 0.68201 0.0
Cd85 Cd 0.5945 0.66825 0.63127 0.0
Cd86 Cd 0.63273 0.65621 0.58177 0.0
O87 O 0.65589 0.66956 0.64316 0.0
O88 O 0.5712 0.68302 0.66136 0.0
O89 O 0.59981 0.70439 0.60181 0.0
C90 C 0.58305 0.70454 0.63359 0.0
C91 C 0.65463 0.67032 0.50901 0.0
C92 C 0.64711 0.67506 0.68057 0.0
C93 C 0.57133 0.60853 0.5951 0.0
O94 O 0.59648 0.61627 0.58131 0.0
O95 O 0.56551 0.62627 0.61406 0.0
O96 O 0.65792 0.65271 0.53477 0.0
O97 O 0.64007 0.68128 0.5257 0.0
O98 O 0.94872 0.61747 0.02543 0.0
Cd99 Cd 0.9294 0.59298 0.96783 0.0
Cd100 Cd 0.97952 0.6344 0.9307 0.0
O101 O 0.9836 0.65591 0.99215 0.0
O102 O 0.88963 0.56737 0.99031 0.0
O103 O 0.90075 0.60122 0.93789 0.0
C104 C 0.88192 0.58194 0.965 0.0
C105 C 0.9854 0.65474 0.85725 0.0
C106 C 0.96909 0.64317 0.02799 0.0
C107 C 0.97 0.57471 0.93563 0.0
O108 O 0.98804 0.60129 0.93302 0.0
O109 O 0.94386 0.56624 0.94411 0.0
O110 O 0.00693 0.66169 0.88419 0.0
O111 O 0.96015 0.63747 0.8733 0.0
O112 O 0.33106 0.95223 0.34422 0.0
Cd113 Cd 0.33869 0.92951 0.2946 0.0
Cd114 Cd 0.3504 0.98112 0.24734 0.0
O115 O 0.33518 0.98983 0.30711 0.0
O116 O 0.32703 0.8939 0.33102 0.0
O117 O 0.30436 0.89444 0.26791 0.0
C118 C 0.30585 0.88052 0.30312 0.0
C119 C 0.33712 0.98811 0.1735 0.0
C120 C 0.32962 0.97496 0.34378 0.0
C121 C 0.39882 0.96881 0.26149 0.0
O122 O 0.39082 0.98653 0.25085 0.0
O123 O 0.38089 0.9439 0.27619 0.0
O124 O 0.35376 0.00937 0.19962 0.0
O125 O 0.32678 0.96263 0.19028 0.0
O126 O 0.38641 0.33276 0.68816 0.0
Cd127 Cd 0.41439 0.33885 0.63589 0.0
Cd128 Cd 0.37467 0.34923 0.58811 0.0
O129 O 0.3523 0.33536 0.65034 0.0
O130 O 0.4383 0.32414 0.66375 0.0
O131 O 0.40843 0.30269 0.60562 0.0
C132 C 0.42582 0.30257 0.63617 0.0
C133 C 0.35238 0.33498 0.51568 0.0
C134 C 0.36208 0.33088 0.68755 0.0
C135 C 0.43592 0.39792 0.59863 0.0
O136 O 0.41036 0.38957 0.58648 0.0
O137 O 0.44263 0.38074 0.6171 0.0
O138 O 0.34856 0.35198 0.54217 0.0
O139 O 0.36754 0.32451 0.53161 0.0
O140 O 0.05652 0.38271 0.0165 0.0
Cd141 Cd 0.07757 0.41276 0.96569 0.0
Cd142 Cd 0.02626 0.3715 0.92093 0.0
O143 O 0.01942 0.34774 0.98061 0.0
O144 O 0.11366 0.4379 1.00003 0.0
O145 O 0.11235 0.41403 0.93714 0.0
C146 C 0.12675 0.43009 0.97155 0.0
C147 C 0.02049 0.35209 0.84661 0.0
C148 C 0.03462 0.35786 0.0168 0.0
C149 C 0.03665 0.43163 0.93394 0.0
O150 O 0.01919 0.40552 0.92482 0.0
O151 O 0.06196 0.43949 0.94729 0.0
O152 O 0.99884 0.34594 0.8728 0.0
O153 O 0.04572 0.36817 0.86369 0.0
O154 O 0.67711 0.0563 0.34866 0.0
Cd155 Cd 0.66909 0.07769 0.29723 0.0
Cd156 Cd 0.65813 0.02601 0.25303 0.0
O157 O 0.674 0.01863 0.31326 0.0
O158 O 0.68098 0.11425 0.33091 0.0
O159 O 0.70324 0.1119 0.26842 0.0
C160 C 0.70201 0.1268 0.30243 0.0
C161 C 0.67202 0.0196 0.1793 0.0
C162 C 0.67922 0.03395 0.34935 0.0
C163 C 0.60907 0.03737 0.26517 0.0
O164 O 0.61731 0.01962 0.25621 0.0
O165 O 0.62685 0.06268 0.27844 0.0
O166 O 0.65587 0.99813 0.20547 0.0
O167 O 0.68158 0.045 0.19605 0.0
H168 H 0.35083 0.31806 0.21911 0.0
H169 H 0.31902 0.3532 0.47368 0.0
H170 H 0.30854 0.36622 0.24671 0.0
H171 H 0.36318 0.30684 0.44626 0.0
H172 H 0.30889 0.35213 0.39107 0.0
H173 H 0.34942 0.30784 0.30178 0.0
C174 C 0.34088 0.32618 0.24246 0.0
C175 C 0.33002 0.34327 0.22589 0.0
C176 C 0.32049 0.34188 0.40311 0.0
C177 C 0.32859 0.33183 0.32095 0.0
C178 C 0.32625 0.34241 0.45039 0.0
C179 C 0.34223 0.33031 0.46698 0.0
C180 C 0.33092 0.3293 0.37195 0.0
C181 C 0.3509 0.31654 0.43507 0.0
C182 C 0.34014 0.32037 0.28976 0.0
C183 C 0.31729 0.35307 0.25787 0.0
N184 N 0.34541 0.31669 0.38906 0.0
N185 N 0.31721 0.34747 0.30388 0.0
H186 H 0.94676 0.30771 0.57369 0.0
H187 H 0.06122 0.36505 0.77948 0.0
H188 H 0.03799 0.35314 0.55216 0.0
H189 H 0.96999 0.31923 0.80099 0.0
H190 H 0.05317 0.35562 0.69631 0.0
H191 H 0.95479 0.3064 0.65686 0.0
C192 C 0.96847 0.31705 0.58632 0.0
C193 C 0.99173 0.33078 0.55587 0.0
C194 C 0.03491 0.34734 0.71928 0.0
C195 C 1.00111 0.32963 0.65121 0.0
C196 C 0.03951 0.35266 0.76684 0.0
C197 C 0.01625 0.34315 0.79729 0.0
C198 C 0.00685 0.33251 0.70195 0.0
C199 C 0.98858 0.32717 0.77884 0.0
C200 C 0.97305 0.31638 0.63389 0.0
C201 C 0.01939 0.34249 0.57431 0.0
N202 N 0.98466 0.32261 0.73241 0.0
N203 N 0.02331 0.3419 0.62074 0.0
H204 H 0.64288 0.94427 0.9079 0.0
H205 H 0.70102 0.05993 0.11203 0.0
H206 H 0.69053 0.03547 0.88511 0.0
H207 H 0.65393 0.9687 0.13461 0.0
H208 H 0.70296 0.05136 0.02919 0.0
H209 H 0.65234 0.95266 0.99097 0.0
C210 C 0.65571 0.96604 0.92023 0.0
C211 C 0.66568 0.9892 0.88945 0.0
C212 C 0.6925 0.03321 0.05234 0.0
C213 C 0.67631 0.999 0.98471 0.0
C214 C 0.69145 0.0381 0.09971 0.0
C215 C 0.67705 0.01501 0.13032 0.0
C216 C 0.67895 0.00501 0.03537 0.0
C217 C 0.66508 0.98718 0.1123 0.0
C218 C 0.66103 0.97083 0.96774 0.0
C219 C 0.68223 0.01694 0.90752 0.0
N220 N 0.66604 0.98297 0.06604 0.0
N221 N 0.68674 0.02107 0.95393 0.0
H222 H 0.70082 0.63944 0.23893 0.0
H223 H 0.64609 0.70117 0.44161 0.0
H224 H 0.65964 0.68902 0.21496 0.0
H225 H 0.686 0.65036 0.46513 0.0
H226 H 0.65709 0.70288 0.35898 0.0
H227 H 0.7019 0.64916 0.32192 0.0
C228 C 0.69241 0.65275 0.25099 0.0
C229 C 0.67986 0.66318 0.2199 0.0
C230 C 0.66376 0.69165 0.3823 0.0
C231 C 0.68072 0.67414 0.31506 0.0
C232 C 0.65756 0.69075 0.42956 0.0
C233 C 0.66487 0.67536 0.46035 0.0
C234 C 0.67729 0.67697 0.36565 0.0
C235 C 0.67972 0.66229 0.44267 0.0
C236 C 0.69294 0.65822 0.29845 0.0
C237 C 0.66933 0.68033 0.23762 0.0
N238 N 0.68517 0.66315 0.39652 0.0
N239 N 0.66972 0.685 0.28399 0.0
H240 H 0.03598 0.69054 0.81375 0.0
H241 H 0.967 0.65118 0.5606 0.0
H242 H 0.94538 0.63946 0.78824 0.0
H243 H 0.05781 0.6981 0.5861 0.0
H244 H 0.95851 0.65273 0.64336 0.0
H245 H 0.04399 0.69958 0.73068 0.0
C246 C 0.0177 0.68154 0.79078 0.0
C247 C 0.98996 0.66397 0.80807 0.0
C248 C 0.9803 0.66296 0.63086 0.0
C249 C 0.99907 0.67406 0.71257 0.0
C250 C 0.9852 0.66214 0.58351 0.0
C251 C 0.01319 0.67431 0.56633 0.0
C252 C 1.00355 0.67596 0.66149 0.0
C253 C 0.03588 0.68831 0.59776 0.0
C254 C 0.02232 0.68666 0.74325 0.0
C255 C 0.96714 0.65301 0.77653 0.0
N256 N 0.03056 0.68851 0.64384 0.0
N257 N 0.97223 0.65799 0.73031 0.0
H258 H 0.30715 0.94812 0.10624 0.0
H259 H 0.36797 0.06385 0.90239 0.0
H260 H 0.35662 0.03925 0.12893 0.0
H261 H 0.31833 0.97276 0.87941 0.0
H262 H 0.35835 0.05558 0.98544 0.0
H263 H 0.30541 0.95694 0.02347 0.0
C264 C 0.3173 0.96999 0.09396 0.0
C265 C 0.3323 0.99296 0.12458 0.0
C266 C 0.34925 0.03741 0.96218 0.0
C267 C 0.33062 1.00324 0.02972 0.0
C268 C 0.35466 0.04214 0.91467 0.0
C269 C 0.3442 0.01896 0.88386 0.0
C270 C 0.33337 0.00928 0.97909 0.0
C271 C 0.32704 0.99129 0.90186 0.0
C272 C 0.31636 0.97502 0.04663 0.0
C273 C 0.345 0.02085 0.10662 0.0
N274 N 0.32245 0.98721 0.94827 0.0
N275 N 0.34412 0.02518 0.0604 0.0
H276 H 0.16483 0.42619 0.91314 0.0
H277 H 0.26306 0.42574 0.11384 0.0
H278 H 0.15535 0.44778 0.0535 0.0
H279 H 0.29543 0.45093 0.9748 0.0
H280 H 0.22138 0.42999 0.09275 0.0
H281 H 0.21116 0.43145 0.93447 0.0
C282 C 0.17264 0.43238 0.94821 0.0
C283 C 0.15624 0.43659 0.98155 0.0
C284 C 0.23785 0.43493 0.06713 0.0
C285 C 0.20867 0.44191 1.00636 0.0
C286 C 0.26158 0.43251 0.07913 0.0
C287 C 0.28275 0.43803 0.04608 0.0
C288 C 0.23496 0.4422 0.02149 0.0
C289 C 0.2797 0.4466 1.00148 0.0
C290 C 0.19904 0.43539 0.96034 0.0
C291 C 0.16734 0.44446 0.0266 0.0
N292 N 0.25604 0.44799 0.99027 0.0
N293 N 0.19264 0.44644 0.03788 0.0
H294 H 0.84421 0.26389 0.44267 0.0
H295 H 0.74442 0.16395 0.24355 0.0
H296 H 0.85201 0.29464 0.30242 0.0
H297 H 0.71361 0.15618 0.38378 0.0
H298 H 0.78611 0.21022 0.26403 0.0
H299 H 0.79796 0.22218 0.42227 0.0
C300 C 0.83605 0.26206 0.40782 0.0
C301 C 0.85196 0.28278 0.37425 0.0
C302 C 0.76999 0.19849 0.29007 0.0
C303 C 0.7996 0.23494 0.35045 0.0
C304 C 0.74625 0.17212 0.27842 0.0
C305 C 0.7255 0.15622 0.31195 0.0
C306 C 0.77331 0.2086 0.33583 0.0
C307 C 0.729 0.16778 0.35673 0.0
C308 C 0.8097 0.2383 0.39621 0.0
C309 C 0.84041 0.27926 0.3295 0.0
N310 N 0.75265 0.19304 0.36756 0.0
N311 N 0.81516 0.25559 0.31871 0.0
H312 H 0.53541 0.83161 0.70593 0.0
H313 H 0.6224 0.76021 0.61576 0.0
H314 H 0.62487 0.8677 0.73737 0.0
H315 H 0.53846 0.70689 0.67384 0.0
H316 H 0.62132 0.80264 0.64324 0.0
H317 H 0.53375 0.7874 0.68018 0.0
C318 C 0.55455 0.83003 0.7081 0.0
C319 C 0.58026 0.85318 0.7242 0.0
C320 C 0.60306 0.78161 0.64948 0.0
C321 C 0.57875 0.80349 0.69299 0.0
C322 C 0.60349 0.75747 0.63333 0.0
C323 C 0.58044 0.73005 0.64247 0.0
C324 C 0.57916 0.77831 0.67389 0.0
C325 C 0.55665 0.72769 0.66609 0.0
C326 C 0.5536 0.80494 0.69325 0.0
C327 C 0.60454 0.8502 0.72581 0.0
N328 N 0.55652 0.75155 0.68084 0.0
N329 N 0.60333 0.82598 0.70961 0.0
H330 H 0.70649 0.53338 0.03344 0.0
H331 H 0.86742 0.62303 0.95222 0.0
H332 H 0.76008 0.62222 0.06998 0.0
H333 H 0.83291 0.53572 0.99732 0.0
H334 H 0.82369 0.62156 0.97895 0.0
H335 H 0.7491 0.53223 1.00699 0.0
C336 C 0.72727 0.55248 0.03657 0.0
C337 C 0.72985 0.57788 0.05429 0.0
C338 C 0.82565 0.60266 0.98249 0.0
C339 C 0.77818 0.57697 0.02238 0.0
C340 C 0.85037 0.60334 0.96671 0.0
C341 C 0.85373 0.57943 0.97251 0.0
C342 C 0.80391 0.57772 1.00326 0.0
C343 C 0.83112 0.5546 0.99222 0.0
C344 C 0.75145 0.55183 0.0213 0.0
C345 C 0.7572 0.60212 0.05713 0.0
N346 N 0.80706 0.55433 1.0068 0.0
N347 N 0.78027 0.6012 0.04062 0.0
H348 H 0.15444 0.71181 0.30501 0.0
H349 H 0.29559 0.85281 0.38596 0.0
H350 H 0.16556 0.74455 0.44451 0.0
H351 H 0.26266 0.84192 0.24672 0.0
H352 H 0.25396 0.8071 0.40753 0.0
H353 H 0.20013 0.75344 0.28347 0.0
C354 C 0.1667 0.72749 0.33137 0.0
C355 C 0.1561 0.72472 0.37669 0.0
C356 C 0.25603 0.81462 0.37218 0.0
C357 C 0.20846 0.77232 0.35208 0.0
C358 C 0.27986 0.8406 0.35966 0.0
C359 C 0.28258 0.85126 0.31441 0.0
C360 C 0.23499 0.79889 0.33904 0.0
C361 C 0.26137 0.83456 0.28198 0.0
C362 C 0.19267 0.75132 0.31887 0.0
C363 C 0.17287 0.74587 0.4092 0.0
N364 N 0.23845 0.80915 0.29492 0.0
N365 N 0.19827 0.7688 0.39626 0.0
H366 H 0.47425 0.17548 0.70355 0.0
H367 H 0.38634 0.24698 0.61789 0.0
H368 H 0.38459 0.13847 0.73448 0.0
H369 H 0.4707 0.29997 0.67457 0.0
H370 H 0.38762 0.20441 0.64377 0.0
H371 H 0.47565 0.21978 0.67923 0.0
C372 C 0.455 0.17686 0.7059 0.0
C373 C 0.42931 0.15342 0.72142 0.0
C374 C 0.40592 0.22539 0.65006 0.0
C375 C 0.43054 0.20326 0.69187 0.0
C376 C 0.40538 0.24963 0.63482 0.0
C377 C 0.42849 0.277 0.64404 0.0
C378 C 0.43 0.22855 0.67368 0.0
C379 C 0.45246 0.27922 0.66679 0.0
C380 C 0.45581 0.20201 0.69186 0.0
C381 C 0.4049 0.15617 0.72332 0.0
N382 N 0.45268 0.25527 0.68069 0.0
N383 N 0.40599 0.18048 0.70795 0.0
H384 H 0.32155 0.34495 0.71213 0.0
H385 H 0.33705 0.3186 0.98027 0.0
H386 H 0.3677 0.30493 0.76432 0.0
H387 H 0.30585 0.37295 0.92933 0.0
H388 H 0.33629 0.30217 0.90087 0.0
H389 H 0.30379 0.34406 0.79071 0.0
C390 C 0.32742 0.33542 0.73987 0.0
C391 C 0.34656 0.32553 0.73193 0.0
C392 C 0.32915 0.31733 0.90725 0.0
C393 C 0.32652 0.32454 0.82162 0.0
C394 C 0.32944 0.3266 0.95259 0.0
C395 C 0.32206 0.3476 0.96127 0.0
C396 C 0.32133 0.32911 0.87051 0.0
C397 C 0.31228 0.35715 0.92406 0.0
C398 C 0.31741 0.33502 0.78473 0.0
C399 C 0.35343 0.31332 0.76912 0.0
N400 N 0.31256 0.34813 0.88027 0.0
N401 N 0.34372 0.31348 0.8124 0.0
H402 H 0.02629 0.33719 0.30983 0.0
H403 H 0.98125 0.31514 0.04313 0.0
H404 H 0.93978 0.30185 0.26059 0.0
H405 H 0.06787 0.36577 0.09247 0.0
H406 H 0.96587 0.29784 0.12231 0.0
H407 H 0.04154 0.33533 0.23054 0.0
C408 C 0.01041 0.32842 0.28258 0.0
C409 C 0.98185 0.32023 0.29159 0.0
C410 C 0.98833 0.31232 0.11558 0.0
C411 C 0.9991 0.3182 0.20102 0.0
C412 C 0.99712 0.32208 0.07036 0.0
C413 C 0.02577 0.34237 0.06142 0.0
C414 C 0.00837 0.32288 0.15188 0.0
C415 C 0.04545 0.35057 0.09802 0.0
C416 C 0.01913 0.32748 0.23731 0.0
C417 C 0.96214 0.30894 0.25499 0.0
N418 N 0.03634 0.34111 0.14171 0.0
N419 N 0.97119 0.30863 0.21123 0.0
H420 H 0.6306 0.93552 0.59314 0.0
H421 H 0.70626 0.06705 0.4245 0.0
H422 H 0.68812 0.02134 0.64089 0.0
H423 H 0.66394 0.97956 0.37707 0.0
H424 H 0.70569 0.05056 0.50332 0.0
H425 H 0.64774 0.95045 0.51428 0.0
C426 C 0.64714 0.95747 0.58707 0.0
C427 C 0.65761 0.97737 0.62348 0.0
C428 C 0.69703 0.03495 0.47564 0.0
C429 C 0.67713 0.99471 0.53304 0.0
C430 C 0.69733 0.04436 0.43058 0.0
C431 C 0.68469 0.02458 0.39434 0.0
C432 C 0.6835 0.0055 0.48471 0.0
C433 C 0.67375 0.9955 0.40406 0.0
C434 C 0.657 0.96596 0.542 0.0
C435 C 0.67932 0.00538 0.61375 0.0
N436 N 0.67286 0.98678 0.44854 0.0
N437 N 0.68798 0.01337 0.56927 0.0
H438 H 0.68447 0.65684 0.70467 0.0
H439 H 0.67443 0.68794 0.97274 0.0
H440 H 0.64504 0.70364 0.75671 0.0
H441 H 0.69433 0.62483 0.92184 0.0
H442 H 0.67666 0.70464 0.89308 0.0
H443 H 0.70144 0.65616 0.78319 0.0
C444 C 0.68001 0.66758 0.73235 0.0
C445 C 0.66288 0.67982 0.72445 0.0
C446 C 0.68098 0.68743 0.89953 0.0
C447 C 0.68197 0.67899 0.81402 0.0
C448 C 0.67978 0.67796 0.94497 0.0
C449 C 0.68361 0.65459 0.95377 0.0
C450 C 0.6862 0.67352 0.86284 0.0
C451 C 0.69064 0.64254 0.91649 0.0
C452 C 0.68953 0.66704 0.77716 0.0
C453 C 0.65773 0.69347 0.76153 0.0
N454 N 0.69139 0.65193 0.87262 0.0
N455 N 0.66691 0.69237 0.8048 0.0
H456 H 0.06578 0.70867 0.27277 0.0
H457 H 0.93492 0.62938 0.10413 0.0
H458 H 0.97839 0.66282 0.32004 0.0
H459 H 0.02027 0.68853 0.05658 0.0
H460 H 0.94934 0.647 0.18289 0.0
H461 H 0.04902 0.70793 0.19411 0.0
C462 C 0.04303 0.69896 0.2667 0.0
C463 C 0.0234 0.68535 0.30281 0.0
C464 C 0.96484 0.65651 0.15522 0.0
C465 C 0.00402 0.68391 0.21261 0.0
C466 C 0.95665 0.64638 0.11021 0.0
C467 C 0.9766 0.65715 0.0739 0.0
C468 C 0.99335 0.67725 0.16425 0.0
C469 C 0.00429 0.67946 0.08364 0.0
C470 C 0.03346 0.69854 0.22174 0.0
C471 C 0.99423 0.6734 0.29315 0.0
N472 N 0.01201 0.6884 0.12809 0.0
N473 N 0.98538 0.6724 0.24873 0.0
H474 H 0.34668 0.03016 0.36918 0.0
H475 H 0.3196 0.98785 0.63729 0.0
H476 H 0.30218 0.94339 0.42005 0.0
H477 H 0.38258 0.07095 0.5859 0.0
H478 H 0.30199 0.97351 0.55796 0.0
H479 H 0.34826 0.04727 0.4484 0.0
C480 C 0.33657 0.0147 0.39677 0.0
C481 C 0.32476 0.98536 0.38826 0.0
C482 C 0.31938 0.99502 0.56425 0.0
C483 C 0.32667 0.00471 0.47867 0.0
C484 C 0.32939 1.00322 0.60949 0.0
C485 C 0.35295 0.03043 0.61803 0.0
C486 C 0.3329 0.01425 0.52752 0.0
C487 C 0.36472 0.04956 0.58073 0.0
C488 C 0.33765 0.02446 0.44199 0.0
C489 C 0.31196 0.96625 0.4253 0.0
N490 N 0.35477 0.04102 0.53707 0.0
N491 N 0.31358 0.97625 0.46899 0.0
H492 H 0.42515 0.49315 0.08687 0.0
H493 H 0.58246 0.51471 0.09748 0.0
H494 H 0.44194 0.42399 0.10974 0.0
H495 H 0.56541 0.58463 0.10169 0.0
H496 H 0.53103 0.48103 0.10083 0.0
H497 H 0.47652 0.52704 0.09087 0.0
C498 C 0.43958 0.48508 0.09291 0.0
C499 C 0.42915 0.45563 0.09785 0.0
C500 C 0.53858 0.50375 0.1013 0.0
C501 C 0.48802 0.49431 0.10219 0.0
C502 C 0.56795 0.523 0.09936 0.0
C503 C 0.57833 0.55258 0.09916 0.0
C504 C 0.5194 0.51412 0.10262 0.0
C505 C 0.55845 0.56204 0.10172 0.0
C506 C 0.46892 0.50445 0.09526 0.0
C507 C 0.44894 0.44646 0.10571 0.0
N508 N 0.52999 0.54289 0.10303 0.0
N509 N 0.47737 0.46569 0.10735 0.0
H510 H 0.98343 0.56419 0.44205 0.0
H511 H 0.02648 0.44295 0.4304 0.0
H512 H 0.06969 0.58254 0.41706 0.0
H513 H 0.93967 0.4253 0.41665 0.0
H514 H 0.0428 0.49399 0.43445 0.0
H515 H 0.96736 0.51319 0.44195 0.0
C516 C 0.99907 0.55754 0.43679 0.0
C517 C 0.02802 0.57778 0.42946 0.0
C518 C 0.02019 0.47895 0.43057 0.0
C519 C 0.0096 0.51921 0.42935 0.0
C520 C 0.0108 0.44976 0.42842 0.0
C521 C 0.98161 0.42972 0.42309 0.0
C522 C 1.00028 0.48828 0.42787 0.0
C523 C 0.96236 0.43993 0.42061 0.0
C524 C 0.9898 0.52836 0.43655 0.0
C525 C 0.04719 0.56776 0.42272 0.0
N526 N 0.97203 0.46849 0.42312 0.0
N527 N 0.03764 0.53918 0.4229 0.0
H528 H 0.58669 0.02409 0.77757 0.0
H529 H 0.42239 0.98213 0.77141 0.0
H530 H 0.517 0.93741 0.76192 0.0
H531 H 0.49255 0.06898 0.76177 0.0
H532 H 0.45659 0.96538 0.77707 0.0
H533 H 0.55231 0.04066 0.78107 0.0
C534 C 0.56414 0.00847 0.77516 0.0
C535 C 0.55477 0.97926 0.76916 0.0
C536 C 0.46451 0.98811 0.77389 0.0
C537 C 0.51522 0.99825 0.7731 0.0
C538 C 0.44499 0.99774 0.77076 0.0
C539 C 0.45457 0.02706 0.76585 0.0
C540 C 0.4939 0.00789 0.77233 0.0
C541 C 0.48415 0.0462 0.7653 0.0
C542 C 0.54452 0.01801 0.77704 0.0
C543 C 0.52524 0.96011 0.76636 0.0
N544 N 0.50275 0.03627 0.76838 0.0
N545 N 0.50653 0.96995 0.76822 0.0
H546 H 0.53146 0.57685 0.66025 0.0
H547 H 0.44419 0.43336 0.52569 0.0
H548 H 0.5623 0.57074 0.52532 0.0
H549 H 0.47536 0.43198 0.66257 0.0
H550 H 0.47725 0.48541 0.52243 0.0
H551 H 0.49909 0.52473 0.65978 0.0
C552 C 0.53099 0.56459 0.63021 0.0
C553 C 0.54943 0.57796 0.5927 0.0
C554 C 0.47686 0.47354 0.55293 0.0
C555 C 0.51251 0.51891 0.59184 0.0
C556 C 0.45815 0.44403 0.55483 0.0
C557 C 0.45737 0.4285 0.59429 0.0
C558 C 0.49394 0.48758 0.59147 0.0
C559 C 0.47565 0.44322 0.63134 0.0
C560 C 0.51281 0.53498 0.6302 0.0
C561 C 0.54836 0.56111 0.55486 0.0
N562 N 0.49291 0.4721 0.62938 0.0
N563 N 0.52996 0.53238 0.55515 0.0
H564 H 0.02503 0.58579 0.92757 0.0
H565 H 0.98245 0.42122 0.91728 0.0
H566 H 0.9379 0.51597 0.93329 0.0
H567 H 0.06836 0.49016 0.94246 0.0
H568 H 0.96617 0.4559 0.91434 0.0
H569 H 0.04148 0.55126 0.92411 0.0
C570 C 0.0093 0.56319 0.92783 0.0
C571 C 0.97998 0.5538 0.93092 0.0
C572 C 0.98859 0.46345 0.92042 0.0
C573 C 0.99881 0.51411 0.92696 0.0
C574 C 0.99796 0.44367 0.92199 0.0
C575 C 0.02686 0.45274 0.9303 0.0
C576 C 0.00824 0.49261 0.92688 0.0
C577 C 0.04589 0.48214 0.93615 0.0
C578 C 0.01876 0.54349 0.92601 0.0
C579 C 0.96068 0.52422 0.93112 0.0
N580 N 0.03624 0.50101 0.93432 0.0
N581 N 0.97044 0.50543 0.92921 0.0
H582 H 0.58327 0.07008 0.26885 0.0
H583 H 0.42442 0.93611 0.27075 0.0
H584 H 0.56445 0.98282 0.25393 0.0
H585 H 0.44359 0.0228 0.24641 0.0
H586 H 0.47569 0.95281 0.26941 0.0
H587 H 0.53202 0.05321 0.26554 0.0
C588 C 0.56841 0.04741 0.26477 0.0
C589 C 0.57824 0.02787 0.26166 0.0
C590 C 0.46861 0.96812 0.26412 0.0
C591 C 0.51955 0.0084 0.25823 0.0
C592 C 0.43935 0.9586 0.26495 0.0
C593 C 0.42962 0.97805 0.2587 0.0
C594 C 0.4883 0.99733 0.25756 0.0
C595 C 0.45003 0.00698 0.2513 0.0
C596 C 0.53916 0.0378 0.26278 0.0
C597 C 0.55793 0.99871 0.25634 0.0
N598 N 0.47835 0.01575 0.25124 0.0
N599 N 0.52959 0.98986 0.25509 0.0
loop_
_geom_bond_atom_site_label_1
_geom_bond_atom_site_label_2
_geom_bond_distance
_geom_bond_site_symmetry_2
_ccdc_geom_bond_type
O0 Cd1 2.223 1_556 S
O0 C8 1.315 . S
Cd1 O0 2.223 1_554 S
Cd1 O4 2.297 1_554 S
Cd1 O5 2.439 . S
Cd1 O11 2.240 . S
Cd2 O3 2.240 . S
Cd2 O10 2.223 . S
Cd2 O12 2.297 . S
Cd2 O13 2.439 . S
O3 Cd2 2.240 . S
O3 C8 1.279 1_554 S
O4 Cd1 2.297 1_556 S
O4 C6 1.247 1_556 S
O5 Cd1 2.439 . S
O5 C6 1.208 . S
C6 O4 1.247 1_554 S
C6 O5 1.208 . S
C7 O12 1.247 . S
C7 O13 1.208 . S
C8 O0 1.315 . S
C8 O3 1.279 1_556 S
C9 O10 1.315 . S
C9 O11 1.279 . S
O10 Cd2 2.223 . S
O10 C9 1.315 . S
O11 Cd1 2.240 . S
O11 C9 1.279 . S
O12 Cd2 2.297 . S
O12 C7 1.247 . S
O13 Cd2 2.439 . S
O13 C7 1.208 . S
O14 Cd15 2.223 . S
O14 C22 1.315 . S
Cd15 O14 2.223 . S
Cd15 O18 2.297 . S
Cd15 O19 2.439 . S
Cd15 O25 2.240 . S
Cd16 O17 2.240 . S
Cd16 O24 2.237 1_655 S
Cd16 O26 2.297 1_655 S
Cd16 O27 2.439 . S
O17 Cd16 2.240 . S
O17 C22 1.279 . S
O18 Cd15 2.297 . S
O18 C20 1.247 . S
O19 Cd15 2.439 . S
O19 C20 1.208 . S
C20 O18 1.247 . S
C20 O19 1.208 . S
C21 O26 1.247 1_655 S
C21 O27 1.208 . S
C22 O14 1.315 . S
C22 O17 1.279 . S
C23 O24 1.278 1_655 S
C23 O25 1.279 . S
O24 Cd16 2.237 1_455 S
O24 C23 1.278 1_455 S
O25 Cd15 2.240 . S
O25 C23 1.279 . S
O26 Cd16 2.297 1_455 S
O26 C21 1.247 1_455 S
O27 Cd16 2.439 . S
O27 C21 1.208 . S
O28 Cd29 2.223 . S
O28 C36 1.315 . S
Cd29 O28 2.223 . S
Cd29 O32 2.297 . S
Cd29 O33 2.439 . S
Cd29 O39 2.240 . S
Cd30 O31 2.240 . S
Cd30 O38 2.202 1_565 S
Cd30 O40 2.297 1_565 S
Cd30 O41 2.439 . S
O31 Cd30 2.240 . S
O31 C36 1.279 . S
O32 Cd29 2.297 . S
O32 C34 1.247 . S
O33 Cd29 2.439 . S
O33 C34 1.208 . S
C34 O32 1.247 . S
C34 O33 1.208 . S
C35 O40 1.247 1_565 S
C35 O41 1.208 . S
C36 O28 1.315 . S
C36 O31 1.279 . S
C37 O38 1.294 1_565 S
C37 O39 1.279 . S
O38 Cd30 2.202 1_545 S
O38 C37 1.294 1_545 S
O39 Cd29 2.240 . S
O39 C37 1.279 . S
O40 Cd30 2.297 1_545 S
O40 C35 1.247 1_545 S
O41 Cd30 2.439 . S
O41 C35 1.208 . S
O42 Cd43 2.223 1_556 S
O42 C50 1.315 . S
Cd43 O42 2.223 1_554 S
Cd43 O46 2.297 1_554 S
Cd43 O47 2.439 . S
Cd43 O53 2.240 . S
Cd44 O45 2.240 . S
Cd44 O52 2.223 . S
Cd44 O54 2.297 . S
Cd44 O55 2.439 . S
O45 Cd44 2.240 . S
O45 C50 1.279 1_554 S
O46 Cd43 2.297 1_556 S
O46 C48 1.247 1_556 S
O47 Cd43 2.439 . S
O47 C48 1.208 . S
C48 O46 1.247 1_554 S
C48 O47 1.208 . S
C49 O54 1.247 . S
C49 O55 1.208 . S
C50 O42 1.315 . S
C50 O45 1.279 1_556 S
C51 O52 1.315 . S
C51 O53 1.279 . S
O52 Cd44 2.223 . S
O52 C51 1.315 . S
O53 Cd43 2.240 . S
O53 C51 1.279 . S
O54 Cd44 2.297 . S
O54 C49 1.247 . S
O55 Cd44 2.439 . S
O55 C49 1.208 . S
O56 Cd57 2.223 . S
O56 C64 1.315 . S
Cd57 O56 2.223 . S
Cd57 O60 2.297 . S
Cd57 O61 2.439 . S
Cd57 O67 2.240 . S
Cd58 O59 2.240 . S
Cd58 O66 2.237 1_455 S
Cd58 O68 2.297 1_455 S
Cd58 O69 2.439 . S
O59 Cd58 2.240 . S
O59 C64 1.279 . S
O60 Cd57 2.297 . S
O60 C62 1.247 . S
O61 Cd57 2.439 . S
O61 C62 1.208 . S
C62 O60 1.247 . S
C62 O61 1.208 . S
C63 O68 1.247 1_455 S
C63 O69 1.208 . S
C64 O56 1.315 . S
C64 O59 1.279 . S
C65 O66 1.278 1_455 S
C65 O67 1.279 . S
O66 Cd58 2.237 1_655 S
O66 C65 1.278 1_655 S
O67 Cd57 2.240 . S
O67 C65 1.279 . S
O68 Cd58 2.297 1_655 S
O68 C63 1.247 1_655 S
O69 Cd58 2.439 . S
O69 C63 1.208 . S
O70 Cd71 2.223 . S
O70 C78 1.315 . S
Cd71 O70 2.223 . S
Cd71 O74 2.297 . S
Cd71 O75 2.439 . S
Cd71 O81 2.240 . S
Cd72 O73 2.240 . S
Cd72 O80 2.202 1_545 S
Cd72 O82 2.297 1_545 S
Cd72 O83 2.439 . S
O73 Cd72 2.240 . S
O73 C78 1.279 . S
O74 Cd71 2.297 . S
O74 C76 1.247 . S
O75 Cd71 2.439 . S
O75 C76 1.208 . S
C76 O74 1.247 . S
C76 O75 1.208 . S
C77 O82 1.247 1_545 S
C77 O83 1.208 . S
C78 O70 1.315 . S
C78 O73 1.279 . S
C79 O80 1.294 1_545 S
C79 O81 1.279 . S
O80 Cd72 2.202 1_565 S
O80 C79 1.294 1_565 S
O81 Cd71 2.240 . S
O81 C79 1.279 . S
O82 Cd72 2.297 1_565 S
O82 C77 1.247 1_565 S
O83 Cd72 2.439 . S
O83 C77 1.208 . S
O84 Cd85 2.223 . S
O84 C92 1.315 . S
Cd85 O84 2.223 . S
Cd85 O88 2.297 . S
Cd85 O89 2.439 . S
Cd85 O95 2.240 . S
Cd86 O87 2.240 . S
Cd86 O94 2.223 . S
Cd86 O96 2.297 . S
Cd86 O97 2.439 . S
O87 Cd86 2.240 . S
O87 C92 1.279 . S
O88 Cd85 2.297 . S
O88 C90 1.247 . S
O89 Cd85 2.439 . S
O89 C90 1.208 . S
C90 O88 1.247 . S
C90 O89 1.208 . S
C91 O96 1.247 . S
C91 O97 1.208 . S
C92 O84 1.315 . S
C92 O87 1.279 . S
C93 O94 1.315 . S
C93 O95 1.279 . S
O94 Cd86 2.223 . S
O94 C93 1.315 . S
O95 Cd85 2.240 . S
O95 C93 1.279 . S
O96 Cd86 2.297 . S
O96 C91 1.247 . S
O97 Cd86 2.439 . S
O97 C91 1.208 . S
O98 Cd99 2.223 1_554 S
O98 C106 1.315 . S
Cd99 O98 2.223 1_556 S
Cd99 O102 2.297 1_556 S
Cd99 O103 2.439 . S
Cd99 O109 2.240 . S
Cd100 O101 2.240 . S
Cd100 O108 2.202 1_655 S
Cd100 O110 2.297 1_655 S
Cd100 O111 2.439 . S
O101 Cd100 2.240 . S
O101 C106 1.279 1_556 S
O102 Cd99 2.297 1_554 S
O102 C104 1.247 1_554 S
O103 Cd99 2.439 . S
O103 C104 1.208 . S
C104 O102 1.247 1_556 S
C104 O103 1.208 . S
C105 O110 1.247 1_655 S
C105 O111 1.208 . S
C106 O98 1.315 . S
C106 O101 1.279 1_554 S
C107 O108 1.294 1_655 S
C107 O109 1.279 . S
O108 Cd100 2.202 1_455 S
O108 C107 1.294 1_455 S
O109 Cd99 2.240 . S
O109 C107 1.279 . S
O110 Cd100 2.297 1_455 S
O110 C105 1.247 1_455 S
O111 Cd100 2.439 . S
O111 C105 1.208 . S
O112 Cd113 2.223 . S
O112 C120 1.315 . S
Cd113 O112 2.223 . S
Cd113 O116 2.297 . S
Cd113 O117 2.439 . S
Cd113 O123 2.240 . S
Cd114 O115 2.240 . S
Cd114 O122 2.237 1_565 S
Cd114 O124 2.297 1_565 S
Cd114 O125 2.439 . S
O115 Cd114 2.240 . S
O115 C120 1.279 . S
O116 Cd113 2.297 . S
O116 C118 1.247 . S
O117 Cd113 2.439 . S
O117 C118 1.208 . S
C118 O116 1.247 . S
C118 O117 1.208 . S
C119 O124 1.247 1_565 S
C119 O125 1.208 . S
C120 O112 1.315 . S
C120 O115 1.279 . S
C121 O122 1.278 1_565 S
C121 O123 1.279 . S
O122 Cd114 2.237 1_545 S
O122 C121 1.278 1_545 S
O123 Cd113 2.240 . S
O123 C121 1.279 . S
O124 Cd114 2.297 1_545 S
O124 C119 1.247 1_545 S
O125 Cd114 2.439 . S
O125 C119 1.208 . S
O126 Cd127 2.223 . S
O126 C134 1.315 . S
Cd127 O126 2.223 . S
Cd127 O130 2.297 . S
Cd127 O131 2.439 . S
Cd127 O137 2.240 . S
Cd128 O129 2.240 . S
Cd128 O136 2.223 . S
Cd128 O138 2.297 . S
Cd128 O139 2.439 . S
O129 Cd128 2.240 . S
O129 C134 1.279 . S
O130 Cd127 2.297 . S
O130 C132 1.247 . S
O131 Cd127 2.439 . S
O131 C132 1.208 . S
C132 O130 1.247 . S
C132 O131 1.208 . S
C133 O138 1.247 . S
C133 O139 1.208 . S
C134 O126 1.315 . S
C134 O129 1.279 . S
C135 O136 1.315 . S
C135 O137 1.279 . S
O136 Cd128 2.223 . S
O136 C135 1.315 . S
O137 Cd127 2.240 . S
O137 C135 1.279 . S
O138 Cd128 2.297 . S
O138 C133 1.247 . S
O139 Cd128 2.439 . S
O139 C133 1.208 . S
O140 Cd141 2.223 1_554 S
O140 C148 1.315 . S
Cd141 O140 2.223 1_556 S
Cd141 O144 2.297 1_556 S
Cd141 O145 2.439 . S
Cd141 O151 2.240 . S
Cd142 O143 2.240 . S
Cd142 O150 2.202 1_455 S
Cd142 O152 2.297 1_455 S
Cd142 O153 2.439 . S
O143 Cd142 2.240 . S
O143 C148 1.279 1_556 S
O144 Cd141 2.297 1_554 S
O144 C146 1.247 1_554 S
O145 Cd141 2.439 . S
O145 C146 1.208 . S
C146 O144 1.247 1_556 S
C146 O145 1.208 . S
C147 O152 1.247 1_455 S
C147 O153 1.208 . S
C148 O140 1.315 . S
C148 O143 1.279 1_554 S
C149 O150 1.294 1_455 S
C149 O151 1.279 . S
O150 Cd142 2.202 1_655 S
O150 C149 1.294 1_655 S
O151 Cd141 2.240 . S
O151 C149 1.279 . S
O152 Cd142 2.297 1_655 S
O152 C147 1.247 1_655 S
O153 Cd142 2.439 . S
O153 C147 1.208 . S
O154 Cd155 2.223 . S
O154 C162 1.315 . S
Cd155 O154 2.223 . S
Cd155 O158 2.297 . S
Cd155 O159 2.439 . S
Cd155 O165 2.240 . S
Cd156 O157 2.240 . S
Cd156 O164 2.237 1_545 S
Cd156 O166 2.297 1_545 S
Cd156 O167 2.439 . S
O157 Cd156 2.240 . S
O157 C162 1.279 . S
O158 Cd155 2.297 . S
O158 C160 1.247 . S
O159 Cd155 2.439 . S
O159 C160 1.208 . S
C160 O158 1.247 . S
C160 O159 1.208 . S
C161 O166 1.247 1_545 S
C161 O167 1.208 . S
C162 O154 1.315 . S
C162 O157 1.279 . S
C163 O164 1.278 1_545 S
C163 O165 1.279 . S
O164 Cd156 2.237 1_565 S
O164 C163 1.278 1_565 S
O165 Cd155 2.240 . S
O165 C163 1.279 . S
O166 Cd156 2.297 1_565 S
O166 C161 1.247 1_565 S
O167 Cd156 2.439 . S
O167 C161 1.208 . S
H168 C174 0.930 . S
H169 C178 0.930 . S
H170 C183 0.929 . S
H171 C181 0.929 . S
H172 C176 0.929 . S
H173 C182 0.929 . S
C174 H168 0.930 . S
C174 C175 1.367 . S
C174 C182 1.378 . S
C175 C174 1.367 . S
C175 C183 1.433 . S
C176 H172 0.929 . S
C176 C178 1.378 . S
C176 C180 1.350 . S
C177 C180 1.463 . S
C177 C182 1.350 . S
C177 N185 1.427 . S
C178 H169 0.930 . S
C178 C176 1.378 . S
C178 C179 1.367 . S
C179 C178 1.367 . S
C179 C181 1.433 . S
C180 C176 1.350 . S
C180 C177 1.463 . S
C180 N184 1.427 . S
C181 H171 0.929 . S
C181 C179 1.433 . S
C181 N184 1.384 . S
C182 H173 0.929 . S
C182 C174 1.378 . S
C182 C177 1.350 . S
C183 H170 0.929 . S
C183 C175 1.433 . S
C183 N185 1.384 . S
N184 C180 1.427 . S
N184 C181 1.384 . S
N185 C177 1.427 . S
N185 C183 1.384 . S
H186 C192 0.930 . S
H187 C196 0.930 . S
H188 C201 0.929 . S
H189 C199 0.929 . S
H190 C194 0.929 . S
H191 C200 0.929 . S
C192 H186 0.930 . S
C192 C193 1.367 . S
C192 C200 1.378 . S
C193 C192 1.367 . S
C193 C201 1.433 1_655 S
C194 H190 0.929 . S
C194 C196 1.378 . S
C194 C198 1.350 . S
C195 C198 1.463 1_655 S
C195 C200 1.350 . S
C195 N203 1.427 1_655 S
C196 H187 0.930 . S
C196 C194 1.378 . S
C196 C197 1.367 . S
C197 C196 1.367 . S
C197 C199 1.433 1_455 S
C198 C194 1.350 . S
C198 C195 1.463 1_455 S
C198 N202 1.427 1_455 S
C199 H189 0.929 . S
C199 C197 1.433 1_655 S
C199 N202 1.384 . S
C200 H191 0.929 . S
C200 C192 1.378 . S
C200 C195 1.350 . S
C201 H188 0.929 . S
C201 C193 1.433 1_455 S
C201 N203 1.384 . S
N202 C198 1.427 1_655 S
N202 C199 1.384 . S
N203 C195 1.427 1_455 S
N203 C201 1.384 . S
H204 C210 0.930 . S
H205 C214 0.930 . S
H206 C219 0.931 1_545 S
H207 C217 0.931 1_565 S
H208 C212 0.929 . S
H209 C218 0.929 . S
C210 H204 0.930 . S
C210 C211 1.367 . S
C210 C218 1.378 . S
C211 C210 1.367 . S
C211 C219 1.433 . S
C212 H208 0.929 . S
C212 C214 1.378 . S
C212 C216 1.350 . S
C213 C216 1.463 1_566 S
C213 C218 1.350 . S
C213 N221 1.427 1_565 S
C214 H205 0.930 . S
C214 C212 1.378 . S
C214 C215 1.367 . S
C215 C214 1.367 . S
C215 C217 1.433 . S
C216 C212 1.350 . S
C216 C213 1.463 1_544 S
C216 N220 1.427 1_545 S
C217 H207 0.931 1_545 S
C217 C215 1.433 . S
C217 N220 1.384 1_545 S
C218 H209 0.929 . S
C218 C210 1.378 . S
C218 C213 1.350 . S
C219 H206 0.931 1_565 S
C219 C211 1.433 . S
C219 N221 1.384 1_565 S
N220 C216 1.427 1_565 S
N220 C217 1.384 1_565 S
N221 C213 1.427 1_545 S
N221 C219 1.384 1_545 S
H222 C228 0.930 . S
H223 C232 0.930 . S
H224 C237 0.929 . S
H225 C235 0.929 . S
H226 C230 0.929 . S
H227 C236 0.929 . S
C228 H222 0.930 . S
C228 C229 1.367 . S
C228 C236 1.378 . S
C229 C228 1.367 . S
C229 C237 1.433 . S
C230 H226 0.929 . S
C230 C232 1.378 . S
C230 C234 1.350 . S
C231 C234 1.463 . S
C231 C236 1.350 . S
C231 N239 1.427 . S
C232 H223 0.930 . S
C232 C230 1.378 . S
C232 C233 1.367 . S
C233 C232 1.367 . S
C233 C235 1.433 . S
C234 C230 1.350 . S
C234 C231 1.463 . S
C234 N238 1.427 . S
C235 H225 0.929 . S
C235 C233 1.433 . S
C235 N238 1.384 . S
C236 H227 0.929 . S
C236 C228 1.378 . S
C236 C231 1.350 . S
C237 H224 0.929 . S
C237 C229 1.433 . S
C237 N239 1.384 . S
N238 C234 1.427 . S
N238 C235 1.384 . S
N239 C231 1.427 . S
N239 C237 1.384 . S
H240 C246 0.930 . S
H241 C250 0.930 . S
H242 C255 0.929 . S
H243 C253 0.929 . S
H244 C248 0.929 . S
H245 C254 0.929 . S
C246 H240 0.930 . S
C246 C247 1.367 1_455 S
C246 C254 1.378 . S
C247 C246 1.367 1_655 S
C247 C255 1.433 . S
C248 H244 0.929 . S
C248 C250 1.378 . S
C248 C252 1.350 1_655 S
C249 C252 1.463 1_655 S
C249 C254 1.350 1_655 S
C249 N257 1.427 . S
C250 H241 0.930 . S
C250 C248 1.378 . S
C250 C251 1.367 1_655 S
C251 C250 1.367 1_455 S
C251 C253 1.433 . S
C252 C248 1.350 1_455 S
C252 C249 1.463 1_455 S
C252 N256 1.427 . S
C253 H243 0.929 . S
C253 C251 1.433 . S
C253 N256 1.384 . S
C254 H245 0.929 . S
C254 C246 1.378 . S
C254 C249 1.350 1_455 S
C255 H242 0.929 . S
C255 C247 1.433 . S
C255 N257 1.384 . S
N256 C252 1.427 . S
N256 C253 1.384 . S
N257 C249 1.427 . S
N257 C255 1.384 . S
H258 C264 0.930 . S
H259 C268 0.930 . S
H260 C273 0.929 . S
H261 C271 0.929 . S
H262 C266 0.929 . S
H263 C272 0.929 . S
C264 H258 0.930 . S
C264 C265 1.367 . S
C264 C272 1.378 . S
C265 C264 1.367 . S
C265 C273 1.433 1_565 S
C266 H262 0.929 . S
C266 C268 1.378 . S
C266 C270 1.350 . S
C267 C270 1.463 1_564 S
C267 C272 1.350 . S
C267 N275 1.427 1_565 S
C268 H259 0.930 . S
C268 C266 1.378 . S
C268 C269 1.367 . S
C269 C268 1.367 . S
C269 C271 1.433 1_545 S
C270 C266 1.350 . S
C270 C267 1.463 1_546 S
C270 N274 1.427 1_545 S
C271 H261 0.929 . S
C271 C269 1.433 1_565 S
C271 N274 1.384 . S
C272 H263 0.929 . S
C272 C264 1.378 . S
C272 C267 1.350 . S
C273 H260 0.929 . S
C273 C265 1.433 1_545 S
C273 N275 1.384 . S
N274 C270 1.427 1_565 S
N274 C271 1.384 . S
N275 C267 1.427 1_545 S
N275 C273 1.384 . S
H276 C282 0.930 . S
H277 C286 0.930 . S
H278 C291 0.929 . S
H279 C289 0.929 . S
H280 C284 0.929 . S
H281 C290 0.929 . S
C282 H276 0.930 . S
C282 C283 1.367 . S
C282 C290 1.378 . S
C283 C282 1.367 . S
C283 C291 1.433 1_556 S
C284 H280 0.929 . S
C284 C286 1.378 . S
C284 C288 1.350 . S
C285 C288 1.463 1_556 S
C285 C290 1.350 . S
C285 N293 1.427 1_556 S
C286 H277 0.930 . S
C286 C284 1.378 . S
C286 C287 1.367 . S
C287 C286 1.367 . S
C287 C289 1.433 1_554 S
C288 C284 1.350 . S
C288 C285 1.463 1_554 S
C288 N292 1.427 1_554 S
C289 H279 0.929 . S
C289 C287 1.433 1_556 S
C289 N292 1.384 . S
C290 H281 0.929 . S
C290 C282 1.378 . S
C290 C285 1.350 . S
C291 H278 0.929 . S
C291 C283 1.433 1_554 S
C291 N293 1.384 . S
N292 C288 1.427 1_556 S
N292 C289 1.384 . S
N293 C285 1.427 1_554 S
N293 C291 1.384 . S
H294 C300 0.930 . S
H295 C304 0.930 . S
H296 C309 0.929 . S
H297 C307 0.929 . S
H298 C302 0.929 . S
H299 C308 0.929 . S
C300 H294 0.930 . S
C300 C301 1.367 . S
C300 C308 1.378 . S
C301 C300 1.367 . S
C301 C309 1.433 . S
C302 H298 0.929 . S
C302 C304 1.378 . S
C302 C306 1.350 . S
C303 C306 1.463 . S
C303 C308 1.350 . S
C303 N311 1.427 . S
C304 H295 0.930 . S
C304 C302 1.378 . S
C304 C305 1.367 . S
C305 C304 1.367 . S
C305 C307 1.433 . S
C306 C302 1.350 . S
C306 C303 1.463 . S
C306 N310 1.427 . S
C307 H297 0.929 . S
C307 C305 1.433 . S
C307 N310 1.384 . S
C308 H299 0.929 . S
C308 C300 1.378 . S
C308 C303 1.350 . S
C309 H296 0.929 . S
C309 C301 1.433 . S
C309 N311 1.384 . S
N310 C306 1.427 . S
N310 C307 1.384 . S
N311 C303 1.427 . S
N311 C309 1.384 . S
H312 C318 0.930 . S
H313 C322 0.930 . S
H314 C327 0.929 . S
H315 C325 0.929 . S
H316 C320 0.929 . S
H317 C326 0.929 . S
C318 H312 0.930 . S
C318 C319 1.367 . S
C318 C326 1.378 . S
C319 C318 1.367 . S
C319 C327 1.433 . S
C320 H316 0.929 . S
C320 C322 1.378 . S
C320 C324 1.350 . S
C321 C324 1.463 . S
C321 C326 1.350 . S
C321 N329 1.427 . S
C322 H313 0.930 . S
C322 C320 1.378 . S
C322 C323 1.367 . S
C323 C322 1.367 . S
C323 C325 1.433 . S
C324 C320 1.350 . S
C324 C321 1.463 . S
C324 N328 1.427 . S
C325 H315 0.929 . S
C325 C323 1.433 . S
C325 N328 1.384 . S
C326 H317 0.929 . S
C326 C318 1.378 . S
C326 C321 1.350 . S
C327 H314 0.929 . S
C327 C319 1.433 . S
C327 N329 1.384 . S
N328 C324 1.427 . S
N328 C325 1.384 . S
N329 C321 1.427 . S
N329 C327 1.384 . S
H330 C336 0.930 . S
H331 C340 0.930 . S
H332 C345 0.929 . S
H333 C343 0.929 . S
H334 C338 0.929 . S
H335 C344 0.929 . S
C336 H330 0.930 . S
C336 C337 1.367 . S
C336 C344 1.378 1_554 S
C337 C336 1.367 . S
C337 C345 1.433 . S
C338 H334 0.929 . S
C338 C340 1.378 1_554 S
C338 C342 1.350 1_554 S
C339 C342 1.463 1_554 S
C339 C344 1.350 1_554 S
C339 N347 1.427 . S
C340 H331 0.930 . S
C340 C338 1.378 1_556 S
C340 C341 1.367 . S
C341 C340 1.367 . S
C341 C343 1.433 . S
C342 C338 1.350 1_556 S
C342 C339 1.463 1_556 S
C342 N346 1.427 . S
C343 H333 0.929 . S
C343 C341 1.433 . S
C343 N346 1.384 . S
C344 H335 0.929 . S
C344 C336 1.378 1_556 S
C344 C339 1.350 1_556 S
C345 H332 0.929 . S
C345 C337 1.433 . S
C345 N347 1.384 . S
N346 C342 1.427 . S
N346 C343 1.384 . S
N347 C339 1.427 . S
N347 C345 1.384 . S
H348 C354 0.930 . S
H349 C358 0.930 . S
H350 C363 0.929 . S
H351 C361 0.929 . S
H352 C356 0.929 . S
H353 C362 0.929 . S
C354 H348 0.930 . S
C354 C355 1.367 . S
C354 C362 1.378 . S
C355 C354 1.367 . S
C355 C363 1.433 . S
C356 H352 0.929 . S
C356 C358 1.378 . S
C356 C360 1.350 . S
C357 C360 1.463 . S
C357 C362 1.350 . S
C357 N365 1.427 . S
C358 H349 0.930 . S
C358 C356 1.378 . S
C358 C359 1.367 . S
C359 C358 1.367 . S
C359 C361 1.433 . S
C360 C356 1.350 . S
C360 C357 1.463 . S
C360 N364 1.427 . S
C361 H351 0.929 . S
C361 C359 1.433 . S
C361 N364 1.384 . S
C362 H353 0.929 . S
C362 C354 1.378 . S
C362 C357 1.350 . S
C363 H350 0.929 . S
C363 C355 1.433 . S
C363 N365 1.384 . S
N364 C360 1.427 . S
N364 C361 1.384 . S
N365 C357 1.427 . S
N365 C363 1.384 . S
H366 C372 0.930 . S
H367 C376 0.930 . S
H368 C381 0.929 . S
H369 C379 0.929 . S
H370 C374 0.929 . S
H371 C380 0.929 . S
C372 H366 0.930 . S
C372 C373 1.367 . S
C372 C380 1.378 . S
C373 C372 1.367 . S
C373 C381 1.433 . S
C374 H370 0.929 . S
C374 C376 1.378 . S
C374 C378 1.350 . S
C375 C378 1.463 . S
C375 C380 1.350 . S
C375 N383 1.427 . S
C376 H367 0.930 . S
C376 C374 1.378 . S
C376 C377 1.367 . S
C377 C376 1.367 . S
C377 C379 1.433 . S
C378 C374 1.350 . S
C378 C375 1.463 . S
C378 N382 1.427 . S
C379 H369 0.929 . S
C379 C377 1.433 . S
C379 N382 1.384 . S
C380 H371 0.929 . S
C380 C372 1.378 . S
C380 C375 1.350 . S
C381 H368 0.929 . S
C381 C373 1.433 . S
C381 N383 1.384 . S
N382 C378 1.427 . S
N382 C379 1.384 . S
N383 C375 1.427 . S
N383 C381 1.384 . S
H384 C390 0.930 . S
H385 C394 0.930 . S
H386 C399 0.929 . S
H387 C397 0.929 . S
H388 C392 0.929 . S
H389 C398 0.929 . S
C390 H384 0.930 . S
C390 C391 1.367 . S
C390 C398 1.378 . S
C391 C390 1.367 . S
C391 C399 1.433 . S
C392 H388 0.929 . S
C392 C394 1.378 . S
C392 C396 1.350 . S
C393 C396 1.463 . S
C393 C398 1.350 . S
C393 N401 1.427 . S
C394 H385 0.930 . S
C394 C392 1.378 . S
C394 C395 1.367 . S
C395 C394 1.367 . S
C395 C397 1.433 . S
C396 C392 1.350 . S
C396 C393 1.463 . S
C396 N400 1.427 . S
C397 H387 0.929 . S
C397 C395 1.433 . S
C397 N400 1.384 . S
C398 H389 0.929 . S
C398 C390 1.378 . S
C398 C393 1.350 . S
C399 H386 0.929 . S
C399 C391 1.433 . S
C399 N401 1.384 . S
N400 C396 1.427 . S
N400 C397 1.384 . S
N401 C393 1.427 . S
N401 C399 1.384 . S
H402 C408 0.930 . S
H403 C412 0.930 . S
H404 C417 0.929 . S
H405 C415 0.929 . S
H406 C410 0.929 . S
H407 C416 0.929 . S
C408 H402 0.930 . S
C408 C409 1.367 1_455 S
C408 C416 1.378 . S
C409 C408 1.367 1_655 S
C409 C417 1.433 . S
C410 H406 0.929 . S
C410 C412 1.378 . S
C410 C414 1.350 1_655 S
C411 C414 1.463 1_655 S
C411 C416 1.350 1_655 S
C411 N419 1.427 . S
C412 H403 0.930 . S
C412 C410 1.378 . S
C412 C413 1.367 1_655 S
C413 C412 1.367 1_455 S
C413 C415 1.433 . S
C414 C410 1.350 1_455 S
C414 C411 1.463 1_455 S
C414 N418 1.427 . S
C415 H405 0.929 . S
C415 C413 1.433 . S
C415 N418 1.384 . S
C416 H407 0.929 . S
C416 C408 1.378 . S
C416 C411 1.350 1_455 S
C417 H404 0.929 . S
C417 C409 1.433 . S
C417 N419 1.384 . S
N418 C414 1.427 . S
N418 C415 1.384 . S
N419 C411 1.427 . S
N419 C417 1.384 . S
H420 C426 0.930 . S
H421 C430 0.930 . S
H422 C435 0.929 . S
H423 C433 0.929 . S
H424 C428 0.929 . S
H425 C434 0.929 . S
C426 H420 0.930 . S
C426 C427 1.367 . S
C426 C434 1.378 . S
C427 C426 1.367 . S
C427 C435 1.433 1_565 S
C428 H424 0.929 . S
C428 C430 1.378 . S
C428 C432 1.350 . S
C429 C432 1.463 1_565 S
C429 C434 1.350 . S
C429 N437 1.427 1_565 S
C430 H421 0.930 . S
C430 C428 1.378 . S
C430 C431 1.367 . S
C431 C430 1.367 . S
C431 C433 1.433 1_545 S
C432 C428 1.350 . S
C432 C429 1.463 1_545 S
C432 N436 1.427 1_545 S
C433 H423 0.929 . S
C433 C431 1.433 1_565 S
C433 N436 1.384 . S
C434 H425 0.929 . S
C434 C426 1.378 . S
C434 C429 1.350 . S
C435 H422 0.929 . S
C435 C427 1.433 1_545 S
C435 N437 1.384 . S
N436 C432 1.427 1_565 S
N436 C433 1.384 . S
N437 C429 1.427 1_545 S
N437 C435 1.384 . S
H438 C444 0.930 . S
H439 C448 0.930 . S
H440 C453 0.929 . S
H441 C451 0.929 . S
H442 C446 0.929 . S
H443 C452 0.929 . S
C444 H438 0.930 . S
C444 C445 1.367 . S
C444 C452 1.378 . S
C445 C444 1.367 . S
C445 C453 1.433 . S
C446 H442 0.929 . S
C446 C448 1.378 . S
C446 C450 1.350 . S
C447 C450 1.463 . S
C447 C452 1.350 . S
C447 N455 1.427 . S
C448 H439 0.930 . S
C448 C446 1.378 . S
C448 C449 1.367 . S
C449 C448 1.367 . S
C449 C451 1.433 . S
C450 C446 1.350 . S
C450 C447 1.463 . S
C450 N454 1.427 . S
C451 H441 0.929 . S
C451 C449 1.433 . S
C451 N454 1.384 . S
C452 H443 0.929 . S
C452 C444 1.378 . S
C452 C447 1.350 . S
C453 H440 0.929 . S
C453 C445 1.433 . S
C453 N455 1.384 . S
N454 C450 1.427 . S
N454 C451 1.384 . S
N455 C447 1.427 . S
N455 C453 1.384 . S
H456 C462 0.930 . S
H457 C466 0.930 . S
H458 C471 0.929 . S
H459 C469 0.929 . S
H460 C464 0.929 . S
H461 C470 0.929 . S
C462 H456 0.930 . S
C462 C463 1.367 . S
C462 C470 1.378 . S
C463 C462 1.367 . S
C463 C471 1.433 1_455 S
C464 H460 0.929 . S
C464 C466 1.378 . S
C464 C468 1.350 . S
C465 C468 1.463 1_455 S
C465 C470 1.350 . S
C465 N473 1.427 1_455 S
C466 H457 0.930 . S
C466 C464 1.378 . S
C466 C467 1.367 . S
C467 C466 1.367 . S
C467 C469 1.433 1_655 S
C468 C464 1.350 . S
C468 C465 1.463 1_655 S
C468 N472 1.427 1_655 S
C469 H459 0.929 . S
C469 C467 1.433 1_455 S
C469 N472 1.384 . S
C470 H461 0.929 . S
C470 C462 1.378 . S
C470 C465 1.350 . S
C471 H458 0.929 . S
C471 C463 1.433 1_655 S
C471 N473 1.384 . S
N472 C468 1.427 1_455 S
N472 C469 1.384 . S
N473 C465 1.427 1_655 S
N473 C471 1.384 . S
H474 C480 0.930 . S
H475 C484 0.930 . S
H476 C489 0.929 . S
H477 C487 0.929 . S
H478 C482 0.929 . S
H479 C488 0.929 . S
C480 H474 0.930 . S
C480 C481 1.367 . S
C480 C488 1.378 . S
C481 C480 1.367 . S
C481 C489 1.433 . S
C482 H478 0.929 . S
C482 C484 1.378 . S
C482 C486 1.350 . S
C483 C486 1.463 1_565 S
C483 C488 1.350 . S
C483 N491 1.427 . S
C484 H475 0.930 . S
C484 C482 1.378 . S
C484 C485 1.367 . S
C485 C484 1.367 . S
C485 C487 1.433 . S
C486 C482 1.350 . S
C486 C483 1.463 1_545 S
C486 N490 1.427 . S
C487 H477 0.929 . S
C487 C485 1.433 . S
C487 N490 1.384 . S
C488 H479 0.929 . S
C488 C480 1.378 . S
C488 C483 1.350 . S
C489 H476 0.929 . S
C489 C481 1.433 . S
C489 N491 1.384 . S
N490 C486 1.427 . S
N490 C487 1.384 . S
N491 C483 1.427 . S
N491 C489 1.384 . S
H492 C498 0.930 . S
H493 C502 0.930 . S
H494 C507 0.929 . S
H495 C505 0.929 . S
H496 C500 0.929 . S
H497 C506 0.929 . S
C498 H492 0.930 . S
C498 C499 1.367 . S
C498 C506 1.378 . S
C499 C498 1.367 . S
C499 C507 1.433 . S
C500 H496 0.929 . S
C500 C502 1.378 . S
C500 C504 1.350 . S
C501 C504 1.463 . S
C501 C506 1.350 . S
C501 N509 1.427 . S
C502 H493 0.930 . S
C502 C500 1.378 . S
C502 C503 1.367 . S
C503 C502 1.367 . S
C503 C505 1.433 . S
C504 C500 1.350 . S
C504 C501 1.463 . S
C504 N508 1.427 . S
C505 H495 0.929 . S
C505 C503 1.433 . S
C505 N508 1.384 . S
C506 H497 0.929 . S
C506 C498 1.378 . S
C506 C501 1.350 . S
C507 H494 0.929 . S
C507 C499 1.433 . S
C507 N509 1.384 . S
N508 C504 1.427 . S
N508 C505 1.384 . S
N509 C501 1.427 . S
N509 C507 1.384 . S
H510 C516 0.945 . S
H511 C520 0.945 . S
H512 C525 0.929 . S
H513 C523 0.929 . S
H514 C518 0.929 . S
H515 C524 0.929 . S
C516 H510 0.945 . S
C516 C517 1.367 . S
C516 C524 1.378 1_455 S
C517 C516 1.367 . S
C517 C525 1.433 . S
C518 H514 0.929 . S
C518 C520 1.378 1_455 S
C518 C522 1.350 1_455 S
C519 C522 1.463 1_455 S
C519 C524 1.350 1_455 S
C519 N527 1.427 . S
C520 H511 0.945 . S
C520 C518 1.378 1_655 S
C520 C521 1.367 . S
C521 C520 1.367 . S
C521 C523 1.433 . S
C522 C518 1.350 1_655 S
C522 C519 1.463 1_655 S
C522 N526 1.427 . S
C523 H513 0.929 . S
C523 C521 1.433 . S
C523 N526 1.384 . S
C524 H515 0.929 . S
C524 C516 1.378 1_655 S
C524 C519 1.350 1_655 S
C525 H512 0.929 . S
C525 C517 1.433 . S
C525 N527 1.384 . S
N526 C522 1.427 . S
N526 C523 1.384 . S
N527 C519 1.427 . S
N527 C525 1.384 . S
H528 C534 0.930 . S
H529 C538 0.930 . S
H530 C543 0.929 . S
H531 C541 0.929 . S
H532 C536 0.929 . S
H533 C542 0.929 . S
C534 H528 0.930 . S
C534 C535 1.367 1_545 S
C534 C542 1.378 . S
C535 C534 1.367 1_565 S
C535 C543 1.433 . S
C536 H532 0.929 . S
C536 C538 1.378 . S
C536 C540 1.350 1_565 S
C537 C540 1.463 1_565 S
C537 C542 1.350 1_565 S
C537 N545 1.427 . S
C538 H529 0.930 . S
C538 C536 1.378 . S
C538 C539 1.367 1_565 S
C539 C538 1.367 1_545 S
C539 C541 1.433 . S
C540 C536 1.350 1_545 S
C540 C537 1.463 1_545 S
C540 N544 1.427 . S
C541 H531 0.929 . S
C541 C539 1.433 . S
C541 N544 1.384 . S
C542 H533 0.929 . S
C542 C534 1.378 . S
C542 C537 1.350 1_545 S
C543 H530 0.929 . S
C543 C535 1.433 . S
C543 N545 1.384 . S
N544 C540 1.427 . S
N544 C541 1.384 . S
N545 C537 1.427 . S
N545 C543 1.384 . S
H546 C552 0.930 . S
H547 C556 0.930 . S
H548 C561 0.929 . S
H549 C559 0.929 . S
H550 C554 0.929 . S
H551 C560 0.929 . S
C552 H546 0.930 . S
C552 C553 1.367 . S
C552 C560 1.378 . S
C553 C552 1.367 . S
C553 C561 1.433 . S
C554 H550 0.929 . S
C554 C556 1.378 . S
C554 C558 1.350 . S
C555 C558 1.463 . S
C555 C560 1.350 . S
C555 N563 1.427 . S
C556 H547 0.930 . S
C556 C554 1.378 . S
C556 C557 1.367 . S
C557 C556 1.367 . S
C557 C559 1.433 . S
C558 C554 1.350 . S
C558 C555 1.463 . S
C558 N562 1.427 . S
C559 H549 0.929 . S
C559 C557 1.433 . S
C559 N562 1.384 . S
C560 H551 0.929 . S
C560 C552 1.378 . S
C560 C555 1.350 . S
C561 H548 0.929 . S
C561 C553 1.433 . S
C561 N563 1.384 . S
N562 C558 1.427 . S
N562 C559 1.384 . S
N563 C555 1.427 . S
N563 C561 1.384 . S
H564 C570 0.930 . S
H565 C574 0.930 1_554 S
H566 C579 0.929 1_554 S
H567 C577 0.929 . S
H568 C572 0.929 1_554 S
H569 C578 0.929 . S
C570 H564 0.930 . S
C570 C571 1.367 . S
C570 C578 1.378 1_655 S
C571 C570 1.367 . S
C571 C579 1.433 . S
C572 H568 0.929 1_556 S
C572 C574 1.378 1_655 S
C572 C576 1.350 1_655 S
C573 C576 1.463 1_655 S
C573 C578 1.350 1_655 S
C573 N581 1.427 . S
C574 H565 0.930 1_556 S
C574 C572 1.378 1_455 S
C574 C575 1.367 . S
C575 C574 1.367 . S
C575 C577 1.433 . S
C576 C572 1.350 1_455 S
C576 C573 1.463 1_455 S
C576 N580 1.427 . S
C577 H567 0.929 . S
C577 C575 1.433 . S
C577 N580 1.384 . S
C578 H569 0.929 . S
C578 C570 1.378 1_455 S
C578 C573 1.350 1_455 S
C579 H566 0.929 1_556 S
C579 C571 1.433 . S
C579 N581 1.384 . S
N580 C576 1.427 . S
N580 C577 1.384 . S
N581 C573 1.427 . S
N581 C579 1.384 . S
H582 C588 0.930 . S
H583 C592 0.930 . S
H584 C597 0.929 . S
H585 C595 0.929 . S
H586 C590 0.929 . S
H587 C596 0.929 . S
C588 H582 0.930 . S
C588 C589 1.367 . S
C588 C596 1.378 . S
C589 C588 1.367 . S
C589 C597 1.433 1_545 S
C590 H586 0.929 . S
C590 C592 1.378 . S
C590 C594 1.350 . S
C591 C594 1.463 1_545 S
C591 C596 1.350 . S
C591 N599 1.427 1_545 S
C592 H583 0.930 . S
C592 C590 1.378 . S
C592 C593 1.367 . S
C593 C592 1.367 . S
C593 C595 1.433 1_565 S
C594 C590 1.350 . S
C594 C591 1.463 1_565 S
C594 N598 1.427 1_565 S
C595 H585 0.929 . S
C595 C593 1.433 1_545 S
C595 N598 1.384 . S
C596 H587 0.929 . S
C596 C588 1.378 . S
C596 C591 1.350 . S
C597 H584 0.929 . S
C597 C589 1.433 1_565 S
C597 N599 1.384 . S
N598 C594 1.427 1_545 S
N598 C595 1.384 . S
N599 C591 1.427 1_565 S
N599 C597 1.384 . S
C175 C7 1.452 . S
C179 C133 1.451 . S
C193 C21 1.456 . S
C197 C147 1.459 . S
C211 C35 1.458 . S
C215 C161 1.454 . S
C229 C49 1.458 . S
C233 C91 1.459 . S
C247 C105 1.453 . S
C251 C63 1.451 . S
C265 C119 1.459 . S
C269 C77 1.458 . S
C283 C146 1.488 . S
C287 C6 1.488 . S
C301 C20 1.485 . S
C305 C160 1.490 . S
C319 C34 1.481 . S
C323 C90 1.491 . S
C337 C48 1.479 . S
C341 C104 1.489 . S
C355 C62 1.485 . S
C359 C118 1.480 . S
C373 C76 1.483 . S
C377 C132 1.491 . S
C391 C134 1.173 . S
C395 C8 1.178 . S
C409 C22 1.175 . S
C413 C148 1.179 . S
C427 C36 1.162 . S
C431 C162 1.161 . S
C445 C92 1.176 . S
C449 C50 1.179 . S
C463 C64 1.163 . S
C467 C106 1.161 . S
C481 C120 1.168 . S
C485 C78 1.174 . S
C499 C9 1.503 . S
C503 C51 1.501 . S
C517 C65 1.494 . S
C521 C23 1.499 . S
C535 C37 1.493 . S
C539 C79 1.494 . S
C553 C93 1.500 . S
C557 C135 1.495 . S
C571 C107 1.494 . S
C575 C149 1.499 . S
C589 C163 1.502 . S
C593 C121 1.503 . S
