# Generated by pormake.
# Topology uoh, (4)-cn, num edge types: 1
# Building blocks:
#     Node 0, Type 0, BuildingBlock: AZAVOO_clean_sbu_0, # of connection points: 4
#     Node 1, Type 0, BuildingBlock: AZAVOO_clean_sbu_0, # of connection points: 4
#     Node 2, Type 0, BuildingBlock: AZAVOO_clean_sbu_0, # of connection points: 4
#     Node 3, Type 0, BuildingBlock: AZAVOO_clean_sbu_0, # of connection points: 4
#     Node 4, Type 0, BuildingBlock: AZAVOO_clean_sbu_0, # of connection points: 4
#     Node 5, Type 0, BuildingBlock: AZAVOO_clean_sbu_0, # of connection points: 4
#     Node 6, Type 0, BuildingBlock: AZAVOO_clean_sbu_0, # of connection points: 4
#     Node 7, Type 0, BuildingBlock: AZAVOO_clean_sbu_0, # of connection points: 4
#     Node 8, Type 0, BuildingBlock: AZAVOO_clean_sbu_0, # of connection points: 4
#     Node 9, Type 0, BuildingBlock: AZAVOO_clean_sbu_0, # of connection points: 4
#     Node 10, Type 0, BuildingBlock: AZAVOO_clean_sbu_0, # of connection points: 4
#     Node 11, Type 0, BuildingBlock: AZAVOO_clean_sbu_0, # of connection points: 4
#     Node 12, Type 0, BuildingBlock: AZAVOO_clean_sbu_0, # of connection points: 4
#     Node 13, Type 0, BuildingBlock: AZAVOO_clean_sbu_0, # of connection points: 4
#     Node 14, Type 0, BuildingBlock: AZAVOO_clean_sbu_0, # of connection points: 4
#     Node 15, Type 0, BuildingBlock: AZAVOO_clean_sbu_0, # of connection points: 4
#     Node 16, Type 0, BuildingBlock: AZAVOO_clean_sbu_0, # of connection points: 4
#     Node 17, Type 0, BuildingBlock: AZAVOO_clean_sbu_0, # of connection points: 4
#     Node 18, Type 0, BuildingBlock: AZAVOO_clean_sbu_0, # of connection points: 4
#     Node 19, Type 0, BuildingBlock: AZAVOO_clean_sbu_0, # of connection points: 4
#     Node 20, Type 0, BuildingBlock: AZAVOO_clean_sbu_0, # of connection points: 4
#     Node 21, Type 0, BuildingBlock: AZAVOO_clean_sbu_0, # of connection points: 4
#     Node 22, Type 0, BuildingBlock: AZAVOO_clean_sbu_0, # of connection points: 4
#     Node 23, Type 0, BuildingBlock: AZAVOO_clean_sbu_0, # of connection points: 4
#     Node 24, Type 0, BuildingBlock: AZAVOO_clean_sbu_0, # of connection points: 4
#     Node 25, Type 0, BuildingBlock: AZAVOO_clean_sbu_0, # of connection points: 4
#     Node 26, Type 0, BuildingBlock: AZAVOO_clean_sbu_0, # of connection points: 4
#     Node 27, Type 0, BuildingBlock: AZAVOO_clean_sbu_0, # of connection points: 4
#     Node 28, Type 0, BuildingBlock: AZAVOO_clean_sbu_0, # of connection points: 4
#     Node 29, Type 0, BuildingBlock: AZAVOO_clean_sbu_0, # of connection points: 4
#     Node 30, Type 0, BuildingBlock: AZAVOO_clean_sbu_0, # of connection points: 4
#     Node 31, Type 0, BuildingBlock: AZAVOO_clean_sbu_0, # of connection points: 4
#     Node 32, Type 0, BuildingBlock: AZAVOO_clean_sbu_0, # of connection points: 4
#     Node 33, Type 0, BuildingBlock: AZAVOO_clean_sbu_0, # of connection points: 4
#     Node 34, Type 0, BuildingBlock: AZAVOO_clean_sbu_0, # of connection points: 4
#     Node 35, Type 0, BuildingBlock: AZAVOO_clean_sbu_0, # of connection points: 4
#     Edge 36, Type (0, 0), BuildingBlock: AJUNOK_clean_linker_0, # of connection points: 2
#     Edge 37, Type (0, 0), BuildingBlock: AJUNOK_clean_linker_0, # of connection points: 2
#     Edge 38, Type (0, 0), BuildingBlock: AJUNOK_clean_linker_0, # of connection points: 2
#     Edge 39, Type (0, 0), BuildingBlock: AJUNOK_clean_linker_0, # of connection points: 2
#     Edge 40, Type (0, 0), BuildingBlock: AJUNOK_clean_linker_0, # of connection points: 2
#     Edge 41, Type (0, 0), BuildingBlock: AJUNOK_clean_linker_0, # of connection points: 2
#     Edge 42, Type (0, 0), BuildingBlock: AJUNOK_clean_linker_0, # of connection points: 2
#     Edge 43, Type (0, 0), BuildingBlock: AJUNOK_clean_linker_0, # of connection points: 2
#     Edge 44, Type (0, 0), BuildingBlock: AJUNOK_clean_linker_0, # of connection points: 2
#     Edge 45, Type (0, 0), BuildingBlock: AJUNOK_clean_linker_0, # of connection points: 2
#     Edge 46, Type (0, 0), BuildingBlock: AJUNOK_clean_linker_0, # of connection points: 2
#     Edge 47, Type (0, 0), BuildingBlock: AJUNOK_clean_linker_0, # of connection points: 2
#     Edge 48, Type (0, 0), BuildingBlock: AJUNOK_clean_linker_0, # of connection points: 2
#     Edge 49, Type (0, 0), BuildingBlock: AJUNOK_clean_linker_0, # of connection points: 2
#     Edge 50, Type (0, 0), BuildingBlock: AJUNOK_clean_linker_0, # of connection points: 2
#     Edge 51, Type (0, 0), BuildingBlock: AJUNOK_clean_linker_0, # of connection points: 2
#     Edge 52, Type (0, 0), BuildingBlock: AJUNOK_clean_linker_0, # of connection points: 2
#     Edge 53, Type (0, 0), BuildingBlock: AJUNOK_clean_linker_0, # of connection points: 2
#     Edge 54, Type (0, 0), BuildingBlock: AJUNOK_clean_linker_0, # of connection points: 2
#     Edge 55, Type (0, 0), BuildingBlock: AJUNOK_clean_linker_0, # of connection points: 2
#     Edge 56, Type (0, 0), BuildingBlock: AJUNOK_clean_linker_0, # of connection points: 2
#     Edge 57, Type (0, 0), BuildingBlock: AJUNOK_clean_linker_0, # of connection points: 2
#     Edge 58, Type (0, 0), BuildingBlock: AJUNOK_clean_linker_0, # of connection points: 2
#     Edge 59, Type (0, 0), BuildingBlock: AJUNOK_clean_linker_0, # of connection points: 2
#     Edge 60, Type (0, 0), BuildingBlock: AJUNOK_clean_linker_0, # of connection points: 2
#     Edge 61, Type (0, 0), BuildingBlock: AJUNOK_clean_linker_0, # of connection points: 2
#     Edge 62, Type (0, 0), BuildingBlock: AJUNOK_clean_linker_0, # of connection points: 2
#     Edge 63, Type (0, 0), BuildingBlock: AJUNOK_clean_linker_0, # of connection points: 2
#     Edge 64, Type (0, 0), BuildingBlock: AJUNOK_clean_linker_0, # of connection points: 2
#     Edge 65, Type (0, 0), BuildingBlock: AJUNOK_clean_linker_0, # of connection points: 2
#     Edge 66, Type (0, 0), BuildingBlock: AJUNOK_clean_linker_0, # of connection points: 2
#     Edge 67, Type (0, 0), BuildingBlock: AJUNOK_clean_linker_0, # of connection points: 2
#     Edge 68, Type (0, 0), BuildingBlock: AJUNOK_clean_linker_0, # of connection points: 2
#     Edge 69, Type (0, 0), BuildingBlock: AJUNOK_clean_linker_0, # of connection points: 2
#     Edge 70, Type (0, 0), BuildingBlock: AJUNOK_clean_linker_0, # of connection points: 2
#     Edge 71, Type (0, 0), BuildingBlock: AJUNOK_clean_linker_0, # of connection points: 2
#     Edge 72, Type (0, 0), BuildingBlock: AJUNOK_clean_linker_0, # of connection points: 2
#     Edge 73, Type (0, 0), BuildingBlock: AJUNOK_clean_linker_0, # of connection points: 2
#     Edge 74, Type (0, 0), BuildingBlock: AJUNOK_clean_linker_0, # of connection points: 2
#     Edge 75, Type (0, 0), BuildingBlock: AJUNOK_clean_linker_0, # of connection points: 2
#     Edge 76, Type (0, 0), BuildingBlock: AJUNOK_clean_linker_0, # of connection points: 2
#     Edge 77, Type (0, 0), BuildingBlock: AJUNOK_clean_linker_0, # of connection points: 2
#     Edge 78, Type (0, 0), BuildingBlock: AJUNOK_clean_linker_0, # of connection points: 2
#     Edge 79, Type (0, 0), BuildingBlock: AJUNOK_clean_linker_0, # of connection points: 2
#     Edge 80, Type (0, 0), BuildingBlock: AJUNOK_clean_linker_0, # of connection points: 2
#     Edge 81, Type (0, 0), BuildingBlock: AJUNOK_clean_linker_0, # of connection points: 2
#     Edge 82, Type (0, 0), BuildingBlock: AJUNOK_clean_linker_0, # of connection points: 2
#     Edge 83, Type (0, 0), BuildingBlock: AJUNOK_clean_linker_0, # of connection points: 2
#     Edge 84, Type (0, 0), BuildingBlock: AJUNOK_clean_linker_0, # of connection points: 2
#     Edge 85, Type (0, 0), BuildingBlock: AJUNOK_clean_linker_0, # of connection points: 2
#     Edge 86, Type (0, 0), BuildingBlock: AJUNOK_clean_linker_0, # of connection points: 2
#     Edge 87, Type (0, 0), BuildingBlock: AJUNOK_clean_linker_0, # of connection points: 2
#     Edge 88, Type (0, 0), BuildingBlock: AJUNOK_clean_linker_0, # of connection points: 2
#     Edge 89, Type (0, 0), BuildingBlock: AJUNOK_clean_linker_0, # of connection points: 2
#     Edge 90, Type (0, 0), BuildingBlock: AJUNOK_clean_linker_0, # of connection points: 2
#     Edge 91, Type (0, 0), BuildingBlock: AJUNOK_clean_linker_0, # of connection points: 2
#     Edge 92, Type (0, 0), BuildingBlock: AJUNOK_clean_linker_0, # of connection points: 2
#     Edge 93, Type (0, 0), BuildingBlock: AJUNOK_clean_linker_0, # of connection points: 2
#     Edge 94, Type (0, 0), BuildingBlock: AJUNOK_clean_linker_0, # of connection points: 2
#     Edge 95, Type (0, 0), BuildingBlock: AJUNOK_clean_linker_0, # of connection points: 2
#     Edge 96, Type (0, 0), BuildingBlock: AJUNOK_clean_linker_0, # of connection points: 2
#     Edge 97, Type (0, 0), BuildingBlock: AJUNOK_clean_linker_0, # of connection points: 2
#     Edge 98, Type (0, 0), BuildingBlock: AJUNOK_clean_linker_0, # of connection points: 2
#     Edge 99, Type (0, 0), BuildingBlock: AJUNOK_clean_linker_0, # of connection points: 2
#     Edge 100, Type (0, 0), BuildingBlock: AJUNOK_clean_linker_0, # of connection points: 2
#     Edge 101, Type (0, 0), BuildingBlock: AJUNOK_clean_linker_0, # of connection points: 2
#     Edge 102, Type (0, 0), BuildingBlock: AJUNOK_clean_linker_0, # of connection points: 2
#     Edge 103, Type (0, 0), BuildingBlock: AJUNOK_clean_linker_0, # of connection points: 2
#     Edge 104, Type (0, 0), BuildingBlock: AJUNOK_clean_linker_0, # of connection points: 2
#     Edge 105, Type (0, 0), BuildingBlock: AJUNOK_clean_linker_0, # of connection points: 2
#     Edge 106, Type (0, 0), BuildingBlock: AJUNOK_clean_linker_0, # of connection points: 2
#     Edge 107, Type (0, 0), BuildingBlock: AJUNOK_clean_linker_0, # of connection points: 2
# Relax obj value: 0.295
# Max RMSD: 0.493
# Mean RMSD: 0.309
data_MOF--net-uoh--node1-AZAVOO_clean_sbu_0--edge1-AJUNOK_clean_linker_0
_symmetry_space_group_name_H-M    P1
_symmetry_Int_Tables_number       1
_symmetry_cell_setting            triclinic
loop_
_symmetry_equiv_pos_as_xyz
'x, y, z'
_cell_length_a     62.029039
_cell_length_b     61.405786
_cell_length_c     20.172929
_cell_angle_alpha  90.115005
_cell_angle_beta   90.03094
_cell_angle_gamma 117.46311
loop_
_atom_site_label
_atom_site_type_symbol
_atom_site_fract_x
_atom_site_fract_y
_atom_site_fract_z
_atom_type_partial_charge
Mg0 Mg 0.21835 0.15841 0.20915 0.0
O1 O 0.25077 0.15145 0.19155 0.0
O2 O 0.27323 0.16026 0.28307 0.0
Mg3 Mg 0.25198 0.16858 0.36444 0.0
C4 C 0.2695 0.1535 0.22246 0.0
C5 C 0.20068 0.1608 0.0579 0.0
O6 O 0.18202 0.16282 0.08204 0.0
O7 O 0.24287 0.19968 0.21451 0.0
O8 O 0.25881 0.20514 0.31649 0.0
O9 O 0.1954 0.11911 0.23984 0.0
O10 O 0.21768 0.14953 0.30805 0.0
C11 C 0.25531 0.21364 0.26204 0.0
C12 C 0.20368 0.12653 0.29899 0.0
O13 O 0.21589 0.15918 0.09713 0.0
Mg14 Mg 0.87427 0.09384 0.21433 0.0
O15 O 0.86013 0.1212 0.19714 0.0
O16 O 0.8403 0.1251 0.28415 0.0
Mg17 Mg 0.84518 0.10099 0.36473 0.0
C18 C 0.84803 0.13063 0.22484 0.0
C19 C 0.87728 0.08026 0.05602 0.0
O20 O 0.87421 0.05811 0.06972 0.0
O21 O 0.83597 0.06232 0.21089 0.0
O22 O 0.82075 0.06515 0.30918 0.0
O23 O 0.90965 0.12356 0.25163 0.0
O24 O 0.87763 0.10202 0.31494 0.0
C25 C 0.81923 0.05388 0.25468 0.0
C26 C 0.89941 0.11955 0.30931 0.0
O27 O 0.87815 0.09466 0.10241 0.0
Mg28 Mg 0.9118 0.7143 0.28059 0.0
O29 O 0.88713 0.67491 0.25466 0.0
O30 O 0.8882 0.64827 0.32663 0.0
Mg31 Mg 0.91502 0.67355 0.40738 0.0
C32 C 0.88009 0.65301 0.27338 0.0
C33 C 0.8822 0.71204 0.16176 0.0
O34 O 0.86692 0.70401 0.21155 0.0
O35 O 0.94522 0.71018 0.25302 0.0
O36 O 0.94937 0.69028 0.34113 0.0
O37 O 0.88264 0.7166 0.34055 0.0
O38 O 0.90928 0.70581 0.3815 0.0
C39 C 0.95746 0.70223 0.28722 0.0
C40 C 0.89075 0.70957 0.39092 0.0
O41 O 0.90486 0.72146 0.17402 0.0
Mg42 Mg 0.1794 0.28203 0.25887 0.0
O43 O 0.19122 0.32185 0.28442 0.0
O44 O 0.21627 0.34629 0.20778 0.0
Mg45 Mg 0.21682 0.32061 0.12445 0.0
C46 C 0.20503 0.34319 0.26271 0.0
C47 C 0.15242 0.28127 0.38273 0.0
O48 O 0.14428 0.29077 0.33685 0.0
O49 O 0.21714 0.28628 0.27989 0.0
O50 O 0.23682 0.30413 0.18675 0.0
O51 O 0.14665 0.27854 0.20338 0.0
O52 O 0.18248 0.2894 0.15818 0.0
C53 C 0.23539 0.29289 0.24114 0.0
C54 C 0.16017 0.28472 0.15097 0.0
O55 O 0.16766 0.2738 0.36623 0.0
Mg56 Mg 0.78732 0.90885 0.26074 0.0
O57 O 0.74752 0.88141 0.27595 0.0
O58 O 0.72695 0.8803 0.1844 0.0
Mg59 Mg 0.75461 0.90511 0.10693 0.0
C60 C 0.72769 0.87321 0.24345 0.0
C61 C 0.80435 0.89929 0.39487 0.0
O62 O 0.81604 0.89222 0.35276 0.0
O63 O 0.77863 0.94092 0.26542 0.0
O64 O 0.76293 0.9403 0.16527 0.0
O65 O 0.7952 0.87887 0.22304 0.0
O66 O 0.7839 0.90122 0.15981 0.0
C67 C 0.77072 0.95044 0.2216 0.0
C68 C 0.78907 0.88326 0.16524 0.0
O69 O 0.79179 0.90909 0.37245 0.0
Mg70 Mg 0.07877 0.83317 0.26396 0.0
O71 O 0.11529 0.83383 0.27091 0.0
O72 O 0.12288 0.81677 0.18302 0.0
Mg73 Mg 0.09085 0.80864 0.1113 0.0
C74 C 0.12889 0.82695 0.23992 0.0
C75 C 0.06894 0.84138 0.41833 0.0
O76 O 0.04681 0.83668 0.40078 0.0
O77 O 0.05882 0.79139 0.27756 0.0
O78 O 0.06325 0.77808 0.17758 0.0
O79 O 0.09499 0.87002 0.21265 0.0
O80 O 0.07996 0.83425 0.16144 0.0
C81 C 0.05371 0.77407 0.23531 0.0
C82 C 0.08955 0.85771 0.15762 0.0
O83 O 0.08354 0.84101 0.37481 0.0
Mg84 Mg 0.77407 0.83104 0.76023 0.0
O85 O 0.7365 0.82769 0.76714 0.0
O86 O 0.7151 0.81245 0.67476 0.0
Mg87 Mg 0.74144 0.80658 0.60467 0.0
C88 C 0.71701 0.82045 0.73396 0.0
C89 C 0.79127 0.83924 0.91406 0.0
O90 O 0.81024 0.83655 0.89589 0.0
O91 O 0.75784 0.78973 0.77138 0.0
O92 O 0.7411 0.77606 0.67145 0.0
O93 O 0.78866 0.86831 0.71344 0.0
O94 O 0.7743 0.83325 0.65807 0.0
C95 C 0.74685 0.77234 0.72971 0.0
C96 C 0.78382 0.85677 0.65722 0.0
O97 O 0.77573 0.83769 0.87094 0.0
Mg98 Mg 0.13035 0.91482 0.76809 0.0
O99 O 0.14539 0.88949 0.80089 0.0
O100 O 0.16906 0.88612 0.72336 0.0
Mg101 Mg 0.16595 0.90773 0.6332 0.0
C102 C 0.15953 0.88111 0.78102 0.0
C103 C 0.10101 0.90154 0.89636 0.0
O104 O 0.08419 0.89151 0.85063 0.0
O105 O 0.16758 0.94794 0.77694 0.0
O106 O 0.1866 0.9451 0.68563 0.0
O107 O 0.09724 0.88316 0.72592 0.0
O108 O 0.13075 0.90478 0.6687 0.0
C109 C 0.18563 0.95671 0.73723 0.0
C110 C 0.1092 0.8866 0.67121 0.0
O111 O 0.12244 0.91618 0.8781 0.0
Mg112 Mg 0.09618 0.27513 0.7602 0.0
O113 O 0.12262 0.31423 0.78655 0.0
O114 O 0.12312 0.34079 0.71152 0.0
Mg115 Mg 0.09617 0.31651 0.6304 0.0
C116 C 0.13062 0.33607 0.76586 0.0
C117 C 0.12308 0.27378 0.88201 0.0
O118 O 0.13924 0.28145 0.83415 0.0
O119 O 0.06344 0.28098 0.78431 0.0
O120 O 0.06156 0.30152 0.69497 0.0
O121 O 0.12493 0.27101 0.70237 0.0
O122 O 0.09982 0.2835 0.65963 0.0
C123 C 0.0522 0.28952 0.74806 0.0
C124 C 0.11769 0.27863 0.65137 0.0
O125 O 0.10094 0.26681 0.86728 0.0
Mg126 Mg 0.82908 0.70593 0.78483 0.0
O127 O 0.81411 0.66609 0.75607 0.0
O128 O 0.78606 0.64217 0.82757 0.0
Mg129 Mg 0.78667 0.66801 0.91156 0.0
C130 C 0.79825 0.645 0.77453 0.0
C131 C 0.85601 0.7049 0.66071 0.0
O132 O 0.86215 0.69301 0.70476 0.0
O133 O 0.79337 0.70544 0.75871 0.0
O134 O 0.76994 0.68693 0.84616 0.0
O135 O 0.85948 0.70535 0.84181 0.0
O136 O 0.82382 0.69711 0.88536 0.0
C137 C 0.77391 0.69897 0.79214 0.0
C138 C 0.84538 0.69931 0.8931 0.0
O139 O 0.84266 0.71449 0.67885 0.0
Mg140 Mg 0.20699 0.09788 0.70725 0.0
O141 O 0.24515 0.12652 0.68231 0.0
O142 O 0.26991 0.13316 0.76807 0.0
Mg143 Mg 0.24539 0.11045 0.8543 0.0
C144 C 0.26618 0.13729 0.70821 0.0
C145 C 0.18342 0.08455 0.55758 0.0
O146 O 0.16141 0.07348 0.58254 0.0
O147 O 0.21839 0.06758 0.70916 0.0
O148 O 0.23765 0.07352 0.80642 0.0
O149 O 0.19734 0.12726 0.74113 0.0
O150 O 0.21246 0.10856 0.80572 0.0
C151 C 0.22843 0.06074 0.75425 0.0
C152 C 0.2053 0.12502 0.79877 0.0
O153 O 0.20164 0.09428 0.59598 0.0
Mg154 Mg 0.92535 0.163 0.71818 0.0
O155 O 0.89108 0.16711 0.70572 0.0
O156 O 0.88274 0.18033 0.80019 0.0
Mg157 Mg 0.91017 0.18049 0.87782 0.0
C158 C 0.8781 0.17418 0.7393 0.0
C159 C 0.93847 0.15643 0.5675 0.0
O160 O 0.95433 0.15017 0.59285 0.0
O161 O 0.9486 0.20459 0.72438 0.0
O162 O 0.94221 0.21317 0.82824 0.0
O163 O 0.90361 0.12341 0.74721 0.0
O164 O 0.91772 0.15461 0.81759 0.0
C165 C 0.95344 0.21956 0.77295 0.0
C166 C 0.90525 0.13138 0.80741 0.0
O167 O 0.92631 0.16291 0.60599 0.0
Mg168 Mg 0.90055 0.44391 0.57011 0.0
O169 O 0.94074 0.46479 0.54828 0.0
O170 O 0.96077 0.49141 0.62816 0.0
Mg171 Mg 0.9321 0.48562 0.70814 0.0
C172 C 0.9603 0.48156 0.5721 0.0
C173 C 0.9097 0.42127 0.44809 0.0
O174 O 0.92012 0.41564 0.49721 0.0
O175 O 0.89627 0.47828 0.54833 0.0
O176 O 0.91272 0.5006 0.6397 0.0
O177 O 0.90477 0.41489 0.63056 0.0
O178 O 0.90631 0.44883 0.67124 0.0
C179 C 0.90107 0.497 0.58516 0.0
C180 C 0.90679 0.42851 0.68159 0.0
O181 O 0.89709 0.43217 0.46165 0.0
Mg182 Mg 0.51684 0.42029 0.59829 0.0
O183 O 0.50652 0.45088 0.58167 0.0
O184 O 0.48365 0.45261 0.66417 0.0
Mg185 Mg 0.48261 0.42444 0.74158 0.0
C186 C 0.49421 0.46029 0.60852 0.0
C187 C 0.54193 0.44578 0.47392 0.0
O188 O 0.55102 0.46195 0.52202 0.0
O189 O 0.47776 0.39162 0.57939 0.0
O190 O 0.45908 0.39187 0.67425 0.0
O191 O 0.55131 0.446 0.65001 0.0
O192 O 0.51587 0.42494 0.69984 0.0
C193 C 0.45915 0.38279 0.61727 0.0
C194 C 0.53833 0.4411 0.70323 0.0
O195 O 0.52666 0.42392 0.48863 0.0
Mg196 Mg 0.57682 0.09939 0.58584 0.0
O197 O 0.55013 0.0601 0.56037 0.0
O198 O 0.55091 0.03501 0.63829 0.0
Mg199 Mg 0.57703 0.05981 0.71971 0.0
C200 C 0.54281 0.03861 0.58341 0.0
C201 C 0.57573 0.09722 0.43075 0.0
O202 O 0.58521 0.08227 0.44022 0.0
O203 O 0.60947 0.09301 0.56398 0.0
O204 O 0.61123 0.07283 0.65442 0.0
O205 O 0.54792 0.10399 0.64079 0.0
O206 O 0.57328 0.09218 0.68609 0.0
C207 C 0.62026 0.08391 0.59996 0.0
C208 C 0.55548 0.09725 0.69294 0.0
O209 O 0.57232 0.10823 0.47987 0.0
Mg210 Mg 0.77281 0.50424 0.6014 0.0
O211 O 0.77851 0.54213 0.62874 0.0
O212 O 0.79348 0.56756 0.54335 0.0
Mg213 Mg 0.79335 0.54353 0.45472 0.0
C214 C 0.78645 0.56337 0.60362 0.0
C215 C 0.75598 0.48973 0.75092 0.0
O216 O 0.73402 0.47849 0.72554 0.0
O217 O 0.81348 0.5178 0.59534 0.0
O218 O 0.82454 0.53778 0.4985 0.0
O219 O 0.73418 0.49383 0.56968 0.0
O220 O 0.76641 0.50985 0.50444 0.0
C221 C 0.82929 0.52902 0.55063 0.0
C222 C 0.74362 0.50257 0.51244 0.0
O223 O 0.77416 0.49901 0.7125 0.0
Mg224 Mg 0.40925 0.23541 0.55351 0.0
O225 O 0.36936 0.21129 0.57297 0.0
O226 O 0.34599 0.21619 0.4976 0.0
Mg227 Mg 0.3729 0.24253 0.42041 0.0
C228 C 0.34847 0.20631 0.55068 0.0
C229 C 0.40538 0.20374 0.67094 0.0
O230 O 0.3965 0.18862 0.62051 0.0
O231 O 0.40588 0.26962 0.58217 0.0
O232 O 0.38791 0.27531 0.49213 0.0
O233 O 0.41199 0.20667 0.48993 0.0
O234 O 0.40328 0.23536 0.45243 0.0
C235 C 0.39878 0.28262 0.54777 0.0
C236 C 0.40711 0.21693 0.44012 0.0
O237 O 0.41467 0.22668 0.65998 0.0
Mg238 Mg 0.75637 0.19948 0.60621 0.0
O239 O 0.7871 0.19021 0.62508 0.0
O240 O 0.79391 0.17218 0.53786 0.0
Mg241 Mg 0.76829 0.17335 0.45594 0.0
C242 C 0.79865 0.18017 0.59734 0.0
C243 C 0.74295 0.20717 0.76049 0.0
O244 O 0.72521 0.21155 0.74017 0.0
O245 O 0.72842 0.15912 0.60772 0.0
O246 O 0.73352 0.14556 0.50881 0.0
O247 O 0.78283 0.23687 0.56913 0.0
O248 O 0.76474 0.20377 0.50589 0.0
C249 C 0.72176 0.14252 0.56289 0.0
C250 C 0.78009 0.22659 0.51151 0.0
O251 O 0.75561 0.20263 0.71847 0.0
Mg252 Mg 0.39807 0.15047 0.05387 0.0
O253 O 0.3616 0.147 0.08411 0.0
O254 O 0.33242 0.12125 0.01768 0.0
Mg255 Mg 0.35232 0.11155 0.93466 0.0
C256 C 0.33933 0.13531 0.06836 0.0
C257 C 0.40774 0.18461 0.16941 0.0
O258 O 0.40046 0.19398 0.12117 0.0
O259 O 0.38689 0.11171 0.08789 0.0
O260 O 0.364 0.08889 0.00379 0.0
O261 O 0.40579 0.18269 0.98929 0.0
O262 O 0.38786 0.1443 0.95447 0.0
C263 C 0.37552 0.09114 0.05806 0.0
C264 C 0.396 0.16725 0.94114 0.0
O265 O 0.41054 0.16578 0.15723 0.0
Mg266 Mg 0.82232 0.25229 0.10252 0.0
O267 O 0.82401 0.21626 0.11472 0.0
O268 O 0.83479 0.2066 0.01797 0.0
Mg269 Mg 0.83597 0.23441 0.94072 0.0
C270 C 0.8298 0.20253 0.07951 0.0
C271 C 0.81285 0.26398 0.25029 0.0
O272 O 0.80211 0.27546 0.22092 0.0
O273 O 0.86378 0.27234 0.09466 0.0
O274 O 0.87035 0.26323 0.99163 0.0
O275 O 0.78261 0.23274 0.07419 0.0
O276 O 0.81319 0.24468 0.00372 0.0
C277 C 0.87808 0.27467 0.04643 0.0
C278 C 0.79018 0.23358 0.01401 0.0
O279 O 0.82325 0.25448 0.21497 0.0
Mg280 Mg 0.74137 0.5389 0.11371 0.0
O281 O 0.78027 0.56642 0.14112 0.0
O282 O 0.79526 0.59262 0.05722 0.0
Mg283 Mg 0.76826 0.57772 0.96947 0.0
C284 C 0.79724 0.58562 0.11556 0.0
C285 C 0.71642 0.51327 0.2516 0.0
O286 O 0.69929 0.49637 0.21519 0.0
O287 O 0.72918 0.56849 0.11873 0.0
O288 O 0.73947 0.58632 0.01924 0.0
O289 O 0.75263 0.51155 0.07294 0.0
O290 O 0.75044 0.54082 0.01445 0.0
C291 C 0.72787 0.5825 0.0739 0.0
C292 C 0.75528 0.52263 0.01671 0.0
O293 O 0.73412 0.53108 0.22361 0.0
Mg294 Mg 0.49723 0.08556 0.08857 0.0
O295 O 0.49808 0.05006 0.06458 0.0
O296 O 0.4833 0.0241 0.14881 0.0
Mg297 Mg 0.47459 0.04489 0.23155 0.0
C298 C 0.49235 0.0293 0.09065 0.0
C299 C 0.52495 0.10417 0.96003 0.0
O300 O 0.54197 0.11291 0.00559 0.0
O301 O 0.45628 0.06726 0.07794 0.0
O302 O 0.44326 0.0461 0.1724 0.0
O303 O 0.53434 0.09998 0.13218 0.0
O304 O 0.50039 0.08093 0.18979 0.0
C305 C 0.43923 0.05412 0.11777 0.0
C306 C 0.52374 0.09105 0.18793 0.0
O307 O 0.5029 0.09335 0.97812 0.0
Mg308 Mg 0.94631 0.39591 0.06801 0.0
O309 O 0.9706 0.43488 0.02856 0.0
O310 O 0.00021 0.45048 0.10086 0.0
Mg311 Mg 0.98963 0.41057 0.11515 0.0
C312 C 0.98882 0.45339 0.05233 0.0
C313 C 0.92021 0.40574 0.95296 0.0
O314 O 0.92043 0.4207 -0.00017 0.0
O315 O 0.96726 0.37656 0.02589 0.0
O316 O 0.97769 0.37025 0.1234 0.0
O317 O 0.9283 0.4119 0.12852 0.0
O318 O 0.95684 0.40457 0.17651 0.0
C319 C 0.96857 0.36163 0.06729 0.0
C320 C 0.9395 0.41071 0.1811 0.0
O321 O 0.92842 0.39074 0.96633 0.0
Mg322 Mg 0.59138 0.50193 0.09815 0.0
O323 O 0.5619 0.51376 0.08298 0.0
O324 O 0.56172 0.53771 0.1655 0.0
Mg325 Mg 0.59075 0.53907 0.23947 0.0
C326 C 0.55319 0.52663 0.11071 0.0
C327 C 0.56653 0.47849 0.96715 0.0
O328 O 0.54813 0.47163 0.00813 0.0
O329 O 0.62124 0.54031 0.07597 0.0
O330 O 0.62337 0.56048 0.17011 0.0
O331 O 0.56538 0.46846 0.15325 0.0
O332 O 0.58849 0.50434 0.1998 0.0
C333 C 0.63177 0.55921 0.11314 0.0
C334 C 0.57218 0.4819 0.20628 0.0
O335 O 0.588 0.49079 0.98913 0.0
Mg336 Mg 0.58244 0.82053 0.85656 0.0
O337 O 0.61911 0.82195 0.84055 0.0
O338 O 0.64077 0.83304 0.93394 0.0
Mg339 Mg 0.61634 0.83756 0.01298 0.0
C340 C 0.63839 0.82686 0.87288 0.0
C341 C 0.56686 0.82304 0.70207 0.0
O342 O 0.54822 0.82602 0.72181 0.0
O343 O 0.59961 0.86212 0.86008 0.0
O344 O 0.61597 0.87088 0.96151 0.0
O345 O 0.56637 0.78105 0.8895 0.0
O346 O 0.58339 0.81313 0.95646 0.0
C347 C 0.61001 0.87737 0.90716 0.0
C348 C 0.5734 0.78976 0.94855 0.0
O349 O 0.58048 0.82016 0.74436 0.0
Mg350 Mg 0.17246 0.75456 0.91038 0.0
O351 O 0.17335 0.79158 0.90453 0.0
O352 O 0.15865 0.79977 0.99613 0.0
Mg353 Mg 0.15136 0.76777 0.06716 0.0
C354 C 0.16727 0.80546 0.9377 0.0
C355 C 0.18154 0.74461 0.758 0.0
O356 O 0.18152 0.7244 0.77935 0.0
O357 O 0.13103 0.73574 0.90094 0.0
O358 O 0.11966 0.74174 0.00171 0.0
O359 O 0.20979 0.77105 0.95681 0.0
O360 O 0.1753 0.75613 0.01259 0.0
C361 C 0.11452 0.73216 0.94387 0.0
C362 C 0.1986 0.76617 0.01324 0.0
O363 O 0.17817 0.75846 0.79893 0.0
Mg364 Mg 0.2633 0.46513 0.89628 0.0
O365 O 0.22859 0.42983 0.87574 0.0
O366 O 0.21965 0.40675 0.96647 0.0
Mg367 Mg 0.24665 0.42949 0.04872 0.0
C368 C 0.21507 0.41014 0.9067 0.0
C369 C 0.28685 0.48555 0.75469 0.0
O370 O 0.30541 0.50218 0.78777 0.0
O371 O 0.28652 0.44541 0.89809 0.0
O372 O 0.28046 0.4298 0.00019 0.0
O373 O 0.24153 0.48411 0.92862 0.0
O374 O 0.25404 0.46359 0.99503 0.0
C375 C 0.29219 0.43531 0.94557 0.0
C376 C 0.24194 0.47567 0.98712 0.0
O377 O 0.26832 0.47003 0.78561 0.0
Mg378 Mg 0.50279 0.90275 0.92236 0.0
O379 O 0.50382 0.93849 0.9521 0.0
O380 O 0.5197 0.9663 0.87269 0.0
Mg381 Mg 0.52687 0.94596 0.78539 0.0
C382 C 0.51054 0.96002 0.93046 0.0
C383 C 0.47501 0.88242 0.04984 0.0
O384 O 0.45822 0.87223 0.00412 0.0
O385 O 0.54362 0.91887 0.93224 0.0
O386 O 0.55721 0.9412 0.83988 0.0
O387 O 0.46582 0.89083 0.87933 0.0
O388 O 0.49998 0.9093 0.82218 0.0
C389 C 0.56082 0.93175 0.89249 0.0
C390 C 0.47669 0.90001 0.82399 0.0
O391 O 0.49705 0.89389 0.03212 0.0
Mg392 Mg 0.05758 0.60559 0.90494 0.0
O393 O 0.03369 0.56747 0.95011 0.0
O394 O 0.00357 0.55003 0.8802 0.0
Mg395 Mg 0.01358 0.58975 0.86288 0.0
C396 C 0.01536 0.54835 0.92954 0.0
C397 C 0.0852 0.59666 0.01873 0.0
O398 O 0.0849 0.58159 0.97207 0.0
O399 O 0.03804 0.62654 0.94822 0.0
O400 O 0.02461 0.62976 0.85122 0.0
O401 O 0.07411 0.58811 0.84259 0.0
O402 O 0.04532 0.59567 0.79794 0.0
C403 C 0.03368 0.63951 0.90642 0.0
C404 C 0.06196 0.5887 0.79138 0.0
O405 O 0.07682 0.61152 0.00521 0.0
Mg406 Mg 0.42408 0.54124 0.98428 0.0
O407 O 0.45733 0.53609 0.00471 0.0
O408 O 0.46559 0.51942 0.91674 0.0
Mg409 Mg 0.43946 0.51843 0.83374 0.0
C410 C 0.47008 0.52759 0.9761 0.0
C411 C 0.40771 0.54445 0.13831 0.0
O412 O 0.38889 0.54716 0.11871 0.0
O413 O 0.39884 0.50005 0.98391 0.0
O414 O 0.40537 0.48843 0.88413 0.0
O415 O 0.448 0.57972 0.94901 0.0
O416 O 0.43274 0.54681 0.88445 0.0
C417 C 0.39321 0.48397 0.93793 0.0
C418 C 0.44641 0.57 0.89103 0.0
O419 O 0.422 0.54279 0.09598 0.0
Mg420 Mg 0.10535 0.55961 0.40376 0.0
O421 O 0.06565 0.53601 0.4262 0.0
O422 O 0.04598 0.50822 0.34866 0.0
Mg423 Mg 0.07504 0.51615 0.26772 0.0
C424 C 0.04649 0.51804 0.40477 0.0
C425 C 0.0928 0.58029 0.52374 0.0
O426 O 0.08229 0.58488 0.47295 0.0
O427 O 0.11252 0.52693 0.42649 0.0
O428 O 0.09641 0.50352 0.33646 0.0
O429 O 0.09857 0.58682 0.34186 0.0
O430 O 0.09951 0.5539 0.30229 0.0
C431 C 0.10852 0.50821 0.39048 0.0
C432 C 0.09755 0.57343 0.29116 0.0
O433 O 0.10747 0.57152 0.51245 0.0
Mg434 Mg 0.48355 0.5923 0.48147 0.0
O435 O 0.48712 0.55772 0.49982 0.0
O436 O 0.49991 0.54689 0.40861 0.0
Mg437 Mg 0.50059 0.57336 0.32643 0.0
C438 C 0.49351 0.54347 0.46943 0.0
C439 C 0.47625 0.60772 0.62952 0.0
O440 O 0.46697 0.62075 0.60109 0.0
O441 O 0.52462 0.61582 0.47401 0.0
O442 O 0.53264 0.60706 0.3722 0.0
O443 O 0.44428 0.56984 0.45274 0.0
O444 O 0.4752 0.58253 0.38291 0.0
C445 C 0.53914 0.61991 0.42524 0.0
C446 C 0.45224 0.57015 0.39326 0.0
O447 O 0.48424 0.59607 0.59355 0.0
Mg448 Mg 0.42873 0.89891 0.4228 0.0
O449 O 0.45811 0.93683 0.45088 0.0
O450 O 0.45996 0.96396 0.37569 0.0
Mg451 Mg 0.43366 0.94159 0.29131 0.0
C452 C 0.46706 0.95879 0.43016 0.0
C453 C 0.42791 0.89872 0.57873 0.0
O454 O 0.41981 0.91486 0.57021 0.0
O455 O 0.39848 0.90914 0.44443 0.0
O456 O 0.39917 0.93056 0.35401 0.0
O457 O 0.45522 0.8907 0.36592 0.0
O458 O 0.43317 0.9069 0.32306 0.0
C459 C 0.38917 0.91962 0.40787 0.0
C460 C 0.44866 0.89874 0.31435 0.0
O461 O 0.43128 0.88809 0.52861 0.0
Mg462 Mg 0.23373 0.48959 0.39578 0.0
O463 O 0.22401 0.44958 0.37955 0.0
O464 O 0.20638 0.42781 0.46948 0.0
Mg465 Mg 0.20875 0.45596 0.54928 0.0
C466 C 0.21382 0.42917 0.40987 0.0
C467 C 0.2253 0.50111 0.24512 0.0
O468 O 0.21394 0.51297 0.2685 0.0
O469 O 0.194 0.48056 0.39555 0.0
O470 O 0.18057 0.46425 0.49569 0.0
O471 O 0.27092 0.49717 0.43122 0.0
O472 O 0.23858 0.48631 0.49539 0.0
C473 C 0.17751 0.47228 0.43995 0.0
C474 C 0.26096 0.49118 0.48919 0.0
O475 O 0.23533 0.49226 0.28406 0.0
Mg476 Mg 0.58089 0.7619 0.35877 0.0
O477 O 0.62037 0.78946 0.34267 0.0
O478 O 0.64163 0.79481 0.43532 0.0
Mg479 Mg 0.61384 0.77227 0.51573 0.0
C480 C 0.6404 0.79941 0.37413 0.0
C481 C 0.56015 0.74781 0.20815 0.0
O482 O 0.53867 0.73387 0.23375 0.0
O483 O 0.59002 0.72998 0.36684 0.0
O484 O 0.60544 0.735 0.46912 0.0
O485 O 0.57179 0.79222 0.38699 0.0
O486 O 0.58351 0.77219 0.45754 0.0
C487 C 0.59749 0.72226 0.41627 0.0
C488 C 0.57756 0.78933 0.44683 0.0
O489 O 0.57818 0.75927 0.24643 0.0
Mg490 Mg 0.25036 0.80899 0.40771 0.0
O491 O 0.2215 0.81913 0.37299 0.0
O492 O 0.21478 0.84101 0.45053 0.0
Mg493 Mg 0.23777 0.84166 0.54166 0.0
C494 C 0.21069 0.83115 0.39297 0.0
C495 C 0.23984 0.78038 0.27713 0.0
O496 O 0.22809 0.7631 0.3208 0.0
O497 O 0.27999 0.84854 0.39982 0.0
O498 O 0.27438 0.86599 0.49125 0.0
O499 O 0.22175 0.77356 0.44974 0.0
O500 O 0.23946 0.80821 0.50642 0.0
C501 C 0.28684 0.86655 0.44031 0.0
C502 C 0.22342 0.78551 0.50392 0.0
O503 O 0.25388 0.80181 0.29815 0.0
C504 C 0.22565 0.14855 0.89954 0.0
C505 C 0.20568 0.13992 0.8564 0.0
C506 C 0.22435 0.15703 0.96293 0.0
C507 C 0.20288 0.15696 0.98605 0.0
H508 H 0.24209 0.14774 0.88532 0.0
H509 H 0.23997 0.16246 0.99522 0.0
S510 S 0.1466 0.13937 0.88786 0.0
N511 N 0.1648 0.13436 0.83732 0.0
N512 N 0.16211 0.15019 0.95723 0.0
C513 C 0.18345 0.15035 0.94114 0.0
C514 C 0.18491 0.14184 0.87604 0.0
C515 C 0.88272 0.12215 0.91345 0.0
C516 C 0.89373 0.1148 0.86364 0.0
C517 C 0.87607 0.1097 0.97378 0.0
C518 C 0.88048 0.08961 0.98718 0.0
H519 H 0.87984 0.13809 0.90652 0.0
H520 H 0.86813 0.11644 0.01119 0.0
S521 S 0.9063 0.06139 0.86948 0.0
N522 N 0.90661 0.08476 0.82826 0.0
N523 N 0.89438 0.06141 0.94272 0.0
C524 C 0.88985 0.08092 0.93588 0.0
C525 C 0.89645 0.09355 0.87381 0.0
C526 C 0.88828 0.71973 0.03964 0.0
C527 C 0.87291 0.70738 0.09291 0.0
C528 C 0.8795 0.71586 0.97434 0.0
C529 C 0.85508 0.69949 0.96007 0.0
H530 H 0.90705 0.73294 0.04851 0.0
H531 H 0.8917 0.72661 0.93519 0.0
S532 S 0.80852 0.65948 0.08029 0.0
N533 N 0.83273 0.67598 0.12595 0.0
N534 N 0.81661 0.66862 0.00335 0.0
C535 C 0.83996 0.68599 0.01234 0.0
C536 C 0.84878 0.68997 0.07876 0.0
C537 C 0.12607 0.28706 0.46612 0.0
C538 C 0.14462 0.28065 0.45228 0.0
C539 C 0.11811 0.28699 0.53078 0.0
C540 C 0.12836 0.28055 0.58472 0.0
H541 H 0.11733 0.292 0.42661 0.0
H542 H 0.10339 0.29158 0.53802 0.0
S543 S 0.17846 0.26351 0.576 0.0
N544 N 0.17381 0.26856 0.4982 0.0
N545 N 0.15874 0.26839 0.6204 0.0
C546 C 0.14731 0.27456 0.57204 0.0
C547 C 0.15544 0.27459 0.50571 0.0
C548 C 0.8045 0.87024 0.4799 0.0
C549 C 0.80148 0.89098 0.4645 0.0
C550 C 0.79883 0.85962 0.5427 0.0
C551 C 0.79047 0.86961 0.59317 0.0
H552 H 0.81036 0.86146 0.44246 0.0
H553 H 0.80091 0.84329 0.55165 0.0
S554 S 0.78107 0.92479 0.58034 0.0
N555 N 0.79044 0.92178 0.50579 0.0
N556 N 0.78056 0.90207 0.62526 0.0
C557 C 0.78836 0.89095 0.57978 0.0
C558 C 0.79364 0.90155 0.51501 0.0
C559 C 0.07466 0.86796 0.5917 0.0
C560 C 0.09781 0.87166 0.61179 0.0
C561 C 0.06492 0.85721 0.53012 0.0
C562 C 0.07797 0.84964 0.48673 0.0
H563 H 0.06451 0.87454 0.62231 0.0
H564 H 0.04751 0.85576 0.51545 0.0
S565 S 0.13733 0.85092 0.52305 0.0
N566 N 0.13199 0.86391 0.5884 0.0
N567 N 0.11392 0.84361 0.47298 0.0
C568 C 0.10043 0.85169 0.50874 0.0
C569 C 0.11032 0.86276 0.57118 0.0
C570 C 0.80829 0.86554 0.08818 0.0
C571 C 0.78789 0.86828 0.1071 0.0
C572 C 0.80892 0.85503 0.02675 0.0
C573 C 0.7891 0.84689 0.98254 0.0
H574 H 0.82432 0.87272 0.11943 0.0
H575 H 0.82542 0.8543 0.01273 0.0
S576 S 0.72987 0.84633 0.01572 0.0
N577 N 0.74641 0.85917 0.0821 0.0
N578 N 0.74734 0.83974 0.96657 0.0
C579 C 0.76796 0.84804 0.00357 0.0
C580 C 0.76743 0.8587 0.06589 0.0
C581 C 0.11032 0.89344 0.07977 0.0
C582 C 0.09198 0.86951 0.09224 0.0
C583 C 0.1128 0.9041 0.01668 0.0
C584 C 0.09662 0.89144 0.96465 0.0
H585 H 0.12321 0.90369 0.11831 0.0
H586 H 0.12769 0.92223 0.00838 0.0
S587 S 0.04435 0.8289 0.97415 0.0
N588 N 0.05672 0.83393 0.04859 0.0
N589 N 0.06098 0.85396 0.9314 0.0
C590 C 0.07766 0.86784 0.97765 0.0
C591 C 0.07547 0.85688 0.04107 0.0
C592 C 0.15617 0.28372 0.96417 0.0
C593 C 0.13143 0.27619 0.95164 0.0
C594 C 0.16531 0.2874 0.02866 0.0
C595 C 0.15013 0.28364 0.08377 0.0
H596 H 0.16876 0.2868 0.92381 0.0
H597 H 0.18443 0.29273 0.03506 0.0
S598 S 0.0841 0.2651 0.07833 0.0
N599 N 0.09194 0.26601 -0.00022 0.0
N600 N 0.10917 0.27277 0.12167 0.0
C601 C 0.12539 0.27654 0.07224 0.0
C602 C 0.11602 0.27279 0.00611 0.0
C603 C 0.88993 0.69957 0.51082 0.0
C604 C 0.88018 0.70714 0.45799 0.0
C605 C 0.88192 0.69893 0.57582 0.0
C606 C 0.86394 0.70603 0.59105 0.0
H607 H 0.9042 0.69442 0.5024 0.0
H608 H 0.8902 0.69309 0.61455 0.0
S609 S 0.8317 0.72643 0.47065 0.0
N610 N 0.85092 0.7212 0.42498 0.0
N611 N 0.83592 0.72012 0.54762 0.0
C612 C 0.85371 0.71333 0.53873 0.0
C613 C 0.86179 0.71382 0.47214 0.0
C614 C 0.16868 0.08896 0.44493 0.0
C615 C 0.18743 0.08959 0.48557 0.0
C616 C 0.17362 0.09895 0.38079 0.0
C617 C 0.1974 0.10975 0.35561 0.0
H618 H 0.15044 0.08232 0.46425 0.0
H619 H 0.15916 0.09992 0.35287 0.0
S620 S 0.25184 0.11154 0.43593 0.0
N621 N 0.22999 0.09848 0.49122 0.0
N622 N 0.23902 0.11738 0.37128 0.0
C623 C 0.21577 0.10849 0.39308 0.0
C624 C 0.21083 0.09829 0.45795 0.0
C625 C 0.94225 0.14108 0.45492 0.0
C626 C 0.93139 0.1517 0.4965 0.0
C627 C 0.93288 0.13234 0.39153 0.0
C628 C 0.91228 0.13378 0.368 0.0
H629 H 0.95733 0.13836 0.47253 0.0
H630 H 0.94084 0.123 0.36254 0.0
S631 S 0.87951 0.16349 0.45132 0.0
N632 N 0.90072 0.16604 0.50481 0.0
N633 N 0.88311 0.14911 0.38634 0.0
C634 C 0.90233 0.14586 0.40657 0.0
C635 C 0.91195 0.15503 0.47065 0.0
C636 C 0.93979 0.40652 0.30388 0.0
C637 C 0.93106 0.4136 0.24785 0.0
C638 C 0.93217 0.40849 0.36772 0.0
C639 C 0.91558 0.41781 0.37879 0.0
H640 H 0.95264 0.39925 0.29873 0.0
H641 H 0.93973 0.40291 0.4088 0.0
S642 S 0.88703 0.43892 0.24909 0.0
N643 N 0.90464 0.43018 0.20746 0.0
N644 N 0.89042 0.43408 0.32802 0.0
C645 C 0.9065 0.42485 0.32331 0.0
C646 C 0.91421 0.42271 0.25781 0.0
C647 C 0.57286 0.48713 0.32853 0.0
C648 C 0.56274 0.47198 0.27288 0.0
C649 C 0.56598 0.47829 0.39271 0.0
C650 C 0.54867 0.45385 0.4045 0.0
H651 H 0.58661 0.50599 0.32294 0.0
H652 H 0.57455 0.49088 0.43345 0.0
S653 S 0.51601 0.40661 0.27601 0.0
N654 N 0.53405 0.4313 0.23351 0.0
N655 N 0.52101 0.41461 0.35492 0.0
C656 C 0.5381 0.43843 0.34944 0.0
C657 C 0.54514 0.44751 0.28353 0.0
C658 C 0.54162 0.09775 0.36808 0.0
C659 C 0.56386 0.09684 0.36732 0.0
C660 C 0.52867 0.09544 0.30966 0.0
C661 C 0.53776 0.09274 0.24819 0.0
H662 H 0.53378 0.0996 0.41442 0.0
H663 H 0.51152 0.09606 0.31266 0.0
S664 S 0.59525 0.08953 0.2192 0.0
N665 N 0.59438 0.09282 0.30033 0.0
N666 N 0.57035 0.08939 0.1895 0.0
C667 C 0.56014 0.09216 0.24637 0.0
C668 C 0.5731 0.09393 0.30629 0.0
C669 C 0.74232 0.48107 0.8689 0.0
C670 C 0.75925 0.49646 0.82208 0.0
C671 C 0.7427 0.48892 0.93448 0.0
C672 C 0.75959 0.51264 0.95474 0.0
H673 H 0.72813 0.46321 0.85413 0.0
H674 H 0.72859 0.47702 0.96816 0.0
S675 S 0.80879 0.55942 0.8533 0.0
N676 N 0.79468 0.5359 0.80252 0.0
N677 N 0.79447 0.55085 0.92493 0.0
C678 C 0.77726 0.52777 0.90956 0.0
C679 C 0.77735 0.5196 0.84338 0.0
C680 C 0.40905 0.21003 0.79412 0.0
C681 C 0.40253 0.194 0.73939 0.0
C682 C 0.40606 0.20114 0.85922 0.0
C683 C 0.39645 0.17585 0.87224 0.0
H684 H 0.41659 0.22965 0.78681 0.0
H685 H 0.41171 0.21428 0.89957 0.0
S686 S 0.37619 0.12603 0.7463 0.0
N687 N 0.38559 0.15146 0.70269 0.0
N688 N 0.38025 0.13487 0.82453 0.0
C689 C 0.38956 0.15958 0.81793 0.0
C690 C 0.39256 0.16862 0.7517 0.0
C691 C 0.76737 0.2017 0.8509 0.0
C692 C 0.75055 0.20991 0.83115 0.0
C693 C 0.77878 0.20791 0.91276 0.0
C694 C 0.77356 0.22222 0.95785 0.0
H695 H 0.77265 0.19128 0.81715 0.0
H696 H 0.7925 0.20225 0.92436 0.0
S697 S 0.72851 0.24541 0.93545 0.0
N698 N 0.72736 0.23098 0.86526 0.0
N699 N 0.74877 0.24234 0.98242 0.0
C700 C 0.75532 0.22877 0.94164 0.0
C701 C 0.74378 0.22267 0.87802 0.0
C702 C 0.40814 0.1868 0.35768 0.0
C703 C 0.40721 0.20885 0.37096 0.0
C704 C 0.40909 0.17939 0.29236 0.0
C705 C 0.40915 0.19377 0.238 0.0
H706 H 0.40797 0.17508 0.39794 0.0
H707 H 0.40923 0.162 0.28449 0.0
S708 S 0.40898 0.25411 0.24608 0.0
N709 N 0.40791 0.24572 0.32409 0.0
N710 N 0.40953 0.23173 0.20199 0.0
C711 C 0.40879 0.21612 0.2507 0.0
C712 C 0.40782 0.22365 0.31697 0.0
C713 C 0.78783 0.25793 0.4248 0.0
C714 C 0.79342 0.24025 0.45282 0.0
C715 C 0.7955 0.26675 0.36044 0.0
C716 C 0.8091 0.25821 0.32222 0.0
H717 H 0.77612 0.26376 0.45098 0.0
H718 H 0.78965 0.27937 0.33943 0.0
S719 S 0.8315 0.21462 0.37903 0.0
N720 N 0.81538 0.21649 0.44185 0.0
N721 N 0.8303 0.23315 0.32156 0.0
C722 C 0.81641 0.24194 0.3524 0.0
C723 C 0.80836 0.23286 0.41753 0.0
C724 C 0.73898 0.52873 0.42733 0.0
C725 C 0.7298 0.50557 0.45724 0.0
C726 C 0.73286 0.53122 0.36215 0.0
C727 C 0.71735 0.51059 0.32438 0.0
H728 H 0.75242 0.54483 0.45279 0.0
H729 H 0.74161 0.5493 0.33992 0.0
S730 S 0.68549 0.44634 0.38452 0.0
N731 N 0.70223 0.46207 0.4482 0.0
N732 N 0.69035 0.46659 0.32517 0.0
C733 C 0.70606 0.48762 0.35619 0.0
C734 C 0.7124 0.48514 0.42293 0.0
C735 C 0.5612 0.10055 0.81452 0.0
C736 C 0.54613 0.09782 0.75977 0.0
C737 C 0.55426 0.10315 0.87852 0.0
C738 C 0.53175 0.10267 0.89078 0.0
H739 H 0.57884 0.10124 0.80799 0.0
H740 H 0.56661 0.10519 0.91883 0.0
S741 S 0.4852 0.09515 0.76492 0.0
N742 N 0.50753 0.09454 0.72168 0.0
N743 N 0.49407 0.09872 0.8432 0.0
C744 C 0.51622 0.09951 0.83678 0.0
C745 C 0.52353 0.0973 0.77097 0.0
C746 C 0.91832 0.40498 0.76419 0.0
C747 C 0.90873 0.42121 0.75029 0.0
C748 C 0.92114 0.39917 0.83001 0.0
C749 C 0.91423 0.40924 0.88391 0.0
H750 H 0.92434 0.3973 0.7242 0.0
H751 H 0.92947 0.38732 0.83863 0.0
S752 S 0.88485 0.44988 0.87302 0.0
N753 N 0.89007 0.4453 0.79541 0.0
N754 N 0.89512 0.43427 0.91814 0.0
C755 C 0.90344 0.42446 0.87017 0.0
C756 C 0.90076 0.43048 0.80362 0.0
C757 C 0.56767 0.45274 0.79725 0.0
C758 C 0.54832 0.45437 0.76532 0.0
C759 C 0.57446 0.46173 0.86209 0.0
C760 C 0.5619 0.47234 0.89637 0.0
H761 H 0.57673 0.4434 0.77335 0.0
H762 H 0.58871 0.45924 0.88663 0.0
S763 S 0.51357 0.48544 0.82823 0.0
N764 N 0.51954 0.4708 0.76808 0.0
N765 N 0.53178 0.48714 0.88993 0.0
C766 C 0.54374 0.47555 0.86286 0.0
C767 C 0.53706 0.46667 0.79713 0.0
C768 C 0.5513 0.8102 0.58631 0.0
C769 C 0.57093 0.82009 0.63106 0.0
C770 C 0.55408 0.8023 0.52291 0.0
C771 C 0.57657 0.80421 0.50268 0.0
H772 H 0.53334 0.8069 0.6019 0.0
H773 H 0.53818 0.79295 0.49172 0.0
S774 S 0.63463 0.83367 0.5951 0.0
N775 N 0.61446 0.835 0.64613 0.0
N776 N 0.61943 0.8201 0.52727 0.0
C777 C 0.59673 0.81617 0.54429 0.0
C778 C 0.59398 0.82419 0.60849 0.0
C779 C 0.20842 0.75132 0.58545 0.0
C780 C 0.20892 0.77318 0.56285 0.0
C781 C 0.19847 0.74147 0.64745 0.0
C782 C 0.18855 0.75309 0.68872 0.0
H783 H 0.21696 0.74251 0.55667 0.0
H784 H 0.19957 0.72526 0.66421 0.0
S785 S 0.18118 0.80812 0.64521 0.0
N786 N 0.19565 0.80415 0.58136 0.0
N787 N 0.17687 0.78587 0.69762 0.0
C788 C 0.18732 0.77397 0.66399 0.0
C789 C 0.19757 0.78399 0.60113 0.0
C790 C 0.28996 0.51016 0.58169 0.0
C791 C 0.27393 0.48892 0.54726 0.0
C792 C 0.29598 0.50883 0.64816 0.0
C793 C 0.28578 0.48624 0.68179 0.0
H794 H 0.29623 0.52804 0.55902 0.0
H795 H 0.30698 0.52574 0.67467 0.0
S796 S 0.24669 0.42501 0.60854 0.0
N797 N 0.25107 0.44454 0.54766 0.0
N798 N 0.26201 0.44187 0.67255 0.0
C799 C 0.27163 0.46471 0.64561 0.0
C800 C 0.26574 0.4661 0.57819 0.0
C801 C 0.48266 0.8876 0.17228 0.0
C802 C 0.46808 0.88606 0.11727 0.0
C803 C 0.47656 0.89208 0.23617 0.0
C804 C 0.45611 0.89589 0.24661 0.0
H805 H 0.49869 0.88505 0.16598 0.0
H806 H 0.48792 0.89257 0.27753 0.0
S807 S 0.4132 0.89561 0.11747 0.0
N808 N 0.43301 0.88978 0.07672 0.0
N809 N 0.42179 0.89861 0.19575 0.0
C810 C 0.4418 0.89501 0.19145 0.0
C811 C 0.44771 0.88996 0.12702 0.0
C812 C 0.08348 0.60271 0.14179 0.0
C813 C 0.09094 0.59305 0.08808 0.0
C814 C 0.08585 0.59662 0.20769 0.0
C815 C 0.09553 0.58047 0.22205 0.0
H816 H 0.07506 0.61446 0.13291 0.0
H817 H 0.07952 0.60411 0.24741 0.0
S818 S 0.12026 0.55238 0.09995 0.0
N819 N 0.11034 0.56823 0.05456 0.0
N820 N 0.11451 0.55662 0.17738 0.0
C821 C 0.10391 0.57149 0.16892 0.0
C822 C 0.10172 0.57785 0.10225 0.0
C823 C 0.40805 0.55955 0.25422 0.0
C824 C 0.41441 0.54594 0.20919 0.0
C825 C 0.41873 0.56549 0.31751 0.0
C826 C 0.43593 0.55788 0.33733 0.0
H827 H 0.39615 0.56713 0.23896 0.0
H828 H 0.41495 0.57764 0.34895 0.0
S829 S 0.45461 0.51742 0.24399 0.0
N830 N 0.43599 0.52171 0.19338 0.0
N831 N 0.45582 0.53292 0.31205 0.0
C832 C 0.44059 0.54236 0.29543 0.0
C833 C 0.42983 0.53632 0.23134 0.0
C834 C 0.09174 0.58552 0.71198 0.0
C835 C 0.06902 0.58481 0.72369 0.0
C836 C 0.09942 0.584 0.64729 0.0
C837 C 0.08476 0.58196 0.592 0.0
H838 H 0.10393 0.58778 0.75287 0.0
H839 H 0.11711 0.58483 0.64049 0.0
S840 S 0.02226 0.57572 0.59647 0.0
N841 N 0.03097 0.57932 0.67471 0.0
N842 N 0.04547 0.57692 0.5539 0.0
C843 C 0.0617 0.58045 0.60329 0.0
C844 C 0.05381 0.5817 0.6689 0.0
C845 C 0.45118 0.60042 0.80414 0.0
C846 C 0.45912 0.58458 0.83292 0.0
C847 C 0.4582 0.60936 0.73955 0.0
C848 C 0.47338 0.6027 0.70186 0.0
H849 H 0.43812 0.6045 0.82979 0.0
H850 H 0.45045 0.62029 0.71778 0.0
S851 S 0.50262 0.56537 0.76145 0.0
N852 N 0.48525 0.56517 0.82366 0.0
N853 N 0.499 0.58219 0.70298 0.0
C854 C 0.48312 0.5886 0.73298 0.0
C855 C 0.47578 0.57941 0.79834 0.0
C856 C 0.471 0.89397 0.70289 0.0
C857 C 0.46304 0.89893 0.76349 0.0
C858 C 0.45869 0.89274 0.64394 0.0
C859 C 0.43835 0.89713 0.64313 0.0
H860 H 0.48686 0.89092 0.70099 0.0
H861 H 0.4658 0.88926 0.59832 0.0
S862 S 0.41017 0.91067 0.78906 0.0
N863 N 0.43325 0.90755 0.8201 0.0
N864 N 0.41054 0.90629 0.7083 0.0
C865 C 0.43009 0.90198 0.70354 0.0
C866 C 0.44232 0.90259 0.76404 0.0
C867 C 0.23455 0.51254 0.12598 0.0
C868 C 0.22368 0.49446 0.17475 0.0
C869 C 0.23826 0.50607 0.06166 0.0
C870 C 0.23112 0.48141 0.04503 0.0
H871 H 0.24186 0.53178 0.13888 0.0
H872 H 0.24855 0.52054 0.02671 0.0
S873 S 0.19697 0.42714 0.15128 0.0
N874 N 0.20243 0.45088 0.19961 0.0
N875 N 0.20895 0.43878 0.0786 0.0
C876 C 0.21801 0.46315 0.09153 0.0
C877 C 0.2144 0.46968 0.15666 0.0
C878 C 0.59002 0.77987 0.04893 0.0
C879 C 0.57025 0.77401 0.00628 0.0
C880 C 0.58665 0.76972 0.11235 0.0
C881 C 0.56328 0.7537 0.13623 0.0
H882 H 0.60811 0.79326 0.03426 0.0
H883 H 0.60244 0.77558 0.14408 0.0
S884 S 0.50591 0.73034 0.03963 0.0
N885 N 0.52693 0.74935 0.9885 0.0
N886 N 0.52032 0.7304 0.10859 0.0
C887 C 0.54355 0.74625 0.09192 0.0
C888 C 0.54712 0.75641 0.02669 0.0
C889 C 0.21025 0.75539 0.19038 0.0
C890 C 0.23207 0.77624 0.20667 0.0
C891 C 0.19999 0.75242 0.12735 0.0
C892 C 0.21131 0.76986 0.07727 0.0
H893 H 0.20033 0.7416 0.22731 0.0
H894 H 0.18281 0.73634 0.11801 0.0
S895 S 0.26953 0.82684 0.09179 0.0
N896 N 0.2653 0.81424 0.16609 0.0
N897 N 0.24612 0.80806 0.04628 0.0
C898 C 0.2337 0.79022 0.09129 0.0
C899 C 0.24403 0.79357 0.15633 0.0
C900 C 0.25144 0.27042 0.31203 0.0
C901 C 0.25101 0.28067 0.25002 0.0
C902 C 0.2563 0.25035 0.31692 0.0
C903 C 0.26051 0.23967 0.25979 0.0
H904 H 0.24552 0.27625 0.35612 0.0
H905 H 0.25391 0.2415 0.3647 0.0
S906 S 0.26874 0.26411 0.08897 0.0
N907 N 0.2612 0.28232 0.13269 0.0
N908 N 0.26949 0.24406 0.14214 0.0
C909 C 0.26373 0.25195 0.19926 0.0
C910 C 0.25928 0.27271 0.19435 0.0
C911 C 0.78247 0.99196 0.17558 0.0
C912 C 0.77568 0.97623 0.23085 0.0
C913 C 0.79465 0.01748 0.18358 0.0
C914 C 0.80005 0.02819 0.24706 0.0
H915 H 0.78045 0.9846 0.12581 0.0
H916 H 0.80139 0.02881 0.13977 0.0
S917 S 0.78087 0.99497 0.40725 0.0
N918 N 0.77145 0.97307 0.35058 0.0
N919 N 0.79382 0.02108 0.36598 0.0
C920 C 0.7906 0.0127 0.30248 0.0
C921 C 0.77856 0.98668 0.29427 0.0
C922 C 6e-05 0.72525 0.3262 0.0
C923 C 0.98381 0.71329 0.27389 0.0
C924 C 0.02382 0.74347 0.31363 0.0
C925 C 0.03231 0.74996 0.24835 0.0
H926 H 0.99369 0.72242 0.377 0.0
H927 H 0.03493 0.75378 0.3552 0.0
S928 S 0.99843 0.71951 0.09489 0.0
N929 N 0.97884 0.70614 0.15541 0.0
N930 N 0.02376 0.73949 0.13117 0.0
C931 C 0.01717 0.73572 0.19604 0.0
C932 C 0.9928 0.71763 0.20896 0.0
C933 C 0.7575 0.71738 0.7092 0.0
C934 C 0.75859 0.71077 0.7753 0.0
C935 C 0.75072 0.7356 0.69396 0.0
C936 C 0.74537 0.74818 0.74452 0.0
H937 H 0.7638 0.70985 0.66947 0.0
H938 H 0.7521 0.7415 0.64286 0.0
S939 S 0.74054 0.73419 0.92401 0.0
N940 N 0.74956 0.71519 0.89064 0.0
N941 N 0.73753 0.75 0.86175 0.0
C942 C 0.74373 0.73985 0.80993 0.0
C943 C 0.75012 0.72093 0.8254 0.0
C944 C 0.22112 0.02317 0.69011 0.0
C945 C 0.22474 0.03515 0.75166 0.0
C946 C 0.21079 0.99754 0.68619 0.0
C947 C 0.20319 0.98298 0.74367 0.0
H948 H 0.2248 0.03354 0.64446 0.0
H949 H 0.20673 0.98908 0.63753 0.0
S950 S 0.21263 0.00539 0.91715 0.0
N951 N 0.22334 0.03057 0.87183 0.0
N952 N 0.20321 0.98235 0.86395 0.0
C953 C 0.20882 0.99476 0.80558 0.0
C954 C 0.21983 0.02089 0.80972 0.0
C955 C 0.99104 0.25167 0.82579 0.0
C956 C 0.9759 0.24326 0.76957 0.0
C957 C 0.01549 0.26917 0.82002 0.0
C958 C 0.02556 0.27922 0.75808 0.0
H959 H 0.9847 0.243 0.8735 0.0
H960 H 0.02704 0.27329 0.86339 0.0
S961 S 0.99162 0.26779 0.5991 0.0
N962 N 0.97132 0.24937 0.65268 0.0
N963 N 0.01702 0.28283 0.64168 0.0
C964 C 0.00966 0.27339 0.70328 0.0
C965 C 0.98489 0.25518 0.70902 0.0
C966 C 0.85993 0.51855 0.50102 0.0
C967 C 0.85246 0.52802 0.55476 0.0
C968 C 0.87751 0.51046 0.50948 0.0
C969 C 0.88845 0.51201 0.57166 0.0
H970 H 0.85065 0.51535 0.45374 0.0
H971 H 0.88133 0.50144 0.46823 0.0
S972 S 0.87843 0.54045 0.72398 0.0
N973 N 0.85942 0.54186 0.66892 0.0
N974 N 0.89315 0.52767 0.68507 0.0
C975 C 0.88303 0.52417 0.62364 0.0
C976 C 0.86477 0.53185 0.61518 0.0
C977 C 0.41365 0.3161 0.63243 0.0
C978 C 0.40823 0.30879 0.56588 0.0
C979 C 0.42841 0.34075 0.64917 0.0
C980 C 0.43874 0.3588 0.59977 0.0
H981 H 0.40763 0.3025 0.67153 0.0
H982 H 0.43333 0.34531 0.70075 0.0
S983 S 0.42746 0.34991 0.4191 0.0
N984 N 0.4119 0.32221 0.45086 0.0
N985 N 0.44029 0.36836 0.48272 0.0
C986 C 0.43195 0.3521 0.53364 0.0
C987 C 0.41647 0.32712 0.51659 0.0
C988 C 0.66249 0.09795 0.6406 0.0
C989 C 0.64627 0.09173 0.58665 0.0
C990 C 0.68749 0.11278 0.6319 0.0
C991 C 0.69724 0.12137 0.56877 0.0
H992 H 0.6557 0.09335 0.69078 0.0
H993 H 0.69904 0.11888 0.67541 0.0
S994 S 0.66298 0.10597 0.40993 0.0
N995 N 0.64202 0.09225 0.46711 0.0
N996 N 0.6891 0.11949 0.45016 0.0
C997 C 0.68155 0.11287 0.51356 0.0
C998 C 0.65601 0.0982 0.52266 0.0
C999 C 0.39063 0.06172 0.02666 0.0
C1000 C 0.38215 0.07181 0.07677 0.0
C1001 C 0.40727 0.0529 0.04128 0.0
C1002 C 0.41532 0.05324 0.10659 0.0
H1003 H 0.38694 0.06353 0.975 0.0
H1004 H 0.41563 0.04804 0.00058 0.0
S1005 S 0.39315 0.07144 0.25704 0.0
N1006 N 0.37917 0.0772 0.19499 0.0
N1007 N 0.4097 0.05967 0.2231 0.0
C1008 C 0.40395 0.0596 0.15805 0.0
C1009 C 0.38747 0.06913 0.14293 0.0
C1010 C 0.93668 0.32372 0.11942 0.0
C1011 C 0.95 0.33568 0.06254 0.0
C1012 C 0.91403 0.30292 0.11405 0.0
C1013 C 0.90404 0.2931 0.05172 0.0
H1014 H 0.94268 0.33164 0.16819 0.0
H1015 H 0.9037 0.29535 0.15893 0.0
S1016 S 0.93434 0.31477 0.88871 0.0
N1017 N 0.95348 0.33424 0.94306 0.0
N1018 N 0.9112 0.29479 0.93244 0.0
C1019 C 0.9185 0.30332 0.99498 0.0
C1020 C 0.94142 0.32469 0.00056 0.0
C1021 C 0.69864 0.59012 0.14215 0.0
C1022 C 0.7073 0.58839 0.07896 0.0
C1023 C 0.67422 0.5844 0.15174 0.0
C1024 C 0.65758 0.5762 0.09858 0.0
H1025 H 0.71008 0.59326 0.1854 0.0
H1026 H 0.66789 0.58334 0.20224 0.0
S1027 S 0.67283 0.57606 0.92108 0.0
N1028 N 0.69875 0.58405 0.96047 0.0
N1029 N 0.65268 0.57255 0.97901 0.0
C1030 C 0.66688 0.57829 0.03412 0.0
C1031 C 0.69187 0.58461 0.02415 0.0
C1032 C 0.59241 0.9235 0.84013 0.0
C1033 C 0.58333 0.92924 0.89787 0.0
C1034 C 0.60479 0.90936 0.84364 0.0
C1035 C 0.60876 0.90091 0.905 0.0
H1036 H 0.58715 0.92696 0.79163 0.0
H1037 H 0.60869 0.90266 0.79778 0.0
S1038 S 0.5965 0.91915 0.07085 0.0
N1039 N 0.58476 0.93129 0.01798 0.0
N1040 N 0.60874 0.90541 0.02516 0.0
C1041 C 0.60395 0.91069 0.96317 0.0
C1042 C 0.59095 0.9247 0.95945 0.0
C1043 C 0.06278 0.67931 0.85766 0.0
C1044 C 0.04805 0.66637 0.91145 0.0
C1045 C 0.08317 0.70211 0.86715 0.0
C1046 C 0.08932 0.71285 0.9306 0.0
H1047 H 0.0601 0.67071 0.80931 0.0
H1048 H 0.09521 0.71034 0.82549 0.0
S1049 S 0.05218 0.68917 0.0833 0.0
N1050 N 0.03797 0.66774 0.02689 0.0
N1051 N 0.07568 0.71106 0.04498 0.0
C1052 C 0.07262 0.70161 0.98266 0.0
C1053 C 0.05214 0.67818 0.97304 0.0
C1054 C 0.33066 0.44351 0.00318 0.0
C1055 C 0.31689 0.43717 0.94424 0.0
C1056 C 0.35611 0.45611 0.00136 0.0
C1057 C 0.36866 0.46244 0.94063 0.0
H1058 H 0.32187 0.44148 0.05079 0.0
H1059 H 0.36582 0.46307 0.04755 0.0
S1060 S 0.34098 0.44246 0.77377 0.0
N1061 N 0.3176 0.4327 0.8248 0.0
N1062 N 0.36542 0.45577 0.82102 0.0
C1063 C 0.35518 0.45237 0.88215 0.0
C1064 C 0.32924 0.43988 0.88406 0.0
C1065 C 0.1308 0.49434 0.46971 0.0
C1066 C 0.12168 0.49386 0.40556 0.0
C1067 C 0.14738 0.48518 0.48184 0.0
C1068 C 0.15576 0.47572 0.42994 0.0
H1069 H 0.126 0.50287 0.5102 0.0
H1070 H 0.155 0.48719 0.53116 0.0
S1071 S 0.13542 0.46738 0.25497 0.0
N1072 N 0.12039 0.48044 0.29089 0.0
N1073 N 0.15203 0.464 0.31404 0.0
C1074 C 0.1456 0.47357 0.36674 0.0
C1075 C 0.1284 0.48242 0.35447 0.0
C1076 C 0.5689 0.65617 0.36221 0.0
C1077 C 0.56145 0.64383 0.42328 0.0
C1078 C 0.5833 0.68168 0.35976 0.0
C1079 C 0.59107 0.69573 0.41823 0.0
H1080 H 0.56151 0.64657 0.31602 0.0
H1081 H 0.58648 0.69061 0.31192 0.0
S1082 S 0.58278 0.67095 0.58963 0.0
N1083 N 0.56732 0.64663 0.54254 0.0
N1084 N 0.59496 0.69448 0.5384 0.0
C1085 C 0.58693 0.68306 0.47903 0.0
C1086 C 0.57191 0.6571 0.48146 0.0
C1087 C 0.3477 0.90742 0.36406 0.0
C1088 C 0.3634 0.91335 0.41916 0.0
C1089 C 0.32248 0.89385 0.37157 0.0
C1090 C 0.31204 0.88639 0.43453 0.0
H1091 H 0.35497 0.91121 0.3142 0.0
H1092 H 0.31121 0.88785 0.32752 0.0
S1093 S 0.34497 0.90124 0.59534 0.0
N1094 N 0.3666 0.91349 0.5391 0.0
N1095 N 0.31911 0.88875 0.55369 0.0
C1096 C 0.32735 0.89455 0.4905 0.0
C1097 C 0.35308 0.90785 0.48269 0.0
C1098 C 0.28192 0.13843 0.12079 0.0
C1099 C 0.28731 0.14806 0.18578 0.0
C1100 C 0.29851 0.13378 0.08383 0.0
C1101 C 0.32133 0.13875 0.10996 0.0
H1102 H 0.26475 0.13457 0.0977 0.0
H1103 H 0.2936 0.12677 0.03381 0.0
S1104 S 0.34401 0.16265 0.27909 0.0
N1105 N 0.31689 0.1614 0.27555 0.0
N1106 N 0.34802 0.15268 0.2064 0.0
C1107 C 0.3268 0.14787 0.17542 0.0
C1108 C 0.30984 0.1525 0.21319 0.0
C1109 C 0.82149 0.17307 0.17365 0.0
C1110 C 0.83331 0.18294 0.11321 0.0
C1111 C 0.82619 0.15611 0.20934 0.0
C1112 C 0.84308 0.1485 0.1863 0.0
H1113 H 0.80858 0.17862 0.19386 0.0
H1114 H 0.81658 0.14901 0.25545 0.0
S1115 S 0.88039 0.17054 0.03317 0.0
N1116 N 0.86333 0.18466 0.03325 0.0
N1117 N 0.87257 0.15329 0.10026 0.0
C1118 C 0.85519 0.15847 0.12604 0.0
C1119 C 0.85019 0.1755 0.08951 0.0
C1120 C 0.83839 0.622 0.12773 0.0
C1121 C 0.81951 0.60079 0.1556 0.0
C1122 C 0.85846 0.63795 0.16555 0.0
C1123 C 0.8608 0.63338 0.23296 0.0
H1124 H 0.83743 0.62683 0.07659 0.0
H1125 H 0.87199 0.65445 0.142 0.0
S1126 S 0.81757 0.57955 0.32922 0.0
N1127 N 0.8053 0.57535 0.25464 0.0
N1128 N 0.84319 0.60541 0.32522 0.0
C1129 C 0.84278 0.61166 0.26084 0.0
C1130 C 0.82212 0.5954 0.22238 0.0
C1131 C 0.21942 0.40869 0.30821 0.0
C1132 C 0.21122 0.40677 0.37425 0.0
C1133 C 0.21762 0.38821 0.27299 0.0
C1134 C 0.2075 0.3648 0.30206 0.0
H1135 H 0.22736 0.42622 0.28303 0.0
H1136 H 0.224 0.39079 0.22224 0.0
S1137 S 0.18407 0.3497 0.47457 0.0
N1138 N 0.19304 0.37941 0.46779 0.0
N1139 N 0.18976 0.34099 0.40203 0.0
C1140 C 0.19941 0.36257 0.36835 0.0
C1141 C 0.20124 0.38348 0.40426 0.0
C1142 C 0.68404 0.83176 0.37485 0.0
C1143 C 0.66255 0.81761 0.33907 0.0
C1144 C 0.70484 0.84969 0.34359 0.0
C1145 C 0.7051 0.85436 0.27512 0.0
H1146 H 0.68483 0.82919 0.42773 0.0
H1147 H 0.72081 0.86008 0.37374 0.0
S1148 S 0.65396 0.8217 0.15767 0.0
N1149 N 0.64314 0.80908 0.23029 0.0
N1150 N 0.68214 0.84271 0.17198 0.0
C1151 C 0.68383 0.84021 0.23847 0.0
C1152 C 0.66263 0.82188 0.27025 0.0
C1153 C 0.1763 0.84124 0.37523 0.0
C1154 C 0.19163 0.83212 0.34976 0.0
C1155 C 0.15669 0.84012 0.33838 0.0
C1156 C 0.15137 0.82977 0.27414 0.0
H1157 H 0.179 0.84876 0.425 0.0
H1158 H 0.14529 0.847 0.36142 0.0
S1159 S 0.18755 0.80575 0.18108 0.0
N1160 N 0.20138 0.81419 0.2535 0.0
N1161 N 0.16439 0.81199 0.18457 0.0
C1162 C 0.16719 0.82157 0.24668 0.0
C1163 C 0.18729 0.82274 0.28429 0.0
C1164 C 0.68211 0.83033 0.73681 0.0
C1165 C 0.69597 0.82051 0.76771 0.0
C1166 C 0.66352 0.83243 0.77145 0.0
C1167 C 0.65827 0.82481 0.83795 0.0
H1168 H 0.68608 0.83701 0.68635 0.0
H1169 H 0.65345 0.84047 0.74644 0.0
S1170 S 0.68625 0.79352 0.93616 0.0
N1171 N 0.70129 0.80035 0.86538 0.0
N1172 N 0.66637 0.80431 0.93022 0.0
C1173 C 0.67136 0.81405 0.86828 0.0
C1174 C 0.69019 0.81187 0.83313 0.0
C1175 C 0.17802 0.83327 0.8392 0.0
C1176 C 0.16797 0.82723 0.9034 0.0
C1177 C 0.17599 0.85128 0.80106 0.0
C1178 C 0.16381 0.86409 0.82528 0.0
H1179 H 0.18693 0.82349 0.81698 0.0
H1180 H 0.18337 0.85454 0.75131 0.0
S1181 S 0.1365 0.8572 0.99318 0.0
N1182 N 0.14702 0.83696 0.99147 0.0
N1183 N 0.14328 0.87088 0.92031 0.0
C1184 C 0.15477 0.85917 0.89084 0.0
C1185 C 0.15686 0.84079 0.92973 0.0
C1186 C 0.18902 0.39392 0.80472 0.0
C1187 C 0.19295 0.39126 0.87255 0.0
C1188 C 0.16832 0.37661 0.77116 0.0
C1189 C 0.1507 0.35583 0.80386 0.0
H1190 H 0.20218 0.40938 0.77677 0.0
H1191 H 0.16654 0.37916 0.71869 0.0
S1192 S 0.15085 0.34123 0.98251 0.0
N1193 N 0.17634 0.3668 0.972 0.0
N1194 N 0.13763 0.33439 0.90905 0.0
C1195 C 0.15398 0.35326 0.87204 0.0
C1196 C 0.17502 0.37089 0.90627 0.0
C1197 C 0.80618 0.62768 0.67023 0.0
C1198 C 0.79411 0.62363 0.73177 0.0
C1199 C 0.80322 0.6082 0.62871 0.0
C1200 C 0.78816 0.58374 0.64689 0.0
H1201 H 0.8182 0.64613 0.65367 0.0
H1202 H 0.8132 0.61241 0.58248 0.0
S1203 S 0.75129 0.56293 0.80099 0.0
N1204 N 0.76575 0.59311 0.80763 0.0
N1205 N 0.76004 0.55646 0.72958 0.0
C1206 C 0.77558 0.57933 0.70775 0.0
C1207 C 0.77858 0.59924 0.75009 0.0
C1208 C 0.3108 0.16296 0.68792 0.0
C1209 C 0.2867 0.15501 0.66711 0.0
C1210 C 0.33043 0.17939 0.64979 0.0
C1211 C 0.32692 0.18878 0.58914 0.0
H1212 H 0.31463 0.15632 0.73388 0.0
H1213 H 0.34855 0.18475 0.66851 0.0
S1214 S 0.26729 0.1744 0.51322 0.0
N1215 N 0.26034 0.1582 0.58216 0.0
N1216 N 0.29725 0.18907 0.51075 0.0
C1217 C 0.30289 0.18112 0.56785 0.0
C1218 C 0.28283 0.16426 0.60666 0.0
C1219 C 0.85043 0.16563 0.64102 0.0
C1220 C 0.85736 0.17546 0.70539 0.0
C1221 C 0.83141 0.16702 0.60681 0.0
C1222 C 0.81842 0.17835 0.63531 0.0
H1223 H 0.8598 0.15675 0.61641 0.0
H1224 H 0.82699 0.15924 0.55743 0.0
S1225 S 0.82956 0.20747 0.80235 0.0
N1226 N 0.84974 0.19714 0.79603 0.0
N1227 N 0.81414 0.19988 0.7322 0.0
C1228 C 0.82513 0.18825 0.69983 0.0
C1229 C 0.84449 0.18677 0.73468 0.0
C1230 C 0.00129 0.49576 0.42106 0.0
C1231 C 0.02474 0.50806 0.44828 0.0
C1232 C 0.98063 0.4871 0.46164 0.0
C1233 C 0.9826 0.49042 0.53107 0.0
H1234 H 0.99884 0.49317 0.36794 0.0
H1235 H 0.96294 0.47807 0.43812 0.0
S1236 S 0.03988 0.51811 0.62787 0.0
N1237 N 0.04875 0.52081 0.54985 0.0
N1238 N 0.00992 0.50486 0.62554 0.0
C1239 C 0.00594 0.50201 0.55909 0.0
C1240 C 0.02698 0.51072 0.51789 0.0
C1241 C 0.50397 0.50868 0.47796 0.0
C1242 C 0.49309 0.52219 0.50587 0.0
C1243 C 0.50399 0.48868 0.51128 0.0
C1244 C 0.493 0.48115 0.57403 0.0
H1245 H 0.5128 0.51366 0.43007 0.0
H1246 H 0.51284 0.47913 0.48738 0.0
S1247 S 0.46098 0.50965 0.66799 0.0
N1248 N 0.47031 0.52611 0.59967 0.0
N1249 N 0.47038 0.48858 0.66203 0.0
C1250 C 0.48175 0.49429 0.60227 0.0
C1251 C 0.4818 0.51476 0.56837 0.0
C1252 C 0.51746 0.02152 0.48097 0.0
C1253 C 0.5239 0.01762 0.54536 0.0
C1254 C 0.49914 0.00253 0.44443 0.0
C1255 C 0.48637 0.97868 0.47041 0.0
H1256 H 0.52662 0.03949 0.45825 0.0
H1257 H 0.49506 0.00665 0.39522 0.0
S1258 S 0.49575 0.95869 0.63741 0.0
N1259 N 0.51571 0.988 0.63383 0.0
N1260 N 0.48139 0.95232 0.56554 0.0
C1261 C 0.49263 0.97446 0.53481 0.0
C1262 C 0.51133 0.99386 0.57205 0.0
C1263 C 0.50465 0.01637 0.98518 0.0
C1264 C 0.49688 0.01119 0.05166 0.0
C1265 C 0.50938 -0.0 0.94686 0.0
C1266 C 0.50656 0.97766 0.97317 0.0
H1267 H 0.50703 0.03324 0.962 0.0
H1268 H 0.51502 0.00483 0.89589 0.0
S1269 S 0.48778 0.95571 0.14576 0.0
N1270 N 0.48733 0.98234 0.14275 0.0
N1271 N 0.49622 0.95156 0.07122 0.0
C1272 C 0.49909 0.97233 0.03997 0.0
C1273 C 0.49424 0.98905 0.07898 0.0
C1274 C 0.9854 0.47971 0.96251 0.0
C1275 C 0.99607 0.47791 0.02269 0.0
C1276 C 0.9915 0.50248 0.93318 0.0
C1277 C 0.00852 0.52447 0.96277 0.0
H1278 H 0.97224 0.46336 0.93733 0.0
H1279 H 0.98296 0.50278 0.88658 0.0
S1280 S 0.04051 0.53003 0.12294 0.0
N1281 N 0.02376 0.50022 0.11223 0.0
N1282 N 0.03517 0.54303 0.05774 0.0
C1283 C 0.01907 0.52299 0.02361 0.0
C1284 C 0.01288 0.49975 0.05334 0.0
C1285 C 0.52064 0.51219 0.02407 0.0
C1286 C 0.53193 0.52757 0.07873 0.0
C1287 C 0.5008 0.51234 0.99143 0.0
C1288 C 0.49095 0.52764 0.01265 0.0
H1289 H 0.527 0.49959 0.00664 0.0
H1290 H 0.49292 0.50008 0.94972 0.0
S1291 S 0.51258 0.57068 0.15598 0.0
N1292 N 0.53107 0.55813 0.15419 0.0
N1293 N 0.49346 0.55821 0.09376 0.0
C1294 C 0.50156 0.54278 0.06848 0.0
C1295 C 0.52205 0.54278 0.10133 0.0
loop_
_geom_bond_atom_site_label_1
_geom_bond_atom_site_label_2
_geom_bond_distance
_geom_bond_site_symmetry_2
_ccdc_geom_bond_type
Mg0 O1 2.028 . S
Mg0 O7 1.986 . S
Mg0 O9 2.114 . S
Mg0 O10 2.251 . S
Mg0 O13 2.010 . S
O1 Mg0 2.028 . S
O1 C4 1.250 . S
O2 Mg3 2.028 . S
O2 C4 1.248 . S
Mg3 O2 2.028 . S
Mg3 O8 2.032 . S
Mg3 O10 2.079 . S
C4 O1 1.250 . S
C4 O2 1.248 . S
C5 O6 1.264 . S
C5 O13 1.249 . S
O6 C5 1.264 . S
O7 Mg0 1.986 . S
O7 C11 1.246 . S
O8 Mg3 2.032 . S
O8 C11 1.259 . S
O9 Mg0 2.114 . S
O9 C12 1.252 . S
O10 Mg0 2.251 . S
O10 Mg3 2.079 . S
O10 C12 1.273 . S
C11 O7 1.246 . S
C11 O8 1.259 . S
C12 O9 1.252 . S
C12 O10 1.273 . S
O13 Mg0 2.010 . S
O13 C5 1.249 . S
Mg14 O15 2.028 . S
Mg14 O21 1.986 . S
Mg14 O23 2.114 . S
Mg14 O24 2.251 . S
Mg14 O27 2.010 . S
O15 Mg14 2.028 . S
O15 C18 1.250 . S
O16 Mg17 2.028 . S
O16 C18 1.248 . S
Mg17 O16 2.028 . S
Mg17 O22 2.032 . S
Mg17 O24 2.079 . S
C18 O15 1.250 . S
C18 O16 1.248 . S
C19 O20 1.264 . S
C19 O27 1.249 . S
O20 C19 1.264 . S
O21 Mg14 1.986 . S
O21 C25 1.246 . S
O22 Mg17 2.032 . S
O22 C25 1.259 . S
O23 Mg14 2.114 . S
O23 C26 1.252 . S
O24 Mg14 2.251 . S
O24 Mg17 2.079 . S
O24 C26 1.273 . S
C25 O21 1.246 . S
C25 O22 1.259 . S
C26 O23 1.252 . S
C26 O24 1.273 . S
O27 Mg14 2.010 . S
O27 C19 1.249 . S
Mg28 O29 2.028 . S
Mg28 O35 1.986 . S
Mg28 O37 2.114 . S
Mg28 O38 2.251 . S
Mg28 O41 2.010 . S
O29 Mg28 2.028 . S
O29 C32 1.250 . S
O30 Mg31 2.028 . S
O30 C32 1.248 . S
Mg31 O30 2.028 . S
Mg31 O36 2.032 . S
Mg31 O38 2.079 . S
C32 O29 1.250 . S
C32 O30 1.248 . S
C33 O34 1.264 . S
C33 O41 1.249 . S
O34 C33 1.264 . S
O35 Mg28 1.986 . S
O35 C39 1.246 . S
O36 Mg31 2.032 . S
O36 C39 1.259 . S
O37 Mg28 2.114 . S
O37 C40 1.252 . S
O38 Mg28 2.251 . S
O38 Mg31 2.079 . S
O38 C40 1.273 . S
C39 O35 1.246 . S
C39 O36 1.259 . S
C40 O37 1.252 . S
C40 O38 1.273 . S
O41 Mg28 2.010 . S
O41 C33 1.249 . S
Mg42 O43 2.028 . S
Mg42 O49 1.986 . S
Mg42 O51 2.114 . S
Mg42 O52 2.251 . S
Mg42 O55 2.010 . S
O43 Mg42 2.028 . S
O43 C46 1.250 . S
O44 Mg45 2.028 . S
O44 C46 1.248 . S
Mg45 O44 2.028 . S
Mg45 O50 2.032 . S
Mg45 O52 2.079 . S
C46 O43 1.250 . S
C46 O44 1.248 . S
C47 O48 1.264 . S
C47 O55 1.249 . S
O48 C47 1.264 . S
O49 Mg42 1.986 . S
O49 C53 1.246 . S
O50 Mg45 2.032 . S
O50 C53 1.259 . S
O51 Mg42 2.114 . S
O51 C54 1.252 . S
O52 Mg42 2.251 . S
O52 Mg45 2.079 . S
O52 C54 1.273 . S
C53 O49 1.246 . S
C53 O50 1.259 . S
C54 O51 1.252 . S
C54 O52 1.273 . S
O55 Mg42 2.010 . S
O55 C47 1.249 . S
Mg56 O57 2.028 . S
Mg56 O63 1.986 . S
Mg56 O65 2.114 . S
Mg56 O66 2.251 . S
Mg56 O69 2.010 . S
O57 Mg56 2.028 . S
O57 C60 1.250 . S
O58 Mg59 2.028 . S
O58 C60 1.248 . S
Mg59 O58 2.028 . S
Mg59 O64 2.032 . S
Mg59 O66 2.079 . S
C60 O57 1.250 . S
C60 O58 1.248 . S
C61 O62 1.264 . S
C61 O69 1.249 . S
O62 C61 1.264 . S
O63 Mg56 1.986 . S
O63 C67 1.246 . S
O64 Mg59 2.032 . S
O64 C67 1.259 . S
O65 Mg56 2.114 . S
O65 C68 1.252 . S
O66 Mg56 2.251 . S
O66 Mg59 2.079 . S
O66 C68 1.273 . S
C67 O63 1.246 . S
C67 O64 1.259 . S
C68 O65 1.252 . S
C68 O66 1.273 . S
O69 Mg56 2.010 . S
O69 C61 1.249 . S
Mg70 O71 2.028 . S
Mg70 O77 1.986 . S
Mg70 O79 2.114 . S
Mg70 O80 2.251 . S
Mg70 O83 2.010 . S
O71 Mg70 2.028 . S
O71 C74 1.250 . S
O72 Mg73 2.028 . S
O72 C74 1.248 . S
Mg73 O72 2.028 . S
Mg73 O78 2.032 . S
Mg73 O80 2.079 . S
C74 O71 1.250 . S
C74 O72 1.248 . S
C75 O76 1.264 . S
C75 O83 1.249 . S
O76 C75 1.264 . S
O77 Mg70 1.986 . S
O77 C81 1.246 . S
O78 Mg73 2.032 . S
O78 C81 1.259 . S
O79 Mg70 2.114 . S
O79 C82 1.252 . S
O80 Mg70 2.251 . S
O80 Mg73 2.079 . S
O80 C82 1.273 . S
C81 O77 1.246 . S
C81 O78 1.259 . S
C82 O79 1.252 . S
C82 O80 1.273 . S
O83 Mg70 2.010 . S
O83 C75 1.249 . S
Mg84 O85 2.028 . S
Mg84 O91 1.986 . S
Mg84 O93 2.114 . S
Mg84 O94 2.251 . S
Mg84 O97 2.010 . S
O85 Mg84 2.028 . S
O85 C88 1.250 . S
O86 Mg87 2.028 . S
O86 C88 1.248 . S
Mg87 O86 2.028 . S
Mg87 O92 2.032 . S
Mg87 O94 2.079 . S
C88 O85 1.250 . S
C88 O86 1.248 . S
C89 O90 1.264 . S
C89 O97 1.249 . S
O90 C89 1.264 . S
O91 Mg84 1.986 . S
O91 C95 1.246 . S
O92 Mg87 2.032 . S
O92 C95 1.259 . S
O93 Mg84 2.114 . S
O93 C96 1.252 . S
O94 Mg84 2.251 . S
O94 Mg87 2.079 . S
O94 C96 1.273 . S
C95 O91 1.246 . S
C95 O92 1.259 . S
C96 O93 1.252 . S
C96 O94 1.273 . S
O97 Mg84 2.010 . S
O97 C89 1.249 . S
Mg98 O99 2.028 . S
Mg98 O105 1.986 . S
Mg98 O107 2.114 . S
Mg98 O108 2.251 . S
Mg98 O111 2.010 . S
O99 Mg98 2.028 . S
O99 C102 1.250 . S
O100 Mg101 2.028 . S
O100 C102 1.248 . S
Mg101 O100 2.028 . S
Mg101 O106 2.032 . S
Mg101 O108 2.079 . S
C102 O99 1.250 . S
C102 O100 1.248 . S
C103 O104 1.264 . S
C103 O111 1.249 . S
O104 C103 1.264 . S
O105 Mg98 1.986 . S
O105 C109 1.246 . S
O106 Mg101 2.032 . S
O106 C109 1.259 . S
O107 Mg98 2.114 . S
O107 C110 1.252 . S
O108 Mg98 2.251 . S
O108 Mg101 2.079 . S
O108 C110 1.273 . S
C109 O105 1.246 . S
C109 O106 1.259 . S
C110 O107 1.252 . S
C110 O108 1.273 . S
O111 Mg98 2.010 . S
O111 C103 1.249 . S
Mg112 O113 2.028 . S
Mg112 O119 1.986 . S
Mg112 O121 2.114 . S
Mg112 O122 2.251 . S
Mg112 O125 2.010 . S
O113 Mg112 2.028 . S
O113 C116 1.250 . S
O114 Mg115 2.028 . S
O114 C116 1.248 . S
Mg115 O114 2.028 . S
Mg115 O120 2.032 . S
Mg115 O122 2.079 . S
C116 O113 1.250 . S
C116 O114 1.248 . S
C117 O118 1.264 . S
C117 O125 1.249 . S
O118 C117 1.264 . S
O119 Mg112 1.986 . S
O119 C123 1.246 . S
O120 Mg115 2.032 . S
O120 C123 1.259 . S
O121 Mg112 2.114 . S
O121 C124 1.252 . S
O122 Mg112 2.251 . S
O122 Mg115 2.079 . S
O122 C124 1.273 . S
C123 O119 1.246 . S
C123 O120 1.259 . S
C124 O121 1.252 . S
C124 O122 1.273 . S
O125 Mg112 2.010 . S
O125 C117 1.249 . S
Mg126 O127 2.028 . S
Mg126 O133 1.986 . S
Mg126 O135 2.114 . S
Mg126 O136 2.251 . S
Mg126 O139 2.010 . S
O127 Mg126 2.028 . S
O127 C130 1.250 . S
O128 Mg129 2.028 . S
O128 C130 1.248 . S
Mg129 O128 2.028 . S
Mg129 O134 2.032 . S
Mg129 O136 2.079 . S
C130 O127 1.250 . S
C130 O128 1.248 . S
C131 O132 1.264 . S
C131 O139 1.249 . S
O132 C131 1.264 . S
O133 Mg126 1.986 . S
O133 C137 1.246 . S
O134 Mg129 2.032 . S
O134 C137 1.259 . S
O135 Mg126 2.114 . S
O135 C138 1.252 . S
O136 Mg126 2.251 . S
O136 Mg129 2.079 . S
O136 C138 1.273 . S
C137 O133 1.246 . S
C137 O134 1.259 . S
C138 O135 1.252 . S
C138 O136 1.273 . S
O139 Mg126 2.010 . S
O139 C131 1.249 . S
Mg140 O141 2.028 . S
Mg140 O147 1.986 . S
Mg140 O149 2.114 . S
Mg140 O150 2.251 . S
Mg140 O153 2.010 . S
O141 Mg140 2.028 . S
O141 C144 1.250 . S
O142 Mg143 2.028 . S
O142 C144 1.248 . S
Mg143 O142 2.028 . S
Mg143 O148 2.032 . S
Mg143 O150 2.079 . S
C144 O141 1.250 . S
C144 O142 1.248 . S
C145 O146 1.264 . S
C145 O153 1.249 . S
O146 C145 1.264 . S
O147 Mg140 1.986 . S
O147 C151 1.246 . S
O148 Mg143 2.032 . S
O148 C151 1.259 . S
O149 Mg140 2.114 . S
O149 C152 1.252 . S
O150 Mg140 2.251 . S
O150 Mg143 2.079 . S
O150 C152 1.273 . S
C151 O147 1.246 . S
C151 O148 1.259 . S
C152 O149 1.252 . S
C152 O150 1.273 . S
O153 Mg140 2.010 . S
O153 C145 1.249 . S
Mg154 O155 2.028 . S
Mg154 O161 1.986 . S
Mg154 O163 2.114 . S
Mg154 O164 2.251 . S
Mg154 O167 2.010 . S
O155 Mg154 2.028 . S
O155 C158 1.250 . S
O156 Mg157 2.028 . S
O156 C158 1.248 . S
Mg157 O156 2.028 . S
Mg157 O162 2.032 . S
Mg157 O164 2.079 . S
C158 O155 1.250 . S
C158 O156 1.248 . S
C159 O160 1.264 . S
C159 O167 1.249 . S
O160 C159 1.264 . S
O161 Mg154 1.986 . S
O161 C165 1.246 . S
O162 Mg157 2.032 . S
O162 C165 1.259 . S
O163 Mg154 2.114 . S
O163 C166 1.252 . S
O164 Mg154 2.251 . S
O164 Mg157 2.079 . S
O164 C166 1.273 . S
C165 O161 1.246 . S
C165 O162 1.259 . S
C166 O163 1.252 . S
C166 O164 1.273 . S
O167 Mg154 2.010 . S
O167 C159 1.249 . S
Mg168 O169 2.028 . S
Mg168 O175 1.986 . S
Mg168 O177 2.114 . S
Mg168 O178 2.251 . S
Mg168 O181 2.010 . S
O169 Mg168 2.028 . S
O169 C172 1.250 . S
O170 Mg171 2.028 . S
O170 C172 1.248 . S
Mg171 O170 2.028 . S
Mg171 O176 2.032 . S
Mg171 O178 2.079 . S
C172 O169 1.250 . S
C172 O170 1.248 . S
C173 O174 1.264 . S
C173 O181 1.249 . S
O174 C173 1.264 . S
O175 Mg168 1.986 . S
O175 C179 1.246 . S
O176 Mg171 2.032 . S
O176 C179 1.259 . S
O177 Mg168 2.114 . S
O177 C180 1.252 . S
O178 Mg168 2.251 . S
O178 Mg171 2.079 . S
O178 C180 1.273 . S
C179 O175 1.246 . S
C179 O176 1.259 . S
C180 O177 1.252 . S
C180 O178 1.273 . S
O181 Mg168 2.010 . S
O181 C173 1.249 . S
Mg182 O183 2.028 . S
Mg182 O189 1.986 . S
Mg182 O191 2.114 . S
Mg182 O192 2.251 . S
Mg182 O195 2.010 . S
O183 Mg182 2.028 . S
O183 C186 1.250 . S
O184 Mg185 2.028 . S
O184 C186 1.248 . S
Mg185 O184 2.028 . S
Mg185 O190 2.032 . S
Mg185 O192 2.079 . S
C186 O183 1.250 . S
C186 O184 1.248 . S
C187 O188 1.264 . S
C187 O195 1.249 . S
O188 C187 1.264 . S
O189 Mg182 1.986 . S
O189 C193 1.246 . S
O190 Mg185 2.032 . S
O190 C193 1.259 . S
O191 Mg182 2.114 . S
O191 C194 1.252 . S
O192 Mg182 2.251 . S
O192 Mg185 2.079 . S
O192 C194 1.273 . S
C193 O189 1.246 . S
C193 O190 1.259 . S
C194 O191 1.252 . S
C194 O192 1.273 . S
O195 Mg182 2.010 . S
O195 C187 1.249 . S
Mg196 O197 2.028 . S
Mg196 O203 1.986 . S
Mg196 O205 2.114 . S
Mg196 O206 2.251 . S
Mg196 O209 2.010 . S
O197 Mg196 2.028 . S
O197 C200 1.250 . S
O198 Mg199 2.028 . S
O198 C200 1.248 . S
Mg199 O198 2.028 . S
Mg199 O204 2.032 . S
Mg199 O206 2.079 . S
C200 O197 1.250 . S
C200 O198 1.248 . S
C201 O202 1.264 . S
C201 O209 1.249 . S
O202 C201 1.264 . S
O203 Mg196 1.986 . S
O203 C207 1.246 . S
O204 Mg199 2.032 . S
O204 C207 1.259 . S
O205 Mg196 2.114 . S
O205 C208 1.252 . S
O206 Mg196 2.251 . S
O206 Mg199 2.079 . S
O206 C208 1.273 . S
C207 O203 1.246 . S
C207 O204 1.259 . S
C208 O205 1.252 . S
C208 O206 1.273 . S
O209 Mg196 2.010 . S
O209 C201 1.249 . S
Mg210 O211 2.028 . S
Mg210 O217 1.986 . S
Mg210 O219 2.114 . S
Mg210 O220 2.251 . S
Mg210 O223 2.010 . S
O211 Mg210 2.028 . S
O211 C214 1.250 . S
O212 Mg213 2.028 . S
O212 C214 1.248 . S
Mg213 O212 2.028 . S
Mg213 O218 2.032 . S
Mg213 O220 2.079 . S
C214 O211 1.250 . S
C214 O212 1.248 . S
C215 O216 1.264 . S
C215 O223 1.249 . S
O216 C215 1.264 . S
O217 Mg210 1.986 . S
O217 C221 1.246 . S
O218 Mg213 2.032 . S
O218 C221 1.259 . S
O219 Mg210 2.114 . S
O219 C222 1.252 . S
O220 Mg210 2.251 . S
O220 Mg213 2.079 . S
O220 C222 1.273 . S
C221 O217 1.246 . S
C221 O218 1.259 . S
C222 O219 1.252 . S
C222 O220 1.273 . S
O223 Mg210 2.010 . S
O223 C215 1.249 . S
Mg224 O225 2.028 . S
Mg224 O231 1.986 . S
Mg224 O233 2.114 . S
Mg224 O234 2.251 . S
Mg224 O237 2.010 . S
O225 Mg224 2.028 . S
O225 C228 1.250 . S
O226 Mg227 2.028 . S
O226 C228 1.248 . S
Mg227 O226 2.028 . S
Mg227 O232 2.032 . S
Mg227 O234 2.079 . S
C228 O225 1.250 . S
C228 O226 1.248 . S
C229 O230 1.264 . S
C229 O237 1.249 . S
O230 C229 1.264 . S
O231 Mg224 1.986 . S
O231 C235 1.246 . S
O232 Mg227 2.032 . S
O232 C235 1.259 . S
O233 Mg224 2.114 . S
O233 C236 1.252 . S
O234 Mg224 2.251 . S
O234 Mg227 2.079 . S
O234 C236 1.273 . S
C235 O231 1.246 . S
C235 O232 1.259 . S
C236 O233 1.252 . S
C236 O234 1.273 . S
O237 Mg224 2.010 . S
O237 C229 1.249 . S
Mg238 O239 2.028 . S
Mg238 O245 1.986 . S
Mg238 O247 2.114 . S
Mg238 O248 2.251 . S
Mg238 O251 2.010 . S
O239 Mg238 2.028 . S
O239 C242 1.250 . S
O240 Mg241 2.028 . S
O240 C242 1.248 . S
Mg241 O240 2.028 . S
Mg241 O246 2.032 . S
Mg241 O248 2.079 . S
C242 O239 1.250 . S
C242 O240 1.248 . S
C243 O244 1.264 . S
C243 O251 1.249 . S
O244 C243 1.264 . S
O245 Mg238 1.986 . S
O245 C249 1.246 . S
O246 Mg241 2.032 . S
O246 C249 1.259 . S
O247 Mg238 2.114 . S
O247 C250 1.252 . S
O248 Mg238 2.251 . S
O248 Mg241 2.079 . S
O248 C250 1.273 . S
C249 O245 1.246 . S
C249 O246 1.259 . S
C250 O247 1.252 . S
C250 O248 1.273 . S
O251 Mg238 2.010 . S
O251 C243 1.249 . S
Mg252 O253 2.028 . S
Mg252 O259 1.986 . S
Mg252 O261 2.114 . S
Mg252 O262 2.251 . S
Mg252 O265 2.010 . S
O253 Mg252 2.028 . S
O253 C256 1.250 . S
O254 Mg255 2.028 . S
O254 C256 1.248 . S
Mg255 O254 2.028 . S
Mg255 O260 2.032 . S
Mg255 O262 2.079 . S
C256 O253 1.250 . S
C256 O254 1.248 . S
C257 O258 1.264 . S
C257 O265 1.249 . S
O258 C257 1.264 . S
O259 Mg252 1.986 . S
O259 C263 1.246 . S
O260 Mg255 2.032 . S
O260 C263 1.259 . S
O261 Mg252 2.114 . S
O261 C264 1.252 . S
O262 Mg252 2.251 . S
O262 Mg255 2.079 . S
O262 C264 1.273 . S
C263 O259 1.246 . S
C263 O260 1.259 . S
C264 O261 1.252 . S
C264 O262 1.273 . S
O265 Mg252 2.010 . S
O265 C257 1.249 . S
Mg266 O267 2.028 . S
Mg266 O273 1.986 . S
Mg266 O275 2.114 . S
Mg266 O276 2.251 . S
Mg266 O279 2.010 . S
O267 Mg266 2.028 . S
O267 C270 1.250 . S
O268 Mg269 2.028 . S
O268 C270 1.248 . S
Mg269 O268 2.028 . S
Mg269 O274 2.032 . S
Mg269 O276 2.079 . S
C270 O267 1.250 . S
C270 O268 1.248 . S
C271 O272 1.264 . S
C271 O279 1.249 . S
O272 C271 1.264 . S
O273 Mg266 1.986 . S
O273 C277 1.246 . S
O274 Mg269 2.032 . S
O274 C277 1.259 . S
O275 Mg266 2.114 . S
O275 C278 1.252 . S
O276 Mg266 2.251 . S
O276 Mg269 2.079 . S
O276 C278 1.273 . S
C277 O273 1.246 . S
C277 O274 1.259 . S
C278 O275 1.252 . S
C278 O276 1.273 . S
O279 Mg266 2.010 . S
O279 C271 1.249 . S
Mg280 O281 2.028 . S
Mg280 O287 1.986 . S
Mg280 O289 2.114 . S
Mg280 O290 2.251 . S
Mg280 O293 2.010 . S
O281 Mg280 2.028 . S
O281 C284 1.250 . S
O282 Mg283 2.028 . S
O282 C284 1.248 . S
Mg283 O282 2.028 . S
Mg283 O288 2.032 . S
Mg283 O290 2.079 . S
C284 O281 1.250 . S
C284 O282 1.248 . S
C285 O286 1.264 . S
C285 O293 1.249 . S
O286 C285 1.264 . S
O287 Mg280 1.986 . S
O287 C291 1.246 . S
O288 Mg283 2.032 . S
O288 C291 1.259 . S
O289 Mg280 2.114 . S
O289 C292 1.252 . S
O290 Mg280 2.251 . S
O290 Mg283 2.079 . S
O290 C292 1.273 . S
C291 O287 1.246 . S
C291 O288 1.259 . S
C292 O289 1.252 . S
C292 O290 1.273 . S
O293 Mg280 2.010 . S
O293 C285 1.249 . S
Mg294 O295 2.028 . S
Mg294 O301 1.986 . S
Mg294 O303 2.114 . S
Mg294 O304 2.251 . S
Mg294 O307 2.010 1_554 S
O295 Mg294 2.028 . S
O295 C298 1.250 . S
O296 Mg297 2.028 . S
O296 C298 1.248 . S
Mg297 O296 2.028 . S
Mg297 O302 2.032 . S
Mg297 O304 2.079 . S
C298 O295 1.250 . S
C298 O296 1.248 . S
C299 O300 1.264 . S
C299 O307 1.249 . S
O300 C299 1.264 . S
O301 Mg294 1.986 . S
O301 C305 1.246 . S
O302 Mg297 2.032 . S
O302 C305 1.259 . S
O303 Mg294 2.114 . S
O303 C306 1.252 . S
O304 Mg294 2.251 . S
O304 Mg297 2.079 . S
O304 C306 1.273 . S
C305 O301 1.246 . S
C305 O302 1.259 . S
C306 O303 1.252 . S
C306 O304 1.273 . S
O307 Mg294 2.010 1_556 S
O307 C299 1.249 . S
Mg308 O309 2.028 . S
Mg308 O315 1.986 . S
Mg308 O317 2.114 . S
Mg308 O318 2.251 . S
Mg308 O321 2.010 1_554 S
O309 Mg308 2.028 . S
O309 C312 1.250 1_655 S
O310 Mg311 2.028 1_455 S
O310 C312 1.248 . S
Mg311 O310 2.028 1_655 S
Mg311 O316 2.032 . S
Mg311 O318 2.079 . S
C312 O309 1.250 1_455 S
C312 O310 1.248 . S
C313 O314 1.264 . S
C313 O321 1.249 . S
O314 C313 1.264 . S
O315 Mg308 1.986 . S
O315 C319 1.246 . S
O316 Mg311 2.032 . S
O316 C319 1.259 . S
O317 Mg308 2.114 . S
O317 C320 1.252 . S
O318 Mg308 2.251 . S
O318 Mg311 2.079 . S
O318 C320 1.273 . S
C319 O315 1.246 . S
C319 O316 1.259 . S
C320 O317 1.252 . S
C320 O318 1.273 . S
O321 Mg308 2.010 1_556 S
O321 C313 1.249 . S
Mg322 O323 2.028 . S
Mg322 O329 1.986 . S
Mg322 O331 2.114 . S
Mg322 O332 2.251 . S
Mg322 O335 2.010 1_554 S
O323 Mg322 2.028 . S
O323 C326 1.250 . S
O324 Mg325 2.028 . S
O324 C326 1.248 . S
Mg325 O324 2.028 . S
Mg325 O330 2.032 . S
Mg325 O332 2.079 . S
C326 O323 1.250 . S
C326 O324 1.248 . S
C327 O328 1.264 . S
C327 O335 1.249 . S
O328 C327 1.264 . S
O329 Mg322 1.986 . S
O329 C333 1.246 . S
O330 Mg325 2.032 . S
O330 C333 1.259 . S
O331 Mg322 2.114 . S
O331 C334 1.252 . S
O332 Mg322 2.251 . S
O332 Mg325 2.079 . S
O332 C334 1.273 . S
C333 O329 1.246 . S
C333 O330 1.259 . S
C334 O331 1.252 . S
C334 O332 1.273 . S
O335 Mg322 2.010 1_556 S
O335 C327 1.249 . S
Mg336 O337 2.028 . S
Mg336 O343 1.986 . S
Mg336 O345 2.114 . S
Mg336 O346 2.251 . S
Mg336 O349 2.010 . S
O337 Mg336 2.028 . S
O337 C340 1.250 . S
O338 Mg339 2.028 . S
O338 C340 1.248 . S
Mg339 O338 2.028 . S
Mg339 O344 2.032 . S
Mg339 O346 2.079 . S
C340 O337 1.250 . S
C340 O338 1.248 . S
C341 O342 1.264 . S
C341 O349 1.249 . S
O342 C341 1.264 . S
O343 Mg336 1.986 . S
O343 C347 1.246 . S
O344 Mg339 2.032 . S
O344 C347 1.259 . S
O345 Mg336 2.114 . S
O345 C348 1.252 . S
O346 Mg336 2.251 . S
O346 Mg339 2.079 . S
O346 C348 1.273 . S
C347 O343 1.246 . S
C347 O344 1.259 . S
C348 O345 1.252 . S
C348 O346 1.273 . S
O349 Mg336 2.010 . S
O349 C341 1.249 . S
Mg350 O351 2.028 . S
Mg350 O357 1.986 . S
Mg350 O359 2.114 . S
Mg350 O360 2.251 . S
Mg350 O363 2.010 . S
O351 Mg350 2.028 . S
O351 C354 1.250 . S
O352 Mg353 2.028 . S
O352 C354 1.248 . S
Mg353 O352 2.028 . S
Mg353 O358 2.032 . S
Mg353 O360 2.079 . S
C354 O351 1.250 . S
C354 O352 1.248 . S
C355 O356 1.264 . S
C355 O363 1.249 . S
O356 C355 1.264 . S
O357 Mg350 1.986 . S
O357 C361 1.246 . S
O358 Mg353 2.032 . S
O358 C361 1.259 . S
O359 Mg350 2.114 . S
O359 C362 1.252 . S
O360 Mg350 2.251 . S
O360 Mg353 2.079 . S
O360 C362 1.273 . S
C361 O357 1.246 . S
C361 O358 1.259 . S
C362 O359 1.252 . S
C362 O360 1.273 . S
O363 Mg350 2.010 . S
O363 C355 1.249 . S
Mg364 O365 2.028 . S
Mg364 O371 1.986 . S
Mg364 O373 2.114 . S
Mg364 O374 2.251 . S
Mg364 O377 2.010 . S
O365 Mg364 2.028 . S
O365 C368 1.250 . S
O366 Mg367 2.028 . S
O366 C368 1.248 . S
Mg367 O366 2.028 . S
Mg367 O372 2.032 . S
Mg367 O374 2.079 . S
C368 O365 1.250 . S
C368 O366 1.248 . S
C369 O370 1.264 . S
C369 O377 1.249 . S
O370 C369 1.264 . S
O371 Mg364 1.986 . S
O371 C375 1.246 . S
O372 Mg367 2.032 . S
O372 C375 1.259 . S
O373 Mg364 2.114 . S
O373 C376 1.252 . S
O374 Mg364 2.251 . S
O374 Mg367 2.079 . S
O374 C376 1.273 . S
C375 O371 1.246 . S
C375 O372 1.259 . S
C376 O373 1.252 . S
C376 O374 1.273 . S
O377 Mg364 2.010 . S
O377 C369 1.249 . S
Mg378 O379 2.028 . S
Mg378 O385 1.986 . S
Mg378 O387 2.114 . S
Mg378 O388 2.251 . S
Mg378 O391 2.010 1_556 S
O379 Mg378 2.028 . S
O379 C382 1.250 . S
O380 Mg381 2.028 . S
O380 C382 1.248 . S
Mg381 O380 2.028 . S
Mg381 O386 2.032 . S
Mg381 O388 2.079 . S
C382 O379 1.250 . S
C382 O380 1.248 . S
C383 O384 1.264 . S
C383 O391 1.249 . S
O384 C383 1.264 . S
O385 Mg378 1.986 . S
O385 C389 1.246 . S
O386 Mg381 2.032 . S
O386 C389 1.259 . S
O387 Mg378 2.114 . S
O387 C390 1.252 . S
O388 Mg378 2.251 . S
O388 Mg381 2.079 . S
O388 C390 1.273 . S
C389 O385 1.246 . S
C389 O386 1.259 . S
C390 O387 1.252 . S
C390 O388 1.273 . S
O391 Mg378 2.010 1_554 S
O391 C383 1.249 . S
Mg392 O393 2.028 . S
Mg392 O399 1.986 . S
Mg392 O401 2.114 . S
Mg392 O402 2.251 . S
Mg392 O405 2.010 1_556 S
O393 Mg392 2.028 . S
O393 C396 1.250 1_455 S
O394 Mg395 2.028 1_655 S
O394 C396 1.248 . S
Mg395 O394 2.028 1_455 S
Mg395 O400 2.032 . S
Mg395 O402 2.079 . S
C396 O393 1.250 1_655 S
C396 O394 1.248 . S
C397 O398 1.264 . S
C397 O405 1.249 . S
O398 C397 1.264 . S
O399 Mg392 1.986 . S
O399 C403 1.246 . S
O400 Mg395 2.032 . S
O400 C403 1.259 . S
O401 Mg392 2.114 . S
O401 C404 1.252 . S
O402 Mg392 2.251 . S
O402 Mg395 2.079 . S
O402 C404 1.273 . S
C403 O399 1.246 . S
C403 O400 1.259 . S
C404 O401 1.252 . S
C404 O402 1.273 . S
O405 Mg392 2.010 1_554 S
O405 C397 1.249 . S
Mg406 O407 2.028 . S
Mg406 O413 1.986 . S
Mg406 O415 2.114 . S
Mg406 O416 2.251 . S
Mg406 O419 2.010 1_556 S
O407 Mg406 2.028 . S
O407 C410 1.250 . S
O408 Mg409 2.028 . S
O408 C410 1.248 . S
Mg409 O408 2.028 . S
Mg409 O414 2.032 . S
Mg409 O416 2.079 . S
C410 O407 1.250 . S
C410 O408 1.248 . S
C411 O412 1.264 . S
C411 O419 1.249 . S
O412 C411 1.264 . S
O413 Mg406 1.986 . S
O413 C417 1.246 . S
O414 Mg409 2.032 . S
O414 C417 1.259 . S
O415 Mg406 2.114 . S
O415 C418 1.252 . S
O416 Mg406 2.251 . S
O416 Mg409 2.079 . S
O416 C418 1.273 . S
C417 O413 1.246 . S
C417 O414 1.259 . S
C418 O415 1.252 . S
C418 O416 1.273 . S
O419 Mg406 2.010 1_554 S
O419 C411 1.249 . S
Mg420 O421 2.028 . S
Mg420 O427 1.986 . S
Mg420 O429 2.114 . S
Mg420 O430 2.251 . S
Mg420 O433 2.010 . S
O421 Mg420 2.028 . S
O421 C424 1.250 . S
O422 Mg423 2.028 . S
O422 C424 1.248 . S
Mg423 O422 2.028 . S
Mg423 O428 2.032 . S
Mg423 O430 2.079 . S
C424 O421 1.250 . S
C424 O422 1.248 . S
C425 O426 1.264 . S
C425 O433 1.249 . S
O426 C425 1.264 . S
O427 Mg420 1.986 . S
O427 C431 1.246 . S
O428 Mg423 2.032 . S
O428 C431 1.259 . S
O429 Mg420 2.114 . S
O429 C432 1.252 . S
O430 Mg420 2.251 . S
O430 Mg423 2.079 . S
O430 C432 1.273 . S
C431 O427 1.246 . S
C431 O428 1.259 . S
C432 O429 1.252 . S
C432 O430 1.273 . S
O433 Mg420 2.010 . S
O433 C425 1.249 . S
Mg434 O435 2.028 . S
Mg434 O441 1.986 . S
Mg434 O443 2.114 . S
Mg434 O444 2.251 . S
Mg434 O447 2.010 . S
O435 Mg434 2.028 . S
O435 C438 1.250 . S
O436 Mg437 2.028 . S
O436 C438 1.248 . S
Mg437 O436 2.028 . S
Mg437 O442 2.032 . S
Mg437 O444 2.079 . S
C438 O435 1.250 . S
C438 O436 1.248 . S
C439 O440 1.264 . S
C439 O447 1.249 . S
O440 C439 1.264 . S
O441 Mg434 1.986 . S
O441 C445 1.246 . S
O442 Mg437 2.032 . S
O442 C445 1.259 . S
O443 Mg434 2.114 . S
O443 C446 1.252 . S
O444 Mg434 2.251 . S
O444 Mg437 2.079 . S
O444 C446 1.273 . S
C445 O441 1.246 . S
C445 O442 1.259 . S
C446 O443 1.252 . S
C446 O444 1.273 . S
O447 Mg434 2.010 . S
O447 C439 1.249 . S
Mg448 O449 2.028 . S
Mg448 O455 1.986 . S
Mg448 O457 2.114 . S
Mg448 O458 2.251 . S
Mg448 O461 2.010 . S
O449 Mg448 2.028 . S
O449 C452 1.250 . S
O450 Mg451 2.028 . S
O450 C452 1.248 . S
Mg451 O450 2.028 . S
Mg451 O456 2.032 . S
Mg451 O458 2.079 . S
C452 O449 1.250 . S
C452 O450 1.248 . S
C453 O454 1.264 . S
C453 O461 1.249 . S
O454 C453 1.264 . S
O455 Mg448 1.986 . S
O455 C459 1.246 . S
O456 Mg451 2.032 . S
O456 C459 1.259 . S
O457 Mg448 2.114 . S
O457 C460 1.252 . S
O458 Mg448 2.251 . S
O458 Mg451 2.079 . S
O458 C460 1.273 . S
C459 O455 1.246 . S
C459 O456 1.259 . S
C460 O457 1.252 . S
C460 O458 1.273 . S
O461 Mg448 2.010 . S
O461 C453 1.249 . S
Mg462 O463 2.028 . S
Mg462 O469 1.986 . S
Mg462 O471 2.114 . S
Mg462 O472 2.251 . S
Mg462 O475 2.010 . S
O463 Mg462 2.028 . S
O463 C466 1.250 . S
O464 Mg465 2.028 . S
O464 C466 1.248 . S
Mg465 O464 2.028 . S
Mg465 O470 2.032 . S
Mg465 O472 2.079 . S
C466 O463 1.250 . S
C466 O464 1.248 . S
C467 O468 1.264 . S
C467 O475 1.249 . S
O468 C467 1.264 . S
O469 Mg462 1.986 . S
O469 C473 1.246 . S
O470 Mg465 2.032 . S
O470 C473 1.259 . S
O471 Mg462 2.114 . S
O471 C474 1.252 . S
O472 Mg462 2.251 . S
O472 Mg465 2.079 . S
O472 C474 1.273 . S
C473 O469 1.246 . S
C473 O470 1.259 . S
C474 O471 1.252 . S
C474 O472 1.273 . S
O475 Mg462 2.010 . S
O475 C467 1.249 . S
Mg476 O477 2.028 . S
Mg476 O483 1.986 . S
Mg476 O485 2.114 . S
Mg476 O486 2.251 . S
Mg476 O489 2.010 . S
O477 Mg476 2.028 . S
O477 C480 1.250 . S
O478 Mg479 2.028 . S
O478 C480 1.248 . S
Mg479 O478 2.028 . S
Mg479 O484 2.032 . S
Mg479 O486 2.079 . S
C480 O477 1.250 . S
C480 O478 1.248 . S
C481 O482 1.264 . S
C481 O489 1.249 . S
O482 C481 1.264 . S
O483 Mg476 1.986 . S
O483 C487 1.246 . S
O484 Mg479 2.032 . S
O484 C487 1.259 . S
O485 Mg476 2.114 . S
O485 C488 1.252 . S
O486 Mg476 2.251 . S
O486 Mg479 2.079 . S
O486 C488 1.273 . S
C487 O483 1.246 . S
C487 O484 1.259 . S
C488 O485 1.252 . S
C488 O486 1.273 . S
O489 Mg476 2.010 . S
O489 C481 1.249 . S
Mg490 O491 2.028 . S
Mg490 O497 1.986 . S
Mg490 O499 2.114 . S
Mg490 O500 2.251 . S
Mg490 O503 2.010 . S
O491 Mg490 2.028 . S
O491 C494 1.250 . S
O492 Mg493 2.028 . S
O492 C494 1.248 . S
Mg493 O492 2.028 . S
Mg493 O498 2.032 . S
Mg493 O500 2.079 . S
C494 O491 1.250 . S
C494 O492 1.248 . S
C495 O496 1.264 . S
C495 O503 1.249 . S
O496 C495 1.264 . S
O497 Mg490 1.986 . S
O497 C501 1.246 . S
O498 Mg493 2.032 . S
O498 C501 1.259 . S
O499 Mg490 2.114 . S
O499 C502 1.252 . S
O500 Mg490 2.251 . S
O500 Mg493 2.079 . S
O500 C502 1.273 . S
C501 O497 1.246 . S
C501 O498 1.259 . S
C502 O499 1.252 . S
C502 O500 1.273 . S
O503 Mg490 2.010 . S
O503 C495 1.249 . S
C504 C505 1.369 . S
C504 C506 1.419 . S
C504 H508 0.930 . S
C505 C504 1.369 . S
C505 C514 1.429 . S
C506 C504 1.419 . S
C506 C507 1.363 1_556 S
C506 H509 0.929 . S
C507 C506 1.363 1_554 S
C507 C513 1.428 1_554 S
H508 C504 0.930 . S
H509 C506 0.929 . S
S510 N511 1.613 . S
S510 N512 1.610 . S
N511 S510 1.613 . S
N511 C514 1.350 . S
N512 S510 1.610 . S
N512 C513 1.351 . S
C513 C507 1.428 1_556 S
C513 N512 1.351 . S
C513 C514 1.434 . S
C514 C505 1.429 . S
C514 N511 1.350 . S
C514 C513 1.434 . S
C515 C516 1.369 . S
C515 C517 1.419 . S
C515 H519 0.930 . S
C516 C515 1.369 . S
C516 C525 1.429 . S
C517 C515 1.419 . S
C517 C518 1.363 1_556 S
C517 H520 0.929 1_556 S
C518 C517 1.363 1_554 S
C518 C524 1.428 1_554 S
H519 C515 0.930 . S
H520 C517 0.929 1_554 S
S521 N522 1.613 . S
S521 N523 1.610 . S
N522 S521 1.613 . S
N522 C525 1.350 . S
N523 S521 1.610 . S
N523 C524 1.351 . S
C524 C518 1.428 1_556 S
C524 N523 1.351 . S
C524 C525 1.434 . S
C525 C516 1.429 . S
C525 N522 1.350 . S
C525 C524 1.434 . S
C526 C527 1.369 1_556 S
C526 C528 1.419 . S
C526 H530 0.930 . S
C527 C526 1.369 1_554 S
C527 C536 1.429 1_554 S
C528 C526 1.419 . S
C528 C529 1.363 . S
C528 H531 0.929 . S
C529 C528 1.363 . S
C529 C535 1.428 . S
H530 C526 0.930 . S
H531 C528 0.929 . S
S532 N533 1.613 1_556 S
S532 N534 1.610 . S
N533 S532 1.613 1_554 S
N533 C536 1.350 1_554 S
N534 S532 1.610 . S
N534 C535 1.351 . S
C535 C529 1.428 . S
C535 N534 1.351 . S
C535 C536 1.434 . S
C536 C527 1.429 1_556 S
C536 N533 1.350 1_556 S
C536 C535 1.434 . S
C537 C538 1.369 . S
C537 C539 1.419 . S
C537 H541 0.930 . S
C538 C537 1.369 . S
C538 C547 1.429 . S
C539 C537 1.419 . S
C539 C540 1.363 . S
C539 H542 0.929 . S
C540 C539 1.363 . S
C540 C546 1.428 . S
H541 C537 0.930 . S
H542 C539 0.929 . S
S543 N544 1.613 . S
S543 N545 1.610 . S
N544 S543 1.613 . S
N544 C547 1.350 . S
N545 S543 1.610 . S
N545 C546 1.351 . S
C546 C540 1.428 . S
C546 N545 1.351 . S
C546 C547 1.434 . S
C547 C538 1.429 . S
C547 N544 1.350 . S
C547 C546 1.434 . S
C548 C549 1.369 . S
C548 C550 1.419 . S
C548 H552 0.930 . S
C549 C548 1.369 . S
C549 C558 1.429 . S
C550 C548 1.419 . S
C550 C551 1.363 . S
C550 H553 0.929 . S
C551 C550 1.363 . S
C551 C557 1.428 . S
H552 C548 0.930 . S
H553 C550 0.929 . S
S554 N555 1.613 . S
S554 N556 1.610 . S
N555 S554 1.613 . S
N555 C558 1.350 . S
N556 S554 1.610 . S
N556 C557 1.351 . S
C557 C551 1.428 . S
C557 N556 1.351 . S
C557 C558 1.434 . S
C558 C549 1.429 . S
C558 N555 1.350 . S
C558 C557 1.434 . S
C559 C560 1.369 . S
C559 C561 1.419 . S
C559 H563 0.930 . S
C560 C559 1.369 . S
C560 C569 1.429 . S
C561 C559 1.419 . S
C561 C562 1.363 . S
C561 H564 0.929 . S
C562 C561 1.363 . S
C562 C568 1.428 . S
H563 C559 0.930 . S
H564 C561 0.929 . S
S565 N566 1.613 . S
S565 N567 1.610 . S
N566 S565 1.613 . S
N566 C569 1.350 . S
N567 S565 1.610 . S
N567 C568 1.351 . S
C568 C562 1.428 . S
C568 N567 1.351 . S
C568 C569 1.434 . S
C569 C560 1.429 . S
C569 N566 1.350 . S
C569 C568 1.434 . S
C570 C571 1.369 . S
C570 C572 1.419 . S
C570 H574 0.930 . S
C571 C570 1.369 . S
C571 C580 1.429 . S
C572 C570 1.419 . S
C572 C573 1.363 1_554 S
C572 H575 0.929 . S
C573 C572 1.363 1_556 S
C573 C579 1.428 1_556 S
H574 C570 0.930 . S
H575 C572 0.929 . S
S576 N577 1.613 . S
S576 N578 1.610 1_554 S
N577 S576 1.613 . S
N577 C580 1.350 . S
N578 S576 1.610 1_556 S
N578 C579 1.351 1_556 S
C579 C573 1.428 1_554 S
C579 N578 1.351 1_554 S
C579 C580 1.434 . S
C580 C571 1.429 . S
C580 N577 1.350 . S
C580 C579 1.434 . S
C581 C582 1.369 . S
C581 C583 1.419 . S
C581 H585 0.930 . S
C582 C581 1.369 . S
C582 C591 1.429 . S
C583 C581 1.419 . S
C583 C584 1.363 1_554 S
C583 H586 0.929 . S
C584 C583 1.363 1_556 S
C584 C590 1.428 1_556 S
H585 C581 0.930 . S
H586 C583 0.929 . S
S587 N588 1.613 . S
S587 N589 1.610 1_554 S
N588 S587 1.613 . S
N588 C591 1.350 . S
N589 S587 1.610 1_556 S
N589 C590 1.351 1_556 S
C590 C584 1.428 1_554 S
C590 N589 1.351 1_554 S
C590 C591 1.434 . S
C591 C582 1.429 . S
C591 N588 1.350 . S
C591 C590 1.434 . S
C592 C593 1.369 1_554 S
C592 C594 1.419 . S
C592 H596 0.930 . S
C593 C592 1.369 1_556 S
C593 C602 1.429 1_556 S
C594 C592 1.419 . S
C594 C595 1.363 . S
C594 H597 0.929 . S
C595 C594 1.363 . S
C595 C601 1.428 . S
H596 C592 0.930 . S
H597 C594 0.929 . S
S598 N599 1.613 1_554 S
S598 N600 1.610 . S
N599 S598 1.613 1_556 S
N599 C602 1.350 1_556 S
N600 S598 1.610 . S
N600 C601 1.351 . S
C601 C595 1.428 . S
C601 N600 1.351 . S
C601 C602 1.434 . S
C602 C593 1.429 1_554 S
C602 N599 1.350 1_554 S
C602 C601 1.434 . S
C603 C604 1.369 . S
C603 C605 1.419 . S
C603 H607 0.930 . S
C604 C603 1.369 . S
C604 C613 1.429 . S
C605 C603 1.419 . S
C605 C606 1.363 . S
C605 H608 0.929 . S
C606 C605 1.363 . S
C606 C612 1.428 . S
H607 C603 0.930 . S
H608 C605 0.929 . S
S609 N610 1.613 . S
S609 N611 1.610 . S
N610 S609 1.613 . S
N610 C613 1.350 . S
N611 S609 1.610 . S
N611 C612 1.351 . S
C612 C606 1.428 . S
C612 N611 1.351 . S
C612 C613 1.434 . S
C613 C604 1.429 . S
C613 N610 1.350 . S
C613 C612 1.434 . S
C614 C615 1.369 . S
C614 C616 1.419 . S
C614 H618 0.930 . S
C615 C614 1.369 . S
C615 C624 1.429 . S
C616 C614 1.419 . S
C616 C617 1.363 . S
C616 H619 0.929 . S
C617 C616 1.363 . S
C617 C623 1.428 . S
H618 C614 0.930 . S
H619 C616 0.929 . S
S620 N621 1.613 . S
S620 N622 1.610 . S
N621 S620 1.613 . S
N621 C624 1.350 . S
N622 S620 1.610 . S
N622 C623 1.351 . S
C623 C617 1.428 . S
C623 N622 1.351 . S
C623 C624 1.434 . S
C624 C615 1.429 . S
C624 N621 1.350 . S
C624 C623 1.434 . S
C625 C626 1.369 . S
C625 C627 1.419 . S
C625 H629 0.930 . S
C626 C625 1.369 . S
C626 C635 1.429 . S
C627 C625 1.419 . S
C627 C628 1.363 . S
C627 H630 0.929 . S
C628 C627 1.363 . S
C628 C634 1.428 . S
H629 C625 0.930 . S
H630 C627 0.929 . S
S631 N632 1.613 . S
S631 N633 1.610 . S
N632 S631 1.613 . S
N632 C635 1.350 . S
N633 S631 1.610 . S
N633 C634 1.351 . S
C634 C628 1.428 . S
C634 N633 1.351 . S
C634 C635 1.434 . S
C635 C626 1.429 . S
C635 N632 1.350 . S
C635 C634 1.434 . S
C636 C637 1.369 . S
C636 C638 1.419 . S
C636 H640 0.930 . S
C637 C636 1.369 . S
C637 C646 1.429 . S
C638 C636 1.419 . S
C638 C639 1.363 . S
C638 H641 0.929 . S
C639 C638 1.363 . S
C639 C645 1.428 . S
H640 C636 0.930 . S
H641 C638 0.929 . S
S642 N643 1.613 . S
S642 N644 1.610 . S
N643 S642 1.613 . S
N643 C646 1.350 . S
N644 S642 1.610 . S
N644 C645 1.351 . S
C645 C639 1.428 . S
C645 N644 1.351 . S
C645 C646 1.434 . S
C646 C637 1.429 . S
C646 N643 1.350 . S
C646 C645 1.434 . S
C647 C648 1.369 . S
C647 C649 1.419 . S
C647 H651 0.930 . S
C648 C647 1.369 . S
C648 C657 1.429 . S
C649 C647 1.419 . S
C649 C650 1.363 . S
C649 H652 0.929 . S
C650 C649 1.363 . S
C650 C656 1.428 . S
H651 C647 0.930 . S
H652 C649 0.929 . S
S653 N654 1.613 . S
S653 N655 1.610 . S
N654 S653 1.613 . S
N654 C657 1.350 . S
N655 S653 1.610 . S
N655 C656 1.351 . S
C656 C650 1.428 . S
C656 N655 1.351 . S
C656 C657 1.434 . S
C657 C648 1.429 . S
C657 N654 1.350 . S
C657 C656 1.434 . S
C658 C659 1.369 . S
C658 C660 1.419 . S
C658 H662 0.930 . S
C659 C658 1.369 . S
C659 C668 1.429 . S
C660 C658 1.419 . S
C660 C661 1.363 . S
C660 H663 0.929 . S
C661 C660 1.363 . S
C661 C667 1.428 . S
H662 C658 0.930 . S
H663 C660 0.929 . S
S664 N665 1.613 . S
S664 N666 1.610 . S
N665 S664 1.613 . S
N665 C668 1.350 . S
N666 S664 1.610 . S
N666 C667 1.351 . S
C667 C661 1.428 . S
C667 N666 1.351 . S
C667 C668 1.434 . S
C668 C659 1.429 . S
C668 N665 1.350 . S
C668 C667 1.434 . S
C669 C670 1.369 . S
C669 C671 1.419 . S
C669 H673 0.930 . S
C670 C669 1.369 . S
C670 C679 1.429 . S
C671 C669 1.419 . S
C671 C672 1.363 . S
C671 H674 0.929 . S
C672 C671 1.363 . S
C672 C678 1.428 . S
H673 C669 0.930 . S
H674 C671 0.929 . S
S675 N676 1.613 . S
S675 N677 1.610 . S
N676 S675 1.613 . S
N676 C679 1.350 . S
N677 S675 1.610 . S
N677 C678 1.351 . S
C678 C672 1.428 . S
C678 N677 1.351 . S
C678 C679 1.434 . S
C679 C670 1.429 . S
C679 N676 1.350 . S
C679 C678 1.434 . S
C680 C681 1.369 . S
C680 C682 1.419 . S
C680 H684 0.930 . S
C681 C680 1.369 . S
C681 C690 1.429 . S
C682 C680 1.419 . S
C682 C683 1.363 . S
C682 H685 0.929 . S
C683 C682 1.363 . S
C683 C689 1.428 . S
H684 C680 0.930 . S
H685 C682 0.929 . S
S686 N687 1.613 . S
S686 N688 1.610 . S
N687 S686 1.613 . S
N687 C690 1.350 . S
N688 S686 1.610 . S
N688 C689 1.351 . S
C689 C683 1.428 . S
C689 N688 1.351 . S
C689 C690 1.434 . S
C690 C681 1.429 . S
C690 N687 1.350 . S
C690 C689 1.434 . S
C691 C692 1.369 . S
C691 C693 1.419 . S
C691 H695 0.930 . S
C692 C691 1.369 . S
C692 C701 1.429 . S
C693 C691 1.419 . S
C693 C694 1.363 . S
C693 H696 0.929 . S
C694 C693 1.363 . S
C694 C700 1.428 . S
H695 C691 0.930 . S
H696 C693 0.929 . S
S697 N698 1.613 . S
S697 N699 1.610 . S
N698 S697 1.613 . S
N698 C701 1.350 . S
N699 S697 1.610 . S
N699 C700 1.351 . S
C700 C694 1.428 . S
C700 N699 1.351 . S
C700 C701 1.434 . S
C701 C692 1.429 . S
C701 N698 1.350 . S
C701 C700 1.434 . S
C702 C703 1.369 . S
C702 C704 1.419 . S
C702 H706 0.930 . S
C703 C702 1.369 . S
C703 C712 1.429 . S
C704 C702 1.419 . S
C704 C705 1.363 . S
C704 H707 0.929 . S
C705 C704 1.363 . S
C705 C711 1.428 . S
H706 C702 0.930 . S
H707 C704 0.929 . S
S708 N709 1.613 . S
S708 N710 1.610 . S
N709 S708 1.613 . S
N709 C712 1.350 . S
N710 S708 1.610 . S
N710 C711 1.351 . S
C711 C705 1.428 . S
C711 N710 1.351 . S
C711 C712 1.434 . S
C712 C703 1.429 . S
C712 N709 1.350 . S
C712 C711 1.434 . S
C713 C714 1.369 . S
C713 C715 1.419 . S
C713 H717 0.930 . S
C714 C713 1.369 . S
C714 C723 1.429 . S
C715 C713 1.419 . S
C715 C716 1.363 . S
C715 H718 0.929 . S
C716 C715 1.363 . S
C716 C722 1.428 . S
H717 C713 0.930 . S
H718 C715 0.929 . S
S719 N720 1.613 . S
S719 N721 1.610 . S
N720 S719 1.613 . S
N720 C723 1.350 . S
N721 S719 1.610 . S
N721 C722 1.351 . S
C722 C716 1.428 . S
C722 N721 1.351 . S
C722 C723 1.434 . S
C723 C714 1.429 . S
C723 N720 1.350 . S
C723 C722 1.434 . S
C724 C725 1.369 . S
C724 C726 1.419 . S
C724 H728 0.930 . S
C725 C724 1.369 . S
C725 C734 1.429 . S
C726 C724 1.419 . S
C726 C727 1.363 . S
C726 H729 0.929 . S
C727 C726 1.363 . S
C727 C733 1.428 . S
H728 C724 0.930 . S
H729 C726 0.929 . S
S730 N731 1.613 . S
S730 N732 1.610 . S
N731 S730 1.613 . S
N731 C734 1.350 . S
N732 S730 1.610 . S
N732 C733 1.351 . S
C733 C727 1.428 . S
C733 N732 1.351 . S
C733 C734 1.434 . S
C734 C725 1.429 . S
C734 N731 1.350 . S
C734 C733 1.434 . S
C735 C736 1.369 . S
C735 C737 1.419 . S
C735 H739 0.930 . S
C736 C735 1.369 . S
C736 C745 1.429 . S
C737 C735 1.419 . S
C737 C738 1.363 . S
C737 H740 0.929 . S
C738 C737 1.363 . S
C738 C744 1.428 . S
H739 C735 0.930 . S
H740 C737 0.929 . S
S741 N742 1.613 . S
S741 N743 1.610 . S
N742 S741 1.613 . S
N742 C745 1.350 . S
N743 S741 1.610 . S
N743 C744 1.351 . S
C744 C738 1.428 . S
C744 N743 1.351 . S
C744 C745 1.434 . S
C745 C736 1.429 . S
C745 N742 1.350 . S
C745 C744 1.434 . S
C746 C747 1.369 . S
C746 C748 1.419 . S
C746 H750 0.930 . S
C747 C746 1.369 . S
C747 C756 1.429 . S
C748 C746 1.419 . S
C748 C749 1.363 . S
C748 H751 0.929 . S
C749 C748 1.363 . S
C749 C755 1.428 . S
H750 C746 0.930 . S
H751 C748 0.929 . S
S752 N753 1.613 . S
S752 N754 1.610 . S
N753 S752 1.613 . S
N753 C756 1.350 . S
N754 S752 1.610 . S
N754 C755 1.351 . S
C755 C749 1.428 . S
C755 N754 1.351 . S
C755 C756 1.434 . S
C756 C747 1.429 . S
C756 N753 1.350 . S
C756 C755 1.434 . S
C757 C758 1.369 . S
C757 C759 1.419 . S
C757 H761 0.930 . S
C758 C757 1.369 . S
C758 C767 1.429 . S
C759 C757 1.419 . S
C759 C760 1.363 . S
C759 H762 0.929 . S
C760 C759 1.363 . S
C760 C766 1.428 . S
H761 C757 0.930 . S
H762 C759 0.929 . S
S763 N764 1.613 . S
S763 N765 1.610 . S
N764 S763 1.613 . S
N764 C767 1.350 . S
N765 S763 1.610 . S
N765 C766 1.351 . S
C766 C760 1.428 . S
C766 N765 1.351 . S
C766 C767 1.434 . S
C767 C758 1.429 . S
C767 N764 1.350 . S
C767 C766 1.434 . S
C768 C769 1.369 . S
C768 C770 1.419 . S
C768 H772 0.930 . S
C769 C768 1.369 . S
C769 C778 1.429 . S
C770 C768 1.419 . S
C770 C771 1.363 . S
C770 H773 0.929 . S
C771 C770 1.363 . S
C771 C777 1.428 . S
H772 C768 0.930 . S
H773 C770 0.929 . S
S774 N775 1.613 . S
S774 N776 1.610 . S
N775 S774 1.613 . S
N775 C778 1.350 . S
N776 S774 1.610 . S
N776 C777 1.351 . S
C777 C771 1.428 . S
C777 N776 1.351 . S
C777 C778 1.434 . S
C778 C769 1.429 . S
C778 N775 1.350 . S
C778 C777 1.434 . S
C779 C780 1.369 . S
C779 C781 1.419 . S
C779 H783 0.930 . S
C780 C779 1.369 . S
C780 C789 1.429 . S
C781 C779 1.419 . S
C781 C782 1.363 . S
C781 H784 0.929 . S
C782 C781 1.363 . S
C782 C788 1.428 . S
H783 C779 0.930 . S
H784 C781 0.929 . S
S785 N786 1.613 . S
S785 N787 1.610 . S
N786 S785 1.613 . S
N786 C789 1.350 . S
N787 S785 1.610 . S
N787 C788 1.351 . S
C788 C782 1.428 . S
C788 N787 1.351 . S
C788 C789 1.434 . S
C789 C780 1.429 . S
C789 N786 1.350 . S
C789 C788 1.434 . S
C790 C791 1.369 . S
C790 C792 1.419 . S
C790 H794 0.930 . S
C791 C790 1.369 . S
C791 C800 1.429 . S
C792 C790 1.419 . S
C792 C793 1.363 . S
C792 H795 0.929 . S
C793 C792 1.363 . S
C793 C799 1.428 . S
H794 C790 0.930 . S
H795 C792 0.929 . S
S796 N797 1.613 . S
S796 N798 1.610 . S
N797 S796 1.613 . S
N797 C800 1.350 . S
N798 S796 1.610 . S
N798 C799 1.351 . S
C799 C793 1.428 . S
C799 N798 1.351 . S
C799 C800 1.434 . S
C800 C791 1.429 . S
C800 N797 1.350 . S
C800 C799 1.434 . S
C801 C802 1.369 . S
C801 C803 1.419 . S
C801 H805 0.930 . S
C802 C801 1.369 . S
C802 C811 1.429 . S
C803 C801 1.419 . S
C803 C804 1.363 . S
C803 H806 0.929 . S
C804 C803 1.363 . S
C804 C810 1.428 . S
H805 C801 0.930 . S
H806 C803 0.929 . S
S807 N808 1.613 . S
S807 N809 1.610 . S
N808 S807 1.613 . S
N808 C811 1.350 . S
N809 S807 1.610 . S
N809 C810 1.351 . S
C810 C804 1.428 . S
C810 N809 1.351 . S
C810 C811 1.434 . S
C811 C802 1.429 . S
C811 N808 1.350 . S
C811 C810 1.434 . S
C812 C813 1.369 . S
C812 C814 1.419 . S
C812 H816 0.930 . S
C813 C812 1.369 . S
C813 C822 1.429 . S
C814 C812 1.419 . S
C814 C815 1.363 . S
C814 H817 0.929 . S
C815 C814 1.363 . S
C815 C821 1.428 . S
H816 C812 0.930 . S
H817 C814 0.929 . S
S818 N819 1.613 . S
S818 N820 1.610 . S
N819 S818 1.613 . S
N819 C822 1.350 . S
N820 S818 1.610 . S
N820 C821 1.351 . S
C821 C815 1.428 . S
C821 N820 1.351 . S
C821 C822 1.434 . S
C822 C813 1.429 . S
C822 N819 1.350 . S
C822 C821 1.434 . S
C823 C824 1.369 . S
C823 C825 1.419 . S
C823 H827 0.930 . S
C824 C823 1.369 . S
C824 C833 1.429 . S
C825 C823 1.419 . S
C825 C826 1.363 . S
C825 H828 0.929 . S
C826 C825 1.363 . S
C826 C832 1.428 . S
H827 C823 0.930 . S
H828 C825 0.929 . S
S829 N830 1.613 . S
S829 N831 1.610 . S
N830 S829 1.613 . S
N830 C833 1.350 . S
N831 S829 1.610 . S
N831 C832 1.351 . S
C832 C826 1.428 . S
C832 N831 1.351 . S
C832 C833 1.434 . S
C833 C824 1.429 . S
C833 N830 1.350 . S
C833 C832 1.434 . S
C834 C835 1.369 . S
C834 C836 1.419 . S
C834 H838 0.930 . S
C835 C834 1.369 . S
C835 C844 1.429 . S
C836 C834 1.419 . S
C836 C837 1.363 . S
C836 H839 0.929 . S
C837 C836 1.363 . S
C837 C843 1.428 . S
H838 C834 0.930 . S
H839 C836 0.929 . S
S840 N841 1.613 . S
S840 N842 1.610 . S
N841 S840 1.613 . S
N841 C844 1.350 . S
N842 S840 1.610 . S
N842 C843 1.351 . S
C843 C837 1.428 . S
C843 N842 1.351 . S
C843 C844 1.434 . S
C844 C835 1.429 . S
C844 N841 1.350 . S
C844 C843 1.434 . S
C845 C846 1.369 . S
C845 C847 1.419 . S
C845 H849 0.930 . S
C846 C845 1.369 . S
C846 C855 1.429 . S
C847 C845 1.419 . S
C847 C848 1.363 . S
C847 H850 0.929 . S
C848 C847 1.363 . S
C848 C854 1.428 . S
H849 C845 0.930 . S
H850 C847 0.929 . S
S851 N852 1.613 . S
S851 N853 1.610 . S
N852 S851 1.613 . S
N852 C855 1.350 . S
N853 S851 1.610 . S
N853 C854 1.351 . S
C854 C848 1.428 . S
C854 N853 1.351 . S
C854 C855 1.434 . S
C855 C846 1.429 . S
C855 N852 1.350 . S
C855 C854 1.434 . S
C856 C857 1.369 . S
C856 C858 1.419 . S
C856 H860 0.930 . S
C857 C856 1.369 . S
C857 C866 1.429 . S
C858 C856 1.419 . S
C858 C859 1.363 . S
C858 H861 0.929 . S
C859 C858 1.363 . S
C859 C865 1.428 . S
H860 C856 0.930 . S
H861 C858 0.929 . S
S862 N863 1.613 . S
S862 N864 1.610 . S
N863 S862 1.613 . S
N863 C866 1.350 . S
N864 S862 1.610 . S
N864 C865 1.351 . S
C865 C859 1.428 . S
C865 N864 1.351 . S
C865 C866 1.434 . S
C866 C857 1.429 . S
C866 N863 1.350 . S
C866 C865 1.434 . S
C867 C868 1.369 . S
C867 C869 1.419 . S
C867 H871 0.930 . S
C868 C867 1.369 . S
C868 C877 1.429 . S
C869 C867 1.419 . S
C869 C870 1.363 . S
C869 H872 0.929 . S
C870 C869 1.363 . S
C870 C876 1.428 . S
H871 C867 0.930 . S
H872 C869 0.929 . S
S873 N874 1.613 . S
S873 N875 1.610 . S
N874 S873 1.613 . S
N874 C877 1.350 . S
N875 S873 1.610 . S
N875 C876 1.351 . S
C876 C870 1.428 . S
C876 N875 1.351 . S
C876 C877 1.434 . S
C877 C868 1.429 . S
C877 N874 1.350 . S
C877 C876 1.434 . S
C878 C879 1.369 . S
C878 C880 1.419 . S
C878 H882 0.930 . S
C879 C878 1.369 . S
C879 C888 1.429 . S
C880 C878 1.419 . S
C880 C881 1.363 . S
C880 H883 0.929 . S
C881 C880 1.363 . S
C881 C887 1.428 . S
H882 C878 0.930 . S
H883 C880 0.929 . S
S884 N885 1.613 . S
S884 N886 1.610 . S
N885 S884 1.613 . S
N885 C888 1.350 . S
N886 S884 1.610 . S
N886 C887 1.351 . S
C887 C881 1.428 . S
C887 N886 1.351 . S
C887 C888 1.434 . S
C888 C879 1.429 . S
C888 N885 1.350 . S
C888 C887 1.434 . S
C889 C890 1.369 . S
C889 C891 1.419 . S
C889 H893 0.930 . S
C890 C889 1.369 . S
C890 C899 1.429 . S
C891 C889 1.419 . S
C891 C892 1.363 . S
C891 H894 0.929 . S
C892 C891 1.363 . S
C892 C898 1.428 . S
H893 C889 0.930 . S
H894 C891 0.929 . S
S895 N896 1.613 . S
S895 N897 1.610 . S
N896 S895 1.613 . S
N896 C899 1.350 . S
N897 S895 1.610 . S
N897 C898 1.351 . S
C898 C892 1.428 . S
C898 N897 1.351 . S
C898 C899 1.434 . S
C899 C890 1.429 . S
C899 N896 1.350 . S
C899 C898 1.434 . S
C900 C901 1.369 . S
C900 C902 1.419 . S
C900 H904 0.930 . S
C901 C900 1.369 . S
C901 C910 1.429 . S
C902 C900 1.419 . S
C902 C903 1.363 . S
C902 H905 0.929 . S
C903 C902 1.363 . S
C903 C909 1.428 . S
H904 C900 0.930 . S
H905 C902 0.929 . S
S906 N907 1.613 . S
S906 N908 1.610 . S
N907 S906 1.613 . S
N907 C910 1.350 . S
N908 S906 1.610 . S
N908 C909 1.351 . S
C909 C903 1.428 . S
C909 N908 1.351 . S
C909 C910 1.434 . S
C910 C901 1.429 . S
C910 N907 1.350 . S
C910 C909 1.434 . S
C911 C912 1.369 . S
C911 C913 1.405 1_565 S
C911 H915 0.930 . S
C912 C911 1.369 . S
C912 C921 1.429 . S
C913 C911 1.405 1_545 S
C913 C914 1.366 . S
C913 H916 0.941 . S
C914 C913 1.366 . S
C914 C920 1.428 . S
H915 C911 0.930 . S
H916 C913 0.941 . S
S917 N918 1.613 . S
S917 N919 1.610 1_565 S
N918 S917 1.613 . S
N918 C921 1.350 . S
N919 S917 1.610 1_545 S
N919 C920 1.351 . S
C920 C914 1.428 . S
C920 N919 1.351 . S
C920 C921 1.434 1_545 S
C921 C912 1.429 . S
C921 N918 1.350 . S
C921 C920 1.434 1_565 S
C922 C923 1.369 . S
C922 C924 1.419 1_655 S
C922 H926 0.930 . S
C923 C922 1.369 . S
C923 C932 1.428 1_655 S
C924 C922 1.419 1_455 S
C924 C925 1.363 . S
C924 H927 0.929 . S
C925 C924 1.363 . S
C925 C931 1.428 . S
H926 C922 0.930 . S
H927 C924 0.929 . S
S928 N929 1.651 . S
S928 N930 1.610 . S
N929 S928 1.651 . S
N929 C932 1.342 . S
N930 S928 1.610 . S
N930 C931 1.351 . S
C931 C925 1.428 . S
C931 N930 1.351 . S
C931 C932 1.435 . S
C932 C923 1.428 1_455 S
C932 N929 1.342 . S
C932 C931 1.435 . S
C933 C934 1.369 . S
C933 C935 1.419 . S
C933 H937 0.930 . S
C934 C933 1.369 . S
C934 C943 1.429 . S
C935 C933 1.419 . S
C935 C936 1.363 . S
C935 H938 0.929 . S
C936 C935 1.363 . S
C936 C942 1.428 . S
H937 C933 0.930 . S
H938 C935 0.929 . S
S939 N940 1.613 . S
S939 N941 1.610 . S
N940 S939 1.613 . S
N940 C943 1.350 . S
N941 S939 1.610 . S
N941 C942 1.351 . S
C942 C936 1.428 . S
C942 N941 1.351 . S
C942 C943 1.434 . S
C943 C934 1.429 . S
C943 N940 1.350 . S
C943 C942 1.434 . S
C944 C945 1.369 . S
C944 C946 1.419 1_545 S
C944 H948 0.930 . S
C945 C944 1.369 . S
C945 C954 1.429 . S
C946 C944 1.419 1_565 S
C946 C947 1.363 . S
C946 H949 0.929 . S
C947 C946 1.363 . S
C947 C953 1.428 1_565 S
H948 C944 0.930 . S
H949 C946 0.929 . S
S950 N951 1.613 . S
S950 N952 1.622 . S
N951 S950 1.613 . S
N951 C954 1.350 . S
N952 S950 1.622 . S
N952 C953 1.349 . S
C953 C947 1.428 1_545 S
C953 N952 1.349 . S
C953 C954 1.434 . S
C954 C945 1.429 . S
C954 N951 1.350 . S
C954 C953 1.434 . S
C955 C956 1.369 . S
C955 C957 1.419 . S
C955 H959 0.930 . S
C956 C955 1.369 . S
C956 C965 1.429 . S
C957 C955 1.419 . S
C957 C958 1.363 1_655 S
C957 H960 0.929 . S
C958 C957 1.363 1_455 S
C958 C964 1.428 . S
H959 C955 0.930 . S
H960 C957 0.929 . S
S961 N962 1.613 . S
S961 N963 1.610 . S
N962 S961 1.613 . S
N962 C965 1.350 1_455 S
N963 S961 1.610 . S
N963 C964 1.351 . S
C964 C958 1.428 . S
C964 N963 1.351 . S
C964 C965 1.434 1_455 S
C965 C956 1.429 . S
C965 N962 1.350 1_655 S
C965 C964 1.434 1_655 S
C966 C967 1.369 . S
C966 C968 1.419 . S
C966 H970 0.930 . S
C967 C966 1.369 . S
C967 C976 1.429 . S
C968 C966 1.419 . S
C968 C969 1.363 . S
C968 H971 0.929 . S
C969 C968 1.363 . S
C969 C975 1.428 . S
H970 C966 0.930 . S
H971 C968 0.929 . S
S972 N973 1.613 . S
S972 N974 1.610 . S
N973 S972 1.613 . S
N973 C976 1.350 . S
N974 S972 1.610 . S
N974 C975 1.351 . S
C975 C969 1.428 . S
C975 N974 1.351 . S
C975 C976 1.434 . S
C976 C967 1.429 . S
C976 N973 1.350 . S
C976 C975 1.434 . S
C977 C978 1.369 . S
C977 C979 1.419 . S
C977 H981 0.930 . S
C978 C977 1.369 . S
C978 C987 1.429 . S
C979 C977 1.419 . S
C979 C980 1.363 . S
C979 H982 0.929 . S
C980 C979 1.363 . S
C980 C986 1.428 . S
H981 C977 0.930 . S
H982 C979 0.929 . S
S983 N984 1.613 . S
S983 N985 1.610 . S
N984 S983 1.613 . S
N984 C987 1.350 . S
N985 S983 1.610 . S
N985 C986 1.351 . S
C986 C980 1.428 . S
C986 N985 1.351 . S
C986 C987 1.434 . S
C987 C978 1.429 . S
C987 N984 1.350 . S
C987 C986 1.434 . S
C988 C989 1.369 . S
C988 C990 1.419 . S
C988 H992 0.930 . S
C989 C988 1.369 . S
C989 C998 1.429 . S
C990 C988 1.419 . S
C990 C991 1.363 . S
C990 H993 0.929 . S
C991 C990 1.363 . S
C991 C997 1.428 . S
H992 C988 0.930 . S
H993 C990 0.929 . S
S994 N995 1.613 . S
S994 N996 1.610 . S
N995 S994 1.613 . S
N995 C998 1.350 . S
N996 S994 1.610 . S
N996 C997 1.351 . S
C997 C991 1.428 . S
C997 N996 1.351 . S
C997 C998 1.434 . S
C998 C989 1.429 . S
C998 N995 1.350 . S
C998 C997 1.434 . S
C999 C1000 1.369 . S
C999 C1001 1.419 . S
C999 H1003 0.930 . S
C1000 C999 1.369 . S
C1000 C1009 1.429 . S
C1001 C999 1.419 . S
C1001 C1002 1.363 . S
C1001 H1004 0.929 1_554 S
C1002 C1001 1.363 . S
C1002 C1008 1.428 . S
H1003 C999 0.930 . S
H1004 C1001 0.929 1_556 S
S1005 N1006 1.613 . S
S1005 N1007 1.610 . S
N1006 S1005 1.613 . S
N1006 C1009 1.350 . S
N1007 S1005 1.610 . S
N1007 C1008 1.351 . S
C1008 C1002 1.428 . S
C1008 N1007 1.351 . S
C1008 C1009 1.434 . S
C1009 C1000 1.429 . S
C1009 N1006 1.350 . S
C1009 C1008 1.434 . S
C1010 C1011 1.369 . S
C1010 C1012 1.419 . S
C1010 H1014 0.930 . S
C1011 C1010 1.369 . S
C1011 C1020 1.429 . S
C1012 C1010 1.419 . S
C1012 C1013 1.363 . S
C1012 H1015 0.929 . S
C1013 C1012 1.363 . S
C1013 C1019 1.428 . S
H1014 C1010 0.930 . S
H1015 C1012 0.929 . S
S1016 N1017 1.613 . S
S1016 N1018 1.610 1_556 S
N1017 S1016 1.613 . S
N1017 C1020 1.350 1_556 S
N1018 S1016 1.610 1_554 S
N1018 C1019 1.351 . S
C1019 C1013 1.428 . S
C1019 N1018 1.351 . S
C1019 C1020 1.434 . S
C1020 C1011 1.429 . S
C1020 N1017 1.350 1_554 S
C1020 C1019 1.434 . S
C1021 C1022 1.369 . S
C1021 C1023 1.419 . S
C1021 H1025 0.930 . S
C1022 C1021 1.369 . S
C1022 C1031 1.429 . S
C1023 C1021 1.419 . S
C1023 C1024 1.363 . S
C1023 H1026 0.929 . S
C1024 C1023 1.363 . S
C1024 C1030 1.428 . S
H1025 C1021 0.930 . S
H1026 C1023 0.929 . S
S1027 N1028 1.613 1_556 S
S1027 N1029 1.610 . S
N1028 S1027 1.613 1_554 S
N1028 C1031 1.350 . S
N1029 S1027 1.610 . S
N1029 C1030 1.351 1_556 S
C1030 C1024 1.428 . S
C1030 N1029 1.351 1_554 S
C1030 C1031 1.434 . S
C1031 C1022 1.429 . S
C1031 N1028 1.350 . S
C1031 C1030 1.434 . S
C1032 C1033 1.369 . S
C1032 C1034 1.419 . S
C1032 H1036 0.930 . S
C1033 C1032 1.369 . S
C1033 C1042 1.429 . S
C1034 C1032 1.419 . S
C1034 C1035 1.363 . S
C1034 H1037 0.929 . S
C1035 C1034 1.363 . S
C1035 C1041 1.428 . S
H1036 C1032 0.930 . S
H1037 C1034 0.929 . S
S1038 N1039 1.613 . S
S1038 N1040 1.610 . S
N1039 S1038 1.613 . S
N1039 C1042 1.350 1_554 S
N1040 S1038 1.610 . S
N1040 C1041 1.351 1_554 S
C1041 C1035 1.428 . S
C1041 N1040 1.351 1_556 S
C1041 C1042 1.434 . S
C1042 C1033 1.429 . S
C1042 N1039 1.350 1_556 S
C1042 C1041 1.434 . S
C1043 C1044 1.369 . S
C1043 C1045 1.419 . S
C1043 H1047 0.930 . S
C1044 C1043 1.369 . S
C1044 C1053 1.429 . S
C1045 C1043 1.419 . S
C1045 C1046 1.363 . S
C1045 H1048 0.929 . S
C1046 C1045 1.363 . S
C1046 C1052 1.428 . S
H1047 C1043 0.930 . S
H1048 C1045 0.929 . S
S1049 N1050 1.613 . S
S1049 N1051 1.610 . S
N1050 S1049 1.613 . S
N1050 C1053 1.350 1_554 S
N1051 S1049 1.610 . S
N1051 C1052 1.351 1_554 S
C1052 C1046 1.428 . S
C1052 N1051 1.351 1_556 S
C1052 C1053 1.434 . S
C1053 C1044 1.429 . S
C1053 N1050 1.350 1_556 S
C1053 C1052 1.434 . S
C1054 C1055 1.369 . S
C1054 C1056 1.419 . S
C1054 H1058 0.930 . S
C1055 C1054 1.369 . S
C1055 C1064 1.429 . S
C1056 C1054 1.419 . S
C1056 C1057 1.363 . S
C1056 H1059 0.929 . S
C1057 C1056 1.363 . S
C1057 C1063 1.428 . S
H1058 C1054 0.930 . S
H1059 C1056 0.929 . S
S1060 N1061 1.613 . S
S1060 N1062 1.610 . S
N1061 S1060 1.613 . S
N1061 C1064 1.350 . S
N1062 S1060 1.610 . S
N1062 C1063 1.351 . S
C1063 C1057 1.428 . S
C1063 N1062 1.351 . S
C1063 C1064 1.434 . S
C1064 C1055 1.429 . S
C1064 N1061 1.350 . S
C1064 C1063 1.434 . S
C1065 C1066 1.369 . S
C1065 C1067 1.419 . S
C1065 H1069 0.930 . S
C1066 C1065 1.369 . S
C1066 C1075 1.429 . S
C1067 C1065 1.419 . S
C1067 C1068 1.363 . S
C1067 H1070 0.929 . S
C1068 C1067 1.363 . S
C1068 C1074 1.428 . S
H1069 C1065 0.930 . S
H1070 C1067 0.929 . S
S1071 N1072 1.613 . S
S1071 N1073 1.610 . S
N1072 S1071 1.613 . S
N1072 C1075 1.350 . S
N1073 S1071 1.610 . S
N1073 C1074 1.351 . S
C1074 C1068 1.428 . S
C1074 N1073 1.351 . S
C1074 C1075 1.434 . S
C1075 C1066 1.429 . S
C1075 N1072 1.350 . S
C1075 C1074 1.434 . S
C1076 C1077 1.369 . S
C1076 C1078 1.419 . S
C1076 H1080 0.930 . S
C1077 C1076 1.369 . S
C1077 C1086 1.429 . S
C1078 C1076 1.419 . S
C1078 C1079 1.363 . S
C1078 H1081 0.929 . S
C1079 C1078 1.363 . S
C1079 C1085 1.428 . S
H1080 C1076 0.930 . S
H1081 C1078 0.929 . S
S1082 N1083 1.613 . S
S1082 N1084 1.610 . S
N1083 S1082 1.613 . S
N1083 C1086 1.350 . S
N1084 S1082 1.610 . S
N1084 C1085 1.351 . S
C1085 C1079 1.428 . S
C1085 N1084 1.351 . S
C1085 C1086 1.434 . S
C1086 C1077 1.429 . S
C1086 N1083 1.350 . S
C1086 C1085 1.434 . S
C1087 C1088 1.369 . S
C1087 C1089 1.419 . S
C1087 H1091 0.930 . S
C1088 C1087 1.369 . S
C1088 C1097 1.429 . S
C1089 C1087 1.419 . S
C1089 C1090 1.363 . S
C1089 H1092 0.929 . S
C1090 C1089 1.363 . S
C1090 C1096 1.428 . S
H1091 C1087 0.930 . S
H1092 C1089 0.929 . S
S1093 N1094 1.613 . S
S1093 N1095 1.610 . S
N1094 S1093 1.613 . S
N1094 C1097 1.350 . S
N1095 S1093 1.610 . S
N1095 C1096 1.351 . S
C1096 C1090 1.428 . S
C1096 N1095 1.351 . S
C1096 C1097 1.434 . S
C1097 C1088 1.429 . S
C1097 N1094 1.350 . S
C1097 C1096 1.434 . S
C1098 C1099 1.369 . S
C1098 C1100 1.419 . S
C1098 H1102 0.930 . S
C1099 C1098 1.369 . S
C1099 C1108 1.429 . S
C1100 C1098 1.419 . S
C1100 C1101 1.363 . S
C1100 H1103 0.929 . S
C1101 C1100 1.363 . S
C1101 C1107 1.428 . S
H1102 C1098 0.930 . S
H1103 C1100 0.929 . S
S1104 N1105 1.613 . S
S1104 N1106 1.610 . S
N1105 S1104 1.613 . S
N1105 C1108 1.350 . S
N1106 S1104 1.610 . S
N1106 C1107 1.351 . S
C1107 C1101 1.428 . S
C1107 N1106 1.351 . S
C1107 C1108 1.434 . S
C1108 C1099 1.429 . S
C1108 N1105 1.350 . S
C1108 C1107 1.434 . S
C1109 C1110 1.369 . S
C1109 C1111 1.419 . S
C1109 H1113 0.930 . S
C1110 C1109 1.369 . S
C1110 C1119 1.429 . S
C1111 C1109 1.419 . S
C1111 C1112 1.363 . S
C1111 H1114 0.929 . S
C1112 C1111 1.363 . S
C1112 C1118 1.428 . S
H1113 C1109 0.930 . S
H1114 C1111 0.929 . S
S1115 N1116 1.613 . S
S1115 N1117 1.610 . S
N1116 S1115 1.613 . S
N1116 C1119 1.350 . S
N1117 S1115 1.610 . S
N1117 C1118 1.351 . S
C1118 C1112 1.428 . S
C1118 N1117 1.351 . S
C1118 C1119 1.434 . S
C1119 C1110 1.429 . S
C1119 N1116 1.350 . S
C1119 C1118 1.434 . S
C1120 C1121 1.369 . S
C1120 C1122 1.419 . S
C1120 H1124 0.930 . S
C1121 C1120 1.369 . S
C1121 C1130 1.429 . S
C1122 C1120 1.419 . S
C1122 C1123 1.363 . S
C1122 H1125 0.929 . S
C1123 C1122 1.363 . S
C1123 C1129 1.428 . S
H1124 C1120 0.930 . S
H1125 C1122 0.929 . S
S1126 N1127 1.613 . S
S1126 N1128 1.610 . S
N1127 S1126 1.613 . S
N1127 C1130 1.350 . S
N1128 S1126 1.610 . S
N1128 C1129 1.351 . S
C1129 C1123 1.428 . S
C1129 N1128 1.351 . S
C1129 C1130 1.434 . S
C1130 C1121 1.429 . S
C1130 N1127 1.350 . S
C1130 C1129 1.434 . S
C1131 C1132 1.369 . S
C1131 C1133 1.419 . S
C1131 H1135 0.930 . S
C1132 C1131 1.369 . S
C1132 C1141 1.429 . S
C1133 C1131 1.419 . S
C1133 C1134 1.363 . S
C1133 H1136 0.929 . S
C1134 C1133 1.363 . S
C1134 C1140 1.428 . S
H1135 C1131 0.930 . S
H1136 C1133 0.929 . S
S1137 N1138 1.613 . S
S1137 N1139 1.610 . S
N1138 S1137 1.613 . S
N1138 C1141 1.350 . S
N1139 S1137 1.610 . S
N1139 C1140 1.351 . S
C1140 C1134 1.428 . S
C1140 N1139 1.351 . S
C1140 C1141 1.434 . S
C1141 C1132 1.429 . S
C1141 N1138 1.350 . S
C1141 C1140 1.434 . S
C1142 C1143 1.369 . S
C1142 C1144 1.419 . S
C1142 H1146 0.930 . S
C1143 C1142 1.369 . S
C1143 C1152 1.429 . S
C1144 C1142 1.419 . S
C1144 C1145 1.363 . S
C1144 H1147 0.929 . S
C1145 C1144 1.363 . S
C1145 C1151 1.428 . S
H1146 C1142 0.930 . S
H1147 C1144 0.929 . S
S1148 N1149 1.613 . S
S1148 N1150 1.610 . S
N1149 S1148 1.613 . S
N1149 C1152 1.350 . S
N1150 S1148 1.610 . S
N1150 C1151 1.351 . S
C1151 C1145 1.428 . S
C1151 N1150 1.351 . S
C1151 C1152 1.434 . S
C1152 C1143 1.429 . S
C1152 N1149 1.350 . S
C1152 C1151 1.434 . S
C1153 C1154 1.369 . S
C1153 C1155 1.419 . S
C1153 H1157 0.930 . S
C1154 C1153 1.369 . S
C1154 C1163 1.429 . S
C1155 C1153 1.419 . S
C1155 C1156 1.363 . S
C1155 H1158 0.929 . S
C1156 C1155 1.363 . S
C1156 C1162 1.428 . S
H1157 C1153 0.930 . S
H1158 C1155 0.929 . S
S1159 N1160 1.613 . S
S1159 N1161 1.610 . S
N1160 S1159 1.613 . S
N1160 C1163 1.350 . S
N1161 S1159 1.610 . S
N1161 C1162 1.351 . S
C1162 C1156 1.428 . S
C1162 N1161 1.351 . S
C1162 C1163 1.434 . S
C1163 C1154 1.429 . S
C1163 N1160 1.350 . S
C1163 C1162 1.434 . S
C1164 C1165 1.369 . S
C1164 C1166 1.419 . S
C1164 H1168 0.930 . S
C1165 C1164 1.369 . S
C1165 C1174 1.429 . S
C1166 C1164 1.419 . S
C1166 C1167 1.363 . S
C1166 H1169 0.929 . S
C1167 C1166 1.363 . S
C1167 C1173 1.428 . S
H1168 C1164 0.930 . S
H1169 C1166 0.929 . S
S1170 N1171 1.613 . S
S1170 N1172 1.610 . S
N1171 S1170 1.613 . S
N1171 C1174 1.350 . S
N1172 S1170 1.610 . S
N1172 C1173 1.351 . S
C1173 C1167 1.428 . S
C1173 N1172 1.351 . S
C1173 C1174 1.434 . S
C1174 C1165 1.429 . S
C1174 N1171 1.350 . S
C1174 C1173 1.434 . S
C1175 C1176 1.369 . S
C1175 C1177 1.419 . S
C1175 H1179 0.930 . S
C1176 C1175 1.369 . S
C1176 C1185 1.429 . S
C1177 C1175 1.419 . S
C1177 C1178 1.363 . S
C1177 H1180 0.929 . S
C1178 C1177 1.363 . S
C1178 C1184 1.428 . S
H1179 C1175 0.930 . S
H1180 C1177 0.929 . S
S1181 N1182 1.613 . S
S1181 N1183 1.610 . S
N1182 S1181 1.613 . S
N1182 C1185 1.350 . S
N1183 S1181 1.610 . S
N1183 C1184 1.351 . S
C1184 C1178 1.428 . S
C1184 N1183 1.351 . S
C1184 C1185 1.434 . S
C1185 C1176 1.429 . S
C1185 N1182 1.350 . S
C1185 C1184 1.434 . S
C1186 C1187 1.369 . S
C1186 C1188 1.419 . S
C1186 H1190 0.930 . S
C1187 C1186 1.369 . S
C1187 C1196 1.429 . S
C1188 C1186 1.419 . S
C1188 C1189 1.363 . S
C1188 H1191 0.929 . S
C1189 C1188 1.363 . S
C1189 C1195 1.428 . S
H1190 C1186 0.930 . S
H1191 C1188 0.929 . S
S1192 N1193 1.613 . S
S1192 N1194 1.610 . S
N1193 S1192 1.613 . S
N1193 C1196 1.350 . S
N1194 S1192 1.610 . S
N1194 C1195 1.351 . S
C1195 C1189 1.428 . S
C1195 N1194 1.351 . S
C1195 C1196 1.434 . S
C1196 C1187 1.429 . S
C1196 N1193 1.350 . S
C1196 C1195 1.434 . S
C1197 C1198 1.369 . S
C1197 C1199 1.419 . S
C1197 H1201 0.930 . S
C1198 C1197 1.369 . S
C1198 C1207 1.429 . S
C1199 C1197 1.419 . S
C1199 C1200 1.363 . S
C1199 H1202 0.929 . S
C1200 C1199 1.363 . S
C1200 C1206 1.428 . S
H1201 C1197 0.930 . S
H1202 C1199 0.929 . S
S1203 N1204 1.613 . S
S1203 N1205 1.610 . S
N1204 S1203 1.613 . S
N1204 C1207 1.350 . S
N1205 S1203 1.610 . S
N1205 C1206 1.351 . S
C1206 C1200 1.428 . S
C1206 N1205 1.351 . S
C1206 C1207 1.434 . S
C1207 C1198 1.429 . S
C1207 N1204 1.350 . S
C1207 C1206 1.434 . S
C1208 C1209 1.369 . S
C1208 C1210 1.419 . S
C1208 H1212 0.930 . S
C1209 C1208 1.369 . S
C1209 C1218 1.429 . S
C1210 C1208 1.419 . S
C1210 C1211 1.363 . S
C1210 H1213 0.929 . S
C1211 C1210 1.363 . S
C1211 C1217 1.428 . S
H1212 C1208 0.930 . S
H1213 C1210 0.929 . S
S1214 N1215 1.613 . S
S1214 N1216 1.610 . S
N1215 S1214 1.613 . S
N1215 C1218 1.350 . S
N1216 S1214 1.610 . S
N1216 C1217 1.351 . S
C1217 C1211 1.428 . S
C1217 N1216 1.351 . S
C1217 C1218 1.434 . S
C1218 C1209 1.429 . S
C1218 N1215 1.350 . S
C1218 C1217 1.434 . S
C1219 C1220 1.369 . S
C1219 C1221 1.419 . S
C1219 H1223 0.930 . S
C1220 C1219 1.369 . S
C1220 C1229 1.429 . S
C1221 C1219 1.419 . S
C1221 C1222 1.363 . S
C1221 H1224 0.929 . S
C1222 C1221 1.363 . S
C1222 C1228 1.428 . S
H1223 C1219 0.930 . S
H1224 C1221 0.929 . S
S1225 N1226 1.613 . S
S1225 N1227 1.610 . S
N1226 S1225 1.613 . S
N1226 C1229 1.350 . S
N1227 S1225 1.610 . S
N1227 C1228 1.351 . S
C1228 C1222 1.428 . S
C1228 N1227 1.351 . S
C1228 C1229 1.434 . S
C1229 C1220 1.429 . S
C1229 N1226 1.350 . S
C1229 C1228 1.434 . S
C1230 C1231 1.369 . S
C1230 C1232 1.419 1_455 S
C1230 H1234 0.930 . S
C1231 C1230 1.369 . S
C1231 C1240 1.429 . S
C1232 C1230 1.419 1_655 S
C1232 C1233 1.363 . S
C1232 H1235 0.929 . S
C1233 C1232 1.363 . S
C1233 C1239 1.428 . S
H1234 C1230 0.930 . S
H1235 C1232 0.929 . S
S1236 N1237 1.613 . S
S1236 N1238 1.610 1_455 S
N1237 S1236 1.613 . S
N1237 C1240 1.350 . S
N1238 S1236 1.610 1_655 S
N1238 C1239 1.351 . S
C1239 C1233 1.428 . S
C1239 N1238 1.351 . S
C1239 C1240 1.434 1_655 S
C1240 C1231 1.429 . S
C1240 N1237 1.350 . S
C1240 C1239 1.434 1_455 S
C1241 C1242 1.369 . S
C1241 C1243 1.419 . S
C1241 H1245 0.930 . S
C1242 C1241 1.369 . S
C1242 C1251 1.429 . S
C1243 C1241 1.419 . S
C1243 C1244 1.363 . S
C1243 H1246 0.929 . S
C1244 C1243 1.363 . S
C1244 C1250 1.428 . S
H1245 C1241 0.930 . S
H1246 C1243 0.929 . S
S1247 N1248 1.613 . S
S1247 N1249 1.610 . S
N1248 S1247 1.613 . S
N1248 C1251 1.350 . S
N1249 S1247 1.610 . S
N1249 C1250 1.351 . S
C1250 C1244 1.428 . S
C1250 N1249 1.351 . S
C1250 C1251 1.434 . S
C1251 C1242 1.429 . S
C1251 N1248 1.350 . S
C1251 C1250 1.434 . S
C1252 C1253 1.369 . S
C1252 C1254 1.419 . S
C1252 H1256 0.930 . S
C1253 C1252 1.369 . S
C1253 C1262 1.429 1_545 S
C1254 C1252 1.419 . S
C1254 C1255 1.363 1_545 S
C1254 H1257 0.929 . S
C1255 C1254 1.363 1_565 S
C1255 C1261 1.428 . S
H1256 C1252 0.930 . S
H1257 C1254 0.929 . S
S1258 N1259 1.613 . S
S1258 N1260 1.610 . S
N1259 S1258 1.613 . S
N1259 C1262 1.350 . S
N1260 S1258 1.610 . S
N1260 C1261 1.351 . S
C1261 C1255 1.428 . S
C1261 N1260 1.351 . S
C1261 C1262 1.434 . S
C1262 C1253 1.429 1_565 S
C1262 N1259 1.350 . S
C1262 C1261 1.434 . S
C1263 C1264 1.369 1_556 S
C1263 C1265 1.419 1_545 S
C1263 H1267 0.930 . S
C1264 C1263 1.369 1_554 S
C1264 C1273 1.429 . S
C1265 C1263 1.419 1_565 S
C1265 C1266 1.363 . S
C1265 H1268 0.929 . S
C1266 C1265 1.363 . S
C1266 C1272 1.428 1_556 S
H1267 C1263 0.930 . S
H1268 C1265 0.929 . S
S1269 N1270 1.613 . S
S1269 N1271 1.610 1_545 S
N1270 S1269 1.613 . S
N1270 C1273 1.350 . S
N1271 S1269 1.610 1_565 S
N1271 C1272 1.351 . S
C1272 C1266 1.428 1_554 S
C1272 N1271 1.351 . S
C1272 C1273 1.434 1_565 S
C1273 C1264 1.429 . S
C1273 N1270 1.350 . S
C1273 C1272 1.434 1_545 S
C1274 C1275 1.369 1_656 S
C1274 C1276 1.419 . S
C1274 H1278 0.930 . S
C1275 C1274 1.369 1_454 S
C1275 C1284 1.429 . S
C1276 C1274 1.419 . S
C1276 C1277 1.363 . S
C1276 H1279 0.929 . S
C1277 C1276 1.363 . S
C1277 C1283 1.428 1_656 S
H1278 C1274 0.930 . S
H1279 C1276 0.929 . S
S1280 N1281 1.613 . S
S1280 N1282 1.610 . S
N1281 S1280 1.613 . S
N1281 C1284 1.350 . S
N1282 S1280 1.610 . S
N1282 C1283 1.351 . S
C1283 C1277 1.428 1_454 S
C1283 N1282 1.351 . S
C1283 C1284 1.434 . S
C1284 C1275 1.429 . S
C1284 N1281 1.350 . S
C1284 C1283 1.434 . S
C1285 C1286 1.369 1_556 S
C1285 C1287 1.419 . S
C1285 H1289 0.930 . S
C1286 C1285 1.369 1_554 S
C1286 C1295 1.429 . S
C1287 C1285 1.419 . S
C1287 C1288 1.363 . S
C1287 H1290 0.929 . S
C1288 C1287 1.363 . S
C1288 C1294 1.428 1_556 S
H1289 C1285 0.930 . S
H1290 C1287 0.929 . S
S1291 N1292 1.613 . S
S1291 N1293 1.610 . S
N1292 S1291 1.613 . S
N1292 C1295 1.350 . S
N1293 S1291 1.610 . S
N1293 C1294 1.351 . S
C1294 C1288 1.428 1_554 S
C1294 N1293 1.351 . S
C1294 C1295 1.434 . S
C1295 C1286 1.429 . S
C1295 N1292 1.350 . S
C1295 C1294 1.434 . S
C505 C152 1.258 . S
C507 C5 1.202 . S
C516 C166 1.342 . S
C518 C19 1.309 . S
C527 C33 1.237 . S
C529 C138 1.270 . S
C538 C47 1.211 . S
C540 C124 1.286 . S
C549 C61 1.243 . S
C551 C96 1.294 . S
C560 C110 1.263 . S
C562 C75 1.188 . S
C571 C68 1.264 . S
C573 C89 1.203 . S
C582 C82 1.336 . S
C584 C103 1.317 . S
C593 C117 1.235 . S
C595 C54 1.274 . S
C604 C40 1.285 . S
C606 C131 1.211 . S
C615 C145 1.255 . S
C617 C12 1.289 . S
C626 C159 1.191 . S
C628 C26 1.266 . S
C637 C320 1.437 . S
C639 C173 1.442 . S
C648 C334 1.284 . S
C650 C187 1.231 . S
C659 C201 1.218 . S
C661 C306 1.271 . S
C670 C215 1.354 . S
C672 C292 1.356 1_556 S
C681 C229 1.231 . S
C683 C264 1.267 1_556 S
C692 C243 1.287 . S
C694 C278 1.315 1_556 S
C703 C236 1.255 . S
C705 C257 1.215 . S
C714 C250 1.270 . S
C716 C271 1.185 . S
C725 C222 1.266 . S
C727 C285 1.159 . S
C736 C208 1.273 . S
C738 C299 1.212 . S
C747 C180 1.263 . S
C749 C313 1.161 . S
C758 C194 1.260 . S
C760 C327 1.216 . S
C769 C341 1.215 . S
C771 C488 1.264 . S
C780 C502 1.260 . S
C782 C355 1.194 . S
C791 C474 1.266 . S
C793 C369 1.163 . S
C802 C383 1.225 . S
C804 C460 1.265 . S
C813 C397 1.162 . S
C815 C432 1.264 . S
C824 C411 1.216 . S
C826 C446 1.263 . S
C835 C404 1.436 . S
C837 C425 1.443 . S
C846 C418 1.277 . S
C848 C439 1.239 . S
C857 C390 1.273 . S
C859 C453 1.217 . S
C868 C467 1.351 . S
C870 C376 1.359 1_554 S
C879 C348 1.266 1_554 S
C881 C481 1.229 . S
C890 C495 1.293 . S
C892 C362 1.319 1_554 S
C901 C53 1.371 . S
C903 C11 1.377 . S
C912 C67 1.332 . S
C914 C25 1.326 . S
C923 C39 1.442 . S
C925 C81 1.450 . S
C934 C137 1.371 . S
C936 C95 1.377 . S
C945 C151 1.323 . S
C947 C109 1.332 . S
C956 C165 1.458 . S
C958 C123 1.433 . S
C967 C221 1.417 . S
C969 C179 1.400 . S
C978 C235 1.320 . S
C980 C193 1.329 . S
C989 C207 1.350 . S
C991 C249 1.341 . S
C1000 C263 1.330 . S
C1002 C305 1.333 . S
C1011 C319 1.675 . S
C1013 C277 1.795 . S
C1022 C291 1.333 . S
C1024 C333 1.337 . S
C1033 C389 1.339 . S
C1035 C347 1.327 . S
C1044 C403 1.672 . S
C1046 C361 1.797 . S
C1055 C375 1.336 . S
C1057 C417 1.334 . S
C1066 C431 1.397 . S
C1068 C473 1.417 . S
C1077 C445 1.329 . S
C1079 C487 1.323 . S
C1088 C459 1.348 . S
C1090 C501 1.343 . S
C1099 C4 1.540 . S
C1101 C256 1.512 . S
C1110 C270 1.495 . S
C1112 C18 1.467 . S
C1121 C284 1.639 . S
C1123 C32 1.580 . S
C1132 C466 1.418 . S
C1134 C46 1.407 . S
C1143 C480 1.440 . S
C1145 C60 1.438 . S
C1154 C494 1.527 . S
C1156 C74 1.548 . S
C1165 C88 1.539 . S
C1167 C340 1.511 . S
C1176 C354 1.497 . S
C1178 C102 1.466 . S
C1187 C368 1.636 . S
C1189 C116 1.583 . S
C1198 C130 1.411 . S
C1200 C214 1.418 . S
C1209 C144 1.444 . S
C1211 C228 1.434 . S
C1220 C158 1.550 . S
C1222 C242 1.524 . S
C1231 C424 0.868 . S
C1233 C172 0.859 . S
C1242 C438 1.433 . S
C1244 C186 1.433 . S
C1253 C200 1.510 . S
C1255 C452 1.502 . S
C1264 C298 1.489 . S
C1266 C382 1.498 . S
C1275 C312 2.422 . S
C1277 C396 2.428 . S
C1286 C326 1.481 . S
C1288 C410 1.483 . S
