# Generated by pormake.
# Topology uoc, (4)-cn, num edge types: 1
# Building blocks:
#     Node 0, Type 0, BuildingBlock: GALJAG_clean_sbu_0, # of connection points: 4
#     Node 1, Type 0, BuildingBlock: GALJAG_clean_sbu_0, # of connection points: 4
#     Node 2, Type 0, BuildingBlock: GALJAG_clean_sbu_0, # of connection points: 4
#     Node 3, Type 0, BuildingBlock: GALJAG_clean_sbu_0, # of connection points: 4
#     Node 4, Type 0, BuildingBlock: GALJAG_clean_sbu_0, # of connection points: 4
#     Node 5, Type 0, BuildingBlock: GALJAG_clean_sbu_0, # of connection points: 4
#     Node 6, Type 0, BuildingBlock: GALJAG_clean_sbu_0, # of connection points: 4
#     Node 7, Type 0, BuildingBlock: GALJAG_clean_sbu_0, # of connection points: 4
#     Edge 8, Type (0, 0), BuildingBlock: AJUNOK_clean_linker_0, # of connection points: 2
#     Edge 9, Type (0, 0), BuildingBlock: AJUNOK_clean_linker_0, # of connection points: 2
#     Edge 10, Type (0, 0), BuildingBlock: AJUNOK_clean_linker_0, # of connection points: 2
#     Edge 11, Type (0, 0), BuildingBlock: AJUNOK_clean_linker_0, # of connection points: 2
#     Edge 12, Type (0, 0), BuildingBlock: AJUNOK_clean_linker_0, # of connection points: 2
#     Edge 13, Type (0, 0), BuildingBlock: AJUNOK_clean_linker_0, # of connection points: 2
#     Edge 14, Type (0, 0), BuildingBlock: AJUNOK_clean_linker_0, # of connection points: 2
#     Edge 15, Type (0, 0), BuildingBlock: AJUNOK_clean_linker_0, # of connection points: 2
#     Edge 16, Type (0, 0), BuildingBlock: AJUNOK_clean_linker_0, # of connection points: 2
#     Edge 17, Type (0, 0), BuildingBlock: AJUNOK_clean_linker_0, # of connection points: 2
#     Edge 18, Type (0, 0), BuildingBlock: AJUNOK_clean_linker_0, # of connection points: 2
#     Edge 19, Type (0, 0), BuildingBlock: AJUNOK_clean_linker_0, # of connection points: 2
#     Edge 20, Type (0, 0), BuildingBlock: AJUNOK_clean_linker_0, # of connection points: 2
#     Edge 21, Type (0, 0), BuildingBlock: AJUNOK_clean_linker_0, # of connection points: 2
#     Edge 22, Type (0, 0), BuildingBlock: AJUNOK_clean_linker_0, # of connection points: 2
#     Edge 23, Type (0, 0), BuildingBlock: AJUNOK_clean_linker_0, # of connection points: 2
# Relax obj value: 0.017
# Max RMSD: 0.050
# Mean RMSD: 0.050
data_MOF--net-uoc--node1-GALJAG_clean_sbu_0--edge1-AJUNOK_clean_linker_0
_symmetry_space_group_name_H-M    P1
_symmetry_Int_Tables_number       1
_symmetry_cell_setting            triclinic
loop_
_symmetry_equiv_pos_as_xyz
'x, y, z'
_cell_length_a     20.54284
_cell_length_b     20.532393
_cell_length_c     40.873372
_cell_angle_alpha  90.087503
_cell_angle_beta   89.886912
_cell_angle_gamma 90.408135
loop_
_atom_site_label
_atom_site_type_symbol
_atom_site_fract_x
_atom_site_fract_y
_atom_site_fract_z
_atom_type_partial_charge
In0 In 0.10911 0.24998 0.12589 0.0
O1 O 0.01951 0.31565 0.12845 0.0
O2 O 0.11174 0.36013 0.12044 0.0
C3 C 0.06016 0.12811 0.12953 0.0
C4 C 0.16822 0.25903 0.1844 0.0
C5 C 0.15245 0.23734 0.06422 0.0
O6 O 0.02424 0.17802 0.12951 0.0
O7 O 0.12052 0.14018 0.12842 0.0
O8 O 0.19138 0.24643 0.08778 0.0
O9 O 0.09299 0.2363 0.07191 0.0
C10 C 0.05134 0.36785 0.12407 0.0
O11 O 0.19889 0.26782 0.15788 0.0
O12 O 0.10883 0.24464 0.18112 0.0
In13 In 0.7532 0.61159 0.37302 0.0
O14 O 0.77421 0.6963 0.33831 0.0
O15 O 0.74333 0.60575 0.31793 0.0
C16 C 0.74032 0.66925 0.43162 0.0
C17 C 0.87343 0.55942 0.37465 0.0
C18 C 0.63299 0.55757 0.37302 0.0
O19 O 0.72762 0.69827 0.40519 0.0
O20 O 0.76175 0.6122 0.42847 0.0
O21 O 0.68382 0.52303 0.37446 0.0
O22 O 0.64368 0.61795 0.37117 0.0
C23 C 0.76068 0.66391 0.31285 0.0
O24 O 0.82245 0.52435 0.37352 0.0
O25 O 0.86306 0.6199 0.3753 0.0
In26 In 0.38905 0.25451 0.62348 0.0
O27 O 0.4777 0.18903 0.61963 0.0
O28 O 0.38373 0.14431 0.61944 0.0
C29 C 0.44036 0.37578 0.6269 0.0
C30 C 0.34545 0.23723 0.6848 0.0
C31 C 0.33113 0.26174 0.56467 0.0
O32 O 0.47509 0.32609 0.62207 0.0
O33 O 0.38047 0.3638 0.63016 0.0
O34 O 0.29933 0.26779 0.59103 0.0
O35 O 0.39102 0.25093 0.56824 0.0
C36 C 0.44474 0.13672 0.6186 0.0
O37 O 0.30649 0.24523 0.66122 0.0
O38 O 0.40498 0.2391 0.67731 0.0
In39 In 0.74894 0.88972 0.87299 0.0
O40 O 0.72625 0.80518 0.83812 0.0
O41 O 0.75724 0.8956 0.81782 0.0
C42 C 0.7605 0.83287 0.93202 0.0
C43 C 0.63052 0.94543 0.87748 0.0
C44 C 0.86793 0.94593 0.86988 0.0
O45 O 0.77065 0.80214 0.90569 0.0
O46 O 0.74348 0.89126 0.92834 0.0
O47 O 0.81611 0.97891 0.8699 0.0
O48 O 0.85926 0.88515 0.87167 0.0
C49 C 0.73941 0.83765 0.81266 0.0
O50 O 0.68277 0.97843 0.87798 0.0
O51 O 0.63843 0.88483 0.87445 0.0
In52 In 0.6074 0.75594 0.62253 0.0
O53 O 0.521 0.82596 0.62233 0.0
O54 O 0.61651 0.86573 0.6187 0.0
C55 C 0.55128 0.63751 0.62668 0.0
C56 C 0.66453 0.76512 0.68154 0.0
C57 C 0.65391 0.74179 0.56136 0.0
O58 O 0.51841 0.68943 0.62691 0.0
O59 O 0.61212 0.64585 0.62464 0.0
O60 O 0.69059 0.73871 0.58616 0.0
O61 O 0.595 0.75314 0.56774 0.0
C62 C 0.55621 0.87654 0.61989 0.0
O63 O 0.6959 0.7745 0.65528 0.0
O64 O 0.60544 0.74998 0.67778 0.0
In65 In 0.25045 0.10647 0.87475 0.0
O66 O 0.25158 0.19151 0.83825 0.0
O67 O 0.27752 0.09638 0.82178 0.0
C68 C 0.23052 0.15623 0.93454 0.0
C69 C 0.36956 0.05463 0.88269 0.0
C70 C 0.1305 0.05506 0.86671 0.0
O71 O 0.25032 0.19182 0.91122 0.0
O72 O 0.22253 0.09687 0.92762 0.0
O73 O 0.1798 0.02 0.87215 0.0
O74 O 0.14264 0.11521 0.86429 0.0
C75 C 0.27024 0.15565 0.81485 0.0
O76 O 0.31961 0.01978 0.87723 0.0
O77 O 0.3585 0.11483 0.88521 0.0
In78 In 0.88879 0.74884 0.12259 0.0
O79 O 0.80116 0.72914 0.15572 0.0
O80 O 0.89086 0.75705 0.17783 0.0
C81 C 0.83559 0.7576 0.06257 0.0
C82 C 0.94004 0.62821 0.12246 0.0
C83 C 0.94777 0.86666 0.12533 0.0
O84 O 0.8044 0.77219 0.08821 0.0
O85 O 0.8929 0.73833 0.06738 0.0
O86 O 0.97967 0.81421 0.12389 0.0
O87 O 0.88676 0.85913 0.12528 0.0
C88 C 0.83227 0.74011 0.18183 0.0
O89 O 0.97537 0.67899 0.12192 0.0
O90 O 0.87967 0.63887 0.12273 0.0
In91 In 0.25167 0.38956 0.37433 0.0
O92 O 0.22995 0.30338 0.34041 0.0
O93 O 0.26502 0.39145 0.31924 0.0
C94 C 0.25621 0.33447 0.43407 0.0
C95 C 0.13367 0.44708 0.37417 0.0
C96 C 0.37094 0.44607 0.37447 0.0
O97 O 0.27163 0.30371 0.40843 0.0
O98 O 0.238 0.39217 0.42938 0.0
O99 O 0.319 0.47884 0.37448 0.0
O100 O 0.36233 0.38517 0.37438 0.0
C101 C 0.24575 0.33374 0.31468 0.0
O102 O 0.1863 0.47947 0.37427 0.0
O103 O 0.14098 0.38612 0.37408 0.0
C104 C 0.13602 0.17612 0.01277 0.0
C105 C 0.17364 0.22086 0.03079 0.0
C106 C 0.15515 0.15614 0.98159 0.0
C107 C 0.21162 0.18151 0.96683 0.0
H108 H 0.09219 0.15493 0.02319 0.0
H109 H 0.12529 0.12054 0.96885 0.0
S110 S 0.32568 0.30197 0.00303 0.0
N111 N 0.26967 0.29071 0.03161 0.0
N112 N 0.30434 0.25489 0.97194 0.0
C113 C 0.24891 0.22766 0.98406 0.0
C114 C 0.23032 0.24678 0.0164 0.0
C115 C 0.81672 0.73917 0.274 0.0
C116 C 0.77047 0.68963 0.2795 0.0
C117 C 0.83436 0.75733 0.24215 0.0
C118 C 0.80533 0.72758 0.21474 0.0
H119 H 0.84198 0.76173 0.29437 0.0
H120 H 0.87245 0.79356 0.23898 0.0
S121 S 0.67637 0.6003 0.21613 0.0
N122 N 0.69242 0.61449 0.25507 0.0
N123 N 0.72454 0.64972 0.19518 0.0
C124 C 0.75606 0.68092 0.21993 0.0
C125 C 0.73894 0.66158 0.25235 0.0
C126 C 0.33328 0.24449 0.5044 0.0
C127 C 0.30301 0.27232 0.53193 0.0
C128 C 0.31469 0.26161 0.47262 0.0
C129 C 0.2662 0.3083 0.46729 0.0
H130 H 0.37314 0.21077 0.50743 0.0
H131 H 0.34107 0.24088 0.45217 0.0
S132 S 0.16818 0.39134 0.53104 0.0
N133 N 0.21865 0.34483 0.55181 0.0
N134 N 0.18475 0.37838 0.49202 0.0
C135 C 0.23337 0.33414 0.49456 0.0
C136 C 0.25146 0.31572 0.52693 0.0
C137 C 0.68091 0.76446 0.77369 0.0
C138 C 0.72868 0.81249 0.77923 0.0
C139 C 0.66242 0.74736 0.74181 0.0
C140 C 0.69207 0.77662 0.71441 0.0
H141 H 0.65517 0.74241 0.79406 0.0
H142 H 0.62324 0.71233 0.73863 0.0
S143 S 0.82488 0.89982 0.71589 0.0
N144 N 0.80874 0.88559 0.75484 0.0
N145 N 0.77503 0.85221 0.6949 0.0
C146 C 0.74278 0.82166 0.71962 0.0
C147 C 0.76077 0.83998 0.75208 0.0
C148 C 0.18594 0.26025 0.27644 0.0
C149 C 0.23501 0.30715 0.28153 0.0
C150 C 0.16674 0.24267 0.24475 0.0
C151 C 0.19685 0.27034 0.21706 0.0
H152 H 0.15962 0.23965 0.29701 0.0
H153 H 0.12652 0.20871 0.24194 0.0
S154 S 0.33345 0.38937 0.21735 0.0
N155 N 0.31713 0.37693 0.25643 0.0
N156 N 0.28202 0.34264 0.19681 0.0
C157 C 0.24903 0.31389 0.22183 0.0
C158 C 0.26781 0.3327 0.25411 0.0
C159 C 0.74195 0.71123 0.52177 0.0
C160 C 0.67685 0.7291 0.52757 0.0
C161 C 0.76314 0.69353 0.49034 0.0
C162 C 0.72033 0.69477 0.46363 0.0
H163 H 0.77637 0.70911 0.54178 0.0
H164 H 0.81302 0.67805 0.48695 0.0
S165 S 0.54506 0.73544 0.46545 0.0
N166 N 0.56952 0.74517 0.50361 0.0
N167 N 0.61028 0.71344 0.44467 0.0
C168 C 0.65571 0.71358 0.46883 0.0
C169 C 0.63372 0.73045 0.50079 0.0
C170 C 0.362 0.17487 0.73569 0.0
C171 C 0.3245 0.2197 0.71811 0.0
C172 C 0.34368 0.15493 0.76703 0.0
C173 C 0.28822 0.18054 0.78234 0.0
H174 H 0.40524 0.15378 0.72486 0.0
H175 H 0.37345 0.11936 0.77946 0.0
S176 S 0.17472 0.30104 0.74728 0.0
N177 N 0.22954 0.28964 0.71819 0.0
N178 N 0.1964 0.25396 0.77812 0.0
C179 C 0.25096 0.22659 0.76547 0.0
C180 C 0.26866 0.24563 0.733 0.0
C181 C 0.76282 0.81676 0.0242 0.0
C182 C 0.80994 0.76861 0.02933 0.0
C183 C 0.74512 0.83536 0.9925 0.0
C184 C 0.77292 0.80555 0.96482 0.0
H185 H 0.74186 0.84264 0.04476 0.0
H186 H 0.71074 0.87472 0.98966 0.0
S187 S 0.89309 0.67161 0.96522 0.0
N188 N 0.88046 0.68793 0.00429 0.0
N189 N 0.84604 0.7219 0.94466 0.0
C190 C 0.81705 0.7545 0.96964 0.0
C191 C 0.83593 0.73634 0.00194 0.0
C192 C 0.96566 0.05064 0.13039 0.0
C193 C 0.0334 0.06074 0.12952 0.0
C194 C 0.93876 0.98777 0.12917 0.0
C195 C 0.97845 0.93226 0.12701 0.0
H196 H 0.93288 0.09166 0.1318 0.0
H197 H 0.88625 0.98282 0.12978 0.0
S198 S 0.15902 0.9318 0.1243 0.0
N199 N 0.13986 0.00962 0.12664 0.0
N200 N 0.08918 0.89153 0.12436 0.0
C201 C 0.04633 0.94151 0.12638 0.0
C202 C 0.07382 0.00566 0.12763 0.0
C203 C 0.01204 0.43754 0.37387 0.0
C204 C 0.06819 0.47735 0.37435 0.0
C205 C 0.9494 0.46437 0.37407 0.0
C206 C 0.94028 0.53218 0.3748 0.0
H207 H 0.01634 0.38497 0.37329 0.0
H208 H 0.90788 0.43162 0.37361 0.0
S209 S 0.0712 0.65807 0.37633 0.0
N210 N 0.11045 0.58822 0.37563 0.0
N211 N 0.99307 0.63875 0.37603 0.0
C212 C 0.99603 0.57263 0.37533 0.0
C213 C 0.05983 0.54526 0.3751 0.0
C214 C 0.53459 0.45335 0.62396 0.0
C215 C 0.46732 0.44292 0.62796 0.0
C216 C 0.56113 0.51641 0.62397 0.0
C217 C 0.52156 0.57157 0.62787 0.0
H218 H 0.56703 0.41261 0.62057 0.0
H219 H 0.61326 0.52181 0.62052 0.0
S220 S 0.34253 0.57083 0.64021 0.0
N221 N 0.36167 0.4932 0.6367 0.0
N222 N 0.41173 0.61155 0.63659 0.0
C223 C 0.45427 0.56189 0.63227 0.0
C224 C 0.4272 0.49761 0.63235 0.0
C225 C 0.50913 0.93472 0.877 0.0
C226 C 0.56483 0.97465 0.88013 0.0
C227 C 0.44628 0.96075 0.87862 0.0
C228 C 0.43646 0.02777 0.88352 0.0
H229 H 0.51397 0.88287 0.87287 0.0
H230 H 0.40511 0.92807 0.87552 0.0
S231 S 0.56597 0.15315 0.89458 0.0
N232 N 0.60597 0.08447 0.88934 0.0
N233 N 0.48804 0.13345 0.89249 0.0
C234 C 0.49173 0.06816 0.88734 0.0
C235 C 0.55579 0.04161 0.88559 0.0
C236 C 0.0343 0.55178 0.11944 0.0
C237 C 0.96692 0.56132 0.12283 0.0
C238 C 0.06087 0.48906 0.11974 0.0
C239 C 0.02122 0.43332 0.12355 0.0
H240 H 0.0669 0.59303 0.11647 0.0
H241 H 0.11312 0.4844 0.11704 0.0
S242 S 0.84166 0.43164 0.13375 0.0
N243 N 0.86094 0.50951 0.13033 0.0
N244 N 0.91101 0.39188 0.13096 0.0
C245 C 0.95374 0.44211 0.12702 0.0
C246 C 0.92661 0.506 0.12664 0.0
C247 C 0.49243 0.43587 0.37352 0.0
C248 C 0.43701 0.47594 0.37432 0.0
C249 C 0.55557 0.46249 0.37318 0.0
C250 C 0.56585 0.53024 0.37357 0.0
H251 H 0.48715 0.38337 0.3731 0.0
H252 H 0.59658 0.42962 0.37248 0.0
S253 S 0.43724 0.65666 0.37641 0.0
N254 N 0.39675 0.58696 0.37597 0.0
N255 N 0.51497 0.63702 0.37535 0.0
C256 C 0.51082 0.57092 0.37455 0.0
C257 C 0.44658 0.54378 0.37492 0.0
C258 C 0.43478 0.01519 0.61799 0.0
C259 C 0.4747 0.0712 0.61776 0.0
C260 C 0.46144 0.95252 0.6185 0.0
C261 C 0.52924 0.94334 0.61876 0.0
H262 H 0.38218 0.01961 0.61806 0.0
H263 H 0.42866 0.91107 0.61885 0.0
S264 S 0.65542 0.0739 0.61795 0.0
N265 N 0.58568 0.1133 0.61752 0.0
N266 N 0.63592 0.99579 0.61843 0.0
C267 C 0.56981 0.99892 0.61822 0.0
C268 C 0.54262 0.06276 0.61774 0.0
C269 C 0.9891 0.93508 0.87008 0.0
C270 C 0.93402 0.97531 0.86794 0.0
C271 C 0.05234 0.96111 0.869 0.0
C272 C 0.06316 0.02845 0.8656 0.0
H273 H 0.98348 0.8829 0.87298 0.0
H274 H 0.09301 0.92813 0.87122 0.0
S275 S 0.93558 0.15492 0.85792 0.0
N276 N 0.89453 0.0859 0.86152 0.0
N277 N 0.0132 0.13493 0.85936 0.0
C278 C 0.00852 0.06923 0.86287 0.0
C279 C 0.94406 0.04268 0.8641 0.0
loop_
_geom_bond_atom_site_label_1
_geom_bond_atom_site_label_2
_geom_bond_distance
_geom_bond_site_symmetry_2
_ccdc_geom_bond_type
In0 O1 2.294 . S
In0 O2 2.326 . S
In0 O6 2.266 . S
In0 O7 2.326 . S
In0 O8 2.266 . S
In0 O9 2.326 . S
In0 O11 2.294 . S
In0 O12 2.326 . S
O1 In0 2.294 . S
O1 C10 1.240 . S
O2 In0 2.326 . S
O2 C10 1.252 . S
C3 O6 1.252 . S
C3 O7 1.260 . S
C4 O11 1.240 . S
C4 O12 1.252 . S
C5 O8 1.252 . S
C5 O9 1.260 . S
O6 In0 2.266 . S
O6 C3 1.252 . S
O7 In0 2.326 . S
O7 C3 1.260 . S
O8 In0 2.266 . S
O8 C5 1.252 . S
O9 In0 2.326 . S
O9 C5 1.260 . S
C10 O1 1.240 . S
C10 O2 1.252 . S
O11 In0 2.294 . S
O11 C4 1.240 . S
O12 In0 2.326 . S
O12 C4 1.252 . S
In13 O14 2.294 . S
In13 O15 2.326 . S
In13 O19 2.266 . S
In13 O20 2.326 . S
In13 O21 2.266 . S
In13 O22 2.326 . S
In13 O24 2.294 . S
In13 O25 2.326 . S
O14 In13 2.294 . S
O14 C23 1.240 . S
O15 In13 2.326 . S
O15 C23 1.252 . S
C16 O19 1.252 . S
C16 O20 1.260 . S
C17 O24 1.240 . S
C17 O25 1.252 . S
C18 O21 1.252 . S
C18 O22 1.260 . S
O19 In13 2.266 . S
O19 C16 1.252 . S
O20 In13 2.326 . S
O20 C16 1.260 . S
O21 In13 2.266 . S
O21 C18 1.252 . S
O22 In13 2.326 . S
O22 C18 1.260 . S
C23 O14 1.240 . S
C23 O15 1.252 . S
O24 In13 2.294 . S
O24 C17 1.240 . S
O25 In13 2.326 . S
O25 C17 1.252 . S
In26 O27 2.294 . S
In26 O28 2.326 . S
In26 O32 2.266 . S
In26 O33 2.326 . S
In26 O34 2.266 . S
In26 O35 2.326 . S
In26 O37 2.294 . S
In26 O38 2.326 . S
O27 In26 2.294 . S
O27 C36 1.240 . S
O28 In26 2.326 . S
O28 C36 1.252 . S
C29 O32 1.252 . S
C29 O33 1.260 . S
C30 O37 1.240 . S
C30 O38 1.252 . S
C31 O34 1.252 . S
C31 O35 1.260 . S
O32 In26 2.266 . S
O32 C29 1.252 . S
O33 In26 2.326 . S
O33 C29 1.260 . S
O34 In26 2.266 . S
O34 C31 1.252 . S
O35 In26 2.326 . S
O35 C31 1.260 . S
C36 O27 1.240 . S
C36 O28 1.252 . S
O37 In26 2.294 . S
O37 C30 1.240 . S
O38 In26 2.326 . S
O38 C30 1.252 . S
In39 O40 2.294 . S
In39 O41 2.326 . S
In39 O45 2.266 . S
In39 O46 2.326 . S
In39 O47 2.266 . S
In39 O48 2.326 . S
In39 O50 2.294 . S
In39 O51 2.326 . S
O40 In39 2.294 . S
O40 C49 1.240 . S
O41 In39 2.326 . S
O41 C49 1.252 . S
C42 O45 1.252 . S
C42 O46 1.260 . S
C43 O50 1.240 . S
C43 O51 1.252 . S
C44 O47 1.252 . S
C44 O48 1.260 . S
O45 In39 2.266 . S
O45 C42 1.252 . S
O46 In39 2.326 . S
O46 C42 1.260 . S
O47 In39 2.266 . S
O47 C44 1.252 . S
O48 In39 2.326 . S
O48 C44 1.260 . S
C49 O40 1.240 . S
C49 O41 1.252 . S
O50 In39 2.294 . S
O50 C43 1.240 . S
O51 In39 2.326 . S
O51 C43 1.252 . S
In52 O53 2.294 . S
In52 O54 2.326 . S
In52 O58 2.266 . S
In52 O59 2.326 . S
In52 O60 2.266 . S
In52 O61 2.326 . S
In52 O63 2.294 . S
In52 O64 2.326 . S
O53 In52 2.294 . S
O53 C62 1.240 . S
O54 In52 2.326 . S
O54 C62 1.252 . S
C55 O58 1.252 . S
C55 O59 1.260 . S
C56 O63 1.240 . S
C56 O64 1.252 . S
C57 O60 1.252 . S
C57 O61 1.260 . S
O58 In52 2.266 . S
O58 C55 1.252 . S
O59 In52 2.326 . S
O59 C55 1.260 . S
O60 In52 2.266 . S
O60 C57 1.252 . S
O61 In52 2.326 . S
O61 C57 1.260 . S
C62 O53 1.240 . S
C62 O54 1.252 . S
O63 In52 2.294 . S
O63 C56 1.240 . S
O64 In52 2.326 . S
O64 C56 1.252 . S
In65 O66 2.294 . S
In65 O67 2.326 . S
In65 O71 2.266 . S
In65 O72 2.326 . S
In65 O73 2.266 . S
In65 O74 2.326 . S
In65 O76 2.294 . S
In65 O77 2.326 . S
O66 In65 2.294 . S
O66 C75 1.240 . S
O67 In65 2.326 . S
O67 C75 1.252 . S
C68 O71 1.252 . S
C68 O72 1.260 . S
C69 O76 1.240 . S
C69 O77 1.252 . S
C70 O73 1.252 . S
C70 O74 1.260 . S
O71 In65 2.266 . S
O71 C68 1.252 . S
O72 In65 2.326 . S
O72 C68 1.260 . S
O73 In65 2.266 . S
O73 C70 1.252 . S
O74 In65 2.326 . S
O74 C70 1.260 . S
C75 O66 1.240 . S
C75 O67 1.252 . S
O76 In65 2.294 . S
O76 C69 1.240 . S
O77 In65 2.326 . S
O77 C69 1.252 . S
In78 O79 2.294 . S
In78 O80 2.326 . S
In78 O84 2.266 . S
In78 O85 2.326 . S
In78 O86 2.266 . S
In78 O87 2.326 . S
In78 O89 2.294 . S
In78 O90 2.326 . S
O79 In78 2.294 . S
O79 C88 1.240 . S
O80 In78 2.326 . S
O80 C88 1.252 . S
C81 O84 1.252 . S
C81 O85 1.260 . S
C82 O89 1.240 . S
C82 O90 1.252 . S
C83 O86 1.252 . S
C83 O87 1.260 . S
O84 In78 2.266 . S
O84 C81 1.252 . S
O85 In78 2.326 . S
O85 C81 1.260 . S
O86 In78 2.266 . S
O86 C83 1.252 . S
O87 In78 2.326 . S
O87 C83 1.260 . S
C88 O79 1.240 . S
C88 O80 1.252 . S
O89 In78 2.294 . S
O89 C82 1.240 . S
O90 In78 2.326 . S
O90 C82 1.252 . S
In91 O92 2.294 . S
In91 O93 2.326 . S
In91 O97 2.266 . S
In91 O98 2.326 . S
In91 O99 2.266 . S
In91 O100 2.326 . S
In91 O102 2.294 . S
In91 O103 2.326 . S
O92 In91 2.294 . S
O92 C101 1.240 . S
O93 In91 2.326 . S
O93 C101 1.252 . S
C94 O97 1.252 . S
C94 O98 1.260 . S
C95 O102 1.240 . S
C95 O103 1.252 . S
C96 O99 1.252 . S
C96 O100 1.260 . S
O97 In91 2.266 . S
O97 C94 1.252 . S
O98 In91 2.326 . S
O98 C94 1.260 . S
O99 In91 2.266 . S
O99 C96 1.252 . S
O100 In91 2.326 . S
O100 C96 1.260 . S
C101 O92 1.240 . S
C101 O93 1.252 . S
O102 In91 2.294 . S
O102 C95 1.240 . S
O103 In91 2.326 . S
O103 C95 1.252 . S
C104 C105 1.369 . S
C104 C106 1.419 1_554 S
C104 H108 0.930 . S
C105 C104 1.369 . S
C105 C114 1.429 . S
C106 C104 1.419 1_556 S
C106 C107 1.363 . S
C106 H109 0.929 . S
C107 C106 1.363 . S
C107 C113 1.428 . S
H108 C104 0.930 . S
H109 C106 0.929 . S
S110 N111 1.613 1_556 S
S110 N112 1.610 . S
N111 S110 1.613 1_554 S
N111 C114 1.350 . S
N112 S110 1.610 . S
N112 C113 1.351 . S
C113 C107 1.428 . S
C113 N112 1.351 . S
C113 C114 1.434 1_556 S
C114 C105 1.429 . S
C114 N111 1.350 . S
C114 C113 1.434 1_554 S
C115 C116 1.369 . S
C115 C117 1.419 . S
C115 H119 0.930 . S
C116 C115 1.369 . S
C116 C125 1.429 . S
C117 C115 1.419 . S
C117 C118 1.363 . S
C117 H120 0.929 . S
C118 C117 1.363 . S
C118 C124 1.428 . S
H119 C115 0.930 . S
H120 C117 0.929 . S
S121 N122 1.613 . S
S121 N123 1.610 . S
N122 S121 1.613 . S
N122 C125 1.350 . S
N123 S121 1.610 . S
N123 C124 1.351 . S
C124 C118 1.428 . S
C124 N123 1.351 . S
C124 C125 1.434 . S
C125 C116 1.429 . S
C125 N122 1.350 . S
C125 C124 1.434 . S
C126 C127 1.369 . S
C126 C128 1.419 . S
C126 H130 0.930 . S
C127 C126 1.369 . S
C127 C136 1.429 . S
C128 C126 1.419 . S
C128 C129 1.363 . S
C128 H131 0.929 . S
C129 C128 1.363 . S
C129 C135 1.428 . S
H130 C126 0.930 . S
H131 C128 0.929 . S
S132 N133 1.613 . S
S132 N134 1.610 . S
N133 S132 1.613 . S
N133 C136 1.350 . S
N134 S132 1.610 . S
N134 C135 1.351 . S
C135 C129 1.428 . S
C135 N134 1.351 . S
C135 C136 1.434 . S
C136 C127 1.429 . S
C136 N133 1.350 . S
C136 C135 1.434 . S
C137 C138 1.369 . S
C137 C139 1.419 . S
C137 H141 0.930 . S
C138 C137 1.369 . S
C138 C147 1.429 . S
C139 C137 1.419 . S
C139 C140 1.363 . S
C139 H142 0.929 . S
C140 C139 1.363 . S
C140 C146 1.428 . S
H141 C137 0.930 . S
H142 C139 0.929 . S
S143 N144 1.613 . S
S143 N145 1.610 . S
N144 S143 1.613 . S
N144 C147 1.350 . S
N145 S143 1.610 . S
N145 C146 1.351 . S
C146 C140 1.428 . S
C146 N145 1.351 . S
C146 C147 1.434 . S
C147 C138 1.429 . S
C147 N144 1.350 . S
C147 C146 1.434 . S
C148 C149 1.369 . S
C148 C150 1.419 . S
C148 H152 0.930 . S
C149 C148 1.369 . S
C149 C158 1.429 . S
C150 C148 1.419 . S
C150 C151 1.363 . S
C150 H153 0.929 . S
C151 C150 1.363 . S
C151 C157 1.428 . S
H152 C148 0.930 . S
H153 C150 0.929 . S
S154 N155 1.613 . S
S154 N156 1.610 . S
N155 S154 1.613 . S
N155 C158 1.350 . S
N156 S154 1.610 . S
N156 C157 1.351 . S
C157 C151 1.428 . S
C157 N156 1.351 . S
C157 C158 1.434 . S
C158 C149 1.429 . S
C158 N155 1.350 . S
C158 C157 1.434 . S
C159 C160 1.369 . S
C159 C161 1.419 . S
C159 H163 0.930 . S
C160 C159 1.369 . S
C160 C169 1.429 . S
C161 C159 1.419 . S
C161 C162 1.363 . S
C161 H164 0.929 . S
C162 C161 1.363 . S
C162 C168 1.428 . S
H163 C159 0.930 . S
H164 C161 0.929 . S
S165 N166 1.613 . S
S165 N167 1.610 . S
N166 S165 1.613 . S
N166 C169 1.350 . S
N167 S165 1.610 . S
N167 C168 1.351 . S
C168 C162 1.428 . S
C168 N167 1.351 . S
C168 C169 1.434 . S
C169 C160 1.429 . S
C169 N166 1.350 . S
C169 C168 1.434 . S
C170 C171 1.369 . S
C170 C172 1.419 . S
C170 H174 0.930 . S
C171 C170 1.369 . S
C171 C180 1.429 . S
C172 C170 1.419 . S
C172 C173 1.363 . S
C172 H175 0.929 . S
C173 C172 1.363 . S
C173 C179 1.428 . S
H174 C170 0.930 . S
H175 C172 0.929 . S
S176 N177 1.613 . S
S176 N178 1.610 . S
N177 S176 1.613 . S
N177 C180 1.350 . S
N178 S176 1.610 . S
N178 C179 1.351 . S
C179 C173 1.428 . S
C179 N178 1.351 . S
C179 C180 1.434 . S
C180 C171 1.429 . S
C180 N177 1.350 . S
C180 C179 1.434 . S
C181 C182 1.369 . S
C181 C183 1.419 1_554 S
C181 H185 0.930 . S
C182 C181 1.369 . S
C182 C191 1.429 . S
C183 C181 1.419 1_556 S
C183 C184 1.363 . S
C183 H186 0.929 . S
C184 C183 1.363 . S
C184 C190 1.428 . S
H185 C181 0.930 . S
H186 C183 0.929 . S
S187 N188 1.613 1_556 S
S187 N189 1.610 . S
N188 S187 1.613 1_554 S
N188 C191 1.350 . S
N189 S187 1.610 . S
N189 C190 1.351 . S
C190 C184 1.428 . S
C190 N189 1.351 . S
C190 C191 1.434 1_556 S
C191 C182 1.429 . S
C191 N188 1.350 . S
C191 C190 1.434 1_554 S
C192 C193 1.369 1_655 S
C192 C194 1.419 1_545 S
C192 H196 0.930 . S
C193 C192 1.369 1_455 S
C193 C202 1.429 . S
C194 C192 1.419 1_565 S
C194 C195 1.363 . S
C194 H197 0.929 . S
C195 C194 1.363 . S
C195 C201 1.428 1_655 S
H196 C192 0.930 . S
H197 C194 0.929 . S
S198 N199 1.613 1_565 S
S198 N200 1.610 . S
N199 S198 1.613 1_545 S
N199 C202 1.350 . S
N200 S198 1.610 . S
N200 C201 1.351 . S
C201 C195 1.428 1_455 S
C201 N200 1.351 . S
C201 C202 1.434 1_565 S
C202 C193 1.429 . S
C202 N199 1.350 . S
C202 C201 1.434 1_545 S
C203 C204 1.369 . S
C203 C205 1.419 1_455 S
C203 H207 0.930 . S
C204 C203 1.369 . S
C204 C213 1.429 . S
C205 C203 1.419 1_655 S
C205 C206 1.363 . S
C205 H208 0.929 . S
C206 C205 1.363 . S
C206 C212 1.428 . S
H207 C203 0.930 . S
H208 C205 0.929 . S
S209 N210 1.613 . S
S209 N211 1.610 1_455 S
N210 S209 1.613 . S
N210 C213 1.350 . S
N211 S209 1.610 1_655 S
N211 C212 1.351 . S
C212 C206 1.428 . S
C212 N211 1.351 . S
C212 C213 1.434 1_655 S
C213 C204 1.429 . S
C213 N210 1.350 . S
C213 C212 1.434 1_455 S
C214 C215 1.369 . S
C214 C216 1.419 . S
C214 H218 0.930 . S
C215 C214 1.369 . S
C215 C224 1.429 . S
C216 C214 1.419 . S
C216 C217 1.363 . S
C216 H219 0.929 . S
C217 C216 1.363 . S
C217 C223 1.428 . S
H218 C214 0.930 . S
H219 C216 0.929 . S
S220 N221 1.613 . S
S220 N222 1.610 . S
N221 S220 1.613 . S
N221 C224 1.350 . S
N222 S220 1.610 . S
N222 C223 1.351 . S
C223 C217 1.428 . S
C223 N222 1.351 . S
C223 C224 1.434 . S
C224 C215 1.429 . S
C224 N221 1.350 . S
C224 C223 1.434 . S
C225 C226 1.369 . S
C225 C227 1.419 . S
C225 H229 0.930 . S
C226 C225 1.369 . S
C226 C235 1.429 1_565 S
C227 C225 1.419 . S
C227 C228 1.363 1_565 S
C227 H230 0.929 . S
C228 C227 1.363 1_545 S
C228 C234 1.428 . S
H229 C225 0.930 . S
H230 C227 0.929 . S
S231 N232 1.613 . S
S231 N233 1.610 . S
N232 S231 1.613 . S
N232 C235 1.350 . S
N233 S231 1.610 . S
N233 C234 1.351 . S
C234 C228 1.428 . S
C234 N233 1.351 . S
C234 C235 1.434 . S
C235 C226 1.429 1_545 S
C235 N232 1.350 . S
C235 C234 1.434 . S
C236 C237 1.369 1_455 S
C236 C238 1.419 . S
C236 H240 0.930 . S
C237 C236 1.369 1_655 S
C237 C246 1.429 . S
C238 C236 1.419 . S
C238 C239 1.363 . S
C238 H241 0.929 . S
C239 C238 1.363 . S
C239 C245 1.428 1_455 S
H240 C236 0.930 . S
H241 C238 0.929 . S
S242 N243 1.613 . S
S242 N244 1.610 . S
N243 S242 1.613 . S
N243 C246 1.350 . S
N244 S242 1.610 . S
N244 C245 1.351 . S
C245 C239 1.428 1_655 S
C245 N244 1.351 . S
C245 C246 1.434 . S
C246 C237 1.429 . S
C246 N243 1.350 . S
C246 C245 1.434 . S
C247 C248 1.369 . S
C247 C249 1.419 . S
C247 H251 0.930 . S
C248 C247 1.369 . S
C248 C257 1.429 . S
C249 C247 1.419 . S
C249 C250 1.363 . S
C249 H252 0.929 . S
C250 C249 1.363 . S
C250 C256 1.428 . S
H251 C247 0.930 . S
H252 C249 0.929 . S
S253 N254 1.613 . S
S253 N255 1.610 . S
N254 S253 1.613 . S
N254 C257 1.350 . S
N255 S253 1.610 . S
N255 C256 1.351 . S
C256 C250 1.428 . S
C256 N255 1.351 . S
C256 C257 1.434 . S
C257 C248 1.429 . S
C257 N254 1.350 . S
C257 C256 1.434 . S
C258 C259 1.369 . S
C258 C260 1.419 1_545 S
C258 H262 0.930 . S
C259 C258 1.369 . S
C259 C268 1.429 . S
C260 C258 1.419 1_565 S
C260 C261 1.363 . S
C260 H263 0.929 . S
C261 C260 1.363 . S
C261 C267 1.428 . S
H262 C258 0.930 . S
H263 C260 0.929 . S
S264 N265 1.613 . S
S264 N266 1.610 1_545 S
N265 S264 1.613 . S
N265 C268 1.350 . S
N266 S264 1.610 1_565 S
N266 C267 1.351 . S
C267 C261 1.428 . S
C267 N266 1.351 . S
C267 C268 1.434 1_565 S
C268 C259 1.429 . S
C268 N265 1.350 . S
C268 C267 1.434 1_545 S
C269 C270 1.369 . S
C269 C271 1.419 1_655 S
C269 H273 0.930 . S
C270 C269 1.369 . S
C270 C279 1.429 1_565 S
C271 C269 1.419 1_455 S
C271 C272 1.363 1_565 S
C271 H274 0.929 . S
C272 C271 1.363 1_545 S
C272 C278 1.428 . S
H273 C269 0.930 . S
H274 C271 0.929 . S
S275 N276 1.613 . S
S275 N277 1.610 1_655 S
N276 S275 1.613 . S
N276 C279 1.350 . S
N277 S275 1.610 1_455 S
N277 C278 1.351 . S
C278 C272 1.428 . S
C278 N277 1.351 . S
C278 C279 1.434 1_455 S
C279 C270 1.429 1_545 S
C279 N276 1.350 . S
C279 C278 1.434 1_655 S
C105 C5 1.381 . S
C107 C68 1.383 . S
C116 C23 1.385 . S
C118 C88 1.386 . S
C127 C31 1.383 . S
C129 C94 1.380 . S
C138 C49 1.385 . S
C140 C56 1.387 . S
C149 C101 1.385 . S
C151 C4 1.387 . S
C160 C57 1.380 . S
C162 C16 1.380 . S
C171 C30 1.388 . S
C173 C75 1.388 . S
C182 C81 1.380 . S
C184 C42 1.383 . S
C193 C3 1.527 . S
C195 C83 1.527 . S
C204 C95 1.522 . S
C206 C17 1.523 . S
C215 C29 1.528 . S
C217 C55 1.527 . S
C226 C43 1.523 . S
C228 C69 1.524 . S
C237 C82 1.523 . S
C239 C10 1.522 . S
C248 C96 1.527 . S
C250 C18 1.528 . S
C259 C36 1.522 . S
C261 C62 1.523 . S
C270 C44 1.526 . S
C272 C70 1.527 . S
