# Generated by pormake.
# Topology lta, (4)-cn, num edge types: 1
# Building blocks:
#     Node 0, Type 0, BuildingBlock: AZAVOO_clean_sbu_0, # of connection points: 4
#     Node 1, Type 0, BuildingBlock: AZAVOO_clean_sbu_0, # of connection points: 4
#     Node 2, Type 0, BuildingBlock: AZAVOO_clean_sbu_0, # of connection points: 4
#     Node 3, Type 0, BuildingBlock: AZAVOO_clean_sbu_0, # of connection points: 4
#     Node 4, Type 0, BuildingBlock: AZAVOO_clean_sbu_0, # of connection points: 4
#     Node 5, Type 0, BuildingBlock: AZAVOO_clean_sbu_0, # of connection points: 4
#     Node 6, Type 0, BuildingBlock: AZAVOO_clean_sbu_0, # of connection points: 4
#     Node 7, Type 0, BuildingBlock: AZAVOO_clean_sbu_0, # of connection points: 4
#     Node 8, Type 0, BuildingBlock: AZAVOO_clean_sbu_0, # of connection points: 4
#     Node 9, Type 0, BuildingBlock: AZAVOO_clean_sbu_0, # of connection points: 4
#     Node 10, Type 0, BuildingBlock: AZAVOO_clean_sbu_0, # of connection points: 4
#     Node 11, Type 0, BuildingBlock: AZAVOO_clean_sbu_0, # of connection points: 4
#     Node 12, Type 0, BuildingBlock: AZAVOO_clean_sbu_0, # of connection points: 4
#     Node 13, Type 0, BuildingBlock: AZAVOO_clean_sbu_0, # of connection points: 4
#     Node 14, Type 0, BuildingBlock: AZAVOO_clean_sbu_0, # of connection points: 4
#     Node 15, Type 0, BuildingBlock: AZAVOO_clean_sbu_0, # of connection points: 4
#     Node 16, Type 0, BuildingBlock: AZAVOO_clean_sbu_0, # of connection points: 4
#     Node 17, Type 0, BuildingBlock: AZAVOO_clean_sbu_0, # of connection points: 4
#     Node 18, Type 0, BuildingBlock: AZAVOO_clean_sbu_0, # of connection points: 4
#     Node 19, Type 0, BuildingBlock: AZAVOO_clean_sbu_0, # of connection points: 4
#     Node 20, Type 0, BuildingBlock: AZAVOO_clean_sbu_0, # of connection points: 4
#     Node 21, Type 0, BuildingBlock: AZAVOO_clean_sbu_0, # of connection points: 4
#     Node 22, Type 0, BuildingBlock: AZAVOO_clean_sbu_0, # of connection points: 4
#     Node 23, Type 0, BuildingBlock: AZAVOO_clean_sbu_0, # of connection points: 4
#     Edge 24, Type (0, 0), BuildingBlock: XIVTED_clean_linker_0, # of connection points: 2
#     Edge 25, Type (0, 0), BuildingBlock: XIVTED_clean_linker_0, # of connection points: 2
#     Edge 26, Type (0, 0), BuildingBlock: XIVTED_clean_linker_0, # of connection points: 2
#     Edge 27, Type (0, 0), BuildingBlock: XIVTED_clean_linker_0, # of connection points: 2
#     Edge 28, Type (0, 0), BuildingBlock: XIVTED_clean_linker_0, # of connection points: 2
#     Edge 29, Type (0, 0), BuildingBlock: XIVTED_clean_linker_0, # of connection points: 2
#     Edge 30, Type (0, 0), BuildingBlock: XIVTED_clean_linker_0, # of connection points: 2
#     Edge 31, Type (0, 0), BuildingBlock: XIVTED_clean_linker_0, # of connection points: 2
#     Edge 32, Type (0, 0), BuildingBlock: XIVTED_clean_linker_0, # of connection points: 2
#     Edge 33, Type (0, 0), BuildingBlock: XIVTED_clean_linker_0, # of connection points: 2
#     Edge 34, Type (0, 0), BuildingBlock: XIVTED_clean_linker_0, # of connection points: 2
#     Edge 35, Type (0, 0), BuildingBlock: XIVTED_clean_linker_0, # of connection points: 2
#     Edge 36, Type (0, 0), BuildingBlock: XIVTED_clean_linker_0, # of connection points: 2
#     Edge 37, Type (0, 0), BuildingBlock: XIVTED_clean_linker_0, # of connection points: 2
#     Edge 38, Type (0, 0), BuildingBlock: XIVTED_clean_linker_0, # of connection points: 2
#     Edge 39, Type (0, 0), BuildingBlock: XIVTED_clean_linker_0, # of connection points: 2
#     Edge 40, Type (0, 0), BuildingBlock: XIVTED_clean_linker_0, # of connection points: 2
#     Edge 41, Type (0, 0), BuildingBlock: XIVTED_clean_linker_0, # of connection points: 2
#     Edge 42, Type (0, 0), BuildingBlock: XIVTED_clean_linker_0, # of connection points: 2
#     Edge 43, Type (0, 0), BuildingBlock: XIVTED_clean_linker_0, # of connection points: 2
#     Edge 44, Type (0, 0), BuildingBlock: XIVTED_clean_linker_0, # of connection points: 2
#     Edge 45, Type (0, 0), BuildingBlock: XIVTED_clean_linker_0, # of connection points: 2
#     Edge 46, Type (0, 0), BuildingBlock: XIVTED_clean_linker_0, # of connection points: 2
#     Edge 47, Type (0, 0), BuildingBlock: XIVTED_clean_linker_0, # of connection points: 2
#     Edge 48, Type (0, 0), BuildingBlock: XIVTED_clean_linker_0, # of connection points: 2
#     Edge 49, Type (0, 0), BuildingBlock: XIVTED_clean_linker_0, # of connection points: 2
#     Edge 50, Type (0, 0), BuildingBlock: XIVTED_clean_linker_0, # of connection points: 2
#     Edge 51, Type (0, 0), BuildingBlock: XIVTED_clean_linker_0, # of connection points: 2
#     Edge 52, Type (0, 0), BuildingBlock: XIVTED_clean_linker_0, # of connection points: 2
#     Edge 53, Type (0, 0), BuildingBlock: XIVTED_clean_linker_0, # of connection points: 2
#     Edge 54, Type (0, 0), BuildingBlock: XIVTED_clean_linker_0, # of connection points: 2
#     Edge 55, Type (0, 0), BuildingBlock: XIVTED_clean_linker_0, # of connection points: 2
#     Edge 56, Type (0, 0), BuildingBlock: XIVTED_clean_linker_0, # of connection points: 2
#     Edge 57, Type (0, 0), BuildingBlock: XIVTED_clean_linker_0, # of connection points: 2
#     Edge 58, Type (0, 0), BuildingBlock: XIVTED_clean_linker_0, # of connection points: 2
#     Edge 59, Type (0, 0), BuildingBlock: XIVTED_clean_linker_0, # of connection points: 2
#     Edge 60, Type (0, 0), BuildingBlock: XIVTED_clean_linker_0, # of connection points: 2
#     Edge 61, Type (0, 0), BuildingBlock: XIVTED_clean_linker_0, # of connection points: 2
#     Edge 62, Type (0, 0), BuildingBlock: XIVTED_clean_linker_0, # of connection points: 2
#     Edge 63, Type (0, 0), BuildingBlock: XIVTED_clean_linker_0, # of connection points: 2
#     Edge 64, Type (0, 0), BuildingBlock: XIVTED_clean_linker_0, # of connection points: 2
#     Edge 65, Type (0, 0), BuildingBlock: XIVTED_clean_linker_0, # of connection points: 2
#     Edge 66, Type (0, 0), BuildingBlock: XIVTED_clean_linker_0, # of connection points: 2
#     Edge 67, Type (0, 0), BuildingBlock: XIVTED_clean_linker_0, # of connection points: 2
#     Edge 68, Type (0, 0), BuildingBlock: XIVTED_clean_linker_0, # of connection points: 2
#     Edge 69, Type (0, 0), BuildingBlock: XIVTED_clean_linker_0, # of connection points: 2
#     Edge 70, Type (0, 0), BuildingBlock: XIVTED_clean_linker_0, # of connection points: 2
#     Edge 71, Type (0, 0), BuildingBlock: XIVTED_clean_linker_0, # of connection points: 2
# Relax obj value: 0.171
# Max RMSD: 0.067
# Mean RMSD: 0.067
data_MOF--net-lta--node1-AZAVOO_clean_sbu_0--edge1-XIVTED_clean_linker_0
_symmetry_space_group_name_H-M    P1
_symmetry_Int_Tables_number       1
_symmetry_cell_setting            triclinic
loop_
_symmetry_equiv_pos_as_xyz
'x, y, z'
_cell_length_a     57.336651
_cell_length_b     57.135928
_cell_length_c     57.187113
_cell_angle_alpha  90.045361
_cell_angle_beta   89.878599
_cell_angle_gamma 90.006091
loop_
_atom_site_label
_atom_site_type_symbol
_atom_site_fract_x
_atom_site_fract_y
_atom_site_fract_z
_atom_type_partial_charge
Mg0 Mg 0.11371 0.30044 0.53282 0.0
O1 O 0.11809 0.32368 0.50049 0.0
O2 O 0.08917 0.34993 0.50097 0.0
Mg3 Mg 0.06503 0.34171 0.53171 0.0
C4 C 0.10769 0.34142 0.49195 0.0
C5 C 0.15809 0.2701 0.53774 0.0
O6 O 0.14597 0.26162 0.55532 0.0
O7 O 0.12627 0.33038 0.55603 0.0
O8 O 0.09474 0.35365 0.55564 0.0
O9 O 0.09183 0.27571 0.51225 0.0
O10 O 0.07796 0.30561 0.53271 0.0
C11 C 0.11535 0.34875 0.56249 0.0
C12 C 0.07431 0.28854 0.51852 0.0
O13 O 0.15008 0.28735 0.52638 0.0
Mg14 Mg 0.68286 0.11749 0.53392 0.0
O15 O 0.66403 0.12222 0.49892 0.0
O16 O 0.64226 0.0904 0.49238 0.0
Mg17 Mg 0.6434 0.06763 0.52516 0.0
C18 C 0.65038 0.11021 0.48609 0.0
C19 C 0.71931 0.15488 0.5354 0.0
O20 O 0.72849 0.13647 0.54562 0.0
O21 O 0.64987 0.12972 0.55363 0.0
O22 O 0.62848 0.09773 0.54655 0.0
O23 O 0.70961 0.09409 0.51636 0.0
O24 O 0.67763 0.08144 0.53362 0.0
C25 C 0.63094 0.11799 0.55569 0.0
C26 C 0.69612 0.07682 0.52194 0.0
O27 O 0.69805 0.15396 0.5293 0.0
Mg28 Mg 0.86813 0.68426 0.52818 0.0
O29 O 0.86395 0.65927 0.49697 0.0
O30 O 0.89166 0.63207 0.50094 0.0
Mg31 Mg 0.91472 0.64084 0.53219 0.0
C32 C 0.87409 0.64055 0.49021 0.0
C33 C 0.82926 0.71905 0.53106 0.0
O34 O 0.84508 0.72665 0.54583 0.0
O35 O 0.85296 0.65666 0.553 0.0
O36 O 0.88405 0.63313 0.5564 0.0
O37 O 0.89273 0.70715 0.50782 0.0
O38 O 0.90367 0.67746 0.52982 0.0
C39 C 0.86333 0.63908 0.562 0.0
C40 C 0.90934 0.69398 0.51563 0.0
O41 O 0.83273 0.69971 0.52074 0.0
Mg42 Mg 0.29759 0.87015 0.53432 0.0
O43 O 0.31849 0.86448 0.50037 0.0
O44 O 0.34269 0.89491 0.49608 0.0
Mg45 Mg 0.34051 0.91715 0.52915 0.0
C46 C 0.33383 0.87578 0.48882 0.0
C47 C 0.26024 0.83461 0.526 0.0
O48 O 0.24914 0.85458 0.52827 0.0
O49 O 0.32793 0.85624 0.55577 0.0
O50 O 0.35331 0.88566 0.5506 0.0
O51 O 0.27342 0.89352 0.51453 0.0
O52 O 0.30424 0.90615 0.53407 0.0
C53 C 0.34785 0.86565 0.55894 0.0
C54 C 0.2869 0.91058 0.52057 0.0
O55 O 0.2821 0.83407 0.52927 0.0
Mg56 Mg 0.11536 0.68983 0.45388 0.0
O57 O 0.11484 0.66535 0.48561 0.0
O58 O 0.08423 0.64145 0.48175 0.0
Mg59 Mg 0.06414 0.652 0.44891 0.0
C60 C 0.10237 0.64829 0.49274 0.0
C61 C 0.16264 0.71438 0.4504 0.0
O62 O 0.1531 0.72004 0.43032 0.0
O63 O 0.12843 0.65939 0.43136 0.0
O64 O 0.09547 0.63851 0.42808 0.0
O65 O 0.09284 0.71556 0.47302 0.0
O66 O 0.07953 0.68697 0.45062 0.0
C67 C 0.11696 0.64201 0.42335 0.0
C68 C 0.07536 0.70374 0.46502 0.0
O69 O 0.15182 0.70051 0.46387 0.0
Mg70 Mg 0.29628 0.11644 0.4537 0.0
O71 O 0.31896 0.11709 0.48671 0.0
O72 O 0.34338 0.08679 0.48426 0.0
Mg73 Mg 0.33809 0.0684 0.44918 0.0
C74 C 0.33519 0.10448 0.49519 0.0
C75 C 0.2644 0.16016 0.45583 0.0
O76 O 0.25589 0.15065 0.43675 0.0
O77 O 0.32593 0.13283 0.43231 0.0
O78 O 0.3496 0.10166 0.42991 0.0
O79 O 0.27235 0.09095 0.47098 0.0
O80 O 0.30204 0.08078 0.44848 0.0
C81 C 0.34461 0.12292 0.42517 0.0
C82 C 0.28533 0.07463 0.46218 0.0
O83 O 0.28201 0.15105 0.46561 0.0
Mg84 Mg 0.86866 0.30062 0.45171 0.0
O85 O 0.8662 0.32362 0.48458 0.0
O86 O 0.89546 0.34946 0.48277 0.0
Mg87 Mg 0.91705 0.34279 0.44998 0.0
C88 C 0.87737 0.3411 0.49278 0.0
C89 C 0.83484 0.26258 0.46156 0.0
O90 O 0.85435 0.25264 0.45472 0.0
O91 O 0.85321 0.33116 0.43052 0.0
O92 O 0.88458 0.35468 0.43057 0.0
O93 O 0.89381 0.27651 0.46985 0.0
O94 O 0.90437 0.30692 0.44868 0.0
C95 C 0.86355 0.35017 0.42484 0.0
C96 C 0.91025 0.28983 0.46199 0.0
O97 O 0.83335 0.28475 0.46082 0.0
Mg98 Mg 0.68569 0.87116 0.45217 0.0
O99 O 0.66578 0.86604 0.48675 0.0
O100 O 0.64124 0.8962 0.49102 0.0
Mg101 Mg 0.64164 0.91715 0.45713 0.0
C102 C 0.65066 0.87744 0.49851 0.0
C103 C 0.72484 0.83782 0.45939 0.0
O104 O 0.73454 0.85797 0.45415 0.0
O105 O 0.65524 0.85541 0.43212 0.0
O106 O 0.62938 0.88439 0.4373 0.0
O107 O 0.70963 0.89593 0.47038 0.0
O108 O 0.678 0.90707 0.45132 0.0
C109 C 0.63497 0.86421 0.42945 0.0
C110 C 0.69559 0.91243 0.46415 0.0
O111 O 0.70281 0.83599 0.45834 0.0
Mg112 Mg 0.53019 0.11604 0.30205 0.0
O113 O 0.49603 0.1248 0.32133 0.0
O114 O 0.49207 0.09896 0.35043 0.0
Mg115 Mg 0.52315 0.07398 0.34965 0.0
C116 C 0.48491 0.11657 0.3388 0.0
C117 C 0.52757 0.14746 0.26057 0.0
O118 O 0.53283 0.12675 0.25205 0.0
O119 O 0.55189 0.13215 0.3313 0.0
O120 O 0.54742 0.10453 0.35878 0.0
O121 O 0.51132 0.09054 0.27925 0.0
O122 O 0.52872 0.08123 0.31238 0.0
C123 C 0.55601 0.12386 0.35159 0.0
C124 C 0.51657 0.07481 0.29462 0.0
O125 O 0.52679 0.1501 0.28259 0.0
Mg126 Mg 0.86919 0.53094 0.29535 0.0
O127 O 0.86844 0.4991 0.31945 0.0
O128 O 0.8983 0.50168 0.34435 0.0
Mg129 Mg 0.91878 0.53485 0.33514 0.0
C130 C 0.8801 0.49135 0.33671 0.0
C131 C 0.82237 0.53135 0.26807 0.0
O132 O 0.83042 0.55159 0.26073 0.0
O133 O 0.85453 0.55296 0.32545 0.0
O134 O 0.88645 0.55429 0.348 0.0
O135 O 0.89263 0.51156 0.27102 0.0
O136 O 0.905 0.53478 0.29944 0.0
C137 C 0.86521 0.55954 0.34389 0.0
C138 C 0.90973 0.52015 0.283 0.0
O139 O 0.83366 0.51999 0.28331 0.0
Mg140 Mg 0.45423 0.86874 0.29984 0.0
O141 O 0.48745 0.86383 0.32108 0.0
O142 O 0.48983 0.89323 0.34681 0.0
Mg143 Mg 0.45898 0.91786 0.34057 0.0
C144 C 0.49765 0.87438 0.33777 0.0
C145 C 0.44708 0.82491 0.26989 0.0
O146 O 0.42992 0.83819 0.26244 0.0
O147 O 0.43193 0.8571 0.33092 0.0
O148 O 0.4341 0.8892 0.35345 0.0
O149 O 0.4739 0.89044 0.27392 0.0
O150 O 0.45524 0.9046 0.30481 0.0
C151 C 0.42632 0.86869 0.34919 0.0
C152 C 0.46845 0.9081 0.28699 0.0
O153 O 0.45939 0.83198 0.28683 0.0
Mg154 Mg 0.11535 0.45424 0.30068 0.0
O155 O 0.11912 0.48835 0.32173 0.0
O156 O 0.0903 0.48898 0.34818 0.0
Mg157 Mg 0.06758 0.45656 0.34335 0.0
C158 C 0.10848 0.49791 0.33885 0.0
C159 C 0.15071 0.46461 0.26337 0.0
O160 O 0.13089 0.4623 0.25217 0.0
O161 O 0.13005 0.4338 0.33178 0.0
O162 O 0.09932 0.43619 0.35602 0.0
O163 O 0.0911 0.47247 0.27599 0.0
O164 O 0.07954 0.45297 0.30721 0.0
C165 C 0.11999 0.42939 0.35123 0.0
C166 C 0.07433 0.46586 0.28958 0.0
O167 O 0.15125 0.46084 0.28523 0.0
Mg168 Mg 0.53047 0.8717 0.68598 0.0
O169 O 0.49702 0.86241 0.66599 0.0
O170 O 0.49343 0.88873 0.63722 0.0
Mg171 Mg 0.52264 0.91574 0.6402 0.0
C172 C 0.48643 0.87063 0.64822 0.0
C173 C 0.53596 0.83534 0.72399 0.0
O174 O 0.54628 0.85382 0.73294 0.0
O175 O 0.55316 0.85812 0.656 0.0
O176 O 0.54921 0.88753 0.6304 0.0
O177 O 0.51027 0.895 0.71032 0.0
O178 O 0.52646 0.9066 0.67716 0.0
C179 C 0.55813 0.86806 0.63665 0.0
C180 C 0.51361 0.91131 0.69501 0.0
O181 O 0.52871 0.83631 0.7031 0.0
Mg182 Mg 0.11282 0.53555 0.68642 0.0
O183 O 0.11943 0.50043 0.66792 0.0
O184 O 0.09101 0.49475 0.64163 0.0
Mg185 Mg 0.06648 0.52609 0.64257 0.0
C186 C 0.10962 0.48833 0.65198 0.0
C187 C 0.14712 0.52694 0.72554 0.0
O188 O 0.12676 0.5286 0.73593 0.0
O189 O 0.12735 0.55459 0.65377 0.0
O190 O 0.09741 0.547 0.62979 0.0
O191 O 0.08826 0.51786 0.71194 0.0
O192 O 0.07728 0.53309 0.67835 0.0
C193 C 0.11736 0.55598 0.63382 0.0
C194 C 0.07209 0.52126 0.69669 0.0
O195 O 0.14853 0.5314 0.70381 0.0
Mg196 Mg 0.44704 0.1201 0.68627 0.0
O197 O 0.48299 0.12391 0.66768 0.0
O198 O 0.48921 0.09259 0.6447 0.0
Mg199 Mg 0.45496 0.07293 0.64024 0.0
C200 C 0.49607 0.11157 0.65435 0.0
C201 C 0.45733 0.15065 0.72791 0.0
O202 O 0.45241 0.13013 0.73699 0.0
O203 O 0.42758 0.14056 0.65625 0.0
O204 O 0.43897 0.10769 0.64225 0.0
O205 O 0.46241 0.09197 0.70974 0.0
O206 O 0.44573 0.08323 0.67639 0.0
C207 C 0.42827 0.12659 0.63903 0.0
C208 C 0.45664 0.07627 0.69462 0.0
O209 O 0.4549 0.15355 0.70604 0.0
Mg210 Mg 0.8666 0.45209 0.68239 0.0
O211 O 0.86075 0.48806 0.66517 0.0
O212 O 0.88942 0.49376 0.63917 0.0
Mg213 Mg 0.91063 0.46019 0.63671 0.0
C214 C 0.87126 0.50066 0.65007 0.0
C215 C 0.83453 0.45376 0.72338 0.0
O216 O 0.8544 0.44582 0.73159 0.0
O217 O 0.84952 0.43414 0.65116 0.0
O218 O 0.87773 0.44088 0.62483 0.0
O219 O 0.89258 0.46782 0.70703 0.0
O220 O 0.90176 0.45208 0.67299 0.0
C221 C 0.85778 0.43265 0.63047 0.0
C222 C 0.9083 0.46299 0.69152 0.0
O223 O 0.83253 0.45683 0.70151 0.0
Mg224 Mg 0.29542 0.53047 0.11442 0.0
O225 O 0.3194 0.49876 0.11491 0.0
O226 O 0.34113 0.5005 0.08251 0.0
Mg227 Mg 0.33277 0.53416 0.06263 0.0
C228 C 0.33484 0.49025 0.10134 0.0
C229 C 0.27074 0.53516 0.16161 0.0
O230 O 0.26524 0.55495 0.15131 0.0
O231 O 0.32538 0.55399 0.12682 0.0
O232 O 0.34577 0.55635 0.09341 0.0
O233 O 0.27081 0.50983 0.09201 0.0
O234 O 0.29804 0.53349 0.07814 0.0
C235 C 0.34245 0.56188 0.1148 0.0
C236 C 0.28208 0.51823 0.07428 0.0
O237 O 0.28461 0.52128 0.15129 0.0
Mg238 Mg 0.30174 0.45488 0.86637 0.0
O239 O 0.32175 0.48993 0.86301 0.0
O240 O 0.33956 0.49744 0.89705 0.0
Mg241 Mg 0.34602 0.46051 0.91008 0.0
C242 C 0.33245 0.50379 0.87688 0.0
C243 C 0.26647 0.45191 0.8268 0.0
O244 O 0.25878 0.43631 0.84182 0.0
O245 O 0.33176 0.43278 0.85182 0.0
O246 O 0.35636 0.45441 0.87177 0.0
O247 O 0.27773 0.4722 0.89182 0.0
O248 O 0.30928 0.45257 0.90224 0.0
C249 C 0.35237 0.4366 0.85907 0.0
C250 C 0.29172 0.4653 0.90817 0.0
O251 O 0.28563 0.46219 0.83099 0.0
Mg252 Mg 0.53255 0.29824 0.87293 0.0
O253 O 0.49742 0.31819 0.87107 0.0
O254 O 0.49649 0.34141 0.90262 0.0
Mg255 Mg 0.53088 0.33923 0.92203 0.0
C256 C 0.48709 0.33306 0.88421 0.0
C257 C 0.53585 0.26345 0.83424 0.0
O258 O 0.54969 0.25554 0.85073 0.0
O259 O 0.55135 0.33008 0.85817 0.0
O260 O 0.54864 0.35393 0.88918 0.0
O261 O 0.51624 0.27176 0.89664 0.0
O262 O 0.53444 0.30365 0.90884 0.0
C263 C 0.55496 0.3497 0.86817 0.0
C264 C 0.52218 0.28543 0.91363 0.0
O265 O 0.52612 0.28319 0.83712 0.0
Mg266 Mg 0.68389 0.53138 0.86763 0.0
O267 O 0.66108 0.4989 0.86153 0.0
O268 O 0.63257 0.50092 0.88824 0.0
Mg269 Mg 0.63941 0.53116 0.91347 0.0
C270 C 0.64224 0.49123 0.87059 0.0
C271 C 0.72279 0.52923 0.83394 0.0
O272 O 0.73132 0.53776 0.85349 0.0
O273 O 0.65525 0.55508 0.85277 0.0
O274 O 0.63091 0.55611 0.88357 0.0
O275 O 0.70691 0.51144 0.89234 0.0
O276 O 0.676 0.53192 0.90284 0.0
C277 C 0.63698 0.56268 0.86311 0.0
C278 C 0.69303 0.51859 0.90873 0.0
O279 O 0.70101 0.52557 0.83265 0.0
Mg280 Mg 0.4532 0.68932 0.86776 0.0
O281 O 0.48711 0.66916 0.86011 0.0
O282 O 0.49122 0.64236 0.88834 0.0
Mg283 Mg 0.46007 0.6446 0.91313 0.0
C284 C 0.49831 0.65253 0.86981 0.0
C285 C 0.45456 0.72844 0.83389 0.0
O286 O 0.44785 0.73766 0.85386 0.0
O287 O 0.43124 0.65924 0.8539 0.0
O288 O 0.43506 0.63406 0.8837 0.0
O289 O 0.47265 0.71383 0.89133 0.0
O290 O 0.4555 0.68113 0.90298 0.0
C291 C 0.42653 0.63988 0.86393 0.0
C292 C 0.46824 0.69896 0.90778 0.0
O293 O 0.45644 0.70638 0.83244 0.0
Mg294 Mg 0.68571 0.45514 0.11434 0.0
O295 O 0.66558 0.48938 0.11949 0.0
O296 O 0.64143 0.49416 0.08924 0.0
Mg297 Mg 0.64463 0.46172 0.06603 0.0
C298 C 0.65034 0.50116 0.10842 0.0
C299 C 0.71657 0.44986 0.15864 0.0
O300 O 0.72637 0.43328 0.14608 0.0
O301 O 0.65436 0.43417 0.1266 0.0
O302 O 0.63077 0.43814 0.09564 0.0
O303 O 0.71208 0.4737 0.09232 0.0
O304 O 0.68038 0.45632 0.07855 0.0
C305 C 0.6353 0.42999 0.11594 0.0
C306 C 0.69859 0.46893 0.07486 0.0
O307 O 0.69875 0.46031 0.15082 0.0
Mg308 Mg 0.53035 0.6849 0.11606 0.0
O309 O 0.4962 0.66504 0.12359 0.0
O310 O 0.49368 0.63576 0.09772 0.0
Mg311 Mg 0.52568 0.63676 0.07395 0.0
C312 C 0.48571 0.64733 0.11505 0.0
C313 C 0.51901 0.7253 0.14796 0.0
O314 O 0.51866 0.73454 0.12696 0.0
O315 O 0.55209 0.65603 0.13299 0.0
O316 O 0.54887 0.62836 0.10537 0.0
O317 O 0.5117 0.70695 0.08974 0.0
O318 O 0.53019 0.67423 0.08109 0.0
C319 C 0.55673 0.63573 0.1249 0.0
C320 C 0.51761 0.69155 0.07429 0.0
O321 O 0.52517 0.70412 0.15036 0.0
Mg322 Mg 0.45099 0.30104 0.11975 0.0
O323 O 0.48591 0.32108 0.12377 0.0
O324 O 0.49234 0.34269 0.09157 0.0
Mg325 Mg 0.45895 0.34345 0.07017 0.0
C326 C 0.4987 0.33458 0.11136 0.0
C327 C 0.45116 0.26189 0.15397 0.0
O328 O 0.44009 0.25389 0.13552 0.0
O329 O 0.4308 0.33178 0.13732 0.0
O330 O 0.44114 0.34709 0.10414 0.0
O331 O 0.46804 0.27614 0.0939 0.0
O332 O 0.4505 0.30848 0.08301 0.0
C333 C 0.43094 0.34921 0.12356 0.0
C334 C 0.4622 0.2903 0.07734 0.0
O335 O 0.45731 0.28322 0.15426 0.0
H336 H 0.1348 0.44716 0.39209 0.0
H337 H 0.12689 0.3219 0.45249 0.0
H338 H 0.13056 0.38291 0.35293 0.0
H339 H 0.11221 0.38809 0.48563 0.0
H340 H 0.14053 0.34303 0.41749 0.0
H341 H 0.14092 0.42464 0.42782 0.0
C342 C 0.13613 0.42827 0.39097 0.0
C343 C 0.1322 0.41674 0.36975 0.0
C344 C 0.13469 0.35286 0.43261 0.0
C345 C 0.13798 0.39087 0.41051 0.0
C346 C 0.12689 0.34086 0.45247 0.0
C347 C 0.11797 0.35337 0.47162 0.0
C348 C 0.13396 0.37744 0.43227 0.0
C349 C 0.11843 0.37785 0.47094 0.0
C350 C 0.13933 0.4154 0.41136 0.0
C351 C 0.13367 0.3923 0.36908 0.0
N352 N 0.12618 0.38907 0.45156 0.0
N353 N 0.13594 0.38004 0.38935 0.0
H354 H 0.63031 0.15264 0.47785 0.0
H355 H 0.60232 0.12 0.34531 0.0
H356 H 0.65276 0.0893 0.44357 0.0
H357 H 0.55057 0.14895 0.39173 0.0
H358 H 0.63157 0.12385 0.37633 0.0
H359 H 0.61147 0.16517 0.44121 0.0
C360 C 0.63179 0.14173 0.46241 0.0
C361 C 0.64276 0.11983 0.46357 0.0
C362 C 0.61403 0.13025 0.37936 0.0
C363 C 0.62204 0.1342 0.42199 0.0
C364 C 0.59745 0.12827 0.36167 0.0
C365 C 0.5742 0.1343 0.36613 0.0
C366 C 0.6072 0.13847 0.40145 0.0
C367 C 0.56845 0.14431 0.38773 0.0
C368 C 0.62108 0.14885 0.44166 0.0
C369 C 0.6442 0.10619 0.44329 0.0
N370 N 0.58485 0.14586 0.40481 0.0
N371 N 0.63385 0.11357 0.42329 0.0
H372 H 0.88237 0.59528 0.47809 0.0
H373 H 0.85335 0.60572 0.34781 0.0
H374 H 0.84597 0.65716 0.4548 0.0
H375 H 0.85106 0.53959 0.38382 0.0
H376 H 0.8476 0.62591 0.38542 0.0
H377 H 0.87033 0.57516 0.44269 0.0
C378 C 0.87168 0.60462 0.46559 0.0
C379 C 0.86536 0.62802 0.46933 0.0
C380 C 0.84744 0.60696 0.38493 0.0
C381 C 0.85148 0.60497 0.42858 0.0
C382 C 0.85051 0.59549 0.3635 0.0
C383 C 0.85264 0.57108 0.36295 0.0
C384 C 0.84721 0.59377 0.40567 0.0
C385 C 0.84943 0.55849 0.38368 0.0
C386 C 0.8646 0.59302 0.44546 0.0
C387 C 0.85132 0.63913 0.45253 0.0
N388 N 0.84744 0.56999 0.40432 0.0
N389 N 0.84518 0.62762 0.43258 0.0
H390 H 0.362 0.83831 0.4803 0.0
H391 H 0.38053 0.87852 0.34793 0.0
H392 H 0.32397 0.89353 0.44617 0.0
H393 H 0.43202 0.84031 0.38711 0.0
H394 H 0.35267 0.87315 0.37997 0.0
H395 H 0.38082 0.82864 0.44276 0.0
C396 C 0.35723 0.84795 0.46472 0.0
C397 C 0.34167 0.8668 0.4661 0.0
C398 C 0.36985 0.86538 0.38135 0.0
C399 C 0.36288 0.85599 0.42352 0.0
C400 C 0.38562 0.86828 0.36303 0.0
C401 C 0.40837 0.8597 0.36503 0.0
C402 C 0.37706 0.85411 0.40192 0.0
C403 C 0.41447 0.84697 0.38501 0.0
C404 C 0.36798 0.84252 0.44342 0.0
C405 C 0.33604 0.87896 0.44567 0.0
N406 N 0.39895 0.8448 0.40292 0.0
N407 N 0.34677 0.87345 0.42521 0.0
H408 H 0.12388 0.5384 0.59087 0.0
H409 H 0.13228 0.66228 0.52774 0.0
H410 H 0.13301 0.60141 0.63128 0.0
H411 H 0.0896 0.60418 0.50534 0.0
H412 H 0.14427 0.63931 0.56213 0.0
H413 H 0.12566 0.56141 0.55506 0.0
C414 C 0.12728 0.55703 0.59211 0.0
C415 C 0.12814 0.56813 0.61394 0.0
C416 C 0.13239 0.6317 0.54953 0.0
C417 C 0.12949 0.5946 0.57315 0.0
C418 C 0.1255 0.64472 0.52999 0.0
C419 C 0.10976 0.63517 0.51374 0.0
C420 C 0.12392 0.60887 0.55238 0.0
C421 C 0.10158 0.61236 0.51747 0.0
C422 C 0.12797 0.57016 0.57171 0.0
C423 C 0.13234 0.59229 0.61469 0.0
N424 N 0.10882 0.6 0.53632 0.0
N425 N 0.1324 0.60493 0.59447 0.0
H426 H 0.33602 0.14739 0.5177 0.0
H427 H 0.43746 0.10494 0.59849 0.0
H428 H 0.35743 0.07535 0.52509 0.0
H429 H 0.3898 0.15478 0.62923 0.0
H430 H 0.41249 0.10209 0.56457 0.0
H431 H 0.35796 0.15706 0.55362 0.0
C432 C 0.345 0.13359 0.52702 0.0
C433 C 0.34539 0.11059 0.51813 0.0
C434 C 0.40755 0.11386 0.5786 0.0
C435 C 0.37027 0.12156 0.55863 0.0
C436 C 0.42187 0.11564 0.59794 0.0
C437 C 0.41549 0.12982 0.6169 0.0
C438 C 0.38665 0.12645 0.57789 0.0
C439 C 0.39522 0.14355 0.61497 0.0
C440 C 0.35742 0.13915 0.54742 0.0
C441 C 0.35717 0.09339 0.5309 0.0
N442 N 0.38123 0.14138 0.59575 0.0
N443 N 0.36932 0.09928 0.55028 0.0
H444 H 0.84705 0.38624 0.631 0.0
H445 H 0.87942 0.3877 0.50023 0.0
H446 H 0.84324 0.44831 0.58852 0.0
H447 H 0.85252 0.324 0.5305 0.0
H448 H 0.86373 0.40965 0.533 0.0
H449 H 0.84405 0.36219 0.5955 0.0
C450 C 0.84435 0.39475 0.61429 0.0
C451 C 0.84565 0.41917 0.61244 0.0
C452 C 0.86097 0.3909 0.53248 0.0
C453 C 0.84306 0.3921 0.5721 0.0
C454 C 0.87025 0.37831 0.5139 0.0
C455 C 0.86763 0.35397 0.5129 0.0
C456 C 0.84943 0.37909 0.55064 0.0
C457 C 0.8551 0.34277 0.53083 0.0
C458 C 0.84288 0.38105 0.59404 0.0
C459 C 0.8425 0.42947 0.5905 0.0
N460 N 0.84682 0.35539 0.54931 0.0
N461 N 0.84188 0.41588 0.5711 0.0
H462 H 0.60316 0.88045 0.6391 0.0
H463 H 0.62916 0.83617 0.50927 0.0
H464 H 0.55545 0.83721 0.60025 0.0
H465 H 0.65566 0.89974 0.53987 0.0
H466 H 0.61123 0.82599 0.54715 0.0
H467 H 0.63199 0.87609 0.60778 0.0
C468 C 0.5992 0.86923 0.62434 0.0
C469 C 0.57713 0.85904 0.62212 0.0
C470 C 0.62144 0.84186 0.54564 0.0
C471 C 0.60953 0.85454 0.58609 0.0
C472 C 0.63168 0.84762 0.52416 0.0
C473 C 0.6436 0.86889 0.52164 0.0
C474 C 0.62362 0.85736 0.5646 0.0
C475 C 0.64636 0.88329 0.54122 0.0
C476 C 0.61551 0.86693 0.60642 0.0
C477 C 0.57245 0.84513 0.60252 0.0
N478 N 0.63633 0.87732 0.56188 0.0
N479 N 0.58846 0.84352 0.58498 0.0
H480 H 0.34274 0.12311 0.37809 0.0
H481 H 0.47881 0.15 0.37198 0.0
H482 H 0.38347 0.14788 0.43621 0.0
H483 H 0.44141 0.10717 0.32272 0.0
H484 H 0.44152 0.16197 0.38958 0.0
H485 H 0.37588 0.13045 0.35198 0.0
C486 C 0.35838 0.13108 0.38511 0.0
C487 C 0.3605 0.13507 0.40917 0.0
C488 C 0.44144 0.15035 0.3746 0.0
C489 C 0.3986 0.14272 0.37977 0.0
C490 C 0.46264 0.1436 0.36458 0.0
C491 C 0.46294 0.12755 0.34608 0.0
C492 C 0.42054 0.1407 0.36616 0.0
C493 C 0.44172 0.1196 0.33702 0.0
C494 C 0.37735 0.13502 0.3703 0.0
C495 C 0.38122 0.14481 0.41766 0.0
N496 N 0.42133 0.12601 0.34736 0.0
N497 N 0.39965 0.148 0.40301 0.0
H498 H 0.85164 0.35145 0.37871 0.0
H499 H 0.87993 0.48496 0.38362 0.0
H500 H 0.85061 0.39182 0.4423 0.0
H501 H 0.85869 0.45211 0.3192 0.0
H502 H 0.86522 0.45132 0.40526 0.0
H503 H 0.84823 0.38784 0.35614 0.0
C504 C 0.84949 0.36791 0.38789 0.0
C505 C 0.85136 0.36882 0.41228 0.0
C506 C 0.86358 0.45142 0.3864 0.0
C507 C 0.84868 0.41029 0.38684 0.0
C508 C 0.87228 0.47051 0.37405 0.0
C509 C 0.871 0.47098 0.34962 0.0
C510 C 0.85408 0.4323 0.37422 0.0
C511 C 0.86027 0.45217 0.33806 0.0
C512 C 0.84787 0.38869 0.37505 0.0
C513 C 0.84912 0.39052 0.42346 0.0
N514 N 0.85261 0.43331 0.35044 0.0
N515 N 0.84843 0.41045 0.41065 0.0
H516 H 0.54198 0.87578 0.32067 0.0
H517 H 0.5932 0.84741 0.44358 0.0
H518 H 0.50047 0.84927 0.37762 0.0
H519 H 0.63683 0.8558 0.38279 0.0
H520 H 0.55976 0.84037 0.41818 0.0
H521 H 0.57737 0.86252 0.34086 0.0
C522 C 0.54041 0.86674 0.33724 0.0
C523 C 0.51859 0.86385 0.34785 0.0
C524 C 0.57672 0.84306 0.41027 0.0
C525 C 0.55857 0.84873 0.37096 0.0
C526 C 0.5958 0.8469 0.4248 0.0
C527 C 0.61758 0.85219 0.41512 0.0
C528 C 0.57937 0.8455 0.38594 0.0
C529 C 0.62019 0.85167 0.39078 0.0
C530 C 0.56051 0.85909 0.34871 0.0
C531 C 0.51718 0.85208 0.36921 0.0
N532 N 0.60112 0.84904 0.37693 0.0
N533 N 0.53695 0.84519 0.38024 0.0
H534 H 0.13616 0.60263 0.44038 0.0
H535 H 0.12379 0.53802 0.31723 0.0
H536 H 0.12213 0.63917 0.37611 0.0
H537 H 0.11567 0.50566 0.38482 0.0
H538 H 0.13585 0.57457 0.33675 0.0
H539 H 0.14286 0.56667 0.41811 0.0
C540 C 0.13548 0.60321 0.42144 0.0
C541 C 0.12876 0.6237 0.40992 0.0
C542 C 0.13181 0.55931 0.34722 0.0
C543 C 0.1354 0.58267 0.38447 0.0
C544 C 0.12494 0.53856 0.33613 0.0
C545 C 0.11827 0.51915 0.34957 0.0
C546 C 0.13243 0.56027 0.37178 0.0
C547 C 0.12016 0.52051 0.37393 0.0
C548 C 0.13902 0.58269 0.40876 0.0
C549 C 0.12749 0.62361 0.38547 0.0
N550 N 0.12695 0.54074 0.38426 0.0
N551 N 0.1304 0.60323 0.37349 0.0
H552 H 0.34513 0.85798 0.60574 0.0
H553 H 0.483 0.84199 0.61075 0.0
H554 H 0.39006 0.84897 0.54597 0.0
H555 H 0.44237 0.87368 0.66571 0.0
H556 H 0.44686 0.82998 0.59129 0.0
H557 H 0.37836 0.84961 0.63156 0.0
C558 C 0.36181 0.85333 0.59812 0.0
C559 C 0.36511 0.85415 0.57386 0.0
C560 C 0.44583 0.83912 0.60787 0.0
C561 C 0.40289 0.84487 0.60294 0.0
C562 C 0.46639 0.84588 0.61894 0.0
C563 C 0.46541 0.85891 0.63962 0.0
C564 C 0.42425 0.8459 0.61737 0.0
C565 C 0.44363 0.86363 0.6497 0.0
C566 C 0.38074 0.84874 0.61278 0.0
C567 C 0.387 0.84848 0.56466 0.0
N568 N 0.42379 0.85747 0.63824 0.0
N569 N 0.40516 0.84429 0.57923 0.0
H570 H 0.14082 0.4833 0.61685 0.0
H571 H 0.11465 0.3468 0.6097 0.0
H572 H 0.10213 0.44445 0.66846 0.0
H573 H 0.13871 0.38856 0.55184 0.0
H574 H 0.12217 0.37973 0.63615 0.0
H575 H 0.15204 0.44638 0.59796 0.0
C576 C 0.13527 0.46686 0.62451 0.0
C577 C 0.12058 0.46662 0.64407 0.0
C578 C 0.12647 0.38149 0.61778 0.0
C579 C 0.13278 0.42466 0.62253 0.0
C580 C 0.12237 0.36267 0.60279 0.0
C581 C 0.12624 0.36515 0.57877 0.0
C582 C 0.13417 0.40292 0.6085 0.0
C583 C 0.13571 0.3861 0.57038 0.0
C584 C 0.14156 0.44587 0.61373 0.0
C585 C 0.11355 0.44513 0.65337 0.0
N586 N 0.13909 0.40436 0.58521 0.0
N587 N 0.11948 0.42493 0.64231 0.0
H588 H 0.50969 0.15568 0.64105 0.0
H589 H 0.58592 0.10444 0.55322 0.0
H590 H 0.53561 0.08588 0.65291 0.0
H591 H 0.63186 0.1492 0.59298 0.0
H592 H 0.55612 0.10928 0.58308 0.0
H593 H 0.54592 0.16493 0.61954 0.0
C594 C 0.52341 0.14268 0.64002 0.0
C595 C 0.51964 0.11985 0.64828 0.0
C596 C 0.57255 0.11849 0.58493 0.0
C597 C 0.56061 0.13035 0.62427 0.0
C598 C 0.58959 0.11579 0.56796 0.0
C599 C 0.61159 0.12616 0.57077 0.0
C600 C 0.57729 0.1318 0.60484 0.0
C601 C 0.61515 0.14084 0.59023 0.0
C602 C 0.544 0.148 0.62786 0.0
C603 C 0.53777 0.10354 0.64638 0.0
N604 N 0.59821 0.14294 0.60695 0.0
N605 N 0.55727 0.10894 0.63409 0.0
H606 H 0.8296 0.51151 0.62986 0.0
H607 H 0.87218 0.64242 0.60795 0.0
H608 H 0.89276 0.54224 0.65659 0.0
H609 H 0.83177 0.60364 0.55775 0.0
H610 H 0.86656 0.61089 0.63633 0.0
H611 H 0.81861 0.54984 0.6134 0.0
C612 C 0.84074 0.52652 0.63283 0.0
C613 C 0.86212 0.52395 0.6444 0.0
C614 C 0.85821 0.60963 0.6194 0.0
C615 C 0.84968 0.56738 0.62608 0.0
C616 C 0.8612 0.62769 0.60334 0.0
C617 C 0.85232 0.62549 0.58067 0.0
C618 C 0.84655 0.58916 0.61254 0.0
C619 C 0.83866 0.60592 0.57522 0.0
C620 C 0.83453 0.54825 0.62342 0.0
C621 C 0.87619 0.54366 0.64766 0.0
N622 N 0.83653 0.58818 0.59096 0.0
N623 N 0.86978 0.56455 0.63843 0.0
H624 H 0.33671 0.4685 0.14439 0.0
H625 H 0.44 0.39017 0.10303 0.0
H626 H 0.35814 0.46077 0.07233 0.0
H627 H 0.39249 0.35806 0.15221 0.0
H628 H 0.41417 0.42328 0.0998 0.0
H629 H 0.35941 0.43319 0.15427 0.0
C630 C 0.34592 0.45927 0.13064 0.0
C631 C 0.34607 0.46789 0.10758 0.0
C632 C 0.40949 0.40919 0.1116 0.0
C633 C 0.3717 0.42805 0.11879 0.0
C634 C 0.42429 0.39031 0.11362 0.0
C635 C 0.41812 0.37111 0.12757 0.0
C636 C 0.38845 0.40932 0.12392 0.0
C637 C 0.39772 0.37251 0.14114 0.0
C638 C 0.35871 0.43919 0.13632 0.0
C639 C 0.35807 0.4552 0.09042 0.0
N640 N 0.38328 0.39139 0.13883 0.0
N641 N 0.37061 0.4361 0.09645 0.0
H642 H 0.42924 0.60262 0.83411 0.0
H643 H 0.32894 0.54467 0.9008 0.0
H644 H 0.38144 0.64338 0.87565 0.0
H645 H 0.35092 0.51588 0.83465 0.0
H646 H 0.34598 0.58227 0.88973 0.0
H647 H 0.39937 0.57197 0.83044 0.0
C648 C 0.4121 0.60543 0.84163 0.0
C649 C 0.40753 0.62536 0.85509 0.0
C650 C 0.34665 0.56791 0.87736 0.0
C651 C 0.37397 0.59038 0.85192 0.0
C652 C 0.33703 0.54648 0.88376 0.0
C653 C 0.3388 0.52728 0.86868 0.0
C654 C 0.35888 0.56984 0.85613 0.0
C655 C 0.34931 0.5304 0.84672 0.0
C656 C 0.39512 0.58798 0.83965 0.0
C657 C 0.38539 0.62819 0.86501 0.0
N658 N 0.35956 0.55117 0.84131 0.0
N659 N 0.36955 0.61062 0.86369 0.0
H660 H 0.46819 0.34141 0.84062 0.0
H661 H 0.36875 0.4186 0.89888 0.0
H662 H 0.45262 0.34423 0.91437 0.0
H663 H 0.37259 0.40989 0.8241 0.0
H664 H 0.39774 0.3882 0.90372 0.0
H665 H 0.43159 0.36264 0.8327 0.0
C666 C 0.45683 0.34604 0.85505 0.0
C667 C 0.46357 0.34155 0.87822 0.0
C668 C 0.39227 0.39263 0.88617 0.0
C669 C 0.42211 0.36567 0.8694 0.0
C670 C 0.37576 0.4101 0.88343 0.0
C671 C 0.36859 0.41684 0.86109 0.0
C672 C 0.40221 0.38199 0.86637 0.0
C673 C 0.37789 0.40513 0.84162 0.0
C674 C 0.43605 0.35819 0.85055 0.0
C675 C 0.44832 0.34782 0.8963 0.0
N676 N 0.39463 0.38841 0.84467 0.0
N677 N 0.42849 0.35971 0.89151 0.0
H678 H 0.59693 0.48841 0.85842 0.0
H679 H 0.59975 0.34998 0.85192 0.0
H680 H 0.66067 0.44849 0.85862 0.0
H681 H 0.53784 0.39228 0.85767 0.0
H682 H 0.62243 0.38537 0.8427 0.0
H683 H 0.5756 0.45355 0.84632 0.0
C684 C 0.60642 0.47223 0.85569 0.0
C685 C 0.63039 0.47105 0.85996 0.0
C686 C 0.60377 0.3868 0.84529 0.0
C687 C 0.60611 0.43088 0.84676 0.0
C688 C 0.59085 0.36663 0.85035 0.0
C689 C 0.56708 0.3685 0.85571 0.0
C690 C 0.59264 0.40875 0.84569 0.0
C691 C 0.55624 0.39031 0.85378 0.0
C692 C 0.59429 0.45233 0.84873 0.0
C693 C 0.64207 0.4499 0.85571 0.0
N694 N 0.56915 0.40964 0.84922 0.0
N695 N 0.6297 0.4304 0.84986 0.0
H696 H 0.63907 0.60888 0.87164 0.0
H697 H 0.50683 0.6244 0.8322 0.0
H698 H 0.60104 0.55699 0.83262 0.0
H699 H 0.54081 0.66391 0.8865 0.0
H700 H 0.54466 0.60688 0.82164 0.0
H701 H 0.60715 0.63661 0.86566 0.0
C702 C 0.62436 0.60373 0.86092 0.0
C703 C 0.6226 0.58085 0.85239 0.0
C704 C 0.5439 0.61979 0.8355 0.0
C705 C 0.58571 0.61195 0.8463 0.0
C706 C 0.52242 0.62978 0.84145 0.0
C707 C 0.52096 0.64541 0.86025 0.0
C708 C 0.56386 0.62562 0.8485 0.0
C709 C 0.5414 0.65182 0.87191 0.0
C710 C 0.60605 0.61942 0.85774 0.0
C711 C 0.60302 0.57466 0.83917 0.0
N712 N 0.56201 0.64174 0.86598 0.0
N713 N 0.58507 0.59004 0.83683 0.0
H714 H 0.65375 0.54366 0.08781 0.0
H715 H 0.55029 0.59608 0.15032 0.0
H716 H 0.62938 0.50954 0.15042 0.0
H717 H 0.60321 0.6414 0.12193 0.0
H718 H 0.57943 0.5649 0.15415 0.0
H719 H 0.63641 0.58039 0.10152 0.0
C720 C 0.64498 0.54409 0.10462 0.0
C721 C 0.64268 0.52373 0.11797 0.0
C722 C 0.5849 0.58196 0.14797 0.0
C723 C 0.62247 0.56527 0.1335 0.0
C724 C 0.56832 0.59974 0.14596 0.0
C725 C 0.57456 0.62121 0.13598 0.0
C726 C 0.60743 0.58554 0.13898 0.0
C727 C 0.59792 0.62506 0.12994 0.0
C728 C 0.63528 0.56501 0.11253 0.0
C729 C 0.63133 0.52501 0.13967 0.0
N730 N 0.61343 0.60713 0.13086 0.0
N731 N 0.62105 0.54536 0.14654 0.0
H732 H 0.34551 0.60739 0.10334 0.0
H733 H 0.47615 0.61366 0.14734 0.0
H734 H 0.37655 0.55499 0.1475 0.0
H735 H 0.44367 0.66494 0.10294 0.0
H736 H 0.43757 0.59691 0.15586 0.0
H737 H 0.37823 0.63348 0.11142 0.0
C738 C 0.35898 0.60173 0.11534 0.0
C739 C 0.35847 0.57918 0.12484 0.0
C740 C 0.4388 0.61213 0.14464 0.0
C741 C 0.39647 0.60843 0.13344 0.0
C742 C 0.46076 0.62168 0.13987 0.0
C743 C 0.46285 0.64053 0.12438 0.0
C744 C 0.419 0.62129 0.13342 0.0
C745 C 0.44261 0.65037 0.11499 0.0
C746 C 0.37774 0.61653 0.11985 0.0
C747 C 0.37637 0.57239 0.14001 0.0
N748 N 0.42154 0.64041 0.11937 0.0
N749 N 0.39495 0.58683 0.14352 0.0
H750 H 0.63858 0.38366 0.10907 0.0
H751 H 0.5081 0.35899 0.1513 0.0
H752 H 0.59587 0.43613 0.14221 0.0
H753 H 0.54062 0.32794 0.09079 0.0
H754 H 0.54516 0.37887 0.16049 0.0
H755 H 0.60767 0.35474 0.11551 0.0
C756 C 0.62294 0.38881 0.11842 0.0
C757 C 0.61954 0.4121 0.12516 0.0
C758 C 0.54426 0.36719 0.14558 0.0
C759 C 0.58424 0.37946 0.13228 0.0
C760 C 0.52328 0.3558 0.14043 0.0
C761 C 0.52152 0.34202 0.12022 0.0
C762 C 0.56346 0.36431 0.13058 0.0
C763 C 0.54141 0.33856 0.10646 0.0
C764 C 0.60533 0.37241 0.12199 0.0
C765 C 0.59896 0.41821 0.13686 0.0
N766 N 0.56157 0.34974 0.11182 0.0
N767 N 0.58184 0.40197 0.13986 0.0
H768 H 0.05846 0.30858 0.47882 0.0
H769 H 0.92773 0.2623 0.49721 0.0
H770 H 0.03839 0.26229 0.53473 0.0
H771 H 0.94864 0.31037 0.44287 0.0
H772 H 0.96857 0.25924 0.50945 0.0
H773 H 0.01869 0.30655 0.46332 0.0
C774 C 0.04562 0.29775 0.48758 0.0
C775 C 0.05139 0.2855 0.50788 0.0
C776 C 0.96419 0.27039 0.4948 0.0
C777 C 0.00604 0.2833 0.49071 0.0
C778 C 0.94091 0.27212 0.48781 0.0
C779 C 0.93477 0.28684 0.4692 0.0
C780 C 0.98138 0.28339 0.483 0.0
C781 C 0.95252 0.29911 0.45757 0.0
C782 C 0.02296 0.29663 0.47885 0.0
C783 C 0.03436 0.27187 0.51892 0.0
N784 N 0.97498 0.29717 0.46471 0.0
N785 N 0.01232 0.2712 0.51024 0.0
H786 H 0.7194 0.06136 0.48255 0.0
H787 H 0.69315 0.92634 0.50943 0.0
H788 H 0.68123 0.03736 0.54305 0.0
H789 H 0.70365 0.95209 0.43942 0.0
H790 H 0.69605 0.9666 0.52423 0.0
H791 H 0.72147 0.02059 0.46851 0.0
C792 C 0.71178 0.0475 0.49299 0.0
C793 C 0.70005 0.05263 0.51389 0.0
C794 C 0.69793 0.96342 0.50565 0.0
C795 C 0.70241 0.00641 0.49817 0.0
C796 C 0.69635 0.94054 0.49728 0.0
C797 C 0.69823 0.9362 0.4733 0.0
C798 C 0.70187 0.9819 0.48989 0.0
C799 C 0.70208 0.955 0.45807 0.0
C800 C 0.71281 0.02436 0.48493 0.0
C801 C 0.6903 0.03413 0.52674 0.0
N802 N 0.7039 0.97713 0.46663 0.0
N803 N 0.69171 0.01187 0.51869 0.0
H804 H 0.92852 0.73043 0.49061 0.0
H805 H 0.05649 0.67473 0.49671 0.0
H806 H 0.94645 0.66573 0.52506 0.0
H807 H 0.04185 0.73687 0.45682 0.0
H808 H 0.01627 0.67404 0.51028 0.0
H809 H 0.96987 0.73572 0.48033 0.0
C810 C 0.94104 0.71724 0.49581 0.0
C811 C 0.93389 0.6974 0.50845 0.0
C812 C 0.02173 0.68799 0.49868 0.0
C813 C 0.98097 0.7034 0.49693 0.0
C814 C 0.04471 0.68836 0.49101 0.0
C815 C 0.05221 0.70575 0.47561 0.0
C816 C 0.00601 0.70508 0.4907 0.0
C817 C 0.03648 0.7232 0.46878 0.0
C818 C 0.9646 0.72033 0.49003 0.0
C819 C 0.95089 0.6811 0.51507 0.0
N820 N 0.01391 0.72234 0.47624 0.0
N821 N 0.97351 0.68442 0.50916 0.0
H822 H 0.30291 0.03609 0.4403 0.0
H823 H 0.27794 0.94986 0.54525 0.0
H824 H 0.26214 0.05712 0.50027 0.0
H825 H 0.2888 0.92455 0.47509 0.0
H826 H 0.27456 0.98984 0.53001 0.0
H827 H 0.30065 -0.00455 0.45348 0.0
C828 C 0.2934 0.03213 0.4562 0.0
C829 C 0.28278 0.04997 0.46931 0.0
C830 C 0.27748 0.97553 0.51792 0.0
C831 C 0.28031 0.00364 0.4845 0.0
C832 C 0.27948 0.95284 0.5266 0.0
C833 C 0.28353 0.93418 0.51129 0.0
C834 C 0.28027 0.97953 0.49386 0.0
C835 C 0.28546 0.93865 0.48731 0.0
C836 C 0.29202 0.00894 0.46362 0.0
C837 C 0.27056 0.04387 0.48966 0.0
N838 N 0.28412 0.96102 0.47929 0.0
N839 N 0.26988 0.0212 0.49681 0.0
H840 H 0.50766 0.92489 0.30695 0.0
H841 H 0.48535 0.05622 0.26334 0.0
H842 H 0.45175 0.94354 0.26039 0.0
H843 H 0.53238 0.03725 0.31904 0.0
H844 H 0.47566 0.01472 0.25818 0.0
H845 H 0.52083 0.96569 0.30684 0.0
C846 C 0.49853 0.93761 0.29632 0.0
C847 C 0.47885 0.93114 0.28348 0.0
C848 C 0.48811 0.0197 0.27151 0.0
C849 C 0.49315 0.97767 0.28376 0.0
C850 C 0.49357 0.04335 0.2745 0.0
C851 C 0.50954 0.05017 0.29177 0.0
C852 C 0.4989 0.00284 0.28573 0.0
C853 C 0.51978 0.0328 0.30569 0.0
C854 C 0.50585 0.96086 0.29639 0.0
C855 C 0.4672 0.94807 0.27027 0.0
N856 N 0.51432 0.00996 0.30233 0.0
N857 N 0.47444 0.97071 0.27084 0.0
H858 H 0.92413 0.47494 0.27866 0.0
H859 H 0.05926 0.5051 0.26667 0.0
H860 H 0.94932 0.54598 0.28118 0.0
H861 H 0.03459 0.44435 0.30406 0.0
H862 H 0.01865 0.51809 0.26201 0.0
H863 H 0.96473 0.46099 0.27789 0.0
C864 C 0.93826 0.48754 0.2786 0.0
C865 C 0.93364 0.51156 0.27999 0.0
C866 C 0.02224 0.50187 0.27111 0.0
C867 C 0.97961 0.49592 0.27882 0.0
C868 C 0.04529 0.49445 0.27372 0.0
C869 C 0.05017 0.47374 0.28591 0.0
C870 C 0.00407 0.48815 0.28024 0.0
C871 C 0.03151 0.46055 0.29475 0.0
C872 C 0.96128 0.47962 0.27831 0.0
C873 C 0.95237 0.5273 0.2802 0.0
N874 N 0.00923 0.46791 0.29164 0.0
N875 N 0.97463 0.51921 0.27951 0.0
H876 H 0.48943 0.93379 0.66126 0.0
H877 H 0.48253 0.05542 0.72947 0.0
H878 H 0.51174 0.94052 0.73286 0.0
H879 H 0.44612 0.04033 0.6652 0.0
H880 H 0.49436 0.01408 0.73154 0.0
H881 H 0.47428 0.97357 0.66258 0.0
C882 C 0.49111 0.94375 0.67728 0.0
C883 C 0.50204 0.93414 0.69687 0.0
C884 C 0.48381 0.01996 0.717 0.0
C885 C 0.48488 0.97975 0.69861 0.0
C886 C 0.47713 0.04351 0.71577 0.0
C887 C 0.46374 0.0515 0.69686 0.0
C888 C 0.47718 0.00449 0.69908 0.0
C889 C 0.45697 0.03526 0.67976 0.0
C890 C 0.48236 0.96642 0.67811 0.0
C891 C 0.50333 0.94747 0.71741 0.0
N892 N 0.4639 0.01266 0.6812 0.0
N893 N 0.4951 0.96983 0.7177 0.0
H894 H 0.92741 0.49032 0.72617 0.0
H895 H 0.05248 0.49243 0.66478 0.0
H896 H 0.94507 0.45242 0.66324 0.0
H897 H 0.04035 0.52329 0.73245 0.0
H898 H 0.01303 0.47706 0.66484 0.0
H899 H 0.96833 0.50245 0.72966 0.0
C900 C 0.93985 0.48457 0.7131 0.0
C901 C 0.93276 0.47056 0.69423 0.0
C902 C 0.01888 0.48709 0.67979 0.0
C903 C 0.97941 0.48422 0.69817 0.0
C904 C 0.04141 0.496 0.67966 0.0
C905 C 0.0494 0.50951 0.69839 0.0
C906 C 0.00407 0.4919 0.69877 0.0
C907 C 0.03464 0.51299 0.71764 0.0
C908 C 0.96318 0.49143 0.71515 0.0
C909 C 0.9496 0.46351 0.67788 0.0
N910 N 0.01246 0.50446 0.71724 0.0
N911 N 0.97206 0.47048 0.68019 0.0
H912 H 0.26353 0.5001 0.92537 0.0
H913 H 0.29436 0.47473 0.05951 0.0
H914 H 0.31295 0.44744 0.94694 0.0
H915 H 0.26582 0.54022 0.03574 0.0
H916 H 0.29575 0.46094 0.01878 0.0
H917 H 0.25896 0.51194 0.96633 0.0
C918 C 0.27335 0.49098 0.93872 0.0
C919 C 0.28864 0.47278 0.93275 0.0
C920 C 0.28887 0.47819 0.02251 0.0
C921 C 0.28332 0.48603 0.97957 0.0
C922 C 0.28785 0.48591 0.04569 0.0
C923 C 0.27959 0.50841 0.05075 0.0
C924 C 0.28134 0.49306 0.00445 0.0
C925 C 0.27201 0.52263 0.03237 0.0
C926 C 0.27076 0.49776 0.96206 0.0
C927 C 0.30102 0.46162 0.95075 0.0
N928 N 0.27297 0.51469 0.00998 0.0
N929 N 0.29801 0.46836 0.97336 0.0
H930 H 0.53853 0.25915 0.94972 0.0
H931 H 0.4464 0.31377 0.03934 0.0
H932 H 0.48313 0.30607 0.93023 0.0
H933 H 0.4957 0.26048 0.05965 0.0
H934 H 0.46003 0.31082 -0.00069 0.0
H935 H 0.52316 0.25839 0.98993 0.0
C936 C 0.52298 0.26905 0.95396 0.0
C937 C 0.51199 0.28271 0.93694 0.0
C938 C 0.46786 0.29964 0.01241 0.0
C939 C 0.4946 0.28227 0.98248 0.0
C940 C 0.46017 0.30141 0.03539 0.0
C941 C 0.47008 0.28746 0.05293 0.0
C942 C 0.48565 0.28376 0.00676 0.0
C943 C 0.48761 0.27154 0.04663 0.0
C944 C 0.51427 0.26869 0.97681 0.0
C945 C 0.49207 0.29543 0.94303 0.0
N946 N 0.49495 0.27018 0.024 0.0
N947 N 0.48406 0.295 0.96536 0.0
H948 H 0.72295 0.48576 0.92724 0.0
H949 H 0.67392 0.5047 0.05676 0.0
H950 H 0.67112 0.53712 0.94651 0.0
H951 H 0.7301 0.45711 0.04123 0.0
H952 H 0.67496 0.51861 0.01645 0.0
H953 H 0.72773 0.47601 0.96879 0.0
C954 C 0.7126 0.49495 0.94018 0.0
C955 C 0.69637 0.51202 0.93342 0.0
C956 C 0.6873 0.50531 0.0218 0.0
C957 C 0.7019 0.50122 0.98072 0.0
C958 C 0.68671 0.49748 0.04481 0.0
C959 C 0.70195 0.47987 0.05204 0.0
C960 C 0.70298 0.4951 0.00585 0.0
C961 C 0.7182 0.47088 0.03609 0.0
C962 C 0.7154 0.48946 0.96385 0.0
C963 C 0.68353 0.52354 0.95086 0.0
N964 N 0.71815 0.47843 0.01353 0.0
N965 N 0.68654 0.51788 0.97364 0.0
H966 H 0.50271 0.67224 0.92562 0.0
H967 H 0.48693 0.72298 0.05522 0.0
H968 H 0.45679 0.72956 0.94222 0.0
H969 H 0.53221 0.6653 0.03726 0.0
H970 H 0.47679 0.72711 0.01385 0.0
H971 H 0.51596 0.67161 0.96625 0.0
C972 C 0.49571 0.68488 0.93789 0.0
C973 C 0.47883 0.70102 0.93086 0.0
C974 C 0.48896 0.71358 0.019 0.0
C975 C 0.49319 0.70007 0.97729 0.0
C976 C 0.49468 0.71116 0.04259 0.0
C977 C 0.51035 0.6937 0.04968 0.0
C978 C 0.49908 0.69849 0.00243 0.0
C979 C 0.5199 0.67888 0.03262 0.0
C980 C 0.50312 0.68448 0.96106 0.0
C981 C 0.47006 0.71703 0.94717 0.0
N982 N 0.51413 0.68163 0.0098 0.0
N983 N 0.47719 0.71603 0.9698 0.0
H984 H 0.18107 0.23281 0.55713 0.0
H985 H 0.23734 0.19448 0.43671 0.0
H986 H 0.17998 0.27705 0.49591 0.0
H987 H 0.26184 0.16751 0.50269 0.0
H988 H 0.21431 0.22381 0.45793 0.0
H989 H 0.20961 0.20756 0.53761 0.0
C990 C 0.18708 0.2374 0.53976 0.0
C991 C 0.178 0.25693 0.52806 0.0
C992 C 0.22493 0.2116 0.46772 0.0
C993 C 0.21018 0.22802 0.50558 0.0
C994 C 0.23796 0.19488 0.45563 0.0
C995 C 0.25157 0.1788 0.468 0.0
C996 C 0.22514 0.21175 0.4923 0.0
C997 C 0.25178 0.17988 0.49253 0.0
C998 C 0.20332 0.223 0.52864 0.0
C999 C 0.18643 0.26211 0.50557 0.0
N1000 N 0.23852 0.19592 0.50392 0.0
N1001 N 0.20179 0.24753 0.49492 0.0
H1002 H 0.70817 0.19329 0.50841 0.0
H1003 H 0.84143 0.22147 0.48387 0.0
H1004 H 0.76552 0.16041 0.54455 0.0
H1005 H 0.78771 0.27129 0.46628 0.0
H1006 H 0.81264 0.1978 0.50414 0.0
H1007 H 0.73568 0.22166 0.49155 0.0
C1008 C 0.72644 0.19224 0.51309 0.0
C1009 C 0.73459 0.1743 0.52775 0.0
C1010 C 0.80704 0.2139 0.4959 0.0
C1011 C 0.76599 0.20635 0.50833 0.0
C1012 C 0.82346 0.22735 0.48413 0.0
C1013 C 0.81688 0.24828 0.47325 0.0
C1014 C 0.78367 0.22114 0.49654 0.0
C1015 C 0.79342 0.25522 0.47448 0.0
C1016 C 0.74209 0.2084 0.50343 0.0
C1017 C 0.75842 0.17377 0.53319 0.0
N1018 N 0.77751 0.24152 0.48576 0.0
N1019 N 0.77326 0.18935 0.52328 0.0
H1020 H 0.79351 0.70948 0.50058 0.0
H1021 H 0.76497 0.8436 0.48343 0.0
H1022 H 0.82174 0.76421 0.5443 0.0
H1023 H 0.71651 0.79044 0.4608 0.0
H1024 H 0.78766 0.81378 0.50341 0.0
H1025 H 0.76585 0.73777 0.48419 0.0
C1026 C 0.79368 0.72733 0.50696 0.0
C1027 C 0.81014 0.73459 0.52362 0.0
C1028 C 0.77207 0.80858 0.49411 0.0
C1029 C 0.77894 0.76688 0.50476 0.0
C1030 C 0.75924 0.82555 0.48248 0.0
C1031 C 0.73896 0.81938 0.47033 0.0
C1032 C 0.76485 0.78514 0.49324 0.0
C1033 C 0.7321 0.79582 0.46999 0.0
C1034 C 0.77791 0.74342 0.4976 0.0
C1035 C 0.80952 0.75787 0.53136 0.0
N1036 N 0.7452 0.7794 0.48114 0.0
N1037 N 0.79441 0.77325 0.52162 0.0
H1038 H 0.18524 0.70896 0.49232 0.0
H1039 H 0.23271 0.83738 0.48819 0.0
H1040 H 0.1855 0.75052 0.42926 0.0
H1041 H 0.26194 0.78783 0.53683 0.0
H1042 H 0.21359 0.80536 0.46761 0.0
H1043 H 0.21281 0.73653 0.50994 0.0
C1044 C 0.19143 0.7236 0.48201 0.0
C1045 C 0.18274 0.72771 0.45941 0.0
C1046 C 0.22425 0.80139 0.48271 0.0
C1047 C 0.21388 0.75925 0.47956 0.0
C1048 C 0.23492 0.81966 0.49458 0.0
C1049 C 0.24863 0.81508 0.51425 0.0
C1050 C 0.22683 0.77842 0.49092 0.0
C1051 C 0.25138 0.79189 0.52168 0.0
C1052 C 0.20715 0.73928 0.49209 0.0
C1053 C 0.19147 0.74683 0.44682 0.0
N1054 N 0.24022 0.7743 0.51017 0.0
N1055 N 0.20625 0.76213 0.45722 0.0
H1056 H 0.52104 0.19402 0.27017 0.0
H1057 H 0.44673 0.21441 0.15445 0.0
H1058 H 0.51216 0.14212 0.21598 0.0
H1059 H 0.47582 0.27195 0.19381 0.0
H1060 H 0.46578 0.18709 0.1809 0.0
H1061 H 0.50102 0.22268 0.24535 0.0
C1062 C 0.51506 0.18874 0.253 0.0
C1063 C 0.51823 0.16571 0.24508 0.0
C1064 C 0.46793 0.2057 0.18379 0.0
C1065 C 0.49499 0.19803 0.21706 0.0
C1066 C 0.45691 0.22133 0.16881 0.0
C1067 C 0.45988 0.2455 0.17181 0.0
C1068 C 0.48189 0.21429 0.202 0.0
C1069 C 0.47321 0.25343 0.1908 0.0
C1070 C 0.50362 0.20504 0.23892 0.0
C1071 C 0.5102 0.15972 0.22273 0.0
N1072 N 0.48384 0.23782 0.20518 0.0
N1073 N 0.49874 0.17573 0.20959 0.0
H1074 H 0.79026 0.55096 0.23858 0.0
H1075 H 0.75216 0.43056 0.18406 0.0
H1076 H 0.81093 0.4851 0.26925 0.0
H1077 H 0.70888 0.49224 0.17905 0.0
H1078 H 0.77539 0.45027 0.21414 0.0
H1079 H 0.76142 0.53003 0.2149 0.0
C1080 C 0.78853 0.53218 0.24054 0.0
C1081 C 0.80299 0.51974 0.25583 0.0
C1082 C 0.76057 0.45929 0.20665 0.0
C1083 C 0.77053 0.49579 0.22868 0.0
C1084 C 0.74736 0.44808 0.18952 0.0
C1085 C 0.72867 0.45981 0.17902 0.0
C1086 C 0.75526 0.48248 0.21285 0.0
C1087 C 0.72316 0.48252 0.1867 0.0
C1088 C 0.77208 0.52028 0.22709 0.0
C1089 C 0.80008 0.4954 0.25771 0.0
N1090 N 0.73664 0.49327 0.20291 0.0
N1091 N 0.78439 0.48415 0.24401 0.0
H1092 H 0.48108 0.75296 0.14538 0.0
H1093 H 0.48725 0.79945 0.27517 0.0
H1094 H 0.53121 0.72548 0.19433 0.0
H1095 H 0.42595 0.8055 0.23181 0.0
H1096 H 0.50402 0.77218 0.24681 0.0
H1097 H 0.46138 0.7731 0.17731 0.0
C1098 C 0.48803 0.75137 0.16292 0.0
C1099 C 0.50785 0.7378 0.16734 0.0
C1100 C 0.48672 0.77914 0.24377 0.0
C1101 C 0.48545 0.76078 0.20396 0.0
C1102 C 0.47708 0.79467 0.25994 0.0
C1103 C 0.45528 0.80503 0.25563 0.0
C1104 C 0.47449 0.77412 0.22316 0.0
C1105 C 0.44293 0.79819 0.23567 0.0
C1106 C 0.47665 0.76265 0.18117 0.0
C1107 C 0.51593 0.73587 0.19036 0.0
N1108 N 0.45286 0.7834 0.22 0.0
N1109 N 0.50483 0.74754 0.2079 0.0
H1110 H 0.14836 0.50217 0.23528 0.0
H1111 H 0.27569 0.49399 0.18589 0.0
H1112 H 0.19726 0.45337 0.26517 0.0
H1113 H 0.23503 0.55759 0.18386 0.0
H1114 H 0.24831 0.47794 0.21465 0.0
H1115 H 0.18035 0.52166 0.21506 0.0
C1116 C 0.16593 0.49556 0.23747 0.0
C1117 C 0.17032 0.47613 0.25165 0.0
C1118 C 0.24571 0.49557 0.20821 0.0
C1119 C 0.20697 0.49817 0.22851 0.0
C1120 C 0.26129 0.50475 0.1918 0.0
C1121 C 0.25739 0.52703 0.18215 0.0
C1122 C 0.22604 0.50866 0.21468 0.0
C1123 C 0.23856 0.54024 0.19056 0.0
C1124 C 0.18419 0.50679 0.22614 0.0
C1125 C 0.19335 0.46836 0.25429 0.0
N1126 N 0.22336 0.53069 0.20604 0.0
N1127 N 0.21092 0.47922 0.24246 0.0
H1128 H 0.46312 0.718 0.78778 0.0
H1129 H 0.54217 0.83141 0.77108 0.0
H1130 H 0.47098 0.77257 0.83944 0.0
H1131 H 0.51153 0.79584 0.71195 0.0
H1132 H 0.52266 0.80393 0.79714 0.0
H1133 H 0.4856 0.74191 0.75996 0.0
C1134 C 0.46939 0.73505 0.79316 0.0
C1135 C 0.46517 0.7434 0.81587 0.0
C1136 C 0.52035 0.80206 0.77844 0.0
C1137 C 0.4913 0.77019 0.78469 0.0
C1138 C 0.53163 0.81761 0.76354 0.0
C1139 C 0.52814 0.81616 0.73934 0.0
C1140 C 0.5056 0.78486 0.76908 0.0
C1141 C 0.51446 0.79774 0.73055 0.0
C1142 C 0.48225 0.74857 0.77738 0.0
C1143 C 0.47366 0.76554 0.82206 0.0
N1144 N 0.50347 0.78286 0.74547 0.0
N1145 N 0.48653 0.77806 0.80663 0.0
H1146 H 0.22477 0.43353 0.81314 0.0
H1147 H 0.19443 0.53461 0.72122 0.0
H1148 H 0.27319 0.4892 0.79718 0.0
H1149 H 0.1435 0.49268 0.75773 0.0
H1150 H 0.2256 0.51438 0.74301 0.0
H1151 H 0.19705 0.45055 0.78575 0.0
C1152 C 0.22969 0.4492 0.80368 0.0
C1153 C 0.25121 0.46011 0.80768 0.0
C1154 C 0.20757 0.50963 0.74609 0.0
C1155 C 0.21942 0.47984 0.77644 0.0
C1156 C 0.18988 0.52112 0.73372 0.0
C1157 C 0.16645 0.51546 0.73797 0.0
C1158 C 0.20164 0.49203 0.76223 0.0
C1159 C 0.16134 0.49785 0.75425 0.0
C1160 C 0.21381 0.45897 0.78812 0.0
C1161 C 0.25671 0.48028 0.79472 0.0
N1162 N 0.17877 0.48672 0.76569 0.0
N1163 N 0.2408 0.48965 0.77979 0.0
H1164 H 0.46359 0.19732 0.71824 0.0
H1165 H 0.54509 0.21693 0.82941 0.0
H1166 H 0.47822 0.14437 0.77002 0.0
H1167 H 0.50894 0.27419 0.7961 0.0
H1168 H 0.52715 0.18992 0.8018 0.0
H1169 H 0.4855 0.22575 0.74185 0.0
C1170 C 0.47132 0.19173 0.73458 0.0
C1171 C 0.46898 0.16854 0.74229 0.0
C1172 C 0.5233 0.20843 0.80042 0.0
C1173 C 0.49435 0.20058 0.76884 0.0
C1174 C 0.53366 0.22389 0.81606 0.0
C1175 C 0.52822 0.2478 0.81524 0.0
C1176 C 0.50757 0.21695 0.78371 0.0
C1177 C 0.51337 0.25583 0.79748 0.0
C1178 C 0.48382 0.20789 0.74795 0.0
C1179 C 0.47938 0.16212 0.76351 0.0
N1180 N 0.50339 0.24037 0.78244 0.0
N1181 N 0.49173 0.17802 0.77596 0.0
H1182 H 0.71187 0.51331 0.78998 0.0
H1183 H 0.83813 0.45897 0.77054 0.0
H1184 H 0.76984 0.52419 0.83685 0.0
H1185 H 0.79061 0.46977 0.71304 0.0
H1186 H 0.81058 0.47833 0.79656 0.0
H1187 H 0.73845 0.49409 0.7623 0.0
C1188 C 0.73018 0.51186 0.79434 0.0
C1189 C 0.73867 0.52025 0.81577 0.0
C1190 C 0.80614 0.47641 0.77826 0.0
C1191 C 0.76883 0.49799 0.78459 0.0
C1192 C 0.82177 0.46517 0.76342 0.0
C1193 C 0.81668 0.46285 0.73956 0.0
C1194 C 0.78516 0.4852 0.76927 0.0
C1195 C 0.79522 0.47129 0.73132 0.0
C1196 C 0.74528 0.50087 0.77859 0.0
C1197 C 0.76253 0.51798 0.82055 0.0
N1198 N 0.78018 0.48215 0.74619 0.0
N1199 N 0.77672 0.50685 0.80519 0.0
loop_
_geom_bond_atom_site_label_1
_geom_bond_atom_site_label_2
_geom_bond_distance
_geom_bond_site_symmetry_2
_ccdc_geom_bond_type
Mg0 O1 2.028 . S
Mg0 O7 1.986 . S
Mg0 O9 2.114 . S
Mg0 O10 2.251 . S
Mg0 O13 2.010 . S
O1 Mg0 2.028 . S
O1 C4 1.250 . S
O2 Mg3 2.028 . S
O2 C4 1.248 . S
Mg3 O2 2.028 . S
Mg3 O8 2.032 . S
Mg3 O10 2.079 . S
C4 O1 1.250 . S
C4 O2 1.248 . S
C5 O6 1.264 . S
C5 O13 1.249 . S
O6 C5 1.264 . S
O7 Mg0 1.986 . S
O7 C11 1.246 . S
O8 Mg3 2.032 . S
O8 C11 1.259 . S
O9 Mg0 2.114 . S
O9 C12 1.252 . S
O10 Mg0 2.251 . S
O10 Mg3 2.079 . S
O10 C12 1.273 . S
C11 O7 1.246 . S
C11 O8 1.259 . S
C12 O9 1.252 . S
C12 O10 1.273 . S
O13 Mg0 2.010 . S
O13 C5 1.249 . S
Mg14 O15 2.028 . S
Mg14 O21 1.986 . S
Mg14 O23 2.114 . S
Mg14 O24 2.251 . S
Mg14 O27 2.010 . S
O15 Mg14 2.028 . S
O15 C18 1.250 . S
O16 Mg17 2.028 . S
O16 C18 1.248 . S
Mg17 O16 2.028 . S
Mg17 O22 2.032 . S
Mg17 O24 2.079 . S
C18 O15 1.250 . S
C18 O16 1.248 . S
C19 O20 1.264 . S
C19 O27 1.249 . S
O20 C19 1.264 . S
O21 Mg14 1.986 . S
O21 C25 1.246 . S
O22 Mg17 2.032 . S
O22 C25 1.259 . S
O23 Mg14 2.114 . S
O23 C26 1.252 . S
O24 Mg14 2.251 . S
O24 Mg17 2.079 . S
O24 C26 1.273 . S
C25 O21 1.246 . S
C25 O22 1.259 . S
C26 O23 1.252 . S
C26 O24 1.273 . S
O27 Mg14 2.010 . S
O27 C19 1.249 . S
Mg28 O29 2.028 . S
Mg28 O35 1.986 . S
Mg28 O37 2.114 . S
Mg28 O38 2.251 . S
Mg28 O41 2.010 . S
O29 Mg28 2.028 . S
O29 C32 1.250 . S
O30 Mg31 2.028 . S
O30 C32 1.248 . S
Mg31 O30 2.028 . S
Mg31 O36 2.032 . S
Mg31 O38 2.079 . S
C32 O29 1.250 . S
C32 O30 1.248 . S
C33 O34 1.264 . S
C33 O41 1.249 . S
O34 C33 1.264 . S
O35 Mg28 1.986 . S
O35 C39 1.246 . S
O36 Mg31 2.032 . S
O36 C39 1.259 . S
O37 Mg28 2.114 . S
O37 C40 1.252 . S
O38 Mg28 2.251 . S
O38 Mg31 2.079 . S
O38 C40 1.273 . S
C39 O35 1.246 . S
C39 O36 1.259 . S
C40 O37 1.252 . S
C40 O38 1.273 . S
O41 Mg28 2.010 . S
O41 C33 1.249 . S
Mg42 O43 2.028 . S
Mg42 O49 1.986 . S
Mg42 O51 2.114 . S
Mg42 O52 2.251 . S
Mg42 O55 2.010 . S
O43 Mg42 2.028 . S
O43 C46 1.250 . S
O44 Mg45 2.028 . S
O44 C46 1.248 . S
Mg45 O44 2.028 . S
Mg45 O50 2.032 . S
Mg45 O52 2.079 . S
C46 O43 1.250 . S
C46 O44 1.248 . S
C47 O48 1.264 . S
C47 O55 1.249 . S
O48 C47 1.264 . S
O49 Mg42 1.986 . S
O49 C53 1.246 . S
O50 Mg45 2.032 . S
O50 C53 1.259 . S
O51 Mg42 2.114 . S
O51 C54 1.252 . S
O52 Mg42 2.251 . S
O52 Mg45 2.079 . S
O52 C54 1.273 . S
C53 O49 1.246 . S
C53 O50 1.259 . S
C54 O51 1.252 . S
C54 O52 1.273 . S
O55 Mg42 2.010 . S
O55 C47 1.249 . S
Mg56 O57 2.028 . S
Mg56 O63 1.986 . S
Mg56 O65 2.114 . S
Mg56 O66 2.251 . S
Mg56 O69 2.010 . S
O57 Mg56 2.028 . S
O57 C60 1.250 . S
O58 Mg59 2.028 . S
O58 C60 1.248 . S
Mg59 O58 2.028 . S
Mg59 O64 2.032 . S
Mg59 O66 2.079 . S
C60 O57 1.250 . S
C60 O58 1.248 . S
C61 O62 1.264 . S
C61 O69 1.249 . S
O62 C61 1.264 . S
O63 Mg56 1.986 . S
O63 C67 1.246 . S
O64 Mg59 2.032 . S
O64 C67 1.259 . S
O65 Mg56 2.114 . S
O65 C68 1.252 . S
O66 Mg56 2.251 . S
O66 Mg59 2.079 . S
O66 C68 1.273 . S
C67 O63 1.246 . S
C67 O64 1.259 . S
C68 O65 1.252 . S
C68 O66 1.273 . S
O69 Mg56 2.010 . S
O69 C61 1.249 . S
Mg70 O71 2.028 . S
Mg70 O77 1.986 . S
Mg70 O79 2.114 . S
Mg70 O80 2.251 . S
Mg70 O83 2.010 . S
O71 Mg70 2.028 . S
O71 C74 1.250 . S
O72 Mg73 2.028 . S
O72 C74 1.248 . S
Mg73 O72 2.028 . S
Mg73 O78 2.032 . S
Mg73 O80 2.079 . S
C74 O71 1.250 . S
C74 O72 1.248 . S
C75 O76 1.264 . S
C75 O83 1.249 . S
O76 C75 1.264 . S
O77 Mg70 1.986 . S
O77 C81 1.246 . S
O78 Mg73 2.032 . S
O78 C81 1.259 . S
O79 Mg70 2.114 . S
O79 C82 1.252 . S
O80 Mg70 2.251 . S
O80 Mg73 2.079 . S
O80 C82 1.273 . S
C81 O77 1.246 . S
C81 O78 1.259 . S
C82 O79 1.252 . S
C82 O80 1.273 . S
O83 Mg70 2.010 . S
O83 C75 1.249 . S
Mg84 O85 2.028 . S
Mg84 O91 1.986 . S
Mg84 O93 2.114 . S
Mg84 O94 2.251 . S
Mg84 O97 2.010 . S
O85 Mg84 2.028 . S
O85 C88 1.250 . S
O86 Mg87 2.028 . S
O86 C88 1.248 . S
Mg87 O86 2.028 . S
Mg87 O92 2.032 . S
Mg87 O94 2.079 . S
C88 O85 1.250 . S
C88 O86 1.248 . S
C89 O90 1.264 . S
C89 O97 1.249 . S
O90 C89 1.264 . S
O91 Mg84 1.986 . S
O91 C95 1.246 . S
O92 Mg87 2.032 . S
O92 C95 1.259 . S
O93 Mg84 2.114 . S
O93 C96 1.252 . S
O94 Mg84 2.251 . S
O94 Mg87 2.079 . S
O94 C96 1.273 . S
C95 O91 1.246 . S
C95 O92 1.259 . S
C96 O93 1.252 . S
C96 O94 1.273 . S
O97 Mg84 2.010 . S
O97 C89 1.249 . S
Mg98 O99 2.028 . S
Mg98 O105 1.986 . S
Mg98 O107 2.114 . S
Mg98 O108 2.251 . S
Mg98 O111 2.010 . S
O99 Mg98 2.028 . S
O99 C102 1.250 . S
O100 Mg101 2.028 . S
O100 C102 1.248 . S
Mg101 O100 2.028 . S
Mg101 O106 2.032 . S
Mg101 O108 2.079 . S
C102 O99 1.250 . S
C102 O100 1.248 . S
C103 O104 1.264 . S
C103 O111 1.249 . S
O104 C103 1.264 . S
O105 Mg98 1.986 . S
O105 C109 1.246 . S
O106 Mg101 2.032 . S
O106 C109 1.259 . S
O107 Mg98 2.114 . S
O107 C110 1.252 . S
O108 Mg98 2.251 . S
O108 Mg101 2.079 . S
O108 C110 1.273 . S
C109 O105 1.246 . S
C109 O106 1.259 . S
C110 O107 1.252 . S
C110 O108 1.273 . S
O111 Mg98 2.010 . S
O111 C103 1.249 . S
Mg112 O113 2.028 . S
Mg112 O119 1.986 . S
Mg112 O121 2.114 . S
Mg112 O122 2.251 . S
Mg112 O125 2.010 . S
O113 Mg112 2.028 . S
O113 C116 1.250 . S
O114 Mg115 2.028 . S
O114 C116 1.248 . S
Mg115 O114 2.028 . S
Mg115 O120 2.032 . S
Mg115 O122 2.079 . S
C116 O113 1.250 . S
C116 O114 1.248 . S
C117 O118 1.264 . S
C117 O125 1.249 . S
O118 C117 1.264 . S
O119 Mg112 1.986 . S
O119 C123 1.246 . S
O120 Mg115 2.032 . S
O120 C123 1.259 . S
O121 Mg112 2.114 . S
O121 C124 1.252 . S
O122 Mg112 2.251 . S
O122 Mg115 2.079 . S
O122 C124 1.273 . S
C123 O119 1.246 . S
C123 O120 1.259 . S
C124 O121 1.252 . S
C124 O122 1.273 . S
O125 Mg112 2.010 . S
O125 C117 1.249 . S
Mg126 O127 2.028 . S
Mg126 O133 1.986 . S
Mg126 O135 2.114 . S
Mg126 O136 2.251 . S
Mg126 O139 2.010 . S
O127 Mg126 2.028 . S
O127 C130 1.250 . S
O128 Mg129 2.028 . S
O128 C130 1.248 . S
Mg129 O128 2.028 . S
Mg129 O134 2.032 . S
Mg129 O136 2.079 . S
C130 O127 1.250 . S
C130 O128 1.248 . S
C131 O132 1.264 . S
C131 O139 1.249 . S
O132 C131 1.264 . S
O133 Mg126 1.986 . S
O133 C137 1.246 . S
O134 Mg129 2.032 . S
O134 C137 1.259 . S
O135 Mg126 2.114 . S
O135 C138 1.252 . S
O136 Mg126 2.251 . S
O136 Mg129 2.079 . S
O136 C138 1.273 . S
C137 O133 1.246 . S
C137 O134 1.259 . S
C138 O135 1.252 . S
C138 O136 1.273 . S
O139 Mg126 2.010 . S
O139 C131 1.249 . S
Mg140 O141 2.028 . S
Mg140 O147 1.986 . S
Mg140 O149 2.114 . S
Mg140 O150 2.251 . S
Mg140 O153 2.010 . S
O141 Mg140 2.028 . S
O141 C144 1.250 . S
O142 Mg143 2.028 . S
O142 C144 1.248 . S
Mg143 O142 2.028 . S
Mg143 O148 2.032 . S
Mg143 O150 2.079 . S
C144 O141 1.250 . S
C144 O142 1.248 . S
C145 O146 1.264 . S
C145 O153 1.249 . S
O146 C145 1.264 . S
O147 Mg140 1.986 . S
O147 C151 1.246 . S
O148 Mg143 2.032 . S
O148 C151 1.259 . S
O149 Mg140 2.114 . S
O149 C152 1.252 . S
O150 Mg140 2.251 . S
O150 Mg143 2.079 . S
O150 C152 1.273 . S
C151 O147 1.246 . S
C151 O148 1.259 . S
C152 O149 1.252 . S
C152 O150 1.273 . S
O153 Mg140 2.010 . S
O153 C145 1.249 . S
Mg154 O155 2.028 . S
Mg154 O161 1.986 . S
Mg154 O163 2.114 . S
Mg154 O164 2.251 . S
Mg154 O167 2.010 . S
O155 Mg154 2.028 . S
O155 C158 1.250 . S
O156 Mg157 2.028 . S
O156 C158 1.248 . S
Mg157 O156 2.028 . S
Mg157 O162 2.032 . S
Mg157 O164 2.079 . S
C158 O155 1.250 . S
C158 O156 1.248 . S
C159 O160 1.264 . S
C159 O167 1.249 . S
O160 C159 1.264 . S
O161 Mg154 1.986 . S
O161 C165 1.246 . S
O162 Mg157 2.032 . S
O162 C165 1.259 . S
O163 Mg154 2.114 . S
O163 C166 1.252 . S
O164 Mg154 2.251 . S
O164 Mg157 2.079 . S
O164 C166 1.273 . S
C165 O161 1.246 . S
C165 O162 1.259 . S
C166 O163 1.252 . S
C166 O164 1.273 . S
O167 Mg154 2.010 . S
O167 C159 1.249 . S
Mg168 O169 2.028 . S
Mg168 O175 1.986 . S
Mg168 O177 2.114 . S
Mg168 O178 2.251 . S
Mg168 O181 2.010 . S
O169 Mg168 2.028 . S
O169 C172 1.250 . S
O170 Mg171 2.028 . S
O170 C172 1.248 . S
Mg171 O170 2.028 . S
Mg171 O176 2.032 . S
Mg171 O178 2.079 . S
C172 O169 1.250 . S
C172 O170 1.248 . S
C173 O174 1.264 . S
C173 O181 1.249 . S
O174 C173 1.264 . S
O175 Mg168 1.986 . S
O175 C179 1.246 . S
O176 Mg171 2.032 . S
O176 C179 1.259 . S
O177 Mg168 2.114 . S
O177 C180 1.252 . S
O178 Mg168 2.251 . S
O178 Mg171 2.079 . S
O178 C180 1.273 . S
C179 O175 1.246 . S
C179 O176 1.259 . S
C180 O177 1.252 . S
C180 O178 1.273 . S
O181 Mg168 2.010 . S
O181 C173 1.249 . S
Mg182 O183 2.028 . S
Mg182 O189 1.986 . S
Mg182 O191 2.114 . S
Mg182 O192 2.251 . S
Mg182 O195 2.010 . S
O183 Mg182 2.028 . S
O183 C186 1.250 . S
O184 Mg185 2.028 . S
O184 C186 1.248 . S
Mg185 O184 2.028 . S
Mg185 O190 2.032 . S
Mg185 O192 2.079 . S
C186 O183 1.250 . S
C186 O184 1.248 . S
C187 O188 1.264 . S
C187 O195 1.249 . S
O188 C187 1.264 . S
O189 Mg182 1.986 . S
O189 C193 1.246 . S
O190 Mg185 2.032 . S
O190 C193 1.259 . S
O191 Mg182 2.114 . S
O191 C194 1.252 . S
O192 Mg182 2.251 . S
O192 Mg185 2.079 . S
O192 C194 1.273 . S
C193 O189 1.246 . S
C193 O190 1.259 . S
C194 O191 1.252 . S
C194 O192 1.273 . S
O195 Mg182 2.010 . S
O195 C187 1.249 . S
Mg196 O197 2.028 . S
Mg196 O203 1.986 . S
Mg196 O205 2.114 . S
Mg196 O206 2.251 . S
Mg196 O209 2.010 . S
O197 Mg196 2.028 . S
O197 C200 1.250 . S
O198 Mg199 2.028 . S
O198 C200 1.248 . S
Mg199 O198 2.028 . S
Mg199 O204 2.032 . S
Mg199 O206 2.079 . S
C200 O197 1.250 . S
C200 O198 1.248 . S
C201 O202 1.264 . S
C201 O209 1.249 . S
O202 C201 1.264 . S
O203 Mg196 1.986 . S
O203 C207 1.246 . S
O204 Mg199 2.032 . S
O204 C207 1.259 . S
O205 Mg196 2.114 . S
O205 C208 1.252 . S
O206 Mg196 2.251 . S
O206 Mg199 2.079 . S
O206 C208 1.273 . S
C207 O203 1.246 . S
C207 O204 1.259 . S
C208 O205 1.252 . S
C208 O206 1.273 . S
O209 Mg196 2.010 . S
O209 C201 1.249 . S
Mg210 O211 2.028 . S
Mg210 O217 1.986 . S
Mg210 O219 2.114 . S
Mg210 O220 2.251 . S
Mg210 O223 2.010 . S
O211 Mg210 2.028 . S
O211 C214 1.250 . S
O212 Mg213 2.028 . S
O212 C214 1.248 . S
Mg213 O212 2.028 . S
Mg213 O218 2.032 . S
Mg213 O220 2.079 . S
C214 O211 1.250 . S
C214 O212 1.248 . S
C215 O216 1.264 . S
C215 O223 1.249 . S
O216 C215 1.264 . S
O217 Mg210 1.986 . S
O217 C221 1.246 . S
O218 Mg213 2.032 . S
O218 C221 1.259 . S
O219 Mg210 2.114 . S
O219 C222 1.252 . S
O220 Mg210 2.251 . S
O220 Mg213 2.079 . S
O220 C222 1.273 . S
C221 O217 1.246 . S
C221 O218 1.259 . S
C222 O219 1.252 . S
C222 O220 1.273 . S
O223 Mg210 2.010 . S
O223 C215 1.249 . S
Mg224 O225 2.028 . S
Mg224 O231 1.986 . S
Mg224 O233 2.114 . S
Mg224 O234 2.251 . S
Mg224 O237 2.010 . S
O225 Mg224 2.028 . S
O225 C228 1.250 . S
O226 Mg227 2.028 . S
O226 C228 1.248 . S
Mg227 O226 2.028 . S
Mg227 O232 2.032 . S
Mg227 O234 2.079 . S
C228 O225 1.250 . S
C228 O226 1.248 . S
C229 O230 1.264 . S
C229 O237 1.249 . S
O230 C229 1.264 . S
O231 Mg224 1.986 . S
O231 C235 1.246 . S
O232 Mg227 2.032 . S
O232 C235 1.259 . S
O233 Mg224 2.114 . S
O233 C236 1.252 . S
O234 Mg224 2.251 . S
O234 Mg227 2.079 . S
O234 C236 1.273 . S
C235 O231 1.246 . S
C235 O232 1.259 . S
C236 O233 1.252 . S
C236 O234 1.273 . S
O237 Mg224 2.010 . S
O237 C229 1.249 . S
Mg238 O239 2.028 . S
Mg238 O245 1.986 . S
Mg238 O247 2.114 . S
Mg238 O248 2.251 . S
Mg238 O251 2.010 . S
O239 Mg238 2.028 . S
O239 C242 1.250 . S
O240 Mg241 2.028 . S
O240 C242 1.248 . S
Mg241 O240 2.028 . S
Mg241 O246 2.032 . S
Mg241 O248 2.079 . S
C242 O239 1.250 . S
C242 O240 1.248 . S
C243 O244 1.264 . S
C243 O251 1.249 . S
O244 C243 1.264 . S
O245 Mg238 1.986 . S
O245 C249 1.246 . S
O246 Mg241 2.032 . S
O246 C249 1.259 . S
O247 Mg238 2.114 . S
O247 C250 1.252 . S
O248 Mg238 2.251 . S
O248 Mg241 2.079 . S
O248 C250 1.273 . S
C249 O245 1.246 . S
C249 O246 1.259 . S
C250 O247 1.252 . S
C250 O248 1.273 . S
O251 Mg238 2.010 . S
O251 C243 1.249 . S
Mg252 O253 2.028 . S
Mg252 O259 1.986 . S
Mg252 O261 2.114 . S
Mg252 O262 2.251 . S
Mg252 O265 2.010 . S
O253 Mg252 2.028 . S
O253 C256 1.250 . S
O254 Mg255 2.028 . S
O254 C256 1.248 . S
Mg255 O254 2.028 . S
Mg255 O260 2.032 . S
Mg255 O262 2.079 . S
C256 O253 1.250 . S
C256 O254 1.248 . S
C257 O258 1.264 . S
C257 O265 1.249 . S
O258 C257 1.264 . S
O259 Mg252 1.986 . S
O259 C263 1.246 . S
O260 Mg255 2.032 . S
O260 C263 1.259 . S
O261 Mg252 2.114 . S
O261 C264 1.252 . S
O262 Mg252 2.251 . S
O262 Mg255 2.079 . S
O262 C264 1.273 . S
C263 O259 1.246 . S
C263 O260 1.259 . S
C264 O261 1.252 . S
C264 O262 1.273 . S
O265 Mg252 2.010 . S
O265 C257 1.249 . S
Mg266 O267 2.028 . S
Mg266 O273 1.986 . S
Mg266 O275 2.114 . S
Mg266 O276 2.251 . S
Mg266 O279 2.010 . S
O267 Mg266 2.028 . S
O267 C270 1.250 . S
O268 Mg269 2.028 . S
O268 C270 1.248 . S
Mg269 O268 2.028 . S
Mg269 O274 2.032 . S
Mg269 O276 2.079 . S
C270 O267 1.250 . S
C270 O268 1.248 . S
C271 O272 1.264 . S
C271 O279 1.249 . S
O272 C271 1.264 . S
O273 Mg266 1.986 . S
O273 C277 1.246 . S
O274 Mg269 2.032 . S
O274 C277 1.259 . S
O275 Mg266 2.114 . S
O275 C278 1.252 . S
O276 Mg266 2.251 . S
O276 Mg269 2.079 . S
O276 C278 1.273 . S
C277 O273 1.246 . S
C277 O274 1.259 . S
C278 O275 1.252 . S
C278 O276 1.273 . S
O279 Mg266 2.010 . S
O279 C271 1.249 . S
Mg280 O281 2.028 . S
Mg280 O287 1.986 . S
Mg280 O289 2.114 . S
Mg280 O290 2.251 . S
Mg280 O293 2.010 . S
O281 Mg280 2.028 . S
O281 C284 1.250 . S
O282 Mg283 2.028 . S
O282 C284 1.248 . S
Mg283 O282 2.028 . S
Mg283 O288 2.032 . S
Mg283 O290 2.079 . S
C284 O281 1.250 . S
C284 O282 1.248 . S
C285 O286 1.264 . S
C285 O293 1.249 . S
O286 C285 1.264 . S
O287 Mg280 1.986 . S
O287 C291 1.246 . S
O288 Mg283 2.032 . S
O288 C291 1.259 . S
O289 Mg280 2.114 . S
O289 C292 1.252 . S
O290 Mg280 2.251 . S
O290 Mg283 2.079 . S
O290 C292 1.273 . S
C291 O287 1.246 . S
C291 O288 1.259 . S
C292 O289 1.252 . S
C292 O290 1.273 . S
O293 Mg280 2.010 . S
O293 C285 1.249 . S
Mg294 O295 2.028 . S
Mg294 O301 1.986 . S
Mg294 O303 2.114 . S
Mg294 O304 2.251 . S
Mg294 O307 2.010 . S
O295 Mg294 2.028 . S
O295 C298 1.250 . S
O296 Mg297 2.028 . S
O296 C298 1.248 . S
Mg297 O296 2.028 . S
Mg297 O302 2.032 . S
Mg297 O304 2.079 . S
C298 O295 1.250 . S
C298 O296 1.248 . S
C299 O300 1.264 . S
C299 O307 1.249 . S
O300 C299 1.264 . S
O301 Mg294 1.986 . S
O301 C305 1.246 . S
O302 Mg297 2.032 . S
O302 C305 1.259 . S
O303 Mg294 2.114 . S
O303 C306 1.252 . S
O304 Mg294 2.251 . S
O304 Mg297 2.079 . S
O304 C306 1.273 . S
C305 O301 1.246 . S
C305 O302 1.259 . S
C306 O303 1.252 . S
C306 O304 1.273 . S
O307 Mg294 2.010 . S
O307 C299 1.249 . S
Mg308 O309 2.028 . S
Mg308 O315 1.986 . S
Mg308 O317 2.114 . S
Mg308 O318 2.251 . S
Mg308 O321 2.010 . S
O309 Mg308 2.028 . S
O309 C312 1.250 . S
O310 Mg311 2.028 . S
O310 C312 1.248 . S
Mg311 O310 2.028 . S
Mg311 O316 2.032 . S
Mg311 O318 2.079 . S
C312 O309 1.250 . S
C312 O310 1.248 . S
C313 O314 1.264 . S
C313 O321 1.249 . S
O314 C313 1.264 . S
O315 Mg308 1.986 . S
O315 C319 1.246 . S
O316 Mg311 2.032 . S
O316 C319 1.259 . S
O317 Mg308 2.114 . S
O317 C320 1.252 . S
O318 Mg308 2.251 . S
O318 Mg311 2.079 . S
O318 C320 1.273 . S
C319 O315 1.246 . S
C319 O316 1.259 . S
C320 O317 1.252 . S
C320 O318 1.273 . S
O321 Mg308 2.010 . S
O321 C313 1.249 . S
Mg322 O323 2.028 . S
Mg322 O329 1.986 . S
Mg322 O331 2.114 . S
Mg322 O332 2.251 . S
Mg322 O335 2.010 . S
O323 Mg322 2.028 . S
O323 C326 1.250 . S
O324 Mg325 2.028 . S
O324 C326 1.248 . S
Mg325 O324 2.028 . S
Mg325 O330 2.032 . S
Mg325 O332 2.079 . S
C326 O323 1.250 . S
C326 O324 1.248 . S
C327 O328 1.264 . S
C327 O335 1.249 . S
O328 C327 1.264 . S
O329 Mg322 1.986 . S
O329 C333 1.246 . S
O330 Mg325 2.032 . S
O330 C333 1.259 . S
O331 Mg322 2.114 . S
O331 C334 1.252 . S
O332 Mg322 2.251 . S
O332 Mg325 2.079 . S
O332 C334 1.273 . S
C333 O329 1.246 . S
C333 O330 1.259 . S
C334 O331 1.252 . S
C334 O332 1.273 . S
O335 Mg322 2.010 . S
O335 C327 1.249 . S
H336 C342 0.930 . S
H337 C346 0.930 . S
H338 C351 0.929 . S
H339 C349 0.929 . S
H340 C344 0.929 . S
H341 C350 0.929 . S
C342 H336 0.930 . S
C342 C343 1.367 . S
C342 C350 1.378 . S
C343 C342 1.367 . S
C343 C351 1.433 . S
C344 H340 0.929 . S
C344 C346 1.378 . S
C344 C348 1.350 . S
C345 C348 1.463 . S
C345 C350 1.350 . S
C345 N353 1.427 . S
C346 H337 0.930 . S
C346 C344 1.378 . S
C346 C347 1.367 . S
C347 C346 1.367 . S
C347 C349 1.433 . S
C348 C344 1.350 . S
C348 C345 1.463 . S
C348 N352 1.427 . S
C349 H339 0.929 . S
C349 C347 1.433 . S
C349 N352 1.384 . S
C350 H341 0.929 . S
C350 C342 1.378 . S
C350 C345 1.350 . S
C351 H338 0.929 . S
C351 C343 1.433 . S
C351 N353 1.384 . S
N352 C348 1.427 . S
N352 C349 1.384 . S
N353 C345 1.427 . S
N353 C351 1.384 . S
H354 C360 0.930 . S
H355 C364 0.930 . S
H356 C369 0.929 . S
H357 C367 0.929 . S
H358 C362 0.929 . S
H359 C368 0.929 . S
C360 H354 0.930 . S
C360 C361 1.367 . S
C360 C368 1.378 . S
C361 C360 1.367 . S
C361 C369 1.433 . S
C362 H358 0.929 . S
C362 C364 1.378 . S
C362 C366 1.350 . S
C363 C366 1.463 . S
C363 C368 1.350 . S
C363 N371 1.427 . S
C364 H355 0.930 . S
C364 C362 1.378 . S
C364 C365 1.367 . S
C365 C364 1.367 . S
C365 C367 1.433 . S
C366 C362 1.350 . S
C366 C363 1.463 . S
C366 N370 1.427 . S
C367 H357 0.929 . S
C367 C365 1.433 . S
C367 N370 1.384 . S
C368 H359 0.929 . S
C368 C360 1.378 . S
C368 C363 1.350 . S
C369 H356 0.929 . S
C369 C361 1.433 . S
C369 N371 1.384 . S
N370 C366 1.427 . S
N370 C367 1.384 . S
N371 C363 1.427 . S
N371 C369 1.384 . S
H372 C378 0.930 . S
H373 C382 0.930 . S
H374 C387 0.929 . S
H375 C385 0.929 . S
H376 C380 0.929 . S
H377 C386 0.929 . S
C378 H372 0.930 . S
C378 C379 1.367 . S
C378 C386 1.378 . S
C379 C378 1.367 . S
C379 C387 1.433 . S
C380 H376 0.929 . S
C380 C382 1.378 . S
C380 C384 1.350 . S
C381 C384 1.463 . S
C381 C386 1.350 . S
C381 N389 1.427 . S
C382 H373 0.930 . S
C382 C380 1.378 . S
C382 C383 1.367 . S
C383 C382 1.367 . S
C383 C385 1.433 . S
C384 C380 1.350 . S
C384 C381 1.463 . S
C384 N388 1.427 . S
C385 H375 0.929 . S
C385 C383 1.433 . S
C385 N388 1.384 . S
C386 H377 0.929 . S
C386 C378 1.378 . S
C386 C381 1.350 . S
C387 H374 0.929 . S
C387 C379 1.433 . S
C387 N389 1.384 . S
N388 C384 1.427 . S
N388 C385 1.384 . S
N389 C381 1.427 . S
N389 C387 1.384 . S
H390 C396 0.930 . S
H391 C400 0.930 . S
H392 C405 0.929 . S
H393 C403 0.929 . S
H394 C398 0.929 . S
H395 C404 0.929 . S
C396 H390 0.930 . S
C396 C397 1.367 . S
C396 C404 1.378 . S
C397 C396 1.367 . S
C397 C405 1.433 . S
C398 H394 0.929 . S
C398 C400 1.378 . S
C398 C402 1.350 . S
C399 C402 1.463 . S
C399 C404 1.350 . S
C399 N407 1.427 . S
C400 H391 0.930 . S
C400 C398 1.378 . S
C400 C401 1.367 . S
C401 C400 1.367 . S
C401 C403 1.433 . S
C402 C398 1.350 . S
C402 C399 1.463 . S
C402 N406 1.427 . S
C403 H393 0.929 . S
C403 C401 1.433 . S
C403 N406 1.384 . S
C404 H395 0.929 . S
C404 C396 1.378 . S
C404 C399 1.350 . S
C405 H392 0.929 . S
C405 C397 1.433 . S
C405 N407 1.384 . S
N406 C402 1.427 . S
N406 C403 1.384 . S
N407 C399 1.427 . S
N407 C405 1.384 . S
H408 C414 0.930 . S
H409 C418 0.930 . S
H410 C423 0.929 . S
H411 C421 0.929 . S
H412 C416 0.929 . S
H413 C422 0.929 . S
C414 H408 0.930 . S
C414 C415 1.367 . S
C414 C422 1.378 . S
C415 C414 1.367 . S
C415 C423 1.433 . S
C416 H412 0.929 . S
C416 C418 1.378 . S
C416 C420 1.350 . S
C417 C420 1.463 . S
C417 C422 1.350 . S
C417 N425 1.427 . S
C418 H409 0.930 . S
C418 C416 1.378 . S
C418 C419 1.367 . S
C419 C418 1.367 . S
C419 C421 1.433 . S
C420 C416 1.350 . S
C420 C417 1.463 . S
C420 N424 1.427 . S
C421 H411 0.929 . S
C421 C419 1.433 . S
C421 N424 1.384 . S
C422 H413 0.929 . S
C422 C414 1.378 . S
C422 C417 1.350 . S
C423 H410 0.929 . S
C423 C415 1.433 . S
C423 N425 1.384 . S
N424 C420 1.427 . S
N424 C421 1.384 . S
N425 C417 1.427 . S
N425 C423 1.384 . S
H426 C432 0.930 . S
H427 C436 0.930 . S
H428 C441 0.929 . S
H429 C439 0.929 . S
H430 C434 0.929 . S
H431 C440 0.929 . S
C432 H426 0.930 . S
C432 C433 1.367 . S
C432 C440 1.378 . S
C433 C432 1.367 . S
C433 C441 1.433 . S
C434 H430 0.929 . S
C434 C436 1.378 . S
C434 C438 1.350 . S
C435 C438 1.463 . S
C435 C440 1.350 . S
C435 N443 1.427 . S
C436 H427 0.930 . S
C436 C434 1.378 . S
C436 C437 1.367 . S
C437 C436 1.367 . S
C437 C439 1.433 . S
C438 C434 1.350 . S
C438 C435 1.463 . S
C438 N442 1.427 . S
C439 H429 0.929 . S
C439 C437 1.433 . S
C439 N442 1.384 . S
C440 H431 0.929 . S
C440 C432 1.378 . S
C440 C435 1.350 . S
C441 H428 0.929 . S
C441 C433 1.433 . S
C441 N443 1.384 . S
N442 C438 1.427 . S
N442 C439 1.384 . S
N443 C435 1.427 . S
N443 C441 1.384 . S
H444 C450 0.930 . S
H445 C454 0.930 . S
H446 C459 0.929 . S
H447 C457 0.929 . S
H448 C452 0.929 . S
H449 C458 0.929 . S
C450 H444 0.930 . S
C450 C451 1.367 . S
C450 C458 1.378 . S
C451 C450 1.367 . S
C451 C459 1.433 . S
C452 H448 0.929 . S
C452 C454 1.378 . S
C452 C456 1.350 . S
C453 C456 1.463 . S
C453 C458 1.350 . S
C453 N461 1.427 . S
C454 H445 0.930 . S
C454 C452 1.378 . S
C454 C455 1.367 . S
C455 C454 1.367 . S
C455 C457 1.433 . S
C456 C452 1.350 . S
C456 C453 1.463 . S
C456 N460 1.427 . S
C457 H447 0.929 . S
C457 C455 1.433 . S
C457 N460 1.384 . S
C458 H449 0.929 . S
C458 C450 1.378 . S
C458 C453 1.350 . S
C459 H446 0.929 . S
C459 C451 1.433 . S
C459 N461 1.384 . S
N460 C456 1.427 . S
N460 C457 1.384 . S
N461 C453 1.427 . S
N461 C459 1.384 . S
H462 C468 0.930 . S
H463 C472 0.930 . S
H464 C477 0.929 . S
H465 C475 0.929 . S
H466 C470 0.929 . S
H467 C476 0.929 . S
C468 H462 0.930 . S
C468 C469 1.367 . S
C468 C476 1.378 . S
C469 C468 1.367 . S
C469 C477 1.433 . S
C470 H466 0.929 . S
C470 C472 1.378 . S
C470 C474 1.350 . S
C471 C474 1.463 . S
C471 C476 1.350 . S
C471 N479 1.427 . S
C472 H463 0.930 . S
C472 C470 1.378 . S
C472 C473 1.367 . S
C473 C472 1.367 . S
C473 C475 1.433 . S
C474 C470 1.350 . S
C474 C471 1.463 . S
C474 N478 1.427 . S
C475 H465 0.929 . S
C475 C473 1.433 . S
C475 N478 1.384 . S
C476 H467 0.929 . S
C476 C468 1.378 . S
C476 C471 1.350 . S
C477 H464 0.929 . S
C477 C469 1.433 . S
C477 N479 1.384 . S
N478 C474 1.427 . S
N478 C475 1.384 . S
N479 C471 1.427 . S
N479 C477 1.384 . S
H480 C486 0.930 . S
H481 C490 0.930 . S
H482 C495 0.929 . S
H483 C493 0.929 . S
H484 C488 0.929 . S
H485 C494 0.929 . S
C486 H480 0.930 . S
C486 C487 1.367 . S
C486 C494 1.378 . S
C487 C486 1.367 . S
C487 C495 1.433 . S
C488 H484 0.929 . S
C488 C490 1.378 . S
C488 C492 1.350 . S
C489 C492 1.463 . S
C489 C494 1.350 . S
C489 N497 1.427 . S
C490 H481 0.930 . S
C490 C488 1.378 . S
C490 C491 1.367 . S
C491 C490 1.367 . S
C491 C493 1.433 . S
C492 C488 1.350 . S
C492 C489 1.463 . S
C492 N496 1.427 . S
C493 H483 0.929 . S
C493 C491 1.433 . S
C493 N496 1.384 . S
C494 H485 0.929 . S
C494 C486 1.378 . S
C494 C489 1.350 . S
C495 H482 0.929 . S
C495 C487 1.433 . S
C495 N497 1.384 . S
N496 C492 1.427 . S
N496 C493 1.384 . S
N497 C489 1.427 . S
N497 C495 1.384 . S
H498 C504 0.930 . S
H499 C508 0.930 . S
H500 C513 0.929 . S
H501 C511 0.929 . S
H502 C506 0.929 . S
H503 C512 0.929 . S
C504 H498 0.930 . S
C504 C505 1.367 . S
C504 C512 1.378 . S
C505 C504 1.367 . S
C505 C513 1.433 . S
C506 H502 0.929 . S
C506 C508 1.378 . S
C506 C510 1.350 . S
C507 C510 1.463 . S
C507 C512 1.350 . S
C507 N515 1.427 . S
C508 H499 0.930 . S
C508 C506 1.378 . S
C508 C509 1.367 . S
C509 C508 1.367 . S
C509 C511 1.433 . S
C510 C506 1.350 . S
C510 C507 1.463 . S
C510 N514 1.427 . S
C511 H501 0.929 . S
C511 C509 1.433 . S
C511 N514 1.384 . S
C512 H503 0.929 . S
C512 C504 1.378 . S
C512 C507 1.350 . S
C513 H500 0.929 . S
C513 C505 1.433 . S
C513 N515 1.384 . S
N514 C510 1.427 . S
N514 C511 1.384 . S
N515 C507 1.427 . S
N515 C513 1.384 . S
H516 C522 0.930 . S
H517 C526 0.930 . S
H518 C531 0.929 . S
H519 C529 0.929 . S
H520 C524 0.929 . S
H521 C530 0.929 . S
C522 H516 0.930 . S
C522 C523 1.367 . S
C522 C530 1.378 . S
C523 C522 1.367 . S
C523 C531 1.433 . S
C524 H520 0.929 . S
C524 C526 1.378 . S
C524 C528 1.350 . S
C525 C528 1.463 . S
C525 C530 1.350 . S
C525 N533 1.427 . S
C526 H517 0.930 . S
C526 C524 1.378 . S
C526 C527 1.367 . S
C527 C526 1.367 . S
C527 C529 1.433 . S
C528 C524 1.350 . S
C528 C525 1.463 . S
C528 N532 1.427 . S
C529 H519 0.929 . S
C529 C527 1.433 . S
C529 N532 1.384 . S
C530 H521 0.929 . S
C530 C522 1.378 . S
C530 C525 1.350 . S
C531 H518 0.929 . S
C531 C523 1.433 . S
C531 N533 1.384 . S
N532 C528 1.427 . S
N532 C529 1.384 . S
N533 C525 1.427 . S
N533 C531 1.384 . S
H534 C540 0.930 . S
H535 C544 0.930 . S
H536 C549 0.929 . S
H537 C547 0.929 . S
H538 C542 0.929 . S
H539 C548 0.929 . S
C540 H534 0.930 . S
C540 C541 1.367 . S
C540 C548 1.378 . S
C541 C540 1.367 . S
C541 C549 1.433 . S
C542 H538 0.929 . S
C542 C544 1.378 . S
C542 C546 1.350 . S
C543 C546 1.463 . S
C543 C548 1.350 . S
C543 N551 1.427 . S
C544 H535 0.930 . S
C544 C542 1.378 . S
C544 C545 1.367 . S
C545 C544 1.367 . S
C545 C547 1.433 . S
C546 C542 1.350 . S
C546 C543 1.463 . S
C546 N550 1.427 . S
C547 H537 0.929 . S
C547 C545 1.433 . S
C547 N550 1.384 . S
C548 H539 0.929 . S
C548 C540 1.378 . S
C548 C543 1.350 . S
C549 H536 0.929 . S
C549 C541 1.433 . S
C549 N551 1.384 . S
N550 C546 1.427 . S
N550 C547 1.384 . S
N551 C543 1.427 . S
N551 C549 1.384 . S
H552 C558 0.930 . S
H553 C562 0.930 . S
H554 C567 0.929 . S
H555 C565 0.929 . S
H556 C560 0.929 . S
H557 C566 0.929 . S
C558 H552 0.930 . S
C558 C559 1.367 . S
C558 C566 1.378 . S
C559 C558 1.367 . S
C559 C567 1.433 . S
C560 H556 0.929 . S
C560 C562 1.378 . S
C560 C564 1.350 . S
C561 C564 1.463 . S
C561 C566 1.350 . S
C561 N569 1.427 . S
C562 H553 0.930 . S
C562 C560 1.378 . S
C562 C563 1.367 . S
C563 C562 1.367 . S
C563 C565 1.433 . S
C564 C560 1.350 . S
C564 C561 1.463 . S
C564 N568 1.427 . S
C565 H555 0.929 . S
C565 C563 1.433 . S
C565 N568 1.384 . S
C566 H557 0.929 . S
C566 C558 1.378 . S
C566 C561 1.350 . S
C567 H554 0.929 . S
C567 C559 1.433 . S
C567 N569 1.384 . S
N568 C564 1.427 . S
N568 C565 1.384 . S
N569 C561 1.427 . S
N569 C567 1.384 . S
H570 C576 0.930 . S
H571 C580 0.930 . S
H572 C585 0.929 . S
H573 C583 0.929 . S
H574 C578 0.929 . S
H575 C584 0.929 . S
C576 H570 0.930 . S
C576 C577 1.367 . S
C576 C584 1.378 . S
C577 C576 1.367 . S
C577 C585 1.433 . S
C578 H574 0.929 . S
C578 C580 1.378 . S
C578 C582 1.350 . S
C579 C582 1.463 . S
C579 C584 1.350 . S
C579 N587 1.427 . S
C580 H571 0.930 . S
C580 C578 1.378 . S
C580 C581 1.367 . S
C581 C580 1.367 . S
C581 C583 1.433 . S
C582 C578 1.350 . S
C582 C579 1.463 . S
C582 N586 1.427 . S
C583 H573 0.929 . S
C583 C581 1.433 . S
C583 N586 1.384 . S
C584 H575 0.929 . S
C584 C576 1.378 . S
C584 C579 1.350 . S
C585 H572 0.929 . S
C585 C577 1.433 . S
C585 N587 1.384 . S
N586 C582 1.427 . S
N586 C583 1.384 . S
N587 C579 1.427 . S
N587 C585 1.384 . S
H588 C594 0.930 . S
H589 C598 0.930 . S
H590 C603 0.929 . S
H591 C601 0.929 . S
H592 C596 0.929 . S
H593 C602 0.929 . S
C594 H588 0.930 . S
C594 C595 1.367 . S
C594 C602 1.378 . S
C595 C594 1.367 . S
C595 C603 1.433 . S
C596 H592 0.929 . S
C596 C598 1.378 . S
C596 C600 1.350 . S
C597 C600 1.463 . S
C597 C602 1.350 . S
C597 N605 1.427 . S
C598 H589 0.930 . S
C598 C596 1.378 . S
C598 C599 1.367 . S
C599 C598 1.367 . S
C599 C601 1.433 . S
C600 C596 1.350 . S
C600 C597 1.463 . S
C600 N604 1.427 . S
C601 H591 0.929 . S
C601 C599 1.433 . S
C601 N604 1.384 . S
C602 H593 0.929 . S
C602 C594 1.378 . S
C602 C597 1.350 . S
C603 H590 0.929 . S
C603 C595 1.433 . S
C603 N605 1.384 . S
N604 C600 1.427 . S
N604 C601 1.384 . S
N605 C597 1.427 . S
N605 C603 1.384 . S
H606 C612 0.930 . S
H607 C616 0.930 . S
H608 C621 0.929 . S
H609 C619 0.929 . S
H610 C614 0.929 . S
H611 C620 0.929 . S
C612 H606 0.930 . S
C612 C613 1.367 . S
C612 C620 1.378 . S
C613 C612 1.367 . S
C613 C621 1.433 . S
C614 H610 0.929 . S
C614 C616 1.378 . S
C614 C618 1.350 . S
C615 C618 1.463 . S
C615 C620 1.350 . S
C615 N623 1.427 . S
C616 H607 0.930 . S
C616 C614 1.378 . S
C616 C617 1.367 . S
C617 C616 1.367 . S
C617 C619 1.433 . S
C618 C614 1.350 . S
C618 C615 1.463 . S
C618 N622 1.427 . S
C619 H609 0.929 . S
C619 C617 1.433 . S
C619 N622 1.384 . S
C620 H611 0.929 . S
C620 C612 1.378 . S
C620 C615 1.350 . S
C621 H608 0.929 . S
C621 C613 1.433 . S
C621 N623 1.384 . S
N622 C618 1.427 . S
N622 C619 1.384 . S
N623 C615 1.427 . S
N623 C621 1.384 . S
H624 C630 0.930 . S
H625 C634 0.930 . S
H626 C639 0.929 . S
H627 C637 0.929 . S
H628 C632 0.929 . S
H629 C638 0.929 . S
C630 H624 0.930 . S
C630 C631 1.367 . S
C630 C638 1.378 . S
C631 C630 1.367 . S
C631 C639 1.433 . S
C632 H628 0.929 . S
C632 C634 1.378 . S
C632 C636 1.350 . S
C633 C636 1.463 . S
C633 C638 1.350 . S
C633 N641 1.427 . S
C634 H625 0.930 . S
C634 C632 1.378 . S
C634 C635 1.367 . S
C635 C634 1.367 . S
C635 C637 1.433 . S
C636 C632 1.350 . S
C636 C633 1.463 . S
C636 N640 1.427 . S
C637 H627 0.929 . S
C637 C635 1.433 . S
C637 N640 1.384 . S
C638 H629 0.929 . S
C638 C630 1.378 . S
C638 C633 1.350 . S
C639 H626 0.929 . S
C639 C631 1.433 . S
C639 N641 1.384 . S
N640 C636 1.427 . S
N640 C637 1.384 . S
N641 C633 1.427 . S
N641 C639 1.384 . S
H642 C648 0.930 . S
H643 C652 0.930 . S
H644 C657 0.929 . S
H645 C655 0.929 . S
H646 C650 0.929 . S
H647 C656 0.929 . S
C648 H642 0.930 . S
C648 C649 1.367 . S
C648 C656 1.378 . S
C649 C648 1.367 . S
C649 C657 1.433 . S
C650 H646 0.929 . S
C650 C652 1.378 . S
C650 C654 1.350 . S
C651 C654 1.463 . S
C651 C656 1.350 . S
C651 N659 1.427 . S
C652 H643 0.930 . S
C652 C650 1.378 . S
C652 C653 1.367 . S
C653 C652 1.367 . S
C653 C655 1.433 . S
C654 C650 1.350 . S
C654 C651 1.463 . S
C654 N658 1.427 . S
C655 H645 0.929 . S
C655 C653 1.433 . S
C655 N658 1.384 . S
C656 H647 0.929 . S
C656 C648 1.378 . S
C656 C651 1.350 . S
C657 H644 0.929 . S
C657 C649 1.433 . S
C657 N659 1.384 . S
N658 C654 1.427 . S
N658 C655 1.384 . S
N659 C651 1.427 . S
N659 C657 1.384 . S
H660 C666 0.930 . S
H661 C670 0.930 . S
H662 C675 0.929 . S
H663 C673 0.929 . S
H664 C668 0.929 . S
H665 C674 0.929 . S
C666 H660 0.930 . S
C666 C667 1.367 . S
C666 C674 1.378 . S
C667 C666 1.367 . S
C667 C675 1.433 . S
C668 H664 0.929 . S
C668 C670 1.378 . S
C668 C672 1.350 . S
C669 C672 1.463 . S
C669 C674 1.350 . S
C669 N677 1.427 . S
C670 H661 0.930 . S
C670 C668 1.378 . S
C670 C671 1.367 . S
C671 C670 1.367 . S
C671 C673 1.433 . S
C672 C668 1.350 . S
C672 C669 1.463 . S
C672 N676 1.427 . S
C673 H663 0.929 . S
C673 C671 1.433 . S
C673 N676 1.384 . S
C674 H665 0.929 . S
C674 C666 1.378 . S
C674 C669 1.350 . S
C675 H662 0.929 . S
C675 C667 1.433 . S
C675 N677 1.384 . S
N676 C672 1.427 . S
N676 C673 1.384 . S
N677 C669 1.427 . S
N677 C675 1.384 . S
H678 C684 0.930 . S
H679 C688 0.930 . S
H680 C693 0.929 . S
H681 C691 0.929 . S
H682 C686 0.929 . S
H683 C692 0.929 . S
C684 H678 0.930 . S
C684 C685 1.367 . S
C684 C692 1.378 . S
C685 C684 1.367 . S
C685 C693 1.433 . S
C686 H682 0.929 . S
C686 C688 1.378 . S
C686 C690 1.350 . S
C687 C690 1.463 . S
C687 C692 1.350 . S
C687 N695 1.427 . S
C688 H679 0.930 . S
C688 C686 1.378 . S
C688 C689 1.367 . S
C689 C688 1.367 . S
C689 C691 1.433 . S
C690 C686 1.350 . S
C690 C687 1.463 . S
C690 N694 1.427 . S
C691 H681 0.929 . S
C691 C689 1.433 . S
C691 N694 1.384 . S
C692 H683 0.929 . S
C692 C684 1.378 . S
C692 C687 1.350 . S
C693 H680 0.929 . S
C693 C685 1.433 . S
C693 N695 1.384 . S
N694 C690 1.427 . S
N694 C691 1.384 . S
N695 C687 1.427 . S
N695 C693 1.384 . S
H696 C702 0.930 . S
H697 C706 0.930 . S
H698 C711 0.929 . S
H699 C709 0.929 . S
H700 C704 0.929 . S
H701 C710 0.929 . S
C702 H696 0.930 . S
C702 C703 1.367 . S
C702 C710 1.378 . S
C703 C702 1.367 . S
C703 C711 1.433 . S
C704 H700 0.929 . S
C704 C706 1.378 . S
C704 C708 1.350 . S
C705 C708 1.463 . S
C705 C710 1.350 . S
C705 N713 1.427 . S
C706 H697 0.930 . S
C706 C704 1.378 . S
C706 C707 1.367 . S
C707 C706 1.367 . S
C707 C709 1.433 . S
C708 C704 1.350 . S
C708 C705 1.463 . S
C708 N712 1.427 . S
C709 H699 0.929 . S
C709 C707 1.433 . S
C709 N712 1.384 . S
C710 H701 0.929 . S
C710 C702 1.378 . S
C710 C705 1.350 . S
C711 H698 0.929 . S
C711 C703 1.433 . S
C711 N713 1.384 . S
N712 C708 1.427 . S
N712 C709 1.384 . S
N713 C705 1.427 . S
N713 C711 1.384 . S
H714 C720 0.930 . S
H715 C724 0.930 . S
H716 C729 0.929 . S
H717 C727 0.929 . S
H718 C722 0.929 . S
H719 C728 0.929 . S
C720 H714 0.930 . S
C720 C721 1.367 . S
C720 C728 1.378 . S
C721 C720 1.367 . S
C721 C729 1.433 . S
C722 H718 0.929 . S
C722 C724 1.378 . S
C722 C726 1.350 . S
C723 C726 1.463 . S
C723 C728 1.350 . S
C723 N731 1.427 . S
C724 H715 0.930 . S
C724 C722 1.378 . S
C724 C725 1.367 . S
C725 C724 1.367 . S
C725 C727 1.433 . S
C726 C722 1.350 . S
C726 C723 1.463 . S
C726 N730 1.427 . S
C727 H717 0.929 . S
C727 C725 1.433 . S
C727 N730 1.384 . S
C728 H719 0.929 . S
C728 C720 1.378 . S
C728 C723 1.350 . S
C729 H716 0.929 . S
C729 C721 1.433 . S
C729 N731 1.384 . S
N730 C726 1.427 . S
N730 C727 1.384 . S
N731 C723 1.427 . S
N731 C729 1.384 . S
H732 C738 0.930 . S
H733 C742 0.930 . S
H734 C747 0.929 . S
H735 C745 0.929 . S
H736 C740 0.929 . S
H737 C746 0.929 . S
C738 H732 0.930 . S
C738 C739 1.367 . S
C738 C746 1.378 . S
C739 C738 1.367 . S
C739 C747 1.433 . S
C740 H736 0.929 . S
C740 C742 1.378 . S
C740 C744 1.350 . S
C741 C744 1.463 . S
C741 C746 1.350 . S
C741 N749 1.427 . S
C742 H733 0.930 . S
C742 C740 1.378 . S
C742 C743 1.367 . S
C743 C742 1.367 . S
C743 C745 1.433 . S
C744 C740 1.350 . S
C744 C741 1.463 . S
C744 N748 1.427 . S
C745 H735 0.929 . S
C745 C743 1.433 . S
C745 N748 1.384 . S
C746 H737 0.929 . S
C746 C738 1.378 . S
C746 C741 1.350 . S
C747 H734 0.929 . S
C747 C739 1.433 . S
C747 N749 1.384 . S
N748 C744 1.427 . S
N748 C745 1.384 . S
N749 C741 1.427 . S
N749 C747 1.384 . S
H750 C756 0.930 . S
H751 C760 0.930 . S
H752 C765 0.929 . S
H753 C763 0.929 . S
H754 C758 0.929 . S
H755 C764 0.929 . S
C756 H750 0.930 . S
C756 C757 1.367 . S
C756 C764 1.378 . S
C757 C756 1.367 . S
C757 C765 1.433 . S
C758 H754 0.929 . S
C758 C760 1.378 . S
C758 C762 1.350 . S
C759 C762 1.463 . S
C759 C764 1.350 . S
C759 N767 1.427 . S
C760 H751 0.930 . S
C760 C758 1.378 . S
C760 C761 1.367 . S
C761 C760 1.367 . S
C761 C763 1.433 . S
C762 C758 1.350 . S
C762 C759 1.463 . S
C762 N766 1.427 . S
C763 H753 0.929 . S
C763 C761 1.433 . S
C763 N766 1.384 . S
C764 H755 0.929 . S
C764 C756 1.378 . S
C764 C759 1.350 . S
C765 H752 0.929 . S
C765 C757 1.433 . S
C765 N767 1.384 . S
N766 C762 1.427 . S
N766 C763 1.384 . S
N767 C759 1.427 . S
N767 C765 1.384 . S
H768 C774 0.930 . S
H769 C778 0.930 . S
H770 C783 0.929 . S
H771 C781 0.929 . S
H772 C776 0.929 . S
H773 C782 0.929 . S
C774 H768 0.930 . S
C774 C775 1.367 . S
C774 C782 1.378 . S
C775 C774 1.367 . S
C775 C783 1.433 . S
C776 H772 0.929 . S
C776 C778 1.378 . S
C776 C780 1.350 . S
C777 C780 1.463 1_455 S
C777 C782 1.350 . S
C777 N785 1.427 . S
C778 H769 0.930 . S
C778 C776 1.378 . S
C778 C779 1.367 . S
C779 C778 1.367 . S
C779 C781 1.433 . S
C780 C776 1.350 . S
C780 C777 1.463 1_655 S
C780 N784 1.427 . S
C781 H771 0.929 . S
C781 C779 1.433 . S
C781 N784 1.384 . S
C782 H773 0.929 . S
C782 C774 1.378 . S
C782 C777 1.350 . S
C783 H770 0.929 . S
C783 C775 1.433 . S
C783 N785 1.384 . S
N784 C780 1.427 . S
N784 C781 1.384 . S
N785 C777 1.427 . S
N785 C783 1.384 . S
H786 C792 0.930 . S
H787 C796 0.930 . S
H788 C801 0.929 . S
H789 C799 0.929 . S
H790 C794 0.929 . S
H791 C800 0.929 . S
C792 H786 0.930 . S
C792 C793 1.367 . S
C792 C800 1.378 . S
C793 C792 1.367 . S
C793 C801 1.433 . S
C794 H790 0.929 . S
C794 C796 1.378 . S
C794 C798 1.350 . S
C795 C798 1.463 1_545 S
C795 C800 1.350 . S
C795 N803 1.427 . S
C796 H787 0.930 . S
C796 C794 1.378 . S
C796 C797 1.367 . S
C797 C796 1.367 . S
C797 C799 1.433 . S
C798 C794 1.350 . S
C798 C795 1.463 1_565 S
C798 N802 1.427 . S
C799 H789 0.929 . S
C799 C797 1.433 . S
C799 N802 1.384 . S
C800 H791 0.929 . S
C800 C792 1.378 . S
C800 C795 1.350 . S
C801 H788 0.929 . S
C801 C793 1.433 . S
C801 N803 1.384 . S
N802 C798 1.427 . S
N802 C799 1.384 . S
N803 C795 1.427 . S
N803 C801 1.384 . S
H804 C810 0.930 . S
H805 C814 0.930 . S
H806 C819 0.929 . S
H807 C817 0.929 . S
H808 C812 0.929 . S
H809 C818 0.929 . S
C810 H804 0.930 . S
C810 C811 1.367 . S
C810 C818 1.378 . S
C811 C810 1.367 . S
C811 C819 1.433 . S
C812 H808 0.929 . S
C812 C814 1.378 . S
C812 C816 1.350 . S
C813 C816 1.463 1_655 S
C813 C818 1.350 . S
C813 N821 1.427 . S
C814 H805 0.930 . S
C814 C812 1.378 . S
C814 C815 1.367 . S
C815 C814 1.367 . S
C815 C817 1.433 . S
C816 C812 1.350 . S
C816 C813 1.463 1_455 S
C816 N820 1.427 . S
C817 H807 0.929 . S
C817 C815 1.433 . S
C817 N820 1.384 . S
C818 H809 0.929 . S
C818 C810 1.378 . S
C818 C813 1.350 . S
C819 H806 0.929 . S
C819 C811 1.433 . S
C819 N821 1.384 . S
N820 C816 1.427 . S
N820 C817 1.384 . S
N821 C813 1.427 . S
N821 C819 1.384 . S
H822 C828 0.930 . S
H823 C832 0.930 . S
H824 C837 0.929 . S
H825 C835 0.929 . S
H826 C830 0.929 . S
H827 C836 0.929 . S
C828 H822 0.930 . S
C828 C829 1.367 . S
C828 C836 1.378 . S
C829 C828 1.367 . S
C829 C837 1.433 . S
C830 H826 0.929 . S
C830 C832 1.378 . S
C830 C834 1.350 . S
C831 C834 1.463 1_545 S
C831 C836 1.350 . S
C831 N839 1.427 . S
C832 H823 0.930 . S
C832 C830 1.378 . S
C832 C833 1.367 . S
C833 C832 1.367 . S
C833 C835 1.433 . S
C834 C830 1.350 . S
C834 C831 1.463 1_565 S
C834 N838 1.427 . S
C835 H825 0.929 . S
C835 C833 1.433 . S
C835 N838 1.384 . S
C836 H827 0.929 . S
C836 C828 1.378 . S
C836 C831 1.350 . S
C837 H824 0.929 . S
C837 C829 1.433 . S
C837 N839 1.384 . S
N838 C834 1.427 . S
N838 C835 1.384 . S
N839 C831 1.427 . S
N839 C837 1.384 . S
H840 C846 0.930 . S
H841 C850 0.930 . S
H842 C855 0.929 . S
H843 C853 0.929 . S
H844 C848 0.929 . S
H845 C854 0.929 . S
C846 H840 0.930 . S
C846 C847 1.367 . S
C846 C854 1.378 . S
C847 C846 1.367 . S
C847 C855 1.433 . S
C848 H844 0.929 . S
C848 C850 1.378 . S
C848 C852 1.350 . S
C849 C852 1.463 1_565 S
C849 C854 1.350 . S
C849 N857 1.427 . S
C850 H841 0.930 . S
C850 C848 1.378 . S
C850 C851 1.367 . S
C851 C850 1.367 . S
C851 C853 1.433 . S
C852 C848 1.350 . S
C852 C849 1.463 1_545 S
C852 N856 1.427 . S
C853 H843 0.929 . S
C853 C851 1.433 . S
C853 N856 1.384 . S
C854 H845 0.929 . S
C854 C846 1.378 . S
C854 C849 1.350 . S
C855 H842 0.929 . S
C855 C847 1.433 . S
C855 N857 1.384 . S
N856 C852 1.427 . S
N856 C853 1.384 . S
N857 C849 1.427 . S
N857 C855 1.384 . S
H858 C864 0.930 . S
H859 C868 0.930 . S
H860 C873 0.929 . S
H861 C871 0.929 . S
H862 C866 0.929 . S
H863 C872 0.929 . S
C864 H858 0.930 . S
C864 C865 1.367 . S
C864 C872 1.378 . S
C865 C864 1.367 . S
C865 C873 1.433 . S
C866 H862 0.929 . S
C866 C868 1.378 . S
C866 C870 1.350 . S
C867 C870 1.463 1_655 S
C867 C872 1.350 . S
C867 N875 1.427 . S
C868 H859 0.930 . S
C868 C866 1.378 . S
C868 C869 1.367 . S
C869 C868 1.367 . S
C869 C871 1.433 . S
C870 C866 1.350 . S
C870 C867 1.463 1_455 S
C870 N874 1.427 . S
C871 H861 0.929 . S
C871 C869 1.433 . S
C871 N874 1.384 . S
C872 H863 0.929 . S
C872 C864 1.378 . S
C872 C867 1.350 . S
C873 H860 0.929 . S
C873 C865 1.433 . S
C873 N875 1.384 . S
N874 C870 1.427 . S
N874 C871 1.384 . S
N875 C867 1.427 . S
N875 C873 1.384 . S
H876 C882 0.930 . S
H877 C886 0.930 . S
H878 C891 0.929 . S
H879 C889 0.929 . S
H880 C884 0.929 . S
H881 C890 0.929 . S
C882 H876 0.930 . S
C882 C883 1.367 . S
C882 C890 1.378 . S
C883 C882 1.367 . S
C883 C891 1.433 . S
C884 H880 0.929 . S
C884 C886 1.378 . S
C884 C888 1.350 . S
C885 C888 1.463 1_565 S
C885 C890 1.350 . S
C885 N893 1.427 . S
C886 H877 0.930 . S
C886 C884 1.378 . S
C886 C887 1.367 . S
C887 C886 1.367 . S
C887 C889 1.433 . S
C888 C884 1.350 . S
C888 C885 1.463 1_545 S
C888 N892 1.427 . S
C889 H879 0.929 . S
C889 C887 1.433 . S
C889 N892 1.384 . S
C890 H881 0.929 . S
C890 C882 1.378 . S
C890 C885 1.350 . S
C891 H878 0.929 . S
C891 C883 1.433 . S
C891 N893 1.384 . S
N892 C888 1.427 . S
N892 C889 1.384 . S
N893 C885 1.427 . S
N893 C891 1.384 . S
H894 C900 0.930 . S
H895 C904 0.930 . S
H896 C909 0.929 . S
H897 C907 0.929 . S
H898 C902 0.929 . S
H899 C908 0.929 . S
C900 H894 0.930 . S
C900 C901 1.367 . S
C900 C908 1.378 . S
C901 C900 1.367 . S
C901 C909 1.433 . S
C902 H898 0.929 . S
C902 C904 1.378 . S
C902 C906 1.350 . S
C903 C906 1.463 1_655 S
C903 C908 1.350 . S
C903 N911 1.427 . S
C904 H895 0.930 . S
C904 C902 1.378 . S
C904 C905 1.367 . S
C905 C904 1.367 . S
C905 C907 1.433 . S
C906 C902 1.350 . S
C906 C903 1.463 1_455 S
C906 N910 1.427 . S
C907 H897 0.929 . S
C907 C905 1.433 . S
C907 N910 1.384 . S
C908 H899 0.929 . S
C908 C900 1.378 . S
C908 C903 1.350 . S
C909 H896 0.929 . S
C909 C901 1.433 . S
C909 N911 1.384 . S
N910 C906 1.427 . S
N910 C907 1.384 . S
N911 C903 1.427 . S
N911 C909 1.384 . S
H912 C918 0.930 . S
H913 C922 0.930 . S
H914 C927 0.929 . S
H915 C925 0.929 . S
H916 C920 0.929 . S
H917 C926 0.929 . S
C918 H912 0.930 . S
C918 C919 1.367 . S
C918 C926 1.378 . S
C919 C918 1.367 . S
C919 C927 1.433 . S
C920 H916 0.929 . S
C920 C922 1.378 . S
C920 C924 1.350 . S
C921 C924 1.463 1_556 S
C921 C926 1.350 . S
C921 N929 1.427 . S
C922 H913 0.930 . S
C922 C920 1.378 . S
C922 C923 1.367 . S
C923 C922 1.367 . S
C923 C925 1.433 . S
C924 C920 1.350 . S
C924 C921 1.463 1_554 S
C924 N928 1.427 . S
C925 H915 0.929 . S
C925 C923 1.433 . S
C925 N928 1.384 . S
C926 H917 0.929 . S
C926 C918 1.378 . S
C926 C921 1.350 . S
C927 H914 0.929 . S
C927 C919 1.433 . S
C927 N929 1.384 . S
N928 C924 1.427 . S
N928 C925 1.384 . S
N929 C921 1.427 . S
N929 C927 1.384 . S
H930 C936 0.930 . S
H931 C940 0.930 . S
H932 C945 0.929 . S
H933 C943 0.929 . S
H934 C938 0.929 . S
H935 C944 0.929 . S
C936 H930 0.930 . S
C936 C937 1.367 . S
C936 C944 1.378 . S
C937 C936 1.367 . S
C937 C945 1.433 . S
C938 H934 0.929 . S
C938 C940 1.378 . S
C938 C942 1.350 . S
C939 C942 1.463 1_556 S
C939 C944 1.350 . S
C939 N947 1.427 . S
C940 H931 0.930 . S
C940 C938 1.378 . S
C940 C941 1.367 . S
C941 C940 1.367 . S
C941 C943 1.433 . S
C942 C938 1.350 . S
C942 C939 1.463 1_554 S
C942 N946 1.427 . S
C943 H933 0.929 . S
C943 C941 1.433 . S
C943 N946 1.384 . S
C944 H935 0.929 . S
C944 C936 1.378 . S
C944 C939 1.350 . S
C945 H932 0.929 . S
C945 C937 1.433 . S
C945 N947 1.384 . S
N946 C942 1.427 . S
N946 C943 1.384 . S
N947 C939 1.427 . S
N947 C945 1.384 . S
H948 C954 0.930 . S
H949 C958 0.930 . S
H950 C963 0.929 . S
H951 C961 0.929 . S
H952 C956 0.929 . S
H953 C962 0.929 . S
C954 H948 0.930 . S
C954 C955 1.367 . S
C954 C962 1.378 . S
C955 C954 1.367 . S
C955 C963 1.433 . S
C956 H952 0.929 . S
C956 C958 1.378 . S
C956 C960 1.350 . S
C957 C960 1.463 1_556 S
C957 C962 1.350 . S
C957 N965 1.427 . S
C958 H949 0.930 . S
C958 C956 1.378 . S
C958 C959 1.367 . S
C959 C958 1.367 . S
C959 C961 1.433 . S
C960 C956 1.350 . S
C960 C957 1.463 1_554 S
C960 N964 1.427 . S
C961 H951 0.929 . S
C961 C959 1.433 . S
C961 N964 1.384 . S
C962 H953 0.929 . S
C962 C954 1.378 . S
C962 C957 1.350 . S
C963 H950 0.929 . S
C963 C955 1.433 . S
C963 N965 1.384 . S
N964 C960 1.427 . S
N964 C961 1.384 . S
N965 C957 1.427 . S
N965 C963 1.384 . S
H966 C972 0.930 . S
H967 C976 0.930 . S
H968 C981 0.929 . S
H969 C979 0.929 . S
H970 C974 0.929 . S
H971 C980 0.929 . S
C972 H966 0.930 . S
C972 C973 1.367 . S
C972 C980 1.378 . S
C973 C972 1.367 . S
C973 C981 1.433 . S
C974 H970 0.929 . S
C974 C976 1.378 . S
C974 C978 1.350 . S
C975 C978 1.463 1_556 S
C975 C980 1.350 . S
C975 N983 1.427 . S
C976 H967 0.930 . S
C976 C974 1.378 . S
C976 C977 1.367 . S
C977 C976 1.367 . S
C977 C979 1.433 . S
C978 C974 1.350 . S
C978 C975 1.463 1_554 S
C978 N982 1.427 . S
C979 H969 0.929 . S
C979 C977 1.433 . S
C979 N982 1.384 . S
C980 H971 0.929 . S
C980 C972 1.378 . S
C980 C975 1.350 . S
C981 H968 0.929 . S
C981 C973 1.433 . S
C981 N983 1.384 . S
N982 C978 1.427 . S
N982 C979 1.384 . S
N983 C975 1.427 . S
N983 C981 1.384 . S
H984 C990 0.930 . S
H985 C994 0.930 . S
H986 C999 0.929 . S
H987 C997 0.929 . S
H988 C992 0.929 . S
H989 C998 0.929 . S
C990 H984 0.930 . S
C990 C991 1.367 . S
C990 C998 1.378 . S
C991 C990 1.367 . S
C991 C999 1.433 . S
C992 H988 0.929 . S
C992 C994 1.378 . S
C992 C996 1.350 . S
C993 C996 1.463 . S
C993 C998 1.350 . S
C993 N1001 1.427 . S
C994 H985 0.930 . S
C994 C992 1.378 . S
C994 C995 1.367 . S
C995 C994 1.367 . S
C995 C997 1.433 . S
C996 C992 1.350 . S
C996 C993 1.463 . S
C996 N1000 1.427 . S
C997 H987 0.929 . S
C997 C995 1.433 . S
C997 N1000 1.384 . S
C998 H989 0.929 . S
C998 C990 1.378 . S
C998 C993 1.350 . S
C999 H986 0.929 . S
C999 C991 1.433 . S
C999 N1001 1.384 . S
N1000 C996 1.427 . S
N1000 C997 1.384 . S
N1001 C993 1.427 . S
N1001 C999 1.384 . S
H1002 C1008 0.930 . S
H1003 C1012 0.930 . S
H1004 C1017 0.929 . S
H1005 C1015 0.929 . S
H1006 C1010 0.929 . S
H1007 C1016 0.929 . S
C1008 H1002 0.930 . S
C1008 C1009 1.367 . S
C1008 C1016 1.378 . S
C1009 C1008 1.367 . S
C1009 C1017 1.433 . S
C1010 H1006 0.929 . S
C1010 C1012 1.378 . S
C1010 C1014 1.350 . S
C1011 C1014 1.463 . S
C1011 C1016 1.350 . S
C1011 N1019 1.427 . S
C1012 H1003 0.930 . S
C1012 C1010 1.378 . S
C1012 C1013 1.367 . S
C1013 C1012 1.367 . S
C1013 C1015 1.433 . S
C1014 C1010 1.350 . S
C1014 C1011 1.463 . S
C1014 N1018 1.427 . S
C1015 H1005 0.929 . S
C1015 C1013 1.433 . S
C1015 N1018 1.384 . S
C1016 H1007 0.929 . S
C1016 C1008 1.378 . S
C1016 C1011 1.350 . S
C1017 H1004 0.929 . S
C1017 C1009 1.433 . S
C1017 N1019 1.384 . S
N1018 C1014 1.427 . S
N1018 C1015 1.384 . S
N1019 C1011 1.427 . S
N1019 C1017 1.384 . S
H1020 C1026 0.930 . S
H1021 C1030 0.930 . S
H1022 C1035 0.929 . S
H1023 C1033 0.929 . S
H1024 C1028 0.929 . S
H1025 C1034 0.929 . S
C1026 H1020 0.930 . S
C1026 C1027 1.367 . S
C1026 C1034 1.378 . S
C1027 C1026 1.367 . S
C1027 C1035 1.433 . S
C1028 H1024 0.929 . S
C1028 C1030 1.378 . S
C1028 C1032 1.350 . S
C1029 C1032 1.463 . S
C1029 C1034 1.350 . S
C1029 N1037 1.427 . S
C1030 H1021 0.930 . S
C1030 C1028 1.378 . S
C1030 C1031 1.367 . S
C1031 C1030 1.367 . S
C1031 C1033 1.433 . S
C1032 C1028 1.350 . S
C1032 C1029 1.463 . S
C1032 N1036 1.427 . S
C1033 H1023 0.929 . S
C1033 C1031 1.433 . S
C1033 N1036 1.384 . S
C1034 H1025 0.929 . S
C1034 C1026 1.378 . S
C1034 C1029 1.350 . S
C1035 H1022 0.929 . S
C1035 C1027 1.433 . S
C1035 N1037 1.384 . S
N1036 C1032 1.427 . S
N1036 C1033 1.384 . S
N1037 C1029 1.427 . S
N1037 C1035 1.384 . S
H1038 C1044 0.930 . S
H1039 C1048 0.930 . S
H1040 C1053 0.929 . S
H1041 C1051 0.929 . S
H1042 C1046 0.929 . S
H1043 C1052 0.929 . S
C1044 H1038 0.930 . S
C1044 C1045 1.367 . S
C1044 C1052 1.378 . S
C1045 C1044 1.367 . S
C1045 C1053 1.433 . S
C1046 H1042 0.929 . S
C1046 C1048 1.378 . S
C1046 C1050 1.350 . S
C1047 C1050 1.463 . S
C1047 C1052 1.350 . S
C1047 N1055 1.427 . S
C1048 H1039 0.930 . S
C1048 C1046 1.378 . S
C1048 C1049 1.367 . S
C1049 C1048 1.367 . S
C1049 C1051 1.433 . S
C1050 C1046 1.350 . S
C1050 C1047 1.463 . S
C1050 N1054 1.427 . S
C1051 H1041 0.929 . S
C1051 C1049 1.433 . S
C1051 N1054 1.384 . S
C1052 H1043 0.929 . S
C1052 C1044 1.378 . S
C1052 C1047 1.350 . S
C1053 H1040 0.929 . S
C1053 C1045 1.433 . S
C1053 N1055 1.384 . S
N1054 C1050 1.427 . S
N1054 C1051 1.384 . S
N1055 C1047 1.427 . S
N1055 C1053 1.384 . S
H1056 C1062 0.930 . S
H1057 C1066 0.930 . S
H1058 C1071 0.929 . S
H1059 C1069 0.929 . S
H1060 C1064 0.929 . S
H1061 C1070 0.929 . S
C1062 H1056 0.930 . S
C1062 C1063 1.367 . S
C1062 C1070 1.378 . S
C1063 C1062 1.367 . S
C1063 C1071 1.433 . S
C1064 H1060 0.929 . S
C1064 C1066 1.378 . S
C1064 C1068 1.350 . S
C1065 C1068 1.463 . S
C1065 C1070 1.350 . S
C1065 N1073 1.427 . S
C1066 H1057 0.930 . S
C1066 C1064 1.378 . S
C1066 C1067 1.367 . S
C1067 C1066 1.367 . S
C1067 C1069 1.433 . S
C1068 C1064 1.350 . S
C1068 C1065 1.463 . S
C1068 N1072 1.427 . S
C1069 H1059 0.929 . S
C1069 C1067 1.433 . S
C1069 N1072 1.384 . S
C1070 H1061 0.929 . S
C1070 C1062 1.378 . S
C1070 C1065 1.350 . S
C1071 H1058 0.929 . S
C1071 C1063 1.433 . S
C1071 N1073 1.384 . S
N1072 C1068 1.427 . S
N1072 C1069 1.384 . S
N1073 C1065 1.427 . S
N1073 C1071 1.384 . S
H1074 C1080 0.930 . S
H1075 C1084 0.930 . S
H1076 C1089 0.929 . S
H1077 C1087 0.929 . S
H1078 C1082 0.929 . S
H1079 C1088 0.929 . S
C1080 H1074 0.930 . S
C1080 C1081 1.367 . S
C1080 C1088 1.378 . S
C1081 C1080 1.367 . S
C1081 C1089 1.433 . S
C1082 H1078 0.929 . S
C1082 C1084 1.378 . S
C1082 C1086 1.350 . S
C1083 C1086 1.463 . S
C1083 C1088 1.350 . S
C1083 N1091 1.427 . S
C1084 H1075 0.930 . S
C1084 C1082 1.378 . S
C1084 C1085 1.367 . S
C1085 C1084 1.367 . S
C1085 C1087 1.433 . S
C1086 C1082 1.350 . S
C1086 C1083 1.463 . S
C1086 N1090 1.427 . S
C1087 H1077 0.929 . S
C1087 C1085 1.433 . S
C1087 N1090 1.384 . S
C1088 H1079 0.929 . S
C1088 C1080 1.378 . S
C1088 C1083 1.350 . S
C1089 H1076 0.929 . S
C1089 C1081 1.433 . S
C1089 N1091 1.384 . S
N1090 C1086 1.427 . S
N1090 C1087 1.384 . S
N1091 C1083 1.427 . S
N1091 C1089 1.384 . S
H1092 C1098 0.930 . S
H1093 C1102 0.930 . S
H1094 C1107 0.929 . S
H1095 C1105 0.929 . S
H1096 C1100 0.929 . S
H1097 C1106 0.929 . S
C1098 H1092 0.930 . S
C1098 C1099 1.367 . S
C1098 C1106 1.378 . S
C1099 C1098 1.367 . S
C1099 C1107 1.433 . S
C1100 H1096 0.929 . S
C1100 C1102 1.378 . S
C1100 C1104 1.350 . S
C1101 C1104 1.463 . S
C1101 C1106 1.350 . S
C1101 N1109 1.427 . S
C1102 H1093 0.930 . S
C1102 C1100 1.378 . S
C1102 C1103 1.367 . S
C1103 C1102 1.367 . S
C1103 C1105 1.433 . S
C1104 C1100 1.350 . S
C1104 C1101 1.463 . S
C1104 N1108 1.427 . S
C1105 H1095 0.929 . S
C1105 C1103 1.433 . S
C1105 N1108 1.384 . S
C1106 H1097 0.929 . S
C1106 C1098 1.378 . S
C1106 C1101 1.350 . S
C1107 H1094 0.929 . S
C1107 C1099 1.433 . S
C1107 N1109 1.384 . S
N1108 C1104 1.427 . S
N1108 C1105 1.384 . S
N1109 C1101 1.427 . S
N1109 C1107 1.384 . S
H1110 C1116 0.930 . S
H1111 C1120 0.930 . S
H1112 C1125 0.929 . S
H1113 C1123 0.929 . S
H1114 C1118 0.929 . S
H1115 C1124 0.929 . S
C1116 H1110 0.930 . S
C1116 C1117 1.367 . S
C1116 C1124 1.378 . S
C1117 C1116 1.367 . S
C1117 C1125 1.433 . S
C1118 H1114 0.929 . S
C1118 C1120 1.378 . S
C1118 C1122 1.350 . S
C1119 C1122 1.463 . S
C1119 C1124 1.350 . S
C1119 N1127 1.427 . S
C1120 H1111 0.930 . S
C1120 C1118 1.378 . S
C1120 C1121 1.367 . S
C1121 C1120 1.367 . S
C1121 C1123 1.433 . S
C1122 C1118 1.350 . S
C1122 C1119 1.463 . S
C1122 N1126 1.427 . S
C1123 H1113 0.929 . S
C1123 C1121 1.433 . S
C1123 N1126 1.384 . S
C1124 H1115 0.929 . S
C1124 C1116 1.378 . S
C1124 C1119 1.350 . S
C1125 H1112 0.929 . S
C1125 C1117 1.433 . S
C1125 N1127 1.384 . S
N1126 C1122 1.427 . S
N1126 C1123 1.384 . S
N1127 C1119 1.427 . S
N1127 C1125 1.384 . S
H1128 C1134 0.930 . S
H1129 C1138 0.930 . S
H1130 C1143 0.929 . S
H1131 C1141 0.929 . S
H1132 C1136 0.929 . S
H1133 C1142 0.929 . S
C1134 H1128 0.930 . S
C1134 C1135 1.367 . S
C1134 C1142 1.378 . S
C1135 C1134 1.367 . S
C1135 C1143 1.433 . S
C1136 H1132 0.929 . S
C1136 C1138 1.378 . S
C1136 C1140 1.350 . S
C1137 C1140 1.463 . S
C1137 C1142 1.350 . S
C1137 N1145 1.427 . S
C1138 H1129 0.930 . S
C1138 C1136 1.378 . S
C1138 C1139 1.367 . S
C1139 C1138 1.367 . S
C1139 C1141 1.433 . S
C1140 C1136 1.350 . S
C1140 C1137 1.463 . S
C1140 N1144 1.427 . S
C1141 H1131 0.929 . S
C1141 C1139 1.433 . S
C1141 N1144 1.384 . S
C1142 H1133 0.929 . S
C1142 C1134 1.378 . S
C1142 C1137 1.350 . S
C1143 H1130 0.929 . S
C1143 C1135 1.433 . S
C1143 N1145 1.384 . S
N1144 C1140 1.427 . S
N1144 C1141 1.384 . S
N1145 C1137 1.427 . S
N1145 C1143 1.384 . S
H1146 C1152 0.930 . S
H1147 C1156 0.930 . S
H1148 C1161 0.929 . S
H1149 C1159 0.929 . S
H1150 C1154 0.929 . S
H1151 C1160 0.929 . S
C1152 H1146 0.930 . S
C1152 C1153 1.367 . S
C1152 C1160 1.378 . S
C1153 C1152 1.367 . S
C1153 C1161 1.433 . S
C1154 H1150 0.929 . S
C1154 C1156 1.378 . S
C1154 C1158 1.350 . S
C1155 C1158 1.463 . S
C1155 C1160 1.350 . S
C1155 N1163 1.427 . S
C1156 H1147 0.930 . S
C1156 C1154 1.378 . S
C1156 C1157 1.367 . S
C1157 C1156 1.367 . S
C1157 C1159 1.433 . S
C1158 C1154 1.350 . S
C1158 C1155 1.463 . S
C1158 N1162 1.427 . S
C1159 H1149 0.929 . S
C1159 C1157 1.433 . S
C1159 N1162 1.384 . S
C1160 H1151 0.929 . S
C1160 C1152 1.378 . S
C1160 C1155 1.350 . S
C1161 H1148 0.929 . S
C1161 C1153 1.433 . S
C1161 N1163 1.384 . S
N1162 C1158 1.427 . S
N1162 C1159 1.384 . S
N1163 C1155 1.427 . S
N1163 C1161 1.384 . S
H1164 C1170 0.930 . S
H1165 C1174 0.930 . S
H1166 C1179 0.929 . S
H1167 C1177 0.929 . S
H1168 C1172 0.929 . S
H1169 C1178 0.929 . S
C1170 H1164 0.930 . S
C1170 C1171 1.367 . S
C1170 C1178 1.378 . S
C1171 C1170 1.367 . S
C1171 C1179 1.433 . S
C1172 H1168 0.929 . S
C1172 C1174 1.378 . S
C1172 C1176 1.350 . S
C1173 C1176 1.463 . S
C1173 C1178 1.350 . S
C1173 N1181 1.427 . S
C1174 H1165 0.930 . S
C1174 C1172 1.378 . S
C1174 C1175 1.367 . S
C1175 C1174 1.367 . S
C1175 C1177 1.433 . S
C1176 C1172 1.350 . S
C1176 C1173 1.463 . S
C1176 N1180 1.427 . S
C1177 H1167 0.929 . S
C1177 C1175 1.433 . S
C1177 N1180 1.384 . S
C1178 H1169 0.929 . S
C1178 C1170 1.378 . S
C1178 C1173 1.350 . S
C1179 H1166 0.929 . S
C1179 C1171 1.433 . S
C1179 N1181 1.384 . S
N1180 C1176 1.427 . S
N1180 C1177 1.384 . S
N1181 C1173 1.427 . S
N1181 C1179 1.384 . S
H1182 C1188 0.930 . S
H1183 C1192 0.930 . S
H1184 C1197 0.929 . S
H1185 C1195 0.929 . S
H1186 C1190 0.929 . S
H1187 C1196 0.929 . S
C1188 H1182 0.930 . S
C1188 C1189 1.367 . S
C1188 C1196 1.378 . S
C1189 C1188 1.367 . S
C1189 C1197 1.433 . S
C1190 H1186 0.929 . S
C1190 C1192 1.378 . S
C1190 C1194 1.350 . S
C1191 C1194 1.463 . S
C1191 C1196 1.350 . S
C1191 N1199 1.427 . S
C1192 H1183 0.930 . S
C1192 C1190 1.378 . S
C1192 C1193 1.367 . S
C1193 C1192 1.367 . S
C1193 C1195 1.433 . S
C1194 C1190 1.350 . S
C1194 C1191 1.463 . S
C1194 N1198 1.427 . S
C1195 H1185 0.929 . S
C1195 C1193 1.433 . S
C1195 N1198 1.384 . S
C1196 H1187 0.929 . S
C1196 C1188 1.378 . S
C1196 C1191 1.350 . S
C1197 H1184 0.929 . S
C1197 C1189 1.433 . S
C1197 N1199 1.384 . S
N1198 C1194 1.427 . S
N1198 C1195 1.384 . S
N1199 C1191 1.427 . S
N1199 C1197 1.384 . S
C343 C165 1.386 . S
C347 C4 1.398 . S
C361 C18 1.392 . S
C365 C123 1.393 . S
C379 C32 1.380 . S
C383 C137 1.403 . S
C397 C46 1.392 . S
C401 C151 1.393 . S
C415 C193 1.386 . S
C419 C60 1.398 . S
C433 C74 1.398 . S
C437 C207 1.386 . S
C451 C221 1.403 . S
C455 C88 1.380 . S
C469 C179 1.389 . S
C473 C102 1.395 . S
C487 C81 1.394 . S
C491 C116 1.391 . S
C505 C95 1.403 . S
C509 C130 1.380 . S
C523 C144 1.392 . S
C527 C109 1.390 . S
C541 C67 1.387 . S
C545 C158 1.396 . S
C559 C53 1.397 . S
C563 C172 1.388 . S
C577 C186 1.388 . S
C581 C11 1.396 . S
C595 C200 1.398 . S
C599 C25 1.387 . S
C613 C214 1.395 . S
C617 C39 1.390 . S
C631 C228 1.398 . S
C635 C333 1.386 . S
C649 C291 1.397 . S
C653 C242 1.385 . S
C667 C256 1.398 . S
C671 C249 1.387 . S
C685 C270 1.381 . S
C689 C263 1.402 . S
C703 C277 1.392 . S
C707 C284 1.392 . S
C721 C298 1.385 . S
C725 C319 1.397 . S
C739 C235 1.391 . S
C743 C312 1.393 . S
C757 C305 1.392 . S
C761 C326 1.392 . S
C775 C12 1.318 . S
C779 C96 1.323 . S
C793 C26 1.322 . S
C797 C110 1.319 . S
C811 C40 1.325 . S
C815 C68 1.317 . S
C829 C82 1.321 . S
C833 C54 1.324 . S
C847 C152 1.319 . S
C851 C124 1.323 . S
C865 C138 1.319 . S
C869 C166 1.322 . S
C883 C180 1.317 . S
C887 C208 1.325 . S
C901 C222 1.325 . S
C905 C194 1.317 . S
C919 C250 1.322 . S
C923 C236 1.319 . S
C937 C264 1.325 . S
C941 C334 1.320 . S
C955 C278 1.323 . S
C959 C306 1.318 . S
C973 C292 1.319 . S
C977 C320 1.323 . S
C991 C5 0.898 . S
C995 C75 0.901 . S
C1009 C19 0.935 . S
C1013 C89 0.919 . S
C1027 C33 0.936 . S
C1031 C103 0.921 . S
C1045 C61 0.936 . S
C1049 C47 0.930 . S
C1063 C117 0.916 . S
C1067 C327 0.899 . S
C1081 C131 0.901 . S
C1085 C299 0.898 . S
C1099 C313 0.931 . S
C1103 C145 0.935 . S
C1117 C159 0.930 . S
C1121 C229 0.936 . S
C1135 C285 0.914 . S
C1139 C173 0.898 . S
C1153 C243 0.897 . S
C1157 C187 0.904 . S
C1171 C201 0.917 . S
C1175 C257 0.899 . S
C1189 C271 0.924 . S
C1193 C215 0.903 . S
