# Generated by pormake.
# Topology vmf, (6)-cn, num edge types: 1
# Building blocks:
#     Node 0, Type 0, BuildingBlock: OJICUG_clean_sbu_0, # of connection points: 6
#     Node 1, Type 0, BuildingBlock: OJICUG_clean_sbu_0, # of connection points: 6
#     Node 2, Type 0, BuildingBlock: OJICUG_clean_sbu_0, # of connection points: 6
#     Node 3, Type 0, BuildingBlock: OJICUG_clean_sbu_0, # of connection points: 6
#     Node 4, Type 0, BuildingBlock: OJICUG_clean_sbu_0, # of connection points: 6
#     Node 5, Type 0, BuildingBlock: OJICUG_clean_sbu_0, # of connection points: 6
#     Node 6, Type 0, BuildingBlock: OJICUG_clean_sbu_0, # of connection points: 6
#     Node 7, Type 0, BuildingBlock: OJICUG_clean_sbu_0, # of connection points: 6
#     Edge 8, Type (0, 0), BuildingBlock: XIVTED_clean_linker_0, # of connection points: 2
#     Edge 9, Type (0, 0), BuildingBlock: XIVTED_clean_linker_0, # of connection points: 2
#     Edge 10, Type (0, 0), BuildingBlock: XIVTED_clean_linker_0, # of connection points: 2
#     Edge 11, Type (0, 0), BuildingBlock: XIVTED_clean_linker_0, # of connection points: 2
#     Edge 12, Type (0, 0), BuildingBlock: XIVTED_clean_linker_0, # of connection points: 2
#     Edge 13, Type (0, 0), BuildingBlock: XIVTED_clean_linker_0, # of connection points: 2
#     Edge 14, Type (0, 0), BuildingBlock: XIVTED_clean_linker_0, # of connection points: 2
#     Edge 15, Type (0, 0), BuildingBlock: XIVTED_clean_linker_0, # of connection points: 2
#     Edge 16, Type (0, 0), BuildingBlock: XIVTED_clean_linker_0, # of connection points: 2
#     Edge 17, Type (0, 0), BuildingBlock: XIVTED_clean_linker_0, # of connection points: 2
#     Edge 18, Type (0, 0), BuildingBlock: XIVTED_clean_linker_0, # of connection points: 2
#     Edge 19, Type (0, 0), BuildingBlock: XIVTED_clean_linker_0, # of connection points: 2
#     Edge 20, Type (0, 0), BuildingBlock: XIVTED_clean_linker_0, # of connection points: 2
#     Edge 21, Type (0, 0), BuildingBlock: XIVTED_clean_linker_0, # of connection points: 2
#     Edge 22, Type (0, 0), BuildingBlock: XIVTED_clean_linker_0, # of connection points: 2
#     Edge 23, Type (0, 0), BuildingBlock: XIVTED_clean_linker_0, # of connection points: 2
#     Edge 24, Type (0, 0), BuildingBlock: XIVTED_clean_linker_0, # of connection points: 2
#     Edge 25, Type (0, 0), BuildingBlock: XIVTED_clean_linker_0, # of connection points: 2
#     Edge 26, Type (0, 0), BuildingBlock: XIVTED_clean_linker_0, # of connection points: 2
#     Edge 27, Type (0, 0), BuildingBlock: XIVTED_clean_linker_0, # of connection points: 2
#     Edge 28, Type (0, 0), BuildingBlock: XIVTED_clean_linker_0, # of connection points: 2
#     Edge 29, Type (0, 0), BuildingBlock: XIVTED_clean_linker_0, # of connection points: 2
#     Edge 30, Type (0, 0), BuildingBlock: XIVTED_clean_linker_0, # of connection points: 2
#     Edge 31, Type (0, 0), BuildingBlock: XIVTED_clean_linker_0, # of connection points: 2
# Relax obj value: 0.306
# Max RMSD: 0.281
# Mean RMSD: 0.281
data_MOF--net-vmf--node1-OJICUG_clean_sbu_0--edge1-XIVTED_clean_linker_0
_symmetry_space_group_name_H-M    P1
_symmetry_Int_Tables_number       1
_symmetry_cell_setting            triclinic
loop_
_symmetry_equiv_pos_as_xyz
'x, y, z'
_cell_length_a     29.392165
_cell_length_b     44.175191
_cell_length_c     28.978293
_cell_angle_alpha  90.000348
_cell_angle_beta   101.12966
_cell_angle_gamma 90.008874
loop_
_atom_site_label
_atom_site_type_symbol
_atom_site_fract_x
_atom_site_fract_y
_atom_site_fract_z
_atom_type_partial_charge
Sc0 Sc 0.20369 0.33796 0.19382 0.0
Sc1 Sc 0.20245 0.26858 0.24942 0.0
Sc2 Sc 0.11067 0.31962 0.2485 0.0
O3 O 0.172 0.30884 0.23065 0.0
C4 C 0.16195 0.38297 0.26107 0.0
C5 C 0.29183 0.31165 0.25575 0.0
C6 C 0.1736 0.2905 0.34201 0.0
C7 C 0.22042 0.2734 0.14909 0.0
C8 C 0.09832 0.34183 0.14056 0.0
C9 C 0.0953 0.24997 0.2348 0.0
O10 O 0.18768 0.37677 0.23188 0.0
O11 O 0.27244 0.28598 0.25665 0.0
O12 O 0.13576 0.30307 0.32114 0.0
O13 O 0.22466 0.30198 0.15317 0.0
O14 O 0.08118 0.33587 0.17699 0.0
O15 O 0.13813 0.24388 0.24727 0.0
O16 O 0.14174 0.34259 0.1417 0.0
O17 O 0.20372 0.25702 0.17792 0.0
O18 O 0.08026 0.27667 0.22678 0.0
O19 O 0.26925 0.33538 0.24129 0.0
O20 O 0.13291 0.36441 0.27218 0.0
O21 O 0.20352 0.2795 0.32046 0.0
Sc22 Sc 0.86041 0.32605 0.72157 0.0
Sc23 Sc 0.79479 0.27357 0.76801 0.0
Sc24 Sc 0.78799 0.35052 0.79525 0.0
O25 O 0.81348 0.3166 0.76129 0.0
C26 C 0.89605 0.35851 0.81823 0.0
C27 C 0.89476 0.26034 0.7577 0.0
C28 C 0.80295 0.2995 0.8722 0.0
C29 C 0.79403 0.28188 0.65737 0.0
C30 C 0.79807 0.3854 0.70583 0.0
C31 C 0.6997 0.30881 0.76244 0.0
O32 O 0.90549 0.34094 0.78625 0.0
O33 O 0.86484 0.25664 0.7833 0.0
O34 O 0.80179 0.32722 0.86076 0.0
O35 O 0.81384 0.30789 0.65999 0.0
O36 O 0.77093 0.37667 0.73217 0.0
O37 O 0.7229 0.28603 0.75337 0.0
O38 O 0.83572 0.37166 0.70443 0.0
O39 O 0.79008 0.2662 0.69345 0.0
O40 O 0.71814 0.33318 0.78043 0.0
O41 O 0.89355 0.28265 0.73006 0.0
O42 O 0.85623 0.37076 0.81489 0.0
O43 O 0.79859 0.27791 0.84258 0.0
Sc44 Sc 0.86152 0.65994 0.72383 0.0
Sc45 Sc 0.79521 0.71156 0.77122 0.0
Sc46 Sc 0.79063 0.63444 0.79823 0.0
O47 O 0.81483 0.66878 0.76409 0.0
C48 C 0.80002 0.6002 0.70821 0.0
C49 C 0.79317 0.70344 0.66023 0.0
C50 C 0.70116 0.67541 0.76745 0.0
C51 C 0.89463 0.72591 0.75965 0.0
C52 C 0.89857 0.6274 0.81991 0.0
C53 C 0.80566 0.68521 0.87553 0.0
O54 O 0.83751 0.61416 0.70674 0.0
O55 O 0.78906 0.719 0.69641 0.0
O56 O 0.72049 0.65122 0.78508 0.0
O57 O 0.89374 0.70364 0.73202 0.0
O58 O 0.85918 0.61454 0.8162 0.0
O59 O 0.80017 0.70689 0.846 0.0
O60 O 0.90747 0.64536 0.78817 0.0
O61 O 0.86489 0.72929 0.78554 0.0
O62 O 0.80527 0.65754 0.86389 0.0
O63 O 0.81405 0.67779 0.66279 0.0
O64 O 0.77301 0.60864 0.73487 0.0
O65 O 0.72357 0.69841 0.75772 0.0
Sc66 Sc 0.20513 0.64715 0.19616 0.0
Sc67 Sc 0.20428 0.71555 0.25442 0.0
Sc68 Sc 0.11208 0.66468 0.25115 0.0
O69 O 0.17358 0.67564 0.23393 0.0
C70 C 0.09972 0.64338 0.14291 0.0
C71 C 0.22035 0.71257 0.15314 0.0
C72 C 0.0973 0.73428 0.24072 0.0
C73 C 0.29368 0.67302 0.25793 0.0
C74 C 0.16371 0.60141 0.26262 0.0
C75 C 0.17531 0.69222 0.34582 0.0
O76 O 0.14313 0.64265 0.14414 0.0
O77 O 0.2047 0.72847 0.18327 0.0
O78 O 0.08213 0.70788 0.23012 0.0
O79 O 0.27101 0.64941 0.24312 0.0
O80 O 0.13432 0.6197 0.27376 0.0
O81 O 0.20596 0.70295 0.32493 0.0
O82 O 0.18967 0.60794 0.23375 0.0
O83 O 0.27427 0.69856 0.25993 0.0
O84 O 0.137 0.68059 0.3242 0.0
O85 O 0.22494 0.68394 0.15619 0.0
O86 O 0.08252 0.64906 0.17937 0.0
O87 O 0.14012 0.73998 0.25445 0.0
Sc88 Sc 0.7098 0.83356 0.19788 0.0
Sc89 Sc 0.70565 0.76732 0.26104 0.0
Sc90 Sc 0.61346 0.8188 0.24873 0.0
O91 O 0.67616 0.80675 0.23605 0.0
C92 C 0.66468 0.88188 0.25796 0.0
C93 C 0.79536 0.81002 0.26638 0.0
C94 C 0.66937 0.79142 0.34741 0.0
C95 C 0.72957 0.76677 0.16286 0.0
C96 C 0.6068 0.83717 0.13975 0.0
C97 C 0.59805 0.74931 0.23996 0.0
O98 O 0.69042 0.87434 0.22932 0.0
O99 O 0.77601 0.78449 0.26918 0.0
O100 O 0.63266 0.8029 0.3223 0.0
O101 O 0.73422 0.79542 0.16388 0.0
O102 O 0.58833 0.83437 0.17609 0.0
O103 O 0.64017 0.7436 0.25785 0.0
O104 O 0.65034 0.83557 0.14197 0.0
O105 O 0.7103 0.75217 0.19175 0.0
O106 O 0.58409 0.77557 0.22647 0.0
O107 O 0.77273 0.83323 0.24943 0.0
O108 O 0.63625 0.86379 0.27148 0.0
O109 O 0.70311 0.78133 0.33048 0.0
Sc110 Sc 0.36206 0.8256 0.7228 0.0
Sc111 Sc 0.29363 0.77318 0.767 0.0
Sc112 Sc 0.29357 0.84933 0.80081 0.0
O113 O 0.31552 0.81582 0.76305 0.0
C114 C 0.40112 0.85646 0.81966 0.0
C115 C 0.39288 0.75809 0.75179 0.0
C116 C 0.31172 0.79605 0.87367 0.0
C117 C 0.28895 0.78529 0.65671 0.0
C118 C 0.29931 0.88483 0.71088 0.0
C119 C 0.20208 0.81004 0.77202 0.0
O120 O 0.40915 0.83882 0.78724 0.0
O121 O 0.36163 0.75307 0.77539 0.0
O122 O 0.31124 0.82414 0.8644 0.0
O123 O 0.31478 0.80894 0.66093 0.0
O124 O 0.2738 0.87628 0.73903 0.0
O125 O 0.22291 0.78741 0.75888 0.0
O126 O 0.33687 0.87134 0.70801 0.0
O127 O 0.28215 0.7693 0.69147 0.0
O128 O 0.22296 0.83342 0.79077 0.0
O129 O 0.39438 0.78218 0.72857 0.0
O130 O 0.362 0.86944 0.81673 0.0
O131 O 0.30361 0.77542 0.8424 0.0
Sc132 Sc 0.3608 0.15677 0.71986 0.0
Sc133 Sc 0.29206 0.20975 0.76232 0.0
Sc134 Sc 0.29146 0.13394 0.79761 0.0
O135 O 0.31391 0.16703 0.75945 0.0
C136 C 0.29783 0.09765 0.70858 0.0
C137 C 0.2884 0.19675 0.65247 0.0
C138 C 0.20024 0.17314 0.76674 0.0
C139 C 0.39174 0.22438 0.74813 0.0
C140 C 0.39901 0.12674 0.8176 0.0
C141 C 0.30878 0.1878 0.8694 0.0
O142 O 0.33558 0.11095 0.70583 0.0
O143 O 0.2816 0.21311 0.68684 0.0
O144 O 0.22088 0.14998 0.78655 0.0
O145 O 0.39324 0.20017 0.72519 0.0
O146 O 0.35983 0.11381 0.81461 0.0
O147 O 0.30084 0.20814 0.83767 0.0
O148 O 0.40736 0.14401 0.78488 0.0
O149 O 0.36026 0.22964 0.77135 0.0
O150 O 0.30873 0.15964 0.8607 0.0
O151 O 0.31399 0.17299 0.65729 0.0
O152 O 0.27207 0.10654 0.73626 0.0
O153 O 0.22131 0.19555 0.75329 0.0
Sc154 Sc 0.7073 0.15191 0.1953 0.0
Sc155 Sc 0.70412 0.21768 0.25973 0.0
Sc156 Sc 0.61155 0.16667 0.24708 0.0
O157 O 0.6742 0.17854 0.23414 0.0
C158 C 0.60396 0.14843 0.13793 0.0
C159 C 0.72629 0.21903 0.16085 0.0
C160 C 0.59675 0.23606 0.2397 0.0
C161 C 0.79362 0.17513 0.26315 0.0
C162 C 0.66244 0.10347 0.25555 0.0
C163 C 0.66871 0.19298 0.34594 0.0
O164 O 0.64745 0.15 0.13989 0.0
O165 O 0.70775 0.23342 0.19052 0.0
O166 O 0.58264 0.21004 0.22512 0.0
O167 O 0.77085 0.152 0.24606 0.0
O168 O 0.63426 0.12161 0.26938 0.0
O169 O 0.7026 0.20268 0.32888 0.0
O170 O 0.68808 0.11103 0.22678 0.0
O171 O 0.77436 0.20061 0.26653 0.0
O172 O 0.63131 0.18239 0.3208 0.0
O173 O 0.73101 0.19037 0.16136 0.0
O174 O 0.58576 0.15124 0.17443 0.0
O175 O 0.63886 0.24142 0.25813 0.0
H176 H 0.58553 0.268 0.31679 0.0
H177 H 0.34339 0.34075 0.20126 0.0
H178 H 0.52548 0.25419 0.17049 0.0
H179 H 0.35539 0.28224 0.32213 0.0
H180 H 0.42518 0.33095 0.19895 0.0
H181 H 0.51501 0.29532 0.32663 0.0
C182 C 0.55824 0.27173 0.28642 0.0
C183 C 0.56106 0.25894 0.24275 0.0
C184 C 0.41011 0.32112 0.22679 0.0
C185 C 0.48151 0.29034 0.2536 0.0
C186 C 0.36373 0.32682 0.22843 0.0
C187 C 0.34281 0.31226 0.26203 0.0
C188 C 0.43585 0.30146 0.25977 0.0
C189 C 0.37038 0.29387 0.29575 0.0
C190 C 0.51812 0.28707 0.29217 0.0
C191 C 0.52449 0.26384 0.20463 0.0
N192 N 0.41562 0.28887 0.29371 0.0
N193 N 0.48605 0.27916 0.21092 0.0
H194 H 0.64555 0.28064 0.68888 0.0
H195 H 0.43384 0.26383 0.81715 0.0
H196 H 0.63935 0.32994 0.81597 0.0
H197 H 0.43256 0.23568 0.67434 0.0
H198 H 0.50442 0.29351 0.81544 0.0
H199 H 0.56346 0.26897 0.67997 0.0
C200 C 0.62654 0.2893 0.7146 0.0
C201 C 0.64903 0.30592 0.75342 0.0
C202 C 0.48803 0.28131 0.78423 0.0
C203 C 0.55529 0.29215 0.74427 0.0
C204 C 0.44787 0.26445 0.78523 0.0
C205 C 0.42833 0.24677 0.74626 0.0
C206 C 0.50821 0.28026 0.74399 0.0
C207 C 0.44741 0.24839 0.7056 0.0
C208 C 0.57964 0.28274 0.70953 0.0
C209 C 0.62297 0.31695 0.78559 0.0
N210 N 0.48657 0.26446 0.70575 0.0
N211 N 0.57746 0.30931 0.78087 0.0
H212 H 0.4295 0.74447 0.67612 0.0
H213 H 0.64263 0.6518 0.82111 0.0
H214 H 0.43822 0.72059 0.82191 0.0
H215 H 0.64487 0.70486 0.69658 0.0
H216 H 0.55948 0.66309 0.81334 0.0
H217 H 0.49886 0.71479 0.67456 0.0
C218 C 0.44587 0.7326 0.70773 0.0
C219 C 0.42901 0.73549 0.74955 0.0
C220 C 0.57816 0.67174 0.78738 0.0
C221 C 0.50874 0.70187 0.74818 0.0
C222 C 0.62534 0.66525 0.79163 0.0
C223 C 0.65043 0.6778 0.75971 0.0
C224 C 0.55624 0.69037 0.75049 0.0
C225 C 0.62678 0.69514 0.72227 0.0
C226 C 0.48539 0.71567 0.70679 0.0
C227 C 0.45067 0.71911 0.78917 0.0
N228 N 0.58106 0.70103 0.71883 0.0
N229 N 0.49025 0.70337 0.78785 0.0
H230 H 0.34416 0.64479 0.20152 0.0
H231 H 0.58787 0.71563 0.31568 0.0
H232 H 0.35811 0.70189 0.32416 0.0
H233 H 0.5254 0.73286 0.17093 0.0
H234 H 0.51747 0.68817 0.32546 0.0
H235 H 0.42563 0.65486 0.19806 0.0
C236 C 0.36488 0.65846 0.22879 0.0
C237 C 0.34458 0.67254 0.26327 0.0
C238 C 0.52 0.69721 0.29129 0.0
C239 C 0.43727 0.68364 0.25972 0.0
C240 C 0.56006 0.71262 0.28556 0.0
C241 C 0.56221 0.72641 0.24242 0.0
C242 C 0.48274 0.69487 0.25318 0.0
C243 C 0.52496 0.72243 0.20466 0.0
C244 C 0.41106 0.66432 0.2265 0.0
C245 C 0.37261 0.69062 0.29712 0.0
N246 N 0.48657 0.70702 0.2109 0.0
N247 N 0.41767 0.69576 0.29445 0.0
H248 H 0.08652 0.76139 0.32149 0.0
H249 H 0.84661 0.84014 0.21253 0.0
H250 H 0.02791 0.75705 0.1734 0.0
H251 H 0.85945 0.7796 0.33115 0.0
H252 H 0.92788 0.83024 0.20865 0.0
H253 H 0.01714 0.78878 0.33444 0.0
C254 C 0.05986 0.76734 0.29152 0.0
C255 C 0.06279 0.75735 0.24625 0.0
C256 C 0.91314 0.81993 0.23635 0.0
C257 C 0.98432 0.78852 0.26076 0.0
C258 C 0.86702 0.82571 0.23893 0.0
C259 C 0.84637 0.81061 0.27228 0.0
C260 C 0.93898 0.7996 0.26811 0.0
C261 C 0.87414 0.79164 0.30496 0.0
C262 C 0.02033 0.78264 0.29901 0.0
C263 C 0.0269 0.76472 0.20868 0.0
N264 N 0.91913 0.78654 0.30196 0.0
N265 N 0.98896 0.77989 0.21675 0.0
H266 H 0.92784 0.74467 0.68421 0.0
H267 H 0.14786 0.82894 0.83353 0.0
H268 H 0.94415 0.75858 0.83384 0.0
H269 H 0.1419 0.78591 0.6989 0.0
H270 H 0.06515 0.81711 0.82873 0.0
H271 H -0.00308 0.77488 0.68388 0.0
C272 C 0.94586 0.75442 0.71701 0.0
C273 C 0.93113 0.74861 0.75932 0.0
C274 C 0.0819 0.81082 0.79997 0.0
C275 C 0.01063 0.78285 0.75931 0.0
C276 C 0.12881 0.81766 0.80254 0.0
C277 C 0.15147 0.80803 0.76672 0.0
C278 C 0.05783 0.79482 0.76093 0.0
C279 C 0.12568 0.79336 0.72746 0.0
C280 C 0.98524 0.77168 0.71678 0.0
C281 C 0.9549 0.76236 0.80061 0.0
N282 N 0.0803 0.78709 0.72573 0.0
N283 N 0.9943 0.77846 0.79981 0.0
H284 H 0.94084 0.22544 0.83108 0.0
H285 H 0.14089 0.19374 0.69032 0.0
H286 H 0.93218 0.24417 0.68352 0.0
H287 H 0.14547 0.15819 0.82969 0.0
H288 H 0.05937 0.20598 0.6849 0.0
H289 H 0.01052 0.19463 0.83017 0.0
C290 C 0.95313 0.22258 0.79843 0.0
C291 C 0.93169 0.23789 0.75761 0.0
C292 C 0.07774 0.19508 0.71653 0.0
C293 C 0.01046 0.20298 0.75618 0.0
C294 C 0.12428 0.18812 0.71952 0.0
C295 C 0.14965 0.17526 0.76061 0.0
C296 C 0.05672 0.18997 0.7555 0.0
C297 C 0.12674 0.16816 0.79742 0.0
C298 C 0.99276 0.20506 0.79787 0.0
C299 C 0.94853 0.23339 0.71609 0.0
N300 N 0.08158 0.17623 0.79445 0.0
N301 N 0.98712 0.21665 0.71659 0.0
H302 H 0.02645 0.22853 0.16576 0.0
H303 H 0.85774 0.20445 0.32914 0.0
H304 H 0.08343 0.22128 0.31389 0.0
H305 H 0.84463 0.14639 0.20763 0.0
H306 H 0.93946 0.21308 0.3251 0.0
H307 H 0.95781 0.20015 0.1781 0.0
C308 C 0.02506 0.22004 0.20054 0.0
C309 C 0.06065 0.22666 0.23876 0.0
C310 C 0.91893 0.19779 0.30018 0.0
C311 C 0.98191 0.19583 0.25347 0.0
C312 C 0.87246 0.19286 0.3025 0.0
C313 C 0.84461 0.17457 0.26886 0.0
C314 C 0.93691 0.18529 0.26291 0.0
C315 C 0.86512 0.16039 0.23457 0.0
C316 C 0.98602 0.204 0.20761 0.0
C317 C 0.05689 0.21601 0.28348 0.0
N318 N 0.90974 0.16671 0.23164 0.0
N319 N 0.01756 0.20176 0.2899 0.0
H320 H 0.98779 0.34071 0.84052 0.0
H321 H 0.00347 0.35308 0.11885 0.0
H322 H 0.87937 0.38103 0.9016 0.0
H323 H 0.12314 0.34154 0.05447 0.0
H324 H 0.9555 0.36021 0.03997 0.0
H325 H 0.03686 0.33835 0.9191 0.0
C326 C 0.97452 0.34953 0.87019 0.0
C327 C 0.92936 0.3613 0.86401 0.0
C328 C 0.99235 0.35627 0.04335 0.0
C329 C 0.98502 0.35783 0.95461 0.0
C330 C 0.01971 0.3521 0.08837 0.0
C331 C 0.06758 0.34681 0.09368 0.0
C332 C 0.01285 0.35467 0.00327 0.0
C333 C 0.08654 0.34576 0.05256 0.0
C334 C 0.00249 0.34803 0.91518 0.0
C335 C 0.91403 0.37203 0.90425 0.0
N336 N 0.05923 0.34944 0.00941 0.0
N337 N 0.94151 0.36974 0.9477 0.0
H338 H 0.00507 0.63145 0.12081 0.0
H339 H 0.98965 0.64652 0.8428 0.0
H340 H 0.12463 0.6451 0.05694 0.0
H341 H 0.88225 0.60397 0.90282 0.0
H342 H 0.03841 0.64889 0.92154 0.0
H343 H 0.95736 0.6247 0.0417 0.0
C344 C 0.02133 0.63298 0.09039 0.0
C345 C 0.0691 0.63872 0.09589 0.0
C346 C 0.00433 0.63873 0.91734 0.0
C347 C 0.01469 0.6313 0.00527 0.0
C348 C 0.97654 0.63722 0.87227 0.0
C349 C 0.93177 0.6248 0.86575 0.0
C350 C 0.98705 0.62827 0.95652 0.0
C351 C 0.91663 0.61348 0.90574 0.0
C352 C 0.99414 0.62902 0.04524 0.0
C353 C 0.08811 0.64049 0.05486 0.0
N354 N 0.94391 0.61578 0.94928 0.0
N355 N 0.06095 0.63699 0.0116 0.0
H356 H 0.63154 0.82993 0.05414 0.0
H357 H 0.38866 0.88347 0.90153 0.0
H358 H 0.51461 0.85475 0.11621 0.0
H359 H 0.49011 0.83336 0.84284 0.0
H360 H 0.43862 0.87999 0.97904 0.0
H361 H 0.58403 0.83723 0.97618 0.0
C362 C 0.59587 0.83706 0.05153 0.0
C363 C 0.57721 0.84177 0.09222 0.0
C364 C 0.45015 0.86999 0.94916 0.0
C365 C 0.52242 0.85034 0.00214 0.0
C366 C 0.42183 0.8722 0.90459 0.0
C367 C 0.43506 0.85876 0.8651 0.0
C368 C 0.49249 0.85448 0.95467 0.0
C369 C 0.47837 0.84419 0.87194 0.0
C370 C 0.56872 0.84112 0.00678 0.0
C371 C 0.53057 0.85077 0.08608 0.0
N372 N 0.50543 0.84242 0.91577 0.0
N373 N 0.50488 0.85489 0.04195 0.0
H374 H 0.62845 0.15535 0.05218 0.0
H375 H 0.3856 0.10107 0.90016 0.0
H376 H 0.51167 0.13084 0.11469 0.0
H377 H 0.48814 0.14958 0.84074 0.0
H378 H 0.43517 0.1053 0.97781 0.0
H379 H 0.58099 0.14756 0.97439 0.0
C380 C 0.59281 0.14821 0.04971 0.0
C381 C 0.57421 0.14372 0.09049 0.0
C382 C 0.44702 0.11478 0.94775 0.0
C383 C 0.51941 0.13456 0.00052 0.0
C384 C 0.41892 0.11214 0.9031 0.0
C385 C 0.4326 0.12489 0.86334 0.0
C386 C 0.48957 0.13003 0.95308 0.0
C387 C 0.47607 0.13925 0.87004 0.0
C388 C 0.56567 0.14385 0.00503 0.0
C389 C 0.52758 0.13466 0.08448 0.0
N390 N 0.50288 0.14145 0.91394 0.0
N391 N 0.50188 0.13026 0.04042 0.0
H392 H 0.24052 0.56621 0.28221 0.0
H393 H 0.09379 0.41627 0.29024 0.0
H394 H 0.09474 0.56662 0.28702 0.0
H395 H 0.23731 0.41966 0.27653 0.0
H396 H 0.09711 0.47056 0.30868 0.0
H397 H 0.24369 0.51245 0.30068 0.0
C398 C 0.20925 0.55495 0.28773 0.0
C399 C 0.1671 0.57058 0.28209 0.0
C400 C 0.12807 0.45924 0.30252 0.0
C401 C 0.17012 0.50889 0.30225 0.0
C402 C 0.12622 0.4283 0.29214 0.0
C403 C 0.16505 0.41376 0.2808 0.0
C404 C 0.1691 0.47542 0.30174 0.0
C405 C 0.20626 0.43023 0.28395 0.0
C406 C 0.21103 0.52426 0.29834 0.0
C407 C 0.12781 0.55518 0.29061 0.0
N408 N 0.20702 0.46023 0.29357 0.0
N409 N 0.13 0.5249 0.29928 0.0
H410 H 0.85795 0.56755 0.66322 0.0
H411 H 0.71801 0.41867 0.69232 0.0
H412 H 0.7217 0.56536 0.69834 0.0
H413 H 0.85759 0.41992 0.66572 0.0
H414 H 0.71007 0.472 0.6709 0.0
H415 H 0.84935 0.51432 0.64067 0.0
C416 C 0.82581 0.5561 0.66526 0.0
C417 C 0.79109 0.57067 0.68417 0.0
C418 C 0.74216 0.4605 0.66889 0.0
C419 C 0.78124 0.50974 0.65873 0.0
C420 C 0.74674 0.43001 0.68115 0.0
C421 C 0.78906 0.41506 0.68226 0.0
C422 C 0.78037 0.47624 0.65829 0.0
C423 C 0.82465 0.43071 0.66635 0.0
C424 C 0.82096 0.52566 0.65241 0.0
C425 C 0.74993 0.55481 0.68521 0.0
N426 N 0.81989 0.46067 0.65605 0.0
N427 N 0.74652 0.52504 0.6736 0.0
H428 H 0.74023 0.9183 0.27117 0.0
H429 H 0.59487 0.06923 0.28456 0.0
H430 H 0.59576 0.91746 0.28146 0.0
H431 H 0.73605 0.0655 0.26315 0.0
H432 H 0.59767 0.01442 0.29948 0.0
H433 H 0.74263 0.97256 0.28527 0.0
C434 C 0.70906 0.92958 0.2769 0.0
C435 C 0.66753 0.91354 0.27433 0.0
C436 C 0.62819 0.02576 0.29221 0.0
C437 C 0.6697 0.97592 0.28966 0.0
C438 C 0.62666 0.05699 0.28386 0.0
C439 C 0.66502 0.07175 0.27178 0.0
C440 C 0.66848 0.00946 0.28878 0.0
C441 C 0.70536 0.05491 0.27141 0.0
C442 C 0.71041 0.9606 0.28497 0.0
C443 C 0.62839 0.92913 0.28289 0.0
N444 N 0.70586 0.0247 0.27934 0.0
N445 N 0.63016 0.95968 0.28932 0.0
H446 H 0.35264 0.91676 0.65984 0.0
H447 H 0.21722 0.06515 0.69839 0.0
H448 H 0.22095 0.91924 0.70499 0.0
H449 H 0.35348 0.06343 0.66329 0.0
H450 H 0.20689 0.01222 0.67523 0.0
H451 H 0.34189 0.96954 0.6356 0.0
C452 C 0.32102 0.92818 0.66382 0.0
C453 C 0.28845 0.91392 0.68615 0.0
C454 C 0.23872 0.02356 0.67172 0.0
C455 C 0.27615 0.9743 0.65874 0.0
C456 C 0.24469 0.05379 0.68506 0.0
C457 C 0.28697 0.06838 0.68443 0.0
C458 C 0.27554 0.00775 0.65836 0.0
C459 C 0.32077 0.05283 0.66553 0.0
C460 C 0.3149 0.95835 0.64992 0.0
C461 C 0.2477 0.92964 0.68935 0.0
N462 N 0.31477 0.02308 0.6543 0.0
N463 N 0.24316 0.9592 0.67676 0.0
H464 H 0.32577 0.19804 0.57314 0.0
H465 H 0.11434 0.2716 0.39946 0.0
H466 H 0.2024 0.22108 0.62542 0.0
H467 H 0.25688 0.29494 0.39961 0.0
H468 H 0.13945 0.24725 0.47694 0.0
H469 H 0.2939 0.22466 0.49961 0.0
C470 C 0.29159 0.20811 0.56866 0.0
C471 C 0.26669 0.20751 0.60519 0.0
C472 C 0.16488 0.25828 0.46016 0.0
C473 C 0.23032 0.23802 0.5219 0.0
C474 C 0.15052 0.27256 0.41649 0.0
C475 C 0.18364 0.28519 0.39321 0.0
C476 C 0.21251 0.25628 0.47956 0.0
C477 C 0.23029 0.28525 0.41631 0.0
C478 C 0.27369 0.2236 0.52712 0.0
C479 C 0.2227 0.22126 0.59796 0.0
N480 N 0.24343 0.27047 0.45766 0.0
N481 N 0.20576 0.23597 0.55703 0.0
H482 H 0.79625 0.22264 0.63448 0.0
H483 H 0.6269 0.2383 0.38469 0.0
H484 H 0.74662 0.30909 0.57638 0.0
H485 H 0.72328 0.16464 0.41937 0.0
H486 H 0.65596 0.26055 0.46255 0.0
H487 H 0.75772 0.19794 0.56209 0.0
C488 C 0.7774 0.23646 0.60624 0.0
C489 C 0.77486 0.268 0.61126 0.0
C490 C 0.66988 0.23913 0.45352 0.0
C491 C 0.72964 0.23967 0.52864 0.0
C492 C 0.65265 0.22612 0.4096 0.0
C493 C 0.67206 0.19929 0.39622 0.0
C494 C 0.70651 0.22499 0.48421 0.0
C495 C 0.7067 0.18498 0.42892 0.0
C496 C 0.75532 0.22231 0.56503 0.0
C497 C 0.74991 0.28478 0.57363 0.0
N498 N 0.72298 0.19805 0.47136 0.0
N499 N 0.72789 0.27036 0.5339 0.0
H500 H 0.71019 0.82395 0.42416 0.0
H501 H 0.75825 0.67414 0.57677 0.0
H502 H 0.63931 0.74027 0.38185 0.0
H503 H 0.77982 0.76308 0.63878 0.0
H504 H 0.71889 0.69769 0.50282 0.0
H505 H 0.73768 0.80262 0.50289 0.0
C506 C 0.69879 0.80156 0.4322 0.0
C507 C 0.67142 0.78408 0.39715 0.0
C508 C 0.73217 0.71196 0.53278 0.0
C509 C 0.70504 0.75883 0.48561 0.0
C510 C 0.75505 0.69855 0.57472 0.0
C511 C 0.77232 0.71664 0.61395 0.0
C512 C 0.72736 0.74366 0.52994 0.0
C513 C 0.76682 0.74821 0.60948 0.0
C514 C 0.71504 0.7892 0.47677 0.0
C515 C 0.65931 0.75467 0.40848 0.0
N516 N 0.74514 0.7607 0.56827 0.0
N517 N 0.67681 0.74274 0.45149 0.0
H518 H 0.32595 0.78414 0.57721 0.0
H519 H 0.11557 0.71127 0.40261 0.0
H520 H 0.20334 0.76011 0.63022 0.0
H521 H 0.25791 0.68664 0.40439 0.0
H522 H 0.14027 0.73511 0.48055 0.0
H523 H 0.29418 0.7574 0.50379 0.0
C524 C 0.29196 0.7738 0.57294 0.0
C525 C 0.26725 0.77419 0.60963 0.0
C526 C 0.16572 0.72388 0.46403 0.0
C527 C 0.23098 0.74358 0.52642 0.0
C528 C 0.15158 0.70991 0.42009 0.0
C529 C 0.18483 0.6971 0.39712 0.0
C530 C 0.21324 0.7254 0.484 0.0
C531 C 0.23125 0.69649 0.42081 0.0
C532 C 0.27412 0.75826 0.53145 0.0
C533 C 0.2235 0.76011 0.60263 0.0
N534 N 0.24422 0.71102 0.46241 0.0
N535 N 0.20658 0.74537 0.56171 0.0
H536 H 0.27352 0.30047 0.09414 0.0
H537 H 0.29612 0.15317 0.94407 0.0
H538 H 0.21647 0.21357 0.12185 0.0
H539 H 0.33041 0.24381 0.90629 0.0
H540 H 0.28499 0.17212 0.02024 0.0
H541 H 0.31027 0.27716 0.03551 0.0
C542 C 0.26831 0.27645 0.08766 0.0
C543 C 0.24092 0.25902 0.11227 0.0
C544 C 0.29572 0.18769 0.99552 0.0
C545 C 0.28351 0.23217 0.045 0.0
C546 C 0.30232 0.17693 0.95219 0.0
C547 C 0.3128 0.19722 0.91845 0.0
C548 C 0.29993 0.2188 0.00483 0.0
C549 C 0.32105 0.2276 0.93089 0.0
C550 C 0.28979 0.26312 0.05437 0.0
C551 C 0.23663 0.2279 0.10308 0.0
N552 N 0.31374 0.23758 0.97295 0.0
N553 N 0.25738 0.21543 0.06962 0.0
H554 H 0.70636 0.27676 0.12696 0.0
H555 H 0.83638 0.24784 0.9173 0.0
H556 H 0.79387 0.19942 0.11686 0.0
H557 H 0.7755 0.33425 0.93964 0.0
H558 H 0.82889 0.2325 0.99608 0.0
H559 H 0.73771 0.30128 0.06376 0.0
C560 C 0.73235 0.26511 0.11172 0.0
C561 C 0.74647 0.23571 0.12593 0.0
C562 C 0.81773 0.25501 0.98414 0.0
C563 C 0.78257 0.26343 0.05472 0.0
C564 C 0.82191 0.26368 0.93912 0.0
C565 C 0.80565 0.29202 0.92186 0.0
C566 C 0.79615 0.2746 0.01152 0.0
C567 C 0.78799 0.31201 0.95168 0.0
C568 C 0.75038 0.2791 0.07595 0.0
C569 C 0.78079 0.22172 0.10581 0.0
N570 N 0.78275 0.30266 0.99491 0.0
N571 N 0.79726 0.23557 0.07091 0.0
H572 H 0.78339 0.64874 0.94396 0.0
H573 H 0.80002 0.78633 0.12289 0.0
H574 H 0.83424 0.73803 0.92023 0.0
H575 H 0.70949 0.70965 0.1264 0.0
H576 H 0.83204 0.76176 0.06148 0.0
H577 H 0.77573 0.66431 0.02313 0.0
C578 C 0.79382 0.67142 0.95576 0.0
C579 C 0.80854 0.69243 0.92536 0.0
C580 C 0.80536 0.7502 0.07581 0.0
C581 C 0.80007 0.71007 0.01526 0.0
C582 C 0.78676 0.76427 0.11061 0.0
C583 C 0.75092 0.75036 0.12854 0.0
C584 C 0.78779 0.72213 0.05844 0.0
C585 C 0.73644 0.72132 0.11271 0.0
C586 C 0.78927 0.68024 0.00076 0.0
C587 C 0.82183 0.72138 0.9423 0.0
N588 N 0.75447 0.70826 0.07775 0.0
N589 N 0.81686 0.72945 0.98609 0.0
H590 H 0.22629 0.77364 0.13568 0.0
H591 H 0.33953 0.74147 0.91252 0.0
H592 H 0.25933 0.68542 0.08632 0.0
H593 H 0.29352 0.83014 0.94649 0.0
H594 H 0.32792 0.7232 0.98855 0.0
H595 H 0.2637 0.79688 0.07576 0.0
C596 C 0.24111 0.7592 0.11222 0.0
C597 C 0.23916 0.72757 0.11565 0.0
C598 C 0.3209 0.74678 0.97969 0.0
C599 C 0.28274 0.75381 0.04846 0.0
C600 C 0.32767 0.75718 0.93639 0.0
C601 C 0.31605 0.78701 0.92287 0.0
C602 C 0.30148 0.76624 0.00901 0.0
C603 C 0.30202 0.80675 0.95541 0.0
C604 C 0.26286 0.77244 0.0785 0.0
C605 C 0.25951 0.7099 0.08487 0.0
N606 N 0.29398 0.79579 0.99677 0.0
N607 N 0.28032 0.72329 0.05261 0.0
loop_
_geom_bond_atom_site_label_1
_geom_bond_atom_site_label_2
_geom_bond_distance
_geom_bond_site_symmetry_2
_ccdc_geom_bond_type
Sc0 O3 2.025 . S
Sc0 O10 2.105 . S
Sc0 O13 2.105 . S
Sc0 O16 2.105 . S
Sc0 O19 2.105 . S
Sc1 O3 2.025 . S
Sc1 O11 2.105 . S
Sc1 O15 2.105 . S
Sc1 O17 2.105 . S
Sc1 O21 2.105 . S
Sc2 O3 2.025 . S
Sc2 O12 2.105 . S
Sc2 O14 2.105 . S
Sc2 O18 2.105 . S
Sc2 O20 2.105 . S
O3 Sc0 2.025 . S
O3 Sc1 2.025 . S
O3 Sc2 2.025 . S
C4 O10 1.268 . S
C4 O20 1.268 . S
C5 O11 1.268 . S
C5 O19 1.268 . S
C6 O12 1.268 . S
C6 O21 1.268 . S
C7 O13 1.268 . S
C7 O17 1.268 . S
C8 O14 1.268 . S
C8 O16 1.268 . S
C9 O15 1.268 . S
C9 O18 1.268 . S
O10 Sc0 2.105 . S
O10 C4 1.268 . S
O11 Sc1 2.105 . S
O11 C5 1.268 . S
O12 Sc2 2.105 . S
O12 C6 1.268 . S
O13 Sc0 2.105 . S
O13 C7 1.268 . S
O14 Sc2 2.105 . S
O14 C8 1.268 . S
O15 Sc1 2.105 . S
O15 C9 1.268 . S
O16 Sc0 2.105 . S
O16 C8 1.268 . S
O17 Sc1 2.105 . S
O17 C7 1.268 . S
O18 Sc2 2.105 . S
O18 C9 1.268 . S
O19 Sc0 2.105 . S
O19 C5 1.268 . S
O20 Sc2 2.105 . S
O20 C4 1.268 . S
O21 Sc1 2.105 . S
O21 C6 1.268 . S
Sc22 O25 2.025 . S
Sc22 O32 2.105 . S
Sc22 O35 2.105 . S
Sc22 O38 2.105 . S
Sc22 O41 2.105 . S
Sc23 O25 2.025 . S
Sc23 O33 2.105 . S
Sc23 O37 2.105 . S
Sc23 O39 2.105 . S
Sc23 O43 2.105 . S
Sc24 O25 2.025 . S
Sc24 O34 2.105 . S
Sc24 O36 2.105 . S
Sc24 O40 2.105 . S
Sc24 O42 2.105 . S
O25 Sc22 2.025 . S
O25 Sc23 2.025 . S
O25 Sc24 2.025 . S
C26 O32 1.268 . S
C26 O42 1.268 . S
C27 O33 1.268 . S
C27 O41 1.268 . S
C28 O34 1.268 . S
C28 O43 1.268 . S
C29 O35 1.268 . S
C29 O39 1.268 . S
C30 O36 1.268 . S
C30 O38 1.268 . S
C31 O37 1.268 . S
C31 O40 1.268 . S
O32 Sc22 2.105 . S
O32 C26 1.268 . S
O33 Sc23 2.105 . S
O33 C27 1.268 . S
O34 Sc24 2.105 . S
O34 C28 1.268 . S
O35 Sc22 2.105 . S
O35 C29 1.268 . S
O36 Sc24 2.105 . S
O36 C30 1.268 . S
O37 Sc23 2.105 . S
O37 C31 1.268 . S
O38 Sc22 2.105 . S
O38 C30 1.268 . S
O39 Sc23 2.105 . S
O39 C29 1.268 . S
O40 Sc24 2.105 . S
O40 C31 1.268 . S
O41 Sc22 2.105 . S
O41 C27 1.268 . S
O42 Sc24 2.105 . S
O42 C26 1.268 . S
O43 Sc23 2.105 . S
O43 C28 1.268 . S
Sc44 O47 2.025 . S
Sc44 O54 2.105 . S
Sc44 O57 2.105 . S
Sc44 O60 2.105 . S
Sc44 O63 2.105 . S
Sc45 O47 2.025 . S
Sc45 O55 2.105 . S
Sc45 O59 2.105 . S
Sc45 O61 2.105 . S
Sc45 O65 2.105 . S
Sc46 O47 2.025 . S
Sc46 O56 2.105 . S
Sc46 O58 2.105 . S
Sc46 O62 2.105 . S
Sc46 O64 2.105 . S
O47 Sc44 2.025 . S
O47 Sc45 2.025 . S
O47 Sc46 2.025 . S
C48 O54 1.268 . S
C48 O64 1.268 . S
C49 O55 1.268 . S
C49 O63 1.268 . S
C50 O56 1.268 . S
C50 O65 1.268 . S
C51 O57 1.268 . S
C51 O61 1.268 . S
C52 O58 1.268 . S
C52 O60 1.268 . S
C53 O59 1.268 . S
C53 O62 1.268 . S
O54 Sc44 2.105 . S
O54 C48 1.268 . S
O55 Sc45 2.105 . S
O55 C49 1.268 . S
O56 Sc46 2.105 . S
O56 C50 1.268 . S
O57 Sc44 2.105 . S
O57 C51 1.268 . S
O58 Sc46 2.105 . S
O58 C52 1.268 . S
O59 Sc45 2.105 . S
O59 C53 1.268 . S
O60 Sc44 2.105 . S
O60 C52 1.268 . S
O61 Sc45 2.105 . S
O61 C51 1.268 . S
O62 Sc46 2.105 . S
O62 C53 1.268 . S
O63 Sc44 2.105 . S
O63 C49 1.268 . S
O64 Sc46 2.105 . S
O64 C48 1.268 . S
O65 Sc45 2.105 . S
O65 C50 1.268 . S
Sc66 O69 2.025 . S
Sc66 O76 2.105 . S
Sc66 O79 2.105 . S
Sc66 O82 2.105 . S
Sc66 O85 2.105 . S
Sc67 O69 2.025 . S
Sc67 O77 2.105 . S
Sc67 O81 2.105 . S
Sc67 O83 2.105 . S
Sc67 O87 2.105 . S
Sc68 O69 2.025 . S
Sc68 O78 2.105 . S
Sc68 O80 2.105 . S
Sc68 O84 2.105 . S
Sc68 O86 2.105 . S
O69 Sc66 2.025 . S
O69 Sc67 2.025 . S
O69 Sc68 2.025 . S
C70 O76 1.268 . S
C70 O86 1.268 . S
C71 O77 1.268 . S
C71 O85 1.268 . S
C72 O78 1.268 . S
C72 O87 1.268 . S
C73 O79 1.268 . S
C73 O83 1.268 . S
C74 O80 1.268 . S
C74 O82 1.268 . S
C75 O81 1.268 . S
C75 O84 1.268 . S
O76 Sc66 2.105 . S
O76 C70 1.268 . S
O77 Sc67 2.105 . S
O77 C71 1.268 . S
O78 Sc68 2.105 . S
O78 C72 1.268 . S
O79 Sc66 2.105 . S
O79 C73 1.268 . S
O80 Sc68 2.105 . S
O80 C74 1.268 . S
O81 Sc67 2.105 . S
O81 C75 1.268 . S
O82 Sc66 2.105 . S
O82 C74 1.268 . S
O83 Sc67 2.105 . S
O83 C73 1.268 . S
O84 Sc68 2.105 . S
O84 C75 1.268 . S
O85 Sc66 2.105 . S
O85 C71 1.268 . S
O86 Sc68 2.105 . S
O86 C70 1.268 . S
O87 Sc67 2.105 . S
O87 C72 1.268 . S
Sc88 O91 2.025 . S
Sc88 O98 2.105 . S
Sc88 O101 2.105 . S
Sc88 O104 2.105 . S
Sc88 O107 2.105 . S
Sc89 O91 2.025 . S
Sc89 O99 2.105 . S
Sc89 O103 2.105 . S
Sc89 O105 2.105 . S
Sc89 O109 2.105 . S
Sc90 O91 2.025 . S
Sc90 O100 2.105 . S
Sc90 O102 2.105 . S
Sc90 O106 2.105 . S
Sc90 O108 2.105 . S
O91 Sc88 2.025 . S
O91 Sc89 2.025 . S
O91 Sc90 2.025 . S
C92 O98 1.268 . S
C92 O108 1.268 . S
C93 O99 1.268 . S
C93 O107 1.268 . S
C94 O100 1.268 . S
C94 O109 1.268 . S
C95 O101 1.268 . S
C95 O105 1.268 . S
C96 O102 1.268 . S
C96 O104 1.268 . S
C97 O103 1.268 . S
C97 O106 1.268 . S
O98 Sc88 2.105 . S
O98 C92 1.268 . S
O99 Sc89 2.105 . S
O99 C93 1.268 . S
O100 Sc90 2.105 . S
O100 C94 1.268 . S
O101 Sc88 2.105 . S
O101 C95 1.268 . S
O102 Sc90 2.105 . S
O102 C96 1.268 . S
O103 Sc89 2.105 . S
O103 C97 1.268 . S
O104 Sc88 2.105 . S
O104 C96 1.268 . S
O105 Sc89 2.105 . S
O105 C95 1.268 . S
O106 Sc90 2.105 . S
O106 C97 1.268 . S
O107 Sc88 2.105 . S
O107 C93 1.268 . S
O108 Sc90 2.105 . S
O108 C92 1.268 . S
O109 Sc89 2.105 . S
O109 C94 1.268 . S
Sc110 O113 2.025 . S
Sc110 O120 2.105 . S
Sc110 O123 2.105 . S
Sc110 O126 2.105 . S
Sc110 O129 2.105 . S
Sc111 O113 2.025 . S
Sc111 O121 2.105 . S
Sc111 O125 2.105 . S
Sc111 O127 2.105 . S
Sc111 O131 2.105 . S
Sc112 O113 2.025 . S
Sc112 O122 2.105 . S
Sc112 O124 2.105 . S
Sc112 O128 2.105 . S
Sc112 O130 2.105 . S
O113 Sc110 2.025 . S
O113 Sc111 2.025 . S
O113 Sc112 2.025 . S
C114 O120 1.268 . S
C114 O130 1.268 . S
C115 O121 1.268 . S
C115 O129 1.268 . S
C116 O122 1.268 . S
C116 O131 1.268 . S
C117 O123 1.268 . S
C117 O127 1.268 . S
C118 O124 1.268 . S
C118 O126 1.268 . S
C119 O125 1.268 . S
C119 O128 1.268 . S
O120 Sc110 2.105 . S
O120 C114 1.268 . S
O121 Sc111 2.105 . S
O121 C115 1.268 . S
O122 Sc112 2.105 . S
O122 C116 1.268 . S
O123 Sc110 2.105 . S
O123 C117 1.268 . S
O124 Sc112 2.105 . S
O124 C118 1.268 . S
O125 Sc111 2.105 . S
O125 C119 1.268 . S
O126 Sc110 2.105 . S
O126 C118 1.268 . S
O127 Sc111 2.105 . S
O127 C117 1.268 . S
O128 Sc112 2.105 . S
O128 C119 1.268 . S
O129 Sc110 2.105 . S
O129 C115 1.268 . S
O130 Sc112 2.105 . S
O130 C114 1.268 . S
O131 Sc111 2.105 . S
O131 C116 1.268 . S
Sc132 O135 2.025 . S
Sc132 O142 2.105 . S
Sc132 O145 2.105 . S
Sc132 O148 2.105 . S
Sc132 O151 2.105 . S
Sc133 O135 2.025 . S
Sc133 O143 2.105 . S
Sc133 O147 2.105 . S
Sc133 O149 2.105 . S
Sc133 O153 2.105 . S
Sc134 O135 2.025 . S
Sc134 O144 2.105 . S
Sc134 O146 2.105 . S
Sc134 O150 2.105 . S
Sc134 O152 2.105 . S
O135 Sc132 2.025 . S
O135 Sc133 2.025 . S
O135 Sc134 2.025 . S
C136 O142 1.268 . S
C136 O152 1.268 . S
C137 O143 1.268 . S
C137 O151 1.268 . S
C138 O144 1.268 . S
C138 O153 1.268 . S
C139 O145 1.268 . S
C139 O149 1.268 . S
C140 O146 1.268 . S
C140 O148 1.268 . S
C141 O147 1.268 . S
C141 O150 1.268 . S
O142 Sc132 2.105 . S
O142 C136 1.268 . S
O143 Sc133 2.105 . S
O143 C137 1.268 . S
O144 Sc134 2.105 . S
O144 C138 1.268 . S
O145 Sc132 2.105 . S
O145 C139 1.268 . S
O146 Sc134 2.105 . S
O146 C140 1.268 . S
O147 Sc133 2.105 . S
O147 C141 1.268 . S
O148 Sc132 2.105 . S
O148 C140 1.268 . S
O149 Sc133 2.105 . S
O149 C139 1.268 . S
O150 Sc134 2.105 . S
O150 C141 1.268 . S
O151 Sc132 2.105 . S
O151 C137 1.268 . S
O152 Sc134 2.105 . S
O152 C136 1.268 . S
O153 Sc133 2.105 . S
O153 C138 1.268 . S
Sc154 O157 2.025 . S
Sc154 O164 2.105 . S
Sc154 O167 2.105 . S
Sc154 O170 2.105 . S
Sc154 O173 2.105 . S
Sc155 O157 2.025 . S
Sc155 O165 2.105 . S
Sc155 O169 2.105 . S
Sc155 O171 2.105 . S
Sc155 O175 2.105 . S
Sc156 O157 2.025 . S
Sc156 O166 2.105 . S
Sc156 O168 2.105 . S
Sc156 O172 2.105 . S
Sc156 O174 2.105 . S
O157 Sc154 2.025 . S
O157 Sc155 2.025 . S
O157 Sc156 2.025 . S
C158 O164 1.268 . S
C158 O174 1.268 . S
C159 O165 1.268 . S
C159 O173 1.268 . S
C160 O166 1.268 . S
C160 O175 1.268 . S
C161 O167 1.268 . S
C161 O171 1.268 . S
C162 O168 1.268 . S
C162 O170 1.268 . S
C163 O169 1.268 . S
C163 O172 1.268 . S
O164 Sc154 2.105 . S
O164 C158 1.268 . S
O165 Sc155 2.105 . S
O165 C159 1.268 . S
O166 Sc156 2.105 . S
O166 C160 1.268 . S
O167 Sc154 2.105 . S
O167 C161 1.268 . S
O168 Sc156 2.105 . S
O168 C162 1.268 . S
O169 Sc155 2.105 . S
O169 C163 1.268 . S
O170 Sc154 2.105 . S
O170 C162 1.268 . S
O171 Sc155 2.105 . S
O171 C161 1.268 . S
O172 Sc156 2.105 . S
O172 C163 1.268 . S
O173 Sc154 2.105 . S
O173 C159 1.268 . S
O174 Sc156 2.105 . S
O174 C158 1.268 . S
O175 Sc155 2.105 . S
O175 C160 1.268 . S
H176 C182 0.930 . S
H177 C186 0.930 . S
H178 C191 0.929 . S
H179 C189 0.929 . S
H180 C184 0.929 . S
H181 C190 0.929 . S
C182 H176 0.930 . S
C182 C183 1.367 . S
C182 C190 1.378 . S
C183 C182 1.367 . S
C183 C191 1.433 . S
C184 H180 0.929 . S
C184 C186 1.378 . S
C184 C188 1.350 . S
C185 C188 1.463 . S
C185 C190 1.350 . S
C185 N193 1.427 . S
C186 H177 0.930 . S
C186 C184 1.378 . S
C186 C187 1.367 . S
C187 C186 1.367 . S
C187 C189 1.433 . S
C188 C184 1.350 . S
C188 C185 1.463 . S
C188 N192 1.427 . S
C189 H179 0.929 . S
C189 C187 1.433 . S
C189 N192 1.384 . S
C190 H181 0.929 . S
C190 C182 1.378 . S
C190 C185 1.350 . S
C191 H178 0.929 . S
C191 C183 1.433 . S
C191 N193 1.384 . S
N192 C188 1.427 . S
N192 C189 1.384 . S
N193 C185 1.427 . S
N193 C191 1.384 . S
H194 C200 0.930 . S
H195 C204 0.930 . S
H196 C209 0.929 . S
H197 C207 0.929 . S
H198 C202 0.929 . S
H199 C208 0.929 . S
C200 H194 0.930 . S
C200 C201 1.367 . S
C200 C208 1.378 . S
C201 C200 1.367 . S
C201 C209 1.433 . S
C202 H198 0.929 . S
C202 C204 1.378 . S
C202 C206 1.350 . S
C203 C206 1.463 . S
C203 C208 1.350 . S
C203 N211 1.427 . S
C204 H195 0.930 . S
C204 C202 1.378 . S
C204 C205 1.367 . S
C205 C204 1.367 . S
C205 C207 1.433 . S
C206 C202 1.350 . S
C206 C203 1.463 . S
C206 N210 1.427 . S
C207 H197 0.929 . S
C207 C205 1.433 . S
C207 N210 1.384 . S
C208 H199 0.929 . S
C208 C200 1.378 . S
C208 C203 1.350 . S
C209 H196 0.929 . S
C209 C201 1.433 . S
C209 N211 1.384 . S
N210 C206 1.427 . S
N210 C207 1.384 . S
N211 C203 1.427 . S
N211 C209 1.384 . S
H212 C218 0.930 . S
H213 C222 0.930 . S
H214 C227 0.929 . S
H215 C225 0.929 . S
H216 C220 0.929 . S
H217 C226 0.929 . S
C218 H212 0.930 . S
C218 C219 1.367 . S
C218 C226 1.378 . S
C219 C218 1.367 . S
C219 C227 1.433 . S
C220 H216 0.929 . S
C220 C222 1.378 . S
C220 C224 1.350 . S
C221 C224 1.463 . S
C221 C226 1.350 . S
C221 N229 1.427 . S
C222 H213 0.930 . S
C222 C220 1.378 . S
C222 C223 1.367 . S
C223 C222 1.367 . S
C223 C225 1.433 . S
C224 C220 1.350 . S
C224 C221 1.463 . S
C224 N228 1.427 . S
C225 H215 0.929 . S
C225 C223 1.433 . S
C225 N228 1.384 . S
C226 H217 0.929 . S
C226 C218 1.378 . S
C226 C221 1.350 . S
C227 H214 0.929 . S
C227 C219 1.433 . S
C227 N229 1.384 . S
N228 C224 1.427 . S
N228 C225 1.384 . S
N229 C221 1.427 . S
N229 C227 1.384 . S
H230 C236 0.930 . S
H231 C240 0.930 . S
H232 C245 0.929 . S
H233 C243 0.929 . S
H234 C238 0.929 . S
H235 C244 0.929 . S
C236 H230 0.930 . S
C236 C237 1.367 . S
C236 C244 1.378 . S
C237 C236 1.367 . S
C237 C245 1.433 . S
C238 H234 0.929 . S
C238 C240 1.378 . S
C238 C242 1.350 . S
C239 C242 1.463 . S
C239 C244 1.350 . S
C239 N247 1.427 . S
C240 H231 0.930 . S
C240 C238 1.378 . S
C240 C241 1.367 . S
C241 C240 1.367 . S
C241 C243 1.433 . S
C242 C238 1.350 . S
C242 C239 1.463 . S
C242 N246 1.427 . S
C243 H233 0.929 . S
C243 C241 1.433 . S
C243 N246 1.384 . S
C244 H235 0.929 . S
C244 C236 1.378 . S
C244 C239 1.350 . S
C245 H232 0.929 . S
C245 C237 1.433 . S
C245 N247 1.384 . S
N246 C242 1.427 . S
N246 C243 1.384 . S
N247 C239 1.427 . S
N247 C245 1.384 . S
H248 C254 0.930 . S
H249 C258 0.930 . S
H250 C263 0.929 . S
H251 C261 0.929 . S
H252 C256 0.929 . S
H253 C262 0.929 . S
C254 H248 0.930 . S
C254 C255 1.367 . S
C254 C262 1.378 . S
C255 C254 1.367 . S
C255 C263 1.433 . S
C256 H252 0.929 . S
C256 C258 1.378 . S
C256 C260 1.350 . S
C257 C260 1.455 1_455 S
C257 C262 1.355 . S
C257 N265 1.429 . S
C258 H249 0.930 . S
C258 C256 1.378 . S
C258 C259 1.367 . S
C259 C258 1.367 . S
C259 C261 1.433 . S
C260 C256 1.350 . S
C260 C257 1.455 1_655 S
C260 N264 1.427 . S
C261 H251 0.929 . S
C261 C259 1.433 . S
C261 N264 1.384 . S
C262 H253 0.929 . S
C262 C254 1.378 . S
C262 C257 1.355 . S
C263 H250 0.929 . S
C263 C255 1.433 . S
C263 N265 1.384 . S
N264 C260 1.427 . S
N264 C261 1.384 . S
N265 C257 1.429 . S
N265 C263 1.384 . S
H266 C272 0.930 . S
H267 C276 0.930 . S
H268 C281 0.929 . S
H269 C279 0.929 . S
H270 C274 0.929 . S
H271 C280 0.929 . S
C272 H266 0.930 . S
C272 C273 1.367 . S
C272 C280 1.378 . S
C273 C272 1.367 . S
C273 C281 1.433 . S
C274 H270 0.929 . S
C274 C276 1.378 . S
C274 C278 1.350 . S
C275 C278 1.455 1_655 S
C275 C280 1.355 . S
C275 N283 1.429 . S
C276 H267 0.930 . S
C276 C274 1.378 . S
C276 C277 1.367 . S
C277 C276 1.367 . S
C277 C279 1.433 . S
C278 C274 1.350 . S
C278 C275 1.455 1_455 S
C278 N282 1.427 . S
C279 H269 0.929 . S
C279 C277 1.433 . S
C279 N282 1.384 . S
C280 H271 0.929 . S
C280 C272 1.378 . S
C280 C275 1.355 . S
C281 H268 0.929 . S
C281 C273 1.433 . S
C281 N283 1.384 . S
N282 C278 1.427 . S
N282 C279 1.384 . S
N283 C275 1.429 . S
N283 C281 1.384 . S
H284 C290 0.930 . S
H285 C294 0.930 . S
H286 C299 0.929 . S
H287 C297 0.929 . S
H288 C292 0.929 . S
H289 C298 0.929 1_455 S
C290 H284 0.930 . S
C290 C291 1.367 . S
C290 C298 1.378 . S
C291 C290 1.367 . S
C291 C299 1.433 . S
C292 H288 0.929 . S
C292 C294 1.378 . S
C292 C296 1.350 . S
C293 C296 1.478 . S
C293 C298 1.347 1_455 S
C293 N301 1.416 1_455 S
C294 H285 0.930 . S
C294 C292 1.378 . S
C294 C295 1.367 . S
C295 C294 1.367 . S
C295 C297 1.433 . S
C296 C292 1.350 . S
C296 C293 1.478 . S
C296 N300 1.427 . S
C297 H287 0.929 . S
C297 C295 1.433 . S
C297 N300 1.384 . S
C298 H289 0.929 1_655 S
C298 C290 1.378 . S
C298 C293 1.347 1_655 S
C299 H286 0.929 . S
C299 C291 1.433 . S
C299 N301 1.384 . S
N300 C296 1.427 . S
N300 C297 1.384 . S
N301 C293 1.416 1_655 S
N301 C299 1.384 . S
H302 C308 0.930 . S
H303 C312 0.930 . S
H304 C317 0.929 . S
H305 C315 0.929 . S
H306 C310 0.929 . S
H307 C316 0.929 1_655 S
C308 H302 0.930 . S
C308 C309 1.367 . S
C308 C316 1.378 . S
C309 C308 1.367 . S
C309 C317 1.433 . S
C310 H306 0.929 . S
C310 C312 1.378 . S
C310 C314 1.350 . S
C311 C314 1.478 . S
C311 C316 1.347 1_655 S
C311 N319 1.415 1_655 S
C312 H303 0.930 . S
C312 C310 1.378 . S
C312 C313 1.367 . S
C313 C312 1.367 . S
C313 C315 1.433 . S
C314 C310 1.350 . S
C314 C311 1.478 . S
C314 N318 1.427 . S
C315 H305 0.929 . S
C315 C313 1.433 . S
C315 N318 1.384 . S
C316 H307 0.929 1_455 S
C316 C308 1.378 . S
C316 C311 1.347 1_455 S
C317 H304 0.929 . S
C317 C309 1.433 . S
C317 N319 1.384 . S
N318 C314 1.427 . S
N318 C315 1.384 . S
N319 C311 1.415 1_455 S
N319 C317 1.384 . S
H320 C326 0.930 . S
H321 C330 0.930 . S
H322 C335 0.929 . S
H323 C333 0.929 . S
H324 C328 0.929 1_655 S
H325 C334 0.929 1_455 S
C326 H320 0.930 . S
C326 C327 1.367 . S
C326 C334 1.378 . S
C327 C326 1.367 . S
C327 C335 1.433 . S
C328 H324 0.929 1_455 S
C328 C330 1.378 . S
C328 C332 1.350 . S
C329 C332 1.463 1_656 S
C329 C334 1.350 . S
C329 N337 1.427 . S
C330 H321 0.930 . S
C330 C328 1.378 . S
C330 C331 1.367 . S
C331 C330 1.367 . S
C331 C333 1.433 . S
C332 C328 1.350 . S
C332 C329 1.463 1_454 S
C332 N336 1.427 . S
C333 H323 0.929 . S
C333 C331 1.433 . S
C333 N336 1.384 . S
C334 H325 0.929 1_655 S
C334 C326 1.378 . S
C334 C329 1.350 . S
C335 H322 0.929 . S
C335 C327 1.433 . S
C335 N337 1.384 . S
N336 C332 1.427 . S
N336 C333 1.384 . S
N337 C329 1.427 . S
N337 C335 1.384 . S
H338 C344 0.930 . S
H339 C348 0.930 . S
H340 C353 0.929 . S
H341 C351 0.929 . S
H342 C346 0.929 1_455 S
H343 C352 0.929 1_655 S
C344 H338 0.930 . S
C344 C345 1.367 . S
C344 C352 1.378 . S
C345 C344 1.367 . S
C345 C353 1.433 . S
C346 H342 0.929 1_655 S
C346 C348 1.378 . S
C346 C350 1.350 . S
C347 C350 1.463 1_454 S
C347 C352 1.350 . S
C347 N355 1.427 . S
C348 H339 0.930 . S
C348 C346 1.378 . S
C348 C349 1.367 . S
C349 C348 1.367 . S
C349 C351 1.433 . S
C350 C346 1.350 . S
C350 C347 1.463 1_656 S
C350 N354 1.427 . S
C351 H341 0.929 . S
C351 C349 1.433 . S
C351 N354 1.384 . S
C352 H343 0.929 1_455 S
C352 C344 1.378 . S
C352 C347 1.350 . S
C353 H340 0.929 . S
C353 C345 1.433 . S
C353 N355 1.384 . S
N354 C350 1.427 . S
N354 C351 1.384 . S
N355 C347 1.427 . S
N355 C353 1.384 . S
H356 C362 0.930 . S
H357 C366 0.930 . S
H358 C371 0.929 . S
H359 C369 0.929 . S
H360 C364 0.921 1_554 S
H361 C370 0.921 1_556 S
C362 H356 0.930 . S
C362 C363 1.367 . S
C362 C370 1.378 . S
C363 C362 1.367 . S
C363 C371 1.433 . S
C364 H360 0.921 1_556 S
C364 C366 1.378 . S
C364 C368 1.350 . S
C365 C368 1.463 1_554 S
C365 C370 1.350 . S
C365 N373 1.427 . S
C366 H357 0.930 . S
C366 C364 1.378 . S
C366 C367 1.367 . S
C367 C366 1.367 . S
C367 C369 1.433 . S
C368 C364 1.350 . S
C368 C365 1.463 1_556 S
C368 N372 1.427 . S
C369 H359 0.929 . S
C369 C367 1.433 . S
C369 N372 1.384 . S
C370 H361 0.921 1_554 S
C370 C362 1.378 . S
C370 C365 1.350 . S
C371 H358 0.929 . S
C371 C363 1.433 . S
C371 N373 1.384 . S
N372 C368 1.427 . S
N372 C369 1.384 . S
N373 C365 1.427 . S
N373 C371 1.384 . S
H374 C380 0.930 . S
H375 C384 0.930 . S
H376 C389 0.929 . S
H377 C387 0.929 . S
H378 C382 0.929 1_554 S
H379 C388 0.929 1_556 S
C380 H374 0.930 . S
C380 C381 1.367 . S
C380 C388 1.378 . S
C381 C380 1.367 . S
C381 C389 1.433 . S
C382 H378 0.929 1_556 S
C382 C384 1.378 . S
C382 C386 1.350 . S
C383 C386 1.463 1_554 S
C383 C388 1.350 . S
C383 N391 1.427 . S
C384 H375 0.930 . S
C384 C382 1.378 . S
C384 C385 1.367 . S
C385 C384 1.367 . S
C385 C387 1.433 . S
C386 C382 1.350 . S
C386 C383 1.463 1_556 S
C386 N390 1.427 . S
C387 H377 0.929 . S
C387 C385 1.433 . S
C387 N390 1.384 . S
C388 H379 0.929 1_554 S
C388 C380 1.378 . S
C388 C383 1.350 . S
C389 H376 0.929 . S
C389 C381 1.433 . S
C389 N391 1.384 . S
N390 C386 1.427 . S
N390 C387 1.384 . S
N391 C383 1.427 . S
N391 C389 1.384 . S
H392 C398 0.930 . S
H393 C402 0.930 . S
H394 C407 0.929 . S
H395 C405 0.929 . S
H396 C400 0.929 . S
H397 C406 0.929 . S
C398 H392 0.930 . S
C398 C399 1.367 . S
C398 C406 1.378 . S
C399 C398 1.367 . S
C399 C407 1.433 . S
C400 H396 0.929 . S
C400 C402 1.378 . S
C400 C404 1.350 . S
C401 C404 1.463 . S
C401 C406 1.350 . S
C401 N409 1.427 . S
C402 H393 0.930 . S
C402 C400 1.378 . S
C402 C403 1.367 . S
C403 C402 1.367 . S
C403 C405 1.433 . S
C404 C400 1.350 . S
C404 C401 1.463 . S
C404 N408 1.427 . S
C405 H395 0.929 . S
C405 C403 1.433 . S
C405 N408 1.384 . S
C406 H397 0.929 . S
C406 C398 1.378 . S
C406 C401 1.350 . S
C407 H394 0.929 . S
C407 C399 1.433 . S
C407 N409 1.384 . S
N408 C404 1.427 . S
N408 C405 1.384 . S
N409 C401 1.427 . S
N409 C407 1.384 . S
H410 C416 0.930 . S
H411 C420 0.930 . S
H412 C425 0.929 . S
H413 C423 0.929 . S
H414 C418 0.929 . S
H415 C424 0.929 . S
C416 H410 0.930 . S
C416 C417 1.367 . S
C416 C424 1.378 . S
C417 C416 1.367 . S
C417 C425 1.433 . S
C418 H414 0.929 . S
C418 C420 1.378 . S
C418 C422 1.350 . S
C419 C422 1.463 . S
C419 C424 1.350 . S
C419 N427 1.427 . S
C420 H411 0.930 . S
C420 C418 1.378 . S
C420 C421 1.367 . S
C421 C420 1.367 . S
C421 C423 1.433 . S
C422 C418 1.350 . S
C422 C419 1.463 . S
C422 N426 1.427 . S
C423 H413 0.929 . S
C423 C421 1.433 . S
C423 N426 1.384 . S
C424 H415 0.929 . S
C424 C416 1.378 . S
C424 C419 1.350 . S
C425 H412 0.929 . S
C425 C417 1.433 . S
C425 N427 1.384 . S
N426 C422 1.427 . S
N426 C423 1.384 . S
N427 C419 1.427 . S
N427 C425 1.384 . S
H428 C434 0.930 . S
H429 C438 0.930 . S
H430 C443 0.929 . S
H431 C441 0.929 . S
H432 C436 0.929 . S
H433 C442 0.929 . S
C434 H428 0.930 . S
C434 C435 1.367 . S
C434 C442 1.378 . S
C435 C434 1.367 . S
C435 C443 1.433 . S
C436 H432 0.929 . S
C436 C438 1.378 . S
C436 C440 1.350 . S
C437 C440 1.463 1_565 S
C437 C442 1.350 . S
C437 N445 1.427 . S
C438 H429 0.930 . S
C438 C436 1.378 . S
C438 C439 1.367 . S
C439 C438 1.367 . S
C439 C441 1.433 . S
C440 C436 1.350 . S
C440 C437 1.463 1_545 S
C440 N444 1.427 . S
C441 H431 0.929 . S
C441 C439 1.433 . S
C441 N444 1.384 . S
C442 H433 0.929 . S
C442 C434 1.378 . S
C442 C437 1.350 . S
C443 H430 0.929 . S
C443 C435 1.433 . S
C443 N445 1.384 . S
N444 C440 1.427 . S
N444 C441 1.384 . S
N445 C437 1.427 . S
N445 C443 1.384 . S
H446 C452 0.930 . S
H447 C456 0.930 . S
H448 C461 0.929 . S
H449 C459 0.929 . S
H450 C454 0.929 . S
H451 C460 0.929 . S
C452 H446 0.930 . S
C452 C453 1.367 . S
C452 C460 1.378 . S
C453 C452 1.367 . S
C453 C461 1.433 . S
C454 H450 0.929 . S
C454 C456 1.378 . S
C454 C458 1.350 . S
C455 C458 1.463 1_565 S
C455 C460 1.350 . S
C455 N463 1.427 . S
C456 H447 0.930 . S
C456 C454 1.378 . S
C456 C457 1.367 . S
C457 C456 1.367 . S
C457 C459 1.433 . S
C458 C454 1.350 . S
C458 C455 1.463 1_545 S
C458 N462 1.427 . S
C459 H449 0.929 . S
C459 C457 1.433 . S
C459 N462 1.384 . S
C460 H451 0.929 . S
C460 C452 1.378 . S
C460 C455 1.350 . S
C461 H448 0.929 . S
C461 C453 1.433 . S
C461 N463 1.384 . S
N462 C458 1.427 . S
N462 C459 1.384 . S
N463 C455 1.427 . S
N463 C461 1.384 . S
H464 C470 0.930 . S
H465 C474 0.930 . S
H466 C479 0.929 . S
H467 C477 0.929 . S
H468 C472 0.929 . S
H469 C478 0.929 . S
C470 H464 0.930 . S
C470 C471 1.367 . S
C470 C478 1.378 . S
C471 C470 1.367 . S
C471 C479 1.433 . S
C472 H468 0.929 . S
C472 C474 1.378 . S
C472 C476 1.350 . S
C473 C476 1.463 . S
C473 C478 1.350 . S
C473 N481 1.427 . S
C474 H465 0.930 . S
C474 C472 1.378 . S
C474 C475 1.367 . S
C475 C474 1.367 . S
C475 C477 1.433 . S
C476 C472 1.350 . S
C476 C473 1.463 . S
C476 N480 1.427 . S
C477 H467 0.929 . S
C477 C475 1.433 . S
C477 N480 1.384 . S
C478 H469 0.929 . S
C478 C470 1.378 . S
C478 C473 1.350 . S
C479 H466 0.929 . S
C479 C471 1.433 . S
C479 N481 1.384 . S
N480 C476 1.427 . S
N480 C477 1.384 . S
N481 C473 1.427 . S
N481 C479 1.384 . S
H482 C488 0.930 . S
H483 C492 0.930 . S
H484 C497 0.929 . S
H485 C495 0.929 . S
H486 C490 0.929 . S
H487 C496 0.929 . S
C488 H482 0.930 . S
C488 C489 1.367 . S
C488 C496 1.378 . S
C489 C488 1.367 . S
C489 C497 1.433 . S
C490 H486 0.929 . S
C490 C492 1.378 . S
C490 C494 1.350 . S
C491 C494 1.463 . S
C491 C496 1.350 . S
C491 N499 1.427 . S
C492 H483 0.930 . S
C492 C490 1.378 . S
C492 C493 1.367 . S
C493 C492 1.367 . S
C493 C495 1.433 . S
C494 C490 1.350 . S
C494 C491 1.463 . S
C494 N498 1.427 . S
C495 H485 0.929 . S
C495 C493 1.433 . S
C495 N498 1.384 . S
C496 H487 0.929 . S
C496 C488 1.378 . S
C496 C491 1.350 . S
C497 H484 0.929 . S
C497 C489 1.433 . S
C497 N499 1.384 . S
N498 C494 1.427 . S
N498 C495 1.384 . S
N499 C491 1.427 . S
N499 C497 1.384 . S
H500 C506 0.930 . S
H501 C510 0.930 . S
H502 C515 0.929 . S
H503 C513 0.929 . S
H504 C508 0.929 . S
H505 C514 0.929 . S
C506 H500 0.930 . S
C506 C507 1.367 . S
C506 C514 1.378 . S
C507 C506 1.367 . S
C507 C515 1.433 . S
C508 H504 0.929 . S
C508 C510 1.378 . S
C508 C512 1.350 . S
C509 C512 1.463 . S
C509 C514 1.350 . S
C509 N517 1.427 . S
C510 H501 0.930 . S
C510 C508 1.378 . S
C510 C511 1.367 . S
C511 C510 1.367 . S
C511 C513 1.433 . S
C512 C508 1.350 . S
C512 C509 1.463 . S
C512 N516 1.427 . S
C513 H503 0.929 . S
C513 C511 1.433 . S
C513 N516 1.384 . S
C514 H505 0.929 . S
C514 C506 1.378 . S
C514 C509 1.350 . S
C515 H502 0.929 . S
C515 C507 1.433 . S
C515 N517 1.384 . S
N516 C512 1.427 . S
N516 C513 1.384 . S
N517 C509 1.427 . S
N517 C515 1.384 . S
H518 C524 0.930 . S
H519 C528 0.930 . S
H520 C533 0.929 . S
H521 C531 0.929 . S
H522 C526 0.929 . S
H523 C532 0.929 . S
C524 H518 0.930 . S
C524 C525 1.367 . S
C524 C532 1.378 . S
C525 C524 1.367 . S
C525 C533 1.433 . S
C526 H522 0.929 . S
C526 C528 1.378 . S
C526 C530 1.350 . S
C527 C530 1.463 . S
C527 C532 1.350 . S
C527 N535 1.427 . S
C528 H519 0.930 . S
C528 C526 1.378 . S
C528 C529 1.367 . S
C529 C528 1.367 . S
C529 C531 1.433 . S
C530 C526 1.350 . S
C530 C527 1.463 . S
C530 N534 1.427 . S
C531 H521 0.929 . S
C531 C529 1.433 . S
C531 N534 1.384 . S
C532 H523 0.929 . S
C532 C524 1.378 . S
C532 C527 1.350 . S
C533 H520 0.929 . S
C533 C525 1.433 . S
C533 N535 1.384 . S
N534 C530 1.427 . S
N534 C531 1.384 . S
N535 C527 1.427 . S
N535 C533 1.384 . S
H536 C542 0.930 . S
H537 C546 0.930 . S
H538 C551 0.929 . S
H539 C549 0.929 . S
H540 C544 0.929 . S
H541 C550 0.929 . S
C542 H536 0.930 . S
C542 C543 1.367 . S
C542 C550 1.378 . S
C543 C542 1.367 . S
C543 C551 1.433 . S
C544 H540 0.929 . S
C544 C546 1.378 . S
C544 C548 1.350 . S
C545 C548 1.463 1_554 S
C545 C550 1.350 . S
C545 N553 1.427 . S
C546 H537 0.930 . S
C546 C544 1.378 . S
C546 C547 1.367 . S
C547 C546 1.367 . S
C547 C549 1.433 . S
C548 C544 1.350 . S
C548 C545 1.463 1_556 S
C548 N552 1.427 . S
C549 H539 0.929 . S
C549 C547 1.433 . S
C549 N552 1.384 . S
C550 H541 0.929 . S
C550 C542 1.378 . S
C550 C545 1.350 . S
C551 H538 0.929 . S
C551 C543 1.433 . S
C551 N553 1.384 . S
N552 C548 1.427 . S
N552 C549 1.384 . S
N553 C545 1.427 . S
N553 C551 1.384 . S
H554 C560 0.930 . S
H555 C564 0.930 . S
H556 C569 0.929 . S
H557 C567 0.929 . S
H558 C562 0.929 . S
H559 C568 0.929 . S
C560 H554 0.930 . S
C560 C561 1.367 . S
C560 C568 1.378 . S
C561 C560 1.367 . S
C561 C569 1.433 . S
C562 H558 0.929 . S
C562 C564 1.378 . S
C562 C566 1.350 . S
C563 C566 1.463 1_554 S
C563 C568 1.350 . S
C563 N571 1.427 . S
C564 H555 0.930 . S
C564 C562 1.378 . S
C564 C565 1.367 . S
C565 C564 1.367 . S
C565 C567 1.433 . S
C566 C562 1.350 . S
C566 C563 1.463 1_556 S
C566 N570 1.427 . S
C567 H557 0.929 . S
C567 C565 1.433 . S
C567 N570 1.384 . S
C568 H559 0.929 . S
C568 C560 1.378 . S
C568 C563 1.350 . S
C569 H556 0.929 . S
C569 C561 1.433 . S
C569 N571 1.384 . S
N570 C566 1.427 . S
N570 C567 1.384 . S
N571 C563 1.427 . S
N571 C569 1.384 . S
H572 C578 0.930 . S
H573 C582 0.930 . S
H574 C587 0.929 . S
H575 C585 0.929 . S
H576 C580 0.929 . S
H577 C586 0.929 . S
C578 H572 0.930 . S
C578 C579 1.367 . S
C578 C586 1.378 . S
C579 C578 1.367 . S
C579 C587 1.433 . S
C580 H576 0.929 . S
C580 C582 1.378 . S
C580 C584 1.350 . S
C581 C584 1.463 1_556 S
C581 C586 1.350 . S
C581 N589 1.427 . S
C582 H573 0.930 . S
C582 C580 1.378 . S
C582 C583 1.367 . S
C583 C582 1.367 . S
C583 C585 1.433 . S
C584 C580 1.350 . S
C584 C581 1.463 1_554 S
C584 N588 1.427 . S
C585 H575 0.929 . S
C585 C583 1.433 . S
C585 N588 1.384 . S
C586 H577 0.929 . S
C586 C578 1.378 . S
C586 C581 1.350 . S
C587 H574 0.929 . S
C587 C579 1.433 . S
C587 N589 1.384 . S
N588 C584 1.427 . S
N588 C585 1.384 . S
N589 C581 1.427 . S
N589 C587 1.384 . S
H590 C596 0.930 . S
H591 C600 0.930 . S
H592 C605 0.929 . S
H593 C603 0.929 . S
H594 C598 0.929 . S
H595 C604 0.929 . S
C596 H590 0.930 . S
C596 C597 1.367 . S
C596 C604 1.378 . S
C597 C596 1.367 . S
C597 C605 1.433 . S
C598 H594 0.929 . S
C598 C600 1.378 . S
C598 C602 1.350 . S
C599 C602 1.463 1_554 S
C599 C604 1.350 . S
C599 N607 1.427 . S
C600 H591 0.930 . S
C600 C598 1.378 . S
C600 C601 1.367 . S
C601 C600 1.367 . S
C601 C603 1.433 . S
C602 C598 1.350 . S
C602 C599 1.463 1_556 S
C602 N606 1.427 . S
C603 H593 0.929 . S
C603 C601 1.433 . S
C603 N606 1.384 . S
C604 H595 0.929 . S
C604 C596 1.378 . S
C604 C599 1.350 . S
C605 H592 0.929 . S
C605 C597 1.433 . S
C605 N607 1.384 . S
N606 C602 1.427 . S
N606 C603 1.384 . S
N607 C599 1.427 . S
N607 C605 1.384 . S
C183 C160 1.281 . S
C187 C5 1.226 . S
C201 C31 1.232 . S
C205 C139 1.289 . S
C219 C115 1.277 . S
C223 C50 1.230 . S
C237 C73 1.226 . S
C241 C97 1.283 . S
C255 C72 1.281 . S
C259 C93 1.226 . S
C273 C51 1.281 . S
C277 C119 1.226 . S
C291 C27 1.283 . S
C295 C138 1.247 . S
C309 C9 1.282 . S
C313 C161 1.247 . S
C327 C26 1.851 . S
C331 C8 1.852 . S
C345 C70 1.851 . S
C349 C52 1.852 . S
C363 C96 1.850 . S
C367 C114 1.852 . S
C381 C158 1.850 . S
C385 C140 1.852 . S
C399 C74 1.450 . S
C403 C4 1.450 . S
C417 C48 1.454 . S
C421 C30 1.446 . S
C435 C92 1.458 . S
C439 C162 1.443 . S
C453 C118 1.459 . S
C457 C136 1.442 . S
C471 C137 1.768 . S
C475 C6 1.768 . S
C489 C29 1.768 . S
C493 C163 1.768 . S
C507 C94 1.771 . S
C511 C49 1.771 . S
C525 C117 1.778 . S
C529 C75 1.778 . S
C543 C7 0.816 . S
C547 C141 0.816 . S
C561 C159 0.804 . S
C565 C28 0.804 . S
C579 C53 0.806 . S
C583 C95 0.806 . S
C597 C71 0.801 . S
C601 C116 0.801 . S
