# Generated by pormake.
# Topology wme, (6)-cn, num edge types: 1
# Building blocks:
#     Node 0, Type 0, BuildingBlock: MIFKUJ_clean_sbu_0, # of connection points: 6
#     Node 1, Type 0, BuildingBlock: MIFKUJ_clean_sbu_0, # of connection points: 6
#     Node 2, Type 0, BuildingBlock: MIFKUJ_clean_sbu_0, # of connection points: 6
#     Node 3, Type 0, BuildingBlock: MIFKUJ_clean_sbu_0, # of connection points: 6
#     Node 4, Type 0, BuildingBlock: MIFKUJ_clean_sbu_0, # of connection points: 6
#     Node 5, Type 0, BuildingBlock: MIFKUJ_clean_sbu_0, # of connection points: 6
#     Node 6, Type 0, BuildingBlock: MIFKUJ_clean_sbu_0, # of connection points: 6
#     Node 7, Type 0, BuildingBlock: MIFKUJ_clean_sbu_0, # of connection points: 6
#     Node 8, Type 0, BuildingBlock: MIFKUJ_clean_sbu_0, # of connection points: 6
#     Node 9, Type 0, BuildingBlock: MIFKUJ_clean_sbu_0, # of connection points: 6
#     Node 10, Type 0, BuildingBlock: MIFKUJ_clean_sbu_0, # of connection points: 6
#     Node 11, Type 0, BuildingBlock: MIFKUJ_clean_sbu_0, # of connection points: 6
#     Edge 12, Type (0, 0), BuildingBlock: EZIPEK_clean_linker_0, # of connection points: 2
#     Edge 13, Type (0, 0), BuildingBlock: EZIPEK_clean_linker_0, # of connection points: 2
#     Edge 14, Type (0, 0), BuildingBlock: EZIPEK_clean_linker_0, # of connection points: 2
#     Edge 15, Type (0, 0), BuildingBlock: EZIPEK_clean_linker_0, # of connection points: 2
#     Edge 16, Type (0, 0), BuildingBlock: EZIPEK_clean_linker_0, # of connection points: 2
#     Edge 17, Type (0, 0), BuildingBlock: EZIPEK_clean_linker_0, # of connection points: 2
#     Edge 18, Type (0, 0), BuildingBlock: EZIPEK_clean_linker_0, # of connection points: 2
#     Edge 19, Type (0, 0), BuildingBlock: EZIPEK_clean_linker_0, # of connection points: 2
#     Edge 20, Type (0, 0), BuildingBlock: EZIPEK_clean_linker_0, # of connection points: 2
#     Edge 21, Type (0, 0), BuildingBlock: EZIPEK_clean_linker_0, # of connection points: 2
#     Edge 22, Type (0, 0), BuildingBlock: EZIPEK_clean_linker_0, # of connection points: 2
#     Edge 23, Type (0, 0), BuildingBlock: EZIPEK_clean_linker_0, # of connection points: 2
#     Edge 24, Type (0, 0), BuildingBlock: EZIPEK_clean_linker_0, # of connection points: 2
#     Edge 25, Type (0, 0), BuildingBlock: EZIPEK_clean_linker_0, # of connection points: 2
#     Edge 26, Type (0, 0), BuildingBlock: EZIPEK_clean_linker_0, # of connection points: 2
#     Edge 27, Type (0, 0), BuildingBlock: EZIPEK_clean_linker_0, # of connection points: 2
#     Edge 28, Type (0, 0), BuildingBlock: EZIPEK_clean_linker_0, # of connection points: 2
#     Edge 29, Type (0, 0), BuildingBlock: EZIPEK_clean_linker_0, # of connection points: 2
#     Edge 30, Type (0, 0), BuildingBlock: EZIPEK_clean_linker_0, # of connection points: 2
#     Edge 31, Type (0, 0), BuildingBlock: EZIPEK_clean_linker_0, # of connection points: 2
#     Edge 32, Type (0, 0), BuildingBlock: EZIPEK_clean_linker_0, # of connection points: 2
#     Edge 33, Type (0, 0), BuildingBlock: EZIPEK_clean_linker_0, # of connection points: 2
#     Edge 34, Type (0, 0), BuildingBlock: EZIPEK_clean_linker_0, # of connection points: 2
#     Edge 35, Type (0, 0), BuildingBlock: EZIPEK_clean_linker_0, # of connection points: 2
#     Edge 36, Type (0, 0), BuildingBlock: EZIPEK_clean_linker_0, # of connection points: 2
#     Edge 37, Type (0, 0), BuildingBlock: EZIPEK_clean_linker_0, # of connection points: 2
#     Edge 38, Type (0, 0), BuildingBlock: EZIPEK_clean_linker_0, # of connection points: 2
#     Edge 39, Type (0, 0), BuildingBlock: EZIPEK_clean_linker_0, # of connection points: 2
#     Edge 40, Type (0, 0), BuildingBlock: EZIPEK_clean_linker_0, # of connection points: 2
#     Edge 41, Type (0, 0), BuildingBlock: EZIPEK_clean_linker_0, # of connection points: 2
#     Edge 42, Type (0, 0), BuildingBlock: EZIPEK_clean_linker_0, # of connection points: 2
#     Edge 43, Type (0, 0), BuildingBlock: EZIPEK_clean_linker_0, # of connection points: 2
#     Edge 44, Type (0, 0), BuildingBlock: EZIPEK_clean_linker_0, # of connection points: 2
#     Edge 45, Type (0, 0), BuildingBlock: EZIPEK_clean_linker_0, # of connection points: 2
#     Edge 46, Type (0, 0), BuildingBlock: EZIPEK_clean_linker_0, # of connection points: 2
#     Edge 47, Type (0, 0), BuildingBlock: EZIPEK_clean_linker_0, # of connection points: 2
# Relax obj value: 0.085
# Max RMSD: 0.184
# Mean RMSD: 0.184
data_MOF--net-wme--node1-MIFKUJ_clean_sbu_0--edge1-EZIPEK_clean_linker_0
_symmetry_space_group_name_H-M    P1
_symmetry_Int_Tables_number       1
_symmetry_cell_setting            triclinic
loop_
_symmetry_equiv_pos_as_xyz
'x, y, z'
_cell_length_a     27.518133
_cell_length_b     27.627853
_cell_length_c     36.056759
_cell_angle_alpha  89.9502
_cell_angle_beta   90.17842
_cell_angle_gamma 119.57262
loop_
_atom_site_label
_atom_site_type_symbol
_atom_site_fract_x
_atom_site_fract_y
_atom_site_fract_z
_atom_type_partial_charge
Zn0 Zn 0.17833 0.24624 0.12881 0.0
Zn1 Zn 0.21971 0.40192 0.10726 0.0
C2 C 0.06308 0.18121 0.12871 0.0
O3 O 0.0792 0.16512 0.15831 0.0
C4 C 0.3432 0.4704 0.122 0.0
O5 O 0.34308 0.42461 0.13198 0.0
O6 O 0.18713 0.17673 0.13276 0.0
O7 O 0.24088 0.30267 0.0974 0.0
O8 O 0.21916 0.35553 0.06367 0.0
C9 C 0.16708 0.14235 0.10589 0.0
O10 O 0.14595 0.15519 0.07741 0.0
O11 O 0.10001 0.22001 0.10883 0.0
C12 C 0.18362 0.48049 0.11456 0.0
O13 O 0.22267 0.49685 0.14017 0.0
O14 O 0.17061 0.43604 0.09664 0.0
O15 O 0.19578 0.36206 0.15656 0.0
O16 O 0.17834 0.27957 0.1781 0.0
O17 O 0.29802 0.46823 0.11145 0.0
C18 C 0.23107 0.3167 0.06604 0.0
C19 C 0.18202 0.32696 0.18283 0.0
Zn20 Zn 0.91896 0.15681 0.61509 0.0
Zn21 Zn 0.80793 0.19002 0.59396 0.0
C22 C 0.849 0.04178 0.61133 0.0
O23 O 0.86358 0.05028 0.64648 0.0
C24 C 0.8014 0.28832 0.57766 0.0
O25 O 0.77472 0.25906 0.54829 0.0
O26 O -0.00836 0.15593 0.62431 0.0
O27 O 0.93874 0.22266 0.58273 0.0
O28 O 0.85969 0.19432 0.55155 0.0
C29 C 0.00507 0.12572 0.6051 0.0
O30 O 0.97118 0.09316 0.5792 0.0
O31 O 0.86571 0.0839 0.59032 0.0
C32 C 0.69316 0.14824 0.60451 0.0
O33 O 0.71542 0.17354 0.636 0.0
O34 O 0.72525 0.14527 0.58035 0.0
O35 O 0.81606 0.1685 0.64598 0.0
O36 O 0.88804 0.15929 0.66427 0.0
O37 O 0.82129 0.26816 0.60095 0.0
C38 C 0.91293 0.22006 0.55294 0.0
C39 C 0.84285 0.15923 0.67106 0.0
Zn40 Zn 0.73775 0.92173 0.13634 0.0
Zn41 Zn 0.58996 0.81119 0.11769 0.0
C42 C 0.79671 0.86563 0.12916 0.0
O43 O 0.81406 0.89196 0.16094 0.0
C44 C 0.49291 0.81735 0.09321 0.0
O45 O 0.50892 0.80902 0.06071 0.0
O46 O 0.81149 -0.00592 0.14099 0.0
O47 O 0.68445 0.93747 0.10809 0.0
O48 O 0.6366 0.86117 0.07493 0.0
C49 C 0.82752 0.03233 0.11667 0.0
O50 O 0.79354 0.02825 0.08971 0.0
O51 O 0.75863 0.86916 0.11125 0.0
C52 C 0.5232 0.69703 0.13022 0.0
O53 O 0.51932 0.7191 0.16157 0.0
O54 O 0.55616 0.72901 0.1053 0.0
O55 O 0.62425 0.82128 0.1694 0.0
O56 O 0.70849 0.88954 0.18581 0.0
O57 O 0.52193 0.82166 0.12191 0.0
C58 C 0.66694 0.91383 0.07704 0.0
C59 C 0.6626 0.84623 0.19352 0.0
Zn60 Zn 0.83783 0.73763 0.59255 0.0
Zn61 Zn 0.76132 0.57039 0.58141 0.0
C62 C 0.95563 0.81844 0.58314 0.0
O63 O 0.93799 0.84631 0.56304 0.0
C64 C 0.64998 0.49233 0.57927 0.0
O65 O 0.66835 0.48849 0.54642 0.0
O66 O 0.81387 0.79385 0.57999 0.0
O67 O 0.80869 0.67405 0.55997 0.0
O68 O 0.75183 0.59999 0.53147 0.0
C69 C 0.83008 0.83534 0.60144 0.0
O70 O 0.85887 0.83828 0.6313 0.0
O71 O 0.92096 0.77192 0.59702 0.0
C72 C 0.79456 0.49144 0.60053 0.0
O73 O 0.7918 0.50855 0.63402 0.0
O74 O 0.78448 0.51309 0.57257 0.0
O75 O 0.81501 0.62654 0.62094 0.0
O76 O 0.80854 0.6991 0.6408 0.0
O77 O 0.68358 0.52888 0.60185 0.0
C78 C 0.77424 0.65205 0.53389 0.0
C79 C 0.8054 0.6521 0.647 0.0
Zn80 Zn 0.05578 0.8006 0.11197 0.0
Zn81 Zn 0.16311 0.77231 0.09495 0.0
C82 C 0.09857 0.91335 0.08624 0.0
O83 O 0.04651 0.89365 0.07574 0.0
C84 C 0.15087 0.66503 0.08571 0.0
O85 O 0.18435 0.69242 0.05814 0.0
O86 O 0.98341 0.80221 0.11807 0.0
O87 O 0.04021 0.73948 0.07656 0.0
O88 O 0.1222 0.77724 0.04901 0.0
C89 C 0.94191 0.77898 0.096 0.0
O90 O 0.94202 0.74718 0.069 0.0
O91 O 0.11452 0.87986 0.0978 0.0
C92 C 0.27475 0.79882 0.11046 0.0
O93 O 0.2526 0.78583 0.14371 0.0
O94 O 0.24508 0.79931 0.0834 0.0
O95 O 0.16501 0.81037 0.14366 0.0
O96 O 0.07942 0.78929 0.16112 0.0
O97 O 0.1314 0.68975 0.10534 0.0
C98 C 0.0692 0.74792 0.04771 0.0
C99 C 0.13089 0.80838 0.16816 0.0
Zn100 Zn 0.27425 0.06163 0.61653 0.0
Zn101 Zn 0.40139 0.17753 0.59262 0.0
C102 C 0.19916 0.10158 0.63287 0.0
O103 O 0.20812 0.0893 0.6665 0.0
C104 C 0.49752 0.16477 0.60568 0.0
O105 O 0.5136 0.21145 0.62383 0.0
O106 O 0.21699 0.98139 0.62626 0.0
O107 O 0.31634 0.06242 0.57096 0.0
O108 O 0.34473 0.14748 0.55108 0.0
C109 C 0.18498 0.95911 0.59862 0.0
O110 O 0.19466 0.98917 0.56858 0.0
O111 O 0.22624 0.09696 0.60585 0.0
C112 C 0.44214 0.29543 0.59101 0.0
O113 O 0.39286 0.28182 0.60466 0.0
O114 O 0.4538 0.2578 0.58231 0.0
O115 O 0.37707 0.17933 0.64481 0.0
O116 O 0.31619 0.09388 0.66333 0.0
O117 O 0.44916 0.13999 0.59092 0.0
C118 C 0.32152 0.0956 0.54497 0.0
C119 C 0.34886 0.145 0.67009 0.0
Zn120 Zn 0.7507 0.82672 0.40669 0.0
Zn121 Zn 0.57704 0.73109 0.40874 0.0
C122 C 0.79696 0.94197 0.3902 0.0
O123 O 0.78833 0.9233 0.356 0.0
C124 C 0.49039 0.63814 0.36646 0.0
O125 O 0.5113 0.6693 0.33689 0.0
O126 O 0.80781 0.80501 0.42066 0.0
O127 O 0.68036 0.78685 0.43319 0.0
O128 O 0.60689 0.72179 0.45852 0.0
C129 C 0.82454 0.78138 0.39795 0.0
O130 O 0.80306 0.77109 0.36438 0.0
O131 O 0.78294 0.9081 0.41708 0.0
C132 C 0.53277 0.7961 0.37973 0.0
O133 O 0.55259 0.78624 0.34939 0.0
O134 O 0.54082 0.77925 0.41084 0.0
O135 O 0.63687 0.7647 0.36783 0.0
O136 O 0.72657 0.81089 0.35316 0.0
O137 O 0.51548 0.65419 0.3973 0.0
C138 C 0.65947 0.75007 0.45793 0.0
C139 C 0.67529 0.78589 0.34349 0.0
Zn140 Zn 0.929 0.733 0.85661 0.0
Zn141 Zn 0.82801 0.58334 0.87734 0.0
C142 C 0.84042 0.7592 0.85381 0.0
O143 O 0.85071 0.75784 0.81839 0.0
C144 C 0.81899 0.47624 0.89598 0.0
O145 O 0.7843 0.47551 0.92115 0.0
O146 O 0.00066 0.80761 0.85458 0.0
O147 O 0.94993 0.68675 0.88795 0.0
O148 O 0.87493 0.63283 0.92053 0.0
C149 C 0.00212 0.85434 0.85564 0.0
O150 O 0.95539 0.85618 0.85482 0.0
O151 O 0.86808 0.74721 0.87681 0.0
C152 C 0.71125 0.51142 0.86714 0.0
O153 O 0.73123 0.49964 0.83759 0.0
O154 O 0.74506 0.54933 0.88901 0.0
O155 O 0.83972 0.61455 0.8243 0.0
O156 O 0.90534 0.69948 0.80712 0.0
O157 O 0.84425 0.51865 0.87507 0.0
C158 C 0.9265 0.66907 0.91891 0.0
C159 C 0.86476 0.65162 0.79948 0.0
Zn160 Zn 0.16524 0.93572 0.38055 0.0
Zn161 Zn 0.27291 0.87153 0.37908 0.0
C162 C 0.0479 0.85862 0.38365 0.0
O163 O 0.05273 0.87057 0.34811 0.0
C164 C 0.36976 0.86709 0.38473 0.0
O165 O 0.35025 0.85778 0.41874 0.0
O166 O 0.17688 0.01296 0.38017 0.0
O167 O 0.22581 0.92904 0.40206 0.0
O168 O 0.29512 0.92365 0.42367 0.0
C169 C 0.14616 0.0245 0.40013 0.0
O170 O 0.11063 0.98709 0.42311 0.0
O171 O 0.0915 0.88027 0.40373 0.0
C172 C 0.21709 0.75834 0.36631 0.0
O173 O 0.23312 0.77949 0.33301 0.0
O174 O 0.22721 0.7911 0.39366 0.0
O175 O 0.22667 0.88231 0.33763 0.0
O176 O 0.16724 0.91412 0.32845 0.0
O177 O 0.3446 0.87915 0.35992 0.0
C178 C 0.26526 0.94648 0.42506 0.0
C179 C 0.19587 0.8928 0.31626 0.0
Zn180 Zn 0.2378 0.1878 0.87159 0.0
Zn181 Zn 0.39058 0.23325 0.89787 0.0
C182 C 0.18371 0.07432 0.86239 0.0
O183 O 0.17891 0.09401 0.83023 0.0
C184 C 0.485 0.33556 0.87169 0.0
O185 O 0.47404 0.30775 0.84041 0.0
O186 O 0.16597 0.19001 0.86125 0.0
O187 O 0.27974 0.24641 0.90973 0.0
O188 O 0.33678 0.22428 0.93948 0.0
C189 C 0.12295 0.16049 0.88099 0.0
O190 O 0.12628 0.13087 0.9083 0.0
O191 O 0.21261 0.1088 0.88764 0.0
C192 C 0.4589 0.18257 0.88406 0.0
O193 O 0.45107 0.19233 0.84954 0.0
O194 O 0.43383 0.19273 0.90998 0.0
O195 O 0.36163 0.21455 0.84519 0.0
O196 O 0.2788 0.19882 0.82457 0.0
O197 O 0.45203 0.31417 0.899 0.0
C198 C 0.29959 0.23897 0.93957 0.0
C199 C 0.32666 0.20404 0.81908 0.0
Zn200 Zn 0.04189 0.26028 0.3827 0.0
Zn201 Zn 0.14321 0.42851 0.39635 0.0
C202 C 0.09433 0.19602 0.3637 0.0
O203 O 0.09024 0.21019 0.32956 0.0
C204 C 0.14672 0.52606 0.36574 0.0
O205 O 0.17323 0.51805 0.33831 0.0
O206 O 0.96193 0.21406 0.39676 0.0
O207 O 0.08188 0.32583 0.41139 0.0
O208 O 0.10821 0.39541 0.44712 0.0
C209 C 0.93844 0.17211 0.37559 0.0
O210 O 0.96322 0.17225 0.34453 0.0
O211 O 0.07756 0.21345 0.39058 0.0
C212 C 0.2557 0.47344 0.36908 0.0
O213 O 0.22979 0.45357 0.33744 0.0
O214 O 0.22737 0.46537 0.3986 0.0
O215 O 0.1167 0.37573 0.35007 0.0
O216 O 0.05714 0.2895 0.33124 0.0
O217 O 0.12459 0.48948 0.39073 0.0
C218 C 0.07749 0.34392 0.44221 0.0
C219 C 0.09571 0.33898 0.32442 0.0
Zn220 Zn 0.77959 0.03161 0.87823 0.0
Zn221 Zn 0.74449 0.14431 0.89799 0.0
C222 C 0.89345 0.09585 0.86247 0.0
O223 O 0.87188 0.06309 0.83354 0.0
C224 C 0.64233 0.14248 0.917 0.0
O225 O 0.6724 0.1692 0.94611 0.0
O226 O 0.77463 0.95583 0.87226 0.0
O227 O 0.72401 0.0201 0.91747 0.0
O228 O 0.75175 0.10265 0.94299 0.0
C229 C 0.81242 0.94504 0.88304 0.0
O230 O 0.85777 0.98425 0.89901 0.0
O231 O 0.86047 0.0889 0.88921 0.0
C232 C 0.81586 0.2653 0.8863 0.0
O233 O 0.83784 0.25114 0.85907 0.0
O234 O 0.78087 0.22795 0.90791 0.0
O235 O 0.76758 0.1344 0.846 0.0
O236 O 0.763 0.05424 0.82994 0.0
O237 O 0.66292 0.12389 0.89306 0.0
C238 C 0.73343 0.05048 0.94581 0.0
C239 C 0.77058 0.10223 0.82193 0.0
C240 C 0.15889 0.01242 0.0657 0.0
C241 C 0.13187 0.97372 0.09461 0.0
C242 C 0.13921 0.04845 0.13515 0.0
C243 C 0.16497 0.08727 0.10578 0.0
N244 N 0.2154 0.10944 0.04809 0.0
N245 N 0.11156 0.95676 0.15985 0.0
C246 C 0.18012 0.07016 0.07264 0.0
C247 C 0.12768 -0.00743 0.13043 0.0
N248 N 0.16263 -0.00623 0.03133 0.0
N249 N 0.12146 0.06316 0.16633 0.0
H250 H 0.10137 0.91521 0.15734 0.0
H251 H 0.11354 0.96951 0.18726 0.0
H252 H 0.12904 0.10325 0.17163 0.0
H253 H 0.09565 0.03453 0.18608 0.0
H254 H 0.17606 0.01907 0.00791 0.0
H255 H 0.14971 0.952 0.02598 0.0
H256 H 0.23152 0.10022 0.02475 0.0
H257 H 0.23308 0.15203 0.05321 0.0
C258 C 0.09605 0.06566 0.63569 0.0
C259 C 0.15012 0.10909 0.62582 0.0
C260 C 0.10887 0.16381 0.60136 0.0
C261 C 0.05573 0.12229 0.61415 0.0
N262 N -0.00034 0.03844 0.64901 0.0
N263 N 0.20957 0.20229 0.60337 0.0
C264 C 0.04966 0.07467 0.63303 0.0
C265 C 0.15702 0.159 0.6097 0.0
N266 N 0.0884 0.0146 0.64565 0.0
N267 N 0.11298 0.2068 0.58025 0.0
H268 H 0.24559 0.19986 0.60866 0.0
H269 H 0.21776 0.24184 0.59543 0.0
H270 H 0.0788 0.21223 0.57441 0.0
H271 H 0.14925 0.23492 0.56647 0.0
H272 H 0.04919 0.97968 0.64909 0.0
H273 H 0.12083 0.00545 0.64684 0.0
H274 H -0.00565 0.00636 0.66668 0.0
H275 H 0.9645 0.04338 0.64734 0.0
C276 C 0.92257 0.0798 0.08731 0.0
C277 C 0.88654 0.07769 0.11621 0.0
C278 C 0.96584 0.15384 0.14871 0.0
C279 C 0.0022 0.15445 0.12054 0.0
N280 N 0.01366 0.12932 0.05842 0.0
N281 N 0.87046 0.11988 0.16964 0.0
C282 C 0.97998 0.12138 0.0882 0.0
C283 C 0.90721 0.11705 0.14549 0.0
N284 N 0.90277 0.03987 0.06022 0.0
N285 N 0.98782 0.18808 0.1788 0.0
H286 H 0.82734 0.09364 0.16774 0.0
H287 H 0.88179 0.15062 0.18974 0.0
H288 H 0.02972 0.21899 0.18033 0.0
H289 H 0.96533 0.18523 0.20262 0.0
H290 H 0.92823 0.03458 0.04127 0.0
H291 H 0.86104 0.00902 0.0581 0.0
H292 H -0.00114 0.11086 0.03263 0.0
H293 H 0.0559 0.15861 0.0582 0.0
C294 C 0.78468 0.88956 0.62191 0.0
C295 C 0.81519 0.87928 0.59448 0.0
C296 C 0.84185 0.96913 0.56516 0.0
C297 C 0.82138 0.98347 0.59706 0.0
N298 N 0.7525 0.9515 0.64504 0.0
N299 N 0.85637 0.89936 0.53352 0.0
C300 C 0.78541 0.94123 0.62177 0.0
C301 C 0.83802 0.9157 0.56367 0.0
N302 N 0.75685 0.85057 0.6487 0.0
N303 N 0.86603 0.00679 0.53714 0.0
H304 H 0.85341 0.86042 0.5316 0.0
H305 H 0.87117 0.9223 0.50925 0.0
H306 H 0.86136 0.04179 0.53456 0.0
H307 H 0.88867 0.00275 0.51552 0.0
H308 H 0.73904 0.8576 0.67203 0.0
H309 H 0.75251 0.81085 0.64776 0.0
H310 H 0.72265 0.922 0.66263 0.0
H311 H 0.7519 0.98895 0.64391 0.0
C312 C 0.88922 0.82596 0.07335 0.0
C313 C 0.89543 0.79117 0.09977 0.0
C314 C 0.82214 0.79143 0.13808 0.0
C315 C 0.82297 0.83353 0.11511 0.0
N316 N 0.85879 0.89329 0.06157 0.0
N317 N 0.86758 0.73911 0.15682 0.0
C318 C 0.85592 0.8506 0.08242 0.0
C319 C 0.86139 0.773 0.13187 0.0
N320 N 0.91602 0.83645 0.03996 0.0
N321 N 0.78302 0.76863 0.16548 0.0
H322 H 0.89317 0.7218 0.15192 0.0
H323 H 0.84936 0.72996 0.18299 0.0
H324 H 0.75342 0.78105 0.1702 0.0
H325 H 0.77646 0.73433 0.18122 0.0
H326 H 0.90811 0.85609 0.01799 0.0
H327 H 0.94316 0.82181 0.03294 0.0
H328 H 0.88731 0.91255 0.0402 0.0
H329 H 0.83505 0.9123 0.06713 0.0
C330 C 0.05154 0.84498 0.56162 0.0
C331 C 0.01578 0.84205 0.59065 0.0
C332 C 0.09672 0.89145 0.63195 0.0
C333 C 0.13197 0.90499 0.60057 0.0
N334 N 0.14391 0.87707 0.53924 0.0
N335 N 0.00266 0.85945 0.65446 0.0
C336 C 0.10981 0.87581 0.56691 0.0
C337 C 0.03777 0.86334 0.62643 0.0
N338 N 0.03016 0.81921 0.52846 0.0
N339 N 0.1193 0.90382 0.66675 0.0
H340 H 0.9593 0.83844 0.65166 0.0
H341 H 0.01643 0.8799 0.67978 0.0
H342 H 0.16171 0.91914 0.67163 0.0
H343 H 0.09563 0.89207 0.69092 0.0
H344 H 0.05559 0.82159 0.50629 0.0
H345 H 0.98733 0.79516 0.5234 0.0
H346 H 0.18739 0.897 0.54168 0.0
H347 H 0.18739 0.897 0.54168 0.0
C348 C 0.97049 0.83586 0.43046 0.0
C349 C -0.00861 0.82094 0.39903 0.0
C350 C 0.896 0.75354 0.38001 0.0
C351 C 0.87624 0.77817 0.406 0.0
N352 N 0.8895 0.81222 0.46872 0.0
N353 N 0.976 0.74887 0.3557 0.0
C354 C 0.91179 0.8096 0.43555 0.0
C355 C 0.95448 0.77391 0.37762 0.0
N356 N 0.00566 0.8763 0.45443 0.0
N357 N 0.85887 0.71115 0.35797 0.0
H358 H 0.01851 0.76153 0.35621 0.0
H359 H 0.95216 0.71324 0.34 0.0
H360 H 0.81593 0.69117 0.36286 0.0
H361 H 0.87017 0.69512 0.3356 0.0
H362 H -0.00813 0.89442 0.47408 0.0
H363 H 0.04858 0.89198 0.45485 0.0
H364 H 0.91363 0.83145 0.49209 0.0
H365 H 0.84686 0.78848 0.47417 0.0
C366 C 0.09795 0.92545 0.83396 0.0
C367 C 0.0559 0.90634 0.86163 0.0
C368 C 0.11309 -0.00933 0.89865 0.0
C369 C 0.15053 0.01304 0.86838 0.0
N370 N 0.1912 -0.0043 0.81489 0.0
N371 N 0.0231 0.91862 0.92106 0.0
C372 C 0.14686 0.97815 0.83848 0.0
C373 C 0.06375 0.93807 0.89445 0.0
N374 N 0.0892 0.8953 0.80212 0.0
N375 N 0.12557 0.01849 0.93171 0.0
H376 H 0.98812 0.87902 0.92025 0.0
H377 H 0.02219 0.94238 0.94313 0.0
H378 H 0.16339 0.05429 0.93684 0.0
H379 H 0.10202 0.00291 0.9557 0.0
H380 H 0.11505 0.90983 0.77902 0.0
H381 H 0.05381 0.85669 0.79761 0.0
H382 H 0.19408 0.97112 0.79412 0.0
H383 H 0.22796 0.03353 0.81872 0.0
C384 C 0.07638 0.09882 0.35725 0.0
C385 C 0.11077 0.15366 0.37072 0.0
C386 C 0.16977 0.12419 0.4037 0.0
C387 C 0.13687 0.07025 0.38862 0.0
N388 N 0.06703 0.00867 0.34491 0.0
N389 N 0.19464 0.2216 0.40175 0.0
C390 C 0.09275 0.05838 0.36343 0.0
C391 C 0.15883 0.1673 0.39259 0.0
N392 N 0.0264 0.08439 0.34045 0.0
N393 N 0.21058 0.13373 0.42905 0.0
H394 H 0.18792 0.25415 0.39378 0.0
H395 H 0.23307 0.2351 0.41469 0.0
H396 H 0.2212 0.10353 0.43624 0.0
H397 H 0.23184 0.17028 0.44438 0.0
H398 H -0.00349 0.04344 0.33438 0.0
H399 H 0.01226 0.11249 0.33546 0.0
H400 H 0.03907 0.00031 0.3231 0.0
H401 H 0.07735 0.97747 0.34896 0.0
C402 C 0.04249 0.14219 0.83867 0.0
C403 C 0.06879 0.15848 0.87383 0.0
C404 C 0.98389 0.15379 0.89977 0.0
C405 C 0.95605 0.13184 0.86535 0.0
N406 N 0.96947 0.13727 0.79897 0.0
N407 N 0.07177 0.19736 0.93402 0.0
C408 C -0.0112 0.13643 0.83375 0.0
C409 C 0.04157 0.16957 0.90333 0.0
N410 N 0.06673 0.12874 0.81046 0.0
N411 N 0.95595 0.16047 0.92875 0.0
H412 H 0.11452 0.21155 0.93642 0.0
H413 H 0.05624 0.21086 0.95551 0.0
H414 H 0.91959 0.16277 0.92516 0.0
H415 H 0.97003 0.16616 0.95608 0.0
H416 H 0.04584 0.11046 0.7858 0.0
H417 H 0.10563 0.13125 0.81265 0.0
H418 H -0.0063 0.14512 0.77521 0.0
H419 H 0.93229 0.13772 0.79446 0.0
C420 C 0.91383 0.0872 0.41239 0.0
C421 C 0.89583 0.11803 0.39038 0.0
C422 C 0.80484 0.03494 0.38207 0.0
C423 C 0.8273 0.0025 0.39667 0.0
N424 N 0.90428 -0.00307 0.42488 0.0
N425 N 0.82414 0.12326 0.35529 0.0
C426 C 0.88164 0.02834 0.41248 0.0
C427 C 0.84091 0.09261 0.37592 0.0
N428 N 0.96219 0.11402 0.4325 0.0
N429 N 0.74897 0.01046 0.37462 0.0
H430 H 0.84899 0.16624 0.35207 0.0
H431 H 0.78693 0.10589 0.34027 0.0
H432 H 0.72163 0.96867 0.38058 0.0
H433 H 0.72907 0.03244 0.36636 0.0
H434 H 0.97466 0.09402 0.45165 0.0
H435 H 0.98701 0.15714 0.43307 0.0
H436 H 0.94623 0.01366 0.43206 0.0
H437 H 0.88251 0.9536 0.42552 0.0
C438 C 0.81657 0.81089 0.90247 0.0
C439 C 0.81143 0.79056 0.86575 0.0
C440 C 0.79211 0.86252 0.84255 0.0
C441 C 0.80563 0.88846 0.87801 0.0
N442 N 0.82142 0.88312 0.94342 0.0
N443 N 0.76197 0.77699 0.80828 0.0
C444 C 0.81465 0.86102 0.90864 0.0
C445 C 0.78857 0.8099 0.83815 0.0
N446 N 0.81936 0.78017 0.93127 0.0
N447 N 0.7872 0.88966 0.81229 0.0
H448 H 0.75517 0.73641 0.80622 0.0
H449 H 0.74052 0.78696 0.78858 0.0
H450 H 0.7924 0.92961 0.8133 0.0
H451 H 0.78342 0.87459 0.78533 0.0
H452 H 0.82279 0.79142 0.95905 0.0
H453 H 0.81198 0.73966 0.92753 0.0
H454 H 0.83393 0.86947 0.96652 0.0
H455 H 0.81446 0.91609 0.9493 0.0
C456 C 0.13812 0.57363 0.06435 0.0
C457 C 0.14108 0.60801 0.0945 0.0
C458 C 0.14531 0.54045 0.13669 0.0
C459 C 0.15821 0.5161 0.10641 0.0
N460 N 0.17115 0.51393 0.03998 0.0
N461 N 0.15129 0.62429 0.1612 0.0
C462 C 0.1547 0.53292 0.0697 0.0
C463 C 0.14446 0.59103 0.13135 0.0
N464 N 0.11975 0.58013 0.03048 0.0
N465 N 0.134 0.51523 0.17062 0.0
H466 H 0.15236 0.66232 0.1597 0.0
H467 H 0.16078 0.61604 0.18765 0.0
H468 H 0.13275 0.47726 0.175 0.0
H469 H 0.11963 0.52856 0.19296 0.0
H470 H 0.11236 0.55306 0.00836 0.0
H471 H 0.10581 0.60858 0.02599 0.0
H472 H 0.17513 0.5303 0.01339 0.0
H473 H 0.18568 0.4857 0.04196 0.0
C474 C 0.61679 0.14977 0.56523 0.0
C475 C 0.63311 0.13098 0.59726 0.0
C476 C 0.55019 0.11911 0.63056 0.0
C477 C 0.53775 0.14421 0.60046 0.0
N478 N 0.54973 0.17133 0.53621 0.0
N479 N 0.60491 0.07814 0.65364 0.0
C480 C 0.56775 0.15508 0.56668 0.0
C481 C 0.59595 0.10896 0.62767 0.0
N482 N 0.64975 0.1659 0.53437 0.0
N483 N 0.51949 0.10698 0.66239 0.0
H484 H 0.63745 0.06916 0.65116 0.0
H485 H 0.5776 0.05719 0.6753 0.0
H486 H 0.48406 0.11138 0.66463 0.0
H487 H 0.53023 0.09478 0.68698 0.0
H488 H 0.64615 0.18902 0.51284 0.0
H489 H 0.68101 0.15588 0.52987 0.0
H490 H 0.56552 0.17428 0.50962 0.0
H491 H 0.51609 0.1787 0.53695 0.0
C492 C 0.47874 0.59872 0.15279 0.0
C493 C 0.48509 0.63639 0.12392 0.0
C494 C 0.4093 0.5592 0.08968 0.0
C495 C 0.39584 0.52502 0.12168 0.0
N496 N 0.41471 0.51539 0.18603 0.0
N497 N 0.44989 0.65301 0.06633 0.0
C498 C 0.43012 0.54524 0.15379 0.0
C499 C 0.44917 0.61677 0.09243 0.0
N500 N 0.51952 0.61394 0.17913 0.0
N501 N 0.38465 0.5365 0.05643 0.0
H502 H 0.47692 0.69573 0.06718 0.0
H503 H 0.41982 0.64112 0.04548 0.0
H504 H 0.35659 0.49412 0.05309 0.0
H505 H 0.3968 0.55847 0.03154 0.0
H506 H 0.51951 0.58649 0.19897 0.0
H507 H 0.55639 0.65219 0.17849 0.0
H508 H 0.43513 0.53125 0.2112 0.0
H509 H 0.37853 0.47694 0.18863 0.0
C510 C 0.74686 0.38874 0.59138 0.0
C511 C 0.79728 0.43981 0.5959 0.0
C512 C 0.85163 0.39182 0.58928 0.0
C513 C 0.80089 0.34048 0.5861 0.0
N514 N 0.70093 0.28849 0.59405 0.0
N515 N 0.89698 0.49017 0.60498 0.0
C516 C 0.74867 0.33851 0.58984 0.0
C517 C 0.84956 0.44141 0.59671 0.0
N518 N 0.69708 0.38818 0.58828 0.0
N519 N 0.90157 0.39347 0.58391 0.0
H520 H 0.89696 0.52748 0.60941 0.0
H521 H 0.93562 0.4931 0.60992 0.0
H522 H 0.90489 0.35789 0.57984 0.0
H523 H 0.93954 0.43017 0.58136 0.0
H524 H 0.6599 0.35331 0.58024 0.0
H525 H 0.69356 0.42372 0.59128 0.0
H526 H 0.6623 0.28434 0.60082 0.0
H527 H 0.70107 0.25097 0.59478 0.0
C528 C 0.39253 0.76433 0.11291 0.0
C529 C 0.43707 0.81292 0.09692 0.0
C530 C 0.37525 0.85306 0.08962 0.0
C531 C 0.3302 0.80339 0.10406 0.0
N532 N 0.29285 0.70724 0.12183 0.0
N533 N 0.46899 0.89935 0.06402 0.0
C534 C 0.33805 0.75784 0.11373 0.0
C535 C 0.42778 0.85597 0.0833 0.0
N536 N 0.40213 0.72401 0.12728 0.0
N537 N 0.36858 0.89829 0.08353 0.0
H538 H 0.50832 0.90353 0.05975 0.0
H539 H 0.46302 0.9289 0.0499 0.0
H540 H 0.33082 0.89768 0.08785 0.0
H541 H 0.40134 0.93763 0.07697 0.0
H542 H 0.37364 0.69147 0.14381 0.0
H543 H 0.44001 0.72467 0.12446 0.0
H544 H 0.29472 0.67068 0.12465 0.0
H545 H 0.25215 0.70036 0.12235 0.0
C546 C 0.54904 0.44209 0.56327 0.0
C547 C 0.59165 0.45167 0.58933 0.0
C548 C 0.52561 0.3686 0.62367 0.0
C549 C 0.48813 0.35326 0.59332 0.0
N550 N 0.46144 0.37485 0.5347 0.0
N551 N 0.62075 0.424 0.64526 0.0
C552 C 0.49857 0.39029 0.56348 0.0
C553 C 0.57973 0.41579 0.6204 0.0
N554 N 0.55709 0.48293 0.53857 0.0
N555 N 0.50937 0.33763 0.65547 0.0
H556 H 0.66075 0.45831 0.64489 0.0
H557 H 0.61626 0.39479 0.66519 0.0
H558 H 0.47 0.30251 0.65844 0.0
H559 H 0.53252 0.34961 0.67996 0.0
H560 H 0.52615 0.48044 0.52069 0.0
H561 H 0.59328 0.52184 0.53864 0.0
H562 H 0.46967 0.39706 0.51 0.0
H563 H 0.42311 0.33798 0.5349 0.0
C564 C 0.4088 0.81366 0.35244 0.0
C565 C 0.41737 0.85829 0.37602 0.0
C566 C 0.50814 0.86973 0.39534 0.0
C567 C 0.49479 0.81945 0.37682 0.0
N568 N 0.42956 0.73988 0.34058 0.0
N569 N 0.4755 0.93083 0.41905 0.0
C570 C 0.4448 0.79084 0.35566 0.0
C571 C 0.46742 0.88716 0.39706 0.0
N572 N 0.36619 0.79252 0.32711 0.0
N573 N 0.56024 0.90144 0.41031 0.0
H574 H 0.4489 0.94768 0.41844 0.0
H575 H 0.50728 0.94913 0.43871 0.0
H576 H 0.5911 0.88998 0.40909 0.0
H577 H 0.57461 0.94115 0.42112 0.0
H578 H 0.36206 0.76429 0.30653 0.0
H579 H 0.33816 0.80708 0.32376 0.0
H580 H 0.39003 0.71359 0.32962 0.0
H581 H 0.4542 0.72107 0.34196 0.0
C582 C 0.63076 0.44267 0.90598 0.0
C583 C 0.65012 0.47819 0.87463 0.0
C584 C 0.55485 0.43061 0.84893 0.0
C585 C 0.53916 0.38812 0.87594 0.0
N586 N 0.56552 0.35075 0.92829 0.0
N587 N 0.6301 0.50911 0.81707 0.0
C588 C 0.57755 0.39371 0.90443 0.0
C589 C 0.61175 0.47331 0.84647 0.0
N590 N 0.66297 0.45514 0.93719 0.0
N591 N 0.51504 0.4306 0.82616 0.0
H592 H 0.67014 0.54363 0.81618 0.0
H593 H 0.60653 0.50366 0.7932 0.0
H594 H 0.47286 0.40059 0.82799 0.0
H595 H 0.52266 0.46288 0.808 0.0
H596 H 0.64858 0.43307 0.96191 0.0
H597 H 0.70124 0.49139 0.94002 0.0
H598 H 0.59498 0.35029 0.94629 0.0
H599 H 0.52827 0.31303 0.92783 0.0
C600 C 0.21196 0.67452 0.39794 0.0
C601 C 0.19075 0.69724 0.37133 0.0
C602 C 0.13333 0.60464 0.34402 0.0
C603 C 0.15337 0.58201 0.37135 0.0
N604 N 0.19727 0.59315 0.4317 0.0
N605 N 0.11936 0.6814 0.32642 0.0
C606 C 0.18724 0.61598 0.40099 0.0
C607 C 0.14766 0.66141 0.34659 0.0
N608 N 0.2588 0.70824 0.41813 0.0
N609 N 0.10107 0.57208 0.31542 0.0
H610 H 0.12737 0.72213 0.32932 0.0
H611 H 0.08435 0.65641 0.31027 0.0
H612 H 0.08657 0.52937 0.31409 0.0
H613 H 0.09103 0.58795 0.29223 0.0
H614 H 0.27955 0.69303 0.43452 0.0
H615 H 0.28076 0.7513 0.41557 0.0
H616 H 0.21674 0.61635 0.45539 0.0
H617 H 0.18232 0.5508 0.43524 0.0
C618 C 0.60362 0.19678 0.88581 0.0
C619 C 0.5939 0.14954 0.90693 0.0
C620 C 0.49421 0.12128 0.91128 0.0
C621 C 0.50506 0.17103 0.89278 0.0
N622 N 0.57225 0.26157 0.86918 0.0
N623 N 0.53205 0.06948 0.94318 0.0
C624 C 0.56032 0.21014 0.88172 0.0
C625 C 0.53972 0.11251 0.9207 0.0
N626 N 0.65432 0.22889 0.8693 0.0
N627 N 0.44029 0.08163 0.91859 0.0
H628 H 0.56393 0.06057 0.94906 0.0
H629 H 0.49527 0.04465 0.95763 0.0
H630 H 0.40618 0.08685 0.91213 0.0
H631 H 0.42891 0.04207 0.92852 0.0
H632 H 0.66163 0.25963 0.84987 0.0
H633 H 0.68797 0.22188 0.87255 0.0
H634 H 0.61271 0.29425 0.86515 0.0
H635 H 0.54221 0.27374 0.86632 0.0
C636 C 0.33447 0.56898 0.38246 0.0
C637 C 0.31619 0.51455 0.36885 0.0
C638 C 0.41206 0.54312 0.34926 0.0
C639 C 0.43072 0.59517 0.36699 0.0
N640 N 0.41011 0.65434 0.40598 0.0
N641 N 0.33814 0.44702 0.34325 0.0
C642 C 0.39217 0.60687 0.38549 0.0
C643 C 0.35513 0.50081 0.35312 0.0
N644 N 0.29685 0.58632 0.38994 0.0
N645 N 0.44862 0.53421 0.32878 0.0
H646 H 0.29711 0.41495 0.34653 0.0
H647 H 0.3654 0.43322 0.33486 0.0
H648 H 0.49094 0.56361 0.32661 0.0
H649 H 0.43638 0.49947 0.31194 0.0
H650 H 0.3083 0.6277 0.39515 0.0
H651 H 0.25411 0.56089 0.38673 0.0
H652 H 0.38416 0.66056 0.42402 0.0
H653 H 0.45131 0.68622 0.40698 0.0
C654 C 0.84436 0.40699 0.92219 0.0
C655 C 0.82612 0.42643 0.89149 0.0
C656 C 0.80352 0.34119 0.85687 0.0
C657 C 0.82267 0.32221 0.8873 0.0
N658 N 0.87056 0.34055 0.9459 0.0
N659 N 0.79801 0.41691 0.82708 0.0
C660 C 0.8457 0.35616 0.91915 0.0
C661 C 0.80933 0.39533 0.85794 0.0
N662 N 0.86017 0.43714 0.95438 0.0
N663 N 0.77608 0.30602 0.82794 0.0
H664 H 0.79739 0.45423 0.82689 0.0
H665 H 0.79317 0.39982 0.80069 0.0
H666 H 0.76938 0.26556 0.82609 0.0
H667 H 0.75494 0.31464 0.80729 0.0
H668 H 0.86691 0.42228 0.97928 0.0
H669 H 0.86458 0.47673 0.95667 0.0
H670 H 0.89321 0.36569 0.96811 0.0
H671 H 0.87245 0.3038 0.94433 0.0
C672 C 0.17215 0.34065 0.2865 0.0
C673 C 0.12496 0.34855 0.2887 0.0
C674 C 0.11777 0.34693 0.2211 0.0
C675 C 0.16551 0.33977 0.21889 0.0
N676 N 0.24638 0.34454 0.24838 0.0
N677 N 0.06118 0.37234 0.25928 0.0
C678 C 0.19535 0.34132 0.2513 0.0
C679 C 0.10065 0.35623 0.25628 0.0
N680 N 0.19305 0.32963 0.31787 0.0
N681 N 0.08669 0.34128 0.19006 0.0
H682 H 0.048 0.37913 0.28491 0.0
H683 H 0.04559 0.38397 0.23669 0.0
H684 H 0.0968 0.33332 0.16378 0.0
H685 H 0.04819 0.33988 0.19071 0.0
H686 H 0.2224 0.31623 0.31742 0.0
H687 H 0.17858 0.33044 0.34444 0.0
H688 H 0.27278 0.35158 0.27095 0.0
H689 H 0.26471 0.34559 0.22287 0.0
C690 C 0.76777 0.10242 0.71711 0.0
C691 C 0.82108 0.14883 0.70935 0.0
C692 C 0.83956 0.16766 0.77568 0.0
C693 C 0.78582 0.12197 0.78342 0.0
N694 N 0.69375 0.05499 0.7621 0.0
N695 N 0.9007 0.23415 0.73007 0.0
C696 C 0.7483 0.09219 0.75425 0.0
C697 C 0.85481 0.18419 0.73832 0.0
N698 N 0.73691 0.06651 0.68938 0.0
N699 N 0.87723 0.19332 0.80374 0.0
H700 H 0.91253 0.24794 0.70292 0.0
H701 H 0.92366 0.26427 0.74995 0.0
H702 H 0.86865 0.18141 0.83143 0.0
H703 H 0.91885 0.22306 0.79931 0.0
H704 H 0.70096 0.02856 0.69413 0.0
H705 H 0.74925 0.07235 0.6617 0.0
H706 H 0.66291 0.03617 0.74186 0.0
H707 H 0.67814 0.04705 0.7891 0.0
C708 C 0.65249 0.85765 0.26102 0.0
C709 C 0.65415 0.82438 0.2318 0.0
C710 C 0.65355 0.75736 0.27687 0.0
C711 C 0.66128 0.79533 0.3056 0.0
N712 N 0.66716 0.88114 0.32629 0.0
N713 N 0.6555 0.74211 0.21076 0.0
C714 C 0.65987 0.84511 0.29807 0.0
C715 C 0.65343 0.77348 0.23936 0.0
N716 N 0.64249 0.90042 0.25319 0.0
N717 N 0.6461 0.70599 0.28563 0.0
H718 H 0.65397 0.75168 0.18297 0.0
H719 H 0.66169 0.70816 0.21433 0.0
H720 H 0.64658 0.69368 0.31294 0.0
H721 H 0.63495 0.67411 0.2664 0.0
H722 H 0.63522 0.92308 0.2733 0.0
H723 H 0.63622 0.91001 0.22622 0.0
H724 H 0.67341 0.92109 0.32216 0.0
H725 H 0.66948 0.87206 0.35411 0.0
C726 C 0.87245 0.6544 0.69536 0.0
C727 C 0.81776 0.64313 0.6855 0.0
C728 C 0.7914 0.63204 0.75102 0.0
C729 C 0.84515 0.64044 0.7606 0.0
N730 N 0.93099 0.64471 0.74168 0.0
N731 N 0.72182 0.60917 0.70272 0.0
C732 C 0.8837 0.6466 0.7326 0.0
C733 C 0.77605 0.62783 0.71299 0.0
N734 N 0.91472 0.6761 0.66993 0.0
N735 N 0.75642 0.63188 0.77791 0.0
H736 H 0.70942 0.60601 0.67502 0.0
H737 H 0.68866 0.59213 0.72136 0.0
H738 H 0.76595 0.63532 0.80612 0.0
H739 H 0.71974 0.63271 0.77209 0.0
H740 H 0.95646 0.69089 0.67692 0.0
H741 H 0.90936 0.68448 0.64252 0.0
H742 H 0.95803 0.64361 0.72196 0.0
H743 H 0.94002 0.63839 0.7688 0.0
C744 C 0.19678 0.88354 0.21167 0.0
C745 C 0.15162 0.82865 0.20596 0.0
C746 C 0.13568 0.81687 0.27264 0.0
C747 C 0.18361 0.86952 0.27856 0.0
N748 N 0.26581 0.94915 0.25473 0.0
N749 N 0.08809 0.73826 0.23139 0.0
C750 C 0.21639 0.90152 0.24835 0.0
C751 C 0.12397 0.79383 0.23657 0.0
N752 N 0.21846 0.91972 0.18257 0.0
N753 N 0.10018 0.78955 0.30121 0.0
H754 H 0.08018 0.71923 0.2054 0.0
H755 H 0.07096 0.71015 0.25324 0.0
H756 H 0.1085 0.80354 0.32858 0.0
H757 H 0.06107 0.75451 0.29729 0.0
H758 H 0.24728 0.96181 0.18583 0.0
H759 H 0.20382 0.90928 0.15543 0.0
H760 H 0.29419 0.9713 0.2338 0.0
H761 H 0.28053 0.96383 0.2814 0.0
C762 C 0.35094 0.1495 0.77474 0.0
C763 C 0.34048 0.1942 0.7814 0.0
C764 C 0.33658 0.2077 0.71477 0.0
C765 C 0.35085 0.16554 0.70813 0.0
N766 N 0.38583 0.1068 0.73166 0.0
N767 N 0.33764 0.27471 0.75845 0.0
C768 C 0.36265 0.1398 0.73812 0.0
C769 C 0.33801 0.22625 0.75158 0.0
N770 N 0.34625 0.11408 0.80277 0.0
N771 N 0.31801 0.22745 0.68649 0.0
H772 H 0.33944 0.28983 0.78523 0.0
H773 H 0.34133 0.30248 0.73761 0.0
H774 H 0.31383 0.21351 0.65923 0.0
H775 H 0.30141 0.2537 0.69073 0.0
H776 H 0.34745 0.07742 0.79835 0.0
H777 H 0.33597 0.1183 0.82992 0.0
H778 H 0.40024 0.09134 0.7528 0.0
H779 H 0.39594 0.09969 0.7051 0.0
C780 C 0.22951 0.22642 0.98727 0.0
C781 C 0.28517 0.25693 0.97435 0.0
C782 C 0.30641 0.32747 0.02224 0.0
C783 C 0.24922 0.29936 0.0326 0.0
N784 N 0.15425 0.22983 0.01943 0.0
N785 N 0.37518 0.34053 0.97564 0.0
C786 C 0.21009 0.25108 0.01344 0.0
C787 C 0.3235 0.30852 0.99087 0.0
N788 N 0.19583 0.17309 0.97541 0.0
N789 N 0.34431 0.37211 0.04242 0.0
H790 H 0.38945 0.32775 0.95298 0.0
H791 H 0.40252 0.38131 0.98377 0.0
H792 H 0.33264 0.38926 0.06398 0.0
H793 H 0.38738 0.39027 0.03912 0.0
H794 H 0.15656 0.14682 0.98661 0.0
H795 H 0.20981 0.15334 0.95716 0.0
H796 H 0.12349 0.19706 0.00408 0.0
H797 H 0.13871 0.24811 0.03772 0.0
C798 C 0.98771 0.32061 0.47364 0.0
C799 C 0.03179 0.30881 0.46785 0.0
C800 C 0.98511 0.22738 0.5082 0.0
C801 C 0.94697 0.24513 0.51921 0.0
N802 N 0.91182 0.30924 0.513 0.0
N803 N 0.07435 0.25219 0.48017 0.0
C804 C 0.9477 0.2915 0.50173 0.0
C805 C 0.03078 0.26213 0.48498 0.0
N806 N 0.98299 0.35825 0.45142 0.0
N807 N 0.97645 0.17645 0.51927 0.0
H808 H 0.10843 0.27663 0.46318 0.0
H809 H 0.07885 0.22231 0.49504 0.0
H810 H 0.94152 0.14924 0.5347 0.0
H811 H 0.00012 0.15887 0.51009 0.0
H812 H 0.94849 0.36425 0.45168 0.0
H813 H 0.01102 0.37987 0.43016 0.0
H814 H 0.91509 0.34692 0.50488 0.0
H815 H 0.88051 0.28758 0.53229 0.0
C816 C 0.65887 0.98295 0.03604 0.0
C817 C 0.68305 0.94884 0.04333 0.0
C818 C 0.74974 -0.00572 0.99294 0.0
C819 C 0.72067 0.02252 0.98238 0.0
N820 N 0.64371 0.03973 0.99131 0.0
N821 N 0.74724 0.91701 0.02626 0.0
C822 C 0.67444 0.01625 0.00343 0.0
C823 C 0.72721 0.95296 0.02099 0.0
N824 N 0.62123 0.98371 0.06035 0.0
N825 N 0.79993 0.00839 0.97688 0.0
H826 H 0.73135 0.88577 0.04625 0.0
H827 H 0.77628 0.91503 0.00885 0.0
H828 H 0.81792 0.0392 0.95662 0.0
H829 H 0.82641 -0.0058 0.98647 0.0
H830 H 0.60707 0.01234 0.05882 0.0
H831 H 0.60667 0.95789 0.08354 0.0
H832 H 0.60577 0.03127 0.00301 0.0
H833 H 0.6542 0.06479 0.9678 0.0
C834 C 0.74666 0.68023 0.47525 0.0
C835 C 0.74839 0.6808 0.51452 0.0
C836 C 0.69863 0.73368 0.5161 0.0
C837 C 0.69271 0.729 0.47709 0.0
N838 N 0.69971 0.68674 0.42015 0.0
N839 N 0.71059 0.69265 0.5721 0.0
C840 C 0.71351 0.69911 0.45674 0.0
C841 C 0.72027 0.70339 0.53503 0.0
N842 N 0.77734 0.66238 0.45567 0.0
N843 N 0.68388 0.76722 0.53508 0.0
H844 H 0.72321 0.66825 0.58683 0.0
H845 H 0.68548 0.70364 0.58744 0.0
H846 H 0.66746 0.78973 0.52199 0.0
H847 H 0.69274 0.77648 0.56315 0.0
H848 H 0.78119 0.66505 0.42695 0.0
H849 H 0.80284 0.6491 0.46836 0.0
H850 H 0.70859 0.65993 0.40507 0.0
H851 H 0.67546 0.69968 0.40547 0.0
C852 C 0.9879 0.74513 0.96293 0.0
C853 C 0.96169 0.68802 0.95274 0.0
C854 C 0.0108 0.6709 0.0036 0.0
C855 C 0.03876 0.7286 0.01228 0.0
N856 N 0.05512 0.82137 -0.00021 0.0
N857 N 0.9552 0.59809 0.95927 0.0
C858 C 0.02824 0.76584 0.99147 0.0
C859 C 0.9749 0.65116 0.97205 0.0
N860 N 0.97438 0.78116 0.94639 0.0
N861 N 0.01735 0.63479 0.02624 0.0
H862 H 0.92855 0.582 0.93646 0.0
H863 H 0.96839 0.57121 0.96948 0.0
H864 H 0.04513 0.64805 0.04858 0.0
H865 H -0.00686 0.59169 0.02427 0.0
H866 H 0.94349 0.76975 0.92619 0.0
H867 H 0.94349 0.76975 0.92619 0.0
H868 H 0.04776 0.84993 0.98535 0.0
H869 H 0.08556 0.83901 0.02043 0.0
C870 C 0.23756 -0.00165 0.47054 0.0
C871 C 0.27952 -0.00586 0.45022 0.0
C872 C 0.35213 0.07115 0.48617 0.0
C873 C 0.30995 0.07388 0.50677 0.0
N874 N 0.21621 0.05829 0.50799 0.0
N875 N 0.37553 0.04093 0.42936 0.0
C876 C 0.25382 0.0438 0.49509 0.0
C877 C 0.33661 0.0352 0.45503 0.0
N878 N 0.18313 0.95697 0.46922 0.0
N879 N 0.40663 0.10148 0.49705 0.0
H880 H 0.36504 0.01772 0.40491 0.0
H881 H 0.4169 0.07295 0.43018 0.0
H882 H 0.41932 0.13072 0.51838 0.0
H883 H 0.43845 0.0959 0.48596 0.0
H884 H 0.15227 0.95661 0.48609 0.0
H885 H 0.1698 0.92017 0.45449 0.0
H886 H 0.1753 0.04042 0.49811 0.0
H887 H 0.22809 0.09195 0.52597 0.0
loop_
_geom_bond_atom_site_label_1
_geom_bond_atom_site_label_2
_geom_bond_distance
_geom_bond_site_symmetry_2
_ccdc_geom_bond_type
Zn0 O6 1.969 . S
Zn0 O7 1.965 . S
Zn0 O11 2.024 . S
Zn0 O16 1.969 . S
Zn1 O8 1.969 . S
Zn1 O14 1.969 . S
Zn1 O15 1.965 . S
Zn1 O17 2.024 . S
C2 O3 1.229 . S
C2 O11 1.058 . S
O3 C2 1.229 . S
C4 O5 1.229 . S
C4 O17 1.058 . S
O5 C4 1.229 . S
O6 Zn0 1.969 . S
O6 C9 1.267 . S
O7 Zn0 1.965 . S
O7 C18 1.260 . S
O8 Zn1 1.969 . S
O8 C18 1.258 . S
C9 O6 1.267 . S
C9 O10 1.228 . S
O10 C9 1.228 . S
O11 Zn0 2.024 . S
O11 C2 1.058 . S
C12 O13 1.228 . S
C12 O14 1.267 . S
O13 C12 1.228 . S
O14 Zn1 1.969 . S
O14 C12 1.267 . S
O15 Zn1 1.965 . S
O15 C19 1.260 . S
O16 Zn0 1.969 . S
O16 C19 1.258 . S
O17 Zn1 2.024 . S
O17 C4 1.058 . S
C18 O7 1.260 . S
C18 O8 1.258 . S
C19 O15 1.260 . S
C19 O16 1.258 . S
Zn20 O26 1.969 . S
Zn20 O27 1.965 . S
Zn20 O31 2.024 . S
Zn20 O36 1.969 . S
Zn21 O28 1.969 . S
Zn21 O34 1.969 . S
Zn21 O35 1.965 . S
Zn21 O37 2.024 . S
C22 O23 1.229 . S
C22 O31 1.058 . S
O23 C22 1.229 . S
C24 O25 1.229 . S
C24 O37 1.058 . S
O25 C24 1.229 . S
O26 Zn20 1.969 . S
O26 C29 1.267 1_655 S
O27 Zn20 1.965 . S
O27 C38 1.260 . S
O28 Zn21 1.969 . S
O28 C38 1.258 . S
C29 O26 1.267 1_455 S
C29 O30 1.228 . S
O30 C29 1.228 . S
O31 Zn20 2.024 . S
O31 C22 1.058 . S
C32 O33 1.228 . S
C32 O34 1.267 . S
O33 C32 1.228 . S
O34 Zn21 1.969 . S
O34 C32 1.267 . S
O35 Zn21 1.965 . S
O35 C39 1.260 . S
O36 Zn20 1.969 . S
O36 C39 1.258 . S
O37 Zn21 2.024 . S
O37 C24 1.058 . S
C38 O27 1.260 . S
C38 O28 1.258 . S
C39 O35 1.260 . S
C39 O36 1.258 . S
Zn40 O46 1.969 . S
Zn40 O47 1.965 . S
Zn40 O51 2.024 . S
Zn40 O56 1.969 . S
Zn41 O48 1.969 . S
Zn41 O54 1.969 . S
Zn41 O55 1.965 . S
Zn41 O57 2.024 . S
C42 O43 1.229 . S
C42 O51 1.058 . S
O43 C42 1.229 . S
C44 O45 1.229 . S
C44 O57 1.058 . S
O45 C44 1.229 . S
O46 Zn40 1.969 . S
O46 C49 1.267 1_565 S
O47 Zn40 1.965 . S
O47 C58 1.260 . S
O48 Zn41 1.969 . S
O48 C58 1.258 . S
C49 O46 1.267 1_545 S
C49 O50 1.228 . S
O50 C49 1.228 . S
O51 Zn40 2.024 . S
O51 C42 1.058 . S
C52 O53 1.228 . S
C52 O54 1.267 . S
O53 C52 1.228 . S
O54 Zn41 1.969 . S
O54 C52 1.267 . S
O55 Zn41 1.965 . S
O55 C59 1.260 . S
O56 Zn40 1.969 . S
O56 C59 1.258 . S
O57 Zn41 2.024 . S
O57 C44 1.058 . S
C58 O47 1.260 . S
C58 O48 1.258 . S
C59 O55 1.260 . S
C59 O56 1.258 . S
Zn60 O66 1.969 . S
Zn60 O67 1.965 . S
Zn60 O71 2.024 . S
Zn60 O76 1.969 . S
Zn61 O68 1.969 . S
Zn61 O74 1.969 . S
Zn61 O75 1.965 . S
Zn61 O77 2.024 . S
C62 O63 1.229 . S
C62 O71 1.058 . S
O63 C62 1.229 . S
C64 O65 1.229 . S
C64 O77 1.058 . S
O65 C64 1.229 . S
O66 Zn60 1.969 . S
O66 C69 1.267 . S
O67 Zn60 1.965 . S
O67 C78 1.260 . S
O68 Zn61 1.969 . S
O68 C78 1.258 . S
C69 O66 1.267 . S
C69 O70 1.228 . S
O70 C69 1.228 . S
O71 Zn60 2.024 . S
O71 C62 1.058 . S
C72 O73 1.228 . S
C72 O74 1.267 . S
O73 C72 1.228 . S
O74 Zn61 1.969 . S
O74 C72 1.267 . S
O75 Zn61 1.965 . S
O75 C79 1.260 . S
O76 Zn60 1.969 . S
O76 C79 1.258 . S
O77 Zn61 2.024 . S
O77 C64 1.058 . S
C78 O67 1.260 . S
C78 O68 1.258 . S
C79 O75 1.260 . S
C79 O76 1.258 . S
Zn80 O86 1.969 . S
Zn80 O87 1.965 . S
Zn80 O91 2.024 . S
Zn80 O96 1.969 . S
Zn81 O88 1.969 . S
Zn81 O94 1.969 . S
Zn81 O95 1.965 . S
Zn81 O97 2.024 . S
C82 O83 1.229 . S
C82 O91 1.058 . S
O83 C82 1.229 . S
C84 O85 1.229 . S
C84 O97 1.058 . S
O85 C84 1.229 . S
O86 Zn80 1.969 . S
O86 C89 1.267 1_455 S
O87 Zn80 1.965 . S
O87 C98 1.260 . S
O88 Zn81 1.969 . S
O88 C98 1.258 . S
C89 O86 1.267 1_655 S
C89 O90 1.228 . S
O90 C89 1.228 . S
O91 Zn80 2.024 . S
O91 C82 1.058 . S
C92 O93 1.228 . S
C92 O94 1.267 . S
O93 C92 1.228 . S
O94 Zn81 1.969 . S
O94 C92 1.267 . S
O95 Zn81 1.965 . S
O95 C99 1.260 . S
O96 Zn80 1.969 . S
O96 C99 1.258 . S
O97 Zn81 2.024 . S
O97 C84 1.058 . S
C98 O87 1.260 . S
C98 O88 1.258 . S
C99 O95 1.260 . S
C99 O96 1.258 . S
Zn100 O106 1.969 . S
Zn100 O107 1.965 . S
Zn100 O111 2.024 . S
Zn100 O116 1.969 . S
Zn101 O108 1.969 . S
Zn101 O114 1.969 . S
Zn101 O115 1.965 . S
Zn101 O117 2.024 . S
C102 O103 1.229 . S
C102 O111 1.058 . S
O103 C102 1.229 . S
C104 O105 1.229 . S
C104 O117 1.058 . S
O105 C104 1.229 . S
O106 Zn100 1.969 . S
O106 C109 1.267 1_545 S
O107 Zn100 1.965 . S
O107 C118 1.260 . S
O108 Zn101 1.969 . S
O108 C118 1.258 . S
C109 O106 1.267 1_565 S
C109 O110 1.228 . S
O110 C109 1.228 . S
O111 Zn100 2.024 . S
O111 C102 1.058 . S
C112 O113 1.228 . S
C112 O114 1.267 . S
O113 C112 1.228 . S
O114 Zn101 1.969 . S
O114 C112 1.267 . S
O115 Zn101 1.965 . S
O115 C119 1.260 . S
O116 Zn100 1.969 . S
O116 C119 1.258 . S
O117 Zn101 2.024 . S
O117 C104 1.058 . S
C118 O107 1.260 . S
C118 O108 1.258 . S
C119 O115 1.260 . S
C119 O116 1.258 . S
Zn120 O126 1.969 . S
Zn120 O127 1.965 . S
Zn120 O131 2.024 . S
Zn120 O136 1.969 . S
Zn121 O128 1.969 . S
Zn121 O134 1.969 . S
Zn121 O135 1.965 . S
Zn121 O137 2.024 . S
C122 O123 1.229 . S
C122 O131 1.058 . S
O123 C122 1.229 . S
C124 O125 1.229 . S
C124 O137 1.058 . S
O125 C124 1.229 . S
O126 Zn120 1.969 . S
O126 C129 1.267 . S
O127 Zn120 1.965 . S
O127 C138 1.260 . S
O128 Zn121 1.969 . S
O128 C138 1.258 . S
C129 O126 1.267 . S
C129 O130 1.228 . S
O130 C129 1.228 . S
O131 Zn120 2.024 . S
O131 C122 1.058 . S
C132 O133 1.228 . S
C132 O134 1.267 . S
O133 C132 1.228 . S
O134 Zn121 1.969 . S
O134 C132 1.267 . S
O135 Zn121 1.965 . S
O135 C139 1.260 . S
O136 Zn120 1.969 . S
O136 C139 1.258 . S
O137 Zn121 2.024 . S
O137 C124 1.058 . S
C138 O127 1.260 . S
C138 O128 1.258 . S
C139 O135 1.260 . S
C139 O136 1.258 . S
Zn140 O146 1.969 . S
Zn140 O147 1.965 . S
Zn140 O151 2.024 . S
Zn140 O156 1.969 . S
Zn141 O148 1.969 . S
Zn141 O154 1.969 . S
Zn141 O155 1.965 . S
Zn141 O157 2.024 . S
C142 O143 1.229 . S
C142 O151 1.058 . S
O143 C142 1.229 . S
C144 O145 1.229 . S
C144 O157 1.058 . S
O145 C144 1.229 . S
O146 Zn140 1.969 . S
O146 C149 1.267 1_655 S
O147 Zn140 1.965 . S
O147 C158 1.260 . S
O148 Zn141 1.969 . S
O148 C158 1.258 . S
C149 O146 1.267 1_455 S
C149 O150 1.228 . S
O150 C149 1.228 . S
O151 Zn140 2.024 . S
O151 C142 1.058 . S
C152 O153 1.228 . S
C152 O154 1.267 . S
O153 C152 1.228 . S
O154 Zn141 1.969 . S
O154 C152 1.267 . S
O155 Zn141 1.965 . S
O155 C159 1.260 . S
O156 Zn140 1.969 . S
O156 C159 1.258 . S
O157 Zn141 2.024 . S
O157 C144 1.058 . S
C158 O147 1.260 . S
C158 O148 1.258 . S
C159 O155 1.260 . S
C159 O156 1.258 . S
Zn160 O166 1.969 . S
Zn160 O167 1.965 . S
Zn160 O171 2.024 . S
Zn160 O176 1.969 . S
Zn161 O168 1.969 . S
Zn161 O174 1.969 . S
Zn161 O175 1.965 . S
Zn161 O177 2.024 . S
C162 O163 1.229 . S
C162 O171 1.058 . S
O163 C162 1.229 . S
C164 O165 1.229 . S
C164 O177 1.058 . S
O165 C164 1.229 . S
O166 Zn160 1.969 . S
O166 C169 1.267 1_565 S
O167 Zn160 1.965 . S
O167 C178 1.260 . S
O168 Zn161 1.969 . S
O168 C178 1.258 . S
C169 O166 1.267 1_545 S
C169 O170 1.228 . S
O170 C169 1.228 . S
O171 Zn160 2.024 . S
O171 C162 1.058 . S
C172 O173 1.228 . S
C172 O174 1.267 . S
O173 C172 1.228 . S
O174 Zn161 1.969 . S
O174 C172 1.267 . S
O175 Zn161 1.965 . S
O175 C179 1.260 . S
O176 Zn160 1.969 . S
O176 C179 1.258 . S
O177 Zn161 2.024 . S
O177 C164 1.058 . S
C178 O167 1.260 . S
C178 O168 1.258 . S
C179 O175 1.260 . S
C179 O176 1.258 . S
Zn180 O186 1.969 . S
Zn180 O187 1.965 . S
Zn180 O191 2.024 . S
Zn180 O196 1.969 . S
Zn181 O188 1.969 . S
Zn181 O194 1.969 . S
Zn181 O195 1.965 . S
Zn181 O197 2.024 . S
C182 O183 1.229 . S
C182 O191 1.058 . S
O183 C182 1.229 . S
C184 O185 1.229 . S
C184 O197 1.058 . S
O185 C184 1.229 . S
O186 Zn180 1.969 . S
O186 C189 1.267 . S
O187 Zn180 1.965 . S
O187 C198 1.260 . S
O188 Zn181 1.969 . S
O188 C198 1.258 . S
C189 O186 1.267 . S
C189 O190 1.228 . S
O190 C189 1.228 . S
O191 Zn180 2.024 . S
O191 C182 1.058 . S
C192 O193 1.228 . S
C192 O194 1.267 . S
O193 C192 1.228 . S
O194 Zn181 1.969 . S
O194 C192 1.267 . S
O195 Zn181 1.965 . S
O195 C199 1.260 . S
O196 Zn180 1.969 . S
O196 C199 1.258 . S
O197 Zn181 2.024 . S
O197 C184 1.058 . S
C198 O187 1.260 . S
C198 O188 1.258 . S
C199 O195 1.260 . S
C199 O196 1.258 . S
Zn200 O206 1.969 . S
Zn200 O207 1.965 . S
Zn200 O211 2.024 . S
Zn200 O216 1.969 . S
Zn201 O208 1.969 . S
Zn201 O214 1.969 . S
Zn201 O215 1.965 . S
Zn201 O217 2.024 . S
C202 O203 1.229 . S
C202 O211 1.058 . S
O203 C202 1.229 . S
C204 O205 1.229 . S
C204 O217 1.058 . S
O205 C204 1.229 . S
O206 Zn200 1.969 . S
O206 C209 1.267 1_455 S
O207 Zn200 1.965 . S
O207 C218 1.260 . S
O208 Zn201 1.969 . S
O208 C218 1.258 . S
C209 O206 1.267 1_655 S
C209 O210 1.228 . S
O210 C209 1.228 . S
O211 Zn200 2.024 . S
O211 C202 1.058 . S
C212 O213 1.228 . S
C212 O214 1.267 . S
O213 C212 1.228 . S
O214 Zn201 1.969 . S
O214 C212 1.267 . S
O215 Zn201 1.965 . S
O215 C219 1.260 . S
O216 Zn200 1.969 . S
O216 C219 1.258 . S
O217 Zn201 2.024 . S
O217 C204 1.058 . S
C218 O207 1.260 . S
C218 O208 1.258 . S
C219 O215 1.260 . S
C219 O216 1.258 . S
Zn220 O226 1.969 . S
Zn220 O227 1.965 . S
Zn220 O231 2.024 . S
Zn220 O236 1.969 . S
Zn221 O228 1.969 . S
Zn221 O234 1.969 . S
Zn221 O235 1.965 . S
Zn221 O237 2.024 . S
C222 O223 1.229 . S
C222 O231 1.058 . S
O223 C222 1.229 . S
C224 O225 1.229 . S
C224 O237 1.058 . S
O225 C224 1.229 . S
O226 Zn220 1.969 . S
O226 C229 1.267 1_545 S
O227 Zn220 1.965 . S
O227 C238 1.260 . S
O228 Zn221 1.969 . S
O228 C238 1.258 . S
C229 O226 1.267 1_565 S
C229 O230 1.228 . S
O230 C229 1.228 . S
O231 Zn220 2.024 . S
O231 C222 1.058 . S
C232 O233 1.228 . S
C232 O234 1.267 . S
O233 C232 1.228 . S
O234 Zn221 1.969 . S
O234 C232 1.267 . S
O235 Zn221 1.965 . S
O235 C239 1.260 . S
O236 Zn220 1.969 . S
O236 C239 1.258 . S
O237 Zn221 2.024 . S
O237 C224 1.058 . S
C238 O227 1.260 . S
C238 O228 1.258 . S
C239 O235 1.260 . S
C239 O236 1.258 . S
C240 C241 1.363 . S
C240 C246 1.379 . S
C240 N248 1.356 . S
C241 C240 1.363 . S
C241 C247 1.363 . S
C242 C243 1.363 . S
C242 C247 1.379 . S
C242 N249 1.356 . S
C243 C242 1.363 . S
C243 C246 1.363 . S
N244 C246 1.356 . S
N244 H256 0.984 . S
N244 H257 0.985 . S
N245 C247 1.356 1_565 S
N245 H250 0.984 . S
N245 H251 0.985 . S
C246 C240 1.379 . S
C246 C243 1.363 . S
C246 N244 1.356 . S
C247 C241 1.363 . S
C247 C242 1.379 . S
C247 N245 1.356 1_545 S
N248 C240 1.356 . S
N248 H254 0.984 . S
N248 H255 0.984 1_545 S
N249 C242 1.356 . S
N249 H252 0.984 . S
N249 H253 0.985 . S
H250 N245 0.984 . S
H251 N245 0.985 . S
H252 N249 0.984 . S
H253 N249 0.985 . S
H254 N248 0.984 . S
H255 N248 0.984 1_565 S
H256 N244 0.984 . S
H257 N244 0.985 . S
C258 C259 1.363 . S
C258 C264 1.379 . S
C258 N266 1.356 . S
C259 C258 1.363 . S
C259 C265 1.363 . S
C260 C261 1.363 . S
C260 C265 1.379 . S
C260 N267 1.356 . S
C261 C260 1.363 . S
C261 C264 1.363 . S
N262 C264 1.356 . S
N262 H274 0.984 . S
N262 H275 0.985 1_455 S
N263 C265 1.356 . S
N263 H268 0.984 . S
N263 H269 0.985 . S
C264 C258 1.379 . S
C264 C261 1.363 . S
C264 N262 1.356 . S
C265 C259 1.363 . S
C265 C260 1.379 . S
C265 N263 1.356 . S
N266 C258 1.356 . S
N266 H272 0.984 . S
N266 H273 0.984 . S
N267 C260 1.356 . S
N267 H270 0.984 . S
N267 H271 0.985 . S
H268 N263 0.984 . S
H269 N263 0.985 . S
H270 N267 0.984 . S
H271 N267 0.985 . S
H272 N266 0.984 . S
H273 N266 0.984 . S
H274 N262 0.984 . S
H275 N262 0.985 1_655 S
C276 C277 1.363 . S
C276 C282 1.379 . S
C276 N284 1.357 1_545 S
C277 C276 1.363 . S
C277 C283 1.363 . S
C278 C279 1.363 . S
C278 C283 1.379 . S
C278 N285 1.356 . S
C279 C278 1.363 . S
C279 C282 1.363 . S
N280 C282 1.356 1_455 S
N280 H292 0.984 . S
N280 H293 0.985 . S
N281 C283 1.356 . S
N281 H286 0.984 . S
N281 H287 0.985 . S
C282 C276 1.379 . S
C282 C279 1.363 . S
C282 N280 1.356 1_655 S
C283 C277 1.363 . S
C283 C278 1.379 . S
C283 N281 1.356 . S
N284 C276 1.357 1_565 S
N284 H290 0.983 . S
N284 H291 0.985 . S
N285 C278 1.356 . S
N285 H288 0.984 1_655 S
N285 H289 0.985 . S
H286 N281 0.984 . S
H287 N281 0.985 . S
H288 N285 0.984 1_455 S
H289 N285 0.985 . S
H290 N284 0.983 . S
H291 N284 0.985 . S
H292 N280 0.984 . S
H293 N280 0.985 . S
C294 C295 1.363 . S
C294 C300 1.379 . S
C294 N302 1.356 . S
C295 C294 1.363 . S
C295 C301 1.363 . S
C296 C297 1.363 . S
C296 C301 1.379 . S
C296 N303 1.356 1_565 S
C297 C296 1.363 . S
C297 C300 1.363 . S
N298 C300 1.356 1_545 S
N298 H310 0.984 . S
N298 H311 0.985 . S
N299 C301 1.356 . S
N299 H304 0.984 . S
N299 H305 0.985 . S
C300 C294 1.379 . S
C300 C297 1.363 . S
C300 N298 1.356 1_565 S
C301 C295 1.363 . S
C301 C296 1.379 . S
C301 N299 1.356 . S
N302 C294 1.356 . S
N302 H308 0.984 . S
N302 H309 0.984 . S
N303 C296 1.356 1_545 S
N303 H306 0.984 . S
N303 H307 0.985 1_545 S
H304 N299 0.984 . S
H305 N299 0.985 . S
H306 N303 0.984 . S
H307 N303 0.985 1_565 S
H308 N302 0.984 . S
H309 N302 0.984 . S
H310 N298 0.984 . S
H311 N298 0.985 . S
C312 C313 1.363 . S
C312 C318 1.379 . S
C312 N320 1.356 . S
C313 C312 1.363 . S
C313 C319 1.363 . S
C314 C315 1.363 . S
C314 C319 1.379 . S
C314 N321 1.356 . S
C315 C314 1.363 . S
C315 C318 1.363 . S
N316 C318 1.356 . S
N316 H328 0.984 . S
N316 H329 0.985 . S
N317 C319 1.356 . S
N317 H322 0.984 . S
N317 H323 0.985 . S
C318 C312 1.379 . S
C318 C315 1.363 . S
C318 N316 1.356 . S
C319 C313 1.363 . S
C319 C314 1.379 . S
C319 N317 1.356 . S
N320 C312 1.356 . S
N320 H326 0.984 . S
N320 H327 0.984 . S
N321 C314 1.356 . S
N321 H324 0.984 . S
N321 H325 0.985 . S
H322 N317 0.984 . S
H323 N317 0.985 . S
H324 N321 0.984 . S
H325 N321 0.985 . S
H326 N320 0.984 . S
H327 N320 0.984 . S
H328 N316 0.984 . S
H329 N316 0.985 . S
C330 C331 1.363 . S
C330 C336 1.379 . S
C330 N338 1.356 . S
C331 C330 1.363 . S
C331 C337 1.363 . S
C332 C333 1.363 . S
C332 C337 1.379 . S
C332 N339 1.356 . S
C333 C332 1.363 . S
C333 C336 1.363 . S
N334 C336 1.356 . S
N334 H346 0.984 . S
N334 H347 0.985 . S
N335 C337 1.356 1_655 S
N335 H340 0.984 . S
N335 H341 0.985 . S
C336 C330 1.379 . S
C336 C333 1.363 . S
C336 N334 1.356 . S
C337 C331 1.363 . S
C337 C332 1.379 . S
C337 N335 1.356 1_455 S
N338 C330 1.356 . S
N338 H344 0.984 . S
N338 H345 0.984 1_455 S
N339 C332 1.356 . S
N339 H342 0.984 . S
N339 H343 0.985 . S
H340 N335 0.984 . S
H341 N335 0.985 . S
H342 N339 0.984 . S
H343 N339 0.985 . S
H344 N338 0.984 . S
H345 N338 0.984 1_655 S
H346 N334 0.984 . S
H347 N334 0.985 . S
C348 C349 1.363 . S
C348 C354 1.379 . S
C348 N356 1.356 . S
C349 C348 1.363 . S
C349 C355 1.363 . S
C350 C351 1.363 . S
C350 C355 1.379 . S
C350 N357 1.356 . S
C351 C350 1.363 . S
C351 C354 1.363 . S
N352 C354 1.356 . S
N352 H364 0.984 . S
N352 H365 0.985 . S
N353 C355 1.356 1_455 S
N353 H358 0.984 . S
N353 H359 0.985 . S
C354 C348 1.379 . S
C354 C351 1.363 . S
C354 N352 1.356 . S
C355 C349 1.363 . S
C355 C350 1.379 . S
C355 N353 1.356 1_655 S
N356 C348 1.356 . S
N356 H362 0.984 . S
N356 H363 0.984 1_655 S
N357 C350 1.356 . S
N357 H360 0.984 . S
N357 H361 0.985 . S
H358 N353 0.984 . S
H359 N353 0.985 . S
H360 N357 0.984 . S
H361 N357 0.985 . S
H362 N356 0.984 . S
H363 N356 0.984 1_455 S
H364 N352 0.984 . S
H365 N352 0.985 . S
C366 C367 1.363 . S
C366 C372 1.379 . S
C366 N374 1.356 . S
C367 C366 1.363 . S
C367 C373 1.363 . S
C368 C369 1.363 . S
C368 C373 1.379 . S
C368 N375 1.356 . S
C369 C368 1.363 . S
C369 C372 1.363 . S
N370 C372 1.356 1_545 S
N370 H382 0.984 . S
N370 H383 0.985 . S
N371 C373 1.356 . S
N371 H376 0.984 . S
N371 H377 0.985 . S
C372 C366 1.379 . S
C372 C369 1.363 . S
C372 N370 1.356 1_565 S
C373 C367 1.363 . S
C373 C368 1.379 . S
C373 N371 1.356 . S
N374 C366 1.356 . S
N374 H380 0.984 . S
N374 H381 0.984 . S
N375 C368 1.356 . S
N375 H378 0.984 1_565 S
N375 H379 0.985 . S
H376 N371 0.984 . S
H377 N371 0.985 . S
H378 N375 0.984 1_545 S
H379 N375 0.985 . S
H380 N374 0.984 . S
H381 N374 0.984 . S
H382 N370 0.984 . S
H383 N370 0.985 . S
C384 C385 1.363 . S
C384 C390 1.379 . S
C384 N392 1.356 . S
C385 C384 1.363 . S
C385 C391 1.363 . S
C386 C387 1.363 . S
C386 C391 1.379 . S
C386 N393 1.356 . S
C387 C386 1.363 . S
C387 C390 1.363 . S
N388 C390 1.356 . S
N388 H400 0.984 1_545 S
N388 H401 0.985 1_545 S
N389 C391 1.356 . S
N389 H394 0.984 . S
N389 H395 0.985 . S
C390 C384 1.379 . S
C390 C387 1.363 . S
C390 N388 1.356 . S
C391 C385 1.363 . S
C391 C386 1.379 . S
C391 N389 1.356 . S
N392 C384 1.356 . S
N392 H398 0.984 . S
N392 H399 0.984 . S
N393 C386 1.356 . S
N393 H396 0.984 . S
N393 H397 0.985 . S
H394 N389 0.984 . S
H395 N389 0.985 . S
H396 N393 0.984 . S
H397 N393 0.985 . S
H398 N392 0.984 . S
H399 N392 0.984 . S
H400 N388 0.984 1_565 S
H401 N388 0.985 1_565 S
C402 C403 1.363 . S
C402 C408 1.379 . S
C402 N410 1.356 . S
C403 C402 1.363 . S
C403 C409 1.363 . S
C404 C405 1.363 . S
C404 C409 1.379 . S
C404 N411 1.356 . S
C405 C404 1.363 . S
C405 C408 1.363 . S
N406 C408 1.356 1_655 S
N406 H418 0.984 . S
N406 H419 0.985 . S
N407 C409 1.356 . S
N407 H412 0.984 . S
N407 H413 0.985 . S
C408 C402 1.379 . S
C408 C405 1.363 . S
C408 N406 1.356 1_455 S
C409 C403 1.363 . S
C409 C404 1.379 . S
C409 N407 1.356 . S
N410 C402 1.356 . S
N410 H416 0.984 . S
N410 H417 0.984 . S
N411 C404 1.356 . S
N411 H414 0.984 1_455 S
N411 H415 0.985 . S
H412 N407 0.984 . S
H413 N407 0.985 . S
H414 N411 0.984 1_655 S
H415 N411 0.985 . S
H416 N410 0.984 . S
H417 N410 0.984 . S
H418 N406 0.984 . S
H419 N406 0.985 . S
C420 C421 1.363 . S
C420 C426 1.379 . S
C420 N428 1.356 . S
C421 C420 1.363 . S
C421 C427 1.363 . S
C422 C423 1.363 . S
C422 C427 1.379 . S
C422 N429 1.356 1_545 S
C423 C422 1.363 . S
C423 C426 1.363 . S
N424 C426 1.356 1_565 S
N424 H436 0.984 1_565 S
N424 H437 0.985 . S
N425 C427 1.356 . S
N425 H430 0.984 . S
N425 H431 0.985 . S
C426 C420 1.379 . S
C426 C423 1.363 . S
C426 N424 1.356 1_545 S
C427 C421 1.363 . S
C427 C422 1.379 . S
C427 N425 1.356 . S
N428 C420 1.356 . S
N428 H434 0.984 . S
N428 H435 0.984 1_655 S
N429 C422 1.356 1_565 S
N429 H432 0.984 . S
N429 H433 0.985 . S
H430 N425 0.984 . S
H431 N425 0.985 . S
H432 N429 0.984 . S
H433 N429 0.985 . S
H434 N428 0.984 . S
H435 N428 0.984 1_455 S
H436 N424 0.984 1_545 S
H437 N424 0.985 . S
C438 C439 1.363 . S
C438 C444 1.379 . S
C438 N446 1.356 . S
C439 C438 1.363 . S
C439 C445 1.363 . S
C440 C441 1.363 . S
C440 C445 1.379 . S
C440 N447 1.356 . S
C441 C440 1.363 . S
C441 C444 1.363 . S
N442 C444 1.356 . S
N442 H454 0.984 . S
N442 H455 0.985 . S
N443 C445 1.356 . S
N443 H448 0.984 . S
N443 H449 0.985 . S
C444 C438 1.379 . S
C444 C441 1.363 . S
C444 N442 1.356 . S
C445 C439 1.363 . S
C445 C440 1.379 . S
C445 N443 1.356 . S
N446 C438 1.356 . S
N446 H452 0.984 . S
N446 H453 0.984 . S
N447 C440 1.356 . S
N447 H450 0.984 . S
N447 H451 0.985 . S
H448 N443 0.984 . S
H449 N443 0.985 . S
H450 N447 0.984 . S
H451 N447 0.985 . S
H452 N446 0.984 . S
H453 N446 0.984 . S
H454 N442 0.984 . S
H455 N442 0.985 . S
C456 C457 1.363 . S
C456 C462 1.379 . S
C456 N464 1.356 . S
C457 C456 1.363 . S
C457 C463 1.363 . S
C458 C459 1.363 . S
C458 C463 1.379 . S
C458 N465 1.356 . S
C459 C458 1.363 . S
C459 C462 1.363 . S
N460 C462 1.356 . S
N460 H472 0.984 . S
N460 H473 0.985 . S
N461 C463 1.356 . S
N461 H466 0.984 . S
N461 H467 0.985 . S
C462 C456 1.379 . S
C462 C459 1.363 . S
C462 N460 1.356 . S
C463 C457 1.363 . S
C463 C458 1.379 . S
C463 N461 1.356 . S
N464 C456 1.356 . S
N464 H470 0.984 . S
N464 H471 0.984 . S
N465 C458 1.356 . S
N465 H468 0.984 . S
N465 H469 0.985 . S
H466 N461 0.984 . S
H467 N461 0.985 . S
H468 N465 0.984 . S
H469 N465 0.985 . S
H470 N464 0.984 . S
H471 N464 0.984 . S
H472 N460 0.984 . S
H473 N460 0.985 . S
C474 C475 1.363 . S
C474 C480 1.379 . S
C474 N482 1.356 . S
C475 C474 1.363 . S
C475 C481 1.363 . S
C476 C477 1.363 . S
C476 C481 1.379 . S
C476 N483 1.356 . S
C477 C476 1.363 . S
C477 C480 1.363 . S
N478 C480 1.356 . S
N478 H490 0.984 . S
N478 H491 0.985 . S
N479 C481 1.356 . S
N479 H484 0.984 . S
N479 H485 0.985 . S
C480 C474 1.379 . S
C480 C477 1.363 . S
C480 N478 1.356 . S
C481 C475 1.363 . S
C481 C476 1.379 . S
C481 N479 1.356 . S
N482 C474 1.356 . S
N482 H488 0.984 . S
N482 H489 0.984 . S
N483 C476 1.356 . S
N483 H486 0.984 . S
N483 H487 0.985 . S
H484 N479 0.984 . S
H485 N479 0.985 . S
H486 N483 0.984 . S
H487 N483 0.985 . S
H488 N482 0.984 . S
H489 N482 0.984 . S
H490 N478 0.984 . S
H491 N478 0.985 . S
C492 C493 1.363 . S
C492 C498 1.379 . S
C492 N500 1.356 . S
C493 C492 1.363 . S
C493 C499 1.363 . S
C494 C495 1.363 . S
C494 C499 1.379 . S
C494 N501 1.356 . S
C495 C494 1.363 . S
C495 C498 1.363 . S
N496 C498 1.356 . S
N496 H508 0.984 . S
N496 H509 0.985 . S
N497 C499 1.356 . S
N497 H502 0.984 . S
N497 H503 0.985 . S
C498 C492 1.379 . S
C498 C495 1.363 . S
C498 N496 1.356 . S
C499 C493 1.363 . S
C499 C494 1.379 . S
C499 N497 1.356 . S
N500 C492 1.356 . S
N500 H506 0.984 . S
N500 H507 0.984 . S
N501 C494 1.356 . S
N501 H504 0.984 . S
N501 H505 0.985 . S
H502 N497 0.984 . S
H503 N497 0.985 . S
H504 N501 0.984 . S
H505 N501 0.985 . S
H506 N500 0.984 . S
H507 N500 0.984 . S
H508 N496 0.984 . S
H509 N496 0.985 . S
C510 C511 1.363 . S
C510 C516 1.379 . S
C510 N518 1.356 . S
C511 C510 1.363 . S
C511 C517 1.363 . S
C512 C513 1.363 . S
C512 C517 1.379 . S
C512 N519 1.356 . S
C513 C512 1.363 . S
C513 C516 1.363 . S
N514 C516 1.356 . S
N514 H526 0.984 . S
N514 H527 0.985 . S
N515 C517 1.356 . S
N515 H520 0.984 . S
N515 H521 0.985 . S
C516 C510 1.379 . S
C516 C513 1.363 . S
C516 N514 1.356 . S
C517 C511 1.363 . S
C517 C512 1.379 . S
C517 N515 1.356 . S
N518 C510 1.356 . S
N518 H524 0.984 . S
N518 H525 0.984 . S
N519 C512 1.356 . S
N519 H522 0.984 . S
N519 H523 0.985 . S
H520 N515 0.984 . S
H521 N515 0.985 . S
H522 N519 0.984 . S
H523 N519 0.985 . S
H524 N518 0.984 . S
H525 N518 0.984 . S
H526 N514 0.984 . S
H527 N514 0.985 . S
C528 C529 1.363 . S
C528 C534 1.379 . S
C528 N536 1.356 . S
C529 C528 1.363 . S
C529 C535 1.363 . S
C530 C531 1.363 . S
C530 C535 1.379 . S
C530 N537 1.356 . S
C531 C530 1.363 . S
C531 C534 1.363 . S
N532 C534 1.356 . S
N532 H544 0.984 . S
N532 H545 0.985 . S
N533 C535 1.356 . S
N533 H538 0.984 . S
N533 H539 0.985 . S
C534 C528 1.379 . S
C534 C531 1.363 . S
C534 N532 1.356 . S
C535 C529 1.363 . S
C535 C530 1.379 . S
C535 N533 1.356 . S
N536 C528 1.356 . S
N536 H542 0.984 . S
N536 H543 0.984 . S
N537 C530 1.356 . S
N537 H540 0.984 . S
N537 H541 0.985 . S
H538 N533 0.984 . S
H539 N533 0.985 . S
H540 N537 0.984 . S
H541 N537 0.985 . S
H542 N536 0.984 . S
H543 N536 0.984 . S
H544 N532 0.984 . S
H545 N532 0.985 . S
C546 C547 1.363 . S
C546 C552 1.379 . S
C546 N554 1.356 . S
C547 C546 1.363 . S
C547 C553 1.363 . S
C548 C549 1.363 . S
C548 C553 1.379 . S
C548 N555 1.356 . S
C549 C548 1.363 . S
C549 C552 1.363 . S
N550 C552 1.356 . S
N550 H562 0.984 . S
N550 H563 0.985 . S
N551 C553 1.356 . S
N551 H556 0.984 . S
N551 H557 0.985 . S
C552 C546 1.379 . S
C552 C549 1.363 . S
C552 N550 1.356 . S
C553 C547 1.363 . S
C553 C548 1.379 . S
C553 N551 1.356 . S
N554 C546 1.356 . S
N554 H560 0.984 . S
N554 H561 0.984 . S
N555 C548 1.356 . S
N555 H558 0.984 . S
N555 H559 0.985 . S
H556 N551 0.984 . S
H557 N551 0.985 . S
H558 N555 0.984 . S
H559 N555 0.985 . S
H560 N554 0.984 . S
H561 N554 0.984 . S
H562 N550 0.984 . S
H563 N550 0.985 . S
C564 C565 1.363 . S
C564 C570 1.379 . S
C564 N572 1.356 . S
C565 C564 1.363 . S
C565 C571 1.363 . S
C566 C567 1.363 . S
C566 C571 1.379 . S
C566 N573 1.356 . S
C567 C566 1.363 . S
C567 C570 1.363 . S
N568 C570 1.356 . S
N568 H580 0.984 . S
N568 H581 0.985 . S
N569 C571 1.356 . S
N569 H574 0.984 . S
N569 H575 0.985 . S
C570 C564 1.379 . S
C570 C567 1.363 . S
C570 N568 1.356 . S
C571 C565 1.363 . S
C571 C566 1.379 . S
C571 N569 1.356 . S
N572 C564 1.356 . S
N572 H578 0.984 . S
N572 H579 0.984 . S
N573 C566 1.356 . S
N573 H576 0.984 . S
N573 H577 0.985 . S
H574 N569 0.984 . S
H575 N569 0.985 . S
H576 N573 0.984 . S
H577 N573 0.985 . S
H578 N572 0.984 . S
H579 N572 0.984 . S
H580 N568 0.984 . S
H581 N568 0.985 . S
C582 C583 1.363 . S
C582 C588 1.379 . S
C582 N590 1.356 . S
C583 C582 1.363 . S
C583 C589 1.363 . S
C584 C585 1.363 . S
C584 C589 1.379 . S
C584 N591 1.356 . S
C585 C584 1.363 . S
C585 C588 1.363 . S
N586 C588 1.356 . S
N586 H598 0.984 . S
N586 H599 0.985 . S
N587 C589 1.356 . S
N587 H592 0.984 . S
N587 H593 0.985 . S
C588 C582 1.379 . S
C588 C585 1.363 . S
C588 N586 1.356 . S
C589 C583 1.363 . S
C589 C584 1.379 . S
C589 N587 1.356 . S
N590 C582 1.356 . S
N590 H596 0.984 . S
N590 H597 0.984 . S
N591 C584 1.356 . S
N591 H594 0.984 . S
N591 H595 0.985 . S
H592 N587 0.984 . S
H593 N587 0.985 . S
H594 N591 0.984 . S
H595 N591 0.985 . S
H596 N590 0.984 . S
H597 N590 0.984 . S
H598 N586 0.984 . S
H599 N586 0.985 . S
C600 C601 1.363 . S
C600 C606 1.379 . S
C600 N608 1.356 . S
C601 C600 1.363 . S
C601 C607 1.363 . S
C602 C603 1.363 . S
C602 C607 1.379 . S
C602 N609 1.356 . S
C603 C602 1.363 . S
C603 C606 1.363 . S
N604 C606 1.356 . S
N604 H616 0.984 . S
N604 H617 0.985 . S
N605 C607 1.356 . S
N605 H610 0.984 . S
N605 H611 0.985 . S
C606 C600 1.379 . S
C606 C603 1.363 . S
C606 N604 1.356 . S
C607 C601 1.363 . S
C607 C602 1.379 . S
C607 N605 1.356 . S
N608 C600 1.356 . S
N608 H614 0.984 . S
N608 H615 0.984 . S
N609 C602 1.356 . S
N609 H612 0.984 . S
N609 H613 0.985 . S
H610 N605 0.984 . S
H611 N605 0.985 . S
H612 N609 0.984 . S
H613 N609 0.985 . S
H614 N608 0.984 . S
H615 N608 0.984 . S
H616 N604 0.984 . S
H617 N604 0.985 . S
C618 C619 1.363 . S
C618 C624 1.379 . S
C618 N626 1.356 . S
C619 C618 1.363 . S
C619 C625 1.363 . S
C620 C621 1.363 . S
C620 C625 1.379 . S
C620 N627 1.356 . S
C621 C620 1.363 . S
C621 C624 1.363 . S
N622 C624 1.356 . S
N622 H634 0.984 . S
N622 H635 0.985 . S
N623 C625 1.356 . S
N623 H628 0.984 . S
N623 H629 0.985 . S
C624 C618 1.379 . S
C624 C621 1.363 . S
C624 N622 1.356 . S
C625 C619 1.363 . S
C625 C620 1.379 . S
C625 N623 1.356 . S
N626 C618 1.356 . S
N626 H632 0.984 . S
N626 H633 0.984 . S
N627 C620 1.356 . S
N627 H630 0.984 . S
N627 H631 0.985 . S
H628 N623 0.984 . S
H629 N623 0.985 . S
H630 N627 0.984 . S
H631 N627 0.985 . S
H632 N626 0.984 . S
H633 N626 0.984 . S
H634 N622 0.984 . S
H635 N622 0.985 . S
C636 C637 1.363 . S
C636 C642 1.379 . S
C636 N644 1.356 . S
C637 C636 1.363 . S
C637 C643 1.363 . S
C638 C639 1.363 . S
C638 C643 1.379 . S
C638 N645 1.356 . S
C639 C638 1.363 . S
C639 C642 1.363 . S
N640 C642 1.356 . S
N640 H652 0.984 . S
N640 H653 0.985 . S
N641 C643 1.356 . S
N641 H646 0.984 . S
N641 H647 0.985 . S
C642 C636 1.379 . S
C642 C639 1.363 . S
C642 N640 1.356 . S
C643 C637 1.363 . S
C643 C638 1.379 . S
C643 N641 1.356 . S
N644 C636 1.356 . S
N644 H650 0.984 . S
N644 H651 0.984 . S
N645 C638 1.356 . S
N645 H648 0.984 . S
N645 H649 0.985 . S
H646 N641 0.984 . S
H647 N641 0.985 . S
H648 N645 0.984 . S
H649 N645 0.985 . S
H650 N644 0.984 . S
H651 N644 0.984 . S
H652 N640 0.984 . S
H653 N640 0.985 . S
C654 C655 1.363 . S
C654 C660 1.379 . S
C654 N662 1.356 . S
C655 C654 1.363 . S
C655 C661 1.363 . S
C656 C657 1.363 . S
C656 C661 1.379 . S
C656 N663 1.356 . S
C657 C656 1.363 . S
C657 C660 1.363 . S
N658 C660 1.356 . S
N658 H670 0.984 . S
N658 H671 0.985 . S
N659 C661 1.356 . S
N659 H664 0.984 . S
N659 H665 0.985 . S
C660 C654 1.379 . S
C660 C657 1.363 . S
C660 N658 1.356 . S
C661 C655 1.363 . S
C661 C656 1.379 . S
C661 N659 1.356 . S
N662 C654 1.356 . S
N662 H668 0.984 . S
N662 H669 0.984 . S
N663 C656 1.356 . S
N663 H666 0.984 . S
N663 H667 0.985 . S
H664 N659 0.984 . S
H665 N659 0.985 . S
H666 N663 0.984 . S
H667 N663 0.985 . S
H668 N662 0.984 . S
H669 N662 0.984 . S
H670 N658 0.984 . S
H671 N658 0.985 . S
C672 C673 1.363 . S
C672 C678 1.379 . S
C672 N680 1.356 . S
C673 C672 1.363 . S
C673 C679 1.363 . S
C674 C675 1.363 . S
C674 C679 1.379 . S
C674 N681 1.356 . S
C675 C674 1.363 . S
C675 C678 1.363 . S
N676 C678 1.356 . S
N676 H688 0.984 . S
N676 H689 0.985 . S
N677 C679 1.356 . S
N677 H682 0.984 . S
N677 H683 0.985 . S
C678 C672 1.379 . S
C678 C675 1.363 . S
C678 N676 1.356 . S
C679 C673 1.363 . S
C679 C674 1.379 . S
C679 N677 1.356 . S
N680 C672 1.356 . S
N680 H686 0.984 . S
N680 H687 0.984 . S
N681 C674 1.356 . S
N681 H684 0.984 . S
N681 H685 0.985 . S
H682 N677 0.984 . S
H683 N677 0.985 . S
H684 N681 0.984 . S
H685 N681 0.985 . S
H686 N680 0.984 . S
H687 N680 0.984 . S
H688 N676 0.984 . S
H689 N676 0.985 . S
C690 C691 1.363 . S
C690 C696 1.379 . S
C690 N698 1.356 . S
C691 C690 1.363 . S
C691 C697 1.363 . S
C692 C693 1.363 . S
C692 C697 1.379 . S
C692 N699 1.356 . S
C693 C692 1.363 . S
C693 C696 1.363 . S
N694 C696 1.356 . S
N694 H706 0.984 . S
N694 H707 0.985 . S
N695 C697 1.356 . S
N695 H700 0.984 . S
N695 H701 0.985 . S
C696 C690 1.379 . S
C696 C693 1.363 . S
C696 N694 1.356 . S
C697 C691 1.363 . S
C697 C692 1.379 . S
C697 N695 1.356 . S
N698 C690 1.356 . S
N698 H704 0.984 . S
N698 H705 0.984 . S
N699 C692 1.356 . S
N699 H702 0.984 . S
N699 H703 0.985 . S
H700 N695 0.984 . S
H701 N695 0.985 . S
H702 N699 0.984 . S
H703 N699 0.985 . S
H704 N698 0.984 . S
H705 N698 0.984 . S
H706 N694 0.984 . S
H707 N694 0.985 . S
C708 C709 1.363 . S
C708 C714 1.379 . S
C708 N716 1.356 . S
C709 C708 1.363 . S
C709 C715 1.363 . S
C710 C711 1.363 . S
C710 C715 1.379 . S
C710 N717 1.356 . S
C711 C710 1.363 . S
C711 C714 1.363 . S
N712 C714 1.356 . S
N712 H724 0.984 . S
N712 H725 0.985 . S
N713 C715 1.356 . S
N713 H718 0.984 . S
N713 H719 0.985 . S
C714 C708 1.379 . S
C714 C711 1.363 . S
C714 N712 1.356 . S
C715 C709 1.363 . S
C715 C710 1.379 . S
C715 N713 1.356 . S
N716 C708 1.356 . S
N716 H722 0.984 . S
N716 H723 0.984 . S
N717 C710 1.356 . S
N717 H720 0.984 . S
N717 H721 0.985 . S
H718 N713 0.984 . S
H719 N713 0.985 . S
H720 N717 0.984 . S
H721 N717 0.985 . S
H722 N716 0.984 . S
H723 N716 0.984 . S
H724 N712 0.984 . S
H725 N712 0.985 . S
C726 C727 1.363 . S
C726 C732 1.379 . S
C726 N734 1.356 . S
C727 C726 1.363 . S
C727 C733 1.363 . S
C728 C729 1.363 . S
C728 C733 1.379 . S
C728 N735 1.356 . S
C729 C728 1.363 . S
C729 C732 1.363 . S
N730 C732 1.356 . S
N730 H742 0.984 . S
N730 H743 0.985 . S
N731 C733 1.356 . S
N731 H736 0.984 . S
N731 H737 0.985 . S
C732 C726 1.379 . S
C732 C729 1.363 . S
C732 N730 1.356 . S
C733 C727 1.363 . S
C733 C728 1.379 . S
C733 N731 1.356 . S
N734 C726 1.356 . S
N734 H740 0.984 . S
N734 H741 0.984 . S
N735 C728 1.356 . S
N735 H738 0.984 . S
N735 H739 0.985 . S
H736 N731 0.984 . S
H737 N731 0.985 . S
H738 N735 0.984 . S
H739 N735 0.985 . S
H740 N734 0.984 . S
H741 N734 0.984 . S
H742 N730 0.984 . S
H743 N730 0.985 . S
C744 C745 1.363 . S
C744 C750 1.379 . S
C744 N752 1.356 . S
C745 C744 1.363 . S
C745 C751 1.363 . S
C746 C747 1.363 . S
C746 C751 1.379 . S
C746 N753 1.356 . S
C747 C746 1.363 . S
C747 C750 1.363 . S
N748 C750 1.356 . S
N748 H760 0.984 . S
N748 H761 0.985 . S
N749 C751 1.356 . S
N749 H754 0.984 . S
N749 H755 0.985 . S
C750 C744 1.379 . S
C750 C747 1.363 . S
C750 N748 1.356 . S
C751 C745 1.363 . S
C751 C746 1.379 . S
C751 N749 1.356 . S
N752 C744 1.356 . S
N752 H758 0.984 . S
N752 H759 0.984 . S
N753 C746 1.356 . S
N753 H756 0.984 . S
N753 H757 0.985 . S
H754 N749 0.984 . S
H755 N749 0.985 . S
H756 N753 0.984 . S
H757 N753 0.985 . S
H758 N752 0.984 . S
H759 N752 0.984 . S
H760 N748 0.984 . S
H761 N748 0.985 . S
C762 C763 1.363 . S
C762 C768 1.379 . S
C762 N770 1.356 . S
C763 C762 1.363 . S
C763 C769 1.363 . S
C764 C765 1.363 . S
C764 C769 1.379 . S
C764 N771 1.356 . S
C765 C764 1.363 . S
C765 C768 1.363 . S
N766 C768 1.356 . S
N766 H778 0.984 . S
N766 H779 0.985 . S
N767 C769 1.356 . S
N767 H772 0.984 . S
N767 H773 0.985 . S
C768 C762 1.379 . S
C768 C765 1.363 . S
C768 N766 1.356 . S
C769 C763 1.363 . S
C769 C764 1.379 . S
C769 N767 1.356 . S
N770 C762 1.356 . S
N770 H776 0.984 . S
N770 H777 0.984 . S
N771 C764 1.356 . S
N771 H774 0.984 . S
N771 H775 0.985 . S
H772 N767 0.984 . S
H773 N767 0.985 . S
H774 N771 0.984 . S
H775 N771 0.985 . S
H776 N770 0.984 . S
H777 N770 0.984 . S
H778 N766 0.984 . S
H779 N766 0.985 . S
C780 C781 1.363 1_554 S
C780 C786 1.379 . S
C780 N788 1.356 . S
C781 C780 1.363 1_556 S
C781 C787 1.363 . S
C782 C783 1.363 1_556 S
C782 C787 1.379 . S
C782 N789 1.356 . S
C783 C782 1.363 1_554 S
C783 C786 1.363 . S
N784 C786 1.356 . S
N784 H796 0.984 . S
N784 H797 0.985 . S
N785 C787 1.356 . S
N785 H790 0.984 . S
N785 H791 0.985 . S
C786 C780 1.379 . S
C786 C783 1.363 . S
C786 N784 1.356 . S
C787 C781 1.363 . S
C787 C782 1.379 . S
C787 N785 1.356 . S
N788 C780 1.356 . S
N788 H794 0.984 . S
N788 H795 0.984 1_554 S
N789 C782 1.356 . S
N789 H792 0.984 1_556 S
N789 H793 0.985 . S
H790 N785 0.984 . S
H791 N785 0.985 . S
H792 N789 0.984 1_554 S
H793 N789 0.985 . S
H794 N788 0.984 . S
H795 N788 0.984 1_556 S
H796 N784 0.984 . S
H797 N784 0.985 . S
C798 C799 1.363 . S
C798 C804 1.379 1_455 S
C798 N806 1.356 . S
C799 C798 1.363 . S
C799 C805 1.363 . S
C800 C801 1.363 . S
C800 C805 1.379 1_655 S
C800 N807 1.356 . S
C801 C800 1.363 . S
C801 C804 1.363 . S
N802 C804 1.356 . S
N802 H814 0.984 . S
N802 H815 0.985 . S
N803 C805 1.356 . S
N803 H808 0.984 . S
N803 H809 0.985 . S
C804 C798 1.379 1_655 S
C804 C801 1.363 . S
C804 N802 1.356 . S
C805 C799 1.363 . S
C805 C800 1.379 1_455 S
C805 N803 1.356 . S
N806 C798 1.356 . S
N806 H812 0.984 . S
N806 H813 0.984 . S
N807 C800 1.356 . S
N807 H810 0.984 . S
N807 H811 0.985 . S
H808 N803 0.984 . S
H809 N803 0.985 . S
H810 N807 0.984 . S
H811 N807 0.985 . S
H812 N806 0.984 . S
H813 N806 0.984 . S
H814 N802 0.984 . S
H815 N802 0.985 . S
C816 C817 1.363 . S
C816 C822 1.379 1_565 S
C816 N824 1.356 . S
C817 C816 1.363 . S
C817 C823 1.363 1_554 S
C818 C819 1.363 . S
C818 C823 1.379 1_545 S
C818 N825 1.356 . S
C819 C818 1.363 . S
C819 C822 1.363 1_556 S
N820 C822 1.356 . S
N820 H832 0.984 . S
N820 H833 0.985 1_554 S
N821 C823 1.356 . S
N821 H826 0.984 1_556 S
N821 H827 0.985 . S
C822 C816 1.379 1_545 S
C822 C819 1.363 1_554 S
C822 N820 1.356 . S
C823 C817 1.363 1_556 S
C823 C818 1.379 1_565 S
C823 N821 1.356 . S
N824 C816 1.356 . S
N824 H830 0.984 . S
N824 H831 0.984 . S
N825 C818 1.356 . S
N825 H828 0.984 . S
N825 H829 0.985 . S
H826 N821 0.984 1_554 S
H827 N821 0.985 . S
H828 N825 0.984 . S
H829 N825 0.985 . S
H830 N824 0.984 . S
H831 N824 0.984 . S
H832 N820 0.984 . S
H833 N820 0.985 1_556 S
C834 C835 1.363 . S
C834 C840 1.379 . S
C834 N842 1.356 . S
C835 C834 1.363 . S
C835 C841 1.363 . S
C836 C837 1.363 . S
C836 C841 1.379 . S
C836 N843 1.356 . S
C837 C836 1.363 . S
C837 C840 1.363 . S
N838 C840 1.356 . S
N838 H850 0.984 . S
N838 H851 0.985 . S
N839 C841 1.356 . S
N839 H844 0.984 . S
N839 H845 0.985 . S
C840 C834 1.379 . S
C840 C837 1.363 . S
C840 N838 1.356 . S
C841 C835 1.363 . S
C841 C836 1.379 . S
C841 N839 1.356 . S
N842 C834 1.356 . S
N842 H848 0.984 . S
N842 H849 0.984 . S
N843 C836 1.356 . S
N843 H846 0.984 . S
N843 H847 0.985 . S
H844 N839 0.984 . S
H845 N839 0.985 . S
H846 N843 0.984 . S
H847 N843 0.985 . S
H848 N842 0.984 . S
H849 N842 0.984 . S
H850 N838 0.984 . S
H851 N838 0.985 . S
C852 C853 1.363 . S
C852 C858 1.379 1_655 S
C852 N860 1.356 . S
C853 C852 1.363 . S
C853 C859 1.363 1_556 S
C854 C855 1.363 . S
C854 C859 1.379 1_455 S
C854 N861 1.356 . S
C855 C854 1.363 . S
C855 C858 1.363 1_554 S
N856 C858 1.356 . S
N856 H868 0.984 . S
N856 H869 0.985 1_556 S
N857 C859 1.356 . S
N857 H862 0.984 1_554 S
N857 H863 0.985 . S
C858 C852 1.379 1_455 S
C858 C855 1.363 1_556 S
C858 N856 1.356 . S
C859 C853 1.363 1_554 S
C859 C854 1.379 1_655 S
C859 N857 1.356 . S
N860 C852 1.356 . S
N860 H866 0.984 . S
N860 H867 0.984 . S
N861 C854 1.356 . S
N861 H864 0.984 . S
N861 H865 0.985 . S
H862 N857 0.984 1_556 S
H863 N857 0.985 . S
H864 N861 0.984 . S
H865 N861 0.985 . S
H866 N860 0.984 . S
H867 N860 0.984 . S
H868 N856 0.984 . S
H869 N856 0.985 1_554 S
C870 C871 1.363 . S
C870 C876 1.379 1_565 S
C870 N878 1.356 . S
C871 C870 1.363 . S
C871 C877 1.363 . S
C872 C873 1.363 . S
C872 C877 1.379 1_545 S
C872 N879 1.356 . S
C873 C872 1.363 . S
C873 C876 1.363 . S
N874 C876 1.356 . S
N874 H886 0.984 . S
N874 H887 0.985 . S
N875 C877 1.356 . S
N875 H880 0.984 . S
N875 H881 0.985 . S
C876 C870 1.379 1_545 S
C876 C873 1.363 . S
C876 N874 1.356 . S
C877 C871 1.363 . S
C877 C872 1.379 1_565 S
C877 N875 1.356 . S
N878 C870 1.356 . S
N878 H884 0.984 . S
N878 H885 0.984 . S
N879 C872 1.356 . S
N879 H882 0.984 . S
N879 H883 0.985 . S
H880 N875 0.984 . S
H881 N875 0.985 . S
H882 N879 0.984 . S
H883 N879 0.985 . S
H884 N878 0.984 . S
H885 N878 0.984 . S
H886 N874 0.984 . S
H887 N874 0.985 . S
C241 C82 1.250 1_545 S
C243 C9 1.177 . S
C259 C102 1.250 . S
C261 C29 1.177 . S
C277 C49 1.177 . S
C279 C2 1.250 1_655 S
C295 C69 1.177 . S
C297 C22 1.250 1_565 S
C313 C89 1.177 . S
C315 C42 1.250 . S
C331 C62 1.250 1_455 S
C333 C109 1.177 . S
C349 C162 1.250 1_655 S
C351 C129 1.177 . S
C367 C149 1.177 . S
C369 C182 1.250 1_565 S
C385 C202 1.250 . S
C387 C169 1.177 . S
C403 C189 1.177 . S
C405 C222 1.250 1_455 S
C421 C209 1.177 . S
C423 C122 1.250 1_545 S
C439 C142 1.250 . S
C441 C229 1.177 . S
C457 C84 1.303 . S
C459 C12 1.470 . S
C475 C32 1.470 . S
C477 C104 1.303 . S
C493 C52 1.470 . S
C495 C4 1.303 . S
C511 C72 1.470 . S
C513 C24 1.303 . S
C529 C44 1.303 . S
C531 C92 1.470 . S
C547 C64 1.303 . S
C549 C112 1.470 . S
C565 C164 1.303 . S
C567 C132 1.470 . S
C583 C152 1.470 . S
C585 C184 1.303 . S
C601 C172 1.470 . S
C603 C204 1.303 . S
C619 C224 1.303 . S
C621 C192 1.470 . S
C637 C212 1.470 . S
C639 C124 1.303 . S
C655 C144 1.303 . S
C657 C232 1.470 . S
C673 C219 1.665 . S
C675 C19 1.665 . S
C691 C39 1.665 . S
C693 C239 1.665 . S
C709 C59 1.665 . S
C711 C139 1.665 . S
C727 C79 1.665 . S
C729 C159 1.665 . S
C745 C99 1.665 . S
C747 C179 1.665 . S
C763 C199 1.665 . S
C765 C119 1.665 . S
C781 C198 1.893 . S
C783 C18 1.893 . S
C799 C218 1.893 . S
C801 C38 1.893 . S
C817 C58 1.893 . S
C819 C238 1.893 . S
C835 C78 1.893 . S
C837 C138 1.893 . S
C853 C158 1.893 . S
C855 C98 1.893 . S
C871 C178 1.893 . S
C873 C118 1.893 . S
