# Generated by pormake.
# Topology gsi, (4)-cn, num edge types: 1
# Building blocks:
#     Node 0, Type 0, BuildingBlock: NAHDIM_clean_sbu_0, # of connection points: 4
#     Node 1, Type 0, BuildingBlock: NAHDIM_clean_sbu_0, # of connection points: 4
#     Node 2, Type 0, BuildingBlock: NAHDIM_clean_sbu_0, # of connection points: 4
#     Node 3, Type 0, BuildingBlock: NAHDIM_clean_sbu_0, # of connection points: 4
#     Node 4, Type 0, BuildingBlock: NAHDIM_clean_sbu_0, # of connection points: 4
#     Node 5, Type 0, BuildingBlock: NAHDIM_clean_sbu_0, # of connection points: 4
#     Node 6, Type 0, BuildingBlock: NAHDIM_clean_sbu_0, # of connection points: 4
#     Node 7, Type 0, BuildingBlock: NAHDIM_clean_sbu_0, # of connection points: 4
#     Node 8, Type 0, BuildingBlock: NAHDIM_clean_sbu_0, # of connection points: 4
#     Node 9, Type 0, BuildingBlock: NAHDIM_clean_sbu_0, # of connection points: 4
#     Node 10, Type 0, BuildingBlock: NAHDIM_clean_sbu_0, # of connection points: 4
#     Node 11, Type 0, BuildingBlock: NAHDIM_clean_sbu_0, # of connection points: 4
#     Node 12, Type 0, BuildingBlock: NAHDIM_clean_sbu_0, # of connection points: 4
#     Node 13, Type 0, BuildingBlock: NAHDIM_clean_sbu_0, # of connection points: 4
#     Node 14, Type 0, BuildingBlock: NAHDIM_clean_sbu_0, # of connection points: 4
#     Node 15, Type 0, BuildingBlock: NAHDIM_clean_sbu_0, # of connection points: 4
#     Edge 16, Type (0, 0), BuildingBlock: OJICUG_clean_linker_0, # of connection points: 2
#     Edge 17, Type (0, 0), BuildingBlock: OJICUG_clean_linker_0, # of connection points: 2
#     Edge 18, Type (0, 0), BuildingBlock: OJICUG_clean_linker_0, # of connection points: 2
#     Edge 19, Type (0, 0), BuildingBlock: OJICUG_clean_linker_0, # of connection points: 2
#     Edge 20, Type (0, 0), BuildingBlock: OJICUG_clean_linker_0, # of connection points: 2
#     Edge 21, Type (0, 0), BuildingBlock: OJICUG_clean_linker_0, # of connection points: 2
#     Edge 22, Type (0, 0), BuildingBlock: OJICUG_clean_linker_0, # of connection points: 2
#     Edge 23, Type (0, 0), BuildingBlock: OJICUG_clean_linker_0, # of connection points: 2
#     Edge 24, Type (0, 0), BuildingBlock: OJICUG_clean_linker_0, # of connection points: 2
#     Edge 25, Type (0, 0), BuildingBlock: OJICUG_clean_linker_0, # of connection points: 2
#     Edge 26, Type (0, 0), BuildingBlock: OJICUG_clean_linker_0, # of connection points: 2
#     Edge 27, Type (0, 0), BuildingBlock: OJICUG_clean_linker_0, # of connection points: 2
#     Edge 28, Type (0, 0), BuildingBlock: OJICUG_clean_linker_0, # of connection points: 2
#     Edge 29, Type (0, 0), BuildingBlock: OJICUG_clean_linker_0, # of connection points: 2
#     Edge 30, Type (0, 0), BuildingBlock: OJICUG_clean_linker_0, # of connection points: 2
#     Edge 31, Type (0, 0), BuildingBlock: OJICUG_clean_linker_0, # of connection points: 2
#     Edge 32, Type (0, 0), BuildingBlock: OJICUG_clean_linker_0, # of connection points: 2
#     Edge 33, Type (0, 0), BuildingBlock: OJICUG_clean_linker_0, # of connection points: 2
#     Edge 34, Type (0, 0), BuildingBlock: OJICUG_clean_linker_0, # of connection points: 2
#     Edge 35, Type (0, 0), BuildingBlock: OJICUG_clean_linker_0, # of connection points: 2
#     Edge 36, Type (0, 0), BuildingBlock: OJICUG_clean_linker_0, # of connection points: 2
#     Edge 37, Type (0, 0), BuildingBlock: OJICUG_clean_linker_0, # of connection points: 2
#     Edge 38, Type (0, 0), BuildingBlock: OJICUG_clean_linker_0, # of connection points: 2
#     Edge 39, Type (0, 0), BuildingBlock: OJICUG_clean_linker_0, # of connection points: 2
#     Edge 40, Type (0, 0), BuildingBlock: OJICUG_clean_linker_0, # of connection points: 2
#     Edge 41, Type (0, 0), BuildingBlock: OJICUG_clean_linker_0, # of connection points: 2
#     Edge 42, Type (0, 0), BuildingBlock: OJICUG_clean_linker_0, # of connection points: 2
#     Edge 43, Type (0, 0), BuildingBlock: OJICUG_clean_linker_0, # of connection points: 2
#     Edge 44, Type (0, 0), BuildingBlock: OJICUG_clean_linker_0, # of connection points: 2
#     Edge 45, Type (0, 0), BuildingBlock: OJICUG_clean_linker_0, # of connection points: 2
#     Edge 46, Type (0, 0), BuildingBlock: OJICUG_clean_linker_0, # of connection points: 2
#     Edge 47, Type (0, 0), BuildingBlock: OJICUG_clean_linker_0, # of connection points: 2
# Relax obj value: 0.047
# Max RMSD: 0.061
# Mean RMSD: 0.054
data_MOF--net-gsi--node1-NAHDIM_clean_sbu_0--edge1-OJICUG_clean_linker_0
_symmetry_space_group_name_H-M    P1
_symmetry_Int_Tables_number       1
_symmetry_cell_setting            triclinic
loop_
_symmetry_equiv_pos_as_xyz
'x, y, z'
_cell_length_a     30.406325
_cell_length_b     31.302198
_cell_length_c     31.455536
_cell_angle_alpha  89.971248
_cell_angle_beta   90.040778
_cell_angle_gamma 95.304417
loop_
_atom_site_label
_atom_site_type_symbol
_atom_site_fract_x
_atom_site_fract_y
_atom_site_fract_z
_atom_type_partial_charge
C0 C 0.05677 0.1775 0.105 0.0
O1 O 0.06004 0.14813 0.07565 0.0
O2 O 0.16987 0.14159 0.08646 0.0
Zn3 Zn 0.13662 0.14562 0.14183 0.0
O4 O 0.17864 0.17769 0.18276 0.0
C5 C 0.15148 0.0635 0.17274 0.0
O6 O 0.19131 0.07795 0.16014 0.0
O7 O 0.08463 0.18082 0.13523 0.0
C8 C 0.18556 0.16699 0.22098 0.0
O9 O 0.16322 0.13302 0.23734 0.0
C10 C 0.19698 0.17358 0.07697 0.0
O11 O 0.19936 0.20758 0.10162 0.0
O12 O 0.11979 0.08659 0.16639 0.0
C13 C 0.91388 0.2876 0.10361 0.0
O14 O 0.87596 0.27339 0.08637 0.0
O15 O 0.82632 0.35892 0.08301 0.0
Zn16 Zn 0.85959 0.34932 0.13719 0.0
O17 O 0.82168 0.30746 0.17287 0.0
C18 C 0.8453 0.41376 0.19969 0.0
O19 O 0.81223 0.38552 0.20954 0.0
O20 O 0.916 0.3219 0.12551 0.0
C21 C 0.83861 0.28457 0.20074 0.0
O22 O 0.88167 0.28811 0.20593 0.0
C23 C 0.78637 0.36768 0.08556 0.0
O24 O 0.76856 0.37115 0.12329 0.0
O25 O 0.87101 0.40547 0.16946 0.0
C26 C 0.12949 0.91536 0.28366 0.0
O27 O 0.09105 0.89286 0.2876 0.0
O28 O 0.0994 0.82363 0.34986 0.0
Zn29 Zn 0.16222 0.84974 0.33915 0.0
O30 O 0.19461 0.80784 0.30501 0.0
C31 C 0.18704 0.83826 0.42668 0.0
O32 O 0.15383 0.80836 0.42474 0.0
O33 O 0.16279 0.90362 0.30356 0.0
C34 C 0.21744 0.78047 0.32222 0.0
O35 O 0.2207 0.77917 0.36379 0.0
C36 C 0.09048 0.78307 0.3497 0.0
O37 O 0.12246 0.75837 0.34336 0.0
O38 O 0.19579 0.86194 0.39435 0.0
C39 C 0.86352 0.57656 0.28832 0.0
O40 O 0.89166 0.60815 0.2751 0.0
O41 O 0.90211 0.66619 0.35599 0.0
Zn42 Zn 0.83918 0.64048 0.34827 0.0
O43 O 0.80781 0.68026 0.311 0.0
C44 C 0.82329 0.63692 0.44046 0.0
O45 O 0.86651 0.64211 0.44403 0.0
O46 O 0.8382 0.58292 0.3194 0.0
C47 C 0.78557 0.70832 0.32775 0.0
O48 O 0.78285 0.71048 0.36936 0.0
C49 C 0.91083 0.70599 0.36364 0.0
O50 O 0.8782 0.73013 0.36904 0.0
O51 O 0.80594 0.63424 0.40372 0.0
C52 C 0.43939 0.83257 0.60417 0.0
O53 O 0.43738 0.86308 0.57574 0.0
O54 O 0.32852 0.87104 0.58264 0.0
Zn55 Zn 0.35828 0.8635 0.63933 0.0
O56 O 0.31471 0.82931 0.67741 0.0
C57 C 0.34406 0.94077 0.68238 0.0
O58 O 0.30325 0.92603 0.67358 0.0
O59 O 0.41028 0.82814 0.6332 0.0
C60 C 0.27295 0.82768 0.67332 0.0
O61 O 0.25584 0.84969 0.64292 0.0
C62 C 0.31121 0.83657 0.56582 0.0
O63 O 0.31699 0.79984 0.5843 0.0
O64 O 0.37545 0.92019 0.66894 0.0
C65 C 0.89271 0.92309 0.78482 0.0
O66 O 0.90947 0.88864 0.77056 0.0
O67 O 0.82903 0.86963 0.9062 0.0
Zn68 Zn 0.85926 0.86383 0.84946 0.0
O69 O 0.81707 0.82857 0.81189 0.0
C70 C 0.94214 0.83615 0.88427 0.0
O71 O 0.93903 0.86638 0.91277 0.0
O72 O 0.87168 0.92098 0.81983 0.0
C73 C 0.7763 0.83438 0.81072 0.0
O74 O 0.76141 0.86416 0.83479 0.0
C75 C 0.81393 0.83474 0.9238 0.0
O76 O 0.82103 0.79829 0.90548 0.0
O77 O 0.91315 0.8309 0.85515 0.0
C78 C 0.15626 0.59531 0.7999 0.0
O79 O 0.19395 0.61923 0.79659 0.0
O80 O 0.17615 0.6551 0.90994 0.0
Zn81 Zn 0.14045 0.66353 0.8563 0.0
O82 O 0.17726 0.70266 0.8172 0.0
C83 C 0.08725 0.72855 0.88706 0.0
O84 O 0.12557 0.7444 0.90224 0.0
O85 O 0.12692 0.60704 0.82512 0.0
C86 C 0.16043 0.72075 0.78579 0.0
O87 O 0.11777 0.71385 0.77875 0.0
C88 C 0.20766 0.68309 0.91958 0.0
O89 O 0.21529 0.71709 0.89528 0.0
O90 O 0.08474 0.69261 0.86787 0.0
C91 C 0.80983 0.17544 0.57198 0.0
O92 O 0.8225 0.21261 0.58963 0.0
O93 O 0.91192 0.18443 0.63866 0.0
Zn94 Zn 0.85259 0.15035 0.64595 0.0
O95 O 0.81635 0.18696 0.68195 0.0
C96 C 0.89013 0.07136 0.67488 0.0
O97 O 0.92205 0.08155 0.64756 0.0
O98 O 0.82038 0.1414 0.58988 0.0
C99 C 0.80971 0.18012 0.72134 0.0
O100 O 0.8262 0.14739 0.7396 0.0
C101 C 0.93352 0.19322 0.67265 0.0
O102 O 0.91761 0.17735 0.70875 0.0
O103 O 0.85823 0.09476 0.67764 0.0
C104 C 0.20234 0.3377 0.57723 0.0
O105 O 0.18802 0.3028 0.59815 0.0
O106 O 0.10354 0.33556 0.64453 0.0
Zn107 Zn 0.16309 0.37066 0.64904 0.0
O108 O 0.20087 0.33753 0.68701 0.0
C109 C 0.13112 0.43776 0.70277 0.0
O110 O 0.10055 0.40752 0.71407 0.0
O111 O 0.19412 0.37387 0.59213 0.0
C112 C 0.22176 0.35215 0.71964 0.0
O113 O 0.22041 0.39259 0.73026 0.0
C114 C 0.09084 0.31253 0.67639 0.0
O115 O 0.11514 0.31474 0.711 0.0
O116 O 0.15922 0.42968 0.67459 0.0
C117 C 0.61404 0.08174 0.28736 0.0
O118 O 0.59532 0.11541 0.27382 0.0
O119 O 0.67947 0.13719 0.40725 0.0
Zn120 Zn 0.64642 0.14178 0.3516 0.0
O121 O 0.68569 0.17874 0.31274 0.0
C122 C 0.57451 0.1826 0.39386 0.0
O123 O 0.59296 0.17136 0.42943 0.0
O124 O 0.63595 0.08448 0.32189 0.0
C125 C 0.7262 0.17264 0.30883 0.0
O126 O 0.74218 0.14176 0.33062 0.0
C127 C 0.69793 0.17198 0.42252 0.0
O128 O 0.69257 0.20817 0.40282 0.0
O129 O 0.59052 0.17178 0.35852 0.0
C130 C 0.58338 0.72371 0.60533 0.0
O131 O 0.6216 0.73836 0.58899 0.0
O132 O 0.6716 0.65232 0.58519 0.0
Zn133 Zn 0.63748 0.66184 0.6389 0.0
O134 O 0.67515 0.70356 0.67488 0.0
C135 C 0.65263 0.59691 0.70062 0.0
O136 O 0.68564 0.62522 0.71046 0.0
O137 O 0.58103 0.68911 0.6268 0.0
C138 C 0.65908 0.72649 0.70318 0.0
O139 O 0.61613 0.72361 0.709 0.0
C140 C 0.71252 0.64744 0.5889 0.0
O141 O 0.73017 0.64808 0.62705 0.0
O142 O 0.62641 0.60546 0.67085 0.0
C143 C 0.63916 0.43153 0.78447 0.0
O144 O 0.61135 0.39994 0.77068 0.0
O145 O 0.60357 0.33691 0.84381 0.0
Zn146 Zn 0.66547 0.36594 0.84134 0.0
O147 O 0.70005 0.329 0.80429 0.0
C148 C 0.67987 0.37846 0.93395 0.0
O149 O 0.63829 0.38651 0.93621 0.0
O150 O 0.66529 0.42456 0.81478 0.0
C151 C 0.7143 0.29594 0.82097 0.0
O152 O 0.70664 0.28795 0.86141 0.0
C153 C 0.59103 0.30531 0.86766 0.0
O154 O 0.61851 0.29198 0.8959 0.0
O155 O 0.69626 0.36998 0.89816 0.0
C156 C 0.37451 0.0879 0.79373 0.0
O157 O 0.41338 0.1099 0.79584 0.0
O158 O 0.40558 0.18169 0.86073 0.0
Zn159 Zn 0.34346 0.15539 0.8487 0.0
O160 O 0.31228 0.19739 0.81399 0.0
C161 C 0.31686 0.1709 0.93436 0.0
O162 O 0.35055 0.20024 0.93178 0.0
O163 O 0.34223 0.1007 0.81438 0.0
C164 C 0.3122 0.23658 0.82456 0.0
O165 O 0.33308 0.25038 0.85917 0.0
C166 C 0.42461 0.20658 0.83304 0.0
O167 O 0.4048 0.21163 0.79649 0.0
O168 O 0.30843 0.14577 0.90308 0.0
C169 C 0.35005 0.41058 0.29789 0.0
O170 O 0.31113 0.38861 0.29616 0.0
O171 O 0.333 0.35257 0.4104 0.0
Zn172 Zn 0.36477 0.34191 0.3548 0.0
O173 O 0.32273 0.30431 0.31837 0.0
C174 C 0.43224 0.29384 0.39696 0.0
O175 O 0.41062 0.29961 0.43231 0.0
O176 O 0.37945 0.39757 0.32233 0.0
C177 C 0.32178 0.26365 0.31734 0.0
O178 O 0.34984 0.24413 0.34047 0.0
C179 C 0.31106 0.32077 0.42805 0.0
O180 O 0.31202 0.28256 0.41114 0.0
O181 O 0.41957 0.31025 0.36255 0.0
C182 C 0.31665 0.66666 0.06865 0.0
O183 O 0.33534 0.70179 0.08638 0.0
O184 O 0.40977 0.66889 0.14081 0.0
Zn185 Zn 0.34974 0.63436 0.14452 0.0
O186 O 0.31144 0.6683 0.18118 0.0
C187 C 0.38188 0.56441 0.19563 0.0
O188 O 0.41668 0.59153 0.20279 0.0
O189 O 0.31973 0.63094 0.08716 0.0
C190 C 0.30294 0.65959 0.21992 0.0
O191 O 0.31868 0.6261 0.23746 0.0
C192 C 0.42363 0.68955 0.17378 0.0
O193 O 0.40054 0.68483 0.20899 0.0
O194 O 0.35169 0.5753 0.17088 0.0
C195 C 0.70392 0.83162 0.07438 0.0
O196 O 0.69247 0.79466 0.09299 0.0
O197 O 0.6 0.82206 0.13867 0.0
Zn198 Zn 0.65885 0.85696 0.14676 0.0
O199 O 0.69478 0.82107 0.18395 0.0
C200 C 0.61914 0.93455 0.17649 0.0
O201 O 0.58621 0.92274 0.15075 0.0
O202 O 0.69182 0.86563 0.0911 0.0
C203 C 0.69907 0.82742 0.22369 0.0
O204 O 0.68069 0.85937 0.24135 0.0
C205 C 0.57824 0.81239 0.17237 0.0
O206 O 0.59341 0.82821 0.20875 0.0
O207 O 0.65231 0.91266 0.17791 0.0
C208 C 0.23388 0.23434 0.23489 0.0
C209 C 0.22002 0.19176 0.24603 0.0
H210 H 0.27677 0.29062 0.24911 0.0
C211 C 0.24017 0.17279 0.28053 0.0
H212 H 0.21887 0.24973 0.20841 0.0
C213 C 0.27396 0.1959 0.30326 0.0
C214 C 0.28743 0.23863 0.29239 0.0
H215 H 0.23031 0.1399 0.28958 0.0
H216 H 0.28902 0.18054 0.32972 0.0
C217 C 0.26696 0.25772 0.25816 0.0
C218 C 0.76391 0.25665 0.22701 0.0
C219 C 0.80995 0.25527 0.22782 0.0
H220 H 0.70141 0.23177 0.25206 0.0
C221 C 0.82826 0.22607 0.25508 0.0
H222 H 0.74878 0.27886 0.2064 0.0
C223 C 0.80104 0.19885 0.28113 0.0
C224 C 0.75504 0.2006 0.28065 0.0
H225 H 0.86363 0.22419 0.25634 0.0
H226 H 0.8161 0.17678 0.30194 0.0
C227 C 0.73675 0.22973 0.25327 0.0
C228 C 0.25981 0.72351 0.22666 0.0
C229 C 0.27932 0.68937 0.24589 0.0
H230 H 0.22485 0.77906 0.23569 0.0
C231 C 0.27767 0.68505 0.29031 0.0
H232 H 0.26051 0.72766 0.19247 0.0
C233 C 0.2576 0.71472 0.31508 0.0
C234 C 0.23845 0.74908 0.29589 0.0
H235 H 0.29251 0.65917 0.30609 0.0
H236 H 0.25716 0.71069 0.34928 0.0
C237 C 0.23941 0.75298 0.25141 0.0
C238 C 0.74307 0.77245 0.31975 0.0
C239 C 0.76398 0.739 0.30094 0.0
H240 H 0.70651 0.82678 0.31012 0.0
C241 C 0.76418 0.73537 0.25643 0.0
H242 H 0.74248 0.77624 0.35396 0.0
C243 C 0.74346 0.76435 0.23126 0.0
C244 C 0.72232 0.79765 0.25012 0.0
H245 H 0.78008 0.70998 0.24098 0.0
H246 H 0.74387 0.76052 0.19704 0.0
C247 C 0.72256 0.80153 0.2946 0.0
C248 C 0.198 0.79614 0.69611 0.0
C249 C 0.24397 0.80084 0.70234 0.0
H250 H 0.13545 0.76705 0.71757 0.0
C251 C 0.2621 0.77933 0.73641 0.0
H252 H 0.18303 0.81228 0.6701 0.0
C253 C 0.23488 0.75355 0.7636 0.0
C254 C 0.18894 0.74859 0.75724 0.0
H255 H 0.29739 0.78233 0.74213 0.0
H256 H 0.24996 0.73734 0.7895 0.0
C257 C 0.17074 0.7702 0.72327 0.0
C258 C 0.67177 0.78325 0.75915 0.0
C259 C 0.68882 0.75488 0.73018 0.0
H260 H 0.6861 0.83089 0.80728 0.0
C261 C 0.73477 0.75332 0.72759 0.0
H262 H 0.6365 0.78521 0.76183 0.0
C263 C 0.76307 0.77923 0.75369 0.0
C264 C 0.7461 0.8075 0.7828 0.0
H265 H 0.74898 0.73176 0.70564 0.0
H266 H 0.79831 0.77705 0.75102 0.0
C267 C 0.70017 0.80944 0.78513 0.0
C268 C 0.75475 0.23032 0.81429 0.0
C269 C 0.73865 0.26643 0.7953 0.0
H270 H 0.78971 0.17473 0.80585 0.0
C271 C 0.74578 0.27377 0.75168 0.0
H272 H 0.74978 0.22372 0.84783 0.0
C273 C 0.76863 0.24559 0.72756 0.0
C274 C 0.78484 0.20954 0.74661 0.0
H275 H 0.73371 0.30127 0.73611 0.0
H276 H 0.77369 0.25218 0.69403 0.0
C277 C 0.77763 0.20219 0.7902 0.0
C278 C 0.26771 0.33793 0.78342 0.0
C279 C 0.24583 0.32307 0.74618 0.0
H280 H 0.30583 0.32222 0.8375 0.0
C281 C 0.24631 0.27969 0.73479 0.0
H282 H 0.2679 0.37116 0.79306 0.0
C283 C 0.26793 0.2517 0.76022 0.0
C284 C 0.28957 0.26643 0.79761 0.0
H285 H 0.22977 0.26717 0.70629 0.0
H286 H 0.26753 0.21845 0.75056 0.0
C287 C 0.28938 0.30987 0.8089 0.0
C288 C 0.17702 0.97082 0.24313 0.0
C289 C 0.13466 0.95291 0.25478 0.0
H290 H 0.21543 0.01906 0.20766 0.0
C291 C 0.09758 0.97083 0.23804 0.0
H292 H 0.2063 0.95764 0.25518 0.0
C293 C 0.10283 0.0064 0.21084 0.0
C294 C 0.14527 0.02436 0.19939 0.0
H295 H 0.06449 0.95772 0.24634 0.0
H296 H 0.07369 0.01993 0.19897 0.0
C297 C 0.18225 0.00592 0.21559 0.0
C298 C 0.88392 0.48751 0.21078 0.0
C299 C 0.85137 0.45502 0.223 0.0
H300 H 0.91333 0.55142 0.22178 0.0
C301 C 0.82372 0.46251 0.25749 0.0
H302 H 0.90576 0.48275 0.18436 0.0
C303 C 0.82809 0.50171 0.27895 0.0
C304 C 0.86015 0.53448 0.26639 0.0
H305 H 0.79836 0.43817 0.26787 0.0
H306 H 0.80595 0.50642 0.30515 0.0
C307 C 0.88822 0.52688 0.23222 0.0
C308 C 0.29187 0.20324 0.00169 0.0
C309 C 0.28687 0.17011 0.97149 0.0
H310 H 0.2673 0.2305 0.05811 0.0
C311 C 0.25198 0.13768 0.9763 0.0
H312 H 0.31823 0.22884 0.99892 0.0
C313 C 0.22266 0.13854 0.01058 0.0
C314 C 0.22744 0.17209 0.0404 0.0
H315 H 0.2472 0.11173 0.95351 0.0
H316 H 0.1961 0.11316 0.01351 0.0
C317 C 0.26243 0.20433 0.03558 0.0
C318 C 0.7153 0.38143 0.0497 0.0
C319 C 0.7596 0.37215 0.04671 0.0
H320 H 0.65538 0.39084 0.01655 0.0
C321 C 0.77767 0.36614 0.00631 0.0
H322 H 0.70035 0.38629 0.08036 0.0
C323 C 0.75188 0.36872 0.96979 0.0
C324 C 0.7074 0.37742 0.97277 0.0
H325 H 0.81166 0.35897 0.00285 0.0
H326 H 0.7668 0.36347 0.9392 0.0
C327 C 0.68948 0.38407 0.01312 0.0
C328 C 0.24864 0.80259 0.5228 0.0
C329 C 0.27994 0.83773 0.52991 0.0
H330 H 0.19434 0.77569 0.48542 0.0
C331 C 0.27977 0.87394 0.50347 0.0
H332 H 0.24756 0.77439 0.54288 0.0
C333 C 0.24933 0.87453 0.47001 0.0
C334 C 0.21797 0.83929 0.46308 0.0
H335 H 0.30343 0.90156 0.50834 0.0
H336 H 0.25031 0.90251 0.44964 0.0
C337 C 0.2178 0.80351 0.49006 0.0
C338 C 0.7864 0.64158 0.55532 0.0
C339 C 0.74048 0.64278 0.55095 0.0
H340 H 0.84854 0.63873 0.52397 0.0
C341 C 0.72188 0.64046 0.51004 0.0
H342 H 0.80182 0.64326 0.58639 0.0
C343 C 0.7487 0.63764 0.47425 0.0
C344 C 0.79474 0.6373 0.47857 0.0
H345 H 0.68664 0.64121 0.50557 0.0
H346 H 0.73334 0.63646 0.44314 0.0
C347 C 0.81324 0.63898 0.51952 0.0
C348 C 0.95116 0.22574 0.07431 0.0
C349 C 0.95194 0.2613 0.10171 0.0
H350 H 0.9837 0.17153 0.05363 0.0
C351 C 0.98817 0.26981 0.12917 0.0
H352 H 0.92374 0.2183 0.05274 0.0
C353 C 0.02223 0.24272 0.13003 0.0
C354 C 0.02113 0.20674 0.10313 0.0
H355 H 0.98972 0.29681 0.15081 0.0
H356 H 0.04935 0.24988 0.15201 0.0
C357 C 0.98551 0.19889 0.07483 0.0
C358 C 0.9664 0.77032 0.36623 0.0
C359 C 0.95702 0.72558 0.36294 0.0
H360 H 0.01588 0.82369 0.36454 0.0
C361 C 0.99206 0.69997 0.35693 0.0
H362 H 0.94015 0.791 0.37087 0.0
C363 C 0.03539 0.71871 0.35336 0.0
C364 C 0.04469 0.76351 0.3556 0.0
H365 H 0.98601 0.66542 0.35433 0.0
H366 H 0.06151 0.69799 0.34819 0.0
C367 C 0.0098 0.78911 0.36253 0.0
C368 C 0.5465 0.78585 0.576 0.0
C369 C 0.54511 0.74971 0.60271 0.0
H370 H 0.51419 0.84021 0.55527 0.0
C371 C 0.50796 0.74025 0.62878 0.0
H372 H 0.57462 0.79402 0.55548 0.0
C373 C 0.47357 0.76699 0.62899 0.0
C374 C 0.4753 0.80358 0.60283 0.0
H375 H 0.50589 0.71276 0.64985 0.0
H376 H 0.44573 0.75909 0.64993 0.0
C377 C 0.51186 0.81237 0.57588 0.0
C378 C 0.92119 1.0027 0.6957 0.0
C379 C 0.89185 0.03393 0.70355 0.0
H380 H 0.94445 0.94313 0.71517 0.0
C381 C 0.8642 0.0293 0.73941 0.0
H382 H 0.943 0.00538 0.66843 0.0
C383 C 0.86552 0.99404 0.76654 0.0
C384 C 0.89408 0.96225 0.75814 0.0
H385 H 0.84145 0.05297 0.74661 0.0
H386 H 0.84337 0.99124 0.79356 0.0
C387 C 0.92205 0.96706 0.72252 0.0
C388 C 0.17925 0.54627 0.74292 0.0
C389 C 0.14848 0.55568 0.77412 0.0
H390 H 0.19769 0.50219 0.6957 0.0
C391 C 0.1108 0.52684 0.78036 0.0
H392 H 0.20852 0.5679 0.73706 0.0
C393 C 0.10461 0.48893 0.75656 0.0
C394 C 0.13581 0.47925 0.72583 0.0
H395 H 0.0864 0.5332 0.80404 0.0
H396 H 0.07562 0.46699 0.76263 0.0
C397 C 0.17294 0.50862 0.719 0.0
C398 C 0.74752 0.87239 0.01681 0.0
C399 C 0.73187 0.83315 0.03568 0.0
H400 H 0.78604 0.90383 0.96677 0.0
C401 C 0.74397 0.79483 0.01774 0.0
H402 H 0.73893 0.90249 0.02994 0.0
C403 C 0.7709 0.79559 0.98179 0.0
C404 C 0.78656 0.8347 0.9628 0.0
H405 H 0.73263 0.76402 0.03144 0.0
H406 H 0.77932 0.76534 0.96884 0.0
C407 C 0.77466 0.87315 0.98073 0.0
C408 C 0.26563 0.71225 0.97083 0.0
C409 C 0.23578 0.67794 0.9574 0.0
H410 H 0.31445 0.7355 0.01617 0.0
C411 C 0.23363 0.63913 0.98017 0.0
H412 H 0.26822 0.7426 0.95404 0.0
C413 C 0.26067 0.6349 0.01576 0.0
C414 C 0.28998 0.66956 0.0295 0.0
H415 H 0.21113 0.61202 0.97049 0.0
H416 H 0.25803 0.60477 0.03294 0.0
C417 C 0.29222 0.70818 0.00651 0.0
C418 C 0.73598 0.13369 0.48049 0.0
C419 C 0.72629 0.17213 0.46091 0.0
H420 H 0.77031 0.1044 0.53081 0.0
C421 C 0.74479 0.21128 0.47784 0.0
H422 H 0.72239 0.10297 0.46813 0.0
C423 C 0.77215 0.21209 0.51353 0.0
C424 C 0.78188 0.17378 0.53324 0.0
H425 H 0.73814 0.24152 0.46357 0.0
H426 H 0.78559 0.24294 0.52571 0.0
C427 C 0.76359 0.1345 0.51628 0.0
C428 C 0.25075 0.37097 0.51866 0.0
C429 C 0.2295 0.33436 0.53846 0.0
H430 H 0.29365 0.39555 0.46834 0.0
C431 C 0.23556 0.29375 0.52169 0.0
H432 H 0.24689 0.40272 0.53092 0.0
C433 C 0.2622 0.28967 0.48613 0.0
C434 C 0.28368 0.32608 0.46635 0.0
H435 H 0.21977 0.26485 0.53608 0.0
H436 H 0.26593 0.25775 0.47421 0.0
C437 C 0.2777 0.36685 0.48297 0.0
C438 C 0.04999 0.7915 0.91386 0.0
C439 C 0.04885 0.75448 0.8884 0.0
H440 H 0.0172 0.84617 0.93275 0.0
C441 C 0.01182 0.74401 0.8624 0.0
H442 H 0.07804 0.80047 0.93427 0.0
C443 C 0.97723 0.77051 0.86113 0.0
C444 C 0.97861 0.80783 0.88619 0.0
H445 H 0.00998 0.71586 0.84224 0.0
H446 H 0.94942 0.76176 0.84035 0.0
C447 C 0.01514 0.81774 0.91297 0.0
C448 C 0.03605 0.25947 0.71135 0.0
C449 C 0.05033 0.28238 0.67468 0.0
H450 H 0.98849 0.21344 0.73932 0.0
C451 C 0.02625 0.27516 0.63676 0.0
H452 H 0.05381 0.26411 0.7411 0.0
C453 C 0.98864 0.24566 0.63567 0.0
C454 C 0.97433 0.22301 0.67255 0.0
H455 H 0.03653 0.29215 0.60791 0.0
H456 H 0.97057 0.24093 0.60611 0.0
C457 C 0.99854 0.23026 0.71031 0.0
C458 C 0.51859 0.2215 0.43351 0.0
C459 C 0.53748 0.21032 0.39474 0.0
H460 H 0.47073 0.25666 0.4647 0.0
C461 C 0.52167 0.22715 0.35681 0.0
H462 H 0.53004 0.20919 0.46332 0.0
C463 C 0.48797 0.25465 0.35763 0.0
C464 C 0.46904 0.26583 0.39638 0.0
H465 H 0.53555 0.21938 0.32638 0.0
H466 H 0.47658 0.26692 0.32778 0.0
C467 C 0.48466 0.24884 0.43431 0.0
C468 C 0.67596 0.54713 0.75682 0.0
C469 C 0.64754 0.5551 0.72301 0.0
H470 H 0.69552 0.50219 0.80274 0.0
C471 C 0.61538 0.52243 0.71036 0.0
H472 H 0.70104 0.5716 0.7675 0.0
C473 C 0.61228 0.48242 0.73061 0.0
C474 C 0.64119 0.47431 0.764 0.0
H475 H 0.59298 0.52753 0.68444 0.0
H476 H 0.58748 0.45775 0.7198 0.0
C477 C 0.67279 0.50727 0.77709 0.0
C478 C 0.403 0.03276 0.74526 0.0
C479 C 0.36736 0.04996 0.76552 0.0
H480 H 0.42377 0.98465 0.70305 0.0
C481 C 0.32433 0.03124 0.75773 0.0
H482 H 0.43657 0.04649 0.75053 0.0
C483 C 0.31701 0.99629 0.73029 0.0
C484 C 0.35254 0.97886 0.71017 0.0
H485 H 0.29607 0.04376 0.7726 0.0
H486 H 0.28335 0.98273 0.72519 0.0
C487 C 0.39568 0.9974 0.71799 0.0
C488 C 0.48286 0.2654 0.81543 0.0
C489 C 0.46707 0.23175 0.84253 0.0
H490 H 0.53378 0.31535 0.80246 0.0
C491 C 0.49169 0.22327 0.87892 0.0
H492 H 0.46453 0.27304 0.78732 0.0
C493 C 0.5317 0.24755 0.88758 0.0
C494 C 0.54756 0.28106 0.86026 0.0
H495 H 0.48028 0.19764 0.90051 0.0
H496 H 0.55028 0.23991 0.91552 0.0
C497 C 0.52249 0.2899 0.82429 0.0
C498 C 0.40741 0.51192 0.24879 0.0
C499 C 0.37519 0.52374 0.22002 0.0
H500 H 0.42487 0.46699 0.29603 0.0
C501 C 0.33529 0.49749 0.21653 0.0
H502 H 0.4385 0.53145 0.25233 0.0
C503 C 0.3274 0.46082 0.24173 0.0
C504 C 0.35926 0.44931 0.27097 0.0
H505 H 0.30968 0.50561 0.19481 0.0
H506 H 0.29608 0.44164 0.23837 0.0
C507 C 0.39956 0.47504 0.27395 0.0
C508 C 0.64409 0.01254 0.2675 0.0
C509 C 0.61357 0.04287 0.26039 0.0
H510 H 0.6702 0.95506 0.24631 0.0
C511 C 0.58435 0.03693 0.22576 0.0
H512 H 0.66724 0.01627 0.29372 0.0
C513 C 0.58582 1.00159 0.19869 0.0
C514 C 0.61701 0.9718 0.20527 0.0
H515 H 0.56045 0.05974 0.21941 0.0
H516 H 0.56295 0.99797 0.17224 0.0
C517 C 0.646 0.9776 0.2401 0.0
C518 C 0.51494 0.77194 0.20956 0.0
C519 C 0.53821 0.78155 0.17167 0.0
H520 H 0.46116 0.73539 0.23991 0.0
C521 C 0.52376 0.76024 0.1341 0.0
H522 H 0.52515 0.78761 0.23911 0.0
C523 C 0.48683 0.72986 0.13459 0.0
C524 C 0.46368 0.72034 0.17263 0.0
H525 H 0.54111 0.7668 0.10441 0.0
H526 H 0.47633 0.71405 0.10519 0.0
C527 C 0.47821 0.74179 0.21003 0.0
loop_
_geom_bond_atom_site_label_1
_geom_bond_atom_site_label_2
_geom_bond_distance
_geom_bond_site_symmetry_2
_ccdc_geom_bond_type
C0 O1 1.160 . S
C0 O7 1.185 . S
O1 C0 1.160 . S
O2 Zn3 1.899 . S
O2 C10 1.284 . S
Zn3 O2 1.899 . S
Zn3 O4 2.032 . S
Zn3 O7 2.086 . S
Zn3 O12 1.977 . S
O4 Zn3 2.032 . S
O4 C8 1.278 . S
C5 O6 1.203 . S
C5 O12 1.267 . S
O6 C5 1.203 . S
O7 C0 1.185 . S
O7 Zn3 2.086 . S
C8 O4 1.278 . S
C8 O9 1.211 . S
O9 C8 1.211 . S
C10 O2 1.284 . S
C10 O11 1.273 . S
O11 C10 1.273 . S
O12 Zn3 1.977 . S
O12 C5 1.267 . S
C13 O14 1.160 . S
C13 O20 1.185 . S
O14 C13 1.160 . S
O15 Zn16 1.899 . S
O15 C23 1.284 . S
Zn16 O15 1.899 . S
Zn16 O17 2.032 . S
Zn16 O20 2.086 . S
Zn16 O25 1.977 . S
O17 Zn16 2.032 . S
O17 C21 1.278 . S
C18 O19 1.203 . S
C18 O25 1.267 . S
O19 C18 1.203 . S
O20 C13 1.185 . S
O20 Zn16 2.086 . S
C21 O17 1.278 . S
C21 O22 1.211 . S
O22 C21 1.211 . S
C23 O15 1.284 . S
C23 O24 1.273 . S
O24 C23 1.273 . S
O25 Zn16 1.977 . S
O25 C18 1.267 . S
C26 O27 1.160 . S
C26 O33 1.185 . S
O27 C26 1.160 . S
O28 Zn29 1.899 . S
O28 C36 1.284 . S
Zn29 O28 1.899 . S
Zn29 O30 2.032 . S
Zn29 O33 2.086 . S
Zn29 O38 1.977 . S
O30 Zn29 2.032 . S
O30 C34 1.278 . S
C31 O32 1.203 . S
C31 O38 1.267 . S
O32 C31 1.203 . S
O33 C26 1.185 . S
O33 Zn29 2.086 . S
C34 O30 1.278 . S
C34 O35 1.211 . S
O35 C34 1.211 . S
C36 O28 1.284 . S
C36 O37 1.273 . S
O37 C36 1.273 . S
O38 Zn29 1.977 . S
O38 C31 1.267 . S
C39 O40 1.160 . S
C39 O46 1.185 . S
O40 C39 1.160 . S
O41 Zn42 1.899 . S
O41 C49 1.284 . S
Zn42 O41 1.899 . S
Zn42 O43 2.032 . S
Zn42 O46 2.086 . S
Zn42 O51 1.977 . S
O43 Zn42 2.032 . S
O43 C47 1.278 . S
C44 O45 1.203 . S
C44 O51 1.267 . S
O45 C44 1.203 . S
O46 C39 1.185 . S
O46 Zn42 2.086 . S
C47 O43 1.278 . S
C47 O48 1.211 . S
O48 C47 1.211 . S
C49 O41 1.284 . S
C49 O50 1.273 . S
O50 C49 1.273 . S
O51 Zn42 1.977 . S
O51 C44 1.267 . S
C52 O53 1.160 . S
C52 O59 1.185 . S
O53 C52 1.160 . S
O54 Zn55 1.899 . S
O54 C62 1.284 . S
Zn55 O54 1.899 . S
Zn55 O56 2.032 . S
Zn55 O59 2.086 . S
Zn55 O64 1.977 . S
O56 Zn55 2.032 . S
O56 C60 1.278 . S
C57 O58 1.203 . S
C57 O64 1.267 . S
O58 C57 1.203 . S
O59 C52 1.185 . S
O59 Zn55 2.086 . S
C60 O56 1.278 . S
C60 O61 1.211 . S
O61 C60 1.211 . S
C62 O54 1.284 . S
C62 O63 1.273 . S
O63 C62 1.273 . S
O64 Zn55 1.977 . S
O64 C57 1.267 . S
C65 O66 1.160 . S
C65 O72 1.185 . S
O66 C65 1.160 . S
O67 Zn68 1.899 . S
O67 C75 1.284 . S
Zn68 O67 1.899 . S
Zn68 O69 2.032 . S
Zn68 O72 2.086 . S
Zn68 O77 1.977 . S
O69 Zn68 2.032 . S
O69 C73 1.278 . S
C70 O71 1.203 . S
C70 O77 1.267 . S
O71 C70 1.203 . S
O72 C65 1.185 . S
O72 Zn68 2.086 . S
C73 O69 1.278 . S
C73 O74 1.211 . S
O74 C73 1.211 . S
C75 O67 1.284 . S
C75 O76 1.273 . S
O76 C75 1.273 . S
O77 Zn68 1.977 . S
O77 C70 1.267 . S
C78 O79 1.160 . S
C78 O85 1.185 . S
O79 C78 1.160 . S
O80 Zn81 1.899 . S
O80 C88 1.284 . S
Zn81 O80 1.899 . S
Zn81 O82 2.032 . S
Zn81 O85 2.086 . S
Zn81 O90 1.977 . S
O82 Zn81 2.032 . S
O82 C86 1.278 . S
C83 O84 1.203 . S
C83 O90 1.267 . S
O84 C83 1.203 . S
O85 C78 1.185 . S
O85 Zn81 2.086 . S
C86 O82 1.278 . S
C86 O87 1.211 . S
O87 C86 1.211 . S
C88 O80 1.284 . S
C88 O89 1.273 . S
O89 C88 1.273 . S
O90 Zn81 1.977 . S
O90 C83 1.267 . S
C91 O92 1.160 . S
C91 O98 1.185 . S
O92 C91 1.160 . S
O93 Zn94 1.899 . S
O93 C101 1.284 . S
Zn94 O93 1.899 . S
Zn94 O95 2.032 . S
Zn94 O98 2.086 . S
Zn94 O103 1.977 . S
O95 Zn94 2.032 . S
O95 C99 1.278 . S
C96 O97 1.203 . S
C96 O103 1.267 . S
O97 C96 1.203 . S
O98 C91 1.185 . S
O98 Zn94 2.086 . S
C99 O95 1.278 . S
C99 O100 1.211 . S
O100 C99 1.211 . S
C101 O93 1.284 . S
C101 O102 1.273 . S
O102 C101 1.273 . S
O103 Zn94 1.977 . S
O103 C96 1.267 . S
C104 O105 1.160 . S
C104 O111 1.185 . S
O105 C104 1.160 . S
O106 Zn107 1.899 . S
O106 C114 1.284 . S
Zn107 O106 1.899 . S
Zn107 O108 2.032 . S
Zn107 O111 2.086 . S
Zn107 O116 1.977 . S
O108 Zn107 2.032 . S
O108 C112 1.278 . S
C109 O110 1.203 . S
C109 O116 1.267 . S
O110 C109 1.203 . S
O111 C104 1.185 . S
O111 Zn107 2.086 . S
C112 O108 1.278 . S
C112 O113 1.211 . S
O113 C112 1.211 . S
C114 O106 1.284 . S
C114 O115 1.273 . S
O115 C114 1.273 . S
O116 Zn107 1.977 . S
O116 C109 1.267 . S
C117 O118 1.160 . S
C117 O124 1.185 . S
O118 C117 1.160 . S
O119 Zn120 1.899 . S
O119 C127 1.284 . S
Zn120 O119 1.899 . S
Zn120 O121 2.032 . S
Zn120 O124 2.086 . S
Zn120 O129 1.977 . S
O121 Zn120 2.032 . S
O121 C125 1.278 . S
C122 O123 1.203 . S
C122 O129 1.267 . S
O123 C122 1.203 . S
O124 C117 1.185 . S
O124 Zn120 2.086 . S
C125 O121 1.278 . S
C125 O126 1.211 . S
O126 C125 1.211 . S
C127 O119 1.284 . S
C127 O128 1.273 . S
O128 C127 1.273 . S
O129 Zn120 1.977 . S
O129 C122 1.267 . S
C130 O131 1.160 . S
C130 O137 1.185 . S
O131 C130 1.160 . S
O132 Zn133 1.899 . S
O132 C140 1.284 . S
Zn133 O132 1.899 . S
Zn133 O134 2.032 . S
Zn133 O137 2.086 . S
Zn133 O142 1.977 . S
O134 Zn133 2.032 . S
O134 C138 1.278 . S
C135 O136 1.203 . S
C135 O142 1.267 . S
O136 C135 1.203 . S
O137 C130 1.185 . S
O137 Zn133 2.086 . S
C138 O134 1.278 . S
C138 O139 1.211 . S
O139 C138 1.211 . S
C140 O132 1.284 . S
C140 O141 1.273 . S
O141 C140 1.273 . S
O142 Zn133 1.977 . S
O142 C135 1.267 . S
C143 O144 1.160 . S
C143 O150 1.185 . S
O144 C143 1.160 . S
O145 Zn146 1.899 . S
O145 C153 1.284 . S
Zn146 O145 1.899 . S
Zn146 O147 2.032 . S
Zn146 O150 2.086 . S
Zn146 O155 1.977 . S
O147 Zn146 2.032 . S
O147 C151 1.278 . S
C148 O149 1.203 . S
C148 O155 1.267 . S
O149 C148 1.203 . S
O150 C143 1.185 . S
O150 Zn146 2.086 . S
C151 O147 1.278 . S
C151 O152 1.211 . S
O152 C151 1.211 . S
C153 O145 1.284 . S
C153 O154 1.273 . S
O154 C153 1.273 . S
O155 Zn146 1.977 . S
O155 C148 1.267 . S
C156 O157 1.160 . S
C156 O163 1.185 . S
O157 C156 1.160 . S
O158 Zn159 1.899 . S
O158 C166 1.284 . S
Zn159 O158 1.899 . S
Zn159 O160 2.032 . S
Zn159 O163 2.086 . S
Zn159 O168 1.977 . S
O160 Zn159 2.032 . S
O160 C164 1.278 . S
C161 O162 1.203 . S
C161 O168 1.267 . S
O162 C161 1.203 . S
O163 C156 1.185 . S
O163 Zn159 2.086 . S
C164 O160 1.278 . S
C164 O165 1.211 . S
O165 C164 1.211 . S
C166 O158 1.284 . S
C166 O167 1.273 . S
O167 C166 1.273 . S
O168 Zn159 1.977 . S
O168 C161 1.267 . S
C169 O170 1.160 . S
C169 O176 1.185 . S
O170 C169 1.160 . S
O171 Zn172 1.899 . S
O171 C179 1.284 . S
Zn172 O171 1.899 . S
Zn172 O173 2.032 . S
Zn172 O176 2.086 . S
Zn172 O181 1.977 . S
O173 Zn172 2.032 . S
O173 C177 1.278 . S
C174 O175 1.203 . S
C174 O181 1.267 . S
O175 C174 1.203 . S
O176 C169 1.185 . S
O176 Zn172 2.086 . S
C177 O173 1.278 . S
C177 O178 1.211 . S
O178 C177 1.211 . S
C179 O171 1.284 . S
C179 O180 1.273 . S
O180 C179 1.273 . S
O181 Zn172 1.977 . S
O181 C174 1.267 . S
C182 O183 1.160 . S
C182 O189 1.185 . S
O183 C182 1.160 . S
O184 Zn185 1.899 . S
O184 C192 1.284 . S
Zn185 O184 1.899 . S
Zn185 O186 2.032 . S
Zn185 O189 2.086 . S
Zn185 O194 1.977 . S
O186 Zn185 2.032 . S
O186 C190 1.278 . S
C187 O188 1.203 . S
C187 O194 1.267 . S
O188 C187 1.203 . S
O189 C182 1.185 . S
O189 Zn185 2.086 . S
C190 O186 1.278 . S
C190 O191 1.211 . S
O191 C190 1.211 . S
C192 O184 1.284 . S
C192 O193 1.273 . S
O193 C192 1.273 . S
O194 Zn185 1.977 . S
O194 C187 1.267 . S
C195 O196 1.160 . S
C195 O202 1.185 . S
O196 C195 1.160 . S
O197 Zn198 1.899 . S
O197 C205 1.284 . S
Zn198 O197 1.899 . S
Zn198 O199 2.032 . S
Zn198 O202 2.086 . S
Zn198 O207 1.977 . S
O199 Zn198 2.032 . S
O199 C203 1.278 . S
C200 O201 1.203 . S
C200 O207 1.267 . S
O201 C200 1.203 . S
O202 C195 1.185 . S
O202 Zn198 2.086 . S
C203 O199 1.278 . S
C203 O204 1.211 . S
O204 C203 1.211 . S
C205 O197 1.284 . S
C205 O206 1.273 . S
O206 C205 1.273 . S
O207 Zn198 1.977 . S
O207 C200 1.267 . S
C208 C209 1.387 . S
C208 H212 0.950 . S
C208 C217 1.390 . S
C209 C208 1.387 . S
C209 C211 1.387 . S
H210 C217 0.950 . S
C211 C209 1.387 . S
C211 C213 1.390 . S
C211 H215 0.950 . S
H212 C208 0.950 . S
C213 C211 1.390 . S
C213 C214 1.387 . S
C213 H216 0.950 . S
C214 C213 1.387 . S
C214 C217 1.387 . S
H215 C211 0.950 . S
H216 C213 0.950 . S
C217 C208 1.390 . S
C217 H210 0.950 . S
C217 C214 1.387 . S
C218 C219 1.387 . S
C218 H222 0.950 . S
C218 C227 1.390 . S
C219 C218 1.387 . S
C219 C221 1.387 . S
H220 C227 0.950 . S
C221 C219 1.387 . S
C221 C223 1.390 . S
C221 H225 0.950 . S
H222 C218 0.950 . S
C223 C221 1.390 . S
C223 C224 1.387 . S
C223 H226 0.950 . S
C224 C223 1.387 . S
C224 C227 1.387 . S
H225 C221 0.950 . S
H226 C223 0.950 . S
C227 C218 1.390 . S
C227 H220 0.950 . S
C227 C224 1.387 . S
C228 C229 1.387 . S
C228 H232 0.950 . S
C228 C237 1.390 . S
C229 C228 1.387 . S
C229 C231 1.387 . S
H230 C237 0.950 . S
C231 C229 1.387 . S
C231 C233 1.390 . S
C231 H235 0.950 . S
H232 C228 0.950 . S
C233 C231 1.390 . S
C233 C234 1.387 . S
C233 H236 0.950 . S
C234 C233 1.387 . S
C234 C237 1.387 . S
H235 C231 0.950 . S
H236 C233 0.950 . S
C237 C228 1.390 . S
C237 H230 0.950 . S
C237 C234 1.387 . S
C238 C239 1.387 . S
C238 H242 0.950 . S
C238 C247 1.390 . S
C239 C238 1.387 . S
C239 C241 1.387 . S
H240 C247 0.950 . S
C241 C239 1.387 . S
C241 C243 1.390 . S
C241 H245 0.950 . S
H242 C238 0.950 . S
C243 C241 1.390 . S
C243 C244 1.387 . S
C243 H246 0.950 . S
C244 C243 1.387 . S
C244 C247 1.387 . S
H245 C241 0.950 . S
H246 C243 0.950 . S
C247 C238 1.390 . S
C247 H240 0.950 . S
C247 C244 1.387 . S
C248 C249 1.387 . S
C248 H252 0.950 . S
C248 C257 1.390 . S
C249 C248 1.387 . S
C249 C251 1.387 . S
H250 C257 0.950 . S
C251 C249 1.387 . S
C251 C253 1.390 . S
C251 H255 0.950 . S
H252 C248 0.950 . S
C253 C251 1.390 . S
C253 C254 1.387 . S
C253 H256 0.950 . S
C254 C253 1.387 . S
C254 C257 1.387 . S
H255 C251 0.950 . S
H256 C253 0.950 . S
C257 C248 1.390 . S
C257 H250 0.950 . S
C257 C254 1.387 . S
C258 C259 1.387 . S
C258 H262 0.950 . S
C258 C267 1.390 . S
C259 C258 1.387 . S
C259 C261 1.387 . S
H260 C267 0.950 . S
C261 C259 1.387 . S
C261 C263 1.390 . S
C261 H265 0.950 . S
H262 C258 0.950 . S
C263 C261 1.390 . S
C263 C264 1.387 . S
C263 H266 0.950 . S
C264 C263 1.387 . S
C264 C267 1.387 . S
H265 C261 0.950 . S
H266 C263 0.950 . S
C267 C258 1.390 . S
C267 H260 0.950 . S
C267 C264 1.387 . S
C268 C269 1.387 . S
C268 H272 0.950 . S
C268 C277 1.390 . S
C269 C268 1.387 . S
C269 C271 1.387 . S
H270 C277 0.950 . S
C271 C269 1.387 . S
C271 C273 1.390 . S
C271 H275 0.950 . S
H272 C268 0.950 . S
C273 C271 1.390 . S
C273 C274 1.387 . S
C273 H276 0.950 . S
C274 C273 1.387 . S
C274 C277 1.387 . S
H275 C271 0.950 . S
H276 C273 0.950 . S
C277 C268 1.390 . S
C277 H270 0.950 . S
C277 C274 1.387 . S
C278 C279 1.387 . S
C278 H282 0.950 . S
C278 C287 1.390 . S
C279 C278 1.387 . S
C279 C281 1.387 . S
H280 C287 0.950 . S
C281 C279 1.387 . S
C281 C283 1.390 . S
C281 H285 0.950 . S
H282 C278 0.950 . S
C283 C281 1.390 . S
C283 C284 1.387 . S
C283 H286 0.950 . S
C284 C283 1.387 . S
C284 C287 1.387 . S
H285 C281 0.950 . S
H286 C283 0.950 . S
C287 C278 1.390 . S
C287 H280 0.950 . S
C287 C284 1.387 . S
C288 C289 1.387 . S
C288 H292 0.950 . S
C288 C297 1.390 1_565 S
C289 C288 1.387 . S
C289 C291 1.387 . S
H290 C297 0.950 . S
C291 C289 1.387 . S
C291 C293 1.390 1_565 S
C291 H295 0.950 . S
H292 C288 0.950 . S
C293 C291 1.390 1_545 S
C293 C294 1.387 . S
C293 H296 0.950 . S
C294 C293 1.387 . S
C294 C297 1.387 . S
H295 C291 0.950 . S
H296 C293 0.950 . S
C297 C288 1.390 1_545 S
C297 H290 0.950 . S
C297 C294 1.387 . S
C298 C299 1.387 . S
C298 H302 0.950 . S
C298 C307 1.390 . S
C299 C298 1.387 . S
C299 C301 1.387 . S
H300 C307 0.950 . S
C301 C299 1.387 . S
C301 C303 1.390 . S
C301 H305 0.950 . S
H302 C298 0.950 . S
C303 C301 1.390 . S
C303 C304 1.387 . S
C303 H306 0.950 . S
C304 C303 1.387 . S
C304 C307 1.387 . S
H305 C301 0.950 . S
H306 C303 0.950 . S
C307 C298 1.390 . S
C307 H300 0.950 . S
C307 C304 1.387 . S
C308 C309 1.387 . S
C308 H312 0.950 . S
C308 C317 1.390 1_556 S
C309 C308 1.387 . S
C309 C311 1.387 . S
H310 C317 0.950 . S
C311 C309 1.387 . S
C311 C313 1.390 1_556 S
C311 H315 0.950 . S
H312 C308 0.950 . S
C313 C311 1.390 1_554 S
C313 C314 1.387 . S
C313 H316 0.950 . S
C314 C313 1.387 . S
C314 C317 1.387 . S
H315 C311 0.950 . S
H316 C313 0.950 . S
C317 C308 1.390 1_554 S
C317 H310 0.950 . S
C317 C314 1.387 . S
C318 C319 1.387 . S
C318 H322 0.950 . S
C318 C327 1.390 1_554 S
C319 C318 1.387 . S
C319 C321 1.387 . S
H320 C327 0.950 . S
C321 C319 1.387 . S
C321 C323 1.390 1_554 S
C321 H325 0.950 . S
H322 C318 0.950 . S
C323 C321 1.390 1_556 S
C323 C324 1.387 . S
C323 H326 0.950 . S
C324 C323 1.387 . S
C324 C327 1.387 . S
H325 C321 0.950 . S
H326 C323 0.950 . S
C327 C318 1.390 1_556 S
C327 H320 0.950 . S
C327 C324 1.387 . S
C328 C329 1.387 . S
C328 H332 0.950 . S
C328 C337 1.390 . S
C329 C328 1.387 . S
C329 C331 1.387 . S
H330 C337 0.950 . S
C331 C329 1.387 . S
C331 C333 1.390 . S
C331 H335 0.950 . S
H332 C328 0.950 . S
C333 C331 1.390 . S
C333 C334 1.387 . S
C333 H336 0.950 . S
C334 C333 1.387 . S
C334 C337 1.387 . S
H335 C331 0.950 . S
H336 C333 0.950 . S
C337 C328 1.390 . S
C337 H330 0.950 . S
C337 C334 1.387 . S
C338 C339 1.387 . S
C338 H342 0.950 . S
C338 C347 1.390 . S
C339 C338 1.387 . S
C339 C341 1.387 . S
H340 C347 0.950 . S
C341 C339 1.387 . S
C341 C343 1.390 . S
C341 H345 0.950 . S
H342 C338 0.950 . S
C343 C341 1.390 . S
C343 C344 1.387 . S
C343 H346 0.950 . S
C344 C343 1.387 . S
C344 C347 1.387 . S
H345 C341 0.950 . S
H346 C343 0.950 . S
C347 C338 1.390 . S
C347 H340 0.950 . S
C347 C344 1.387 . S
C348 C349 1.387 . S
C348 H352 0.950 . S
C348 C357 1.390 1_655 S
C349 C348 1.387 . S
C349 C351 1.387 . S
H350 C357 0.950 . S
C351 C349 1.387 . S
C351 C353 1.390 1_655 S
C351 H355 0.950 . S
H352 C348 0.950 . S
C353 C351 1.390 1_455 S
C353 C354 1.387 . S
C353 H356 0.950 . S
C354 C353 1.387 . S
C354 C357 1.387 . S
H355 C351 0.950 . S
H356 C353 0.950 . S
C357 C348 1.390 1_455 S
C357 H350 0.950 . S
C357 C354 1.387 . S
C358 C359 1.387 . S
C358 H362 0.950 . S
C358 C367 1.390 1_655 S
C359 C358 1.387 . S
C359 C361 1.387 . S
H360 C367 0.950 . S
C361 C359 1.387 . S
C361 C363 1.390 1_655 S
C361 H365 0.950 . S
H362 C358 0.950 . S
C363 C361 1.390 1_455 S
C363 C364 1.387 . S
C363 H366 0.950 . S
C364 C363 1.387 . S
C364 C367 1.387 . S
H365 C361 0.950 . S
H366 C363 0.950 . S
C367 C358 1.390 1_455 S
C367 H360 0.950 . S
C367 C364 1.387 . S
C368 C369 1.387 . S
C368 H372 0.950 . S
C368 C377 1.390 . S
C369 C368 1.387 . S
C369 C371 1.387 . S
H370 C377 0.950 . S
C371 C369 1.387 . S
C371 C373 1.390 . S
C371 H375 0.950 . S
H372 C368 0.950 . S
C373 C371 1.390 . S
C373 C374 1.387 . S
C373 H376 0.950 . S
C374 C373 1.387 . S
C374 C377 1.387 . S
H375 C371 0.950 . S
H376 C373 0.950 . S
C377 C368 1.390 . S
C377 H370 0.950 . S
C377 C374 1.387 . S
C378 C379 1.387 . S
C378 H382 0.950 . S
C378 C387 1.390 . S
C379 C378 1.387 . S
C379 C381 1.387 . S
H380 C387 0.950 . S
C381 C379 1.387 . S
C381 C383 1.390 1_545 S
C381 H385 0.950 . S
H382 C378 0.950 . S
C383 C381 1.390 1_565 S
C383 C384 1.387 . S
C383 H386 0.950 . S
C384 C383 1.387 . S
C384 C387 1.387 1_565 S
H385 C381 0.950 . S
H386 C383 0.950 . S
C387 C378 1.390 . S
C387 H380 0.950 . S
C387 C384 1.387 1_545 S
C388 C389 1.387 . S
C388 H392 0.950 . S
C388 C397 1.390 . S
C389 C388 1.387 . S
C389 C391 1.387 . S
H390 C397 0.950 . S
C391 C389 1.387 . S
C391 C393 1.390 . S
C391 H395 0.950 . S
H392 C388 0.950 . S
C393 C391 1.390 . S
C393 C394 1.387 . S
C393 H396 0.950 . S
C394 C393 1.387 . S
C394 C397 1.387 . S
H395 C391 0.950 . S
H396 C393 0.950 . S
C397 C388 1.390 . S
C397 H390 0.950 . S
C397 C394 1.387 . S
C398 C399 1.387 . S
C398 H402 0.950 . S
C398 C407 1.390 1_554 S
C399 C398 1.387 . S
C399 C401 1.387 . S
H400 C407 0.950 . S
C401 C399 1.387 . S
C401 C403 1.390 1_554 S
C401 H405 0.950 . S
H402 C398 0.950 . S
C403 C401 1.390 1_556 S
C403 C404 1.387 . S
C403 H406 0.950 . S
C404 C403 1.387 . S
C404 C407 1.387 . S
H405 C401 0.950 . S
H406 C403 0.950 . S
C407 C398 1.390 1_556 S
C407 H400 0.950 . S
C407 C404 1.387 . S
C408 C409 1.387 . S
C408 H412 0.950 . S
C408 C417 1.390 1_556 S
C409 C408 1.387 . S
C409 C411 1.387 . S
H410 C417 0.950 . S
C411 C409 1.387 . S
C411 C413 1.390 1_556 S
C411 H415 0.950 . S
H412 C408 0.950 . S
C413 C411 1.390 1_554 S
C413 C414 1.387 . S
C413 H416 0.950 . S
C414 C413 1.387 . S
C414 C417 1.387 . S
H415 C411 0.950 . S
H416 C413 0.950 . S
C417 C408 1.390 1_554 S
C417 H410 0.950 . S
C417 C414 1.387 . S
C418 C419 1.387 . S
C418 H422 0.950 . S
C418 C427 1.390 . S
C419 C418 1.387 . S
C419 C421 1.387 . S
H420 C427 0.950 . S
C421 C419 1.387 . S
C421 C423 1.390 . S
C421 H425 0.950 . S
H422 C418 0.950 . S
C423 C421 1.390 . S
C423 C424 1.387 . S
C423 H426 0.950 . S
C424 C423 1.387 . S
C424 C427 1.387 . S
H425 C421 0.950 . S
H426 C423 0.950 . S
C427 C418 1.390 . S
C427 H420 0.950 . S
C427 C424 1.387 . S
C428 C429 1.387 . S
C428 H432 0.950 . S
C428 C437 1.390 . S
C429 C428 1.387 . S
C429 C431 1.387 . S
H430 C437 0.950 . S
C431 C429 1.387 . S
C431 C433 1.390 . S
C431 H435 0.950 . S
H432 C428 0.950 . S
C433 C431 1.390 . S
C433 C434 1.387 . S
C433 H436 0.950 . S
C434 C433 1.387 . S
C434 C437 1.387 . S
H435 C431 0.950 . S
H436 C433 0.950 . S
C437 C428 1.390 . S
C437 H430 0.950 . S
C437 C434 1.387 . S
C438 C439 1.387 . S
C438 H442 0.950 . S
C438 C447 1.390 1_455 S
C439 C438 1.387 . S
C439 C441 1.387 . S
H440 C447 0.950 . S
C441 C439 1.387 . S
C441 C443 1.390 1_455 S
C441 H445 0.950 . S
H442 C438 0.950 . S
C443 C441 1.390 1_655 S
C443 C444 1.387 . S
C443 H446 0.950 . S
C444 C443 1.387 . S
C444 C447 1.387 . S
H445 C441 0.950 . S
H446 C443 0.950 . S
C447 C438 1.390 1_655 S
C447 H440 0.950 . S
C447 C444 1.387 . S
C448 C449 1.387 . S
C448 H452 0.950 . S
C448 C457 1.390 1_455 S
C449 C448 1.387 . S
C449 C451 1.387 . S
H450 C457 0.950 . S
C451 C449 1.387 . S
C451 C453 1.390 1_455 S
C451 H455 0.950 . S
H452 C448 0.950 . S
C453 C451 1.390 1_655 S
C453 C454 1.387 . S
C453 H456 0.950 . S
C454 C453 1.387 . S
C454 C457 1.387 . S
H455 C451 0.950 . S
H456 C453 0.950 . S
C457 C448 1.390 1_655 S
C457 H450 0.950 . S
C457 C454 1.387 . S
C458 C459 1.387 . S
C458 H462 0.950 . S
C458 C467 1.390 . S
C459 C458 1.387 . S
C459 C461 1.387 . S
H460 C467 0.950 . S
C461 C459 1.387 . S
C461 C463 1.390 . S
C461 H465 0.950 . S
H462 C458 0.950 . S
C463 C461 1.390 . S
C463 C464 1.387 . S
C463 H466 0.950 . S
C464 C463 1.387 . S
C464 C467 1.387 . S
H465 C461 0.950 . S
H466 C463 0.950 . S
C467 C458 1.390 . S
C467 H460 0.950 . S
C467 C464 1.387 . S
C468 C469 1.387 . S
C468 H472 0.950 . S
C468 C477 1.390 . S
C469 C468 1.387 . S
C469 C471 1.387 . S
H470 C477 0.950 . S
C471 C469 1.387 . S
C471 C473 1.390 . S
C471 H475 0.950 . S
H472 C468 0.950 . S
C473 C471 1.390 . S
C473 C474 1.387 . S
C473 H476 0.950 . S
C474 C473 1.387 . S
C474 C477 1.387 . S
H475 C471 0.950 . S
H476 C473 0.950 . S
C477 C468 1.390 . S
C477 H470 0.950 . S
C477 C474 1.387 . S
C478 C479 1.387 . S
C478 H482 0.950 . S
C478 C487 1.390 1_545 S
C479 C478 1.387 . S
C479 C481 1.387 . S
H480 C487 0.950 . S
C481 C479 1.387 . S
C481 C483 1.390 1_545 S
C481 H485 0.950 . S
H482 C478 0.950 . S
C483 C481 1.390 1_565 S
C483 C484 1.387 . S
C483 H486 0.950 . S
C484 C483 1.387 . S
C484 C487 1.387 . S
H485 C481 0.950 . S
H486 C483 0.950 . S
C487 C478 1.390 1_565 S
C487 H480 0.950 . S
C487 C484 1.387 . S
C488 C489 1.387 . S
C488 H492 0.950 . S
C488 C497 1.390 . S
C489 C488 1.387 . S
C489 C491 1.387 . S
H490 C497 0.950 . S
C491 C489 1.387 . S
C491 C493 1.390 . S
C491 H495 0.950 . S
H492 C488 0.950 . S
C493 C491 1.390 . S
C493 C494 1.387 . S
C493 H496 0.950 . S
C494 C493 1.387 . S
C494 C497 1.387 . S
H495 C491 0.950 . S
H496 C493 0.950 . S
C497 C488 1.390 . S
C497 H490 0.950 . S
C497 C494 1.387 . S
C498 C499 1.387 . S
C498 H502 0.950 . S
C498 C507 1.390 . S
C499 C498 1.387 . S
C499 C501 1.387 . S
H500 C507 0.950 . S
C501 C499 1.387 . S
C501 C503 1.390 . S
C501 H505 0.950 . S
H502 C498 0.950 . S
C503 C501 1.390 . S
C503 C504 1.387 . S
C503 H506 0.950 . S
C504 C503 1.387 . S
C504 C507 1.387 . S
H505 C501 0.950 . S
H506 C503 0.950 . S
C507 C498 1.390 . S
C507 H500 0.950 . S
C507 C504 1.387 . S
C508 C509 1.387 . S
C508 H512 0.950 . S
C508 C517 1.390 1_545 S
C509 C508 1.387 . S
C509 C511 1.387 1_545 S
H510 C517 0.950 . S
C511 C509 1.387 1_565 S
C511 C513 1.390 . S
C511 H515 0.950 . S
H512 C508 0.950 . S
C513 C511 1.390 . S
C513 C514 1.387 . S
C513 H516 0.950 . S
C514 C513 1.387 . S
C514 C517 1.387 . S
H515 C511 0.950 . S
H516 C513 0.950 . S
C517 C508 1.390 1_565 S
C517 H510 0.950 . S
C517 C514 1.387 . S
C518 C519 1.387 . S
C518 H522 0.950 . S
C518 C527 1.390 . S
C519 C518 1.387 . S
C519 C521 1.387 . S
H520 C527 0.950 . S
C521 C519 1.387 . S
C521 C523 1.390 . S
C521 H525 0.950 . S
H522 C518 0.950 . S
C523 C521 1.390 . S
C523 C524 1.387 . S
C523 H526 0.950 . S
C524 C523 1.387 . S
C524 C527 1.387 . S
H525 C521 0.950 . S
H526 C523 0.950 . S
C527 C518 1.390 . S
C527 H520 0.950 . S
C527 C524 1.387 . S
C209 C8 1.143 . S
C214 C177 1.153 . S
C219 C21 1.144 . S
C224 C125 1.152 . S
C229 C190 1.199 . S
C234 C34 1.199 . S
C239 C47 1.200 . S
C244 C203 1.199 . S
C249 C60 1.144 . S
C254 C86 1.151 . S
C259 C138 1.145 . S
C264 C73 1.150 . S
C269 C151 1.199 . S
C274 C99 1.200 . S
C279 C112 1.200 . S
C284 C164 1.199 . S
C289 C26 1.543 . S
C294 C5 1.554 . S
C299 C18 1.553 . S
C304 C39 1.542 . S
C309 C161 1.576 . S
C314 C10 1.538 . S
C319 C23 1.538 . S
C324 C148 1.576 . S
C329 C62 1.538 . S
C334 C31 1.576 . S
C339 C140 1.538 . S
C344 C44 1.576 . S
C349 C13 1.509 . S
C354 C0 1.509 . S
C359 C49 1.517 . S
C364 C36 1.517 . S
C369 C130 1.509 . S
C374 C52 1.509 . S
C379 C96 1.563 . S
C384 C65 1.587 . S
C389 C78 1.588 . S
C394 C109 1.563 . S
C399 C195 1.564 . S
C404 C75 1.508 . S
C409 C88 1.506 . S
C414 C182 1.564 . S
C419 C127 1.508 . S
C424 C91 1.564 . S
C429 C104 1.564 . S
C434 C179 1.507 . S
C439 C83 1.566 . S
C444 C70 1.566 . S
C449 C114 1.463 . S
C454 C101 1.463 . S
C459 C122 1.566 . S
C464 C174 1.566 . S
C469 C135 1.554 . S
C474 C143 1.543 . S
C479 C156 1.542 . S
C484 C57 1.553 . S
C489 C166 1.519 . S
C494 C153 1.519 . S
C499 C187 1.564 . S
C504 C169 1.587 . S
C509 C117 1.588 . S
C514 C200 1.565 . S
C519 C205 1.463 . S
C524 C192 1.463 . S
