# Generated by pormake.
# Topology wji, (4)-cn, num edge types: 1
# Building blocks:
#     Node 0, Type 0, BuildingBlock: CEKHIL_clean_sbu_0, # of connection points: 4
#     Node 1, Type 0, BuildingBlock: CEKHIL_clean_sbu_0, # of connection points: 4
#     Node 2, Type 0, BuildingBlock: CEKHIL_clean_sbu_0, # of connection points: 4
#     Node 3, Type 0, BuildingBlock: CEKHIL_clean_sbu_0, # of connection points: 4
#     Node 4, Type 0, BuildingBlock: CEKHIL_clean_sbu_0, # of connection points: 4
#     Node 5, Type 0, BuildingBlock: CEKHIL_clean_sbu_0, # of connection points: 4
#     Node 6, Type 0, BuildingBlock: CEKHIL_clean_sbu_0, # of connection points: 4
#     Node 7, Type 0, BuildingBlock: CEKHIL_clean_sbu_0, # of connection points: 4
#     Node 8, Type 0, BuildingBlock: CEKHIL_clean_sbu_0, # of connection points: 4
#     Node 9, Type 0, BuildingBlock: CEKHIL_clean_sbu_0, # of connection points: 4
#     Node 10, Type 0, BuildingBlock: CEKHIL_clean_sbu_0, # of connection points: 4
#     Node 11, Type 0, BuildingBlock: CEKHIL_clean_sbu_0, # of connection points: 4
#     Edge 12, Type (0, 0), BuildingBlock: KIFKEQ_clean_linker_1, # of connection points: 2
#     Edge 13, Type (0, 0), BuildingBlock: KIFKEQ_clean_linker_1, # of connection points: 2
#     Edge 14, Type (0, 0), BuildingBlock: KIFKEQ_clean_linker_1, # of connection points: 2
#     Edge 15, Type (0, 0), BuildingBlock: KIFKEQ_clean_linker_1, # of connection points: 2
#     Edge 16, Type (0, 0), BuildingBlock: KIFKEQ_clean_linker_1, # of connection points: 2
#     Edge 17, Type (0, 0), BuildingBlock: KIFKEQ_clean_linker_1, # of connection points: 2
#     Edge 18, Type (0, 0), BuildingBlock: KIFKEQ_clean_linker_1, # of connection points: 2
#     Edge 19, Type (0, 0), BuildingBlock: KIFKEQ_clean_linker_1, # of connection points: 2
#     Edge 20, Type (0, 0), BuildingBlock: KIFKEQ_clean_linker_1, # of connection points: 2
#     Edge 21, Type (0, 0), BuildingBlock: KIFKEQ_clean_linker_1, # of connection points: 2
#     Edge 22, Type (0, 0), BuildingBlock: KIFKEQ_clean_linker_1, # of connection points: 2
#     Edge 23, Type (0, 0), BuildingBlock: KIFKEQ_clean_linker_1, # of connection points: 2
#     Edge 24, Type (0, 0), BuildingBlock: KIFKEQ_clean_linker_1, # of connection points: 2
#     Edge 25, Type (0, 0), BuildingBlock: KIFKEQ_clean_linker_1, # of connection points: 2
#     Edge 26, Type (0, 0), BuildingBlock: KIFKEQ_clean_linker_1, # of connection points: 2
#     Edge 27, Type (0, 0), BuildingBlock: KIFKEQ_clean_linker_1, # of connection points: 2
#     Edge 28, Type (0, 0), BuildingBlock: KIFKEQ_clean_linker_1, # of connection points: 2
#     Edge 29, Type (0, 0), BuildingBlock: KIFKEQ_clean_linker_1, # of connection points: 2
#     Edge 30, Type (0, 0), BuildingBlock: KIFKEQ_clean_linker_1, # of connection points: 2
#     Edge 31, Type (0, 0), BuildingBlock: KIFKEQ_clean_linker_1, # of connection points: 2
#     Edge 32, Type (0, 0), BuildingBlock: KIFKEQ_clean_linker_1, # of connection points: 2
#     Edge 33, Type (0, 0), BuildingBlock: KIFKEQ_clean_linker_1, # of connection points: 2
#     Edge 34, Type (0, 0), BuildingBlock: KIFKEQ_clean_linker_1, # of connection points: 2
#     Edge 35, Type (0, 0), BuildingBlock: KIFKEQ_clean_linker_1, # of connection points: 2
# Relax obj value: 0.218
# Max RMSD: 0.136
# Mean RMSD: 0.136
data_MOF--net-wji--node1-CEKHIL_clean_sbu_0--edge1-KIFKEQ_clean_linker_1
_symmetry_space_group_name_H-M    P1
_symmetry_Int_Tables_number       1
_symmetry_cell_setting            triclinic
loop_
_symmetry_equiv_pos_as_xyz
'x, y, z'
_cell_length_a     57.542112
_cell_length_b     57.445935
_cell_length_c     23.215345
_cell_angle_alpha  89.979355
_cell_angle_beta   89.966839
_cell_angle_gamma 120.00429
loop_
_atom_site_label
_atom_site_type_symbol
_atom_site_fract_x
_atom_site_fract_y
_atom_site_fract_z
_atom_type_partial_charge
Co0 Co 0.42705 0.32747 0.43971 0.0
O1 O 0.43872 0.31329 0.50131 0.0
O2 O 0.41362 0.28902 0.4286 0.0
C3 C 0.46771 0.36499 0.42793 0.0
O4 O 0.41191 0.33618 0.36727 0.0
Co5 Co 0.42957 0.38255 0.45671 0.0
O6 O 0.41791 0.37804 0.3757 0.0
C7 C 0.38549 0.33325 0.50883 0.0
C8 C 0.4257 0.28999 0.47682 0.0
C9 C 0.41011 0.35634 0.34769 0.0
O10 O 0.39368 0.31857 0.48463 0.0
O11 O 0.39782 0.35891 0.5059 0.0
O12 O 0.46242 0.34267 0.40263 0.0
O13 O 0.44917 0.36343 0.46154 0.0
Co14 Co 0.10477 0.42737 0.60354 0.0
O15 O 0.13067 0.43926 0.66481 0.0
O16 O 0.12811 0.41185 0.5954 0.0
C17 C 0.10992 0.46826 0.58469 0.0
O18 O 0.07987 0.41127 0.53296 0.0
Co19 Co 0.05431 0.43361 0.62245 0.0
O20 O 0.0447 0.41818 0.54432 0.0
C21 C 0.0593 0.39143 0.68336 0.0
C22 C 0.13953 0.42446 0.643 0.0
C23 C 0.05747 0.40918 0.51582 0.0
O24 O 0.0795 0.39581 0.65227 0.0
O25 O 0.04814 0.40588 0.68204 0.0
O26 O 0.12632 0.46144 0.56213 0.0
O27 O 0.09298 0.45153 0.62122 0.0
Co28 Co 0.68015 0.10208 0.77444 0.0
O29 O 0.69435 0.12777 0.83621 0.0
O30 O 0.71857 0.12697 0.76338 0.0
C31 C 0.64304 0.10577 0.76202 0.0
O32 O 0.67125 0.0779 0.70241 0.0
Co33 Co 0.6248 0.04998 0.79302 0.0
O34 O 0.62972 0.0418 0.71299 0.0
C35 C 0.67363 0.0556 0.8477 0.0
C36 C 0.71767 0.13785 0.81205 0.0
C37 C 0.65121 0.05552 0.68421 0.0
O38 O 0.6886 0.07744 0.82007 0.0
O39 O 0.64798 0.04299 0.84621 0.0
O40 O 0.66544 0.12258 0.73681 0.0
O41 O 0.64432 0.08875 0.79605 0.0
Co42 Co 0.58293 0.6791 0.94417 0.0
O43 O 0.56937 0.69339 1.00146 0.0
O44 O 0.59655 0.71754 0.93107 0.0
C45 C 0.54276 0.64142 0.92947 0.0
O46 O 0.60004 0.66965 0.87625 0.0
Co47 Co 0.57983 0.62432 0.9711 0.0
O48 O 0.59438 0.6283 0.89246 0.0
C49 C 0.62044 0.67403 0.02766 0.0
C50 C 0.58301 0.7166 0.977 0.0
C51 C 0.60269 0.64932 0.86154 0.0
O52 O 0.61488 0.68845 0.99454 0.0
O53 O 0.60725 0.64833 0.02863 0.0
O54 O 0.54867 0.6635 0.90222 0.0
O55 O 0.56031 0.64346 0.96649 0.0
Co56 Co 0.90925 0.58379 0.11145 0.0
O57 O 0.88264 0.57137 0.17138 0.0
O58 O 0.88397 0.5968 0.09889 0.0
C59 C 0.90671 0.54344 0.09849 0.0
O60 O 0.93458 0.59991 0.04124 0.0
Co61 Co 0.96148 0.58157 0.13575 0.0
O62 O 0.97126 0.59599 0.05685 0.0
C63 C 0.95315 0.62304 0.19048 0.0
C64 C 0.87258 0.58455 0.14688 0.0
C65 C 0.95775 0.6033 0.02594 0.0
O66 O 0.93256 0.6167 0.15886 0.0
O67 O 0.96581 0.61003 0.19142 0.0
O68 O 0.89001 0.54884 0.07224 0.0
O69 O 0.92277 0.56155 0.13404 0.0
Co70 Co 0.3299 0.9094 0.28215 0.0
O71 O 0.31493 0.88646 0.3485 0.0
O72 O 0.29118 0.88546 0.27311 0.0
C73 C 0.36549 0.90284 0.27489 0.0
O74 O 0.33938 0.93046 0.20527 0.0
Co75 Co 0.38684 0.96001 0.28939 0.0
O76 O 0.3841 0.95878 0.20465 0.0
C77 C 0.33983 0.96113 0.3389 0.0
C78 C 0.29168 0.87605 0.32396 0.0
C79 C 0.36142 0.94738 0.1795 0.0
O80 O 0.32368 0.93729 0.32035 0.0
O81 O 0.36537 0.97284 0.33313 0.0
O82 O 0.34268 0.88591 0.25146 0.0
O83 O 0.36558 0.92197 0.30397 0.0
Co84 Co 0.67956 0.58142 0.39443 0.0
O85 O 0.69351 0.57101 0.33009 0.0
O86 O 0.71792 0.59451 0.40419 0.0
C87 C 0.64226 0.54046 0.40475 0.0
O88 O 0.67128 0.59557 0.46912 0.0
Co89 Co 0.62438 0.57889 0.38186 0.0
O90 O 0.62946 0.58967 0.46349 0.0
C91 C 0.67325 0.62393 0.33045 0.0
C92 C 0.71687 0.58362 0.35427 0.0
C93 C 0.65133 0.59721 0.49042 0.0
O94 O 0.68812 0.61548 0.35255 0.0
O95 O 0.64764 0.61144 0.33422 0.0
O96 O 0.66472 0.54549 0.42874 0.0
O97 O 0.64352 0.55947 0.37306 0.0
Co98 Co 0.10231 0.67876 0.56157 0.0
O99 O 0.12761 0.6949 0.4996 0.0
O100 O 0.1264 0.71725 0.5756 0.0
C101 C 0.10725 0.64212 0.56913 0.0
O102 O 0.07797 0.66711 0.63413 0.0
Co103 Co 0.05137 0.62283 0.53712 0.0
O104 O 0.0464 0.62364 0.62093 0.0
C105 C 0.05486 0.67253 0.49214 0.0
C106 C 0.13727 0.71769 0.52595 0.0
C107 C 0.05769 0.6447 0.65208 0.0
O108 O 0.07679 0.68718 0.51957 0.0
O109 O 0.0428 0.64684 0.49043 0.0
O110 O 0.12401 0.66436 0.5949 0.0
O111 O 0.08994 0.64359 0.53656 0.0
Co112 Co 0.4264 0.0991 0.72461 0.0
O113 O 0.43644 0.12384 0.66117 0.0
O114 O 0.41171 0.12319 0.73445 0.0
C115 C 0.46811 0.10487 0.73458 0.0
O116 O 0.41302 0.07619 0.79895 0.0
Co117 Co 0.43213 0.04824 0.7129 0.0
O118 O 0.42964 0.04802 0.79766 0.0
C119 C 0.38525 0.04897 0.66181 0.0
C120 C 0.42336 0.13401 0.68563 0.0
C121 C 0.41794 0.05886 0.82351 0.0
O122 O 0.39305 0.07257 0.68211 0.0
O123 O 0.39855 0.0367 0.66741 0.0
O124 O 0.46198 0.12137 0.75939 0.0
O125 O 0.4496 0.08664 0.70289 0.0
Co126 Co 0.33092 0.42561 0.88978 0.0
O127 O 0.31631 0.43731 0.82946 0.0
O128 O 0.29255 0.41199 0.90248 0.0
C129 C 0.36824 0.46635 0.90172 0.0
O130 O 0.34061 0.41009 0.96023 0.0
Co131 Co 0.38592 0.42889 0.86549 0.0
O132 O 0.38173 0.41517 0.94497 0.0
C133 C 0.3364 0.3867 0.81132 0.0
C134 C 0.29313 0.42384 0.85408 0.0
C135 C 0.3608 0.40744 0.9758 0.0
O136 O 0.32191 0.39264 0.84316 0.0
O137 O 0.36205 0.40019 0.80995 0.0
O138 O 0.3461 0.46074 0.92815 0.0
O139 O 0.36645 0.44814 0.86676 0.0
Co140 Co 0.90861 0.33027 0.0577 0.0
O141 O 0.88344 0.31637 0.99497 0.0
O142 O 0.88328 0.29191 0.06839 0.0
C143 C 0.90556 0.36786 0.06933 0.0
O144 O 0.93206 0.33862 0.13065 0.0
Co145 Co 0.9613 0.38542 0.04157 0.0
O146 O 0.96832 0.3802 0.12222 0.0
C147 C 0.95609 0.33609 0.98936 0.0
C148 C 0.8729 0.29298 0.01921 0.0
C149 C 0.95422 0.35849 0.1501 0.0
O150 O 0.93326 0.32135 0.01362 0.0
O151 O 0.96931 0.36176 0.99217 0.0
O152 O 0.8883 0.34549 0.09408 0.0
O153 O 0.92268 0.3663 0.03617 0.0
Co154 Co 0.58016 0.90569 0.22771 0.0
O155 O 0.56737 0.87905 0.16779 0.0
O156 O 0.59416 0.88106 0.23792 0.0
C157 C 0.53958 0.90218 0.24312 0.0
O158 O 0.59667 0.93082 0.298 0.0
Co159 Co 0.57651 0.95751 0.20785 0.0
O160 O 0.59057 0.96652 0.28704 0.0
C161 C 0.61941 0.9517 0.15206 0.0
C162 C 0.58109 0.86929 0.19099 0.0
C163 C 0.59901 0.9533 0.31562 0.0
O164 O 0.61243 0.92975 0.17931 0.0
O165 O 0.60664 0.9646 0.1544 0.0
O166 O 0.54567 0.88574 0.26845 0.0
O167 O 0.55726 0.91872 0.20739 0.0
H168 H 0.34866 0.4161 0.08584 0.0
H169 H 0.37278 0.368 0.9878 0.0
H170 H 0.35711 0.39891 0.17534 0.0
H171 H 0.38003 0.34983 0.07619 0.0
H172 H 0.42811 0.35499 0.23946 0.0
H173 H 0.41194 0.36377 0.14927 0.0
H174 H 0.34666 0.364 0.24124 0.0
H175 H 0.3638 0.35645 0.33127 0.0
C176 C 0.35494 0.40122 0.08353 0.0
C177 C 0.36015 0.39347 0.03 0.0
C178 C 0.35984 0.39129 0.13478 0.0
C179 C 0.36972 0.37316 0.13343 0.0
C180 C 0.37321 0.36426 0.07943 0.0
C181 C 0.36874 0.37446 0.0286 0.0
C182 C 0.40987 0.35611 0.23982 0.0
C183 C 0.39696 0.35465 0.29198 0.0
C184 C 0.40054 0.36125 0.18817 0.0
C185 C 0.37796 0.36486 0.18754 0.0
C186 C 0.36434 0.36193 0.23977 0.0
C187 C 0.37389 0.35715 0.29132 0.0
H188 H 0.07715 0.41851 0.40515 0.0
H189 H 0.00696 0.36778 0.5066 0.0
H190 H 0.05068 0.40085 0.31696 0.0
H191 H 0.98067 0.34921 0.41925 0.0
H192 H 0.9354 0.35544 0.25991 0.0
H193 H 0.96113 0.3634 0.34882 0.0
H194 H 0.02628 0.36561 0.25132 0.0
H195 H 1.0008 0.35876 0.16283 0.0
C196 C 0.05631 0.40286 0.4084 0.0
C197 C 0.04411 0.39445 0.46252 0.0
C198 C 0.04101 0.3927 0.35792 0.0
C199 C 0.01324 0.37375 0.36064 0.0
C200 C 1.00169 0.3642 0.41511 0.0
C201 C 0.01686 0.37458 0.46526 0.0
C202 C 0.95486 0.35681 0.25803 0.0
C203 C 0.96602 0.3562 0.20481 0.0
C204 C 0.96976 0.36147 0.30891 0.0
C205 C 0.99609 0.36548 0.30756 0.0
C206 C 0.00643 0.36324 0.25426 0.0
C207 C 0.99167 0.35889 0.20358 0.0
H208 H 0.5881 0.93321 0.4259 0.0
H209 H 0.64139 1.00326 0.32654 0.0
H210 H 0.60568 0.95911 0.51477 0.0
H211 H 0.65999 0.02894 0.41464 0.0
H212 H 0.65636 0.07527 0.57448 0.0
H213 H 0.64763 0.04964 0.48512 0.0
H214 H 0.63995 0.98183 0.58205 0.0
H215 H 0.64743 0.00719 0.67092 0.0
C216 C 0.60427 0.95387 0.42329 0.0
C217 C 0.61346 0.9662 0.36951 0.0
C218 C 0.61441 0.96886 0.47419 0.0
C219 C 0.63416 0.99644 0.47233 0.0
C220 C 0.64439 0.00808 0.4182 0.0
C221 C 0.634 0.99325 0.3676 0.0
C222 C 0.65356 0.05517 0.57619 0.0
C223 C 0.65279 0.04328 0.62938 0.0
C224 C 0.64846 0.04033 0.525 0.0
C225 C 0.64272 0.01333 0.52594 0.0
C226 C 0.64361 1.0022 0.5793 0.0
C227 C 0.64831 0.01688 0.63026 0.0
H228 H 0.65424 0.64497 0.50724 0.0
H229 H 0.65113 0.57821 0.59858 0.0
H230 H 0.64748 0.66277 0.59725 0.0
H231 H 0.64329 0.59518 0.68878 0.0
H232 H 0.64079 0.6354 0.8504 0.0
H233 H 0.65855 0.62731 0.76232 0.0
H234 H 0.61238 0.65343 0.66225 0.0
H235 H 0.59556 0.66262 0.7514 0.0
C236 C 0.65277 0.63448 0.54711 0.0
C237 C 0.65374 0.61053 0.5463 0.0
C238 C 0.64844 0.64443 0.59862 0.0
C239 C 0.6445 0.63039 0.6507 0.0
C240 C 0.64662 0.6069 0.64999 0.0
C241 C 0.65122 0.59711 0.59834 0.0
C242 C 0.63491 0.63998 0.80949 0.0
C243 C 0.61679 0.64965 0.80774 0.0
C244 C 0.64486 0.63503 0.75884 0.0
C245 C 0.63662 0.63916 0.70466 0.0
C246 C 0.61946 0.65017 0.70297 0.0
C247 C 0.60977 0.65552 0.75404 0.0
H248 H 0.06753 0.68473 0.73249 0.0
H249 H 0.01734 0.59948 0.70119 0.0
H250 H 0.04194 0.67972 0.82135 0.0
H251 H 0.99215 0.5949 0.78753 0.0
H252 H 0.93523 0.59403 0.9178 0.0
H253 H 0.95975 0.6083 0.82604 0.0
H254 H 0.03396 0.65575 0.91836 0.0
H255 H 0.00956 0.64146 0.00939 0.0
C256 C 0.05127 0.66502 0.74439 0.0
C257 C 0.04462 0.64262 0.70909 0.0
C258 C 0.03649 0.66218 0.79502 0.0
C259 C 0.01454 0.63699 0.81076 0.0
C260 C 0.00834 0.61472 0.77597 0.0
C261 C 0.02315 0.61741 0.72641 0.0
C262 C 0.95661 0.60816 0.91825 0.0
C263 C 0.97049 0.6165 0.97065 0.0
C264 C 0.97073 0.61618 0.86585 0.0
C265 C 0.99892 0.63295 0.86494 0.0
C266 C 0.01235 0.64297 0.91737 0.0
C267 C 0.99834 0.63468 0.96953 0.0
H268 H 0.36641 0.03699 0.86458 0.0
H269 H 0.44597 0.05437 0.91144 0.0
H270 H 0.34793 0.00692 0.94836 0.0
H271 H 0.42798 0.02527 0.99523 0.0
H272 H 0.39154 0.94863 0.08925 0.0
H273 H 0.40282 0.97719 0.0044 0.0
H274 H 0.34508 1.00048 0.05516 0.0
H275 H 0.33321 0.9709 0.13976 0.0
C276 C 0.38003 0.03524 0.89411 0.0
C277 C 0.40765 0.04812 0.88176 0.0
C278 C 0.36945 0.0178 0.94174 0.0
C279 C 0.38635 0.01297 0.97764 0.0
C280 C 0.41419 0.02771 0.96755 0.0
C281 C 0.42463 0.04483 0.92009 0.0
C282 C 0.38054 0.95907 0.08111 0.0
C283 C 0.36132 0.95732 0.12074 0.0
C284 C 0.38734 0.97588 0.03305 0.0
C285 C 0.37551 0.9919 0.0238 0.0
C286 C 0.3547 0.98857 0.06103 0.0
C287 C 0.34768 0.97141 0.10916 0.0
H288 H 0.6277 0.502 0.48866 0.0
H289 H 0.6008 0.51928 0.32907 0.0
H290 H 0.5859 0.45838 0.49393 0.0
H291 H 0.55968 0.47553 0.33353 0.0
H292 H 0.50523 0.38039 0.3417 0.0
H293 H 0.54863 0.42244 0.33596 0.0
H294 H 0.53302 0.44725 0.4999 0.0
H295 H 0.48952 0.40592 0.50491 0.0
C296 C 0.61297 0.49641 0.45466 0.0
C297 C 0.61738 0.51406 0.40871 0.0
C298 C 0.58915 0.47154 0.45764 0.0
C299 C 0.56976 0.46366 0.41389 0.0
C300 C 0.57443 0.48109 0.36748 0.0
C301 C 0.59785 0.50617 0.36525 0.0
C302 C 0.51111 0.39487 0.37636 0.0
C303 C 0.49397 0.39 0.42351 0.0
C304 C 0.53585 0.41883 0.37311 0.0
C305 C 0.5441 0.43789 0.41772 0.0
C306 C 0.52717 0.43276 0.46525 0.0
C307 C 0.50223 0.40921 0.46781 0.0
H308 H 0.08274 0.48196 0.50936 0.0
H309 H 0.1423 0.51354 0.6436 0.0
H310 H 0.08356 0.52488 0.50383 0.0
H311 H 0.14237 0.55606 0.6409 0.0
H312 H 0.15083 0.63701 0.59458 0.0
H313 H 0.15361 0.59595 0.59307 0.0
H314 H 0.06877 0.5498 0.55458 0.0
H315 H 0.06663 0.59097 0.55274 0.0
C316 C 0.0962 0.49832 0.53722 0.0
C317 C 0.11269 0.49483 0.57634 0.0
C318 C 0.09645 0.52279 0.53481 0.0
C319 C 0.11282 0.54405 0.57242 0.0
C320 C 0.12978 0.54047 0.61068 0.0
C321 C 0.12973 0.51611 0.61247 0.0
C322 C 0.13282 0.618 0.5861 0.0
C323 C 0.10854 0.61715 0.57367 0.0
C324 C 0.13434 0.59441 0.58531 0.0
C325 C 0.11146 0.56937 0.57319 0.0
C326 C 0.08702 0.56864 0.56243 0.0
C327 C 0.08567 0.59225 0.56204 0.0
H328 H 0.50525 0.1278 0.82112 0.0
H329 H 0.49123 0.08746 0.65717 0.0
H330 H 0.54903 0.13008 0.82767 0.0
H331 H 0.53506 0.09052 0.66298 0.0
H332 H 0.62894 0.12925 0.6764 0.0
H333 H 0.58738 0.13136 0.66979 0.0
H334 H 0.56055 0.08908 0.83149 0.0
H335 H 0.60143 0.08622 0.83738 0.0
C336 C 0.51164 0.11969 0.78639 0.0
C337 C 0.49484 0.1073 0.73887 0.0
C338 C 0.53658 0.12098 0.79012 0.0
C339 C 0.54535 0.11059 0.74562 0.0
C340 C 0.52883 0.09886 0.69755 0.0
C341 C 0.5037 0.09695 0.69452 0.0
C342 C 0.61413 0.12042 0.7104 0.0
C343 C 0.61829 0.10741 0.75714 0.0
C344 C 0.59046 0.12165 0.70668 0.0
C345 C 0.57097 0.11054 0.7504 0.0
C346 C 0.5754 0.09802 0.79758 0.0
C347 C 0.59869 0.09621 0.8006 0.0
H348 H 0.52006 0.60054 0.0065 0.0
H349 H 0.50641 0.6259 0.84093 0.0
H350 H 0.47664 0.55931 1.00025 0.0
H351 H 0.46299 0.58397 0.8341 0.0
H352 H 0.40946 0.48825 0.82538 0.0
H353 H 0.45062 0.53184 0.83081 0.0
H354 H 0.42492 0.54737 0.9938 0.0
H355 H 0.38313 0.50383 0.98774 0.0
C356 C 0.50782 0.59723 0.9686 0.0
C357 C 0.51665 0.61636 0.924 0.0
C358 C 0.4829 0.57374 0.96534 0.0
C359 C 0.46652 0.56859 0.91688 0.0
C360 C 0.47534 0.58757 0.87194 0.0
C361 C 0.5001 0.61146 0.87581 0.0
C362 C 0.41253 0.50096 0.86237 0.0
C363 C 0.39317 0.49262 0.90636 0.0
C364 C 0.43598 0.52597 0.86514 0.0
C365 C 0.44082 0.54291 0.91254 0.0
C366 C 0.42157 0.53459 0.95677 0.0
C367 C 0.39775 0.50976 0.95336 0.0
H368 H 0.88268 0.3827 0.15489 0.0
H369 H 0.92627 0.40976 0.99454 0.0
H370 H 0.88183 0.42499 0.16177 0.0
H371 H 0.92466 0.45139 1.00067 0.0
H372 H 0.88548 0.50678 0.0107 0.0
H373 H 0.88393 0.46332 0.00379 0.0
H374 H 0.92319 0.47747 0.16876 0.0
H375 H 0.92553 0.52107 0.175 0.0
C376 C 0.89192 0.39758 0.1211 0.0
C377 C 0.90467 0.39305 0.07441 0.0
C378 C 0.89143 0.42169 0.12502 0.0
C379 C 0.90306 0.44127 0.08153 0.0
C380 C 0.91538 0.4365 0.03446 0.0
C381 C 0.91645 0.41278 0.03125 0.0
C382 C 0.89383 0.50059 0.04531 0.0
C383 C 0.90577 0.51734 0.09317 0.0
C384 C 0.89292 0.47581 0.04139 0.0
C385 C 0.9033 0.4671 0.08598 0.0
C386 C 0.91486 0.48366 0.13412 0.0
C387 C 0.91636 0.50866 0.13738 0.0
H388 H 0.40764 0.92326 0.34859 0.0
H389 H 0.37811 0.87678 0.19236 0.0
H390 H 0.44844 0.92022 0.34249 0.0
H391 H 0.41958 0.87448 0.18542 0.0
H392 H 0.51554 0.91882 0.16616 0.0
H393 H 0.47179 0.91583 0.17393 0.0
H394 H 0.4603 0.87918 0.34154 0.0
H395 H 0.50397 0.88135 0.33308 0.0
C396 C 0.40989 0.91239 0.31292 0.0
C397 C 0.38978 0.90033 0.27078 0.0
C398 C 0.43314 0.91051 0.30975 0.0
C399 C 0.43703 0.89706 0.26366 0.0
C400 C 0.41694 0.88492 0.22144 0.0
C401 C 0.3933 0.88623 0.22539 0.0
C402 C 0.50367 0.91004 0.20466 0.0
C403 C 0.51319 0.90043 0.24921 0.0
C404 C 0.47857 0.90815 0.20879 0.0
C405 C 0.46272 0.89718 0.25814 0.0
C406 C 0.47221 0.88767 0.30298 0.0
C407 C 0.49711 0.88893 0.2982 0.0
H408 H 0.32097 0.38946 0.70404 0.0
H409 H 0.3242 0.33496 0.82685 0.0
H410 H 0.3168 0.35978 0.6262 0.0
H411 H 0.31833 0.30377 0.7491 0.0
H412 H 0.38237 0.31169 0.61325 0.0
H413 H 0.35293 0.31001 0.68949 0.0
H414 H 0.30551 0.32443 0.56493 0.0
H415 H 0.33674 0.32818 0.48943 0.0
C416 C 0.31925 0.37024 0.71435 0.0
C417 C 0.32331 0.36449 0.77065 0.0
C418 C 0.31667 0.35294 0.66969 0.0
C419 C 0.3182 0.32959 0.68085 0.0
C420 C 0.31805 0.322 0.73865 0.0
C421 C 0.32115 0.33965 0.78329 0.0
C422 C 0.36493 0.31329 0.60205 0.0
C423 C 0.36197 0.32063 0.54631 0.0
C424 C 0.3478 0.31221 0.64579 0.0
C425 C 0.32737 0.31832 0.63399 0.0
C426 C 0.32171 0.32081 0.57602 0.0
C427 C 0.33937 0.32269 0.5326 0.0
H428 H 1.00023 0.33174 0.00761 0.0
H429 H 0.93726 0.31419 0.88543 0.0
H430 H 0.02795 0.32926 0.93097 0.0
H431 H 0.96524 0.3137 0.8081 0.0
H432 H 0.07567 0.39568 0.79262 0.0
H433 H 0.05027 0.36595 0.87068 0.0
H434 H 0.99448 0.30849 0.74769 0.0
H435 H 0.0198 0.33957 0.66952 0.0
C436 C 0.99197 0.32621 0.96458 0.0
C437 C 0.96701 0.32359 0.95163 0.0
C438 C 0.00787 0.32505 0.92053 0.0
C439 C 0.99948 0.3227 0.8628 0.0
C440 C 0.97271 0.31586 0.85168 0.0
C441 C 0.95654 0.31622 0.89603 0.0
C442 C 0.05855 0.37622 0.78244 0.0
C443 C 0.04929 0.36987 0.72587 0.0
C444 C 0.04396 0.35888 0.82716 0.0
C445 C 0.01973 0.3349 0.81587 0.0
C446 C 0.01259 0.32708 0.7581 0.0
C447 C 0.02709 0.3447 0.71332 0.0
H448 H 0.66941 0.99385 0.16957 0.0
H449 H 0.61969 0.93369 0.04558 0.0
H450 H 0.70088 0.02038 0.09337 0.0
H451 H 0.6495 0.96051 0.96886 0.0
H452 H 0.68134 0.01319 0.83167 0.0
H453 H 0.68489 0.98642 0.90925 0.0
H454 H 0.69331 0.04701 0.03182 0.0
H455 H 0.69177 0.07406 0.95385 0.0
C456 C 0.66584 0.98594 0.12611 0.0
C457 C 0.6422 0.96211 0.11267 0.0
C458 C 0.68365 1.00118 0.08231 0.0
C459 C 0.67728 0.99334 0.02432 0.0
C460 C 0.65533 0.96756 0.01255 0.0
C461 C 0.63797 0.95206 0.05654 0.0
C462 C 0.68547 0.02123 0.87504 0.0
C463 C 0.68598 0.04532 0.88753 0.0
C464 C 0.68719 0.00583 0.91963 0.0
C465 C 0.68809 0.0138 0.97737 0.0
C466 C 0.69245 0.03984 0.98835 0.0
C467 C 0.69145 0.05549 0.9436 0.0
H468 H 0.67274 0.68818 0.01431 0.0
H469 H 0.61577 0.68751 0.13562 0.0
H470 H 0.70319 0.69374 0.09329 0.0
H471 H 0.64484 0.69152 0.21452 0.0
H472 H 0.69596 0.62881 0.22662 0.0
H473 H 0.69732 0.6586 0.15137 0.0
H474 H 0.67988 0.70346 0.27711 0.0
H475 H 0.67644 0.67184 0.35146 0.0
C476 C 0.66734 0.69037 0.05787 0.0
C477 C 0.64204 0.6872 0.06962 0.0
C478 C 0.68458 0.69328 0.10319 0.0
C479 C 0.67619 0.69204 0.16072 0.0
C480 C 0.65229 0.69254 0.17125 0.0
C481 C 0.63535 0.69008 0.12597 0.0
C482 C 0.69361 0.64578 0.23835 0.0
C483 C 0.68551 0.64786 0.29397 0.0
C484 C 0.6945 0.66311 0.1952 0.0
C485 C 0.68748 0.68288 0.20752 0.0
C486 C 0.68421 0.68776 0.26559 0.0
C487 C 0.6825 0.66987 0.30836 0.0
H488 H 0.01124 0.67757 0.51355 0.0
H489 H 0.07314 0.69493 0.38852 0.0
H490 H 0.98398 0.68262 0.43945 0.0
H491 H 0.04565 0.69792 0.31359 0.0
H492 H 0.99271 0.67485 0.17653 0.0
H493 H 0.0178 0.70524 0.25542 0.0
H494 H 0.9594 0.64861 0.37613 0.0
H495 H 0.93404 0.61981 0.29712 0.0
C496 C 0.01935 0.6835 0.47047 0.0
C497 C 0.0439 0.6855 0.45593 0.0
C498 C 1.0037 0.68612 0.42781 0.0
C499 C 0.01185 0.6893 0.36971 0.0
C500 C 0.03828 0.69522 0.35736 0.0
C501 C 0.05419 0.69337 0.40033 0.0
C502 C 0.9847 0.66988 0.21987 0.0
C503 C 0.96183 0.64507 0.23152 0.0
C504 C 0.99915 0.68707 0.2652 0.0
C505 C 0.99147 0.67895 0.32269 0.0
C506 C 0.96635 0.65579 0.33292 0.0
C507 C 0.95168 0.639 0.28756 0.0
H508 H 0.36017 0.01486 0.34937 0.0
H509 H 0.2958 0.93857 0.40949 0.0
H510 H 0.35433 0.03705 0.4318 0.0
H511 H 0.28943 0.96095 0.49244 0.0
H512 H 0.35092 0.99559 0.64952 0.0
H513 H 0.32253 0.97434 0.56715 0.0
H514 H 0.33633 0.05164 0.508 0.0
H515 H 0.3654 0.07306 0.59105 0.0
C516 C 0.34396 1.00302 0.37912 0.0
C517 C 0.32921 0.97492 0.37456 0.0
C518 C 0.3403 0.0158 0.42629 0.0
C519 C 0.32205 1.00061 0.47007 0.0
C520 C 0.30416 0.97309 0.46017 0.0
C521 C 0.30778 0.96026 0.41264 0.0
C522 C 0.34709 0.00793 0.62007 0.0
C523 C 0.36115 0.03601 0.62519 0.0
C524 C 0.33044 0.99569 0.57297 0.0
C525 C 0.32786 0.01142 0.52971 0.0
C526 C 0.33847 0.03908 0.53991 0.0
C527 C 0.35511 0.05135 0.58746 0.0
H528 H 0.46187 0.28974 0.55098 0.0
H529 H 0.38654 0.23652 0.46774 0.0
H530 H 0.45971 0.25176 0.60278 0.0
H531 H 0.3841 0.19825 0.52129 0.0
H532 H 0.3842 0.14849 0.69267 0.0
H533 H 0.38304 0.18521 0.63976 0.0
H534 H 0.4598 0.20768 0.56347 0.0
H535 H 0.4607 0.17107 0.61447 0.0
C536 C 0.44482 0.26988 0.54367 0.0
C537 C 0.42448 0.26613 0.50484 0.0
C538 C 0.44358 0.24815 0.57352 0.0
C539 C 0.42166 0.2221 0.5664 0.0
C540 C 0.40111 0.21819 0.52792 0.0
C541 C 0.40265 0.23999 0.49687 0.0
C542 C 0.40082 0.1614 0.66478 0.0
C543 C 0.42258 0.15694 0.65791 0.0
C544 C 0.40004 0.18218 0.63414 0.0
C545 C 0.42131 0.1992 0.59735 0.0
C546 C 0.44315 0.19491 0.59145 0.0
C547 C 0.44364 0.17393 0.62078 0.0
H548 H 0.24226 0.40597 0.89841 0.0
H549 H 0.28915 0.43536 0.74257 0.0
H550 H 0.20338 0.40303 0.84749 0.0
H551 H 0.25072 0.43228 0.69228 0.0
H552 H 0.16958 0.4023 0.60392 0.0
H553 H 0.2049 0.39899 0.65634 0.0
H554 H 0.1917 0.43617 0.80473 0.0
H555 H 0.15681 0.43958 0.7528 0.0
C556 C 0.24425 0.41167 0.85343 0.0
C557 C 0.26889 0.42112 0.82483 0.0
C558 C 0.22204 0.41003 0.82425 0.0
C559 C 0.22392 0.41733 0.76564 0.0
C560 C 0.24841 0.42617 0.73704 0.0
C561 C 0.27057 0.42819 0.76624 0.0
C562 C 0.1742 0.40966 0.64775 0.0
C563 C 0.16055 0.42144 0.67383 0.0
C564 C 0.19442 0.4078 0.6778 0.0
C565 C 0.2011 0.4173 0.73486 0.0
C566 C 0.1869 0.42839 0.76122 0.0
C567 C 0.16705 0.43057 0.73106 0.0
H568 H 0.85638 0.28982 0.90836 0.0
H569 H 0.84033 0.24183 0.06217 0.0
H570 H 0.82064 0.25147 0.85809 0.0
H571 H 0.80419 0.20315 0.01142 0.0
H572 H 0.72081 0.15521 0.9221 0.0
H573 H 0.75917 0.19096 0.97208 0.0
H574 H 0.80774 0.2059 0.81981 0.0
H575 H 0.769 0.1697 0.76928 0.0
C576 C 0.84523 0.27103 0.93155 0.0
C577 C 0.85113 0.26899 0.98959 0.0
C578 C 0.82486 0.24894 0.90239 0.0
C579 C 0.80954 0.22419 0.93054 0.0
C580 C 0.81552 0.222 0.98854 0.0
C581 C 0.83623 0.24412 0.01764 0.0
C582 C 0.73965 0.16602 0.89905 0.0
C583 C 0.74173 0.15966 0.84138 0.0
C584 C 0.76175 0.18641 0.92806 0.0
C585 C 0.78659 0.2013 0.90016 0.0
C586 C 0.78882 0.1949 0.84249 0.0
C587 C 0.76668 0.17415 0.81353 0.0
H588 H 0.54401 0.83259 0.11884 0.0
H589 H 0.6205 0.85514 0.19678 0.0
H590 H 0.5458 0.79724 0.06478 0.0
H591 H 0.62245 0.81953 0.14134 0.0
H592 H 0.62318 0.76998 0.97486 0.0
H593 H 0.62418 0.80743 0.02904 0.0
H594 H 0.54461 0.75352 0.09369 0.0
H595 H 0.54376 0.7165 0.04096 0.0
C596 C 0.56121 0.82991 0.12466 0.0
C597 C 0.58202 0.84657 0.16253 0.0
C598 C 0.56223 0.80964 0.09353 0.0
C599 C 0.58431 0.80565 0.09852 0.0
C600 C 0.60528 0.8223 0.13626 0.0
C601 C 0.60402 0.84243 0.16846 0.0
C602 C 0.60584 0.76633 1.00011 0.0
C603 C 0.58331 0.74034 0.00328 0.0
C604 C 0.60653 0.78763 0.03165 0.0
C605 C 0.58449 0.78338 0.06581 0.0
C606 C 0.56186 0.7575 0.0677 0.0
C607 C 0.56138 0.73629 0.03732 0.0
H608 H 0.72018 0.57113 0.24262 0.0
H609 H 0.76786 0.60177 0.39691 0.0
H610 H 0.7585 0.57386 0.19186 0.0
H611 H 0.80646 0.60445 0.34574 0.0
H612 H 0.8543 0.56929 0.256 0.0
H613 H 0.81834 0.57159 0.30557 0.0
H614 H 0.80433 0.60641 0.15407 0.0
H615 H 0.84082 0.60419 0.10387 0.0
C616 C 0.73889 0.57852 0.2658 0.0
C617 C 0.74084 0.58604 0.32413 0.0
C618 C 0.76097 0.58031 0.23637 0.0
C619 C 0.78561 0.58939 0.26455 0.0
C620 C 0.7877 0.59718 0.32281 0.0
C621 C 0.76562 0.59571 0.35216 0.0
C622 C 0.84365 0.57749 0.23296 0.0
C623 C 0.8504 0.5864 0.17562 0.0
C624 C 0.82313 0.57903 0.26179 0.0
C625 C 0.80846 0.58928 0.23406 0.0
C626 C 0.81516 0.59828 0.17664 0.0
C627 C 0.83607 0.59706 0.14786 0.0
H628 H 0.15505 0.72297 0.41577 0.0
H629 H 0.16803 0.76873 0.57187 0.0
H630 H 0.19036 0.76241 0.3679 0.0
H631 H 0.20377 0.80869 0.5233 0.0
H632 H 0.28771 0.86029 0.43583 0.0
H633 H 0.24941 0.82403 0.48531 0.0
H634 H 0.20211 0.80702 0.33046 0.0
H635 H 0.24077 0.84352 0.28049 0.0
C636 C 0.1654 0.74153 0.44 0.0
C637 C 0.15874 0.74257 0.49798 0.0
C638 C 0.18556 0.76428 0.41216 0.0
C639 C 0.19992 0.78884 0.44146 0.0
C640 C 0.19321 0.79004 0.49947 0.0
C641 C 0.17271 0.76719 0.52733 0.0
C642 C 0.26912 0.84896 0.41222 0.0
C643 C 0.26742 0.85473 0.35389 0.0
C644 C 0.24704 0.82826 0.44091 0.0
C645 C 0.22262 0.8125 0.41204 0.0
C646 C 0.2207 0.81859 0.35393 0.0
C647 C 0.24281 0.83956 0.32527 0.0
loop_
_geom_bond_atom_site_label_1
_geom_bond_atom_site_label_2
_geom_bond_distance
_geom_bond_site_symmetry_2
_ccdc_geom_bond_type
Co0 O1 2.216 . S
Co0 O2 2.091 . S
Co0 O4 2.004 . S
Co0 O10 2.021 . S
Co0 O12 2.137 . S
Co0 O13 2.244 . S
O1 Co0 2.216 . S
O1 C8 1.247 . S
O2 Co0 2.091 . S
O2 C8 1.261 . S
C3 O12 1.247 . S
C3 O13 1.272 . S
O4 Co0 2.004 . S
O4 C9 1.259 . S
Co5 O6 2.061 . S
Co5 O11 2.052 . S
Co5 O13 2.135 . S
O6 Co5 2.061 . S
O6 C9 1.235 . S
C7 O10 1.238 . S
C7 O11 1.241 . S
C8 O1 1.247 . S
C8 O2 1.261 . S
C9 O4 1.259 . S
C9 O6 1.235 . S
O10 Co0 2.021 . S
O10 C7 1.238 . S
O11 Co5 2.052 . S
O11 C7 1.241 . S
O12 Co0 2.137 . S
O12 C3 1.247 . S
O13 Co0 2.244 . S
O13 C3 1.272 . S
O13 Co5 2.135 . S
Co14 O15 2.216 . S
Co14 O16 2.091 . S
Co14 O18 2.004 . S
Co14 O24 2.021 . S
Co14 O26 2.137 . S
Co14 O27 2.244 . S
O15 Co14 2.216 . S
O15 C22 1.247 . S
O16 Co14 2.091 . S
O16 C22 1.261 . S
C17 O26 1.247 . S
C17 O27 1.272 . S
O18 Co14 2.004 . S
O18 C23 1.259 . S
Co19 O20 2.061 . S
Co19 O25 2.052 . S
Co19 O27 2.135 . S
O20 Co19 2.061 . S
O20 C23 1.235 . S
C21 O24 1.238 . S
C21 O25 1.241 . S
C22 O15 1.247 . S
C22 O16 1.261 . S
C23 O18 1.259 . S
C23 O20 1.235 . S
O24 Co14 2.021 . S
O24 C21 1.238 . S
O25 Co19 2.052 . S
O25 C21 1.241 . S
O26 Co14 2.137 . S
O26 C17 1.247 . S
O27 Co14 2.244 . S
O27 C17 1.272 . S
O27 Co19 2.135 . S
Co28 O29 2.216 . S
Co28 O30 2.091 . S
Co28 O32 2.004 . S
Co28 O38 2.021 . S
Co28 O40 2.137 . S
Co28 O41 2.244 . S
O29 Co28 2.216 . S
O29 C36 1.247 . S
O30 Co28 2.091 . S
O30 C36 1.261 . S
C31 O40 1.247 . S
C31 O41 1.272 . S
O32 Co28 2.004 . S
O32 C37 1.259 . S
Co33 O34 2.061 . S
Co33 O39 2.052 . S
Co33 O41 2.135 . S
O34 Co33 2.061 . S
O34 C37 1.235 . S
C35 O38 1.238 . S
C35 O39 1.241 . S
C36 O29 1.247 . S
C36 O30 1.261 . S
C37 O32 1.259 . S
C37 O34 1.235 . S
O38 Co28 2.021 . S
O38 C35 1.238 . S
O39 Co33 2.052 . S
O39 C35 1.241 . S
O40 Co28 2.137 . S
O40 C31 1.247 . S
O41 Co28 2.244 . S
O41 C31 1.272 . S
O41 Co33 2.135 . S
Co42 O43 2.216 . S
Co42 O44 2.091 . S
Co42 O46 2.004 . S
Co42 O52 2.021 . S
Co42 O54 2.137 . S
Co42 O55 2.244 . S
O43 Co42 2.216 . S
O43 C50 1.247 . S
O44 Co42 2.091 . S
O44 C50 1.261 . S
C45 O54 1.247 . S
C45 O55 1.272 . S
O46 Co42 2.004 . S
O46 C51 1.259 . S
Co47 O48 2.061 . S
Co47 O53 2.052 . S
Co47 O55 2.135 . S
O48 Co47 2.061 . S
O48 C51 1.235 . S
C49 O52 1.238 1_554 S
C49 O53 1.241 1_554 S
C50 O43 1.247 . S
C50 O44 1.261 . S
C51 O46 1.259 . S
C51 O48 1.235 . S
O52 Co42 2.021 . S
O52 C49 1.238 1_556 S
O53 Co47 2.052 . S
O53 C49 1.241 1_556 S
O54 Co42 2.137 . S
O54 C45 1.247 . S
O55 Co42 2.244 . S
O55 C45 1.272 . S
O55 Co47 2.135 . S
Co56 O57 2.216 . S
Co56 O58 2.091 . S
Co56 O60 2.004 . S
Co56 O66 2.021 . S
Co56 O68 2.137 . S
Co56 O69 2.244 . S
O57 Co56 2.216 . S
O57 C64 1.247 . S
O58 Co56 2.091 . S
O58 C64 1.261 . S
C59 O68 1.247 . S
C59 O69 1.272 . S
O60 Co56 2.004 . S
O60 C65 1.259 . S
Co61 O62 2.061 . S
Co61 O67 2.052 . S
Co61 O69 2.135 . S
O62 Co61 2.061 . S
O62 C65 1.235 . S
C63 O66 1.238 . S
C63 O67 1.241 . S
C64 O57 1.247 . S
C64 O58 1.261 . S
C65 O60 1.259 . S
C65 O62 1.235 . S
O66 Co56 2.021 . S
O66 C63 1.238 . S
O67 Co61 2.052 . S
O67 C63 1.241 . S
O68 Co56 2.137 . S
O68 C59 1.247 . S
O69 Co56 2.244 . S
O69 C59 1.272 . S
O69 Co61 2.135 . S
Co70 O71 2.216 . S
Co70 O72 2.091 . S
Co70 O74 2.004 . S
Co70 O80 2.021 . S
Co70 O82 2.137 . S
Co70 O83 2.244 . S
O71 Co70 2.216 . S
O71 C78 1.247 . S
O72 Co70 2.091 . S
O72 C78 1.261 . S
C73 O82 1.247 . S
C73 O83 1.272 . S
O74 Co70 2.004 . S
O74 C79 1.259 . S
Co75 O76 2.061 . S
Co75 O81 2.052 . S
Co75 O83 2.135 . S
O76 Co75 2.061 . S
O76 C79 1.235 . S
C77 O80 1.238 . S
C77 O81 1.241 . S
C78 O71 1.247 . S
C78 O72 1.261 . S
C79 O74 1.259 . S
C79 O76 1.235 . S
O80 Co70 2.021 . S
O80 C77 1.238 . S
O81 Co75 2.052 . S
O81 C77 1.241 . S
O82 Co70 2.137 . S
O82 C73 1.247 . S
O83 Co70 2.244 . S
O83 C73 1.272 . S
O83 Co75 2.135 . S
Co84 O85 2.216 . S
Co84 O86 2.091 . S
Co84 O88 2.004 . S
Co84 O94 2.021 . S
Co84 O96 2.137 . S
Co84 O97 2.244 . S
O85 Co84 2.216 . S
O85 C92 1.247 . S
O86 Co84 2.091 . S
O86 C92 1.261 . S
C87 O96 1.247 . S
C87 O97 1.272 . S
O88 Co84 2.004 . S
O88 C93 1.259 . S
Co89 O90 2.061 . S
Co89 O95 2.052 . S
Co89 O97 2.135 . S
O90 Co89 2.061 . S
O90 C93 1.235 . S
C91 O94 1.238 . S
C91 O95 1.241 . S
C92 O85 1.247 . S
C92 O86 1.261 . S
C93 O88 1.259 . S
C93 O90 1.235 . S
O94 Co84 2.021 . S
O94 C91 1.238 . S
O95 Co89 2.052 . S
O95 C91 1.241 . S
O96 Co84 2.137 . S
O96 C87 1.247 . S
O97 Co84 2.244 . S
O97 C87 1.272 . S
O97 Co89 2.135 . S
Co98 O99 2.216 . S
Co98 O100 2.091 . S
Co98 O102 2.004 . S
Co98 O108 2.021 . S
Co98 O110 2.137 . S
Co98 O111 2.244 . S
O99 Co98 2.216 . S
O99 C106 1.247 . S
O100 Co98 2.091 . S
O100 C106 1.261 . S
C101 O110 1.247 . S
C101 O111 1.272 . S
O102 Co98 2.004 . S
O102 C107 1.259 . S
Co103 O104 2.061 . S
Co103 O109 2.052 . S
Co103 O111 2.135 . S
O104 Co103 2.061 . S
O104 C107 1.235 . S
C105 O108 1.238 . S
C105 O109 1.241 . S
C106 O99 1.247 . S
C106 O100 1.261 . S
C107 O102 1.259 . S
C107 O104 1.235 . S
O108 Co98 2.021 . S
O108 C105 1.238 . S
O109 Co103 2.052 . S
O109 C105 1.241 . S
O110 Co98 2.137 . S
O110 C101 1.247 . S
O111 Co98 2.244 . S
O111 C101 1.272 . S
O111 Co103 2.135 . S
Co112 O113 2.216 . S
Co112 O114 2.091 . S
Co112 O116 2.004 . S
Co112 O122 2.021 . S
Co112 O124 2.137 . S
Co112 O125 2.244 . S
O113 Co112 2.216 . S
O113 C120 1.247 . S
O114 Co112 2.091 . S
O114 C120 1.261 . S
C115 O124 1.247 . S
C115 O125 1.272 . S
O116 Co112 2.004 . S
O116 C121 1.259 . S
Co117 O118 2.061 . S
Co117 O123 2.052 . S
Co117 O125 2.135 . S
O118 Co117 2.061 . S
O118 C121 1.235 . S
C119 O122 1.238 . S
C119 O123 1.241 . S
C120 O113 1.247 . S
C120 O114 1.261 . S
C121 O116 1.259 . S
C121 O118 1.235 . S
O122 Co112 2.021 . S
O122 C119 1.238 . S
O123 Co117 2.052 . S
O123 C119 1.241 . S
O124 Co112 2.137 . S
O124 C115 1.247 . S
O125 Co112 2.244 . S
O125 C115 1.272 . S
O125 Co117 2.135 . S
Co126 O127 2.216 . S
Co126 O128 2.091 . S
Co126 O130 2.004 . S
Co126 O136 2.021 . S
Co126 O138 2.137 . S
Co126 O139 2.244 . S
O127 Co126 2.216 . S
O127 C134 1.247 . S
O128 Co126 2.091 . S
O128 C134 1.261 . S
C129 O138 1.247 . S
C129 O139 1.272 . S
O130 Co126 2.004 . S
O130 C135 1.259 . S
Co131 O132 2.061 . S
Co131 O137 2.052 . S
Co131 O139 2.135 . S
O132 Co131 2.061 . S
O132 C135 1.235 . S
C133 O136 1.238 . S
C133 O137 1.241 . S
C134 O127 1.247 . S
C134 O128 1.261 . S
C135 O130 1.259 . S
C135 O132 1.235 . S
O136 Co126 2.021 . S
O136 C133 1.238 . S
O137 Co131 2.052 . S
O137 C133 1.241 . S
O138 Co126 2.137 . S
O138 C129 1.247 . S
O139 Co126 2.244 . S
O139 C129 1.272 . S
O139 Co131 2.135 . S
Co140 O141 2.216 . S
Co140 O142 2.091 . S
Co140 O144 2.004 . S
Co140 O150 2.021 . S
Co140 O152 2.137 . S
Co140 O153 2.244 . S
O141 Co140 2.216 . S
O141 C148 1.247 . S
O142 Co140 2.091 . S
O142 C148 1.261 . S
C143 O152 1.247 . S
C143 O153 1.272 . S
O144 Co140 2.004 . S
O144 C149 1.259 . S
Co145 O146 2.061 . S
Co145 O151 2.052 . S
Co145 O153 2.135 . S
O146 Co145 2.061 . S
O146 C149 1.235 . S
C147 O150 1.238 1_556 S
C147 O151 1.241 1_556 S
C148 O141 1.247 . S
C148 O142 1.261 . S
C149 O144 1.259 . S
C149 O146 1.235 . S
O150 Co140 2.021 . S
O150 C147 1.238 1_554 S
O151 Co145 2.052 . S
O151 C147 1.241 1_554 S
O152 Co140 2.137 . S
O152 C143 1.247 . S
O153 Co140 2.244 . S
O153 C143 1.272 . S
O153 Co145 2.135 . S
Co154 O155 2.216 . S
Co154 O156 2.091 . S
Co154 O158 2.004 . S
Co154 O164 2.021 . S
Co154 O166 2.137 . S
Co154 O167 2.244 . S
O155 Co154 2.216 . S
O155 C162 1.247 . S
O156 Co154 2.091 . S
O156 C162 1.261 . S
C157 O166 1.247 . S
C157 O167 1.272 . S
O158 Co154 2.004 . S
O158 C163 1.259 . S
Co159 O160 2.061 . S
Co159 O165 2.052 . S
Co159 O167 2.135 . S
O160 Co159 2.061 . S
O160 C163 1.235 . S
C161 O164 1.238 . S
C161 O165 1.241 . S
C162 O155 1.247 . S
C162 O156 1.261 . S
C163 O158 1.259 . S
C163 O160 1.235 . S
O164 Co154 2.021 . S
O164 C161 1.238 . S
O165 Co159 2.052 . S
O165 C161 1.241 . S
O166 Co154 2.137 . S
O166 C157 1.247 . S
O167 Co154 2.244 . S
O167 C157 1.272 . S
O167 Co159 2.135 . S
H168 C176 0.950 . S
H169 C181 0.950 . S
H170 C178 0.950 . S
H171 C180 0.950 . S
H172 C182 0.950 . S
H173 C184 0.950 . S
H174 C186 0.950 . S
H175 C187 0.950 . S
C176 H168 0.950 . S
C176 C177 1.386 . S
C176 C178 1.391 . S
C177 C176 1.386 . S
C177 C181 1.393 . S
C178 H170 0.950 . S
C178 C176 1.391 . S
C178 C179 1.400 . S
C179 C178 1.400 . S
C179 C180 1.398 . S
C179 C185 1.491 . S
C180 H171 0.950 . S
C180 C179 1.398 . S
C180 C181 1.391 . S
C181 H169 0.950 . S
C181 C177 1.393 . S
C181 C180 1.391 . S
C182 H172 0.950 . S
C182 C183 1.386 . S
C182 C184 1.391 . S
C183 C182 1.386 . S
C183 C187 1.393 . S
C184 H173 0.950 . S
C184 C182 1.391 . S
C184 C185 1.400 . S
C185 C179 1.491 . S
C185 C184 1.400 . S
C185 C186 1.398 . S
C186 H174 0.950 . S
C186 C185 1.398 . S
C186 C187 1.391 . S
C187 H175 0.950 . S
C187 C183 1.393 . S
C187 C186 1.391 . S
H188 C196 0.950 . S
H189 C201 0.950 . S
H190 C198 0.950 . S
H191 C200 0.950 1_655 S
H192 C202 0.950 . S
H193 C204 0.950 . S
H194 C206 0.950 1_455 S
H195 C207 0.950 . S
C196 H188 0.950 . S
C196 C197 1.386 . S
C196 C198 1.391 . S
C197 C196 1.386 . S
C197 C201 1.393 . S
C198 H190 0.950 . S
C198 C196 1.391 . S
C198 C199 1.400 . S
C199 C198 1.400 . S
C199 C200 1.398 . S
C199 C205 1.491 1_455 S
C200 H191 0.950 1_455 S
C200 C199 1.398 . S
C200 C201 1.391 . S
C201 H189 0.950 . S
C201 C197 1.393 . S
C201 C200 1.391 . S
C202 H192 0.950 . S
C202 C203 1.386 . S
C202 C204 1.391 . S
C203 C202 1.386 . S
C203 C207 1.393 . S
C204 H193 0.950 . S
C204 C202 1.391 . S
C204 C205 1.400 . S
C205 C199 1.491 1_655 S
C205 C204 1.400 . S
C205 C206 1.398 . S
C206 H194 0.950 1_655 S
C206 C205 1.398 . S
C206 C207 1.391 . S
C207 H195 0.950 . S
C207 C203 1.393 . S
C207 C206 1.391 . S
H208 C216 0.950 . S
H209 C221 0.950 . S
H210 C218 0.950 . S
H211 C220 0.950 1_545 S
H212 C222 0.950 . S
H213 C224 0.950 . S
H214 C226 0.950 1_565 S
H215 C227 0.950 . S
C216 H208 0.950 . S
C216 C217 1.386 . S
C216 C218 1.391 . S
C217 C216 1.386 . S
C217 C221 1.393 . S
C218 H210 0.950 . S
C218 C216 1.391 . S
C218 C219 1.400 . S
C219 C218 1.400 . S
C219 C220 1.398 . S
C219 C225 1.491 1_565 S
C220 H211 0.950 1_565 S
C220 C219 1.398 . S
C220 C221 1.391 . S
C221 H209 0.950 . S
C221 C217 1.393 . S
C221 C220 1.391 . S
C222 H212 0.950 . S
C222 C223 1.386 . S
C222 C224 1.391 . S
C223 C222 1.386 . S
C223 C227 1.393 . S
C224 H213 0.950 . S
C224 C222 1.391 . S
C224 C225 1.400 . S
C225 C219 1.491 1_545 S
C225 C224 1.400 . S
C225 C226 1.398 . S
C226 H214 0.950 1_545 S
C226 C225 1.398 . S
C226 C227 1.391 . S
C227 H215 0.950 . S
C227 C223 1.393 . S
C227 C226 1.391 . S
H228 C236 0.950 . S
H229 C241 0.950 . S
H230 C238 0.950 . S
H231 C240 0.950 . S
H232 C242 0.950 . S
H233 C244 0.950 . S
H234 C246 0.950 . S
H235 C247 0.950 . S
C236 H228 0.950 . S
C236 C237 1.386 . S
C236 C238 1.391 . S
C237 C236 1.386 . S
C237 C241 1.393 . S
C238 H230 0.950 . S
C238 C236 1.391 . S
C238 C239 1.400 . S
C239 C238 1.400 . S
C239 C240 1.398 . S
C239 C245 1.491 . S
C240 H231 0.950 . S
C240 C239 1.398 . S
C240 C241 1.391 . S
C241 H229 0.950 . S
C241 C237 1.393 . S
C241 C240 1.391 . S
C242 H232 0.950 . S
C242 C243 1.386 . S
C242 C244 1.391 . S
C243 C242 1.386 . S
C243 C247 1.393 . S
C244 H233 0.950 . S
C244 C242 1.391 . S
C244 C245 1.400 . S
C245 C239 1.491 . S
C245 C244 1.400 . S
C245 C246 1.398 . S
C246 H234 0.950 . S
C246 C245 1.398 . S
C246 C247 1.391 . S
C247 H235 0.950 . S
C247 C243 1.393 . S
C247 C246 1.391 . S
H248 C256 0.950 . S
H249 C261 0.950 . S
H250 C258 0.950 . S
H251 C260 0.950 1_655 S
H252 C262 0.950 . S
H253 C264 0.950 . S
H254 C266 0.950 1_455 S
H255 C267 0.950 . S
C256 H248 0.950 . S
C256 C257 1.386 . S
C256 C258 1.391 . S
C257 C256 1.386 . S
C257 C261 1.393 . S
C258 H250 0.950 . S
C258 C256 1.391 . S
C258 C259 1.400 . S
C259 C258 1.400 . S
C259 C260 1.398 . S
C259 C265 1.491 1_455 S
C260 H251 0.950 1_455 S
C260 C259 1.398 . S
C260 C261 1.391 . S
C261 H249 0.950 . S
C261 C257 1.393 . S
C261 C260 1.391 . S
C262 H252 0.950 . S
C262 C263 1.386 . S
C262 C264 1.391 . S
C263 C262 1.386 . S
C263 C267 1.393 . S
C264 H253 0.950 . S
C264 C262 1.391 . S
C264 C265 1.400 . S
C265 C259 1.491 1_655 S
C265 C264 1.400 . S
C265 C266 1.398 . S
C266 H254 0.950 1_655 S
C266 C265 1.398 . S
C266 C267 1.391 . S
C267 H255 0.950 . S
C267 C263 1.393 . S
C267 C266 1.391 . S
H268 C276 0.950 . S
H269 C281 0.950 . S
H270 C278 0.950 . S
H271 C280 0.950 . S
H272 C282 0.950 . S
H273 C284 0.950 . S
H274 C286 0.950 . S
H275 C287 0.950 . S
C276 H268 0.950 . S
C276 C277 1.386 . S
C276 C278 1.391 . S
C277 C276 1.386 . S
C277 C281 1.393 . S
C278 H270 0.950 . S
C278 C276 1.391 . S
C278 C279 1.400 . S
C279 C278 1.400 . S
C279 C280 1.398 . S
C279 C285 1.491 1_546 S
C280 H271 0.950 . S
C280 C279 1.398 . S
C280 C281 1.391 . S
C281 H269 0.950 . S
C281 C277 1.393 . S
C281 C280 1.391 . S
C282 H272 0.950 . S
C282 C283 1.386 . S
C282 C284 1.391 . S
C283 C282 1.386 . S
C283 C287 1.393 . S
C284 H273 0.950 . S
C284 C282 1.391 . S
C284 C285 1.400 . S
C285 C279 1.491 1_564 S
C285 C284 1.400 . S
C285 C286 1.398 . S
C286 H274 0.950 . S
C286 C285 1.398 . S
C286 C287 1.391 . S
C287 H275 0.950 . S
C287 C283 1.393 . S
C287 C286 1.391 . S
H288 C296 0.950 . S
H289 C301 0.950 . S
H290 C298 0.950 . S
H291 C300 0.950 . S
H292 C302 0.950 . S
H293 C304 0.950 . S
H294 C306 0.950 . S
H295 C307 0.950 . S
C296 H288 0.950 . S
C296 C297 1.386 . S
C296 C298 1.391 . S
C297 C296 1.386 . S
C297 C301 1.393 . S
C298 H290 0.950 . S
C298 C296 1.391 . S
C298 C299 1.400 . S
C299 C298 1.400 . S
C299 C300 1.398 . S
C299 C305 1.491 . S
C300 H291 0.950 . S
C300 C299 1.398 . S
C300 C301 1.391 . S
C301 H289 0.950 . S
C301 C297 1.393 . S
C301 C300 1.391 . S
C302 H292 0.950 . S
C302 C303 1.386 . S
C302 C304 1.391 . S
C303 C302 1.386 . S
C303 C307 1.393 . S
C304 H293 0.950 . S
C304 C302 1.391 . S
C304 C305 1.400 . S
C305 C299 1.491 . S
C305 C304 1.400 . S
C305 C306 1.398 . S
C306 H294 0.950 . S
C306 C305 1.398 . S
C306 C307 1.391 . S
C307 H295 0.950 . S
C307 C303 1.393 . S
C307 C306 1.391 . S
H308 C316 0.950 . S
H309 C321 0.950 . S
H310 C318 0.950 . S
H311 C320 0.950 . S
H312 C322 0.950 . S
H313 C324 0.950 . S
H314 C326 0.950 . S
H315 C327 0.950 . S
C316 H308 0.950 . S
C316 C317 1.386 . S
C316 C318 1.391 . S
C317 C316 1.386 . S
C317 C321 1.393 . S
C318 H310 0.950 . S
C318 C316 1.391 . S
C318 C319 1.400 . S
C319 C318 1.400 . S
C319 C320 1.398 . S
C319 C325 1.491 . S
C320 H311 0.950 . S
C320 C319 1.398 . S
C320 C321 1.391 . S
C321 H309 0.950 . S
C321 C317 1.393 . S
C321 C320 1.391 . S
C322 H312 0.950 . S
C322 C323 1.386 . S
C322 C324 1.391 . S
C323 C322 1.386 . S
C323 C327 1.393 . S
C324 H313 0.950 . S
C324 C322 1.391 . S
C324 C325 1.400 . S
C325 C319 1.491 . S
C325 C324 1.400 . S
C325 C326 1.398 . S
C326 H314 0.950 . S
C326 C325 1.398 . S
C326 C327 1.391 . S
C327 H315 0.950 . S
C327 C323 1.393 . S
C327 C326 1.391 . S
H328 C336 0.950 . S
H329 C341 0.950 . S
H330 C338 0.950 . S
H331 C340 0.950 . S
H332 C342 0.950 . S
H333 C344 0.950 . S
H334 C346 0.950 . S
H335 C347 0.950 . S
C336 H328 0.950 . S
C336 C337 1.386 . S
C336 C338 1.391 . S
C337 C336 1.386 . S
C337 C341 1.393 . S
C338 H330 0.950 . S
C338 C336 1.391 . S
C338 C339 1.400 . S
C339 C338 1.400 . S
C339 C340 1.398 . S
C339 C345 1.491 . S
C340 H331 0.950 . S
C340 C339 1.398 . S
C340 C341 1.391 . S
C341 H329 0.950 . S
C341 C337 1.393 . S
C341 C340 1.391 . S
C342 H332 0.950 . S
C342 C343 1.386 . S
C342 C344 1.391 . S
C343 C342 1.386 . S
C343 C347 1.393 . S
C344 H333 0.950 . S
C344 C342 1.391 . S
C344 C345 1.400 . S
C345 C339 1.491 . S
C345 C344 1.400 . S
C345 C346 1.398 . S
C346 H334 0.950 . S
C346 C345 1.398 . S
C346 C347 1.391 . S
C347 H335 0.950 . S
C347 C343 1.393 . S
C347 C346 1.391 . S
H348 C356 0.950 . S
H349 C361 0.950 . S
H350 C358 0.949 . S
H351 C360 0.950 . S
H352 C362 0.950 . S
H353 C364 0.950 . S
H354 C366 0.950 1_554 S
H355 C367 0.950 1_554 S
C356 H348 0.950 . S
C356 C357 1.386 . S
C356 C358 1.391 . S
C357 C356 1.386 . S
C357 C361 1.393 . S
C358 H350 0.949 . S
C358 C356 1.391 . S
C358 C359 1.400 . S
C359 C358 1.400 . S
C359 C360 1.398 . S
C359 C365 1.491 . S
C360 H351 0.950 . S
C360 C359 1.398 . S
C360 C361 1.391 . S
C361 H349 0.950 . S
C361 C357 1.393 . S
C361 C360 1.391 . S
C362 H352 0.950 . S
C362 C363 1.386 . S
C362 C364 1.391 . S
C363 C362 1.386 . S
C363 C367 1.393 . S
C364 H353 0.950 . S
C364 C362 1.391 . S
C364 C365 1.400 . S
C365 C359 1.491 . S
C365 C364 1.400 . S
C365 C366 1.398 . S
C366 H354 0.950 1_556 S
C366 C365 1.398 . S
C366 C367 1.391 . S
C367 H355 0.950 1_556 S
C367 C363 1.393 . S
C367 C366 1.391 . S
H368 C376 0.950 . S
H369 C381 0.950 . S
H370 C378 0.950 . S
H371 C380 0.950 . S
H372 C382 0.950 1_556 S
H373 C384 0.950 . S
H374 C386 0.950 . S
H375 C387 0.950 . S
C376 H368 0.950 . S
C376 C377 1.386 . S
C376 C378 1.391 . S
C377 C376 1.386 . S
C377 C381 1.393 . S
C378 H370 0.950 . S
C378 C376 1.391 . S
C378 C379 1.400 . S
C379 C378 1.400 . S
C379 C380 1.398 . S
C379 C385 1.491 . S
C380 H371 0.950 . S
C380 C379 1.398 . S
C380 C381 1.391 . S
C381 H369 0.950 . S
C381 C377 1.393 . S
C381 C380 1.391 . S
C382 H372 0.950 1_554 S
C382 C383 1.386 . S
C382 C384 1.391 . S
C383 C382 1.386 . S
C383 C387 1.393 . S
C384 H373 0.950 . S
C384 C382 1.391 . S
C384 C385 1.400 . S
C385 C379 1.491 . S
C385 C384 1.400 . S
C385 C386 1.398 . S
C386 H374 0.950 . S
C386 C385 1.398 . S
C386 C387 1.391 . S
C387 H375 0.950 . S
C387 C383 1.393 . S
C387 C386 1.391 . S
H388 C396 0.950 . S
H389 C401 0.950 . S
H390 C398 0.950 . S
H391 C400 0.950 . S
H392 C402 0.950 . S
H393 C404 0.950 . S
H394 C406 0.950 . S
H395 C407 0.950 . S
C396 H388 0.950 . S
C396 C397 1.386 . S
C396 C398 1.391 . S
C397 C396 1.386 . S
C397 C401 1.393 . S
C398 H390 0.950 . S
C398 C396 1.391 . S
C398 C399 1.400 . S
C399 C398 1.400 . S
C399 C400 1.398 . S
C399 C405 1.491 . S
C400 H391 0.950 . S
C400 C399 1.398 . S
C400 C401 1.391 . S
C401 H389 0.950 . S
C401 C397 1.393 . S
C401 C400 1.391 . S
C402 H392 0.950 . S
C402 C403 1.386 . S
C402 C404 1.391 . S
C403 C402 1.386 . S
C403 C407 1.393 . S
C404 H393 0.950 . S
C404 C402 1.391 . S
C404 C405 1.400 . S
C405 C399 1.491 . S
C405 C404 1.400 . S
C405 C406 1.398 . S
C406 H394 0.950 . S
C406 C405 1.398 . S
C406 C407 1.391 . S
C407 H395 0.950 . S
C407 C403 1.393 . S
C407 C406 1.391 . S
H408 C416 0.950 . S
H409 C421 0.950 . S
H410 C418 0.950 . S
H411 C420 0.950 . S
H412 C422 0.950 . S
H413 C424 0.950 . S
H414 C426 0.950 . S
H415 C427 0.950 . S
C416 H408 0.950 . S
C416 C417 1.386 . S
C416 C418 1.391 . S
C417 C416 1.386 . S
C417 C421 1.393 . S
C418 H410 0.950 . S
C418 C416 1.391 . S
C418 C419 1.400 . S
C419 C418 1.400 . S
C419 C420 1.398 . S
C419 C425 1.491 . S
C420 H411 0.950 . S
C420 C419 1.398 . S
C420 C421 1.391 . S
C421 H409 0.950 . S
C421 C417 1.393 . S
C421 C420 1.391 . S
C422 H412 0.950 . S
C422 C423 1.386 . S
C422 C424 1.391 . S
C423 C422 1.386 . S
C423 C427 1.393 . S
C424 H413 0.950 . S
C424 C422 1.391 . S
C424 C425 1.400 . S
C425 C419 1.491 . S
C425 C424 1.400 . S
C425 C426 1.398 . S
C426 H414 0.950 . S
C426 C425 1.398 . S
C426 C427 1.391 . S
C427 H415 0.950 . S
C427 C423 1.393 . S
C427 C426 1.391 . S
H428 C436 0.950 . S
H429 C441 0.950 . S
H430 C438 0.950 . S
H431 C440 0.950 . S
H432 C442 0.950 . S
H433 C444 0.950 . S
H434 C446 0.950 . S
H435 C447 0.950 . S
C436 H428 0.950 . S
C436 C437 1.386 . S
C436 C438 1.391 . S
C437 C436 1.386 . S
C437 C441 1.393 . S
C438 H430 0.950 . S
C438 C436 1.391 . S
C438 C439 1.400 . S
C439 C438 1.400 . S
C439 C440 1.398 . S
C439 C445 1.491 1_655 S
C440 H431 0.950 . S
C440 C439 1.398 . S
C440 C441 1.391 . S
C441 H429 0.950 . S
C441 C437 1.393 . S
C441 C440 1.391 . S
C442 H432 0.950 . S
C442 C443 1.386 . S
C442 C444 1.391 . S
C443 C442 1.386 . S
C443 C447 1.393 . S
C444 H433 0.950 . S
C444 C442 1.391 . S
C444 C445 1.400 . S
C445 C439 1.491 1_455 S
C445 C444 1.400 . S
C445 C446 1.398 . S
C446 H434 0.950 . S
C446 C445 1.398 . S
C446 C447 1.391 . S
C447 H435 0.950 . S
C447 C443 1.393 . S
C447 C446 1.391 . S
H448 C456 0.950 . S
H449 C461 0.950 . S
H450 C458 0.950 1_545 S
H451 C460 0.950 . S
H452 C462 0.950 . S
H453 C464 0.950 1_565 S
H454 C466 0.950 . S
H455 C467 0.950 . S
C456 H448 0.950 . S
C456 C457 1.386 . S
C456 C458 1.391 . S
C457 C456 1.386 . S
C457 C461 1.393 . S
C458 H450 0.950 1_565 S
C458 C456 1.391 . S
C458 C459 1.400 . S
C459 C458 1.400 . S
C459 C460 1.398 . S
C459 C465 1.491 1_564 S
C460 H451 0.950 . S
C460 C459 1.398 . S
C460 C461 1.391 . S
C461 H449 0.950 . S
C461 C457 1.393 . S
C461 C460 1.391 . S
C462 H452 0.950 . S
C462 C463 1.386 . S
C462 C464 1.391 . S
C463 C462 1.386 . S
C463 C467 1.393 . S
C464 H453 0.950 1_545 S
C464 C462 1.391 . S
C464 C465 1.400 . S
C465 C459 1.491 1_546 S
C465 C464 1.400 . S
C465 C466 1.398 . S
C466 H454 0.950 . S
C466 C465 1.398 . S
C466 C467 1.391 . S
C467 H455 0.950 . S
C467 C463 1.393 . S
C467 C466 1.391 . S
H468 C476 0.950 . S
H469 C481 0.950 . S
H470 C478 0.950 . S
H471 C480 0.950 . S
H472 C482 0.950 . S
H473 C484 0.950 . S
H474 C486 0.950 . S
H475 C487 0.950 . S
C476 H468 0.950 . S
C476 C477 1.386 . S
C476 C478 1.391 . S
C477 C476 1.386 . S
C477 C481 1.393 . S
C478 H470 0.950 . S
C478 C476 1.391 . S
C478 C479 1.400 . S
C479 C478 1.400 . S
C479 C480 1.398 . S
C479 C485 1.491 . S
C480 H471 0.950 . S
C480 C479 1.398 . S
C480 C481 1.391 . S
C481 H469 0.950 . S
C481 C477 1.393 . S
C481 C480 1.391 . S
C482 H472 0.950 . S
C482 C483 1.386 . S
C482 C484 1.391 . S
C483 C482 1.386 . S
C483 C487 1.393 . S
C484 H473 0.950 . S
C484 C482 1.391 . S
C484 C485 1.400 . S
C485 C479 1.491 . S
C485 C484 1.400 . S
C485 C486 1.398 . S
C486 H474 0.950 . S
C486 C485 1.398 . S
C486 C487 1.391 . S
C487 H475 0.950 . S
C487 C483 1.393 . S
C487 C486 1.391 . S
H488 C496 0.950 . S
H489 C501 0.950 . S
H490 C498 0.950 1_655 S
H491 C500 0.950 . S
H492 C502 0.950 . S
H493 C504 0.950 1_455 S
H494 C506 0.950 . S
H495 C507 0.950 . S
C496 H488 0.950 . S
C496 C497 1.386 . S
C496 C498 1.391 . S
C497 C496 1.386 . S
C497 C501 1.393 . S
C498 H490 0.950 1_455 S
C498 C496 1.391 . S
C498 C499 1.400 . S
C499 C498 1.400 . S
C499 C500 1.398 . S
C499 C505 1.491 1_455 S
C500 H491 0.950 . S
C500 C499 1.398 . S
C500 C501 1.391 . S
C501 H489 0.950 . S
C501 C497 1.393 . S
C501 C500 1.391 . S
C502 H492 0.950 . S
C502 C503 1.386 . S
C502 C504 1.391 . S
C503 C502 1.386 . S
C503 C507 1.393 . S
C504 H493 0.950 1_655 S
C504 C502 1.391 . S
C504 C505 1.400 . S
C505 C499 1.491 1_655 S
C505 C504 1.400 . S
C505 C506 1.398 . S
C506 H494 0.950 . S
C506 C505 1.398 . S
C506 C507 1.391 . S
C507 H495 0.950 . S
C507 C503 1.393 . S
C507 C506 1.391 . S
H508 C516 0.950 . S
H509 C521 0.950 . S
H510 C518 0.950 1_545 S
H511 C520 0.950 . S
H512 C522 0.950 . S
H513 C524 0.950 1_565 S
H514 C526 0.950 . S
H515 C527 0.950 . S
C516 H508 0.950 . S
C516 C517 1.386 . S
C516 C518 1.391 . S
C517 C516 1.386 . S
C517 C521 1.393 . S
C518 H510 0.950 1_565 S
C518 C516 1.391 . S
C518 C519 1.400 . S
C519 C518 1.400 . S
C519 C520 1.398 . S
C519 C525 1.491 1_565 S
C520 H511 0.950 . S
C520 C519 1.398 . S
C520 C521 1.391 . S
C521 H509 0.950 . S
C521 C517 1.393 . S
C521 C520 1.391 . S
C522 H512 0.950 . S
C522 C523 1.386 . S
C522 C524 1.391 . S
C523 C522 1.386 . S
C523 C527 1.393 . S
C524 H513 0.950 1_545 S
C524 C522 1.391 . S
C524 C525 1.400 . S
C525 C519 1.491 1_545 S
C525 C524 1.400 . S
C525 C526 1.398 . S
C526 H514 0.950 . S
C526 C525 1.398 . S
C526 C527 1.391 . S
C527 H515 0.950 . S
C527 C523 1.393 . S
C527 C526 1.391 . S
H528 C536 0.950 . S
H529 C541 0.950 . S
H530 C538 0.950 . S
H531 C540 0.950 . S
H532 C542 0.950 . S
H533 C544 0.950 . S
H534 C546 0.950 . S
H535 C547 0.950 . S
C536 H528 0.950 . S
C536 C537 1.386 . S
C536 C538 1.391 . S
C537 C536 1.386 . S
C537 C541 1.393 . S
C538 H530 0.950 . S
C538 C536 1.391 . S
C538 C539 1.400 . S
C539 C538 1.400 . S
C539 C540 1.398 . S
C539 C545 1.491 . S
C540 H531 0.950 . S
C540 C539 1.398 . S
C540 C541 1.391 . S
C541 H529 0.950 . S
C541 C537 1.393 . S
C541 C540 1.391 . S
C542 H532 0.950 . S
C542 C543 1.386 . S
C542 C544 1.391 . S
C543 C542 1.386 . S
C543 C547 1.393 . S
C544 H533 0.950 . S
C544 C542 1.391 . S
C544 C545 1.400 . S
C545 C539 1.491 . S
C545 C544 1.400 . S
C545 C546 1.398 . S
C546 H534 0.950 . S
C546 C545 1.398 . S
C546 C547 1.391 . S
C547 H535 0.950 . S
C547 C543 1.393 . S
C547 C546 1.391 . S
H548 C556 0.950 . S
H549 C561 0.950 . S
H550 C558 0.950 . S
H551 C560 0.950 . S
H552 C562 0.950 . S
H553 C564 0.950 . S
H554 C566 0.950 . S
H555 C567 0.950 . S
C556 H548 0.950 . S
C556 C557 1.386 . S
C556 C558 1.391 . S
C557 C556 1.386 . S
C557 C561 1.393 . S
C558 H550 0.950 . S
C558 C556 1.391 . S
C558 C559 1.400 . S
C559 C558 1.400 . S
C559 C560 1.398 . S
C559 C565 1.491 . S
C560 H551 0.950 . S
C560 C559 1.398 . S
C560 C561 1.391 . S
C561 H549 0.950 . S
C561 C557 1.393 . S
C561 C560 1.391 . S
C562 H552 0.950 . S
C562 C563 1.386 . S
C562 C564 1.391 . S
C563 C562 1.386 . S
C563 C567 1.393 . S
C564 H553 0.950 . S
C564 C562 1.391 . S
C564 C565 1.400 . S
C565 C559 1.491 . S
C565 C564 1.400 . S
C565 C566 1.398 . S
C566 H554 0.950 . S
C566 C565 1.398 . S
C566 C567 1.391 . S
C567 H555 0.950 . S
C567 C563 1.393 . S
C567 C566 1.391 . S
H568 C576 0.950 . S
H569 C581 0.950 . S
H570 C578 0.950 . S
H571 C580 0.950 1_554 S
H572 C582 0.950 . S
H573 C584 0.950 . S
H574 C586 0.950 . S
H575 C587 0.950 . S
C576 H568 0.950 . S
C576 C577 1.386 1_556 S
C576 C578 1.391 . S
C577 C576 1.386 1_554 S
C577 C581 1.393 . S
C578 H570 0.950 . S
C578 C576 1.391 . S
C578 C579 1.400 . S
C579 C578 1.400 . S
C579 C580 1.398 . S
C579 C585 1.491 . S
C580 H571 0.950 1_556 S
C580 C579 1.398 . S
C580 C581 1.391 1_556 S
C581 H569 0.950 . S
C581 C577 1.393 . S
C581 C580 1.391 1_554 S
C582 H572 0.950 . S
C582 C583 1.386 . S
C582 C584 1.391 . S
C583 C582 1.386 . S
C583 C587 1.393 . S
C584 H573 0.950 . S
C584 C582 1.391 . S
C584 C585 1.400 . S
C585 C579 1.491 . S
C585 C584 1.400 . S
C585 C586 1.398 . S
C586 H574 0.950 . S
C586 C585 1.398 . S
C586 C587 1.391 . S
C587 H575 0.950 . S
C587 C583 1.393 . S
C587 C586 1.391 . S
H588 C596 0.950 . S
H589 C601 0.950 . S
H590 C598 0.950 . S
H591 C600 0.950 . S
H592 C602 0.950 . S
H593 C604 0.950 . S
H594 C606 0.950 . S
H595 C607 0.950 . S
C596 H588 0.950 . S
C596 C597 1.386 . S
C596 C598 1.391 . S
C597 C596 1.386 . S
C597 C601 1.393 . S
C598 H590 0.950 . S
C598 C596 1.391 . S
C598 C599 1.400 . S
C599 C598 1.400 . S
C599 C600 1.398 . S
C599 C605 1.491 . S
C600 H591 0.950 . S
C600 C599 1.398 . S
C600 C601 1.391 . S
C601 H589 0.950 . S
C601 C597 1.393 . S
C601 C600 1.391 . S
C602 H592 0.950 . S
C602 C603 1.386 1_554 S
C602 C604 1.391 . S
C603 C602 1.386 1_556 S
C603 C607 1.393 1_556 S
C604 H593 0.950 . S
C604 C602 1.391 . S
C604 C605 1.400 . S
C605 C599 1.491 . S
C605 C604 1.400 . S
C605 C606 1.398 . S
C606 H594 0.950 . S
C606 C605 1.398 . S
C606 C607 1.391 . S
C607 H595 0.950 . S
C607 C603 1.393 1_554 S
C607 C606 1.391 . S
H608 C616 0.950 . S
H609 C621 0.950 . S
H610 C618 0.950 . S
H611 C620 0.950 . S
H612 C622 0.950 . S
H613 C624 0.950 . S
H614 C626 0.950 . S
H615 C627 0.950 . S
C616 H608 0.950 . S
C616 C617 1.386 . S
C616 C618 1.391 . S
C617 C616 1.386 . S
C617 C621 1.393 . S
C618 H610 0.950 . S
C618 C616 1.391 . S
C618 C619 1.400 . S
C619 C618 1.400 . S
C619 C620 1.398 . S
C619 C625 1.491 . S
C620 H611 0.950 . S
C620 C619 1.398 . S
C620 C621 1.391 . S
C621 H609 0.950 . S
C621 C617 1.393 . S
C621 C620 1.391 . S
C622 H612 0.950 . S
C622 C623 1.386 . S
C622 C624 1.391 . S
C623 C622 1.386 . S
C623 C627 1.393 . S
C624 H613 0.950 . S
C624 C622 1.391 . S
C624 C625 1.400 . S
C625 C619 1.491 . S
C625 C624 1.400 . S
C625 C626 1.398 . S
C626 H614 0.950 . S
C626 C625 1.398 . S
C626 C627 1.391 . S
C627 H615 0.950 . S
C627 C623 1.393 . S
C627 C626 1.391 . S
H628 C636 0.950 . S
H629 C641 0.950 . S
H630 C638 0.950 . S
H631 C640 0.950 . S
H632 C642 0.950 . S
H633 C644 0.950 . S
H634 C646 0.950 . S
H635 C647 0.950 . S
C636 H628 0.950 . S
C636 C637 1.386 . S
C636 C638 1.391 . S
C637 C636 1.386 . S
C637 C641 1.393 . S
C638 H630 0.950 . S
C638 C636 1.391 . S
C638 C639 1.400 . S
C639 C638 1.400 . S
C639 C640 1.398 . S
C639 C645 1.491 . S
C640 H631 0.950 . S
C640 C639 1.398 . S
C640 C641 1.391 . S
C641 H629 0.950 . S
C641 C637 1.393 . S
C641 C640 1.391 . S
C642 H632 0.950 . S
C642 C643 1.386 . S
C642 C644 1.391 . S
C643 C642 1.386 . S
C643 C647 1.393 . S
C644 H633 0.950 . S
C644 C642 1.391 . S
C644 C645 1.400 . S
C645 C639 1.491 . S
C645 C644 1.400 . S
C645 C646 1.398 . S
C646 H634 0.950 . S
C646 C645 1.398 . S
C646 C647 1.391 . S
C647 H635 0.950 . S
C647 C643 1.393 . S
C647 C646 1.391 . S
C177 C135 1.556 1_554 S
C183 C9 1.544 . S
C197 C23 1.561 . S
C203 C149 1.544 . S
C217 C163 1.559 . S
C223 C37 1.544 . S
C237 C93 1.545 . S
C243 C51 1.562 . S
C257 C107 1.554 . S
C263 C65 1.544 1_556 S
C277 C121 1.550 . S
C283 C79 1.546 . S
C297 C87 1.513 . S
C303 C3 1.524 . S
C317 C17 1.514 . S
C323 C101 1.515 . S
C337 C115 1.512 . S
C343 C31 1.521 . S
C357 C45 1.525 . S
C363 C129 1.515 . S
C377 C143 1.516 . S
C383 C59 1.526 . S
C397 C73 1.522 . S
C403 C157 1.512 . S
C417 C133 1.289 . S
C423 C7 1.311 . S
C437 C147 1.309 . S
C443 C21 1.313 . S
C457 C161 1.309 . S
C463 C35 1.290 . S
C477 C49 1.305 . S
C483 C91 1.316 . S
C497 C105 1.318 . S
C503 C63 1.289 . S
C517 C77 1.318 . S
C523 C119 1.302 . S
C537 C8 1.185 . S
C543 C120 1.185 . S
C557 C134 1.187 . S
C563 C22 1.187 . S
C577 C148 1.194 . S
C583 C36 1.194 . S
C597 C162 1.185 . S
C603 C50 1.185 . S
C617 C92 1.193 . S
C623 C64 1.194 . S
C637 C106 1.193 . S
C643 C78 1.194 . S
