# Generated by pormake.
# Topology snp, (6)-cn, num edge types: 1
# Building blocks:
#     Node 0, Type 0, BuildingBlock: KUMJIN_clean_sbu_0, # of connection points: 6
#     Node 1, Type 0, BuildingBlock: KUMJIN_clean_sbu_0, # of connection points: 6
#     Node 2, Type 0, BuildingBlock: KUMJIN_clean_sbu_0, # of connection points: 6
#     Node 3, Type 0, BuildingBlock: KUMJIN_clean_sbu_0, # of connection points: 6
#     Edge 4, Type (0, 0), BuildingBlock: UVAHIK_clean_linker_0, # of connection points: 2
#     Edge 5, Type (0, 0), BuildingBlock: UVAHIK_clean_linker_0, # of connection points: 2
#     Edge 6, Type (0, 0), BuildingBlock: UVAHIK_clean_linker_0, # of connection points: 2
#     Edge 7, Type (0, 0), BuildingBlock: UVAHIK_clean_linker_0, # of connection points: 2
#     Edge 8, Type (0, 0), BuildingBlock: UVAHIK_clean_linker_0, # of connection points: 2
#     Edge 9, Type (0, 0), BuildingBlock: UVAHIK_clean_linker_0, # of connection points: 2
#     Edge 10, Type (0, 0), BuildingBlock: UVAHIK_clean_linker_0, # of connection points: 2
#     Edge 11, Type (0, 0), BuildingBlock: UVAHIK_clean_linker_0, # of connection points: 2
#     Edge 12, Type (0, 0), BuildingBlock: UVAHIK_clean_linker_0, # of connection points: 2
#     Edge 13, Type (0, 0), BuildingBlock: UVAHIK_clean_linker_0, # of connection points: 2
#     Edge 14, Type (0, 0), BuildingBlock: UVAHIK_clean_linker_0, # of connection points: 2
#     Edge 15, Type (0, 0), BuildingBlock: UVAHIK_clean_linker_0, # of connection points: 2
# Relax obj value: 0.231
# Max RMSD: 0.214
# Mean RMSD: 0.201
data_MOF--net-snp--node1-KUMJIN_clean_sbu_0--edge1-UVAHIK_clean_linker_0
_symmetry_space_group_name_H-M    P1
_symmetry_Int_Tables_number       1
_symmetry_cell_setting            triclinic
loop_
_symmetry_equiv_pos_as_xyz
'x, y, z'
_cell_length_a     32.223547
_cell_length_b     33.3126
_cell_length_c     39.048132
_cell_angle_alpha  113.72641
_cell_angle_beta   106.4862
_cell_angle_gamma 75.884935
loop_
_atom_site_label
_atom_site_type_symbol
_atom_site_fract_x
_atom_site_fract_y
_atom_site_fract_z
_atom_type_partial_charge
Eu0 Eu 0.27147 0.14242 0.11819 0.0
C1 C 0.46184 0.05548 0.12324 0.0
C2 C 0.46202 1.00689 0.05745 0.0
C3 C 0.52581 0.04232 0.09669 0.0
C4 C 0.44039 0.02856 0.08833 0.0
C5 C 0.50506 0.062 0.12794 0.0
C6 C 0.50437 0.01477 0.06154 0.0
C7 C 0.50539 0.10421 0.1948 0.0
N8 N 0.44065 0.07464 0.15287 0.0
C9 C 0.46252 0.09697 0.1888 0.0
C10 C 0.52648 0.08739 0.16412 0.0
Eu11 Eu 0.36627 0.06397 0.13847 0.0
N12 N 0.39947 0.02141 0.08524 0.0
C13 C 0.38053 0.9895 0.0536 0.0
C14 C 0.441 0.97687 1.02373 0.0
C15 C 0.40043 0.96751 1.0221 0.0
H16 H 0.44703 0.10989 0.21297 0.0
H17 H 0.38458 0.94311 0.99669 0.0
H18 H 0.52124 0.99882 0.03797 0.0
H19 H 0.52214 0.12284 0.22311 0.0
H20 H 0.34999 0.9808 0.0523 0.0
H21 H 0.29062 0.29752 0.11093 0.0
H22 H 0.45648 0.95958 0.99937 0.0
H23 H 0.20878 0.1319 0.16833 0.0
H24 H 0.28841 0.21701 0.08769 0.0
H25 H 0.17376 0.17736 0.22321 0.0
H26 H 0.55883 0.04735 0.09967 0.0
H27 H 0.27241 0.34636 0.1736 0.0
H28 H 0.24361 0.35514 0.23013 0.0
H29 H 0.55965 0.0932 0.16887 0.0
H30 H 0.21109 0.32222 0.26077 0.0
N31 N 0.27202 0.21999 0.13786 0.0
C32 C 0.28065 0.23814 0.11519 0.0
C33 C 0.27192 0.31104 0.16373 0.0
C34 C 0.25878 0.29289 0.18496 0.0
C35 C 0.28203 0.28363 0.12828 0.0
C36 C 0.25881 0.24668 0.17085 0.0
H37 H 0.18315 0.25625 0.25741 0.0
N38 N 0.23814 0.18432 0.17152 0.0
C39 C 0.19295 0.19204 0.21391 0.0
C40 C 0.24097 0.22821 0.18817 0.0
C41 C 0.21296 0.16635 0.18285 0.0
C42 C 0.19844 0.2365 0.23322 0.0
C43 C 0.22195 0.2554 0.21995 0.0
O44 O 0.20106 0.13976 0.10075 0.0
O45 O 0.31455 0.07974 0.09064 0.0
O46 O 0.3913 0.11944 0.13566 0.0
O47 O 0.33264 0.17706 0.13965 0.0
O48 O 0.30397 0.12965 0.06981 0.0
O49 O 0.2331 0.15088 0.06482 0.0
O50 O 0.4034 1.00168 0.14443 0.0
O51 O 0.31014 0.11267 0.1611 0.0
O52 O 0.25206 0.08056 0.1195 0.0
O53 O 0.31049 0.02727 0.1014 0.0
O54 O 0.36964 0.11749 0.19816 0.0
O55 O 0.35374 0.03744 0.1769 0.0
C56 C 0.31988 0.08849 0.06347 0.0
C57 C 0.16981 0.11564 1.03395 0.0
C58 C 0.13628 0.09691 0.96592 0.0
C59 C 0.16465 0.12049 0.99888 0.0
C60 C 0.11386 0.06709 0.96822 0.0
C61 C 0.14634 0.08646 1.0359 0.0
C62 C 0.11886 0.06207 1.00311 0.0
C63 C 0.37442 0.16054 0.13901 0.0
C64 C 0.1968 0.14424 0.06841 0.0
C65 C 0.22483 0.30093 0.23597 0.0
C66 C 0.24333 0.31967 0.21852 0.0
C67 C 0.32869 0.13367 0.19483 0.0
C68 C 0.41439 0.99883 0.20641 0.0
C69 C 0.39621 0.99135 0.23166 0.0
C70 C 0.42215 0.98769 0.26625 0.0
C71 C 0.46687 0.9913 0.27509 0.0
C72 C 0.45912 1.0023 0.21576 0.0
C73 C 0.48514 0.99844 0.24993 0.0
C74 C 0.26983 0.03824 0.10613 0.0
C75 C 0.38551 1.00473 0.17146 0.0
H76 H 0.18268 0.14307 0.99736 0.0
H77 H 0.09174 0.04848 0.94337 0.0
H78 H 0.14855 0.08305 0.06277 0.0
H79 H 0.10076 0.03984 1.00494 0.0
H80 H 0.36152 0.98942 0.22471 0.0
H81 H 0.48785 0.98812 0.30127 0.0
H82 H 0.47391 1.00826 0.1969 0.0
H83 H 0.5196 1.00112 0.257 0.0
Eu84 Eu 0.03808 0.2978 0.55357 0.0
C85 C 0.22875 0.24692 0.53542 0.0
C86 C 0.2658 0.17355 0.53396 0.0
C87 C 0.28643 0.20915 0.49921 0.0
C88 C 0.23382 0.21066 0.54611 0.0
C89 C 0.25564 0.24654 0.51222 0.0
C90 C 0.29144 0.17273 0.50998 0.0
C91 C 0.21997 0.32018 0.51592 0.0
N92 N 0.19786 0.28245 0.54761 0.0
C93 C 0.19382 0.31913 0.53851 0.0
C94 C 0.2508 0.28369 0.5025 0.0
Eu95 Eu 0.15558 0.27612 0.5862 0.0
N96 N 0.20872 0.21213 0.56942 0.0
C97 C 0.21666 0.17928 0.58409 0.0
C98 C 0.27191 0.13865 0.54695 0.0
C99 C 0.24769 0.14188 0.5726 0.0
H100 H 0.1695 0.3475 0.54687 0.0
H101 H 0.2531 0.11566 0.58376 0.0
H102 H 0.31582 0.14436 0.50016 0.0
H103 H 0.2158 0.34904 0.50838 0.0
H104 H 0.19935 0.18132 0.60473 0.0
H105 H 0.02987 0.41357 0.69856 0.0
H106 H 0.29607 0.10966 0.53821 0.0
H107 H 0.98752 0.20654 0.5004 0.0
H108 H 0.05665 0.38111 0.63862 0.0
H109 H 0.9408 0.16389 0.50809 0.0
H110 H 0.30685 0.20823 0.48104 0.0
H111 H 0.97849 0.37729 0.70888 0.0
H112 H 0.93628 0.31394 0.68505 0.0
H113 H 0.27063 0.2845 0.48461 0.0
H114 H 0.91453 0.24482 0.63448 0.0
N115 N 0.02087 0.32673 0.61478 0.0
C116 C 0.03422 0.36485 0.64252 0.0
C117 C 0.98985 0.36303 0.68226 0.0
C118 C 0.97621 0.32402 0.65374 0.0
C119 C 0.01901 0.38348 0.67661 0.0
C120 C 0.99202 0.30669 0.61957 0.0
H121 H 0.91676 0.18829 0.56898 0.0
N122 N 0.99481 0.25219 0.55806 0.0
C123 C 0.95207 0.1926 0.53185 0.0
C124 C 0.97953 0.2678 0.59086 0.0
C125 C 0.97963 0.21635 0.52799 0.0
C126 C 0.93832 0.20665 0.56616 0.0
C127 C 0.95119 0.24518 0.59589 0.0
O128 O 0.97489 0.2988 0.51381 0.0
O129 O 0.10305 0.29355 0.54139 0.0
O130 O 0.13806 0.34944 0.59303 0.0
O131 O 0.06247 0.36287 0.57239 0.0
O132 O 0.05269 0.27789 0.49408 0.0
O133 O 0.99546 0.36028 0.55619 0.0
O134 O 0.1634 0.31459 0.64746 0.0
O135 O 0.09017 0.28551 0.60181 0.0
O136 O 0.05958 0.22481 0.52196 0.0
O137 O 0.13646 0.21156 0.54036 0.0
O138 O 0.13447 0.23071 0.6067 0.0
O139 O 0.2204 0.28701 0.62263 0.0
C140 C 0.09398 0.28111 0.50499 0.0
C141 C 0.94714 0.36385 0.49951 0.0
C142 C 0.95334 0.38147 0.44637 0.0
C143 C 0.97255 0.36456 0.47603 0.0
C144 C 0.9087 0.40034 0.44278 0.0
C145 C 0.90316 0.38302 0.49558 0.0
C146 C 0.8842 0.4017 0.46761 0.0
C147 C 0.10126 0.37606 0.58637 0.0
C148 C 0.96543 0.34189 0.52741 0.0
C149 C 0.93603 0.26195 0.63009 0.0
C150 C 0.94828 0.3014 0.65883 0.0
C151 C 0.09618 0.2518 0.61141 0.0
C152 C 0.22873 0.29333 0.68622 0.0
C153 C 0.21602 0.25889 0.69113 0.0
C154 C 0.23662 0.24667 0.72323 0.0
C155 C 0.27115 0.26895 0.74971 0.0
C156 C 0.26332 0.31466 0.71268 0.0
C157 C 0.28457 0.30232 0.74419 0.0
C158 C 0.09818 0.19941 0.51914 0.0
C159 C 0.2059 0.30784 0.65399 0.0
H160 H 1.00687 0.35091 0.48055 0.0
H161 H 0.89173 0.41253 0.4199 0.0
H162 H 0.88334 0.38298 0.51382 0.0
H163 H 0.84998 0.41599 0.4643 0.0
H164 H 0.18987 0.24205 0.6701 0.0
H165 H 0.28717 0.26165 0.77537 0.0
H166 H 0.27363 0.34113 0.70913 0.0
H167 H 0.31101 0.31924 0.76481 0.0
Eu168 Eu 0.85031 0.15064 1.01062 0.0
C169 C 0.77681 1.00995 1.02342 0.0
C170 C 0.71095 0.03673 0.04904 0.0
C171 C 0.71827 0.96486 0.99811 0.0
C172 C 0.75228 0.04278 0.0479 0.0
C173 C 0.76086 0.96973 0.99941 0.0
C174 C 0.69332 0.99836 1.02293 0.0
C175 C 0.8328 0.93939 0.98552 0.0
N176 N 0.81827 0.0153 1.02645 0.0
C177 C 0.84709 0.97986 1.00995 0.0
C178 C 0.78913 0.93469 0.97935 0.0
Eu179 Eu 0.83924 0.08597 0.06606 0.0
N180 N 0.77084 0.0788 0.07329 0.0
C181 C 0.75217 0.10744 0.10343 0.0
C182 C 0.68976 0.06823 0.07773 0.0
C183 C 0.71099 0.10315 0.10559 0.0
H184 H 0.88101 0.98276 1.01466 0.0
H185 H 0.69579 0.12665 0.12882 0.0
H186 H 0.66134 0.99335 1.02294 0.0
H187 H 0.8555 0.91191 0.97145 0.0
H188 H 0.76837 0.13474 0.12478 0.0
H189 H 0.02025 0.17275 0.07997 0.0
H190 H 0.65799 0.06479 0.07964 0.0
H191 H 0.76512 0.22943 0.99789 0.0
H192 H 0.95941 0.13129 0.04002 0.0
H193 H 0.74529 0.31072 1.0247 0.0
H194 H 0.70519 0.93447 0.9794 0.0
H195 H 1.00578 0.25398 0.11276 0.0
H196 H 0.9517 0.32389 0.12544 0.0
H197 H 0.77821 0.90323 0.96064 0.0
H198 H 0.87642 0.36124 0.11167 0.0
N199 N 0.91033 0.1881 0.0502 0.0
C200 C 0.95233 0.1666 0.05409 0.0
C201 C 0.97882 0.23591 0.09508 0.0
C202 C 0.93592 0.25796 0.08997 0.0
C203 C 0.98711 0.19008 0.07666 0.0
C204 C 0.90196 0.23289 0.06659 0.0
H205 H 0.79935 0.35669 0.07404 0.0
N206 N 0.82827 0.22887 1.03459 0.0
C207 C 0.77731 0.29513 1.03516 0.0
C208 C 0.8595 0.2538 0.05924 0.0
C209 C 0.78854 0.24908 1.02038 0.0
C210 C 0.80791 0.32094 0.06298 0.0
C211 C 0.85001 0.3005 0.07451 0.0
O212 O 0.82853 0.16613 0.95777 0.0
O213 O 0.83398 0.08743 1.00752 0.0
O214 O 0.90142 0.05665 0.04363 0.0
O215 O 0.90078 0.08802 0.99951 0.0
O216 O 0.79232 0.11776 0.9707 0.0
O217 O 0.89508 0.1386 0.97273 0.0
O218 O 0.88568 0.03925 0.09064 0.0
O219 O 0.87077 0.1398 0.06649 0.0
O220 O 0.7862 0.17862 1.03394 0.0
O221 O 0.77275 0.12233 0.04925 0.0
O222 O 0.83751 0.15532 0.10962 0.0
O223 O 0.85523 0.09867 0.12805 0.0
C224 C 0.80084 0.08306 0.98012 0.0
C225 C 0.88185 0.18821 0.93897 0.0
C226 C 0.91557 0.20841 0.89907 0.0
C227 C 0.90079 0.17593 0.90635 0.0
C228 C 0.91059 0.25251 0.92453 0.0
C229 C 0.87758 0.2329 0.96303 0.0
C230 C 0.89173 0.26454 0.95591 0.0
C231 C 0.91738 0.05888 1.01688 0.0
C232 C 0.86695 0.15553 0.94904 0.0
C233 C 0.88326 0.32541 0.0993 0.0
C234 C 0.92615 0.30418 0.10699 0.0
C235 C 0.86142 0.16966 0.0969 0.0
C236 C 0.87057 0.03466 0.14519 0.0
C237 C 0.89216 0.03747 0.18333 0.0
C238 C 0.88147 0.01218 0.2009 0.0
C239 C 0.84989 0.98377 0.17914 0.0
C240 C 0.83908 1.00615 0.12514 0.0
C241 C 0.82903 0.98092 0.1419 0.0
C242 C 0.76099 0.16041 0.04378 0.0
C243 C 0.87998 0.06085 0.12555 0.0
H244 H 0.90456 0.14163 0.88733 0.0
H245 H 0.92125 0.27809 0.91998 0.0
H246 H 0.86314 0.24362 0.98756 0.0
H247 H 0.8881 0.29881 0.975 0.0
H248 H 0.91639 0.05953 0.19927 0.0
H249 H 0.8414 0.96315 0.19088 0.0
H250 H 0.8223 1.00308 0.09619 0.0
H251 H 0.80485 0.95885 0.12583 0.0
Eu252 Eu 0.02049 0.90961 0.60703 0.0
C253 C 0.21294 0.91446 0.68442 0.0
C254 C 0.2461 0.9772 0.6943 0.0
C255 C 0.2737 0.93719 0.73817 0.0
C256 C 0.21438 0.94862 0.67356 0.0
C257 C 0.24308 0.9079 0.71656 0.0
C258 C 0.27508 0.97192 0.72717 0.0
C259 C 0.21182 0.84279 0.70263 0.0
N260 N 0.18289 0.88684 0.6629 0.0
C261 C 0.18253 0.85076 0.67112 0.0
C262 C 0.24198 0.87171 0.72568 0.0
Eu263 Eu 0.13642 0.90065 0.60826 0.0
N264 N 0.1863 0.95243 0.64146 0.0
C265 C 0.19102 0.98123 0.62638 0.0
C266 C 0.24883 1.00909 0.68053 0.0
C267 C 0.22169 1.01053 0.646 0.0
H268 H 0.15925 0.8283 0.65402 0.0
H269 H 0.22445 0.03408 0.6344 0.0
H270 H 0.29942 0.99376 0.74366 0.0
H271 H 0.21086 0.8145 0.70926 0.0
H272 H 0.17067 0.98216 0.59944 0.0
H273 H 1.00219 0.79346 0.45916 0.0
H274 H 0.27271 0.03168 0.69563 0.0
H275 H 0.9601 1.00738 0.64405 0.0
H276 H 0.0331 0.81939 0.52845 0.0
H277 H 0.90125 0.06026 0.62186 0.0
H278 H 0.29689 0.93283 0.76309 0.0
H279 H 0.94429 0.84246 0.43131 0.0
H280 H 0.89502 0.9156 0.44126 0.0
H281 H 0.26447 0.86561 0.7502 0.0
H282 H 0.8684 0.98852 0.48531 0.0
N283 N 0.99344 0.88257 0.53996 0.0
C284 C 1.00778 0.84104 0.51679 0.0
C285 C 0.95758 0.85393 0.46184 0.0
C286 C 0.94229 0.89605 0.48584 0.0
C287 C 0.9903 0.8262 0.47744 0.0
C288 C 0.96081 0.90942 0.52538 0.0
H289 H 0.87055 0.04279 0.55261 0.0
N290 N 0.96459 0.9621 0.58789 0.0
C291 C 0.91387 0.02973 0.60128 0.0
C292 C 0.9462 0.95058 0.55007 0.0
C293 C 0.94739 0.99992 0.61371 0.0
C294 C 0.89659 0.01972 0.56221 0.0
C295 C 0.91214 0.97936 0.53607 0.0
O296 O 0.97045 0.92291 0.63968 0.0
O297 O 0.089 0.90017 0.63987 0.0
O298 O 0.12154 0.8306 0.59144 0.0
O299 O 0.0513 0.83972 0.60107 0.0
O300 O 0.04252 0.94078 0.67175 0.0
O301 O 0.98442 0.85748 0.59814 0.0
O302 O 0.189 0.84657 0.59032 0.0
O303 O 0.0679 0.90089 0.5713 0.0
O304 O 0.03721 0.97939 0.62891 0.0
O305 O 0.11425 0.97266 0.64266 0.0
O306 O 0.10755 0.94142 0.57065 0.0
O307 O 0.16076 0.88896 0.55756 0.0
C308 C 0.08328 0.92381 0.6736 0.0
C309 C 0.91261 0.88031 0.60956 0.0
C310 C 0.84624 0.87379 0.62399 0.0
C311 C 0.89137 0.87589 0.63422 0.0
C312 C 0.8224 0.87641 0.58857 0.0
C313 C 0.88862 0.88219 0.57399 0.0
C314 C 0.84367 0.88029 0.56362 0.0
C315 C 0.08868 0.81509 0.59366 0.0
C316 C 0.95962 0.8833 0.62209 0.0
C317 C 0.89424 0.96666 0.49664 0.0
C318 C 0.90931 0.92509 0.47158 0.0
C319 C 0.06953 0.9291 0.5573 0.0
C320 C 0.23706 0.86728 0.5661 0.0
C321 C 0.24383 0.87942 0.53771 0.0
C322 C 0.28447 0.89046 0.54051 0.0
C323 C 0.31854 0.88857 0.57195 0.0
C324 C 0.27162 0.86581 0.5973 0.0
C325 C 0.31206 0.8763 0.60004 0.0
C326 C 0.07447 0.99651 0.64367 0.0
C327 C 0.19315 0.85922 0.56412 0.0
H328 H 0.90997 0.87511 0.66193 0.0
H329 H 0.78753 0.87525 0.58019 0.0
H330 H 0.90449 0.88515 0.55436 0.0
H331 H 0.82524 0.882 0.53623 0.0
H332 H 0.21701 0.88145 0.51402 0.0
H333 H 0.3504 0.89618 0.57467 0.0
H334 H 0.26739 0.8571 0.61986 0.0
H335 H 0.33848 0.8751 0.62416 0.0
C336 C 0.97645 0.99828 1.02565 0.0
C337 C 0.95247 0.02316 1.00295 0.0
C338 C 0.00969 0.96437 1.01328 0.0
C339 C 0.08999 0.94396 0.95825 0.0
H340 H 0.14052 0.87948 1.02734 0.0
C341 C 0.25761 0.96158 0.06149 0.0
C342 C 0.24162 1.00326 0.08661 0.0
C343 C 0.22887 0.93263 1.0351 0.0
C344 C 0.12736 0.89542 1.00639 0.0
H345 H 0.9419 0.02973 0.94794 0.0
H346 H 1.00076 0.97015 0.92613 0.0
H347 H 0.06322 0.88095 0.9969 0.0
H348 H 0.1844 0.04387 0.10816 0.0
H349 H 0.1342 0.99247 0.06275 0.0
H350 H 0.15377 0.96037 0.96951 0.0
C351 C 0.99414 0.97734 0.95385 0.0
C352 C 0.08295 0.89686 0.98927 0.0
C353 C 0.96083 0.01183 0.96652 0.0
C354 C 0.19742 0.01263 0.08855 0.0
C355 C 0.16889 0.98315 0.06282 0.0
C356 C 0.13473 0.94078 0.97389 0.0
C357 C 0.01998 0.95407 0.97765 0.0
C358 C 0.06302 0.92729 0.97053 0.0
C359 C 0.18423 0.94415 1.03483 0.0
C360 C 0.15197 0.92159 1.00195 0.0
H361 H 0.97057 1.0059 0.05374 0.0
H362 H 0.02912 0.94848 1.03321 0.0
H363 H 0.07637 0.96609 0.94246 0.0
H364 H 0.2918 0.95273 0.0599 0.0
H365 H 0.24107 0.90275 1.01361 0.0
C366 C 0.03028 0.06614 0.63994 0.0
C367 C 0.07102 0.04499 0.65393 0.0
C368 C 0.02724 0.08054 0.61026 0.0
C369 C 0.09473 0.03614 0.53997 0.0
H370 H 1.00901 0.10706 0.48757 0.0
C371 C 0.06088 0.14341 0.46028 0.0
C372 C 0.0983 0.15482 0.48937 0.0
C373 C 0.05558 0.09867 0.44154 0.0
C374 C 0.03296 0.08603 0.50112 0.0
H375 H 0.13981 0.05057 0.67007 0.0
H376 H 0.13617 0.07724 0.61915 0.0
H377 H 1.0075 0.11844 0.55216 0.0
H378 H 0.16535 0.12893 0.51012 0.0
H379 H 0.15405 0.05203 0.4777 0.0
H380 H 0.12097 1.0043 0.48943 0.0
C381 C 0.10604 0.07489 0.6249 0.0
C382 C 0.03226 0.09338 0.53866 0.0
C383 C 0.10812 0.06001 0.65412 0.0
C384 C 0.13422 0.12141 0.49112 0.0
C385 C 0.12777 0.07716 0.4717 0.0
C386 C 0.09538 0.02866 0.50235 0.0
C387 C 0.0658 0.07893 0.59942 0.0
C388 C 0.06492 0.07057 0.5592 0.0
C389 C 0.08423 0.06841 0.4574 0.0
C390 C 0.06762 0.05697 0.48395 0.0
H391 H 1.0006 0.06168 0.64467 0.0
H392 H 0.99528 0.08661 0.59292 0.0
H393 H 0.11833 0.01562 0.5543 0.0
H394 H 0.03425 0.16855 0.45484 0.0
H395 H 0.02376 0.09079 0.42417 0.0
C396 C 0.71381 0.20811 0.08976 0.0
C397 C 0.71743 0.1835 0.05162 0.0
C398 C 0.67374 0.21681 0.10076 0.0
C399 C 0.55395 0.21933 0.06774 0.0
H400 H 0.56338 0.17769 0.14947 0.0
C401 C 0.4018 0.18692 0.09968 0.0
C402 C 0.40399 0.18584 0.13572 0.0
C403 C 0.43785 0.19519 0.09138 0.0
C404 C 0.55971 0.19071 0.1273 0.0
H405 H 0.68182 0.14935 0.99501 0.0
H406 H 0.61109 0.16654 1.01375 0.0
H407 H 0.62902 0.17871 0.13143 0.0
H408 H 0.44485 0.19441 0.19185 0.0
H409 H 0.50634 0.21246 0.17885 0.0
H410 H 0.48471 0.23271 0.0642 0.0
C411 C 0.63922 0.1793 1.03516 0.0
C412 C 0.59773 0.19081 0.11668 0.0
C413 C 0.67958 0.16989 1.02429 0.0
C414 C 0.44189 0.19606 0.16409 0.0
C415 C 0.47763 0.20531 0.15615 0.0
C416 C 0.51581 0.2203 0.07899 0.0
C417 C 0.63618 0.20143 0.0738 0.0
C418 C 0.59541 0.20457 0.08647 0.0
C419 C 0.47707 0.20308 0.11911 0.0
C420 C 0.5179 0.20547 0.10872 0.0
H421 H 0.74278 0.21756 0.11163 0.0
H422 H 0.67255 0.23395 0.13072 0.0
H423 H 0.55102 0.23039 0.04448 0.0
H424 H 0.37359 0.17753 0.07682 0.0
H425 H 0.43568 0.1924 0.06238 0.0
C426 C 0.07009 0.44061 0.56552 0.0
C427 C 0.10359 0.42081 0.58835 0.0
C428 C 0.07211 0.48168 0.56515 0.0
C429 C 0.14617 0.56467 0.59214 0.0
H430 H 0.03512 0.64122 0.58225 0.0
C431 C 0.06893 0.75872 0.6104 0.0
C432 C 0.09475 0.76898 0.5923 0.0
C433 C 0.0735 0.71603 0.61015 0.0
C434 C 0.0666 0.62064 0.58548 0.0
H435 H 0.16602 0.42839 0.62825 0.0
H436 H 0.16861 0.50183 0.62916 0.0
H437 H 0.037 0.56927 0.58398 0.0
H438 H 0.14673 0.74246 0.56063 0.0
H439 H 0.15365 0.66647 0.55877 0.0
H440 H 0.17574 0.61775 0.59555 0.0
C441 C 0.14116 0.48489 0.61085 0.0
C442 C 0.0676 0.57878 0.58582 0.0
C443 C 0.13951 0.44306 0.61067 0.0
C444 C 0.12609 0.73542 0.5745 0.0
C445 C 0.13023 0.69205 0.57371 0.0
C446 C 0.14522 0.60713 0.59234 0.0
C447 C 0.10724 0.50485 0.58821 0.0
C448 C 0.10728 0.55 0.58893 0.0
C449 C 0.10347 0.68179 0.59116 0.0
C450 C 0.10535 0.63576 0.58925 0.0
H451 H 0.04247 0.42395 0.54708 0.0
H452 H 0.04606 0.49504 0.54636 0.0
H453 H 0.17729 0.54327 0.59417 0.0
H454 H 0.04527 0.78392 0.62538 0.0
H455 H 0.05339 0.71 0.62509 0.0
C456 C 0.14956 0.22649 0.46692 0.0
C457 C 0.12307 0.26801 0.4771 0.0
C458 C 0.17352 0.21319 0.43826 0.0
C459 C 0.20735 0.25486 0.37402 0.0
H460 H 0.24205 0.12914 0.32406 0.0
C461 C 0.31375 0.19033 0.25817 0.0
C462 C 0.30794 0.14931 0.22851 0.0
C463 C 0.29362 0.20473 0.28965 0.0
C464 C 0.23226 0.16445 0.33697 0.0
H465 H 0.0986 0.32667 0.46237 0.0
H466 H 0.13822 0.30297 0.41104 0.0
H467 H 0.19985 0.15399 0.37257 0.0
H468 H 0.27935 0.08972 0.21004 0.0
H469 H 0.24304 0.11483 0.26327 0.0
H470 H 0.23702 0.26486 0.336 0.0
C471 C 0.1429 0.2813 0.42672 0.0
C472 C 0.20851 0.17905 0.36598 0.0
C473 C 0.11966 0.29495 0.45615 0.0
C474 C 0.28368 0.12194 0.23207 0.0
C475 C 0.26326 0.13636 0.26321 0.0
C476 C 0.23022 0.24014 0.34423 0.0
C477 C 0.17058 0.24004 0.41719 0.0
C478 C 0.1957 0.22461 0.38544 0.0
C479 C 0.26722 0.17837 0.2925 0.0
C480 C 0.2433 0.19456 0.32509 0.0
H481 H 0.15272 0.20386 0.48108 0.0
H482 H 0.19484 0.18173 0.43325 0.0
H483 H 0.19915 0.29021 0.38816 0.0
H484 H 0.33328 0.21162 0.2567 0.0
H485 H 0.29895 0.23663 0.31173 0.0
C486 C 0.06012 0.20676 0.63065 0.0
C487 C 0.07544 0.24651 0.63915 0.0
C488 C 0.0432 0.20028 0.65741 0.0
C489 C 0.03584 0.24873 0.76302 0.0
H490 H 0.95516 0.16443 0.72842 0.0
C491 C 0.9795 0.20959 0.87435 0.0
C492 C 0.93714 0.19907 0.86632 0.0
C493 C 0.99676 0.21221 0.84607 0.0
C494 C 0.97735 0.18849 0.73897 0.0
H495 H 0.08909 0.30864 0.68443 0.0
H496 H 0.05796 0.29891 0.73015 0.0
H497 H 0.98178 0.17725 0.68198 0.0
H498 H 0.88003 0.18265 0.82117 0.0
H499 H 0.9099 0.18663 0.7716 0.0
H500 H 0.02987 0.26151 0.81981 0.0
C501 C 0.05836 0.27226 0.70281 0.0
C502 C 0.99348 0.19549 0.71193 0.0
C503 C 0.07554 0.27855 0.67608 0.0
C504 C 0.91319 0.18962 0.82836 0.0
C505 C 0.93049 0.19228 0.79984 0.0
C506 C 0.01942 0.24207 0.78994 0.0
C507 C 0.04155 0.23293 0.69416 0.0
C508 C 0.02338 0.22568 0.72324 0.0
C509 C 0.97237 0.20473 0.80826 0.0
C510 C 0.98994 0.2116 0.77871 0.0
H511 H 0.06106 0.18057 0.60305 0.0
H512 H 0.03211 0.16907 0.64924 0.0
H513 H 0.05919 0.27167 0.77398 0.0
H514 H 0.99879 0.21778 0.9033 0.0
H515 H 0.02917 0.2212 0.8545 0.0
C516 C 0.05004 0.9053 0.48551 0.0
C517 C 0.04258 0.93569 0.52138 0.0
C518 C 0.03227 0.91579 0.45218 0.0
C519 C 0.95037 0.99853 0.41362 0.0
H520 H 0.0168 0.95093 0.3336 0.0
C521 C 0.8751 0.01419 0.26466 0.0
C522 C 0.90172 0.01398 0.24145 0.0
C523 C 0.89315 1.0084 0.29989 0.0
C524 C 0.99786 0.96516 0.35571 0.0
H525 H 0.01136 1.00123 0.55023 0.0
H526 H 0.97951 0.01949 0.49272 0.0
H527 H 0.04495 0.93278 0.39126 0.0
H528 H 0.96896 1.00957 0.23895 0.0
H529 H 1.00071 1.00091 0.30115 0.0
H530 H 0.90412 0.03226 0.3789 0.0
C531 C 0.99856 0.98712 0.48969 0.0
C532 C 0.01377 0.95398 0.38883 0.0
C533 C 0.01679 0.97673 0.52296 0.0
C534 C 0.94727 1.01009 0.25587 0.0
C535 C 0.96551 1.00439 0.29147 0.0
C536 C 0.93466 1.00998 0.3807 0.0
C537 C 1.00684 0.95734 0.45367 0.0
C538 C 0.99008 0.96995 0.41829 0.0
C539 C 0.93877 1.00257 0.31388 0.0
C540 C 0.95768 0.99303 0.3507 0.0
H541 H 0.07093 0.8739 0.48342 0.0
H542 H 0.03897 0.8913 0.42525 0.0
H543 H 0.93066 0.01163 0.43512 0.0
H544 H 0.83986 0.01751 0.25497 0.0
H545 H 0.87094 1.00679 0.31537 0.0
C546 C 0.12239 0.90541 0.73201 0.0
C547 C 0.11585 0.93244 0.71049 0.0
C548 C 0.14985 0.91554 0.76862 0.0
C549 C 0.18661 0.96119 0.85428 0.0
H550 H 0.29119 0.01248 0.87657 0.0
C551 C 0.28504 0.02425 1.01043 0.0
C552 C 0.3095 0.05891 1.02232 0.0
C553 C 0.26738 1.00266 0.97165 0.0
C554 C 0.26175 0.99904 0.87146 0.0
H555 H 0.13019 0.99379 0.71262 0.0
H556 H 0.17997 1.00932 0.77422 0.0
H557 H 0.24905 0.98756 0.81157 0.0
H558 H 0.33303 0.09892 1.00196 0.0
H559 H 0.30035 0.06384 0.93499 0.0
H560 H 0.19692 0.97512 0.91403 0.0
C561 C 0.16439 0.98014 0.76308 0.0
C562 C 0.23767 0.98414 0.83365 0.0
C563 C 0.13605 0.97074 0.7271 0.0
C564 C 0.31559 0.07139 0.99391 0.0
C565 C 0.29667 0.05089 0.95511 0.0
C566 C 0.21009 0.97693 0.89222 0.0
C567 C 0.17146 0.95308 0.78472 0.0
C568 C 0.19939 0.96546 0.82449 0.0
C569 C 0.27153 0.01641 0.94312 0.0
C570 C 0.24794 0.99677 0.90182 0.0
H571 H 0.10604 0.87647 0.72052 0.0
H572 H 0.15434 0.89374 0.7842 0.0
H573 H 0.15695 0.94777 0.8487 0.0
H574 H 0.27773 0.01479 1.03107 0.0
H575 H 0.24951 0.97582 0.96453 0.0
C576 C 0.82803 1.00638 0.94098 0.0
C577 C 0.79285 0.04039 0.94908 0.0
C578 C 0.82447 0.97091 0.9063 0.0
C579 C 0.75137 0.93009 0.80802 0.0
H580 H 0.86368 0.90101 0.77921 0.0
C581 C 0.78797 0.90292 0.66256 0.0
C582 C 0.82452 0.87173 0.65184 0.0
C583 C 0.77459 0.90847 0.6955 0.0
C584 C 0.83215 0.90788 0.7868 0.0
H585 H 0.72614 0.06431 0.92681 0.0
H586 H 0.7213 1.00537 0.8642 0.0
H587 H 0.85978 0.93907 0.84512 0.0
H588 H 0.87201 0.81806 0.66389 0.0
H589 H 0.84894 0.82808 0.72156 0.0
H590 H 0.72394 0.90233 0.74778 0.0
C591 C 0.75073 1.00367 0.88575 0.0
C592 C 0.82977 0.92962 0.82504 0.0
C593 C 0.75348 0.03779 0.92169 0.0
C594 C 0.84427 0.84292 0.67201 0.0
C595 C 0.83093 0.84844 0.70481 0.0
C596 C 0.75372 0.90921 0.76928 0.0
C597 C 0.78711 0.97083 0.87693 0.0
C598 C 0.78932 0.94178 0.83644 0.0
C599 C 0.79763 0.88289 0.71801 0.0
C600 C 0.79418 0.89848 0.75844 0.0
H601 H 0.85959 1.00848 0.96019 0.0
H602 H 0.85266 0.94547 0.90169 0.0
H603 H 0.71967 0.93812 0.81542 0.0
H604 H 0.77219 0.92555 0.64749 0.0
H605 H 0.74901 0.93547 0.70524 0.0
C606 C 0.4137 1.00351 0.33272 0.0
C607 C 0.40256 0.98038 0.2931 0.0
C608 C 0.39581 0.99615 0.35801 0.0
C609 C 0.34701 0.91215 0.36604 0.0
H610 H 0.31209 1.00882 0.45442 0.0
C611 C 0.31543 0.93888 0.52152 0.0
C612 C 0.2915 0.90409 0.5109 0.0
C613 C 0.32406 0.95031 0.49376 0.0
C614 C 0.32199 0.98142 0.43003 0.0
H615 H 0.36366 0.93148 0.249 0.0
H616 H 0.33217 0.91888 0.29314 0.0
H617 H 0.33665 0.02476 0.40816 0.0
H618 H 0.25694 0.85475 0.46264 0.0
H619 H 0.2713 0.87522 0.41415 0.0
H620 H 0.33329 0.86871 0.38818 0.0
C621 C 0.35498 0.94254 0.30465 0.0
C622 C 0.33605 0.99057 0.40352 0.0
C623 C 0.37272 0.95005 0.27934 0.0
C624 C 0.27533 0.88182 0.47182 0.0
C625 C 0.28396 0.89325 0.44401 0.0
C626 C 0.33308 0.90299 0.39258 0.0
C627 C 0.36649 0.96534 0.34431 0.0
C628 C 0.34917 0.95599 0.37142 0.0
C629 C 0.30892 0.92728 0.45462 0.0
C630 C 0.32085 0.93745 0.42513 0.0
H631 H 0.43617 0.0275 0.34421 0.0
H632 H 0.40569 0.01396 0.38841 0.0
H633 H 0.35744 0.8847 0.34192 0.0
H634 H 0.32775 0.95722 0.55139 0.0
H635 H 0.34367 0.97643 0.50301 0.0
C636 C 0.17546 0.2096 0.72021 0.0
C637 C 0.22032 0.2133 0.7307 0.0
C638 C 0.15919 0.18371 0.73255 0.0
C639 C 0.19248 0.10801 0.78884 0.0
H640 H 0.08927 0.17534 0.82885 0.0
C641 C 0.13038 0.06778 0.89474 0.0
C642 C 0.13081 0.10385 0.92954 0.0
C643 C 0.13257 0.07375 0.86185 0.0
C644 C 0.11777 0.15594 0.81751 0.0
H645 H 0.28376 0.1879 0.75861 0.0
H646 H 0.25524 0.14583 0.78254 0.0
H647 H 0.11243 0.19532 0.78461 0.0
H648 H 0.12805 0.17531 0.95596 0.0
H649 H 0.13136 0.18571 0.89858 0.0
H650 H 0.2005 0.07244 0.82597 0.0
C651 C 0.23245 0.16233 0.76427 0.0
C652 C 0.1308 0.16689 0.79163 0.0
C653 C 0.24882 0.18741 0.75119 0.0
C654 C 0.12917 0.14659 0.92989 0.0
C655 C 0.1306 0.15264 0.89696 0.0
C656 C 0.17989 0.09778 0.81547 0.0
C657 C 0.18717 0.1617 0.75651 0.0
C658 C 0.16903 0.14392 0.77773 0.0
C659 C 0.13394 0.11608 0.86305 0.0
C660 C 0.14286 0.12213 0.83047 0.0
H661 H 0.15231 0.22859 0.70432 0.0
H662 H 0.12431 0.18283 0.72493 0.0
H663 H 0.22172 0.0891 0.7784 0.0
H664 H 0.13024 0.03477 0.89338 0.0
H665 H 0.1341 0.04529 0.83571 0.0
C666 C 0.87696 0.24303 0.14587 0.0
C667 C 0.89215 0.19908 0.12512 0.0
C668 C 0.90538 0.26891 0.17665 0.0
C669 C 0.9931 0.2507 0.25097 0.0
H670 H 0.98983 0.37788 0.28768 0.0
C671 C 0.01042 0.33763 0.40688 0.0
C672 C 0.97751 0.37437 0.41636 0.0
C673 C 0.02464 0.32413 0.37283 0.0
C674 C 0.9911 0.34237 0.27807 0.0
H675 H 0.94795 0.14701 0.12009 0.0
H676 H 0.9977 0.19212 0.17391 0.0
H677 H 0.96331 0.3376 0.21987 0.0
H678 H 0.94079 0.4306 0.40051 0.0
H679 H 0.96021 0.40369 0.33926 0.0
H680 H 0.01592 0.25465 0.30833 0.0
C681 C 0.96435 0.20705 0.1659 0.0
C682 C 0.97623 0.31934 0.2391 0.0
C683 C 0.93602 0.18135 0.13514 0.0
C684 C 0.96382 0.40037 0.39319 0.0
C685 C 0.97613 0.3854 0.35808 0.0
C686 C 1.00692 0.27364 0.2898 0.0
C687 C 0.94901 0.25066 0.18765 0.0
C688 C 0.97513 0.27361 0.22564 0.0
C689 C 1.00414 0.34502 0.34607 0.0
C690 C 1.00366 0.32025 0.30441 0.0
H691 H 0.84291 0.25683 0.13894 0.0
H692 H 0.89242 0.3021 0.19341 0.0
H693 H 0.99254 0.21544 0.24151 0.0
H694 H 0.02281 0.31661 0.42371 0.0
H695 H 0.04869 0.29464 0.36605 0.0
loop_
_geom_bond_atom_site_label_1
_geom_bond_atom_site_label_2
_geom_bond_distance
_geom_bond_site_symmetry_2
_ccdc_geom_bond_type
Eu0 N31 2.657 . S
Eu0 N38 2.609 . S
Eu0 O44 2.558 . S
Eu0 O45 2.612 1_545 S
Eu0 O47 2.339 . S
Eu0 O48 2.563 1_554 S
Eu0 O49 2.419 . S
Eu0 O51 2.380 . S
Eu0 O52 2.432 . S
Eu0 C64 2.848 . S
C1 C4 1.429 . S
C1 C5 1.411 . S
C1 N8 1.377 . S
C2 C4 1.420 1_556 S
C2 C6 1.423 . S
C2 C14 1.392 . S
C3 C5 1.420 1_556 S
C3 C6 1.351 . S
C3 H26 0.931 . S
C4 C1 1.429 . S
C4 C2 1.420 1_554 S
C4 N12 1.362 . S
C5 C1 1.411 . S
C5 C3 1.420 1_554 S
C5 C10 1.395 . S
C6 C2 1.423 . S
C6 C3 1.351 . S
C6 H18 0.930 . S
C7 C9 1.400 . S
C7 C10 1.386 . S
C7 H19 0.930 . S
N8 C1 1.377 . S
N8 C9 1.321 . S
N8 Eu11 2.609 . S
C9 C7 1.400 . S
C9 N8 1.321 . S
C9 H16 0.930 . S
C10 C5 1.395 . S
C10 C7 1.386 . S
C10 H29 0.930 . S
Eu11 N8 2.609 . S
Eu11 N12 2.657 . S
Eu11 O45 2.380 . S
Eu11 O46 2.432 1_565 S
Eu11 O50 2.558 . S
Eu11 O51 2.612 1_565 S
Eu11 O53 2.339 . S
Eu11 O54 2.563 1_565 S
Eu11 O55 2.419 . S
Eu11 C75 2.848 . S
N12 C4 1.362 . S
N12 Eu11 2.657 . S
N12 C13 1.341 . S
C13 N12 1.341 . S
C13 C15 1.399 1_554 S
C13 H20 0.939 . S
C14 C2 1.392 . S
C14 C15 1.367 . S
C14 H22 0.930 . S
C15 C13 1.399 1_556 S
C15 C14 1.367 . S
C15 H17 0.930 . S
H16 C9 0.930 . S
H17 C15 0.930 . S
H18 C6 0.930 . S
H19 C7 0.930 . S
H20 C13 0.939 . S
H21 C35 0.930 . S
H22 C14 0.930 . S
H23 C41 0.930 . S
H24 C32 0.929 . S
H25 C39 0.930 . S
H26 C3 0.931 . S
H27 C33 0.930 . S
H28 C66 0.930 . S
H29 C10 0.930 . S
H30 C65 0.931 . S
N31 Eu0 2.657 . S
N31 C32 1.334 . S
N31 C36 1.362 . S
C32 H24 0.929 . S
C32 N31 1.334 . S
C32 C35 1.413 . S
C33 H27 0.930 . S
C33 C34 1.392 . S
C33 C35 1.367 . S
C34 C33 1.392 . S
C34 C36 1.420 . S
C34 C66 1.423 . S
C35 H21 0.930 . S
C35 C32 1.413 . S
C35 C33 1.367 . S
C36 N31 1.362 . S
C36 C34 1.420 . S
C36 C40 1.429 . S
H37 C42 0.930 . S
N38 Eu0 2.609 . S
N38 C40 1.377 . S
N38 C41 1.321 . S
C39 H25 0.930 . S
C39 C41 1.400 . S
C39 C42 1.386 . S
C40 C36 1.429 . S
C40 N38 1.377 . S
C40 C43 1.411 . S
C41 H23 0.930 . S
C41 N38 1.321 . S
C41 C39 1.400 . S
C42 H37 0.930 . S
C42 C39 1.386 . S
C42 C43 1.395 . S
C43 C40 1.411 . S
C43 C42 1.395 . S
C43 C65 1.420 . S
O44 Eu0 2.558 . S
O44 C64 1.257 . S
O45 Eu0 2.612 1_565 S
O45 Eu11 2.380 . S
O45 C56 1.276 1_554 S
O46 Eu11 2.432 1_545 S
O46 C63 1.264 . S
O47 Eu0 2.339 . S
O47 C63 1.254 . S
O48 Eu0 2.563 1_556 S
O48 C56 1.235 1_545 S
O49 Eu0 2.419 . S
O49 C64 1.249 . S
O50 Eu11 2.558 . S
O50 C75 1.257 . S
O51 Eu0 2.380 . S
O51 Eu11 2.612 1_545 S
O51 C67 1.276 . S
O52 Eu0 2.432 . S
O52 C74 1.264 . S
O53 Eu11 2.339 . S
O53 C74 1.254 1_565 S
O54 Eu11 2.563 1_545 S
O54 C67 1.235 . S
O55 Eu11 2.419 . S
O55 C75 1.249 . S
C56 O45 1.276 1_556 S
C56 O48 1.235 1_565 S
C57 C59 1.393 . S
C57 C61 1.395 . S
C57 C64 1.492 1_556 S
C58 C59 1.392 . S
C58 C60 1.386 . S
C59 C57 1.393 . S
C59 C58 1.392 . S
C59 H76 0.930 . S
C60 C58 1.386 . S
C60 C62 1.395 . S
C60 H77 0.930 . S
C61 C57 1.395 . S
C61 C62 1.379 . S
C61 H78 0.930 . S
C62 C60 1.395 . S
C62 C61 1.379 . S
C62 H79 0.930 . S
C63 O46 1.264 . S
C63 O47 1.254 . S
C64 Eu0 2.848 . S
C64 O44 1.257 . S
C64 O49 1.249 . S
C64 C57 1.492 1_554 S
C65 H30 0.931 . S
C65 C43 1.420 . S
C65 C66 1.351 . S
C66 H28 0.930 . S
C66 C34 1.423 . S
C66 C65 1.351 . S
C67 O51 1.276 . S
C67 O54 1.235 . S
C68 C69 1.393 . S
C68 C72 1.395 . S
C68 C75 1.492 . S
C69 C68 1.393 . S
C69 C70 1.392 . S
C69 H80 0.930 . S
C70 C69 1.392 . S
C70 C71 1.386 . S
C71 C70 1.386 . S
C71 C73 1.395 . S
C71 H81 0.930 . S
C72 C68 1.395 . S
C72 C73 1.379 . S
C72 H82 0.930 . S
C73 C71 1.395 . S
C73 C72 1.379 . S
C73 H83 0.930 . S
C74 O52 1.264 . S
C74 O53 1.254 1_545 S
C75 Eu11 2.848 . S
C75 O50 1.257 . S
C75 O55 1.249 . S
C75 C68 1.492 . S
H76 C59 0.930 . S
H77 C60 0.930 . S
H78 C61 0.930 . S
H79 C62 0.930 . S
H80 C69 0.930 . S
H81 C71 0.930 . S
H82 C72 0.930 . S
H83 C73 0.930 . S
Eu84 N115 2.657 1_455 S
Eu84 N122 2.609 1_455 S
Eu84 O128 2.558 . S
Eu84 O129 2.612 . S
Eu84 O131 2.339 . S
Eu84 O132 2.563 . S
Eu84 O133 2.419 1_455 S
Eu84 O135 2.380 . S
Eu84 O136 2.432 . S
Eu84 C148 2.848 1_455 S
C85 C88 1.429 . S
C85 C89 1.411 . S
C85 N92 1.377 . S
C86 C88 1.420 . S
C86 C90 1.423 . S
C86 C98 1.392 . S
C87 C89 1.420 . S
C87 C90 1.351 . S
C87 H110 0.931 . S
C88 C85 1.429 . S
C88 C86 1.420 . S
C88 N96 1.362 . S
C89 C85 1.411 . S
C89 C87 1.420 . S
C89 C94 1.395 . S
C90 C86 1.423 . S
C90 C87 1.351 . S
C90 H102 0.930 . S
C91 C93 1.400 . S
C91 C94 1.386 . S
C91 H103 0.930 . S
N92 C85 1.377 . S
N92 C93 1.321 . S
N92 Eu95 2.609 . S
C93 C91 1.400 . S
C93 N92 1.321 . S
C93 H100 0.930 . S
C94 C89 1.395 . S
C94 C91 1.386 . S
C94 H113 0.930 . S
Eu95 N92 2.609 . S
Eu95 N96 2.657 . S
Eu95 O129 2.380 . S
Eu95 O130 2.432 . S
Eu95 O134 2.558 . S
Eu95 O135 2.612 . S
Eu95 O137 2.339 . S
Eu95 O138 2.563 . S
Eu95 O139 2.419 . S
Eu95 C159 2.848 . S
N96 C88 1.362 . S
N96 Eu95 2.657 . S
N96 C97 1.334 . S
C97 N96 1.334 . S
C97 C99 1.413 . S
C97 H104 0.929 . S
C98 C86 1.392 . S
C98 C99 1.367 . S
C98 H106 0.930 . S
C99 C97 1.413 . S
C99 C98 1.367 . S
C99 H101 0.930 . S
H100 C93 0.930 . S
H101 C99 0.930 . S
H102 C90 0.930 . S
H103 C91 0.930 . S
H104 C97 0.929 . S
H105 C119 0.930 . S
H106 C98 0.930 . S
H107 C125 0.930 . S
H108 C116 0.944 . S
H109 C123 0.930 . S
H110 C87 0.931 . S
H111 C117 0.930 . S
H112 C150 0.930 . S
H113 C94 0.930 . S
H114 C149 0.931 . S
N115 Eu84 2.657 1_655 S
N115 C116 1.334 . S
N115 C120 1.362 . S
C116 H108 0.944 . S
C116 N115 1.334 . S
C116 C119 1.413 . S
C117 H111 0.930 . S
C117 C118 1.392 . S
C117 C119 1.367 . S
C118 C117 1.392 . S
C118 C120 1.420 . S
C118 C150 1.423 . S
C119 H105 0.930 . S
C119 C116 1.413 . S
C119 C117 1.367 . S
C120 N115 1.362 . S
C120 C118 1.420 . S
C120 C124 1.429 . S
H121 C126 0.930 . S
N122 Eu84 2.609 1_655 S
N122 C124 1.377 . S
N122 C125 1.321 . S
C123 H109 0.930 . S
C123 C125 1.400 . S
C123 C126 1.386 . S
C124 C120 1.429 . S
C124 N122 1.377 . S
C124 C127 1.411 . S
C125 H107 0.930 . S
C125 N122 1.321 . S
C125 C123 1.400 . S
C126 H121 0.930 . S
C126 C123 1.386 . S
C126 C127 1.395 . S
C127 C124 1.411 . S
C127 C126 1.395 . S
C127 C149 1.420 . S
O128 Eu84 2.558 . S
O128 C148 1.257 1_455 S
O129 Eu84 2.612 . S
O129 Eu95 2.380 . S
O129 C140 1.276 . S
O130 Eu95 2.432 . S
O130 C147 1.264 . S
O131 Eu84 2.339 . S
O131 C147 1.254 . S
O132 Eu84 2.563 . S
O132 C140 1.235 . S
O133 Eu84 2.419 1_655 S
O133 C148 1.249 . S
O134 Eu95 2.558 . S
O134 C159 1.257 . S
O135 Eu84 2.380 . S
O135 Eu95 2.612 . S
O135 C151 1.276 . S
O136 Eu84 2.432 . S
O136 C158 1.264 . S
O137 Eu95 2.339 . S
O137 C158 1.254 . S
O138 Eu95 2.563 . S
O138 C151 1.235 . S
O139 Eu95 2.419 . S
O139 C159 1.249 . S
C140 O129 1.276 . S
C140 O132 1.235 . S
C141 C143 1.393 . S
C141 C145 1.395 . S
C141 C148 1.492 . S
C142 C143 1.392 . S
C142 C144 1.386 . S
C143 C141 1.393 . S
C143 C142 1.392 . S
C143 H160 0.930 . S
C144 C142 1.386 . S
C144 C146 1.395 . S
C144 H161 0.930 . S
C145 C141 1.395 . S
C145 C146 1.379 . S
C145 H162 0.930 . S
C146 C144 1.395 . S
C146 C145 1.379 . S
C146 H163 0.930 . S
C147 O130 1.264 . S
C147 O131 1.254 . S
C148 Eu84 2.848 1_655 S
C148 O128 1.257 1_655 S
C148 O133 1.249 . S
C148 C141 1.492 . S
C149 H114 0.931 . S
C149 C127 1.420 . S
C149 C150 1.351 . S
C150 H112 0.930 . S
C150 C118 1.423 . S
C150 C149 1.351 . S
C151 O135 1.276 . S
C151 O138 1.235 . S
C152 C153 1.393 . S
C152 C156 1.395 . S
C152 C159 1.492 . S
C153 C152 1.393 . S
C153 C154 1.392 . S
C153 H164 0.930 . S
C154 C153 1.392 . S
C154 C155 1.386 . S
C155 C154 1.386 . S
C155 C157 1.395 . S
C155 H165 0.930 . S
C156 C152 1.395 . S
C156 C157 1.379 . S
C156 H166 0.930 . S
C157 C155 1.395 . S
C157 C156 1.379 . S
C157 H167 0.930 . S
C158 O136 1.264 . S
C158 O137 1.254 . S
C159 Eu95 2.848 . S
C159 O134 1.257 . S
C159 O139 1.249 . S
C159 C152 1.492 . S
H160 C143 0.930 . S
H161 C144 0.930 . S
H162 C145 0.930 . S
H163 C146 0.930 . S
H164 C153 0.930 . S
H165 C155 0.930 . S
H166 C156 0.930 . S
H167 C157 0.930 . S
Eu168 N199 2.657 . S
Eu168 N206 2.609 . S
Eu168 O212 2.558 1_554 S
Eu168 O213 2.612 1_554 S
Eu168 O215 2.339 . S
Eu168 O216 2.563 1_554 S
Eu168 O217 2.419 1_554 S
Eu168 O219 2.380 . S
Eu168 O220 2.432 . S
Eu168 C232 2.848 1_554 S
C169 C172 1.429 . S
C169 C173 1.411 . S
C169 N176 1.377 1_566 S
C170 C172 1.420 . S
C170 C174 1.423 . S
C170 C182 1.392 . S
C171 C173 1.420 . S
C171 C174 1.351 . S
C171 H194 0.931 . S
C172 C169 1.429 . S
C172 C170 1.420 . S
C172 N180 1.362 1_565 S
C173 C169 1.411 . S
C173 C171 1.420 . S
C173 C178 1.395 . S
C174 C170 1.423 . S
C174 C171 1.351 . S
C174 H186 0.930 . S
C175 C177 1.400 1_565 S
C175 C178 1.386 1_554 S
C175 H187 0.930 1_655 S
N176 C169 1.377 1_544 S
N176 C177 1.321 . S
N176 Eu179 2.609 . S
C177 C175 1.400 1_545 S
C177 N176 1.321 . S
C177 H184 0.930 . S
C178 C173 1.395 . S
C178 C175 1.386 1_556 S
C178 H197 0.930 . S
Eu179 N176 2.609 . S
Eu179 N180 2.657 1_554 S
Eu179 O213 2.380 1_554 S
Eu179 O214 2.432 . S
Eu179 O218 2.558 . S
Eu179 O219 2.612 . S
Eu179 O221 2.339 . S
Eu179 O222 2.563 . S
Eu179 O223 2.419 . S
Eu179 C243 2.848 . S
N180 C172 1.362 1_545 S
N180 Eu179 2.657 1_556 S
N180 C181 1.334 . S
C181 N180 1.334 . S
C181 C183 1.413 1_545 S
C181 H188 0.929 . S
C182 C170 1.392 . S
C182 C183 1.367 . S
C182 H190 0.930 . S
C183 C181 1.413 1_565 S
C183 C182 1.367 . S
C183 H185 0.930 . S
H184 C177 0.930 . S
H185 C183 0.930 . S
H186 C174 0.930 . S
H187 C175 0.930 1_455 S
H188 C181 0.929 . S
H189 C203 0.930 . S
H190 C182 0.930 . S
H191 C209 0.930 . S
H192 C200 0.929 . S
H193 C207 0.930 . S
H194 C171 0.931 . S
H195 C201 0.930 . S
H196 C234 0.930 . S
H197 C178 0.930 . S
H198 C233 0.931 . S
N199 Eu168 2.657 . S
N199 C200 1.334 . S
N199 C204 1.362 . S
C200 H192 0.929 . S
C200 N199 1.334 . S
C200 C203 1.413 . S
C201 H195 0.930 . S
C201 C202 1.392 . S
C201 C203 1.367 . S
C202 C201 1.392 . S
C202 C204 1.420 . S
C202 C234 1.423 . S
C203 H189 0.930 . S
C203 C200 1.413 . S
C203 C201 1.367 . S
C204 N199 1.362 . S
C204 C202 1.420 . S
C204 C208 1.429 . S
H205 C210 0.930 . S
N206 Eu168 2.609 . S
N206 C208 1.377 . S
N206 C209 1.321 . S
C207 H193 0.930 . S
C207 C209 1.400 . S
C207 C210 1.386 . S
C208 C204 1.429 . S
C208 N206 1.377 . S
C208 C211 1.411 . S
C209 H191 0.930 . S
C209 N206 1.321 . S
C209 C207 1.400 . S
C210 H205 0.930 . S
C210 C207 1.386 . S
C210 C211 1.395 . S
C211 C208 1.411 . S
C211 C210 1.395 . S
C211 C233 1.420 . S
O212 Eu168 2.558 1_556 S
O212 C232 1.257 . S
O213 Eu168 2.612 1_556 S
O213 Eu179 2.380 1_556 S
O213 C224 1.276 . S
O214 Eu179 2.432 . S
O214 C231 1.264 . S
O215 Eu168 2.339 . S
O215 C231 1.254 . S
O216 Eu168 2.563 1_556 S
O216 C224 1.235 . S
O217 Eu168 2.419 1_556 S
O217 C232 1.249 . S
O218 Eu179 2.558 . S
O218 C243 1.257 . S
O219 Eu168 2.380 . S
O219 Eu179 2.612 . S
O219 C235 1.276 . S
O220 Eu168 2.432 . S
O220 C242 1.264 . S
O221 Eu179 2.339 . S
O221 C242 1.254 . S
O222 Eu179 2.563 . S
O222 C235 1.235 . S
O223 Eu179 2.419 . S
O223 C243 1.249 . S
C224 O213 1.276 . S
C224 O216 1.235 . S
C225 C227 1.393 . S
C225 C229 1.395 . S
C225 C232 1.492 . S
C226 C227 1.392 . S
C226 C228 1.386 . S
C227 C225 1.393 . S
C227 C226 1.392 . S
C227 H244 0.930 . S
C228 C226 1.386 . S
C228 C230 1.395 . S
C228 H245 0.930 . S
C229 C225 1.395 . S
C229 C230 1.379 . S
C229 H246 0.930 . S
C230 C228 1.395 . S
C230 C229 1.379 . S
C230 H247 0.930 . S
C231 O214 1.264 . S
C231 O215 1.254 . S
C232 Eu168 2.848 1_556 S
C232 O212 1.257 . S
C232 O217 1.249 . S
C232 C225 1.492 . S
C233 H198 0.931 . S
C233 C211 1.420 . S
C233 C234 1.351 . S
C234 H196 0.930 . S
C234 C202 1.423 . S
C234 C233 1.351 . S
C235 O219 1.276 . S
C235 O222 1.235 . S
C236 C237 1.393 . S
C236 C240 1.395 1_545 S
C236 C243 1.492 . S
C237 C236 1.393 . S
C237 C238 1.392 . S
C237 H248 0.930 . S
C238 C237 1.392 . S
C238 C239 1.386 1_545 S
C239 C238 1.386 1_565 S
C239 C241 1.395 . S
C239 H249 0.930 . S
C240 C236 1.395 1_565 S
C240 C241 1.379 . S
C240 H250 0.930 . S
C241 C239 1.395 . S
C241 C240 1.379 . S
C241 H251 0.930 . S
C242 O220 1.264 . S
C242 O221 1.254 . S
C243 Eu179 2.848 . S
C243 O218 1.257 . S
C243 O223 1.249 . S
C243 C236 1.492 . S
H244 C227 0.930 . S
H245 C228 0.930 . S
H246 C229 0.930 . S
H247 C230 0.930 . S
H248 C237 0.930 . S
H249 C239 0.930 . S
H250 C240 0.930 . S
H251 C241 0.930 . S
Eu252 N283 2.657 . S
Eu252 N290 2.609 . S
Eu252 O296 2.558 . S
Eu252 O297 2.612 1_655 S
Eu252 O299 2.339 1_655 S
Eu252 O300 2.563 1_655 S
Eu252 O301 2.419 . S
Eu252 O303 2.380 1_655 S
Eu252 O304 2.432 1_655 S
Eu252 C316 2.848 . S
C253 C256 1.429 . S
C253 C257 1.411 . S
C253 N260 1.377 . S
C254 C256 1.420 . S
C254 C258 1.423 . S
C254 C266 1.392 . S
C255 C257 1.420 . S
C255 C258 1.351 . S
C255 H278 0.931 . S
C256 C253 1.429 . S
C256 C254 1.420 . S
C256 N264 1.362 . S
C257 C253 1.411 . S
C257 C255 1.420 . S
C257 C262 1.395 . S
C258 C254 1.423 . S
C258 C255 1.351 . S
C258 H270 0.930 . S
C259 C261 1.400 . S
C259 C262 1.386 . S
C259 H271 0.930 . S
N260 C253 1.377 . S
N260 C261 1.321 . S
N260 Eu263 2.609 . S
C261 C259 1.400 . S
C261 N260 1.321 . S
C261 H268 0.930 . S
C262 C257 1.395 . S
C262 C259 1.386 . S
C262 H281 0.930 . S
Eu263 N260 2.609 . S
Eu263 N264 2.657 . S
Eu263 O297 2.380 . S
Eu263 O298 2.432 . S
Eu263 O302 2.558 . S
Eu263 O303 2.612 . S
Eu263 O305 2.339 . S
Eu263 O306 2.563 . S
Eu263 O307 2.419 . S
Eu263 C327 2.848 . S
N264 C256 1.362 . S
N264 Eu263 2.657 . S
N264 C265 1.334 . S
C265 N264 1.334 . S
C265 C267 1.413 . S
C265 H272 0.929 . S
C266 C254 1.392 . S
C266 C267 1.367 . S
C266 H274 0.930 . S
C267 C265 1.413 . S
C267 C266 1.367 . S
C267 H269 0.930 . S
H268 C261 0.930 . S
H269 C267 0.930 . S
H270 C258 0.930 . S
H271 C259 0.930 . S
H272 C265 0.929 . S
H273 C287 0.930 . S
H274 C266 0.930 . S
H275 C293 0.930 . S
H276 C284 0.929 . S
H277 C291 0.930 . S
H278 C255 0.931 . S
H279 C285 0.930 . S
H280 C318 0.930 . S
H281 C262 0.930 . S
H282 C317 0.931 . S
N283 Eu252 2.657 . S
N283 C284 1.334 . S
N283 C288 1.362 . S
C284 H276 0.929 . S
C284 N283 1.334 . S
C284 C287 1.413 . S
C285 H279 0.930 . S
C285 C286 1.392 . S
C285 C287 1.367 . S
C286 C285 1.392 . S
C286 C288 1.420 . S
C286 C318 1.423 . S
C287 H273 0.930 . S
C287 C284 1.413 . S
C287 C285 1.367 . S
C288 N283 1.362 . S
C288 C286 1.420 . S
C288 C292 1.429 . S
H289 C294 0.930 . S
N290 Eu252 2.609 . S
N290 C292 1.377 . S
N290 C293 1.321 . S
C291 H277 0.930 . S
C291 C293 1.400 1_545 S
C291 C294 1.386 . S
C292 C288 1.429 . S
C292 N290 1.377 . S
C292 C295 1.411 . S
C293 H275 0.930 . S
C293 N290 1.321 . S
C293 C291 1.400 1_565 S
C294 H289 0.930 . S
C294 C291 1.386 . S
C294 C295 1.395 1_545 S
C295 C292 1.411 . S
C295 C294 1.395 1_565 S
C295 C317 1.420 . S
O296 Eu252 2.558 . S
O296 C316 1.257 . S
O297 Eu252 2.612 1_455 S
O297 Eu263 2.380 . S
O297 C308 1.276 . S
O298 Eu263 2.432 . S
O298 C315 1.264 . S
O299 Eu252 2.339 1_455 S
O299 C315 1.254 . S
O300 Eu252 2.563 1_455 S
O300 C308 1.235 . S
O301 Eu252 2.419 . S
O301 C316 1.249 . S
O302 Eu263 2.558 . S
O302 C327 1.257 . S
O303 Eu252 2.380 1_455 S
O303 Eu263 2.612 . S
O303 C319 1.276 . S
O304 Eu252 2.432 1_455 S
O304 C326 1.264 . S
O305 Eu263 2.339 . S
O305 C326 1.254 . S
O306 Eu263 2.563 . S
O306 C319 1.235 . S
O307 Eu263 2.419 . S
O307 C327 1.249 . S
C308 O297 1.276 . S
C308 O300 1.235 . S
C309 C311 1.393 . S
C309 C313 1.395 . S
C309 C316 1.492 . S
C310 C311 1.392 . S
C310 C312 1.386 . S
C311 C309 1.393 . S
C311 C310 1.392 . S
C311 H328 0.930 . S
C312 C310 1.386 . S
C312 C314 1.395 . S
C312 H329 0.930 . S
C313 C309 1.395 . S
C313 C314 1.379 . S
C313 H330 0.930 . S
C314 C312 1.395 . S
C314 C313 1.379 . S
C314 H331 0.930 . S
C315 O298 1.264 . S
C315 O299 1.254 . S
C316 Eu252 2.848 . S
C316 O296 1.257 . S
C316 O301 1.249 . S
C316 C309 1.492 . S
C317 H282 0.931 . S
C317 C295 1.420 . S
C317 C318 1.351 . S
C318 H280 0.930 . S
C318 C286 1.423 . S
C318 C317 1.351 . S
C319 O303 1.276 . S
C319 O306 1.235 . S
C320 C321 1.393 . S
C320 C324 1.395 . S
C320 C327 1.492 . S
C321 C320 1.393 . S
C321 C322 1.392 . S
C321 H332 0.930 . S
C322 C321 1.392 . S
C322 C323 1.386 . S
C323 C322 1.386 . S
C323 C325 1.395 . S
C323 H333 0.930 . S
C324 C320 1.395 . S
C324 C325 1.379 . S
C324 H334 0.930 . S
C325 C323 1.395 . S
C325 C324 1.379 . S
C325 H335 0.930 . S
C326 O304 1.264 . S
C326 O305 1.254 . S
C327 Eu263 2.848 . S
C327 O302 1.257 . S
C327 O307 1.249 . S
C327 C320 1.492 . S
H328 C311 0.930 . S
H329 C312 0.930 . S
H330 C313 0.930 . S
H331 C314 0.930 . S
H332 C321 0.930 . S
H333 C323 0.930 . S
H334 C324 0.930 . S
H335 C325 0.930 . S
C336 C337 1.349 . S
C336 C338 1.327 . S
C336 H361 0.950 . S
C337 C336 1.349 . S
C337 C353 1.349 1_554 S
C338 C336 1.327 . S
C338 C357 1.429 . S
C338 H362 0.950 . S
C339 C356 1.574 . S
C339 C358 1.368 . S
C339 H363 0.949 1_554 S
H340 C344 0.949 . S
C341 C342 1.349 . S
C341 C343 1.327 . S
C341 H364 0.950 1_545 S
C342 C341 1.349 . S
C342 C354 1.349 . S
C343 C341 1.327 . S
C343 C359 1.429 . S
C343 H365 0.950 . S
C344 H340 0.949 . S
C344 C352 1.574 . S
C344 C360 1.368 . S
H345 C353 0.950 . S
H346 C351 0.950 . S
H347 C352 0.949 . S
H348 C354 0.950 . S
H349 C355 0.950 . S
H350 C356 0.926 1_556 S
C351 H346 0.950 . S
C351 C353 1.327 . S
C351 C357 1.429 1_556 S
C352 C344 1.574 . S
C352 H347 0.949 . S
C352 C358 1.368 . S
C353 C337 1.349 1_556 S
C353 H345 0.950 . S
C353 C351 1.327 . S
C354 C342 1.349 . S
C354 H348 0.950 . S
C354 C355 1.327 . S
C355 H349 0.950 . S
C355 C354 1.327 . S
C355 C359 1.429 . S
C356 C339 1.574 . S
C356 H350 0.926 1_554 S
C356 C360 1.368 . S
C357 C338 1.429 . S
C357 C351 1.429 1_554 S
C357 C358 1.523 1_655 S
C358 C339 1.368 . S
C358 C352 1.368 . S
C358 C357 1.523 1_455 S
C359 C343 1.429 . S
C359 C355 1.429 . S
C359 C360 1.523 . S
C360 C344 1.368 . S
C360 C356 1.368 . S
C360 C359 1.523 . S
H361 C336 0.950 . S
H362 C338 0.950 . S
H363 C339 0.949 1_556 S
H364 C341 0.950 1_565 S
H365 C343 0.950 . S
C366 C367 1.349 . S
C366 C368 1.327 . S
C366 H391 0.950 . S
C367 C366 1.349 . S
C367 C383 1.349 . S
C368 C366 1.327 . S
C368 C387 1.429 1_565 S
C368 H392 0.950 . S
C369 C386 1.574 . S
C369 C388 1.368 . S
C369 H393 0.949 . S
H370 C374 0.949 . S
C371 C372 1.349 . S
C371 C373 1.327 . S
C371 H394 0.950 . S
C372 C371 1.349 . S
C372 C384 1.349 . S
C373 C371 1.327 . S
C373 C389 1.429 . S
C373 H395 0.950 . S
C374 H370 0.949 . S
C374 C382 1.574 . S
C374 C390 1.368 . S
H375 C383 0.950 . S
H376 C381 0.950 . S
H377 C382 0.949 . S
H378 C384 0.950 . S
H379 C385 0.950 . S
H380 C386 0.949 . S
C381 H376 0.950 . S
C381 C383 1.327 . S
C381 C387 1.429 1_565 S
C382 C374 1.574 . S
C382 H377 0.949 . S
C382 C388 1.368 . S
C383 C367 1.349 . S
C383 H375 0.950 . S
C383 C381 1.327 . S
C384 C372 1.349 . S
C384 H378 0.950 . S
C384 C385 1.327 . S
C385 H379 0.950 . S
C385 C384 1.327 . S
C385 C389 1.429 . S
C386 C369 1.574 . S
C386 H380 0.949 . S
C386 C390 1.368 . S
C387 C368 1.429 1_545 S
C387 C381 1.429 1_545 S
C387 C388 1.523 . S
C388 C369 1.368 . S
C388 C382 1.368 . S
C388 C387 1.523 . S
C389 C373 1.429 . S
C389 C385 1.429 . S
C389 C390 1.523 . S
C390 C374 1.368 . S
C390 C386 1.368 . S
C390 C389 1.523 . S
H391 C366 0.950 . S
H392 C368 0.950 . S
H393 C369 0.949 . S
H394 C371 0.950 . S
H395 C373 0.950 . S
C396 C397 1.349 . S
C396 C398 1.327 . S
C396 H421 0.950 . S
C397 C396 1.349 . S
C397 C413 1.349 . S
C398 C396 1.327 . S
C398 C417 1.429 . S
C398 H422 0.950 . S
C399 C416 1.574 . S
C399 C418 1.368 . S
C399 H423 0.949 . S
H400 C404 0.949 . S
C401 C402 1.349 . S
C401 C403 1.327 . S
C401 H424 0.950 . S
C402 C401 1.349 . S
C402 C414 1.349 1_545 S
C403 C401 1.327 . S
C403 C419 1.429 . S
C403 H425 0.950 . S
C404 H400 0.949 . S
C404 C412 1.574 . S
C404 C420 1.368 . S
H405 C413 0.950 . S
H406 C411 0.950 . S
H407 C412 0.949 . S
H408 C414 0.950 . S
H409 C415 0.950 1_565 S
H410 C416 0.949 . S
C411 H406 0.950 . S
C411 C413 1.327 . S
C411 C417 1.429 . S
C412 C404 1.574 . S
C412 H407 0.949 . S
C412 C418 1.368 . S
C413 C397 1.349 . S
C413 H405 0.950 . S
C413 C411 1.327 . S
C414 C402 1.349 1_565 S
C414 H408 0.950 . S
C414 C415 1.327 1_565 S
C415 H409 0.950 1_545 S
C415 C414 1.327 1_545 S
C415 C419 1.429 . S
C416 C399 1.574 . S
C416 H410 0.949 . S
C416 C420 1.368 . S
C417 C398 1.429 . S
C417 C411 1.429 . S
C417 C418 1.523 . S
C418 C399 1.368 . S
C418 C412 1.368 . S
C418 C417 1.523 . S
C419 C403 1.429 . S
C419 C415 1.429 . S
C419 C420 1.523 . S
C420 C404 1.368 . S
C420 C416 1.368 . S
C420 C419 1.523 . S
H421 C396 0.950 . S
H422 C398 0.950 . S
H423 C399 0.949 . S
H424 C401 0.950 . S
H425 C403 0.950 . S
C426 C427 1.349 . S
C426 C428 1.327 . S
C426 H451 0.950 . S
C427 C426 1.349 . S
C427 C443 1.349 . S
C428 C426 1.327 . S
C428 C447 1.429 . S
C428 H452 0.950 . S
C429 C446 1.574 . S
C429 C448 1.368 . S
C429 H453 0.949 . S
H430 C434 0.949 . S
C431 C432 1.349 . S
C431 C433 1.327 . S
C431 H454 0.950 . S
C432 C431 1.349 . S
C432 C444 1.349 . S
C433 C431 1.327 . S
C433 C449 1.429 . S
C433 H455 0.950 . S
C434 H430 0.949 . S
C434 C442 1.574 . S
C434 C450 1.368 . S
H435 C443 0.950 . S
H436 C441 0.950 . S
H437 C442 0.949 . S
H438 C444 0.950 . S
H439 C445 0.950 . S
H440 C446 0.949 . S
C441 H436 0.950 . S
C441 C443 1.327 . S
C441 C447 1.429 . S
C442 C434 1.574 . S
C442 H437 0.949 . S
C442 C448 1.368 . S
C443 C427 1.349 . S
C443 H435 0.950 . S
C443 C441 1.327 . S
C444 C432 1.349 . S
C444 H438 0.950 . S
C444 C445 1.327 . S
C445 H439 0.950 . S
C445 C444 1.327 . S
C445 C449 1.429 . S
C446 C429 1.574 . S
C446 H440 0.949 . S
C446 C450 1.368 . S
C447 C428 1.429 . S
C447 C441 1.429 . S
C447 C448 1.523 . S
C448 C429 1.368 . S
C448 C442 1.368 . S
C448 C447 1.523 . S
C449 C433 1.429 . S
C449 C445 1.429 . S
C449 C450 1.523 . S
C450 C434 1.368 . S
C450 C446 1.368 . S
C450 C449 1.523 . S
H451 C426 0.950 . S
H452 C428 0.950 . S
H453 C429 0.949 . S
H454 C431 0.950 . S
H455 C433 0.950 . S
C456 C457 1.349 . S
C456 C458 1.327 . S
C456 H481 0.950 . S
C457 C456 1.349 . S
C457 C473 1.349 . S
C458 C456 1.327 . S
C458 C477 1.429 . S
C458 H482 0.950 . S
C459 C476 1.574 . S
C459 C478 1.368 . S
C459 H483 0.949 . S
H460 C464 0.949 . S
C461 C462 1.349 . S
C461 C463 1.327 . S
C461 H484 0.950 . S
C462 C461 1.349 . S
C462 C474 1.349 . S
C463 C461 1.327 . S
C463 C479 1.429 . S
C463 H485 0.950 . S
C464 H460 0.949 . S
C464 C472 1.574 . S
C464 C480 1.368 . S
H465 C473 0.950 . S
H466 C471 0.950 . S
H467 C472 0.949 . S
H468 C474 0.950 . S
H469 C475 0.950 . S
H470 C476 0.949 . S
C471 H466 0.950 . S
C471 C473 1.327 . S
C471 C477 1.429 . S
C472 C464 1.574 . S
C472 H467 0.949 . S
C472 C478 1.368 . S
C473 C457 1.349 . S
C473 H465 0.950 . S
C473 C471 1.327 . S
C474 C462 1.349 . S
C474 H468 0.950 . S
C474 C475 1.327 . S
C475 H469 0.950 . S
C475 C474 1.327 . S
C475 C479 1.429 . S
C476 C459 1.574 . S
C476 H470 0.949 . S
C476 C480 1.368 . S
C477 C458 1.429 . S
C477 C471 1.429 . S
C477 C478 1.523 . S
C478 C459 1.368 . S
C478 C472 1.368 . S
C478 C477 1.523 . S
C479 C463 1.429 . S
C479 C475 1.429 . S
C479 C480 1.523 . S
C480 C464 1.368 . S
C480 C476 1.368 . S
C480 C479 1.523 . S
H481 C456 0.950 . S
H482 C458 0.950 . S
H483 C459 0.949 . S
H484 C461 0.950 . S
H485 C463 0.950 . S
C486 C487 1.349 . S
C486 C488 1.327 . S
C486 H511 0.950 . S
C487 C486 1.349 . S
C487 C503 1.349 1_455 S
C488 C486 1.327 . S
C488 C507 1.429 1_455 S
C488 H512 0.950 . S
C489 C506 1.574 . S
C489 C508 1.368 . S
C489 H513 0.949 . S
H490 C494 0.949 . S
C491 C492 1.349 . S
C491 C493 1.327 . S
C491 H514 0.950 . S
C492 C491 1.349 . S
C492 C504 1.349 . S
C493 C491 1.327 . S
C493 C509 1.429 . S
C493 H515 0.950 . S
C494 H490 0.949 . S
C494 C502 1.574 . S
C494 C510 1.368 . S
H495 C503 0.950 . S
H496 C501 0.950 . S
H497 C502 0.965 . S
H498 C504 0.950 . S
H499 C505 0.950 . S
H500 C506 0.949 . S
C501 H496 0.950 . S
C501 C503 1.327 . S
C501 C507 1.429 . S
C502 C494 1.574 . S
C502 H497 0.965 . S
C502 C508 1.368 . S
C503 C487 1.349 1_655 S
C503 H495 0.950 . S
C503 C501 1.327 . S
C504 C492 1.349 . S
C504 H498 0.950 . S
C504 C505 1.327 . S
C505 H499 0.950 . S
C505 C504 1.327 . S
C505 C509 1.429 . S
C506 C489 1.574 . S
C506 H500 0.949 . S
C506 C510 1.368 . S
C507 C488 1.429 1_655 S
C507 C501 1.429 . S
C507 C508 1.523 . S
C508 C489 1.368 . S
C508 C502 1.368 . S
C508 C507 1.523 . S
C509 C493 1.429 . S
C509 C505 1.429 . S
C509 C510 1.523 . S
C510 C494 1.368 . S
C510 C506 1.368 . S
C510 C509 1.523 . S
H511 C486 0.950 . S
H512 C488 0.950 . S
H513 C489 0.949 . S
H514 C491 0.950 . S
H515 C493 0.950 . S
C516 C517 1.328 1_455 S
C516 C518 1.328 1_455 S
C516 H541 0.971 . S
C517 C516 1.328 1_655 S
C517 C533 1.349 . S
C518 C516 1.328 1_655 S
C518 C537 1.429 . S
C518 H542 0.950 1_655 S
C519 C536 1.574 . S
C519 C538 1.368 . S
C519 H543 0.949 . S
H520 C524 0.949 . S
C521 C522 1.349 . S
C521 C523 1.327 . S
C521 H544 0.950 . S
C522 C521 1.349 . S
C522 C534 1.349 . S
C523 C521 1.327 . S
C523 C539 1.429 . S
C523 H545 0.950 . S
C524 H520 0.949 . S
C524 C532 1.574 . S
C524 C540 1.368 . S
H525 C533 0.950 . S
H526 C531 0.950 . S
H527 C532 0.949 . S
H528 C534 0.950 1_545 S
H529 C535 0.950 . S
H530 C536 0.949 . S
C531 H526 0.950 . S
C531 C533 1.327 . S
C531 C537 1.429 . S
C532 C524 1.574 . S
C532 H527 0.949 . S
C532 C538 1.368 . S
C533 C517 1.349 . S
C533 H525 0.950 . S
C533 C531 1.327 . S
C534 C522 1.349 . S
C534 H528 0.950 1_565 S
C534 C535 1.327 . S
C535 H529 0.950 . S
C535 C534 1.327 . S
C535 C539 1.429 . S
C536 C519 1.574 . S
C536 H530 0.949 . S
C536 C540 1.368 . S
C537 C518 1.429 . S
C537 C531 1.429 . S
C537 C538 1.523 . S
C538 C519 1.368 . S
C538 C532 1.368 . S
C538 C537 1.523 . S
C539 C523 1.429 . S
C539 C535 1.429 . S
C539 C540 1.523 . S
C540 C524 1.368 . S
C540 C536 1.368 . S
C540 C539 1.523 . S
H541 C516 0.971 . S
H542 C518 0.950 1_455 S
H543 C519 0.949 . S
H544 C521 0.950 . S
H545 C523 0.950 . S
C546 C547 1.349 . S
C546 C548 1.327 . S
C546 H571 0.950 . S
C547 C546 1.349 . S
C547 C563 1.349 . S
C548 C546 1.327 . S
C548 C567 1.429 . S
C548 H572 0.950 . S
C549 C566 1.574 . S
C549 C568 1.368 . S
C549 H573 0.949 . S
H550 C554 0.949 . S
C551 C552 1.349 . S
C551 C553 1.327 . S
C551 H574 0.950 1_565 S
C552 C551 1.349 . S
C552 C564 1.349 . S
C553 C551 1.327 . S
C553 C569 1.429 . S
C553 H575 0.950 . S
C554 H550 0.949 . S
C554 C562 1.574 . S
C554 C570 1.368 . S
H555 C563 0.950 . S
H556 C561 0.950 . S
H557 C562 0.949 . S
H558 C564 0.950 . S
H559 C565 0.950 . S
H560 C566 0.949 . S
C561 H556 0.950 . S
C561 C563 1.327 . S
C561 C567 1.429 . S
C562 C554 1.574 . S
C562 H557 0.949 . S
C562 C568 1.368 . S
C563 C547 1.349 . S
C563 H555 0.950 . S
C563 C561 1.327 . S
C564 C552 1.349 . S
C564 H558 0.950 . S
C564 C565 1.327 . S
C565 H559 0.950 . S
C565 C564 1.327 . S
C565 C569 1.429 . S
C566 C549 1.574 . S
C566 H560 0.949 . S
C566 C570 1.368 . S
C567 C548 1.429 . S
C567 C561 1.429 . S
C567 C568 1.523 . S
C568 C549 1.368 . S
C568 C562 1.368 . S
C568 C567 1.523 . S
C569 C553 1.429 . S
C569 C565 1.429 . S
C569 C570 1.523 . S
C570 C554 1.368 . S
C570 C566 1.368 . S
C570 C569 1.523 . S
H571 C546 0.950 . S
H572 C548 0.950 . S
H573 C549 0.949 . S
H574 C551 0.950 1_545 S
H575 C553 0.950 . S
C576 C577 1.349 . S
C576 C578 1.327 . S
C576 H601 0.950 . S
C577 C576 1.349 . S
C577 C593 1.349 . S
C578 C576 1.327 . S
C578 C597 1.429 . S
C578 H602 0.950 . S
C579 C596 1.574 . S
C579 C598 1.368 1_565 S
C579 H603 0.949 . S
H580 C584 0.949 . S
C581 C582 1.349 . S
C581 C583 1.327 . S
C581 H604 0.950 . S
C582 C581 1.349 . S
C582 C594 1.349 . S
C583 C581 1.327 . S
C583 C599 1.429 . S
C583 H605 0.950 . S
C584 H580 0.949 . S
C584 C592 1.574 1_565 S
C584 C600 1.368 . S
H585 C593 0.950 . S
H586 C591 0.950 1_565 S
H587 C592 0.949 . S
H588 C594 0.950 . S
H589 C595 0.950 . S
H590 C596 0.949 . S
C591 H586 0.950 1_545 S
C591 C593 1.327 . S
C591 C597 1.429 . S
C592 C584 1.574 1_545 S
C592 H587 0.949 . S
C592 C598 1.368 . S
C593 C577 1.349 . S
C593 H585 0.950 . S
C593 C591 1.327 . S
C594 C582 1.349 . S
C594 H588 0.950 . S
C594 C595 1.327 . S
C595 H589 0.950 . S
C595 C594 1.327 . S
C595 C599 1.429 . S
C596 C579 1.574 . S
C596 H590 0.949 . S
C596 C600 1.368 . S
C597 C578 1.429 . S
C597 C591 1.429 . S
C597 C598 1.523 . S
C598 C579 1.368 1_545 S
C598 C592 1.368 . S
C598 C597 1.523 . S
C599 C583 1.429 . S
C599 C595 1.429 . S
C599 C600 1.523 . S
C600 C584 1.368 . S
C600 C596 1.368 . S
C600 C599 1.523 . S
H601 C576 0.950 . S
H602 C578 0.950 . S
H603 C579 0.949 . S
H604 C581 0.950 . S
H605 C583 0.950 . S
C606 C607 1.349 . S
C606 C608 1.327 . S
C606 H631 0.950 . S
C607 C606 1.349 . S
C607 C623 1.349 . S
C608 C606 1.327 . S
C608 C627 1.429 . S
C608 H632 0.950 . S
C609 C626 1.574 . S
C609 C628 1.368 . S
C609 H633 0.949 . S
H610 C614 0.949 . S
C611 C612 1.349 . S
C611 C613 1.327 . S
C611 H634 0.950 . S
C612 C611 1.349 . S
C612 C624 1.349 . S
C613 C611 1.327 . S
C613 C629 1.429 . S
C613 H635 0.950 . S
C614 H610 0.949 . S
C614 C622 1.574 . S
C614 C630 1.368 . S
H615 C623 0.950 . S
H616 C621 0.950 . S
H617 C622 0.949 . S
H618 C624 0.950 . S
H619 C625 0.950 . S
H620 C626 0.949 . S
C621 H616 0.950 . S
C621 C623 1.327 . S
C621 C627 1.429 . S
C622 C614 1.574 . S
C622 H617 0.949 . S
C622 C628 1.368 . S
C623 C607 1.349 . S
C623 H615 0.950 . S
C623 C621 1.327 . S
C624 C612 1.349 . S
C624 H618 0.950 . S
C624 C625 1.327 . S
C625 H619 0.950 . S
C625 C624 1.327 . S
C625 C629 1.429 . S
C626 C609 1.574 . S
C626 H620 0.949 . S
C626 C630 1.368 . S
C627 C608 1.429 . S
C627 C621 1.429 . S
C627 C628 1.523 . S
C628 C609 1.368 . S
C628 C622 1.368 . S
C628 C627 1.523 . S
C629 C613 1.429 . S
C629 C625 1.429 . S
C629 C630 1.523 . S
C630 C614 1.368 . S
C630 C626 1.368 . S
C630 C629 1.523 . S
H631 C606 0.950 . S
H632 C608 0.950 . S
H633 C609 0.949 . S
H634 C611 0.950 . S
H635 C613 0.950 . S
C636 C637 1.349 . S
C636 C638 1.327 . S
C636 H661 0.950 . S
C637 C636 1.349 . S
C637 C653 1.349 . S
C638 C636 1.327 . S
C638 C657 1.429 . S
C638 H662 0.950 . S
C639 C656 1.574 . S
C639 C658 1.368 . S
C639 H663 0.949 . S
H640 C644 0.949 . S
C641 C642 1.349 . S
C641 C643 1.327 . S
C641 H664 0.950 . S
C642 C641 1.349 . S
C642 C654 1.349 . S
C643 C641 1.327 . S
C643 C659 1.429 . S
C643 H665 0.950 . S
C644 H640 0.949 . S
C644 C652 1.574 . S
C644 C660 1.368 . S
H645 C653 0.950 . S
H646 C651 0.950 . S
H647 C652 0.949 . S
H648 C654 0.950 . S
H649 C655 0.950 . S
H650 C656 0.949 . S
C651 H646 0.950 . S
C651 C653 1.327 . S
C651 C657 1.429 . S
C652 C644 1.574 . S
C652 H647 0.949 . S
C652 C658 1.368 . S
C653 C637 1.349 . S
C653 H645 0.950 . S
C653 C651 1.327 . S
C654 C642 1.349 . S
C654 H648 0.950 . S
C654 C655 1.327 . S
C655 H649 0.950 . S
C655 C654 1.327 . S
C655 C659 1.429 . S
C656 C639 1.574 . S
C656 H650 0.949 . S
C656 C660 1.368 . S
C657 C638 1.429 . S
C657 C651 1.429 . S
C657 C658 1.523 . S
C658 C639 1.368 . S
C658 C652 1.368 . S
C658 C657 1.523 . S
C659 C643 1.429 . S
C659 C655 1.429 . S
C659 C660 1.523 . S
C660 C644 1.368 . S
C660 C656 1.368 . S
C660 C659 1.523 . S
H661 C636 0.950 . S
H662 C638 0.950 . S
H663 C639 0.949 . S
H664 C641 0.950 . S
H665 C643 0.950 . S
C666 C667 1.349 . S
C666 C668 1.327 . S
C666 H691 0.950 . S
C667 C666 1.349 . S
C667 C683 1.349 . S
C668 C666 1.327 . S
C668 C687 1.429 . S
C668 H692 0.950 . S
C669 C686 1.574 . S
C669 C688 1.368 . S
C669 H693 0.949 . S
H670 C674 0.949 . S
C671 C672 1.349 . S
C671 C673 1.327 . S
C671 H694 0.950 1_655 S
C672 C671 1.349 . S
C672 C684 1.349 . S
C673 C671 1.327 . S
C673 C689 1.429 . S
C673 H695 0.950 . S
C674 H670 0.949 . S
C674 C682 1.574 . S
C674 C690 1.368 . S
H675 C683 0.950 . S
H676 C681 0.950 . S
H677 C682 0.949 . S
H678 C684 0.950 . S
H679 C685 0.950 . S
H680 C686 0.949 . S
C681 H676 0.950 . S
C681 C683 1.327 . S
C681 C687 1.429 . S
C682 C674 1.574 . S
C682 H677 0.949 . S
C682 C688 1.368 . S
C683 C667 1.349 . S
C683 H675 0.950 . S
C683 C681 1.327 . S
C684 C672 1.349 . S
C684 H678 0.950 . S
C684 C685 1.327 . S
C685 H679 0.950 . S
C685 C684 1.327 . S
C685 C689 1.429 . S
C686 C669 1.574 . S
C686 H680 0.949 . S
C686 C690 1.368 . S
C687 C668 1.429 . S
C687 C681 1.429 . S
C687 C688 1.523 . S
C688 C669 1.368 . S
C688 C682 1.368 . S
C688 C687 1.523 . S
C689 C673 1.429 . S
C689 C685 1.429 . S
C689 C690 1.523 . S
C690 C674 1.368 . S
C690 C686 1.368 . S
C690 C689 1.523 . S
H691 C666 0.950 . S
H692 C668 0.950 . S
H693 C669 0.949 . S
H694 C671 0.950 1_455 S
H695 C673 0.950 . S
C337 C231 0.859 . S
C342 C74 0.859 . S
C367 C326 0.732 . S
C372 C158 0.695 . S
C397 C242 1.005 . S
C402 C63 1.005 . S
C427 C147 0.785 . S
C432 C315 0.786 . S
C457 C140 2.892 . S
C462 C67 2.963 . S
C487 C151 3.285 . S
C492 C226 3.317 . S
C517 C319 2.419 1_655 S
C522 C238 2.118 1_565 S
C547 C308 2.199 . S
C552 C56 2.083 . S
C577 C224 0.763 . S
C582 C310 0.752 . S
C607 C70 0.813 . S
C612 C322 0.806 . S
C637 C154 0.500 . S
C642 C58 0.900 . S
C667 C235 0.584 . S
C672 C142 1.020 . S
