# Generated by pormake.
# Topology wjd, (6)-cn, num edge types: 1
# Building blocks:
#     Node 0, Type 0, BuildingBlock: FUNLAD_clean_sbu_0, # of connection points: 6
#     Node 1, Type 0, BuildingBlock: FUNLAD_clean_sbu_0, # of connection points: 6
#     Node 2, Type 0, BuildingBlock: FUNLAD_clean_sbu_0, # of connection points: 6
#     Node 3, Type 0, BuildingBlock: FUNLAD_clean_sbu_0, # of connection points: 6
#     Node 4, Type 0, BuildingBlock: FUNLAD_clean_sbu_0, # of connection points: 6
#     Node 5, Type 0, BuildingBlock: FUNLAD_clean_sbu_0, # of connection points: 6
#     Node 6, Type 0, BuildingBlock: FUNLAD_clean_sbu_0, # of connection points: 6
#     Node 7, Type 0, BuildingBlock: FUNLAD_clean_sbu_0, # of connection points: 6
#     Node 8, Type 0, BuildingBlock: FUNLAD_clean_sbu_0, # of connection points: 6
#     Node 9, Type 0, BuildingBlock: FUNLAD_clean_sbu_0, # of connection points: 6
#     Node 10, Type 0, BuildingBlock: FUNLAD_clean_sbu_0, # of connection points: 6
#     Node 11, Type 0, BuildingBlock: FUNLAD_clean_sbu_0, # of connection points: 6
#     Edge 12, Type (0, 0), BuildingBlock: CIFDUS_clean_linker_0, # of connection points: 2
#     Edge 13, Type (0, 0), BuildingBlock: CIFDUS_clean_linker_0, # of connection points: 2
#     Edge 14, Type (0, 0), BuildingBlock: CIFDUS_clean_linker_0, # of connection points: 2
#     Edge 15, Type (0, 0), BuildingBlock: CIFDUS_clean_linker_0, # of connection points: 2
#     Edge 16, Type (0, 0), BuildingBlock: CIFDUS_clean_linker_0, # of connection points: 2
#     Edge 17, Type (0, 0), BuildingBlock: CIFDUS_clean_linker_0, # of connection points: 2
#     Edge 18, Type (0, 0), BuildingBlock: CIFDUS_clean_linker_0, # of connection points: 2
#     Edge 19, Type (0, 0), BuildingBlock: CIFDUS_clean_linker_0, # of connection points: 2
#     Edge 20, Type (0, 0), BuildingBlock: CIFDUS_clean_linker_0, # of connection points: 2
#     Edge 21, Type (0, 0), BuildingBlock: CIFDUS_clean_linker_0, # of connection points: 2
#     Edge 22, Type (0, 0), BuildingBlock: CIFDUS_clean_linker_0, # of connection points: 2
#     Edge 23, Type (0, 0), BuildingBlock: CIFDUS_clean_linker_0, # of connection points: 2
#     Edge 24, Type (0, 0), BuildingBlock: CIFDUS_clean_linker_0, # of connection points: 2
#     Edge 25, Type (0, 0), BuildingBlock: CIFDUS_clean_linker_0, # of connection points: 2
#     Edge 26, Type (0, 0), BuildingBlock: CIFDUS_clean_linker_0, # of connection points: 2
#     Edge 27, Type (0, 0), BuildingBlock: CIFDUS_clean_linker_0, # of connection points: 2
#     Edge 28, Type (0, 0), BuildingBlock: CIFDUS_clean_linker_0, # of connection points: 2
#     Edge 29, Type (0, 0), BuildingBlock: CIFDUS_clean_linker_0, # of connection points: 2
#     Edge 30, Type (0, 0), BuildingBlock: CIFDUS_clean_linker_0, # of connection points: 2
#     Edge 31, Type (0, 0), BuildingBlock: CIFDUS_clean_linker_0, # of connection points: 2
#     Edge 32, Type (0, 0), BuildingBlock: CIFDUS_clean_linker_0, # of connection points: 2
#     Edge 33, Type (0, 0), BuildingBlock: CIFDUS_clean_linker_0, # of connection points: 2
#     Edge 34, Type (0, 0), BuildingBlock: CIFDUS_clean_linker_0, # of connection points: 2
#     Edge 35, Type (0, 0), BuildingBlock: CIFDUS_clean_linker_0, # of connection points: 2
#     Edge 36, Type (0, 0), BuildingBlock: CIFDUS_clean_linker_0, # of connection points: 2
#     Edge 37, Type (0, 0), BuildingBlock: CIFDUS_clean_linker_0, # of connection points: 2
#     Edge 38, Type (0, 0), BuildingBlock: CIFDUS_clean_linker_0, # of connection points: 2
#     Edge 39, Type (0, 0), BuildingBlock: CIFDUS_clean_linker_0, # of connection points: 2
#     Edge 40, Type (0, 0), BuildingBlock: CIFDUS_clean_linker_0, # of connection points: 2
#     Edge 41, Type (0, 0), BuildingBlock: CIFDUS_clean_linker_0, # of connection points: 2
#     Edge 42, Type (0, 0), BuildingBlock: CIFDUS_clean_linker_0, # of connection points: 2
#     Edge 43, Type (0, 0), BuildingBlock: CIFDUS_clean_linker_0, # of connection points: 2
#     Edge 44, Type (0, 0), BuildingBlock: CIFDUS_clean_linker_0, # of connection points: 2
#     Edge 45, Type (0, 0), BuildingBlock: CIFDUS_clean_linker_0, # of connection points: 2
#     Edge 46, Type (0, 0), BuildingBlock: CIFDUS_clean_linker_0, # of connection points: 2
#     Edge 47, Type (0, 0), BuildingBlock: CIFDUS_clean_linker_0, # of connection points: 2
# Relax obj value: 0.145
# Max RMSD: 0.210
# Mean RMSD: 0.210
data_MOF--net-wjd--node1-FUNLAD_clean_sbu_0--edge1-CIFDUS_clean_linker_0
_symmetry_space_group_name_H-M    P1
_symmetry_Int_Tables_number       1
_symmetry_cell_setting            triclinic
loop_
_symmetry_equiv_pos_as_xyz
'x, y, z'
_cell_length_a     24.705065
_cell_length_b     24.699079
_cell_length_c     78.505846
_cell_angle_alpha  89.848131
_cell_angle_beta   90.357544
_cell_angle_gamma 120.05235
loop_
_atom_site_label
_atom_site_type_symbol
_atom_site_fract_x
_atom_site_fract_y
_atom_site_fract_z
_atom_type_partial_charge
C0 C 0.21949 0.94032 0.13735 0.0
N1 N 0.3102 0.06915 0.09886 0.0
C2 C 0.31724 0.02318 0.09153 0.0
C3 C 0.31289 0.01487 0.07394 0.0
C4 C 0.30008 0.05345 0.06354 0.0
C5 C 0.29408 0.10146 0.07136 0.0
C6 C 0.29931 0.10851 0.08915 0.0
Zn7 Zn 0.31063 0.0692 0.12516 0.0
C8 C 0.21779 0.09393 0.141 0.0
N9 N 0.30807 0.0525 0.17933 0.0
C10 C 0.3078 0.00273 0.18689 0.0
C11 C 0.3074 0.09832 0.18875 0.0
C12 C 0.30645 0.09511 0.20651 0.0
C13 C 0.30596 0.04415 0.21464 0.0
C14 C 0.30662 -0.00246 0.2046 0.0
Zn15 Zn 0.30911 0.05767 0.15339 0.0
O16 O 0.24289 0.97356 0.12417 0.0
C17 C 0.40724 0.04021 0.13887 0.0
O18 O 0.24156 0.96331 0.15189 0.0
H19 H 0.30737 0.13735 0.18248 0.0
H20 H 0.325 -0.00835 0.09936 0.0
H21 H 0.30859 0.96694 0.17917 0.0
O22 O 0.38596 0.0506 0.12522 0.0
O23 O 0.38088 0.03732 0.15289 0.0
H24 H 0.2933 0.14444 0.09519 0.0
O25 O 0.37524 0.15398 0.15435 0.0
O26 O 0.37527 0.16474 0.1265 0.0
O27 O 0.23834 0.07949 0.15404 0.0
O28 O 0.23833 0.09215 0.12629 0.0
C29 C 0.3936 0.18872 0.1412 0.0
H30 H 0.31934 0.97816 0.06857 0.0
H31 H 0.28383 0.13219 0.06389 0.0
H32 H 0.30526 0.13169 0.21378 0.0
H33 H 0.30701 0.95786 0.21038 0.0
C34 C 0.77187 0.56638 0.39631 0.0
N35 N 0.74885 0.64692 0.35099 0.0
C36 C 0.79884 0.64694 0.34377 0.0
C37 C 0.80386 0.64606 0.32599 0.0
C38 C 0.75695 0.645 0.31548 0.0
C39 C 0.70567 0.64437 0.32335 0.0
C40 C 0.70258 0.64538 0.34112 0.0
Zn41 Zn 0.74183 0.65193 0.37715 0.0
C42 C 0.61419 0.55935 0.38952 0.0
N43 N 0.72095 0.66269 0.43086 0.0
C44 C 0.76751 0.67257 0.44198 0.0
C45 C 0.66857 0.66253 0.43619 0.0
C46 C 0.66186 0.67359 0.45321 0.0
C47 C 0.70966 0.68536 0.4649 0.0
C48 C 0.76288 0.6843 0.45917 0.0
Zn49 Zn 0.73002 0.65522 0.40528 0.0
O50 O 0.76798 0.58369 0.38128 0.0
C51 C 0.85957 0.74163 0.39367 0.0
O52 O 0.75636 0.58751 0.40898 0.0
H53 H 0.63248 0.65554 0.42714 0.0
H54 H 0.83518 0.64812 0.35179 0.0
H55 H 0.80883 0.67268 0.43746 0.0
O56 O 0.83653 0.72011 0.37905 0.0
O57 O 0.82443 0.72437 0.40664 0.0
H58 H 0.66336 0.64575 0.34704 0.0
O59 O 0.70593 0.7236 0.40148 0.0
O60 O 0.71942 0.72377 0.37392 0.0
O61 O 0.63719 0.58498 0.40372 0.0
O62 O 0.64682 0.58031 0.37609 0.0
C63 C 0.7078 0.74667 0.38693 0.0
H64 H 0.84397 0.64593 0.32056 0.0
H65 H 0.66883 0.64457 0.31585 0.0
H66 H 0.62046 0.67481 0.45706 0.0
H67 H 0.80051 0.69262 0.46786 0.0
C68 C 0.0205 0.26258 0.14405 0.0
N69 N 0.9132 0.23922 0.10134 0.0
C70 C 0.9613 0.29443 0.09563 0.0
C71 C 0.97304 0.30493 0.07831 0.0
C72 C 0.93584 0.25773 0.06671 0.0
C73 C 0.88739 0.20048 0.0728 0.0
C74 C 0.87638 0.19233 0.09034 0.0
Zn75 Zn 0.90073 0.23173 0.12705 0.0
C76 C 0.86636 0.10792 0.1413 0.0
N77 N 0.88613 0.2257 0.18105 0.0
C78 C 0.93223 0.27253 0.19041 0.0
C79 C 0.83695 0.17598 0.18865 0.0
C80 C 0.83344 0.17157 0.20639 0.0
C81 C 0.88099 0.21882 0.21635 0.0
C82 C 0.9306 0.27001 0.20814 0.0
Zn83 Zn 0.89453 0.22993 0.15525 0.0
O84 O -0.00532 0.25836 0.12976 0.0
C85 C 0.92167 0.35182 0.14203 0.0
O86 O -0.01005 0.25584 0.15761 0.0
H87 H 0.80082 0.13928 0.18094 0.0
H88 H -0.00908 0.33068 0.10455 0.0
H89 H 0.97102 0.31149 0.1841 0.0
O90 O 0.92042 0.3256 0.12803 0.0
O91 O 0.91517 0.32272 0.15586 0.0
H92 H 0.83852 0.14877 0.09517 0.0
O93 O 0.79729 0.19959 0.15199 0.0
O94 O 0.80763 0.20381 0.12412 0.0
O95 O 0.87282 0.13811 0.15487 0.0
O96 O 0.87611 0.13526 0.12692 0.0
C97 C 0.77335 0.19169 0.13713 0.0
H98 H 0.01133 0.34932 0.074 0.0
H99 H 0.85794 0.16313 0.06408 0.0
H100 H 0.79402 0.13163 0.21223 0.0
H101 H 0.96869 0.30702 0.21531 0.0
C102 C 0.41178 0.1928 0.39165 0.0
N103 N 0.32775 0.06984 0.35133 0.0
C104 C 0.33096 0.12015 0.34324 0.0
C105 C 0.33445 0.12446 0.32553 0.0
C106 C 0.33467 0.07656 0.316 0.0
C107 C 0.3313 0.02511 0.32467 0.0
C108 C 0.3279 0.02271 0.34243 0.0
Zn109 Zn 0.32284 0.06638 0.37728 0.0
C110 C 0.41301 0.03907 0.39303 0.0
N111 N 0.31289 0.06615 0.43173 0.0
C112 C 0.30232 0.10443 0.44194 0.0
C113 C 0.31656 0.0171 0.43841 0.0
C114 C 0.31112 0.00576 0.45586 0.0
C115 C 0.3002 0.04416 0.46664 0.0
C116 C 0.29529 0.09386 0.4596 0.0
Zn117 Zn 0.31908 0.0734 0.40553 0.0
O118 O 0.39332 0.15902 0.37838 0.0
C119 C 0.2357 0.10971 0.3895 0.0
O120 O 0.38904 0.16915 0.40612 0.0
H121 H 0.323 0.98585 0.43016 0.0
H122 H 0.33065 0.15708 0.35053 0.0
H123 H 0.2988 0.14273 0.43642 0.0
O124 O 0.25645 0.09613 0.3764 0.0
O125 O 0.25205 0.10169 0.40424 0.0
H126 H 0.32548 0.98324 0.34913 0.0
O127 O 0.24694 0.97903 0.40407 0.0
O128 O 0.25122 0.97396 0.37628 0.0
O129 O 0.38964 0.04884 0.40621 0.0
O130 O 0.39073 0.03977 0.37848 0.0
C131 C 0.22549 0.94878 0.39026 0.0
H132 H 0.33607 0.16452 0.31936 0.0
H133 H 0.332 0.98747 0.31782 0.0
H134 H 0.31462 0.96671 0.46088 0.0
H135 H 0.28689 0.12441 0.46765 0.0
C136 C 0.69905 0.7415 0.13941 0.0
N137 N 0.7301 0.66239 0.09679 0.0
C138 C 0.6764 0.65583 0.0899 0.0
C139 C 0.67064 0.66056 0.07236 0.0
C140 C 0.72104 0.67363 0.06173 0.0
C141 C 0.77666 0.68185 0.06908 0.0
C142 C 0.78003 0.67542 0.08676 0.0
Zn143 Zn 0.73141 0.65354 0.12292 0.0
C144 C 0.85326 0.73967 0.1392 0.0
N145 N 0.7273 0.63864 0.17779 0.0
C146 C 0.67817 0.6357 0.18636 0.0
C147 C 0.77471 0.63717 0.18634 0.0
C148 C 0.77372 0.63248 0.20415 0.0
C149 C 0.72337 0.62907 0.21333 0.0
C150 C 0.67528 0.63091 0.20413 0.0
Zn151 Zn 0.72879 0.64646 0.15148 0.0
O152 O 0.7054 0.72129 0.12518 0.0
C153 C 0.60882 0.55414 0.13593 0.0
O154 O 0.7032 0.71609 0.1531 0.0
H155 H 0.81343 0.63956 0.17934 0.0
H156 H 0.63765 0.64702 0.09801 0.0
H157 H 0.64106 0.63726 0.1794 0.0
O158 O 0.63725 0.58066 0.1223 0.0
O159 O 0.63586 0.57479 0.15017 0.0
H160 H 0.82244 0.68079 0.09245 0.0
O161 O 0.75874 0.57986 0.14883 0.0
O162 O 0.75939 0.58748 0.12085 0.0
O163 O 0.82104 0.71567 0.15248 0.0
O164 O 0.82753 0.72399 0.12455 0.0
C165 C 0.76953 0.56487 0.13424 0.0
H166 H 0.62727 0.65461 0.06716 0.0
H167 H 0.81646 0.69189 0.0612 0.0
H168 H 0.81156 0.6306 0.21063 0.0
H169 H 0.63598 0.62944 0.21059 0.0
C170 C 0.77887 0.1924 0.39165 0.0
N171 N 0.91087 0.24529 0.35294 0.0
C172 C 0.86293 0.19829 0.34408 0.0
C173 C 0.86052 0.20097 0.32638 0.0
C174 C 0.908 0.25242 0.31766 0.0
C175 C 0.95725 0.30003 0.32712 0.0
C176 C 0.95774 0.29552 0.34484 0.0
Zn177 Zn 0.91014 0.24063 0.37885 0.0
C178 C 0.92667 0.35486 0.39443 0.0
N179 N 0.90147 0.22683 0.43325 0.0
C180 C 0.86319 0.17599 0.44288 0.0
C181 C 0.9478 0.27983 0.44063 0.0
C182 C 0.95708 0.28348 0.4582 0.0
C183 C 0.91895 0.23187 0.46847 0.0
C184 C 0.8714 0.17742 0.46062 0.0
Zn185 Zn 0.89873 0.22839 0.40699 0.0
O186 O 0.81417 0.21042 0.37869 0.0
C187 C 0.87468 0.1124 0.39027 0.0
O188 O 0.8023 0.19627 0.40638 0.0
H189 H 0.97888 0.3193 0.43284 0.0
H190 H 0.82602 0.15885 0.35076 0.0
H191 H 0.82699 0.13407 0.43679 0.0
O192 O 0.88852 0.14799 0.37743 0.0
O193 O 0.87671 0.13386 0.40514 0.0
H194 H -0.00462 0.33233 0.35215 0.0
O195 O -0.00472 0.25723 0.40706 0.0
O196 O 0.00447 0.26762 0.37933 0.0
O197 O 0.91625 0.32198 0.40779 0.0
O198 O 0.93031 0.33289 0.38019 0.0
C199 C 0.02803 0.26779 0.39375 0.0
H200 H 0.82125 0.16364 0.31962 0.0
H201 H -0.00479 0.34015 0.32089 0.0
H202 H -0.00493 0.32591 0.46364 0.0
H203 H 0.84092 0.13656 0.46812 0.0
C204 C 0.17496 0.41445 0.64086 0.0
N205 N 0.06261 0.32115 0.68223 0.0
C206 C 0.1127 0.31907 0.6888 0.0
C207 C 0.12063 0.31784 0.70642 0.0
C208 C 0.07686 0.31913 0.7175 0.0
C209 C 0.02568 0.32146 0.71038 0.0
C210 C 0.01935 0.32227 0.69265 0.0
Zn211 Zn 0.05363 0.32328 0.65611 0.0
C212 C 0.02268 0.41759 0.64429 0.0
N213 N 0.03836 0.32612 0.60145 0.0
C214 C 0.07404 0.31471 0.59048 0.0
C215 C -0.01011 0.33264 0.59561 0.0
C216 C 0.97587 0.32806 0.57825 0.0
C217 C 0.01098 0.31512 0.56671 0.0
C218 C 0.06068 0.3084 0.57297 0.0
Zn219 Zn 0.04956 0.32595 0.62757 0.0
O220 O 0.14547 0.39272 0.65464 0.0
C221 C 0.08763 0.23725 0.63841 0.0
O222 O 0.14677 0.39535 0.62659 0.0
H223 H 0.96084 0.33998 0.60446 0.0
H224 H 0.1469 0.31864 0.68035 0.0
H225 H 0.11213 0.30926 0.5953 0.0
O226 O 0.08238 0.25549 0.65314 0.0
O227 O 0.07381 0.25794 0.62531 0.0
H228 H 0.97978 0.32376 0.68721 0.0
O229 O 0.9554 0.2554 0.62947 0.0
O230 O 0.96056 0.25172 0.65734 0.0
O231 O 0.0268 0.39584 0.63008 0.0
O232 O 0.02887 0.39371 0.65804 0.0
C233 C 0.9302 0.23011 0.64355 0.0
H234 H 0.1612 0.31682 0.71131 0.0
H235 H -0.00961 0.32181 0.71842 0.0
H236 H 0.93679 0.33291 0.57392 0.0
H237 H 0.08897 0.29868 0.5644 0.0
C238 C 0.27789 0.03722 0.8906 0.0
N239 N 0.25404 0.91894 0.93127 0.0
C240 C 0.30491 0.96808 0.93863 0.0
C241 C 0.30705 0.9781 0.95618 0.0
C242 C 0.25615 0.93754 0.96639 0.0
C243 C 0.20475 0.88628 0.9585 0.0
C244 C 0.2047 0.87779 0.94087 0.0
Zn245 Zn 0.25074 0.91452 0.90505 0.0
C246 C 0.1251 0.87707 0.89167 0.0
N247 N 0.24845 0.91604 0.85075 0.0
C248 C 0.29654 0.96499 0.84259 0.0
C249 C 0.20241 0.86713 0.84193 0.0
C250 C 0.20416 0.86594 0.82416 0.0
C251 C 0.25384 0.9155 0.81544 0.0
C252 C 0.30015 0.96568 0.82488 0.0
Zn253 Zn 0.24924 0.91643 0.8767 0.0
O254 O 0.27565 0.00956 0.90446 0.0
C255 C 0.37231 0.94447 0.89015 0.0
O256 O 0.27026 0.00894 0.87659 0.0
H257 H 0.16475 0.82859 0.8487 0.0
H258 H 0.3435 0.00065 0.93082 0.0
H259 H 0.33264 0.00343 0.84984 0.0
O260 O 0.34444 0.93652 0.90427 0.0
O261 O 0.3443 0.9431 0.87643 0.0
H262 H 0.16444 0.83928 0.93479 0.0
O263 O 0.22666 0.82377 0.87695 0.0
O264 O 0.22215 0.818 0.90493 0.0
O265 O 0.15224 0.88594 0.87738 0.0
O266 O 0.1569 0.88948 0.90533 0.0
C267 C 0.21521 0.79185 0.89049 0.0
H268 H 0.34822 0.01751 0.96167 0.0
H269 H 0.16414 0.854 0.96578 0.0
H270 H 0.16778 0.82608 0.81736 0.0
H271 H 0.33871 0.00526 0.81865 0.0
C272 C 0.547 0.77772 0.63701 0.0
N273 N 0.64381 0.75007 0.67603 0.0
C274 C 0.64627 0.80099 0.68346 0.0
C275 C 0.64971 0.80749 0.70115 0.0
C276 C 0.65033 0.76102 0.71135 0.0
C277 C 0.6478 0.70896 0.70335 0.0
C278 C 0.64467 0.70446 0.68558 0.0
Zn279 Zn 0.63758 0.74244 0.65003 0.0
C280 C 0.5411 0.61972 0.638 0.0
N281 N 0.62635 0.73178 0.59579 0.0
C282 C 0.63463 0.77914 0.58523 0.0
C283 C 0.61773 0.67669 0.58949 0.0
C284 C 0.61676 0.66728 0.57201 0.0
C285 C 0.6264 0.71554 0.56088 0.0
C286 C 0.63553 0.77217 0.56755 0.0
Zn287 Zn 0.63202 0.74086 0.62172 0.0
O288 O 0.56881 0.76609 0.65028 0.0
C289 C 0.72221 0.86567 0.63332 0.0
O290 O 0.56432 0.77038 0.62237 0.0
H291 H 0.61302 0.64018 0.59801 0.0
H292 H 0.64515 0.83658 0.67567 0.0
H293 H 0.6418 0.82268 0.59049 0.0
O294 O 0.70491 0.83864 0.64769 0.0
O295 O 0.70117 0.83405 0.61975 0.0
H296 H 0.64283 0.66446 0.67942 0.0
O297 O 0.70173 0.71518 0.62169 0.0
O298 O 0.70846 0.72038 0.64955 0.0
O299 O 0.56067 0.64788 0.62394 0.0
O300 O 0.56761 0.64752 0.65178 0.0
C301 C 0.72824 0.71293 0.63537 0.0
H302 H 0.65083 0.84801 0.7068 0.0
H303 H 0.64887 0.6724 0.71073 0.0
H304 H 0.61059 0.62339 0.56725 0.0
H305 H 0.64337 0.8104 0.55921 0.0
C306 C 0.96018 0.23809 0.89255 0.0
N307 N 0.06718 0.32068 0.93529 0.0
C308 C 0.01667 0.32152 0.94178 0.0
C309 C 0.00223 0.30968 0.95897 0.0
C310 C 0.03987 0.29648 0.96965 0.0
C311 C 0.0924 0.29691 0.96274 0.0
C312 C 0.10543 0.30944 0.9454 0.0
Zn313 Zn 0.07778 0.32844 0.90954 0.0
C314 C 0.11631 0.24037 0.89608 0.0
N315 N 0.09267 0.33709 0.85501 0.0
C316 C 0.04556 0.34071 0.847 0.0
C317 C 0.1393 0.33678 0.84591 0.0
C318 C 0.13961 0.3405 0.82805 0.0
C319 C 0.09172 0.34501 0.81953 0.0
C320 C 0.04421 0.34475 0.8293 0.0
Zn321 Zn 0.08786 0.33151 0.88127 0.0
O322 O -0.01647 0.26067 0.907 0.0
C323 C 0.05745 0.42573 0.8954 0.0
O324 O -0.00695 0.26136 0.8793 0.0
H325 H 0.17633 0.33378 0.85249 0.0
H326 H -0.01375 0.32952 0.9335 0.0
H327 H 0.00855 0.34034 0.85436 0.0
O328 O 0.05708 0.40032 0.90946 0.0
O329 O 0.06594 0.40389 0.88168 0.0
H330 H 0.14518 0.30875 0.93996 0.0
O331 O 0.18315 0.39836 0.88394 0.0
O332 O 0.17354 0.39485 0.91187 0.0
O333 O 0.1132 0.26222 0.88165 0.0
O334 O 0.10103 0.25814 0.90945 0.0
C335 C 0.20765 0.41524 0.89868 0.0
H336 H 0.96081 0.30893 0.96374 0.0
H337 H 0.12283 0.28742 0.97063 0.0
H338 H 0.17736 0.34085 0.82103 0.0
H339 H 0.00572 0.34693 0.82332 0.0
C340 C 0.18913 0.78315 0.63818 0.0
N341 N 0.22605 0.90423 0.67871 0.0
C342 C 0.17858 0.85372 0.68657 0.0
C343 C 0.17525 0.8506 0.70428 0.0
C344 C 0.22123 0.89988 0.71404 0.0
C345 C 0.2705 0.95087 0.70562 0.0
C346 C 0.27196 0.95214 0.68784 0.0
Zn347 Zn 0.2245 0.90856 0.6528 0.0
C348 C 0.34172 0.93856 0.63692 0.0
N349 N 0.21243 0.91052 0.59843 0.0
C350 C 0.16505 0.87005 0.58804 0.0
C351 C 0.26233 0.96293 0.59203 0.0
C352 C 0.26616 0.97654 0.57472 0.0
C353 C 0.21811 0.93615 0.56365 0.0
C354 C 0.1669 0.88213 0.5705 0.0
Zn355 Zn 0.21248 0.90224 0.62457 0.0
O356 O 0.20416 0.8167 0.65147 0.0
C357 C 0.09321 0.86352 0.64052 0.0
O358 O 0.18856 0.80656 0.62373 0.0
H359 H 0.29903 -0.00464 0.60045 0.0
H360 H 0.14261 0.81603 0.67909 0.0
H361 H 0.12548 0.82893 0.59337 0.0
O362 O 0.12805 0.87729 0.65363 0.0
O363 O 0.11709 0.87205 0.62579 0.0
H364 H 0.30913 -0.00809 0.68132 0.0
O365 O 0.23267 -0.00374 0.62646 0.0
O366 O 0.24391 0.00015 0.6542 0.0
O367 O 0.30803 0.9291 0.62377 0.0
O368 O 0.31919 0.93686 0.65154 0.0
C369 C 0.24208 0.02579 0.6404 0.0
H370 H 0.137 0.81002 0.71027 0.0
H371 H 0.30661 -0.00991 0.71268 0.0
H372 H 0.30587 0.01934 0.57014 0.0
H373 H 0.12889 0.84957 0.56239 0.0
C374 C 0.75918 0.72066 0.88389 0.0
N375 N 0.68704 0.75143 0.9282 0.0
C376 C 0.6874 0.70063 0.93484 0.0
C377 C 0.69814 0.69759 0.95219 0.0
C378 C 0.70927 0.7475 0.96291 0.0
C379 C 0.70937 0.7998 0.95575 0.0
C380 C 0.69778 0.80068 0.93827 0.0
Zn381 Zn 0.6717 0.75052 0.90234 0.0
C382 C 0.75422 0.87296 0.88556 0.0
N383 N 0.64694 0.74337 0.84822 0.0
C384 C 0.64165 0.69265 0.83991 0.0
C385 C 0.64458 0.79003 0.8396 0.0
C386 C 0.63723 0.78689 0.82188 0.0
C387 C 0.63196 0.73508 0.81299 0.0
C388 C 0.63401 0.6875 0.82228 0.0
Zn389 Zn 0.66099 0.74766 0.87403 0.0
O390 O 0.74083 0.72698 0.89842 0.0
C391 C 0.57203 0.62701 0.89031 0.0
O392 O 0.7305 0.7228 0.87067 0.0
H393 H 0.64884 0.82993 0.84646 0.0
H394 H 0.67967 0.66229 0.92664 0.0
H395 H 0.64408 0.65625 0.84696 0.0
O396 O 0.60023 0.65572 0.90382 0.0
O397 O 0.59027 0.65414 0.87603 0.0
H398 H 0.69745 0.8407 0.93276 0.0
O399 O 0.59432 0.77704 0.87807 0.0
O400 O 0.60508 0.77645 0.90593 0.0
O401 O 0.72964 0.84082 0.87224 0.0
O402 O 0.73997 0.84692 0.90015 0.0
C403 C 0.58084 0.78696 0.89296 0.0
H404 H 0.69857 0.6568 0.95711 0.0
H405 H 0.7174 0.83915 0.96361 0.0
H406 H 0.63536 0.82437 0.81521 0.0
H407 H 0.63111 0.64722 0.81594 0.0
H408 H 0.04271 0.19292 0.16609 0.0
H409 H 0.11639 0.30826 0.12137 0.0
H410 H 0.18364 0.26373 0.11594 0.0
H411 H 0.21278 0.18379 0.12234 0.0
H412 H 0.13428 0.06542 0.16638 0.0
H413 H 0.07568 0.11776 0.17333 0.0
C414 C 0.07522 0.21004 0.15553 0.0
C415 C 0.07528 0.25422 0.14425 0.0
C416 C 0.11067 0.18163 0.15195 0.0
C417 C 0.11638 0.27483 0.13035 0.0
C418 C 0.15386 0.24856 0.12707 0.0
C419 C 0.18206 0.16899 0.13329 0.0
C420 C 0.17671 0.12016 0.14365 0.0
C421 C 0.14945 0.20012 0.1374 0.0
C422 C 0.1383 0.10242 0.1581 0.0
C423 C 0.10538 0.13272 0.16219 0.0
H424 H 0.14011 0.91103 0.41528 0.0
H425 H 0.16846 0.86531 0.36429 0.0
H426 H 0.05578 0.7957 0.36088 0.0
H427 H 0.94931 0.75817 0.37121 0.0
H428 H 0.92189 0.80931 0.42167 0.0
H429 H 0.03472 0.86828 0.42627 0.0
C430 C 0.12194 0.8846 0.40357 0.0
C431 C 0.1624 0.89356 0.39001 0.0
C432 C 0.0573 0.84752 0.40139 0.0
C433 C 0.13808 0.85914 0.3749 0.0
C434 C 0.0737 0.82006 0.37287 0.0
C435 C 0.96807 0.78265 0.38316 0.0
C436 C 0.92754 0.78045 0.39596 0.0
C437 C 0.03285 0.81604 0.38577 0.0
C438 C 0.95231 0.81108 0.41153 0.0
C439 C 0.0167 0.84433 0.41424 0.0
H440 H 0.78386 0.01727 0.12005 0.0
H441 H 0.88917 0.04802 0.16658 0.0
H442 H 0.83567 0.93575 0.17196 0.0
H443 H 0.76264 0.82938 0.16294 0.0
H444 H 0.66067 0.79632 0.11573 0.0
H445 H 0.70664 0.90918 0.11151 0.0
C446 C 0.79568 -0.00097 0.13117 0.0
C447 C 0.84097 0.0403 0.14275 0.0
C448 C 0.76382 0.93442 0.13436 0.0
C449 C 0.85488 0.01669 0.1574 0.0
C450 C 0.82388 0.95272 0.16058 0.0
C451 C 0.74873 0.84677 0.15203 0.0
C452 C 0.7079 0.80484 0.13976 0.0
C453 C 0.77812 0.91125 0.1492 0.0
C454 C 0.69147 0.828 0.12546 0.0
C455 C 0.7186 0.8924 0.12289 0.0
H456 H 0.21065 0.17298 0.4135 0.0
H457 H 0.18016 0.119 0.36048 0.0
H458 H 0.12382 0.17563 0.35638 0.0
H459 H 0.07668 0.2331 0.36825 0.0
H460 H 0.10105 0.28215 0.42159 0.0
H461 H 0.16911 0.23732 0.42498 0.0
C462 C 0.19131 0.17328 0.40108 0.0
C463 C 0.19856 0.14092 0.38739 0.0
C464 C 0.15926 0.20625 0.39878 0.0
C465 C 0.17447 0.14286 0.37128 0.0
C466 C 0.14271 0.17565 0.36889 0.0
C467 C 0.09835 0.23579 0.38053 0.0
C468 C 0.08374 0.26074 0.39467 0.0
C469 C 0.13437 0.20697 0.38257 0.0
C470 C 0.11178 0.26328 0.4105 0.0
C471 C 0.14989 0.23685 0.4125 0.0
H472 H 0.13326 0.89568 0.16197 0.0
H473 H 0.16291 0.8665 0.10947 0.0
H474 H 0.04981 0.80151 0.10514 0.0
H475 H 0.94258 0.76294 0.11563 0.0
H476 H 0.916 0.80127 0.16762 0.0
H477 H 0.0283 0.85508 0.17258 0.0
C478 C 0.11526 0.87363 0.14969 0.0
C479 C 0.15625 0.88571 0.13607 0.0
C480 C 0.05071 0.8402 0.14702 0.0
C481 C 0.13207 0.85741 0.12019 0.0
C482 C 0.06749 0.82123 0.11763 0.0
C483 C 0.96159 0.78386 0.12795 0.0
C484 C 0.92129 0.77888 0.14117 0.0
C485 C 0.02638 0.81451 0.13078 0.0
C486 C 0.94624 0.805 0.15719 0.0
C487 C 0.01033 0.83521 0.16011 0.0
H488 H 0.77927 0.83851 0.36505 0.0
H489 H 0.65877 0.79675 0.40852 0.0
H490 H 0.70217 0.90848 0.41386 0.0
H491 H 0.7829 0.0174 0.40805 0.0
H492 H 0.90522 0.05823 0.36505 0.0
H493 H 0.85402 0.94707 0.35795 0.0
C494 C 0.76088 0.85384 0.37531 0.0
C495 C 0.71587 0.80971 0.38635 0.0
C496 C 0.78833 0.91779 0.37883 0.0
C497 C 0.69318 0.83015 0.39979 0.0
C498 C 0.71873 0.89389 0.40302 0.0
C499 C 0.79876 0.00164 0.39729 0.0
C500 C 0.84855 0.04528 0.38732 0.0
C501 C 0.76818 0.93797 0.39306 0.0
C502 C 0.86756 0.02496 0.37306 0.0
C503 C 0.83793 0.96167 0.36889 0.0
H504 H 0.19363 0.06548 0.61586 0.0
H505 H 0.26958 0.10721 0.66691 0.0
H506 H 0.22765 0.17735 0.67092 0.0
H507 H 0.15965 0.21737 0.66092 0.0
H508 H 0.07995 0.17025 0.6103 0.0
H509 H 0.13183 0.11003 0.60531 0.0
C510 C 0.20251 0.09113 0.62772 0.0
C511 C 0.23426 0.08094 0.6411 0.0
C512 C 0.17577 0.12866 0.63022 0.0
C513 C 0.24514 0.11434 0.65641 0.0
C514 C 0.22051 0.15375 0.65879 0.0
C515 C 0.15327 0.19341 0.64888 0.0
C516 C 0.11534 0.1973 0.63611 0.0
C517 C 0.18366 0.15924 0.64602 0.0
C518 C 0.10849 0.16732 0.6204 0.0
C519 C 0.13847 0.1333 0.61747 0.0
H520 H 0.0402 0.82645 0.86571 0.0
H521 H 0.05572 0.8545 0.92024 0.0
H522 H 0.94261 0.79565 0.92277 0.0
H523 H 0.8402 0.74269 0.90963 0.0
H524 H 0.82185 0.72166 0.85496 0.0
H525 H 0.93531 0.76831 0.85248 0.0
C526 C 0.01876 0.82005 0.87811 0.0
C527 C 0.05639 0.8456 0.89272 0.0
C528 C 0.95334 0.78615 0.87952 0.0
C529 C 0.02794 0.83604 0.90875 0.0
C530 C 0.96323 0.80188 0.91026 0.0
C531 C 0.8606 0.74698 0.89714 0.0
C532 C 0.82259 0.72931 0.88249 0.0
C533 C 0.9256 0.77722 0.89574 0.0
C534 C 0.85005 0.73492 0.86646 0.0
C535 C 0.91499 0.76247 0.86502 0.0
H536 H 0.74652 0.94888 0.65875 0.0
H537 H 0.7804 0.9359 0.6054 0.0
H538 H 0.83764 0.04965 0.6032 0.0
H539 H 0.88388 0.15168 0.61678 0.0
H540 H 0.85578 0.16561 0.67046 0.0
H541 H 0.78755 0.05215 0.67198 0.0
C542 C 0.76686 0.97097 0.64667 0.0
C543 C 0.76027 0.93418 0.63233 0.0
C544 C 0.79929 0.03631 0.64546 0.0
C545 C 0.7856 0.96332 0.61668 0.0
C546 C 0.81784 0.02828 0.61537 0.0
C547 C 0.86152 0.13024 0.62874 0.0
C548 C 0.87507 0.16688 0.64351 0.0
C549 C 0.82535 0.06512 0.6297 0.0
C550 C 0.84596 0.13827 0.65891 0.0
C551 C 0.80772 0.07341 0.65983 0.0
H552 H 0.18934 0.22593 0.87309 0.0
H553 H 0.11077 0.17019 0.9234 0.0
H554 H 0.16628 0.11273 0.92748 0.0
H555 H 0.23067 0.07274 0.91608 0.0
H556 H 0.30416 0.12214 0.86514 0.0
H557 H 0.25956 0.19061 0.86229 0.0
C558 C 0.18392 0.20066 0.88486 0.0
C559 C 0.14525 0.20126 0.8978 0.0
C560 C 0.21633 0.16818 0.88719 0.0
C561 C 0.13972 0.16965 0.91317 0.0
C562 C 0.17185 0.13732 0.91558 0.0
C563 C 0.23868 0.09999 0.90455 0.0
C564 C 0.27051 0.09254 0.89083 0.0
C565 C 0.20992 0.13601 0.90264 0.0
C566 C 0.2799 0.12749 0.87589 0.0
C567 C 0.25363 0.16577 0.87416 0.0
H568 H 0.00439 0.8016 0.61635 0.0
H569 H 0.02925 0.85334 0.66955 0.0
H570 H 0.91625 0.79884 0.67334 0.0
H571 H 0.8116 0.74478 0.66111 0.0
H572 H 0.78581 0.69773 0.60761 0.0
H573 H 0.89824 0.73961 0.60457 0.0
C574 C -0.01496 0.80119 0.62875 0.0
C575 C 0.02499 0.83246 0.64257 0.0
C576 C 0.92006 0.76958 0.63087 0.0
C577 C -0.00061 0.83034 0.65865 0.0
C578 C 0.93483 0.79882 0.66087 0.0
C579 C 0.83019 0.74214 0.64885 0.0
C580 C 0.79054 0.71889 0.63456 0.0
C581 C 0.89484 0.76906 0.64702 0.0
C582 C 0.81547 0.71566 0.6188 0.0
C583 C 0.87979 0.74033 0.61701 0.0
H584 H 0.92453 0.1557 0.86657 0.0
H585 H 0.87296 0.17877 0.91735 0.0
H586 H 0.80402 0.06577 0.91976 0.0
H587 H 0.76888 0.9601 0.90875 0.0
H588 H 0.82347 0.93782 0.85831 0.0
H589 H 0.8825 0.05118 0.85465 0.0
C590 C 0.89682 0.1363 0.87798 0.0
C591 C 0.90424 0.17542 0.89182 0.0
C592 C 0.8598 0.07137 0.87959 0.0
C593 C 0.86809 0.14949 0.90652 0.0
C594 C 0.82941 0.08486 0.90801 0.0
C595 C 0.79427 0.98024 0.89704 0.0
C596 C 0.79324 0.94109 0.88397 0.0
C597 C 0.82715 0.0453 0.89492 0.0
C598 C 0.82456 0.96736 0.86864 0.0
C599 C 0.85779 0.03201 0.86649 0.0
H600 H 0.26864 0.98289 0.29328 0.0
H601 H 0.40792 0.17877 0.29637 0.0
H602 H 0.41092 0.18607 0.26534 0.0
H603 H 0.37409 0.13688 0.23734 0.0
H604 H 0.23523 0.94095 0.2342 0.0
H605 H 0.23298 0.93329 0.26525 0.0
C606 C 0.30017 0.02699 0.28716 0.0
C607 C 0.33784 0.08021 0.29713 0.0
C608 C 0.30187 0.03083 0.26931 0.0
C609 C 0.37778 0.13728 0.289 0.0
C610 C 0.37977 0.14145 0.27126 0.0
C611 C 0.34299 0.09264 0.24346 0.0
C612 C 0.30482 0.03963 0.23349 0.0
C613 C 0.3418 0.08861 0.2613 0.0
C614 C 0.26554 0.98233 0.24159 0.0
C615 C 0.264 0.97797 0.25934 0.0
H616 H 0.66365 0.58074 0.29215 0.0
H617 H 0.86155 0.71219 0.29592 0.0
H618 H 0.8692 0.71734 0.26489 0.0
H619 H 0.81894 0.68783 0.23656 0.0
H620 H 0.62084 0.55666 0.23298 0.0
H621 H 0.61402 0.54939 0.26395 0.0
C622 C 0.70846 0.61085 0.28622 0.0
C623 C 0.76188 0.6461 0.29648 0.0
C624 C 0.71247 0.61412 0.26832 0.0
C625 C 0.8197 0.6839 0.28845 0.0
C626 C 0.82407 0.68725 0.27065 0.0
C627 C 0.77437 0.6571 0.24252 0.0
C628 C 0.72042 0.62324 0.23233 0.0
C629 C 0.7707 0.65287 0.26044 0.0
C630 C 0.663 0.58421 0.24041 0.0
C631 C 0.65906 0.57968 0.25817 0.0
H632 H 0.91044 0.31184 0.23933 0.0
H633 H 0.84998 0.11524 0.23567 0.0
H634 H 0.85245 0.10826 0.26667 0.0
H635 H 0.87508 0.15868 0.2947 0.0
H636 H 0.93574 0.35534 0.29837 0.0
H637 H 0.9318 0.362 0.26739 0.0
C638 C 0.89815 0.26754 0.24531 0.0
C639 C 0.88009 0.21418 0.2352 0.0
C640 C 0.90039 0.26401 0.2631 0.0
C641 C 0.86327 0.15686 0.24316 0.0
C642 C 0.86515 0.15292 0.26087 0.0
C643 C 0.88683 0.20287 0.28874 0.0
C644 C 0.90576 0.25643 0.29884 0.0
C645 C 0.88393 0.20626 0.27095 0.0
C646 C 0.92186 0.31358 0.29089 0.0
C647 C 0.91919 0.31735 0.27318 0.0
H648 H 0.05918 0.38829 0.74151 0.0
H649 H 0.11234 0.24747 0.73586 0.0
H650 H 0.12456 0.24495 0.76672 0.0
H651 H 0.11678 0.28033 0.79552 0.0
H652 H 0.06374 0.4214 0.80093 0.0
H653 H 0.05423 0.42561 0.77009 0.0
C654 C 0.07302 0.35671 0.74703 0.0
C655 C 0.0846 0.31801 0.73634 0.0
C656 C 0.07986 0.35539 0.76481 0.0
C657 C 0.10362 0.27821 0.74374 0.0
C658 C 0.11038 0.27653 0.76142 0.0
C659 C 0.10389 0.31253 0.78994 0.0
C660 C 0.09052 0.35009 0.8006 0.0
C661 C 0.09843 0.31477 0.7721 0.0
C662 C 0.07331 0.39115 0.79309 0.0
C663 C 0.06807 0.3938 0.77542 0.0
H664 H 0.15952 0.88162 0.79246 0.0
H665 H 0.35742 0.94826 0.7962 0.0
H666 H 0.36494 0.94982 0.76519 0.0
H667 H 0.31522 0.93177 0.73702 0.0
H668 H 0.11731 0.86504 0.73329 0.0
H669 H 0.10964 0.86269 0.76429 0.0
C670 C 0.20414 0.89586 0.78648 0.0
C671 C 0.25781 0.91495 0.79661 0.0
C672 C 0.20812 0.89641 0.76866 0.0
C673 C 0.31553 0.93416 0.78868 0.0
C674 C 0.31984 0.93476 0.77096 0.0
C675 C 0.27053 0.91716 0.743 0.0
C676 C 0.21695 0.89854 0.73287 0.0
C677 C 0.26649 0.91619 0.76083 0.0
C678 C 0.15915 0.87885 0.74081 0.0
C679 C 0.15475 0.87782 0.75853 0.0
H680 H 0.58328 0.67021 0.73459 0.0
H681 H 0.72395 0.86516 0.73044 0.0
H682 H 0.72884 0.87507 0.76144 0.0
H683 H 0.69529 0.82757 0.78978 0.0
H684 H 0.55461 0.63255 0.79386 0.0
H685 H 0.54825 0.62329 0.76286 0.0
C686 C 0.61535 0.71474 0.74048 0.0
C687 C 0.65328 0.76679 0.73021 0.0
C688 C 0.61803 0.72008 0.7583 0.0
C689 C 0.69382 0.82447 0.73804 0.0
C690 C 0.69684 0.83013 0.75577 0.0
C691 C 0.66266 0.78327 0.78388 0.0
C692 C 0.62566 0.73081 0.79413 0.0
C693 C 0.65924 0.77822 0.76603 0.0
C694 C 0.58423 0.67348 0.78627 0.0
C695 C 0.58038 0.66817 0.76855 0.0
H696 H 0.30185 0.04984 0.98283 0.0
H697 H 0.21145 0.85101 0.99213 0.0
H698 H 0.21352 0.86941 0.02269 0.0
H699 H 0.24344 0.94157 0.04681 0.0
H700 H 0.33975 0.14075 0.03785 0.0
H701 H 0.33232 0.12238 1.00712 0.0
C702 C 0.28313 0.01046 0.99152 0.0
C703 C 0.25671 0.94903 0.98507 0.0
C704 C 0.28532 0.0214 1.00917 0.0
C705 C 0.23141 0.8987 0.99661 0.0
C706 C 0.23293 0.9092 1.01414 0.0
C707 C 0.26346 0.98116 0.03819 0.0
C708 C 0.29269 0.04257 0.04475 0.0
C709 C 0.26017 0.97032 0.02056 0.0
C710 C 0.31658 0.093 0.03325 0.0
C711 C 0.31278 0.08253 0.01565 0.0
H712 H 0.60808 0.62565 0.4852 0.0
H713 H 0.79872 0.77819 0.48481 0.0
H714 H 0.78825 0.80423 0.5142 0.0
H715 H 0.72506 0.78216 0.54023 0.0
H716 H 0.53602 0.62718 0.54077 0.0
H717 H 0.54492 0.60432 0.51092 0.0
C718 C 0.64717 0.66487 0.49152 0.0
C719 C 0.70406 0.69994 0.48288 0.0
C720 C 0.6408 0.67945 0.50835 0.0
C721 C 0.75468 0.75003 0.49129 0.0
C722 C 0.74856 0.76524 0.50803 0.0
C723 C 0.68568 0.74413 0.53365 0.0
C724 C 0.62977 0.70675 0.54245 0.0
C725 C 0.69185 0.73025 0.51669 0.0
C726 C 0.57926 0.65667 0.53406 0.0
C727 C 0.58448 0.64347 0.51709 0.0
H728 H 0.00387 0.35639 0.99164 0.0
H729 H 0.03758 0.2015 0.98818 0.0
H730 H 0.00461 0.1732 0.01777 0.0
H731 H 0.96639 0.19313 0.04473 0.0
H732 H 0.93573 0.34985 0.04808 0.0
H733 H 0.96583 0.3761 0.01826 0.0
C734 C 0.00365 0.31623 0.99735 0.0
C735 C 0.02298 0.28103 0.98778 0.0
C736 C -0.01545 0.30025 1.01426 0.0
C737 C 0.02351 0.22972 0.99539 0.0
C738 C 0.00419 0.21322 1.01224 0.0
C739 C 0.96562 0.23243 0.03878 0.0
C740 C 0.94853 0.26933 0.04837 0.0
C741 C -0.01556 0.24807 0.02178 0.0
C742 C 0.94861 0.32087 0.04078 0.0
C743 C 0.96599 0.33596 0.02382 0.0
H744 H 0.19743 0.00336 0.48665 0.0
H745 H 0.39173 0.05465 0.48769 0.0
H746 H 0.38321 0.02454 0.51769 0.0
H747 H 0.32003 0.98085 0.54328 0.0
H748 H 0.12484 0.92709 0.54256 0.0
H749 H 0.13352 0.95926 0.5127 0.0
C750 C 0.23788 0.00867 0.4936 0.0
C751 C 0.29535 0.03191 0.48517 0.0
C752 C 0.23216 -0.01023 0.51076 0.0
C753 C 0.34731 0.03744 0.49407 0.0
C754 C 0.34233 0.0199 0.51115 0.0
C755 C 0.27941 0.97652 0.53664 0.0
C756 C 0.22193 0.9518 0.5452 0.0
C757 C 0.2849 -0.00448 0.51957 0.0
C758 C 0.1695 0.94535 0.53626 0.0
C759 C 0.17458 0.96429 0.51922 0.0
H760 H 0.79159 0.77131 0.04053 0.0
H761 H 0.6335 0.58395 0.04135 0.0
H762 H 0.61612 0.59006 1.01088 0.0
H763 H 0.64404 0.64942 0.9842 0.0
H764 H 0.79942 0.83844 0.98322 0.0
H765 H 0.81922 0.83153 1.01355 0.0
C766 C 0.75384 0.73178 0.03393 0.0
C767 C 0.71408 0.6771 0.04307 0.0
C768 C 0.74323 0.73623 0.01646 0.0
C769 C 0.66464 0.62642 0.03452 0.0
C770 C 0.65465 0.62995 0.01713 0.0
C771 C 0.68251 0.68898 0.9906 0.0
C772 C 0.72034 0.74426 0.98145 0.0
C773 C 0.69333 0.68474 1.00801 0.0
C774 C 0.7693 0.79552 0.99 0.0
C775 C 0.78087 0.79144 1.00732 0.0
H776 H -0.01349 0.21755 0.54577 0.0
H777 H -0.00154 0.39773 0.5466 0.0
H778 H 0.96893 0.38692 0.51648 0.0
H779 H 0.94018 0.32664 0.48991 0.0
H780 H 0.9252 0.14509 0.48891 0.0
H781 H 0.9541 0.15527 0.51913 0.0
C782 C 0.98301 0.25448 0.53926 0.0
C783 C -0.0049 0.30859 0.5483 0.0
C784 C 0.96478 0.24736 0.522 0.0
C785 C -0.0106 0.35574 0.53987 0.0
C786 C 0.97247 0.34953 0.52268 0.0
C787 C 0.94324 0.28929 0.49631 0.0
C788 C 0.93084 0.23531 0.48716 0.0
C789 C 0.96001 0.29557 0.51363 0.0
C790 C 0.934 0.18688 0.4957 0.0
C791 C 0.95104 0.19292 0.51294 0.0
H792 H 0.68117 0.11705 0.15897 0.0
H793 H 0.71433 0.20288 0.10929 0.0
H794 H 0.60206 0.15328 0.10416 0.0
H795 H 0.4953 0.09187 0.11451 0.0
H796 H 0.46105 0.00818 0.16449 0.0
H797 H 0.57295 0.04843 0.16849 0.0
C798 C 0.66364 0.12515 0.1471 0.0
C799 C 0.70566 0.16429 0.13465 0.0
C800 C 0.59902 0.09586 0.14413 0.0
C801 C 0.68266 0.17334 0.11913 0.0
C802 C 0.61857 0.14472 0.11613 0.0
C803 C 0.51204 0.0809 0.12609 0.0
C804 C 0.47011 0.04749 0.13922 0.0
C805 C 0.57638 0.10631 0.12859 0.0
C806 C 0.49259 0.03396 0.15419 0.0
C807 C 0.55657 0.05759 0.15658 0.0
H808 H 0.59036 0.46728 0.36748 0.0
H809 H 0.51951 0.50868 0.41271 0.0
H810 H 0.45076 0.39672 0.41791 0.0
H811 H 0.41885 0.28722 0.41097 0.0
H812 H 0.49608 0.24849 0.36656 0.0
H813 H 0.5562 0.35965 0.36 0.0
C814 C 0.55847 0.45195 0.37818 0.0
C815 C 0.55964 0.49594 0.38965 0.0
C816 C 0.5222 0.38806 0.38162 0.0
C817 C 0.51888 0.47538 0.40363 0.0
C818 C 0.48043 0.41151 0.40676 0.0
C819 C 0.44966 0.30344 0.40004 0.0
C820 C 0.45394 0.26016 0.38941 0.0
C821 C 0.48355 0.36748 0.39619 0.0
C822 C 0.49267 0.28127 0.37502 0.0
C823 C 0.52652 0.34464 0.37115 0.0
H824 H 0.88396 0.39591 0.1158 0.0
H825 H 0.93825 0.42903 0.16881 0.0
H826 H 0.89569 0.49922 0.17106 0.0
H827 H 0.8327 0.54135 0.15877 0.0
H828 H 0.77503 0.50419 0.10604 0.0
H829 H 0.82817 0.44404 0.103 0.0
C830 C 0.88813 0.41983 0.12773 0.0
C831 C 0.91393 0.40715 0.14213 0.0
C832 C 0.86113 0.45768 0.12913 0.0
C833 C 0.91854 0.43813 0.15753 0.0
C834 C 0.89353 0.4776 0.15889 0.0
C835 C 0.83146 0.51972 0.14665 0.0
C836 C 0.7991 0.52616 0.13274 0.0
C837 C 0.86255 0.48568 0.14494 0.0
C838 C 0.79906 0.49921 0.117 0.0
C839 C 0.82976 0.4652 0.11521 0.0
H840 H 0.49919 0.07601 0.36831 0.0
H841 H 0.4676 0.02045 0.42113 0.0
H842 H 0.57987 0.06261 0.4254 0.0
H843 H 0.68754 0.12655 0.41486 0.0
H844 H 0.71737 0.18775 0.36241 0.0
H845 H 0.60507 0.13336 0.35741 0.0
C846 C 0.51653 0.07135 0.38065 0.0
C847 C 0.4753 0.0453 0.39439 0.0
C848 C 0.58101 0.0987 0.38322 0.0
C849 C 0.4986 0.04025 0.41033 0.0
C850 C 0.56279 0.0651 0.41284 0.0
C851 C 0.66939 0.12821 0.40237 0.0
C852 C 0.71071 0.16195 0.38912 0.0
C853 C 0.60457 0.09674 0.39954 0.0
C854 C 0.68658 0.16274 0.37291 0.0
C855 C 0.62236 0.13126 0.36997 0.0
H856 H 0.41976 0.27704 0.11702 0.0
H857 H 0.44969 0.25354 0.17016 0.0
H858 H 0.50916 0.36667 0.17387 0.0
H859 H 0.55927 0.471 0.16161 0.0
H860 H 0.53525 0.49541 0.10814 0.0
H861 H 0.46419 0.38285 0.10516 0.0
C862 C 0.43954 0.29668 0.12939 0.0
C863 C 0.43134 0.25704 0.14322 0.0
C864 C 0.47357 0.36174 0.13145 0.0
C865 C 0.45609 0.2831 0.15925 0.0
C866 C 0.4897 0.34774 0.16142 0.0
C867 C 0.53738 0.45208 0.14937 0.0
C868 C 0.55297 0.49138 0.13508 0.0
C869 C 0.49933 0.38738 0.14757 0.0
C870 C 0.52409 0.46602 0.11933 0.0
C871 C 0.48412 0.40164 0.11757 0.0
H872 H 0.85117 0.55327 0.37553 0.0
H873 H 0.75806 0.49386 0.424 0.0
H874 H 0.80762 0.43087 0.42912 0.0
H875 H 0.87063 0.38672 0.41875 0.0
H876 H 0.96189 0.44462 0.36998 0.0
H877 H 0.92174 0.51637 0.36635 0.0
C878 C 0.84146 0.5262 0.38717 0.0
C879 C 0.80006 0.52695 0.39921 0.0
C880 C 0.8707 0.49095 0.39011 0.0
C881 C 0.78918 0.4932 0.41445 0.0
C882 C 0.81776 0.45756 0.41742 0.0
C883 C 0.88326 0.41634 0.40755 0.0
C884 C 0.91884 0.41015 0.39461 0.0
C885 C 0.85806 0.45558 0.40525 0.0
C886 C 0.93446 0.44854 0.38011 0.0
C887 C 0.91093 0.48898 0.37794 0.0
H888 H 0.09395 0.68648 0.62116 0.0
H889 H 0.22979 0.73084 0.66133 0.0
H890 H 0.18068 0.62074 0.66916 0.0
H891 H 0.10171 0.51214 0.66409 0.0
H892 H 0.96952 0.46496 0.62289 0.0
H893 H 0.01235 0.57619 0.61646 0.0
C894 C 0.1133 0.6716 0.63138 0.0
C895 C 0.16582 0.71615 0.6405 0.0
C896 C 0.08408 0.60824 0.63603 0.0
C897 C 0.18972 0.69694 0.65403 0.0
C898 C 0.16128 0.63424 0.65865 0.0
C899 C 0.08074 0.52635 0.65413 0.0
C900 C 0.0318 0.48092 0.6442 0.0
C901 C 0.1082 0.58963 0.64984 0.0
C902 C 0.00641 0.4996 0.63092 0.0
C903 C 0.03169 0.56296 0.62704 0.0
H904 H 0.41809 0.90382 0.91527 0.0
H905 H 0.44836 0.96473 0.86284 0.0
H906 H 0.51666 0.92061 0.85903 0.0
H907 H 0.55724 0.854 0.86971 0.0
H908 H 0.52203 0.78939 0.9218 0.0
H909 H 0.46444 0.84434 0.92647 0.0
C910 C 0.44091 0.90905 0.90312 0.0
C911 C 0.42778 0.93703 0.88932 0.0
C912 C 0.47735 0.88095 0.90079 0.0
C913 C 0.45771 0.94328 0.87366 0.0
C914 C 0.49602 0.91731 0.87141 0.0
C915 C 0.53648 0.85158 0.88203 0.0
C916 C 0.54276 0.81681 0.8953 0.0
C917 C 0.50395 0.88377 0.88469 0.0
C918 C 0.51708 0.81528 0.91133 0.0
C919 C 0.4846 0.84704 0.91406 0.0
H920 H 0.45411 0.5931 0.6617 0.0
H921 H 0.48607 0.52817 0.61396 0.0
H922 H 0.37323 0.45916 0.61005 0.0
H923 H 0.26508 0.42495 0.61914 0.0
H924 H 0.23572 0.49691 0.66609 0.0
H925 H 0.34806 0.55739 0.67109 0.0
C926 C 0.4365 0.56224 0.65073 0.0
C927 C 0.47802 0.56487 0.63825 0.0
C928 C 0.37198 0.526 0.64809 0.0
C929 C 0.45465 0.526 0.62385 0.0
C930 C 0.39024 0.48749 0.62147 0.0
C931 C 0.2836 0.45473 0.63028 0.0
C932 C 0.2426 0.45728 0.64211 0.0
C933 C 0.34841 0.48888 0.63322 0.0
C934 C 0.26671 0.49476 0.65674 0.0
C935 C 0.33079 0.52882 0.65971 0.0
H936 H 0.144 0.70307 0.9137 0.0
H937 H 0.22237 0.72864 0.86331 0.0
H938 H 0.16908 0.6159 0.85917 0.0
H939 H 0.10582 0.51097 0.87031 0.0
H940 H 0.0315 0.48329 0.92122 0.0
H941 H 0.07519 0.59615 0.9244 0.0
C942 C 0.14987 0.68378 0.90192 0.0
C943 C 0.18771 0.72387 0.88894 0.0
C944 C 0.11861 0.6188 0.89953 0.0
C945 C 0.1939 0.69855 0.87356 0.0
C946 C 0.16307 0.63418 0.87111 0.0
C947 C 0.09764 0.52931 0.88196 0.0
C948 C 0.06578 0.48899 0.89553 0.0
C949 C 0.12556 0.59397 0.88402 0.0
C950 C 0.05592 0.51358 0.91057 0.0
C951 C 0.08162 0.57808 0.91248 0.0
H952 H 0.3866 0.89438 0.66098 0.0
H953 H 0.41626 0.96056 0.60909 0.0
H954 H 0.48323 0.9152 0.60423 0.0
H955 H 0.52372 0.84683 0.61406 0.0
H956 H 0.48407 0.77414 0.66539 0.0
H957 H 0.42862 0.83019 0.67093 0.0
C958 C 0.40919 0.90065 0.64874 0.0
C959 C 0.3968 0.93092 0.63544 0.0
C960 C 0.44379 0.8711 0.64575 0.0
C961 C 0.42564 0.93776 0.61957 0.0
C962 C 0.46299 0.91096 0.61672 0.0
C963 C 0.50223 0.84278 0.62636 0.0
C964 C 0.50743 0.80598 0.63922 0.0
C965 C 0.47029 0.87537 0.62953 0.0
C966 C 0.48039 0.80192 0.65522 0.0
C967 C 0.44913 0.83437 0.65848 0.0
H968 H 0.49195 0.59049 0.91675 0.0
H969 H 0.51143 0.54032 0.86546 0.0
H970 H 0.39877 0.46831 0.86373 0.0
H971 H 0.29426 0.43022 0.87546 0.0
H972 H 0.27414 0.48308 0.92637 0.0
H973 H 0.38786 0.54463 0.92948 0.0
C974 C 0.47182 0.56227 0.9054 0.0
C975 C 0.50977 0.5707 0.89123 0.0
C976 C 0.40684 0.52323 0.90422 0.0
C977 C 0.483 0.53445 0.87653 0.0
C978 C 0.41858 0.49395 0.87546 0.0
C979 C 0.31477 0.45545 0.88721 0.0
C980 C 0.27605 0.45337 0.90052 0.0
C981 C 0.37992 0.49008 0.88896 0.0
C982 C 0.30314 0.48481 0.91585 0.0
C983 C 0.36806 0.51962 0.91767 0.0
loop_
_geom_bond_atom_site_label_1
_geom_bond_atom_site_label_2
_geom_bond_distance
_geom_bond_site_symmetry_2
_ccdc_geom_bond_type
C0 O16 1.251 . S
C0 O18 1.254 . S
N1 C2 1.333 . S
N1 C6 1.307 . S
N1 Zn7 2.020 . S
C2 N1 1.333 . S
C2 C3 1.379 . S
C2 H20 0.952 . S
C3 C2 1.379 . S
C3 C4 1.390 . S
C3 H30 0.949 . S
C4 C3 1.390 . S
C4 C5 1.357 . S
C5 C4 1.357 . S
C5 C6 1.370 . S
C5 H31 0.950 . S
C6 N1 1.307 . S
C6 C5 1.370 . S
C6 H24 0.948 . S
Zn7 N1 2.020 . S
Zn7 O16 2.039 . S
Zn7 O22 2.034 . S
Zn7 O26 2.025 . S
Zn7 O28 2.024 . S
C8 O27 1.246 . S
C8 O28 1.249 . S
N9 C10 1.307 . S
N9 C11 1.333 . S
N9 Zn15 2.020 . S
C10 N9 1.307 . S
C10 C14 1.370 . S
C10 H21 0.948 . S
C11 N9 1.333 . S
C11 C12 1.379 . S
C11 H19 0.952 . S
C12 C11 1.379 . S
C12 C13 1.390 . S
C12 H32 0.949 . S
C13 C12 1.390 . S
C13 C14 1.357 . S
C14 C10 1.370 . S
C14 C13 1.357 . S
C14 H33 0.950 . S
Zn15 N9 2.020 . S
Zn15 O18 2.025 . S
Zn15 O23 2.024 . S
Zn15 O25 2.039 . S
Zn15 O27 2.034 . S
O16 C0 1.251 . S
O16 Zn7 2.039 . S
C17 O22 1.246 . S
C17 O23 1.249 . S
O18 C0 1.254 . S
O18 Zn15 2.025 . S
H19 C11 0.952 . S
H20 C2 0.952 . S
H21 C10 0.948 . S
O22 Zn7 2.034 . S
O22 C17 1.246 . S
O23 Zn15 2.024 . S
O23 C17 1.249 . S
H24 C6 0.948 . S
O25 Zn15 2.039 . S
O25 C29 1.251 . S
O26 Zn7 2.025 . S
O26 C29 1.254 . S
O27 C8 1.246 . S
O27 Zn15 2.034 . S
O28 Zn7 2.024 . S
O28 C8 1.249 . S
C29 O25 1.251 . S
C29 O26 1.254 . S
H30 C3 0.949 . S
H31 C5 0.950 . S
H32 C12 0.949 . S
H33 C14 0.950 . S
C34 O50 1.251 . S
C34 O52 1.254 . S
N35 C36 1.333 . S
N35 C40 1.307 . S
N35 Zn41 2.020 . S
C36 N35 1.333 . S
C36 C37 1.379 . S
C36 H54 0.952 . S
C37 C36 1.379 . S
C37 C38 1.390 . S
C37 H64 0.949 . S
C38 C37 1.390 . S
C38 C39 1.357 . S
C39 C38 1.357 . S
C39 C40 1.370 . S
C39 H65 0.950 . S
C40 N35 1.307 . S
C40 C39 1.370 . S
C40 H58 0.948 . S
Zn41 N35 2.020 . S
Zn41 O50 2.039 . S
Zn41 O56 2.034 . S
Zn41 O60 2.025 . S
Zn41 O62 2.024 . S
C42 O61 1.246 . S
C42 O62 1.249 . S
N43 C44 1.307 . S
N43 C45 1.333 . S
N43 Zn49 2.020 . S
C44 N43 1.307 . S
C44 C48 1.370 . S
C44 H55 0.948 . S
C45 N43 1.333 . S
C45 C46 1.379 . S
C45 H53 0.952 . S
C46 C45 1.379 . S
C46 C47 1.390 . S
C46 H66 0.949 . S
C47 C46 1.390 . S
C47 C48 1.357 . S
C48 C44 1.370 . S
C48 C47 1.357 . S
C48 H67 0.950 . S
Zn49 N43 2.020 . S
Zn49 O52 2.025 . S
Zn49 O57 2.024 . S
Zn49 O59 2.039 . S
Zn49 O61 2.034 . S
O50 C34 1.251 . S
O50 Zn41 2.039 . S
C51 O56 1.246 . S
C51 O57 1.249 . S
O52 C34 1.254 . S
O52 Zn49 2.025 . S
H53 C45 0.952 . S
H54 C36 0.952 . S
H55 C44 0.948 . S
O56 Zn41 2.034 . S
O56 C51 1.246 . S
O57 Zn49 2.024 . S
O57 C51 1.249 . S
H58 C40 0.948 . S
O59 Zn49 2.039 . S
O59 C63 1.251 . S
O60 Zn41 2.025 . S
O60 C63 1.254 . S
O61 C42 1.246 . S
O61 Zn49 2.034 . S
O62 Zn41 2.024 . S
O62 C42 1.249 . S
C63 O59 1.251 . S
C63 O60 1.254 . S
H64 C37 0.949 . S
H65 C39 0.950 . S
H66 C46 0.949 . S
H67 C48 0.950 . S
C68 O84 1.251 . S
C68 O86 1.254 . S
N69 C70 1.333 . S
N69 C74 1.307 . S
N69 Zn75 2.020 . S
C70 N69 1.333 . S
C70 C71 1.379 . S
C70 H88 0.952 . S
C71 C70 1.379 . S
C71 C72 1.390 . S
C71 H98 0.949 . S
C72 C71 1.390 . S
C72 C73 1.357 . S
C73 C72 1.357 . S
C73 C74 1.370 . S
C73 H99 0.950 . S
C74 N69 1.307 . S
C74 C73 1.370 . S
C74 H92 0.948 . S
Zn75 N69 2.020 . S
Zn75 O84 2.039 . S
Zn75 O90 2.034 . S
Zn75 O94 2.025 . S
Zn75 O96 2.024 . S
C76 O95 1.246 . S
C76 O96 1.249 . S
N77 C78 1.307 . S
N77 C79 1.333 . S
N77 Zn83 2.020 . S
C78 N77 1.307 . S
C78 C82 1.370 . S
C78 H89 0.948 . S
C79 N77 1.333 . S
C79 C80 1.379 . S
C79 H87 0.952 . S
C80 C79 1.379 . S
C80 C81 1.390 . S
C80 H100 0.949 . S
C81 C80 1.390 . S
C81 C82 1.357 . S
C82 C78 1.370 . S
C82 C81 1.357 . S
C82 H101 0.950 . S
Zn83 N77 2.020 . S
Zn83 O86 2.025 . S
Zn83 O91 2.024 . S
Zn83 O93 2.039 . S
Zn83 O95 2.034 . S
O84 C68 1.251 . S
O84 Zn75 2.039 . S
C85 O90 1.246 . S
C85 O91 1.249 . S
O86 C68 1.254 . S
O86 Zn83 2.025 . S
H87 C79 0.952 . S
H88 C70 0.952 . S
H89 C78 0.948 . S
O90 Zn75 2.034 . S
O90 C85 1.246 . S
O91 Zn83 2.024 . S
O91 C85 1.249 . S
H92 C74 0.948 . S
O93 Zn83 2.039 . S
O93 C97 1.251 . S
O94 Zn75 2.025 . S
O94 C97 1.254 . S
O95 C76 1.246 . S
O95 Zn83 2.034 . S
O96 Zn75 2.024 . S
O96 C76 1.249 . S
C97 O93 1.251 . S
C97 O94 1.254 . S
H98 C71 0.949 . S
H99 C73 0.950 . S
H100 C80 0.949 . S
H101 C82 0.950 . S
C102 O118 1.251 . S
C102 O120 1.254 . S
N103 C104 1.333 . S
N103 C108 1.307 . S
N103 Zn109 2.020 . S
C104 N103 1.333 . S
C104 C105 1.379 . S
C104 H122 0.952 . S
C105 C104 1.379 . S
C105 C106 1.390 . S
C105 H132 0.949 . S
C106 C105 1.390 . S
C106 C107 1.357 . S
C107 C106 1.357 . S
C107 C108 1.370 . S
C107 H133 0.950 . S
C108 N103 1.307 . S
C108 C107 1.370 . S
C108 H126 0.948 . S
Zn109 N103 2.020 . S
Zn109 O118 2.039 . S
Zn109 O124 2.034 . S
Zn109 O128 2.025 . S
Zn109 O130 2.024 . S
C110 O129 1.246 . S
C110 O130 1.249 . S
N111 C112 1.307 . S
N111 C113 1.333 . S
N111 Zn117 2.020 . S
C112 N111 1.307 . S
C112 C116 1.370 . S
C112 H123 0.948 . S
C113 N111 1.333 . S
C113 C114 1.379 . S
C113 H121 0.952 . S
C114 C113 1.379 . S
C114 C115 1.390 . S
C114 H134 0.949 . S
C115 C114 1.390 . S
C115 C116 1.357 . S
C116 C112 1.370 . S
C116 C115 1.357 . S
C116 H135 0.950 . S
Zn117 N111 2.020 . S
Zn117 O120 2.025 . S
Zn117 O125 2.024 . S
Zn117 O127 2.039 . S
Zn117 O129 2.034 . S
O118 C102 1.251 . S
O118 Zn109 2.039 . S
C119 O124 1.246 . S
C119 O125 1.249 . S
O120 C102 1.254 . S
O120 Zn117 2.025 . S
H121 C113 0.952 . S
H122 C104 0.952 . S
H123 C112 0.948 . S
O124 Zn109 2.034 . S
O124 C119 1.246 . S
O125 Zn117 2.024 . S
O125 C119 1.249 . S
H126 C108 0.948 . S
O127 Zn117 2.039 . S
O127 C131 1.251 . S
O128 Zn109 2.025 . S
O128 C131 1.254 . S
O129 C110 1.246 . S
O129 Zn117 2.034 . S
O130 Zn109 2.024 . S
O130 C110 1.249 . S
C131 O127 1.251 . S
C131 O128 1.254 . S
H132 C105 0.949 . S
H133 C107 0.950 . S
H134 C114 0.949 . S
H135 C116 0.950 . S
C136 O152 1.251 . S
C136 O154 1.254 . S
N137 C138 1.333 . S
N137 C142 1.307 . S
N137 Zn143 2.020 . S
C138 N137 1.333 . S
C138 C139 1.379 . S
C138 H156 0.952 . S
C139 C138 1.379 . S
C139 C140 1.390 . S
C139 H166 0.949 . S
C140 C139 1.390 . S
C140 C141 1.357 . S
C141 C140 1.357 . S
C141 C142 1.370 . S
C141 H167 0.950 . S
C142 N137 1.307 . S
C142 C141 1.370 . S
C142 H160 0.948 . S
Zn143 N137 2.020 . S
Zn143 O152 2.039 . S
Zn143 O158 2.034 . S
Zn143 O162 2.025 . S
Zn143 O164 2.024 . S
C144 O163 1.246 . S
C144 O164 1.249 . S
N145 C146 1.307 . S
N145 C147 1.333 . S
N145 Zn151 2.020 . S
C146 N145 1.307 . S
C146 C150 1.370 . S
C146 H157 0.948 . S
C147 N145 1.333 . S
C147 C148 1.379 . S
C147 H155 0.952 . S
C148 C147 1.379 . S
C148 C149 1.390 . S
C148 H168 0.949 . S
C149 C148 1.390 . S
C149 C150 1.357 . S
C150 C146 1.370 . S
C150 C149 1.357 . S
C150 H169 0.950 . S
Zn151 N145 2.020 . S
Zn151 O154 2.025 . S
Zn151 O159 2.024 . S
Zn151 O161 2.039 . S
Zn151 O163 2.034 . S
O152 C136 1.251 . S
O152 Zn143 2.039 . S
C153 O158 1.246 . S
C153 O159 1.249 . S
O154 C136 1.254 . S
O154 Zn151 2.025 . S
H155 C147 0.952 . S
H156 C138 0.952 . S
H157 C146 0.948 . S
O158 Zn143 2.034 . S
O158 C153 1.246 . S
O159 Zn151 2.024 . S
O159 C153 1.249 . S
H160 C142 0.948 . S
O161 Zn151 2.039 . S
O161 C165 1.251 . S
O162 Zn143 2.025 . S
O162 C165 1.254 . S
O163 C144 1.246 . S
O163 Zn151 2.034 . S
O164 Zn143 2.024 . S
O164 C144 1.249 . S
C165 O161 1.251 . S
C165 O162 1.254 . S
H166 C139 0.949 . S
H167 C141 0.950 . S
H168 C148 0.949 . S
H169 C150 0.950 . S
C170 O186 1.251 . S
C170 O188 1.254 . S
N171 C172 1.333 . S
N171 C176 1.307 . S
N171 Zn177 2.020 . S
C172 N171 1.333 . S
C172 C173 1.379 . S
C172 H190 0.952 . S
C173 C172 1.379 . S
C173 C174 1.390 . S
C173 H200 0.949 . S
C174 C173 1.390 . S
C174 C175 1.357 . S
C175 C174 1.357 . S
C175 C176 1.370 . S
C175 H201 0.950 . S
C176 N171 1.307 . S
C176 C175 1.370 . S
C176 H194 0.948 . S
Zn177 N171 2.020 . S
Zn177 O186 2.039 . S
Zn177 O192 2.034 . S
Zn177 O196 2.025 . S
Zn177 O198 2.024 . S
C178 O197 1.246 . S
C178 O198 1.249 . S
N179 C180 1.307 . S
N179 C181 1.333 . S
N179 Zn185 2.020 . S
C180 N179 1.307 . S
C180 C184 1.370 . S
C180 H191 0.948 . S
C181 N179 1.333 . S
C181 C182 1.379 . S
C181 H189 0.952 . S
C182 C181 1.379 . S
C182 C183 1.390 . S
C182 H202 0.949 . S
C183 C182 1.390 . S
C183 C184 1.357 . S
C184 C180 1.370 . S
C184 C183 1.357 . S
C184 H203 0.950 . S
Zn185 N179 2.020 . S
Zn185 O188 2.025 . S
Zn185 O193 2.024 . S
Zn185 O195 2.039 . S
Zn185 O197 2.034 . S
O186 C170 1.251 . S
O186 Zn177 2.039 . S
C187 O192 1.246 . S
C187 O193 1.249 . S
O188 C170 1.254 . S
O188 Zn185 2.025 . S
H189 C181 0.952 . S
H190 C172 0.952 . S
H191 C180 0.948 . S
O192 Zn177 2.034 . S
O192 C187 1.246 . S
O193 Zn185 2.024 . S
O193 C187 1.249 . S
H194 C176 0.948 . S
O195 Zn185 2.039 . S
O195 C199 1.251 . S
O196 Zn177 2.025 . S
O196 C199 1.254 . S
O197 C178 1.246 . S
O197 Zn185 2.034 . S
O198 Zn177 2.024 . S
O198 C178 1.249 . S
C199 O195 1.251 . S
C199 O196 1.254 . S
H200 C173 0.949 . S
H201 C175 0.950 . S
H202 C182 0.949 . S
H203 C184 0.950 . S
C204 O220 1.251 . S
C204 O222 1.254 . S
N205 C206 1.333 . S
N205 C210 1.307 . S
N205 Zn211 2.020 . S
C206 N205 1.333 . S
C206 C207 1.379 . S
C206 H224 0.952 . S
C207 C206 1.379 . S
C207 C208 1.390 . S
C207 H234 0.949 . S
C208 C207 1.390 . S
C208 C209 1.357 . S
C209 C208 1.357 . S
C209 C210 1.370 . S
C209 H235 0.950 . S
C210 N205 1.307 . S
C210 C209 1.370 . S
C210 H228 0.948 . S
Zn211 N205 2.020 . S
Zn211 O220 2.039 . S
Zn211 O226 2.034 . S
Zn211 O230 2.025 . S
Zn211 O232 2.024 . S
C212 O231 1.246 . S
C212 O232 1.249 . S
N213 C214 1.307 . S
N213 C215 1.333 . S
N213 Zn219 2.020 . S
C214 N213 1.307 . S
C214 C218 1.370 . S
C214 H225 0.948 . S
C215 N213 1.333 . S
C215 C216 1.379 . S
C215 H223 0.952 . S
C216 C215 1.379 . S
C216 C217 1.390 . S
C216 H236 0.949 . S
C217 C216 1.390 . S
C217 C218 1.357 . S
C218 C214 1.370 . S
C218 C217 1.357 . S
C218 H237 0.950 . S
Zn219 N213 2.020 . S
Zn219 O222 2.025 . S
Zn219 O227 2.024 . S
Zn219 O229 2.039 . S
Zn219 O231 2.034 . S
O220 C204 1.251 . S
O220 Zn211 2.039 . S
C221 O226 1.246 . S
C221 O227 1.249 . S
O222 C204 1.254 . S
O222 Zn219 2.025 . S
H223 C215 0.952 . S
H224 C206 0.952 . S
H225 C214 0.948 . S
O226 Zn211 2.034 . S
O226 C221 1.246 . S
O227 Zn219 2.024 . S
O227 C221 1.249 . S
H228 C210 0.948 . S
O229 Zn219 2.039 . S
O229 C233 1.251 . S
O230 Zn211 2.025 . S
O230 C233 1.254 . S
O231 C212 1.246 . S
O231 Zn219 2.034 . S
O232 Zn211 2.024 . S
O232 C212 1.249 . S
C233 O229 1.251 . S
C233 O230 1.254 . S
H234 C207 0.949 . S
H235 C209 0.950 . S
H236 C216 0.949 . S
H237 C218 0.950 . S
C238 O254 1.251 . S
C238 O256 1.254 . S
N239 C240 1.333 . S
N239 C244 1.307 . S
N239 Zn245 2.020 . S
C240 N239 1.333 . S
C240 C241 1.379 . S
C240 H258 0.952 . S
C241 C240 1.379 . S
C241 C242 1.390 . S
C241 H268 0.949 . S
C242 C241 1.390 . S
C242 C243 1.357 . S
C243 C242 1.357 . S
C243 C244 1.370 . S
C243 H269 0.950 . S
C244 N239 1.307 . S
C244 C243 1.370 . S
C244 H262 0.948 . S
Zn245 N239 2.020 . S
Zn245 O254 2.039 . S
Zn245 O260 2.034 . S
Zn245 O264 2.025 . S
Zn245 O266 2.024 . S
C246 O265 1.246 . S
C246 O266 1.249 . S
N247 C248 1.307 . S
N247 C249 1.333 . S
N247 Zn253 2.020 . S
C248 N247 1.307 . S
C248 C252 1.370 . S
C248 H259 0.948 . S
C249 N247 1.333 . S
C249 C250 1.379 . S
C249 H257 0.952 . S
C250 C249 1.379 . S
C250 C251 1.390 . S
C250 H270 0.949 . S
C251 C250 1.390 . S
C251 C252 1.357 . S
C252 C248 1.370 . S
C252 C251 1.357 . S
C252 H271 0.950 . S
Zn253 N247 2.020 . S
Zn253 O256 2.025 . S
Zn253 O261 2.024 . S
Zn253 O263 2.039 . S
Zn253 O265 2.034 . S
O254 C238 1.251 . S
O254 Zn245 2.039 . S
C255 O260 1.246 . S
C255 O261 1.249 . S
O256 C238 1.254 . S
O256 Zn253 2.025 . S
H257 C249 0.952 . S
H258 C240 0.952 . S
H259 C248 0.948 . S
O260 Zn245 2.034 . S
O260 C255 1.246 . S
O261 Zn253 2.024 . S
O261 C255 1.249 . S
H262 C244 0.948 . S
O263 Zn253 2.039 . S
O263 C267 1.251 . S
O264 Zn245 2.025 . S
O264 C267 1.254 . S
O265 C246 1.246 . S
O265 Zn253 2.034 . S
O266 Zn245 2.024 . S
O266 C246 1.249 . S
C267 O263 1.251 . S
C267 O264 1.254 . S
H268 C241 0.949 . S
H269 C243 0.950 . S
H270 C250 0.949 . S
H271 C252 0.950 . S
C272 O288 1.251 . S
C272 O290 1.254 . S
N273 C274 1.333 . S
N273 C278 1.307 . S
N273 Zn279 2.020 . S
C274 N273 1.333 . S
C274 C275 1.379 . S
C274 H292 0.952 . S
C275 C274 1.379 . S
C275 C276 1.390 . S
C275 H302 0.949 . S
C276 C275 1.390 . S
C276 C277 1.357 . S
C277 C276 1.357 . S
C277 C278 1.370 . S
C277 H303 0.950 . S
C278 N273 1.307 . S
C278 C277 1.370 . S
C278 H296 0.948 . S
Zn279 N273 2.020 . S
Zn279 O288 2.039 . S
Zn279 O294 2.034 . S
Zn279 O298 2.025 . S
Zn279 O300 2.024 . S
C280 O299 1.246 . S
C280 O300 1.249 . S
N281 C282 1.307 . S
N281 C283 1.333 . S
N281 Zn287 2.020 . S
C282 N281 1.307 . S
C282 C286 1.370 . S
C282 H293 0.948 . S
C283 N281 1.333 . S
C283 C284 1.379 . S
C283 H291 0.952 . S
C284 C283 1.379 . S
C284 C285 1.390 . S
C284 H304 0.949 . S
C285 C284 1.390 . S
C285 C286 1.357 . S
C286 C282 1.370 . S
C286 C285 1.357 . S
C286 H305 0.950 . S
Zn287 N281 2.020 . S
Zn287 O290 2.025 . S
Zn287 O295 2.024 . S
Zn287 O297 2.039 . S
Zn287 O299 2.034 . S
O288 C272 1.251 . S
O288 Zn279 2.039 . S
C289 O294 1.246 . S
C289 O295 1.249 . S
O290 C272 1.254 . S
O290 Zn287 2.025 . S
H291 C283 0.952 . S
H292 C274 0.952 . S
H293 C282 0.948 . S
O294 Zn279 2.034 . S
O294 C289 1.246 . S
O295 Zn287 2.024 . S
O295 C289 1.249 . S
H296 C278 0.948 . S
O297 Zn287 2.039 . S
O297 C301 1.251 . S
O298 Zn279 2.025 . S
O298 C301 1.254 . S
O299 C280 1.246 . S
O299 Zn287 2.034 . S
O300 Zn279 2.024 . S
O300 C280 1.249 . S
C301 O297 1.251 . S
C301 O298 1.254 . S
H302 C275 0.949 . S
H303 C277 0.950 . S
H304 C284 0.949 . S
H305 C286 0.950 . S
C306 O322 1.251 . S
C306 O324 1.254 . S
N307 C308 1.333 . S
N307 C312 1.307 . S
N307 Zn313 2.020 . S
C308 N307 1.333 . S
C308 C309 1.379 . S
C308 H326 0.952 . S
C309 C308 1.379 . S
C309 C310 1.390 . S
C309 H336 0.949 . S
C310 C309 1.390 . S
C310 C311 1.357 . S
C311 C310 1.357 . S
C311 C312 1.370 . S
C311 H337 0.950 . S
C312 N307 1.307 . S
C312 C311 1.370 . S
C312 H330 0.948 . S
Zn313 N307 2.020 . S
Zn313 O322 2.039 . S
Zn313 O328 2.034 . S
Zn313 O332 2.025 . S
Zn313 O334 2.024 . S
C314 O333 1.246 . S
C314 O334 1.249 . S
N315 C316 1.307 . S
N315 C317 1.333 . S
N315 Zn321 2.020 . S
C316 N315 1.307 . S
C316 C320 1.370 . S
C316 H327 0.948 . S
C317 N315 1.333 . S
C317 C318 1.379 . S
C317 H325 0.952 . S
C318 C317 1.379 . S
C318 C319 1.390 . S
C318 H338 0.949 . S
C319 C318 1.390 . S
C319 C320 1.357 . S
C320 C316 1.370 . S
C320 C319 1.357 . S
C320 H339 0.950 . S
Zn321 N315 2.020 . S
Zn321 O324 2.025 . S
Zn321 O329 2.024 . S
Zn321 O331 2.039 . S
Zn321 O333 2.034 . S
O322 C306 1.251 . S
O322 Zn313 2.039 . S
C323 O328 1.246 . S
C323 O329 1.249 . S
O324 C306 1.254 . S
O324 Zn321 2.025 . S
H325 C317 0.952 . S
H326 C308 0.952 . S
H327 C316 0.948 . S
O328 Zn313 2.034 . S
O328 C323 1.246 . S
O329 Zn321 2.024 . S
O329 C323 1.249 . S
H330 C312 0.948 . S
O331 Zn321 2.039 . S
O331 C335 1.251 . S
O332 Zn313 2.025 . S
O332 C335 1.254 . S
O333 C314 1.246 . S
O333 Zn321 2.034 . S
O334 Zn313 2.024 . S
O334 C314 1.249 . S
C335 O331 1.251 . S
C335 O332 1.254 . S
H336 C309 0.949 . S
H337 C311 0.950 . S
H338 C318 0.949 . S
H339 C320 0.950 . S
C340 O356 1.251 . S
C340 O358 1.254 . S
N341 C342 1.333 . S
N341 C346 1.307 . S
N341 Zn347 2.020 . S
C342 N341 1.333 . S
C342 C343 1.379 . S
C342 H360 0.952 . S
C343 C342 1.379 . S
C343 C344 1.390 . S
C343 H370 0.949 . S
C344 C343 1.390 . S
C344 C345 1.357 . S
C345 C344 1.357 . S
C345 C346 1.370 . S
C345 H371 0.950 . S
C346 N341 1.307 . S
C346 C345 1.370 . S
C346 H364 0.948 . S
Zn347 N341 2.020 . S
Zn347 O356 2.039 . S
Zn347 O362 2.034 . S
Zn347 O366 2.025 . S
Zn347 O368 2.024 . S
C348 O367 1.246 . S
C348 O368 1.249 . S
N349 C350 1.307 . S
N349 C351 1.333 . S
N349 Zn355 2.020 . S
C350 N349 1.307 . S
C350 C354 1.370 . S
C350 H361 0.948 . S
C351 N349 1.333 . S
C351 C352 1.379 . S
C351 H359 0.952 . S
C352 C351 1.379 . S
C352 C353 1.390 . S
C352 H372 0.949 . S
C353 C352 1.390 . S
C353 C354 1.357 . S
C354 C350 1.370 . S
C354 C353 1.357 . S
C354 H373 0.950 . S
Zn355 N349 2.020 . S
Zn355 O358 2.025 . S
Zn355 O363 2.024 . S
Zn355 O365 2.039 . S
Zn355 O367 2.034 . S
O356 C340 1.251 . S
O356 Zn347 2.039 . S
C357 O362 1.246 . S
C357 O363 1.249 . S
O358 C340 1.254 . S
O358 Zn355 2.025 . S
H359 C351 0.952 . S
H360 C342 0.952 . S
H361 C350 0.948 . S
O362 Zn347 2.034 . S
O362 C357 1.246 . S
O363 Zn355 2.024 . S
O363 C357 1.249 . S
H364 C346 0.948 . S
O365 Zn355 2.039 . S
O365 C369 1.251 . S
O366 Zn347 2.025 . S
O366 C369 1.254 . S
O367 C348 1.246 . S
O367 Zn355 2.034 . S
O368 Zn347 2.024 . S
O368 C348 1.249 . S
C369 O365 1.251 . S
C369 O366 1.254 . S
H370 C343 0.949 . S
H371 C345 0.950 . S
H372 C352 0.949 . S
H373 C354 0.950 . S
C374 O390 1.251 . S
C374 O392 1.254 . S
N375 C376 1.333 . S
N375 C380 1.307 . S
N375 Zn381 2.020 . S
C376 N375 1.333 . S
C376 C377 1.379 . S
C376 H394 0.952 . S
C377 C376 1.379 . S
C377 C378 1.390 . S
C377 H404 0.949 . S
C378 C377 1.390 . S
C378 C379 1.357 . S
C379 C378 1.357 . S
C379 C380 1.370 . S
C379 H405 0.950 . S
C380 N375 1.307 . S
C380 C379 1.370 . S
C380 H398 0.948 . S
Zn381 N375 2.020 . S
Zn381 O390 2.039 . S
Zn381 O396 2.034 . S
Zn381 O400 2.025 . S
Zn381 O402 2.024 . S
C382 O401 1.246 . S
C382 O402 1.249 . S
N383 C384 1.307 . S
N383 C385 1.333 . S
N383 Zn389 2.020 . S
C384 N383 1.307 . S
C384 C388 1.370 . S
C384 H395 0.948 . S
C385 N383 1.333 . S
C385 C386 1.379 . S
C385 H393 0.952 . S
C386 C385 1.379 . S
C386 C387 1.390 . S
C386 H406 0.949 . S
C387 C386 1.390 . S
C387 C388 1.357 . S
C388 C384 1.370 . S
C388 C387 1.357 . S
C388 H407 0.950 . S
Zn389 N383 2.020 . S
Zn389 O392 2.025 . S
Zn389 O397 2.024 . S
Zn389 O399 2.039 . S
Zn389 O401 2.034 . S
O390 C374 1.251 . S
O390 Zn381 2.039 . S
C391 O396 1.246 . S
C391 O397 1.249 . S
O392 C374 1.254 . S
O392 Zn389 2.025 . S
H393 C385 0.952 . S
H394 C376 0.952 . S
H395 C384 0.948 . S
O396 Zn381 2.034 . S
O396 C391 1.246 . S
O397 Zn389 2.024 . S
O397 C391 1.249 . S
H398 C380 0.948 . S
O399 Zn389 2.039 . S
O399 C403 1.251 . S
O400 Zn381 2.025 . S
O400 C403 1.254 . S
O401 C382 1.246 . S
O401 Zn389 2.034 . S
O402 Zn381 2.024 . S
O402 C382 1.249 . S
C403 O399 1.251 . S
C403 O400 1.254 . S
H404 C377 0.949 . S
H405 C379 0.950 . S
H406 C386 0.949 . S
H407 C388 0.950 . S
H408 C414 0.930 1_655 S
H409 C417 0.930 . S
H410 C418 0.930 . S
H411 C419 0.930 . S
H412 C422 0.930 . S
H413 C423 0.930 . S
C414 H408 0.930 1_455 S
C414 C415 1.355 . S
C414 C416 1.415 . S
C415 C414 1.355 . S
C415 C417 1.419 . S
C416 C414 1.415 . S
C416 C421 1.425 . S
C416 C423 1.409 . S
C417 H409 0.930 . S
C417 C415 1.419 . S
C417 C418 1.362 . S
C418 H410 0.930 . S
C418 C417 1.362 . S
C418 C421 1.409 . S
C419 H411 0.930 . S
C419 C420 1.355 . S
C419 C421 1.415 . S
C420 C419 1.355 . S
C420 C422 1.419 . S
C421 C416 1.425 . S
C421 C418 1.409 . S
C421 C419 1.415 . S
C422 H412 0.930 . S
C422 C420 1.419 . S
C422 C423 1.362 . S
C423 H413 0.930 . S
C423 C416 1.409 . S
C423 C422 1.362 . S
H424 C430 0.930 . S
H425 C433 0.930 1_545 S
H426 C434 0.930 . S
H427 C435 0.930 1_655 S
H428 C438 0.930 1_655 S
H429 C439 0.930 . S
C430 H424 0.930 . S
C430 C431 1.355 . S
C430 C432 1.415 . S
C431 C430 1.355 . S
C431 C433 1.419 . S
C432 C430 1.415 . S
C432 C437 1.425 . S
C432 C439 1.409 . S
C433 H425 0.930 1_565 S
C433 C431 1.419 . S
C433 C434 1.362 . S
C434 H426 0.930 . S
C434 C433 1.362 . S
C434 C437 1.409 . S
C435 H427 0.930 1_455 S
C435 C436 1.355 1_455 S
C435 C437 1.415 . S
C436 C435 1.355 1_655 S
C436 C438 1.419 1_655 S
C437 C432 1.425 . S
C437 C434 1.409 . S
C437 C435 1.415 . S
C438 H428 0.930 1_455 S
C438 C436 1.419 1_455 S
C438 C439 1.362 . S
C439 H429 0.930 . S
C439 C432 1.409 . S
C439 C438 1.362 . S
H440 C446 0.930 . S
H441 C449 0.930 . S
H442 C450 0.930 . S
H443 C451 0.930 . S
H444 C454 0.930 . S
H445 C455 0.930 . S
C446 H440 0.930 . S
C446 C447 1.355 1_565 S
C446 C448 1.415 . S
C447 C446 1.355 1_545 S
C447 C449 1.419 . S
C448 C446 1.415 . S
C448 C453 1.425 . S
C448 C455 1.409 . S
C449 H441 0.930 . S
C449 C447 1.419 . S
C449 C450 1.362 1_545 S
C450 H442 0.930 . S
C450 C449 1.362 1_565 S
C450 C453 1.409 . S
C451 H443 0.930 . S
C451 C452 1.355 . S
C451 C453 1.415 . S
C452 C451 1.355 . S
C452 C454 1.419 . S
C453 C448 1.425 . S
C453 C450 1.409 . S
C453 C451 1.415 . S
C454 H444 0.930 . S
C454 C452 1.419 . S
C454 C455 1.362 . S
C455 H445 0.930 . S
C455 C448 1.409 . S
C455 C454 1.362 . S
H456 C462 0.930 . S
H457 C465 0.930 . S
H458 C466 0.930 . S
H459 C467 0.930 1_655 S
H460 C470 0.930 . S
H461 C471 0.930 . S
C462 H456 0.930 . S
C462 C463 1.355 . S
C462 C464 1.415 . S
C463 C462 1.355 . S
C463 C465 1.419 . S
C464 C462 1.415 . S
C464 C469 1.425 . S
C464 C471 1.409 . S
C465 H457 0.930 . S
C465 C463 1.419 . S
C465 C466 1.362 . S
C466 H458 0.930 . S
C466 C465 1.362 . S
C466 C469 1.409 . S
C467 H459 0.930 1_455 S
C467 C468 1.355 . S
C467 C469 1.415 . S
C468 C467 1.355 . S
C468 C470 1.419 . S
C469 C464 1.425 . S
C469 C466 1.409 . S
C469 C467 1.415 . S
C470 H460 0.930 . S
C470 C468 1.419 . S
C470 C471 1.362 . S
C471 H461 0.930 . S
C471 C464 1.409 . S
C471 C470 1.362 . S
H472 C478 0.930 . S
H473 C481 0.930 . S
H474 C482 0.930 . S
H475 C483 0.930 . S
H476 C486 0.930 1_655 S
H477 C487 0.930 . S
C478 H472 0.930 . S
C478 C479 1.355 . S
C478 C480 1.415 . S
C479 C478 1.355 . S
C479 C481 1.419 1_565 S
C480 C478 1.415 . S
C480 C485 1.425 . S
C480 C487 1.409 . S
C481 H473 0.930 . S
C481 C479 1.419 1_545 S
C481 C482 1.362 1_545 S
C482 H474 0.930 . S
C482 C481 1.362 1_565 S
C482 C485 1.409 . S
C483 H475 0.930 . S
C483 C484 1.355 . S
C483 C485 1.415 1_655 S
C484 C483 1.355 . S
C484 C486 1.419 1_655 S
C485 C480 1.425 . S
C485 C482 1.409 . S
C485 C483 1.415 1_455 S
C486 H476 0.930 1_455 S
C486 C484 1.419 1_455 S
C486 C487 1.362 . S
C487 H477 0.930 . S
C487 C480 1.409 . S
C487 C486 1.362 . S
H488 C494 0.930 . S
H489 C497 0.930 . S
H490 C498 0.930 . S
H491 C499 0.930 . S
H492 C502 0.930 . S
H493 C503 0.930 . S
C494 H488 0.930 . S
C494 C495 1.355 . S
C494 C496 1.415 . S
C495 C494 1.355 . S
C495 C497 1.419 . S
C496 C494 1.415 . S
C496 C501 1.425 . S
C496 C503 1.409 . S
C497 H489 0.930 . S
C497 C495 1.419 . S
C497 C498 1.362 . S
C498 H490 0.930 . S
C498 C497 1.362 . S
C498 C501 1.409 . S
C499 H491 0.930 . S
C499 C500 1.355 1_565 S
C499 C501 1.415 . S
C500 C499 1.355 1_545 S
C500 C502 1.419 . S
C501 C496 1.425 . S
C501 C498 1.409 . S
C501 C499 1.415 . S
C502 H492 0.930 . S
C502 C500 1.419 . S
C502 C503 1.362 1_545 S
C503 H493 0.930 . S
C503 C496 1.409 . S
C503 C502 1.362 1_565 S
H504 C510 0.930 . S
H505 C513 0.930 . S
H506 C514 0.930 . S
H507 C515 0.930 . S
H508 C518 0.930 . S
H509 C519 0.930 . S
C510 H504 0.930 . S
C510 C511 1.355 . S
C510 C512 1.415 . S
C511 C510 1.355 . S
C511 C513 1.419 . S
C512 C510 1.415 . S
C512 C517 1.425 . S
C512 C519 1.409 . S
C513 H505 0.930 . S
C513 C511 1.419 . S
C513 C514 1.362 . S
C514 H506 0.930 . S
C514 C513 1.362 . S
C514 C517 1.409 . S
C515 H507 0.930 . S
C515 C516 1.355 . S
C515 C517 1.415 . S
C516 C515 1.355 . S
C516 C518 1.419 . S
C517 C512 1.425 . S
C517 C514 1.409 . S
C517 C515 1.415 . S
C518 H508 0.930 . S
C518 C516 1.419 . S
C518 C519 1.362 . S
C519 H509 0.930 . S
C519 C512 1.409 . S
C519 C518 1.362 . S
H520 C526 0.930 . S
H521 C529 0.930 1_455 S
H522 C530 0.930 . S
H523 C531 0.930 . S
H524 C534 0.930 . S
H525 C535 0.930 . S
C526 H520 0.930 . S
C526 C527 1.355 . S
C526 C528 1.415 1_455 S
C527 C526 1.355 . S
C527 C529 1.419 1_455 S
C528 C526 1.415 1_655 S
C528 C533 1.425 . S
C528 C535 1.409 . S
C529 H521 0.930 1_655 S
C529 C527 1.419 1_655 S
C529 C530 1.362 . S
C530 H522 0.930 . S
C530 C529 1.362 . S
C530 C533 1.409 . S
C531 H523 0.930 . S
C531 C532 1.355 . S
C531 C533 1.415 . S
C532 C531 1.355 . S
C532 C534 1.419 . S
C533 C528 1.425 . S
C533 C530 1.409 . S
C533 C531 1.415 . S
C534 H524 0.930 . S
C534 C532 1.419 . S
C534 C535 1.362 . S
C535 H525 0.930 . S
C535 C528 1.409 . S
C535 C534 1.362 . S
H536 C542 0.930 1_565 S
H537 C545 0.930 . S
H538 C546 0.930 . S
H539 C547 0.930 . S
H540 C550 0.930 . S
H541 C551 0.930 . S
C542 H536 0.930 1_545 S
C542 C543 1.355 1_545 S
C542 C544 1.415 . S
C543 C542 1.355 1_565 S
C543 C545 1.419 . S
C544 C542 1.415 . S
C544 C549 1.425 . S
C544 C551 1.409 . S
C545 H537 0.930 . S
C545 C543 1.419 . S
C545 C546 1.362 1_565 S
C546 H538 0.930 . S
C546 C545 1.362 1_545 S
C546 C549 1.409 . S
C547 H539 0.930 . S
C547 C548 1.355 . S
C547 C549 1.415 . S
C548 C547 1.355 . S
C548 C550 1.419 . S
C549 C544 1.425 . S
C549 C546 1.409 . S
C549 C547 1.415 . S
C550 H540 0.930 . S
C550 C548 1.419 . S
C550 C551 1.362 . S
C551 H541 0.930 . S
C551 C544 1.409 . S
C551 C550 1.362 . S
H552 C558 0.930 . S
H553 C561 0.930 . S
H554 C562 0.930 . S
H555 C563 0.930 . S
H556 C566 0.938 . S
H557 C567 0.930 . S
C558 H552 0.930 . S
C558 C559 1.355 . S
C558 C560 1.415 . S
C559 C558 1.355 . S
C559 C561 1.419 . S
C560 C558 1.415 . S
C560 C565 1.425 . S
C560 C567 1.409 . S
C561 H553 0.930 . S
C561 C559 1.419 . S
C561 C562 1.362 . S
C562 H554 0.930 . S
C562 C561 1.362 . S
C562 C565 1.409 . S
C563 H555 0.930 . S
C563 C564 1.355 . S
C563 C565 1.415 . S
C564 C563 1.355 . S
C564 C566 1.421 1_545 S
C565 C560 1.425 . S
C565 C562 1.409 . S
C565 C563 1.415 . S
C566 H556 0.938 . S
C566 C564 1.421 1_565 S
C566 C567 1.353 1_565 S
C567 H557 0.930 . S
C567 C560 1.409 . S
C567 C566 1.353 1_545 S
H568 C574 0.930 . S
H569 C577 0.930 1_455 S
H570 C578 0.930 . S
H571 C579 0.930 . S
H572 C582 0.930 . S
H573 C583 0.930 . S
C574 H568 0.930 . S
C574 C575 1.355 . S
C574 C576 1.415 1_455 S
C575 C574 1.355 . S
C575 C577 1.419 1_455 S
C576 C574 1.415 1_655 S
C576 C581 1.425 . S
C576 C583 1.409 . S
C577 H569 0.930 1_655 S
C577 C575 1.419 1_655 S
C577 C578 1.362 . S
C578 H570 0.930 . S
C578 C577 1.362 . S
C578 C581 1.409 . S
C579 H571 0.930 . S
C579 C580 1.355 . S
C579 C581 1.415 . S
C580 C579 1.355 . S
C580 C582 1.419 . S
C581 C576 1.425 . S
C581 C578 1.409 . S
C581 C579 1.415 . S
C582 H572 0.930 . S
C582 C580 1.419 . S
C582 C583 1.362 . S
C583 H573 0.930 . S
C583 C576 1.409 . S
C583 C582 1.362 . S
H584 C590 0.930 . S
H585 C593 0.930 1_455 S
H586 C594 0.930 . S
H587 C595 0.930 1_565 S
H588 C598 0.930 1_565 S
H589 C599 0.930 . S
C590 H584 0.930 . S
C590 C591 1.355 . S
C590 C592 1.415 . S
C591 C590 1.355 . S
C591 C593 1.419 . S
C592 C590 1.415 . S
C592 C597 1.425 . S
C592 C599 1.409 . S
C593 H585 0.930 1_655 S
C593 C591 1.419 . S
C593 C594 1.362 . S
C594 H586 0.930 . S
C594 C593 1.362 . S
C594 C597 1.409 . S
C595 H587 0.930 1_545 S
C595 C596 1.355 1_545 S
C595 C597 1.415 . S
C596 C595 1.355 1_565 S
C596 C598 1.419 1_565 S
C597 C592 1.425 . S
C597 C594 1.409 . S
C597 C595 1.415 . S
C598 H588 0.930 1_545 S
C598 C596 1.419 1_545 S
C598 C599 1.362 . S
C599 H589 0.930 . S
C599 C592 1.409 . S
C599 C598 1.362 . S
H600 C606 0.930 . S
H601 C609 0.930 . S
H602 C610 0.930 . S
H603 C611 0.930 . S
H604 C614 0.930 . S
H605 C615 0.930 . S
C606 H600 0.930 . S
C606 C607 1.355 . S
C606 C608 1.415 . S
C607 C606 1.355 . S
C607 C609 1.419 . S
C608 C606 1.415 . S
C608 C613 1.425 . S
C608 C615 1.409 . S
C609 H601 0.930 . S
C609 C607 1.419 . S
C609 C610 1.362 . S
C610 H602 0.930 . S
C610 C609 1.362 . S
C610 C613 1.409 . S
C611 H603 0.930 . S
C611 C612 1.355 . S
C611 C613 1.415 . S
C612 C611 1.355 . S
C612 C614 1.419 . S
C613 C608 1.425 . S
C613 C610 1.409 . S
C613 C611 1.415 . S
C614 H604 0.930 . S
C614 C612 1.419 . S
C614 C615 1.362 . S
C615 H605 0.930 . S
C615 C608 1.409 . S
C615 C614 1.362 . S
H616 C622 0.930 . S
H617 C625 0.930 . S
H618 C626 0.930 . S
H619 C627 0.930 . S
H620 C630 0.930 . S
H621 C631 0.930 . S
C622 H616 0.930 . S
C622 C623 1.355 . S
C622 C624 1.415 . S
C623 C622 1.355 . S
C623 C625 1.419 . S
C624 C622 1.415 . S
C624 C629 1.425 . S
C624 C631 1.409 . S
C625 H617 0.930 . S
C625 C623 1.419 . S
C625 C626 1.362 . S
C626 H618 0.930 . S
C626 C625 1.362 . S
C626 C629 1.409 . S
C627 H619 0.930 . S
C627 C628 1.355 . S
C627 C629 1.415 . S
C628 C627 1.355 . S
C628 C630 1.419 . S
C629 C624 1.425 . S
C629 C626 1.409 . S
C629 C627 1.415 . S
C630 H620 0.930 . S
C630 C628 1.419 . S
C630 C631 1.362 . S
C631 H621 0.930 . S
C631 C624 1.409 . S
C631 C630 1.362 . S
H632 C638 0.930 . S
H633 C641 0.930 . S
H634 C642 0.930 . S
H635 C643 0.930 . S
H636 C646 0.930 . S
H637 C647 0.930 . S
C638 H632 0.930 . S
C638 C639 1.355 . S
C638 C640 1.415 . S
C639 C638 1.355 . S
C639 C641 1.419 . S
C640 C638 1.415 . S
C640 C645 1.425 . S
C640 C647 1.409 . S
C641 H633 0.930 . S
C641 C639 1.419 . S
C641 C642 1.362 . S
C642 H634 0.930 . S
C642 C641 1.362 . S
C642 C645 1.409 . S
C643 H635 0.930 . S
C643 C644 1.355 . S
C643 C645 1.415 . S
C644 C643 1.355 . S
C644 C646 1.419 . S
C645 C640 1.425 . S
C645 C642 1.409 . S
C645 C643 1.415 . S
C646 H636 0.930 . S
C646 C644 1.419 . S
C646 C647 1.362 . S
C647 H637 0.930 . S
C647 C640 1.409 . S
C647 C646 1.362 . S
H648 C654 0.930 . S
H649 C657 0.930 . S
H650 C658 0.930 . S
H651 C659 0.930 . S
H652 C662 0.930 . S
H653 C663 0.930 . S
C654 H648 0.930 . S
C654 C655 1.355 . S
C654 C656 1.415 . S
C655 C654 1.355 . S
C655 C657 1.419 . S
C656 C654 1.415 . S
C656 C661 1.425 . S
C656 C663 1.409 . S
C657 H649 0.930 . S
C657 C655 1.419 . S
C657 C658 1.362 . S
C658 H650 0.930 . S
C658 C657 1.362 . S
C658 C661 1.409 . S
C659 H651 0.930 . S
C659 C660 1.355 . S
C659 C661 1.415 . S
C660 C659 1.355 . S
C660 C662 1.419 . S
C661 C656 1.425 . S
C661 C658 1.409 . S
C661 C659 1.415 . S
C662 H652 0.930 . S
C662 C660 1.419 . S
C662 C663 1.362 . S
C663 H653 0.930 . S
C663 C656 1.409 . S
C663 C662 1.362 . S
H664 C670 0.930 . S
H665 C673 0.930 . S
H666 C674 0.930 . S
H667 C675 0.930 . S
H668 C678 0.930 . S
H669 C679 0.930 . S
C670 H664 0.930 . S
C670 C671 1.355 . S
C670 C672 1.415 . S
C671 C670 1.355 . S
C671 C673 1.419 . S
C672 C670 1.415 . S
C672 C677 1.425 . S
C672 C679 1.409 . S
C673 H665 0.930 . S
C673 C671 1.419 . S
C673 C674 1.362 . S
C674 H666 0.930 . S
C674 C673 1.362 . S
C674 C677 1.409 . S
C675 H667 0.930 . S
C675 C676 1.355 . S
C675 C677 1.415 . S
C676 C675 1.355 . S
C676 C678 1.419 . S
C677 C672 1.425 . S
C677 C674 1.409 . S
C677 C675 1.415 . S
C678 H668 0.930 . S
C678 C676 1.419 . S
C678 C679 1.362 . S
C679 H669 0.930 . S
C679 C672 1.409 . S
C679 C678 1.362 . S
H680 C686 0.930 . S
H681 C689 0.930 . S
H682 C690 0.930 . S
H683 C691 0.930 . S
H684 C694 0.930 . S
H685 C695 0.930 . S
C686 H680 0.930 . S
C686 C687 1.355 . S
C686 C688 1.415 . S
C687 C686 1.355 . S
C687 C689 1.419 . S
C688 C686 1.415 . S
C688 C693 1.425 . S
C688 C695 1.409 . S
C689 H681 0.930 . S
C689 C687 1.419 . S
C689 C690 1.362 . S
C690 H682 0.930 . S
C690 C689 1.362 . S
C690 C693 1.409 . S
C691 H683 0.930 . S
C691 C692 1.355 . S
C691 C693 1.415 . S
C692 C691 1.355 . S
C692 C694 1.419 . S
C693 C688 1.425 . S
C693 C690 1.409 . S
C693 C691 1.415 . S
C694 H684 0.930 . S
C694 C692 1.419 . S
C694 C695 1.362 . S
C695 H685 0.930 . S
C695 C688 1.409 . S
C695 C694 1.362 . S
H696 C702 0.930 1_545 S
H697 C705 0.930 . S
H698 C706 0.930 . S
H699 C707 0.930 1_565 S
H700 C710 0.930 . S
H701 C711 0.930 . S
C702 H696 0.930 1_565 S
C702 C703 1.355 . S
C702 C704 1.415 1_565 S
C703 C702 1.355 . S
C703 C705 1.419 . S
C704 C702 1.415 1_545 S
C704 C709 1.425 1_546 S
C704 C711 1.409 . S
C705 H697 0.930 . S
C705 C703 1.419 . S
C705 C706 1.362 1_556 S
C706 H698 0.930 . S
C706 C705 1.362 1_554 S
C706 C709 1.409 . S
C707 H699 0.930 1_545 S
C707 C708 1.355 . S
C707 C709 1.415 1_545 S
C708 C707 1.355 . S
C708 C710 1.419 . S
C709 C704 1.425 1_564 S
C709 C706 1.409 . S
C709 C707 1.415 1_565 S
C710 H700 0.930 . S
C710 C708 1.419 . S
C710 C711 1.362 1_554 S
C711 H701 0.930 . S
C711 C704 1.409 . S
C711 C710 1.362 1_556 S
H712 C718 0.930 . S
H713 C721 0.930 . S
H714 C722 0.930 . S
H715 C723 0.930 . S
H716 C726 0.930 . S
H717 C727 0.930 . S
C718 H712 0.930 . S
C718 C719 1.355 . S
C718 C720 1.415 . S
C719 C718 1.355 . S
C719 C721 1.419 . S
C720 C718 1.415 . S
C720 C725 1.425 . S
C720 C727 1.409 . S
C721 H713 0.930 . S
C721 C719 1.419 . S
C721 C722 1.362 . S
C722 H714 0.930 . S
C722 C721 1.362 . S
C722 C725 1.409 . S
C723 H715 0.930 . S
C723 C724 1.355 . S
C723 C725 1.415 . S
C724 C723 1.355 . S
C724 C726 1.419 . S
C725 C720 1.425 . S
C725 C722 1.409 . S
C725 C723 1.415 . S
C726 H716 0.930 . S
C726 C724 1.419 . S
C726 C727 1.362 . S
C727 H717 0.930 . S
C727 C720 1.409 . S
C727 C726 1.362 . S
H728 C734 0.930 . S
H729 C737 0.930 . S
H730 C738 0.930 . S
H731 C739 0.930 . S
H732 C742 0.930 . S
H733 C743 0.930 . S
C734 H728 0.930 . S
C734 C735 1.355 . S
C734 C736 1.436 . S
C735 C734 1.355 . S
C735 C737 1.419 . S
C736 C734 1.436 . S
C736 C741 1.424 1_456 S
C736 C743 1.390 1_556 S
C737 H729 0.930 . S
C737 C735 1.419 . S
C737 C738 1.362 1_455 S
C738 H730 0.930 . S
C738 C737 1.362 1_655 S
C738 C741 1.389 1_556 S
C739 H731 0.930 . S
C739 C740 1.355 . S
C739 C741 1.436 . S
C740 C739 1.355 . S
C740 C742 1.419 . S
C741 C736 1.424 1_654 S
C741 C738 1.389 1_554 S
C741 C739 1.436 . S
C742 H732 0.930 . S
C742 C740 1.419 . S
C742 C743 1.362 1_655 S
C743 H733 0.930 . S
C743 C736 1.390 1_554 S
C743 C742 1.362 1_455 S
H744 C750 0.930 . S
H745 C753 0.930 . S
H746 C754 0.930 1_565 S
H747 C755 0.930 . S
H748 C758 0.930 . S
H749 C759 0.930 1_545 S
C750 H744 0.930 . S
C750 C751 1.355 . S
C750 C752 1.415 . S
C751 C750 1.355 . S
C751 C753 1.419 . S
C752 C750 1.415 . S
C752 C757 1.425 1_545 S
C752 C759 1.409 1_545 S
C753 H745 0.930 . S
C753 C751 1.419 . S
C753 C754 1.362 . S
C754 H746 0.930 1_545 S
C754 C753 1.362 . S
C754 C757 1.409 1_545 S
C755 H747 0.930 . S
C755 C756 1.355 . S
C755 C757 1.415 . S
C756 C755 1.355 . S
C756 C758 1.419 . S
C757 C752 1.425 1_565 S
C757 C754 1.409 1_565 S
C757 C755 1.415 . S
C758 H748 0.930 . S
C758 C756 1.419 . S
C758 C759 1.362 . S
C759 H749 0.930 1_565 S
C759 C752 1.409 1_565 S
C759 C758 1.362 . S
H760 C766 0.930 . S
H761 C769 0.930 . S
H762 C770 0.930 . S
H763 C771 0.930 . S
H764 C774 0.930 . S
H765 C775 0.930 . S
C766 H760 0.930 . S
C766 C767 1.355 . S
C766 C768 1.415 1_554 S
C767 C766 1.355 . S
C767 C769 1.419 . S
C768 C766 1.415 1_556 S
C768 C773 1.425 1_556 S
C768 C775 1.409 . S
C769 H761 0.930 . S
C769 C767 1.419 . S
C769 C770 1.362 . S
C770 H762 0.930 . S
C770 C769 1.362 . S
C770 C773 1.409 . S
C771 H763 0.930 . S
C771 C772 1.355 . S
C771 C773 1.415 1_556 S
C772 C771 1.355 . S
C772 C774 1.419 . S
C773 C768 1.425 1_554 S
C773 C770 1.409 . S
C773 C771 1.415 1_554 S
C774 H764 0.930 . S
C774 C772 1.419 . S
C774 C775 1.362 . S
C775 H765 0.930 . S
C775 C768 1.409 . S
C775 C774 1.362 . S
H776 C782 0.930 . S
H777 C785 0.930 . S
H778 C786 0.930 . S
H779 C787 0.930 . S
H780 C790 0.930 . S
H781 C791 0.930 . S
C782 H776 0.930 . S
C782 C783 1.355 . S
C782 C784 1.415 . S
C783 C782 1.355 . S
C783 C785 1.419 . S
C784 C782 1.415 . S
C784 C789 1.425 1_455 S
C784 C791 1.409 . S
C785 H777 0.930 . S
C785 C783 1.419 . S
C785 C786 1.362 1_455 S
C786 H778 0.930 . S
C786 C785 1.362 1_655 S
C786 C789 1.409 . S
C787 H779 0.930 . S
C787 C788 1.355 . S
C787 C789 1.415 . S
C788 C787 1.355 . S
C788 C790 1.419 . S
C789 C784 1.425 1_655 S
C789 C786 1.409 . S
C789 C787 1.415 . S
C790 H780 0.930 . S
C790 C788 1.419 . S
C790 C791 1.362 1_655 S
C791 H781 0.930 . S
C791 C784 1.409 . S
C791 C790 1.362 1_455 S
H792 C798 0.930 . S
H793 C801 0.930 . S
H794 C802 0.930 . S
H795 C803 0.930 . S
H796 C806 0.930 . S
H797 C807 0.930 . S
C798 H792 0.930 . S
C798 C799 1.355 . S
C798 C800 1.415 . S
C799 C798 1.355 . S
C799 C801 1.419 . S
C800 C798 1.415 . S
C800 C805 1.425 . S
C800 C807 1.409 . S
C801 H793 0.930 . S
C801 C799 1.419 . S
C801 C802 1.362 . S
C802 H794 0.930 . S
C802 C801 1.362 . S
C802 C805 1.409 . S
C803 H795 0.930 . S
C803 C804 1.355 . S
C803 C805 1.415 . S
C804 C803 1.355 . S
C804 C806 1.419 . S
C805 C800 1.425 . S
C805 C802 1.409 . S
C805 C803 1.415 . S
C806 H796 0.930 . S
C806 C804 1.419 . S
C806 C807 1.362 . S
C807 H797 0.930 . S
C807 C800 1.409 . S
C807 C806 1.362 . S
H808 C814 0.930 . S
H809 C817 0.930 . S
H810 C818 0.930 . S
H811 C819 0.930 . S
H812 C822 0.930 . S
H813 C823 0.930 . S
C814 H808 0.930 . S
C814 C815 1.355 . S
C814 C816 1.415 . S
C815 C814 1.355 . S
C815 C817 1.419 . S
C816 C814 1.415 . S
C816 C821 1.425 . S
C816 C823 1.409 . S
C817 H809 0.930 . S
C817 C815 1.419 . S
C817 C818 1.362 . S
C818 H810 0.930 . S
C818 C817 1.362 . S
C818 C821 1.409 . S
C819 H811 0.930 . S
C819 C820 1.355 . S
C819 C821 1.415 . S
C820 C819 1.355 . S
C820 C822 1.419 . S
C821 C816 1.425 . S
C821 C818 1.409 . S
C821 C819 1.415 . S
C822 H812 0.930 . S
C822 C820 1.419 . S
C822 C823 1.362 . S
C823 H813 0.930 . S
C823 C816 1.409 . S
C823 C822 1.362 . S
H824 C830 0.930 . S
H825 C833 0.930 . S
H826 C834 0.930 . S
H827 C835 0.930 . S
H828 C838 0.930 . S
H829 C839 0.930 . S
C830 H824 0.930 . S
C830 C831 1.355 . S
C830 C832 1.415 . S
C831 C830 1.355 . S
C831 C833 1.419 . S
C832 C830 1.415 . S
C832 C837 1.425 . S
C832 C839 1.409 . S
C833 H825 0.930 . S
C833 C831 1.419 . S
C833 C834 1.362 . S
C834 H826 0.930 . S
C834 C833 1.362 . S
C834 C837 1.409 . S
C835 H827 0.930 . S
C835 C836 1.355 . S
C835 C837 1.415 . S
C836 C835 1.355 . S
C836 C838 1.419 . S
C837 C832 1.425 . S
C837 C834 1.409 . S
C837 C835 1.415 . S
C838 H828 0.930 . S
C838 C836 1.419 . S
C838 C839 1.362 . S
C839 H829 0.930 . S
C839 C832 1.409 . S
C839 C838 1.362 . S
H840 C846 0.930 . S
H841 C849 0.930 . S
H842 C850 0.930 . S
H843 C851 0.930 . S
H844 C854 0.930 . S
H845 C855 0.930 . S
C846 H840 0.930 . S
C846 C847 1.355 . S
C846 C848 1.415 . S
C847 C846 1.355 . S
C847 C849 1.419 . S
C848 C846 1.415 . S
C848 C853 1.425 . S
C848 C855 1.409 . S
C849 H841 0.930 . S
C849 C847 1.419 . S
C849 C850 1.362 . S
C850 H842 0.930 . S
C850 C849 1.362 . S
C850 C853 1.409 . S
C851 H843 0.930 . S
C851 C852 1.355 . S
C851 C853 1.415 . S
C852 C851 1.355 . S
C852 C854 1.419 . S
C853 C848 1.425 . S
C853 C850 1.409 . S
C853 C851 1.415 . S
C854 H844 0.930 . S
C854 C852 1.419 . S
C854 C855 1.362 . S
C855 H845 0.930 . S
C855 C848 1.409 . S
C855 C854 1.362 . S
H856 C862 0.930 . S
H857 C865 0.930 . S
H858 C866 0.930 . S
H859 C867 0.930 . S
H860 C870 0.930 . S
H861 C871 0.930 . S
C862 H856 0.930 . S
C862 C863 1.355 . S
C862 C864 1.415 . S
C863 C862 1.355 . S
C863 C865 1.419 . S
C864 C862 1.415 . S
C864 C869 1.425 . S
C864 C871 1.409 . S
C865 H857 0.930 . S
C865 C863 1.419 . S
C865 C866 1.362 . S
C866 H858 0.930 . S
C866 C865 1.362 . S
C866 C869 1.409 . S
C867 H859 0.930 . S
C867 C868 1.355 . S
C867 C869 1.415 . S
C868 C867 1.355 . S
C868 C870 1.419 . S
C869 C864 1.425 . S
C869 C866 1.409 . S
C869 C867 1.415 . S
C870 H860 0.930 . S
C870 C868 1.419 . S
C870 C871 1.362 . S
C871 H861 0.930 . S
C871 C864 1.409 . S
C871 C870 1.362 . S
H872 C878 0.930 . S
H873 C881 0.930 . S
H874 C882 0.930 . S
H875 C883 0.930 . S
H876 C886 0.930 . S
H877 C887 0.930 . S
C878 H872 0.930 . S
C878 C879 1.355 . S
C878 C880 1.415 . S
C879 C878 1.355 . S
C879 C881 1.419 . S
C880 C878 1.415 . S
C880 C885 1.425 . S
C880 C887 1.409 . S
C881 H873 0.930 . S
C881 C879 1.419 . S
C881 C882 1.362 . S
C882 H874 0.930 . S
C882 C881 1.362 . S
C882 C885 1.409 . S
C883 H875 0.930 . S
C883 C884 1.355 . S
C883 C885 1.415 . S
C884 C883 1.355 . S
C884 C886 1.419 . S
C885 C880 1.425 . S
C885 C882 1.409 . S
C885 C883 1.415 . S
C886 H876 0.930 . S
C886 C884 1.419 . S
C886 C887 1.362 . S
C887 H877 0.930 . S
C887 C880 1.409 . S
C887 C886 1.362 . S
H888 C894 0.930 . S
H889 C897 0.930 . S
H890 C898 0.930 . S
H891 C899 0.930 . S
H892 C902 0.930 . S
H893 C903 0.930 . S
C894 H888 0.930 . S
C894 C895 1.355 . S
C894 C896 1.415 . S
C895 C894 1.355 . S
C895 C897 1.419 . S
C896 C894 1.415 . S
C896 C901 1.425 . S
C896 C903 1.409 . S
C897 H889 0.930 . S
C897 C895 1.419 . S
C897 C898 1.362 . S
C898 H890 0.930 . S
C898 C897 1.362 . S
C898 C901 1.409 . S
C899 H891 0.930 . S
C899 C900 1.355 . S
C899 C901 1.415 . S
C900 C899 1.355 . S
C900 C902 1.419 . S
C901 C896 1.425 . S
C901 C898 1.409 . S
C901 C899 1.415 . S
C902 H892 0.930 . S
C902 C900 1.419 . S
C902 C903 1.362 . S
C903 H893 0.930 . S
C903 C896 1.409 . S
C903 C902 1.362 . S
H904 C910 0.930 . S
H905 C913 0.930 . S
H906 C914 0.930 . S
H907 C915 0.930 . S
H908 C918 0.930 . S
H909 C919 0.930 . S
C910 H904 0.930 . S
C910 C911 1.355 . S
C910 C912 1.415 . S
C911 C910 1.355 . S
C911 C913 1.419 . S
C912 C910 1.415 . S
C912 C917 1.425 . S
C912 C919 1.409 . S
C913 H905 0.930 . S
C913 C911 1.419 . S
C913 C914 1.362 . S
C914 H906 0.930 . S
C914 C913 1.362 . S
C914 C917 1.409 . S
C915 H907 0.930 . S
C915 C916 1.355 . S
C915 C917 1.415 . S
C916 C915 1.355 . S
C916 C918 1.419 . S
C917 C912 1.425 . S
C917 C914 1.409 . S
C917 C915 1.415 . S
C918 H908 0.930 . S
C918 C916 1.419 . S
C918 C919 1.362 . S
C919 H909 0.930 . S
C919 C912 1.409 . S
C919 C918 1.362 . S
H920 C926 0.930 . S
H921 C929 0.930 . S
H922 C930 0.930 . S
H923 C931 0.930 . S
H924 C934 0.930 . S
H925 C935 0.930 . S
C926 H920 0.930 . S
C926 C927 1.355 . S
C926 C928 1.415 . S
C927 C926 1.355 . S
C927 C929 1.419 . S
C928 C926 1.415 . S
C928 C933 1.425 . S
C928 C935 1.409 . S
C929 H921 0.930 . S
C929 C927 1.419 . S
C929 C930 1.362 . S
C930 H922 0.930 . S
C930 C929 1.362 . S
C930 C933 1.409 . S
C931 H923 0.930 . S
C931 C932 1.355 . S
C931 C933 1.415 . S
C932 C931 1.355 . S
C932 C934 1.419 . S
C933 C928 1.425 . S
C933 C930 1.409 . S
C933 C931 1.415 . S
C934 H924 0.930 . S
C934 C932 1.419 . S
C934 C935 1.362 . S
C935 H925 0.930 . S
C935 C928 1.409 . S
C935 C934 1.362 . S
H936 C942 0.930 . S
H937 C945 0.930 . S
H938 C946 0.930 . S
H939 C947 0.930 . S
H940 C950 0.930 . S
H941 C951 0.930 . S
C942 H936 0.930 . S
C942 C943 1.355 . S
C942 C944 1.415 . S
C943 C942 1.355 . S
C943 C945 1.419 . S
C944 C942 1.415 . S
C944 C949 1.425 . S
C944 C951 1.409 . S
C945 H937 0.930 . S
C945 C943 1.419 . S
C945 C946 1.362 . S
C946 H938 0.930 . S
C946 C945 1.362 . S
C946 C949 1.409 . S
C947 H939 0.930 . S
C947 C948 1.355 . S
C947 C949 1.415 . S
C948 C947 1.355 . S
C948 C950 1.419 . S
C949 C944 1.425 . S
C949 C946 1.409 . S
C949 C947 1.415 . S
C950 H940 0.930 . S
C950 C948 1.419 . S
C950 C951 1.362 . S
C951 H941 0.930 . S
C951 C944 1.409 . S
C951 C950 1.362 . S
H952 C958 0.930 . S
H953 C961 0.930 . S
H954 C962 0.930 . S
H955 C963 0.930 . S
H956 C966 0.930 . S
H957 C967 0.930 . S
C958 H952 0.930 . S
C958 C959 1.355 . S
C958 C960 1.415 . S
C959 C958 1.355 . S
C959 C961 1.419 . S
C960 C958 1.415 . S
C960 C965 1.425 . S
C960 C967 1.409 . S
C961 H953 0.930 . S
C961 C959 1.419 . S
C961 C962 1.362 . S
C962 H954 0.930 . S
C962 C961 1.362 . S
C962 C965 1.409 . S
C963 H955 0.930 . S
C963 C964 1.355 . S
C963 C965 1.415 . S
C964 C963 1.355 . S
C964 C966 1.419 . S
C965 C960 1.425 . S
C965 C962 1.409 . S
C965 C963 1.415 . S
C966 H956 0.930 . S
C966 C964 1.419 . S
C966 C967 1.362 . S
C967 H957 0.930 . S
C967 C960 1.409 . S
C967 C966 1.362 . S
H968 C974 0.930 . S
H969 C977 0.930 . S
H970 C978 0.930 . S
H971 C979 0.930 . S
H972 C982 0.930 . S
H973 C983 0.930 . S
C974 H968 0.930 . S
C974 C975 1.355 . S
C974 C976 1.415 . S
C975 C974 1.355 . S
C975 C977 1.419 . S
C976 C974 1.415 . S
C976 C981 1.425 . S
C976 C983 1.409 . S
C977 H969 0.930 . S
C977 C975 1.419 . S
C977 C978 1.362 . S
C978 H970 0.930 . S
C978 C977 1.362 . S
C978 C981 1.409 . S
C979 H971 0.930 . S
C979 C980 1.355 . S
C979 C981 1.415 . S
C980 C979 1.355 . S
C980 C982 1.419 . S
C981 C976 1.425 . S
C981 C978 1.409 . S
C981 C979 1.415 . S
C982 H972 0.930 . S
C982 C980 1.419 . S
C982 C983 1.362 . S
C983 H973 0.930 . S
C983 C976 1.409 . S
C983 C982 1.362 . S
C415 C68 1.020 1_455 S
C420 C8 1.003 . S
C431 C131 0.986 1_565 S
C436 C51 0.992 . S
C447 C76 0.993 . S
C452 C136 0.968 . S
C463 C119 1.002 . S
C468 C199 1.020 1_455 S
C479 C0 0.941 1_565 S
C484 C144 0.985 . S
C495 C63 0.988 . S
C500 C187 0.998 . S
C511 C369 1.001 1_545 S
C516 C221 0.996 . S
C527 C246 0.987 . S
C532 C374 0.962 . S
C543 C289 0.990 . S
C548 C233 0.975 1_655 S
C559 C314 0.987 . S
C564 C238 0.958 1_545 S
C575 C357 0.988 . S
C580 C301 0.947 . S
C591 C306 0.965 1_655 S
C596 C382 0.992 . S
C607 C106 1.598 . S
C612 C13 1.585 . S
C623 C38 1.599 . S
C628 C149 1.584 . S
C639 C81 1.590 . S
C644 C174 1.593 . S
C655 C208 1.591 . S
C660 C319 1.592 . S
C671 C251 1.586 . S
C676 C344 1.597 . S
C687 C276 1.604 . S
C692 C387 1.579 . S
C703 C242 1.850 . S
C708 C4 1.852 . S
C719 C47 1.814 . S
C724 C285 1.812 . S
C735 C310 1.833 . S
C740 C72 1.830 . S
C751 C115 1.835 . S
C756 C353 1.838 . S
C767 C140 1.811 . S
C772 C378 1.812 . S
C783 C217 1.828 . S
C788 C183 1.831 . S
C799 C97 1.203 . S
C804 C17 1.204 . S
C815 C42 1.173 . S
C820 C102 1.195 . S
C831 C85 1.167 . S
C836 C165 1.202 . S
C847 C110 1.195 . S
C852 C170 1.196 . S
C863 C29 1.196 . S
C868 C153 1.199 . S
C879 C34 1.203 . S
C884 C178 1.177 . S
C895 C340 1.198 . S
C900 C212 1.210 . S
C911 C255 1.166 . S
C916 C403 1.202 . S
C927 C280 1.211 . S
C932 C204 1.201 . S
C943 C267 1.200 . S
C948 C323 1.212 . S
C959 C348 1.191 . S
C964 C272 1.195 . S
C975 C391 1.163 . S
C980 C335 1.200 . S
