# Generated by pormake.
# Topology hjm, (4)-cn, num edge types: 1
# Building blocks:
#     Node 0, Type 0, BuildingBlock: GALJAG_clean_sbu_0, # of connection points: 4
#     Node 1, Type 0, BuildingBlock: GALJAG_clean_sbu_0, # of connection points: 4
#     Node 2, Type 0, BuildingBlock: GALJAG_clean_sbu_0, # of connection points: 4
#     Node 3, Type 0, BuildingBlock: GALJAG_clean_sbu_0, # of connection points: 4
#     Node 4, Type 0, BuildingBlock: GALJAG_clean_sbu_0, # of connection points: 4
#     Node 5, Type 0, BuildingBlock: GALJAG_clean_sbu_0, # of connection points: 4
#     Node 6, Type 0, BuildingBlock: GALJAG_clean_sbu_0, # of connection points: 4
#     Node 7, Type 0, BuildingBlock: GALJAG_clean_sbu_0, # of connection points: 4
#     Edge 8, Type (0, 0), BuildingBlock: ZUJKAS_clean_linker_0, # of connection points: 2
#     Edge 9, Type (0, 0), BuildingBlock: ZUJKAS_clean_linker_0, # of connection points: 2
#     Edge 10, Type (0, 0), BuildingBlock: ZUJKAS_clean_linker_0, # of connection points: 2
#     Edge 11, Type (0, 0), BuildingBlock: ZUJKAS_clean_linker_0, # of connection points: 2
#     Edge 12, Type (0, 0), BuildingBlock: ZUJKAS_clean_linker_0, # of connection points: 2
#     Edge 13, Type (0, 0), BuildingBlock: ZUJKAS_clean_linker_0, # of connection points: 2
#     Edge 14, Type (0, 0), BuildingBlock: ZUJKAS_clean_linker_0, # of connection points: 2
#     Edge 15, Type (0, 0), BuildingBlock: ZUJKAS_clean_linker_0, # of connection points: 2
#     Edge 16, Type (0, 0), BuildingBlock: ZUJKAS_clean_linker_0, # of connection points: 2
#     Edge 17, Type (0, 0), BuildingBlock: ZUJKAS_clean_linker_0, # of connection points: 2
#     Edge 18, Type (0, 0), BuildingBlock: ZUJKAS_clean_linker_0, # of connection points: 2
#     Edge 19, Type (0, 0), BuildingBlock: ZUJKAS_clean_linker_0, # of connection points: 2
#     Edge 20, Type (0, 0), BuildingBlock: ZUJKAS_clean_linker_0, # of connection points: 2
#     Edge 21, Type (0, 0), BuildingBlock: ZUJKAS_clean_linker_0, # of connection points: 2
#     Edge 22, Type (0, 0), BuildingBlock: ZUJKAS_clean_linker_0, # of connection points: 2
#     Edge 23, Type (0, 0), BuildingBlock: ZUJKAS_clean_linker_0, # of connection points: 2
# Relax obj value: 0.069
# Max RMSD: 0.136
# Mean RMSD: 0.136
data_MOF--net-hjm--node1-GALJAG_clean_sbu_0--edge1-ZUJKAS_clean_linker_0
_symmetry_space_group_name_H-M    P1
_symmetry_Int_Tables_number       1
_symmetry_cell_setting            triclinic
loop_
_symmetry_equiv_pos_as_xyz
'x, y, z'
_cell_length_a     33.14195
_cell_length_b     27.451773
_cell_length_c     33.157966
_cell_angle_alpha  89.998436
_cell_angle_beta   69.731659
_cell_angle_gamma 89.994119
loop_
_atom_site_label
_atom_site_type_symbol
_atom_site_fract_x
_atom_site_fract_y
_atom_site_fract_z
_atom_type_partial_charge
In0 In 0.18574 0.24603 0.31129 0.0
O1 O 0.13263 0.30308 0.32656 0.0
O2 O 0.16977 0.29926 0.36742 0.0
C3 C 0.19534 0.24523 0.22713 0.0
C4 C 0.13813 0.17225 0.35779 0.0
C5 C 0.27024 0.24838 0.30044 0.0
O6 O 0.19004 0.28397 0.24881 0.0
O7 O 0.19497 0.20679 0.24811 0.0
O8 O 0.24955 0.20912 0.30381 0.0
O9 O 0.24812 0.28647 0.30343 0.0
C10 C 0.13924 0.31942 0.35929 0.0
O11 O 0.17072 0.18895 0.36445 0.0
O12 O 0.13003 0.19213 0.32715 0.0
In13 In 0.81259 0.25103 0.18623 0.0
O14 O 0.86992 0.30265 0.16867 0.0
O15 O 0.82654 0.30958 0.13449 0.0
C16 C 0.80279 0.25174 0.27045 0.0
C17 C 0.85899 0.17719 0.13857 0.0
C18 C 0.72827 0.25252 0.19625 0.0
O19 O 0.80966 0.28992 0.24793 0.0
O20 O 0.80164 0.21308 0.25032 0.0
O21 O 0.74954 0.2135 0.19153 0.0
O22 O 0.74972 0.29076 0.19513 0.0
C23 C 0.86049 0.32437 0.1396 0.0
O24 O 0.82992 0.19895 0.12914 0.0
O25 O 0.86404 0.19198 0.17252 0.0
In26 In 0.81274 0.74568 0.68593 0.0
O27 O 0.86666 0.68967 0.67067 0.0
O28 O 0.82846 0.69118 0.63075 0.0
C29 C 0.80332 0.74308 0.77002 0.0
C30 C 0.85981 0.81933 0.63862 0.0
C31 C 0.72818 0.74662 0.69694 0.0
O32 O 0.80565 0.70508 0.74796 0.0
O33 O 0.80655 0.78243 0.74948 0.0
O34 O 0.74918 0.78491 0.69702 0.0
O35 O 0.75002 0.70791 0.69046 0.0
C36 C 0.85961 0.67213 0.63857 0.0
O37 O 0.82754 0.80172 0.63195 0.0
O38 O 0.86784 0.80047 0.6697 0.0
In39 In 0.18555 0.75053 0.81171 0.0
O40 O 0.16753 0.80239 0.86893 0.0
O41 O 0.13508 0.81061 0.82422 0.0
C42 C 0.26997 0.74937 0.80127 0.0
C43 C 0.13812 0.67738 0.85916 0.0
C44 C 0.19464 0.7488 0.72767 0.0
O45 O 0.24813 0.78809 0.80801 0.0
O46 O 0.24906 0.71119 0.80059 0.0
O47 O 0.1857 0.71129 0.75106 0.0
O48 O 0.19822 0.78736 0.74684 0.0
C49 C 0.13937 0.82493 0.85866 0.0
O50 O 0.12776 0.6996 0.8309 0.0
O51 O 0.17279 0.69158 0.86307 0.0
In52 In 0.68752 0.74574 0.31212 0.0
O53 O 0.63184 0.79965 0.32782 0.0
O54 O 0.67057 0.80046 0.36716 0.0
C55 C 0.69878 0.74005 0.22774 0.0
C56 C 0.64202 0.67037 0.35803 0.0
C57 C 0.77125 0.7562 0.30237 0.0
O58 O 0.68827 0.77899 0.24901 0.0
O59 O 0.70277 0.70359 0.24924 0.0
O60 O 0.75173 0.71609 0.31251 0.0
O61 O 0.74836 0.79103 0.2979 0.0
C62 C 0.63874 0.81806 0.35967 0.0
O63 O 0.67336 0.68918 0.36564 0.0
O64 O 0.63427 0.68884 0.32664 0.0
In65 In 0.31166 0.75314 0.18553 0.0
O66 O 0.3643 0.81074 0.17093 0.0
O67 O 0.32893 0.80542 0.12858 0.0
C68 C 0.30019 0.74622 0.2699 0.0
C69 C 0.3587 0.67812 0.14054 0.0
C70 C 0.22793 0.76308 0.19503 0.0
O71 O 0.31208 0.78499 0.2487 0.0
O72 O 0.29497 0.71044 0.24832 0.0
O73 O 0.24814 0.7236 0.18345 0.0
O74 O 0.25016 0.79776 0.20105 0.0
C75 C 0.3587 0.82628 0.13748 0.0
O76 O 0.32563 0.69396 0.13431 0.0
O77 O 0.36758 0.69944 0.17013 0.0
In78 In 0.31254 0.24555 0.68453 0.0
O79 O 0.36705 0.19025 0.66917 0.0
O80 O 0.32801 0.19024 0.63008 0.0
C81 C 0.30122 0.24627 0.76908 0.0
C82 C 0.36042 0.31916 0.63797 0.0
C83 C 0.22846 0.24291 0.69376 0.0
O84 O 0.3081 0.2077 0.74708 0.0
O85 O 0.30092 0.28464 0.74825 0.0
O86 O 0.24923 0.28223 0.68959 0.0
O87 O 0.25031 0.20494 0.69244 0.0
C88 C 0.35958 0.17188 0.63759 0.0
O89 O 0.32918 0.30084 0.62985 0.0
O90 O 0.36696 0.30104 0.67012 0.0
In91 In 0.68575 0.25275 0.81243 0.0
O92 O 0.63364 0.19467 0.82629 0.0
O93 O 0.6688 0.19999 0.86892 0.0
C94 C 0.69473 0.25593 0.72847 0.0
C95 C 0.63852 0.32605 0.86007 0.0
C96 C 0.77032 0.24849 0.80104 0.0
O97 O 0.6893 0.21667 0.74944 0.0
O98 O 0.69477 0.29376 0.75005 0.0
O99 O 0.7502 0.28817 0.80462 0.0
O100 O 0.74759 0.21088 0.80411 0.0
C101 C 0.63925 0.17897 0.85972 0.0
O102 O 0.67192 0.30986 0.86545 0.0
O103 O 0.62944 0.30592 0.8301 0.0
H104 H 0.06508 0.13302 0.35102 0.0
H105 H 0.01737 0.07267 0.39842 0.0
H106 H 0.10048 0.06554 0.47362 0.0
H107 H 0.14862 0.12551 0.42611 0.0
H108 H 0.07372 0.97374 0.4535 0.0
H109 H 0.93588 0.10022 0.5218 0.0
H110 H 0.95651 0.09707 0.46411 0.0
H111 H 0.98964 0.1213 0.49226 0.0
C112 C 0.07326 0.11847 0.37757 0.0
C113 C 0.11046 0.1341 0.38501 0.0
C114 C 0.04585 0.08426 0.40475 0.0
C115 C 0.05507 0.06535 0.4399 0.0
C116 C 0.09271 0.07999 0.44679 0.0
H117 H 0.93281 0.85952 0.64466 0.0
H118 H 0.98022 0.91945 0.59641 0.0
C119 C 0.12014 0.11421 0.41964 0.0
C120 C 0.02557 0.03009 0.46946 0.0
H121 H 0.92341 0.01698 0.54102 0.0
C122 C 0.0409 0.98317 0.47277 0.0
C123 C 0.98279 0.04264 0.49446 0.0
C124 C 0.9652 0.09315 0.4934 0.0
C125 C 0.01432 0.94809 0.50003 0.0
C126 C 0.97159 0.96067 0.52511 0.0
C127 C 0.95622 0.00755 0.52171 0.0
C128 C 0.94229 0.9256 0.55506 0.0
C129 C 0.03191 0.89759 0.50115 0.0
C130 C 0.90463 0.91042 0.54849 0.0
C131 C 0.87739 0.87641 0.5761 0.0
C132 C 0.88726 0.85729 0.6109 0.0
C133 C 0.92447 0.87348 0.61801 0.0
C134 C 0.95171 0.90744 0.59035 0.0
H135 H 0.06118 0.89047 0.47272 0.0
H136 H 0.04068 0.89376 0.5304 0.0
H137 H 0.00744 0.86945 0.50241 0.0
H138 H 0.8967 0.92431 0.52156 0.0
H139 H 0.84889 0.86467 0.56987 0.0
H140 H 0.14087 0.85882 0.93547 0.0
H141 H 0.09265 0.91886 0.98277 0.0
H142 H 0.02831 0.93789 0.89089 0.0
H143 H 0.07607 0.87745 0.84361 0.0
H144 H 0.0779 0.01707 0.96658 0.0
H145 H 0.92978 0.9052 0.00327 0.0
H146 H 0.98303 0.87989 0.97909 0.0
H147 H 0.95902 0.91399 0.94699 0.0
C148 C 0.11654 0.87591 0.92528 0.0
C149 C 0.11205 0.86328 0.88597 0.0
C150 C 0.08904 0.91015 0.95232 0.0
C151 C 0.05651 0.93213 0.94061 0.0
C152 C 0.05268 0.92056 0.90088 0.0
H153 H 0.85675 0.14323 0.06202 0.0
H154 H 0.90519 0.08382 0.01409 0.0
C155 C 0.08014 0.88629 0.87381 0.0
C156 C 0.02667 0.96727 0.96999 0.0
H157 H 0.92086 0.98633 0.02923 0.0
C158 C 0.04358 0.01035 0.98043 0.0
C159 C 0.98194 0.95827 0.98792 0.0
C160 C 0.96228 0.91167 0.97914 0.0
C161 C 0.01681 0.0452 0.00783 0.0
C162 C 0.97209 0.03616 0.02583 0.0
C163 C 0.95517 0.99309 0.01535 0.0
C164 C 0.94225 0.0711 0.05549 0.0
C165 C 0.03651 0.09181 0.01655 0.0
C166 C 0.94651 0.08276 0.09502 0.0
C167 C 0.91894 0.11669 0.12242 0.0
C168 C 0.88645 0.13922 0.11085 0.0
C169 C 0.88153 0.1265 0.07176 0.0
C170 C 0.90916 0.09262 0.04435 0.0
H171 H 0.06879 0.0985 0.9921 0.0
H172 H 0.01554 0.12354 0.01707 0.0
H173 H 0.04029 0.08928 0.04846 0.0
H174 H 0.97126 0.06573 0.10461 0.0
H175 H 0.92335 0.12559 0.15245 0.0
H176 H 0.35415 0.36088 0.56569 0.0
H177 H 0.40315 0.42016 0.5182 0.0
H178 H 0.47866 0.42247 0.60115 0.0
H179 H 0.43012 0.36275 0.64854 0.0
H180 H 0.42554 0.51425 0.53669 0.0
H181 H 0.56779 0.39184 0.48242 0.0
H182 H 0.51394 0.36956 0.50973 0.0
H183 H 0.54347 0.39798 0.53971 0.0
C184 C 0.38113 0.37411 0.57387 0.0
C185 C 0.38847 0.35702 0.61069 0.0
C186 C 0.40908 0.40792 0.54672 0.0
C187 C 0.4449 0.42499 0.55581 0.0
C188 C 0.4517 0.40893 0.59312 0.0
H189 H 0.65008 0.62853 0.42954 0.0
H190 H 0.602 0.56878 0.47744 0.0
C191 C 0.42379 0.37509 0.62028 0.0
C192 C 0.47493 0.45991 0.52634 0.0
H193 H 0.57922 0.4743 0.4602 0.0
C194 C 0.4591 0.50552 0.51983 0.0
C195 C 0.5187 0.44831 0.50449 0.0
C196 C 0.53703 0.39913 0.50904 0.0
C197 C 0.48607 0.54024 0.49248 0.0
C198 C 0.52979 0.52859 0.4705 0.0
C199 C 0.54566 0.48303 0.47711 0.0
C200 C 0.5596 0.56331 0.44058 0.0
C201 C 0.46772 0.58945 0.48803 0.0
C202 C 0.5522 0.57907 0.40349 0.0
C203 C 0.57954 0.61317 0.37612 0.0
C204 C 0.61493 0.63182 0.38526 0.0
C205 C 0.62301 0.61486 0.42173 0.0
C206 C 0.59561 0.58079 0.44911 0.0
H207 H 0.43721 0.59689 0.51492 0.0
H208 H 0.49098 0.61898 0.48693 0.0
H209 H 0.46082 0.5905 0.4576 0.0
H210 H 0.52509 0.56521 0.39587 0.0
H211 H 0.57264 0.62538 0.34812 0.0
H212 H 0.43345 0.64141 0.1454 0.0
H213 H 0.48135 0.58144 0.09755 0.0
H214 H 0.39387 0.56777 0.02753 0.0
H215 H 0.34608 0.62806 0.07486 0.0
H216 H 0.4649 0.48429 0.07947 0.0
H217 H 0.50938 0.60088 0.93363 0.0
H218 H 0.48347 0.62479 0.98713 0.0
H219 H 0.45253 0.59297 0.96039 0.0
C220 C 0.42436 0.62547 0.11991 0.0
C221 C 0.38618 0.6396 0.11367 0.0
C222 C 0.45173 0.59129 0.09263 0.0
C223 C 0.44147 0.57091 0.0586 0.0
C224 C 0.40277 0.58389 0.05307 0.0
H225 H 0.56347 0.36336 0.85665 0.0
H226 H 0.51602 0.42278 0.90552 0.0
C227 C 0.3754 0.61807 0.08029 0.0
C228 C 0.47127 0.53604 0.02886 0.0
H229 H 0.53333 0.5189 0.92363 0.0
C230 C 0.48006 0.49187 0.04543 0.0
C231 C 0.49091 0.54618 0.9845 0.0
C232 C 0.48399 0.59394 0.96529 0.0
C233 C 0.50737 0.45699 0.01859 0.0
C234 C 0.52693 0.46709 0.97421 0.0
C235 C 0.51822 0.51133 0.95768 0.0
C236 C 0.55627 0.432 0.94427 0.0
C237 C 0.51425 0.40921 0.03777 0.0
C238 C 0.59498 0.41832 0.94943 0.0
C239 C 0.62212 0.38439 0.92161 0.0
C240 C 0.61108 0.36386 0.88801 0.0
C241 C 0.57279 0.37852 0.88229 0.0
C242 C 0.54566 0.41241 0.91016 0.0
H243 H 0.48895 0.40236 0.06952 0.0
H244 H 0.51454 0.37836 0.016 0.0
H245 H 0.54579 0.41003 0.04248 0.0
H246 H 0.60417 0.43382 0.97502 0.0
H247 H 0.65153 0.37395 0.92665 0.0
H248 H 0.93692 0.3585 0.14202 0.0
H249 H 0.98384 0.41972 0.09495 0.0
H250 H 0.89352 0.43717 0.02856 0.0
H251 H 0.84627 0.37631 0.07566 0.0
H252 H 0.02077 0.41498 0.00408 0.0
H253 H 0.91645 0.57784 0.05839 0.0
H254 H 0.90803 0.5223 0.08942 0.0
H255 H 0.8908 0.52652 0.04378 0.0
C256 C 0.92688 0.37572 0.11765 0.0
C257 C 0.88789 0.36279 0.11257 0.0
C258 C 0.95373 0.41056 0.09079 0.0
C259 C 0.94186 0.43329 0.05868 0.0
C260 C 0.90286 0.42064 0.05367 0.0
H261 H 0.06113 0.64351 0.85817 0.0
H262 H 0.01461 0.58247 0.90579 0.0
C263 C 0.87603 0.38574 0.08046 0.0
C264 C 0.97111 0.4688 0.02928 0.0
H265 H 0.97866 0.58719 0.99614 0.0
C266 C 0.01173 0.45272 0.00245 0.0
C267 C 0.95902 0.51787 0.02724 0.0
C268 C 0.91636 0.53743 0.05647 0.0
C269 C 0.04043 0.48431 0.97297 0.0
C270 C 0.02833 0.53338 0.97091 0.0
C271 C 0.98772 0.54947 0.9978 0.0
C272 C 0.05739 0.56879 0.94118 0.0
C273 C 0.08301 0.46468 0.94363 0.0
C274 C 0.09674 0.58131 0.94548 0.0
C275 C 0.12339 0.6161 0.91832 0.0
C276 C 0.11096 0.63907 0.88659 0.0
C277 C 0.07161 0.62629 0.88225 0.0
C278 C 0.04498 0.59154 0.90944 0.0
H279 H 0.08285 0.42427 0.94172 0.0
H280 H 0.09126 0.47979 0.91069 0.0
H281 H 0.10865 0.47552 0.95623 0.0
H282 H 0.1065 0.56479 0.97032 0.0
H283 H 0.15342 0.62543 0.92256 0.0
H284 H 0.07159 0.36714 0.34833 0.0
H285 H 0.0248 0.42805 0.39589 0.0
H286 H 0.09817 0.41803 0.48057 0.0
H287 H 0.14542 0.35754 0.43293 0.0
H288 H 0.97451 0.41533 0.48298 0.0
H289 H 0.09275 0.56523 0.46127 0.0
H290 H 0.1022 0.51411 0.4249 0.0
H291 H 0.10949 0.50765 0.47587 0.0
C292 C 0.078 0.37826 0.37687 0.0
C293 C 0.11223 0.35775 0.38687 0.0
C294 C 0.05122 0.41295 0.40401 0.0
C295 C 0.05837 0.4279 0.44142 0.0
C296 C 0.09264 0.40764 0.4514 0.0
H297 H 0.92773 0.62563 0.6497 0.0
H298 H 0.97469 0.56441 0.60272 0.0
C299 C 0.11946 0.37296 0.42427 0.0
C300 C 0.02888 0.46322 0.47089 0.0
H301 H 0.02482 0.57556 0.51618 0.0
C302 C 0.9854 0.45047 0.49013 0.0
C303 C 0.04334 0.50887 0.48021 0.0
C304 C 0.08941 0.52512 0.45924 0.0
C305 C 0.95599 0.48196 0.51903 0.0
C306 C 0.97042 0.52769 0.52825 0.0
C307 C 0.01393 0.54039 0.50906 0.0
C308 C 0.94085 0.56319 0.55742 0.0
C309 C 0.90998 0.4656 0.54008 0.0
C310 C 0.90638 0.58281 0.54739 0.0
C311 C 0.87944 0.61763 0.57421 0.0
C312 C 0.88677 0.63367 0.61133 0.0
C313 C 0.92124 0.61386 0.62137 0.0
C314 C 0.94811 0.57898 0.59456 0.0
H315 H 0.90682 0.42541 0.53855 0.0
H316 H 0.89701 0.47716 0.57428 0.0
H317 H 0.88992 0.48242 0.5231 0.0
H318 H 0.90077 0.57183 0.51841 0.0
H319 H 0.85331 0.63252 0.56552 0.0
H320 H 0.64172 0.14403 0.93586 0.0
H321 H 0.59435 0.08285 0.98255 0.0
H322 H 0.5278 0.06669 0.89227 0.0
H323 H 0.57515 0.12757 0.84527 0.0
H324 H 0.5031 0.08849 0.01929 0.0
H325 H 0.55718 0.92547 0.91512 0.0
H326 H 0.58858 0.98072 0.90704 0.0
H327 H 0.54315 0.97714 0.88941 0.0
C328 C 0.61726 0.12709 0.92577 0.0
C329 C 0.61217 0.14042 0.88689 0.0
C330 C 0.59022 0.09228 0.95249 0.0
C331 C 0.55796 0.06997 0.94058 0.0
C332 C 0.553 0.08294 0.90164 0.0
H333 H 0.35621 0.86081 0.06121 0.0
H334 H 0.40361 0.92179 0.01426 0.0
C335 C 0.57994 0.11784 0.87496 0.0
C336 C 0.52832 0.03458 0.96973 0.0
H337 H 0.49492 0.91628 0.97732 0.0
C338 C 0.5014 0.05076 0.01027 0.0
C339 C 0.5262 0.98553 0.95767 0.0
C340 C 0.55553 0.9659 0.9151 0.0
C341 C 0.47182 0.01924 0.03893 0.0
C342 C 0.46971 0.97018 0.02687 0.0
C343 C 0.49661 0.95401 0.98633 0.0
C344 C 0.44015 0.93478 0.05609 0.0
C345 C 0.4425 0.03887 0.08151 0.0
C346 C 0.44521 0.9219 0.095 0.0
C347 C 0.41826 0.88711 0.12182 0.0
C348 C 0.38591 0.86456 0.11006 0.0
C349 C 0.38076 0.87774 0.07117 0.0
C350 C 0.40782 0.91244 0.04431 0.0
H351 H 0.44081 0.0793 0.08146 0.0
H352 H 0.40947 0.024 0.08961 0.0
H353 H 0.45493 0.0277 0.10718 0.0
H354 H 0.47047 0.93817 0.10427 0.0
H355 H 0.4231 0.87749 0.1515 0.0
H356 H 0.56722 0.85927 0.3511 0.0
H357 H 0.51937 0.91965 0.39829 0.0
H358 H 0.59929 0.92269 0.47693 0.0
H359 H 0.64704 0.86188 0.43018 0.0
H360 H 0.51091 0.91207 0.52359 0.0
H361 H 0.54204 0.06556 0.4076 0.0
H362 H 0.52709 0.00944 0.38872 0.0
H363 H 0.5769 0.0131 0.39881 0.0
C364 C 0.57477 0.87309 0.37826 0.0
C365 C 0.61091 0.85602 0.38693 0.0
C366 C 0.54754 0.90771 0.40504 0.0
C367 C 0.55616 0.92602 0.44072 0.0
C368 C 0.59225 0.90911 0.4494 0.0
H369 H 0.43044 0.12909 0.6462 0.0
H370 H 0.47724 0.06783 0.59921 0.0
C371 C 0.61949 0.87449 0.42265 0.0
C372 C 0.52669 0.96152 0.46993 0.0
H373 H 0.48501 0.07583 0.47408 0.0
C374 C 0.50534 0.94798 0.51289 0.0
C375 C 0.51949 0.00818 0.4557 0.0
C376 C 0.54283 0.02526 0.4103 0.0
C377 C 0.47638 0.9797 0.54196 0.0
C378 C 0.46923 0.0264 0.52774 0.0
C379 C 0.49054 0.0399 0.48477 0.0
C380 C 0.44013 0.06213 0.55704 0.0
C381 C 0.45308 0.96264 0.58737 0.0
C382 C 0.40419 0.07969 0.54845 0.0
C383 C 0.37754 0.11485 0.57509 0.0
C384 C 0.3866 0.13319 0.61059 0.0
C385 C 0.42253 0.11539 0.61922 0.0
C386 C 0.44916 0.08024 0.59256 0.0
H387 H 0.45359 0.92231 0.58999 0.0
H388 H 0.46908 0.97812 0.60886 0.0
H389 H 0.41911 0.97513 0.59903 0.0
H390 H 0.39686 0.06629 0.52104 0.0
H391 H 0.35014 0.12801 0.56759 0.0
H392 H 0.27042 0.66828 0.32323 0.0
H393 H 0.25048 0.66648 0.40166 0.0
H394 H 0.2889 0.81671 0.40052 0.0
H395 H 0.30851 0.81898 0.32234 0.0
H396 H 0.30164 0.6871 0.4533 0.0
H397 H 0.16403 0.81479 0.48594 0.0
H398 H 0.18848 0.78506 0.43463 0.0
H399 H 0.21381 0.83721 0.44843 0.0
C400 C 0.27477 0.70084 0.33971 0.0
C401 C 0.29078 0.74386 0.31674 0.0
C402 C 0.26334 0.69976 0.38444 0.0
C403 C 0.26753 0.74171 0.40683 0.0
C404 C 0.28461 0.78426 0.38385 0.0
H405 H 0.22092 0.82318 0.66995 0.0
H406 H 0.23776 0.81931 0.5921 0.0
C407 C 0.29604 0.78539 0.33919 0.0
C408 C 0.25423 0.74108 0.45424 0.0
H409 H 0.18563 0.7945 0.54509 0.0
C410 C 0.27608 0.71026 0.47348 0.0
C411 C 0.22085 0.77137 0.48031 0.0
C412 C 0.19511 0.80369 0.4614 0.0
C413 C 0.26631 0.71001 0.51819 0.0
C414 C 0.23324 0.74075 0.54424 0.0
C415 C 0.21102 0.77107 0.52499 0.0
C416 C 0.22189 0.74291 0.59148 0.0
C417 C 0.29236 0.67801 0.53698 0.0
C418 C 0.20658 0.70146 0.61695 0.0
C419 C 0.19709 0.70352 0.6614 0.0
C420 C 0.20237 0.74722 0.6811 0.0
C421 C 0.21658 0.789 0.65565 0.0
C422 C 0.22622 0.78685 0.61121 0.0
H423 H 0.32299 0.6661 0.51219 0.0
H424 H 0.29991 0.69727 0.56295 0.0
H425 H 0.27346 0.64493 0.55101 0.0
H426 H 0.2021 0.66748 0.60244 0.0
H427 H 0.18592 0.67083 0.68026 0.0
H428 H 0.79774 0.66282 0.82025 0.0
H429 H 0.77997 0.6604 0.89838 0.0
H430 H 0.77268 0.81723 0.90317 0.0
H431 H 0.79035 0.82004 0.82512 0.0
H432 H 0.82381 0.70886 0.95033 0.0
H433 H 0.65429 0.76846 0.98848 0.0
H434 H 0.68641 0.74459 0.93649 0.0
H435 H 0.69425 0.80604 0.95081 0.0
C436 C 0.79254 0.69679 0.83793 0.0
C437 C 0.79522 0.74163 0.81667 0.0
C438 C 0.78243 0.69532 0.88248 0.0
C439 C 0.77447 0.73858 0.90643 0.0
C440 C 0.7781 0.78344 0.8852 0.0
H441 H 0.69824 0.81541 0.17447 0.0
H442 H 0.71702 0.81302 0.09639 0.0
C443 C 0.7884 0.78497 0.84065 0.0
C444 C 0.76209 0.73687 0.95371 0.0
H445 H 0.67969 0.76248 0.0468 0.0
C446 C 0.79227 0.72031 0.97154 0.0
C447 C 0.7209 0.75186 0.98105 0.0
C448 C 0.68686 0.7684 0.96341 0.0
C449 C 0.7827 0.71955 0.01622 0.0
C450 C 0.74151 0.73476 0.04362 0.0
C451 C 0.71122 0.75087 0.0257 0.0
C452 C 0.72948 0.73547 0.09099 0.0
C453 C 0.81719 0.7039 0.03358 0.0
C454 C 0.72948 0.69247 0.1139 0.0
C455 C 0.71892 0.69376 0.15852 0.0
C456 C 0.70777 0.73801 0.18095 0.0
C457 C 0.70674 0.78078 0.15805 0.0
C458 C 0.71747 0.77949 0.11346 0.0
H459 H 0.84974 0.70554 0.00855 0.0
H460 H 0.81692 0.72711 0.0611 0.0
H461 H 0.81115 0.66571 0.04504 0.0
H462 H 0.73768 0.65794 0.09727 0.0
H463 H 0.71976 0.66019 0.17539 0.0
H464 H 0.80329 0.33057 0.32041 0.0
H465 H 0.78628 0.33224 0.3984 0.0
H466 H 0.76571 0.17687 0.40388 0.0
H467 H 0.78321 0.17479 0.32592 0.0
H468 H 0.70908 0.30313 0.46118 0.0
H469 H 0.84682 0.19547 0.47181 0.0
H470 H 0.84624 0.22145 0.42199 0.0
H471 H 0.81746 0.16602 0.44223 0.0
C472 C 0.79558 0.2967 0.33819 0.0
C473 C 0.79474 0.25251 0.3171 0.0
C474 C 0.7858 0.29774 0.3827 0.0
C475 C 0.77527 0.25461 0.40677 0.0
C476 C 0.77461 0.21041 0.38576 0.0
H477 H 0.69497 0.17928 0.67612 0.0
H478 H 0.71255 0.18061 0.59811 0.0
C479 C 0.78442 0.20932 0.34126 0.0
C480 C 0.76312 0.25611 0.4541 0.0
H481 H 0.79 0.21163 0.53752 0.0
C482 C 0.72689 0.28341 0.47793 0.0
C483 C 0.78643 0.23025 0.47573 0.0
C484 C 0.82664 0.20198 0.45167 0.0
C485 C 0.7127 0.28464 0.523 0.0
C486 C 0.73584 0.25848 0.54464 0.0
C487 C 0.77225 0.23147 0.52078 0.0
C488 C 0.72291 0.2585 0.59206 0.0
C489 C 0.6725 0.31292 0.54709 0.0
C490 C 0.72287 0.30189 0.61444 0.0
C491 C 0.71266 0.30128 0.65901 0.0
C492 C 0.70271 0.25716 0.68184 0.0
C493 C 0.70242 0.21383 0.65939 0.0
C494 C 0.71252 0.21451 0.61486 0.0
H495 H 0.65273 0.32038 0.52671 0.0
H496 H 0.65249 0.29291 0.57627 0.0
H497 H 0.68169 0.34841 0.55739 0.0
H498 H 0.73163 0.33608 0.59733 0.0
H499 H 0.71345 0.33518 0.67545 0.0
H500 H 0.2128 0.16694 0.17309 0.0
H501 H 0.23085 0.16756 0.09496 0.0
H502 H 0.21403 0.32348 0.09778 0.0
H503 H 0.19658 0.32327 0.1758 0.0
H504 H 0.18305 0.2008 0.04518 0.0
H505 H 0.33533 0.30446 0.0099 0.0
H506 H 0.30778 0.27696 0.06161 0.0
H507 H 0.289 0.33364 0.04745 0.0
C508 C 0.21283 0.20133 0.15707 0.0
C509 C 0.20356 0.24511 0.18046 0.0
C510 C 0.22314 0.20161 0.11249 0.0
C511 C 0.22451 0.24565 0.09059 0.0
C512 C 0.21407 0.28924 0.11401 0.0
H513 H 0.28193 0.32424 0.82349 0.0
H514 H 0.26296 0.32334 0.90174 0.0
C515 C 0.20384 0.28902 0.15857 0.0
C516 C 0.2368 0.24593 0.04323 0.0
H517 H 0.31145 0.29007 0.95131 0.0
C518 C 0.2112 0.22012 0.02459 0.0
C519 C 0.27358 0.27119 0.01658 0.0
C520 C 0.30329 0.29779 0.03477 0.0
C521 C 0.22095 0.21963 0.9799 0.0
C522 C 0.25767 0.24498 0.95326 0.0
C523 C 0.28329 0.27075 0.9719 0.0
C524 C 0.27001 0.24534 0.90591 0.0
C525 C 0.19138 0.19286 0.96164 0.0
C526 C 0.28108 0.20188 0.88238 0.0
C527 C 0.29191 0.20228 0.83774 0.0
C528 C 0.29211 0.24621 0.81592 0.0
C529 C 0.282 0.28984 0.83947 0.0
C530 C 0.27114 0.28939 0.88411 0.0
H531 H 0.15942 0.18576 0.98652 0.0
H532 H 0.18665 0.21382 0.93498 0.0
H533 H 0.20596 0.15723 0.94866 0.0
H534 H 0.28127 0.16765 0.89856 0.0
H535 H 0.29976 0.16813 0.8204 0.0
H536 H 0.32145 0.32844 0.29162 0.0
H537 H 0.39974 0.33023 0.27282 0.0
H538 H 0.40293 0.17319 0.27038 0.0
H539 H 0.32477 0.17104 0.28886 0.0
H540 H 0.4512 0.28703 0.31672 0.0
H541 H 0.48927 0.21334 0.15163 0.0
H542 H 0.43699 0.23745 0.18258 0.0
H543 H 0.45212 0.17731 0.19335 0.0
C544 C 0.33883 0.2943 0.28719 0.0
C545 C 0.31707 0.24959 0.2915 0.0
C546 C 0.38349 0.2954 0.27645 0.0
C547 C 0.40707 0.25187 0.26955 0.0
C548 C 0.38533 0.20718 0.27479 0.0
H549 H 0.67506 0.17475 0.20298 0.0
H550 H 0.59695 0.17605 0.22063 0.0
C551 C 0.34069 0.20603 0.2856 0.0
C552 C 0.45443 0.25314 0.25715 0.0
H553 H 0.54754 0.22122 0.17719 0.0
C554 C 0.47234 0.27291 0.28614 0.0
C555 C 0.48176 0.23468 0.21721 0.0
C556 C 0.4642 0.21486 0.18416 0.0
C557 C 0.51702 0.27366 0.27668 0.0
C558 C 0.54436 0.25493 0.23683 0.0
C559 C 0.52643 0.23546 0.20772 0.0
C560 C 0.5917 0.25459 0.22499 0.0
C561 C 0.5345 0.2933 0.30985 0.0
C562 C 0.61462 0.29838 0.22074 0.0
C563 C 0.65919 0.29775 0.21071 0.0
C564 C 0.68156 0.25329 0.20448 0.0
C565 C 0.65866 0.20954 0.20768 0.0
C566 C 0.61409 0.21021 0.21775 0.0
H567 H 0.50931 0.29508 0.3423 0.0
H568 H 0.56146 0.27044 0.31168 0.0
H569 H 0.54689 0.33073 0.30063 0.0
H570 H 0.59801 0.33304 0.22534 0.0
H571 H 0.67603 0.33205 0.20823 0.0
H572 H 0.67421 0.82497 0.7159 0.0
H573 H 0.59601 0.82476 0.73439 0.0
H574 H 0.5983 0.6691 0.71605 0.0
H575 H 0.67644 0.66889 0.69811 0.0
H576 H 0.54649 0.79296 0.68602 0.0
H577 H 0.50982 0.68691 0.8372 0.0
H578 H 0.56175 0.71427 0.81023 0.0
H579 H 0.54743 0.65819 0.79065 0.0
C580 C 0.65806 0.79071 0.71573 0.0
C581 C 0.68136 0.74689 0.70579 0.0
C582 C 0.61343 0.79066 0.72631 0.0
C583 C 0.59136 0.74682 0.7273 0.0
C584 C 0.61466 0.70317 0.71637 0.0
H585 H 0.32391 0.67099 0.7823 0.0
H586 H 0.40206 0.67111 0.76432 0.0
C587 C 0.65929 0.70317 0.70585 0.0
C588 C 0.54399 0.74691 0.73939 0.0
H589 H 0.45149 0.70283 0.81323 0.0
C590 C 0.52565 0.77345 0.71392 0.0
C591 C 0.51701 0.72137 0.77581 0.0
C592 C 0.53486 0.6939 0.80533 0.0
C593 C 0.48098 0.77445 0.72346 0.0
C594 C 0.45401 0.74889 0.75987 0.0
C595 C 0.47233 0.72235 0.78534 0.0
C596 C 0.40665 0.74898 0.7719 0.0
C597 C 0.46311 0.80195 0.69396 0.0
C598 C 0.38334 0.7926 0.78295 0.0
C599 C 0.33874 0.79266 0.79318 0.0
C600 C 0.31673 0.74901 0.79281 0.0
C601 C 0.34003 0.7052 0.78279 0.0
C602 C 0.38463 0.70519 0.77251 0.0
H603 H 0.48818 0.8091 0.66214 0.0
H604 H 0.43632 0.78152 0.68896 0.0
H605 H 0.45041 0.83758 0.70874 0.0
H606 H 0.39967 0.82662 0.78354 0.0
H607 H 0.32159 0.82693 0.801 0.0
H608 H 0.1753 0.69633 0.17755 0.0
H609 H 0.09734 0.70195 0.19504 0.0
H610 H 0.09748 0.84485 0.24896 0.0
H611 H 0.17554 0.8397 0.23137 0.0
H612 H 0.03577 0.77308 0.30306 0.0
H613 H 0.02915 0.79308 0.13858 0.0
H614 H 0.06334 0.74523 0.1454 0.0
H615 H 0.07659 0.8076 0.15127 0.0
C616 C 0.15879 0.72915 0.19274 0.0
C617 C 0.18144 0.76762 0.20306 0.0
C618 C 0.11435 0.73234 0.20256 0.0
C619 C 0.0919 0.77394 0.22297 0.0
C620 C 0.11442 0.81257 0.23302 0.0
H621 H 0.82147 0.83578 0.27083 0.0
H622 H 0.8993 0.84305 0.25361 0.0
C623 C 0.15893 0.80959 0.22288 0.0
C624 C 0.04461 0.77597 0.23564 0.0
H625 H 0.96307 0.77768 0.19505 0.0
C626 C 0.01979 0.77441 0.27954 0.0
C627 C 0.0241 0.77812 0.20477 0.0
C628 C 0.04953 0.7815 0.15733 0.0
C629 C 0.97471 0.7735 0.29338 0.0
C630 C 0.95422 0.77396 0.26245 0.0
C631 C 0.97903 0.77699 0.2186 0.0
C632 C 0.90702 0.7703 0.27488 0.0
C633 C 0.94927 0.77201 0.34091 0.0
C634 C 0.88582 0.72694 0.29248 0.0
C635 C 0.84147 0.72255 0.30213 0.0
C636 C 0.81768 0.76155 0.29438 0.0
C637 C 0.83896 0.80519 0.27729 0.0
C638 C 0.88335 0.8094 0.26737 0.0
H639 H 0.96922 0.78225 0.36048 0.0
H640 H 0.92116 0.7969 0.34896 0.0
H641 H 0.93699 0.73451 0.35001 0.0
H642 H 0.90374 0.69618 0.29798 0.0
H643 H 0.82592 0.68847 0.31516 0.0
H644 H 0.17445 0.32 0.70108 0.0
H645 H 0.09637 0.31771 0.7188 0.0
H646 H 0.09913 0.1607 0.72193 0.0
H647 H 0.17715 0.16268 0.70476 0.0
H648 H 0.04725 0.27236 0.67511 0.0
H649 H 0.01046 0.19677 0.83953 0.0
H650 H 0.0623 0.22216 0.80896 0.0
H651 H 0.04818 0.16195 0.79726 0.0
C652 C 0.15843 0.28499 0.70542 0.0
C653 C 0.18181 0.24152 0.7018 0.0
C654 C 0.11388 0.28375 0.71554 0.0
C655 C 0.09198 0.23908 0.72237 0.0
C656 C 0.11537 0.19557 0.71764 0.0
H657 H 0.8205 0.16738 0.79144 0.0
H658 H 0.89888 0.16411 0.77173 0.0
C659 C 0.15993 0.19677 0.70757 0.0
C660 C 0.04463 0.23822 0.73442 0.0
H661 H 0.95192 0.20587 0.81481 0.0
C662 C 0.02636 0.2579 0.70566 0.0
C663 C 0.01759 0.21917 0.77427 0.0
C664 C 0.03547 0.19916 0.80702 0.0
C665 C 0.98165 0.25882 0.71559 0.0
C666 C 0.95461 0.24029 0.75563 0.0
C667 C 0.97286 0.22007 0.78418 0.0
C668 C 0.90723 0.24235 0.7687 0.0
C669 C 0.9637 0.27902 0.68296 0.0
C670 C 0.88606 0.28743 0.77441 0.0
C671 C 0.8414 0.28942 0.78574 0.0
C672 C 0.81718 0.24631 0.79169 0.0
C673 C 0.83837 0.20118 0.78697 0.0
C674 C 0.88306 0.19924 0.77571 0.0
H675 H 0.98845 0.28035 0.65024 0.0
H676 H 0.93613 0.25681 0.68178 0.0
H677 H 0.95204 0.31669 0.69227 0.0
H678 H 0.90415 0.32109 0.76992 0.0
H679 H 0.82594 0.32472 0.78932 0.0
loop_
_geom_bond_atom_site_label_1
_geom_bond_atom_site_label_2
_geom_bond_distance
_geom_bond_site_symmetry_2
_ccdc_geom_bond_type
In0 O1 2.294 . S
In0 O2 2.326 . S
In0 O6 2.266 . S
In0 O7 2.326 . S
In0 O8 2.266 . S
In0 O9 2.326 . S
In0 O11 2.294 . S
In0 O12 2.326 . S
O1 In0 2.294 . S
O1 C10 1.240 . S
O2 In0 2.326 . S
O2 C10 1.252 . S
C3 O6 1.252 . S
C3 O7 1.260 . S
C4 O11 1.240 . S
C4 O12 1.252 . S
C5 O8 1.252 . S
C5 O9 1.260 . S
O6 In0 2.266 . S
O6 C3 1.252 . S
O7 In0 2.326 . S
O7 C3 1.260 . S
O8 In0 2.266 . S
O8 C5 1.252 . S
O9 In0 2.326 . S
O9 C5 1.260 . S
C10 O1 1.240 . S
C10 O2 1.252 . S
O11 In0 2.294 . S
O11 C4 1.240 . S
O12 In0 2.326 . S
O12 C4 1.252 . S
In13 O14 2.294 . S
In13 O15 2.326 . S
In13 O19 2.266 . S
In13 O20 2.326 . S
In13 O21 2.266 . S
In13 O22 2.326 . S
In13 O24 2.294 . S
In13 O25 2.326 . S
O14 In13 2.294 . S
O14 C23 1.240 . S
O15 In13 2.326 . S
O15 C23 1.252 . S
C16 O19 1.252 . S
C16 O20 1.260 . S
C17 O24 1.240 . S
C17 O25 1.252 . S
C18 O21 1.252 . S
C18 O22 1.260 . S
O19 In13 2.266 . S
O19 C16 1.252 . S
O20 In13 2.326 . S
O20 C16 1.260 . S
O21 In13 2.266 . S
O21 C18 1.252 . S
O22 In13 2.326 . S
O22 C18 1.260 . S
C23 O14 1.240 . S
C23 O15 1.252 . S
O24 In13 2.294 . S
O24 C17 1.240 . S
O25 In13 2.326 . S
O25 C17 1.252 . S
In26 O27 2.294 . S
In26 O28 2.326 . S
In26 O32 2.266 . S
In26 O33 2.326 . S
In26 O34 2.266 . S
In26 O35 2.326 . S
In26 O37 2.294 . S
In26 O38 2.326 . S
O27 In26 2.294 . S
O27 C36 1.240 . S
O28 In26 2.326 . S
O28 C36 1.252 . S
C29 O32 1.252 . S
C29 O33 1.260 . S
C30 O37 1.240 . S
C30 O38 1.252 . S
C31 O34 1.252 . S
C31 O35 1.260 . S
O32 In26 2.266 . S
O32 C29 1.252 . S
O33 In26 2.326 . S
O33 C29 1.260 . S
O34 In26 2.266 . S
O34 C31 1.252 . S
O35 In26 2.326 . S
O35 C31 1.260 . S
C36 O27 1.240 . S
C36 O28 1.252 . S
O37 In26 2.294 . S
O37 C30 1.240 . S
O38 In26 2.326 . S
O38 C30 1.252 . S
In39 O40 2.294 . S
In39 O41 2.326 . S
In39 O45 2.266 . S
In39 O46 2.326 . S
In39 O47 2.266 . S
In39 O48 2.326 . S
In39 O50 2.294 . S
In39 O51 2.326 . S
O40 In39 2.294 . S
O40 C49 1.240 . S
O41 In39 2.326 . S
O41 C49 1.252 . S
C42 O45 1.252 . S
C42 O46 1.260 . S
C43 O50 1.240 . S
C43 O51 1.252 . S
C44 O47 1.252 . S
C44 O48 1.260 . S
O45 In39 2.266 . S
O45 C42 1.252 . S
O46 In39 2.326 . S
O46 C42 1.260 . S
O47 In39 2.266 . S
O47 C44 1.252 . S
O48 In39 2.326 . S
O48 C44 1.260 . S
C49 O40 1.240 . S
C49 O41 1.252 . S
O50 In39 2.294 . S
O50 C43 1.240 . S
O51 In39 2.326 . S
O51 C43 1.252 . S
In52 O53 2.294 . S
In52 O54 2.326 . S
In52 O58 2.266 . S
In52 O59 2.326 . S
In52 O60 2.266 . S
In52 O61 2.326 . S
In52 O63 2.294 . S
In52 O64 2.326 . S
O53 In52 2.294 . S
O53 C62 1.240 . S
O54 In52 2.326 . S
O54 C62 1.252 . S
C55 O58 1.252 . S
C55 O59 1.260 . S
C56 O63 1.240 . S
C56 O64 1.252 . S
C57 O60 1.252 . S
C57 O61 1.260 . S
O58 In52 2.266 . S
O58 C55 1.252 . S
O59 In52 2.326 . S
O59 C55 1.260 . S
O60 In52 2.266 . S
O60 C57 1.252 . S
O61 In52 2.326 . S
O61 C57 1.260 . S
C62 O53 1.240 . S
C62 O54 1.252 . S
O63 In52 2.294 . S
O63 C56 1.240 . S
O64 In52 2.326 . S
O64 C56 1.252 . S
In65 O66 2.294 . S
In65 O67 2.326 . S
In65 O71 2.266 . S
In65 O72 2.326 . S
In65 O73 2.266 . S
In65 O74 2.326 . S
In65 O76 2.294 . S
In65 O77 2.326 . S
O66 In65 2.294 . S
O66 C75 1.240 . S
O67 In65 2.326 . S
O67 C75 1.252 . S
C68 O71 1.252 . S
C68 O72 1.260 . S
C69 O76 1.240 . S
C69 O77 1.252 . S
C70 O73 1.252 . S
C70 O74 1.260 . S
O71 In65 2.266 . S
O71 C68 1.252 . S
O72 In65 2.326 . S
O72 C68 1.260 . S
O73 In65 2.266 . S
O73 C70 1.252 . S
O74 In65 2.326 . S
O74 C70 1.260 . S
C75 O66 1.240 . S
C75 O67 1.252 . S
O76 In65 2.294 . S
O76 C69 1.240 . S
O77 In65 2.326 . S
O77 C69 1.252 . S
In78 O79 2.294 . S
In78 O80 2.326 . S
In78 O84 2.266 . S
In78 O85 2.326 . S
In78 O86 2.266 . S
In78 O87 2.326 . S
In78 O89 2.294 . S
In78 O90 2.326 . S
O79 In78 2.294 . S
O79 C88 1.240 . S
O80 In78 2.326 . S
O80 C88 1.252 . S
C81 O84 1.252 . S
C81 O85 1.260 . S
C82 O89 1.240 . S
C82 O90 1.252 . S
C83 O86 1.252 . S
C83 O87 1.260 . S
O84 In78 2.266 . S
O84 C81 1.252 . S
O85 In78 2.326 . S
O85 C81 1.260 . S
O86 In78 2.266 . S
O86 C83 1.252 . S
O87 In78 2.326 . S
O87 C83 1.260 . S
C88 O79 1.240 . S
C88 O80 1.252 . S
O89 In78 2.294 . S
O89 C82 1.240 . S
O90 In78 2.326 . S
O90 C82 1.252 . S
In91 O92 2.294 . S
In91 O93 2.326 . S
In91 O97 2.266 . S
In91 O98 2.326 . S
In91 O99 2.266 . S
In91 O100 2.326 . S
In91 O102 2.294 . S
In91 O103 2.326 . S
O92 In91 2.294 . S
O92 C101 1.240 . S
O93 In91 2.326 . S
O93 C101 1.252 . S
C94 O97 1.252 . S
C94 O98 1.260 . S
C95 O102 1.240 . S
C95 O103 1.252 . S
C96 O99 1.252 . S
C96 O100 1.260 . S
O97 In91 2.266 . S
O97 C94 1.252 . S
O98 In91 2.326 . S
O98 C94 1.260 . S
O99 In91 2.266 . S
O99 C96 1.252 . S
O100 In91 2.326 . S
O100 C96 1.260 . S
C101 O92 1.240 . S
C101 O93 1.252 . S
O102 In91 2.294 . S
O102 C95 1.240 . S
O103 In91 2.326 . S
O103 C95 1.252 . S
H104 C112 0.929 . S
H105 C114 0.930 . S
H106 C116 0.930 . S
H107 C119 0.929 . S
H108 C122 0.930 . S
H109 C124 0.960 . S
H110 C124 0.960 . S
H111 C124 0.960 . S
C112 H104 0.929 . S
C112 C113 1.377 . S
C112 C114 1.384 . S
C113 C112 1.377 . S
C113 C119 1.390 . S
C114 H105 0.930 . S
C114 C112 1.384 . S
C114 C115 1.372 . S
C115 C114 1.372 . S
C115 C116 1.400 . S
C115 C120 1.490 . S
C116 H106 0.930 . S
C116 C115 1.400 . S
C116 C119 1.386 . S
H117 C133 0.930 . S
H118 C134 0.931 . S
C119 H107 0.929 . S
C119 C113 1.390 . S
C119 C116 1.386 . S
C120 C115 1.490 . S
C120 C122 1.395 1_545 S
C120 C123 1.403 1_455 S
H121 C127 0.930 . S
C122 H108 0.930 . S
C122 C120 1.395 1_565 S
C122 C125 1.403 . S
C123 C120 1.403 1_655 S
C123 C124 1.524 . S
C123 C127 1.400 . S
C124 H109 0.960 . S
C124 H110 0.960 . S
C124 H111 0.960 . S
C124 C123 1.524 . S
C125 C122 1.403 . S
C125 C126 1.392 1_455 S
C125 C129 1.495 . S
C126 C125 1.392 1_655 S
C126 C127 1.385 1_565 S
C126 C128 1.478 . S
C127 H121 0.930 . S
C127 C123 1.400 . S
C127 C126 1.385 1_545 S
C128 C126 1.478 . S
C128 C130 1.381 . S
C128 C134 1.383 . S
C129 C125 1.495 . S
C129 H135 0.959 . S
C129 H136 0.961 . S
C129 H137 0.960 . S
C130 C128 1.381 . S
C130 C131 1.394 . S
C130 H138 0.930 . S
C131 C130 1.394 . S
C131 C132 1.383 . S
C131 H139 0.929 . S
C132 C131 1.383 . S
C132 C133 1.377 . S
C133 H117 0.930 . S
C133 C132 1.377 . S
C133 C134 1.379 . S
C134 H118 0.931 . S
C134 C128 1.383 . S
C134 C133 1.379 . S
H135 C129 0.959 . S
H136 C129 0.961 . S
H137 C129 0.960 . S
H138 C130 0.930 . S
H139 C131 0.929 . S
H140 C148 0.929 . S
H141 C150 0.930 . S
H142 C152 0.930 . S
H143 C155 0.929 . S
H144 C158 0.930 . S
H145 C160 0.960 . S
H146 C160 0.960 . S
H147 C160 0.960 . S
C148 H140 0.929 . S
C148 C149 1.377 . S
C148 C150 1.384 . S
C149 C148 1.377 . S
C149 C155 1.390 . S
C150 H141 0.930 . S
C150 C148 1.384 . S
C150 C151 1.372 . S
C151 C150 1.372 . S
C151 C152 1.400 . S
C151 C156 1.490 . S
C152 H142 0.930 . S
C152 C151 1.400 . S
C152 C155 1.386 . S
H153 C169 0.930 . S
H154 C170 0.931 . S
C155 H143 0.929 . S
C155 C149 1.390 . S
C155 C152 1.386 . S
C156 C151 1.490 . S
C156 C158 1.395 1_556 S
C156 C159 1.403 1_455 S
H157 C163 0.941 . S
C158 H144 0.930 . S
C158 C156 1.395 1_554 S
C158 C161 1.403 1_565 S
C159 C156 1.403 1_655 S
C159 C160 1.524 . S
C159 C163 1.413 1_565 S
C160 H145 0.960 . S
C160 H146 0.960 . S
C160 H147 0.960 . S
C160 C159 1.524 . S
C161 C158 1.403 1_545 S
C161 C162 1.392 1_455 S
C161 C165 1.495 . S
C162 C161 1.392 1_655 S
C162 C163 1.363 1_554 S
C162 C164 1.478 . S
C163 H157 0.941 . S
C163 C159 1.413 1_545 S
C163 C162 1.363 1_556 S
C164 C162 1.478 . S
C164 C166 1.381 . S
C164 C170 1.383 . S
C165 C161 1.495 . S
C165 H171 0.959 . S
C165 H172 0.961 . S
C165 H173 0.960 . S
C166 C164 1.381 . S
C166 C167 1.394 . S
C166 H174 0.930 . S
C167 C166 1.394 . S
C167 C168 1.383 . S
C167 H175 0.929 . S
C168 C167 1.383 . S
C168 C169 1.377 . S
C169 H153 0.930 . S
C169 C168 1.377 . S
C169 C170 1.379 . S
C170 H154 0.931 . S
C170 C164 1.383 . S
C170 C169 1.379 . S
H171 C165 0.959 . S
H172 C165 0.961 . S
H173 C165 0.960 . S
H174 C166 0.930 . S
H175 C167 0.929 . S
H176 C184 0.929 . S
H177 C186 0.930 . S
H178 C188 0.930 . S
H179 C191 0.929 . S
H180 C194 0.930 . S
H181 C196 0.960 . S
H182 C196 0.960 . S
H183 C196 0.960 . S
C184 H176 0.929 . S
C184 C185 1.377 . S
C184 C186 1.384 . S
C185 C184 1.377 . S
C185 C191 1.390 . S
C186 H177 0.930 . S
C186 C184 1.384 . S
C186 C187 1.372 . S
C187 C186 1.372 . S
C187 C188 1.400 . S
C187 C192 1.490 . S
C188 H178 0.930 . S
C188 C187 1.400 . S
C188 C191 1.386 . S
H189 C205 0.930 . S
H190 C206 0.931 . S
C191 H179 0.929 . S
C191 C185 1.390 . S
C191 C188 1.386 . S
C192 C187 1.490 . S
C192 C194 1.395 . S
C192 C195 1.403 . S
H193 C199 0.930 . S
C194 H180 0.930 . S
C194 C192 1.395 . S
C194 C197 1.403 . S
C195 C192 1.403 . S
C195 C196 1.524 . S
C195 C199 1.400 . S
C196 H181 0.960 . S
C196 H182 0.960 . S
C196 H183 0.960 . S
C196 C195 1.524 . S
C197 C194 1.403 . S
C197 C198 1.392 . S
C197 C201 1.495 . S
C198 C197 1.392 . S
C198 C199 1.385 . S
C198 C200 1.478 . S
C199 H193 0.930 . S
C199 C195 1.400 . S
C199 C198 1.385 . S
C200 C198 1.478 . S
C200 C202 1.381 . S
C200 C206 1.383 . S
C201 C197 1.495 . S
C201 H207 0.959 . S
C201 H208 0.961 . S
C201 H209 0.960 . S
C202 C200 1.381 . S
C202 C203 1.394 . S
C202 H210 0.930 . S
C203 C202 1.394 . S
C203 C204 1.383 . S
C203 H211 0.929 . S
C204 C203 1.383 . S
C204 C205 1.377 . S
C205 H189 0.930 . S
C205 C204 1.377 . S
C205 C206 1.379 . S
C206 H190 0.931 . S
C206 C200 1.383 . S
C206 C205 1.379 . S
H207 C201 0.959 . S
H208 C201 0.961 . S
H209 C201 0.960 . S
H210 C202 0.930 . S
H211 C203 0.929 . S
H212 C220 0.929 . S
H213 C222 0.930 . S
H214 C224 0.930 . S
H215 C227 0.929 . S
H216 C230 0.930 . S
H217 C232 0.960 . S
H218 C232 0.960 . S
H219 C232 0.960 . S
C220 H212 0.929 . S
C220 C221 1.377 . S
C220 C222 1.384 . S
C221 C220 1.377 . S
C221 C227 1.390 . S
C222 H213 0.930 . S
C222 C220 1.384 . S
C222 C223 1.372 . S
C223 C222 1.372 . S
C223 C224 1.400 . S
C223 C228 1.490 . S
C224 H214 0.930 . S
C224 C223 1.400 . S
C224 C227 1.386 . S
H225 C241 0.930 . S
H226 C242 0.931 . S
C227 H215 0.929 . S
C227 C221 1.390 . S
C227 C224 1.386 . S
C228 C223 1.490 . S
C228 C230 1.395 . S
C228 C231 1.403 1_554 S
H229 C235 0.930 . S
C230 H216 0.930 . S
C230 C228 1.395 . S
C230 C233 1.403 . S
C231 C228 1.403 1_556 S
C231 C232 1.524 . S
C231 C235 1.400 . S
C232 H217 0.960 . S
C232 H218 0.960 . S
C232 H219 0.960 . S
C232 C231 1.524 . S
C233 C230 1.403 . S
C233 C234 1.392 1_554 S
C233 C237 1.495 . S
C234 C233 1.392 1_556 S
C234 C235 1.385 . S
C234 C236 1.478 . S
C235 H229 0.930 . S
C235 C231 1.400 . S
C235 C234 1.385 . S
C236 C234 1.478 . S
C236 C238 1.381 . S
C236 C242 1.383 . S
C237 C233 1.495 . S
C237 H243 0.959 . S
C237 H244 0.961 . S
C237 H245 0.960 . S
C238 C236 1.381 . S
C238 C239 1.394 . S
C238 H246 0.930 . S
C239 C238 1.394 . S
C239 C240 1.383 . S
C239 H247 0.929 . S
C240 C239 1.383 . S
C240 C241 1.377 . S
C241 H225 0.930 . S
C241 C240 1.377 . S
C241 C242 1.379 . S
C242 H226 0.931 . S
C242 C236 1.383 . S
C242 C241 1.379 . S
H243 C237 0.959 . S
H244 C237 0.961 . S
H245 C237 0.960 . S
H246 C238 0.930 . S
H247 C239 0.929 . S
H248 C256 0.929 . S
H249 C258 0.930 . S
H250 C260 0.930 . S
H251 C263 0.929 . S
H252 C266 0.929 1_554 S
H253 C268 0.960 . S
H254 C268 0.960 . S
H255 C268 0.960 . S
C256 H248 0.929 . S
C256 C257 1.377 . S
C256 C258 1.384 . S
C257 C256 1.377 . S
C257 C263 1.390 . S
C258 H249 0.930 . S
C258 C256 1.384 . S
C258 C259 1.372 . S
C259 C258 1.372 . S
C259 C260 1.400 . S
C259 C264 1.490 . S
C260 H250 0.930 . S
C260 C259 1.400 . S
C260 C263 1.386 . S
H261 C277 0.930 . S
H262 C278 0.931 . S
C263 H251 0.929 . S
C263 C257 1.390 . S
C263 C260 1.386 . S
C264 C259 1.490 . S
C264 C266 1.392 1_654 S
C264 C267 1.403 . S
H265 C271 0.930 . S
C266 H252 0.929 1_556 S
C266 C264 1.392 1_456 S
C266 C269 1.406 . S
C267 C264 1.403 . S
C267 C268 1.524 . S
C267 C271 1.400 1_554 S
C268 H253 0.960 . S
C268 H254 0.960 . S
C268 H255 0.960 . S
C268 C267 1.524 . S
C269 C266 1.406 . S
C269 C270 1.392 . S
C269 C273 1.495 . S
C270 C269 1.392 . S
C270 C271 1.385 1_455 S
C270 C272 1.478 . S
C271 H265 0.930 . S
C271 C267 1.400 1_556 S
C271 C270 1.385 1_655 S
C272 C270 1.478 . S
C272 C274 1.381 . S
C272 C278 1.383 . S
C273 C269 1.495 . S
C273 H279 0.959 . S
C273 H280 0.961 . S
C273 H281 0.960 . S
C274 C272 1.381 . S
C274 C275 1.394 . S
C274 H282 0.930 . S
C275 C274 1.394 . S
C275 C276 1.383 . S
C275 H283 0.929 . S
C276 C275 1.383 . S
C276 C277 1.377 . S
C277 H261 0.930 . S
C277 C276 1.377 . S
C277 C278 1.379 . S
C278 H262 0.931 . S
C278 C272 1.383 . S
C278 C277 1.379 . S
H279 C273 0.959 . S
H280 C273 0.961 . S
H281 C273 0.960 . S
H282 C274 0.930 . S
H283 C275 0.929 . S
H284 C292 0.929 . S
H285 C294 0.930 . S
H286 C296 0.930 . S
H287 C299 0.929 . S
H288 C302 0.930 . S
H289 C304 0.960 . S
H290 C304 0.960 . S
H291 C304 0.960 . S
C292 H284 0.929 . S
C292 C293 1.377 . S
C292 C294 1.384 . S
C293 C292 1.377 . S
C293 C299 1.390 . S
C294 H285 0.930 . S
C294 C292 1.384 . S
C294 C295 1.372 . S
C295 C294 1.372 . S
C295 C296 1.400 . S
C295 C300 1.490 . S
C296 H286 0.930 . S
C296 C295 1.400 . S
C296 C299 1.386 . S
H297 C313 0.930 . S
H298 C314 0.931 . S
C299 H287 0.929 . S
C299 C293 1.390 . S
C299 C296 1.386 . S
C300 C295 1.490 . S
C300 C302 1.395 1_455 S
C300 C303 1.403 . S
H301 C307 0.930 . S
C302 H288 0.930 . S
C302 C300 1.395 1_655 S
C302 C305 1.403 . S
C303 C300 1.403 . S
C303 C304 1.524 . S
C303 C307 1.400 . S
C304 H289 0.960 . S
C304 H290 0.960 . S
C304 H291 0.960 . S
C304 C303 1.524 . S
C305 C302 1.403 . S
C305 C306 1.392 . S
C305 C309 1.495 . S
C306 C305 1.392 . S
C306 C307 1.385 1_655 S
C306 C308 1.478 . S
C307 H301 0.930 . S
C307 C303 1.400 . S
C307 C306 1.385 1_455 S
C308 C306 1.478 . S
C308 C310 1.381 . S
C308 C314 1.383 . S
C309 C305 1.495 . S
C309 H315 0.959 . S
C309 H316 0.961 . S
C309 H317 0.960 . S
C310 C308 1.381 . S
C310 C311 1.394 . S
C310 H318 0.930 . S
C311 C310 1.394 . S
C311 C312 1.383 . S
C311 H319 0.929 . S
C312 C311 1.383 . S
C312 C313 1.377 . S
C313 H297 0.930 . S
C313 C312 1.377 . S
C313 C314 1.379 . S
C314 H298 0.931 . S
C314 C308 1.383 . S
C314 C313 1.379 . S
H315 C309 0.959 . S
H316 C309 0.961 . S
H317 C309 0.960 . S
H318 C310 0.930 . S
H319 C311 0.929 . S
H320 C328 0.929 . S
H321 C330 0.930 . S
H322 C332 0.930 . S
H323 C335 0.929 . S
H324 C338 0.930 . S
H325 C340 0.960 . S
H326 C340 0.960 . S
H327 C340 0.960 . S
C328 H320 0.929 . S
C328 C329 1.377 . S
C328 C330 1.384 . S
C329 C328 1.377 . S
C329 C335 1.390 . S
C330 H321 0.930 . S
C330 C328 1.384 . S
C330 C331 1.372 . S
C331 C330 1.372 . S
C331 C332 1.400 . S
C331 C336 1.490 . S
C332 H322 0.930 . S
C332 C331 1.400 . S
C332 C335 1.386 . S
H333 C349 0.930 . S
H334 C350 0.931 . S
C335 H323 0.929 . S
C335 C329 1.390 . S
C335 C332 1.386 . S
C336 C331 1.490 . S
C336 C338 1.395 1_556 S
C336 C339 1.403 1_545 S
H337 C343 0.930 . S
C338 H324 0.930 . S
C338 C336 1.395 1_554 S
C338 C341 1.403 . S
C339 C336 1.403 1_565 S
C339 C340 1.524 . S
C339 C343 1.400 1_556 S
C340 H325 0.960 . S
C340 H326 0.960 . S
C340 H327 0.960 . S
C340 C339 1.524 . S
C341 C338 1.403 . S
C341 C342 1.392 1_545 S
C341 C345 1.495 . S
C342 C341 1.392 1_565 S
C342 C343 1.385 . S
C342 C344 1.478 . S
C343 H337 0.930 . S
C343 C339 1.400 1_554 S
C343 C342 1.385 . S
C344 C342 1.478 . S
C344 C346 1.381 . S
C344 C350 1.383 . S
C345 C341 1.495 . S
C345 H351 0.959 . S
C345 H352 0.961 . S
C345 H353 0.960 . S
C346 C344 1.381 . S
C346 C347 1.394 . S
C346 H354 0.930 . S
C347 C346 1.394 . S
C347 C348 1.383 . S
C347 H355 0.929 . S
C348 C347 1.383 . S
C348 C349 1.377 . S
C349 H333 0.930 . S
C349 C348 1.377 . S
C349 C350 1.379 . S
C350 H334 0.931 . S
C350 C344 1.383 . S
C350 C349 1.379 . S
H351 C345 0.959 . S
H352 C345 0.961 . S
H353 C345 0.960 . S
H354 C346 0.930 . S
H355 C347 0.929 . S
H356 C364 0.929 . S
H357 C366 0.930 . S
H358 C368 0.930 . S
H359 C371 0.929 . S
H360 C374 0.930 . S
H361 C376 0.960 . S
H362 C376 0.960 1_565 S
H363 C376 0.960 . S
C364 H356 0.929 . S
C364 C365 1.377 . S
C364 C366 1.384 . S
C365 C364 1.377 . S
C365 C371 1.390 . S
C366 H357 0.930 . S
C366 C364 1.384 . S
C366 C367 1.372 . S
C367 C366 1.372 . S
C367 C368 1.400 . S
C367 C372 1.490 . S
C368 H358 0.930 . S
C368 C367 1.400 . S
C368 C371 1.386 . S
H369 C385 0.930 . S
H370 C386 0.931 . S
C371 H359 0.929 . S
C371 C365 1.390 . S
C371 C368 1.386 . S
C372 C367 1.490 . S
C372 C374 1.395 . S
C372 C375 1.403 1_565 S
H373 C379 0.930 . S
C374 H360 0.930 . S
C374 C372 1.395 . S
C374 C377 1.403 . S
C375 C372 1.403 1_545 S
C375 C376 1.524 . S
C375 C379 1.400 . S
C376 H361 0.960 . S
C376 H362 0.960 1_545 S
C376 H363 0.960 . S
C376 C375 1.524 . S
C377 C374 1.403 . S
C377 C378 1.392 1_565 S
C377 C381 1.495 . S
C378 C377 1.392 1_545 S
C378 C379 1.385 . S
C378 C380 1.478 . S
C379 H373 0.930 . S
C379 C375 1.400 . S
C379 C378 1.385 . S
C380 C378 1.478 . S
C380 C382 1.381 . S
C380 C386 1.383 . S
C381 C377 1.495 . S
C381 H387 0.959 . S
C381 H388 0.961 . S
C381 H389 0.960 . S
C382 C380 1.381 . S
C382 C383 1.394 . S
C382 H390 0.930 . S
C383 C382 1.394 . S
C383 C384 1.383 . S
C383 H391 0.929 . S
C384 C383 1.383 . S
C384 C385 1.377 . S
C385 H369 0.930 . S
C385 C384 1.377 . S
C385 C386 1.379 . S
C386 H370 0.931 . S
C386 C380 1.383 . S
C386 C385 1.379 . S
H387 C381 0.959 . S
H388 C381 0.961 . S
H389 C381 0.960 . S
H390 C382 0.930 . S
H391 C383 0.929 . S
H392 C400 0.929 . S
H393 C402 0.930 . S
H394 C404 0.930 . S
H395 C407 0.929 . S
H396 C410 0.930 . S
H397 C412 0.960 . S
H398 C412 0.960 . S
H399 C412 0.960 . S
C400 H392 0.929 . S
C400 C401 1.377 . S
C400 C402 1.384 . S
C401 C400 1.377 . S
C401 C407 1.390 . S
C402 H393 0.930 . S
C402 C400 1.384 . S
C402 C403 1.372 . S
C403 C402 1.372 . S
C403 C404 1.400 . S
C403 C408 1.490 . S
C404 H394 0.930 . S
C404 C403 1.400 . S
C404 C407 1.386 . S
H405 C421 0.930 . S
H406 C422 0.931 . S
C407 H395 0.929 . S
C407 C401 1.390 . S
C407 C404 1.386 . S
C408 C403 1.490 . S
C408 C410 1.395 . S
C408 C411 1.403 . S
H409 C415 0.930 . S
C410 H396 0.930 . S
C410 C408 1.395 . S
C410 C413 1.403 . S
C411 C408 1.403 . S
C411 C412 1.524 . S
C411 C415 1.400 . S
C412 H397 0.960 . S
C412 H398 0.960 . S
C412 H399 0.960 . S
C412 C411 1.524 . S
C413 C410 1.403 . S
C413 C414 1.392 . S
C413 C417 1.495 . S
C414 C413 1.392 . S
C414 C415 1.385 . S
C414 C416 1.478 . S
C415 H409 0.930 . S
C415 C411 1.400 . S
C415 C414 1.385 . S
C416 C414 1.478 . S
C416 C418 1.381 . S
C416 C422 1.383 . S
C417 C413 1.495 . S
C417 H423 0.959 . S
C417 H424 0.961 . S
C417 H425 0.960 . S
C418 C416 1.381 . S
C418 C419 1.394 . S
C418 H426 0.930 . S
C419 C418 1.394 . S
C419 C420 1.383 . S
C419 H427 0.929 . S
C420 C419 1.383 . S
C420 C421 1.377 . S
C421 H405 0.930 . S
C421 C420 1.377 . S
C421 C422 1.379 . S
C422 H406 0.931 . S
C422 C416 1.383 . S
C422 C421 1.379 . S
H423 C417 0.959 . S
H424 C417 0.961 . S
H425 C417 0.960 . S
H426 C418 0.930 . S
H427 C419 0.929 . S
H428 C436 0.929 . S
H429 C438 0.930 . S
H430 C440 0.930 . S
H431 C443 0.929 . S
H432 C446 0.930 . S
H433 C448 0.960 . S
H434 C448 0.960 . S
H435 C448 0.960 . S
C436 H428 0.929 . S
C436 C437 1.377 . S
C436 C438 1.384 . S
C437 C436 1.377 . S
C437 C443 1.390 . S
C438 H429 0.930 . S
C438 C436 1.384 . S
C438 C439 1.372 . S
C439 C438 1.372 . S
C439 C440 1.400 . S
C439 C444 1.490 . S
C440 H430 0.930 . S
C440 C439 1.400 . S
C440 C443 1.386 . S
H441 C457 0.930 . S
H442 C458 0.931 . S
C443 H431 0.929 . S
C443 C437 1.390 . S
C443 C440 1.386 . S
C444 C439 1.490 . S
C444 C446 1.395 . S
C444 C447 1.403 . S
H445 C451 0.930 . S
C446 H432 0.930 . S
C446 C444 1.395 . S
C446 C449 1.403 1_556 S
C447 C444 1.403 . S
C447 C448 1.524 . S
C447 C451 1.400 1_556 S
C448 H433 0.960 . S
C448 H434 0.960 . S
C448 H435 0.960 . S
C448 C447 1.524 . S
C449 C446 1.403 1_554 S
C449 C450 1.392 . S
C449 C453 1.495 . S
C450 C449 1.392 . S
C450 C451 1.385 . S
C450 C452 1.478 . S
C451 H445 0.930 . S
C451 C447 1.400 1_554 S
C451 C450 1.385 . S
C452 C450 1.478 . S
C452 C454 1.381 . S
C452 C458 1.383 . S
C453 C449 1.495 . S
C453 H459 0.959 . S
C453 H460 0.961 . S
C453 H461 0.960 . S
C454 C452 1.381 . S
C454 C455 1.394 . S
C454 H462 0.930 . S
C455 C454 1.394 . S
C455 C456 1.383 . S
C455 H463 0.929 . S
C456 C455 1.383 . S
C456 C457 1.377 . S
C457 H441 0.930 . S
C457 C456 1.377 . S
C457 C458 1.379 . S
C458 H442 0.931 . S
C458 C452 1.383 . S
C458 C457 1.379 . S
H459 C453 0.959 . S
H460 C453 0.961 . S
H461 C453 0.960 . S
H462 C454 0.930 . S
H463 C455 0.929 . S
H464 C472 0.929 . S
H465 C474 0.930 . S
H466 C476 0.930 . S
H467 C479 0.929 . S
H468 C482 0.930 . S
H469 C484 0.960 . S
H470 C484 0.960 . S
H471 C484 0.960 . S
C472 H464 0.929 . S
C472 C473 1.377 . S
C472 C474 1.384 . S
C473 C472 1.377 . S
C473 C479 1.390 . S
C474 H465 0.930 . S
C474 C472 1.384 . S
C474 C475 1.372 . S
C475 C474 1.372 . S
C475 C476 1.400 . S
C475 C480 1.490 . S
C476 H466 0.930 . S
C476 C475 1.400 . S
C476 C479 1.386 . S
H477 C493 0.930 . S
H478 C494 0.931 . S
C479 H467 0.929 . S
C479 C473 1.390 . S
C479 C476 1.386 . S
C480 C475 1.490 . S
C480 C482 1.395 . S
C480 C483 1.403 . S
H481 C487 0.930 . S
C482 H468 0.930 . S
C482 C480 1.395 . S
C482 C485 1.403 . S
C483 C480 1.403 . S
C483 C484 1.524 . S
C483 C487 1.400 . S
C484 H469 0.960 . S
C484 H470 0.960 . S
C484 H471 0.960 . S
C484 C483 1.524 . S
C485 C482 1.403 . S
C485 C486 1.392 . S
C485 C489 1.495 . S
C486 C485 1.392 . S
C486 C487 1.385 . S
C486 C488 1.478 . S
C487 H481 0.930 . S
C487 C483 1.400 . S
C487 C486 1.385 . S
C488 C486 1.478 . S
C488 C490 1.381 . S
C488 C494 1.383 . S
C489 C485 1.495 . S
C489 H495 0.959 . S
C489 H496 0.961 . S
C489 H497 0.960 . S
C490 C488 1.381 . S
C490 C491 1.394 . S
C490 H498 0.930 . S
C491 C490 1.394 . S
C491 C492 1.383 . S
C491 H499 0.929 . S
C492 C491 1.383 . S
C492 C493 1.377 . S
C493 H477 0.930 . S
C493 C492 1.377 . S
C493 C494 1.379 . S
C494 H478 0.931 . S
C494 C488 1.383 . S
C494 C493 1.379 . S
H495 C489 0.959 . S
H496 C489 0.961 . S
H497 C489 0.960 . S
H498 C490 0.930 . S
H499 C491 0.929 . S
H500 C508 0.929 . S
H501 C510 0.930 . S
H502 C512 0.930 . S
H503 C515 0.929 . S
H504 C518 0.930 . S
H505 C520 0.960 . S
H506 C520 0.960 . S
H507 C520 0.960 . S
C508 H500 0.929 . S
C508 C509 1.377 . S
C508 C510 1.384 . S
C509 C508 1.377 . S
C509 C515 1.390 . S
C510 H501 0.930 . S
C510 C508 1.384 . S
C510 C511 1.372 . S
C511 C510 1.372 . S
C511 C512 1.400 . S
C511 C516 1.490 . S
C512 H502 0.930 . S
C512 C511 1.400 . S
C512 C515 1.386 . S
H513 C529 0.930 . S
H514 C530 0.931 . S
C515 H503 0.929 . S
C515 C509 1.390 . S
C515 C512 1.386 . S
C516 C511 1.490 . S
C516 C518 1.395 . S
C516 C519 1.403 . S
H517 C523 0.930 . S
C518 H504 0.930 . S
C518 C516 1.395 . S
C518 C521 1.403 1_554 S
C519 C516 1.403 . S
C519 C520 1.524 . S
C519 C523 1.400 1_554 S
C520 H505 0.960 . S
C520 H506 0.960 . S
C520 H507 0.960 . S
C520 C519 1.524 . S
C521 C518 1.403 1_556 S
C521 C522 1.392 . S
C521 C525 1.495 . S
C522 C521 1.392 . S
C522 C523 1.385 . S
C522 C524 1.478 . S
C523 H517 0.930 . S
C523 C519 1.400 1_556 S
C523 C522 1.385 . S
C524 C522 1.478 . S
C524 C526 1.381 . S
C524 C530 1.383 . S
C525 C521 1.495 . S
C525 H531 0.959 . S
C525 H532 0.961 . S
C525 H533 0.960 . S
C526 C524 1.381 . S
C526 C527 1.394 . S
C526 H534 0.930 . S
C527 C526 1.394 . S
C527 C528 1.383 . S
C527 H535 0.929 . S
C528 C527 1.383 . S
C528 C529 1.377 . S
C529 H513 0.930 . S
C529 C528 1.377 . S
C529 C530 1.379 . S
C530 H514 0.931 . S
C530 C524 1.383 . S
C530 C529 1.379 . S
H531 C525 0.959 . S
H532 C525 0.961 . S
H533 C525 0.960 . S
H534 C526 0.930 . S
H535 C527 0.929 . S
H536 C544 0.929 . S
H537 C546 0.930 . S
H538 C548 0.930 . S
H539 C551 0.929 . S
H540 C554 0.930 . S
H541 C556 0.960 . S
H542 C556 0.960 . S
H543 C556 0.960 . S
C544 H536 0.929 . S
C544 C545 1.377 . S
C544 C546 1.384 . S
C545 C544 1.377 . S
C545 C551 1.390 . S
C546 H537 0.930 . S
C546 C544 1.384 . S
C546 C547 1.372 . S
C547 C546 1.372 . S
C547 C548 1.400 . S
C547 C552 1.490 . S
C548 H538 0.930 . S
C548 C547 1.400 . S
C548 C551 1.386 . S
H549 C565 0.930 . S
H550 C566 0.931 . S
C551 H539 0.929 . S
C551 C545 1.390 . S
C551 C548 1.386 . S
C552 C547 1.490 . S
C552 C554 1.395 . S
C552 C555 1.403 . S
H553 C559 0.930 . S
C554 H540 0.930 . S
C554 C552 1.395 . S
C554 C557 1.403 . S
C555 C552 1.403 . S
C555 C556 1.524 . S
C555 C559 1.400 . S
C556 H541 0.960 . S
C556 H542 0.960 . S
C556 H543 0.960 . S
C556 C555 1.524 . S
C557 C554 1.403 . S
C557 C558 1.392 . S
C557 C561 1.495 . S
C558 C557 1.392 . S
C558 C559 1.385 . S
C558 C560 1.478 . S
C559 H553 0.930 . S
C559 C555 1.400 . S
C559 C558 1.385 . S
C560 C558 1.478 . S
C560 C562 1.381 . S
C560 C566 1.383 . S
C561 C557 1.495 . S
C561 H567 0.959 . S
C561 H568 0.961 . S
C561 H569 0.960 . S
C562 C560 1.381 . S
C562 C563 1.394 . S
C562 H570 0.930 . S
C563 C562 1.394 . S
C563 C564 1.383 . S
C563 H571 0.929 . S
C564 C563 1.383 . S
C564 C565 1.377 . S
C565 H549 0.930 . S
C565 C564 1.377 . S
C565 C566 1.379 . S
C566 H550 0.931 . S
C566 C560 1.383 . S
C566 C565 1.379 . S
H567 C561 0.959 . S
H568 C561 0.961 . S
H569 C561 0.960 . S
H570 C562 0.930 . S
H571 C563 0.929 . S
H572 C580 0.929 . S
H573 C582 0.930 . S
H574 C584 0.930 . S
H575 C587 0.929 . S
H576 C590 0.930 . S
H577 C592 0.960 . S
H578 C592 0.960 . S
H579 C592 0.960 . S
C580 H572 0.929 . S
C580 C581 1.377 . S
C580 C582 1.384 . S
C581 C580 1.377 . S
C581 C587 1.390 . S
C582 H573 0.930 . S
C582 C580 1.384 . S
C582 C583 1.372 . S
C583 C582 1.372 . S
C583 C584 1.400 . S
C583 C588 1.490 . S
C584 H574 0.930 . S
C584 C583 1.400 . S
C584 C587 1.386 . S
H585 C601 0.930 . S
H586 C602 0.931 . S
C587 H575 0.929 . S
C587 C581 1.390 . S
C587 C584 1.386 . S
C588 C583 1.490 . S
C588 C590 1.395 . S
C588 C591 1.403 . S
H589 C595 0.930 . S
C590 H576 0.930 . S
C590 C588 1.395 . S
C590 C593 1.403 . S
C591 C588 1.403 . S
C591 C592 1.524 . S
C591 C595 1.400 . S
C592 H577 0.960 . S
C592 H578 0.960 . S
C592 H579 0.960 . S
C592 C591 1.524 . S
C593 C590 1.403 . S
C593 C594 1.392 . S
C593 C597 1.495 . S
C594 C593 1.392 . S
C594 C595 1.385 . S
C594 C596 1.478 . S
C595 H589 0.930 . S
C595 C591 1.400 . S
C595 C594 1.385 . S
C596 C594 1.478 . S
C596 C598 1.381 . S
C596 C602 1.383 . S
C597 C593 1.495 . S
C597 H603 0.959 . S
C597 H604 0.961 . S
C597 H605 0.960 . S
C598 C596 1.381 . S
C598 C599 1.394 . S
C598 H606 0.930 . S
C599 C598 1.394 . S
C599 C600 1.383 . S
C599 H607 0.929 . S
C600 C599 1.383 . S
C600 C601 1.377 . S
C601 H585 0.930 . S
C601 C600 1.377 . S
C601 C602 1.379 . S
C602 H586 0.931 . S
C602 C596 1.383 . S
C602 C601 1.379 . S
H603 C597 0.959 . S
H604 C597 0.961 . S
H605 C597 0.960 . S
H606 C598 0.930 . S
H607 C599 0.929 . S
H608 C616 0.929 . S
H609 C618 0.930 . S
H610 C620 0.930 . S
H611 C623 0.929 . S
H612 C626 0.930 . S
H613 C628 0.960 . S
H614 C628 0.960 . S
H615 C628 0.960 . S
C616 H608 0.929 . S
C616 C617 1.377 . S
C616 C618 1.384 . S
C617 C616 1.377 . S
C617 C623 1.390 . S
C618 H609 0.930 . S
C618 C616 1.384 . S
C618 C619 1.372 . S
C619 C618 1.372 . S
C619 C620 1.400 . S
C619 C624 1.490 . S
C620 H610 0.930 . S
C620 C619 1.400 . S
C620 C623 1.386 . S
H621 C637 0.930 . S
H622 C638 0.931 . S
C623 H611 0.929 . S
C623 C617 1.390 . S
C623 C620 1.386 . S
C624 C619 1.490 . S
C624 C626 1.395 . S
C624 C627 1.403 . S
H625 C631 0.930 . S
C626 H612 0.930 . S
C626 C624 1.395 . S
C626 C629 1.403 1_455 S
C627 C624 1.403 . S
C627 C628 1.524 . S
C627 C631 1.400 1_455 S
C628 H613 0.960 . S
C628 H614 0.960 . S
C628 H615 0.960 . S
C628 C627 1.524 . S
C629 C626 1.403 1_655 S
C629 C630 1.392 . S
C629 C633 1.495 . S
C630 C629 1.392 . S
C630 C631 1.385 . S
C630 C632 1.478 . S
C631 H625 0.930 . S
C631 C627 1.400 1_655 S
C631 C630 1.385 . S
C632 C630 1.478 . S
C632 C634 1.381 . S
C632 C638 1.383 . S
C633 C629 1.495 . S
C633 H639 0.959 . S
C633 H640 0.961 . S
C633 H641 0.960 . S
C634 C632 1.381 . S
C634 C635 1.394 . S
C634 H642 0.930 . S
C635 C634 1.394 . S
C635 C636 1.383 . S
C635 H643 0.929 . S
C636 C635 1.383 . S
C636 C637 1.377 . S
C637 H621 0.930 . S
C637 C636 1.377 . S
C637 C638 1.379 . S
C638 H622 0.931 . S
C638 C632 1.383 . S
C638 C637 1.379 . S
H639 C633 0.959 . S
H640 C633 0.961 . S
H641 C633 0.960 . S
H642 C634 0.930 . S
H643 C635 0.929 . S
H644 C652 0.929 . S
H645 C654 0.930 . S
H646 C656 0.930 . S
H647 C659 0.929 . S
H648 C662 0.930 . S
H649 C664 0.960 . S
H650 C664 0.960 . S
H651 C664 0.960 . S
C652 H644 0.929 . S
C652 C653 1.377 . S
C652 C654 1.384 . S
C653 C652 1.377 . S
C653 C659 1.390 . S
C654 H645 0.930 . S
C654 C652 1.384 . S
C654 C655 1.372 . S
C655 C654 1.372 . S
C655 C656 1.400 . S
C655 C660 1.490 . S
C656 H646 0.930 . S
C656 C655 1.400 . S
C656 C659 1.386 . S
H657 C673 0.930 . S
H658 C674 0.931 . S
C659 H647 0.929 . S
C659 C653 1.390 . S
C659 C656 1.386 . S
C660 C655 1.490 . S
C660 C662 1.395 . S
C660 C663 1.403 . S
H661 C667 0.930 . S
C662 H648 0.930 . S
C662 C660 1.395 . S
C662 C665 1.403 1_455 S
C663 C660 1.403 . S
C663 C664 1.524 . S
C663 C667 1.400 1_455 S
C664 H649 0.960 . S
C664 H650 0.960 . S
C664 H651 0.960 . S
C664 C663 1.524 . S
C665 C662 1.403 1_655 S
C665 C666 1.392 . S
C665 C669 1.495 . S
C666 C665 1.392 . S
C666 C667 1.385 . S
C666 C668 1.478 . S
C667 H661 0.930 . S
C667 C663 1.400 1_655 S
C667 C666 1.385 . S
C668 C666 1.478 . S
C668 C670 1.381 . S
C668 C674 1.383 . S
C669 C665 1.495 . S
C669 H675 0.959 . S
C669 H676 0.961 . S
C669 H677 0.960 . S
C670 C668 1.381 . S
C670 C671 1.394 . S
C670 H678 0.930 . S
C671 C670 1.394 . S
C671 C672 1.383 . S
C671 H679 0.929 . S
C672 C671 1.383 . S
C672 C673 1.377 . S
C673 H657 0.930 . S
C673 C672 1.377 . S
C673 C674 1.379 . S
C674 H658 0.931 . S
C674 C668 1.383 . S
C674 C673 1.379 . S
H675 C669 0.959 . S
H676 C669 0.961 . S
H677 C669 0.960 . S
H678 C670 0.930 . S
H679 C671 0.929 . S
C113 C4 1.936 . S
C132 C30 1.932 . S
C149 C49 1.935 . S
C168 C17 1.938 . S
C185 C82 1.933 . S
C204 C56 1.936 . S
C221 C69 1.934 . S
C240 C95 1.922 . S
C257 C23 1.140 . S
C276 C43 1.148 . S
C293 C10 1.144 . S
C312 C36 1.156 . S
C329 C101 1.145 . S
C348 C75 1.150 . S
C365 C62 1.139 . S
C384 C88 1.134 . S
C401 C68 1.525 . S
C420 C44 1.519 . S
C437 C29 1.526 . S
C456 C55 1.525 . S
C473 C16 1.528 . S
C492 C94 1.529 . S
C509 C3 1.526 . S
C528 C81 1.517 . S
C545 C5 1.553 . S
C564 C18 1.554 . S
C581 C31 1.554 . S
C600 C42 1.542 . S
C617 C70 1.551 . S
C636 C57 1.552 . S
C653 C83 1.552 . S
C672 C96 1.546 . S
