# Generated by pormake.
# Topology uog, (4)-cn, num edge types: 1
# Building blocks:
#     Node 0, Type 0, BuildingBlock: NAWXER_clean_sbu_0, # of connection points: 4
#     Node 1, Type 0, BuildingBlock: NAWXER_clean_sbu_0, # of connection points: 4
#     Node 2, Type 0, BuildingBlock: NAWXER_clean_sbu_0, # of connection points: 4
#     Node 3, Type 0, BuildingBlock: NAWXER_clean_sbu_0, # of connection points: 4
#     Node 4, Type 0, BuildingBlock: NAWXER_clean_sbu_0, # of connection points: 4
#     Node 5, Type 0, BuildingBlock: NAWXER_clean_sbu_0, # of connection points: 4
#     Edge 6, Type (0, 0), BuildingBlock: CIFDUS_clean_linker_0, # of connection points: 2
#     Edge 7, Type (0, 0), BuildingBlock: CIFDUS_clean_linker_0, # of connection points: 2
#     Edge 8, Type (0, 0), BuildingBlock: CIFDUS_clean_linker_0, # of connection points: 2
#     Edge 9, Type (0, 0), BuildingBlock: CIFDUS_clean_linker_0, # of connection points: 2
#     Edge 10, Type (0, 0), BuildingBlock: CIFDUS_clean_linker_0, # of connection points: 2
#     Edge 11, Type (0, 0), BuildingBlock: CIFDUS_clean_linker_0, # of connection points: 2
#     Edge 12, Type (0, 0), BuildingBlock: CIFDUS_clean_linker_0, # of connection points: 2
#     Edge 13, Type (0, 0), BuildingBlock: CIFDUS_clean_linker_0, # of connection points: 2
#     Edge 14, Type (0, 0), BuildingBlock: CIFDUS_clean_linker_0, # of connection points: 2
#     Edge 15, Type (0, 0), BuildingBlock: CIFDUS_clean_linker_0, # of connection points: 2
#     Edge 16, Type (0, 0), BuildingBlock: CIFDUS_clean_linker_0, # of connection points: 2
#     Edge 17, Type (0, 0), BuildingBlock: CIFDUS_clean_linker_0, # of connection points: 2
# Relax obj value: 0.013
# Max RMSD: 0.240
# Mean RMSD: 0.240
data_MOF--net-uog--node1-NAWXER_clean_sbu_0--edge1-CIFDUS_clean_linker_0
_symmetry_space_group_name_H-M    P1
_symmetry_Int_Tables_number       1
_symmetry_cell_setting            triclinic
loop_
_symmetry_equiv_pos_as_xyz
'x, y, z'
_cell_length_a     25.374432
_cell_length_b     25.61673
_cell_length_c     37.798978
_cell_angle_alpha  89.844239
_cell_angle_beta   89.761398
_cell_angle_gamma 120.3565
loop_
_atom_site_label
_atom_site_type_symbol
_atom_site_fract_x
_atom_site_fract_y
_atom_site_fract_z
_atom_type_partial_charge
C0 C 0.51635 0.34078 0.17084 0.0
C1 C 0.5146 0.15143 0.18037 0.0
O2 O 0.47185 0.28687 0.17122 0.0
Zn3 Zn 0.51806 0.24728 0.1755 0.0
O4 O 0.57108 0.35042 0.17305 0.0
Zn5 Zn 0.61266 0.29451 0.1782 0.0
O6 O 0.66366 0.31384 0.13751 0.0
O7 O 0.56544 0.26547 0.12482 0.0
O8 O 0.56959 0.19645 0.18132 0.0
O9 O 0.47063 0.16122 0.17711 0.0
O10 O 0.55559 0.27056 0.22869 0.0
O11 O 0.65569 0.32178 0.22146 0.0
C12 C 0.62152 0.29102 0.11473 0.0
C13 C 0.60952 0.29985 0.24182 0.0
C14 C 0.3249 0.62869 0.57639 0.0
C15 C 0.35035 0.64495 0.44838 0.0
O16 O 0.3459 0.67529 0.55674 0.0
Zn17 Zn 0.33529 0.63524 0.51226 0.0
O18 O 0.30504 0.57652 0.56227 0.0
Zn19 Zn 0.29528 0.54152 0.50889 0.0
O20 O 0.34184 0.50178 0.51073 0.0
O21 O 0.39801 0.60096 0.51546 0.0
O22 O 0.32365 0.58946 0.4586 0.0
O23 O 0.36501 0.68637 0.47109 0.0
O24 O 0.23674 0.5862 0.50634 0.0
O25 O 0.20902 0.48976 0.50389 0.0
C26 C 0.39387 0.54887 0.51436 0.0
C27 C 0.19459 0.53047 0.50364 0.0
C28 C 0.66449 0.3103 0.90518 0.0
C29 C 0.69251 0.33447 0.77847 0.0
O30 O 0.64311 0.33209 0.88315 0.0
Zn31 Zn 0.67971 0.32125 0.84189 0.0
O32 O 0.6996 0.29097 0.89431 0.0
Zn33 Zn 0.73486 0.28273 0.84334 0.0
O34 O 0.82146 0.33024 0.84894 0.0
O35 O 0.77666 0.38484 0.84836 0.0
O36 O 0.72109 0.30915 0.79107 0.0
O37 O 0.66215 0.34854 0.79905 0.0
O38 O 0.63168 0.2234 0.83711 0.0
O39 O 0.70224 0.19746 0.83916 0.0
C40 C 0.82545 0.38158 0.85037 0.0
C41 C 0.64645 0.18226 0.83669 0.0
C42 C 0.3969 0.67826 0.23859 0.0
C43 C 0.41393 0.70354 0.11078 0.0
O44 O 0.35544 0.659 0.21535 0.0
Zn45 Zn 0.40762 0.69188 0.17475 0.0
O46 O 0.4532 0.70923 0.22897 0.0
Zn47 Zn 0.50218 0.73949 0.17872 0.0
O48 O 0.54837 0.82509 0.18375 0.0
O49 O 0.44921 0.78939 0.18055 0.0
O50 O 0.46707 0.72787 0.12495 0.0
O51 O 0.36674 0.67773 0.13036 0.0
O52 O 0.45077 0.63714 0.17203 0.0
O53 O 0.54952 0.70075 0.17746 0.0
C54 C 0.50386 0.83446 0.18352 0.0
C55 C 0.50567 0.64707 0.17361 0.0
C56 C 0.65994 0.46862 0.51381 0.0
C57 C 0.86077 0.48992 0.50386 0.0
O58 O 0.7122 0.51618 0.51376 0.0
Zn59 Zn 0.75941 0.47747 0.50891 0.0
O60 O 0.65598 0.41676 0.51114 0.0
Zn61 Zn 0.71953 0.38381 0.50538 0.0
O62 O 0.704 0.33358 0.54606 0.0
O63 O 0.74351 0.43019 0.55902 0.0
O64 O 0.81859 0.43401 0.5025 0.0
O65 O 0.84605 0.53013 0.50743 0.0
O66 O 0.73752 0.44126 0.45573 0.0
O67 O 0.69484 0.3422 0.46139 0.0
C68 C 0.72243 0.37513 0.56897 0.0
C69 C 0.71214 0.3884 0.44184 0.0
C70 C 0.35359 0.84955 0.84195 0.0
C71 C 0.17369 0.64924 0.84953 0.0
O72 O 0.29774 0.83426 0.84456 0.0
Zn73 Zn 0.26461 0.74873 0.84592 0.0
O74 O 0.36831 0.80836 0.84152 0.0
Zn75 Zn 0.32024 0.71016 0.84449 0.0
O76 O 0.34126 0.68717 0.80045 0.0
O77 O 0.28503 0.72973 0.79347 0.0
O78 O 0.22273 0.64624 0.84836 0.0
O79 O 0.17759 0.70058 0.84857 0.0
O80 O 0.29257 0.73363 0.8971 0.0
O81 O 0.35238 0.69581 0.88729 0.0
C82 C 0.31438 0.70573 0.78012 0.0
C83 C 0.32639 0.71356 0.90892 0.0
H84 H 0.59727 0.11417 0.18752 0.0
H85 H 0.404 0.04706 0.17749 0.0
H86 H 0.38346 0.94326 0.17866 0.0
H87 H 0.42039 0.87139 0.18089 0.0
H88 H 0.61374 0.93858 0.19059 0.0
H89 H 0.63394 0.04225 0.19132 0.0
C90 C 0.55063 0.07688 0.1857 0.0
C91 C 0.50236 0.08853 0.1823 0.0
C92 C 0.53903 0.01717 0.18629 0.0
C93 C 0.44215 0.03953 0.18007 0.0
C94 C 0.43027 0.98005 0.18071 0.0
C95 C 0.46693 0.90866 0.18333 0.0
C96 C 0.5154 0.89709 0.18556 0.0
C97 C 0.47838 0.96833 0.18358 0.0
C98 C 0.57546 0.94605 0.18874 0.0
C99 C 0.58715 1.00546 0.18914 0.0
H100 H 0.40043 0.44605 0.51362 0.0
H101 H 0.51238 0.64052 0.51988 0.0
H102 H 0.60424 0.63259 0.52135 0.0
H103 H 0.65295 0.57085 0.5192 0.0
H104 H 0.5411 0.37642 0.51257 0.0
H105 H 0.44905 0.38411 0.51306 0.0
C106 C 0.44488 0.48676 0.51542 0.0
C107 C 0.44941 0.54381 0.51651 0.0
C108 C 0.49758 0.48193 0.51615 0.0
C109 C 0.50746 0.59601 0.51894 0.0
C110 C 0.56008 0.59155 0.51976 0.0
C111 C 0.60846 0.53007 0.51801 0.0
C112 C 0.60406 0.47315 0.51574 0.0
C113 C 0.5557 0.53479 0.51813 0.0
C114 C 0.54594 0.42084 0.51429 0.0
C115 C 0.49322 0.42518 0.51452 0.0
H116 H 0.93679 0.39013 0.85197 0.0
H117 H 0.85055 0.49855 0.85386 0.0
H118 H 0.95059 0.59066 0.85463 0.0
H119 H 0.06235 0.64048 0.85291 0.0
H120 H 0.14861 0.53211 0.85043 0.0
H121 H 0.04859 0.43994 0.85179 0.0
C122 C 0.93976 0.43386 0.85274 0.0
C123 C 0.88611 0.43731 0.85277 0.0
C124 C 0.99744 0.4867 0.85294 0.0
C125 C 0.891 0.49446 0.85378 0.0
C126 C 0.94823 0.54722 0.85416 0.0
C127 C 0.05938 0.59674 0.85276 0.0
C128 C 0.11303 0.59334 0.85144 0.0
C129 C 1.00173 0.54388 0.85344 0.0
C130 C 0.10816 0.53617 0.85137 0.0
C131 C 0.05094 0.48337 0.85214 0.0
H132 H 0.14739 0.60527 0.50484 0.0
H133 H 0.09522 0.41704 0.49725 0.0
H134 H 0.98776 0.38809 0.49568 0.0
H135 H 0.90824 0.41573 0.49811 0.0
H136 H 0.96036 0.6039 0.50614 0.0
H137 H 0.06794 0.6331 0.50578 0.0
C138 C 0.11257 0.55792 0.50269 0.0
C139 C 0.12952 0.51348 0.50127 0.0
C140 C 0.05069 0.54144 0.50196 0.0
C141 C 0.08364 0.4523 0.49846 0.0
C142 C 0.02206 0.43562 0.49759 0.0
C143 C 0.94309 0.46316 0.49964 0.0
C144 C 0.92606 0.50745 0.50225 0.0
C145 C 1.00501 0.47975 0.49957 0.0
C146 C 0.97199 0.56874 0.50418 0.0
C147 C 0.03364 0.58556 0.504 0.0
H148 H 0.47676 0.898 0.83643 0.0
H149 H 0.3373 0.9471 0.84236 0.0
H150 H 0.41529 0.05401 0.83988 0.0
H151 H 0.52311 0.13377 0.83759 0.0
H152 H 0.66273 0.08485 0.83232 0.0
H153 H 0.58459 0.97784 0.83279 0.0
C154 C 0.46336 0.93203 0.8371 0.0
C155 C 0.4012 0.91439 0.8397 0.0
C156 C 0.50848 0.99359 0.83577 0.0
C157 C 0.38477 0.95925 0.84046 0.0
C158 C 0.42936 0.0205 0.83903 0.0
C159 C 0.5365 0.09976 0.83632 0.0
C160 C 0.59875 0.11746 0.83499 0.0
C161 C 0.49136 0.03821 0.83688 0.0
C162 C 0.61518 0.07263 0.83343 0.0
C163 C 0.57051 0.01134 0.83374 0.0
H164 H 0.42294 0.52703 0.16682 0.0
H165 H 0.6163 0.65342 0.17625 0.0
H166 H 0.63682 0.57016 0.17516 0.0
H167 H 0.59985 0.46129 0.17315 0.0
H168 H 0.4064 0.33492 0.16422 0.0
H169 H 0.3862 0.41838 0.16338 0.0
C170 C 0.4696 0.53643 0.16852 0.0
C171 C 0.5179 0.59642 0.17172 0.0
C172 C 0.48117 0.48832 0.16802 0.0
C173 C 0.57813 0.6077 0.17383 0.0
C174 C 0.58999 0.56009 0.17323 0.0
C175 C 0.55329 0.45198 0.17086 0.0
C176 C 0.50479 0.39187 0.16886 0.0
C177 C 0.54185 0.50019 0.17057 0.0
C178 C 0.4447 0.38071 0.1659 0.0
C179 C 0.43301 0.42843 0.16543 0.0
H180 H 0.72792 0.3058 0.96158 0.0
H181 H 0.56316 0.30532 0.93324 0.0
H182 H 0.5339 0.29686 0.99555 0.0
H183 H 0.55553 0.29036 0.05825 0.0
H184 H 0.72372 0.29801 0.08675 0.0
H185 H 0.75121 0.30279 0.02433 0.0
C186 C 0.68557 0.30369 0.9691 0.0
C187 C 0.64767 0.30596 0.94293 0.0
C188 C 0.66965 0.30012 1.005 0.0
C189 C 0.59325 0.3039 0.95298 0.0
C190 C 0.57637 0.29889 0.98857 0.0
C191 C 0.59802 0.29281 0.05071 0.0
C192 C 0.63739 0.29354 0.07695 0.0
C193 C 0.61425 0.29702 0.01482 0.0
C194 C 0.69275 0.29756 0.06695 0.0
C195 C 0.70846 0.30019 0.03129 0.0
H196 H 0.45661 0.74641 0.29582 0.0
H197 H 0.29896 0.57745 0.26574 0.0
H198 H 0.27105 0.55145 0.32796 0.0
H199 H 0.29177 0.57648 0.39111 0.0
H200 H 0.44454 0.74906 0.42108 0.0
H201 H 0.47389 0.77408 0.35893 0.0
C202 C 0.41625 0.7039 0.30299 0.0
C203 C 0.38014 0.6637 0.27632 0.0
C204 C 0.39952 0.68999 0.33881 0.0
C205 C 0.32742 0.60917 0.28585 0.0
C206 C 0.31149 0.59422 0.3214 0.0
C207 C 0.33144 0.61955 0.38397 0.0
C208 C 0.36613 0.6607 0.41061 0.0
C209 C 0.34722 0.63423 0.34812 0.0
C210 C 0.41697 0.71669 0.40101 0.0
C211 C 0.43391 0.73095 0.36549 0.0
H212 H 0.71187 0.27746 0.7238 0.0
H213 H 0.68227 0.42514 0.7482 0.0
H214 H 0.69138 0.45232 0.68559 0.0
H215 H 0.70743 0.434 0.62385 0.0
H216 H 0.72906 0.28175 0.5987 0.0
H217 H 0.72347 0.25641 0.66158 0.0
C218 C 0.70752 0.31559 0.71532 0.0
C219 C 0.69667 0.34939 0.74048 0.0
C220 C 0.71141 0.33014 0.6792 0.0
C221 C 0.69036 0.39827 0.72923 0.0
C222 C 0.69576 0.41398 0.69348 0.0
C223 C 0.71118 0.39546 0.63222 0.0
C224 C 0.7191 0.36004 0.60686 0.0
C225 C 0.7063 0.38026 0.66825 0.0
C226 C 0.72289 0.30962 0.61787 0.0
C227 C 0.71979 0.29517 0.65377 0.0
H228 H 0.42218 0.71691 0.94346 0.0
H229 H 0.24782 0.70396 0.961 0.0
H230 H 0.25887 0.69812 0.0248 0.0
H231 H 0.31794 0.69694 0.07565 0.0
H232 H 0.49551 0.71697 0.05899 0.0
H233 H 0.48353 0.71996 0.99487 0.0
C234 C 0.3866 0.71263 0.9613 0.0
C235 C 0.33409 0.71052 0.94753 0.0
C236 C 0.39389 0.71068 0.99809 0.0
C237 C 0.28872 0.70582 0.97094 0.0
C238 C 0.29494 0.70235 1.00743 0.0
C239 C 0.35395 0.70176 0.05798 0.0
C240 C 0.40733 0.70625 0.07202 0.0
C241 C 0.34729 0.70475 0.02129 0.0
C242 C 0.45399 0.71345 0.04882 0.0
C243 C 0.4471 0.71503 0.01217 0.0
H244 H 0.61784 0.29487 0.40843 0.0
H245 H 0.78187 0.46629 0.38954 0.0
H246 H 0.76468 0.45357 0.32568 0.0
H247 H 0.70351 0.39313 0.2754 0.0
H248 H 0.53528 0.22551 0.29433 0.0
H249 H 0.55324 0.23736 0.35819 0.0
C250 C 0.64986 0.32926 0.39024 0.0
C251 C 0.7014 0.38108 0.40345 0.0
C252 C 0.63876 0.32237 0.35374 0.0
C253 C 0.74197 0.42598 0.37984 0.0
C254 C 0.73219 0.41869 0.34341 0.0
C255 C 0.67081 0.35923 0.29356 0.0
C256 C 0.61846 0.30826 0.28033 0.0
C257 C 0.68084 0.36701 0.3301 0.0
C258 C 0.57587 0.26514 0.30402 0.0
C259 C 0.58625 0.27179 0.34045 0.0
H260 H 0.32438 0.61976 0.74362 0.0
H261 H 0.30863 0.77847 0.72968 0.0
H262 H 0.31228 0.76974 0.66543 0.0
H263 H 0.31937 0.71667 0.61315 0.0
H264 H 0.32705 0.55345 0.62681 0.0
H265 H 0.32694 0.56402 0.69113 0.0
C266 C 0.32201 0.6525 0.72645 0.0
C267 C 0.31669 0.69993 0.74131 0.0
C268 C 0.32249 0.64625 0.68951 0.0
C269 C 0.31267 0.74153 0.71883 0.0
C270 C 0.31484 0.73662 0.68211 0.0
C271 C 0.32117 0.68352 0.63024 0.0
C272 C 0.32362 0.63458 0.61528 0.0
C273 C 0.31966 0.68913 0.66715 0.0
C274 C 0.32502 0.59146 0.63771 0.0
C275 C 0.32512 0.59757 0.67448 0.0
loop_
_geom_bond_atom_site_label_1
_geom_bond_atom_site_label_2
_geom_bond_distance
_geom_bond_site_symmetry_2
_ccdc_geom_bond_type
C0 O2 1.247 . S
C0 O4 1.258 . S
C1 O8 1.247 . S
C1 O9 1.258 . S
O2 C0 1.247 . S
O2 Zn3 2.028 . S
Zn3 O2 2.028 . S
Zn3 O7 2.035 . S
Zn3 O9 2.035 . S
Zn3 O10 2.028 . S
O4 C0 1.258 . S
O4 Zn5 2.035 . S
Zn5 O4 2.035 . S
Zn5 O6 2.028 . S
Zn5 O8 2.028 . S
Zn5 O11 2.035 . S
O6 Zn5 2.028 . S
O6 C12 1.247 . S
O7 Zn3 2.035 . S
O7 C12 1.258 . S
O8 C1 1.247 . S
O8 Zn5 2.028 . S
O9 C1 1.258 . S
O9 Zn3 2.035 . S
O10 Zn3 2.028 . S
O10 C13 1.247 . S
O11 Zn5 2.035 . S
O11 C13 1.258 . S
C12 O6 1.247 . S
C12 O7 1.258 . S
C13 O10 1.247 . S
C13 O11 1.258 . S
C14 O16 1.247 . S
C14 O18 1.258 . S
C15 O22 1.247 . S
C15 O23 1.258 . S
O16 C14 1.247 . S
O16 Zn17 2.028 . S
Zn17 O16 2.028 . S
Zn17 O21 2.035 . S
Zn17 O23 2.035 . S
Zn17 O24 2.028 . S
O18 C14 1.258 . S
O18 Zn19 2.035 . S
Zn19 O18 2.035 . S
Zn19 O20 2.028 . S
Zn19 O22 2.028 . S
Zn19 O25 2.035 . S
O20 Zn19 2.028 . S
O20 C26 1.247 . S
O21 Zn17 2.035 . S
O21 C26 1.258 . S
O22 C15 1.247 . S
O22 Zn19 2.028 . S
O23 C15 1.258 . S
O23 Zn17 2.035 . S
O24 Zn17 2.028 . S
O24 C27 1.247 . S
O25 Zn19 2.035 . S
O25 C27 1.258 . S
C26 O20 1.247 . S
C26 O21 1.258 . S
C27 O24 1.247 . S
C27 O25 1.258 . S
C28 O30 1.247 . S
C28 O32 1.258 . S
C29 O36 1.247 . S
C29 O37 1.258 . S
O30 C28 1.247 . S
O30 Zn31 2.028 . S
Zn31 O30 2.028 . S
Zn31 O35 2.035 . S
Zn31 O37 2.035 . S
Zn31 O38 2.028 . S
O32 C28 1.258 . S
O32 Zn33 2.035 . S
Zn33 O32 2.035 . S
Zn33 O34 2.028 . S
Zn33 O36 2.028 . S
Zn33 O39 2.035 . S
O34 Zn33 2.028 . S
O34 C40 1.247 . S
O35 Zn31 2.035 . S
O35 C40 1.258 . S
O36 C29 1.247 . S
O36 Zn33 2.028 . S
O37 C29 1.258 . S
O37 Zn31 2.035 . S
O38 Zn31 2.028 . S
O38 C41 1.247 . S
O39 Zn33 2.035 . S
O39 C41 1.258 . S
C40 O34 1.247 . S
C40 O35 1.258 . S
C41 O38 1.247 . S
C41 O39 1.258 . S
C42 O44 1.247 . S
C42 O46 1.258 . S
C43 O50 1.247 . S
C43 O51 1.258 . S
O44 C42 1.247 . S
O44 Zn45 2.028 . S
Zn45 O44 2.028 . S
Zn45 O49 2.035 . S
Zn45 O51 2.035 . S
Zn45 O52 2.028 . S
O46 C42 1.258 . S
O46 Zn47 2.035 . S
Zn47 O46 2.035 . S
Zn47 O48 2.028 . S
Zn47 O50 2.028 . S
Zn47 O53 2.035 . S
O48 Zn47 2.028 . S
O48 C54 1.247 . S
O49 Zn45 2.035 . S
O49 C54 1.258 . S
O50 C43 1.247 . S
O50 Zn47 2.028 . S
O51 C43 1.258 . S
O51 Zn45 2.035 . S
O52 Zn45 2.028 . S
O52 C55 1.247 . S
O53 Zn47 2.035 . S
O53 C55 1.258 . S
C54 O48 1.247 . S
C54 O49 1.258 . S
C55 O52 1.247 . S
C55 O53 1.258 . S
C56 O58 1.247 . S
C56 O60 1.258 . S
C57 O64 1.247 . S
C57 O65 1.258 . S
O58 C56 1.247 . S
O58 Zn59 2.028 . S
Zn59 O58 2.028 . S
Zn59 O63 2.035 . S
Zn59 O65 2.035 . S
Zn59 O66 2.028 . S
O60 C56 1.258 . S
O60 Zn61 2.035 . S
Zn61 O60 2.035 . S
Zn61 O62 2.028 . S
Zn61 O64 2.028 . S
Zn61 O67 2.035 . S
O62 Zn61 2.028 . S
O62 C68 1.247 . S
O63 Zn59 2.035 . S
O63 C68 1.258 . S
O64 C57 1.247 . S
O64 Zn61 2.028 . S
O65 C57 1.258 . S
O65 Zn59 2.035 . S
O66 Zn59 2.028 . S
O66 C69 1.247 . S
O67 Zn61 2.035 . S
O67 C69 1.258 . S
C68 O62 1.247 . S
C68 O63 1.258 . S
C69 O66 1.247 . S
C69 O67 1.258 . S
C70 O72 1.247 . S
C70 O74 1.258 . S
C71 O78 1.247 . S
C71 O79 1.258 . S
O72 C70 1.247 . S
O72 Zn73 2.028 . S
Zn73 O72 2.028 . S
Zn73 O77 2.035 . S
Zn73 O79 2.035 . S
Zn73 O80 2.028 . S
O74 C70 1.258 . S
O74 Zn75 2.035 . S
Zn75 O74 2.035 . S
Zn75 O76 2.028 . S
Zn75 O78 2.028 . S
Zn75 O81 2.035 . S
O76 Zn75 2.028 . S
O76 C82 1.247 . S
O77 Zn73 2.035 . S
O77 C82 1.258 . S
O78 C71 1.247 . S
O78 Zn75 2.028 . S
O79 C71 1.258 . S
O79 Zn73 2.035 . S
O80 Zn73 2.028 . S
O80 C83 1.247 . S
O81 Zn75 2.035 . S
O81 C83 1.258 . S
C82 O76 1.247 . S
C82 O77 1.258 . S
C83 O80 1.247 . S
C83 O81 1.258 . S
H84 C90 0.930 . S
H85 C93 0.930 . S
H86 C94 0.930 . S
H87 C95 0.930 . S
H88 C98 0.930 . S
H89 C99 0.930 . S
C90 H84 0.930 . S
C90 C91 1.355 . S
C90 C92 1.415 . S
C91 C90 1.355 . S
C91 C93 1.419 . S
C92 C90 1.415 . S
C92 C97 1.425 1_545 S
C92 C99 1.409 1_545 S
C93 H85 0.930 . S
C93 C91 1.419 . S
C93 C94 1.362 . S
C94 H86 0.930 . S
C94 C93 1.362 . S
C94 C97 1.409 1_545 S
C95 H87 0.930 . S
C95 C96 1.355 . S
C95 C97 1.415 . S
C96 C95 1.355 . S
C96 C98 1.419 . S
C97 C92 1.425 1_565 S
C97 C94 1.409 1_565 S
C97 C95 1.415 . S
C98 H88 0.930 . S
C98 C96 1.419 . S
C98 C99 1.362 . S
C99 H89 0.930 . S
C99 C92 1.409 1_565 S
C99 C98 1.362 . S
H100 C106 0.930 . S
H101 C109 0.930 . S
H102 C110 0.930 . S
H103 C111 0.930 . S
H104 C114 0.930 . S
H105 C115 0.930 . S
C106 H100 0.930 . S
C106 C107 1.355 . S
C106 C108 1.415 . S
C107 C106 1.355 . S
C107 C109 1.419 . S
C108 C106 1.415 . S
C108 C113 1.425 . S
C108 C115 1.409 . S
C109 H101 0.930 . S
C109 C107 1.419 . S
C109 C110 1.362 . S
C110 H102 0.930 . S
C110 C109 1.362 . S
C110 C113 1.409 . S
C111 H103 0.930 . S
C111 C112 1.355 . S
C111 C113 1.415 . S
C112 C111 1.355 . S
C112 C114 1.419 . S
C113 C108 1.425 . S
C113 C110 1.409 . S
C113 C111 1.415 . S
C114 H104 0.930 . S
C114 C112 1.419 . S
C114 C115 1.362 . S
C115 H105 0.930 . S
C115 C108 1.409 . S
C115 C114 1.362 . S
H116 C122 0.930 . S
H117 C125 0.930 . S
H118 C126 0.930 . S
H119 C127 0.930 . S
H120 C130 0.930 . S
H121 C131 0.930 . S
C122 H116 0.930 . S
C122 C123 1.355 . S
C122 C124 1.415 . S
C123 C122 1.355 . S
C123 C125 1.419 . S
C124 C122 1.415 . S
C124 C129 1.425 1_655 S
C124 C131 1.409 1_655 S
C125 H117 0.930 . S
C125 C123 1.419 . S
C125 C126 1.362 . S
C126 H118 0.930 . S
C126 C125 1.362 . S
C126 C129 1.409 1_655 S
C127 H119 0.930 . S
C127 C128 1.355 . S
C127 C129 1.415 . S
C128 C127 1.355 . S
C128 C130 1.419 . S
C129 C124 1.425 1_455 S
C129 C126 1.409 1_455 S
C129 C127 1.415 . S
C130 H120 0.930 . S
C130 C128 1.419 . S
C130 C131 1.362 . S
C131 H121 0.930 . S
C131 C124 1.409 1_455 S
C131 C130 1.362 . S
H132 C138 0.930 . S
H133 C141 0.930 . S
H134 C142 0.930 . S
H135 C143 0.930 . S
H136 C146 0.930 . S
H137 C147 0.930 . S
C138 H132 0.930 . S
C138 C139 1.355 . S
C138 C140 1.415 . S
C139 C138 1.355 . S
C139 C141 1.419 . S
C140 C138 1.415 . S
C140 C145 1.425 1_455 S
C140 C147 1.409 1_455 S
C141 H133 0.930 . S
C141 C139 1.419 . S
C141 C142 1.362 . S
C142 H134 0.930 . S
C142 C141 1.362 . S
C142 C145 1.409 1_455 S
C143 H135 0.930 . S
C143 C144 1.355 . S
C143 C145 1.415 . S
C144 C143 1.355 . S
C144 C146 1.419 . S
C145 C140 1.425 1_655 S
C145 C142 1.409 1_655 S
C145 C143 1.415 . S
C146 H136 0.930 . S
C146 C144 1.419 . S
C146 C147 1.362 . S
C147 H137 0.930 . S
C147 C140 1.409 1_655 S
C147 C146 1.362 . S
H148 C154 0.930 . S
H149 C157 0.930 . S
H150 C158 0.930 . S
H151 C159 0.930 . S
H152 C162 0.930 . S
H153 C163 0.930 . S
C154 H148 0.930 . S
C154 C155 1.355 . S
C154 C156 1.415 . S
C155 C154 1.355 . S
C155 C157 1.419 . S
C156 C154 1.415 . S
C156 C161 1.425 1_565 S
C156 C163 1.409 1_565 S
C157 H149 0.930 . S
C157 C155 1.419 . S
C157 C158 1.362 . S
C158 H150 0.930 . S
C158 C157 1.362 . S
C158 C161 1.409 1_565 S
C159 H151 0.930 . S
C159 C160 1.355 . S
C159 C161 1.415 . S
C160 C159 1.355 . S
C160 C162 1.419 . S
C161 C156 1.425 1_545 S
C161 C158 1.409 1_545 S
C161 C159 1.415 . S
C162 H152 0.930 . S
C162 C160 1.419 . S
C162 C163 1.362 . S
C163 H153 0.930 . S
C163 C156 1.409 1_545 S
C163 C162 1.362 . S
H164 C170 0.930 . S
H165 C173 0.930 . S
H166 C174 0.930 . S
H167 C175 0.930 . S
H168 C178 0.930 . S
H169 C179 0.930 . S
C170 H164 0.930 . S
C170 C171 1.355 . S
C170 C172 1.415 . S
C171 C170 1.355 . S
C171 C173 1.419 . S
C172 C170 1.415 . S
C172 C177 1.425 . S
C172 C179 1.409 . S
C173 H165 0.930 . S
C173 C171 1.419 . S
C173 C174 1.362 . S
C174 H166 0.930 . S
C174 C173 1.362 . S
C174 C177 1.409 . S
C175 H167 0.930 . S
C175 C176 1.355 . S
C175 C177 1.415 . S
C176 C175 1.355 . S
C176 C178 1.419 . S
C177 C172 1.425 . S
C177 C174 1.409 . S
C177 C175 1.415 . S
C178 H168 0.930 . S
C178 C176 1.419 . S
C178 C179 1.362 . S
C179 H169 0.930 . S
C179 C172 1.409 . S
C179 C178 1.362 . S
H180 C186 0.930 . S
H181 C189 0.930 . S
H182 C190 0.930 . S
H183 C191 0.930 . S
H184 C194 0.930 . S
H185 C195 0.930 . S
C186 H180 0.930 . S
C186 C187 1.355 . S
C186 C188 1.415 1_556 S
C187 C186 1.355 . S
C187 C189 1.419 . S
C188 C186 1.415 1_554 S
C188 C193 1.425 1_554 S
C188 C195 1.409 . S
C189 H181 0.930 . S
C189 C187 1.419 . S
C189 C190 1.362 . S
C190 H182 0.930 . S
C190 C189 1.362 . S
C190 C193 1.409 . S
C191 H183 0.930 . S
C191 C192 1.355 . S
C191 C193 1.415 1_554 S
C192 C191 1.355 . S
C192 C194 1.419 . S
C193 C188 1.425 1_556 S
C193 C190 1.409 . S
C193 C191 1.415 1_556 S
C194 H184 0.930 . S
C194 C192 1.419 . S
C194 C195 1.362 . S
C195 H185 0.930 . S
C195 C188 1.409 . S
C195 C194 1.362 . S
H196 C202 0.930 . S
H197 C205 0.930 . S
H198 C206 0.930 . S
H199 C207 0.930 . S
H200 C210 0.930 . S
H201 C211 0.930 . S
C202 H196 0.930 . S
C202 C203 1.355 . S
C202 C204 1.415 . S
C203 C202 1.355 . S
C203 C205 1.419 . S
C204 C202 1.415 . S
C204 C209 1.425 . S
C204 C211 1.409 . S
C205 H197 0.930 . S
C205 C203 1.419 . S
C205 C206 1.362 . S
C206 H198 0.930 . S
C206 C205 1.362 . S
C206 C209 1.409 . S
C207 H199 0.930 . S
C207 C208 1.355 . S
C207 C209 1.415 . S
C208 C207 1.355 . S
C208 C210 1.419 . S
C209 C204 1.425 . S
C209 C206 1.409 . S
C209 C207 1.415 . S
C210 H200 0.930 . S
C210 C208 1.419 . S
C210 C211 1.362 . S
C211 H201 0.930 . S
C211 C204 1.409 . S
C211 C210 1.362 . S
H212 C218 0.930 . S
H213 C221 0.930 . S
H214 C222 0.930 . S
H215 C223 0.930 . S
H216 C226 0.930 . S
H217 C227 0.930 . S
C218 H212 0.930 . S
C218 C219 1.355 . S
C218 C220 1.415 . S
C219 C218 1.355 . S
C219 C221 1.419 . S
C220 C218 1.415 . S
C220 C225 1.425 . S
C220 C227 1.409 . S
C221 H213 0.930 . S
C221 C219 1.419 . S
C221 C222 1.362 . S
C222 H214 0.930 . S
C222 C221 1.362 . S
C222 C225 1.409 . S
C223 H215 0.930 . S
C223 C224 1.355 . S
C223 C225 1.415 . S
C224 C223 1.355 . S
C224 C226 1.419 . S
C225 C220 1.425 . S
C225 C222 1.409 . S
C225 C223 1.415 . S
C226 H216 0.930 . S
C226 C224 1.419 . S
C226 C227 1.362 . S
C227 H217 0.930 . S
C227 C220 1.409 . S
C227 C226 1.362 . S
H228 C234 0.930 . S
H229 C237 0.930 . S
H230 C238 0.930 . S
H231 C239 0.930 . S
H232 C242 0.930 . S
H233 C243 0.930 . S
C234 H228 0.930 . S
C234 C235 1.355 . S
C234 C236 1.415 . S
C235 C234 1.355 . S
C235 C237 1.419 . S
C236 C234 1.415 . S
C236 C241 1.425 1_556 S
C236 C243 1.409 . S
C237 H229 0.930 . S
C237 C235 1.419 . S
C237 C238 1.362 1_556 S
C238 H230 0.930 . S
C238 C237 1.362 1_554 S
C238 C241 1.409 . S
C239 H231 0.930 . S
C239 C240 1.355 . S
C239 C241 1.415 . S
C240 C239 1.355 . S
C240 C242 1.419 . S
C241 C236 1.425 1_554 S
C241 C238 1.409 . S
C241 C239 1.415 . S
C242 H232 0.930 . S
C242 C240 1.419 . S
C242 C243 1.362 1_554 S
C243 H233 0.930 . S
C243 C236 1.409 . S
C243 C242 1.362 1_556 S
H244 C250 0.930 . S
H245 C253 0.930 . S
H246 C254 0.930 . S
H247 C255 0.930 . S
H248 C258 0.930 . S
H249 C259 0.930 . S
C250 H244 0.930 . S
C250 C251 1.355 . S
C250 C252 1.415 . S
C251 C250 1.355 . S
C251 C253 1.419 . S
C252 C250 1.415 . S
C252 C257 1.425 . S
C252 C259 1.409 . S
C253 H245 0.930 . S
C253 C251 1.419 . S
C253 C254 1.362 . S
C254 H246 0.930 . S
C254 C253 1.362 . S
C254 C257 1.409 . S
C255 H247 0.930 . S
C255 C256 1.355 . S
C255 C257 1.415 . S
C256 C255 1.355 . S
C256 C258 1.419 . S
C257 C252 1.425 . S
C257 C254 1.409 . S
C257 C255 1.415 . S
C258 H248 0.930 . S
C258 C256 1.419 . S
C258 C259 1.362 . S
C259 H249 0.930 . S
C259 C252 1.409 . S
C259 C258 1.362 . S
H260 C266 0.930 . S
H261 C269 0.930 . S
H262 C270 0.930 . S
H263 C271 0.930 . S
H264 C274 0.930 . S
H265 C275 0.930 . S
C266 H260 0.930 . S
C266 C267 1.355 . S
C266 C268 1.415 . S
C267 C266 1.355 . S
C267 C269 1.419 . S
C268 C266 1.415 . S
C268 C273 1.425 . S
C268 C275 1.409 . S
C269 H261 0.930 . S
C269 C267 1.419 . S
C269 C270 1.362 . S
C270 H262 0.930 . S
C270 C269 1.362 . S
C270 C273 1.409 . S
C271 H263 0.930 . S
C271 C272 1.355 . S
C271 C273 1.415 . S
C272 C271 1.355 . S
C272 C274 1.419 . S
C273 C268 1.425 . S
C273 C270 1.409 . S
C273 C271 1.415 . S
C274 H264 0.930 . S
C274 C272 1.419 . S
C274 C275 1.362 . S
C275 H265 0.930 . S
C275 C268 1.409 . S
C275 C274 1.362 . S
C91 C1 1.678 . S
C96 C54 1.681 . S
C107 C26 1.702 . S
C112 C56 1.712 . S
C123 C40 1.723 . S
C128 C71 1.726 . S
C139 C27 1.674 . S
C144 C57 1.678 . S
C155 C70 1.679 . S
C160 C41 1.676 . S
C171 C55 1.678 . S
C176 C0 1.671 . S
C187 C28 1.742 . S
C192 C12 1.743 . S
C203 C42 1.746 . S
C208 C15 1.743 . S
C219 C29 1.773 . S
C224 C68 1.748 . S
C235 C83 1.787 . S
C240 C43 1.784 . S
C251 C69 1.758 . S
C256 C13 1.780 . S
C267 C82 1.766 . S
C272 C14 1.785 . S
