# Generated by pormake.
# Topology rob, (6)-cn, num edge types: 1
# Building blocks:
#     Node 0, Type 0, BuildingBlock: BETDEL_clean_sbu_0, # of connection points: 6
#     Node 1, Type 0, BuildingBlock: BETDEL_clean_sbu_0, # of connection points: 6
#     Node 2, Type 0, BuildingBlock: BETDEL_clean_sbu_0, # of connection points: 6
#     Node 3, Type 0, BuildingBlock: BETDEL_clean_sbu_0, # of connection points: 6
#     Edge 4, Type (0, 0), BuildingBlock: XIVTED_clean_linker_0, # of connection points: 2
#     Edge 5, Type (0, 0), BuildingBlock: XIVTED_clean_linker_0, # of connection points: 2
#     Edge 6, Type (0, 0), BuildingBlock: XIVTED_clean_linker_0, # of connection points: 2
#     Edge 7, Type (0, 0), BuildingBlock: XIVTED_clean_linker_0, # of connection points: 2
#     Edge 8, Type (0, 0), BuildingBlock: XIVTED_clean_linker_0, # of connection points: 2
#     Edge 9, Type (0, 0), BuildingBlock: XIVTED_clean_linker_0, # of connection points: 2
#     Edge 10, Type (0, 0), BuildingBlock: XIVTED_clean_linker_0, # of connection points: 2
#     Edge 11, Type (0, 0), BuildingBlock: XIVTED_clean_linker_0, # of connection points: 2
#     Edge 12, Type (0, 0), BuildingBlock: XIVTED_clean_linker_0, # of connection points: 2
#     Edge 13, Type (0, 0), BuildingBlock: XIVTED_clean_linker_0, # of connection points: 2
#     Edge 14, Type (0, 0), BuildingBlock: XIVTED_clean_linker_0, # of connection points: 2
#     Edge 15, Type (0, 0), BuildingBlock: XIVTED_clean_linker_0, # of connection points: 2
# Relax obj value: 0.076
# Max RMSD: 0.163
# Mean RMSD: 0.163
data_MOF--net-rob--node1-BETDEL_clean_sbu_0--edge1-XIVTED_clean_linker_0
_symmetry_space_group_name_H-M    P1
_symmetry_Int_Tables_number       1
_symmetry_cell_setting            triclinic
loop_
_symmetry_equiv_pos_as_xyz
'x, y, z'
_cell_length_a     14.72737
_cell_length_b     24.705108
_cell_length_c     29.336878
_cell_angle_alpha  90.176222
_cell_angle_beta   101.55056
_cell_angle_gamma 89.860476
loop_
_atom_site_label
_atom_site_type_symbol
_atom_site_fract_x
_atom_site_fract_y
_atom_site_fract_z
_atom_type_partial_charge
Dy0 Dy 0.10383 0.30056 0.01972 0.0
C1 C 0.40464 0.26503 0.92661 0.0
C2 C -0.02076 0.3022 0.07791 0.0
Dy3 Dy 0.28029 0.26612 0.98492 0.0
O4 O 0.01258 0.34456 0.06093 0.0
O5 O 0.00815 0.25901 0.05974 0.0
O6 O 0.12855 0.38706 0.00385 0.0
O7 O 0.24232 0.33446 0.02426 0.0
C8 C 0.21784 0.38131 0.00942 0.0
C9 C 0.16531 0.18562 0.99508 0.0
O10 O 0.3438 0.26296 0.0606 0.0
O11 O 0.19925 0.26432 0.08104 0.0
O12 O 0.36854 0.22251 0.9419 0.0
O13 O 0.37862 0.3078 0.94653 0.0
O14 O 0.25461 0.17955 0.00084 0.0
O15 O 0.14177 0.23253 0.98022 0.0
O16 O 0.0407 0.30324 0.94374 0.0
O17 O 0.1858 0.30317 0.92397 0.0
C18 C 0.2902 0.25752 0.09173 0.0
C19 C 0.09479 0.30908 0.91285 0.0
Dy20 Dy 0.61847 0.79709 0.02618 0.0
C21 C 0.87183 0.76545 0.90378 0.0
C22 C 0.51513 0.79859 0.09443 0.0
Dy23 Dy 0.76884 0.76576 0.97217 0.0
O24 O 0.54572 0.84087 0.07616 0.0
O25 O 0.5356 0.75552 0.07299 0.0
O26 O 0.64735 0.88467 0.01629 0.0
O27 O 0.75635 0.82822 0.02296 0.0
C28 C 0.73386 0.87707 0.0147 0.0
C29 C 0.65437 0.68566 0.9844 0.0
O30 O 0.85412 0.75369 0.04342 0.0
O31 O 0.72286 0.74882 0.07577 0.0
O32 O 0.83624 0.7231 0.9195 0.0
O33 O 0.85652 0.80756 0.92783 0.0
O34 O 0.7411 0.6783 0.983 0.0
O35 O 0.63121 0.73436 0.97556 0.0
O36 O 0.5334 0.80926 0.95487 0.0
O37 O 0.66524 0.81497 0.92315 0.0
C38 C 0.81283 0.74159 0.07837 0.0
C39 C 0.57526 0.82216 0.92032 0.0
Dy40 Dy 0.2802 0.80866 0.48007 0.0
C41 C -0.01444 0.776 0.57801 0.0
C42 C 0.40205 0.80775 0.42046 0.0
Dy43 Dy 0.10757 0.77707 0.51849 0.0
O44 O 0.36867 0.85081 0.43666 0.0
O45 O 0.37455 0.76536 0.44 0.0
O46 O 0.25546 0.896 0.49353 0.0
O47 O 0.14169 0.84301 0.47599 0.0
C48 C 0.16641 0.89044 0.48906 0.0
C49 C 0.22176 0.6954 0.50946 0.0
O50 O 0.04067 0.77152 0.44317 0.0
O51 O 0.18361 0.76868 0.42128 0.0
O52 O 0.01658 0.73356 0.55975 0.0
O53 O 0.01557 0.81915 0.5606 0.0
O54 O 0.13276 0.68978 0.5049 0.0
O55 O 0.246 0.74282 0.52266 0.0
O56 O 0.34701 0.81462 0.55533 0.0
O57 O 0.20423 0.81685 0.57751 0.0
C58 C 0.09253 0.76279 0.41165 0.0
C59 C 0.29529 0.82309 0.58696 0.0
Dy60 Dy 0.766 0.30584 0.47395 0.0
C61 C 0.52044 0.27581 0.60107 0.0
C62 C 0.86514 0.30515 0.40393 0.0
Dy63 Dy 0.61949 0.27695 0.53102 0.0
O64 O 0.83437 0.34798 0.42164 0.0
O65 O 0.84701 0.26282 0.42672 0.0
O66 O 0.74041 0.39375 0.48432 0.0
O67 O 0.62995 0.33861 0.47945 0.0
C68 C 0.65441 0.38726 0.48735 0.0
C69 C 0.73208 0.19582 0.51756 0.0
O70 O 0.5301 0.26542 0.46067 0.0
O71 O 0.65859 0.2572 0.42645 0.0
O72 O 0.54945 0.23345 0.58194 0.0
O73 O 0.54036 0.31887 0.57971 0.0
O74 O 0.64615 0.18899 0.5205 0.0
O75 O 0.75558 0.24452 0.52561 0.0
O76 O 0.85489 0.31755 0.54445 0.0
O77 O 0.72632 0.32585 0.57863 0.0
C78 C 0.56884 0.25132 0.42524 0.0
C79 C 0.81609 0.33161 0.57989 0.0
H80 H 0.69832 0.58026 0.00376 0.0
H81 H 0.17258 0.48497 0.98301 0.0
H82 H 0.46564 0.69 0.97662 0.0
H83 H 0.40777 0.37963 0.02648 0.0
H84 H 0.27817 0.55981 0.97766 0.0
H85 H 0.59268 0.50582 0.00994 0.0
C86 C 0.62482 0.58866 0.99917 0.0
C87 C 0.59046 0.64125 0.98953 0.0
C88 C 0.30682 0.52038 0.98839 0.0
C89 C 0.469 0.55619 0.99641 0.0
C90 C 0.2466 0.47762 0.99138 0.0
C91 C 0.28167 0.42611 0.00524 0.0
C92 C 0.40293 0.51156 0.99919 0.0
C93 C 0.37799 0.41874 0.01559 0.0
C94 C 0.56455 0.54613 0.00273 0.0
C95 C 0.4948 0.64996 0.98404 0.0
N96 N 0.43533 0.46102 0.01232 0.0
N97 N 0.43727 0.60777 0.98741 0.0
H98 H 0.17618 0.59082 0.48719 0.0
H99 H 0.70005 0.493 0.50407 0.0
H100 H 0.41159 0.69707 0.52413 0.0
H101 H 0.46673 0.38413 0.48248 0.0
H102 H 0.5956 0.56856 0.50991 0.0
H103 H 0.28125 0.51518 0.48302 0.0
C104 C 0.25017 0.59819 0.49439 0.0
C105 C 0.28546 0.65016 0.50608 0.0
C106 C 0.56713 0.52818 0.50401 0.0
C107 C 0.40617 0.56379 0.50137 0.0
C108 C 0.62669 0.48504 0.50066 0.0
C109 C 0.59171 0.43238 0.49261 0.0
C110 C 0.47174 0.51862 0.49909 0.0
C111 C 0.49632 0.42421 0.48862 0.0
C112 C 0.31011 0.55497 0.49208 0.0
C113 C 0.38171 0.65755 0.51497 0.0
N114 N 0.43951 0.46696 0.49173 0.0
N115 N 0.43884 0.61478 0.5124 0.0
H116 H -0.02428 0.18903 0.9782 0.0
H117 H 0.92219 0.87126 0.02228 0.0
H118 H 0.20786 0.08082 0.01898 0.0
H119 H 0.69263 0.98332 0.99759 0.0
H120 H 0.02795 0.94664 0.0175 0.0
H121 H 0.87024 0.11344 0.98219 0.0
C122 C 0.00437 0.14936 0.98811 0.0
C123 C 0.10045 0.14105 0.99829 0.0
C124 C -0.04557 0.95473 0.01312 0.0
C125 C -0.01938 0.05437 0.0026 0.0
C126 C 0.89417 0.91172 0.01574 0.0
C127 C 0.79879 0.92125 0.01049 0.0
C128 C 0.91881 1.00749 0.005 0.0
C129 C 0.76586 0.97433 0.00201 0.0
C130 C -0.05574 0.10622 0.99033 0.0
C131 C 0.13411 0.08888 0.01082 0.0
N132 N 0.82573 1.01545 0.99955 0.0
N133 N 0.07429 0.04748 0.01252 0.0
H134 H 0.6878 0.09008 0.50009 0.0
H135 H 0.21175 0.99522 0.51125 0.0
H136 H 0.91948 0.20013 0.52157 0.0
H137 H -0.02299 0.88817 0.4763 0.0
H138 H 0.10639 0.07033 0.5171 0.0
H139 H 0.79287 1.01538 0.49266 0.0
C140 C 0.76094 0.09847 0.50316 0.0
C141 C 0.79526 0.15121 0.5116 0.0
C142 C 0.07778 1.03048 0.5081 0.0
C143 C 0.916 0.06594 0.50327 0.0
C144 C 0.13787 0.98757 0.50483 0.0
C145 C 0.10283 0.93551 0.49323 0.0
C146 C -0.01815 1.02122 0.49988 0.0
C147 C 0.00672 0.92775 0.48534 0.0
C148 C 0.82087 0.05582 0.49889 0.0
C149 C 0.8904 0.15996 0.51513 0.0
N150 N -0.05051 0.97018 0.48885 0.0
N151 N -0.05239 0.11766 0.51109 0.0
H152 H 0.38565 0.2729 0.38845 0.0
H153 H 0.46971 0.22957 0.13282 0.0
H154 H 0.62761 0.19171 0.35918 0.0
H155 H 0.19825 0.25822 0.16334 0.0
H156 H 0.5293 0.21412 0.2161 0.0
H157 H 0.3117 0.26384 0.30613 0.0
C158 C 0.42204 0.2519 0.365 0.0
C159 C 0.51321 0.23398 0.38027 0.0
C160 C 0.45646 0.22323 0.20423 0.0
C161 C 0.43103 0.22484 0.2865 0.0
C162 C 0.42277 0.23236 0.15683 0.0
C163 C 0.32929 0.24561 0.14104 0.0
C164 C 0.39629 0.22814 0.23579 0.0
C165 C 0.27112 0.24835 0.1737 0.0
C166 C 0.38038 0.24712 0.318 0.0
C167 C 0.55773 0.20719 0.34849 0.0
N168 N 0.30577 0.24025 0.21946 0.0
N169 N 0.51694 0.20436 0.30291 0.0
H170 H 0.48447 0.71147 0.14699 0.0
H171 H 0.44063 0.89352 0.36897 0.0
H172 H 0.48929 0.88596 0.14765 0.0
H173 H 0.43289 0.71908 0.36931 0.0
H174 H 0.46461 0.89115 0.28883 0.0
H175 H 0.46492 0.71291 0.22809 0.0
C176 C 0.47975 0.7501 0.16395 0.0
C177 C 0.48797 0.79868 0.14044 0.0
C178 C 0.45862 0.85331 0.3065 0.0
C179 C 0.46776 0.8007 0.23362 0.0
C180 C 0.44586 0.85466 0.35248 0.0
C181 C 0.43515 0.80643 0.37595 0.0
C182 C 0.46024 0.80334 0.28359 0.0
C183 C 0.44146 0.75724 0.35264 0.0
C184 C 0.46951 0.75091 0.2104 0.0
C185 C 0.48272 0.84754 0.16434 0.0
N186 N 0.45291 0.75695 0.30768 0.0
N187 N 0.47337 0.8473 0.20957 0.0
H188 H 0.3895 0.80987 0.88244 0.0
H189 H 0.47985 0.83706 0.62785 0.0
H190 H 0.64418 0.87529 0.85412 0.0
H191 H 0.20389 0.84055 0.65759 0.0
H192 H 0.54283 0.851 0.71107 0.0
H193 H 0.31763 0.82233 0.80013 0.0
C194 C 0.42946 0.82798 0.85924 0.0
C195 C 0.52318 0.84052 0.87482 0.0
C196 C 0.46842 0.84935 0.699 0.0
C197 C 0.44299 0.85358 0.78112 0.0
C198 C 0.43267 0.84126 0.65161 0.0
C199 C 0.33677 0.83686 0.6357 0.0
C200 C 0.40768 0.85228 0.73041 0.0
C201 C 0.27855 0.8429 0.66811 0.0
C202 C 0.38883 0.83479 0.81229 0.0
C203 C 0.57213 0.86384 0.84329 0.0
N204 N 0.31496 0.84954 0.71391 0.0
N205 N 0.53204 0.86864 0.79776 0.0
H206 H 0.49238 0.36267 0.65506 0.0
H207 H 0.43907 0.17903 0.8737 0.0
H208 H 0.49334 0.18817 0.65319 0.0
H209 H 0.44123 0.35351 0.87728 0.0
H210 H 0.46416 0.18178 0.79377 0.0
H211 H 0.47236 0.36059 0.73607 0.0
C212 C 0.48682 0.32393 0.67146 0.0
C213 C 0.49399 0.27552 0.64726 0.0
C214 C 0.46015 0.21952 0.81212 0.0
C215 C 0.47312 0.27273 0.74032 0.0
C216 C 0.44675 0.21794 0.85798 0.0
C217 C 0.43851 0.2661 0.88231 0.0
C218 C 0.46487 0.26968 0.79016 0.0
C219 C 0.44785 0.31537 0.85994 0.0
C220 C 0.47629 0.32273 0.71786 0.0
C221 C 0.48761 0.22647 0.67044 0.0
N222 N 0.45983 0.31591 0.81508 0.0
N223 N 0.4779 0.22634 0.71562 0.0
H224 H -0.00232 0.75797 0.11505 0.0
H225 H 0.90977 0.74028 0.37187 0.0
H226 H 0.74726 0.69081 0.14693 0.0
H227 H 0.18361 0.75151 0.34026 0.0
H228 H 0.84783 0.72089 0.28929 0.0
H229 H 0.0701 0.75228 0.19772 0.0
C230 C -0.04111 0.74076 0.13919 0.0
C231 C 0.86605 0.72585 0.12438 0.0
C232 C 0.92165 0.72706 0.30084 0.0
C233 C -0.05325 0.72061 0.2186 0.0
C234 C -0.04327 0.73837 0.34782 0.0
C235 C 0.05163 0.74805 0.36306 0.0
C236 C -0.01803 0.72615 0.26914 0.0
C237 C 0.10968 0.74475 0.33035 0.0
C238 C -0.00023 0.7379 0.18639 0.0
C239 C 0.81859 0.70391 0.15711 0.0
N240 N 0.0738 0.73467 0.28501 0.0
N241 N 0.85883 0.70294 0.20284 0.0
H242 H 0.89841 0.21634 0.3534 0.0
H243 H 0.93852 0.38997 0.12716 0.0
H244 H 0.88648 0.39064 0.34822 0.0
H245 H -0.05116 0.21559 0.13093 0.0
H246 H 0.91367 0.39068 0.20719 0.0
H247 H 0.91782 0.21484 0.27228 0.0
C248 C 0.90143 0.25433 0.33543 0.0
C249 C 0.89136 0.30371 0.35769 0.0
C250 C 0.92038 0.35217 0.19043 0.0
C251 C 0.91149 0.30234 0.26447 0.0
C252 C 0.93363 0.35176 0.14452 0.0
C253 C -0.05466 0.30265 0.12223 0.0
C254 C 0.9193 0.3031 0.21449 0.0
C255 C 0.9395 0.25438 0.14665 0.0
C256 C 0.91161 0.25345 0.28896 0.0
C257 C 0.89453 0.35167 0.33251 0.0
N258 N 0.9276 0.25582 0.19153 0.0
N259 N 0.90394 0.34978 0.28731 0.0
H260 H 0.76029 0.39279 0.646 0.0
H261 H 0.18553 0.29903 0.84148 0.0
H262 H -0.00386 0.30448 0.61764 0.0
H263 H 0.91998 0.3457 0.87095 0.0
H264 H 0.12884 0.31838 0.76012 0.0
H265 H 0.833 0.39588 0.72827 0.0
C266 C 0.8286 0.37515 0.65699 0.0
C267 C 0.87186 0.34745 0.62522 0.0
C268 C 0.08294 0.32467 0.78427 0.0
C269 C -0.0456 0.35041 0.71919 0.0
C270 C 0.11503 0.31365 0.83099 0.0
C271 C 0.0571 0.32065 0.86336 0.0
C272 C -0.00792 0.34298 0.76931 0.0
C273 C -0.0334 0.33938 0.8472 0.0
C274 C 0.86951 0.37663 0.70398 0.0
C275 C -0.0395 0.32605 0.64105 0.0
N276 N 0.93664 0.34987 0.80107 0.0
N277 N -0.00158 0.32725 0.68726 0.0
H278 H 0.93923 0.68777 0.62434 0.0
H279 H 0.91295 0.85483 0.8567 0.0
H280 H -0.03798 0.86156 0.63414 0.0
H281 H 0.88729 0.68127 0.84524 0.0
H282 H 0.93262 0.85845 0.7757 0.0
H283 H 0.91493 0.68509 0.70441 0.0
C284 C 0.93725 0.72549 0.64305 0.0
C285 C -0.04775 0.77497 0.62244 0.0
C286 C 0.92339 0.81952 0.79098 0.0
C287 C 0.92688 0.77219 0.71474 0.0
C288 C 0.9131 0.8174 0.83738 0.0
C289 C 0.89902 0.76763 0.85783 0.0
C290 C 0.91936 0.77151 0.76474 0.0
C291 C 0.89851 0.72048 0.83096 0.0
C292 C 0.92428 0.72392 0.68898 0.0
C293 C -0.04996 0.82254 0.64855 0.0
N294 N 0.9081 0.7236 0.78585 0.0
N295 N 0.93838 0.81995 0.69341 0.0
loop_
_geom_bond_atom_site_label_1
_geom_bond_atom_site_label_2
_geom_bond_distance
_geom_bond_site_symmetry_2
_ccdc_geom_bond_type
Dy0 O4 2.398 . S
Dy0 O5 2.491 . S
Dy0 O6 2.403 . S
Dy0 O7 2.664 1_554 S
Dy0 O11 2.326 . S
Dy0 O15 2.310 . S
Dy0 O16 2.351 1_554 S
C1 O12 1.185 . S
C1 O13 1.355 . S
C2 O4 1.185 . S
C2 O5 1.355 . S
Dy3 O7 2.310 . S
Dy3 O10 2.351 1_556 S
Dy3 O12 2.398 . S
Dy3 O13 2.491 . S
Dy3 O14 2.403 . S
Dy3 O15 2.664 1_556 S
Dy3 O17 2.326 . S
O4 Dy0 2.398 . S
O4 C2 1.185 . S
O5 Dy0 2.491 . S
O5 C2 1.355 . S
O6 Dy0 2.403 . S
O6 C8 1.254 . S
O7 Dy0 2.664 1_556 S
O7 Dy3 2.310 . S
O7 C8 1.268 1_556 S
C8 O6 1.254 . S
C8 O7 1.268 1_554 S
C9 O14 1.254 . S
C9 O15 1.268 1_556 S
O10 Dy3 2.351 1_554 S
O10 C18 1.249 . S
O11 Dy0 2.326 . S
O11 C18 1.267 . S
O12 C1 1.185 . S
O12 Dy3 2.398 . S
O13 C1 1.355 . S
O13 Dy3 2.491 . S
O14 Dy3 2.403 . S
O14 C9 1.254 . S
O15 Dy0 2.310 . S
O15 Dy3 2.664 1_554 S
O15 C9 1.268 1_554 S
O16 Dy0 2.351 1_556 S
O16 C19 1.249 . S
O17 Dy3 2.326 . S
O17 C19 1.267 . S
C18 O10 1.249 . S
C18 O11 1.267 . S
C19 O16 1.249 . S
C19 O17 1.267 . S
Dy20 O24 2.398 . S
Dy20 O25 2.491 . S
Dy20 O26 2.403 . S
Dy20 O27 2.664 1_554 S
Dy20 O31 2.326 . S
Dy20 O35 2.310 . S
Dy20 O36 2.351 1_554 S
C21 O32 1.185 . S
C21 O33 1.355 . S
C22 O24 1.185 . S
C22 O25 1.355 . S
Dy23 O27 2.310 . S
Dy23 O30 2.351 1_556 S
Dy23 O32 2.398 . S
Dy23 O33 2.491 . S
Dy23 O34 2.403 . S
Dy23 O35 2.664 1_556 S
Dy23 O37 2.326 . S
O24 Dy20 2.398 . S
O24 C22 1.185 . S
O25 Dy20 2.491 . S
O25 C22 1.355 . S
O26 Dy20 2.403 . S
O26 C28 1.254 . S
O27 Dy20 2.664 1_556 S
O27 Dy23 2.310 . S
O27 C28 1.268 1_556 S
C28 O26 1.254 . S
C28 O27 1.268 1_554 S
C29 O34 1.254 . S
C29 O35 1.268 1_556 S
O30 Dy23 2.351 1_554 S
O30 C38 1.249 . S
O31 Dy20 2.326 . S
O31 C38 1.267 . S
O32 C21 1.185 . S
O32 Dy23 2.398 . S
O33 C21 1.355 . S
O33 Dy23 2.491 . S
O34 Dy23 2.403 . S
O34 C29 1.254 . S
O35 Dy20 2.310 . S
O35 Dy23 2.664 1_554 S
O35 C29 1.268 1_554 S
O36 Dy20 2.351 1_556 S
O36 C39 1.249 . S
O37 Dy23 2.326 . S
O37 C39 1.267 . S
C38 O30 1.249 . S
C38 O31 1.267 . S
C39 O36 1.249 . S
C39 O37 1.267 . S
Dy40 O44 2.398 . S
Dy40 O45 2.491 . S
Dy40 O46 2.403 . S
Dy40 O47 2.664 . S
Dy40 O51 2.326 . S
Dy40 O55 2.310 . S
Dy40 O56 2.351 . S
C41 O52 1.185 . S
C41 O53 1.355 . S
C42 O44 1.185 . S
C42 O45 1.355 . S
Dy43 O47 2.310 . S
Dy43 O50 2.351 . S
Dy43 O52 2.398 . S
Dy43 O53 2.491 . S
Dy43 O54 2.403 . S
Dy43 O55 2.664 . S
Dy43 O57 2.326 . S
O44 Dy40 2.398 . S
O44 C42 1.185 . S
O45 Dy40 2.491 . S
O45 C42 1.355 . S
O46 Dy40 2.403 . S
O46 C48 1.254 . S
O47 Dy40 2.664 . S
O47 Dy43 2.310 . S
O47 C48 1.268 . S
C48 O46 1.254 . S
C48 O47 1.268 . S
C49 O54 1.254 . S
C49 O55 1.268 . S
O50 Dy43 2.351 . S
O50 C58 1.249 . S
O51 Dy40 2.326 . S
O51 C58 1.267 . S
O52 C41 1.185 . S
O52 Dy43 2.398 . S
O53 C41 1.355 . S
O53 Dy43 2.491 . S
O54 Dy43 2.403 . S
O54 C49 1.254 . S
O55 Dy40 2.310 . S
O55 Dy43 2.664 . S
O55 C49 1.268 . S
O56 Dy40 2.351 . S
O56 C59 1.249 . S
O57 Dy43 2.326 . S
O57 C59 1.267 . S
C58 O50 1.249 . S
C58 O51 1.267 . S
C59 O56 1.249 . S
C59 O57 1.267 . S
Dy60 O64 2.398 . S
Dy60 O65 2.491 . S
Dy60 O66 2.403 . S
Dy60 O67 2.664 . S
Dy60 O71 2.326 . S
Dy60 O75 2.310 . S
Dy60 O76 2.351 . S
C61 O72 1.185 . S
C61 O73 1.355 . S
C62 O64 1.185 . S
C62 O65 1.355 . S
Dy63 O67 2.310 . S
Dy63 O70 2.351 . S
Dy63 O72 2.398 . S
Dy63 O73 2.491 . S
Dy63 O74 2.403 . S
Dy63 O75 2.664 . S
Dy63 O77 2.326 . S
O64 Dy60 2.398 . S
O64 C62 1.185 . S
O65 Dy60 2.491 . S
O65 C62 1.355 . S
O66 Dy60 2.403 . S
O66 C68 1.254 . S
O67 Dy60 2.664 . S
O67 Dy63 2.310 . S
O67 C68 1.268 . S
C68 O66 1.254 . S
C68 O67 1.268 . S
C69 O74 1.254 . S
C69 O75 1.268 . S
O70 Dy63 2.351 . S
O70 C78 1.249 . S
O71 Dy60 2.326 . S
O71 C78 1.267 . S
O72 C61 1.185 . S
O72 Dy63 2.398 . S
O73 C61 1.355 . S
O73 Dy63 2.491 . S
O74 Dy63 2.403 . S
O74 C69 1.254 . S
O75 Dy60 2.310 . S
O75 Dy63 2.664 . S
O75 C69 1.268 . S
O76 Dy60 2.351 . S
O76 C79 1.249 . S
O77 Dy63 2.326 . S
O77 C79 1.267 . S
C78 O70 1.249 . S
C78 O71 1.267 . S
C79 O76 1.249 . S
C79 O77 1.267 . S
H80 C86 0.930 . S
H81 C90 0.930 . S
H82 C95 0.929 . S
H83 C93 0.929 . S
H84 C88 0.929 . S
H85 C94 0.929 . S
C86 H80 0.930 . S
C86 C87 1.353 1_556 S
C86 C94 1.378 . S
C87 C86 1.353 1_554 S
C87 C95 1.450 . S
C88 H84 0.929 . S
C88 C90 1.378 . S
C88 C92 1.350 . S
C89 C92 1.462 1_556 S
C89 C94 1.354 . S
C89 N97 1.424 1_556 S
C90 H81 0.930 . S
C90 C88 1.378 . S
C90 C91 1.383 . S
C91 C90 1.383 . S
C91 C93 1.414 1_554 S
C92 C88 1.350 . S
C92 C89 1.462 1_554 S
C92 N96 1.427 1_554 S
C93 H83 0.929 . S
C93 C91 1.414 1_556 S
C93 N96 1.384 . S
C94 H85 0.929 . S
C94 C86 1.378 . S
C94 C89 1.354 . S
C95 H82 0.929 . S
C95 C87 1.450 . S
C95 N97 1.384 . S
N96 C92 1.427 1_556 S
N96 C93 1.384 . S
N97 C89 1.424 1_554 S
N97 C95 1.384 . S
H98 C104 0.930 . S
H99 C108 0.930 . S
H100 C113 0.929 . S
H101 C111 0.929 . S
H102 C106 0.929 . S
H103 C112 0.929 . S
C104 H98 0.930 . S
C104 C105 1.367 . S
C104 C112 1.378 . S
C105 C104 1.367 . S
C105 C113 1.433 . S
C106 H102 0.929 . S
C106 C108 1.378 . S
C106 C110 1.350 . S
C107 C110 1.463 . S
C107 C112 1.350 . S
C107 N115 1.427 . S
C108 H99 0.930 . S
C108 C106 1.378 . S
C108 C109 1.367 . S
C109 C108 1.367 . S
C109 C111 1.433 . S
C110 C106 1.350 . S
C110 C107 1.463 . S
C110 N114 1.427 . S
C111 H101 0.929 . S
C111 C109 1.433 . S
C111 N114 1.384 . S
C112 H103 0.929 . S
C112 C104 1.378 . S
C112 C107 1.350 . S
C113 H100 0.929 . S
C113 C105 1.433 . S
C113 N115 1.384 . S
N114 C110 1.427 . S
N114 C111 1.384 . S
N115 C107 1.427 . S
N115 C113 1.384 . S
H116 C122 0.930 1_655 S
H117 C126 0.930 1_455 S
H118 C131 0.929 . S
H119 C129 0.929 . S
H120 C124 0.929 . S
H121 C130 0.929 . S
C122 H116 0.930 1_455 S
C122 C123 1.367 1_556 S
C122 C130 1.378 1_455 S
C123 C122 1.367 1_554 S
C123 C131 1.433 . S
C124 H120 0.929 . S
C124 C126 1.378 1_455 S
C124 C128 1.350 1_455 S
C125 C128 1.464 1_445 S
C125 C130 1.348 1_454 S
C125 N133 1.428 . S
C126 H117 0.930 1_655 S
C126 C124 1.378 1_655 S
C126 C127 1.367 . S
C127 C126 1.367 . S
C127 C129 1.432 1_554 S
C128 C124 1.350 1_655 S
C128 C125 1.464 1_665 S
C128 N132 1.427 1_554 S
C129 H119 0.929 . S
C129 C127 1.432 1_556 S
C129 N132 1.384 . S
C130 H121 0.929 . S
C130 C122 1.378 1_655 S
C130 C125 1.348 1_656 S
C131 H118 0.929 . S
C131 C123 1.433 . S
C131 N133 1.384 . S
N132 C128 1.427 1_556 S
N132 C129 1.384 . S
N133 C125 1.428 . S
N133 C131 1.384 . S
H134 C140 0.930 . S
H135 C144 0.930 . S
H136 C149 0.929 . S
H137 C147 0.929 . S
H138 C142 0.929 . S
H139 C148 0.929 . S
C140 H134 0.930 . S
C140 C141 1.367 . S
C140 C148 1.378 . S
C141 C140 1.367 . S
C141 C149 1.433 . S
C142 H138 0.929 . S
C142 C144 1.378 . S
C142 C146 1.350 . S
C143 C146 1.463 1_645 S
C143 C148 1.350 . S
C143 N151 1.427 . S
C144 H135 0.930 . S
C144 C142 1.378 . S
C144 C145 1.367 . S
C145 C144 1.367 . S
C145 C147 1.433 . S
C146 C142 1.350 . S
C146 C143 1.463 1_465 S
C146 N150 1.427 . S
C147 H137 0.929 . S
C147 C145 1.433 . S
C147 N150 1.384 . S
C148 H139 0.929 . S
C148 C140 1.378 . S
C148 C143 1.350 . S
C149 H136 0.929 . S
C149 C141 1.433 . S
C149 N151 1.384 . S
N150 C146 1.427 . S
N150 C147 1.384 . S
N151 C143 1.427 . S
N151 C149 1.384 . S
H152 C158 0.930 . S
H153 C162 0.930 . S
H154 C167 0.929 . S
H155 C165 0.929 . S
H156 C160 0.929 . S
H157 C166 0.929 . S
C158 H152 0.930 . S
C158 C159 1.367 . S
C158 C166 1.378 . S
C159 C158 1.367 . S
C159 C167 1.433 . S
C160 H156 0.929 . S
C160 C162 1.378 . S
C160 C164 1.350 . S
C161 C164 1.463 . S
C161 C166 1.350 . S
C161 N169 1.427 . S
C162 H153 0.930 . S
C162 C160 1.378 . S
C162 C163 1.367 . S
C163 C162 1.367 . S
C163 C165 1.433 . S
C164 C160 1.350 . S
C164 C161 1.463 . S
C164 N168 1.427 . S
C165 H155 0.929 . S
C165 C163 1.433 . S
C165 N168 1.384 . S
C166 H157 0.929 . S
C166 C158 1.378 . S
C166 C161 1.350 . S
C167 H154 0.929 . S
C167 C159 1.433 . S
C167 N169 1.384 . S
N168 C164 1.427 . S
N168 C165 1.384 . S
N169 C161 1.427 . S
N169 C167 1.384 . S
H170 C176 0.930 . S
H171 C180 0.930 . S
H172 C185 0.929 . S
H173 C183 0.929 . S
H174 C178 0.929 . S
H175 C184 0.929 . S
C176 H170 0.930 . S
C176 C177 1.367 . S
C176 C184 1.378 . S
C177 C176 1.367 . S
C177 C185 1.433 . S
C178 H174 0.929 . S
C178 C180 1.378 . S
C178 C182 1.350 . S
C179 C182 1.463 . S
C179 C184 1.350 . S
C179 N187 1.427 . S
C180 H171 0.930 . S
C180 C178 1.378 . S
C180 C181 1.367 . S
C181 C180 1.367 . S
C181 C183 1.433 . S
C182 C178 1.350 . S
C182 C179 1.463 . S
C182 N186 1.427 . S
C183 H173 0.929 . S
C183 C181 1.433 . S
C183 N186 1.384 . S
C184 H175 0.929 . S
C184 C176 1.378 . S
C184 C179 1.350 . S
C185 H172 0.929 . S
C185 C177 1.433 . S
C185 N187 1.384 . S
N186 C182 1.427 . S
N186 C183 1.384 . S
N187 C179 1.427 . S
N187 C185 1.384 . S
H188 C194 0.930 . S
H189 C198 0.930 . S
H190 C203 0.929 . S
H191 C201 0.929 . S
H192 C196 0.929 . S
H193 C202 0.929 . S
C194 H188 0.930 . S
C194 C195 1.367 . S
C194 C202 1.378 . S
C195 C194 1.367 . S
C195 C203 1.433 . S
C196 H192 0.929 . S
C196 C198 1.378 . S
C196 C200 1.350 . S
C197 C200 1.463 . S
C197 C202 1.350 . S
C197 N205 1.427 . S
C198 H189 0.930 . S
C198 C196 1.378 . S
C198 C199 1.367 . S
C199 C198 1.367 . S
C199 C201 1.433 . S
C200 C196 1.350 . S
C200 C197 1.463 . S
C200 N204 1.427 . S
C201 H191 0.929 . S
C201 C199 1.433 . S
C201 N204 1.384 . S
C202 H193 0.929 . S
C202 C194 1.378 . S
C202 C197 1.350 . S
C203 H190 0.929 . S
C203 C195 1.433 . S
C203 N205 1.384 . S
N204 C200 1.427 . S
N204 C201 1.384 . S
N205 C197 1.427 . S
N205 C203 1.384 . S
H206 C212 0.930 . S
H207 C216 0.930 . S
H208 C221 0.929 . S
H209 C219 0.929 . S
H210 C214 0.929 . S
H211 C220 0.929 . S
C212 H206 0.930 . S
C212 C213 1.367 . S
C212 C220 1.378 . S
C213 C212 1.367 . S
C213 C221 1.433 . S
C214 H210 0.929 . S
C214 C216 1.378 . S
C214 C218 1.350 . S
C215 C218 1.463 . S
C215 C220 1.350 . S
C215 N223 1.427 . S
C216 H207 0.930 . S
C216 C214 1.378 . S
C216 C217 1.367 . S
C217 C216 1.367 . S
C217 C219 1.433 . S
C218 C214 1.350 . S
C218 C215 1.463 . S
C218 N222 1.427 . S
C219 H209 0.929 . S
C219 C217 1.433 . S
C219 N222 1.384 . S
C220 H211 0.929 . S
C220 C212 1.378 . S
C220 C215 1.350 . S
C221 H208 0.929 . S
C221 C213 1.433 . S
C221 N223 1.384 . S
N222 C218 1.427 . S
N222 C219 1.384 . S
N223 C215 1.427 . S
N223 C221 1.384 . S
H224 C230 0.930 . S
H225 C234 0.930 . S
H226 C239 0.929 . S
H227 C237 0.929 . S
H228 C232 0.929 . S
H229 C238 0.929 . S
C230 H224 0.930 . S
C230 C231 1.367 1_455 S
C230 C238 1.378 . S
C231 C230 1.367 1_655 S
C231 C239 1.433 . S
C232 H228 0.929 . S
C232 C234 1.378 . S
C232 C236 1.350 1_655 S
C233 C236 1.463 1_655 S
C233 C238 1.350 1_655 S
C233 N241 1.427 . S
C234 H225 0.930 . S
C234 C232 1.378 . S
C234 C235 1.367 1_655 S
C235 C234 1.367 1_455 S
C235 C237 1.433 . S
C236 C232 1.350 1_455 S
C236 C233 1.463 1_455 S
C236 N240 1.427 . S
C237 H227 0.929 . S
C237 C235 1.433 . S
C237 N240 1.384 . S
C238 H229 0.929 . S
C238 C230 1.378 . S
C238 C233 1.350 1_455 S
C239 H226 0.929 . S
C239 C231 1.433 . S
C239 N241 1.384 . S
N240 C236 1.427 . S
N240 C237 1.384 . S
N241 C233 1.427 . S
N241 C239 1.384 . S
H242 C248 0.930 . S
H243 C252 0.930 . S
H244 C257 0.929 . S
H245 C255 0.929 . S
H246 C250 0.929 1_655 S
H247 C256 0.929 1_455 S
C248 H242 0.930 . S
C248 C249 1.367 . S
C248 C256 1.378 . S
C249 C248 1.367 . S
C249 C257 1.433 . S
C250 H246 0.929 1_455 S
C250 C252 1.378 . S
C250 C254 1.350 . S
C251 C254 1.463 1_655 S
C251 C256 1.350 . S
C251 N259 1.427 . S
C252 H243 0.930 . S
C252 C250 1.378 . S
C252 C253 1.367 . S
C253 C252 1.367 . S
C253 C255 1.433 . S
C254 C250 1.350 . S
C254 C251 1.463 1_455 S
C254 N258 1.427 . S
C255 H245 0.929 . S
C255 C253 1.433 . S
C255 N258 1.384 . S
C256 H247 0.929 1_655 S
C256 C248 1.378 . S
C256 C251 1.350 . S
C257 H244 0.929 . S
C257 C249 1.433 . S
C257 N259 1.384 . S
N258 C254 1.427 . S
N258 C255 1.384 . S
N259 C251 1.427 . S
N259 C257 1.384 . S
H260 C266 0.930 . S
H261 C270 0.930 . S
H262 C275 0.929 1_455 S
H263 C273 0.929 1_655 S
H264 C268 0.929 . S
H265 C274 0.929 . S
C266 H260 0.930 . S
C266 C267 1.367 . S
C266 C274 1.378 . S
C267 C266 1.367 . S
C267 C275 1.433 . S
C268 H264 0.929 . S
C268 C270 1.378 . S
C268 C272 1.350 . S
C269 C272 1.463 1_655 S
C269 C274 1.350 . S
C269 N277 1.427 1_655 S
C270 H261 0.930 . S
C270 C268 1.378 . S
C270 C271 1.367 . S
C271 C270 1.367 . S
C271 C273 1.433 . S
C272 C268 1.350 . S
C272 C269 1.463 1_455 S
C272 N276 1.427 1_455 S
C273 H263 0.929 1_455 S
C273 C271 1.433 . S
C273 N276 1.384 1_455 S
C274 H265 0.929 . S
C274 C266 1.378 . S
C274 C269 1.350 . S
C275 H262 0.929 1_655 S
C275 C267 1.433 . S
C275 N277 1.384 1_655 S
N276 C272 1.427 1_655 S
N276 C273 1.384 1_655 S
N277 C269 1.427 1_455 S
N277 C275 1.384 1_455 S
H278 C284 0.930 . S
H279 C288 0.930 . S
H280 C293 0.929 . S
H281 C291 0.929 . S
H282 C286 0.929 . S
H283 C292 0.929 . S
C284 H278 0.930 . S
C284 C285 1.367 . S
C284 C292 1.378 . S
C285 C284 1.367 . S
C285 C293 1.433 . S
C286 H282 0.929 . S
C286 C288 1.378 . S
C286 C290 1.350 . S
C287 C290 1.463 1_455 S
C287 C292 1.350 . S
C287 N295 1.427 . S
C288 H279 0.930 . S
C288 C286 1.378 . S
C288 C289 1.367 . S
C289 C288 1.367 . S
C289 C291 1.433 . S
C290 C286 1.350 . S
C290 C287 1.463 1_655 S
C290 N294 1.427 . S
C291 H281 0.929 . S
C291 C289 1.433 . S
C291 N294 1.384 . S
C292 H283 0.929 . S
C292 C284 1.378 . S
C292 C287 1.350 . S
C293 H280 0.929 . S
C293 C285 1.433 . S
C293 N295 1.384 . S
N294 C290 1.427 . S
N294 C291 1.384 . S
N295 C287 1.427 . S
N295 C293 1.384 . S
C87 C29 1.517 1_554 S
C91 C8 1.526 . S
C105 C49 1.522 . S
C109 C68 1.522 . S
C123 C9 1.527 1_554 S
C127 C28 1.529 . S
C141 C69 1.521 . S
C145 C48 1.521 . S
C159 C78 1.234 . S
C163 C18 1.244 . S
C177 C22 1.189 . S
C181 C42 1.189 . S
C195 C39 1.239 . S
C199 C59 1.241 . S
C213 C61 1.188 . S
C217 C1 1.188 . S
C231 C38 1.238 . S
C235 C58 1.242 . S
C249 C62 1.188 . S
C253 C2 1.188 . S
C267 C79 1.242 . S
C271 C19 1.235 . S
C285 C41 1.189 . S
C289 C21 1.188 . S
