# Generated by pormake.
# Topology wkb, (5)-cn, num edge types: 1
# Building blocks:
#     Node 0, Type 0, BuildingBlock: XOMCOT_clean_sbu_1, # of connection points: 5
#     Node 1, Type 0, BuildingBlock: XOMCOT_clean_sbu_1, # of connection points: 5
#     Node 2, Type 0, BuildingBlock: XOMCOT_clean_sbu_1, # of connection points: 5
#     Node 3, Type 0, BuildingBlock: XOMCOT_clean_sbu_1, # of connection points: 5
#     Node 4, Type 0, BuildingBlock: XOMCOT_clean_sbu_1, # of connection points: 5
#     Node 5, Type 0, BuildingBlock: XOMCOT_clean_sbu_1, # of connection points: 5
#     Node 6, Type 0, BuildingBlock: XOMCOT_clean_sbu_1, # of connection points: 5
#     Node 7, Type 0, BuildingBlock: XOMCOT_clean_sbu_1, # of connection points: 5
#     Node 8, Type 0, BuildingBlock: XOMCOT_clean_sbu_1, # of connection points: 5
#     Node 9, Type 0, BuildingBlock: XOMCOT_clean_sbu_1, # of connection points: 5
#     Node 10, Type 0, BuildingBlock: XOMCOT_clean_sbu_1, # of connection points: 5
#     Node 11, Type 0, BuildingBlock: XOMCOT_clean_sbu_1, # of connection points: 5
#     Edge 12, Type (0, 0), BuildingBlock: XIVTED_clean_linker_0, # of connection points: 2
#     Edge 13, Type (0, 0), BuildingBlock: XIVTED_clean_linker_0, # of connection points: 2
#     Edge 14, Type (0, 0), BuildingBlock: XIVTED_clean_linker_0, # of connection points: 2
#     Edge 15, Type (0, 0), BuildingBlock: XIVTED_clean_linker_0, # of connection points: 2
#     Edge 16, Type (0, 0), BuildingBlock: XIVTED_clean_linker_0, # of connection points: 2
#     Edge 17, Type (0, 0), BuildingBlock: XIVTED_clean_linker_0, # of connection points: 2
#     Edge 18, Type (0, 0), BuildingBlock: XIVTED_clean_linker_0, # of connection points: 2
#     Edge 19, Type (0, 0), BuildingBlock: XIVTED_clean_linker_0, # of connection points: 2
#     Edge 20, Type (0, 0), BuildingBlock: XIVTED_clean_linker_0, # of connection points: 2
#     Edge 21, Type (0, 0), BuildingBlock: XIVTED_clean_linker_0, # of connection points: 2
#     Edge 22, Type (0, 0), BuildingBlock: XIVTED_clean_linker_0, # of connection points: 2
#     Edge 23, Type (0, 0), BuildingBlock: XIVTED_clean_linker_0, # of connection points: 2
#     Edge 24, Type (0, 0), BuildingBlock: XIVTED_clean_linker_0, # of connection points: 2
#     Edge 25, Type (0, 0), BuildingBlock: XIVTED_clean_linker_0, # of connection points: 2
#     Edge 26, Type (0, 0), BuildingBlock: XIVTED_clean_linker_0, # of connection points: 2
#     Edge 27, Type (0, 0), BuildingBlock: XIVTED_clean_linker_0, # of connection points: 2
#     Edge 28, Type (0, 0), BuildingBlock: XIVTED_clean_linker_0, # of connection points: 2
#     Edge 29, Type (0, 0), BuildingBlock: XIVTED_clean_linker_0, # of connection points: 2
#     Edge 30, Type (0, 0), BuildingBlock: XIVTED_clean_linker_0, # of connection points: 2
#     Edge 31, Type (0, 0), BuildingBlock: XIVTED_clean_linker_0, # of connection points: 2
#     Edge 32, Type (0, 0), BuildingBlock: XIVTED_clean_linker_0, # of connection points: 2
#     Edge 33, Type (0, 0), BuildingBlock: XIVTED_clean_linker_0, # of connection points: 2
#     Edge 34, Type (0, 0), BuildingBlock: XIVTED_clean_linker_0, # of connection points: 2
#     Edge 35, Type (0, 0), BuildingBlock: XIVTED_clean_linker_0, # of connection points: 2
#     Edge 36, Type (0, 0), BuildingBlock: XIVTED_clean_linker_0, # of connection points: 2
#     Edge 37, Type (0, 0), BuildingBlock: XIVTED_clean_linker_0, # of connection points: 2
#     Edge 38, Type (0, 0), BuildingBlock: XIVTED_clean_linker_0, # of connection points: 2
#     Edge 39, Type (0, 0), BuildingBlock: XIVTED_clean_linker_0, # of connection points: 2
#     Edge 40, Type (0, 0), BuildingBlock: XIVTED_clean_linker_0, # of connection points: 2
#     Edge 41, Type (0, 0), BuildingBlock: XIVTED_clean_linker_0, # of connection points: 2
# Relax obj value: 0.068
# Max RMSD: 0.105
# Mean RMSD: 0.105
data_MOF--net-wkb--node1-XOMCOT_clean_sbu_1--edge1-XIVTED_clean_linker_0
_symmetry_space_group_name_H-M    P1
_symmetry_Int_Tables_number       1
_symmetry_cell_setting            triclinic
loop_
_symmetry_equiv_pos_as_xyz
'x, y, z'
_cell_length_a     46.415264
_cell_length_b     46.455872
_cell_length_c     37.621285
_cell_angle_alpha  89.948142
_cell_angle_beta   89.969078
_cell_angle_gamma 119.95229
loop_
_atom_site_label
_atom_site_type_symbol
_atom_site_fract_x
_atom_site_fract_y
_atom_site_fract_z
_atom_type_partial_charge
C0 C 0.08896 0.38582 0.00795 0.0
C1 C 0.08413 0.3887 0.97265 0.0
N2 N 0.0696 0.35818 0.95814 0.0
N3 N 0.07696 0.35355 0.0162 0.0
C4 C 0.06614 0.33727 0.98495 0.0
H5 H 0.10126 0.40622 0.02642 0.0
Co6 Co 0.08279 0.34166 0.06173 0.0
C7 C 1.0118 0.2792 0.04981 0.0
O8 O 1.0034 0.28437 0.01813 0.0
N9 N 0.08967 0.33107 0.10735 0.0
C10 C 0.08222 0.31816 0.16466 0.0
C11 C 0.06814 0.32263 0.13472 0.0
C12 C 0.11681 0.33185 0.12132 0.0
N13 N 0.11288 0.32394 0.15626 0.0
O14 O 0.10421 0.31875 0.0411 0.0
H15 H 0.04386 0.32047 0.13315 0.0
H16 H 0.13903 0.3383 0.10617 0.0
O17 O 0.03977 0.30034 0.06323 0.0
C18 C 0.13334 0.3398 0.03015 0.0
O19 O 0.14476 0.37132 0.03757 0.0
N20 N 0.0642 0.36646 0.0807 0.0
C21 C 0.04887 0.41646 0.09405 0.0
C22 C 1.02611 0.38714 0.0765 0.0
C23 C 0.03419 0.3623 0.0702 0.0
C24 C 0.08579 0.39392 0.09954 0.0
C25 C 0.07847 0.41907 0.10682 0.0
H26 H 1.01758 0.3412 0.05423 0.0
H27 H 0.10992 0.39748 0.10672 0.0
H28 H 0.05659 0.3109 0.98176 0.0
H29 H 0.09157 0.41168 0.95854 0.0
H30 H 0.07102 0.31216 0.19081 0.0
H31 H 1.00295 0.38411 0.06627 0.0
H32 H 0.09695 0.44141 0.12005 0.0
C33 C 0.75238 0.10171 0.16719 0.0
C34 C 0.74747 0.09877 0.13121 0.0
N35 N 0.75015 0.07266 0.1201 0.0
N36 N 0.75778 0.0774 0.17882 0.0
C37 C 0.75679 0.06023 0.14947 0.0
H38 H 0.7518 0.12024 0.18409 0.0
Co39 Co 0.76596 0.07475 0.22625 0.0
C40 C 0.7354 0.99947 0.23132 0.0
O41 O 0.70634 0.99462 0.24159 0.0
N42 N 0.77549 0.07367 0.27451 0.0
C43 C 0.77352 0.06042 0.33171 0.0
C44 C 0.75755 0.05067 0.29952 0.0
C45 C 0.80217 0.0971 0.29226 0.0
N46 N 0.80165 0.08962 0.32696 0.0
O47 O 0.81195 0.09159 0.21331 0.0
H48 H 0.73379 0.0287 0.29522 0.0
H49 H 0.82123 0.11982 0.28033 0.0
O50 O 0.75873 0.02869 0.22282 0.0
C51 C 0.82896 0.12299 0.20869 0.0
O52 O 0.81601 0.14133 0.21819 0.0
N53 N 0.72048 0.06121 0.2368 0.0
C54 C 0.65698 0.05416 0.24422 0.0
C55 C 0.66346 0.03696 0.21771 0.0
C56 C 0.69531 0.04127 0.21406 0.0
C57 C 0.71466 0.07843 0.26256 0.0
C58 C 0.68304 0.0748 0.26714 0.0
H59 H 0.69981 0.02875 0.1924 0.0
H60 H 0.73492 0.09638 0.27873 0.0
H61 H 0.76003 0.03872 0.14974 0.0
H62 H 0.74231 0.11461 0.11446 0.0
H63 H 0.76499 0.04718 0.35666 0.0
H64 H 0.64421 1.02071 0.19937 0.0
H65 H 0.67954 0.08938 0.28733 0.0
C66 C 0.67449 0.73173 0.33264 0.0
C67 C 0.67296 0.7246 0.29722 0.0
N68 N 0.70352 0.73189 0.2864 0.0
N69 N 0.70578 0.74318 0.34434 0.0
C70 C 0.72322 0.74351 0.31542 0.0
H71 H 0.65399 0.72845 0.34917 0.0
Co72 Co 0.71598 0.75531 0.39152 0.0
C73 C 0.76606 0.73173 0.40192 0.0
O74 O 0.74376 0.70323 0.41548 0.0
N75 N 0.72554 0.76845 0.43924 0.0
C76 C 0.73617 0.77078 0.49713 0.0
C77 C 0.73225 0.75353 0.46626 0.0
C78 C 0.72543 0.79468 0.45455 0.0
N79 N 0.73185 0.79674 0.48977 0.0
O80 O 0.74103 0.8013 0.37561 0.0
H81 H 0.73271 0.73064 0.46439 0.0
H82 H 0.72042 0.81181 0.44015 0.0
O83 O 0.75775 0.75263 0.39043 0.0
C84 C 0.72086 0.81136 0.36712 0.0
O85 O 0.68947 0.7927 0.37618 0.0
N86 N 0.68764 0.70977 0.40494 0.0
C87 C 0.63399 0.64486 0.41378 0.0
C88 C 0.65917 0.65176 0.38898 0.0
C89 C 0.6853 0.68425 0.38456 0.0
C90 C 0.66333 0.7034 0.42936 0.0
C91 C 0.6367 0.67114 0.43464 0.0
H92 H 0.70329 0.68907 0.36381 0.0
H93 H 0.66335 0.72365 0.44351 0.0
H94 H 0.74944 0.7513 0.31578 0.0
H95 H 0.65104 0.71481 0.2806 0.0
H96 H 0.74052 0.76384 0.52319 0.0
H97 H 0.65823 0.63235 0.37225 0.0
H98 H 0.61738 0.66722 0.45342 0.0
C99 C 0.96413 0.6657 0.49188 0.0
C100 C 0.96774 0.67007 0.45579 0.0
N101 N 0.99092 0.70189 0.44938 0.0
N102 N 0.98501 0.69462 0.50807 0.0
C103 C 1.00116 0.7163 0.48151 0.0
H104 H 0.94672 0.64316 0.50562 0.0
Co105 Co 0.98339 0.7009 0.55627 0.0
C106 C 0.05782 0.74698 0.56698 0.0
O107 O 0.06286 0.72278 0.57675 0.0
N108 N 0.98057 0.7072 0.60504 0.0
C109 C 0.99 0.71421 0.66322 0.0
C110 C 1.00214 0.71088 0.63116 0.0
C111 C 0.95555 0.7084 0.62197 0.0
N112 N 0.96071 0.71271 0.65733 0.0
O113 O 0.96495 0.72927 0.54484 0.0
H114 H 1.02481 0.71019 0.62762 0.0
H115 H 0.93355 0.70542 0.6088 0.0
O116 O 1.02881 0.74093 0.55729 0.0
C117 C 0.93463 0.71146 0.53528 0.0
O118 O 0.9199 0.67929 0.54113 0.0
N119 N 0.99802 0.66957 0.56511 0.0
C120 C 1.00639 0.61377 0.56945 0.0
C121 C 1.02487 0.63941 0.54518 0.0
C122 C 1.01998 0.66672 0.54306 0.0
C123 C 0.97941 0.64444 0.58843 0.0
C124 C 0.98369 0.61678 0.59155 0.0
H125 H 0.0335 0.6854 0.52302 0.0
H126 H 0.95987 0.64484 0.60367 0.0
H127 H 1.01891 0.74235 0.48558 0.0
H128 H 0.95433 0.65135 0.43577 0.0
H129 H 1.00185 0.71754 0.68884 0.0
H130 H 0.04258 0.63815 0.52743 0.0
H131 H 0.96804 0.59711 0.60986 0.0
C132 C 0.33668 0.96942 0.664 0.0
C133 C 0.3366 0.97222 0.62774 0.0
N134 N 0.31604 0.98371 0.61929 0.0
N135 N 0.31656 0.97952 0.67843 0.0
C136 C 0.30406 0.98782 0.65035 0.0
H137 H 0.34933 0.95907 0.67882 0.0
Co138 Co 0.30295 0.97173 0.72566 0.0
C139 C 0.31025 0.04223 0.71872 0.0
O140 O 0.32091 0.05011 0.68588 0.0
N141 N 0.28925 0.96319 0.77289 0.0
C142 C 0.28773 0.96946 0.8312 0.0
C143 C 0.30475 0.98373 0.80046 0.0
C144 C 0.26293 0.93647 0.78754 0.0
N145 N 0.26131 0.93974 0.82308 0.0
O146 O 0.25712 0.95044 0.70947 0.0
H147 H 0.32721 1.00764 0.79838 0.0
H148 H 0.2451 0.91524 0.77239 0.0
O149 O 0.30438 1.01439 0.73172 0.0
C150 C 0.24935 0.92184 0.69713 0.0
O151 O 0.27049 0.91114 0.70183 0.0
N152 N 0.34761 0.98973 0.73995 0.0
C153 C 0.41341 1.00481 0.74931 0.0
C154 C 0.40618 0.02809 0.73403 0.0
C155 C 0.37298 1.02014 0.72977 0.0
C156 C 0.35425 0.96723 0.75567 0.0
C157 C 0.38692 0.97443 0.76107 0.0
H158 H 0.36775 0.03744 0.71608 0.0
H159 H 0.33401 0.94278 0.76238 0.0
H160 H 0.28492 0.99457 0.65241 0.0
H161 H 0.35015 0.96577 0.60895 0.0
H162 H 0.29467 0.98003 0.85755 0.0
H163 H 0.42595 0.05178 0.72448 0.0
H164 H 0.39132 0.95553 0.7724 0.0
C165 C 0.3877 0.30228 0.82767 0.0
C166 C 0.38366 0.30168 0.79154 0.0
N167 N 0.35268 0.2958 0.78488 0.0
N168 N 0.35947 0.29695 0.84363 0.0
C169 C 0.33847 0.29311 0.81693 0.0
H170 H 0.40948 0.30546 0.8416 0.0
Co171 Co 0.35291 0.28974 0.89176 0.0
C172 C 0.30915 0.32091 0.90218 0.0
O173 O 0.33416 0.3495 0.91223 0.0
N174 N 0.34641 0.28108 0.94071 0.0
C175 C 0.33967 0.28341 -0.00098 0.0
C176 C 0.34252 0.29875 0.96691 0.0
C177 C 0.34602 0.2553 0.9577 0.0
N178 N 0.34194 0.25606 0.99312 0.0
O179 O 0.32314 0.24342 0.88077 0.0
H180 H 0.34304 0.32201 0.96347 0.0
H181 H 0.34873 0.23625 0.94441 0.0
O182 O 0.31399 0.29716 0.89246 0.0
C183 C 0.33845 0.22756 0.87411 0.0
O184 O 0.37056 0.24219 0.88023 0.0
N185 N 0.38554 0.33517 0.90016 0.0
C186 C 0.44282 0.39818 0.90418 0.0
C187 C 0.41727 0.39202 0.88021 0.0
C188 C 0.38929 0.36028 0.87806 0.0
C189 C 0.41046 0.34074 0.92333 0.0
C190 C 0.43897 0.37206 0.92613 0.0
H191 H 0.37081 0.35572 0.858 0.0
H192 H 0.40917 0.32048 0.93873 0.0
H193 H 0.31295 0.28706 0.82085 0.0
H194 H 0.40203 0.30523 0.77166 0.0
H195 H 0.33721 0.29236 0.02476 0.0
H196 H 0.41954 0.41113 0.86202 0.0
H197 H 0.45821 0.37551 0.94477 0.0
C198 C 0.67075 0.95555 0.82859 0.0
C199 C 0.67 0.96134 0.86413 0.0
N200 N 0.70077 0.98468 0.87409 0.0
N201 N 0.70175 0.9754 0.81606 0.0
C202 C 0.71979 0.99265 0.84453 0.0
H203 H 0.64986 0.93843 0.81252 0.0
Co204 Co 0.71114 0.9744 0.76844 0.0
C205 C 0.76207 0.04787 0.75956 0.0
O206 O 0.74004 0.05511 0.74732 0.0
N207 N 0.72001 0.9719 0.72021 0.0
C208 C 0.73014 0.98183 0.66234 0.0
C209 C 0.72605 0.9941 0.69394 0.0
C210 C 0.72059 0.94635 0.70378 0.0
N211 N 0.72674 0.95179 0.66863 0.0
O212 O 0.73595 0.95262 0.78233 0.0
H213 H 0.72629 1.01727 0.69694 0.0
H214 H 0.71568 0.92372 0.71707 0.0
O215 O 0.75326 1.01825 0.76991 0.0
C216 C 0.71585 0.92229 0.79035 0.0
O217 O 0.68437 0.90985 0.78186 0.0
N218 N 0.68311 0.99259 0.75705 0.0
C219 C 0.62982 1.00488 0.75147 0.0
C220 C 0.65547 0.02226 0.77597 0.0
C221 C 0.68151 1.01549 0.77866 0.0
C222 C 0.65833 0.97555 0.73288 0.0
C223 C 0.63188 0.98179 0.72916 0.0
H224 H 0.69992 0.02799 0.79916 0.0
H225 H 0.65782 0.95556 0.7177 0.0
H226 H 0.74587 1.01135 0.84341 0.0
H227 H 0.64844 0.94953 0.88134 0.0
H228 H 0.73511 0.99403 0.63672 0.0
H229 H 0.65492 0.04026 0.79382 0.0
H230 H 0.61215 0.96713 0.71052 0.0
C231 C 0.74292 0.66221 0.9901 0.0
C232 C 0.73602 0.65989 0.02566 0.0
N233 N 0.74163 0.68973 0.03698 0.0
N234 N 0.75251 0.69325 0.97882 0.0
C235 C 0.75197 0.70978 0.00811 0.0
H236 H 0.74103 0.64248 0.97325 0.0
Co237 Co 0.76492 0.70495 0.93192 0.0
C238 C 0.7351 0.75007 0.92281 0.0
O239 O 0.70723 0.72619 0.90973 0.0
N240 N 0.77847 0.71617 0.88463 0.0
C241 C 0.78136 0.72818 0.82707 0.0
C242 C 0.76387 0.72371 0.85796 0.0
C243 C 0.80465 0.71607 0.86917 0.0
N244 N 0.80703 0.72329 0.83413 0.0
O245 O 0.81022 0.73301 0.94845 0.0
H246 H 0.74106 0.72433 0.86002 0.0
H247 H 0.82138 0.7103 0.88329 0.0
O248 O 0.75791 0.74413 0.93353 0.0
C249 C 0.82309 0.71528 0.95709 0.0
O250 O 0.80684 0.68355 0.94893 0.0
N251 N 0.72038 0.67375 0.9175 0.0
C252 C 0.65845 0.6163 0.90643 0.0
C253 C 0.66216 0.63985 0.93195 0.0
C254 C 0.69331 0.66792 0.93755 0.0
C255 C 0.71705 0.65103 0.89239 0.0
C256 C 0.68634 0.62249 0.88612 0.0
H257 H 0.69588 0.68448 0.95904 0.0
H258 H 0.73863 0.65383 0.87839 0.0
H259 H 0.75856 0.73565 0.0082 0.0
H260 H 0.72778 0.63799 0.04206 0.0
H261 H 0.7747 0.73315 0.80116 0.0
H262 H 0.64162 0.63575 0.94898 0.0
H263 H 0.68477 0.60486 0.86632 0.0
C264 C 0.0989 0.72907 0.16479 0.0
C265 C 0.09592 0.73064 0.20089 0.0
N266 N 0.07406 0.74106 0.20729 0.0
N267 N 0.07894 0.73837 0.14859 0.0
C268 C 0.06399 0.7455 0.17514 0.0
H269 H 0.11524 0.72245 0.15104 0.0
Co270 Co 0.08024 0.74557 0.10026 0.0
C271 C 1.00653 0.72215 0.09097 0.0
O272 O 0.99905 0.69195 0.0821 0.0
N273 N 0.08277 0.75397 0.05129 0.0
C274 C 0.07255 0.75153 0.99325 0.0
C275 C 0.0603 0.73676 0.02563 0.0
C276 C 0.10839 0.77905 0.03378 0.0
N277 N 0.10277 0.7782 -0.00148 0.0
O278 O 0.10185 0.79281 0.11082 0.0
H279 H 0.03681 0.71439 0.02977 0.0
H280 H 0.13108 0.79733 0.04648 0.0
O281 O 0.03636 0.74373 0.09977 0.0
C282 C 0.13211 0.80329 0.11949 0.0
O283 O 0.14462 0.78396 0.11278 0.0
N284 N 0.0624 0.69893 0.09233 0.0
C285 C 0.04995 0.63322 0.08986 0.0
C286 C 0.0332 0.64253 0.11417 0.0
C287 C 0.04003 0.67544 0.11526 0.0
C288 C 0.07921 0.69022 0.06882 0.0
C289 C 0.07283 0.65747 0.06659 0.0
H290 H 1.02785 0.68224 0.13535 0.0
H291 H 0.09904 0.70899 0.05279 0.0
H292 H 0.04719 0.75501 0.17103 0.0
H293 H 0.10879 0.72458 0.22092 0.0
H294 H 0.06009 0.74341 0.96787 0.0
H295 H 1.01549 0.6247 0.13282 0.0
H296 H 0.08713 0.65166 0.04816 0.0
C297 C 0.38114 0.08698 0.33335 0.0
C298 C 0.3764 0.08226 0.36933 0.0
N299 N 0.34516 0.05734 0.37496 0.0
N300 N 0.35302 0.06508 0.31651 0.0
C301 C 0.33144 0.04715 0.34253 0.0
H302 H 0.40325 0.1059 0.32017 0.0
Co303 Co 0.34716 0.06773 0.26845 0.0
C304 C 0.30331 0.99305 0.25621 0.0
O305 O 0.32845 0.98902 0.24777 0.0
N306 N 0.34119 0.07163 0.21991 0.0
C307 C 0.33433 0.06358 0.16155 0.0
C308 C 0.33649 0.05019 0.1933 0.0
C309 C 0.34183 0.09782 0.20361 0.0
N310 N 0.33766 0.09354 0.16816 0.0
O311 O 0.31722 0.08402 0.28043 0.0
H312 H 0.33578 0.02678 0.19629 0.0
H313 H 0.3463 0.12012 0.21727 0.0
O314 O 0.30823 0.02165 0.26587 0.0
C315 C 0.33286 0.11465 0.28931 0.0
O316 O 0.36522 0.13154 0.28467 0.0
N317 N 0.38003 0.05517 0.25893 0.0
C318 C 0.43751 0.04967 0.25316 0.0
C319 C 0.41243 0.0303 0.27766 0.0
C320 C 0.38427 0.03379 0.28051 0.0
C321 C 0.40464 0.07466 0.23545 0.0
C322 C 0.43311 0.07184 0.23165 0.0
H323 H 0.36602 1.01953 0.30066 0.0
H324 H 0.40322 0.09383 0.2206 0.0
H325 H 0.30584 0.02825 0.33794 0.0
H326 H 0.39433 0.09626 0.38984 0.0
H327 H 0.33072 0.05218 0.13564 0.0
H328 H 0.41472 1.01293 0.29499 0.0
H329 H 0.45229 0.08819 0.21323 0.0
C330 C 0.32783 0.37859 0.49887 0.0
C331 C 0.32724 0.3747 0.53503 0.0
N332 N 0.31648 0.34247 0.542 0.0
N333 N 0.3176 0.34897 0.48318 0.0
C334 C 0.3109 0.32733 0.51011 0.0
H335 H 0.33432 0.40133 0.48475 0.0
Co336 Co 0.30875 0.34228 0.43517 0.0
C337 C 0.33154 0.29105 0.42671 0.0
O338 O 0.36271 0.31294 0.42031 0.0
N339 N 0.29886 0.33548 0.38674 0.0
C340 C 0.30003 0.32604 0.32896 0.0
C341 C 0.31537 0.32919 0.36108 0.0
C342 C 0.27358 0.33591 0.36961 0.0
N343 N 0.27369 0.33017 0.33448 0.0
O344 O 0.2619 0.31661 0.44745 0.0
H345 H 0.33753 0.32757 0.36519 0.0
H346 H 0.25568 0.34085 0.38248 0.0
O347 O 0.31058 0.30047 0.43426 0.0
C348 C 0.25143 0.33626 0.45662 0.0
O349 O 0.27058 0.3681 0.44991 0.0
N350 N 0.355 0.37121 0.42519 0.0
C351 C 0.41985 0.4257 0.41951 0.0
C352 C 0.41233 0.4002 0.44413 0.0
C353 C 0.37978 0.3735 0.44687 0.0
C354 C 0.36201 0.39616 0.40143 0.0
C355 C 0.39422 0.4231 0.39764 0.0
H356 H 0.37426 0.35531 0.46758 0.0
H357 H 0.34224 0.39642 0.38655 0.0
H358 H 0.30071 0.30089 0.50648 0.0
H359 H 0.33406 0.39403 0.5547 0.0
H360 H 0.30744 0.32077 0.30362 0.0
H361 H 0.43122 0.4013 0.46185 0.0
H362 H 0.39852 0.44273 0.37914 0.0
C363 C 0.96885 0.31319 0.66049 0.0
C364 C 0.97526 0.32116 0.69564 0.0
N365 N 0.99959 0.31522 0.70585 0.0
N366 N 0.98924 0.30254 0.64836 0.0
C367 C 1.00751 0.30354 0.67677 0.0
H368 H 0.95072 0.31537 0.64441 0.0
Co369 Co 0.9867 0.28986 0.60139 0.0
C370 C 0.06041 0.31599 0.58852 0.0
O371 O 0.06475 0.34343 0.57381 0.0
N372 N 0.98257 0.2761 0.55389 0.0
C373 C 0.98962 0.27298 0.49583 0.0
C374 C 1.00283 0.29156 0.52598 0.0
C375 C 0.95712 0.24827 0.53983 0.0
N376 N 0.96081 0.24569 0.50458 0.0
O377 O 0.96795 0.2443 0.61799 0.0
H378 H 1.02501 0.31556 0.52673 0.0
H379 H 0.93611 0.23028 0.55512 0.0
O380 O 1.03201 0.29461 0.60143 0.0
C381 C 0.93777 0.233 0.62762 0.0
O382 O 0.92344 0.25046 0.61971 0.0
N383 N 1.00176 0.33486 0.58739 0.0
C384 C 1.00953 0.39846 0.57889 0.0
C385 C 1.0296 0.39302 0.60261 0.0
C386 C 1.02499 0.36113 0.60687 0.0
C387 C 0.98218 0.33983 0.56393 0.0
C388 C 0.98604 0.37145 0.55882 0.0
H389 H 0.03945 0.35735 0.62693 0.0
H390 H 0.96201 0.31889 0.55054 0.0
H391 H 1.02661 0.29666 0.67598 0.0
H392 H 0.96295 0.33062 0.71251 0.0
H393 H 0.99986 0.27983 0.46931 0.0
H394 H 0.04809 0.41306 0.6187 0.0
H395 H 0.96935 0.37425 0.54088 0.0
H396 H 0.20838 0.30873 0.34454 0.0
H397 H 0.18026 0.35504 0.14854 0.0
H398 H 0.28572 0.34765 0.26503 0.0
H399 H 0.10015 0.29122 0.21927 0.0
H400 H 0.21999 0.35557 0.19144 0.0
H401 H 0.16893 0.30607 0.29992 0.0
C402 C 0.21705 0.31686 0.3177 0.0
C403 C 0.25031 0.32847 0.30841 0.0
C404 C 0.19366 0.34137 0.19741 0.0
C405 C 0.2054 0.32536 0.25719 0.0
C406 C 0.17092 0.34092 0.17285 0.0
C407 C 0.13669 0.32328 0.18032 0.0
C408 C 0.18212 0.32429 0.22975 0.0
C409 C 0.12623 0.30577 0.21258 0.0
C410 C 0.19451 0.3151 0.29218 0.0
C411 C 0.2602 0.33826 0.27313 0.0
N412 N 0.14885 0.30689 0.23615 0.0
N413 N 0.23785 0.33665 0.24878 0.0
H414 H 0.86757 0.13138 0.31751 0.0
H415 H 0.89436 0.20409 0.51416 0.0
H416 H 0.79016 0.09365 0.39697 0.0
H417 H 0.97472 0.22898 0.44027 0.0
H418 H 0.85584 0.1632 0.47201 0.0
H419 H 0.90723 0.16755 0.36221 0.0
C420 C 0.85894 0.13075 0.34439 0.0
C421 C 0.82551 0.10967 0.35352 0.0
C422 C 0.88195 0.1775 0.46513 0.0
C423 C 0.87071 0.15084 0.40487 0.0
C424 C 0.90405 0.2008 0.48929 0.0
C425 C 0.93793 0.22028 0.48074 0.0
C426 C 0.89372 0.17375 0.43208 0.0
C427 C 0.9488 0.21507 0.44779 0.0
C428 C 0.88161 0.15122 0.36996 0.0
C429 C 0.81575 0.10937 0.38889 0.0
N430 N 0.92674 0.19245 0.4246 0.0
N431 N 0.83821 0.12987 0.41324 0.0
H432 H 0.70353 0.83557 0.48199 0.0
H433 H 0.74687 0.90687 0.67965 0.0
H434 H 0.7608 0.81232 0.5551 0.0
H435 H 0.71 0.94624 0.59897 0.0
H436 H 0.74897 0.86933 0.63548 0.0
H437 H 0.70322 0.87427 0.52536 0.0
C438 C 0.7163 0.8387 0.50695 0.0
C439 C 0.73217 0.82044 0.51476 0.0
C440 C 0.74051 0.88626 0.62743 0.0
C441 C 0.73136 0.86447 0.56492 0.0
C442 C 0.7391 0.9075 0.65267 0.0
C443 C 0.72826 0.92968 0.64293 0.0
C444 C 0.7307 0.88701 0.59229 0.0
C445 C 0.71888 0.92981 0.6075 0.0
C446 C 0.71594 0.86075 0.53183 0.0
C447 C 0.74777 0.82534 0.54799 0.0
N448 N 0.72019 0.90869 0.58349 0.0
N449 N 0.74686 0.84677 0.57187 0.0
H450 H 0.95366 0.69334 0.72623 0.0
H451 H 0.82423 0.7543 0.76993 0.0
H452 H 0.91873 0.73677 0.64805 0.0
H453 H 0.84371 0.69256 0.84045 0.0
H454 H 0.86224 0.75225 0.72661 0.0
H455 H 0.91714 0.69726 0.77032 0.0
C456 C 0.93842 0.70387 0.71841 0.0
C457 C 0.93919 0.71475 0.68345 0.0
C458 C 0.85817 0.73919 0.75161 0.0
C459 C 0.89726 0.71917 0.73365 0.0
C460 C 0.83636 0.74023 0.77635 0.0
C461 C 0.83052 0.72346 0.80896 0.0
C462 C 0.87447 0.7214 0.75955 0.0
C463 C 0.84759 0.7062 0.81596 0.0
C464 C 0.91744 0.70591 0.74351 0.0
C465 C 0.91858 0.72775 0.6746 0.0
N466 N 0.86875 0.7056 0.79144 0.0
N467 N 0.8985 0.72969 0.69959 0.0
H468 H 0.2447 0.95359 0.8874 0.0
H469 H 0.10798 0.76531 0.92923 0.0
H470 H 0.22153 0.87291 0.81487 0.0
H471 H 0.14713 0.8435 0.00755 0.0
H472 H 0.14549 0.80494 0.88489 0.0
H473 H 0.20517 0.91404 0.92976 0.0
C474 C 0.23147 0.92754 0.88038 0.0
C475 C 0.23681 0.91659 0.84757 0.0
C476 C 0.14586 0.81337 0.9118 0.0
C477 C 0.19096 0.87109 0.89596 0.0
C478 C 0.12435 0.79085 0.93703 0.0
C479 C 0.12455 0.80115 0.97212 0.0
C480 C 0.16746 0.84647 0.92172 0.0
C481 C 0.14651 0.83442 0.98094 0.0
C482 C 0.20873 0.90496 0.90458 0.0
C483 C 0.21814 0.88254 0.83969 0.0
N484 N 0.16703 0.8559 0.95588 0.0
N485 N 0.19608 0.86096 0.86379 0.0
H486 H 0.31395 0.2435 0.05893 0.0
H487 H 0.35758 0.10068 0.09947 0.0
H488 H 0.36832 0.21558 0.98694 0.0
H489 H 0.31858 0.13936 0.17858 0.0
H490 H 0.35828 0.1404 0.05656 0.0
H491 H 0.31276 0.20377 0.10231 0.0
C492 C 0.32577 0.22919 0.05225 0.0
C493 C 0.34115 0.23289 0.0191 0.0
C494 C 0.34959 0.14025 0.08332 0.0
C495 C 0.3395 0.18708 0.06845 0.0
C496 C 0.34897 0.1174 0.10774 0.0
C497 C 0.338 0.11673 0.14262 0.0
C498 C 0.33898 0.16247 0.09377 0.0
C499 C 0.32759 0.13933 0.15206 0.0
C500 C 0.32494 0.2064 0.07698 0.0
C501 C 0.35565 0.21326 0.01179 0.0
N502 N 0.32826 0.16127 0.12773 0.0
N503 N 0.35442 0.19121 0.03624 0.0
H504 H 0.05926 0.4582 0.15039 0.0
H505 H 0.04304 0.59285 0.03335 0.0
H506 H 1.02787 0.44182 0.04081 0.0
H507 H 0.04739 0.59627 0.14789 0.0
H508 H 0.03905 0.53824 0.03519 0.0
H509 H 0.05634 0.50946 0.15 0.0
C510 C 0.05148 0.46525 0.12635 0.0
C511 C 0.04373 0.44563 0.09563 0.0
C512 C 0.04061 0.55082 0.05993 0.0
C513 C 0.04074 0.5045 0.09481 0.0
C514 C 0.04304 0.58206 0.05888 0.0
C515 C 0.04552 0.59917 0.0905 0.0
C516 C 0.04116 0.53672 0.09283 0.0
C517 C 0.04517 0.58385 0.12287 0.0
C518 C 0.04975 0.49446 0.12615 0.0
C519 C 0.03369 0.45593 0.06524 0.0
N520 N 0.04333 0.55368 0.12318 0.0
N521 N 0.03281 0.48478 0.06549 0.0
H522 H 0.47325 0.0517 0.19401 0.0
H523 H 0.62121 0.05129 0.30394 0.0
H524 H 0.47369 0.04481 0.30838 0.0
H525 H 0.61731 0.05273 0.18938 0.0
H526 H 0.56732 0.04895 0.30637 0.0
H527 H 0.526 0.05191 0.19197 0.0
C528 C 0.48442 0.05024 0.21872 0.0
C529 C 0.4689 0.04824 0.25141 0.0
C530 C 0.57822 0.04965 0.2807 0.0
C531 C 0.52947 0.04839 0.24929 0.0
C532 C 0.60909 0.05115 0.2793 0.0
C533 C 0.62387 0.05207 0.24641 0.0
C534 C 0.56202 0.04927 0.24899 0.0
C535 C 0.60674 0.05151 0.21536 0.0
C536 C 0.51452 0.05023 0.21753 0.0
C537 C 0.48444 0.04597 0.28252 0.0
N538 N 0.57688 0.05024 0.21743 0.0
N539 N 0.51388 0.04624 0.2807 0.0
H540 H 0.59923 0.60987 0.47313 0.0
H541 H 0.45603 0.4601 0.36096 0.0
H542 H 0.59965 0.60308 0.35875 0.0
H543 H 0.45989 0.46098 0.47556 0.0
H544 H 0.50906 0.51227 0.35987 0.0
H545 H 0.54848 0.55535 0.47492 0.0
C546 C 0.58872 0.59693 0.44841 0.0
C547 C 0.6039 0.61113 0.41576 0.0
C548 C 0.49845 0.50097 0.38528 0.0
C549 C 0.54576 0.54864 0.4176 0.0
C550 C 0.46808 0.47121 0.38591 0.0
C551 C 0.45339 0.45608 0.41839 0.0
C552 C 0.51426 0.51603 0.41738 0.0
C553 C 0.47041 0.4715 0.44988 0.0
C554 C 0.55982 0.56572 0.44945 0.0
C555 C 0.58923 0.593 0.3846 0.0
N556 N 0.49978 0.5007 0.44859 0.0
N557 N 0.561 0.56288 0.38629 0.0
H558 H 1.01152 0.57907 0.51303 0.0
H559 H 1.01638 0.43966 0.63432 0.0
H560 H 1.00731 0.57839 0.62763 0.0
H561 H 1.00605 0.43218 0.5202 0.0
H562 H 1.01767 0.49277 0.63193 0.0
H563 H 1.01412 0.52778 0.51482 0.0
C564 C 1.01148 0.56835 0.53861 0.0
C565 C 1.00923 0.58318 0.57026 0.0
C566 C 1.01522 0.47961 0.60737 0.0
C567 C 1.01186 0.52411 0.57244 0.0
C568 C 1.01475 0.44934 0.60866 0.0
C569 C 1.01128 0.43139 0.57736 0.0
C570 C 1.01229 0.4923 0.57453 0.0
C571 C 1.00854 0.44499 0.54501 0.0
C572 C 1.0127 0.53889 0.53958 0.0
C573 C 1.0087 0.56772 0.60256 0.0
N574 N 1.00916 0.47461 0.54443 0.0
N575 N 1.01003 0.53912 0.60281 0.0
H576 H 0.4598 0.02737 0.69587 0.0
H577 H 0.59527 1.00782 0.80893 0.0
H578 H 0.44518 0.99429 0.80491 0.0
H579 H 0.59558 1.01009 0.69429 0.0
H580 H 0.54478 1.01188 0.80906 0.0
H581 H 0.51417 0.03045 0.69622 0.0
C582 C 0.46828 1.0213 0.72006 0.0
C583 C 0.44794 1.01055 0.75042 0.0
C584 C 0.55595 1.01165 0.78386 0.0
C585 C 0.50993 1.01379 0.75092 0.0
C586 C 0.58494 1.00957 0.78375 0.0
C587 C 0.59979 1.00871 0.75152 0.0
C588 C 0.54168 1.01316 0.75153 0.0
C589 C 0.58486 1.01046 0.71973 0.0
C590 C 0.49915 0.02276 0.72013 0.0
C591 C 0.45997 1.00251 0.78087 0.0
N592 N 0.55668 1.01268 0.72052 0.0
N593 N 0.49013 1.00429 0.78034 0.0
H594 H 0.45034 0.46073 0.90045 0.0
H595 H 0.64957 0.5537 0.89883 0.0
H596 H 0.5069 0.41027 0.90807 0.0
H597 H 0.59451 0.60561 0.90791 0.0
H598 H 0.59721 0.50104 0.8975 0.0
H599 H 0.50248 0.51405 0.89924 0.0
C600 C 0.4737 0.46085 0.90185 0.0
C601 C 0.47418 0.43092 0.90455 0.0
C602 C 0.59652 0.52393 0.89967 0.0
C603 C 0.53399 0.4919 0.90307 0.0
C604 C 0.62646 0.55409 0.90008 0.0
C605 C 0.62653 0.58424 0.90337 0.0
C606 C 0.56624 0.52373 0.90243 0.0
C607 C 0.59569 0.583 0.90563 0.0
C608 C 0.50346 0.49131 0.90128 0.0
C609 C 0.50524 0.43266 0.90653 0.0
N610 N 0.56682 0.55329 0.90509 0.0
N611 N 0.53381 0.46255 0.90564 0.0
H612 H 1.01941 0.27818 0.74372 0.0
H613 H 0.04963 0.39119 0.91532 0.0
H614 H 1.01307 0.36757 0.74685 0.0
H615 H 0.06646 0.30789 0.9176 0.0
H616 H 0.03605 0.38138 0.85291 0.0
H617 H 0.03803 0.28769 0.80627 0.0
C618 C 1.02241 0.29997 0.75748 0.0
C619 C 1.01436 0.32195 0.74052 0.0
C620 C 0.04279 0.36516 0.86677 0.0
C621 C 0.03508 0.33277 0.81131 0.0
C622 C 0.05068 0.37088 0.90253 0.0
C623 C 0.05964 0.35063 0.92159 0.0
C624 C 0.0436 0.33879 0.84955 0.0
C625 C 0.05959 0.32402 0.9038 0.0
C626 C 0.03276 0.30527 0.79306 0.0
C627 C 1.01842 0.34973 0.75925 0.0
N628 N 0.05177 0.31887 0.86857 0.0
N629 N 1.02831 0.35422 0.79357 0.0
H630 H 0.66406 1.00037 0.9163 0.0
H631 H 0.78108 0.04396 0.086 0.0
H632 H 0.75773 1.00229 0.9105 0.0
H633 H 0.70618 0.07219 0.07325 0.0
H634 H 0.77105 0.02349 0.02423 0.0
H635 H 0.67723 0.02198 0.97659 0.0
C636 C 0.68748 1.00541 0.92789 0.0
C637 C 0.70981 0.99947 0.90868 0.0
C638 C 0.75701 0.03434 0.03506 0.0
C639 C 0.72515 0.02417 0.97775 0.0
C640 C 0.76251 0.04571 0.07022 0.0
C641 C 0.7445 0.05985 0.08452 0.0
C642 C 0.73297 0.03674 0.0146 0.0
C643 C 0.72091 0.06187 0.06308 0.0
C644 C 0.69508 1.01788 0.96222 0.0
C645 C 0.74003 1.00679 0.9246 0.0
N646 N 0.71574 0.05033 0.02932 0.0
N647 N 0.74679 1.01855 0.95853 0.0
H648 H 0.693 0.64884 0.08141 0.0
H649 H 0.76041 0.77044 0.2492 0.0
H650 H 0.77804 0.74739 0.07357 0.0
H651 H 0.66525 0.68056 0.24372 0.0
H652 H 0.77114 0.76163 0.18701 0.0
H653 H 0.68571 0.65937 0.14301 0.0
C654 C 0.71019 0.67277 0.09282 0.0
C655 C 0.73624 0.69722 0.07255 0.0
C656 C 0.74796 0.74391 0.19956 0.0
C657 C 0.72808 0.70968 0.14332 0.0
C658 C 0.74201 0.74878 0.23497 0.0
C659 C 0.71182 0.72629 0.2513 0.0
C660 C 0.72366 0.71617 0.18088 0.0
C661 C 0.6886 0.69872 0.23188 0.0
C662 C 0.70597 0.67887 0.12798 0.0
C663 C 0.75752 0.72803 0.0884 0.0
N664 N 0.695 0.69447 0.1978 0.0
N665 N 0.75311 0.73339 0.12309 0.0
H666 H 0.95382 0.68978 0.39024 0.0
H667 H 0.11165 0.76437 0.26638 0.0
H668 H 0.05365 0.74754 0.43049 0.0
H669 H 1.01248 0.72797 0.22624 0.0
H670 H 0.09152 0.76384 0.32653 0.0
H671 H 0.97463 0.70856 0.33009 0.0
C672 C 0.98013 0.70673 0.3863 0.0
C673 C 1.00222 0.71672 0.41505 0.0
C674 C 0.0742 0.75647 0.30456 0.0
C675 C 1.02629 0.73815 0.34653 0.0
C676 C 0.08566 0.75658 0.27033 0.0
C677 C 0.06349 0.74561 0.24161 0.0
C678 C 0.04021 0.74473 0.31013 0.0
C679 C 1.03024 0.73645 0.24782 0.0
C680 C 0.99199 0.71761 0.35207 0.0
C681 C 0.03594 0.73922 0.40887 0.0
N682 N 1.01943 0.73562 0.28157 0.0
N683 N 0.04709 0.74873 0.37512 0.0
H684 H 0.30559 0.94572 0.56131 0.0
H685 H 0.34968 0.09365 0.43256 0.0
H686 H 0.30988 0.03573 0.59739 0.0
H687 H 0.30675 0.99318 0.39444 0.0
H688 H 0.33168 0.07248 0.49288 0.0
H689 H 0.30205 0.96102 0.4999 0.0
C690 C 0.30533 0.96852 0.55615 0.0
C691 C 0.30854 0.98983 0.5841 0.0
C692 C 0.32558 0.05498 0.47128 0.0
C693 C 0.3049 1.0077 0.51426 0.0
C694 C 0.33601 0.06707 0.43702 0.0
C695 C 0.33003 0.04502 0.40893 0.0
C696 C 0.30977 1.02062 0.47751 0.0
C697 C 0.31185 1.01083 0.41563 0.0
C698 C 0.3031 0.97716 0.52123 0.0
C699 C 0.30756 1.01882 0.57637 0.0
N700 N 0.30293 0.9996 0.44947 0.0
N701 N 0.30655 0.02732 0.54201 0.0
H702 H 0.29504 0.35876 0.60123 0.0
H703 H 0.36277 0.26908 0.72581 0.0
H704 H 0.32789 0.29297 0.56143 0.0
H705 H 0.31034 0.31713 0.7656 0.0
H706 H 0.34516 0.27262 0.66557 0.0
H707 H 0.29515 0.3393 0.66152 0.0
C708 C 0.30202 0.33998 0.60529 0.0
C709 C 0.31206 0.32783 0.57659 0.0
C710 C 0.33705 0.28196 0.68747 0.0
C711 C 0.3124 0.30551 0.64531 0.0
C712 C 0.34726 0.28012 0.72177 0.0
C713 C 0.33844 0.2934 0.75044 0.0
C714 C 0.31832 0.2977 0.68178 0.0
C715 C 0.31773 0.30676 0.74408 0.0
C716 C 0.30188 0.32871 0.63962 0.0
C717 C 0.32014 0.30299 0.58298 0.0
N718 N 0.30883 0.30912 0.71028 0.0
N719 N 0.32071 0.29303 0.61681 0.0
H720 H 0.28592 0.36221 0.88596 0.0
H721 H 0.13286 0.2798 0.02314 0.0
H722 H 0.25719 0.26891 0.9376 0.0
H723 H 0.17923 0.37985 0.98221 0.0
H724 H 0.17024 0.2694 0.98505 0.0
H725 H 0.2378 0.36209 0.912 0.0
C726 C 0.26884 0.34118 0.90206 0.0
C727 C 0.27543 0.31548 0.90943 0.0
C728 C 0.1719 0.29348 0.98433 0.0
C729 C 0.22074 0.31577 0.94094 0.0
C730 C 0.15059 0.29939 0.00599 0.0
C731 C 0.15323 0.33089 0.00626 0.0
C732 C 0.19545 0.3191 0.96245 0.0
C733 C 0.17658 0.35535 0.98344 0.0
C734 C 0.2415 0.34125 0.91732 0.0
C735 C 0.25268 0.28899 0.93087 0.0
N736 N 0.19663 0.34896 0.9627 0.0
N737 N 0.22659 0.29006 0.94641 0.0
H738 H 1.02034 0.26086 0.11676 0.0
H739 H 0.83653 0.10739 0.14076 0.0
H740 H 0.94708 0.23194 0.03365 0.0
H741 H 0.88913 0.1758 0.2257 0.0
H742 H 0.88287 0.14203 0.10019 0.0
H743 H 0.97804 0.21909 0.15578 0.0
C744 C 0.99541 0.24592 0.10664 0.0
C745 C 0.98719 0.25094 0.07211 0.0
C746 C 0.88451 0.14898 0.1279 0.0
C747 C 0.93883 0.20173 0.1164 0.0
C748 C 0.85837 0.12904 0.15111 0.0
C749 C 0.8594 0.13856 0.18669 0.0
C750 C 0.91205 0.17818 0.14064 0.0
C751 C 0.88769 0.16744 0.19855 0.0
C752 C 0.97133 0.22183 0.12893 0.0
C753 C 0.95458 0.22945 0.06018 0.0
N754 N 0.91295 0.18617 0.17564 0.0
N755 N 0.93157 0.20585 0.0823 0.0
H756 H 0.78074 0.87089 0.35845 0.0
H757 H 0.69677 0.93451 0.215 0.0
H758 H 0.68075 0.81496 0.31784 0.0
H759 H 0.78807 1.00233 0.26799 0.0
H760 H 0.6985 0.88801 0.24283 0.0
H761 H 0.79064 0.91713 0.31801 0.0
C762 C 0.76107 0.86822 0.34089 0.0
C763 C 0.7297 0.83926 0.34195 0.0
C764 C 0.7186 0.91297 0.248 0.0
C765 C 0.74094 0.89137 0.29545 0.0
C766 C 0.71778 0.93951 0.2317 0.0
C767 C 0.74238 0.97227 0.23898 0.0
C768 C 0.74385 0.91904 0.27258 0.0
C769 C 0.76885 0.97736 0.26129 0.0
C770 C 0.76669 0.89454 0.31789 0.0
C771 C 0.70513 0.83701 0.31853 0.0
N772 N 0.76861 0.95103 0.27786 0.0
N773 N 0.71125 0.86255 0.29648 0.0
H774 H 0.79849 0.70103 0.37741 0.0
H775 H 0.92909 0.76836 0.53811 0.0
H776 H 0.81106 0.78128 0.44486 0.0
H777 H 0.90367 0.68178 0.47455 0.0
H778 H 0.89527 0.78188 0.49791 0.0
H779 H 0.84732 0.70331 0.40455 0.0
C780 C 0.81242 0.72004 0.39703 0.0
C781 C 0.80109 0.74132 0.40849 0.0
C782 C 0.89756 0.76021 0.49258 0.0
C783 C 0.85607 0.7429 0.44149 0.0
C784 C 0.91689 0.75259 0.51543 0.0
C785 C 0.9187 0.72366 0.5099 0.0
C786 C 0.88049 0.73894 0.46389 0.0
C787 C 0.90245 0.70402 0.48017 0.0
C788 C 0.84006 0.72106 0.41299 0.0
C789 C 0.81949 0.7649 0.43479 0.0
N790 N 0.88403 0.7119 0.45855 0.0
N791 N 0.84573 0.76466 0.45094 0.0
H792 H 0.18723 0.91753 0.69616 0.0
H793 H 0.12229 0.77459 0.54782 0.0
H794 H 0.24633 0.88278 0.64272 0.0
H795 H 0.05503 0.79525 0.60658 0.0
H796 H 0.1692 0.82316 0.57446 0.0
H797 H 0.13969 0.88082 0.6576 0.0
C798 C 0.1903 0.90252 0.67617 0.0
C799 C 0.22059 0.90276 0.67308 0.0
C800 C 0.14427 0.81762 0.58122 0.0
C801 C 0.16687 0.86135 0.62878 0.0
C802 C 0.11747 0.79005 0.56561 0.0
C803 C 0.08482 0.78111 0.57475 0.0
C804 C 0.13856 0.83612 0.60703 0.0
C805 C 0.07992 0.80169 0.59843 0.0
C806 C 0.16323 0.88159 0.65423 0.0
C807 C 0.22329 0.88294 0.64664 0.0
N808 N 0.10654 0.82796 0.6143 0.0
N809 N 0.19693 0.86314 0.62578 0.0
H810 H 0.30822 0.21466 0.80919 0.0
H811 H 0.29583 0.03732 0.79009 0.0
H812 H 0.33688 0.1703 0.89241 0.0
H813 H 0.31775 0.10323 0.70061 0.0
H814 H 0.29601 0.07947 0.82886 0.0
H815 H 0.29622 0.16721 0.7704 0.0
C816 C 0.31076 0.19431 0.81969 0.0
C817 C 0.32295 0.19597 0.8542 0.0
C818 C 0.30061 0.08461 0.8007 0.0
C819 C 0.30982 0.14215 0.81006 0.0
C820 C 0.30066 0.06056 0.77846 0.0
C821 C 0.30753 0.06681 0.74198 0.0
C822 C 0.30676 0.11507 0.78642 0.0
C823 C 0.31275 0.09735 0.72858 0.0
C824 C 0.30441 0.16756 0.79742 0.0
C825 C 0.32702 0.16962 0.86614 0.0
N826 N 0.31231 0.12035 0.75078 0.0
N827 N 0.32044 0.14379 0.84417 0.0
H828 H 0.6959 0.7753 0.94084 0.0
H829 H 0.77694 0.92523 0.7999 0.0
H830 H 0.78741 0.80079 0.8868 0.0
H831 H 0.67533 0.87506 0.83674 0.0
H832 H 0.78808 0.88935 0.8397 0.0
H833 H 0.69627 0.82309 0.9135 0.0
C834 C 0.71673 0.79174 0.92412 0.0
C835 C 0.74178 0.78428 0.91635 0.0
C836 C 0.76347 0.88651 0.83908 0.0
C837 C 0.74161 0.83834 0.88326 0.0
C838 C 0.75713 0.90692 0.81642 0.0
C839 C 0.72502 0.90278 0.81453 0.0
C840 C 0.73769 0.86251 0.86045 0.0
C841 C 0.70031 0.87881 0.83667 0.0
C842 C 0.71673 0.8188 0.90805 0.0
C843 C 0.7679 0.80606 0.89391 0.0
N844 N 0.70716 0.85979 0.85852 0.0
N845 N 0.76687 0.83185 0.87758 0.0
H846 H 0.88766 0.76831 0.9532 0.0
H847 H 0.94198 0.69039 0.11106 0.0
H848 H 0.82058 0.68662 0.01981 0.0
H849 H 1.01345 0.77395 0.04958 0.0
H850 H 0.89731 0.69618 0.08432 0.0
H851 H 0.93392 0.77788 0.99315 0.0
C852 C 0.8826 0.75299 0.97668 0.0
C853 C 0.85042 0.72654 0.98322 0.0
C854 C 0.92273 0.7138 0.07704 0.0
C855 C 0.90279 0.737 0.02863 0.0
C856 C 0.94827 0.71064 0.09265 0.0
C857 C 0.9814 0.7319 0.0828 0.0
C858 C 0.93015 0.73785 0.05044 0.0
C859 C 0.98819 0.75739 0.0583 0.0
C860 C 0.90895 0.75829 -0.00066 0.0
C861 C 0.84513 0.70712 0.01369 0.0
N862 N 0.96273 0.75929 0.0424 0.0
N863 N 0.87095 0.71256 0.03499 0.0
H864 H 0.16494 0.80202 0.17764 0.0
H865 H 0.25402 0.99672 0.21918 0.0
H866 H 0.1402 0.867 0.12008 0.0
H867 H 0.27788 0.92736 0.26812 0.0
H868 H 0.20613 0.94988 0.18959 0.0
H869 H 0.19971 0.84727 0.21738 0.0
C870 C 0.16683 0.82598 0.17341 0.0
C871 C 0.15008 0.83088 0.14512 0.0
C872 C 0.2214 0.9449 0.20746 0.0
C873 C 0.19063 0.88357 0.19074 0.0
C874 C 0.24846 0.97156 0.22471 0.0
C875 C 0.26979 0.96582 0.24632 0.0
C876 C 0.21572 0.9124 0.21209 0.0
C877 C 0.26202 0.93288 0.25181 0.0
C878 C 0.18671 0.85192 0.19626 0.0
C879 C 0.1529 0.86228 0.14147 0.0
N880 N 0.2359 0.90761 0.23469 0.0
N881 N 0.17328 0.8877 0.16372 0.0
H882 H 0.27966 0.2524 0.38244 0.0
H883 H 0.33708 0.11691 0.36071 0.0
H884 H 0.35891 0.25265 0.44226 0.0
H885 H 0.29899 0.14741 0.27296 0.0
H886 H 0.32822 0.15374 0.40005 0.0
H887 H 0.27055 0.20176 0.35157 0.0
C888 C 0.29429 0.24109 0.39001 0.0
C889 C 0.31991 0.25651 0.41516 0.0
C890 C 0.32096 0.15176 0.3724 0.0
C891 C 0.30972 0.19893 0.37998 0.0
C892 C 0.32568 0.13049 0.35003 0.0
C893 C 0.31829 0.12881 0.31371 0.0
C894 C 0.30879 0.17163 0.35837 0.0
C895 C 0.30443 0.14762 0.30097 0.0
C896 C 0.28933 0.21248 0.37211 0.0
C897 C 0.33876 0.24138 0.42325 0.0
N898 N 0.30033 0.1685 0.32325 0.0
N899 N 0.33334 0.21351 0.40571 0.0
H900 H 0.12418 0.35163 0.61017 0.0
H901 H 0.19132 0.27652 0.46055 0.0
H902 H 0.05783 0.26493 0.54966 0.0
H903 H 0.24706 0.37294 0.50947 0.0
H904 H 0.14408 0.26421 0.50052 0.0
H905 H 0.17153 0.35069 0.58326 0.0
C906 C 0.11965 0.33161 0.59216 0.0
C907 C 0.08714 0.30809 0.58251 0.0
C908 C 0.16684 0.2879 0.50257 0.0
C909 C 0.14131 0.30783 0.54979 0.0
C910 C 0.19371 0.29489 0.47982 0.0
C911 C 0.22289 0.32604 0.48122 0.0
C912 C 0.16966 0.312 0.52725 0.0
C913 C 0.22481 0.34889 0.50683 0.0
C914 C 0.14668 0.33132 0.57632 0.0
C915 C 0.0826 0.28313 0.5583 0.0
N916 N 0.19872 0.34145 0.5286 0.0
N917 N 0.10942 0.28397 0.54221 0.0
H918 H 0.93096 0.17 0.62722 0.0
H919 H 0.79463 0.11149 0.78224 0.0
H920 H 0.90544 0.2334 0.68662 0.0
H921 H 0.8077 0.04172 0.71889 0.0
H922 H 0.84489 0.15689 0.756 0.0
H923 H 0.89481 0.12342 0.66725 0.0
C924 C 0.9183 0.17423 0.64904 0.0
C925 C 0.92079 0.2054 0.65343 0.0
C926 C 0.83737 0.13167 0.74824 0.0
C927 C 0.87985 0.15275 0.69915 0.0
C928 C 0.80886 0.1057 0.76366 0.0
C929 C 0.79728 0.07286 0.75307 0.0
C930 C 0.85409 0.12495 0.72114 0.0
C931 C 0.81623 0.06674 0.72823 0.0
C932 C 0.89761 0.1477 0.67176 0.0
C933 C 0.9038 0.20962 0.68197 0.0
N934 N 0.8434 0.09261 0.71254 0.0
N935 N 0.88406 0.18371 0.70347 0.0
loop_
_geom_bond_atom_site_label_1
_geom_bond_atom_site_label_2
_geom_bond_distance
_geom_bond_site_symmetry_2
_ccdc_geom_bond_type
C0 C1 1.351 . S
C0 N3 1.368 . S
C0 H5 0.931 . S
C1 C0 1.351 . S
C1 N2 1.373 . S
C1 H29 0.930 . S
N2 C1 1.373 . S
N2 C4 1.340 . S
N3 C0 1.368 . S
N3 C4 1.321 . S
N3 Co6 2.135 1_556 S
C4 N2 1.340 . S
C4 N3 1.321 . S
C4 H28 0.930 . S
H5 C0 0.931 . S
Co6 N3 2.135 1_554 S
Co6 N9 2.121 . S
Co6 O14 2.055 . S
Co6 O17 2.039 . S
Co6 N20 2.140 . S
C7 O8 1.227 . S
C7 O17 1.265 . S
O8 C7 1.227 . S
N9 Co6 2.121 . S
N9 C11 1.375 . S
N9 C12 1.313 . S
C10 C11 1.338 . S
C10 N13 1.377 . S
C10 H30 0.930 . S
C11 N9 1.375 . S
C11 C10 1.338 . S
C11 H15 0.931 . S
C12 N9 1.313 . S
C12 N13 1.344 . S
C12 H16 0.930 . S
N13 C10 1.377 . S
N13 C12 1.344 . S
O14 Co6 2.055 . S
O14 C18 1.253 . S
H15 C11 0.931 . S
H16 C12 0.930 . S
O17 Co6 2.039 . S
O17 C7 1.265 . S
C18 O14 1.253 . S
C18 O19 1.227 . S
O19 C18 1.227 . S
N20 Co6 2.140 . S
N20 C23 1.346 . S
N20 C24 1.345 . S
C21 C22 1.387 . S
C21 C25 1.391 . S
C22 C21 1.387 . S
C22 C23 1.369 . S
C22 H31 0.929 . S
C23 N20 1.346 . S
C23 C22 1.369 . S
C23 H26 0.928 . S
C24 N20 1.345 . S
C24 C25 1.371 . S
C24 H27 0.931 . S
C25 C21 1.391 . S
C25 C24 1.371 . S
C25 H32 0.930 . S
H26 C23 0.928 . S
H27 C24 0.931 . S
H28 C4 0.930 . S
H29 C1 0.930 . S
H30 C10 0.930 . S
H31 C22 0.929 . S
H32 C25 0.930 . S
C33 C34 1.351 . S
C33 N36 1.368 . S
C33 H38 0.931 . S
C34 C33 1.351 . S
C34 N35 1.373 . S
C34 H62 0.930 . S
N35 C34 1.373 . S
N35 C37 1.340 . S
N36 C33 1.368 . S
N36 C37 1.321 . S
N36 Co39 2.135 . S
C37 N35 1.340 . S
C37 N36 1.321 . S
C37 H61 0.930 . S
H38 C33 0.931 . S
Co39 N36 2.135 . S
Co39 N42 2.121 . S
Co39 O47 2.055 . S
Co39 O50 2.039 . S
Co39 N53 2.140 . S
C40 O41 1.227 . S
C40 O50 1.265 . S
O41 C40 1.227 . S
N42 Co39 2.121 . S
N42 C44 1.375 . S
N42 C45 1.313 . S
C43 C44 1.338 . S
C43 N46 1.377 . S
C43 H63 0.930 . S
C44 N42 1.375 . S
C44 C43 1.338 . S
C44 H48 0.931 . S
C45 N42 1.313 . S
C45 N46 1.344 . S
C45 H49 0.930 . S
N46 C43 1.377 . S
N46 C45 1.344 . S
O47 Co39 2.055 . S
O47 C51 1.253 . S
H48 C44 0.931 . S
H49 C45 0.930 . S
O50 Co39 2.039 . S
O50 C40 1.265 . S
C51 O47 1.253 . S
C51 O52 1.227 . S
O52 C51 1.227 . S
N53 Co39 2.140 . S
N53 C56 1.346 . S
N53 C57 1.345 . S
C54 C55 1.387 . S
C54 C58 1.391 . S
C55 C54 1.387 . S
C55 C56 1.369 . S
C55 H64 0.929 . S
C56 N53 1.346 . S
C56 C55 1.369 . S
C56 H59 0.928 . S
C57 N53 1.345 . S
C57 C58 1.371 . S
C57 H60 0.931 . S
C58 C54 1.391 . S
C58 C57 1.371 . S
C58 H65 0.930 . S
H59 C56 0.928 . S
H60 C57 0.931 . S
H61 C37 0.930 . S
H62 C34 0.930 . S
H63 C43 0.930 . S
H64 C55 0.929 . S
H65 C58 0.930 . S
C66 C67 1.351 . S
C66 N69 1.368 . S
C66 H71 0.931 . S
C67 C66 1.351 . S
C67 N68 1.373 . S
C67 H95 0.930 . S
N68 C67 1.373 . S
N68 C70 1.340 . S
N69 C66 1.368 . S
N69 C70 1.321 . S
N69 Co72 2.135 . S
C70 N68 1.340 . S
C70 N69 1.321 . S
C70 H94 0.930 . S
H71 C66 0.931 . S
Co72 N69 2.135 . S
Co72 N75 2.121 . S
Co72 O80 2.055 . S
Co72 O83 2.039 . S
Co72 N86 2.140 . S
C73 O74 1.227 . S
C73 O83 1.265 . S
O74 C73 1.227 . S
N75 Co72 2.121 . S
N75 C77 1.375 . S
N75 C78 1.313 . S
C76 C77 1.338 . S
C76 N79 1.377 . S
C76 H96 0.930 . S
C77 N75 1.375 . S
C77 C76 1.338 . S
C77 H81 0.931 . S
C78 N75 1.313 . S
C78 N79 1.344 . S
C78 H82 0.930 . S
N79 C76 1.377 . S
N79 C78 1.344 . S
O80 Co72 2.055 . S
O80 C84 1.253 . S
H81 C77 0.931 . S
H82 C78 0.930 . S
O83 Co72 2.039 . S
O83 C73 1.265 . S
C84 O80 1.253 . S
C84 O85 1.227 . S
O85 C84 1.227 . S
N86 Co72 2.140 . S
N86 C89 1.346 . S
N86 C90 1.345 . S
C87 C88 1.387 . S
C87 C91 1.391 . S
C88 C87 1.387 . S
C88 C89 1.369 . S
C88 H97 0.929 . S
C89 N86 1.346 . S
C89 C88 1.369 . S
C89 H92 0.928 . S
C90 N86 1.345 . S
C90 C91 1.371 . S
C90 H93 0.931 . S
C91 C87 1.391 . S
C91 C90 1.371 . S
C91 H98 0.930 . S
H92 C89 0.928 . S
H93 C90 0.931 . S
H94 C70 0.930 . S
H95 C67 0.930 . S
H96 C76 0.930 . S
H97 C88 0.929 . S
H98 C91 0.930 . S
C99 C100 1.351 . S
C99 N102 1.368 . S
C99 H104 0.931 . S
C100 C99 1.351 . S
C100 N101 1.373 . S
C100 H128 0.930 . S
N101 C100 1.373 . S
N101 C103 1.340 . S
N102 C99 1.368 . S
N102 C103 1.321 . S
N102 Co105 2.135 . S
C103 N101 1.340 . S
C103 N102 1.321 . S
C103 H127 0.930 . S
H104 C99 0.931 . S
Co105 N102 2.135 . S
Co105 N108 2.121 . S
Co105 O113 2.055 . S
Co105 O116 2.039 . S
Co105 N119 2.140 . S
C106 O107 1.227 . S
C106 O116 1.265 . S
O107 C106 1.227 . S
N108 Co105 2.121 . S
N108 C110 1.375 . S
N108 C111 1.313 . S
C109 C110 1.338 . S
C109 N112 1.377 . S
C109 H129 0.930 . S
C110 N108 1.375 . S
C110 C109 1.338 . S
C110 H114 0.931 . S
C111 N108 1.313 . S
C111 N112 1.344 . S
C111 H115 0.930 . S
N112 C109 1.377 . S
N112 C111 1.344 . S
O113 Co105 2.055 . S
O113 C117 1.253 . S
H114 C110 0.931 . S
H115 C111 0.930 . S
O116 Co105 2.039 . S
O116 C106 1.265 . S
C117 O113 1.253 . S
C117 O118 1.227 . S
O118 C117 1.227 . S
N119 Co105 2.140 . S
N119 C122 1.346 . S
N119 C123 1.345 . S
C120 C121 1.387 . S
C120 C124 1.391 . S
C121 C120 1.387 . S
C121 C122 1.369 . S
C121 H130 0.929 . S
C122 N119 1.346 . S
C122 C121 1.369 . S
C122 H125 0.928 . S
C123 N119 1.345 . S
C123 C124 1.371 . S
C123 H126 0.931 . S
C124 C120 1.391 . S
C124 C123 1.371 . S
C124 H131 0.930 . S
H125 C122 0.928 . S
H126 C123 0.931 . S
H127 C103 0.930 . S
H128 C100 0.930 . S
H129 C109 0.930 . S
H130 C121 0.929 . S
H131 C124 0.930 . S
C132 C133 1.351 . S
C132 N135 1.368 . S
C132 H137 0.931 . S
C133 C132 1.351 . S
C133 N134 1.373 . S
C133 H161 0.930 . S
N134 C133 1.373 . S
N134 C136 1.340 . S
N135 C132 1.368 . S
N135 C136 1.321 . S
N135 Co138 2.135 . S
C136 N134 1.340 . S
C136 N135 1.321 . S
C136 H160 0.930 . S
H137 C132 0.931 . S
Co138 N135 2.135 . S
Co138 N141 2.121 . S
Co138 O146 2.055 . S
Co138 O149 2.039 . S
Co138 N152 2.140 . S
C139 O140 1.227 . S
C139 O149 1.265 . S
O140 C139 1.227 . S
N141 Co138 2.121 . S
N141 C143 1.375 . S
N141 C144 1.313 . S
C142 C143 1.338 . S
C142 N145 1.377 . S
C142 H162 0.930 . S
C143 N141 1.375 . S
C143 C142 1.338 . S
C143 H147 0.931 . S
C144 N141 1.313 . S
C144 N145 1.344 . S
C144 H148 0.930 . S
N145 C142 1.377 . S
N145 C144 1.344 . S
O146 Co138 2.055 . S
O146 C150 1.253 . S
H147 C143 0.931 . S
H148 C144 0.930 . S
O149 Co138 2.039 . S
O149 C139 1.265 . S
C150 O146 1.253 . S
C150 O151 1.227 . S
O151 C150 1.227 . S
N152 Co138 2.140 . S
N152 C155 1.346 . S
N152 C156 1.345 . S
C153 C154 1.387 . S
C153 C157 1.391 . S
C154 C153 1.387 . S
C154 C155 1.369 . S
C154 H163 0.929 . S
C155 N152 1.346 . S
C155 C154 1.369 . S
C155 H158 0.928 . S
C156 N152 1.345 . S
C156 C157 1.371 . S
C156 H159 0.931 . S
C157 C153 1.391 . S
C157 C156 1.371 . S
C157 H164 0.930 . S
H158 C155 0.928 . S
H159 C156 0.931 . S
H160 C136 0.930 . S
H161 C133 0.930 . S
H162 C142 0.930 . S
H163 C154 0.929 . S
H164 C157 0.930 . S
C165 C166 1.351 . S
C165 N168 1.368 . S
C165 H170 0.931 . S
C166 C165 1.351 . S
C166 N167 1.373 . S
C166 H194 0.930 . S
N167 C166 1.373 . S
N167 C169 1.340 . S
N168 C165 1.368 . S
N168 C169 1.321 . S
N168 Co171 2.135 . S
C169 N167 1.340 . S
C169 N168 1.321 . S
C169 H193 0.930 . S
H170 C165 0.931 . S
Co171 N168 2.135 . S
Co171 N174 2.121 . S
Co171 O179 2.055 . S
Co171 O182 2.039 . S
Co171 N185 2.140 . S
C172 O173 1.227 . S
C172 O182 1.265 . S
O173 C172 1.227 . S
N174 Co171 2.121 . S
N174 C176 1.375 . S
N174 C177 1.313 . S
C175 C176 1.338 . S
C175 N178 1.377 . S
C175 H195 0.930 1_556 S
C176 N174 1.375 . S
C176 C175 1.338 . S
C176 H180 0.931 . S
C177 N174 1.313 . S
C177 N178 1.344 . S
C177 H181 0.930 . S
N178 C175 1.377 . S
N178 C177 1.344 . S
O179 Co171 2.055 . S
O179 C183 1.253 . S
H180 C176 0.931 . S
H181 C177 0.930 . S
O182 Co171 2.039 . S
O182 C172 1.265 . S
C183 O179 1.253 . S
C183 O184 1.227 . S
O184 C183 1.227 . S
N185 Co171 2.140 . S
N185 C188 1.346 . S
N185 C189 1.345 . S
C186 C187 1.387 . S
C186 C190 1.391 . S
C187 C186 1.387 . S
C187 C188 1.369 . S
C187 H196 0.929 . S
C188 N185 1.346 . S
C188 C187 1.369 . S
C188 H191 0.928 . S
C189 N185 1.345 . S
C189 C190 1.371 . S
C189 H192 0.931 . S
C190 C186 1.391 . S
C190 C189 1.371 . S
C190 H197 0.930 . S
H191 C188 0.928 . S
H192 C189 0.931 . S
H193 C169 0.930 . S
H194 C166 0.930 . S
H195 C175 0.930 1_554 S
H196 C187 0.929 . S
H197 C190 0.930 . S
C198 C199 1.351 . S
C198 N201 1.368 . S
C198 H203 0.931 . S
C199 C198 1.351 . S
C199 N200 1.373 . S
C199 H227 0.930 . S
N200 C199 1.373 . S
N200 C202 1.340 . S
N201 C198 1.368 . S
N201 C202 1.321 . S
N201 Co204 2.135 . S
C202 N200 1.340 . S
C202 N201 1.321 . S
C202 H226 0.930 . S
H203 C198 0.931 . S
Co204 N201 2.135 . S
Co204 N207 2.121 . S
Co204 O212 2.055 . S
Co204 O215 2.039 . S
Co204 N218 2.140 . S
C205 O206 1.227 . S
C205 O215 1.265 . S
O206 C205 1.227 . S
N207 Co204 2.121 . S
N207 C209 1.375 . S
N207 C210 1.313 . S
C208 C209 1.338 . S
C208 N211 1.377 . S
C208 H228 0.930 . S
C209 N207 1.375 . S
C209 C208 1.338 . S
C209 H213 0.931 . S
C210 N207 1.313 . S
C210 N211 1.344 . S
C210 H214 0.930 . S
N211 C208 1.377 . S
N211 C210 1.344 . S
O212 Co204 2.055 . S
O212 C216 1.253 . S
H213 C209 0.931 . S
H214 C210 0.930 . S
O215 Co204 2.039 . S
O215 C205 1.265 . S
C216 O212 1.253 . S
C216 O217 1.227 . S
O217 C216 1.227 . S
N218 Co204 2.140 . S
N218 C221 1.346 . S
N218 C222 1.345 . S
C219 C220 1.387 . S
C219 C223 1.391 . S
C220 C219 1.387 . S
C220 C221 1.369 . S
C220 H229 0.929 . S
C221 N218 1.346 . S
C221 C220 1.369 . S
C221 H224 0.928 . S
C222 N218 1.345 . S
C222 C223 1.371 . S
C222 H225 0.931 . S
C223 C219 1.391 . S
C223 C222 1.371 . S
C223 H230 0.930 . S
H224 C221 0.928 . S
H225 C222 0.931 . S
H226 C202 0.930 . S
H227 C199 0.930 . S
H228 C208 0.930 . S
H229 C220 0.929 . S
H230 C223 0.930 . S
C231 C232 1.351 . S
C231 N234 1.368 . S
C231 H236 0.931 . S
C232 C231 1.351 . S
C232 N233 1.373 . S
C232 H260 0.930 . S
N233 C232 1.373 . S
N233 C235 1.340 . S
N234 C231 1.368 . S
N234 C235 1.321 . S
N234 Co237 2.135 1_554 S
C235 N233 1.340 . S
C235 N234 1.321 . S
C235 H259 0.930 . S
H236 C231 0.931 . S
Co237 N234 2.135 1_556 S
Co237 N240 2.121 . S
Co237 O245 2.055 . S
Co237 O248 2.039 . S
Co237 N251 2.140 . S
C238 O239 1.227 . S
C238 O248 1.265 . S
O239 C238 1.227 . S
N240 Co237 2.121 . S
N240 C242 1.375 . S
N240 C243 1.313 . S
C241 C242 1.338 . S
C241 N244 1.377 . S
C241 H261 0.930 . S
C242 N240 1.375 . S
C242 C241 1.338 . S
C242 H246 0.931 . S
C243 N240 1.313 . S
C243 N244 1.344 . S
C243 H247 0.930 . S
N244 C241 1.377 . S
N244 C243 1.344 . S
O245 Co237 2.055 . S
O245 C249 1.253 . S
H246 C242 0.931 . S
H247 C243 0.930 . S
O248 Co237 2.039 . S
O248 C238 1.265 . S
C249 O245 1.253 . S
C249 O250 1.227 . S
O250 C249 1.227 . S
N251 Co237 2.140 . S
N251 C254 1.346 . S
N251 C255 1.345 . S
C252 C253 1.387 . S
C252 C256 1.391 . S
C253 C252 1.387 . S
C253 C254 1.369 . S
C253 H262 0.929 . S
C254 N251 1.346 . S
C254 C253 1.369 . S
C254 H257 0.928 . S
C255 N251 1.345 . S
C255 C256 1.371 . S
C255 H258 0.931 . S
C256 C252 1.391 . S
C256 C255 1.371 . S
C256 H263 0.930 . S
H257 C254 0.928 . S
H258 C255 0.931 . S
H259 C235 0.930 . S
H260 C232 0.930 . S
H261 C241 0.930 . S
H262 C253 0.929 . S
H263 C256 0.930 . S
C264 C265 1.351 . S
C264 N267 1.368 . S
C264 H269 0.931 . S
C265 C264 1.351 . S
C265 N266 1.373 . S
C265 H293 0.930 . S
N266 C265 1.373 . S
N266 C268 1.340 . S
N267 C264 1.368 . S
N267 C268 1.321 . S
N267 Co270 2.135 . S
C268 N266 1.340 . S
C268 N267 1.321 . S
C268 H292 0.930 . S
H269 C264 0.931 . S
Co270 N267 2.135 . S
Co270 N273 2.121 . S
Co270 O278 2.055 . S
Co270 O281 2.039 . S
Co270 N284 2.140 . S
C271 O272 1.227 . S
C271 O281 1.265 . S
O272 C271 1.227 . S
N273 Co270 2.121 . S
N273 C275 1.375 . S
N273 C276 1.313 . S
C274 C275 1.338 . S
C274 N277 1.377 . S
C274 H294 0.930 1_554 S
C275 N273 1.375 . S
C275 C274 1.338 . S
C275 H279 0.931 . S
C276 N273 1.313 . S
C276 N277 1.344 . S
C276 H280 0.930 . S
N277 C274 1.377 . S
N277 C276 1.344 . S
O278 Co270 2.055 . S
O278 C282 1.253 . S
H279 C275 0.931 . S
H280 C276 0.930 . S
O281 Co270 2.039 . S
O281 C271 1.265 . S
C282 O278 1.253 . S
C282 O283 1.227 . S
O283 C282 1.227 . S
N284 Co270 2.140 . S
N284 C287 1.346 . S
N284 C288 1.345 . S
C285 C286 1.387 . S
C285 C289 1.391 . S
C286 C285 1.387 . S
C286 C287 1.369 . S
C286 H295 0.929 . S
C287 N284 1.346 . S
C287 C286 1.369 . S
C287 H290 0.928 . S
C288 N284 1.345 . S
C288 C289 1.371 . S
C288 H291 0.931 . S
C289 C285 1.391 . S
C289 C288 1.371 . S
C289 H296 0.930 . S
H290 C287 0.928 . S
H291 C288 0.931 . S
H292 C268 0.930 . S
H293 C265 0.930 . S
H294 C274 0.930 1_556 S
H295 C286 0.929 . S
H296 C289 0.930 . S
C297 C298 1.351 . S
C297 N300 1.368 . S
C297 H302 0.931 . S
C298 C297 1.351 . S
C298 N299 1.373 . S
C298 H326 0.930 . S
N299 C298 1.373 . S
N299 C301 1.340 . S
N300 C297 1.368 . S
N300 C301 1.321 . S
N300 Co303 2.135 . S
C301 N299 1.340 . S
C301 N300 1.321 . S
C301 H325 0.930 . S
H302 C297 0.931 . S
Co303 N300 2.135 . S
Co303 N306 2.121 . S
Co303 O311 2.055 . S
Co303 O314 2.039 . S
Co303 N317 2.140 . S
C304 O305 1.227 . S
C304 O314 1.265 . S
O305 C304 1.227 . S
N306 Co303 2.121 . S
N306 C308 1.375 . S
N306 C309 1.313 . S
C307 C308 1.338 . S
C307 N310 1.377 . S
C307 H327 0.930 . S
C308 N306 1.375 . S
C308 C307 1.338 . S
C308 H312 0.931 . S
C309 N306 1.313 . S
C309 N310 1.344 . S
C309 H313 0.930 . S
N310 C307 1.377 . S
N310 C309 1.344 . S
O311 Co303 2.055 . S
O311 C315 1.253 . S
H312 C308 0.931 . S
H313 C309 0.930 . S
O314 Co303 2.039 . S
O314 C304 1.265 . S
C315 O311 1.253 . S
C315 O316 1.227 . S
O316 C315 1.227 . S
N317 Co303 2.140 . S
N317 C320 1.346 . S
N317 C321 1.345 . S
C318 C319 1.387 . S
C318 C322 1.391 . S
C319 C318 1.387 . S
C319 C320 1.369 . S
C319 H328 0.929 . S
C320 N317 1.346 . S
C320 C319 1.369 . S
C320 H323 0.928 . S
C321 N317 1.345 . S
C321 C322 1.371 . S
C321 H324 0.931 . S
C322 C318 1.391 . S
C322 C321 1.371 . S
C322 H329 0.930 . S
H323 C320 0.928 . S
H324 C321 0.931 . S
H325 C301 0.930 . S
H326 C298 0.930 . S
H327 C307 0.930 . S
H328 C319 0.929 . S
H329 C322 0.930 . S
C330 C331 1.351 . S
C330 N333 1.368 . S
C330 H335 0.931 . S
C331 C330 1.351 . S
C331 N332 1.373 . S
C331 H359 0.930 . S
N332 C331 1.373 . S
N332 C334 1.340 . S
N333 C330 1.368 . S
N333 C334 1.321 . S
N333 Co336 2.135 . S
C334 N332 1.340 . S
C334 N333 1.321 . S
C334 H358 0.930 . S
H335 C330 0.931 . S
Co336 N333 2.135 . S
Co336 N339 2.121 . S
Co336 O344 2.055 . S
Co336 O347 2.039 . S
Co336 N350 2.140 . S
C337 O338 1.227 . S
C337 O347 1.265 . S
O338 C337 1.227 . S
N339 Co336 2.121 . S
N339 C341 1.375 . S
N339 C342 1.313 . S
C340 C341 1.338 . S
C340 N343 1.377 . S
C340 H360 0.930 . S
C341 N339 1.375 . S
C341 C340 1.338 . S
C341 H345 0.931 . S
C342 N339 1.313 . S
C342 N343 1.344 . S
C342 H346 0.930 . S
N343 C340 1.377 . S
N343 C342 1.344 . S
O344 Co336 2.055 . S
O344 C348 1.253 . S
H345 C341 0.931 . S
H346 C342 0.930 . S
O347 Co336 2.039 . S
O347 C337 1.265 . S
C348 O344 1.253 . S
C348 O349 1.227 . S
O349 C348 1.227 . S
N350 Co336 2.140 . S
N350 C353 1.346 . S
N350 C354 1.345 . S
C351 C352 1.387 . S
C351 C355 1.391 . S
C352 C351 1.387 . S
C352 C353 1.369 . S
C352 H361 0.929 . S
C353 N350 1.346 . S
C353 C352 1.369 . S
C353 H356 0.928 . S
C354 N350 1.345 . S
C354 C355 1.371 . S
C354 H357 0.931 . S
C355 C351 1.391 . S
C355 C354 1.371 . S
C355 H362 0.930 . S
H356 C353 0.928 . S
H357 C354 0.931 . S
H358 C334 0.930 . S
H359 C331 0.930 . S
H360 C340 0.930 . S
H361 C352 0.929 . S
H362 C355 0.930 . S
C363 C364 1.351 . S
C363 N366 1.368 . S
C363 H368 0.931 . S
C364 C363 1.351 . S
C364 N365 1.373 . S
C364 H392 0.930 . S
N365 C364 1.373 . S
N365 C367 1.340 . S
N366 C363 1.368 . S
N366 C367 1.321 . S
N366 Co369 2.135 . S
C367 N365 1.340 . S
C367 N366 1.321 . S
C367 H391 0.930 . S
H368 C363 0.931 . S
Co369 N366 2.135 . S
Co369 N372 2.121 . S
Co369 O377 2.055 . S
Co369 O380 2.039 . S
Co369 N383 2.140 . S
C370 O371 1.227 . S
C370 O380 1.265 . S
O371 C370 1.227 . S
N372 Co369 2.121 . S
N372 C374 1.375 . S
N372 C375 1.313 . S
C373 C374 1.338 . S
C373 N376 1.377 . S
C373 H393 0.930 . S
C374 N372 1.375 . S
C374 C373 1.338 . S
C374 H378 0.931 . S
C375 N372 1.313 . S
C375 N376 1.344 . S
C375 H379 0.930 . S
N376 C373 1.377 . S
N376 C375 1.344 . S
O377 Co369 2.055 . S
O377 C381 1.253 . S
H378 C374 0.931 . S
H379 C375 0.930 . S
O380 Co369 2.039 . S
O380 C370 1.265 . S
C381 O377 1.253 . S
C381 O382 1.227 . S
O382 C381 1.227 . S
N383 Co369 2.140 . S
N383 C386 1.346 . S
N383 C387 1.345 . S
C384 C385 1.387 . S
C384 C388 1.391 . S
C385 C384 1.387 . S
C385 C386 1.369 . S
C385 H394 0.929 . S
C386 N383 1.346 . S
C386 C385 1.369 . S
C386 H389 0.928 . S
C387 N383 1.345 . S
C387 C388 1.371 . S
C387 H390 0.931 . S
C388 C384 1.391 . S
C388 C387 1.371 . S
C388 H395 0.930 . S
H389 C386 0.928 . S
H390 C387 0.931 . S
H391 C367 0.930 . S
H392 C364 0.930 . S
H393 C373 0.930 . S
H394 C385 0.929 . S
H395 C388 0.930 . S
H396 C402 0.930 . S
H397 C406 0.930 . S
H398 C411 0.929 . S
H399 C409 0.929 . S
H400 C404 0.929 . S
H401 C410 0.929 . S
C402 H396 0.930 . S
C402 C403 1.367 . S
C402 C410 1.378 . S
C403 C402 1.367 . S
C403 C411 1.433 . S
C404 H400 0.929 . S
C404 C406 1.378 . S
C404 C408 1.350 . S
C405 C408 1.463 . S
C405 C410 1.350 . S
C405 N413 1.427 . S
C406 H397 0.930 . S
C406 C404 1.378 . S
C406 C407 1.367 . S
C407 C406 1.367 . S
C407 C409 1.433 . S
C408 C404 1.350 . S
C408 C405 1.463 . S
C408 N412 1.427 . S
C409 H399 0.929 . S
C409 C407 1.433 . S
C409 N412 1.384 . S
C410 H401 0.929 . S
C410 C402 1.378 . S
C410 C405 1.350 . S
C411 H398 0.929 . S
C411 C403 1.433 . S
C411 N413 1.384 . S
N412 C408 1.427 . S
N412 C409 1.384 . S
N413 C405 1.427 . S
N413 C411 1.384 . S
H414 C420 0.930 . S
H415 C424 0.930 . S
H416 C429 0.929 . S
H417 C427 0.929 . S
H418 C422 0.929 . S
H419 C428 0.929 . S
C420 H414 0.930 . S
C420 C421 1.367 . S
C420 C428 1.378 . S
C421 C420 1.367 . S
C421 C429 1.433 . S
C422 H418 0.929 . S
C422 C424 1.378 . S
C422 C426 1.350 . S
C423 C426 1.463 . S
C423 C428 1.350 . S
C423 N431 1.427 . S
C424 H415 0.930 . S
C424 C422 1.378 . S
C424 C425 1.367 . S
C425 C424 1.367 . S
C425 C427 1.433 . S
C426 C422 1.350 . S
C426 C423 1.463 . S
C426 N430 1.427 . S
C427 H417 0.929 . S
C427 C425 1.433 . S
C427 N430 1.384 . S
C428 H419 0.929 . S
C428 C420 1.378 . S
C428 C423 1.350 . S
C429 H416 0.929 . S
C429 C421 1.433 . S
C429 N431 1.384 . S
N430 C426 1.427 . S
N430 C427 1.384 . S
N431 C423 1.427 . S
N431 C429 1.384 . S
H432 C438 0.930 . S
H433 C442 0.930 . S
H434 C447 0.929 . S
H435 C445 0.929 . S
H436 C440 0.929 . S
H437 C446 0.929 . S
C438 H432 0.930 . S
C438 C439 1.367 . S
C438 C446 1.378 . S
C439 C438 1.367 . S
C439 C447 1.433 . S
C440 H436 0.929 . S
C440 C442 1.378 . S
C440 C444 1.350 . S
C441 C444 1.463 . S
C441 C446 1.350 . S
C441 N449 1.427 . S
C442 H433 0.930 . S
C442 C440 1.378 . S
C442 C443 1.367 . S
C443 C442 1.367 . S
C443 C445 1.433 . S
C444 C440 1.350 . S
C444 C441 1.463 . S
C444 N448 1.427 . S
C445 H435 0.929 . S
C445 C443 1.433 . S
C445 N448 1.384 . S
C446 H437 0.929 . S
C446 C438 1.378 . S
C446 C441 1.350 . S
C447 H434 0.929 . S
C447 C439 1.433 . S
C447 N449 1.384 . S
N448 C444 1.427 . S
N448 C445 1.384 . S
N449 C441 1.427 . S
N449 C447 1.384 . S
H450 C456 0.930 . S
H451 C460 0.930 . S
H452 C465 0.929 . S
H453 C463 0.929 . S
H454 C458 0.929 . S
H455 C464 0.929 . S
C456 H450 0.930 . S
C456 C457 1.367 . S
C456 C464 1.378 . S
C457 C456 1.367 . S
C457 C465 1.433 . S
C458 H454 0.929 . S
C458 C460 1.378 . S
C458 C462 1.350 . S
C459 C462 1.463 . S
C459 C464 1.350 . S
C459 N467 1.427 . S
C460 H451 0.930 . S
C460 C458 1.378 . S
C460 C461 1.367 . S
C461 C460 1.367 . S
C461 C463 1.433 . S
C462 C458 1.350 . S
C462 C459 1.463 . S
C462 N466 1.427 . S
C463 H453 0.929 . S
C463 C461 1.433 . S
C463 N466 1.384 . S
C464 H455 0.929 . S
C464 C456 1.378 . S
C464 C459 1.350 . S
C465 H452 0.929 . S
C465 C457 1.433 . S
C465 N467 1.384 . S
N466 C462 1.427 . S
N466 C463 1.384 . S
N467 C459 1.427 . S
N467 C465 1.384 . S
H468 C474 0.930 . S
H469 C478 0.930 . S
H470 C483 0.929 . S
H471 C481 0.929 1_554 S
H472 C476 0.929 . S
H473 C482 0.929 . S
C474 H468 0.930 . S
C474 C475 1.367 . S
C474 C482 1.378 . S
C475 C474 1.367 . S
C475 C483 1.433 . S
C476 H472 0.929 . S
C476 C478 1.378 . S
C476 C480 1.350 . S
C477 C480 1.463 . S
C477 C482 1.350 . S
C477 N485 1.427 . S
C478 H469 0.930 . S
C478 C476 1.378 . S
C478 C479 1.367 . S
C479 C478 1.367 . S
C479 C481 1.433 . S
C480 C476 1.350 . S
C480 C477 1.463 . S
C480 N484 1.427 . S
C481 H471 0.929 1_556 S
C481 C479 1.433 . S
C481 N484 1.384 . S
C482 H473 0.929 . S
C482 C474 1.378 . S
C482 C477 1.350 . S
C483 H470 0.929 . S
C483 C475 1.433 . S
C483 N485 1.384 . S
N484 C480 1.427 . S
N484 C481 1.384 . S
N485 C477 1.427 . S
N485 C483 1.384 . S
H486 C492 0.930 . S
H487 C496 0.930 . S
H488 C501 0.929 1_556 S
H489 C499 0.929 . S
H490 C494 0.929 . S
H491 C500 0.929 . S
C492 H486 0.930 . S
C492 C493 1.367 . S
C492 C500 1.378 . S
C493 C492 1.367 . S
C493 C501 1.433 . S
C494 H490 0.929 . S
C494 C496 1.378 . S
C494 C498 1.350 . S
C495 C498 1.463 . S
C495 C500 1.350 . S
C495 N503 1.427 . S
C496 H487 0.930 . S
C496 C494 1.378 . S
C496 C497 1.367 . S
C497 C496 1.367 . S
C497 C499 1.433 . S
C498 C494 1.350 . S
C498 C495 1.463 . S
C498 N502 1.427 . S
C499 H489 0.929 . S
C499 C497 1.433 . S
C499 N502 1.384 . S
C500 H491 0.929 . S
C500 C492 1.378 . S
C500 C495 1.350 . S
C501 H488 0.929 1_554 S
C501 C493 1.433 . S
C501 N503 1.384 . S
N502 C498 1.427 . S
N502 C499 1.384 . S
N503 C495 1.427 . S
N503 C501 1.384 . S
H504 C510 0.930 . S
H505 C514 0.930 . S
H506 C519 0.929 . S
H507 C517 0.929 . S
H508 C512 0.929 . S
H509 C518 0.929 . S
C510 H504 0.930 . S
C510 C511 1.367 . S
C510 C518 1.378 . S
C511 C510 1.367 . S
C511 C519 1.433 . S
C512 H508 0.929 . S
C512 C514 1.378 . S
C512 C516 1.350 . S
C513 C516 1.463 . S
C513 C518 1.350 . S
C513 N521 1.427 . S
C514 H505 0.930 . S
C514 C512 1.378 . S
C514 C515 1.367 . S
C515 C514 1.367 . S
C515 C517 1.433 . S
C516 C512 1.350 . S
C516 C513 1.463 . S
C516 N520 1.427 . S
C517 H507 0.929 . S
C517 C515 1.433 . S
C517 N520 1.384 . S
C518 H509 0.929 . S
C518 C510 1.378 . S
C518 C513 1.350 . S
C519 H506 0.929 . S
C519 C511 1.433 . S
C519 N521 1.384 . S
N520 C516 1.427 . S
N520 C517 1.384 . S
N521 C513 1.427 . S
N521 C519 1.384 . S
H522 C528 0.930 . S
H523 C532 0.930 . S
H524 C537 0.929 . S
H525 C535 0.929 . S
H526 C530 0.929 . S
H527 C536 0.929 . S
C528 H522 0.930 . S
C528 C529 1.367 . S
C528 C536 1.378 . S
C529 C528 1.367 . S
C529 C537 1.433 . S
C530 H526 0.929 . S
C530 C532 1.378 . S
C530 C534 1.350 . S
C531 C534 1.463 . S
C531 C536 1.350 . S
C531 N539 1.427 . S
C532 H523 0.930 . S
C532 C530 1.378 . S
C532 C533 1.367 . S
C533 C532 1.367 . S
C533 C535 1.433 . S
C534 C530 1.350 . S
C534 C531 1.463 . S
C534 N538 1.427 . S
C535 H525 0.929 . S
C535 C533 1.433 . S
C535 N538 1.384 . S
C536 H527 0.929 . S
C536 C528 1.378 . S
C536 C531 1.350 . S
C537 H524 0.929 . S
C537 C529 1.433 . S
C537 N539 1.384 . S
N538 C534 1.427 . S
N538 C535 1.384 . S
N539 C531 1.427 . S
N539 C537 1.384 . S
H540 C546 0.930 . S
H541 C550 0.930 . S
H542 C555 0.929 . S
H543 C553 0.929 . S
H544 C548 0.929 . S
H545 C554 0.929 . S
C546 H540 0.930 . S
C546 C547 1.367 . S
C546 C554 1.378 . S
C547 C546 1.367 . S
C547 C555 1.433 . S
C548 H544 0.929 . S
C548 C550 1.378 . S
C548 C552 1.350 . S
C549 C552 1.463 . S
C549 C554 1.350 . S
C549 N557 1.427 . S
C550 H541 0.930 . S
C550 C548 1.378 . S
C550 C551 1.367 . S
C551 C550 1.367 . S
C551 C553 1.433 . S
C552 C548 1.350 . S
C552 C549 1.463 . S
C552 N556 1.427 . S
C553 H543 0.929 . S
C553 C551 1.433 . S
C553 N556 1.384 . S
C554 H545 0.929 . S
C554 C546 1.378 . S
C554 C549 1.350 . S
C555 H542 0.929 . S
C555 C547 1.433 . S
C555 N557 1.384 . S
N556 C552 1.427 . S
N556 C553 1.384 . S
N557 C549 1.427 . S
N557 C555 1.384 . S
H558 C564 0.930 . S
H559 C568 0.930 . S
H560 C573 0.929 . S
H561 C571 0.929 . S
H562 C566 0.929 . S
H563 C572 0.929 . S
C564 H558 0.930 . S
C564 C565 1.367 . S
C564 C572 1.378 . S
C565 C564 1.367 . S
C565 C573 1.433 . S
C566 H562 0.929 . S
C566 C568 1.378 . S
C566 C570 1.350 . S
C567 C570 1.463 . S
C567 C572 1.350 . S
C567 N575 1.427 . S
C568 H559 0.930 . S
C568 C566 1.378 . S
C568 C569 1.367 . S
C569 C568 1.367 . S
C569 C571 1.433 . S
C570 C566 1.350 . S
C570 C567 1.463 . S
C570 N574 1.427 . S
C571 H561 0.929 . S
C571 C569 1.433 . S
C571 N574 1.384 . S
C572 H563 0.929 . S
C572 C564 1.378 . S
C572 C567 1.350 . S
C573 H560 0.929 . S
C573 C565 1.433 . S
C573 N575 1.384 . S
N574 C570 1.427 . S
N574 C571 1.384 . S
N575 C567 1.427 . S
N575 C573 1.384 . S
H576 C582 0.930 . S
H577 C586 0.930 . S
H578 C591 0.929 . S
H579 C589 0.929 . S
H580 C584 0.929 . S
H581 C590 0.929 . S
C582 H576 0.930 . S
C582 C583 1.367 . S
C582 C590 1.378 . S
C583 C582 1.367 . S
C583 C591 1.433 . S
C584 H580 0.929 . S
C584 C586 1.378 . S
C584 C588 1.350 . S
C585 C588 1.463 . S
C585 C590 1.350 . S
C585 N593 1.427 . S
C586 H577 0.930 . S
C586 C584 1.378 . S
C586 C587 1.367 . S
C587 C586 1.367 . S
C587 C589 1.433 . S
C588 C584 1.350 . S
C588 C585 1.463 . S
C588 N592 1.427 . S
C589 H579 0.929 . S
C589 C587 1.433 . S
C589 N592 1.384 . S
C590 H581 0.929 . S
C590 C582 1.378 . S
C590 C585 1.350 . S
C591 H578 0.929 . S
C591 C583 1.433 . S
C591 N593 1.384 . S
N592 C588 1.427 . S
N592 C589 1.384 . S
N593 C585 1.427 . S
N593 C591 1.384 . S
H594 C600 0.930 . S
H595 C604 0.930 . S
H596 C609 0.929 . S
H597 C607 0.929 . S
H598 C602 0.929 . S
H599 C608 0.929 . S
C600 H594 0.930 . S
C600 C601 1.367 . S
C600 C608 1.378 . S
C601 C600 1.367 . S
C601 C609 1.433 . S
C602 H598 0.929 . S
C602 C604 1.378 . S
C602 C606 1.350 . S
C603 C606 1.463 . S
C603 C608 1.350 . S
C603 N611 1.427 . S
C604 H595 0.930 . S
C604 C602 1.378 . S
C604 C605 1.367 . S
C605 C604 1.367 . S
C605 C607 1.433 . S
C606 C602 1.350 . S
C606 C603 1.463 . S
C606 N610 1.427 . S
C607 H597 0.929 . S
C607 C605 1.433 . S
C607 N610 1.384 . S
C608 H599 0.929 . S
C608 C600 1.378 . S
C608 C603 1.350 . S
C609 H596 0.929 . S
C609 C601 1.433 . S
C609 N611 1.384 . S
N610 C606 1.427 . S
N610 C607 1.384 . S
N611 C603 1.427 . S
N611 C609 1.384 . S
H612 C618 0.930 . S
H613 C622 0.930 . S
H614 C627 0.929 . S
H615 C625 0.929 . S
H616 C620 0.929 . S
H617 C626 0.929 . S
C618 H612 0.930 . S
C618 C619 1.367 . S
C618 C626 1.378 . S
C619 C618 1.367 . S
C619 C627 1.433 . S
C620 H616 0.929 . S
C620 C622 1.378 . S
C620 C624 1.350 . S
C621 C624 1.463 1_655 S
C621 C626 1.350 . S
C621 N629 1.427 . S
C622 H613 0.930 . S
C622 C620 1.378 . S
C622 C623 1.367 . S
C623 C622 1.367 . S
C623 C625 1.433 . S
C624 C620 1.350 . S
C624 C621 1.463 1_455 S
C624 N628 1.427 . S
C625 H615 0.929 . S
C625 C623 1.433 . S
C625 N628 1.384 . S
C626 H617 0.929 . S
C626 C618 1.378 . S
C626 C621 1.350 . S
C627 H614 0.929 . S
C627 C619 1.433 . S
C627 N629 1.384 . S
N628 C624 1.427 . S
N628 C625 1.384 . S
N629 C621 1.427 . S
N629 C627 1.384 . S
H630 C636 0.949 . S
H631 C640 0.949 . S
H632 C645 0.929 . S
H633 C643 0.929 . S
H634 C638 0.929 . S
H635 C644 0.929 . S
C636 H630 0.949 . S
C636 C637 1.367 . S
C636 C644 1.378 1_565 S
C637 C636 1.367 . S
C637 C645 1.433 . S
C638 H634 0.929 . S
C638 C640 1.378 1_565 S
C638 C642 1.350 1_565 S
C639 C642 1.463 1_566 S
C639 C644 1.350 1_565 S
C639 N647 1.427 . S
C640 H631 0.949 . S
C640 C638 1.378 1_545 S
C640 C641 1.367 . S
C641 C640 1.367 . S
C641 C643 1.433 . S
C642 C638 1.350 1_545 S
C642 C639 1.463 1_544 S
C642 N646 1.427 . S
C643 H633 0.929 . S
C643 C641 1.433 . S
C643 N646 1.384 . S
C644 H635 0.929 . S
C644 C636 1.378 1_545 S
C644 C639 1.350 1_545 S
C645 H632 0.929 . S
C645 C637 1.433 . S
C645 N647 1.384 . S
N646 C642 1.427 . S
N646 C643 1.384 . S
N647 C639 1.427 . S
N647 C645 1.384 . S
H648 C654 0.930 . S
H649 C658 0.930 . S
H650 C663 0.929 . S
H651 C661 0.929 . S
H652 C656 0.929 . S
H653 C662 0.929 . S
C654 H648 0.930 . S
C654 C655 1.367 . S
C654 C662 1.378 . S
C655 C654 1.367 . S
C655 C663 1.433 . S
C656 H652 0.929 . S
C656 C658 1.378 . S
C656 C660 1.350 . S
C657 C660 1.463 . S
C657 C662 1.350 . S
C657 N665 1.427 . S
C658 H649 0.930 . S
C658 C656 1.378 . S
C658 C659 1.367 . S
C659 C658 1.367 . S
C659 C661 1.433 . S
C660 C656 1.350 . S
C660 C657 1.463 . S
C660 N664 1.427 . S
C661 H651 0.929 . S
C661 C659 1.433 . S
C661 N664 1.384 . S
C662 H653 0.929 . S
C662 C654 1.378 . S
C662 C657 1.350 . S
C663 H650 0.929 . S
C663 C655 1.433 . S
C663 N665 1.384 . S
N664 C660 1.427 . S
N664 C661 1.384 . S
N665 C657 1.427 . S
N665 C663 1.384 . S
H666 C672 0.930 . S
H667 C676 0.930 . S
H668 C681 0.929 . S
H669 C679 0.929 . S
H670 C674 0.929 . S
H671 C680 0.929 . S
C672 H666 0.930 . S
C672 C673 1.367 . S
C672 C680 1.378 . S
C673 C672 1.367 . S
C673 C681 1.433 1_655 S
C674 H670 0.929 . S
C674 C676 1.378 . S
C674 C678 1.350 . S
C675 C678 1.463 1_655 S
C675 C680 1.350 . S
C675 N683 1.427 1_655 S
C676 H667 0.930 . S
C676 C674 1.378 . S
C676 C677 1.367 . S
C677 C676 1.367 . S
C677 C679 1.433 1_455 S
C678 C674 1.350 . S
C678 C675 1.463 1_455 S
C678 N682 1.427 1_455 S
C679 H669 0.929 . S
C679 C677 1.433 1_655 S
C679 N682 1.384 . S
C680 H671 0.929 . S
C680 C672 1.378 . S
C680 C675 1.350 . S
C681 H668 0.929 . S
C681 C673 1.433 1_455 S
C681 N683 1.384 . S
N682 C678 1.427 1_655 S
N682 C679 1.384 . S
N683 C675 1.427 1_455 S
N683 C681 1.384 . S
H684 C690 0.930 . S
H685 C694 0.930 . S
H686 C699 0.929 . S
H687 C697 0.929 . S
H688 C692 0.929 . S
H689 C698 0.929 . S
C690 H684 0.930 . S
C690 C691 1.367 . S
C690 C698 1.378 . S
C691 C690 1.367 . S
C691 C699 1.433 1_565 S
C692 H688 0.929 . S
C692 C694 1.378 . S
C692 C696 1.350 . S
C693 C696 1.463 1_565 S
C693 C698 1.350 . S
C693 N701 1.427 1_565 S
C694 H685 0.930 . S
C694 C692 1.378 . S
C694 C695 1.367 . S
C695 C694 1.367 . S
C695 C697 1.433 1_545 S
C696 C692 1.350 . S
C696 C693 1.463 1_545 S
C696 N700 1.427 1_545 S
C697 H687 0.929 . S
C697 C695 1.433 1_565 S
C697 N700 1.384 . S
C698 H689 0.929 . S
C698 C690 1.378 . S
C698 C693 1.350 . S
C699 H686 0.929 . S
C699 C691 1.433 1_545 S
C699 N701 1.384 . S
N700 C696 1.427 1_565 S
N700 C697 1.384 . S
N701 C693 1.427 1_545 S
N701 C699 1.384 . S
H702 C708 0.930 . S
H703 C712 0.930 . S
H704 C717 0.929 . S
H705 C715 0.929 . S
H706 C710 0.929 . S
H707 C716 0.929 . S
C708 H702 0.930 . S
C708 C709 1.367 . S
C708 C716 1.378 . S
C709 C708 1.367 . S
C709 C717 1.433 . S
C710 H706 0.929 . S
C710 C712 1.378 . S
C710 C714 1.350 . S
C711 C714 1.463 . S
C711 C716 1.350 . S
C711 N719 1.427 . S
C712 H703 0.930 . S
C712 C710 1.378 . S
C712 C713 1.367 . S
C713 C712 1.367 . S
C713 C715 1.433 . S
C714 C710 1.350 . S
C714 C711 1.463 . S
C714 N718 1.427 . S
C715 H705 0.929 . S
C715 C713 1.433 . S
C715 N718 1.384 . S
C716 H707 0.929 . S
C716 C708 1.378 . S
C716 C711 1.350 . S
C717 H704 0.929 . S
C717 C709 1.433 . S
C717 N719 1.384 . S
N718 C714 1.427 . S
N718 C715 1.384 . S
N719 C711 1.427 . S
N719 C717 1.384 . S
H720 C726 0.930 . S
H721 C730 0.930 . S
H722 C735 0.929 . S
H723 C733 0.929 . S
H724 C728 0.929 . S
H725 C734 0.929 . S
C726 H720 0.930 . S
C726 C727 1.367 . S
C726 C734 1.378 . S
C727 C726 1.367 . S
C727 C735 1.433 . S
C728 H724 0.929 . S
C728 C730 1.378 . S
C728 C732 1.350 1_554 S
C729 C732 1.463 . S
C729 C734 1.350 . S
C729 N737 1.427 . S
C730 H721 0.930 . S
C730 C728 1.378 . S
C730 C731 1.367 . S
C731 C730 1.367 . S
C731 C733 1.433 1_554 S
C732 C728 1.350 1_556 S
C732 C729 1.463 . S
C732 N736 1.427 . S
C733 H723 0.929 . S
C733 C731 1.433 1_556 S
C733 N736 1.384 . S
C734 H725 0.929 . S
C734 C726 1.378 . S
C734 C729 1.350 . S
C735 H722 0.929 . S
C735 C727 1.433 . S
C735 N737 1.384 . S
N736 C732 1.427 . S
N736 C733 1.384 . S
N737 C729 1.427 . S
N737 C735 1.384 . S
H738 C744 0.930 . S
H739 C748 0.930 . S
H740 C753 0.929 . S
H741 C751 0.929 . S
H742 C746 0.929 . S
H743 C752 0.929 . S
C744 H738 0.930 . S
C744 C745 1.367 . S
C744 C752 1.378 . S
C745 C744 1.367 . S
C745 C753 1.433 . S
C746 H742 0.929 . S
C746 C748 1.378 . S
C746 C750 1.350 . S
C747 C750 1.463 . S
C747 C752 1.350 . S
C747 N755 1.427 . S
C748 H739 0.930 . S
C748 C746 1.378 . S
C748 C749 1.367 . S
C749 C748 1.367 . S
C749 C751 1.433 . S
C750 C746 1.350 . S
C750 C747 1.463 . S
C750 N754 1.427 . S
C751 H741 0.929 . S
C751 C749 1.433 . S
C751 N754 1.384 . S
C752 H743 0.929 . S
C752 C744 1.378 . S
C752 C747 1.350 . S
C753 H740 0.929 . S
C753 C745 1.433 . S
C753 N755 1.384 . S
N754 C750 1.427 . S
N754 C751 1.384 . S
N755 C747 1.427 . S
N755 C753 1.384 . S
H756 C762 0.930 . S
H757 C766 0.930 . S
H758 C771 0.929 . S
H759 C769 0.929 . S
H760 C764 0.929 . S
H761 C770 0.929 . S
C762 H756 0.930 . S
C762 C763 1.367 . S
C762 C770 1.378 . S
C763 C762 1.367 . S
C763 C771 1.433 . S
C764 H760 0.929 . S
C764 C766 1.378 . S
C764 C768 1.350 . S
C765 C768 1.463 . S
C765 C770 1.350 . S
C765 N773 1.427 . S
C766 H757 0.930 . S
C766 C764 1.378 . S
C766 C767 1.367 . S
C767 C766 1.367 . S
C767 C769 1.433 . S
C768 C764 1.350 . S
C768 C765 1.463 . S
C768 N772 1.427 . S
C769 H759 0.929 . S
C769 C767 1.433 . S
C769 N772 1.384 . S
C770 H761 0.929 . S
C770 C762 1.378 . S
C770 C765 1.350 . S
C771 H758 0.929 . S
C771 C763 1.433 . S
C771 N773 1.384 . S
N772 C768 1.427 . S
N772 C769 1.384 . S
N773 C765 1.427 . S
N773 C771 1.384 . S
H774 C780 0.930 . S
H775 C784 0.930 . S
H776 C789 0.929 . S
H777 C787 0.929 . S
H778 C782 0.929 . S
H779 C788 0.929 . S
C780 H774 0.930 . S
C780 C781 1.367 . S
C780 C788 1.378 . S
C781 C780 1.367 . S
C781 C789 1.433 . S
C782 H778 0.929 . S
C782 C784 1.378 . S
C782 C786 1.350 . S
C783 C786 1.463 . S
C783 C788 1.350 . S
C783 N791 1.427 . S
C784 H775 0.930 . S
C784 C782 1.378 . S
C784 C785 1.367 . S
C785 C784 1.367 . S
C785 C787 1.433 . S
C786 C782 1.350 . S
C786 C783 1.463 . S
C786 N790 1.427 . S
C787 H777 0.929 . S
C787 C785 1.433 . S
C787 N790 1.384 . S
C788 H779 0.929 . S
C788 C780 1.378 . S
C788 C783 1.350 . S
C789 H776 0.929 . S
C789 C781 1.433 . S
C789 N791 1.384 . S
N790 C786 1.427 . S
N790 C787 1.384 . S
N791 C783 1.427 . S
N791 C789 1.384 . S
H792 C798 0.930 . S
H793 C802 0.930 . S
H794 C807 0.929 . S
H795 C805 0.929 . S
H796 C800 0.929 . S
H797 C806 0.929 . S
C798 H792 0.930 . S
C798 C799 1.367 . S
C798 C806 1.378 . S
C799 C798 1.367 . S
C799 C807 1.433 . S
C800 H796 0.929 . S
C800 C802 1.378 . S
C800 C804 1.350 . S
C801 C804 1.463 . S
C801 C806 1.350 . S
C801 N809 1.427 . S
C802 H793 0.930 . S
C802 C800 1.378 . S
C802 C803 1.367 . S
C803 C802 1.367 . S
C803 C805 1.433 . S
C804 C800 1.350 . S
C804 C801 1.463 . S
C804 N808 1.427 . S
C805 H795 0.929 . S
C805 C803 1.433 . S
C805 N808 1.384 . S
C806 H797 0.929 . S
C806 C798 1.378 . S
C806 C801 1.350 . S
C807 H794 0.929 . S
C807 C799 1.433 . S
C807 N809 1.384 . S
N808 C804 1.427 . S
N808 C805 1.384 . S
N809 C801 1.427 . S
N809 C807 1.384 . S
H810 C816 0.930 . S
H811 C820 0.930 . S
H812 C825 0.929 . S
H813 C823 0.929 . S
H814 C818 0.929 . S
H815 C824 0.929 . S
C816 H810 0.930 . S
C816 C817 1.367 . S
C816 C824 1.378 . S
C817 C816 1.367 . S
C817 C825 1.433 . S
C818 H814 0.929 . S
C818 C820 1.378 . S
C818 C822 1.350 . S
C819 C822 1.463 . S
C819 C824 1.350 . S
C819 N827 1.427 . S
C820 H811 0.930 . S
C820 C818 1.378 . S
C820 C821 1.367 . S
C821 C820 1.367 . S
C821 C823 1.433 . S
C822 C818 1.350 . S
C822 C819 1.463 . S
C822 N826 1.427 . S
C823 H813 0.929 . S
C823 C821 1.433 . S
C823 N826 1.384 . S
C824 H815 0.929 . S
C824 C816 1.378 . S
C824 C819 1.350 . S
C825 H812 0.929 . S
C825 C817 1.433 . S
C825 N827 1.384 . S
N826 C822 1.427 . S
N826 C823 1.384 . S
N827 C819 1.427 . S
N827 C825 1.384 . S
H828 C834 0.930 . S
H829 C838 0.930 . S
H830 C843 0.929 . S
H831 C841 0.929 . S
H832 C836 0.929 . S
H833 C842 0.929 . S
C834 H828 0.930 . S
C834 C835 1.367 . S
C834 C842 1.378 . S
C835 C834 1.367 . S
C835 C843 1.433 . S
C836 H832 0.929 . S
C836 C838 1.378 . S
C836 C840 1.350 . S
C837 C840 1.463 . S
C837 C842 1.350 . S
C837 N845 1.427 . S
C838 H829 0.930 . S
C838 C836 1.378 . S
C838 C839 1.367 . S
C839 C838 1.367 . S
C839 C841 1.433 . S
C840 C836 1.350 . S
C840 C837 1.463 . S
C840 N844 1.427 . S
C841 H831 0.929 . S
C841 C839 1.433 . S
C841 N844 1.384 . S
C842 H833 0.929 . S
C842 C834 1.378 . S
C842 C837 1.350 . S
C843 H830 0.929 . S
C843 C835 1.433 . S
C843 N845 1.384 . S
N844 C840 1.427 . S
N844 C841 1.384 . S
N845 C837 1.427 . S
N845 C843 1.384 . S
H846 C852 0.930 . S
H847 C856 0.930 . S
H848 C861 0.929 . S
H849 C859 0.929 . S
H850 C854 0.929 . S
H851 C860 0.929 . S
C852 H846 0.930 . S
C852 C853 1.367 . S
C852 C860 1.378 . S
C853 C852 1.367 . S
C853 C861 1.433 1_556 S
C854 H850 0.929 . S
C854 C856 1.378 . S
C854 C858 1.350 . S
C855 C858 1.463 . S
C855 C860 1.350 1_554 S
C855 N863 1.427 . S
C856 H847 0.930 . S
C856 C854 1.378 . S
C856 C857 1.367 . S
C857 C856 1.367 . S
C857 C859 1.433 . S
C858 C854 1.350 . S
C858 C855 1.463 . S
C858 N862 1.427 . S
C859 H849 0.929 . S
C859 C857 1.433 . S
C859 N862 1.384 . S
C860 H851 0.929 . S
C860 C852 1.378 . S
C860 C855 1.350 1_556 S
C861 H848 0.929 . S
C861 C853 1.433 1_554 S
C861 N863 1.384 . S
N862 C858 1.427 . S
N862 C859 1.384 . S
N863 C855 1.427 . S
N863 C861 1.384 . S
H864 C870 0.930 . S
H865 C874 0.930 . S
H866 C879 0.929 . S
H867 C877 0.929 . S
H868 C872 0.929 . S
H869 C878 0.929 . S
C870 H864 0.930 . S
C870 C871 1.367 . S
C870 C878 1.378 . S
C871 C870 1.367 . S
C871 C879 1.433 . S
C872 H868 0.929 . S
C872 C874 1.378 . S
C872 C876 1.350 . S
C873 C876 1.463 . S
C873 C878 1.350 . S
C873 N881 1.427 . S
C874 H865 0.930 . S
C874 C872 1.378 . S
C874 C875 1.367 . S
C875 C874 1.367 . S
C875 C877 1.433 . S
C876 C872 1.350 . S
C876 C873 1.463 . S
C876 N880 1.427 . S
C877 H867 0.929 . S
C877 C875 1.433 . S
C877 N880 1.384 . S
C878 H869 0.929 . S
C878 C870 1.378 . S
C878 C873 1.350 . S
C879 H866 0.929 . S
C879 C871 1.433 . S
C879 N881 1.384 . S
N880 C876 1.427 . S
N880 C877 1.384 . S
N881 C873 1.427 . S
N881 C879 1.384 . S
H882 C888 0.930 . S
H883 C892 0.930 . S
H884 C897 0.929 . S
H885 C895 0.929 . S
H886 C890 0.929 . S
H887 C896 0.929 . S
C888 H882 0.930 . S
C888 C889 1.367 . S
C888 C896 1.378 . S
C889 C888 1.367 . S
C889 C897 1.433 . S
C890 H886 0.929 . S
C890 C892 1.378 . S
C890 C894 1.350 . S
C891 C894 1.463 . S
C891 C896 1.350 . S
C891 N899 1.427 . S
C892 H883 0.930 . S
C892 C890 1.378 . S
C892 C893 1.367 . S
C893 C892 1.367 . S
C893 C895 1.433 . S
C894 C890 1.350 . S
C894 C891 1.463 . S
C894 N898 1.427 . S
C895 H885 0.929 . S
C895 C893 1.433 . S
C895 N898 1.384 . S
C896 H887 0.929 . S
C896 C888 1.378 . S
C896 C891 1.350 . S
C897 H884 0.929 . S
C897 C889 1.433 . S
C897 N899 1.384 . S
N898 C894 1.427 . S
N898 C895 1.384 . S
N899 C891 1.427 . S
N899 C897 1.384 . S
H900 C906 0.930 . S
H901 C910 0.930 . S
H902 C915 0.929 . S
H903 C913 0.929 . S
H904 C908 0.929 . S
H905 C914 0.929 . S
C906 H900 0.930 . S
C906 C907 1.367 . S
C906 C914 1.378 . S
C907 C906 1.367 . S
C907 C915 1.433 . S
C908 H904 0.929 . S
C908 C910 1.378 . S
C908 C912 1.350 . S
C909 C912 1.463 . S
C909 C914 1.350 . S
C909 N917 1.427 . S
C910 H901 0.930 . S
C910 C908 1.378 . S
C910 C911 1.367 . S
C911 C910 1.367 . S
C911 C913 1.433 . S
C912 C908 1.350 . S
C912 C909 1.463 . S
C912 N916 1.427 . S
C913 H903 0.929 . S
C913 C911 1.433 . S
C913 N916 1.384 . S
C914 H905 0.929 . S
C914 C906 1.378 . S
C914 C909 1.350 . S
C915 H902 0.929 . S
C915 C907 1.433 . S
C915 N917 1.384 . S
N916 C912 1.427 . S
N916 C913 1.384 . S
N917 C909 1.427 . S
N917 C915 1.384 . S
H918 C924 0.930 . S
H919 C928 0.930 . S
H920 C933 0.929 . S
H921 C931 0.929 . S
H922 C926 0.929 . S
H923 C932 0.929 . S
C924 H918 0.930 . S
C924 C925 1.367 . S
C924 C932 1.378 . S
C925 C924 1.367 . S
C925 C933 1.433 . S
C926 H922 0.929 . S
C926 C928 1.378 . S
C926 C930 1.350 . S
C927 C930 1.463 . S
C927 C932 1.350 . S
C927 N935 1.427 . S
C928 H919 0.930 . S
C928 C926 1.378 . S
C928 C929 1.367 . S
C929 C928 1.367 . S
C929 C931 1.433 . S
C930 C926 1.350 . S
C930 C927 1.463 . S
C930 N934 1.427 . S
C931 H921 0.929 . S
C931 C929 1.433 . S
C931 N934 1.384 . S
C932 H923 0.929 . S
C932 C924 1.378 . S
C932 C927 1.350 . S
C933 H920 0.929 . S
C933 C925 1.433 . S
C933 N935 1.384 . S
N934 C930 1.427 . S
N934 C931 1.384 . S
N935 C927 1.427 . S
N935 C933 1.384 . S
C403 N343 1.053 . S
C407 N13 1.059 . S
C421 N46 1.052 . S
C425 N376 1.059 . S
C439 N79 1.060 . S
C443 N211 1.056 . S
C457 N112 1.047 . S
C461 N244 1.045 . S
C475 N145 1.046 . S
C479 N277 1.053 1_556 S
C493 N178 1.046 1_554 S
C497 N310 1.053 . S
C511 C21 1.446 . S
C515 C285 1.448 . S
C529 C318 1.447 . S
C533 C54 1.447 . S
C547 C87 1.448 . S
C551 C351 1.447 . S
C565 C120 1.450 . S
C569 C384 1.450 . S
C583 C153 1.451 . S
C587 C219 1.450 . S
C601 C186 1.448 . S
C605 C252 1.451 . S
C619 N365 1.193 . S
C623 N2 1.201 . S
C637 N200 1.206 . S
C641 N35 1.198 . S
C655 N233 1.195 . S
C659 N68 1.188 . S
C673 N101 1.190 . S
C677 N266 1.187 . S
C691 N134 1.187 . S
C695 N299 1.190 . S
C709 N332 1.187 . S
C713 N167 1.187 . S
C727 C172 1.973 . S
C731 C18 1.984 . S
C745 C7 1.975 1_655 S
C749 C51 1.983 . S
C763 C84 1.983 . S
C767 C40 1.972 1_565 S
C781 C73 1.972 . S
C785 C117 1.983 . S
C799 C150 1.985 . S
C803 C106 1.975 1_455 S
C817 C183 1.983 . S
C821 C139 1.975 1_545 S
C835 C238 1.972 . S
C839 C216 1.982 . S
C853 C249 1.983 . S
C857 C271 1.973 1_655 S
C871 C282 1.983 . S
C875 C304 1.974 1_565 S
C889 C337 1.973 . S
C893 C315 1.983 . S
C907 C370 1.974 1_455 S
C911 C348 1.984 . S
C925 C381 1.983 . S
C929 C205 1.972 1_545 S
