# Generated by pormake.
# Topology zfg, (5)-cn, num edge types: 1
# Building blocks:
#     Node 0, Type 0, BuildingBlock: XOMCOT_clean_sbu_1, # of connection points: 5
#     Node 1, Type 0, BuildingBlock: XOMCOT_clean_sbu_1, # of connection points: 5
#     Node 2, Type 0, BuildingBlock: XOMCOT_clean_sbu_1, # of connection points: 5
#     Node 3, Type 0, BuildingBlock: XOMCOT_clean_sbu_1, # of connection points: 5
#     Node 4, Type 0, BuildingBlock: XOMCOT_clean_sbu_1, # of connection points: 5
#     Node 5, Type 0, BuildingBlock: XOMCOT_clean_sbu_1, # of connection points: 5
#     Node 6, Type 0, BuildingBlock: XOMCOT_clean_sbu_1, # of connection points: 5
#     Node 7, Type 0, BuildingBlock: XOMCOT_clean_sbu_1, # of connection points: 5
#     Node 8, Type 0, BuildingBlock: XOMCOT_clean_sbu_1, # of connection points: 5
#     Node 9, Type 0, BuildingBlock: XOMCOT_clean_sbu_1, # of connection points: 5
#     Node 10, Type 0, BuildingBlock: XOMCOT_clean_sbu_1, # of connection points: 5
#     Node 11, Type 0, BuildingBlock: XOMCOT_clean_sbu_1, # of connection points: 5
#     Node 12, Type 0, BuildingBlock: XOMCOT_clean_sbu_1, # of connection points: 5
#     Node 13, Type 0, BuildingBlock: XOMCOT_clean_sbu_1, # of connection points: 5
#     Node 14, Type 0, BuildingBlock: XOMCOT_clean_sbu_1, # of connection points: 5
#     Node 15, Type 0, BuildingBlock: XOMCOT_clean_sbu_1, # of connection points: 5
#     Edge 16, Type (0, 0), None
#     Edge 17, Type (0, 0), None
#     Edge 18, Type (0, 0), None
#     Edge 19, Type (0, 0), None
#     Edge 20, Type (0, 0), None
#     Edge 21, Type (0, 0), None
#     Edge 22, Type (0, 0), None
#     Edge 23, Type (0, 0), None
#     Edge 24, Type (0, 0), None
#     Edge 25, Type (0, 0), None
#     Edge 26, Type (0, 0), None
#     Edge 27, Type (0, 0), None
#     Edge 28, Type (0, 0), None
#     Edge 29, Type (0, 0), None
#     Edge 30, Type (0, 0), None
#     Edge 31, Type (0, 0), None
#     Edge 32, Type (0, 0), None
#     Edge 33, Type (0, 0), None
#     Edge 34, Type (0, 0), None
#     Edge 35, Type (0, 0), None
#     Edge 36, Type (0, 0), None
#     Edge 37, Type (0, 0), None
#     Edge 38, Type (0, 0), None
#     Edge 39, Type (0, 0), None
#     Edge 40, Type (0, 0), None
#     Edge 41, Type (0, 0), None
#     Edge 42, Type (0, 0), None
#     Edge 43, Type (0, 0), None
#     Edge 44, Type (0, 0), None
#     Edge 45, Type (0, 0), None
#     Edge 46, Type (0, 0), None
#     Edge 47, Type (0, 0), None
#     Edge 48, Type (0, 0), None
#     Edge 49, Type (0, 0), None
#     Edge 50, Type (0, 0), None
#     Edge 51, Type (0, 0), None
#     Edge 52, Type (0, 0), None
#     Edge 53, Type (0, 0), None
#     Edge 54, Type (0, 0), None
#     Edge 55, Type (0, 0), None
# Relax obj value: 0.085
# Max RMSD: 0.119
# Mean RMSD: 0.119
data_MOF--net-zfg--node1-XOMCOT_clean_sbu_1--edge1-none
_symmetry_space_group_name_H-M    P1
_symmetry_Int_Tables_number       1
_symmetry_cell_setting            triclinic
loop_
_symmetry_equiv_pos_as_xyz
'x, y, z'
_cell_length_a     23.213102
_cell_length_b     23.211751
_cell_length_c     21.91487
_cell_angle_alpha  90.00081
_cell_angle_beta   89.999488
_cell_angle_gamma 90.000457
loop_
_atom_site_label
_atom_site_type_symbol
_atom_site_fract_x
_atom_site_fract_y
_atom_site_fract_z
_atom_type_partial_charge
C0 C 0.0488 0.19297 0.31511 0.0
C1 C 0.08944 0.15035 0.31788 0.0
N2 N 0.12578 0.15747 0.2708 0.0
N3 N 0.05903 0.22677 0.26617 0.0
C4 C 0.10645 0.2038 0.23974 0.0
H5 H 0.0166 0.20129 0.34954 0.0
Co6 Co 0.02383 0.29818 0.25804 0.0
C7 C 0.06489 0.30405 0.12396 0.0
O8 O 0.12114 0.30718 0.12896 0.0
N9 N 0.98953 0.37151 0.25159 0.0
C10 C 0.93314 0.44923 0.25748 0.0
C11 C 0.93523 0.39004 0.26281 0.0
C12 C 0.01911 0.42026 0.23841 0.0
N13 N 0.9862 0.4676 0.24255 0.0
O14 O 0.09622 0.33372 0.27186 0.0
H15 H 0.89954 0.36319 0.27642 0.0
H16 H 0.06442 0.42171 0.22726 0.0
O17 O 0.03308 0.30051 0.17102 0.0
C18 C 0.10942 0.33999 0.32785 0.0
O19 O 0.07616 0.31724 0.36992 0.0
N20 N 0.95262 0.2609 0.24897 0.0
C21 C 0.86764 0.17745 0.26069 0.0
C22 C 0.89295 0.18782 0.20386 0.0
C23 C 0.93619 0.22951 0.19898 0.0
C24 C 0.92421 0.25498 0.30296 0.0
C25 C 0.88169 0.21323 0.30992 0.0
H26 H 0.95914 0.23251 0.15633 0.0
H27 H 0.93842 0.27927 0.34234 0.0
H28 H 0.12914 0.22299 0.20188 0.0
H29 H 0.09353 0.11798 0.35321 0.0
H30 H 0.89655 0.47658 0.26734 0.0
H31 H 0.88314 0.16047 0.16519 0.0
H32 H 0.86255 0.20637 0.35439 0.0
C33 C 0.79942 0.04906 0.31534 0.0
C34 C 0.84199 0.08976 0.3181 0.0
N35 N 0.83478 0.12611 0.27103 0.0
N36 N 0.76559 0.05926 0.26642 0.0
C37 C 0.78849 0.1067 0.23998 0.0
H38 H 0.79117 0.01682 0.34976 0.0
Co39 Co 0.69419 0.02407 0.25829 0.0
C40 C 0.68832 0.0651 0.12417 0.0
O41 O 0.68514 0.12136 0.12909 0.0
N42 N 0.62084 0.98979 0.25176 0.0
C43 C 0.54314 0.93334 0.25715 0.0
C44 C 0.60232 0.93541 0.26258 0.0
C45 C 0.5721 0.01943 0.23869 0.0
N46 N 0.52477 0.98648 0.24253 0.0
O47 O 0.65868 0.09646 0.27216 0.0
H48 H 0.62917 0.89964 0.27595 0.0
H49 H 0.57065 0.06478 0.22777 0.0
O50 O 0.69187 0.03336 0.17128 0.0
C51 C 0.65244 0.10962 0.32817 0.0
O52 O 0.67521 0.07632 0.37019 0.0
N53 N 0.73145 0.95286 0.24919 0.0
C54 C 0.81482 0.86782 0.26099 0.0
C55 C 0.80458 0.8932 0.20417 0.0
C56 C 0.76292 0.93648 0.19925 0.0
C57 C 0.73726 0.92441 0.30317 0.0
C58 C 0.77897 0.88185 0.31017 0.0
H59 H 0.76003 0.95949 0.15663 0.0
H60 H 0.71292 0.9386 0.34251 0.0
H61 H 0.76926 0.12935 0.20211 0.0
H62 H 0.87439 0.09387 0.35338 0.0
H63 H 0.51578 0.89668 0.2667 0.0
H64 H 0.832 0.88342 0.16554 0.0
H65 H 0.78573 0.86265 0.35463 0.0
C66 C 0.94306 0.79942 0.31581 0.0
C67 C 0.90235 0.84198 0.31859 0.0
N68 N 0.86612 0.8349 0.27139 0.0
N69 N 0.93299 0.76572 0.26676 0.0
C70 C 0.88562 0.78869 0.24025 0.0
H71 H 0.97522 0.79108 0.35029 0.0
Co72 Co 0.96826 0.69437 0.25857 0.0
C73 C 0.92716 0.68845 0.12448 0.0
O74 O 0.8709 0.6852 0.12942 0.0
N75 N 0.00263 0.62108 0.25201 0.0
C76 C 0.05902 0.54335 0.25764 0.0
C77 C 0.05694 0.60254 0.26313 0.0
C78 C 0.97304 0.57236 0.2387 0.0
N79 N 0.00594 0.52502 0.24275 0.0
O80 O 0.89593 0.65875 0.27247 0.0
H81 H 0.09263 0.62937 0.27676 0.0
H82 H 0.92775 0.57095 0.22749 0.0
O83 O 0.95891 0.69205 0.17157 0.0
C84 C 0.88283 0.65237 0.32848 0.0
O85 O 0.91614 0.67506 0.37053 0.0
N86 N 0.03942 0.73172 0.24942 0.0
C87 C 0.12451 0.81508 0.26103 0.0
C88 C 0.0991 0.80477 0.20424 0.0
C89 C 0.0558 0.76312 0.19941 0.0
C90 C 0.06788 0.73763 0.30337 0.0
C91 C 0.11046 0.77932 0.31028 0.0
H92 H 0.03278 0.76016 0.1568 0.0
H93 H 0.0537 0.71334 0.34276 0.0
H94 H 0.86308 0.76958 0.20224 0.0
H95 H 0.89815 0.87429 0.35396 0.0
H96 H 0.09564 0.51598 0.26734 0.0
H97 H 0.10888 0.83212 0.16556 0.0
H98 H 0.12969 0.78614 0.35472 0.0
C99 C 0.19308 0.94329 0.31568 0.0
C100 C 0.15049 0.90262 0.31853 0.0
N101 N 0.15748 0.86638 0.27133 0.0
N102 N 0.2267 0.9332 0.26658 0.0
C103 C 0.20366 0.88583 0.24011 0.0
H104 H 0.20149 0.97544 0.35014 0.0
Co105 Co 0.29804 0.9685 0.25834 0.0
C106 C 0.30392 0.92728 0.12429 0.0
O107 O 0.30708 0.87103 0.12929 0.0
N108 N 0.37129 0.00289 0.25181 0.0
C109 C 0.44902 0.05923 0.25793 0.0
C110 C 0.38984 0.05713 0.26334 0.0
C111 C 0.42001 0.97336 0.23838 0.0
N112 N 0.46736 0.00623 0.24271 0.0
O113 O 0.3337 0.89618 0.27226 0.0
H114 H 0.36302 0.09273 0.27724 0.0
H115 H 0.42141 0.92811 0.22693 0.0
O116 O 0.30036 0.95909 0.17134 0.0
C117 C 0.3401 0.88301 0.32824 0.0
O118 O 0.31742 0.91628 0.37035 0.0
N119 N 0.26065 0.03965 0.24914 0.0
C120 C 0.17716 0.12462 0.2606 0.0
C121 C 0.18762 0.09925 0.20382 0.0
C122 C 0.22934 0.05601 0.19907 0.0
C123 C 0.25462 0.06811 0.30308 0.0
C124 C 0.21285 0.11063 0.30991 0.0
H125 H 0.23241 0.03302 0.15644 0.0
H126 H 0.27885 0.05395 0.34252 0.0
H127 H 0.2227 0.86327 0.20208 0.0
H128 H 0.11823 0.89846 0.35395 0.0
H129 H 0.4764 0.09577 0.26795 0.0
H130 H 0.16033 0.109 0.16508 0.0
H131 H 0.20592 0.12983 0.35434 0.0
C132 C 0.54897 0.29953 0.35876 0.0
C133 C 0.58964 0.34213 0.35606 0.0
N134 N 0.62598 0.33491 0.40314 0.0
N135 N 0.55918 0.26566 0.40764 0.0
C136 C 0.60661 0.28856 0.43412 0.0
H137 H 0.51675 0.29129 0.32433 0.0
Co138 Co 0.524 0.19424 0.41573 0.0
C139 C 0.56501 0.18832 0.54984 0.0
O140 O 0.62126 0.18512 0.54491 0.0
N141 N 0.48974 0.12088 0.42221 0.0
C142 C 0.43331 0.04316 0.41678 0.0
C143 C 0.43537 0.10235 0.41137 0.0
C144 C 0.51938 0.07214 0.43527 0.0
N145 N 0.48644 0.0248 0.43141 0.0
O146 O 0.59641 0.15875 0.40187 0.0
H147 H 0.3996 0.1292 0.39801 0.0
H148 H 0.56473 0.07069 0.4462 0.0
O149 O 0.53326 0.19189 0.50275 0.0
C150 C 0.60956 0.15252 0.34586 0.0
O151 O 0.57627 0.17529 0.30383 0.0
N152 N 0.45279 0.23148 0.42481 0.0
C153 C 0.36776 0.31486 0.413 0.0
C154 C 0.39311 0.3046 0.46983 0.0
C155 C 0.43639 0.26294 0.47475 0.0
C156 C 0.42435 0.2373 0.37083 0.0
C157 C 0.3818 0.27902 0.36382 0.0
H158 H 0.45939 0.26004 0.51739 0.0
H159 H 0.43856 0.21297 0.33148 0.0
H160 H 0.62928 0.26929 0.47194 0.0
H161 H 0.59375 0.37455 0.32079 0.0
H162 H 0.39665 0.0158 0.40722 0.0
H163 H 0.38332 0.33201 0.50846 0.0
H164 H 0.36262 0.28579 0.31935 0.0
C165 C 0.69297 0.54881 0.35888 0.0
C166 C 0.65034 0.58945 0.3561 0.0
N167 N 0.65747 0.6258 0.40318 0.0
N168 N 0.72676 0.55905 0.40782 0.0
C169 C 0.70379 0.60647 0.43425 0.0
H170 H 0.70128 0.51661 0.32445 0.0
Co171 Co 0.79816 0.52384 0.41595 0.0
C172 C 0.80405 0.56495 0.55003 0.0
O173 O 0.80716 0.62121 0.54503 0.0
N174 N 0.87149 0.48953 0.4224 0.0
C175 C 0.9492 0.43316 0.41646 0.0
C176 C 0.89002 0.43524 0.41114 0.0
C177 C 0.92023 0.51911 0.43561 0.0
N178 N 0.96757 0.48621 0.43144 0.0
O179 O 0.83371 0.59622 0.40208 0.0
H180 H 0.86318 0.39956 0.39748 0.0
H181 H 0.92166 0.56442 0.44679 0.0
O182 O 0.80052 0.53315 0.50297 0.0
C183 C 0.83996 0.60943 0.34609 0.0
O184 O 0.8172 0.57618 0.30401 0.0
N185 N 0.76088 0.45263 0.42508 0.0
C186 C 0.67737 0.36771 0.41343 0.0
C187 C 0.68777 0.39303 0.47024 0.0
C188 C 0.7295 0.43625 0.47509 0.0
C189 C 0.75492 0.4242 0.37111 0.0
C190 C 0.71314 0.38171 0.36418 0.0
H191 H 0.73252 0.45922 0.51773 0.0
H192 H 0.7792 0.43838 0.33171 0.0
H193 H 0.72298 0.62916 0.4721 0.0
H194 H 0.61798 0.59353 0.32078 0.0
H195 H 0.97656 0.39658 0.40657 0.0
H196 H 0.66043 0.38326 0.50893 0.0
H197 H 0.70624 0.36255 0.31972 0.0
C198 C 0.4433 0.69303 0.35841 0.0
C199 C 0.40265 0.65042 0.35561 0.0
N200 N 0.36642 0.65741 0.40282 0.0
N201 N 0.43319 0.72669 0.40748 0.0
C202 C 0.38584 0.70365 0.43397 0.0
H203 H 0.47543 0.70143 0.32392 0.0
Co204 Co 0.46849 0.79804 0.41567 0.0
C205 C 0.4273 0.80398 0.54971 0.0
O206 O 0.37105 0.80716 0.5447 0.0
N207 N 0.50287 0.87131 0.42215 0.0
C208 C 0.55919 0.94905 0.41599 0.0
C209 C 0.5571 0.88986 0.41061 0.0
C210 C 0.47334 0.92003 0.43558 0.0
N211 N 0.5062 0.96739 0.43122 0.0
O212 O 0.39616 0.83369 0.40176 0.0
H213 H 0.5927 0.86304 0.39671 0.0
H214 H 0.4281 0.92143 0.44704 0.0
O215 O 0.45911 0.8004 0.50267 0.0
C216 C 0.38301 0.84009 0.34578 0.0
O217 O 0.41627 0.81741 0.30367 0.0
N218 N 0.53964 0.76067 0.42486 0.0
C219 C 0.62462 0.67718 0.41338 0.0
C220 C 0.59926 0.68765 0.47017 0.0
C221 C 0.55602 0.72936 0.47493 0.0
C222 C 0.56808 0.75463 0.3709 0.0
C223 C 0.61061 0.71286 0.36407 0.0
H224 H 0.53305 0.73245 0.51756 0.0
H225 H 0.55391 0.77885 0.33146 0.0
H226 H 0.36327 0.72272 0.47197 0.0
H227 H 0.39848 0.61814 0.3202 0.0
H228 H 0.59572 0.97643 0.40597 0.0
H229 H 0.60903 0.66037 0.50891 0.0
H230 H 0.62979 0.70592 0.31963 0.0
C231 C 0.29937 0.44311 0.3582 0.0
C232 C 0.34193 0.4024 0.35542 0.0
N233 N 0.33484 0.36616 0.40261 0.0
N234 N 0.26567 0.43303 0.40724 0.0
C235 C 0.28863 0.38565 0.43374 0.0
H236 H 0.29104 0.47529 0.32374 0.0
Co237 Co 0.19432 0.46831 0.41543 0.0
C238 C 0.18839 0.42716 0.54951 0.0
O239 O 0.18517 0.3709 0.54458 0.0
N240 N 0.12104 0.50266 0.42199 0.0
C241 C 0.0433 0.55906 0.41636 0.0
C242 C 0.10248 0.55698 0.41087 0.0
C243 C 0.07233 0.47307 0.43529 0.0
N244 N 0.02498 0.50597 0.43124 0.0
O245 O 0.1587 0.39597 0.40147 0.0
H246 H 0.12931 0.59268 0.39724 0.0
H247 H 0.07092 0.42777 0.4465 0.0
O248 O 0.19198 0.4589 0.50242 0.0
C249 C 0.15235 0.38286 0.34547 0.0
O250 O 0.17506 0.41617 0.30341 0.0
N251 N 0.23167 0.53946 0.42464 0.0
C252 C 0.31509 0.6245 0.41309 0.0
C253 C 0.30475 0.59907 0.46986 0.0
C254 C 0.26307 0.5558 0.47466 0.0
C255 C 0.2376 0.56795 0.3707 0.0
C256 C 0.27933 0.61051 0.36383 0.0
H257 H 0.26008 0.53276 0.51726 0.0
H258 H 0.21332 0.5538 0.3313 0.0
H259 H 0.26951 0.3631 0.47174 0.0
H260 H 0.37425 0.39822 0.32006 0.0
H261 H 0.01592 0.59566 0.40666 0.0
H262 H 0.3321 0.60881 0.50855 0.0
H263 H 0.28616 0.62975 0.3194 0.0
C264 C 0.93109 0.79728 0.86625 0.0
C265 C 0.89513 0.84419 0.86654 0.0
N266 N 0.86226 0.84145 0.91699 0.0
N267 N 0.9205 0.76481 0.91601 0.0
C268 C 0.87827 0.793 0.94638 0.0
H269 H 0.96208 0.78665 0.83118 0.0
Co270 Co 0.95664 0.69485 0.93097 0.0
C271 C 0.95577 0.68325 1.06484 0.0
O272 O 0.01024 0.66811 1.06312 0.0
N273 N 0.99321 0.62185 0.94505 0.0
C274 C 0.05585 0.549 0.95496 0.0
C275 C 0.04983 0.60781 0.94935 0.0
C276 C 0.96592 0.57022 0.94941 0.0
N277 N 0.00294 0.52569 0.95483 0.0
O278 O 0.88862 0.65615 0.90712 0.0
H279 H 0.08533 0.63776 0.94854 0.0
H280 H 0.91976 0.56491 0.94759 0.0
O281 O 0.92951 0.69634 1.01564 0.0
C282 C 0.88263 0.65084 0.84962 0.0
O283 O 0.92032 0.67491 0.81293 0.0
N284 N 0.02449 0.73558 0.94676 0.0
C285 C 0.11282 0.81528 0.93125 0.0
C286 C 0.07923 0.81598 0.98442 0.0
C287 C 0.03395 0.77632 0.99074 0.0
C288 C 0.05817 0.73374 0.89587 0.0
C289 C 0.10276 0.77284 0.88742 0.0
H290 H 0.00411 0.78167 1.02808 0.0
H291 H 0.04773 0.70383 0.85964 0.0
H292 H 0.85803 0.77738 0.98767 0.0
H293 H 0.8924 0.87729 0.83183 0.0
H294 H 0.09597 0.52546 0.95807 0.0
H295 H 0.08492 0.8497 1.01803 0.0
H296 H 0.12727 0.77207 0.84538 0.0
C297 C 0.19494 0.9308 0.86609 0.0
C298 C 0.14808 0.89478 0.86644 0.0
N299 N 0.15088 0.86196 0.91693 0.0
N300 N 0.22742 0.92034 0.91587 0.0
C301 C 0.19929 0.87811 0.94631 0.0
H302 H 0.20551 0.96176 0.83096 0.0
Co303 Co 0.29736 0.95655 0.93074 0.0
C304 C 0.3091 0.95582 1.0646 0.0
O305 O 0.3243 0.01028 1.06279 0.0
N306 N 0.37033 0.99319 0.94474 0.0
C307 C 0.44317 0.05588 0.95438 0.0
C308 C 0.38437 0.04983 0.94863 0.0
C309 C 0.42192 0.96591 0.94947 0.0
N310 N 0.46645 0.00295 0.95474 0.0
O311 O 0.33611 0.88854 0.90692 0.0
H312 H 0.35445 0.08534 0.94744 0.0
H313 H 0.4272 0.91972 0.94801 0.0
O314 O 0.29593 0.92952 1.01545 0.0
C315 C 0.34137 0.88257 0.84941 0.0
O316 O 0.31723 0.92024 0.81276 0.0
N317 N 0.25659 0.0244 0.94646 0.0
C318 C 0.17693 0.11275 0.9309 0.0
C319 C 0.17634 0.07931 0.98418 0.0
C320 C 0.21597 0.034 0.99053 0.0
C321 C 0.25832 0.05792 0.89545 0.0
C322 C 0.21924 0.10252 0.88698 0.0
H323 H 0.2107 0.00428 1.02799 0.0
H324 H 0.28814 0.04735 0.85918 0.0
H325 H 0.21493 0.85797 0.98765 0.0
H326 H 0.11496 0.89197 0.83176 0.0
H327 H 0.4667 0.09601 0.95723 0.0
H328 H 0.14271 0.08513 1.01786 0.0
H329 H 0.21995 0.12692 0.84486 0.0
C330 C 0.06153 0.195 0.86569 0.0
C331 C 0.09754 0.14813 0.86603 0.0
N332 N 0.13027 0.15085 0.91658 0.0
N333 N 0.07191 0.2274 0.91555 0.0
C334 C 0.11407 0.19921 0.94603 0.0
H335 H 0.03064 0.20563 0.83052 0.0
Co336 Co 0.03563 0.29731 0.93042 0.0
C337 C 0.03636 0.3092 1.06427 0.0
O338 O 0.98193 0.32448 1.06243 0.0
N339 N -0.00109 0.37023 0.94439 0.0
C340 C 0.93617 0.44305 0.95367 0.0
C341 C 0.94225 0.38427 0.94783 0.0
C342 C 0.02617 0.42181 0.94948 0.0
N343 N 0.9891 0.46633 0.9545 0.0
O344 O 0.1036 0.33615 0.90664 0.0
H345 H 0.90674 0.35436 0.94624 0.0
H346 H 0.07237 0.42706 0.94843 0.0
O347 O 0.06264 0.29591 1.01514 0.0
C348 C 0.10961 0.34145 0.84915 0.0
O349 O 0.07198 0.31732 0.81244 0.0
N350 N 0.96783 0.25646 0.94613 0.0
C351 C 0.87951 0.17673 0.93069 0.0
C352 C 0.91286 0.17633 0.98404 0.0
C353 C 0.95815 0.21598 0.99033 0.0
C354 C 0.93441 0.258 0.89504 0.0
C355 C 0.88983 0.21889 0.88662 0.0
H356 H 0.98779 0.21084 1.02787 0.0
H357 H 0.94502 0.28771 0.85868 0.0
H358 H 0.13414 0.21478 0.98744 0.0
H359 H 0.1004 0.11508 0.83129 0.0
H360 H 0.89603 0.46658 0.95626 0.0
H361 H 0.90696 0.14282 1.01785 0.0
H362 H 0.8655 0.21945 0.84446 0.0
C363 C 0.79715 0.06123 0.86583 0.0
C364 C 0.84404 0.09721 0.86604 0.0
N365 N 0.84137 0.13006 0.91652 0.0
N366 N 0.76478 0.07175 0.91568 0.0
C367 C 0.79302 0.11397 0.94604 0.0
H368 H 0.78646 0.03026 0.83075 0.0
Co369 Co 0.69487 0.03554 0.93068 0.0
C370 C 0.68314 0.03647 1.06453 0.0
O371 O 0.66791 0.98202 1.06281 0.0
N372 N 0.62193 -0.00111 0.94477 0.0
C373 C 0.5491 0.93618 0.95435 0.0
C374 C 0.6079 0.94224 0.94863 0.0
C375 C 0.57033 0.02616 0.94949 0.0
N376 N 0.52581 0.98911 0.95469 0.0
O377 O 0.65607 0.10352 0.90684 0.0
H378 H 0.63783 0.90674 0.94742 0.0
H379 H 0.56505 0.07234 0.94807 0.0
O380 O 0.69634 0.06269 1.01534 0.0
C381 C 0.65072 0.10954 0.84935 0.0
O382 O 0.6748 0.07191 0.81261 0.0
N383 N 0.73569 0.96774 0.94649 0.0
C384 C 0.81552 0.8795 0.93116 0.0
C385 C 0.81602 0.91303 0.98437 0.0
C386 C 0.77631 0.95828 0.9906 0.0
C387 C 0.73405 0.93411 0.89555 0.0
C388 C 0.77322 0.88957 0.88718 0.0
H389 H 0.78152 0.98808 1.028 0.0
H390 H 0.70423 0.94456 0.85923 0.0
H391 H 0.77749 0.13413 0.98741 0.0
H392 H 0.87707 0.09996 0.83127 0.0
H393 H 0.52557 0.89605 0.9572 0.0
H394 H 0.84963 0.90733 1.01809 0.0
H395 H 0.77259 0.86509 0.84511 0.0
C396 C 0.43082 0.6949 0.80786 0.0
C397 C 0.39482 0.64802 0.80745 0.0
N398 N 0.36205 0.65082 0.75693 0.0
N399 N 0.42035 0.72742 0.7581 0.0
C400 C 0.37815 0.69928 0.72762 0.0
H401 H 0.46175 0.70548 0.843 0.0
Co402 Co 0.45655 0.79737 0.74326 0.0
C403 C 0.45583 0.80916 0.60941 0.0
O404 O 0.51028 0.82437 0.61122 0.0
N405 N 0.49318 0.87035 0.72929 0.0
C406 C 0.55585 0.94321 0.7197 0.0
C407 C 0.54982 0.88441 0.72543 0.0
C408 C 0.46589 0.92195 0.72456 0.0
N409 N 0.50292 0.96648 0.71932 0.0
O410 O 0.38854 0.83611 0.76709 0.0
H411 H 0.58533 0.85449 0.72663 0.0
H412 H 0.41971 0.92721 0.726 0.0
O413 O 0.42953 0.79597 0.65855 0.0
C414 C 0.38257 0.84136 0.8246 0.0
O415 O 0.42023 0.81721 0.86126 0.0
N416 N 0.5244 0.75661 0.72753 0.0
C417 C 0.61274 0.67694 0.74309 0.0
C418 C 0.57931 0.67637 0.6898 0.0
C419 C 0.53401 0.716 0.68345 0.0
C420 C 0.55791 0.75833 0.77855 0.0
C421 C 0.6025 0.71925 0.78702 0.0
H422 H 0.5043 0.71075 0.64598 0.0
H423 H 0.54734 0.78813 0.81483 0.0
H424 H 0.358 0.71495 0.6863 0.0
H425 H 0.39201 0.61489 0.84212 0.0
H426 H 0.59598 0.96675 0.71686 0.0
H427 H 0.58514 0.64275 0.6561 0.0
H428 H 0.6269 0.71994 0.82914 0.0
C429 C 0.29724 0.43117 0.80772 0.0
C430 C 0.34415 0.39521 0.80744 0.0
N431 N 0.3414 0.36231 0.757 0.0
N432 N 0.26477 0.42056 0.75797 0.0
C433 C 0.29295 0.37831 0.72761 0.0
H434 H 0.28662 0.46217 0.84278 0.0
Co435 Co 0.19481 0.45669 0.74301 0.0
C436 C 0.18318 0.45578 0.60915 0.0
O437 O 0.16802 0.51025 0.61086 0.0
N438 N 0.12181 0.49327 0.72893 0.0
C439 C 0.04895 0.5559 0.71904 0.0
C440 C 0.10777 0.54989 0.72466 0.0
C441 C 0.07019 0.46597 0.72456 0.0
N442 N 0.02566 0.50298 0.71915 0.0
O443 O 0.15611 0.38868 0.7669 0.0
H444 H 0.13771 0.58539 0.72549 0.0
H445 H 0.0649 0.4198 0.72637 0.0
O446 O 0.19628 0.42954 0.65835 0.0
C447 C 0.15083 0.38269 0.82441 0.0
O448 O 0.17491 0.42036 0.8611 0.0
N449 N 0.23554 0.52454 0.72718 0.0
C450 C 0.31532 0.61281 0.74263 0.0
C451 C 0.31597 0.5792 0.68947 0.0
C452 C 0.27628 0.53395 0.68319 0.0
C453 C 0.23373 0.55825 0.77805 0.0
C454 C 0.27287 0.60281 0.78647 0.0
H455 H 0.28161 0.50408 0.64586 0.0
H456 H 0.20382 0.54785 0.8143 0.0
H457 H 0.27733 0.35806 0.68633 0.0
H458 H 0.37726 0.39249 0.84214 0.0
H459 H 0.02542 0.59602 0.71596 0.0
H460 H 0.3497 0.58485 0.65586 0.0
H461 H 0.27213 0.62735 0.8285 0.0
C462 C 0.56117 0.29724 0.80812 0.0
C463 C 0.59712 0.34415 0.80785 0.0
N464 N 0.62993 0.3415 0.75735 0.0
N465 N 0.57169 0.26485 0.75829 0.0
C466 C 0.61387 0.29309 0.7279 0.0
H467 H 0.53023 0.28655 0.84323 0.0
Co468 Co 0.53549 0.19492 0.74333 0.0
C469 C 0.5364 0.18313 0.60949 0.0
O470 O 0.48195 0.16789 0.61122 0.0
N471 N 0.49883 0.12197 0.72929 0.0
C472 C 0.43614 0.04913 0.71976 0.0
C473 C 0.44219 0.10793 0.72547 0.0
C474 C 0.52611 0.07037 0.72454 0.0
N475 N 0.48907 0.02584 0.71938 0.0
O476 O 0.60346 0.15613 0.76718 0.0
H477 H 0.40669 0.13785 0.72671 0.0
H478 H 0.5723 0.0651 0.72592 0.0
O479 O 0.56262 0.19636 0.65866 0.0
C480 C 0.60949 0.15079 0.82467 0.0
O481 O 0.57186 0.17488 0.86142 0.0
N482 N 0.46768 0.23573 0.72752 0.0
C483 C 0.37945 0.31557 0.74284 0.0
C484 C 0.41296 0.31604 0.68961 0.0
C485 C 0.4582 0.27633 0.68339 0.0
C486 C 0.43408 0.23411 0.77847 0.0
C487 C 0.38954 0.27329 0.78684 0.0
H488 H 0.48799 0.28152 0.64597 0.0
H489 H 0.44454 0.20432 0.8148 0.0
H490 H 0.63405 0.27753 0.68654 0.0
H491 H 0.59989 0.3772 0.84261 0.0
H492 H 0.39601 0.02559 0.71695 0.0
H493 H 0.40724 0.34964 0.65587 0.0
H494 H 0.36508 0.27268 0.82892 0.0
C495 C 0.69497 0.56151 0.80827 0.0
C496 C 0.6481 0.59752 0.80793 0.0
N497 N 0.65084 0.63028 0.75739 0.0
N498 N 0.72738 0.57191 0.75842 0.0
C499 C 0.6992 0.61409 0.72795 0.0
H500 H 0.70559 0.5306 0.84342 0.0
Co501 Co 0.79729 0.53563 0.74356 0.0
C502 C 0.80921 0.53641 0.60972 0.0
O503 O 0.82451 0.48198 0.61154 0.0
N504 N 0.8702 0.49892 0.72959 0.0
C505 C 0.94304 0.4362 0.72033 0.0
C506 C 0.88426 0.44226 0.72616 0.0
C507 C 0.92178 0.52619 0.7245 0.0
N508 N 0.96631 0.48913 0.71948 0.0
O509 O 0.83613 0.6036 0.76737 0.0
H510 H 0.85436 0.40674 0.72776 0.0
H511 H 0.92702 0.5724 0.72553 0.0
O512 O 0.79592 0.56268 0.65885 0.0
C513 C 0.8414 0.60962 0.82487 0.0
O514 O 0.81725 0.572 0.86158 0.0
N515 N 0.75644 0.46784 0.7278 0.0
C516 C 0.67665 0.37957 0.74319 0.0
C517 C 0.67627 0.41295 0.68986 0.0
C518 C 0.71596 0.45821 0.6836 0.0
C519 C 0.75796 0.43438 0.77887 0.0
C520 C 0.71881 0.38983 0.78727 0.0
H521 H 0.71085 0.48788 0.64607 0.0
H522 H 0.78766 0.44497 0.81524 0.0
H523 H 0.71478 0.63417 0.68656 0.0
H524 H 0.61504 0.60037 0.84266 0.0
H525 H 0.96658 0.39605 0.71775 0.0
H526 H 0.64276 0.4071 0.65604 0.0
H527 H 0.71935 0.36548 0.82942 0.0
loop_
_geom_bond_atom_site_label_1
_geom_bond_atom_site_label_2
_geom_bond_distance
_geom_bond_site_symmetry_2
_ccdc_geom_bond_type
C0 C1 1.351 . S
C0 N3 1.368 . S
C0 H5 0.931 . S
C1 C0 1.351 . S
C1 N2 1.373 . S
C1 H29 0.930 . S
N2 C1 1.373 . S
N2 C4 1.340 . S
N3 C0 1.368 . S
N3 C4 1.321 . S
N3 Co6 2.135 . S
C4 N2 1.340 . S
C4 N3 1.321 . S
C4 H28 0.930 . S
H5 C0 0.931 . S
Co6 N3 2.135 . S
Co6 N9 2.121 . S
Co6 O14 2.055 . S
Co6 O17 2.039 . S
Co6 N20 2.140 . S
C7 O8 1.227 . S
C7 O17 1.265 . S
O8 C7 1.227 . S
N9 Co6 2.121 . S
N9 C11 1.375 . S
N9 C12 1.313 . S
C10 C11 1.338 1_655 S
C10 N13 1.377 1_655 S
C10 H30 0.930 . S
C11 N9 1.375 . S
C11 C10 1.338 1_455 S
C11 H15 0.931 . S
C12 N9 1.313 . S
C12 N13 1.344 . S
C12 H16 0.930 . S
N13 C10 1.377 1_455 S
N13 C12 1.344 . S
O14 Co6 2.055 . S
O14 C18 1.253 . S
H15 C11 0.931 . S
H16 C12 0.930 . S
O17 Co6 2.039 . S
O17 C7 1.265 . S
C18 O14 1.253 . S
C18 O19 1.227 . S
O19 C18 1.227 . S
N20 Co6 2.140 . S
N20 C23 1.346 . S
N20 C24 1.345 1_455 S
C21 C22 1.387 . S
C21 C25 1.391 . S
C22 C21 1.387 . S
C22 C23 1.369 1_655 S
C22 H31 0.929 . S
C23 N20 1.346 . S
C23 C22 1.369 1_455 S
C23 H26 0.928 . S
C24 N20 1.345 1_655 S
C24 C25 1.371 . S
C24 H27 0.931 . S
C25 C21 1.391 . S
C25 C24 1.371 . S
C25 H32 0.930 . S
H26 C23 0.928 . S
H27 C24 0.931 . S
H28 C4 0.930 . S
H29 C1 0.930 . S
H30 C10 0.930 . S
H31 C22 0.929 . S
H32 C25 0.930 . S
C33 C34 1.351 . S
C33 N36 1.368 . S
C33 H38 0.931 . S
C34 C33 1.351 . S
C34 N35 1.373 . S
C34 H62 0.930 . S
N35 C34 1.373 . S
N35 C37 1.340 . S
N36 C33 1.368 . S
N36 C37 1.321 . S
N36 Co39 2.135 . S
C37 N35 1.340 . S
C37 N36 1.321 . S
C37 H61 0.930 . S
H38 C33 0.931 . S
Co39 N36 2.135 . S
Co39 N42 2.121 . S
Co39 O47 2.055 . S
Co39 O50 2.039 . S
Co39 N53 2.140 . S
C40 O41 1.227 . S
C40 O50 1.265 . S
O41 C40 1.227 . S
N42 Co39 2.121 . S
N42 C44 1.375 . S
N42 C45 1.313 . S
C43 C44 1.338 1_565 S
C43 N46 1.377 1_565 S
C43 H63 0.930 . S
C44 N42 1.375 . S
C44 C43 1.338 1_545 S
C44 H48 0.931 . S
C45 N42 1.313 . S
C45 N46 1.344 . S
C45 H49 0.930 . S
N46 C43 1.377 1_545 S
N46 C45 1.344 . S
O47 Co39 2.055 . S
O47 C51 1.253 . S
H48 C44 0.931 . S
H49 C45 0.930 . S
O50 Co39 2.039 . S
O50 C40 1.265 . S
C51 O47 1.253 . S
C51 O52 1.227 . S
O52 C51 1.227 . S
N53 Co39 2.140 . S
N53 C56 1.346 . S
N53 C57 1.345 1_545 S
C54 C55 1.387 . S
C54 C58 1.391 . S
C55 C54 1.387 . S
C55 C56 1.369 1_565 S
C55 H64 0.929 . S
C56 N53 1.346 . S
C56 C55 1.369 1_545 S
C56 H59 0.928 . S
C57 N53 1.345 1_565 S
C57 C58 1.371 . S
C57 H60 0.931 . S
C58 C54 1.391 . S
C58 C57 1.371 . S
C58 H65 0.930 . S
H59 C56 0.928 . S
H60 C57 0.931 . S
H61 C37 0.930 . S
H62 C34 0.930 . S
H63 C43 0.930 . S
H64 C55 0.929 . S
H65 C58 0.930 . S
C66 C67 1.351 . S
C66 N69 1.368 . S
C66 H71 0.931 . S
C67 C66 1.351 . S
C67 N68 1.373 . S
C67 H95 0.930 . S
N68 C67 1.373 . S
N68 C70 1.340 . S
N69 C66 1.368 . S
N69 C70 1.321 . S
N69 Co72 2.135 . S
C70 N68 1.340 . S
C70 N69 1.321 . S
C70 H94 0.930 . S
H71 C66 0.931 . S
Co72 N69 2.135 . S
Co72 N75 2.121 . S
Co72 O80 2.055 . S
Co72 O83 2.039 . S
Co72 N86 2.140 . S
C73 O74 1.227 . S
C73 O83 1.265 . S
O74 C73 1.227 . S
N75 Co72 2.121 . S
N75 C77 1.375 . S
N75 C78 1.313 . S
C76 C77 1.338 1_455 S
C76 N79 1.377 1_455 S
C76 H96 0.930 . S
C77 N75 1.375 . S
C77 C76 1.338 1_655 S
C77 H81 0.931 . S
C78 N75 1.313 . S
C78 N79 1.344 . S
C78 H82 0.930 . S
N79 C76 1.377 1_655 S
N79 C78 1.344 . S
O80 Co72 2.055 . S
O80 C84 1.253 . S
H81 C77 0.931 . S
H82 C78 0.930 . S
O83 Co72 2.039 . S
O83 C73 1.265 . S
C84 O80 1.253 . S
C84 O85 1.227 . S
O85 C84 1.227 . S
N86 Co72 2.140 . S
N86 C89 1.346 . S
N86 C90 1.345 1_655 S
C87 C88 1.387 . S
C87 C91 1.391 . S
C88 C87 1.387 . S
C88 C89 1.369 1_455 S
C88 H97 0.929 . S
C89 N86 1.346 . S
C89 C88 1.369 1_655 S
C89 H92 0.928 . S
C90 N86 1.345 1_455 S
C90 C91 1.371 . S
C90 H93 0.931 . S
C91 C87 1.391 . S
C91 C90 1.371 . S
C91 H98 0.930 . S
H92 C89 0.928 . S
H93 C90 0.931 . S
H94 C70 0.930 . S
H95 C67 0.930 . S
H96 C76 0.930 . S
H97 C88 0.929 . S
H98 C91 0.930 . S
C99 C100 1.351 . S
C99 N102 1.368 . S
C99 H104 0.931 . S
C100 C99 1.351 . S
C100 N101 1.373 . S
C100 H128 0.930 . S
N101 C100 1.373 . S
N101 C103 1.340 . S
N102 C99 1.368 . S
N102 C103 1.321 . S
N102 Co105 2.135 . S
C103 N101 1.340 . S
C103 N102 1.321 . S
C103 H127 0.930 . S
H104 C99 0.931 . S
Co105 N102 2.135 . S
Co105 N108 2.121 . S
Co105 O113 2.055 . S
Co105 O116 2.039 . S
Co105 N119 2.140 . S
C106 O107 1.227 . S
C106 O116 1.265 . S
O107 C106 1.227 . S
N108 Co105 2.121 . S
N108 C110 1.375 . S
N108 C111 1.313 . S
C109 C110 1.338 1_545 S
C109 N112 1.377 1_545 S
C109 H129 0.930 . S
C110 N108 1.375 . S
C110 C109 1.338 1_565 S
C110 H114 0.931 . S
C111 N108 1.313 . S
C111 N112 1.344 . S
C111 H115 0.930 . S
N112 C109 1.377 1_565 S
N112 C111 1.344 . S
O113 Co105 2.055 . S
O113 C117 1.253 . S
H114 C110 0.931 . S
H115 C111 0.930 . S
O116 Co105 2.039 . S
O116 C106 1.265 . S
C117 O113 1.253 . S
C117 O118 1.227 . S
O118 C117 1.227 . S
N119 Co105 2.140 . S
N119 C122 1.346 . S
N119 C123 1.345 1_565 S
C120 C121 1.387 . S
C120 C124 1.391 . S
C121 C120 1.387 . S
C121 C122 1.369 1_545 S
C121 H130 0.929 . S
C122 N119 1.346 . S
C122 C121 1.369 1_565 S
C122 H125 0.928 . S
C123 N119 1.345 1_545 S
C123 C124 1.371 . S
C123 H126 0.931 . S
C124 C120 1.391 . S
C124 C123 1.371 . S
C124 H131 0.930 . S
H125 C122 0.928 . S
H126 C123 0.931 . S
H127 C103 0.930 . S
H128 C100 0.930 . S
H129 C109 0.930 . S
H130 C121 0.929 . S
H131 C124 0.930 . S
C132 C133 1.351 . S
C132 N135 1.368 . S
C132 H137 0.931 . S
C133 C132 1.351 . S
C133 N134 1.373 . S
C133 H161 0.930 . S
N134 C133 1.373 . S
N134 C136 1.340 . S
N135 C132 1.368 . S
N135 C136 1.321 . S
N135 Co138 2.135 . S
C136 N134 1.340 . S
C136 N135 1.321 . S
C136 H160 0.930 . S
H137 C132 0.931 . S
Co138 N135 2.135 . S
Co138 N141 2.121 . S
Co138 O146 2.055 . S
Co138 O149 2.039 . S
Co138 N152 2.140 . S
C139 O140 1.227 . S
C139 O149 1.265 . S
O140 C139 1.227 . S
N141 Co138 2.121 . S
N141 C143 1.375 . S
N141 C144 1.313 . S
C142 C143 1.338 . S
C142 N145 1.377 . S
C142 H162 0.930 . S
C143 N141 1.375 . S
C143 C142 1.338 . S
C143 H147 0.931 . S
C144 N141 1.313 . S
C144 N145 1.344 . S
C144 H148 0.930 . S
N145 C142 1.377 . S
N145 C144 1.344 . S
O146 Co138 2.055 . S
O146 C150 1.253 . S
H147 C143 0.931 . S
H148 C144 0.930 . S
O149 Co138 2.039 . S
O149 C139 1.265 . S
C150 O146 1.253 . S
C150 O151 1.227 . S
O151 C150 1.227 . S
N152 Co138 2.140 . S
N152 C155 1.346 . S
N152 C156 1.345 . S
C153 C154 1.387 . S
C153 C157 1.391 . S
C154 C153 1.387 . S
C154 C155 1.369 . S
C154 H163 0.929 . S
C155 N152 1.346 . S
C155 C154 1.369 . S
C155 H158 0.928 . S
C156 N152 1.345 . S
C156 C157 1.371 . S
C156 H159 0.931 . S
C157 C153 1.391 . S
C157 C156 1.371 . S
C157 H164 0.930 . S
H158 C155 0.928 . S
H159 C156 0.931 . S
H160 C136 0.930 . S
H161 C133 0.930 . S
H162 C142 0.930 . S
H163 C154 0.929 . S
H164 C157 0.930 . S
C165 C166 1.351 . S
C165 N168 1.368 . S
C165 H170 0.931 . S
C166 C165 1.351 . S
C166 N167 1.373 . S
C166 H194 0.930 . S
N167 C166 1.373 . S
N167 C169 1.340 . S
N168 C165 1.368 . S
N168 C169 1.321 . S
N168 Co171 2.135 . S
C169 N167 1.340 . S
C169 N168 1.321 . S
C169 H193 0.930 . S
H170 C165 0.931 . S
Co171 N168 2.135 . S
Co171 N174 2.121 . S
Co171 O179 2.055 . S
Co171 O182 2.039 . S
Co171 N185 2.140 . S
C172 O173 1.227 . S
C172 O182 1.265 . S
O173 C172 1.227 . S
N174 Co171 2.121 . S
N174 C176 1.375 . S
N174 C177 1.313 . S
C175 C176 1.338 . S
C175 N178 1.377 . S
C175 H195 0.930 . S
C176 N174 1.375 . S
C176 C175 1.338 . S
C176 H180 0.931 . S
C177 N174 1.313 . S
C177 N178 1.344 . S
C177 H181 0.930 . S
N178 C175 1.377 . S
N178 C177 1.344 . S
O179 Co171 2.055 . S
O179 C183 1.253 . S
H180 C176 0.931 . S
H181 C177 0.930 . S
O182 Co171 2.039 . S
O182 C172 1.265 . S
C183 O179 1.253 . S
C183 O184 1.227 . S
O184 C183 1.227 . S
N185 Co171 2.140 . S
N185 C188 1.346 . S
N185 C189 1.345 . S
C186 C187 1.387 . S
C186 C190 1.391 . S
C187 C186 1.387 . S
C187 C188 1.369 . S
C187 H196 0.929 . S
C188 N185 1.346 . S
C188 C187 1.369 . S
C188 H191 0.928 . S
C189 N185 1.345 . S
C189 C190 1.371 . S
C189 H192 0.931 . S
C190 C186 1.391 . S
C190 C189 1.371 . S
C190 H197 0.930 . S
H191 C188 0.928 . S
H192 C189 0.931 . S
H193 C169 0.930 . S
H194 C166 0.930 . S
H195 C175 0.930 . S
H196 C187 0.929 . S
H197 C190 0.930 . S
C198 C199 1.351 . S
C198 N201 1.368 . S
C198 H203 0.931 . S
C199 C198 1.351 . S
C199 N200 1.373 . S
C199 H227 0.930 . S
N200 C199 1.373 . S
N200 C202 1.340 . S
N201 C198 1.368 . S
N201 C202 1.321 . S
N201 Co204 2.135 . S
C202 N200 1.340 . S
C202 N201 1.321 . S
C202 H226 0.930 . S
H203 C198 0.931 . S
Co204 N201 2.135 . S
Co204 N207 2.121 . S
Co204 O212 2.055 . S
Co204 O215 2.039 . S
Co204 N218 2.140 . S
C205 O206 1.227 . S
C205 O215 1.265 . S
O206 C205 1.227 . S
N207 Co204 2.121 . S
N207 C209 1.375 . S
N207 C210 1.313 . S
C208 C209 1.338 . S
C208 N211 1.377 . S
C208 H228 0.930 . S
C209 N207 1.375 . S
C209 C208 1.338 . S
C209 H213 0.931 . S
C210 N207 1.313 . S
C210 N211 1.344 . S
C210 H214 0.930 . S
N211 C208 1.377 . S
N211 C210 1.344 . S
O212 Co204 2.055 . S
O212 C216 1.253 . S
H213 C209 0.931 . S
H214 C210 0.930 . S
O215 Co204 2.039 . S
O215 C205 1.265 . S
C216 O212 1.253 . S
C216 O217 1.227 . S
O217 C216 1.227 . S
N218 Co204 2.140 . S
N218 C221 1.346 . S
N218 C222 1.345 . S
C219 C220 1.387 . S
C219 C223 1.391 . S
C220 C219 1.387 . S
C220 C221 1.369 . S
C220 H229 0.929 . S
C221 N218 1.346 . S
C221 C220 1.369 . S
C221 H224 0.928 . S
C222 N218 1.345 . S
C222 C223 1.371 . S
C222 H225 0.931 . S
C223 C219 1.391 . S
C223 C222 1.371 . S
C223 H230 0.930 . S
H224 C221 0.928 . S
H225 C222 0.931 . S
H226 C202 0.930 . S
H227 C199 0.930 . S
H228 C208 0.930 . S
H229 C220 0.929 . S
H230 C223 0.930 . S
C231 C232 1.351 . S
C231 N234 1.368 . S
C231 H236 0.931 . S
C232 C231 1.351 . S
C232 N233 1.373 . S
C232 H260 0.930 . S
N233 C232 1.373 . S
N233 C235 1.340 . S
N234 C231 1.368 . S
N234 C235 1.321 . S
N234 Co237 2.135 . S
C235 N233 1.340 . S
C235 N234 1.321 . S
C235 H259 0.930 . S
H236 C231 0.931 . S
Co237 N234 2.135 . S
Co237 N240 2.121 . S
Co237 O245 2.055 . S
Co237 O248 2.039 . S
Co237 N251 2.140 . S
C238 O239 1.227 . S
C238 O248 1.265 . S
O239 C238 1.227 . S
N240 Co237 2.121 . S
N240 C242 1.375 . S
N240 C243 1.313 . S
C241 C242 1.338 . S
C241 N244 1.377 . S
C241 H261 0.930 . S
C242 N240 1.375 . S
C242 C241 1.338 . S
C242 H246 0.931 . S
C243 N240 1.313 . S
C243 N244 1.344 . S
C243 H247 0.930 . S
N244 C241 1.377 . S
N244 C243 1.344 . S
O245 Co237 2.055 . S
O245 C249 1.253 . S
H246 C242 0.931 . S
H247 C243 0.930 . S
O248 Co237 2.039 . S
O248 C238 1.265 . S
C249 O245 1.253 . S
C249 O250 1.227 . S
O250 C249 1.227 . S
N251 Co237 2.140 . S
N251 C254 1.346 . S
N251 C255 1.345 . S
C252 C253 1.387 . S
C252 C256 1.391 . S
C253 C252 1.387 . S
C253 C254 1.369 . S
C253 H262 0.929 . S
C254 N251 1.346 . S
C254 C253 1.369 . S
C254 H257 0.928 . S
C255 N251 1.345 . S
C255 C256 1.371 . S
C255 H258 0.931 . S
C256 C252 1.391 . S
C256 C255 1.371 . S
C256 H263 0.930 . S
H257 C254 0.928 . S
H258 C255 0.931 . S
H259 C235 0.930 . S
H260 C232 0.930 . S
H261 C241 0.930 . S
H262 C253 0.929 . S
H263 C256 0.930 . S
C264 C265 1.351 . S
C264 N267 1.368 . S
C264 H269 0.931 . S
C265 C264 1.351 . S
C265 N266 1.373 . S
C265 H293 0.930 . S
N266 C265 1.373 . S
N266 C268 1.340 . S
N267 C264 1.368 . S
N267 C268 1.321 . S
N267 Co270 2.135 . S
C268 N266 1.340 . S
C268 N267 1.321 . S
C268 H292 0.930 . S
H269 C264 0.931 . S
Co270 N267 2.135 . S
Co270 N273 2.121 . S
Co270 O278 2.055 . S
Co270 O281 2.039 . S
Co270 N284 2.140 . S
C271 O272 1.227 . S
C271 O281 1.265 . S
O272 C271 1.227 . S
N273 Co270 2.121 . S
N273 C275 1.375 . S
N273 C276 1.313 . S
C274 C275 1.338 1_455 S
C274 N277 1.377 1_455 S
C274 H294 0.930 . S
C275 N273 1.375 . S
C275 C274 1.338 1_655 S
C275 H279 0.931 . S
C276 N273 1.313 . S
C276 N277 1.344 . S
C276 H280 0.930 . S
N277 C274 1.377 1_655 S
N277 C276 1.344 . S
O278 Co270 2.055 . S
O278 C282 1.253 . S
H279 C275 0.931 . S
H280 C276 0.930 . S
O281 Co270 2.039 . S
O281 C271 1.265 . S
C282 O278 1.253 . S
C282 O283 1.227 . S
O283 C282 1.227 . S
N284 Co270 2.140 . S
N284 C287 1.346 . S
N284 C288 1.345 1_655 S
C285 C286 1.387 . S
C285 C289 1.391 . S
C286 C285 1.387 . S
C286 C287 1.369 1_455 S
C286 H295 0.929 . S
C287 N284 1.346 . S
C287 C286 1.369 1_655 S
C287 H290 0.928 . S
C288 N284 1.345 1_455 S
C288 C289 1.371 . S
C288 H291 0.931 . S
C289 C285 1.391 . S
C289 C288 1.371 . S
C289 H296 0.930 . S
H290 C287 0.928 . S
H291 C288 0.931 . S
H292 C268 0.930 . S
H293 C265 0.930 . S
H294 C274 0.930 . S
H295 C286 0.929 . S
H296 C289 0.930 . S
C297 C298 1.351 . S
C297 N300 1.368 . S
C297 H302 0.931 . S
C298 C297 1.351 . S
C298 N299 1.373 . S
C298 H326 0.930 . S
N299 C298 1.373 . S
N299 C301 1.340 . S
N300 C297 1.368 . S
N300 C301 1.321 . S
N300 Co303 2.135 . S
C301 N299 1.340 . S
C301 N300 1.321 . S
C301 H325 0.930 . S
H302 C297 0.931 . S
Co303 N300 2.135 . S
Co303 N306 2.121 . S
Co303 O311 2.055 . S
Co303 O314 2.039 . S
Co303 N317 2.140 . S
C304 O305 1.227 . S
C304 O314 1.265 . S
O305 C304 1.227 . S
N306 Co303 2.121 . S
N306 C308 1.375 . S
N306 C309 1.313 . S
C307 C308 1.338 1_545 S
C307 N310 1.377 1_545 S
C307 H327 0.930 . S
C308 N306 1.375 . S
C308 C307 1.338 1_565 S
C308 H312 0.931 . S
C309 N306 1.313 . S
C309 N310 1.344 . S
C309 H313 0.930 . S
N310 C307 1.377 1_565 S
N310 C309 1.344 . S
O311 Co303 2.055 . S
O311 C315 1.253 . S
H312 C308 0.931 . S
H313 C309 0.930 . S
O314 Co303 2.039 . S
O314 C304 1.265 . S
C315 O311 1.253 . S
C315 O316 1.227 . S
O316 C315 1.227 . S
N317 Co303 2.140 . S
N317 C320 1.346 . S
N317 C321 1.345 1_565 S
C318 C319 1.387 . S
C318 C322 1.391 . S
C319 C318 1.387 . S
C319 C320 1.369 1_545 S
C319 H328 0.929 . S
C320 N317 1.346 . S
C320 C319 1.369 1_565 S
C320 H323 0.928 . S
C321 N317 1.345 1_545 S
C321 C322 1.371 . S
C321 H324 0.931 . S
C322 C318 1.391 . S
C322 C321 1.371 . S
C322 H329 0.930 . S
H323 C320 0.928 . S
H324 C321 0.931 . S
H325 C301 0.930 . S
H326 C298 0.930 . S
H327 C307 0.930 . S
H328 C319 0.929 . S
H329 C322 0.930 . S
C330 C331 1.351 . S
C330 N333 1.368 . S
C330 H335 0.931 . S
C331 C330 1.351 . S
C331 N332 1.373 . S
C331 H359 0.930 . S
N332 C331 1.373 . S
N332 C334 1.340 . S
N333 C330 1.368 . S
N333 C334 1.321 . S
N333 Co336 2.135 . S
C334 N332 1.340 . S
C334 N333 1.321 . S
C334 H358 0.930 . S
H335 C330 0.931 . S
Co336 N333 2.135 . S
Co336 N339 2.121 . S
Co336 O344 2.055 . S
Co336 O347 2.039 . S
Co336 N350 2.140 . S
C337 O338 1.227 . S
C337 O347 1.265 . S
O338 C337 1.227 . S
N339 Co336 2.121 . S
N339 C341 1.375 . S
N339 C342 1.313 . S
C340 C341 1.338 1_655 S
C340 N343 1.377 1_655 S
C340 H360 0.930 . S
C341 N339 1.375 . S
C341 C340 1.338 1_455 S
C341 H345 0.931 . S
C342 N339 1.313 . S
C342 N343 1.344 . S
C342 H346 0.930 . S
N343 C340 1.377 1_455 S
N343 C342 1.344 . S
O344 Co336 2.055 . S
O344 C348 1.253 . S
H345 C341 0.931 . S
H346 C342 0.930 . S
O347 Co336 2.039 . S
O347 C337 1.265 . S
C348 O344 1.253 . S
C348 O349 1.227 . S
O349 C348 1.227 . S
N350 Co336 2.140 . S
N350 C353 1.346 . S
N350 C354 1.345 1_455 S
C351 C352 1.387 . S
C351 C355 1.391 . S
C352 C351 1.387 . S
C352 C353 1.369 1_655 S
C352 H361 0.929 . S
C353 N350 1.346 . S
C353 C352 1.369 1_455 S
C353 H356 0.928 . S
C354 N350 1.345 1_655 S
C354 C355 1.371 . S
C354 H357 0.931 . S
C355 C351 1.391 . S
C355 C354 1.371 . S
C355 H362 0.930 . S
H356 C353 0.928 . S
H357 C354 0.931 . S
H358 C334 0.930 . S
H359 C331 0.930 . S
H360 C340 0.930 . S
H361 C352 0.929 . S
H362 C355 0.930 . S
C363 C364 1.351 . S
C363 N366 1.368 . S
C363 H368 0.931 . S
C364 C363 1.351 . S
C364 N365 1.373 . S
C364 H392 0.930 . S
N365 C364 1.373 . S
N365 C367 1.340 . S
N366 C363 1.368 . S
N366 C367 1.321 . S
N366 Co369 2.135 . S
C367 N365 1.340 . S
C367 N366 1.321 . S
C367 H391 0.930 . S
H368 C363 0.931 . S
Co369 N366 2.135 . S
Co369 N372 2.121 . S
Co369 O377 2.055 . S
Co369 O380 2.039 . S
Co369 N383 2.140 . S
C370 O371 1.227 . S
C370 O380 1.265 . S
O371 C370 1.227 . S
N372 Co369 2.121 . S
N372 C374 1.375 . S
N372 C375 1.313 . S
C373 C374 1.338 1_565 S
C373 N376 1.377 1_565 S
C373 H393 0.930 . S
C374 N372 1.375 . S
C374 C373 1.338 1_545 S
C374 H378 0.931 . S
C375 N372 1.313 . S
C375 N376 1.344 . S
C375 H379 0.930 . S
N376 C373 1.377 1_545 S
N376 C375 1.344 . S
O377 Co369 2.055 . S
O377 C381 1.253 . S
H378 C374 0.931 . S
H379 C375 0.930 . S
O380 Co369 2.039 . S
O380 C370 1.265 . S
C381 O377 1.253 . S
C381 O382 1.227 . S
O382 C381 1.227 . S
N383 Co369 2.140 . S
N383 C386 1.346 . S
N383 C387 1.345 1_545 S
C384 C385 1.387 . S
C384 C388 1.391 . S
C385 C384 1.387 . S
C385 C386 1.369 1_565 S
C385 H394 0.929 . S
C386 N383 1.346 . S
C386 C385 1.369 1_545 S
C386 H389 0.928 . S
C387 N383 1.345 1_565 S
C387 C388 1.371 . S
C387 H390 0.931 . S
C388 C384 1.391 . S
C388 C387 1.371 . S
C388 H395 0.930 . S
H389 C386 0.928 . S
H390 C387 0.931 . S
H391 C367 0.930 . S
H392 C364 0.930 . S
H393 C373 0.930 . S
H394 C385 0.929 . S
H395 C388 0.930 . S
C396 C397 1.351 . S
C396 N399 1.368 . S
C396 H401 0.931 . S
C397 C396 1.351 . S
C397 N398 1.373 . S
C397 H425 0.930 . S
N398 C397 1.373 . S
N398 C400 1.340 . S
N399 C396 1.368 . S
N399 C400 1.321 . S
N399 Co402 2.135 . S
C400 N398 1.340 . S
C400 N399 1.321 . S
C400 H424 0.930 . S
H401 C396 0.931 . S
Co402 N399 2.135 . S
Co402 N405 2.121 . S
Co402 O410 2.055 . S
Co402 O413 2.039 . S
Co402 N416 2.140 . S
C403 O404 1.227 . S
C403 O413 1.265 . S
O404 C403 1.227 . S
N405 Co402 2.121 . S
N405 C407 1.375 . S
N405 C408 1.313 . S
C406 C407 1.338 . S
C406 N409 1.377 . S
C406 H426 0.930 . S
C407 N405 1.375 . S
C407 C406 1.338 . S
C407 H411 0.931 . S
C408 N405 1.313 . S
C408 N409 1.344 . S
C408 H412 0.930 . S
N409 C406 1.377 . S
N409 C408 1.344 . S
O410 Co402 2.055 . S
O410 C414 1.253 . S
H411 C407 0.931 . S
H412 C408 0.930 . S
O413 Co402 2.039 . S
O413 C403 1.265 . S
C414 O410 1.253 . S
C414 O415 1.227 . S
O415 C414 1.227 . S
N416 Co402 2.140 . S
N416 C419 1.346 . S
N416 C420 1.345 . S
C417 C418 1.387 . S
C417 C421 1.391 . S
C418 C417 1.387 . S
C418 C419 1.369 . S
C418 H427 0.929 . S
C419 N416 1.346 . S
C419 C418 1.369 . S
C419 H422 0.928 . S
C420 N416 1.345 . S
C420 C421 1.371 . S
C420 H423 0.931 . S
C421 C417 1.391 . S
C421 C420 1.371 . S
C421 H428 0.930 . S
H422 C419 0.928 . S
H423 C420 0.931 . S
H424 C400 0.930 . S
H425 C397 0.930 . S
H426 C406 0.930 . S
H427 C418 0.929 . S
H428 C421 0.930 . S
C429 C430 1.351 . S
C429 N432 1.368 . S
C429 H434 0.931 . S
C430 C429 1.351 . S
C430 N431 1.373 . S
C430 H458 0.930 . S
N431 C430 1.373 . S
N431 C433 1.340 . S
N432 C429 1.368 . S
N432 C433 1.321 . S
N432 Co435 2.135 . S
C433 N431 1.340 . S
C433 N432 1.321 . S
C433 H457 0.930 . S
H434 C429 0.931 . S
Co435 N432 2.135 . S
Co435 N438 2.121 . S
Co435 O443 2.055 . S
Co435 O446 2.039 . S
Co435 N449 2.140 . S
C436 O437 1.227 . S
C436 O446 1.265 . S
O437 C436 1.227 . S
N438 Co435 2.121 . S
N438 C440 1.375 . S
N438 C441 1.313 . S
C439 C440 1.338 . S
C439 N442 1.377 . S
C439 H459 0.930 . S
C440 N438 1.375 . S
C440 C439 1.338 . S
C440 H444 0.931 . S
C441 N438 1.313 . S
C441 N442 1.344 . S
C441 H445 0.930 . S
N442 C439 1.377 . S
N442 C441 1.344 . S
O443 Co435 2.055 . S
O443 C447 1.253 . S
H444 C440 0.931 . S
H445 C441 0.930 . S
O446 Co435 2.039 . S
O446 C436 1.265 . S
C447 O443 1.253 . S
C447 O448 1.227 . S
O448 C447 1.227 . S
N449 Co435 2.140 . S
N449 C452 1.346 . S
N449 C453 1.345 . S
C450 C451 1.387 . S
C450 C454 1.391 . S
C451 C450 1.387 . S
C451 C452 1.369 . S
C451 H460 0.929 . S
C452 N449 1.346 . S
C452 C451 1.369 . S
C452 H455 0.928 . S
C453 N449 1.345 . S
C453 C454 1.371 . S
C453 H456 0.931 . S
C454 C450 1.391 . S
C454 C453 1.371 . S
C454 H461 0.930 . S
H455 C452 0.928 . S
H456 C453 0.931 . S
H457 C433 0.930 . S
H458 C430 0.930 . S
H459 C439 0.930 . S
H460 C451 0.929 . S
H461 C454 0.930 . S
C462 C463 1.351 . S
C462 N465 1.368 . S
C462 H467 0.931 . S
C463 C462 1.351 . S
C463 N464 1.373 . S
C463 H491 0.930 . S
N464 C463 1.373 . S
N464 C466 1.340 . S
N465 C462 1.368 . S
N465 C466 1.321 . S
N465 Co468 2.135 . S
C466 N464 1.340 . S
C466 N465 1.321 . S
C466 H490 0.930 . S
H467 C462 0.931 . S
Co468 N465 2.135 . S
Co468 N471 2.121 . S
Co468 O476 2.055 . S
Co468 O479 2.039 . S
Co468 N482 2.140 . S
C469 O470 1.227 . S
C469 O479 1.265 . S
O470 C469 1.227 . S
N471 Co468 2.121 . S
N471 C473 1.375 . S
N471 C474 1.313 . S
C472 C473 1.338 . S
C472 N475 1.377 . S
C472 H492 0.930 . S
C473 N471 1.375 . S
C473 C472 1.338 . S
C473 H477 0.931 . S
C474 N471 1.313 . S
C474 N475 1.344 . S
C474 H478 0.930 . S
N475 C472 1.377 . S
N475 C474 1.344 . S
O476 Co468 2.055 . S
O476 C480 1.253 . S
H477 C473 0.931 . S
H478 C474 0.930 . S
O479 Co468 2.039 . S
O479 C469 1.265 . S
C480 O476 1.253 . S
C480 O481 1.227 . S
O481 C480 1.227 . S
N482 Co468 2.140 . S
N482 C485 1.346 . S
N482 C486 1.345 . S
C483 C484 1.387 . S
C483 C487 1.391 . S
C484 C483 1.387 . S
C484 C485 1.369 . S
C484 H493 0.929 . S
C485 N482 1.346 . S
C485 C484 1.369 . S
C485 H488 0.928 . S
C486 N482 1.345 . S
C486 C487 1.371 . S
C486 H489 0.931 . S
C487 C483 1.391 . S
C487 C486 1.371 . S
C487 H494 0.930 . S
H488 C485 0.928 . S
H489 C486 0.931 . S
H490 C466 0.930 . S
H491 C463 0.930 . S
H492 C472 0.930 . S
H493 C484 0.929 . S
H494 C487 0.930 . S
C495 C496 1.351 . S
C495 N498 1.368 . S
C495 H500 0.931 . S
C496 C495 1.351 . S
C496 N497 1.373 . S
C496 H524 0.930 . S
N497 C496 1.373 . S
N497 C499 1.340 . S
N498 C495 1.368 . S
N498 C499 1.321 . S
N498 Co501 2.135 . S
C499 N497 1.340 . S
C499 N498 1.321 . S
C499 H523 0.930 . S
H500 C495 0.931 . S
Co501 N498 2.135 . S
Co501 N504 2.121 . S
Co501 O509 2.055 . S
Co501 O512 2.039 . S
Co501 N515 2.140 . S
C502 O503 1.227 . S
C502 O512 1.265 . S
O503 C502 1.227 . S
N504 Co501 2.121 . S
N504 C506 1.375 . S
N504 C507 1.313 . S
C505 C506 1.338 . S
C505 N508 1.377 . S
C505 H525 0.930 . S
C506 N504 1.375 . S
C506 C505 1.338 . S
C506 H510 0.931 . S
C507 N504 1.313 . S
C507 N508 1.344 . S
C507 H511 0.930 . S
N508 C505 1.377 . S
N508 C507 1.344 . S
O509 Co501 2.055 . S
O509 C513 1.253 . S
H510 C506 0.931 . S
H511 C507 0.930 . S
O512 Co501 2.039 . S
O512 C502 1.265 . S
C513 O509 1.253 . S
C513 O514 1.227 . S
O514 C513 1.227 . S
N515 Co501 2.140 . S
N515 C518 1.346 . S
N515 C519 1.345 . S
C516 C517 1.387 . S
C516 C520 1.391 . S
C517 C516 1.387 . S
C517 C518 1.369 . S
C517 H526 0.929 . S
C518 N515 1.346 . S
C518 C517 1.369 . S
C518 H521 0.928 . S
C519 N515 1.345 . S
C519 C520 1.371 . S
C519 H522 0.931 . S
C520 C516 1.391 . S
C520 C519 1.371 . S
C520 H527 0.930 . S
H521 C518 0.928 . S
H522 C519 0.931 . S
H523 C499 0.930 . S
H524 C496 0.930 . S
H525 C505 0.930 . S
H526 C517 0.929 . S
H527 C520 0.930 . S
C337 C7 1.453 1_556 S
C370 C40 1.453 1_556 S
C271 C73 1.453 1_556 S
C304 C106 1.453 1_556 S
C139 C469 1.453 . S
C172 C502 1.453 . S
C403 C205 1.453 . S
C436 C238 1.453 . S
C120 N2 1.611 . S
N35 C21 1.611 . S
C54 N68 1.611 . S
N101 C87 1.611 . S
C186 N134 1.611 . S
C219 N167 1.611 . S
C252 N200 1.611 . S
N233 C153 1.611 . S
N266 C384 1.611 . S
N299 C285 1.611 . S
C318 N332 1.611 . S
N365 C351 1.611 . S
N398 C450 1.611 . S
N431 C483 1.611 . S
N464 C516 1.611 . S
C417 N497 1.611 . S
C249 C18 1.206 . S
C51 C150 1.206 . S
C183 C84 1.206 . S
C216 C117 1.206 . S
C282 C513 1.206 . S
C414 C315 1.206 . S
C348 C447 1.206 . S
C480 C381 1.206 . S
N79 N13 1.372 1_655 S
N112 N46 1.372 1_565 S
N145 N211 1.372 1_545 S
N178 N244 1.372 1_655 S
N277 N343 1.372 1_655 S
N376 N310 1.372 1_545 S
N409 N475 1.372 1_565 S
N508 N442 1.372 1_655 S
