# Generated by pormake.
# Topology umf, (4)-cn, num edge types: 1
# Building blocks:
#     Node 0, Type 0, BuildingBlock: ESEHIV_clean_sbu_0, # of connection points: 4
#     Node 1, Type 0, BuildingBlock: ESEHIV_clean_sbu_0, # of connection points: 4
#     Node 2, Type 0, BuildingBlock: ESEHIV_clean_sbu_0, # of connection points: 4
#     Node 3, Type 0, BuildingBlock: ESEHIV_clean_sbu_0, # of connection points: 4
#     Node 4, Type 0, BuildingBlock: ESEHIV_clean_sbu_0, # of connection points: 4
#     Node 5, Type 0, BuildingBlock: ESEHIV_clean_sbu_0, # of connection points: 4
#     Node 6, Type 0, BuildingBlock: ESEHIV_clean_sbu_0, # of connection points: 4
#     Node 7, Type 0, BuildingBlock: ESEHIV_clean_sbu_0, # of connection points: 4
#     Edge 8, Type (0, 0), BuildingBlock: EZIPEK_clean_linker_0, # of connection points: 2
#     Edge 9, Type (0, 0), BuildingBlock: EZIPEK_clean_linker_0, # of connection points: 2
#     Edge 10, Type (0, 0), BuildingBlock: EZIPEK_clean_linker_0, # of connection points: 2
#     Edge 11, Type (0, 0), BuildingBlock: EZIPEK_clean_linker_0, # of connection points: 2
#     Edge 12, Type (0, 0), BuildingBlock: EZIPEK_clean_linker_0, # of connection points: 2
#     Edge 13, Type (0, 0), BuildingBlock: EZIPEK_clean_linker_0, # of connection points: 2
#     Edge 14, Type (0, 0), BuildingBlock: EZIPEK_clean_linker_0, # of connection points: 2
#     Edge 15, Type (0, 0), BuildingBlock: EZIPEK_clean_linker_0, # of connection points: 2
#     Edge 16, Type (0, 0), BuildingBlock: EZIPEK_clean_linker_0, # of connection points: 2
#     Edge 17, Type (0, 0), BuildingBlock: EZIPEK_clean_linker_0, # of connection points: 2
#     Edge 18, Type (0, 0), BuildingBlock: EZIPEK_clean_linker_0, # of connection points: 2
#     Edge 19, Type (0, 0), BuildingBlock: EZIPEK_clean_linker_0, # of connection points: 2
#     Edge 20, Type (0, 0), BuildingBlock: EZIPEK_clean_linker_0, # of connection points: 2
#     Edge 21, Type (0, 0), BuildingBlock: EZIPEK_clean_linker_0, # of connection points: 2
#     Edge 22, Type (0, 0), BuildingBlock: EZIPEK_clean_linker_0, # of connection points: 2
#     Edge 23, Type (0, 0), BuildingBlock: EZIPEK_clean_linker_0, # of connection points: 2
# Relax obj value: 0.070
# Max RMSD: 0.108
# Mean RMSD: 0.108
data_MOF--net-umf--node1-ESEHIV_clean_sbu_0--edge1-EZIPEK_clean_linker_0
_symmetry_space_group_name_H-M    P1
_symmetry_Int_Tables_number       1
_symmetry_cell_setting            triclinic
loop_
_symmetry_equiv_pos_as_xyz
'x, y, z'
_cell_length_a     25.881905
_cell_length_b     25.897767
_cell_length_c     37.48618
_cell_angle_alpha  90.123132
_cell_angle_beta   89.495477
_cell_angle_gamma 89.970612
loop_
_atom_site_label
_atom_site_type_symbol
_atom_site_fract_x
_atom_site_fract_y
_atom_site_fract_z
_atom_type_partial_charge
Cu0 Cu 0.06549 0.26117 0.17155 0.0
N1 N 0.02714 0.20089 0.17952 0.0
N2 N 1.01603 0.11564 0.18542 0.0
C3 C 0.04449 0.15348 0.17034 0.0
C4 C 0.97898 0.13992 0.20461 0.0
C5 C 0.98604 0.19266 0.20104 0.0
O6 O 0.12869 0.2435 0.19679 0.0
C7 C 0.02714 0.27156 0.10275 0.0
O8 O 0.98368 0.26724 0.12084 0.0
H9 H 0.0793 0.14684 0.15477 0.0
H10 H 0.96457 0.22268 0.21473 0.0
N11 N 0.03674 0.32034 0.19338 0.0
N12 N 1.01839 0.40351 0.20474 0.0
C13 C 0.03323 0.36854 0.17976 0.0
C14 C 0.02376 0.32526 0.22809 0.0
C15 C 1.01258 0.37641 0.23519 0.0
C16 C 0.15414 0.27298 0.21744 0.0
O17 O 0.15019 0.32328 0.21399 0.0
H18 H 0.04327 0.37821 0.1525 0.0
H19 H 0.02466 0.29413 0.24727 0.0
O20 O 0.06987 0.27093 0.11964 0.0
H21 H 0.95017 0.12088 0.22102 0.0
H22 H 1.00186 0.39271 0.26082 0.0
Cu23 Cu 0.79702 0.06028 0.68487 0.0
N24 N 0.86071 0.02949 0.69611 0.0
N25 N 0.94634 0.01965 0.70063 0.0
C26 C 0.9077 0.04756 0.68632 0.0
C27 C 0.92311 0.98239 0.71999 0.0
C28 C 0.87021 0.9886 0.71722 0.0
O29 O 0.79532 0.12421 0.7128 0.0
C30 C 0.80198 0.02121 0.61553 0.0
O31 O 0.81766 0.98075 0.63353 0.0
H32 H 0.91357 0.08085 0.66939 0.0
H33 H 0.84082 0.96549 0.73021 0.0
N34 N 0.73935 0.02388 0.70256 0.0
N35 N 0.65561 1.00363 0.71023 0.0
C36 C 0.69265 0.01931 0.6869 0.0
C37 C 0.73129 1.0108 0.73691 0.0
C38 C 0.67987 0.99826 0.74169 0.0
C39 C 0.82782 0.16109 0.71272 0.0
O40 O 0.86087 0.16549 0.68613 0.0
H41 H 0.68517 0.0305 0.65962 0.0
H42 H 0.76002 1.01376 0.75759 0.0
O43 O 0.79126 0.06287 0.63253 0.0
H44 H 0.94303 0.95331 0.73537 0.0
H45 H 0.66119 0.98793 0.76663 0.0
Cu46 Cu 0.96343 0.77318 0.16347 0.0
N47 N 1.01717 0.81496 0.18031 0.0
N48 N 0.04577 0.89656 0.18504 0.0
C49 C 1.00553 0.86408 0.18949 0.0
C50 C 0.08518 0.86647 0.1736 0.0
C51 C 0.06748 0.8161 0.17076 0.0
O52 O 0.90456 0.79676 0.19314 0.0
C53 C 0.99767 0.77279 0.09259 0.0
O54 O 0.03308 0.74366 0.10728 0.0
H55 H 0.96636 0.87728 0.19416 0.0
H56 H 0.08806 0.78441 0.15833 0.0
N57 N 0.96939 0.70027 0.16476 0.0
N58 N 0.98241 0.61558 0.17388 0.0
C59 C 0.99365 0.66435 0.185 0.0
C60 C 0.94213 0.67279 0.14091 0.0
C61 C 0.95017 0.62116 0.14624 0.0
C62 C 0.88612 0.77138 0.21957 0.0
O63 O 0.89762 0.72221 0.22266 0.0
H64 H 1.01776 0.67343 0.2076 0.0
H65 H 0.91681 0.68952 0.12132 0.0
O66 O 0.96074 0.79046 0.11212 0.0
H67 H 0.12235 0.88068 0.16454 0.0
H68 H 0.93251 0.58978 0.13162 0.0
Cu69 Cu 0.2872 0.95546 0.6606 0.0
N70 N 0.24504 1.00844 0.67857 0.0
N71 N 0.16576 0.03987 0.68952 0.0
C72 C 0.19541 0.99737 0.68669 0.0
C73 C 0.19794 0.07988 0.6832 0.0
C74 C 0.24706 0.06033 0.67637 0.0
O75 O 0.26307 0.89624 0.68892 0.0
C76 C 0.28745 0.99247 0.59084 0.0
O77 O 0.31208 0.03002 0.60698 0.0
H78 H 0.18012 0.95848 0.6871 0.0
H79 H 0.28039 0.08206 0.66743 0.0
N80 N 0.36009 0.95971 0.66333 0.0
N81 N 0.44472 0.97076 0.67383 0.0
C82 C 0.39577 0.98493 0.68323 0.0
C83 C 0.38785 0.92881 0.64154 0.0
C84 C 0.43943 0.93569 0.64764 0.0
C85 C 0.27585 0.89598 0.7218 0.0
O86 O 0.31139 0.92857 0.73253 0.0
H87 H 0.38633 1.01173 0.7045 0.0
H88 H 0.37122 0.90147 0.62311 0.0
O89 O 0.27222 0.95351 0.60912 0.0
H90 H 0.18606 0.11983 0.6811 0.0
H91 H 0.4709 0.91511 0.63474 0.0
Cu92 Cu 0.05482 0.78988 0.8685 0.0
N93 N 1.00886 0.84481 0.86045 0.0
N94 N 0.98827 0.92886 0.85721 0.0
C95 C 0.02425 0.89238 0.85002 0.0
C96 C 0.94809 0.90308 0.87191 0.0
C97 C 0.96083 0.85128 0.87381 0.0
O98 O 0.11807 0.81428 0.84475 0.0
C99 C 0.04596 0.81279 0.94338 0.0
O100 O 0.04125 0.86071 0.9328 0.0
H101 H 0.06293 0.90101 0.84058 0.0
H102 H 0.93864 0.82144 0.88702 0.0
N103 N 0.03548 0.72791 0.84576 0.0
N104 N 0.01976 0.64352 0.83685 0.0
C105 C 1.01833 0.6833 0.86048 0.0
C106 C 0.04746 0.71587 0.81175 0.0
C107 C 0.03839 0.66406 0.8063 0.0
C108 C 0.15592 0.7885 0.8319 0.0
O109 O 0.16159 0.73981 0.84079 0.0
H110 H 1.00727 0.67948 0.88827 0.0
H111 H 0.06413 0.74251 0.7927 0.0
O112 O 0.05646 0.77753 0.92051 0.0
H113 H 0.91337 0.92094 0.8825 0.0
H114 H 0.0456 0.64277 0.78186 0.0
Cu115 Cu 0.26414 0.06239 0.36913 0.0
N116 N 0.2023 0.02772 0.35781 0.0
N117 N 0.11721 1.01312 0.35435 0.0
C118 C 0.15499 0.03905 0.37125 0.0
C119 C 0.14143 0.98313 0.33003 0.0
C120 C 0.19395 0.99233 0.33211 0.0
O121 O 0.26155 0.12859 0.34359 0.0
C122 C 0.25989 0.02224 0.43818 0.0
O123 O 0.24417 0.98175 0.42013 0.0
H124 H 0.14806 0.06722 0.39211 0.0
H125 H 0.22368 0.97576 0.31518 0.0
N126 N 0.32365 0.02971 0.35048 0.0
N127 N 0.4076 1.00984 0.34323 0.0
C128 C 0.36983 0.02362 0.36665 0.0
C129 C 0.33287 0.01956 0.31575 0.0
C130 C 0.38441 1.00728 0.31121 0.0
C131 C 0.22066 0.15544 0.33977 0.0
O132 O 0.18076 0.14727 0.36077 0.0
H133 H 0.37632 0.03186 0.39458 0.0
H134 H 0.30475 0.02379 0.2948 0.0
O135 O 0.27033 0.06394 0.42134 0.0
H136 H 0.12228 0.95751 0.31158 0.0
H137 H 0.40382 0.99871 0.28619 0.0
Cu138 Cu 0.93657 0.28138 0.8854 0.0
N139 N 0.98109 0.23118 0.86613 0.0
N140 N 1.00338 0.14974 0.8532 0.0
C141 C 0.97189 0.18077 0.87231 0.0
C142 C 0.03457 0.18176 0.8345 0.0
C143 C 0.02109 0.23227 0.84288 0.0
O144 O 0.86656 0.25434 0.87624 0.0
C145 C 0.99493 0.2808 0.94942 0.0
O146 O 0.03448 0.27985 0.92725 0.0
H147 H 0.94099 0.167 0.88946 0.0
H148 H 0.03751 0.26703 0.83156 0.0
N149 N 0.93777 0.3509 0.86973 0.0
N150 N 0.9538 0.43462 0.85854 0.0
C151 C 0.97484 0.38725 0.86448 0.0
C152 C 0.89272 0.37647 0.86689 0.0
C153 C 0.90232 0.42752 0.8601 0.0
C154 C 0.83067 0.24117 0.85447 0.0
O155 O 0.78935 0.22056 0.86928 0.0
H156 H 1.01589 0.37966 0.86596 0.0
H157 H 0.85505 0.35919 0.87067 0.0
O158 O 0.94909 0.282 0.93707 0.0
H159 H 0.06418 0.16947 0.81576 0.0
H160 H 0.87363 0.45756 0.85683 0.0
Cu161 Cu 0.77499 0.95336 0.39235 0.0
N162 N 0.81719 1.0063 0.37448 0.0
N163 N 0.89766 0.03568 0.36492 0.0
C164 C 0.86594 0.99449 0.36428 0.0
C165 C 0.86763 0.07567 0.37533 0.0
C166 C 0.81789 0.05742 0.38128 0.0
O167 O 0.79895 0.89383 0.36361 0.0
C168 C 0.77398 0.98941 0.4629 0.0
O169 O 0.74729 0.02613 0.44754 0.0
H170 H 0.87955 0.95526 0.36078 0.0
H171 H 0.78633 0.07883 0.39325 0.0
N172 N 0.7021 0.95886 0.39004 0.0
N173 N 0.61763 0.97178 0.37996 0.0
C174 C 0.66676 0.98501 0.37047 0.0
C175 C 0.67392 0.92839 0.41177 0.0
C176 C 0.62241 0.93637 0.40589 0.0
C177 C 0.77591 0.87996 0.33508 0.0
O178 O 0.72882 0.89676 0.32941 0.0
H179 H 0.67657 1.0118 0.34936 0.0
H180 H 0.69018 0.90072 0.43006 0.0
O181 O 0.79044 0.95143 0.44396 0.0
H182 H 0.8816 0.11411 0.38122 0.0
H183 H 0.59062 0.9164 0.4188 0.0
C184 C 0.05358 0.49063 0.19043 0.0
C185 C 1.01126 0.45869 0.20036 0.0
C186 C 0.9558 0.53556 0.20406 0.0
C187 C 0.99576 0.56596 0.18892 0.0
N188 N 0.08181 0.57228 0.16496 0.0
N189 N 0.92022 0.44981 0.21238 0.0
C190 C 0.0447 0.54355 0.1817 0.0
C191 C 0.9619 0.48103 0.20646 0.0
N192 N 0.10236 0.4706 0.19032 0.0
N193 N 0.91176 0.55933 0.21586 0.0
H194 H 0.92296 0.40965 0.21269 0.0
H195 H 0.88234 0.46329 0.21363 0.0
H196 H 0.90698 0.59931 0.21445 0.0
H197 H 0.88261 0.54039 0.22997 0.0
H198 H 0.13544 0.49281 0.18637 0.0
H199 H 0.10995 0.43246 0.1975 0.0
H200 H 0.11635 0.55686 0.15526 0.0
H201 H 0.07647 0.61121 0.15892 0.0
C202 C 0.51788 0.03167 0.68231 0.0
C203 C 0.49391 0.98364 0.68967 0.0
C204 C 0.57691 0.94884 0.70997 0.0
C205 C 0.6007 0.99742 0.70396 0.0
N206 N 0.59089 0.08841 0.69293 0.0
N207 N 0.49698 0.90112 0.71837 0.0
C208 C 0.57024 0.03994 0.69265 0.0
C209 C 0.52245 0.94385 0.70627 0.0
N210 N 0.49131 0.06845 0.66401 0.0
N211 N 0.60682 0.90674 0.71715 0.0
H212 H 0.45697 0.89725 0.71624 0.0
H213 H 0.51446 0.8724 0.73348 0.0
H214 H 0.647 0.90859 0.71841 0.0
H215 H 0.59238 0.86926 0.71844 0.0
H216 H 0.5083 0.10209 0.65425 0.0
H217 H 0.45286 0.06358 0.65664 0.0
H218 H 0.56941 0.12161 0.68798 0.0
H219 H 0.62836 0.09579 0.70158 0.0
C220 C 0.96334 0.51124 0.82023 0.0
C221 C 0.97803 0.48405 0.85127 0.0
C222 C 0.02739 0.5603 0.87037 0.0
C223 C 1.00547 0.5898 0.84232 0.0
N224 N 0.94323 0.59456 0.79498 0.0
N225 N 1.01793 0.48583 0.90908 0.0
C226 C 0.97104 0.56548 0.81831 0.0
C227 C 1.00869 0.5093 0.87723 0.0
N228 N 0.94209 0.48486 0.79244 0.0
N229 N 0.0674 0.58001 0.88953 0.0
H230 H 1.00414 0.4491 0.91524 0.0
H231 H 0.03548 0.50462 0.93039 0.0
H232 H 0.0838 0.61589 0.88398 0.0
H233 H 0.08774 0.5585 0.90821 0.0
H234 H 0.93446 0.50181 0.76785 0.0
H235 H 0.93754 0.44481 0.79286 0.0
H236 H 0.9143 0.57924 0.77897 0.0
H237 H 0.94481 0.63478 0.79466 0.0
C238 C 0.48528 0.95359 0.34286 0.0
C239 C 0.46219 1.00223 0.35004 0.0
C240 C 0.54526 0.034 0.373 0.0
C241 C 0.5686 0.98599 0.36446 0.0
N242 N 0.56451 0.90469 0.33398 0.0
N243 N 0.47295 0.09229 0.364 0.0
C244 C 0.5396 0.9474 0.34683 0.0
C245 C 0.49307 0.0436 0.36278 0.0
N246 N 0.45477 0.91251 0.3342 0.0
N247 N 0.57232 0.06947 0.39225 0.0
H248 H 0.43552 0.10061 0.35569 0.0
H249 H 0.49475 0.12492 0.37 0.0
H250 H 0.6107 0.06364 0.39949 0.0
H251 H 0.55584 0.1029 0.40286 0.0
H252 H 0.46852 0.87484 0.33195 0.0
H253 H 0.41467 0.91527 0.33257 0.0
H254 H 0.5468 0.87688 0.31815 0.0
H255 H 0.6044 0.89991 0.33637 0.0
C256 C 0.02659 0.23433 1.00408 0.0
C257 C 1.00438 0.27919 0.98865 0.0
C258 C 1.00068 0.32056 0.0478 0.0
C259 C 0.02474 0.27649 0.06307 0.0
N260 N 0.06697 0.19418 0.05536 0.0
N261 N 0.97859 0.36821 0.99423 0.0
C262 C 0.04 0.23438 0.04099 0.0
C263 C 0.99361 0.32318 1.01011 0.0
N264 N 0.03243 0.19071 0.98377 0.0
N265 N 0.984 0.35981 0.06949 0.0
H266 H 0.97274 0.37151 0.96682 0.0
H267 H 0.97572 0.40336 1.0076 0.0
H268 H 0.99184 0.36125 0.09671 0.0
H269 H 0.96029 0.38974 0.06097 0.0
H270 H 0.04297 0.15495 0.994 0.0
H271 H 0.02267 0.189 0.95685 0.0
H272 H 0.08435 0.16515 0.04023 0.0
H273 H 0.07531 0.19152 0.08245 0.0
C274 C 0.75599 0.97905 0.56417 0.0
C275 C 0.79324 1.01539 0.57629 0.0
C276 C 0.82242 0.02902 0.51417 0.0
C277 C 0.784 0.99401 0.50203 0.0
N278 N 0.70994 0.94072 0.51451 0.0
N279 N 0.85959 0.07787 0.56334 0.0
C280 C 0.74986 0.97014 0.52683 0.0
C281 C 0.82571 0.04134 0.55136 0.0
N282 N 0.72638 0.95282 0.58852 0.0
N283 N 0.85636 0.04972 0.48995 0.0
H284 H 0.86447 0.08623 0.59032 0.0
H285 H 0.88112 0.10201 0.54683 0.0
H286 H 0.85411 0.04243 0.46265 0.0
H287 H 0.88849 0.07165 0.49664 0.0
H288 H 0.70376 0.92092 0.58224 0.0
H289 H 0.72583 0.96159 0.61568 0.0
H290 H 0.67955 0.92749 0.53036 0.0
H291 H 0.70545 0.93178 0.48762 0.0
C292 C 0.97662 0.7621 0.02722 0.0
C293 C 1.00503 0.78742 0.05435 0.0
C294 C 0.06402 0.82322 1.00879 0.0
C295 C 0.03394 0.80042 0.98148 0.0
N296 N 0.95644 0.75529 0.96425 0.0
N297 N 0.07013 0.84909 0.07088 0.0
C298 C 0.98885 0.77166 0.99057 0.0
C299 C 0.04707 0.82009 0.04502 0.0
N300 N 0.93895 0.7276 0.03648 0.0
N301 N 0.10999 0.84624 1.00015 0.0
H302 H 0.05849 0.84781 0.09754 0.0
H303 H 0.09732 0.87774 0.06562 0.0
H304 H 0.12393 0.84858 0.974 0.0
H305 H 0.13653 0.85884 1.01896 0.0
H306 H 0.92137 0.7028 1.01837 0.0
H307 H 0.92726 0.7217 0.06282 0.0
H308 H 0.92006 0.73961 0.96922 0.0
H309 H 0.96411 0.76076 0.93719 0.0
C310 C 0.30409 0.97894 0.48965 0.0
C311 C 0.2685 1.01678 0.47738 0.0
C312 C 0.24165 0.03453 0.5395 0.0
C313 C 0.27788 0.99733 0.55172 0.0
N314 N 0.34803 0.93876 0.53944 0.0
N315 N 0.20519 0.08271 0.48989 0.0
C316 C 0.30997 0.97046 0.52701 0.0
C317 C 0.2379 0.04534 0.50216 0.0
N318 N 0.33252 0.95109 0.46538 0.0
N319 N 0.21008 0.05869 0.5638 0.0
H320 H 0.19938 0.08969 0.46285 0.0
H321 H 0.18507 0.10853 0.5061 0.0
H322 H 0.21294 0.05277 0.5912 0.0
H323 H 0.17944 0.08273 0.55728 0.0
H324 H 0.35356 0.91816 0.47167 0.0
H325 H 0.33397 0.95986 0.43826 0.0
H326 H 0.37713 0.92276 0.52362 0.0
H327 H 0.35244 0.9305 0.56639 0.0
C328 C 0.17168 0.2671 0.28427 0.0
C329 C 0.181 0.24926 0.2487 0.0
C330 C 0.22022 0.17043 0.27289 0.0
C331 C 0.21409 0.18991 0.30821 0.0
N332 N 0.19715 0.26294 0.34632 0.0
N333 N 0.22812 0.19107 0.21009 0.0
C334 C 0.19438 0.24041 0.31341 0.0
C335 C 0.21005 0.20332 0.24339 0.0
N336 N 0.1379 0.30661 0.29097 0.0
N337 N 0.23178 0.11957 0.26715 0.0
H338 H 0.22265 0.21506 0.18811 0.0
H339 H 0.25324 0.16032 0.20525 0.0
H340 H 0.23692 0.093 0.2876 0.0
H341 H 0.23092 0.10254 0.24194 0.0
H342 H 0.1257 0.31661 0.31663 0.0
H343 H 0.11768 0.32615 0.27136 0.0
H344 H 0.1879 0.30158 0.35091 0.0
H345 H 0.21394 0.24453 0.36808 0.0
C346 C 0.78568 0.23969 0.79447 0.0
C347 C 0.83285 0.24168 0.81384 0.0
C348 C 0.87849 0.20367 0.76268 0.0
C349 C 0.83083 0.19547 0.74488 0.0
N350 N 0.7417 0.22012 0.7387 0.0
N351 N 0.92241 0.25908 0.80392 0.0
C352 C 0.78506 0.21811 0.75923 0.0
C353 C 0.87906 0.23357 0.79446 0.0
N354 N 0.7419 0.25963 0.80975 0.0
N355 N 0.92314 0.18095 0.7509 0.0
H356 H 0.92113 0.28632 0.82414 0.0
H357 H 0.95565 0.25954 0.78799 0.0
H358 H 0.9252 0.15612 0.72909 0.0
H359 H 0.95748 0.1831 0.7652 0.0
H360 H 0.70487 0.25449 0.79981 0.0
H361 H 0.74317 0.28243 0.83273 0.0
H362 H 0.70747 0.23824 0.74629 0.0
H363 H 0.74116 0.20679 0.71241 0.0
C364 C 0.83668 0.80891 0.31327 0.0
C365 C 0.80435 0.85174 0.30575 0.0
C366 C 0.81979 0.83693 0.24151 0.0
C367 C 0.85727 0.7986 0.2492 0.0
N368 N 0.91182 0.76043 0.29437 0.0
N369 N 0.77944 0.91573 0.26203 0.0
C370 C 0.86864 0.78785 0.28565 0.0
C371 C 0.79981 0.86838 0.26966 0.0
N372 N 0.83614 0.78716 0.34642 0.0
N373 N 0.80186 0.84265 0.2076 0.0
H374 H 0.76883 0.94241 0.28162 0.0
H375 H 0.77955 0.9311 0.23635 0.0
H376 H 0.81346 0.81892 0.1865 0.0
H377 H 0.77116 0.86705 0.20144 0.0
H378 H 0.8555 0.75289 0.35215 0.0
H379 H 0.81205 0.80006 0.36702 0.0
H380 H 0.92385 0.75566 0.32063 0.0
H381 H 0.93922 0.74832 0.27563 0.0
C382 C 0.23622 0.81323 0.74624 0.0
C383 C 0.24501 0.86711 0.74928 0.0
C384 C 0.20563 0.8656 0.80921 0.0
C385 C 0.19037 0.81342 0.80438 0.0
N386 N 0.1821 0.74124 0.76335 0.0
N387 N 0.2241 0.94667 0.78018 0.0
C388 C 0.20336 0.78799 0.77161 0.0
C389 C 0.2258 0.89391 0.7798 0.0
N390 N 0.26015 0.78568 0.71974 0.0
N391 N 0.20241 0.88801 0.84219 0.0
H392 H 0.23518 0.96925 0.75845 0.0
H393 H 0.20578 0.96766 0.80041 0.0
H394 H 0.19065 0.86787 0.86492 0.0
H395 H 0.21725 0.92458 0.84764 0.0
H396 H 0.25951 0.74547 0.71859 0.0
H397 H 0.28464 0.80261 0.70089 0.0
H398 H 0.18618 0.72408 0.73831 0.0
H399 H 0.15598 0.72192 0.77977 0.0
C400 C 0.99783 0.02941 0.16015 0.0
C401 C 0.02608 0.06075 0.18398 0.0
C402 C 0.07026 0.98374 0.20715 0.0
C403 C 0.04225 0.9524 0.18304 0.0
N404 N 0.98997 0.94652 0.13042 0.0
N405 N 0.09484 0.07033 0.22608 0.0
C406 C 1.00893 0.97563 0.15776 0.0
C407 C 0.06435 0.03861 0.20612 0.0
N408 N 0.96001 0.05132 0.14001 0.0
N409 N 0.10097 0.96066 0.23186 0.0
H410 H 0.08946 0.11021 0.22715 0.0
H411 H 0.12711 0.0579 0.24001 0.0
H412 H 0.1051 0.92068 0.23356 0.0
H413 H 0.12043 0.98064 0.25168 0.0
H414 H 0.93386 0.03011 0.12496 0.0
H415 H 0.95281 0.09097 0.14011 0.0
H416 H 0.96928 0.96173 0.1092 0.0
H417 H 0.99936 0.90768 0.12701 0.0
C418 C 0.08404 0.05426 0.72312 0.0
C419 C 0.10986 0.0402 0.69109 0.0
C420 C 0.02719 1.01278 0.66521 0.0
C421 C 1.00125 0.02845 0.6968 0.0
N422 N 1.00243 0.07293 0.75292 0.0
N423 N 0.10589 1.01485 0.62948 0.0
C424 C 0.02904 0.05186 0.72493 0.0
C425 C 0.08123 0.02211 0.66143 0.0
N426 N 0.1124 0.06776 0.75221 0.0
N427 N 1.00024 0.98733 0.63942 0.0
H428 H 0.1453 0.02156 0.62615 0.0
H429 H 0.08696 1.00638 0.6058 0.0
H430 H 0.96063 0.98041 0.64155 0.0
H431 H 1.01741 0.97005 0.6172 0.0
H432 H 0.09652 0.07318 0.77757 0.0
H433 H 0.15264 0.07013 0.75136 0.0
H434 H 0.01963 0.09573 0.77238 0.0
H435 H 0.96223 0.07121 0.75478 0.0
C436 C 0.03985 0.06489 0.86992 0.0
C437 C 1.0015 0.09392 0.85225 0.0
C438 C 0.95828 1.01342 0.83439 0.0
C439 C 0.99399 0.98451 0.85471 0.0
N440 N 0.06309 0.9838 0.89746 0.0
N441 N 0.92059 0.09703 0.82127 0.0
C442 C 0.03368 1.01048 0.87373 0.0
C443 C 0.95945 0.06844 0.83571 0.0
N444 N 0.08175 0.08965 0.88376 0.0
N445 N 0.92451 0.98804 0.81276 0.0
H446 H 0.92191 0.13714 0.81995 0.0
H447 H 0.88601 0.0814 0.81229 0.0
H448 H 0.92435 0.94793 0.81016 0.0
H449 H 0.89986 1.00654 0.79513 0.0
H450 H 0.11422 0.07044 0.89319 0.0
H451 H 0.0855 0.12972 0.88373 0.0
H452 H 0.08895 1.00117 0.91489 0.0
H453 H 0.05811 0.94468 0.90235 0.0
C454 C 0.98074 0.05519 0.3343 0.0
C455 C 0.95358 0.03369 0.36367 0.0
C456 C 0.03489 0.998 0.38669 0.0
C457 C 0.06217 0.02118 0.35808 0.0
N458 N 0.06363 0.08012 0.30872 0.0
N459 N 0.9554 0.99338 0.4214 0.0
C460 C 0.03576 0.05227 0.33303 0.0
C461 C 0.98094 1.00758 0.39096 0.0
N462 N 0.95362 0.07663 0.30701 0.0
N463 N 0.06059 0.96569 0.40916 0.0
H464 H 0.9162 1.00068 0.42543 0.0
H465 H 0.97365 0.97855 0.44379 0.0
H466 H 0.10019 0.95874 0.40673 0.0
H467 H 0.04236 0.94314 0.42847 0.0
H468 H 0.97051 0.08813 0.28301 0.0
H469 H 0.9134 0.0795 0.3075 0.0
H470 H 0.04736 0.10772 0.29207 0.0
H471 H 0.10389 0.07869 0.30737 0.0
loop_
_geom_bond_atom_site_label_1
_geom_bond_atom_site_label_2
_geom_bond_distance
_geom_bond_site_symmetry_2
_ccdc_geom_bond_type
Cu0 N1 1.999 . S
Cu0 O6 1.974 . S
Cu0 N11 1.985 . S
Cu0 O20 1.959 . S
N1 Cu0 1.999 . S
N1 C3 1.263 . S
N1 C5 1.389 1_455 S
N2 C3 1.358 . S
N2 C4 1.400 1_455 S
C3 N1 1.263 . S
C3 N2 1.358 . S
C3 H9 0.930 . S
C4 N2 1.400 1_655 S
C4 C5 1.351 . S
C4 H21 0.930 . S
C5 N1 1.389 1_655 S
C5 C4 1.351 . S
C5 H10 0.930 . S
O6 Cu0 1.974 . S
O6 C16 1.282 . S
C7 O8 1.261 . S
C7 O20 1.251 . S
O8 C7 1.261 . S
H9 C3 0.930 . S
H10 C5 0.930 . S
N11 Cu0 1.985 . S
N11 C13 1.335 . S
N11 C14 1.390 . S
N12 C13 1.345 . S
N12 C15 1.336 . S
C13 N11 1.335 . S
C13 N12 1.345 . S
C13 H18 0.930 . S
C14 N11 1.390 . S
C14 C15 1.346 . S
C14 H19 0.930 . S
C15 N12 1.336 . S
C15 C14 1.346 . S
C15 H22 0.929 . S
C16 O6 1.282 . S
C16 O17 1.216 . S
O17 C16 1.216 . S
H18 C13 0.930 . S
H19 C14 0.930 . S
O20 Cu0 1.959 . S
O20 C7 1.251 . S
H21 C4 0.930 . S
H22 C15 0.929 . S
Cu23 N24 1.999 . S
Cu23 O29 1.974 . S
Cu23 N34 1.985 . S
Cu23 O43 1.959 . S
N24 Cu23 1.999 . S
N24 C26 1.263 . S
N24 C28 1.389 1_545 S
N25 C26 1.358 . S
N25 C27 1.400 1_545 S
C26 N24 1.263 . S
C26 N25 1.358 . S
C26 H32 0.930 . S
C27 N25 1.400 1_565 S
C27 C28 1.351 . S
C27 H44 0.930 . S
C28 N24 1.389 1_565 S
C28 C27 1.351 . S
C28 H33 0.930 . S
O29 Cu23 1.974 . S
O29 C39 1.282 . S
C30 O31 1.261 . S
C30 O43 1.251 . S
O31 C30 1.261 . S
H32 C26 0.930 . S
H33 C28 0.930 . S
N34 Cu23 1.985 . S
N34 C36 1.335 . S
N34 C37 1.390 . S
N35 C36 1.345 . S
N35 C38 1.336 . S
C36 N34 1.335 . S
C36 N35 1.345 . S
C36 H41 0.930 . S
C37 N34 1.390 . S
C37 C38 1.346 . S
C37 H42 0.930 . S
C38 N35 1.336 . S
C38 C37 1.346 . S
C38 H45 0.929 . S
C39 O29 1.282 . S
C39 O40 1.216 . S
O40 C39 1.216 . S
H41 C36 0.930 . S
H42 C37 0.930 . S
O43 Cu23 1.959 . S
O43 C30 1.251 . S
H44 C27 0.930 . S
H45 C38 0.929 . S
Cu46 N47 1.999 . S
Cu46 O52 1.974 . S
Cu46 N57 1.985 . S
Cu46 O66 1.959 . S
N47 Cu46 1.999 . S
N47 C49 1.263 . S
N47 C51 1.389 1_655 S
N48 C49 1.358 . S
N48 C50 1.400 1_655 S
C49 N47 1.263 . S
C49 N48 1.358 . S
C49 H55 0.930 . S
C50 N48 1.400 1_455 S
C50 C51 1.351 . S
C50 H67 0.930 . S
C51 N47 1.389 1_455 S
C51 C50 1.351 . S
C51 H56 0.930 . S
O52 Cu46 1.974 . S
O52 C62 1.282 . S
C53 O54 1.261 . S
C53 O66 1.251 . S
O54 C53 1.261 . S
H55 C49 0.930 . S
H56 C51 0.930 . S
N57 Cu46 1.985 . S
N57 C59 1.335 . S
N57 C60 1.390 . S
N58 C59 1.345 . S
N58 C61 1.336 . S
C59 N57 1.335 . S
C59 N58 1.345 . S
C59 H64 0.930 . S
C60 N57 1.390 . S
C60 C61 1.346 . S
C60 H65 0.930 . S
C61 N58 1.336 . S
C61 C60 1.346 . S
C61 H68 0.929 . S
C62 O52 1.282 . S
C62 O63 1.216 . S
O63 C62 1.216 . S
H64 C59 0.930 . S
H65 C60 0.930 . S
O66 Cu46 1.959 . S
O66 C53 1.251 . S
H67 C50 0.930 . S
H68 C61 0.929 . S
Cu69 N70 1.999 . S
Cu69 O75 1.974 . S
Cu69 N80 1.985 . S
Cu69 O89 1.959 . S
N70 Cu69 1.999 . S
N70 C72 1.263 . S
N70 C74 1.389 1_565 S
N71 C72 1.358 . S
N71 C73 1.400 1_565 S
C72 N70 1.263 . S
C72 N71 1.358 . S
C72 H78 0.930 . S
C73 N71 1.400 1_545 S
C73 C74 1.351 . S
C73 H90 0.930 . S
C74 N70 1.389 1_545 S
C74 C73 1.351 . S
C74 H79 0.930 . S
O75 Cu69 1.974 . S
O75 C85 1.282 . S
C76 O77 1.261 . S
C76 O89 1.251 . S
O77 C76 1.261 . S
H78 C72 0.930 . S
H79 C74 0.930 . S
N80 Cu69 1.985 . S
N80 C82 1.335 . S
N80 C83 1.390 . S
N81 C82 1.345 . S
N81 C84 1.336 . S
C82 N80 1.335 . S
C82 N81 1.345 . S
C82 H87 0.930 . S
C83 N80 1.390 . S
C83 C84 1.346 . S
C83 H88 0.930 . S
C84 N81 1.336 . S
C84 C83 1.346 . S
C84 H91 0.929 . S
C85 O75 1.282 . S
C85 O86 1.216 . S
O86 C85 1.216 . S
H87 C82 0.930 . S
H88 C83 0.930 . S
O89 Cu69 1.959 . S
O89 C76 1.251 . S
H90 C73 0.930 . S
H91 C84 0.929 . S
Cu92 N93 1.999 . S
Cu92 O98 1.974 . S
Cu92 N103 1.985 . S
Cu92 O112 1.959 . S
N93 Cu92 1.999 . S
N93 C95 1.263 . S
N93 C97 1.389 1_455 S
N94 C95 1.358 . S
N94 C96 1.400 1_455 S
C95 N93 1.263 . S
C95 N94 1.358 . S
C95 H101 0.930 . S
C96 N94 1.400 1_655 S
C96 C97 1.351 . S
C96 H113 0.930 . S
C97 N93 1.389 1_655 S
C97 C96 1.351 . S
C97 H102 0.930 . S
O98 Cu92 1.974 . S
O98 C108 1.282 . S
C99 O100 1.261 . S
C99 O112 1.251 . S
O100 C99 1.261 . S
H101 C95 0.930 . S
H102 C97 0.930 . S
N103 Cu92 1.985 . S
N103 C105 1.335 . S
N103 C106 1.390 . S
N104 C105 1.345 . S
N104 C107 1.336 . S
C105 N103 1.335 . S
C105 N104 1.345 . S
C105 H110 0.930 . S
C106 N103 1.390 . S
C106 C107 1.346 . S
C106 H111 0.930 . S
C107 N104 1.336 . S
C107 C106 1.346 . S
C107 H114 0.929 . S
C108 O98 1.282 . S
C108 O109 1.216 . S
O109 C108 1.216 . S
H110 C105 0.930 . S
H111 C106 0.930 . S
O112 Cu92 1.959 . S
O112 C99 1.251 . S
H113 C96 0.930 . S
H114 C107 0.929 . S
Cu115 N116 1.999 . S
Cu115 O121 1.974 . S
Cu115 N126 1.985 . S
Cu115 O135 1.959 . S
N116 Cu115 1.999 . S
N116 C118 1.263 . S
N116 C120 1.389 1_545 S
N117 C118 1.358 . S
N117 C119 1.400 1_545 S
C118 N116 1.263 . S
C118 N117 1.358 . S
C118 H124 0.930 . S
C119 N117 1.400 1_565 S
C119 C120 1.351 . S
C119 H136 0.930 . S
C120 N116 1.389 1_565 S
C120 C119 1.351 . S
C120 H125 0.930 . S
O121 Cu115 1.974 . S
O121 C131 1.282 . S
C122 O123 1.261 . S
C122 O135 1.251 . S
O123 C122 1.261 . S
H124 C118 0.930 . S
H125 C120 0.930 . S
N126 Cu115 1.985 . S
N126 C128 1.335 . S
N126 C129 1.390 . S
N127 C128 1.345 . S
N127 C130 1.336 . S
C128 N126 1.335 . S
C128 N127 1.345 . S
C128 H133 0.930 . S
C129 N126 1.390 . S
C129 C130 1.346 . S
C129 H134 0.930 . S
C130 N127 1.336 . S
C130 C129 1.346 . S
C130 H137 0.929 . S
C131 O121 1.282 . S
C131 O132 1.216 . S
O132 C131 1.216 . S
H133 C128 0.930 . S
H134 C129 0.930 . S
O135 Cu115 1.959 . S
O135 C122 1.251 . S
H136 C119 0.930 . S
H137 C130 0.929 . S
Cu138 N139 1.999 . S
Cu138 O144 1.974 . S
Cu138 N149 1.985 . S
Cu138 O158 1.959 . S
N139 Cu138 1.999 . S
N139 C141 1.263 . S
N139 C143 1.389 1_655 S
N140 C141 1.358 . S
N140 C142 1.400 1_655 S
C141 N139 1.263 . S
C141 N140 1.358 . S
C141 H147 0.930 . S
C142 N140 1.400 1_455 S
C142 C143 1.351 . S
C142 H159 0.930 . S
C143 N139 1.389 1_455 S
C143 C142 1.351 . S
C143 H148 0.930 . S
O144 Cu138 1.974 . S
O144 C154 1.282 . S
C145 O146 1.261 . S
C145 O158 1.251 . S
O146 C145 1.261 . S
H147 C141 0.930 . S
H148 C143 0.930 . S
N149 Cu138 1.985 . S
N149 C151 1.335 . S
N149 C152 1.390 . S
N150 C151 1.345 . S
N150 C153 1.336 . S
C151 N149 1.335 . S
C151 N150 1.345 . S
C151 H156 0.930 . S
C152 N149 1.390 . S
C152 C153 1.346 . S
C152 H157 0.930 . S
C153 N150 1.336 . S
C153 C152 1.346 . S
C153 H160 0.929 . S
C154 O144 1.282 . S
C154 O155 1.216 . S
O155 C154 1.216 . S
H156 C151 0.930 . S
H157 C152 0.930 . S
O158 Cu138 1.959 . S
O158 C145 1.251 . S
H159 C142 0.930 . S
H160 C153 0.929 . S
Cu161 N162 1.999 . S
Cu161 O167 1.974 . S
Cu161 N172 1.985 . S
Cu161 O181 1.959 . S
N162 Cu161 1.999 . S
N162 C164 1.263 . S
N162 C166 1.389 1_565 S
N163 C164 1.358 . S
N163 C165 1.400 1_565 S
C164 N162 1.263 . S
C164 N163 1.358 . S
C164 H170 0.930 . S
C165 N163 1.400 1_545 S
C165 C166 1.351 . S
C165 H182 0.930 . S
C166 N162 1.389 1_545 S
C166 C165 1.351 . S
C166 H171 0.930 . S
O167 Cu161 1.974 . S
O167 C177 1.282 . S
C168 O169 1.261 . S
C168 O181 1.251 . S
O169 C168 1.261 . S
H170 C164 0.930 . S
H171 C166 0.930 . S
N172 Cu161 1.985 . S
N172 C174 1.335 . S
N172 C175 1.390 . S
N173 C174 1.345 . S
N173 C176 1.336 . S
C174 N172 1.335 . S
C174 N173 1.345 . S
C174 H179 0.930 . S
C175 N172 1.390 . S
C175 C176 1.346 . S
C175 H180 0.930 . S
C176 N173 1.336 . S
C176 C175 1.346 . S
C176 H183 0.929 . S
C177 O167 1.282 . S
C177 O178 1.216 . S
O178 C177 1.216 . S
H179 C174 0.930 . S
H180 C175 0.930 . S
O181 Cu161 1.959 . S
O181 C168 1.251 . S
H182 C165 0.930 . S
H183 C176 0.929 . S
C184 C185 1.363 . S
C184 C190 1.379 . S
C184 N192 1.356 . S
C185 C184 1.363 . S
C185 C191 1.363 1_455 S
C186 C187 1.363 . S
C186 C191 1.379 . S
C186 N193 1.356 . S
C187 C186 1.363 . S
C187 C190 1.363 1_655 S
N188 C190 1.356 . S
N188 H200 0.984 . S
N188 H201 0.985 1_455 S
N189 C191 1.356 . S
N189 H194 0.985 1_655 S
N189 H195 0.984 . S
C190 C184 1.379 . S
C190 C187 1.363 1_455 S
C190 N188 1.356 . S
C191 C185 1.363 1_655 S
C191 C186 1.379 . S
C191 N189 1.356 . S
N192 C184 1.356 . S
N192 H198 0.984 . S
N192 H199 0.984 . S
N193 C186 1.356 . S
N193 H196 0.984 . S
N193 H197 0.985 . S
H194 N189 0.985 1_455 S
H195 N189 0.984 . S
H196 N193 0.984 . S
H197 N193 0.985 . S
H198 N192 0.984 . S
H199 N192 0.984 . S
H200 N188 0.984 . S
H201 N188 0.985 1_655 S
C202 C203 1.363 . S
C202 C208 1.379 . S
C202 N210 1.356 . S
C203 C202 1.363 . S
C203 C209 1.363 1_565 S
C204 C205 1.363 . S
C204 C209 1.379 . S
C204 N211 1.356 . S
C205 C204 1.363 . S
C205 C208 1.363 1_545 S
N206 C208 1.356 . S
N206 H218 0.984 . S
N206 H219 0.985 1_565 S
N207 C209 1.356 . S
N207 H212 0.985 1_545 S
N207 H213 0.984 . S
C208 C202 1.379 . S
C208 C205 1.363 1_565 S
C208 N206 1.356 . S
C209 C203 1.363 1_545 S
C209 C204 1.379 . S
C209 N207 1.356 . S
N210 C202 1.356 . S
N210 H216 0.984 . S
N210 H217 0.984 . S
N211 C204 1.356 . S
N211 H214 0.984 . S
N211 H215 0.985 . S
H212 N207 0.985 1_565 S
H213 N207 0.984 . S
H214 N211 0.984 . S
H215 N211 0.985 . S
H216 N210 0.984 . S
H217 N210 0.984 . S
H218 N206 0.984 . S
H219 N206 0.985 1_545 S
C220 C221 1.363 1_455 S
C220 C226 1.379 . S
C220 N228 1.356 . S
C221 C220 1.363 1_655 S
C221 C227 1.363 . S
C222 C223 1.363 1_655 S
C222 C227 1.379 . S
C222 N229 1.356 . S
C223 C222 1.363 1_455 S
C223 C226 1.363 . S
N224 C226 1.356 . S
N224 H236 0.984 . S
N224 H237 0.985 . S
N225 C227 1.356 . S
N225 H230 0.984 . S
N225 H231 0.985 . S
C226 C220 1.379 . S
C226 C223 1.363 . S
C226 N224 1.356 . S
C227 C221 1.363 . S
C227 C222 1.379 . S
C227 N225 1.356 . S
N228 C220 1.356 . S
N228 H234 0.984 . S
N228 H235 0.985 1_455 S
N229 C222 1.356 . S
N229 H232 0.985 1_655 S
N229 H233 0.984 . S
H230 N225 0.984 . S
H231 N225 0.985 . S
H232 N229 0.985 1_455 S
H233 N229 0.984 . S
H234 N228 0.984 . S
H235 N228 0.985 1_655 S
H236 N224 0.984 . S
H237 N224 0.985 . S
C238 C239 1.363 1_565 S
C238 C244 1.379 . S
C238 N246 1.356 . S
C239 C238 1.363 1_545 S
C239 C245 1.363 . S
C240 C241 1.363 1_545 S
C240 C245 1.379 . S
C240 N247 1.356 . S
C241 C240 1.363 1_565 S
C241 C244 1.363 . S
N242 C244 1.356 . S
N242 H254 0.984 . S
N242 H255 0.985 . S
N243 C245 1.356 . S
N243 H248 0.984 . S
N243 H249 0.985 . S
C244 C238 1.379 . S
C244 C241 1.363 . S
C244 N242 1.356 . S
C245 C239 1.363 . S
C245 C240 1.379 . S
C245 N243 1.356 . S
N246 C238 1.356 . S
N246 H252 0.984 . S
N246 H253 0.985 1_565 S
N247 C240 1.356 . S
N247 H250 0.985 1_545 S
N247 H251 0.984 . S
H248 N243 0.984 . S
H249 N243 0.985 . S
H250 N247 0.985 1_565 S
H251 N247 0.984 . S
H252 N246 0.984 . S
H253 N246 0.985 1_545 S
H254 N242 0.984 . S
H255 N242 0.985 . S
C256 C257 1.363 1_455 S
C256 C262 1.379 1_556 S
C256 N264 1.356 . S
C257 C256 1.363 1_655 S
C257 C263 1.363 . S
C258 C259 1.363 1_655 S
C258 C263 1.379 1_554 S
C258 N265 1.356 . S
C259 C258 1.363 1_455 S
C259 C262 1.363 . S
N260 C262 1.356 . S
N260 H272 0.984 . S
N260 H273 0.985 . S
N261 C263 1.356 . S
N261 H266 0.984 . S
N261 H267 0.985 . S
C262 C256 1.379 1_554 S
C262 C259 1.363 . S
C262 N260 1.356 . S
C263 C257 1.363 . S
C263 C258 1.379 1_556 S
C263 N261 1.356 . S
N264 C256 1.356 . S
N264 H270 0.984 . S
N264 H271 0.984 . S
N265 C258 1.356 . S
N265 H268 0.984 . S
N265 H269 0.985 . S
H266 N261 0.984 . S
H267 N261 0.985 . S
H268 N265 0.984 . S
H269 N265 0.985 . S
H270 N264 0.984 . S
H271 N264 0.984 . S
H272 N260 0.984 . S
H273 N260 0.985 . S
C274 C275 1.363 1_565 S
C274 C280 1.379 . S
C274 N282 1.356 . S
C275 C274 1.363 1_545 S
C275 C281 1.363 . S
C276 C277 1.363 1_545 S
C276 C281 1.379 . S
C276 N283 1.356 . S
C277 C276 1.363 1_565 S
C277 C280 1.363 . S
N278 C280 1.356 . S
N278 H290 0.984 . S
N278 H291 0.985 . S
N279 C281 1.356 . S
N279 H284 0.984 . S
N279 H285 0.985 . S
C280 C274 1.379 . S
C280 C277 1.363 . S
C280 N278 1.356 . S
C281 C275 1.363 . S
C281 C276 1.379 . S
C281 N279 1.356 . S
N282 C274 1.356 . S
N282 H288 0.984 . S
N282 H289 0.984 1_565 S
N283 C276 1.356 . S
N283 H286 0.984 1_545 S
N283 H287 0.985 . S
H284 N279 0.984 . S
H285 N279 0.985 . S
H286 N283 0.984 1_565 S
H287 N283 0.985 . S
H288 N282 0.984 . S
H289 N282 0.984 1_545 S
H290 N278 0.984 . S
H291 N278 0.985 . S
C292 C293 1.363 . S
C292 C298 1.379 1_554 S
C292 N300 1.356 . S
C293 C292 1.363 . S
C293 C299 1.363 1_655 S
C294 C295 1.363 . S
C294 C299 1.379 1_556 S
C294 N301 1.356 . S
C295 C294 1.363 . S
C295 C298 1.363 1_455 S
N296 C298 1.356 . S
N296 H308 0.984 . S
N296 H309 0.985 . S
N297 C299 1.356 . S
N297 H302 0.984 . S
N297 H303 0.985 . S
C298 C292 1.379 1_556 S
C298 C295 1.363 1_655 S
C298 N296 1.356 . S
C299 C293 1.363 1_455 S
C299 C294 1.379 1_554 S
C299 N297 1.356 . S
N300 C292 1.356 . S
N300 H306 0.984 . S
N300 H307 0.984 . S
N301 C294 1.356 . S
N301 H304 0.984 . S
N301 H305 0.985 . S
H302 N297 0.984 . S
H303 N297 0.985 . S
H304 N301 0.984 . S
H305 N301 0.985 . S
H306 N300 0.984 . S
H307 N300 0.984 . S
H308 N296 0.984 . S
H309 N296 0.985 . S
C310 C311 1.363 1_565 S
C310 C316 1.379 . S
C310 N318 1.356 . S
C311 C310 1.363 1_545 S
C311 C317 1.363 . S
C312 C313 1.363 1_545 S
C312 C317 1.379 . S
C312 N319 1.356 . S
C313 C312 1.363 1_565 S
C313 C316 1.363 . S
N314 C316 1.356 . S
N314 H326 0.984 . S
N314 H327 0.985 . S
N315 C317 1.356 . S
N315 H320 0.984 . S
N315 H321 0.985 . S
C316 C310 1.379 . S
C316 C313 1.363 . S
C316 N314 1.356 . S
C317 C311 1.363 . S
C317 C312 1.379 . S
C317 N315 1.356 . S
N318 C310 1.356 . S
N318 H324 0.984 . S
N318 H325 0.984 . S
N319 C312 1.356 . S
N319 H322 0.984 . S
N319 H323 0.985 . S
H320 N315 0.984 . S
H321 N315 0.985 . S
H322 N319 0.984 . S
H323 N319 0.985 . S
H324 N318 0.984 . S
H325 N318 0.984 . S
H326 N314 0.984 . S
H327 N314 0.985 . S
C328 C329 1.363 . S
C328 C334 1.379 . S
C328 N336 1.356 . S
C329 C328 1.363 . S
C329 C335 1.363 . S
C330 C331 1.363 . S
C330 C335 1.379 . S
C330 N337 1.356 . S
C331 C330 1.363 . S
C331 C334 1.363 . S
N332 C334 1.356 . S
N332 H344 0.984 . S
N332 H345 0.985 . S
N333 C335 1.356 . S
N333 H338 0.984 . S
N333 H339 0.985 . S
C334 C328 1.379 . S
C334 C331 1.363 . S
C334 N332 1.356 . S
C335 C329 1.363 . S
C335 C330 1.379 . S
C335 N333 1.356 . S
N336 C328 1.356 . S
N336 H342 0.984 . S
N336 H343 0.984 . S
N337 C330 1.356 . S
N337 H340 0.984 . S
N337 H341 0.985 . S
H338 N333 0.984 . S
H339 N333 0.985 . S
H340 N337 0.984 . S
H341 N337 0.985 . S
H342 N336 0.984 . S
H343 N336 0.984 . S
H344 N332 0.984 . S
H345 N332 0.985 . S
C346 C347 1.363 . S
C346 C352 1.379 . S
C346 N354 1.356 . S
C347 C346 1.363 . S
C347 C353 1.363 . S
C348 C349 1.363 . S
C348 C353 1.379 . S
C348 N355 1.356 . S
C349 C348 1.363 . S
C349 C352 1.363 . S
N350 C352 1.356 . S
N350 H362 0.984 . S
N350 H363 0.985 . S
N351 C353 1.356 . S
N351 H356 0.984 . S
N351 H357 0.985 . S
C352 C346 1.379 . S
C352 C349 1.363 . S
C352 N350 1.356 . S
C353 C347 1.363 . S
C353 C348 1.379 . S
C353 N351 1.356 . S
N354 C346 1.356 . S
N354 H360 0.984 . S
N354 H361 0.984 . S
N355 C348 1.356 . S
N355 H358 0.984 . S
N355 H359 0.985 . S
H356 N351 0.984 . S
H357 N351 0.985 . S
H358 N355 0.984 . S
H359 N355 0.985 . S
H360 N354 0.984 . S
H361 N354 0.984 . S
H362 N350 0.984 . S
H363 N350 0.985 . S
C364 C365 1.363 . S
C364 C370 1.379 . S
C364 N372 1.356 . S
C365 C364 1.363 . S
C365 C371 1.363 . S
C366 C367 1.363 . S
C366 C371 1.379 . S
C366 N373 1.356 . S
C367 C366 1.363 . S
C367 C370 1.363 . S
N368 C370 1.356 . S
N368 H380 0.984 . S
N368 H381 0.985 . S
N369 C371 1.356 . S
N369 H374 0.984 . S
N369 H375 0.985 . S
C370 C364 1.379 . S
C370 C367 1.363 . S
C370 N368 1.356 . S
C371 C365 1.363 . S
C371 C366 1.379 . S
C371 N369 1.356 . S
N372 C364 1.356 . S
N372 H378 0.984 . S
N372 H379 0.984 . S
N373 C366 1.356 . S
N373 H376 0.984 . S
N373 H377 0.985 . S
H374 N369 0.984 . S
H375 N369 0.985 . S
H376 N373 0.984 . S
H377 N373 0.985 . S
H378 N372 0.984 . S
H379 N372 0.984 . S
H380 N368 0.984 . S
H381 N368 0.985 . S
C382 C383 1.363 . S
C382 C388 1.379 . S
C382 N390 1.356 . S
C383 C382 1.363 . S
C383 C389 1.363 . S
C384 C385 1.363 . S
C384 C389 1.379 . S
C384 N391 1.356 . S
C385 C384 1.363 . S
C385 C388 1.363 . S
N386 C388 1.356 . S
N386 H398 0.984 . S
N386 H399 0.985 . S
N387 C389 1.356 . S
N387 H392 0.984 . S
N387 H393 0.985 . S
C388 C382 1.379 . S
C388 C385 1.363 . S
C388 N386 1.356 . S
C389 C383 1.363 . S
C389 C384 1.379 . S
C389 N387 1.356 . S
N390 C382 1.356 . S
N390 H396 0.984 . S
N390 H397 0.984 . S
N391 C384 1.356 . S
N391 H394 0.984 . S
N391 H395 0.985 . S
H392 N387 0.984 . S
H393 N387 0.985 . S
H394 N391 0.984 . S
H395 N391 0.985 . S
H396 N390 0.984 . S
H397 N390 0.984 . S
H398 N386 0.984 . S
H399 N386 0.985 . S
C400 C401 1.363 1_655 S
C400 C406 1.379 1_545 S
C400 N408 1.359 . S
C401 C400 1.363 1_455 S
C401 C407 1.363 . S
C402 C403 1.363 1_455 S
C402 C407 1.379 1_565 S
C402 N409 1.359 . S
C403 C402 1.363 1_655 S
C403 C406 1.363 . S
N404 C406 1.356 . S
N404 H416 0.984 . S
N404 H417 0.985 . S
N405 C407 1.356 . S
N405 H410 0.984 . S
N405 H411 0.985 . S
C406 C400 1.379 1_565 S
C406 C403 1.363 . S
C406 N404 1.356 . S
C407 C401 1.363 . S
C407 C402 1.379 1_545 S
C407 N405 1.356 . S
N408 C400 1.359 . S
N408 H414 0.998 . S
N408 H415 0.969 1_655 S
N409 C402 1.359 . S
N409 H412 0.969 1_455 S
N409 H413 0.998 . S
H410 N405 0.984 . S
H411 N405 0.985 . S
H412 N409 0.969 1_655 S
H413 N409 0.998 . S
H414 N408 0.998 . S
H415 N408 0.969 1_455 S
H416 N404 0.984 . S
H417 N404 0.985 . S
C418 C419 1.363 . S
C418 C424 1.379 1_455 S
C418 N426 1.356 . S
C419 C418 1.363 . S
C419 C425 1.363 1_565 S
C420 C421 1.363 . S
C420 C425 1.379 1_655 S
C420 N427 1.356 . S
C421 C420 1.363 . S
C421 C424 1.363 1_545 S
N422 C424 1.359 . S
N422 H434 0.998 . S
N422 H435 0.969 1_565 S
N423 C425 1.359 . S
N423 H428 0.969 1_545 S
N423 H429 0.998 . S
C424 C418 1.379 1_655 S
C424 C421 1.363 1_565 S
C424 N422 1.359 . S
C425 C419 1.363 1_545 S
C425 C420 1.379 1_455 S
C425 N423 1.359 . S
N426 C418 1.356 . S
N426 H432 0.984 . S
N426 H433 0.984 . S
N427 C420 1.356 . S
N427 H430 0.984 . S
N427 H431 0.985 . S
H428 N423 0.969 1_565 S
H429 N423 0.998 . S
H430 N427 0.984 . S
H431 N427 0.985 . S
H432 N426 0.984 . S
H433 N426 0.984 . S
H434 N422 0.998 . S
H435 N422 0.969 1_545 S
C436 C437 1.363 1_455 S
C436 C442 1.379 1_545 S
C436 N444 1.359 . S
C437 C436 1.363 1_655 S
C437 C443 1.363 . S
C438 C439 1.363 1_655 S
C438 C443 1.379 1_565 S
C438 N445 1.359 . S
C439 C438 1.363 1_455 S
C439 C442 1.363 . S
N440 C442 1.356 . S
N440 H452 0.984 . S
N440 H453 0.985 . S
N441 C443 1.356 . S
N441 H446 0.984 . S
N441 H447 0.985 . S
C442 C436 1.379 1_565 S
C442 C439 1.363 . S
C442 N440 1.356 . S
C443 C437 1.363 . S
C443 C438 1.379 1_545 S
C443 N441 1.356 . S
N444 C436 1.359 . S
N444 H450 0.998 . S
N444 H451 0.969 1_455 S
N445 C438 1.359 . S
N445 H448 0.969 1_655 S
N445 H449 0.998 . S
H446 N441 0.984 . S
H447 N441 0.985 . S
H448 N445 0.969 1_455 S
H449 N445 0.998 . S
H450 N444 0.998 . S
H451 N444 0.969 1_655 S
H452 N440 0.984 . S
H453 N440 0.985 . S
C454 C455 1.363 . S
C454 C460 1.379 1_655 S
C454 N462 1.356 . S
C455 C454 1.363 . S
C455 C461 1.363 1_565 S
C456 C457 1.363 . S
C456 C461 1.379 1_455 S
C456 N463 1.356 . S
C457 C456 1.363 . S
C457 C460 1.363 1_545 S
N458 C460 1.359 . S
N458 H470 0.998 . S
N458 H471 0.969 1_565 S
N459 C461 1.359 . S
N459 H464 0.969 1_545 S
N459 H465 0.998 . S
C460 C454 1.379 1_455 S
C460 C457 1.363 1_565 S
C460 N458 1.359 . S
C461 C455 1.363 1_545 S
C461 C456 1.379 1_655 S
C461 N459 1.359 . S
N462 C454 1.356 . S
N462 H468 0.984 . S
N462 H469 0.984 . S
N463 C456 1.356 . S
N463 H466 0.984 . S
N463 H467 0.985 . S
H464 N459 0.969 1_565 S
H465 N459 0.998 . S
H466 N463 0.984 . S
H467 N463 0.985 . S
H468 N462 0.984 . S
H469 N462 0.984 . S
H470 N458 0.998 . S
H471 N458 0.969 1_545 S
C185 N12 1.767 . S
C187 N58 1.767 . S
C203 N81 1.767 . S
C205 N35 1.767 . S
C221 N150 1.767 . S
C223 N104 1.767 . S
C239 N127 1.767 . S
C241 N173 1.767 . S
C257 C145 1.642 . S
C259 C7 1.642 . S
C275 C30 1.642 . S
C277 C168 1.642 . S
C293 C53 1.642 . S
C295 C99 1.642 . S
C311 C122 1.642 . S
C313 C76 1.642 . S
C329 C16 1.651 . S
C331 C131 1.651 . S
C347 C154 1.651 . S
C349 C39 1.651 . S
C365 C177 1.651 . S
C367 C62 1.651 . S
C383 C85 1.651 . S
C385 C108 1.651 . S
C401 N2 1.389 . S
C403 N48 1.389 . S
C419 N71 1.389 . S
C421 N25 1.389 . S
C437 N140 1.389 . S
C439 N94 1.389 . S
C455 N163 1.389 . S
C457 N117 1.389 . S
