# Generated by pormake.
# Topology umq, (4)-cn, num edge types: 1
# Building blocks:
#     Node 0, Type 0, BuildingBlock: CEKHIL_clean_sbu_0, # of connection points: 4
#     Node 1, Type 0, BuildingBlock: CEKHIL_clean_sbu_0, # of connection points: 4
#     Node 2, Type 0, BuildingBlock: CEKHIL_clean_sbu_0, # of connection points: 4
#     Node 3, Type 0, BuildingBlock: CEKHIL_clean_sbu_0, # of connection points: 4
#     Node 4, Type 0, BuildingBlock: CEKHIL_clean_sbu_0, # of connection points: 4
#     Node 5, Type 0, BuildingBlock: CEKHIL_clean_sbu_0, # of connection points: 4
#     Node 6, Type 0, BuildingBlock: CEKHIL_clean_sbu_0, # of connection points: 4
#     Node 7, Type 0, BuildingBlock: CEKHIL_clean_sbu_0, # of connection points: 4
#     Node 8, Type 0, BuildingBlock: CEKHIL_clean_sbu_0, # of connection points: 4
#     Node 9, Type 0, BuildingBlock: CEKHIL_clean_sbu_0, # of connection points: 4
#     Node 10, Type 0, BuildingBlock: CEKHIL_clean_sbu_0, # of connection points: 4
#     Node 11, Type 0, BuildingBlock: CEKHIL_clean_sbu_0, # of connection points: 4
#     Node 12, Type 0, BuildingBlock: CEKHIL_clean_sbu_0, # of connection points: 4
#     Node 13, Type 0, BuildingBlock: CEKHIL_clean_sbu_0, # of connection points: 4
#     Node 14, Type 0, BuildingBlock: CEKHIL_clean_sbu_0, # of connection points: 4
#     Node 15, Type 0, BuildingBlock: CEKHIL_clean_sbu_0, # of connection points: 4
#     Node 16, Type 0, BuildingBlock: CEKHIL_clean_sbu_0, # of connection points: 4
#     Node 17, Type 0, BuildingBlock: CEKHIL_clean_sbu_0, # of connection points: 4
#     Node 18, Type 0, BuildingBlock: CEKHIL_clean_sbu_0, # of connection points: 4
#     Node 19, Type 0, BuildingBlock: CEKHIL_clean_sbu_0, # of connection points: 4
#     Node 20, Type 0, BuildingBlock: CEKHIL_clean_sbu_0, # of connection points: 4
#     Node 21, Type 0, BuildingBlock: CEKHIL_clean_sbu_0, # of connection points: 4
#     Node 22, Type 0, BuildingBlock: CEKHIL_clean_sbu_0, # of connection points: 4
#     Node 23, Type 0, BuildingBlock: CEKHIL_clean_sbu_0, # of connection points: 4
#     Node 24, Type 0, BuildingBlock: CEKHIL_clean_sbu_0, # of connection points: 4
#     Node 25, Type 0, BuildingBlock: CEKHIL_clean_sbu_0, # of connection points: 4
#     Node 26, Type 0, BuildingBlock: CEKHIL_clean_sbu_0, # of connection points: 4
#     Node 27, Type 0, BuildingBlock: CEKHIL_clean_sbu_0, # of connection points: 4
#     Node 28, Type 0, BuildingBlock: CEKHIL_clean_sbu_0, # of connection points: 4
#     Node 29, Type 0, BuildingBlock: CEKHIL_clean_sbu_0, # of connection points: 4
#     Node 30, Type 0, BuildingBlock: CEKHIL_clean_sbu_0, # of connection points: 4
#     Node 31, Type 0, BuildingBlock: CEKHIL_clean_sbu_0, # of connection points: 4
#     Edge 32, Type (0, 0), BuildingBlock: TEMPAE_clean_linker_10, # of connection points: 2
#     Edge 33, Type (0, 0), BuildingBlock: TEMPAE_clean_linker_10, # of connection points: 2
#     Edge 34, Type (0, 0), BuildingBlock: TEMPAE_clean_linker_10, # of connection points: 2
#     Edge 35, Type (0, 0), BuildingBlock: TEMPAE_clean_linker_10, # of connection points: 2
#     Edge 36, Type (0, 0), BuildingBlock: TEMPAE_clean_linker_10, # of connection points: 2
#     Edge 37, Type (0, 0), BuildingBlock: TEMPAE_clean_linker_10, # of connection points: 2
#     Edge 38, Type (0, 0), BuildingBlock: TEMPAE_clean_linker_10, # of connection points: 2
#     Edge 39, Type (0, 0), BuildingBlock: TEMPAE_clean_linker_10, # of connection points: 2
#     Edge 40, Type (0, 0), BuildingBlock: TEMPAE_clean_linker_10, # of connection points: 2
#     Edge 41, Type (0, 0), BuildingBlock: TEMPAE_clean_linker_10, # of connection points: 2
#     Edge 42, Type (0, 0), BuildingBlock: TEMPAE_clean_linker_10, # of connection points: 2
#     Edge 43, Type (0, 0), BuildingBlock: TEMPAE_clean_linker_10, # of connection points: 2
#     Edge 44, Type (0, 0), BuildingBlock: TEMPAE_clean_linker_10, # of connection points: 2
#     Edge 45, Type (0, 0), BuildingBlock: TEMPAE_clean_linker_10, # of connection points: 2
#     Edge 46, Type (0, 0), BuildingBlock: TEMPAE_clean_linker_10, # of connection points: 2
#     Edge 47, Type (0, 0), BuildingBlock: TEMPAE_clean_linker_10, # of connection points: 2
#     Edge 48, Type (0, 0), BuildingBlock: TEMPAE_clean_linker_10, # of connection points: 2
#     Edge 49, Type (0, 0), BuildingBlock: TEMPAE_clean_linker_10, # of connection points: 2
#     Edge 50, Type (0, 0), BuildingBlock: TEMPAE_clean_linker_10, # of connection points: 2
#     Edge 51, Type (0, 0), BuildingBlock: TEMPAE_clean_linker_10, # of connection points: 2
#     Edge 52, Type (0, 0), BuildingBlock: TEMPAE_clean_linker_10, # of connection points: 2
#     Edge 53, Type (0, 0), BuildingBlock: TEMPAE_clean_linker_10, # of connection points: 2
#     Edge 54, Type (0, 0), BuildingBlock: TEMPAE_clean_linker_10, # of connection points: 2
#     Edge 55, Type (0, 0), BuildingBlock: TEMPAE_clean_linker_10, # of connection points: 2
#     Edge 56, Type (0, 0), BuildingBlock: TEMPAE_clean_linker_10, # of connection points: 2
#     Edge 57, Type (0, 0), BuildingBlock: TEMPAE_clean_linker_10, # of connection points: 2
#     Edge 58, Type (0, 0), BuildingBlock: TEMPAE_clean_linker_10, # of connection points: 2
#     Edge 59, Type (0, 0), BuildingBlock: TEMPAE_clean_linker_10, # of connection points: 2
#     Edge 60, Type (0, 0), BuildingBlock: TEMPAE_clean_linker_10, # of connection points: 2
#     Edge 61, Type (0, 0), BuildingBlock: TEMPAE_clean_linker_10, # of connection points: 2
#     Edge 62, Type (0, 0), BuildingBlock: TEMPAE_clean_linker_10, # of connection points: 2
#     Edge 63, Type (0, 0), BuildingBlock: TEMPAE_clean_linker_10, # of connection points: 2
#     Edge 64, Type (0, 0), BuildingBlock: TEMPAE_clean_linker_10, # of connection points: 2
#     Edge 65, Type (0, 0), BuildingBlock: TEMPAE_clean_linker_10, # of connection points: 2
#     Edge 66, Type (0, 0), BuildingBlock: TEMPAE_clean_linker_10, # of connection points: 2
#     Edge 67, Type (0, 0), BuildingBlock: TEMPAE_clean_linker_10, # of connection points: 2
#     Edge 68, Type (0, 0), BuildingBlock: TEMPAE_clean_linker_10, # of connection points: 2
#     Edge 69, Type (0, 0), BuildingBlock: TEMPAE_clean_linker_10, # of connection points: 2
#     Edge 70, Type (0, 0), BuildingBlock: TEMPAE_clean_linker_10, # of connection points: 2
#     Edge 71, Type (0, 0), BuildingBlock: TEMPAE_clean_linker_10, # of connection points: 2
#     Edge 72, Type (0, 0), BuildingBlock: TEMPAE_clean_linker_10, # of connection points: 2
#     Edge 73, Type (0, 0), BuildingBlock: TEMPAE_clean_linker_10, # of connection points: 2
#     Edge 74, Type (0, 0), BuildingBlock: TEMPAE_clean_linker_10, # of connection points: 2
#     Edge 75, Type (0, 0), BuildingBlock: TEMPAE_clean_linker_10, # of connection points: 2
#     Edge 76, Type (0, 0), BuildingBlock: TEMPAE_clean_linker_10, # of connection points: 2
#     Edge 77, Type (0, 0), BuildingBlock: TEMPAE_clean_linker_10, # of connection points: 2
#     Edge 78, Type (0, 0), BuildingBlock: TEMPAE_clean_linker_10, # of connection points: 2
#     Edge 79, Type (0, 0), BuildingBlock: TEMPAE_clean_linker_10, # of connection points: 2
#     Edge 80, Type (0, 0), BuildingBlock: TEMPAE_clean_linker_10, # of connection points: 2
#     Edge 81, Type (0, 0), BuildingBlock: TEMPAE_clean_linker_10, # of connection points: 2
#     Edge 82, Type (0, 0), BuildingBlock: TEMPAE_clean_linker_10, # of connection points: 2
#     Edge 83, Type (0, 0), BuildingBlock: TEMPAE_clean_linker_10, # of connection points: 2
#     Edge 84, Type (0, 0), BuildingBlock: TEMPAE_clean_linker_10, # of connection points: 2
#     Edge 85, Type (0, 0), BuildingBlock: TEMPAE_clean_linker_10, # of connection points: 2
#     Edge 86, Type (0, 0), BuildingBlock: TEMPAE_clean_linker_10, # of connection points: 2
#     Edge 87, Type (0, 0), BuildingBlock: TEMPAE_clean_linker_10, # of connection points: 2
#     Edge 88, Type (0, 0), BuildingBlock: TEMPAE_clean_linker_10, # of connection points: 2
#     Edge 89, Type (0, 0), BuildingBlock: TEMPAE_clean_linker_10, # of connection points: 2
#     Edge 90, Type (0, 0), BuildingBlock: TEMPAE_clean_linker_10, # of connection points: 2
#     Edge 91, Type (0, 0), BuildingBlock: TEMPAE_clean_linker_10, # of connection points: 2
#     Edge 92, Type (0, 0), BuildingBlock: TEMPAE_clean_linker_10, # of connection points: 2
#     Edge 93, Type (0, 0), BuildingBlock: TEMPAE_clean_linker_10, # of connection points: 2
#     Edge 94, Type (0, 0), BuildingBlock: TEMPAE_clean_linker_10, # of connection points: 2
#     Edge 95, Type (0, 0), BuildingBlock: TEMPAE_clean_linker_10, # of connection points: 2
# Relax obj value: 0.078
# Max RMSD: 0.062
# Mean RMSD: 0.062
data_MOF--net-umq--node1-CEKHIL_clean_sbu_0--edge1-TEMPAE_clean_linker_10
_symmetry_space_group_name_H-M    P1
_symmetry_Int_Tables_number       1
_symmetry_cell_setting            triclinic
loop_
_symmetry_equiv_pos_as_xyz
'x, y, z'
_cell_length_a     66.440836
_cell_length_b     66.44175
_cell_length_c     44.539494
_cell_angle_alpha  90.003218
_cell_angle_beta   89.990593
_cell_angle_gamma 89.995664
loop_
_atom_site_label
_atom_site_type_symbol
_atom_site_fract_x
_atom_site_fract_y
_atom_site_fract_z
_atom_type_partial_charge
Co0 Co 0.23955 0.09663 0.16558 0.0
O1 O 0.22562 0.07164 0.17325 0.0
O2 O 0.25049 0.08342 0.201 0.0
C3 C 0.24385 0.09144 0.11575 0.0
O4 O 0.25831 0.12108 0.16375 0.0
Co5 Co 0.22117 0.1286 0.12259 0.0
O6 O 0.24718 0.14273 0.12854 0.0
C7 C 0.20391 0.12314 0.18282 0.0
C8 C 0.23766 0.06902 0.19584 0.0
C9 C 0.26013 0.13731 0.14808 0.0
O10 O 0.21909 0.11215 0.19058 0.0
O11 O 0.2009 0.12912 0.15588 0.0
O12 O 0.25623 0.08346 0.13494 0.0
O13 O 0.22863 0.10068 0.12725 0.0
Co14 Co 0.91087 0.24239 0.16225 0.0
O15 O 0.93587 0.22875 0.171 0.0
O16 O 0.92328 0.25344 0.19829 0.0
C17 C 0.91729 0.2466 0.11279 0.0
O18 O 0.88621 0.26085 0.15947 0.0
Co19 Co 0.87988 0.22474 0.11717 0.0
O20 O 0.86891 0.2526 0.11785 0.0
C21 C 0.8834 0.20723 0.17799 0.0
C22 C 0.93794 0.24081 0.19368 0.0
C23 C 0.87249 0.26446 0.1397 0.0
O24 O 0.89503 0.22177 0.18634 0.0
O25 O 0.8774 0.20484 0.15089 0.0
O26 O 0.9245 0.25925 0.13225 0.0
O27 O 0.90778 0.23139 0.12377 0.0
Co28 Co 0.76551 0.90853 0.16603 0.0
O29 O 0.78147 0.93241 0.17384 0.0
O30 O 0.75601 0.92227 0.20181 0.0
C31 C 0.76115 0.91445 0.1163 0.0
O32 O 0.74459 0.88575 0.16478 0.0
Co33 Co 0.77873 0.87489 0.12151 0.0
O34 O 0.74995 0.86721 0.12331 0.0
C35 C 0.79621 0.87606 0.18277 0.0
C36 C 0.76969 0.93581 0.19656 0.0
C37 C 0.73909 0.87224 0.14563 0.0
O38 O 0.78487 0.89109 0.19022 0.0
O39 O 0.79653 0.8684 0.1564 0.0
O40 O 0.74994 0.92358 0.13593 0.0
O41 O 0.77537 0.90347 0.12723 0.0
Co42 Co 0.0956 0.76376 0.16338 0.0
O43 O 0.07071 0.77776 0.17158 0.0
O44 O 0.08262 0.75291 0.19918 0.0
C45 C 0.08962 0.75961 0.1138 0.0
O46 O 0.1201 0.74499 0.16101 0.0
Co47 Co 0.12714 0.78132 0.11905 0.0
O48 O 0.13812 0.75348 0.12017 0.0
C49 C 0.12311 0.79876 0.17975 0.0
C50 C 0.06821 0.76579 0.19425 0.0
C51 C 0.13416 0.74147 0.1417 0.0
O52 O 0.11145 0.78418 0.18784 0.0
O53 O 0.12928 0.80126 0.15277 0.0
O54 O 0.08205 0.74706 0.1331 0.0
O55 O 0.09915 0.77473 0.12498 0.0
Co56 Co 0.24149 0.9085 0.33868 0.0
O57 O 0.22698 0.93331 0.33182 0.0
O58 O 0.25171 0.92214 0.30321 0.0
C59 C 0.24658 0.9131 0.38845 0.0
O60 O 0.26071 0.88437 0.33954 0.0
Co61 Co 0.22377 0.87573 0.38132 0.0
O62 O 0.24962 0.86175 0.37348 0.0
C63 C 0.20597 0.88167 0.32165 0.0
C64 C 0.23872 0.93629 0.30896 0.0
C65 C 0.2625 0.86772 0.35421 0.0
O66 O 0.22107 0.89277 0.31388 0.0
O67 O 0.20314 0.87551 0.34854 0.0
O68 O 0.25817 0.92197 0.36905 0.0
O69 O 0.23138 0.90364 0.37728 0.0
Co70 Co 0.09613 0.24248 0.34283 0.0
O71 O 0.07095 0.22903 0.3346 0.0
O72 O 0.08321 0.25398 0.30751 0.0
C73 C 0.09071 0.24628 0.39262 0.0
O74 O 0.12088 0.26085 0.34536 0.0
Co75 Co 0.12759 0.22324 0.38569 0.0
O76 O 0.14216 0.24909 0.38061 0.0
C77 C 0.12202 0.20652 0.32515 0.0
C78 C 0.06861 0.24129 0.31222 0.0
C79 C 0.13704 0.26231 0.3613 0.0
O80 O 0.11139 0.22199 0.31754 0.0
O81 O 0.12782 0.2032 0.35209 0.0
O82 O 0.08313 0.25908 0.37371 0.0
O83 O 0.09977 0.23103 0.38092 0.0
Co84 Co 0.76442 0.09762 0.33646 0.0
O85 O 0.77938 0.07301 0.32998 0.0
O86 O 0.75451 0.08349 0.30113 0.0
C87 C 0.75943 0.09328 0.38634 0.0
O88 O 0.74482 0.12154 0.33699 0.0
Co89 Co 0.78176 0.1309 0.37865 0.0
O90 O 0.75579 0.14456 0.37045 0.0
C91 C 0.79968 0.12464 0.31916 0.0
C92 C 0.76779 0.06965 0.30708 0.0
C93 C 0.74291 0.13832 0.35135 0.0
O94 O 0.78461 0.11349 0.31147 0.0
O95 O 0.8025 0.13091 0.34599 0.0
O96 O 0.74797 0.08408 0.36711 0.0
O97 O 0.77445 0.1029 0.37496 0.0
Co98 Co 0.91066 0.76411 0.34438 0.0
O99 O 0.93493 0.77887 0.33485 0.0
O100 O 0.92267 0.75414 0.30736 0.0
C101 C 0.91866 0.75941 0.39322 0.0
O102 O 0.88685 0.74449 0.34752 0.0
Co103 Co 0.87999 0.77856 0.39232 0.0
O104 O 0.87088 0.75013 0.39118 0.0
C105 C 0.87933 0.79658 0.33118 0.0
C106 C 0.93703 0.76713 0.31179 0.0
C107 C 0.87413 0.73935 0.36804 0.0
O108 O 0.89334 0.78452 0.32202 0.0
O109 O 0.87309 0.7971 0.35839 0.0
O110 O 0.92576 0.74735 0.37288 0.0
O111 O 0.90807 0.77428 0.38352 0.0
Co112 Co 0.76503 0.91097 0.8417 0.0
O113 O 0.77869 0.93594 0.83297 0.0
O114 O 0.75375 0.92357 0.80596 0.0
C115 C 0.76105 0.91707 0.89129 0.0
O116 O 0.74649 0.88638 0.84475 0.0
Co117 Co 0.78395 0.87996 0.88552 0.0
O118 O 0.75802 0.86549 0.88067 0.0
C119 C 0.80078 0.88447 0.82484 0.0
C120 C 0.7665 0.93814 0.81047 0.0
C121 C 0.7449 0.87043 0.86112 0.0
O122 O 0.78548 0.89525 0.81694 0.0
O123 O 0.80399 0.87894 0.85194 0.0
O124 O 0.74838 0.92447 0.87203 0.0
O125 O 0.7763 0.90777 0.88001 0.0
Co126 Co 0.09888 0.76481 0.83888 0.0
O127 O 0.07402 0.77927 0.83216 0.0
O128 O 0.08511 0.7545 0.80357 0.0
C129 C 0.09449 0.75986 0.88877 0.0
O130 O 0.12306 0.74562 0.83962 0.0
Co131 Co 0.1318 0.78267 0.88109 0.0
O132 O 0.14572 0.75675 0.87347 0.0
C133 C 0.1255 0.80037 0.82148 0.0
C134 C 0.07097 0.76751 0.80935 0.0
C135 C 0.13973 0.74384 0.85425 0.0
O136 O 0.11447 0.7852 0.81384 0.0
O137 O 0.13174 0.80329 0.8483 0.0
O138 O 0.08558 0.74819 0.86951 0.0
O139 O 0.10387 0.77504 0.87737 0.0
Co140 Co 0.24547 0.09729 0.84104 0.0
O141 O 0.23101 0.0725 0.83361 0.0
O142 O 0.25589 0.08384 0.8055 0.0
C143 C 0.25014 0.09236 0.89077 0.0
O144 O 0.26475 0.12144 0.84251 0.0
Co145 Co 0.22766 0.12987 0.88404 0.0
O146 O 0.25346 0.14397 0.87644 0.0
C147 C 0.20981 0.12389 0.82439 0.0
C148 C 0.24288 0.06965 0.81087 0.0
C149 C 0.26649 0.13806 0.85734 0.0
O150 O 0.2251 0.11315 0.81632 0.0
O151 O 0.20693 0.12977 0.85141 0.0
O152 O 0.26193 0.0836 0.87152 0.0
O153 O 0.23509 0.10195 0.8795 0.0
Co154 Co 0.90853 0.24261 0.8379 0.0
O155 O 0.93321 0.22785 0.83116 0.0
O156 O 0.92245 0.25278 0.80262 0.0
C157 C 0.91298 0.24747 0.88779 0.0
O158 O 0.88458 0.26209 0.83871 0.0
Co159 Co 0.87542 0.22509 0.88012 0.0
O160 O 0.86197 0.25129 0.87285 0.0
C161 C 0.88145 0.2074 0.8204 0.0
C162 C 0.93643 0.23961 0.8084 0.0
C163 C 0.86802 0.26413 0.85357 0.0
O164 O 0.89269 0.22243 0.81282 0.0
O165 O 0.87515 0.20453 0.84721 0.0
O166 O 0.92204 0.25904 0.86855 0.0
O167 O 0.90342 0.23242 0.87638 0.0
Co168 Co 0.76489 0.09607 0.66113 0.0
O169 O 0.77887 0.07125 0.6698 0.0
O170 O 0.7538 0.08334 0.69685 0.0
C171 C 0.76107 0.08987 0.61151 0.0
O172 O 0.74601 0.12039 0.6584 0.0
Co173 Co 0.78229 0.12763 0.61675 0.0
O174 O 0.75427 0.13821 0.61729 0.0
C175 C 0.79954 0.12399 0.67769 0.0
C176 C 0.76667 0.06889 0.69227 0.0
C177 C 0.74229 0.13422 0.63886 0.0
O178 O 0.7851 0.11212 0.68571 0.0
O179 O 0.802 0.13017 0.6507 0.0
O180 O 0.74845 0.08232 0.63074 0.0
O181 O 0.77605 0.09956 0.62282 0.0
Co182 Co 0.91006 0.76465 0.66751 0.0
O183 O 0.93483 0.77924 0.67445 0.0
O184 O 0.92363 0.75456 0.70312 0.0
C185 C 0.91483 0.75944 0.61775 0.0
O186 O 0.88599 0.74535 0.66664 0.0
Co187 Co 0.87736 0.78203 0.62452 0.0
O188 O 0.86373 0.75593 0.63186 0.0
C189 C 0.88311 0.80019 0.68399 0.0
C190 C 0.93777 0.76756 0.6974 0.0
C191 C 0.86956 0.74324 0.65151 0.0
O192 O 0.89422 0.78515 0.69204 0.0
O193 O 0.87701 0.80284 0.65704 0.0
O194 O 0.92364 0.7479 0.63729 0.0
O195 O 0.90531 0.77464 0.62882 0.0
Co196 Co 0.24301 0.91089 0.66307 0.0
O197 O 0.22927 0.93584 0.67182 0.0
O198 O 0.2542 0.92353 0.69887 0.0
C199 C 0.24688 0.91711 0.61349 0.0
O200 O 0.2616 0.88629 0.66018 0.0
Co201 Co 0.22499 0.87969 0.61861 0.0
O202 O 0.25259 0.86815 0.61973 0.0
C203 C 0.20782 0.88364 0.6795 0.0
C204 C 0.24141 0.93808 0.69435 0.0
C205 C 0.26481 0.87206 0.64102 0.0
O206 O 0.2226 0.89507 0.6876 0.0
O207 O 0.20515 0.87768 0.65244 0.0
O208 O 0.25961 0.92448 0.63269 0.0
O209 O 0.23178 0.90761 0.6248 0.0
Co210 Co 0.09779 0.24124 0.66758 0.0
O211 O 0.07307 0.22661 0.67472 0.0
O212 O 0.08415 0.25153 0.70302 0.0
C213 C 0.09308 0.24606 0.61778 0.0
O214 O 0.1218 0.26062 0.66643 0.0
Co215 Co 0.13061 0.22366 0.62479 0.0
O216 O 0.14416 0.24983 0.63192 0.0
C217 C 0.12483 0.20591 0.68454 0.0
C218 C 0.07005 0.23846 0.69746 0.0
C219 C 0.13827 0.26265 0.65133 0.0
O220 O 0.11372 0.22098 0.69241 0.0
O221 O 0.1309 0.20307 0.65761 0.0
O222 O 0.08415 0.2577 0.63707 0.0
O223 O 0.10266 0.231 0.6291 0.0
Co224 Co 0.74021 0.59786 0.66676 0.0
O225 O 0.72364 0.57439 0.67433 0.0
O226 O 0.74891 0.58412 0.703 0.0
C227 C 0.74516 0.5916 0.61725 0.0
O228 O 0.76159 0.62023 0.66578 0.0
Co229 Co 0.72798 0.63142 0.62144 0.0
O230 O 0.75684 0.63874 0.62411 0.0
C231 C 0.70955 0.63068 0.68207 0.0
C232 C 0.73499 0.57086 0.69747 0.0
C233 C 0.76744 0.6336 0.64664 0.0
O234 O 0.72088 0.61581 0.69016 0.0
O235 O 0.70945 0.63795 0.65544 0.0
O236 O 0.7559 0.58233 0.63731 0.0
O237 O 0.73099 0.60287 0.62765 0.0
Co238 Co 0.41133 0.74375 0.66544 0.0
O239 O 0.43639 0.72998 0.67326 0.0
O240 O 0.42455 0.7549 0.70081 0.0
C241 C 0.41664 0.74773 0.61566 0.0
O242 O 0.38671 0.76235 0.66331 0.0
Co243 Co 0.3796 0.72484 0.62272 0.0
O244 O 0.36475 0.75041 0.62908 0.0
C245 C 0.38518 0.70796 0.68309 0.0
C246 C 0.43899 0.74207 0.69577 0.0
C247 C 0.37023 0.76366 0.64809 0.0
O248 O 0.39595 0.72333 0.69068 0.0
O249 O 0.37933 0.7047 0.65616 0.0
O250 O 0.42439 0.76038 0.63465 0.0
O251 O 0.40749 0.73251 0.62724 0.0
Co252 Co 0.26665 0.40887 0.66666 0.0
O253 O 0.28278 0.43265 0.67432 0.0
O254 O 0.25744 0.42258 0.70262 0.0
C255 C 0.26201 0.41484 0.61699 0.0
O256 O 0.24564 0.38617 0.66559 0.0
Co257 Co 0.27947 0.3752 0.62202 0.0
O258 O 0.25054 0.36805 0.6236 0.0
C259 C 0.29726 0.37624 0.68306 0.0
C260 C 0.27119 0.43604 0.69727 0.0
C261 C 0.23986 0.37295 0.64619 0.0
O262 O 0.28608 0.39135 0.69058 0.0
O263 O 0.29737 0.36851 0.65673 0.0
O264 O 0.25095 0.42399 0.63681 0.0
O265 O 0.27627 0.40382 0.62773 0.0
Co266 Co 0.59717 0.26436 0.65801 0.0
O267 O 0.57278 0.27929 0.66613 0.0
O268 O 0.58475 0.25519 0.69515 0.0
C269 C 0.59027 0.25819 0.6092 0.0
O270 O 0.62112 0.24479 0.65629 0.0
Co271 Co 0.6283 0.27967 0.61076 0.0
O272 O 0.64214 0.25388 0.61891 0.0
C273 C 0.62742 0.29805 0.67122 0.0
C274 C 0.57049 0.26813 0.68978 0.0
C275 C 0.63697 0.24202 0.64003 0.0
O276 O 0.61405 0.28524 0.68019 0.0
O277 O 0.63364 0.29909 0.64407 0.0
O278 O 0.5824 0.24697 0.62997 0.0
O279 O 0.6004 0.27352 0.61843 0.0
Co280 Co 0.73918 0.40996 0.83847 0.0
O281 O 0.72294 0.43366 0.83096 0.0
O282 O 0.74836 0.42386 0.80263 0.0
C283 C 0.74373 0.41576 0.88818 0.0
O284 O 0.76028 0.38732 0.83955 0.0
Co285 Co 0.72627 0.37618 0.88294 0.0
O286 O 0.75521 0.36905 0.88137 0.0
C287 C 0.70853 0.37742 0.8219 0.0
C288 C 0.73451 0.4372 0.80806 0.0
C289 C 0.76599 0.37404 0.85892 0.0
O290 O 0.71987 0.39242 0.8144 0.0
O291 O 0.70825 0.36978 0.84829 0.0
O292 O 0.75479 0.42504 0.86849 0.0
O293 O 0.72951 0.40477 0.87728 0.0
Co294 Co 0.59683 0.7438 0.84502 0.0
O295 O 0.5725 0.72907 0.83575 0.0
O296 O 0.58464 0.75385 0.80821 0.0
C297 C 0.58914 0.74841 0.89395 0.0
O298 O 0.62067 0.7634 0.84788 0.0
Co299 Co 0.62787 0.72929 0.89235 0.0
O300 O 0.63692 0.75773 0.89128 0.0
C301 C 0.62827 0.71161 0.83103 0.0
C302 C 0.57032 0.74084 0.81274 0.0
C303 C 0.63352 0.76853 0.86821 0.0
O304 O 0.61396 0.72345 0.82232 0.0
O305 O 0.63495 0.71116 0.858 0.0
O306 O 0.58189 0.7605 0.87376 0.0
O307 O 0.59969 0.73356 0.88409 0.0
Co308 Co 0.26715 0.59659 0.83982 0.0
O309 O 0.28258 0.57235 0.8326 0.0
O310 O 0.25754 0.58283 0.80407 0.0
C311 C 0.26229 0.59136 0.88958 0.0
O312 O 0.247 0.62001 0.84081 0.0
Co313 Co 0.28262 0.62988 0.88351 0.0
O314 O 0.25448 0.63976 0.88036 0.0
C315 C 0.30127 0.62533 0.82383 0.0
C316 C 0.271 0.5691 0.80963 0.0
C317 C 0.2428 0.63451 0.85905 0.0
O318 O 0.28706 0.61326 0.81556 0.0
O319 O 0.30322 0.63182 0.85074 0.0
O320 O 0.25098 0.58225 0.87005 0.0
O321 O 0.27699 0.60161 0.8785 0.0
Co322 Co 0.41396 0.26492 0.84157 0.0
O323 O 0.43794 0.28017 0.83219 0.0
O324 O 0.42582 0.25568 0.80406 0.0
C325 C 0.42232 0.25956 0.89011 0.0
O326 O 0.39046 0.24494 0.8444 0.0
Co327 Co 0.38341 0.27835 0.89032 0.0
O328 O 0.37453 0.24987 0.88828 0.0
C329 C 0.38213 0.29717 0.82977 0.0
C330 C 0.44001 0.26883 0.80869 0.0
C331 C 0.37784 0.23941 0.86482 0.0
O332 O 0.39622 0.28538 0.82011 0.0
O333 O 0.37605 0.29727 0.85707 0.0
O334 O 0.42948 0.24793 0.86926 0.0
O335 O 0.41149 0.27445 0.88108 0.0
Co336 Co 0.2639 0.41009 0.34313 0.0
O337 O 0.27856 0.43444 0.33375 0.0
O338 O 0.25345 0.42249 0.30672 0.0
C339 C 0.25986 0.41761 0.39227 0.0
O340 O 0.24428 0.38627 0.34624 0.0
Co341 Co 0.27887 0.37879 0.38957 0.0
O342 O 0.25036 0.36996 0.38946 0.0
C343 C 0.29554 0.37836 0.32765 0.0
C344 C 0.26653 0.43677 0.31108 0.0
C345 C 0.23931 0.37343 0.36668 0.0
O346 O 0.28393 0.39303 0.31964 0.0
O347 O 0.29615 0.37131 0.35441 0.0
O348 O 0.24755 0.4249 0.37242 0.0
O349 O 0.2746 0.40707 0.38195 0.0
Co350 Co 0.59577 0.26576 0.33483 0.0
O351 O 0.57136 0.28075 0.32727 0.0
O352 O 0.58209 0.25556 0.29927 0.0
C353 C 0.59024 0.2616 0.38467 0.0
O354 O 0.61953 0.24602 0.33648 0.0
Co355 Co 0.6285 0.2819 0.37878 0.0
O356 O 0.63828 0.25365 0.37701 0.0
C357 C 0.62422 0.29999 0.31851 0.0
C358 C 0.56819 0.2689 0.30463 0.0
C359 C 0.63363 0.2419 0.35546 0.0
O360 O 0.61219 0.28572 0.31029 0.0
O361 O 0.63062 0.30209 0.34544 0.0
O362 O 0.58173 0.24963 0.36539 0.0
O363 O 0.6003 0.27626 0.37317 0.0
Co364 Co 0.74415 0.59528 0.34279 0.0
O365 O 0.73077 0.57015 0.33422 0.0
O366 O 0.75568 0.58262 0.30726 0.0
C367 C 0.74795 0.58936 0.39246 0.0
O368 O 0.76244 0.62008 0.34572 0.0
Co369 Co 0.72482 0.62629 0.38621 0.0
O370 O 0.75056 0.64107 0.38126 0.0
C371 C 0.70815 0.62128 0.32553 0.0
C372 C 0.74306 0.56794 0.31186 0.0
C373 C 0.7638 0.63616 0.36186 0.0
O374 O 0.72362 0.61069 0.31776 0.0
O375 O 0.70482 0.62686 0.35257 0.0
O376 O 0.76081 0.58205 0.37338 0.0
O377 O 0.73269 0.59852 0.38096 0.0
Co378 Co 0.40961 0.74044 0.3409 0.0
O379 O 0.43401 0.72529 0.33361 0.0
O380 O 0.42319 0.75023 0.30514 0.0
C381 C 0.41488 0.74537 0.39061 0.0
O382 O 0.38601 0.76032 0.34197 0.0
Co383 Co 0.37655 0.72467 0.38469 0.0
O384 O 0.36654 0.75278 0.38179 0.0
C385 C 0.3811 0.7061 0.32494 0.0
C386 C 0.43709 0.73695 0.31068 0.0
C387 C 0.37159 0.76446 0.36038 0.0
O388 O 0.39312 0.72035 0.31668 0.0
O389 O 0.37461 0.70412 0.35185 0.0
O390 O 0.42382 0.75677 0.37102 0.0
O391 O 0.40478 0.73054 0.3796 0.0
Co392 Co 0.26358 0.59615 0.16469 0.0
O393 O 0.27731 0.57109 0.1726 0.0
O394 O 0.25221 0.58285 0.19986 0.0
C395 C 0.25992 0.59089 0.11481 0.0
O396 O 0.245 0.62079 0.1624 0.0
Co397 Co 0.28277 0.62793 0.12236 0.0
O398 O 0.25709 0.64268 0.12822 0.0
C399 C 0.29924 0.6223 0.18297 0.0
C400 C 0.26509 0.56843 0.19493 0.0
C401 C 0.24374 0.63725 0.14713 0.0
O402 O 0.28383 0.61149 0.19028 0.0
O403 O 0.30268 0.62821 0.15613 0.0
O404 O 0.24715 0.58313 0.13363 0.0
O405 O 0.27506 0.60004 0.12665 0.0
Co406 Co 0.40739 0.26491 0.16314 0.0
O407 O 0.43131 0.2807 0.17099 0.0
O408 O 0.4206 0.25583 0.19965 0.0
C409 C 0.41404 0.25967 0.11379 0.0
O410 O 0.38428 0.24435 0.16172 0.0
Co411 Co 0.37479 0.27818 0.11704 0.0
O412 O 0.36676 0.24949 0.1192 0.0
C413 C 0.37551 0.29677 0.17764 0.0
C414 C 0.43437 0.26926 0.19417 0.0
C415 C 0.3711 0.23883 0.14207 0.0
O416 O 0.38987 0.28489 0.18613 0.0
O417 O 0.3686 0.29708 0.15081 0.0
O418 O 0.42262 0.24861 0.13414 0.0
O419 O 0.40316 0.27425 0.12388 0.0
Co420 Co 0.74388 0.41005 0.1624 0.0
O421 O 0.73063 0.43521 0.17117 0.0
O422 O 0.75528 0.42239 0.19828 0.0
C423 C 0.74809 0.41626 0.11294 0.0
O424 O 0.76196 0.38511 0.15932 0.0
Co425 Co 0.72449 0.37955 0.11824 0.0
O426 O 0.74998 0.36439 0.12349 0.0
C427 C 0.70766 0.3841 0.17889 0.0
C428 C 0.74279 0.43719 0.19372 0.0
C429 C 0.76318 0.36908 0.14307 0.0
O430 O 0.72311 0.39462 0.18693 0.0
O431 O 0.70439 0.37873 0.15174 0.0
O432 O 0.76086 0.42335 0.1323 0.0
O433 O 0.73264 0.4072 0.12401 0.0
Co434 Co 0.59773 0.73983 0.1682 0.0
O435 O 0.57304 0.72515 0.17522 0.0
O436 O 0.58418 0.74985 0.20389 0.0
C437 C 0.59287 0.74505 0.11845 0.0
O438 O 0.62172 0.75923 0.1672 0.0
Co439 Co 0.63041 0.72259 0.12505 0.0
O440 O 0.64389 0.7488 0.13217 0.0
C441 C 0.62489 0.70442 0.18456 0.0
C442 C 0.57009 0.73679 0.19821 0.0
C443 C 0.63806 0.76146 0.15188 0.0
O444 O 0.6137 0.71939 0.19264 0.0
O445 O 0.63097 0.7018 0.15759 0.0
O446 O 0.58408 0.75656 0.13806 0.0
O447 O 0.60244 0.72987 0.12948 0.0
C448 C 0.35261 0.20912 0.12198 0.0
C449 C 0.35901 0.22035 0.14686 0.0
C450 C 0.33842 0.1936 0.12503 0.0
C451 C 0.32997 0.18951 0.15359 0.0
C452 C 0.33718 0.20008 0.17909 0.0
C453 C 0.35181 0.21526 0.17546 0.0
C454 C 0.33158 0.18244 0.09732 0.0
C455 C 0.32843 0.19639 0.20986 0.0
C456 C 0.27589 0.17139 0.14829 0.0
C457 C 0.27785 0.15058 0.15266 0.0
C458 C 0.29259 0.18426 0.15013 0.0
C459 C 0.31193 0.17612 0.15578 0.0
C460 C 0.31397 0.15517 0.16104 0.0
C461 C 0.29684 0.14265 0.15975 0.0
C462 C 0.28959 0.20653 0.14502 0.0
C463 C 0.33433 0.14584 0.16661 0.0
H464 H 0.35828 0.2129 0.09986 0.0
H465 H 0.35661 0.22401 0.19472 0.0
H466 H 0.33133 0.16599 0.10153 0.0
H467 H 0.31602 0.18711 0.09151 0.0
H468 H 0.34144 0.18548 0.07769 0.0
H469 H 0.33746 0.20368 0.22782 0.0
H470 H 0.31291 0.20254 0.21073 0.0
H471 H 0.32743 0.18003 0.21458 0.0
H472 H 0.26122 0.17765 0.14316 0.0
H473 H 0.29845 0.12656 0.16301 0.0
H474 H 0.29699 0.21107 0.12374 0.0
H475 H 0.29667 0.21529 0.16341 0.0
H476 H 0.27341 0.21069 0.14369 0.0
H477 H 0.34355 0.14689 0.14589 0.0
H478 H 0.33318 0.12976 0.1732 0.0
H479 H 0.34246 0.15415 0.18448 0.0
C480 C 0.85254 0.28862 0.17123 0.0
C481 C 0.85944 0.28244 0.14294 0.0
C482 C 0.83801 0.30397 0.17397 0.0
C483 C 0.83066 0.31372 0.14784 0.0
C484 C 0.83858 0.30833 0.11941 0.0
C485 C 0.85261 0.29258 0.11728 0.0
C486 C 0.82968 0.30891 0.20462 0.0
C487 C 0.83162 0.31864 0.09104 0.0
C488 C 0.77736 0.33432 0.14371 0.0
C489 C 0.78038 0.35509 0.14714 0.0
C490 C 0.79348 0.32071 0.14533 0.0
C491 C 0.8133 0.32802 0.14964 0.0
C492 C 0.81643 0.34897 0.15371 0.0
C493 C 0.79987 0.36225 0.15281 0.0
C494 C 0.78932 0.2985 0.14165 0.0
C495 C 0.83733 0.35744 0.15768 0.0
H496 H 0.85769 0.28073 0.1911 0.0
H497 H 0.85809 0.28798 0.09539 0.0
H498 H 0.82984 0.3254 0.20847 0.0
H499 H 0.81377 0.30391 0.20593 0.0
H500 H 0.83828 0.30146 0.22289 0.0
H501 H 0.84096 0.31444 0.07131 0.0
H502 H 0.81578 0.31444 0.0863 0.0
H503 H 0.83213 0.33523 0.09382 0.0
H504 H 0.76229 0.32869 0.13963 0.0
H505 H 0.80228 0.3783 0.15528 0.0
H506 H 0.79634 0.28989 0.16025 0.0
H507 H 0.79609 0.29305 0.12038 0.0
H508 H 0.77295 0.29511 0.14122 0.0
H509 H 0.84529 0.34952 0.1761 0.0
H510 H 0.83713 0.37382 0.16267 0.0
H511 H 0.84616 0.35496 0.13685 0.0
C512 C 0.67191 0.77752 0.15343 0.0
C513 C 0.65102 0.77931 0.15701 0.0
C514 C 0.68457 0.79436 0.15531 0.0
C515 C 0.67614 0.81366 0.16022 0.0
C516 C 0.6551 0.81552 0.16484 0.0
C517 C 0.64278 0.79825 0.1635 0.0
C518 C 0.70694 0.79154 0.15088 0.0
C519 C 0.64548 0.83584 0.16967 0.0
C520 C 0.71501 0.85386 0.1793 0.0
C521 C 0.72039 0.86053 0.15054 0.0
C522 C 0.69971 0.83939 0.18317 0.0
C523 C 0.68935 0.8318 0.15773 0.0
C524 C 0.69369 0.8398 0.12897 0.0
C525 C 0.7093 0.85385 0.12569 0.0
C526 C 0.69574 0.83114 0.21416 0.0
C527 C 0.68276 0.83253 0.10128 0.0
H528 H 0.6784 0.76287 0.14878 0.0
H529 H 0.62663 0.79971 0.16614 0.0
H530 H 0.71164 0.79868 0.12947 0.0
H531 H 0.7154 0.79899 0.16924 0.0
H532 H 0.71129 0.7754 0.15018 0.0
H533 H 0.62941 0.83456 0.17626 0.0
H534 H 0.65365 0.84438 0.18725 0.0
H535 H 0.64642 0.84471 0.14862 0.0
H536 H 0.72365 0.85889 0.19853 0.0
H537 H 0.71332 0.85912 0.10344 0.0
H538 H 0.70208 0.81572 0.21581 0.0
H539 H 0.67934 0.83001 0.21849 0.0
H540 H 0.7027 0.84058 0.23194 0.0
H541 H 0.68757 0.81693 0.09599 0.0
H542 H 0.68589 0.84216 0.08143 0.0
H543 H 0.66628 0.83223 0.10524 0.0
C544 C 0.20664 0.64341 0.15384 0.0
C545 C 0.22631 0.65089 0.15153 0.0
C546 C 0.18997 0.65657 0.15441 0.0
C547 C 0.19314 0.67769 0.15348 0.0
C548 C 0.21308 0.68523 0.15277 0.0
C549 C 0.22934 0.67177 0.15135 0.0
C550 C 0.169 0.64788 0.15449 0.0
C551 C 0.21726 0.70758 0.15252 0.0
C552 C 0.15569 0.71446 0.11949 0.0
C553 C 0.14714 0.72339 0.14504 0.0
C554 C 0.16973 0.69874 0.12198 0.0
C555 C 0.17583 0.69202 0.15076 0.0
C556 C 0.1667 0.70046 0.17666 0.0
C557 C 0.15228 0.7159 0.17347 0.0
C558 C 0.17867 0.68992 0.09371 0.0
C559 C 0.17297 0.69401 0.20776 0.0
H560 H 0.20424 0.62727 0.15376 0.0
H561 H 0.24455 0.67762 0.14983 0.0
H562 H 0.15978 0.65493 0.1724 0.0
H563 H 0.16156 0.65125 0.13275 0.0
H564 H 0.16904 0.63132 0.15785 0.0
H565 H 0.23354 0.71098 0.15499 0.0
H566 H 0.21192 0.71418 0.13108 0.0
H567 H 0.20894 0.71512 0.17097 0.0
H568 H 0.1516 0.72001 0.09742 0.0
H569 H 0.14581 0.7228 0.1933 0.0
H570 H 0.1781 0.67323 0.09451 0.0
H571 H 0.19473 0.69433 0.09191 0.0
H572 H 0.17072 0.69512 0.07319 0.0
H573 H 0.17279 0.67737 0.20968 0.0
H574 H 0.16307 0.70044 0.22542 0.0
H575 H 0.18864 0.69904 0.21204 0.0
C576 C 0.2995 0.86239 0.34526 0.0
C577 C 0.28008 0.85449 0.34877 0.0
C578 C 0.31642 0.84959 0.34415 0.0
C579 C 0.31372 0.82844 0.34589 0.0
C580 C 0.29398 0.82046 0.34756 0.0
C581 C 0.27748 0.83356 0.34938 0.0
C582 C 0.33719 0.85872 0.34285 0.0
C583 C 0.29029 0.79804 0.34877 0.0
C584 C 0.35434 0.78982 0.32737 0.0
C585 C 0.35944 0.78296 0.35615 0.0
C586 C 0.34017 0.80541 0.32351 0.0
C587 C 0.33128 0.81455 0.34905 0.0
C588 C 0.33755 0.80858 0.37812 0.0
C589 C 0.35132 0.79273 0.38129 0.0
C590 C 0.33374 0.81111 0.29216 0.0
C591 C 0.32886 0.81818 0.406 0.0
H592 H 0.30155 0.87858 0.34494 0.0
H593 H 0.26245 0.82739 0.35175 0.0
H594 H 0.34483 0.85647 0.36475 0.0
H595 H 0.34646 0.85115 0.32549 0.0
H596 H 0.33671 0.87511 0.33796 0.0
H597 H 0.27406 0.79424 0.34678 0.0
H598 H 0.29861 0.79033 0.33047 0.0
H599 H 0.29595 0.79195 0.37038 0.0
H600 H 0.36051 0.78225 0.30787 0.0
H601 H 0.35542 0.78762 0.4036 0.0
H602 H 0.33333 0.82771 0.28955 0.0
H603 H 0.31828 0.80543 0.28803 0.0
H604 H 0.3439 0.8047 0.27481 0.0
H605 H 0.32924 0.83483 0.4041 0.0
H606 H 0.33711 0.81367 0.42662 0.0
H607 H 0.31287 0.81365 0.40852 0.0
C608 C 0.21049 0.35404 0.38807 0.0
C609 C 0.22114 0.36071 0.36277 0.0
C610 C 0.195 0.33976 0.38552 0.0
C611 C 0.19034 0.33147 0.35705 0.0
C612 C 0.20046 0.33879 0.33121 0.0
C613 C 0.21559 0.35351 0.33434 0.0
C614 C 0.18431 0.33281 0.41359 0.0
C615 C 0.19624 0.33016 0.30052 0.0
C616 C 0.17136 0.27758 0.36144 0.0
C617 C 0.15056 0.27991 0.35732 0.0
C618 C 0.18447 0.29412 0.35998 0.0
C619 C 0.17661 0.31366 0.35505 0.0
C620 C 0.15565 0.31609 0.35023 0.0
C621 C 0.14288 0.29913 0.35106 0.0
C622 C 0.20674 0.29069 0.36454 0.0
C623 C 0.1466 0.33667 0.34551 0.0
H624 H 0.2146 0.35971 0.41007 0.0
H625 H 0.22388 0.35851 0.31474 0.0
H626 H 0.16778 0.33279 0.41008 0.0
H627 H 0.18889 0.31715 0.41891 0.0
H628 H 0.18784 0.34247 0.43326 0.0
H629 H 0.20359 0.33898 0.28238 0.0
H630 H 0.2019 0.31446 0.29951 0.0
H631 H 0.17981 0.32964 0.29618 0.0
H632 H 0.17741 0.26274 0.36597 0.0
H633 H 0.1268 0.30103 0.34804 0.0
H634 H 0.21163 0.29786 0.38582 0.0
H635 H 0.21543 0.29777 0.34607 0.0
H636 H 0.21063 0.27444 0.36549 0.0
H637 H 0.14838 0.34573 0.36628 0.0
H638 H 0.13034 0.33591 0.33981 0.0
H639 H 0.15462 0.34475 0.3273 0.0
C640 C 0.72794 0.17245 0.34582 0.0
C641 C 0.7253 0.15152 0.34567 0.0
C642 C 0.71146 0.1856 0.34391 0.0
C643 C 0.69169 0.17768 0.34257 0.0
C644 C 0.68894 0.15651 0.34132 0.0
C645 C 0.70583 0.14365 0.34254 0.0
C646 C 0.71523 0.20802 0.34463 0.0
C647 C 0.66814 0.14744 0.34037 0.0
C648 C 0.65408 0.21392 0.37708 0.0
C649 C 0.64594 0.22341 0.3517 0.0
C650 C 0.66789 0.19803 0.37431 0.0
C651 C 0.67416 0.1917 0.34541 0.0
C652 C 0.66528 0.20058 0.31965 0.0
C653 C 0.65109 0.21621 0.32311 0.0
C654 C 0.67657 0.18875 0.40242 0.0
C655 C 0.6717 0.1945 0.28845 0.0
H656 H 0.74299 0.17861 0.34792 0.0
H657 H 0.70373 0.12747 0.34261 0.0
H658 H 0.70694 0.21556 0.32617 0.0
H659 H 0.7096 0.21434 0.3661 0.0
H660 H 0.73147 0.21174 0.34253 0.0
H661 H 0.66855 0.13098 0.33599 0.0
H662 H 0.66052 0.15003 0.36221 0.0
H663 H 0.65888 0.1548 0.3228 0.0
H664 H 0.64997 0.21926 0.39926 0.0
H665 H 0.64491 0.22353 0.30341 0.0
H666 H 0.69257 0.19326 0.40479 0.0
H667 H 0.67612 0.17209 0.40098 0.0
H668 H 0.66835 0.19355 0.42294 0.0
H669 H 0.68722 0.19998 0.28424 0.0
H670 H 0.66163 0.20083 0.27092 0.0
H671 H 0.67195 0.17787 0.28622 0.0
C672 C 0.77873 0.67062 0.36234 0.0
C673 C 0.78126 0.64987 0.35797 0.0
C674 C 0.79512 0.68392 0.36095 0.0
C675 C 0.81474 0.67629 0.35583 0.0
C676 C 0.81737 0.65537 0.35075 0.0
C677 C 0.80054 0.64242 0.3515 0.0
C678 C 0.79148 0.70612 0.3658 0.0
C679 C 0.83804 0.64656 0.3458 0.0
C680 C 0.8542 0.71575 0.33548 0.0
C681 C 0.86142 0.72118 0.36395 0.0
C682 C 0.83959 0.70052 0.33221 0.0
C683 C 0.83241 0.69019 0.35794 0.0
C684 C 0.84071 0.69475 0.38644 0.0
C685 C 0.85489 0.71033 0.38913 0.0
C686 C 0.83094 0.69641 0.3015 0.0
C687 C 0.83391 0.68383 0.4144 0.0
H688 H 0.76383 0.6765 0.36702 0.0
H689 H 0.8026 0.62638 0.34828 0.0
H690 H 0.79863 0.71097 0.38711 0.0
H691 H 0.79844 0.71498 0.34741 0.0
H692 H 0.77519 0.70984 0.36688 0.0
H693 H 0.83742 0.63033 0.33988 0.0
H694 H 0.84599 0.65478 0.32765 0.0
H695 H 0.84712 0.64831 0.36654 0.0
H696 H 0.8591 0.72418 0.31597 0.0
H697 H 0.86058 0.71433 0.41116 0.0
H698 H 0.81518 0.70191 0.30065 0.0
H699 H 0.83059 0.68 0.29693 0.0
H700 H 0.83964 0.70397 0.28343 0.0
H701 H 0.8182 0.6882 0.41981 0.0
H702 H 0.84355 0.68736 0.43409 0.0
H703 H 0.83406 0.66732 0.41067 0.0
C704 C 0.70811 0.86457 0.85058 0.0
C705 C 0.72726 0.85692 0.85735 0.0
C706 C 0.69111 0.85185 0.84993 0.0
C707 C 0.69344 0.83095 0.85544 0.0
C708 C 0.71292 0.8231 0.86089 0.0
C709 C 0.72949 0.83618 0.86215 0.0
C710 C 0.67059 0.8609 0.84462 0.0
C711 C 0.71624 0.80089 0.8662 0.0
C712 C 0.65279 0.79762 0.88896 0.0
C713 C 0.64628 0.78663 0.86391 0.0
C714 C 0.6671 0.81307 0.88612 0.0
C715 C 0.67558 0.81731 0.85762 0.0
C716 C 0.6684 0.80684 0.83201 0.0
C717 C 0.65364 0.79177 0.83541 0.0
C718 C 0.67389 0.82414 0.91394 0.0
C719 C 0.67723 0.81062 0.8013 0.0
H720 H 0.70629 0.88061 0.84703 0.0
H721 H 0.74429 0.83014 0.86707 0.0
H722 H 0.6626 0.85263 0.82657 0.0
H723 H 0.6614 0.85946 0.86531 0.0
H724 H 0.67145 0.87706 0.8384 0.0
H725 H 0.73247 0.79696 0.86752 0.0
H726 H 0.70892 0.79632 0.88752 0.0
H727 H 0.70926 0.79197 0.8479 0.0
H728 H 0.64699 0.79382 0.91101 0.0
H729 H 0.64876 0.78322 0.81601 0.0
H730 H 0.67398 0.84062 0.9099 0.0
H731 H 0.6895 0.81961 0.91964 0.0
H732 H 0.66409 0.82091 0.93358 0.0
H733 H 0.67783 0.82698 0.79647 0.0
H734 H 0.6685 0.80304 0.78328 0.0
H735 H 0.69292 0.80488 0.80068 0.0
C736 C 0.1739 0.72871 0.8502 0.0
C737 C 0.15297 0.72624 0.8488 0.0
C738 C 0.18695 0.71217 0.84816 0.0
C739 C 0.17892 0.69252 0.84541 0.0
C740 C 0.15778 0.68996 0.84293 0.0
C741 C 0.14504 0.70692 0.8443 0.0
C742 C 0.20937 0.71573 0.85023 0.0
C743 C 0.14858 0.66927 0.84047 0.0
C744 C 0.2177 0.65219 0.82612 0.0
C745 C 0.22422 0.64653 0.85484 0.0
C746 C 0.20216 0.66644 0.82248 0.0
C747 C 0.1927 0.67482 0.84816 0.0
C748 C 0.1983 0.66796 0.87708 0.0
C749 C 0.21414 0.65412 0.88006 0.0
C750 C 0.19686 0.67352 0.79129 0.0
C751 C 0.18837 0.67608 0.90507 0.0
H752 H 0.18011 0.74366 0.85331 0.0
H753 H 0.12885 0.70495 0.84336 0.0
H754 H 0.21514 0.70958 0.87173 0.0
H755 H 0.21729 0.70777 0.83178 0.0
H756 H 0.21326 0.73197 0.84913 0.0
H757 H 0.13225 0.66991 0.83523 0.0
H758 H 0.1563 0.66033 0.82286 0.0
H759 H 0.15058 0.66116 0.86205 0.0
H760 H 0.22554 0.64643 0.80658 0.0
H761 H 0.21901 0.64961 0.90231 0.0
H762 H 0.20266 0.68903 0.788 0.0
H763 H 0.1803 0.67407 0.78825 0.0
H764 H 0.20344 0.66368 0.77367 0.0
H765 H 0.19295 0.69198 0.90851 0.0
H766 H 0.19257 0.66736 0.92541 0.0
H767 H 0.17175 0.67583 0.90267 0.0
C768 C 0.35825 0.21038 0.88516 0.0
C769 C 0.36526 0.2212 0.86023 0.0
C770 C 0.34406 0.19487 0.88192 0.0
C771 C 0.33628 0.1903 0.85309 0.0
C772 C 0.34407 0.20049 0.82763 0.0
C773 C 0.35863 0.2157 0.83147 0.0
C774 C 0.33656 0.18414 0.90964 0.0
C775 C 0.33605 0.1963 0.79656 0.0
C776 C 0.30341 0.14323 0.84681 0.0
C777 C 0.28425 0.15123 0.85254 0.0
C778 C 0.32054 0.15578 0.84597 0.0
C779 C 0.31835 0.17682 0.85037 0.0
C780 C 0.29886 0.18499 0.85455 0.0
C781 C 0.28215 0.17212 0.8559 0.0
C782 C 0.34104 0.14642 0.84187 0.0
C783 C 0.29569 0.20734 0.85873 0.0
H784 H 0.36351 0.2144 0.90741 0.0
H785 H 0.36393 0.22407 0.81213 0.0
H786 H 0.32083 0.18879 0.91436 0.0
H787 H 0.33652 0.16762 0.90603 0.0
H788 H 0.34588 0.18758 0.9297 0.0
H789 H 0.34539 0.20346 0.77883 0.0
H790 H 0.33535 0.17987 0.7923 0.0
H791 H 0.32048 0.20224 0.79473 0.0
H792 H 0.30513 0.12709 0.84436 0.0
H793 H 0.26736 0.17844 0.85999 0.0
H794 H 0.34969 0.14774 0.86309 0.0
H795 H 0.34964 0.15453 0.82427 0.0
H796 H 0.34008 0.13026 0.83565 0.0
H797 H 0.30254 0.21222 0.88024 0.0
H798 H 0.27948 0.21147 0.85901 0.0
H799 H 0.30321 0.21583 0.84045 0.0
C800 C 0.86315 0.30096 0.84211 0.0
C801 C 0.85499 0.28194 0.84832 0.0
C802 C 0.85071 0.31815 0.84064 0.0
C803 C 0.82964 0.31613 0.84486 0.0
C804 C 0.82132 0.29675 0.84947 0.0
C805 C 0.83408 0.27999 0.85146 0.0
C806 C 0.8602 0.33854 0.83609 0.0
C807 C 0.79894 0.29375 0.8535 0.0
C808 C 0.79586 0.3559 0.87913 0.0
C809 C 0.78483 0.36252 0.85418 0.0
C810 C 0.81165 0.34203 0.876 0.0
C811 C 0.81626 0.33415 0.84725 0.0
C812 C 0.80598 0.34171 0.82171 0.0
C813 C 0.79048 0.35598 0.82546 0.0
C814 C 0.82246 0.33479 0.9038 0.0
C815 C 0.81025 0.3336 0.79072 0.0
H816 H 0.87931 0.30255 0.83979 0.0
H817 H 0.82766 0.26528 0.85587 0.0
H818 H 0.85208 0.34709 0.81846 0.0
H819 H 0.85907 0.34735 0.8572 0.0
H820 H 0.87633 0.3374 0.82972 0.0
H821 H 0.7947 0.27758 0.85405 0.0
H822 H 0.79401 0.30081 0.87485 0.0
H823 H 0.79056 0.30117 0.83502 0.0
H824 H 0.79166 0.36108 0.90136 0.0
H825 H 0.78191 0.36097 0.80613 0.0
H826 H 0.83897 0.33466 0.90009 0.0
H827 H 0.81777 0.31913 0.90892 0.0
H828 H 0.81911 0.34433 0.92367 0.0
H829 H 0.8267 0.33264 0.78667 0.0
H830 H 0.80334 0.34305 0.77291 0.0
H831 H 0.80407 0.31814 0.78885 0.0
C832 C 0.64315 0.20523 0.64961 0.0
C833 C 0.65055 0.22484 0.64617 0.0
C834 C 0.65643 0.18868 0.65105 0.0
C835 C 0.67753 0.19196 0.64973 0.0
C836 C 0.68495 0.21191 0.64807 0.0
C837 C 0.6714 0.22802 0.64588 0.0
C838 C 0.64788 0.16766 0.65227 0.0
C839 C 0.70727 0.21624 0.64735 0.0
C840 C 0.7166 0.15222 0.67041 0.0
C841 C 0.72399 0.14685 0.64202 0.0
C842 C 0.70083 0.16627 0.6734 0.0
C843 C 0.69197 0.17476 0.64736 0.0
C844 C 0.69857 0.16836 0.61866 0.0
C845 C 0.71464 0.15472 0.61635 0.0
C846 C 0.69452 0.17292 0.7044 0.0
C847 C 0.68929 0.17662 0.59027 0.0
H848 H 0.62702 0.20275 0.64959 0.0
H849 H 0.67714 0.24322 0.64345 0.0
H850 H 0.65081 0.15993 0.63062 0.0
H851 H 0.65537 0.15874 0.67012 0.0
H852 H 0.6314 0.16768 0.65643 0.0
H853 H 0.71057 0.23258 0.64921 0.0
H854 H 0.715 0.20826 0.66595 0.0
H855 H 0.71376 0.21063 0.62598 0.0
H856 H 0.72382 0.14623 0.69033 0.0
H857 H 0.72013 0.15041 0.59433 0.0
H858 H 0.67789 0.17267 0.70658 0.0
H859 H 0.69949 0.18866 0.70816 0.0
H860 H 0.70113 0.16329 0.72225 0.0
H861 H 0.67263 0.17582 0.59151 0.0
H862 H 0.69438 0.16835 0.56996 0.0
H863 H 0.69345 0.1927 0.58768 0.0
C864 C 0.79159 0.65189 0.68031 0.0
C865 C 0.78633 0.64495 0.65163 0.0
C866 C 0.80708 0.66617 0.68406 0.0
C867 C 0.81774 0.67331 0.65859 0.0
C868 C 0.81353 0.665 0.62999 0.0
C869 C 0.79775 0.65114 0.62682 0.0
C870 C 0.81092 0.67474 0.71489 0.0
C871 C 0.82476 0.67179 0.6023 0.0
C872 C 0.8356 0.72739 0.65301 0.0
C873 C 0.85646 0.72551 0.65687 0.0
C874 C 0.82281 0.71067 0.6552 0.0
C875 C 0.83107 0.69137 0.66077 0.0
C876 C 0.85207 0.68943 0.6657 0.0
C877 C 0.86452 0.70659 0.664 0.0
C878 C 0.80049 0.71358 0.65038 0.0
C879 C 0.86151 0.66912 0.67128 0.0
H880 H 0.78271 0.64723 0.69951 0.0
H881 H 0.79382 0.64566 0.60464 0.0
H882 H 0.8273 0.67581 0.7194 0.0
H883 H 0.80467 0.69021 0.71608 0.0
H884 H 0.80379 0.66554 0.7328 0.0
H885 H 0.82171 0.66192 0.58268 0.0
H886 H 0.82014 0.68735 0.59645 0.0
H887 H 0.84121 0.67199 0.60654 0.0
H888 H 0.82923 0.74202 0.64789 0.0
H889 H 0.88065 0.70504 0.66689 0.0
H890 H 0.79186 0.70646 0.66887 0.0
H891 H 0.79587 0.70618 0.62915 0.0
H892 H 0.79626 0.72974 0.64912 0.0
H893 H 0.85314 0.66085 0.68896 0.0
H894 H 0.87754 0.67038 0.67811 0.0
H895 H 0.86068 0.65997 0.65047 0.0
C896 C 0.29031 0.84854 0.61914 0.0
C897 C 0.28283 0.85892 0.64422 0.0
C898 C 0.30613 0.83462 0.62184 0.0
C899 C 0.31455 0.83063 0.65044 0.0
C900 C 0.30755 0.84155 0.67574 0.0
C901 C 0.29189 0.8557 0.67228 0.0
C902 C 0.31333 0.82366 0.59413 0.0
C903 C 0.3159 0.83758 0.70667 0.0
C904 C 0.33592 0.7777 0.65612 0.0
C905 C 0.35662 0.78104 0.65271 0.0
C906 C 0.32226 0.79381 0.6573 0.0
C907 C 0.32936 0.8138 0.65392 0.0
C908 C 0.35036 0.81729 0.65127 0.0
C909 C 0.36379 0.80084 0.65112 0.0
C910 C 0.30011 0.78935 0.66097 0.0
C911 C 0.35854 0.83827 0.64692 0.0
H912 H 0.2836 0.85111 0.59729 0.0
H913 H 0.28618 0.8636 0.6918 0.0
H914 H 0.32997 0.82453 0.59241 0.0
H915 H 0.30923 0.80751 0.59572 0.0
H916 H 0.30666 0.82989 0.57323 0.0
H917 H 0.31026 0.84855 0.72351 0.0
H918 H 0.31155 0.82221 0.71397 0.0
H919 H 0.33258 0.83818 0.70636 0.0
H920 H 0.33038 0.76238 0.65751 0.0
H921 H 0.37978 0.80341 0.64817 0.0
H922 H 0.29205 0.79294 0.63982 0.0
H923 H 0.29357 0.79891 0.67892 0.0
H924 H 0.29728 0.77331 0.66659 0.0
H925 H 0.35374 0.84407 0.62468 0.0
H926 H 0.37524 0.83868 0.64803 0.0
H927 H 0.35236 0.84861 0.66416 0.0
C928 C 0.14326 0.29931 0.66392 0.0
C929 C 0.15133 0.28045 0.65642 0.0
C930 C 0.15565 0.31652 0.66549 0.0
C931 C 0.1766 0.3147 0.66002 0.0
C932 C 0.18488 0.29548 0.654 0.0
C933 C 0.17216 0.2787 0.65198 0.0
C934 C 0.14619 0.33676 0.67158 0.0
C935 C 0.20716 0.29269 0.64858 0.0
C936 C 0.20958 0.35535 0.62635 0.0
C937 C 0.2211 0.36138 0.65112 0.0
C938 C 0.19385 0.3414 0.62947 0.0
C939 C 0.18986 0.33282 0.65797 0.0
C940 C 0.20067 0.33976 0.68341 0.0
C941 C 0.21606 0.35415 0.67972 0.0
C942 C 0.18244 0.33485 0.60183 0.0
C943 C 0.1971 0.33086 0.71411 0.0
H944 H 0.12716 0.30076 0.66726 0.0
H945 H 0.17855 0.26412 0.64658 0.0
H946 H 0.15463 0.34488 0.68932 0.0
H947 H 0.1469 0.34609 0.65095 0.0
H948 H 0.1302 0.3354 0.67857 0.0
H949 H 0.21144 0.27656 0.64687 0.0
H950 H 0.21154 0.30031 0.6274 0.0
H951 H 0.21596 0.29967 0.66701 0.0
H952 H 0.21334 0.36105 0.60423 0.0
H953 H 0.22503 0.35868 0.6989 0.0
H954 H 0.16603 0.33453 0.60636 0.0
H955 H 0.18708 0.31936 0.59555 0.0
H956 H 0.18531 0.34493 0.58239 0.0
H957 H 0.18076 0.32976 0.71893 0.0
H958 H 0.2044 0.33985 0.7321 0.0
H959 H 0.20334 0.31537 0.7148 0.0
C960 C 0.26606 0.0879 0.07051 0.0
C961 C 0.24683 0.09037 0.0829 0.0
C962 C 0.26887 0.08774 0.03917 0.0
C963 C 0.25195 0.0895 0.01994 0.0
C964 C 0.23246 0.09144 0.0325 0.0
C965 C 0.23019 0.09216 0.06378 0.0
C966 C 0.28992 0.08624 0.02665 0.0
C967 C 0.21397 0.09288 0.01289 0.0
C968 C 0.25422 0.10928 0.94013 0.0
C969 C 0.25343 0.09148 0.92341 0.0
C970 C 0.25522 0.10878 0.9716 0.0
C971 C 0.25445 0.09002 0.98668 0.0
C972 C 0.2541 0.07195 0.96975 0.0
C973 C 0.25396 0.07291 0.93819 0.0
C974 C 0.2563 0.12838 0.9887 0.0
C975 C 0.25259 0.05169 0.9849 0.0
H976 H 0.27896 0.08666 0.08529 0.0
H977 H 0.21528 0.09391 0.07333 0.0
H978 H 0.29111 0.07316 0.01129 0.0
H979 H 0.29337 0.09991 0.01327 0.0
H980 H 0.30144 0.08467 0.04457 0.0
H981 H 0.19982 0.09288 0.02619 0.0
H982 H 0.21451 0.1069 0.99942 0.0
H983 H 0.21353 0.08007 0.99691 0.0
H984 H 0.25386 0.12363 0.92859 0.0
H985 H 0.25312 0.05917 0.92512 0.0
H986 H 0.26812 0.12759 0.00626 0.0
H987 H 0.24175 0.13119 1.00018 0.0
H988 H 0.25956 0.14135 0.97374 0.0
H989 H 0.26447 0.05006 1.00221 0.0
H990 H 0.25393 0.03905 0.96868 0.0
H991 H 0.23786 0.05046 0.99651 0.0
C992 C 0.89727 0.24546 0.93851 0.0
C993 C 0.91364 0.25102 0.92051 0.0
C994 C 0.89812 0.24733 0.96987 0.0
C995 C 0.91606 0.25421 0.98366 0.0
C996 C 0.9325 0.26028 0.96549 0.0
C997 C 0.93095 0.25892 0.93405 0.0
C998 C 0.88001 0.2413 0.9883 0.0
C999 C 0.95208 0.26713 0.97928 0.0
C1000 C 0.91417 0.26799 0.0668 0.0
C1001 C 0.91885 0.24948 0.08009 0.0
C1002 C 0.91343 0.26993 0.03533 0.0
C1003 C 0.91816 0.25313 0.01697 0.0
C1004 C 0.92381 0.2347 0.03054 0.0
C1005 C 0.92367 0.233 0.06192 0.0
C1006 C 0.90667 0.28962 0.02178 0.0
C1007 C 0.92953 0.21657 0.01192 0.0
H1008 H 0.88378 0.23956 0.92806 0.0
H1009 H 0.94366 0.26312 0.92011 0.0
H1010 H 0.88334 0.22723 1.00073 0.0
H1011 H 0.87649 0.2531 0.00514 0.0
H1012 H 0.86648 0.23874 0.97415 0.0
H1013 H 0.96288 0.27273 0.96216 0.0
H1014 H 0.94936 0.27924 0.99593 0.0
H1015 H 0.95914 0.25437 0.99145 0.0
H1016 H 0.91015 0.28063 0.08098 0.0
H1017 H 0.92732 0.2187 0.07233 0.0
H1018 H 0.89217 0.28737 0.00985 0.0
H1019 H 0.91776 0.29494 0.00495 0.0
H1020 H 0.90459 0.30153 0.03901 0.0
H1021 H 0.91618 0.21102 0.99949 0.0
H1022 H 0.93548 0.20406 0.0259 0.0
H1023 H 0.9411 0.22076 0.99506 0.0
C1024 C 0.7398 0.91592 0.93763 0.0
C1025 C 0.75853 0.91909 0.92402 0.0
C1026 C 0.73792 0.91599 0.96913 0.0
C1027 C 0.75504 0.92006 0.98715 0.0
C1028 C 0.77374 0.9243 0.97322 0.0
C1029 C 0.77533 0.92333 0.94186 0.0
C1030 C 0.71792 0.91068 0.98309 0.0
C1031 C 0.79223 0.92931 0.99146 0.0
C1032 C 0.75043 0.93323 0.07021 0.0
C1033 C 0.75745 0.91549 0.0836 0.0
C1034 C 0.74903 0.93488 0.03874 0.0
C1035 C 0.75409 0.91814 0.02048 0.0
C1036 C 0.76004 0.89985 0.03415 0.0
C1037 C 0.76207 0.89891 0.06544 0.0
C1038 C 0.74323 0.95482 0.02504 0.0
C1039 C 0.76495 0.88143 0.01567 0.0
H1040 H 0.72687 0.91247 0.92372 0.0
H1041 H 0.78978 0.92593 0.93121 0.0
H1042 H 0.71927 0.89612 0.99513 0.0
H1043 H 0.71349 0.92217 0.99988 0.0
H1044 H 0.70577 0.90934 0.96607 0.0
H1045 H 0.8049 0.93457 0.97718 0.0
H1046 H 0.78872 0.94117 0.00821 0.0
H1047 H 0.79726 0.91579 0.00399 0.0
H1048 H 0.74699 0.94612 0.08423 0.0
H1049 H 0.76741 0.88512 0.07563 0.0
H1050 H 0.731 0.95279 0.00837 0.0
H1051 H 0.75635 0.9612 0.01291 0.0
H1052 H 0.73821 0.96586 0.04222 0.0
H1053 H 0.7529 0.87857 0.99895 0.0
H1054 H 0.76679 0.86777 0.02979 0.0
H1055 H 0.77914 0.88393 0.0031 0.0
C1056 C 0.07711 0.74719 0.93487 0.0
C1057 C 0.09389 0.7563 0.92151 0.0
C1058 C 0.07554 0.74566 0.9663 0.0
C1059 C 0.09142 0.75285 0.98464 0.0
C1060 C 0.10888 0.76103 0.97105 0.0
C1061 C 0.10975 0.76297 0.93969 0.0
C1062 C 0.05646 0.73734 0.97989 0.0
C1063 C 0.12642 0.76833 0.98966 0.0
C1064 C 0.08218 0.773 0.06314 0.0
C1065 C 0.0882 0.75681 0.0811 0.0
C1066 C 0.08217 0.77146 0.03174 0.0
C1067 C 0.08918 0.75357 0.01795 0.0
C1068 C 0.09515 0.73707 0.0361 0.0
C1069 C 0.09425 0.73878 0.06759 0.0
C1070 C 0.07512 0.78921 0.01334 0.0
C1071 C 0.10337 0.71802 0.02231 0.0
H1072 H 0.06479 0.74212 0.92082 0.0
H1073 H 0.12284 0.76981 0.9294 0.0
H1074 H 0.06002 0.72536 0.99638 0.0
H1075 H 0.04849 0.74949 0.9922 0.0
H1076 H 0.04613 0.7311 0.96263 0.0
H1077 H 0.13975 0.77202 0.97564 0.0
H1078 H 0.12198 0.78203 1.00227 0.0
H1079 H 0.1308 0.75674 0.00637 0.0
H1080 H 0.0775 0.78693 0.07375 0.0
H1081 H 0.0992 0.7264 0.08163 0.0
H1082 H 0.06393 0.78427 0.99639 0.0
H1083 H 0.08804 0.79582 1.00103 0.0
H1084 H 0.06824 0.80116 0.02746 0.0
H1085 H 0.09269 0.71196 0.00545 0.0
H1086 H 0.10635 0.70621 0.0394 0.0
H1087 H 0.11764 0.72142 0.01039 0.0
C1088 C 0.24555 0.89716 0.43905 0.0
C1089 C 0.25029 0.9138 0.42111 0.0
C1090 C 0.24759 0.898 0.47039 0.0
C1091 C 0.25373 0.9162 0.4842 0.0
C1092 C 0.25895 0.93294 0.46608 0.0
C1093 C 0.25751 0.93141 0.43464 0.0
C1094 C 0.24252 0.87958 0.48876 0.0
C1095 C 0.26494 0.9528 0.4799 0.0
C1096 C 0.23265 0.92268 0.56277 0.0
C1097 C 0.24945 0.91866 0.58071 0.0
C1098 C 0.23414 0.9229 0.53137 0.0
C1099 C 0.25275 0.91817 0.51754 0.0
C1100 C 0.26986 0.91424 0.53564 0.0
C1101 C 0.26809 0.91488 0.56714 0.0
C1102 C 0.21565 0.92778 0.51302 0.0
C1103 C 0.28977 0.90845 0.5218 0.0
H1104 H 0.24018 0.88346 0.42856 0.0
H1105 H 0.26106 0.94432 0.42073 0.0
H1106 H 0.25455 0.87659 0.50546 0.0
H1107 H 0.22836 0.88219 0.50136 0.0
H1108 H 0.24055 0.86598 0.47454 0.0
H1109 H 0.26995 0.96388 0.46278 0.0
H1110 H 0.25192 0.95922 0.49223 0.0
H1111 H 0.27724 0.95061 0.49641 0.0
H1112 H 0.21826 0.92566 0.57337 0.0
H1113 H 0.281 0.91151 0.58114 0.0
H1114 H 0.21067 0.9142 0.5006 0.0
H1115 H 0.21918 0.93956 0.49615 0.0
H1116 H 0.20296 0.93311 0.52718 0.0
H1117 H 0.28814 0.89388 0.50984 0.0
H1118 H 0.30187 0.90692 0.53886 0.0
H1119 H 0.29445 0.9198 0.50495 0.0
C1120 C 0.10944 0.24515 0.56752 0.0
C1121 C 0.09258 0.24972 0.58511 0.0
C1122 C 0.10886 0.24709 0.53617 0.0
C1123 C 0.09071 0.25295 0.52196 0.0
C1124 C 0.07373 0.25799 0.53972 0.0
C1125 C 0.07499 0.25666 0.5712 0.0
C1126 C 0.12752 0.24222 0.5182 0.0
C1127 C 0.05392 0.26367 0.52546 0.0
C1128 C 0.09262 0.26734 0.4391 0.0
C1129 C 0.08926 0.24867 0.42543 0.0
C1130 C 0.09297 0.26911 0.4706 0.0
C1131 C 0.0891 0.25193 0.48861 0.0
C1132 C 0.08481 0.23325 0.47466 0.0
C1133 C 0.08537 0.23178 0.44327 0.0
C1134 C 0.09832 0.28909 0.48459 0.0
C1135 C 0.07999 0.2147 0.4929 0.0
H1136 H 0.12311 0.23998 0.57829 0.0
H1137 H 0.06192 0.26007 0.58485 0.0
H1138 H 0.12521 0.22801 0.5056 0.0
H1139 H 0.13052 0.25426 0.50153 0.0
H1140 H 0.14101 0.24044 0.5327 0.0
H1141 H 0.0426 0.26852 0.54234 0.0
H1142 H 0.05609 0.27598 0.50897 0.0
H1143 H 0.04782 0.25055 0.51302 0.0
H1144 H 0.09584 0.28034 0.42519 0.0
H1145 H 0.08265 0.21736 0.43259 0.0
H1146 H 0.11269 0.28763 0.4971 0.0
H1147 H 0.08664 0.29368 0.501 0.0
H1148 H 0.10001 0.30119 0.46756 0.0
H1149 H 0.0935 0.20991 0.50566 0.0
H1150 H 0.07501 0.20193 0.47861 0.0
H1151 H 0.06797 0.21806 0.50946 0.0
C1152 C 0.73948 0.09131 0.56548 0.0
C1153 C 0.75837 0.08842 0.57873 0.0
C1154 C 0.73743 0.09186 0.53401 0.0
C1155 C 0.75457 0.08875 0.51559 0.0
C1156 C 0.7735 0.08498 0.5291 0.0
C1157 C 0.77522 0.08528 0.56047 0.0
C1158 C 0.71715 0.09664 0.52053 0.0
C1159 C 0.79205 0.08099 0.51041 0.0
C1160 C 0.74967 0.07479 0.43296 0.0
C1161 C 0.7559 0.09264 0.41905 0.0
C1162 C 0.74862 0.07338 0.46445 0.0
C1163 C 0.75318 0.09047 0.48225 0.0
C1164 C 0.75828 0.10886 0.46807 0.0
C1165 C 0.75999 0.1096 0.43667 0.0
C1166 C 0.74375 0.05334 0.47865 0.0
C1167 C 0.7626 0.12763 0.48609 0.0
H1168 H 0.72651 0.09401 0.5797 0.0
H1169 H 0.78982 0.08298 0.57082 0.0
H1170 H 0.71801 0.11113 0.5082 0.0
H1171 H 0.7128 0.08491 0.50404 0.0
H1172 H 0.70516 0.09781 0.53783 0.0
H1173 H 0.80514 0.07642 0.52436 0.0
H1174 H 0.789 0.06895 0.49376 0.0
H1175 H 0.79619 0.09475 0.49774 0.0
H1176 H 0.74665 0.06163 0.41928 0.0
H1177 H 0.76462 0.12347 0.42589 0.0
H1178 H 0.73149 0.055 0.49535 0.0
H1179 H 0.75718 0.04767 0.49083 0.0
H1180 H 0.73919 0.0419 0.46177 0.0
H1181 H 0.75061 0.13011 0.50305 0.0
H1182 H 0.76372 0.14122 0.47166 0.0
H1183 H 0.777 0.12581 0.49837 0.0
C1184 C 0.93227 0.74614 0.57204 0.0
C1185 C 0.91558 0.75564 0.58506 0.0
C1186 C 0.93399 0.74439 0.54064 0.0
C1187 C 0.91835 0.75178 0.52202 0.0
C1188 C 0.90097 0.76035 0.53528 0.0
C1189 C 0.89995 0.76247 0.56659 0.0
C1190 C 0.95296 0.7356 0.5274 0.0
C1191 C 0.8837 0.76794 0.51635 0.0
C1192 C 0.92786 0.77193 0.44366 0.0
C1193 C 0.92115 0.75606 0.42565 0.0
C1194 C 0.92818 0.77019 0.47503 0.0
C1195 C 0.92082 0.75241 0.48874 0.0
C1196 C 0.91437 0.73613 0.47051 0.0
C1197 C 0.9149 0.73805 0.43902 0.0
C1198 C 0.93568 0.78772 0.4935 0.0
C1199 C 0.90585 0.7172 0.48421 0.0
H1200 H 0.94442 0.74093 0.58631 0.0
H1201 H 0.88692 0.76961 0.5766 0.0
H1202 H 0.94926 0.72375 0.51076 0.0
H1203 H 0.96135 0.74757 0.51533 0.0
H1204 H 0.96297 0.72906 0.54484 0.0
H1205 H 0.87037 0.77197 0.53015 0.0
H1206 H 0.88851 0.78148 0.50367 0.0
H1207 H 0.87918 0.75637 0.4997 0.0
H1208 H 0.93263 0.78586 0.43315 0.0
H1209 H 0.90938 0.72594 0.42494 0.0
H1210 H 0.94665 0.78246 0.51058 0.0
H1211 H 0.9229 0.79472 0.50565 0.0
H1212 H 0.94299 0.79944 0.47944 0.0
H1213 H 0.91621 0.71114 0.5015 0.0
H1214 H 0.90303 0.70534 0.46712 0.0
H1215 H 0.89141 0.72074 0.49559 0.0
C1216 C 0.75618 0.57256 0.57154 0.0
C1217 C 0.74938 0.59046 0.5847 0.0
C1218 C 0.75802 0.57088 0.54013 0.0
C1219 C 0.75367 0.58774 0.52173 0.0
C1220 C 0.74798 0.60618 0.53521 0.0
C1221 C 0.74547 0.60716 0.56641 0.0
C1222 C 0.76351 0.55079 0.5266 0.0
C1223 C 0.74382 0.62473 0.5166 0.0
C1224 C 0.76883 0.58979 0.43923 0.0
C1225 C 0.75015 0.58717 0.42521 0.0
C1226 C 0.77041 0.58953 0.47075 0.0
C1227 C 0.75303 0.58584 0.48839 0.0
C1228 C 0.73436 0.58212 0.47405 0.0
C1229 C 0.73309 0.58325 0.44268 0.0
C1230 C 0.79041 0.59426 0.48517 0.0
C1231 C 0.71557 0.57754 0.49187 0.0
H1232 H 0.75907 0.55959 0.58566 0.0
H1233 H 0.7403 0.62106 0.57641 0.0
H1234 H 0.75034 0.54467 0.51427 0.0
H1235 H 0.7759 0.55253 0.51012 0.0
H1236 H 0.76814 0.53968 0.54391 0.0
H1237 H 0.74221 0.63844 0.53067 0.0
H1238 H 0.75614 0.62723 0.50018 0.0
H1239 H 0.72971 0.62262 0.50368 0.0
H1240 H 0.78198 0.59297 0.42561 0.0
H1241 H 0.71867 0.58105 0.43173 0.0
H1242 H 0.79431 0.58268 0.50212 0.0
H1243 H 0.78938 0.60889 0.4971 0.0
H1244 H 0.80278 0.59519 0.46844 0.0
H1245 H 0.71862 0.56559 0.50867 0.0
H1246 H 0.70293 0.57259 0.4773 0.0
H1247 H 0.71074 0.59117 0.50431 0.0
C1248 C 0.39903 0.74392 0.44125 0.0
C1249 C 0.41546 0.74932 0.42326 0.0
C1250 C 0.39963 0.74627 0.47252 0.0
C1251 C 0.41745 0.7534 0.48633 0.0
C1252 C 0.434 0.75925 0.46822 0.0
C1253 C 0.43267 0.75746 0.43678 0.0
C1254 C 0.38139 0.74048 0.49083 0.0
C1255 C 0.45347 0.76633 0.4821 0.0
C1256 C 0.41421 0.76838 0.56885 0.0
C1257 C 0.41848 0.75003 0.58289 0.0
C1258 C 0.41414 0.76991 0.53732 0.0
C1259 C 0.41921 0.75287 0.5197 0.0
C1260 C 0.42452 0.7346 0.53407 0.0
C1261 C 0.42366 0.7333 0.56546 0.0
C1262 C 0.40768 0.78942 0.52289 0.0
C1263 C 0.43062 0.71623 0.51626 0.0
H1264 H 0.38564 0.73774 0.43091 0.0
H1265 H 0.44544 0.76153 0.42289 0.0
H1266 H 0.38463 0.72658 0.50374 0.0
H1267 H 0.37773 0.7525 0.50724 0.0
H1268 H 0.36797 0.73771 0.47654 0.0
H1269 H 0.46435 0.77175 0.46497 0.0
H1270 H 0.45061 0.77861 0.4984 0.0
H1271 H 0.46048 0.75373 0.49469 0.0
H1272 H 0.41002 0.78125 0.58248 0.0
H1273 H 0.42709 0.71914 0.57646 0.0
H1274 H 0.39333 0.78706 0.51064 0.0
H1275 H 0.41901 0.79442 0.50619 0.0
H1276 H 0.40545 0.80161 0.53963 0.0
H1277 H 0.41746 0.71037 0.50369 0.0
H1278 H 0.43649 0.70401 0.53085 0.0
H1279 H 0.44236 0.72023 0.49957 0.0
C1280 C 0.239 0.41478 0.43877 0.0
C1281 C 0.25706 0.42026 0.42481 0.0
C1282 C 0.23738 0.41476 0.4703 0.0
C1283 C 0.25401 0.42098 0.48798 0.0
C1284 C 0.27187 0.42761 0.47366 0.0
C1285 C 0.2733 0.42675 0.44227 0.0
C1286 C 0.21835 0.40695 0.48466 0.0
C1287 C 0.28978 0.43486 0.49152 0.0
C1288 C 0.24895 0.43283 0.57145 0.0
C1289 C 0.25807 0.41588 0.58431 0.0
C1290 C 0.24697 0.43457 0.54006 0.0
C1291 C 0.25373 0.41871 0.5213 0.0
C1292 C 0.26195 0.40112 0.53442 0.0
C1293 C 0.26433 0.40009 0.56565 0.0
C1294 C 0.23858 0.45375 0.52693 0.0
C1295 C 0.26887 0.38361 0.5154 0.0
H1296 H 0.22657 0.40949 0.42513 0.0
H1297 H 0.28725 0.431 0.43131 0.0
H1298 H 0.22158 0.39252 0.49625 0.0
H1299 H 0.21281 0.41766 0.50188 0.0
H1300 H 0.20622 0.40435 0.46794 0.0
H1301 H 0.30148 0.44178 0.477 0.0
H1302 H 0.28498 0.44607 0.50854 0.0
H1303 H 0.29664 0.42202 0.5037 0.0
H1304 H 0.24417 0.44511 0.58581 0.0
H1305 H 0.27125 0.38687 0.57542 0.0
H1306 H 0.22644 0.45034 0.51063 0.0
H1307 H 0.25063 0.46177 0.51449 0.0
H1308 H 0.23253 0.46398 0.54448 0.0
H1309 H 0.257 0.37935 0.49907 0.0
H1310 H 0.2727 0.3702 0.52916 0.0
H1311 H 0.28239 0.38802 0.50235 0.0
C1312 C 0.60368 0.24446 0.56138 0.0
C1313 C 0.58808 0.25389 0.57705 0.0
C1314 C 0.60318 0.24303 0.52991 0.0
C1315 C 0.58683 0.25155 0.51391 0.0
C1316 C 0.5706 0.26031 0.52995 0.0
C1317 C 0.57143 0.26135 0.56142 0.0
C1318 C 0.62069 0.23343 0.51374 0.0
C1319 C 0.55298 0.26972 0.51381 0.0
C1320 C 0.59787 0.27298 0.4367 0.0
C1321 C 0.5894 0.2585 0.41759 0.0
C1322 C 0.59716 0.27078 0.46797 0.0
C1323 C 0.58786 0.25359 0.48061 0.0
C1324 C 0.57944 0.23877 0.46148 0.0
C1325 C 0.58024 0.24144 0.43012 0.0
C1326 C 0.60625 0.28702 0.4875 0.0
C1327 C 0.56956 0.22017 0.47415 0.0
H1328 H 0.61658 0.23879 0.57366 0.0
H1329 H 0.5595 0.26881 0.57375 0.0
H1330 H 0.61523 0.22274 0.49643 0.0
H1331 H 0.62954 0.24522 0.50204 0.0
H1332 H 0.63086 0.22528 0.52937 0.0
H1333 H 0.54068 0.27398 0.52947 0.0
H1334 H 0.55807 0.28345 0.50182 0.0
H1335 H 0.54687 0.25922 0.49673 0.0
H1336 H 0.60496 0.28622 0.42722 0.0
H1337 H 0.57373 0.23017 0.41545 0.0
H1338 H 0.61814 0.28051 0.50203 0.0
H1339 H 0.59454 0.29343 0.50249 0.0
H1340 H 0.61294 0.29944 0.47413 0.0
H1341 H 0.58035 0.21193 0.48865 0.0
H1342 H 0.56414 0.20984 0.45628 0.0
H1343 H 0.55659 0.22451 0.48846 0.0
C1344 C 0.75791 0.43271 0.93391 0.0
C1345 C 0.74779 0.4164 0.92085 0.0
C1346 C 0.76022 0.43402 0.96529 0.0
C1347 C 0.75269 0.41838 0.98382 0.0
C1348 C 0.74335 0.40145 0.9705 0.0
C1349 C 0.74073 0.40084 0.9393 0.0
C1350 C 0.76985 0.45252 0.97868 0.0
C1351 C 0.73553 0.38419 0.98928 0.0
C1352 C 0.76805 0.41248 0.06576 0.0
C1353 C 0.75048 0.41878 0.08033 0.0
C1354 C 0.76933 0.4128 0.03421 0.0
C1355 C 0.75291 0.42025 0.01717 0.0
C1356 C 0.73562 0.4277 0.03213 0.0
C1357 C 0.73446 0.42645 0.0635 0.0
C1358 C 0.78772 0.40411 0.01913 0.0
C1359 C 0.71801 0.4363 0.01495 0.0
H1360 H 0.76332 0.44481 0.91972 0.0
H1361 H 0.73301 0.38812 0.92941 0.0
H1362 H 0.75842 0.46107 0.99163 0.0
H1363 H 0.78195 0.44822 0.99458 0.0
H1364 H 0.77629 0.46259 0.96124 0.0
H1365 H 0.73069 0.37121 0.97531 0.0
H1366 H 0.7473 0.37899 0.00517 0.0
H1367 H 0.72248 0.3893 0.0028 0.0
H1368 H 0.78034 0.40637 0.07894 0.0
H1369 H 0.72093 0.43142 0.07496 0.0
H1370 H 0.7937 0.41473 1.00212 0.0
H1371 H 0.78352 0.39007 0.00715 0.0
H1372 H 0.79985 0.40054 0.03546 0.0
H1373 H 0.72331 0.44744 0.99817 0.0
H1374 H 0.70691 0.44371 0.02998 0.0
H1375 H 0.71024 0.42408 0.00254 0.0
C1376 C 0.60668 0.74032 0.06686 0.0
C1377 C 0.59221 0.74897 0.08576 0.0
C1378 C 0.60572 0.7428 0.03561 0.0
C1379 C 0.58959 0.75379 0.02282 0.0
C1380 C 0.57517 0.76298 0.04185 0.0
C1381 C 0.57679 0.76064 0.07317 0.0
C1382 C 0.62167 0.73311 0.01623 0.0
C1383 C 0.55756 0.77448 0.02909 0.0
C1384 C 0.59537 0.76831 0.94048 0.0
C1385 C 0.58666 0.75164 0.92637 0.0
C1386 C 0.59592 0.76963 0.97202 0.0
C1387 C 0.58709 0.75415 0.98955 0.0
C1388 C 0.5773 0.73787 0.97509 0.0
C1389 C 0.57755 0.73663 0.94367 0.0
C1390 C 0.60697 0.78693 0.98652 0.0
C1391 C 0.5673 0.72127 0.99283 0.0
H1392 H 0.61875 0.73145 0.07647 0.0
H1393 H 0.56554 0.76732 0.08773 0.0
H1394 H 0.6149 0.72073 0.00292 0.0
H1395 H 0.62788 0.74423 1.00012 0.0
H1396 H 0.63425 0.72683 0.02972 0.0
H1397 H 0.54848 0.78194 0.04685 0.0
H1398 H 0.56286 0.78609 0.01303 0.0
H1399 H 0.54767 0.76403 0.01645 0.0
H1400 H 0.60271 0.77971 0.92692 0.0
H1401 H 0.57093 0.72371 0.93255 0.0
H1402 H 0.62067 0.78118 0.99791 0.0
H1403 H 0.59745 0.79413 0.00392 0.0
H1404 H 0.61157 0.79853 0.96991 0.0
H1405 H 0.57891 0.71229 0.00469 0.0
H1406 H 0.55843 0.71099 0.97827 0.0
H1407 H 0.55715 0.72773 0.01011 0.0
C1408 C 0.23927 0.59204 0.06785 0.0
C1409 C 0.25785 0.58901 0.08199 0.0
C1410 C 0.23778 0.59186 0.03631 0.0
C1411 C 0.25512 0.58778 0.01877 0.0
C1412 C 0.27369 0.58376 0.03323 0.0
C1413 C 0.2749 0.58486 0.06462 0.0
C1414 C 0.21791 0.59697 0.02177 0.0
C1415 C 0.29242 0.57873 0.01553 0.0
C1416 C 0.25126 0.57332 0.93612 0.0
C1417 C 0.25836 0.59086 0.92224 0.0
C1418 C 0.24963 0.57215 0.9676 0.0
C1419 C 0.25447 0.58919 0.98537 0.0
C1420 C 0.2605 0.60728 0.97116 0.0
C1421 C 0.26282 0.60773 0.93988 0.0
C1422 C 0.24381 0.5524 0.98189 0.0
C1423 C 0.26515 0.62602 0.98907 0.0
H1424 H 0.22614 0.59542 0.0814 0.0
H1425 H 0.28923 0.58236 0.07567 0.0
H1426 H 0.2194 0.61128 0.00912 0.0
H1427 H 0.21359 0.58516 0.00541 0.0
H1428 H 0.20561 0.59867 0.03849 0.0
H1429 H 0.305 0.57378 0.03021 0.0
H1430 H 0.28919 0.56662 0.99905 0.0
H1431 H 0.29742 0.59214 0.00271 0.0
H1432 H 0.24796 0.56021 0.92249 0.0
H1433 H 0.26823 0.62135 0.92927 0.0
H1434 H 0.23137 0.55461 0.99814 0.0
H1435 H 0.25683 0.54633 0.99462 0.0
H1436 H 0.2391 0.54103 0.965 0.0
H1437 H 0.25296 0.62904 0.00552 0.0
H1438 H 0.26699 0.63947 0.9745 0.0
H1439 H 0.27927 0.62382 1.00193 0.0
C1440 C 0.4175 0.23795 0.93536 0.0
C1441 C 0.42491 0.25563 0.92236 0.0
C1442 C 0.41671 0.23583 0.96679 0.0
C1443 C 0.42397 0.25158 0.98537 0.0
C1444 C 0.43264 0.26889 0.97204 0.0
C1445 C 0.43263 0.27086 0.94069 0.0
C1446 C 0.40687 0.21739 0.98005 0.0
C1447 C 0.44097 0.28585 0.99088 0.0
C1448 C 0.40124 0.26318 0.06146 0.0
C1449 C 0.41583 0.25564 0.08121 0.0
C1450 C 0.4032 0.26087 0.03032 0.0
C1451 C 0.42048 0.25127 0.01845 0.0
C1452 C 0.43504 0.24312 0.03829 0.0
C1453 C 0.43241 0.2452 0.06952 0.0
C1454 C 0.38707 0.2694 0.01007 0.0
C1455 C 0.45383 0.23309 0.02652 0.0
H1456 H 0.41123 0.22634 0.92102 0.0
H1457 H 0.43828 0.28456 0.93046 0.0
H1458 H 0.41635 0.21094 0.99814 0.0
H1459 H 0.39226 0.22169 0.9903 0.0
H1460 H 0.40404 0.2056 0.96287 0.0
H1461 H 0.44945 0.29696 0.97719 0.0
H1462 H 0.42845 0.29381 1.0023 0.0
H1463 H 0.4511 0.27986 0.00856 0.0
H1464 H 0.3883 0.27111 0.07032 0.0
H1465 H 0.44376 0.2394 0.08472 0.0
H1466 H 0.38231 0.258 0.99331 0.0
H1467 H 0.39315 0.28248 0.99753 0.0
H1468 H 0.3736 0.27442 0.02283 0.0
H1469 H 0.44993 0.22148 0.00961 0.0
H1470 H 0.46276 0.22595 0.04471 0.0
H1471 H 0.46339 0.24446 0.01513 0.0
C1472 C 0.22425 0.03431 0.20523 0.0
C1473 C 0.23735 0.04996 0.21346 0.0
C1474 C 0.22435 0.01575 0.22041 0.0
C1475 C 0.2378 0.01267 0.24464 0.0
C1476 C 0.25091 0.02848 0.25332 0.0
C1477 C 0.25057 0.0469 0.23761 0.0
C1478 C 0.21013 0.99935 0.21033 0.0
C1479 C 0.26539 0.02589 0.27914 0.0
C1480 C 0.22524 0.97114 0.30078 0.0
C1481 C 0.23807 0.95548 0.29167 0.0
C1482 C 0.22509 0.98979 0.28583 0.0
C1483 C 0.238 0.99294 0.26095 0.0
C1484 C 0.25084 0.97712 0.25143 0.0
C1485 C 0.25076 0.95863 0.26693 0.0
C1486 C 0.21119 0.0062 0.29681 0.0
C1487 C 0.26472 0.97976 0.22488 0.0
H1488 H 0.21401 0.03645 0.18656 0.0
H1489 H 0.26077 0.05886 0.24411 0.0
H1490 H 0.21881 0.98581 0.20364 0.0
H1491 H 0.20015 0.99489 0.22915 0.0
H1492 H 0.20061 0.0041 0.19108 0.0
H1493 H 0.27445 0.03966 0.28335 0.0
H1494 H 0.257 0.02206 0.29991 0.0
H1495 H 0.2758 0.01321 0.27444 0.0
H1496 H 0.21543 0.96893 0.31994 0.0
H1497 H 0.26075 0.94667 0.25974 0.0
H1498 H 0.20072 0.01069 0.2786 0.0
H1499 H 0.22006 0.01973 0.30298 0.0
H1500 H 0.20219 1.00144 0.3166 0.0
H1501 H 0.25583 0.98357 0.20457 0.0
H1502 H 0.27371 0.96602 0.22019 0.0
H1503 H 0.27518 0.99247 0.22904 0.0
C1504 C 0.95902 0.25357 0.23679 0.0
C1505 C 0.95675 0.24079 0.21193 0.0
C1506 C 0.97716 0.25409 0.25323 0.0
C1507 C 0.99351 0.24165 0.24451 0.0
C1508 C 0.99125 0.22872 0.21946 0.0
C1509 C 0.97295 0.2284 0.20361 0.0
C1510 C 0.97885 0.26796 0.27994 0.0
C1511 C 0.00824 0.21524 0.20927 0.0
C1512 C 0.04688 0.2547 0.2703 0.0
C1513 C 0.0497 0.24125 0.29422 0.0
C1514 C 0.02867 0.25508 0.25402 0.0
C1515 C 0.01284 0.24176 0.26188 0.0
C1516 C 0.01564 0.22816 0.286 0.0
C1517 C 0.03398 0.22804 0.30177 0.0
C1518 C 0.02639 0.26973 0.22835 0.0
C1519 C 0.99922 0.2137 0.29522 0.0
H1520 H 0.94664 0.26323 0.24337 0.0
H1521 H 0.97144 0.21853 0.18436 0.0
H1522 H 0.98228 0.2591 0.30043 0.0
H1523 H 0.99146 0.27866 0.27656 0.0
H1524 H 0.96482 0.27668 0.28386 0.0
H1525 H 0.0042 0.20626 0.1891 0.0
H1526 H 0.02173 0.22442 0.204 0.0
H1527 H 0.01246 0.20474 0.22759 0.0
H1528 H 0.05888 0.265 0.26433 0.0
H1529 H 0.03592 0.21763 0.32027 0.0
H1530 H 0.01333 0.27976 0.23247 0.0
H1531 H 0.02333 0.26142 0.20723 0.0
H1532 H 0.04002 0.27916 0.22511 0.0
H1533 H 0.98536 0.22215 0.30105 0.0
H1534 H 1.00362 0.2043 0.31478 0.0
H1535 H 0.99544 0.20361 0.2762 0.0
C1536 C 0.78235 0.03517 0.2991 0.0
C1537 C 0.76905 0.05041 0.28989 0.0
C1538 C 0.78306 0.01646 0.28432 0.0
C1539 C 0.77024 0.01279 0.25951 0.0
C1540 C 0.75699 0.02822 0.24979 0.0
C1541 C 0.75651 0.04679 0.26511 0.0
C1542 C 0.79736 1.00048 0.29557 0.0
C1543 C 0.74316 0.02503 0.22333 0.0
C1544 C 0.78381 0.97047 0.20498 0.0
C1545 C 0.77071 0.95499 0.21392 0.0
C1546 C 0.78385 0.98927 0.21961 0.0
C1547 C 0.77056 0.99275 0.24396 0.0
C1548 C 0.75757 0.97705 0.25345 0.0
C1549 C 0.75776 0.95843 0.23829 0.0
C1550 C 0.79792 0.00554 0.20868 0.0
C1551 C 0.74329 0.97999 0.27944 0.0
H1552 H 0.79208 0.03775 0.31825 0.0
H1553 H 0.74618 0.05842 0.25781 0.0
H1554 H 0.78877 0.98695 0.30257 0.0
H1555 H 0.80767 0.99579 0.27727 0.0
H1556 H 0.80652 0.00575 0.31489 0.0
H1557 H 0.7341 0.03864 0.21809 0.0
H1558 H 0.75206 0.02089 0.20318 0.0
H1559 H 0.73275 0.01236 0.22802 0.0
H1560 H 0.79381 0.96805 0.1861 0.0
H1561 H 0.74756 0.94661 0.24536 0.0
H1562 H 0.80785 0.01054 0.22725 0.0
H1563 H 0.78911 0.01884 0.20131 0.0
H1564 H 0.80747 1.00042 0.18968 0.0
H1565 H 0.7518 0.98438 0.29985 0.0
H1566 H 0.73447 0.9662 0.28449 0.0
H1567 H 0.73267 0.99242 0.27434 0.0
C1568 C 0.03353 0.77924 0.20381 0.0
C1569 C 0.04925 0.76626 0.21219 0.0
C1570 C 0.01509 0.77942 0.21935 0.0
C1571 C 0.0122 0.76639 0.24414 0.0
C1572 C 0.02807 0.75335 0.25292 0.0
C1573 C 0.04636 0.75339 0.2368 0.0
C1574 C 0.99865 0.79352 0.2091 0.0
C1575 C 0.02571 0.73933 0.27934 0.0
C1576 C 0.97166 0.78043 0.30117 0.0
C1577 C 0.95574 0.76755 0.29329 0.0
C1578 C 0.99005 0.78013 0.28551 0.0
C1579 C 0.9927 0.7667 0.26112 0.0
C1580 C 0.97659 0.75386 0.25274 0.0
C1581 C 0.95836 0.75439 0.26895 0.0
C1582 C 0.00675 0.79408 0.29529 0.0
C1583 C 0.97867 0.73945 0.22673 0.0
H1584 H 0.03551 0.78919 0.18476 0.0
H1585 H 0.05837 0.74328 0.24343 0.0
H1586 H 0.98493 0.78482 0.20335 0.0
H1587 H 0.99456 0.80397 0.22756 0.0
H1588 H 1.00316 0.80255 0.18922 0.0
H1589 H 0.03943 0.73018 0.2834 0.0
H1590 H 0.02232 0.74813 0.29991 0.0
H1591 H 0.01283 0.72903 0.27548 0.0
H1592 H 0.96988 0.7906 0.32001 0.0
H1593 H 0.94621 0.74433 0.26272 0.0
H1594 H 0.01109 0.80411 0.27645 0.0
H1595 H 0.02027 0.7852 0.30146 0.0
H1596 H 1.00237 0.80355 0.31478 0.0
H1597 H 0.98235 0.74787 0.20593 0.0
H1598 H 0.96474 0.73059 0.22283 0.0
H1599 H 0.99127 0.72887 0.23098 0.0
C1600 C 0.77966 0.97278 0.79996 0.0
C1601 C 0.76662 0.95696 0.79225 0.0
C1602 C 0.77952 0.99109 0.78414 0.0
C1603 C 0.76608 0.99375 0.75979 0.0
C1604 C 0.75298 0.97779 0.75169 0.0
C1605 C 0.75336 0.95961 0.76806 0.0
C1606 C 0.79373 0.00766 0.79362 0.0
C1607 C 0.73853 0.97992 0.72574 0.0
C1608 C 0.75383 0.04748 0.73491 0.0
C1609 C 0.76679 0.05001 0.71032 0.0
C1610 C 0.75338 0.02927 0.75116 0.0
C1611 C 0.76608 0.01311 0.74252 0.0
C1612 C 0.77919 0.01562 0.71773 0.0
C1613 C 0.77944 0.03399 0.70206 0.0
C1614 C 0.73931 0.02731 0.77761 0.0
C1615 C 0.79296 0.99883 0.70764 0.0
H1616 H 0.78992 0.97096 0.81867 0.0
H1617 H 0.7432 0.94752 0.76197 0.0
H1618 H 0.80388 0.01162 0.77475 0.0
H1619 H 0.78507 0.0214 0.79943 0.0
H1620 H 0.80307 1.00333 0.81327 0.0
H1621 H 0.72936 0.96615 0.72223 0.0
H1622 H 0.72826 0.9928 0.72976 0.0
H1623 H 0.74698 0.98318 0.70481 0.0
H1624 H 0.74397 0.05972 0.74144 0.0
H1625 H 0.78945 0.03571 0.68301 0.0
H1626 H 0.74804 0.02394 0.79824 0.0
H1627 H 0.72881 0.01457 0.77395 0.0
H1628 H 0.73037 0.04121 0.78145 0.0
H1629 H 0.80338 0.99469 0.72609 0.0
H1630 H 0.80201 1.00304 0.68764 0.0
H1631 H 0.78398 0.98524 0.70217 0.0
C1632 C 0.97235 0.78158 0.70629 0.0
C1633 C 0.95692 0.7683 0.7148 0.0
C1634 C 0.991 0.78175 0.72124 0.0
C1635 C 0.99441 0.76836 0.74546 0.0
C1636 C 0.97881 0.75508 0.75443 0.0
C1637 C 0.9603 0.75518 0.73898 0.0
C1638 C 0.00716 0.79614 0.71089 0.0
C1639 C 0.98174 0.74065 0.78023 0.0
C1640 C 0.0486 0.7556 0.76727 0.0
C1641 C 0.05177 0.76821 0.7921 0.0
C1642 C 0.03009 0.75555 0.75181 0.0
C1643 C 0.01426 0.76833 0.76147 0.0
C1644 C 0.01743 0.78118 0.78641 0.0
C1645 C 0.03611 0.781 0.80131 0.0
C1646 C 0.02742 0.74173 0.7252 0.0
C1647 C 1.00101 0.795 0.79756 0.0
H1648 H 0.96996 0.79174 0.68759 0.0
H1649 H 0.94852 0.74484 0.74571 0.0
H1650 H 0.0117 0.80613 0.72966 0.0
H1651 H 0.02074 0.78761 0.70391 0.0
H1652 H 1.00215 0.80564 0.69177 0.0
H1653 H 0.96808 0.73148 0.78471 0.0
H1654 H 0.99447 0.73036 0.77532 0.0
H1655 H 0.98566 0.74909 0.80091 0.0
H1656 H 0.06057 0.74564 0.75998 0.0
H1657 H 0.03833 0.79076 0.82053 0.0
H1658 H 0.02338 0.75063 0.705 0.0
H1659 H 0.01486 0.73111 0.7295 0.0
H1660 H 0.04123 0.73291 0.72025 0.0
H1661 H 0.99631 0.80539 0.77937 0.0
H1662 H 0.00585 0.80409 0.81721 0.0
H1663 H 0.9876 0.78606 0.80403 0.0
C1664 C 0.25446 0.95956 0.73687 0.0
C1665 C 0.24127 0.95691 0.71257 0.0
C1666 C 0.2549 0.97777 0.75314 0.0
C1667 C 0.24193 0.99382 0.74486 0.0
C1668 C 0.22853 0.99115 0.72047 0.0
C1669 C 0.22832 0.97279 0.70474 0.0
C1670 C 0.26931 0.9799 0.77913 0.0
C1671 C 0.21448 0.0078 0.71076 0.0
C1672 C 0.22939 0.03486 0.80191 0.0
C1673 C 0.2423 0.05056 0.79325 0.0
C1674 C 0.22924 0.01633 0.78656 0.0
C1675 C 0.24224 0.01335 0.76174 0.0
C1676 C 0.2552 0.02921 0.75272 0.0
C1677 C 0.25512 0.04757 0.7686 0.0
C1678 C 0.2152 0.9999 0.79703 0.0
C1679 C 0.26918 0.02677 0.72625 0.0
H1680 H 0.26454 0.94743 0.74307 0.0
H1681 H 0.21811 0.97099 0.68596 0.0
H1682 H 0.27984 0.99254 0.77487 0.0
H1683 H 0.26088 0.98353 0.79994 0.0
H1684 H 0.27823 0.96599 0.78299 0.0
H1685 H 0.205 1.00338 0.6913 0.0
H1686 H 0.20447 0.01209 0.72963 0.0
H1687 H 0.22329 0.02136 0.70454 0.0
H1688 H 0.21948 0.03694 0.82099 0.0
H1689 H 0.26518 0.05956 0.76176 0.0
H1690 H 0.22395 0.98621 0.80282 0.0
H1691 H 0.20471 0.99574 0.77868 0.0
H1692 H 0.20622 0.00447 0.81694 0.0
H1693 H 0.27949 0.01389 0.73015 0.0
H1694 H 0.27834 0.04047 0.72206 0.0
H1695 H 0.26036 0.02333 0.70574 0.0
C1696 C 0.97117 0.22575 0.80051 0.0
C1697 C 0.95569 0.23874 0.79127 0.0
C1698 C 0.9899 0.22542 0.78577 0.0
C1699 C 0.99332 0.23832 0.76095 0.0
C1700 C 0.97766 0.25129 0.75125 0.0
C1701 C 0.95908 0.2514 0.76656 0.0
C1702 C 0.00613 0.2114 0.79696 0.0
C1703 C 0.98058 0.26517 0.72478 0.0
C1704 C 0.0475 0.25096 0.73895 0.0
C1705 C 0.05084 0.23786 0.71474 0.0
C1706 C 0.02893 0.25121 0.75427 0.0
C1707 C 0.01323 0.23812 0.7451 0.0
C1708 C 0.01659 0.22476 0.72084 0.0
C1709 C 0.03531 0.22475 0.70605 0.0
C1710 C 0.02607 0.2656 0.78014 0.0
C1711 C 1.00031 0.21057 0.71026 0.0
H1712 H 0.96877 0.21596 0.81964 0.0
H1713 H 0.94726 0.26151 0.75925 0.0
H1714 H 0.0108 0.20101 0.77874 0.0
H1715 H 0.01962 0.22018 0.80359 0.0
H1716 H 1.00112 0.20231 0.81652 0.0
H1717 H 0.96688 0.27415 0.71977 0.0
H1718 H 0.99323 0.27565 0.72926 0.0
H1719 H 0.98462 0.2563 0.70455 0.0
H1720 H 0.05936 0.26117 0.74582 0.0
H1721 H 0.03767 0.21461 0.68731 0.0
H1722 H 0.02197 0.25714 0.80073 0.0
H1723 H 0.01347 0.27605 0.77519 0.0
H1724 H 0.0398 0.2746 0.7848 0.0
H1725 H 0.9956 0.20057 0.72892 0.0
H1726 H 0.0053 0.20108 0.69112 0.0
H1727 H 0.98686 0.21927 0.70323 0.0
C1728 C 0.71994 0.5366 0.70574 0.0
C1729 C 0.73324 0.55181 0.71499 0.0
C1730 C 0.71928 0.51784 0.72044 0.0
C1731 C 0.73215 0.51414 0.7452 0.0
C1732 C 0.74529 0.5296 0.75508 0.0
C1733 C 0.74572 0.54818 0.73984 0.0
C1734 C 0.70509 0.50182 0.70906 0.0
C1735 C 0.75914 0.5264 0.78152 0.0
C1736 C 0.71957 0.4715 0.79964 0.0
C1737 C 0.73298 0.45631 0.79063 0.0
C1738 C 0.71901 0.49027 0.78496 0.0
C1739 C 0.73211 0.49401 0.76047 0.0
C1740 C 0.74538 0.47858 0.75085 0.0
C1741 C 0.7457 0.45998 0.76607 0.0
C1742 C 0.70467 0.50625 0.79606 0.0
C1743 C 0.75948 0.48182 0.72472 0.0
H1744 H 0.71028 0.53917 0.6865 0.0
H1745 H 0.75607 0.5598 0.74717 0.0
H1746 H 0.7138 0.48849 0.70157 0.0
H1747 H 0.69498 0.49678 0.7274 0.0
H1748 H 0.69572 0.50719 0.69001 0.0
H1749 H 0.76796 0.54011 0.78706 0.0
H1750 H 0.7503 0.52192 0.80157 0.0
H1751 H 0.76977 0.51396 0.77657 0.0
H1752 H 0.70972 0.46889 0.81865 0.0
H1753 H 0.75613 0.44839 0.75892 0.0
H1754 H 0.69471 0.51124 0.77752 0.0
H1755 H 0.71328 0.51962 0.80369 0.0
H1756 H 0.69516 0.50086 0.81493 0.0
H1757 H 0.75082 0.48626 0.70448 0.0
H1758 H 0.76841 0.46814 0.71937 0.0
H1759 H 0.77001 0.4943 0.72987 0.0
C1760 C 0.54888 0.75363 0.7701 0.0
C1761 C 0.55157 0.74041 0.79434 0.0
C1762 C 0.53063 0.75414 0.75395 0.0
C1763 C 0.51459 0.74121 0.76229 0.0
C1764 C 0.51732 0.72771 0.78657 0.0
C1765 C 0.53572 0.72744 0.80218 0.0
C1766 C 0.52846 0.76863 0.72805 0.0
C1767 C 0.50068 0.71365 0.79628 0.0
C1768 C 0.46088 0.75446 0.73825 0.0
C1769 C 0.458 0.74167 0.71354 0.0
C1770 C 0.47918 0.75448 0.75432 0.0
C1771 C 0.49507 0.74152 0.74539 0.0
C1772 C 0.4922 0.72858 0.72049 0.0
C1773 C 0.47376 0.72877 0.70499 0.0
C1774 C 0.48153 0.7684 0.78087 0.0
C1775 C 0.50868 0.71456 0.71008 0.0
H1776 H 0.56098 0.76375 0.7639 0.0
H1777 H 0.53756 0.71721 0.82094 0.0
H1778 H 0.5248 0.76026 0.7072 0.0
H1779 H 0.51583 0.77915 0.73242 0.0
H1780 H 0.54236 0.77756 0.72417 0.0
H1781 H 0.50513 0.70412 0.81567 0.0
H1782 H 0.48714 0.72246 0.80259 0.0
H1783 H 0.49635 0.70368 0.77737 0.0
H1784 H 0.44885 0.76449 0.74501 0.0
H1785 H 0.47178 0.71887 0.68588 0.0
H1786 H 0.49438 0.77875 0.77708 0.0
H1787 H 0.48495 0.75953 0.80135 0.0
H1788 H 0.46779 0.7775 0.78504 0.0
H1789 H 0.52237 0.72332 0.70436 0.0
H1790 H 0.50417 0.70559 0.69013 0.0
H1791 H 0.51281 0.70406 0.72843 0.0
C1792 C 0.25986 0.45852 0.73951 0.0
C1793 C 0.27258 0.45508 0.71487 0.0
C1794 C 0.26004 0.47703 0.75496 0.0
C1795 C 0.27318 0.49261 0.74551 0.0
C1796 C 0.28625 0.48912 0.72091 0.0
C1797 C 0.28584 0.47043 0.70599 0.0
C1798 C 0.24597 0.48 0.7812 0.0
C1799 C 0.30046 0.50527 0.71 0.0
C1800 C 0.25965 0.54662 0.76733 0.0
C1801 C 0.27229 0.55003 0.79206 0.0
C1802 C 0.25996 0.52814 0.75178 0.0
C1803 C 0.27313 0.51258 0.76123 0.0
C1804 C 0.2861 0.51605 0.78595 0.0
C1805 C 0.28556 0.53469 0.80096 0.0
C1806 C 0.24599 0.52518 0.72543 0.0
C1807 C 0.30033 0.49992 0.79688 0.0
H1808 H 0.24954 0.4468 0.74656 0.0
H1809 H 0.29567 0.46801 0.68692 0.0
H1810 H 0.25465 0.48423 0.80151 0.0
H1811 H 0.23542 0.49252 0.77637 0.0
H1812 H 0.23706 0.46626 0.78627 0.0
H1813 H 0.30989 0.50012 0.69089 0.0
H1814 H 0.29177 0.51869 0.7028 0.0
H1815 H 0.31051 0.51011 0.72853 0.0
H1816 H 0.24934 0.55834 0.76027 0.0
H1817 H 0.29535 0.5371 0.82009 0.0
H1818 H 0.23545 0.51262 0.73015 0.0
H1819 H 0.25476 0.52098 0.70517 0.0
H1820 H 0.23707 0.53891 0.72034 0.0
H1821 H 0.29166 0.48646 0.80399 0.0
H1822 H 0.30968 0.50506 0.81607 0.0
H1823 H 0.31045 0.49515 0.7784 0.0
C1824 C 0.47424 0.28297 0.7977 0.0
C1825 C 0.45854 0.26981 0.78987 0.0
C1826 C 0.49254 0.2831 0.7818 0.0
C1827 C 0.49531 0.26983 0.75726 0.0
C1828 C 0.47939 0.25676 0.74887 0.0
C1829 C 0.46124 0.25687 0.76529 0.0
C1830 C 0.50905 0.29727 0.79158 0.0
C1831 C 0.48161 0.24248 0.72273 0.0
C1832 C 0.53609 0.28224 0.69979 0.0
C1833 C 0.55176 0.2692 0.70817 0.0
C1834 C 0.51772 0.28259 0.71551 0.0
C1835 C 0.51485 0.26965 0.74042 0.0
C1836 C 0.53072 0.25666 0.74929 0.0
C1837 C 0.54894 0.25656 0.73305 0.0
C1838 C 0.50127 0.29668 0.70522 0.0
C1839 C 0.52837 0.24272 0.77582 0.0
H1840 H 0.47239 0.29299 0.8167 0.0
H1841 H 0.44925 0.24661 0.75909 0.0
H1842 H 0.52262 0.28855 0.79803 0.0
H1843 H 0.51341 0.30724 0.77268 0.0
H1844 H 0.50449 0.3068 0.81091 0.0
H1845 H 0.46773 0.23358 0.71863 0.0
H1846 H 0.48534 0.251 0.70204 0.0
H1847 H 0.49424 0.23192 0.727 0.0
H1848 H 0.53805 0.29204 0.68055 0.0
H1849 H 0.5609 0.24639 0.73968 0.0
H1850 H 0.49699 0.30698 0.72376 0.0
H1851 H 0.48765 0.28793 0.69913 0.0
H1852 H 0.50588 0.30586 0.68554 0.0
H1853 H 0.52476 0.25154 0.79628 0.0
H1854 H 0.54218 0.23374 0.78013 0.0
H1855 H 0.51565 0.23224 0.77187 0.0
C1856 C 0.25247 0.54641 0.23713 0.0
C1857 C 0.2654 0.54938 0.21261 0.0
C1858 C 0.2524 0.52808 0.25311 0.0
C1859 C 0.26546 0.51224 0.24429 0.0
C1860 C 0.27854 0.5152 0.21957 0.0
C1861 C 0.27839 0.53367 0.20416 0.0
C1862 C 0.23834 0.52564 0.27948 0.0
C1863 C 0.29267 0.49878 0.20927 0.0
C1864 C 0.2796 0.47154 0.30096 0.0
C1865 C 0.26679 0.45561 0.2929 0.0
C1866 C 0.27921 0.49 0.28551 0.0
C1867 C 0.26578 0.4927 0.26115 0.0
C1868 C 0.25298 0.4766 0.25262 0.0
C1869 C 0.25358 0.4583 0.26863 0.0
C1870 C 0.29311 0.50671 0.29545 0.0
C1871 C 0.23857 0.47874 0.22662 0.0
H1872 H 0.24236 0.5584 0.24381 0.0
H1873 H 0.2884 0.53572 0.18519 0.0
H1874 H 0.22807 0.51274 0.27555 0.0
H1875 H 0.24711 0.52224 0.30007 0.0
H1876 H 0.22914 0.53933 0.28356 0.0
H1877 H 0.3017 0.50333 0.18941 0.0
H1878 H 0.30312 0.4947 0.22771 0.0
H1879 H 0.28399 0.48506 0.20348 0.0
H1880 H 0.2898 0.46971 0.31975 0.0
H1881 H 0.24358 0.44614 0.26227 0.0
H1882 H 0.28419 0.52021 0.30163 0.0
H1883 H 0.30319 0.5111 0.27671 0.0
H1884 H 0.30252 0.50231 0.31499 0.0
H1885 H 0.228 0.49135 0.23092 0.0
H1886 H 0.2297 0.46482 0.22266 0.0
H1887 H 0.24701 0.48244 0.20584 0.0
C1888 C 0.54539 0.25686 0.26305 0.0
C1889 C 0.54898 0.26981 0.28736 0.0
C1890 C 0.52677 0.25697 0.24784 0.0
C1891 C 0.51127 0.27025 0.25722 0.0
C1892 C 0.5149 0.28347 0.28158 0.0
C1893 C 0.53366 0.28313 0.29623 0.0
C1894 C 0.52362 0.24275 0.22184 0.0
C1895 C 0.49886 0.29782 0.29245 0.0
C1896 C 0.46904 0.28328 0.20238 0.0
C1897 C 0.4535 0.27035 0.21161 0.0
C1898 C 0.48783 0.28341 0.21698 0.0
C1899 C 0.49126 0.27037 0.24162 0.0
C1900 C 0.47551 0.25753 0.25141 0.0
C1901 C 0.45688 0.25763 0.23626 0.0
C1902 C 0.50414 0.29731 0.20571 0.0
C1903 C 0.47841 0.24353 0.27774 0.0
H1904 H 0.55707 0.2465 0.25604 0.0
H1905 H 0.5362 0.29316 0.31504 0.0
H1906 H 0.51095 0.2324 0.22685 0.0
H1907 H 0.51948 0.25135 0.2014 0.0
H1908 H 0.53724 0.23363 0.21691 0.0
H1909 H 0.50406 0.3072 0.31159 0.0
H1910 H 0.49416 0.30793 0.27391 0.0
H1911 H 0.48534 0.28927 0.2996 0.0
H1912 H 0.46666 0.29311 0.18329 0.0
H1913 H 0.44502 0.24754 0.24354 0.0
H1914 H 0.51746 0.28839 0.19868 0.0
H1915 H 0.5091 0.3075 0.22401 0.0
H1916 H 0.49909 0.30661 0.1864 0.0
H1917 H 0.49084 0.23285 0.27293 0.0
H1918 H 0.46461 0.23476 0.28296 0.0
H1919 H 0.48278 0.25226 0.29795 0.0
C1920 C 0.73054 0.53299 0.30205 0.0
C1921 C 0.7432 0.54902 0.2939 0.0
C1922 C 0.73085 0.51462 0.28639 0.0
C1923 C 0.74406 0.51213 0.26171 0.0
C1924 C 0.75682 0.52827 0.25323 0.0
C1925 C 0.75629 0.5465 0.26946 0.0
C1926 C 0.71701 0.49786 0.29629 0.0
C1927 C 0.771 0.52631 0.22691 0.0
C1928 C 0.75626 0.45852 0.23609 0.0
C1929 C 0.74296 0.45601 0.21191 0.0
C1930 C 0.75688 0.4767 0.25242 0.0
C1931 C 0.74398 0.49283 0.2443 0.0
C1932 C 0.73053 0.49034 0.21992 0.0
C1933 C 0.73016 0.47202 0.20415 0.0
C1934 C 0.77132 0.47866 0.2784 0.0
C1935 C 0.71652 0.50707 0.21043 0.0
H1936 H 0.72043 0.5347 0.32097 0.0
H1937 H 0.76616 0.55875 0.26304 0.0
H1938 H 0.70657 0.49387 0.27779 0.0
H1939 H 0.72591 0.48419 0.30163 0.0
H1940 H 0.70797 0.50202 0.31634 0.0
H1941 H 0.78009 0.54014 0.22332 0.0
H1942 H 0.78137 0.51345 0.23053 0.0
H1943 H 0.76233 0.52313 0.20616 0.0
H1944 H 0.76625 0.44629 0.24222 0.0
H1945 H 0.71987 0.47032 0.18543 0.0
H1946 H 0.76287 0.48187 0.29935 0.0
H1947 H 0.78166 0.49151 0.27452 0.0
H1948 H 0.78044 0.46483 0.2818 0.0
H1949 H 0.70631 0.51104 0.22923 0.0
H1950 H 0.70723 0.50289 0.19065 0.0
H1951 H 0.72532 0.52075 0.20483 0.0
C1952 C 0.4595 0.7488 0.26864 0.0
C1953 C 0.4562 0.73599 0.2932 0.0
C1954 C 0.478 0.74879 0.25315 0.0
C1955 C 0.49368 0.73572 0.26249 0.0
C1956 C 0.49035 0.72262 0.28709 0.0
C1957 C 0.47169 0.72288 0.30205 0.0
C1958 C 0.48083 0.76289 0.22692 0.0
C1959 C 0.5066 0.70848 0.29786 0.0
C1960 C 0.53546 0.72286 0.20688 0.0
C1961 C 0.55098 0.73595 0.21568 0.0
C1962 C 0.51683 0.72261 0.22189 0.0
C1963 C 0.51354 0.7357 0.24651 0.0
C1964 C 0.52924 0.74876 0.2558 0.0
C1965 C 0.54772 0.74876 0.24026 0.0
C1966 C 0.50055 0.70848 0.21116 0.0
C1967 C 0.52645 0.76287 0.28204 0.0
H1968 H 0.44767 0.75901 0.26165 0.0
H1969 H 0.46936 0.71296 0.32105 0.0
H1970 H 0.49346 0.77337 0.23156 0.0
H1971 H 0.48486 0.75421 0.20651 0.0
H1972 H 0.46711 0.77188 0.22213 0.0
H1973 H 0.50163 0.69916 0.3172 0.0
H1974 H 0.51125 0.69831 0.27937 0.0
H1975 H 0.52009 0.7172 0.30468 0.0
H1976 H 0.53776 0.71293 0.18787 0.0
H1977 H 0.55957 0.75895 0.24722 0.0
H1978 H 0.48707 0.71721 0.20436 0.0
H1979 H 0.4959 0.69832 0.22967 0.0
H1980 H 0.5055 0.69915 0.19182 0.0
H1981 H 0.51383 0.77336 0.27742 0.0
H1982 H 0.54019 0.77183 0.28681 0.0
H1983 H 0.52241 0.75419 0.30245 0.0
C1984 C 0.19763 0.13941 0.23256 0.0
C1985 C 0.19005 0.13117 0.20593 0.0
C1986 C 0.18517 0.15077 0.25172 0.0
C1987 C 0.16455 0.15344 0.24444 0.0
C1988 C 0.15661 0.14405 0.21849 0.0
C1989 C 0.16952 0.13332 0.19931 0.0
C1990 C 0.19433 0.16079 0.2789 0.0
C1991 C 0.13462 0.14591 0.21042 0.0
C1992 C 0.13133 0.17198 0.30829 0.0
C1993 C 0.12978 0.1926 0.30193 0.0
C1994 C 0.1418 0.15889 0.28906 0.0
C1995 C 0.15153 0.16671 0.26332 0.0
C1996 C 0.14947 0.18744 0.25628 0.0
C1997 C 0.13836 0.2001 0.27548 0.0
C1998 C 0.14301 0.13681 0.29687 0.0
C1999 C 0.15987 0.19648 0.22933 0.0
H2000 H 0.21355 0.13804 0.23747 0.0
H2001 H 0.16364 0.12696 0.17868 0.0
H2002 H 0.19307 0.17738 0.27665 0.0
H2003 H 0.18601 0.15642 0.29947 0.0
H2004 H 0.21045 0.15682 0.28187 0.0
H2005 H 0.13042 0.13602 0.1913 0.0
H2006 H 0.12507 0.14201 0.23002 0.0
H2007 H 0.13115 0.1617 0.20422 0.0
H2008 H 0.1247 0.16615 0.32878 0.0
H2009 H 0.13746 0.21609 0.27078 0.0
H2010 H 0.15866 0.13288 0.30322 0.0
H2011 H 0.13897 0.12748 0.2771 0.0
H2012 H 0.1329 0.13277 0.31581 0.0
H2013 H 0.17641 0.19476 0.23176 0.0
H2014 H 0.15635 0.21271 0.2265 0.0
H2015 H 0.1554 0.18839 0.20861 0.0
C2016 C 0.87249 0.17282 0.19341 0.0
C2017 C 0.87498 0.19323 0.20059 0.0
C2018 C 0.86174 0.15981 0.21242 0.0
C2019 C 0.85265 0.16753 0.23875 0.0
C2020 C 0.85558 0.18804 0.24651 0.0
C2021 C 0.86698 0.20059 0.22753 0.0
C2022 C 0.85964 0.13792 0.20384 0.0
C2023 C 0.84583 0.197 0.27406 0.0
C2024 C 0.806 0.14138 0.26985 0.0
C2025 C 0.81358 0.13252 0.29603 0.0
C2026 C 0.81861 0.15258 0.25073 0.0
C2027 C 0.8394 0.15443 0.25754 0.0
C2028 C 0.8473 0.14441 0.28301 0.0
C2029 C 0.83423 0.1339 0.30223 0.0
C2030 C 0.80949 0.16334 0.22417 0.0
C2031 C 0.86943 0.14535 0.29052 0.0
H2032 H 0.87868 0.16711 0.17255 0.0
H2033 H 0.86863 0.21642 0.23289 0.0
H2034 H 0.86365 0.12814 0.22313 0.0
H2035 H 0.84376 0.13464 0.1979 0.0
H2036 H 0.86931 0.13386 0.18442 0.0
H2037 H 0.84987 0.21308 0.27726 0.0
H2038 H 0.82921 0.1958 0.27213 0.0
H2039 H 0.85036 0.18849 0.29438 0.0
H2040 H 0.78998 0.14061 0.26531 0.0
H2041 H 0.84009 0.12708 0.32254 0.0
H2042 H 0.81738 0.15899 0.20321 0.0
H2043 H 0.81139 0.17984 0.22693 0.0
H2044 H 0.7932 0.16001 0.22153 0.0
H2045 H 0.8786 0.14146 0.2705 0.0
H2046 H 0.8735 0.13498 0.30912 0.0
H2047 H 0.87353 0.16089 0.29723 0.0
C2048 C 0.84907 0.81643 0.31618 0.0
C2049 C 0.8687 0.80991 0.3095 0.0
C2050 C 0.83811 0.82847 0.29619 0.0
C2051 C 0.84703 0.83459 0.26885 0.0
C2052 C 0.86705 0.82857 0.26221 0.0
C2053 C 0.87758 0.81607 0.28245 0.0
C2054 C 0.81664 0.83397 0.30387 0.0
C2055 C 0.87721 0.8351 0.23352 0.0
C2056 C 0.81111 0.84499 0.20443 0.0
C2057 C 0.80894 0.86599 0.2056 0.0
C2058 C 0.82357 0.83471 0.22466 0.0
C2059 C 0.83464 0.8457 0.24629 0.0
C2060 C 0.83272 0.86697 0.24743 0.0
C2061 C 0.81963 0.87687 0.22732 0.0
C2062 C 0.82455 0.81201 0.2232 0.0
C2063 C 0.84457 0.87924 0.26979 0.0
H2064 H 0.84194 0.81162 0.33686 0.0
H2065 H 0.89276 0.81124 0.27719 0.0
H2066 H 0.81459 0.85052 0.30296 0.0
H2067 H 0.80627 0.82726 0.2871 0.0
H2068 H 0.81216 0.82862 0.32654 0.0
H2069 H 0.89338 0.83085 0.23299 0.0
H2070 H 0.86958 0.82806 0.21402 0.0
H2071 H 0.87594 0.85165 0.23079 0.0
H2072 H 0.80275 0.83649 0.18779 0.0
H2073 H 0.81815 0.89311 0.22806 0.0
H2074 H 0.81952 0.80549 0.24488 0.0
H2075 H 0.84029 0.80704 0.2195 0.0
H2076 H 0.81502 0.80573 0.20498 0.0
H2077 H 0.84001 0.87518 0.29297 0.0
H2078 H 0.84233 0.89567 0.26667 0.0
H2079 H 0.86085 0.87578 0.26765 0.0
C2080 C 0.17157 0.87131 0.30541 0.0
C2081 C 0.19204 0.87374 0.29856 0.0
C2082 C 0.15863 0.86072 0.2861 0.0
C2083 C 0.16649 0.85173 0.25977 0.0
C2084 C 0.18704 0.85469 0.25226 0.0
C2085 C 0.19951 0.86592 0.27156 0.0
C2086 C 0.13671 0.85856 0.29444 0.0
C2087 C 0.19612 0.84508 0.2247 0.0
C2088 C 0.14034 0.80507 0.22869 0.0
C2089 C 0.1314 0.81265 0.20258 0.0
C2090 C 0.15165 0.81767 0.24768 0.0
C2091 C 0.1535 0.83845 0.24084 0.0
C2092 C 0.14348 0.84634 0.21537 0.0
C2093 C 0.13288 0.83327 0.19625 0.0
C2094 C 0.16243 0.80855 0.27423 0.0
C2095 C 0.1444 0.86847 0.20785 0.0
H2096 H 0.16576 0.87736 0.32629 0.0
H2097 H 0.21539 0.86751 0.26645 0.0
H2098 H 0.127 0.86251 0.27504 0.0
H2099 H 0.13346 0.84269 0.30042 0.0
H2100 H 0.13253 0.86825 0.31379 0.0
H2101 H 0.21215 0.84932 0.22152 0.0
H2102 H 0.19513 0.82845 0.22662 0.0
H2103 H 0.18757 0.84951 0.20437 0.0
H2104 H 0.13949 0.78907 0.23331 0.0
H2105 H 0.12599 0.83913 0.17598 0.0
H2106 H 0.15791 0.81631 0.29522 0.0
H2107 H 0.17892 0.81065 0.27162 0.0
H2108 H 0.15928 0.79222 0.2767 0.0
H2109 H 0.14036 0.87762 0.22781 0.0
H2110 H 0.13415 0.87251 0.18909 0.0
H2111 H 0.15998 0.87262 0.20139 0.0
C2112 C 0.87329 0.83481 0.69985 0.0
C2113 C 0.87516 0.8143 0.7068 0.0
C2114 C 0.86272 0.84801 0.71881 0.0
C2115 C 0.85318 0.84039 0.74485 0.0
C2116 C 0.85552 0.81977 0.75242 0.0
C2117 C 0.86674 0.80702 0.73351 0.0
C2118 C 0.86124 0.86998 0.71043 0.0
C2119 C 0.8453 0.81094 0.77968 0.0
C2120 C 0.83517 0.87432 0.80826 0.0
C2121 C 0.81459 0.87623 0.80181 0.0
C2122 C 0.84809 0.86349 0.7892 0.0
C2123 C 0.84012 0.85375 0.76356 0.0
C2124 C 0.81943 0.85616 0.75645 0.0
C2125 C 0.80696 0.86762 0.77546 0.0
C2126 C 0.87014 0.86193 0.79707 0.0
C2127 C 0.81024 0.84576 0.72962 0.0
H2128 H 0.87978 0.84046 0.67916 0.0
H2129 H 0.86788 0.79112 0.73866 0.0
H2130 H 0.84551 0.87367 0.70418 0.0
H2131 H 0.8653 0.87958 0.72991 0.0
H2132 H 0.8712 0.87389 0.69127 0.0
H2133 H 0.84896 0.79476 0.78284 0.0
H2134 H 0.84981 0.81927 0.80017 0.0
H2135 H 0.82874 0.81251 0.77739 0.0
H2136 H 0.8411 0.88097 0.82866 0.0
H2137 H 0.79101 0.86881 0.77069 0.0
H2138 H 0.87955 0.86571 0.77728 0.0
H2139 H 0.87379 0.84623 0.80359 0.0
H2140 H 0.87433 0.87205 0.81591 0.0
H2141 H 0.81841 0.84998 0.70885 0.0
H2142 H 0.79406 0.84954 0.72674 0.0
H2143 H 0.81167 0.82921 0.73226 0.0
C2144 C 0.20136 0.86721 0.72907 0.0
C2145 C 0.1939 0.87538 0.70232 0.0
C2146 C 0.18883 0.85589 0.74816 0.0
C2147 C 0.16823 0.85322 0.74072 0.0
C2148 C 0.16041 0.8625 0.7146 0.0
C2149 C 0.17341 0.87316 0.69547 0.0
C2150 C 0.19787 0.84594 0.77548 0.0
C2151 C 0.13844 0.86067 0.70637 0.0
C2152 C 0.14187 0.80671 0.77187 0.0
C2153 C 0.13329 0.81427 0.79828 0.0
C2154 C 0.15303 0.81929 0.75265 0.0
C2155 C 0.15512 0.84003 0.7596 0.0
C2156 C 0.14537 0.84793 0.78529 0.0
C2157 C 0.13489 0.83489 0.80459 0.0
C2158 C 0.16348 0.81017 0.72581 0.0
C2159 C 0.14657 0.87003 0.79297 0.0
H2160 H 0.21725 0.86864 0.73416 0.0
H2161 H 0.16762 0.87949 0.67476 0.0
H2162 H 0.18954 0.85047 0.79598 0.0
H2163 H 0.1965 0.82935 0.77341 0.0
H2164 H 0.21401 0.84981 0.77848 0.0
H2165 H 0.13434 0.8705 0.68714 0.0
H2166 H 0.13496 0.84487 0.70029 0.0
H2167 H 0.12884 0.86467 0.72586 0.0
H2168 H 0.14093 0.79071 0.76723 0.0
H2169 H 0.12827 0.84076 0.82506 0.0
H2170 H 0.18002 0.81188 0.7283 0.0
H2171 H 0.15906 0.81819 0.70501 0.0
H2172 H 0.15996 0.79393 0.72308 0.0
H2173 H 0.1622 0.87396 0.79945 0.0
H2174 H 0.13638 0.87413 0.81177 0.0
H2175 H 0.14263 0.8793 0.77309 0.0
C2176 C 0.14158 0.19959 0.73389 0.0
C2177 C 0.13296 0.19203 0.70752 0.0
C2178 C 0.15314 0.1871 0.75272 0.0
C2179 C 0.15562 0.16646 0.7454 0.0
C2180 C 0.14584 0.15853 0.71977 0.0
C2181 C 0.13492 0.17148 0.70089 0.0
C2182 C 0.16358 0.19625 0.77955 0.0
C2183 C 0.14748 0.13653 0.71169 0.0
C2184 C 0.20268 0.14019 0.77491 0.0
C2185 C 0.19557 0.13167 0.80163 0.0
C2186 C 0.18976 0.15129 0.7561 0.0
C2187 C 0.16914 0.15342 0.76385 0.0
C2188 C 0.16169 0.14374 0.78988 0.0
C2189 C 0.17505 0.13328 0.80869 0.0
C2190 C 0.1984 0.16163 0.72882 0.0
C2191 C 0.13974 0.14502 0.79844 0.0
H2192 H 0.14036 0.21553 0.73878 0.0
H2193 H 0.12827 0.16561 0.68044 0.0
H2194 H 0.1595 0.18795 0.80028 0.0
H2195 H 0.18013 0.19495 0.77675 0.0
H2196 H 0.1597 0.21238 0.78265 0.0
H2197 H 0.13725 0.13234 0.69297 0.0
H2198 H 0.16315 0.133 0.70491 0.0
H2199 H 0.14388 0.12702 0.73146 0.0
H2200 H 0.21859 0.13923 0.76966 0.0
H2201 H 0.16952 0.12669 0.82938 0.0
H2202 H 0.19676 0.17818 0.73124 0.0
H2203 H 0.18999 0.15714 0.70839 0.0
H2204 H 0.21458 0.15807 0.72545 0.0
H2205 H 0.13595 0.16069 0.80489 0.0
H2206 H 0.13597 0.13493 0.81753 0.0
H2207 H 0.1301 0.14098 0.779 0.0
C2208 C 0.8719 0.17294 0.80339 0.0
C2209 C 0.87355 0.19357 0.79717 0.0
C2210 C 0.86143 0.15995 0.78399 0.0
C2211 C 0.85173 0.16791 0.75829 0.0
C2212 C 0.85383 0.18868 0.75149 0.0
C2213 C 0.86498 0.20121 0.7708 0.0
C2214 C 0.86022 0.13783 0.79152 0.0
C2215 C 0.84341 0.19787 0.72468 0.0
C2216 C 0.83381 0.13484 0.69382 0.0
C2217 C 0.81333 0.13243 0.70056 0.0
C2218 C 0.84669 0.14556 0.71308 0.0
C2219 C 0.83873 0.15474 0.7392 0.0
C2220 C 0.81812 0.15193 0.74648 0.0
C2221 C 0.80573 0.14053 0.72728 0.0
C2222 C 0.86867 0.14753 0.70501 0.0
C2223 C 0.80893 0.16179 0.77377 0.0
H2224 H 0.87849 0.16702 0.82383 0.0
H2225 H 0.86596 0.21721 0.76624 0.0
H2226 H 0.84457 0.13386 0.79781 0.0
H2227 H 0.86428 0.12862 0.77163 0.0
H2228 H 0.87033 0.13369 0.81041 0.0
H2229 H 0.84688 0.21414 0.72212 0.0
H2230 H 0.84792 0.18995 0.70383 0.0
H2231 H 0.82687 0.19608 0.72706 0.0
H2232 H 0.83971 0.12857 0.67312 0.0
H2233 H 0.78984 0.13896 0.73228 0.0
H2234 H 0.87822 0.14345 0.72452 0.0
H2235 H 0.87211 0.16338 0.69916 0.0
H2236 H 0.87288 0.13783 0.68568 0.0
H2237 H 0.81717 0.15722 0.79431 0.0
H2238 H 0.79278 0.15787 0.77658 0.0
H2239 H 0.81027 0.17839 0.77182 0.0
C2240 C 0.68838 0.6309 0.72921 0.0
C2241 C 0.69652 0.64101 0.7044 0.0
C2242 C 0.67565 0.64099 0.74963 0.0
C2243 C 0.67146 0.66177 0.74551 0.0
C2244 C 0.67976 0.67199 0.72057 0.0
C2245 C 0.69197 0.66147 0.70026 0.0
C2246 C 0.66678 0.6295 0.77567 0.0
C2247 C 0.67626 0.69423 0.71573 0.0
C2248 C 0.62862 0.68981 0.78461 0.0
C2249 C 0.63872 0.69851 0.80899 0.0
C2250 C 0.63885 0.67701 0.76445 0.0
C2251 C 0.65974 0.67337 0.76831 0.0
C2252 C 0.66995 0.68225 0.79284 0.0
C2253 C 0.65929 0.69445 0.81298 0.0
C2254 C 0.62736 0.66749 0.73892 0.0
C2255 C 0.69232 0.6794 0.79732 0.0
H2256 H 0.69171 0.61507 0.73241 0.0
H2257 H 0.69835 0.66949 0.68132 0.0
H2258 H 0.67283 0.63546 0.7971 0.0
H2259 H 0.65021 0.63157 0.77623 0.0
H2260 H 0.67017 0.61315 0.77443 0.0
H2261 H 0.68352 0.69986 0.69489 0.0
H2262 H 0.6599 0.69742 0.71442 0.0
H2263 H 0.68231 0.70285 0.73507 0.0
H2264 H 0.6127 0.69275 0.78158 0.0
H2265 H 0.66726 0.70129 0.83162 0.0
H2266 H 0.62993 0.65098 0.73871 0.0
H2267 H 0.63289 0.67349 0.71721 0.0
H2268 H 0.61092 0.67038 0.74049 0.0
H2269 H 0.69598 0.66315 0.79885 0.0
H2270 H 0.69791 0.68699 0.81791 0.0
H2271 H 0.7006 0.68553 0.77771 0.0
C2272 C 0.3082 0.64181 0.77446 0.0
C2273 C 0.3154 0.6336 0.80134 0.0
C2274 C 0.32093 0.6531 0.75564 0.0
C2275 C 0.34147 0.6557 0.76349 0.0
C2276 C 0.34902 0.64641 0.78978 0.0
C2277 C 0.33581 0.63579 0.80865 0.0
C2278 C 0.31217 0.66308 0.72813 0.0
C2279 C 0.37092 0.64817 0.79845 0.0
C2280 C 0.37552 0.67357 0.7002 0.0
C2281 C 0.37718 0.69421 0.70634 0.0
C2282 C 0.36476 0.66068 0.71937 0.0
C2283 C 0.35483 0.66874 0.74478 0.0
C2284 C 0.357 0.68949 0.75161 0.0
C2285 C 0.36841 0.70194 0.7325 0.0
C2286 C 0.36345 0.63857 0.71182 0.0
C2287 C 0.34636 0.69878 0.77817 0.0
H2288 H 0.29235 0.6404 0.76905 0.0
H2289 H 0.34138 0.62946 0.82949 0.0
H2290 H 0.31365 0.67966 0.73016 0.0
H2291 H 0.32062 0.65845 0.7078 0.0
H2292 H 0.29603 0.65932 0.72487 0.0
H2293 H 0.37479 0.63842 0.81788 0.0
H2294 H 0.38067 0.64401 0.7792 0.0
H2295 H 0.37444 0.66398 0.80442 0.0
H2296 H 0.38229 0.66758 0.67992 0.0
H2297 H 0.36939 0.71794 0.73702 0.0
H2298 H 0.34785 0.63474 0.70507 0.0
H2299 H 0.36715 0.62932 0.73182 0.0
H2300 H 0.37377 0.63433 0.69323 0.0
H2301 H 0.32984 0.69723 0.77531 0.0
H2302 H 0.35002 0.71499 0.78089 0.0
H2303 H 0.3505 0.69076 0.79911 0.0
C2304 C 0.37968 0.31667 0.78113 0.0
C2305 C 0.37122 0.3106 0.80853 0.0
C2306 C 0.36884 0.32909 0.76116 0.0
C2307 C 0.34893 0.33514 0.76843 0.0
C2308 C 0.34045 0.32916 0.79615 0.0
C2309 C 0.35172 0.31719 0.81587 0.0
C2310 C 0.37854 0.33547 0.73205 0.0
C2311 C 0.31911 0.33472 0.80453 0.0
C2312 C 0.3211 0.37722 0.72708 0.0
C2313 C 0.31015 0.36623 0.70576 0.0
C2314 C 0.33436 0.36741 0.74704 0.0
C2315 C 0.33619 0.34612 0.74615 0.0
C2316 C 0.32484 0.33503 0.72498 0.0
C2317 C 0.31221 0.34522 0.70487 0.0
C2318 C 0.34651 0.37978 0.7689 0.0
C2319 C 0.32574 0.31232 0.72384 0.0
H2320 H 0.39475 0.31179 0.77536 0.0
H2321 H 0.3449 0.31247 0.83683 0.0
H2322 H 0.37064 0.32828 0.71291 0.0
H2323 H 0.37719 0.352 0.72912 0.0
H2324 H 0.39471 0.33125 0.73103 0.0
H2325 H 0.31502 0.32955 0.82745 0.0
H2326 H 0.31704 0.35126 0.80339 0.0
H2327 H 0.30847 0.32787 0.78827 0.0
H2328 H 0.3197 0.39347 0.72761 0.0
H2329 H 0.30366 0.33665 0.68854 0.0
H2330 H 0.36276 0.37636 0.76623 0.0
H2331 H 0.34232 0.3758 0.79226 0.0
H2332 H 0.34419 0.3962 0.76572 0.0
H2333 H 0.3414 0.30729 0.71963 0.0
H2334 H 0.31589 0.30595 0.70606 0.0
H2335 H 0.32105 0.30596 0.74579 0.0
C2336 C 0.62798 0.31827 0.71927 0.0
C2337 C 0.63762 0.3114 0.69323 0.0
C2338 C 0.63813 0.33085 0.73982 0.0
C2339 C 0.65855 0.3361 0.7346 0.0
C2340 C 0.66827 0.32918 0.7083 0.0
C2341 C 0.65765 0.31717 0.68787 0.0
C2342 C 0.62713 0.33829 0.7673 0.0
C2343 C 0.69017 0.33378 0.70225 0.0
C2344 C 0.6861 0.3782 0.7762 0.0
C2345 C 0.69571 0.36739 0.79911 0.0
C2346 C 0.67323 0.36838 0.7557 0.0
C2347 C 0.67045 0.34723 0.75769 0.0
C2348 C 0.68034 0.33632 0.78062 0.0
C2349 C 0.6926 0.34654 0.80117 0.0
C2350 C 0.66263 0.38058 0.73192 0.0
C2351 C 0.67841 0.31371 0.78305 0.0
H2352 H 0.61248 0.31398 0.72343 0.0
H2353 H 0.66533 0.31174 0.66798 0.0
H2354 H 0.63375 0.33141 0.78772 0.0
H2355 H 0.62887 0.35484 0.76943 0.0
H2356 H 0.61083 0.33458 0.76661 0.0
H2357 H 0.69533 0.32776 0.68029 0.0
H2358 H 0.69275 0.35027 0.70252 0.0
H2359 H 0.69964 0.32714 0.72023 0.0
H2360 H 0.68831 0.39433 0.77472 0.0
H2361 H 0.70013 0.33806 0.81868 0.0
H2362 H 0.6462 0.37758 0.73267 0.0
H2363 H 0.66802 0.37605 0.70934 0.0
H2364 H 0.66517 0.397 0.73471 0.0
H2365 H 0.66237 0.30941 0.78555 0.0
H2366 H 0.68695 0.3075 0.80238 0.0
H2367 H 0.68405 0.30653 0.76218 0.0
C2368 C 0.34584 0.31723 0.19365 0.0
C2369 C 0.3654 0.31022 0.19977 0.0
C2370 C 0.33541 0.32947 0.21403 0.0
C2371 C 0.34477 0.33527 0.24119 0.0
C2372 C 0.3647 0.32871 0.24729 0.0
C2373 C 0.3747 0.31606 0.22666 0.0
C2374 C 0.31402 0.33558 0.20689 0.0
C2375 C 0.37532 0.33487 0.27578 0.0
C2376 C 0.31891 0.37839 0.28304 0.0
C2377 C 0.30808 0.36787 0.30501 0.0
C2378 C 0.33163 0.36808 0.26283 0.0
C2379 C 0.33295 0.34676 0.26405 0.0
C2380 C 0.32176 0.33615 0.28598 0.0
C2381 C 0.30975 0.34684 0.30638 0.0
C2382 C 0.34366 0.37996 0.24023 0.0
C2383 C 0.32209 0.31344 0.28751 0.0
H2384 H 0.33838 0.31272 0.17312 0.0
H2385 H 0.38983 0.31085 0.2315 0.0
H2386 H 0.30366 0.32925 0.22399 0.0
H2387 H 0.31249 0.35219 0.20773 0.0
H2388 H 0.30911 0.33031 0.18438 0.0
H2389 H 0.39135 0.33009 0.27597 0.0
H2390 H 0.37462 0.35145 0.27857 0.0
H2391 H 0.36765 0.32806 0.29543 0.0
H2392 H 0.31782 0.39465 0.28215 0.0
H2393 H 0.30128 0.33864 0.32322 0.0
H2394 H 0.33867 0.37614 0.21716 0.0
H2395 H 0.35983 0.37591 0.2419 0.0
H2396 H 0.34207 0.39646 0.24351 0.0
H2397 H 0.31659 0.30705 0.26599 0.0
H2398 H 0.31259 0.30748 0.30602 0.0
H2399 H 0.33772 0.308 0.29078 0.0
C2400 C 0.64077 0.30685 0.26913 0.0
C2401 C 0.63252 0.31408 0.29597 0.0
C2402 C 0.65217 0.31955 0.25038 0.0
C2403 C 0.65485 0.34008 0.25828 0.0
C2404 C 0.64549 0.34766 0.2845 0.0
C2405 C 0.63475 0.3345 0.30328 0.0
C2406 C 0.66219 0.31076 0.22293 0.0
C2407 C 0.64734 0.36954 0.29323 0.0
C2408 C 0.70135 0.36694 0.22796 0.0
C2409 C 0.69378 0.37588 0.20182 0.0
C2410 C 0.68878 0.35546 0.24679 0.0
C2411 C 0.66805 0.35338 0.23973 0.0
C2412 C 0.66015 0.36345 0.21432 0.0
C2413 C 0.67316 0.37428 0.19542 0.0
C2414 C 0.69789 0.34469 0.27335 0.0
C2415 C 0.63807 0.36225 0.20653 0.0
H2416 H 0.63933 0.29101 0.26372 0.0
H2417 H 0.62838 0.3401 0.32408 0.0
H2418 H 0.65774 0.3193 0.2026 0.0
H2419 H 0.67878 0.31209 0.22514 0.0
H2420 H 0.6583 0.29466 0.21955 0.0
H2421 H 0.63752 0.37346 0.31256 0.0
H2422 H 0.66315 0.37296 0.29937 0.0
H2423 H 0.64333 0.37934 0.27396 0.0
H2424 H 0.71733 0.36787 0.23268 0.0
H2425 H 0.66728 0.38119 0.17518 0.0
H2426 H 0.69621 0.32819 0.27042 0.0
H2427 H 0.68985 0.34886 0.29426 0.0
H2428 H 0.71413 0.34821 0.2762 0.0
H2429 H 0.63419 0.34665 0.19977 0.0
H2430 H 0.63397 0.37257 0.18788 0.0
H2431 H 0.62875 0.36601 0.22643 0.0
C2432 C 0.67364 0.63072 0.30867 0.0
C2433 C 0.69428 0.62926 0.30241 0.0
C2434 C 0.66059 0.64136 0.28959 0.0
C2435 C 0.66847 0.65136 0.26411 0.0
C2436 C 0.68923 0.6494 0.25718 0.0
C2437 C 0.70185 0.63812 0.27621 0.0
C2438 C 0.63848 0.64244 0.29726 0.0
C2439 C 0.69833 0.6601 0.23054 0.0
C2440 C 0.63525 0.66992 0.20026 0.0
C2441 C 0.63298 0.69037 0.20735 0.0
C2442 C 0.64596 0.65685 0.21921 0.0
C2443 C 0.65523 0.66454 0.24542 0.0
C2444 C 0.65247 0.68508 0.25315 0.0
C2445 C 0.64112 0.69769 0.23422 0.0
C2446 C 0.6479 0.63494 0.21065 0.0
C2447 C 0.66237 0.69399 0.28061 0.0
H2448 H 0.66776 0.62388 0.32897 0.0
H2449 H 0.71785 0.63729 0.27159 0.0
H2450 H 0.63449 0.65802 0.30393 0.0
H2451 H 0.62923 0.63857 0.27734 0.0
H2452 H 0.6344 0.63213 0.31594 0.0
H2453 H 0.71459 0.65666 0.22777 0.0
H2454 H 0.69034 0.65581 0.20965 0.0
H2455 H 0.69656 0.67661 0.23332 0.0
H2456 H 0.62896 0.66423 0.17946 0.0
H2457 H 0.63966 0.71356 0.2395 0.0
H2458 H 0.64395 0.62519 0.23 0.0
H2459 H 0.66373 0.63158 0.20451 0.0
H2460 H 0.6381 0.63092 0.19136 0.0
H2461 H 0.65793 0.68547 0.30096 0.0
H2462 H 0.65837 0.71007 0.2839 0.0
H2463 H 0.67897 0.69277 0.27847 0.0
C2464 C 0.33353 0.63162 0.20092 0.0
C2465 C 0.31279 0.63027 0.20649 0.0
C2466 C 0.34631 0.64234 0.22032 0.0
C2467 C 0.33804 0.65257 0.24533 0.0
C2468 C 0.31717 0.65073 0.25155 0.0
C2469 C 0.30484 0.63935 0.23227 0.0
C2470 C 0.36854 0.64327 0.21345 0.0
C2471 C 0.30767 0.6617 0.27764 0.0
C2472 C 0.37032 0.67159 0.30996 0.0
C2473 C 0.37289 0.69193 0.30242 0.0
C2474 C 0.3598 0.6584 0.29095 0.0
C2475 C 0.35101 0.66588 0.26424 0.0
C2476 C 0.35401 0.68632 0.25616 0.0
C2477 C 0.36519 0.69904 0.27515 0.0
C2478 C 0.35761 0.63659 0.29991 0.0
C2479 C 0.34457 0.69501 0.22818 0.0
H2480 H 0.33969 0.62464 0.18093 0.0
H2481 H 0.28876 0.63861 0.23631 0.0
H2482 H 0.37269 0.65876 0.20655 0.0
H2483 H 0.37744 0.6396 0.2338 0.0
H2484 H 0.37289 0.63275 0.19518 0.0
H2485 H 0.29136 0.65831 0.27989 0.0
H2486 H 0.31531 0.65759 0.2989 0.0
H2487 H 0.30952 0.67818 0.27457 0.0
H2488 H 0.37628 0.66607 0.33107 0.0
H2489 H 0.3669 0.71483 0.26953 0.0
H2490 H 0.36191 0.62664 0.28095 0.0
H2491 H 0.34166 0.63333 0.30542 0.0
H2492 H 0.36702 0.63272 0.3197 0.0
H2493 H 0.34939 0.68635 0.20815 0.0
H2494 H 0.34861 0.71108 0.22479 0.0
H2495 H 0.32794 0.69378 0.22968 0.0
loop_
_geom_bond_atom_site_label_1
_geom_bond_atom_site_label_2
_geom_bond_distance
_geom_bond_site_symmetry_2
_ccdc_geom_bond_type
Co0 O1 2.216 . S
Co0 O2 2.091 . S
Co0 O4 2.004 . S
Co0 O10 2.021 . S
Co0 O12 2.137 . S
Co0 O13 2.244 . S
O1 Co0 2.216 . S
O1 C8 1.247 . S
O2 Co0 2.091 . S
O2 C8 1.261 . S
C3 O12 1.247 . S
C3 O13 1.272 . S
O4 Co0 2.004 . S
O4 C9 1.259 . S
Co5 O6 2.061 . S
Co5 O11 2.052 . S
Co5 O13 2.135 . S
O6 Co5 2.061 . S
O6 C9 1.235 . S
C7 O10 1.238 . S
C7 O11 1.241 . S
C8 O1 1.247 . S
C8 O2 1.261 . S
C9 O4 1.259 . S
C9 O6 1.235 . S
O10 Co0 2.021 . S
O10 C7 1.238 . S
O11 Co5 2.052 . S
O11 C7 1.241 . S
O12 Co0 2.137 . S
O12 C3 1.247 . S
O13 Co0 2.244 . S
O13 C3 1.272 . S
O13 Co5 2.135 . S
Co14 O15 2.216 . S
Co14 O16 2.091 . S
Co14 O18 2.004 . S
Co14 O24 2.021 . S
Co14 O26 2.137 . S
Co14 O27 2.244 . S
O15 Co14 2.216 . S
O15 C22 1.247 . S
O16 Co14 2.091 . S
O16 C22 1.261 . S
C17 O26 1.247 . S
C17 O27 1.272 . S
O18 Co14 2.004 . S
O18 C23 1.259 . S
Co19 O20 2.061 . S
Co19 O25 2.052 . S
Co19 O27 2.135 . S
O20 Co19 2.061 . S
O20 C23 1.235 . S
C21 O24 1.238 . S
C21 O25 1.241 . S
C22 O15 1.247 . S
C22 O16 1.261 . S
C23 O18 1.259 . S
C23 O20 1.235 . S
O24 Co14 2.021 . S
O24 C21 1.238 . S
O25 Co19 2.052 . S
O25 C21 1.241 . S
O26 Co14 2.137 . S
O26 C17 1.247 . S
O27 Co14 2.244 . S
O27 C17 1.272 . S
O27 Co19 2.135 . S
Co28 O29 2.216 . S
Co28 O30 2.091 . S
Co28 O32 2.004 . S
Co28 O38 2.021 . S
Co28 O40 2.137 . S
Co28 O41 2.244 . S
O29 Co28 2.216 . S
O29 C36 1.247 . S
O30 Co28 2.091 . S
O30 C36 1.261 . S
C31 O40 1.247 . S
C31 O41 1.272 . S
O32 Co28 2.004 . S
O32 C37 1.259 . S
Co33 O34 2.061 . S
Co33 O39 2.052 . S
Co33 O41 2.135 . S
O34 Co33 2.061 . S
O34 C37 1.235 . S
C35 O38 1.238 . S
C35 O39 1.241 . S
C36 O29 1.247 . S
C36 O30 1.261 . S
C37 O32 1.259 . S
C37 O34 1.235 . S
O38 Co28 2.021 . S
O38 C35 1.238 . S
O39 Co33 2.052 . S
O39 C35 1.241 . S
O40 Co28 2.137 . S
O40 C31 1.247 . S
O41 Co28 2.244 . S
O41 C31 1.272 . S
O41 Co33 2.135 . S
Co42 O43 2.216 . S
Co42 O44 2.091 . S
Co42 O46 2.004 . S
Co42 O52 2.021 . S
Co42 O54 2.137 . S
Co42 O55 2.244 . S
O43 Co42 2.216 . S
O43 C50 1.247 . S
O44 Co42 2.091 . S
O44 C50 1.261 . S
C45 O54 1.247 . S
C45 O55 1.272 . S
O46 Co42 2.004 . S
O46 C51 1.259 . S
Co47 O48 2.061 . S
Co47 O53 2.052 . S
Co47 O55 2.135 . S
O48 Co47 2.061 . S
O48 C51 1.235 . S
C49 O52 1.238 . S
C49 O53 1.241 . S
C50 O43 1.247 . S
C50 O44 1.261 . S
C51 O46 1.259 . S
C51 O48 1.235 . S
O52 Co42 2.021 . S
O52 C49 1.238 . S
O53 Co47 2.052 . S
O53 C49 1.241 . S
O54 Co42 2.137 . S
O54 C45 1.247 . S
O55 Co42 2.244 . S
O55 C45 1.272 . S
O55 Co47 2.135 . S
Co56 O57 2.216 . S
Co56 O58 2.091 . S
Co56 O60 2.004 . S
Co56 O66 2.021 . S
Co56 O68 2.137 . S
Co56 O69 2.244 . S
O57 Co56 2.216 . S
O57 C64 1.247 . S
O58 Co56 2.091 . S
O58 C64 1.261 . S
C59 O68 1.247 . S
C59 O69 1.272 . S
O60 Co56 2.004 . S
O60 C65 1.259 . S
Co61 O62 2.061 . S
Co61 O67 2.052 . S
Co61 O69 2.135 . S
O62 Co61 2.061 . S
O62 C65 1.235 . S
C63 O66 1.238 . S
C63 O67 1.241 . S
C64 O57 1.247 . S
C64 O58 1.261 . S
C65 O60 1.259 . S
C65 O62 1.235 . S
O66 Co56 2.021 . S
O66 C63 1.238 . S
O67 Co61 2.052 . S
O67 C63 1.241 . S
O68 Co56 2.137 . S
O68 C59 1.247 . S
O69 Co56 2.244 . S
O69 C59 1.272 . S
O69 Co61 2.135 . S
Co70 O71 2.216 . S
Co70 O72 2.091 . S
Co70 O74 2.004 . S
Co70 O80 2.021 . S
Co70 O82 2.137 . S
Co70 O83 2.244 . S
O71 Co70 2.216 . S
O71 C78 1.247 . S
O72 Co70 2.091 . S
O72 C78 1.261 . S
C73 O82 1.247 . S
C73 O83 1.272 . S
O74 Co70 2.004 . S
O74 C79 1.259 . S
Co75 O76 2.061 . S
Co75 O81 2.052 . S
Co75 O83 2.135 . S
O76 Co75 2.061 . S
O76 C79 1.235 . S
C77 O80 1.238 . S
C77 O81 1.241 . S
C78 O71 1.247 . S
C78 O72 1.261 . S
C79 O74 1.259 . S
C79 O76 1.235 . S
O80 Co70 2.021 . S
O80 C77 1.238 . S
O81 Co75 2.052 . S
O81 C77 1.241 . S
O82 Co70 2.137 . S
O82 C73 1.247 . S
O83 Co70 2.244 . S
O83 C73 1.272 . S
O83 Co75 2.135 . S
Co84 O85 2.216 . S
Co84 O86 2.091 . S
Co84 O88 2.004 . S
Co84 O94 2.021 . S
Co84 O96 2.137 . S
Co84 O97 2.244 . S
O85 Co84 2.216 . S
O85 C92 1.247 . S
O86 Co84 2.091 . S
O86 C92 1.261 . S
C87 O96 1.247 . S
C87 O97 1.272 . S
O88 Co84 2.004 . S
O88 C93 1.259 . S
Co89 O90 2.061 . S
Co89 O95 2.052 . S
Co89 O97 2.135 . S
O90 Co89 2.061 . S
O90 C93 1.235 . S
C91 O94 1.238 . S
C91 O95 1.241 . S
C92 O85 1.247 . S
C92 O86 1.261 . S
C93 O88 1.259 . S
C93 O90 1.235 . S
O94 Co84 2.021 . S
O94 C91 1.238 . S
O95 Co89 2.052 . S
O95 C91 1.241 . S
O96 Co84 2.137 . S
O96 C87 1.247 . S
O97 Co84 2.244 . S
O97 C87 1.272 . S
O97 Co89 2.135 . S
Co98 O99 2.216 . S
Co98 O100 2.091 . S
Co98 O102 2.004 . S
Co98 O108 2.021 . S
Co98 O110 2.137 . S
Co98 O111 2.244 . S
O99 Co98 2.216 . S
O99 C106 1.247 . S
O100 Co98 2.091 . S
O100 C106 1.261 . S
C101 O110 1.247 . S
C101 O111 1.272 . S
O102 Co98 2.004 . S
O102 C107 1.259 . S
Co103 O104 2.061 . S
Co103 O109 2.052 . S
Co103 O111 2.135 . S
O104 Co103 2.061 . S
O104 C107 1.235 . S
C105 O108 1.238 . S
C105 O109 1.241 . S
C106 O99 1.247 . S
C106 O100 1.261 . S
C107 O102 1.259 . S
C107 O104 1.235 . S
O108 Co98 2.021 . S
O108 C105 1.238 . S
O109 Co103 2.052 . S
O109 C105 1.241 . S
O110 Co98 2.137 . S
O110 C101 1.247 . S
O111 Co98 2.244 . S
O111 C101 1.272 . S
O111 Co103 2.135 . S
Co112 O113 2.216 . S
Co112 O114 2.091 . S
Co112 O116 2.004 . S
Co112 O122 2.021 . S
Co112 O124 2.137 . S
Co112 O125 2.244 . S
O113 Co112 2.216 . S
O113 C120 1.247 . S
O114 Co112 2.091 . S
O114 C120 1.261 . S
C115 O124 1.247 . S
C115 O125 1.272 . S
O116 Co112 2.004 . S
O116 C121 1.259 . S
Co117 O118 2.061 . S
Co117 O123 2.052 . S
Co117 O125 2.135 . S
O118 Co117 2.061 . S
O118 C121 1.235 . S
C119 O122 1.238 . S
C119 O123 1.241 . S
C120 O113 1.247 . S
C120 O114 1.261 . S
C121 O116 1.259 . S
C121 O118 1.235 . S
O122 Co112 2.021 . S
O122 C119 1.238 . S
O123 Co117 2.052 . S
O123 C119 1.241 . S
O124 Co112 2.137 . S
O124 C115 1.247 . S
O125 Co112 2.244 . S
O125 C115 1.272 . S
O125 Co117 2.135 . S
Co126 O127 2.216 . S
Co126 O128 2.091 . S
Co126 O130 2.004 . S
Co126 O136 2.021 . S
Co126 O138 2.137 . S
Co126 O139 2.244 . S
O127 Co126 2.216 . S
O127 C134 1.247 . S
O128 Co126 2.091 . S
O128 C134 1.261 . S
C129 O138 1.247 . S
C129 O139 1.272 . S
O130 Co126 2.004 . S
O130 C135 1.259 . S
Co131 O132 2.061 . S
Co131 O137 2.052 . S
Co131 O139 2.135 . S
O132 Co131 2.061 . S
O132 C135 1.235 . S
C133 O136 1.238 . S
C133 O137 1.241 . S
C134 O127 1.247 . S
C134 O128 1.261 . S
C135 O130 1.259 . S
C135 O132 1.235 . S
O136 Co126 2.021 . S
O136 C133 1.238 . S
O137 Co131 2.052 . S
O137 C133 1.241 . S
O138 Co126 2.137 . S
O138 C129 1.247 . S
O139 Co126 2.244 . S
O139 C129 1.272 . S
O139 Co131 2.135 . S
Co140 O141 2.216 . S
Co140 O142 2.091 . S
Co140 O144 2.004 . S
Co140 O150 2.021 . S
Co140 O152 2.137 . S
Co140 O153 2.244 . S
O141 Co140 2.216 . S
O141 C148 1.247 . S
O142 Co140 2.091 . S
O142 C148 1.261 . S
C143 O152 1.247 . S
C143 O153 1.272 . S
O144 Co140 2.004 . S
O144 C149 1.259 . S
Co145 O146 2.061 . S
Co145 O151 2.052 . S
Co145 O153 2.135 . S
O146 Co145 2.061 . S
O146 C149 1.235 . S
C147 O150 1.238 . S
C147 O151 1.241 . S
C148 O141 1.247 . S
C148 O142 1.261 . S
C149 O144 1.259 . S
C149 O146 1.235 . S
O150 Co140 2.021 . S
O150 C147 1.238 . S
O151 Co145 2.052 . S
O151 C147 1.241 . S
O152 Co140 2.137 . S
O152 C143 1.247 . S
O153 Co140 2.244 . S
O153 C143 1.272 . S
O153 Co145 2.135 . S
Co154 O155 2.216 . S
Co154 O156 2.091 . S
Co154 O158 2.004 . S
Co154 O164 2.021 . S
Co154 O166 2.137 . S
Co154 O167 2.244 . S
O155 Co154 2.216 . S
O155 C162 1.247 . S
O156 Co154 2.091 . S
O156 C162 1.261 . S
C157 O166 1.247 . S
C157 O167 1.272 . S
O158 Co154 2.004 . S
O158 C163 1.259 . S
Co159 O160 2.061 . S
Co159 O165 2.052 . S
Co159 O167 2.135 . S
O160 Co159 2.061 . S
O160 C163 1.235 . S
C161 O164 1.238 . S
C161 O165 1.241 . S
C162 O155 1.247 . S
C162 O156 1.261 . S
C163 O158 1.259 . S
C163 O160 1.235 . S
O164 Co154 2.021 . S
O164 C161 1.238 . S
O165 Co159 2.052 . S
O165 C161 1.241 . S
O166 Co154 2.137 . S
O166 C157 1.247 . S
O167 Co154 2.244 . S
O167 C157 1.272 . S
O167 Co159 2.135 . S
Co168 O169 2.216 . S
Co168 O170 2.091 . S
Co168 O172 2.004 . S
Co168 O178 2.021 . S
Co168 O180 2.137 . S
Co168 O181 2.244 . S
O169 Co168 2.216 . S
O169 C176 1.247 . S
O170 Co168 2.091 . S
O170 C176 1.261 . S
C171 O180 1.247 . S
C171 O181 1.272 . S
O172 Co168 2.004 . S
O172 C177 1.259 . S
Co173 O174 2.061 . S
Co173 O179 2.052 . S
Co173 O181 2.135 . S
O174 Co173 2.061 . S
O174 C177 1.235 . S
C175 O178 1.238 . S
C175 O179 1.241 . S
C176 O169 1.247 . S
C176 O170 1.261 . S
C177 O172 1.259 . S
C177 O174 1.235 . S
O178 Co168 2.021 . S
O178 C175 1.238 . S
O179 Co173 2.052 . S
O179 C175 1.241 . S
O180 Co168 2.137 . S
O180 C171 1.247 . S
O181 Co168 2.244 . S
O181 C171 1.272 . S
O181 Co173 2.135 . S
Co182 O183 2.216 . S
Co182 O184 2.091 . S
Co182 O186 2.004 . S
Co182 O192 2.021 . S
Co182 O194 2.137 . S
Co182 O195 2.244 . S
O183 Co182 2.216 . S
O183 C190 1.247 . S
O184 Co182 2.091 . S
O184 C190 1.261 . S
C185 O194 1.247 . S
C185 O195 1.272 . S
O186 Co182 2.004 . S
O186 C191 1.259 . S
Co187 O188 2.061 . S
Co187 O193 2.052 . S
Co187 O195 2.135 . S
O188 Co187 2.061 . S
O188 C191 1.235 . S
C189 O192 1.238 . S
C189 O193 1.241 . S
C190 O183 1.247 . S
C190 O184 1.261 . S
C191 O186 1.259 . S
C191 O188 1.235 . S
O192 Co182 2.021 . S
O192 C189 1.238 . S
O193 Co187 2.052 . S
O193 C189 1.241 . S
O194 Co182 2.137 . S
O194 C185 1.247 . S
O195 Co182 2.244 . S
O195 C185 1.272 . S
O195 Co187 2.135 . S
Co196 O197 2.216 . S
Co196 O198 2.091 . S
Co196 O200 2.004 . S
Co196 O206 2.021 . S
Co196 O208 2.137 . S
Co196 O209 2.244 . S
O197 Co196 2.216 . S
O197 C204 1.247 . S
O198 Co196 2.091 . S
O198 C204 1.261 . S
C199 O208 1.247 . S
C199 O209 1.272 . S
O200 Co196 2.004 . S
O200 C205 1.259 . S
Co201 O202 2.061 . S
Co201 O207 2.052 . S
Co201 O209 2.135 . S
O202 Co201 2.061 . S
O202 C205 1.235 . S
C203 O206 1.238 . S
C203 O207 1.241 . S
C204 O197 1.247 . S
C204 O198 1.261 . S
C205 O200 1.259 . S
C205 O202 1.235 . S
O206 Co196 2.021 . S
O206 C203 1.238 . S
O207 Co201 2.052 . S
O207 C203 1.241 . S
O208 Co196 2.137 . S
O208 C199 1.247 . S
O209 Co196 2.244 . S
O209 C199 1.272 . S
O209 Co201 2.135 . S
Co210 O211 2.216 . S
Co210 O212 2.091 . S
Co210 O214 2.004 . S
Co210 O220 2.021 . S
Co210 O222 2.137 . S
Co210 O223 2.244 . S
O211 Co210 2.216 . S
O211 C218 1.247 . S
O212 Co210 2.091 . S
O212 C218 1.261 . S
C213 O222 1.247 . S
C213 O223 1.272 . S
O214 Co210 2.004 . S
O214 C219 1.259 . S
Co215 O216 2.061 . S
Co215 O221 2.052 . S
Co215 O223 2.135 . S
O216 Co215 2.061 . S
O216 C219 1.235 . S
C217 O220 1.238 . S
C217 O221 1.241 . S
C218 O211 1.247 . S
C218 O212 1.261 . S
C219 O214 1.259 . S
C219 O216 1.235 . S
O220 Co210 2.021 . S
O220 C217 1.238 . S
O221 Co215 2.052 . S
O221 C217 1.241 . S
O222 Co210 2.137 . S
O222 C213 1.247 . S
O223 Co210 2.244 . S
O223 C213 1.272 . S
O223 Co215 2.135 . S
Co224 O225 2.216 . S
Co224 O226 2.091 . S
Co224 O228 2.004 . S
Co224 O234 2.021 . S
Co224 O236 2.137 . S
Co224 O237 2.244 . S
O225 Co224 2.216 . S
O225 C232 1.247 . S
O226 Co224 2.091 . S
O226 C232 1.261 . S
C227 O236 1.247 . S
C227 O237 1.272 . S
O228 Co224 2.004 . S
O228 C233 1.259 . S
Co229 O230 2.061 . S
Co229 O235 2.052 . S
Co229 O237 2.135 . S
O230 Co229 2.061 . S
O230 C233 1.235 . S
C231 O234 1.238 . S
C231 O235 1.241 . S
C232 O225 1.247 . S
C232 O226 1.261 . S
C233 O228 1.259 . S
C233 O230 1.235 . S
O234 Co224 2.021 . S
O234 C231 1.238 . S
O235 Co229 2.052 . S
O235 C231 1.241 . S
O236 Co224 2.137 . S
O236 C227 1.247 . S
O237 Co224 2.244 . S
O237 C227 1.272 . S
O237 Co229 2.135 . S
Co238 O239 2.216 . S
Co238 O240 2.091 . S
Co238 O242 2.004 . S
Co238 O248 2.021 . S
Co238 O250 2.137 . S
Co238 O251 2.244 . S
O239 Co238 2.216 . S
O239 C246 1.247 . S
O240 Co238 2.091 . S
O240 C246 1.261 . S
C241 O250 1.247 . S
C241 O251 1.272 . S
O242 Co238 2.004 . S
O242 C247 1.259 . S
Co243 O244 2.061 . S
Co243 O249 2.052 . S
Co243 O251 2.135 . S
O244 Co243 2.061 . S
O244 C247 1.235 . S
C245 O248 1.238 . S
C245 O249 1.241 . S
C246 O239 1.247 . S
C246 O240 1.261 . S
C247 O242 1.259 . S
C247 O244 1.235 . S
O248 Co238 2.021 . S
O248 C245 1.238 . S
O249 Co243 2.052 . S
O249 C245 1.241 . S
O250 Co238 2.137 . S
O250 C241 1.247 . S
O251 Co238 2.244 . S
O251 C241 1.272 . S
O251 Co243 2.135 . S
Co252 O253 2.216 . S
Co252 O254 2.091 . S
Co252 O256 2.004 . S
Co252 O262 2.021 . S
Co252 O264 2.137 . S
Co252 O265 2.244 . S
O253 Co252 2.216 . S
O253 C260 1.247 . S
O254 Co252 2.091 . S
O254 C260 1.261 . S
C255 O264 1.247 . S
C255 O265 1.272 . S
O256 Co252 2.004 . S
O256 C261 1.259 . S
Co257 O258 2.061 . S
Co257 O263 2.052 . S
Co257 O265 2.135 . S
O258 Co257 2.061 . S
O258 C261 1.235 . S
C259 O262 1.238 . S
C259 O263 1.241 . S
C260 O253 1.247 . S
C260 O254 1.261 . S
C261 O256 1.259 . S
C261 O258 1.235 . S
O262 Co252 2.021 . S
O262 C259 1.238 . S
O263 Co257 2.052 . S
O263 C259 1.241 . S
O264 Co252 2.137 . S
O264 C255 1.247 . S
O265 Co252 2.244 . S
O265 C255 1.272 . S
O265 Co257 2.135 . S
Co266 O267 2.216 . S
Co266 O268 2.091 . S
Co266 O270 2.004 . S
Co266 O276 2.021 . S
Co266 O278 2.137 . S
Co266 O279 2.244 . S
O267 Co266 2.216 . S
O267 C274 1.247 . S
O268 Co266 2.091 . S
O268 C274 1.261 . S
C269 O278 1.247 . S
C269 O279 1.272 . S
O270 Co266 2.004 . S
O270 C275 1.259 . S
Co271 O272 2.061 . S
Co271 O277 2.052 . S
Co271 O279 2.135 . S
O272 Co271 2.061 . S
O272 C275 1.235 . S
C273 O276 1.238 . S
C273 O277 1.241 . S
C274 O267 1.247 . S
C274 O268 1.261 . S
C275 O270 1.259 . S
C275 O272 1.235 . S
O276 Co266 2.021 . S
O276 C273 1.238 . S
O277 Co271 2.052 . S
O277 C273 1.241 . S
O278 Co266 2.137 . S
O278 C269 1.247 . S
O279 Co266 2.244 . S
O279 C269 1.272 . S
O279 Co271 2.135 . S
Co280 O281 2.216 . S
Co280 O282 2.091 . S
Co280 O284 2.004 . S
Co280 O290 2.021 . S
Co280 O292 2.137 . S
Co280 O293 2.244 . S
O281 Co280 2.216 . S
O281 C288 1.247 . S
O282 Co280 2.091 . S
O282 C288 1.261 . S
C283 O292 1.247 . S
C283 O293 1.272 . S
O284 Co280 2.004 . S
O284 C289 1.259 . S
Co285 O286 2.061 . S
Co285 O291 2.052 . S
Co285 O293 2.135 . S
O286 Co285 2.061 . S
O286 C289 1.235 . S
C287 O290 1.238 . S
C287 O291 1.241 . S
C288 O281 1.247 . S
C288 O282 1.261 . S
C289 O284 1.259 . S
C289 O286 1.235 . S
O290 Co280 2.021 . S
O290 C287 1.238 . S
O291 Co285 2.052 . S
O291 C287 1.241 . S
O292 Co280 2.137 . S
O292 C283 1.247 . S
O293 Co280 2.244 . S
O293 C283 1.272 . S
O293 Co285 2.135 . S
Co294 O295 2.216 . S
Co294 O296 2.091 . S
Co294 O298 2.004 . S
Co294 O304 2.021 . S
Co294 O306 2.137 . S
Co294 O307 2.244 . S
O295 Co294 2.216 . S
O295 C302 1.247 . S
O296 Co294 2.091 . S
O296 C302 1.261 . S
C297 O306 1.247 . S
C297 O307 1.272 . S
O298 Co294 2.004 . S
O298 C303 1.259 . S
Co299 O300 2.061 . S
Co299 O305 2.052 . S
Co299 O307 2.135 . S
O300 Co299 2.061 . S
O300 C303 1.235 . S
C301 O304 1.238 . S
C301 O305 1.241 . S
C302 O295 1.247 . S
C302 O296 1.261 . S
C303 O298 1.259 . S
C303 O300 1.235 . S
O304 Co294 2.021 . S
O304 C301 1.238 . S
O305 Co299 2.052 . S
O305 C301 1.241 . S
O306 Co294 2.137 . S
O306 C297 1.247 . S
O307 Co294 2.244 . S
O307 C297 1.272 . S
O307 Co299 2.135 . S
Co308 O309 2.216 . S
Co308 O310 2.091 . S
Co308 O312 2.004 . S
Co308 O318 2.021 . S
Co308 O320 2.137 . S
Co308 O321 2.244 . S
O309 Co308 2.216 . S
O309 C316 1.247 . S
O310 Co308 2.091 . S
O310 C316 1.261 . S
C311 O320 1.247 . S
C311 O321 1.272 . S
O312 Co308 2.004 . S
O312 C317 1.259 . S
Co313 O314 2.061 . S
Co313 O319 2.052 . S
Co313 O321 2.135 . S
O314 Co313 2.061 . S
O314 C317 1.235 . S
C315 O318 1.238 . S
C315 O319 1.241 . S
C316 O309 1.247 . S
C316 O310 1.261 . S
C317 O312 1.259 . S
C317 O314 1.235 . S
O318 Co308 2.021 . S
O318 C315 1.238 . S
O319 Co313 2.052 . S
O319 C315 1.241 . S
O320 Co308 2.137 . S
O320 C311 1.247 . S
O321 Co308 2.244 . S
O321 C311 1.272 . S
O321 Co313 2.135 . S
Co322 O323 2.216 . S
Co322 O324 2.091 . S
Co322 O326 2.004 . S
Co322 O332 2.021 . S
Co322 O334 2.137 . S
Co322 O335 2.244 . S
O323 Co322 2.216 . S
O323 C330 1.247 . S
O324 Co322 2.091 . S
O324 C330 1.261 . S
C325 O334 1.247 . S
C325 O335 1.272 . S
O326 Co322 2.004 . S
O326 C331 1.259 . S
Co327 O328 2.061 . S
Co327 O333 2.052 . S
Co327 O335 2.135 . S
O328 Co327 2.061 . S
O328 C331 1.235 . S
C329 O332 1.238 . S
C329 O333 1.241 . S
C330 O323 1.247 . S
C330 O324 1.261 . S
C331 O326 1.259 . S
C331 O328 1.235 . S
O332 Co322 2.021 . S
O332 C329 1.238 . S
O333 Co327 2.052 . S
O333 C329 1.241 . S
O334 Co322 2.137 . S
O334 C325 1.247 . S
O335 Co322 2.244 . S
O335 C325 1.272 . S
O335 Co327 2.135 . S
Co336 O337 2.216 . S
Co336 O338 2.091 . S
Co336 O340 2.004 . S
Co336 O346 2.021 . S
Co336 O348 2.137 . S
Co336 O349 2.244 . S
O337 Co336 2.216 . S
O337 C344 1.247 . S
O338 Co336 2.091 . S
O338 C344 1.261 . S
C339 O348 1.247 . S
C339 O349 1.272 . S
O340 Co336 2.004 . S
O340 C345 1.259 . S
Co341 O342 2.061 . S
Co341 O347 2.052 . S
Co341 O349 2.135 . S
O342 Co341 2.061 . S
O342 C345 1.235 . S
C343 O346 1.238 . S
C343 O347 1.241 . S
C344 O337 1.247 . S
C344 O338 1.261 . S
C345 O340 1.259 . S
C345 O342 1.235 . S
O346 Co336 2.021 . S
O346 C343 1.238 . S
O347 Co341 2.052 . S
O347 C343 1.241 . S
O348 Co336 2.137 . S
O348 C339 1.247 . S
O349 Co336 2.244 . S
O349 C339 1.272 . S
O349 Co341 2.135 . S
Co350 O351 2.216 . S
Co350 O352 2.091 . S
Co350 O354 2.004 . S
Co350 O360 2.021 . S
Co350 O362 2.137 . S
Co350 O363 2.244 . S
O351 Co350 2.216 . S
O351 C358 1.247 . S
O352 Co350 2.091 . S
O352 C358 1.261 . S
C353 O362 1.247 . S
C353 O363 1.272 . S
O354 Co350 2.004 . S
O354 C359 1.259 . S
Co355 O356 2.061 . S
Co355 O361 2.052 . S
Co355 O363 2.135 . S
O356 Co355 2.061 . S
O356 C359 1.235 . S
C357 O360 1.238 . S
C357 O361 1.241 . S
C358 O351 1.247 . S
C358 O352 1.261 . S
C359 O354 1.259 . S
C359 O356 1.235 . S
O360 Co350 2.021 . S
O360 C357 1.238 . S
O361 Co355 2.052 . S
O361 C357 1.241 . S
O362 Co350 2.137 . S
O362 C353 1.247 . S
O363 Co350 2.244 . S
O363 C353 1.272 . S
O363 Co355 2.135 . S
Co364 O365 2.216 . S
Co364 O366 2.091 . S
Co364 O368 2.004 . S
Co364 O374 2.021 . S
Co364 O376 2.137 . S
Co364 O377 2.244 . S
O365 Co364 2.216 . S
O365 C372 1.247 . S
O366 Co364 2.091 . S
O366 C372 1.261 . S
C367 O376 1.247 . S
C367 O377 1.272 . S
O368 Co364 2.004 . S
O368 C373 1.259 . S
Co369 O370 2.061 . S
Co369 O375 2.052 . S
Co369 O377 2.135 . S
O370 Co369 2.061 . S
O370 C373 1.235 . S
C371 O374 1.238 . S
C371 O375 1.241 . S
C372 O365 1.247 . S
C372 O366 1.261 . S
C373 O368 1.259 . S
C373 O370 1.235 . S
O374 Co364 2.021 . S
O374 C371 1.238 . S
O375 Co369 2.052 . S
O375 C371 1.241 . S
O376 Co364 2.137 . S
O376 C367 1.247 . S
O377 Co364 2.244 . S
O377 C367 1.272 . S
O377 Co369 2.135 . S
Co378 O379 2.216 . S
Co378 O380 2.091 . S
Co378 O382 2.004 . S
Co378 O388 2.021 . S
Co378 O390 2.137 . S
Co378 O391 2.244 . S
O379 Co378 2.216 . S
O379 C386 1.247 . S
O380 Co378 2.091 . S
O380 C386 1.261 . S
C381 O390 1.247 . S
C381 O391 1.272 . S
O382 Co378 2.004 . S
O382 C387 1.259 . S
Co383 O384 2.061 . S
Co383 O389 2.052 . S
Co383 O391 2.135 . S
O384 Co383 2.061 . S
O384 C387 1.235 . S
C385 O388 1.238 . S
C385 O389 1.241 . S
C386 O379 1.247 . S
C386 O380 1.261 . S
C387 O382 1.259 . S
C387 O384 1.235 . S
O388 Co378 2.021 . S
O388 C385 1.238 . S
O389 Co383 2.052 . S
O389 C385 1.241 . S
O390 Co378 2.137 . S
O390 C381 1.247 . S
O391 Co378 2.244 . S
O391 C381 1.272 . S
O391 Co383 2.135 . S
Co392 O393 2.216 . S
Co392 O394 2.091 . S
Co392 O396 2.004 . S
Co392 O402 2.021 . S
Co392 O404 2.137 . S
Co392 O405 2.244 . S
O393 Co392 2.216 . S
O393 C400 1.247 . S
O394 Co392 2.091 . S
O394 C400 1.261 . S
C395 O404 1.247 . S
C395 O405 1.272 . S
O396 Co392 2.004 . S
O396 C401 1.259 . S
Co397 O398 2.061 . S
Co397 O403 2.052 . S
Co397 O405 2.135 . S
O398 Co397 2.061 . S
O398 C401 1.235 . S
C399 O402 1.238 . S
C399 O403 1.241 . S
C400 O393 1.247 . S
C400 O394 1.261 . S
C401 O396 1.259 . S
C401 O398 1.235 . S
O402 Co392 2.021 . S
O402 C399 1.238 . S
O403 Co397 2.052 . S
O403 C399 1.241 . S
O404 Co392 2.137 . S
O404 C395 1.247 . S
O405 Co392 2.244 . S
O405 C395 1.272 . S
O405 Co397 2.135 . S
Co406 O407 2.216 . S
Co406 O408 2.091 . S
Co406 O410 2.004 . S
Co406 O416 2.021 . S
Co406 O418 2.137 . S
Co406 O419 2.244 . S
O407 Co406 2.216 . S
O407 C414 1.247 . S
O408 Co406 2.091 . S
O408 C414 1.261 . S
C409 O418 1.247 . S
C409 O419 1.272 . S
O410 Co406 2.004 . S
O410 C415 1.259 . S
Co411 O412 2.061 . S
Co411 O417 2.052 . S
Co411 O419 2.135 . S
O412 Co411 2.061 . S
O412 C415 1.235 . S
C413 O416 1.238 . S
C413 O417 1.241 . S
C414 O407 1.247 . S
C414 O408 1.261 . S
C415 O410 1.259 . S
C415 O412 1.235 . S
O416 Co406 2.021 . S
O416 C413 1.238 . S
O417 Co411 2.052 . S
O417 C413 1.241 . S
O418 Co406 2.137 . S
O418 C409 1.247 . S
O419 Co406 2.244 . S
O419 C409 1.272 . S
O419 Co411 2.135 . S
Co420 O421 2.216 . S
Co420 O422 2.091 . S
Co420 O424 2.004 . S
Co420 O430 2.021 . S
Co420 O432 2.137 . S
Co420 O433 2.244 . S
O421 Co420 2.216 . S
O421 C428 1.247 . S
O422 Co420 2.091 . S
O422 C428 1.261 . S
C423 O432 1.247 . S
C423 O433 1.272 . S
O424 Co420 2.004 . S
O424 C429 1.259 . S
Co425 O426 2.061 . S
Co425 O431 2.052 . S
Co425 O433 2.135 . S
O426 Co425 2.061 . S
O426 C429 1.235 . S
C427 O430 1.238 . S
C427 O431 1.241 . S
C428 O421 1.247 . S
C428 O422 1.261 . S
C429 O424 1.259 . S
C429 O426 1.235 . S
O430 Co420 2.021 . S
O430 C427 1.238 . S
O431 Co425 2.052 . S
O431 C427 1.241 . S
O432 Co420 2.137 . S
O432 C423 1.247 . S
O433 Co420 2.244 . S
O433 C423 1.272 . S
O433 Co425 2.135 . S
Co434 O435 2.216 . S
Co434 O436 2.091 . S
Co434 O438 2.004 . S
Co434 O444 2.021 . S
Co434 O446 2.137 . S
Co434 O447 2.244 . S
O435 Co434 2.216 . S
O435 C442 1.247 . S
O436 Co434 2.091 . S
O436 C442 1.261 . S
C437 O446 1.247 . S
C437 O447 1.272 . S
O438 Co434 2.004 . S
O438 C443 1.259 . S
Co439 O440 2.061 . S
Co439 O445 2.052 . S
Co439 O447 2.135 . S
O440 Co439 2.061 . S
O440 C443 1.235 . S
C441 O444 1.238 . S
C441 O445 1.241 . S
C442 O435 1.247 . S
C442 O436 1.261 . S
C443 O438 1.259 . S
C443 O440 1.235 . S
O444 Co434 2.021 . S
O444 C441 1.238 . S
O445 Co439 2.052 . S
O445 C441 1.241 . S
O446 Co434 2.137 . S
O446 C437 1.247 . S
O447 Co434 2.244 . S
O447 C437 1.272 . S
O447 Co439 2.135 . S
C448 C449 1.391 . S
C448 C450 1.394 . S
C448 H464 0.931 . S
C449 C448 1.391 . S
C449 C453 1.376 . S
C450 C448 1.394 . S
C450 C451 1.369 . S
C450 C454 1.531 . S
C451 C450 1.369 . S
C451 C452 1.410 . S
C451 C459 1.503 . S
C452 C451 1.410 . S
C452 C453 1.392 . S
C452 C455 1.511 . S
C453 C449 1.376 . S
C453 C452 1.392 . S
C453 H465 0.929 . S
C454 C450 1.531 . S
C454 H466 0.960 . S
C454 H467 0.962 . S
C454 H468 0.960 . S
C455 C452 1.511 . S
C455 H469 0.961 . S
C455 H470 0.961 . S
C455 H471 0.961 . S
C456 C457 1.370 . S
C456 C458 1.363 . S
C456 H472 0.931 . S
C457 C456 1.370 . S
C457 C461 1.408 . S
C458 C456 1.363 . S
C458 C459 1.370 . S
C458 C462 1.524 . S
C459 C451 1.503 . S
C459 C458 1.370 . S
C459 C460 1.403 . S
C460 C459 1.403 . S
C460 C461 1.404 . S
C460 C463 1.539 . S
C461 C457 1.408 . S
C461 C460 1.404 . S
C461 H473 0.930 . S
C462 C458 1.524 . S
C462 H474 0.956 . S
C462 H475 0.961 . S
C462 H476 0.961 . S
C463 C460 1.539 . S
C463 H477 0.958 . S
C463 H478 0.961 . S
C463 H479 0.960 . S
H464 C448 0.931 . S
H465 C453 0.929 . S
H466 C454 0.960 . S
H467 C454 0.962 . S
H468 C454 0.960 . S
H469 C455 0.961 . S
H470 C455 0.961 . S
H471 C455 0.961 . S
H472 C456 0.931 . S
H473 C461 0.930 . S
H474 C462 0.956 . S
H475 C462 0.961 . S
H476 C462 0.961 . S
H477 C463 0.958 . S
H478 C463 0.961 . S
H479 C463 0.960 . S
C480 C481 1.391 . S
C480 C482 1.394 . S
C480 H496 0.931 . S
C481 C480 1.391 . S
C481 C485 1.376 . S
C482 C480 1.394 . S
C482 C483 1.369 . S
C482 C486 1.531 . S
C483 C482 1.369 . S
C483 C484 1.410 . S
C483 C491 1.503 . S
C484 C483 1.410 . S
C484 C485 1.392 . S
C484 C487 1.511 . S
C485 C481 1.376 . S
C485 C484 1.392 . S
C485 H497 0.929 . S
C486 C482 1.531 . S
C486 H498 0.960 . S
C486 H499 0.962 . S
C486 H500 0.960 . S
C487 C484 1.511 . S
C487 H501 0.961 . S
C487 H502 0.961 . S
C487 H503 0.961 . S
C488 C489 1.370 . S
C488 C490 1.363 . S
C488 H504 0.931 . S
C489 C488 1.370 . S
C489 C493 1.408 . S
C490 C488 1.363 . S
C490 C491 1.370 . S
C490 C494 1.524 . S
C491 C483 1.503 . S
C491 C490 1.370 . S
C491 C492 1.403 . S
C492 C491 1.403 . S
C492 C493 1.404 . S
C492 C495 1.539 . S
C493 C489 1.408 . S
C493 C492 1.404 . S
C493 H505 0.930 . S
C494 C490 1.524 . S
C494 H506 0.956 . S
C494 H507 0.961 . S
C494 H508 0.961 . S
C495 C492 1.539 . S
C495 H509 0.958 . S
C495 H510 0.961 . S
C495 H511 0.960 . S
H496 C480 0.931 . S
H497 C485 0.929 . S
H498 C486 0.960 . S
H499 C486 0.962 . S
H500 C486 0.960 . S
H501 C487 0.961 . S
H502 C487 0.961 . S
H503 C487 0.961 . S
H504 C488 0.931 . S
H505 C493 0.930 . S
H506 C494 0.956 . S
H507 C494 0.961 . S
H508 C494 0.961 . S
H509 C495 0.958 . S
H510 C495 0.961 . S
H511 C495 0.960 . S
C512 C513 1.391 . S
C512 C514 1.394 . S
C512 H528 0.931 . S
C513 C512 1.391 . S
C513 C517 1.376 . S
C514 C512 1.394 . S
C514 C515 1.369 . S
C514 C518 1.531 . S
C515 C514 1.369 . S
C515 C516 1.410 . S
C515 C523 1.503 . S
C516 C515 1.410 . S
C516 C517 1.392 . S
C516 C519 1.511 . S
C517 C513 1.376 . S
C517 C516 1.392 . S
C517 H529 0.929 . S
C518 C514 1.531 . S
C518 H530 0.960 . S
C518 H531 0.962 . S
C518 H532 0.960 . S
C519 C516 1.511 . S
C519 H533 0.961 . S
C519 H534 0.961 . S
C519 H535 0.961 . S
C520 C521 1.370 . S
C520 C522 1.363 . S
C520 H536 0.931 . S
C521 C520 1.370 . S
C521 C525 1.408 . S
C522 C520 1.363 . S
C522 C523 1.370 . S
C522 C526 1.524 . S
C523 C515 1.503 . S
C523 C522 1.370 . S
C523 C524 1.403 . S
C524 C523 1.403 . S
C524 C525 1.404 . S
C524 C527 1.539 . S
C525 C521 1.408 . S
C525 C524 1.404 . S
C525 H537 0.930 . S
C526 C522 1.524 . S
C526 H538 0.956 . S
C526 H539 0.961 . S
C526 H540 0.961 . S
C527 C524 1.539 . S
C527 H541 0.958 . S
C527 H542 0.961 . S
C527 H543 0.960 . S
H528 C512 0.931 . S
H529 C517 0.929 . S
H530 C518 0.960 . S
H531 C518 0.962 . S
H532 C518 0.960 . S
H533 C519 0.961 . S
H534 C519 0.961 . S
H535 C519 0.961 . S
H536 C520 0.931 . S
H537 C525 0.930 . S
H538 C526 0.956 . S
H539 C526 0.961 . S
H540 C526 0.961 . S
H541 C527 0.958 . S
H542 C527 0.961 . S
H543 C527 0.960 . S
C544 C545 1.391 . S
C544 C546 1.394 . S
C544 H560 0.931 . S
C545 C544 1.391 . S
C545 C549 1.376 . S
C546 C544 1.394 . S
C546 C547 1.369 . S
C546 C550 1.531 . S
C547 C546 1.369 . S
C547 C548 1.410 . S
C547 C555 1.503 . S
C548 C547 1.410 . S
C548 C549 1.392 . S
C548 C551 1.511 . S
C549 C545 1.376 . S
C549 C548 1.392 . S
C549 H561 0.929 . S
C550 C546 1.531 . S
C550 H562 0.960 . S
C550 H563 0.962 . S
C550 H564 0.960 . S
C551 C548 1.511 . S
C551 H565 0.961 . S
C551 H566 0.961 . S
C551 H567 0.961 . S
C552 C553 1.370 . S
C552 C554 1.363 . S
C552 H568 0.931 . S
C553 C552 1.370 . S
C553 C557 1.408 . S
C554 C552 1.363 . S
C554 C555 1.370 . S
C554 C558 1.524 . S
C555 C547 1.503 . S
C555 C554 1.370 . S
C555 C556 1.403 . S
C556 C555 1.403 . S
C556 C557 1.404 . S
C556 C559 1.539 . S
C557 C553 1.408 . S
C557 C556 1.404 . S
C557 H569 0.930 . S
C558 C554 1.524 . S
C558 H570 0.956 . S
C558 H571 0.961 . S
C558 H572 0.961 . S
C559 C556 1.539 . S
C559 H573 0.958 . S
C559 H574 0.961 . S
C559 H575 0.960 . S
H560 C544 0.931 . S
H561 C549 0.929 . S
H562 C550 0.960 . S
H563 C550 0.962 . S
H564 C550 0.960 . S
H565 C551 0.961 . S
H566 C551 0.961 . S
H567 C551 0.961 . S
H568 C552 0.931 . S
H569 C557 0.930 . S
H570 C558 0.956 . S
H571 C558 0.961 . S
H572 C558 0.961 . S
H573 C559 0.958 . S
H574 C559 0.961 . S
H575 C559 0.960 . S
C576 C577 1.391 . S
C576 C578 1.394 . S
C576 H592 0.931 . S
C577 C576 1.391 . S
C577 C581 1.376 . S
C578 C576 1.394 . S
C578 C579 1.369 . S
C578 C582 1.531 . S
C579 C578 1.369 . S
C579 C580 1.410 . S
C579 C587 1.503 . S
C580 C579 1.410 . S
C580 C581 1.392 . S
C580 C583 1.511 . S
C581 C577 1.376 . S
C581 C580 1.392 . S
C581 H593 0.929 . S
C582 C578 1.531 . S
C582 H594 0.960 . S
C582 H595 0.962 . S
C582 H596 0.960 . S
C583 C580 1.511 . S
C583 H597 0.961 . S
C583 H598 0.961 . S
C583 H599 0.961 . S
C584 C585 1.370 . S
C584 C586 1.363 . S
C584 H600 0.931 . S
C585 C584 1.370 . S
C585 C589 1.408 . S
C586 C584 1.363 . S
C586 C587 1.370 . S
C586 C590 1.524 . S
C587 C579 1.503 . S
C587 C586 1.370 . S
C587 C588 1.403 . S
C588 C587 1.403 . S
C588 C589 1.404 . S
C588 C591 1.539 . S
C589 C585 1.408 . S
C589 C588 1.404 . S
C589 H601 0.930 . S
C590 C586 1.524 . S
C590 H602 0.956 . S
C590 H603 0.961 . S
C590 H604 0.961 . S
C591 C588 1.539 . S
C591 H605 0.958 . S
C591 H606 0.961 . S
C591 H607 0.960 . S
H592 C576 0.931 . S
H593 C581 0.929 . S
H594 C582 0.960 . S
H595 C582 0.962 . S
H596 C582 0.960 . S
H597 C583 0.961 . S
H598 C583 0.961 . S
H599 C583 0.961 . S
H600 C584 0.931 . S
H601 C589 0.930 . S
H602 C590 0.956 . S
H603 C590 0.961 . S
H604 C590 0.961 . S
H605 C591 0.958 . S
H606 C591 0.961 . S
H607 C591 0.960 . S
C608 C609 1.391 . S
C608 C610 1.394 . S
C608 H624 0.931 . S
C609 C608 1.391 . S
C609 C613 1.376 . S
C610 C608 1.394 . S
C610 C611 1.369 . S
C610 C614 1.531 . S
C611 C610 1.369 . S
C611 C612 1.410 . S
C611 C619 1.503 . S
C612 C611 1.410 . S
C612 C613 1.392 . S
C612 C615 1.511 . S
C613 C609 1.376 . S
C613 C612 1.392 . S
C613 H625 0.929 . S
C614 C610 1.531 . S
C614 H626 0.960 . S
C614 H627 0.962 . S
C614 H628 0.960 . S
C615 C612 1.511 . S
C615 H629 0.961 . S
C615 H630 0.961 . S
C615 H631 0.961 . S
C616 C617 1.370 . S
C616 C618 1.363 . S
C616 H632 0.931 . S
C617 C616 1.370 . S
C617 C621 1.408 . S
C618 C616 1.363 . S
C618 C619 1.370 . S
C618 C622 1.524 . S
C619 C611 1.503 . S
C619 C618 1.370 . S
C619 C620 1.403 . S
C620 C619 1.403 . S
C620 C621 1.404 . S
C620 C623 1.539 . S
C621 C617 1.408 . S
C621 C620 1.404 . S
C621 H633 0.930 . S
C622 C618 1.524 . S
C622 H634 0.956 . S
C622 H635 0.961 . S
C622 H636 0.961 . S
C623 C620 1.539 . S
C623 H637 0.958 . S
C623 H638 0.961 . S
C623 H639 0.960 . S
H624 C608 0.931 . S
H625 C613 0.929 . S
H626 C614 0.960 . S
H627 C614 0.962 . S
H628 C614 0.960 . S
H629 C615 0.961 . S
H630 C615 0.961 . S
H631 C615 0.961 . S
H632 C616 0.931 . S
H633 C621 0.930 . S
H634 C622 0.956 . S
H635 C622 0.961 . S
H636 C622 0.961 . S
H637 C623 0.958 . S
H638 C623 0.961 . S
H639 C623 0.960 . S
C640 C641 1.391 . S
C640 C642 1.394 . S
C640 H656 0.931 . S
C641 C640 1.391 . S
C641 C645 1.376 . S
C642 C640 1.394 . S
C642 C643 1.369 . S
C642 C646 1.531 . S
C643 C642 1.369 . S
C643 C644 1.410 . S
C643 C651 1.503 . S
C644 C643 1.410 . S
C644 C645 1.392 . S
C644 C647 1.511 . S
C645 C641 1.376 . S
C645 C644 1.392 . S
C645 H657 0.929 . S
C646 C642 1.531 . S
C646 H658 0.960 . S
C646 H659 0.962 . S
C646 H660 0.960 . S
C647 C644 1.511 . S
C647 H661 0.961 . S
C647 H662 0.961 . S
C647 H663 0.961 . S
C648 C649 1.370 . S
C648 C650 1.363 . S
C648 H664 0.931 . S
C649 C648 1.370 . S
C649 C653 1.408 . S
C650 C648 1.363 . S
C650 C651 1.370 . S
C650 C654 1.524 . S
C651 C643 1.503 . S
C651 C650 1.370 . S
C651 C652 1.403 . S
C652 C651 1.403 . S
C652 C653 1.404 . S
C652 C655 1.539 . S
C653 C649 1.408 . S
C653 C652 1.404 . S
C653 H665 0.930 . S
C654 C650 1.524 . S
C654 H666 0.956 . S
C654 H667 0.961 . S
C654 H668 0.961 . S
C655 C652 1.539 . S
C655 H669 0.958 . S
C655 H670 0.961 . S
C655 H671 0.960 . S
H656 C640 0.931 . S
H657 C645 0.929 . S
H658 C646 0.960 . S
H659 C646 0.962 . S
H660 C646 0.960 . S
H661 C647 0.961 . S
H662 C647 0.961 . S
H663 C647 0.961 . S
H664 C648 0.931 . S
H665 C653 0.930 . S
H666 C654 0.956 . S
H667 C654 0.961 . S
H668 C654 0.961 . S
H669 C655 0.958 . S
H670 C655 0.961 . S
H671 C655 0.960 . S
C672 C673 1.391 . S
C672 C674 1.394 . S
C672 H688 0.931 . S
C673 C672 1.391 . S
C673 C677 1.376 . S
C674 C672 1.394 . S
C674 C675 1.369 . S
C674 C678 1.531 . S
C675 C674 1.369 . S
C675 C676 1.410 . S
C675 C683 1.503 . S
C676 C675 1.410 . S
C676 C677 1.392 . S
C676 C679 1.511 . S
C677 C673 1.376 . S
C677 C676 1.392 . S
C677 H689 0.929 . S
C678 C674 1.531 . S
C678 H690 0.960 . S
C678 H691 0.962 . S
C678 H692 0.960 . S
C679 C676 1.511 . S
C679 H693 0.961 . S
C679 H694 0.961 . S
C679 H695 0.961 . S
C680 C681 1.370 . S
C680 C682 1.363 . S
C680 H696 0.931 . S
C681 C680 1.370 . S
C681 C685 1.408 . S
C682 C680 1.363 . S
C682 C683 1.370 . S
C682 C686 1.524 . S
C683 C675 1.503 . S
C683 C682 1.370 . S
C683 C684 1.403 . S
C684 C683 1.403 . S
C684 C685 1.404 . S
C684 C687 1.539 . S
C685 C681 1.408 . S
C685 C684 1.404 . S
C685 H697 0.930 . S
C686 C682 1.524 . S
C686 H698 0.956 . S
C686 H699 0.961 . S
C686 H700 0.961 . S
C687 C684 1.539 . S
C687 H701 0.958 . S
C687 H702 0.961 . S
C687 H703 0.960 . S
H688 C672 0.931 . S
H689 C677 0.929 . S
H690 C678 0.960 . S
H691 C678 0.962 . S
H692 C678 0.960 . S
H693 C679 0.961 . S
H694 C679 0.961 . S
H695 C679 0.961 . S
H696 C680 0.931 . S
H697 C685 0.930 . S
H698 C686 0.956 . S
H699 C686 0.961 . S
H700 C686 0.961 . S
H701 C687 0.958 . S
H702 C687 0.961 . S
H703 C687 0.960 . S
C704 C705 1.391 . S
C704 C706 1.394 . S
C704 H720 0.931 . S
C705 C704 1.391 . S
C705 C709 1.376 . S
C706 C704 1.394 . S
C706 C707 1.369 . S
C706 C710 1.531 . S
C707 C706 1.369 . S
C707 C708 1.410 . S
C707 C715 1.503 . S
C708 C707 1.410 . S
C708 C709 1.392 . S
C708 C711 1.511 . S
C709 C705 1.376 . S
C709 C708 1.392 . S
C709 H721 0.929 . S
C710 C706 1.531 . S
C710 H722 0.960 . S
C710 H723 0.962 . S
C710 H724 0.960 . S
C711 C708 1.511 . S
C711 H725 0.961 . S
C711 H726 0.961 . S
C711 H727 0.961 . S
C712 C713 1.370 . S
C712 C714 1.363 . S
C712 H728 0.931 . S
C713 C712 1.370 . S
C713 C717 1.408 . S
C714 C712 1.363 . S
C714 C715 1.370 . S
C714 C718 1.524 . S
C715 C707 1.503 . S
C715 C714 1.370 . S
C715 C716 1.403 . S
C716 C715 1.403 . S
C716 C717 1.404 . S
C716 C719 1.539 . S
C717 C713 1.408 . S
C717 C716 1.404 . S
C717 H729 0.930 . S
C718 C714 1.524 . S
C718 H730 0.956 . S
C718 H731 0.961 . S
C718 H732 0.961 . S
C719 C716 1.539 . S
C719 H733 0.958 . S
C719 H734 0.961 . S
C719 H735 0.960 . S
H720 C704 0.931 . S
H721 C709 0.929 . S
H722 C710 0.960 . S
H723 C710 0.962 . S
H724 C710 0.960 . S
H725 C711 0.961 . S
H726 C711 0.961 . S
H727 C711 0.961 . S
H728 C712 0.931 . S
H729 C717 0.930 . S
H730 C718 0.956 . S
H731 C718 0.961 . S
H732 C718 0.961 . S
H733 C719 0.958 . S
H734 C719 0.961 . S
H735 C719 0.960 . S
C736 C737 1.391 . S
C736 C738 1.394 . S
C736 H752 0.931 . S
C737 C736 1.391 . S
C737 C741 1.376 . S
C738 C736 1.394 . S
C738 C739 1.369 . S
C738 C742 1.531 . S
C739 C738 1.369 . S
C739 C740 1.410 . S
C739 C747 1.503 . S
C740 C739 1.410 . S
C740 C741 1.392 . S
C740 C743 1.511 . S
C741 C737 1.376 . S
C741 C740 1.392 . S
C741 H753 0.929 . S
C742 C738 1.531 . S
C742 H754 0.960 . S
C742 H755 0.962 . S
C742 H756 0.960 . S
C743 C740 1.511 . S
C743 H757 0.961 . S
C743 H758 0.961 . S
C743 H759 0.961 . S
C744 C745 1.370 . S
C744 C746 1.363 . S
C744 H760 0.931 . S
C745 C744 1.370 . S
C745 C749 1.408 . S
C746 C744 1.363 . S
C746 C747 1.370 . S
C746 C750 1.524 . S
C747 C739 1.503 . S
C747 C746 1.370 . S
C747 C748 1.403 . S
C748 C747 1.403 . S
C748 C749 1.404 . S
C748 C751 1.539 . S
C749 C745 1.408 . S
C749 C748 1.404 . S
C749 H761 0.930 . S
C750 C746 1.524 . S
C750 H762 0.956 . S
C750 H763 0.961 . S
C750 H764 0.961 . S
C751 C748 1.539 . S
C751 H765 0.958 . S
C751 H766 0.961 . S
C751 H767 0.960 . S
H752 C736 0.931 . S
H753 C741 0.929 . S
H754 C742 0.960 . S
H755 C742 0.962 . S
H756 C742 0.960 . S
H757 C743 0.961 . S
H758 C743 0.961 . S
H759 C743 0.961 . S
H760 C744 0.931 . S
H761 C749 0.930 . S
H762 C750 0.956 . S
H763 C750 0.961 . S
H764 C750 0.961 . S
H765 C751 0.958 . S
H766 C751 0.961 . S
H767 C751 0.960 . S
C768 C769 1.391 . S
C768 C770 1.394 . S
C768 H784 0.931 . S
C769 C768 1.391 . S
C769 C773 1.376 . S
C770 C768 1.394 . S
C770 C771 1.369 . S
C770 C774 1.531 . S
C771 C770 1.369 . S
C771 C772 1.410 . S
C771 C779 1.503 . S
C772 C771 1.410 . S
C772 C773 1.392 . S
C772 C775 1.511 . S
C773 C769 1.376 . S
C773 C772 1.392 . S
C773 H785 0.929 . S
C774 C770 1.531 . S
C774 H786 0.960 . S
C774 H787 0.962 . S
C774 H788 0.960 . S
C775 C772 1.511 . S
C775 H789 0.961 . S
C775 H790 0.961 . S
C775 H791 0.961 . S
C776 C777 1.370 . S
C776 C778 1.363 . S
C776 H792 0.931 . S
C777 C776 1.370 . S
C777 C781 1.408 . S
C778 C776 1.363 . S
C778 C779 1.370 . S
C778 C782 1.524 . S
C779 C771 1.503 . S
C779 C778 1.370 . S
C779 C780 1.403 . S
C780 C779 1.403 . S
C780 C781 1.404 . S
C780 C783 1.539 . S
C781 C777 1.408 . S
C781 C780 1.404 . S
C781 H793 0.930 . S
C782 C778 1.524 . S
C782 H794 0.956 . S
C782 H795 0.961 . S
C782 H796 0.961 . S
C783 C780 1.539 . S
C783 H797 0.958 . S
C783 H798 0.961 . S
C783 H799 0.960 . S
H784 C768 0.931 . S
H785 C773 0.929 . S
H786 C774 0.960 . S
H787 C774 0.962 . S
H788 C774 0.960 . S
H789 C775 0.961 . S
H790 C775 0.961 . S
H791 C775 0.961 . S
H792 C776 0.931 . S
H793 C781 0.930 . S
H794 C782 0.956 . S
H795 C782 0.961 . S
H796 C782 0.961 . S
H797 C783 0.958 . S
H798 C783 0.961 . S
H799 C783 0.960 . S
C800 C801 1.391 . S
C800 C802 1.394 . S
C800 H816 0.931 . S
C801 C800 1.391 . S
C801 C805 1.376 . S
C802 C800 1.394 . S
C802 C803 1.369 . S
C802 C806 1.531 . S
C803 C802 1.369 . S
C803 C804 1.410 . S
C803 C811 1.503 . S
C804 C803 1.410 . S
C804 C805 1.392 . S
C804 C807 1.511 . S
C805 C801 1.376 . S
C805 C804 1.392 . S
C805 H817 0.929 . S
C806 C802 1.531 . S
C806 H818 0.960 . S
C806 H819 0.962 . S
C806 H820 0.960 . S
C807 C804 1.511 . S
C807 H821 0.961 . S
C807 H822 0.961 . S
C807 H823 0.961 . S
C808 C809 1.370 . S
C808 C810 1.363 . S
C808 H824 0.931 . S
C809 C808 1.370 . S
C809 C813 1.408 . S
C810 C808 1.363 . S
C810 C811 1.370 . S
C810 C814 1.524 . S
C811 C803 1.503 . S
C811 C810 1.370 . S
C811 C812 1.403 . S
C812 C811 1.403 . S
C812 C813 1.404 . S
C812 C815 1.539 . S
C813 C809 1.408 . S
C813 C812 1.404 . S
C813 H825 0.930 . S
C814 C810 1.524 . S
C814 H826 0.956 . S
C814 H827 0.961 . S
C814 H828 0.961 . S
C815 C812 1.539 . S
C815 H829 0.958 . S
C815 H830 0.961 . S
C815 H831 0.960 . S
H816 C800 0.931 . S
H817 C805 0.929 . S
H818 C806 0.960 . S
H819 C806 0.962 . S
H820 C806 0.960 . S
H821 C807 0.961 . S
H822 C807 0.961 . S
H823 C807 0.961 . S
H824 C808 0.931 . S
H825 C813 0.930 . S
H826 C814 0.956 . S
H827 C814 0.961 . S
H828 C814 0.961 . S
H829 C815 0.958 . S
H830 C815 0.961 . S
H831 C815 0.960 . S
C832 C833 1.391 . S
C832 C834 1.394 . S
C832 H848 0.931 . S
C833 C832 1.391 . S
C833 C837 1.376 . S
C834 C832 1.394 . S
C834 C835 1.369 . S
C834 C838 1.531 . S
C835 C834 1.369 . S
C835 C836 1.410 . S
C835 C843 1.503 . S
C836 C835 1.410 . S
C836 C837 1.392 . S
C836 C839 1.511 . S
C837 C833 1.376 . S
C837 C836 1.392 . S
C837 H849 0.929 . S
C838 C834 1.531 . S
C838 H850 0.960 . S
C838 H851 0.962 . S
C838 H852 0.960 . S
C839 C836 1.511 . S
C839 H853 0.961 . S
C839 H854 0.961 . S
C839 H855 0.961 . S
C840 C841 1.370 . S
C840 C842 1.363 . S
C840 H856 0.931 . S
C841 C840 1.370 . S
C841 C845 1.408 . S
C842 C840 1.363 . S
C842 C843 1.370 . S
C842 C846 1.524 . S
C843 C835 1.503 . S
C843 C842 1.370 . S
C843 C844 1.403 . S
C844 C843 1.403 . S
C844 C845 1.404 . S
C844 C847 1.539 . S
C845 C841 1.408 . S
C845 C844 1.404 . S
C845 H857 0.930 . S
C846 C842 1.524 . S
C846 H858 0.956 . S
C846 H859 0.961 . S
C846 H860 0.961 . S
C847 C844 1.539 . S
C847 H861 0.958 . S
C847 H862 0.961 . S
C847 H863 0.960 . S
H848 C832 0.931 . S
H849 C837 0.929 . S
H850 C838 0.960 . S
H851 C838 0.962 . S
H852 C838 0.960 . S
H853 C839 0.961 . S
H854 C839 0.961 . S
H855 C839 0.961 . S
H856 C840 0.931 . S
H857 C845 0.930 . S
H858 C846 0.956 . S
H859 C846 0.961 . S
H860 C846 0.961 . S
H861 C847 0.958 . S
H862 C847 0.961 . S
H863 C847 0.960 . S
C864 C865 1.391 . S
C864 C866 1.394 . S
C864 H880 0.931 . S
C865 C864 1.391 . S
C865 C869 1.376 . S
C866 C864 1.394 . S
C866 C867 1.369 . S
C866 C870 1.531 . S
C867 C866 1.369 . S
C867 C868 1.410 . S
C867 C875 1.503 . S
C868 C867 1.410 . S
C868 C869 1.392 . S
C868 C871 1.511 . S
C869 C865 1.376 . S
C869 C868 1.392 . S
C869 H881 0.929 . S
C870 C866 1.531 . S
C870 H882 0.960 . S
C870 H883 0.962 . S
C870 H884 0.960 . S
C871 C868 1.511 . S
C871 H885 0.961 . S
C871 H886 0.961 . S
C871 H887 0.961 . S
C872 C873 1.370 . S
C872 C874 1.363 . S
C872 H888 0.931 . S
C873 C872 1.370 . S
C873 C877 1.408 . S
C874 C872 1.363 . S
C874 C875 1.370 . S
C874 C878 1.524 . S
C875 C867 1.503 . S
C875 C874 1.370 . S
C875 C876 1.403 . S
C876 C875 1.403 . S
C876 C877 1.404 . S
C876 C879 1.539 . S
C877 C873 1.408 . S
C877 C876 1.404 . S
C877 H889 0.930 . S
C878 C874 1.524 . S
C878 H890 0.956 . S
C878 H891 0.961 . S
C878 H892 0.961 . S
C879 C876 1.539 . S
C879 H893 0.958 . S
C879 H894 0.961 . S
C879 H895 0.960 . S
H880 C864 0.931 . S
H881 C869 0.929 . S
H882 C870 0.960 . S
H883 C870 0.962 . S
H884 C870 0.960 . S
H885 C871 0.961 . S
H886 C871 0.961 . S
H887 C871 0.961 . S
H888 C872 0.931 . S
H889 C877 0.930 . S
H890 C878 0.956 . S
H891 C878 0.961 . S
H892 C878 0.961 . S
H893 C879 0.958 . S
H894 C879 0.961 . S
H895 C879 0.960 . S
C896 C897 1.391 . S
C896 C898 1.394 . S
C896 H912 0.931 . S
C897 C896 1.391 . S
C897 C901 1.376 . S
C898 C896 1.394 . S
C898 C899 1.369 . S
C898 C902 1.531 . S
C899 C898 1.369 . S
C899 C900 1.410 . S
C899 C907 1.503 . S
C900 C899 1.410 . S
C900 C901 1.392 . S
C900 C903 1.511 . S
C901 C897 1.376 . S
C901 C900 1.392 . S
C901 H913 0.929 . S
C902 C898 1.531 . S
C902 H914 0.960 . S
C902 H915 0.962 . S
C902 H916 0.960 . S
C903 C900 1.511 . S
C903 H917 0.961 . S
C903 H918 0.961 . S
C903 H919 0.961 . S
C904 C905 1.370 . S
C904 C906 1.363 . S
C904 H920 0.931 . S
C905 C904 1.370 . S
C905 C909 1.408 . S
C906 C904 1.363 . S
C906 C907 1.370 . S
C906 C910 1.524 . S
C907 C899 1.503 . S
C907 C906 1.370 . S
C907 C908 1.403 . S
C908 C907 1.403 . S
C908 C909 1.404 . S
C908 C911 1.539 . S
C909 C905 1.408 . S
C909 C908 1.404 . S
C909 H921 0.930 . S
C910 C906 1.524 . S
C910 H922 0.956 . S
C910 H923 0.961 . S
C910 H924 0.961 . S
C911 C908 1.539 . S
C911 H925 0.958 . S
C911 H926 0.961 . S
C911 H927 0.960 . S
H912 C896 0.931 . S
H913 C901 0.929 . S
H914 C902 0.960 . S
H915 C902 0.962 . S
H916 C902 0.960 . S
H917 C903 0.961 . S
H918 C903 0.961 . S
H919 C903 0.961 . S
H920 C904 0.931 . S
H921 C909 0.930 . S
H922 C910 0.956 . S
H923 C910 0.961 . S
H924 C910 0.961 . S
H925 C911 0.958 . S
H926 C911 0.961 . S
H927 C911 0.960 . S
C928 C929 1.391 . S
C928 C930 1.394 . S
C928 H944 0.931 . S
C929 C928 1.391 . S
C929 C933 1.376 . S
C930 C928 1.394 . S
C930 C931 1.369 . S
C930 C934 1.531 . S
C931 C930 1.369 . S
C931 C932 1.410 . S
C931 C939 1.503 . S
C932 C931 1.410 . S
C932 C933 1.392 . S
C932 C935 1.511 . S
C933 C929 1.376 . S
C933 C932 1.392 . S
C933 H945 0.929 . S
C934 C930 1.531 . S
C934 H946 0.960 . S
C934 H947 0.962 . S
C934 H948 0.960 . S
C935 C932 1.511 . S
C935 H949 0.961 . S
C935 H950 0.961 . S
C935 H951 0.961 . S
C936 C937 1.370 . S
C936 C938 1.363 . S
C936 H952 0.931 . S
C937 C936 1.370 . S
C937 C941 1.408 . S
C938 C936 1.363 . S
C938 C939 1.370 . S
C938 C942 1.524 . S
C939 C931 1.503 . S
C939 C938 1.370 . S
C939 C940 1.403 . S
C940 C939 1.403 . S
C940 C941 1.404 . S
C940 C943 1.539 . S
C941 C937 1.408 . S
C941 C940 1.404 . S
C941 H953 0.930 . S
C942 C938 1.524 . S
C942 H954 0.956 . S
C942 H955 0.961 . S
C942 H956 0.961 . S
C943 C940 1.539 . S
C943 H957 0.958 . S
C943 H958 0.961 . S
C943 H959 0.960 . S
H944 C928 0.931 . S
H945 C933 0.929 . S
H946 C934 0.960 . S
H947 C934 0.962 . S
H948 C934 0.960 . S
H949 C935 0.961 . S
H950 C935 0.961 . S
H951 C935 0.961 . S
H952 C936 0.931 . S
H953 C941 0.930 . S
H954 C942 0.956 . S
H955 C942 0.961 . S
H956 C942 0.961 . S
H957 C943 0.958 . S
H958 C943 0.961 . S
H959 C943 0.960 . S
C960 C961 1.391 . S
C960 C962 1.394 . S
C960 H976 0.931 . S
C961 C960 1.391 . S
C961 C965 1.376 . S
C962 C960 1.394 . S
C962 C963 1.369 . S
C962 C966 1.531 . S
C963 C962 1.369 . S
C963 C964 1.410 . S
C963 C971 1.503 1_554 S
C964 C963 1.410 . S
C964 C965 1.392 . S
C964 C967 1.511 . S
C965 C961 1.376 . S
C965 C964 1.392 . S
C965 H977 0.929 . S
C966 C962 1.531 . S
C966 H978 0.960 1_554 S
C966 H979 0.962 . S
C966 H980 0.960 . S
C967 C964 1.511 . S
C967 H981 0.961 . S
C967 H982 0.961 1_554 S
C967 H983 0.961 . S
C968 C969 1.370 . S
C968 C970 1.363 . S
C968 H984 0.931 . S
C969 C968 1.370 . S
C969 C973 1.408 . S
C970 C968 1.363 . S
C970 C971 1.370 . S
C970 C974 1.524 . S
C971 C963 1.503 1_556 S
C971 C970 1.370 . S
C971 C972 1.403 . S
C972 C971 1.403 . S
C972 C973 1.404 . S
C972 C975 1.539 . S
C973 C969 1.408 . S
C973 C972 1.404 . S
C973 H985 0.930 . S
C974 C970 1.524 . S
C974 H986 0.956 . S
C974 H987 0.961 1_556 S
C974 H988 0.961 . S
C975 C972 1.539 . S
C975 H989 0.958 . S
C975 H990 0.961 . S
C975 H991 0.971 . S
H976 C960 0.931 . S
H977 C965 0.929 . S
H978 C966 0.960 1_556 S
H979 C966 0.962 . S
H980 C966 0.960 . S
H981 C967 0.961 . S
H982 C967 0.961 1_556 S
H983 C967 0.961 . S
H984 C968 0.931 . S
H985 C973 0.930 . S
H986 C974 0.956 . S
H987 C974 0.961 1_554 S
H988 C974 0.961 . S
H989 C975 0.958 . S
H990 C975 0.961 . S
H991 C975 0.971 . S
C992 C993 1.391 . S
C992 C994 1.394 . S
C992 H1008 0.931 . S
C993 C992 1.391 . S
C993 C997 1.376 . S
C994 C992 1.394 . S
C994 C995 1.369 . S
C994 C998 1.531 . S
C995 C994 1.369 . S
C995 C996 1.410 . S
C995 C1003 1.503 1_556 S
C996 C995 1.410 . S
C996 C997 1.392 . S
C996 C999 1.511 . S
C997 C993 1.376 . S
C997 C996 1.392 . S
C997 H1009 0.929 . S
C998 C994 1.531 . S
C998 H1010 0.960 1_556 S
C998 H1011 0.962 . S
C998 H1012 0.960 . S
C999 C996 1.511 . S
C999 H1013 0.961 . S
C999 H1014 0.961 1_556 S
C999 H1015 0.961 . S
C1000 C1001 1.370 . S
C1000 C1002 1.363 . S
C1000 H1016 0.931 . S
C1001 C1000 1.370 . S
C1001 C1005 1.408 . S
C1002 C1000 1.363 . S
C1002 C1003 1.370 . S
C1002 C1006 1.524 . S
C1003 C995 1.503 1_554 S
C1003 C1002 1.370 . S
C1003 C1004 1.403 . S
C1004 C1003 1.403 . S
C1004 C1005 1.404 . S
C1004 C1007 1.539 . S
C1005 C1001 1.408 . S
C1005 C1004 1.404 . S
C1005 H1017 0.930 . S
C1006 C1002 1.524 . S
C1006 H1018 0.956 . S
C1006 H1019 0.961 1_554 S
C1006 H1020 0.961 . S
C1007 C1004 1.539 . S
C1007 H1021 0.958 . S
C1007 H1022 0.961 . S
C1007 H1023 0.971 . S
H1008 C992 0.931 . S
H1009 C997 0.929 . S
H1010 C998 0.960 1_554 S
H1011 C998 0.962 . S
H1012 C998 0.960 . S
H1013 C999 0.961 . S
H1014 C999 0.961 1_554 S
H1015 C999 0.961 . S
H1016 C1000 0.931 . S
H1017 C1005 0.930 . S
H1018 C1006 0.956 . S
H1019 C1006 0.961 1_556 S
H1020 C1006 0.961 . S
H1021 C1007 0.958 . S
H1022 C1007 0.961 . S
H1023 C1007 0.971 . S
C1024 C1025 1.391 . S
C1024 C1026 1.394 . S
C1024 H1040 0.931 . S
C1025 C1024 1.391 . S
C1025 C1029 1.376 . S
C1026 C1024 1.394 . S
C1026 C1027 1.369 . S
C1026 C1030 1.531 . S
C1027 C1026 1.369 . S
C1027 C1028 1.410 . S
C1027 C1035 1.503 1_556 S
C1028 C1027 1.410 . S
C1028 C1029 1.392 . S
C1028 C1031 1.511 . S
C1029 C1025 1.376 . S
C1029 C1028 1.392 . S
C1029 H1041 0.929 . S
C1030 C1026 1.531 . S
C1030 H1042 0.960 1_556 S
C1030 H1043 0.962 . S
C1030 H1044 0.960 . S
C1031 C1028 1.511 . S
C1031 H1045 0.961 . S
C1031 H1046 0.961 1_556 S
C1031 H1047 0.961 . S
C1032 C1033 1.370 . S
C1032 C1034 1.363 . S
C1032 H1048 0.931 . S
C1033 C1032 1.370 . S
C1033 C1037 1.408 . S
C1034 C1032 1.363 . S
C1034 C1035 1.370 . S
C1034 C1038 1.524 . S
C1035 C1027 1.503 1_554 S
C1035 C1034 1.370 . S
C1035 C1036 1.403 . S
C1036 C1035 1.403 . S
C1036 C1037 1.404 . S
C1036 C1039 1.539 . S
C1037 C1033 1.408 . S
C1037 C1036 1.404 . S
C1037 H1049 0.930 . S
C1038 C1034 1.524 . S
C1038 H1050 0.956 . S
C1038 H1051 0.961 1_554 S
C1038 H1052 0.961 . S
C1039 C1036 1.539 . S
C1039 H1053 0.958 . S
C1039 H1054 0.961 . S
C1039 H1055 0.971 . S
H1040 C1024 0.931 . S
H1041 C1029 0.929 . S
H1042 C1030 0.960 1_554 S
H1043 C1030 0.962 . S
H1044 C1030 0.960 . S
H1045 C1031 0.961 . S
H1046 C1031 0.961 1_554 S
H1047 C1031 0.961 . S
H1048 C1032 0.931 . S
H1049 C1037 0.930 . S
H1050 C1038 0.956 . S
H1051 C1038 0.961 1_556 S
H1052 C1038 0.961 . S
H1053 C1039 0.958 . S
H1054 C1039 0.961 . S
H1055 C1039 0.971 . S
C1056 C1057 1.391 . S
C1056 C1058 1.394 . S
C1056 H1072 0.931 . S
C1057 C1056 1.391 . S
C1057 C1061 1.376 . S
C1058 C1056 1.394 . S
C1058 C1059 1.369 . S
C1058 C1062 1.531 . S
C1059 C1058 1.369 . S
C1059 C1060 1.410 . S
C1059 C1067 1.503 1_556 S
C1060 C1059 1.410 . S
C1060 C1061 1.392 . S
C1060 C1063 1.511 . S
C1061 C1057 1.376 . S
C1061 C1060 1.392 . S
C1061 H1073 0.929 . S
C1062 C1058 1.531 . S
C1062 H1074 0.960 1_556 S
C1062 H1075 0.962 . S
C1062 H1076 0.960 . S
C1063 C1060 1.511 . S
C1063 H1077 0.961 . S
C1063 H1078 0.961 1_556 S
C1063 H1079 0.961 . S
C1064 C1065 1.370 . S
C1064 C1066 1.363 . S
C1064 H1080 0.931 . S
C1065 C1064 1.370 . S
C1065 C1069 1.408 . S
C1066 C1064 1.363 . S
C1066 C1067 1.370 . S
C1066 C1070 1.524 . S
C1067 C1059 1.503 1_554 S
C1067 C1066 1.370 . S
C1067 C1068 1.403 . S
C1068 C1067 1.403 . S
C1068 C1069 1.404 . S
C1068 C1071 1.539 . S
C1069 C1065 1.408 . S
C1069 C1068 1.404 . S
C1069 H1081 0.930 . S
C1070 C1066 1.524 . S
C1070 H1082 0.956 . S
C1070 H1083 0.961 1_554 S
C1070 H1084 0.961 . S
C1071 C1068 1.539 . S
C1071 H1085 0.958 . S
C1071 H1086 0.961 . S
C1071 H1087 0.971 . S
H1072 C1056 0.931 . S
H1073 C1061 0.929 . S
H1074 C1062 0.960 1_554 S
H1075 C1062 0.962 . S
H1076 C1062 0.960 . S
H1077 C1063 0.961 . S
H1078 C1063 0.961 1_554 S
H1079 C1063 0.961 . S
H1080 C1064 0.931 . S
H1081 C1069 0.930 . S
H1082 C1070 0.956 . S
H1083 C1070 0.961 1_556 S
H1084 C1070 0.961 . S
H1085 C1071 0.958 . S
H1086 C1071 0.961 . S
H1087 C1071 0.971 . S
C1088 C1089 1.391 . S
C1088 C1090 1.394 . S
C1088 H1104 0.931 . S
C1089 C1088 1.391 . S
C1089 C1093 1.376 . S
C1090 C1088 1.394 . S
C1090 C1091 1.369 . S
C1090 C1094 1.531 . S
C1091 C1090 1.369 . S
C1091 C1092 1.410 . S
C1091 C1099 1.503 . S
C1092 C1091 1.410 . S
C1092 C1093 1.392 . S
C1092 C1095 1.511 . S
C1093 C1089 1.376 . S
C1093 C1092 1.392 . S
C1093 H1105 0.929 . S
C1094 C1090 1.531 . S
C1094 H1106 0.960 . S
C1094 H1107 0.962 . S
C1094 H1108 0.960 . S
C1095 C1092 1.511 . S
C1095 H1109 0.961 . S
C1095 H1110 0.961 . S
C1095 H1111 0.961 . S
C1096 C1097 1.370 . S
C1096 C1098 1.363 . S
C1096 H1112 0.931 . S
C1097 C1096 1.370 . S
C1097 C1101 1.408 . S
C1098 C1096 1.363 . S
C1098 C1099 1.370 . S
C1098 C1102 1.524 . S
C1099 C1091 1.503 . S
C1099 C1098 1.370 . S
C1099 C1100 1.403 . S
C1100 C1099 1.403 . S
C1100 C1101 1.404 . S
C1100 C1103 1.539 . S
C1101 C1097 1.408 . S
C1101 C1100 1.404 . S
C1101 H1113 0.930 . S
C1102 C1098 1.524 . S
C1102 H1114 0.956 . S
C1102 H1115 0.961 . S
C1102 H1116 0.961 . S
C1103 C1100 1.539 . S
C1103 H1117 0.958 . S
C1103 H1118 0.961 . S
C1103 H1119 0.960 . S
H1104 C1088 0.931 . S
H1105 C1093 0.929 . S
H1106 C1094 0.960 . S
H1107 C1094 0.962 . S
H1108 C1094 0.960 . S
H1109 C1095 0.961 . S
H1110 C1095 0.961 . S
H1111 C1095 0.961 . S
H1112 C1096 0.931 . S
H1113 C1101 0.930 . S
H1114 C1102 0.956 . S
H1115 C1102 0.961 . S
H1116 C1102 0.961 . S
H1117 C1103 0.958 . S
H1118 C1103 0.961 . S
H1119 C1103 0.960 . S
C1120 C1121 1.391 . S
C1120 C1122 1.394 . S
C1120 H1136 0.931 . S
C1121 C1120 1.391 . S
C1121 C1125 1.376 . S
C1122 C1120 1.394 . S
C1122 C1123 1.369 . S
C1122 C1126 1.531 . S
C1123 C1122 1.369 . S
C1123 C1124 1.410 . S
C1123 C1131 1.503 . S
C1124 C1123 1.410 . S
C1124 C1125 1.392 . S
C1124 C1127 1.511 . S
C1125 C1121 1.376 . S
C1125 C1124 1.392 . S
C1125 H1137 0.929 . S
C1126 C1122 1.531 . S
C1126 H1138 0.960 . S
C1126 H1139 0.962 . S
C1126 H1140 0.960 . S
C1127 C1124 1.511 . S
C1127 H1141 0.961 . S
C1127 H1142 0.961 . S
C1127 H1143 0.961 . S
C1128 C1129 1.370 . S
C1128 C1130 1.363 . S
C1128 H1144 0.931 . S
C1129 C1128 1.370 . S
C1129 C1133 1.408 . S
C1130 C1128 1.363 . S
C1130 C1131 1.370 . S
C1130 C1134 1.524 . S
C1131 C1123 1.503 . S
C1131 C1130 1.370 . S
C1131 C1132 1.403 . S
C1132 C1131 1.403 . S
C1132 C1133 1.404 . S
C1132 C1135 1.539 . S
C1133 C1129 1.408 . S
C1133 C1132 1.404 . S
C1133 H1145 0.930 . S
C1134 C1130 1.524 . S
C1134 H1146 0.956 . S
C1134 H1147 0.961 . S
C1134 H1148 0.961 . S
C1135 C1132 1.539 . S
C1135 H1149 0.958 . S
C1135 H1150 0.961 . S
C1135 H1151 0.960 . S
H1136 C1120 0.931 . S
H1137 C1125 0.929 . S
H1138 C1126 0.960 . S
H1139 C1126 0.962 . S
H1140 C1126 0.960 . S
H1141 C1127 0.961 . S
H1142 C1127 0.961 . S
H1143 C1127 0.961 . S
H1144 C1128 0.931 . S
H1145 C1133 0.930 . S
H1146 C1134 0.956 . S
H1147 C1134 0.961 . S
H1148 C1134 0.961 . S
H1149 C1135 0.958 . S
H1150 C1135 0.961 . S
H1151 C1135 0.960 . S
C1152 C1153 1.391 . S
C1152 C1154 1.394 . S
C1152 H1168 0.931 . S
C1153 C1152 1.391 . S
C1153 C1157 1.376 . S
C1154 C1152 1.394 . S
C1154 C1155 1.369 . S
C1154 C1158 1.531 . S
C1155 C1154 1.369 . S
C1155 C1156 1.410 . S
C1155 C1163 1.503 . S
C1156 C1155 1.410 . S
C1156 C1157 1.392 . S
C1156 C1159 1.511 . S
C1157 C1153 1.376 . S
C1157 C1156 1.392 . S
C1157 H1169 0.929 . S
C1158 C1154 1.531 . S
C1158 H1170 0.960 . S
C1158 H1171 0.962 . S
C1158 H1172 0.960 . S
C1159 C1156 1.511 . S
C1159 H1173 0.961 . S
C1159 H1174 0.961 . S
C1159 H1175 0.961 . S
C1160 C1161 1.370 . S
C1160 C1162 1.363 . S
C1160 H1176 0.931 . S
C1161 C1160 1.370 . S
C1161 C1165 1.408 . S
C1162 C1160 1.363 . S
C1162 C1163 1.370 . S
C1162 C1166 1.524 . S
C1163 C1155 1.503 . S
C1163 C1162 1.370 . S
C1163 C1164 1.403 . S
C1164 C1163 1.403 . S
C1164 C1165 1.404 . S
C1164 C1167 1.539 . S
C1165 C1161 1.408 . S
C1165 C1164 1.404 . S
C1165 H1177 0.930 . S
C1166 C1162 1.524 . S
C1166 H1178 0.956 . S
C1166 H1179 0.961 . S
C1166 H1180 0.961 . S
C1167 C1164 1.539 . S
C1167 H1181 0.958 . S
C1167 H1182 0.961 . S
C1167 H1183 0.960 . S
H1168 C1152 0.931 . S
H1169 C1157 0.929 . S
H1170 C1158 0.960 . S
H1171 C1158 0.962 . S
H1172 C1158 0.960 . S
H1173 C1159 0.961 . S
H1174 C1159 0.961 . S
H1175 C1159 0.961 . S
H1176 C1160 0.931 . S
H1177 C1165 0.930 . S
H1178 C1166 0.956 . S
H1179 C1166 0.961 . S
H1180 C1166 0.961 . S
H1181 C1167 0.958 . S
H1182 C1167 0.961 . S
H1183 C1167 0.960 . S
C1184 C1185 1.391 . S
C1184 C1186 1.394 . S
C1184 H1200 0.931 . S
C1185 C1184 1.391 . S
C1185 C1189 1.376 . S
C1186 C1184 1.394 . S
C1186 C1187 1.369 . S
C1186 C1190 1.531 . S
C1187 C1186 1.369 . S
C1187 C1188 1.410 . S
C1187 C1195 1.503 . S
C1188 C1187 1.410 . S
C1188 C1189 1.392 . S
C1188 C1191 1.511 . S
C1189 C1185 1.376 . S
C1189 C1188 1.392 . S
C1189 H1201 0.929 . S
C1190 C1186 1.531 . S
C1190 H1202 0.960 . S
C1190 H1203 0.962 . S
C1190 H1204 0.960 . S
C1191 C1188 1.511 . S
C1191 H1205 0.961 . S
C1191 H1206 0.961 . S
C1191 H1207 0.961 . S
C1192 C1193 1.370 . S
C1192 C1194 1.363 . S
C1192 H1208 0.931 . S
C1193 C1192 1.370 . S
C1193 C1197 1.408 . S
C1194 C1192 1.363 . S
C1194 C1195 1.370 . S
C1194 C1198 1.524 . S
C1195 C1187 1.503 . S
C1195 C1194 1.370 . S
C1195 C1196 1.403 . S
C1196 C1195 1.403 . S
C1196 C1197 1.404 . S
C1196 C1199 1.539 . S
C1197 C1193 1.408 . S
C1197 C1196 1.404 . S
C1197 H1209 0.930 . S
C1198 C1194 1.524 . S
C1198 H1210 0.956 . S
C1198 H1211 0.961 . S
C1198 H1212 0.961 . S
C1199 C1196 1.539 . S
C1199 H1213 0.958 . S
C1199 H1214 0.961 . S
C1199 H1215 0.960 . S
H1200 C1184 0.931 . S
H1201 C1189 0.929 . S
H1202 C1190 0.960 . S
H1203 C1190 0.962 . S
H1204 C1190 0.960 . S
H1205 C1191 0.961 . S
H1206 C1191 0.961 . S
H1207 C1191 0.961 . S
H1208 C1192 0.931 . S
H1209 C1197 0.930 . S
H1210 C1198 0.956 . S
H1211 C1198 0.961 . S
H1212 C1198 0.961 . S
H1213 C1199 0.958 . S
H1214 C1199 0.961 . S
H1215 C1199 0.960 . S
C1216 C1217 1.391 . S
C1216 C1218 1.394 . S
C1216 H1232 0.931 . S
C1217 C1216 1.391 . S
C1217 C1221 1.376 . S
C1218 C1216 1.394 . S
C1218 C1219 1.369 . S
C1218 C1222 1.531 . S
C1219 C1218 1.369 . S
C1219 C1220 1.410 . S
C1219 C1227 1.503 . S
C1220 C1219 1.410 . S
C1220 C1221 1.392 . S
C1220 C1223 1.511 . S
C1221 C1217 1.376 . S
C1221 C1220 1.392 . S
C1221 H1233 0.929 . S
C1222 C1218 1.531 . S
C1222 H1234 0.960 . S
C1222 H1235 0.962 . S
C1222 H1236 0.960 . S
C1223 C1220 1.511 . S
C1223 H1237 0.961 . S
C1223 H1238 0.961 . S
C1223 H1239 0.961 . S
C1224 C1225 1.370 . S
C1224 C1226 1.363 . S
C1224 H1240 0.931 . S
C1225 C1224 1.370 . S
C1225 C1229 1.408 . S
C1226 C1224 1.363 . S
C1226 C1227 1.370 . S
C1226 C1230 1.524 . S
C1227 C1219 1.503 . S
C1227 C1226 1.370 . S
C1227 C1228 1.403 . S
C1228 C1227 1.403 . S
C1228 C1229 1.404 . S
C1228 C1231 1.539 . S
C1229 C1225 1.408 . S
C1229 C1228 1.404 . S
C1229 H1241 0.930 . S
C1230 C1226 1.524 . S
C1230 H1242 0.956 . S
C1230 H1243 0.961 . S
C1230 H1244 0.961 . S
C1231 C1228 1.539 . S
C1231 H1245 0.958 . S
C1231 H1246 0.961 . S
C1231 H1247 0.960 . S
H1232 C1216 0.931 . S
H1233 C1221 0.929 . S
H1234 C1222 0.960 . S
H1235 C1222 0.962 . S
H1236 C1222 0.960 . S
H1237 C1223 0.961 . S
H1238 C1223 0.961 . S
H1239 C1223 0.961 . S
H1240 C1224 0.931 . S
H1241 C1229 0.930 . S
H1242 C1230 0.956 . S
H1243 C1230 0.961 . S
H1244 C1230 0.961 . S
H1245 C1231 0.958 . S
H1246 C1231 0.961 . S
H1247 C1231 0.960 . S
C1248 C1249 1.391 . S
C1248 C1250 1.394 . S
C1248 H1264 0.931 . S
C1249 C1248 1.391 . S
C1249 C1253 1.376 . S
C1250 C1248 1.394 . S
C1250 C1251 1.369 . S
C1250 C1254 1.531 . S
C1251 C1250 1.369 . S
C1251 C1252 1.410 . S
C1251 C1259 1.503 . S
C1252 C1251 1.410 . S
C1252 C1253 1.392 . S
C1252 C1255 1.511 . S
C1253 C1249 1.376 . S
C1253 C1252 1.392 . S
C1253 H1265 0.929 . S
C1254 C1250 1.531 . S
C1254 H1266 0.960 . S
C1254 H1267 0.962 . S
C1254 H1268 0.960 . S
C1255 C1252 1.511 . S
C1255 H1269 0.961 . S
C1255 H1270 0.961 . S
C1255 H1271 0.961 . S
C1256 C1257 1.370 . S
C1256 C1258 1.363 . S
C1256 H1272 0.931 . S
C1257 C1256 1.370 . S
C1257 C1261 1.408 . S
C1258 C1256 1.363 . S
C1258 C1259 1.370 . S
C1258 C1262 1.524 . S
C1259 C1251 1.503 . S
C1259 C1258 1.370 . S
C1259 C1260 1.403 . S
C1260 C1259 1.403 . S
C1260 C1261 1.404 . S
C1260 C1263 1.539 . S
C1261 C1257 1.408 . S
C1261 C1260 1.404 . S
C1261 H1273 0.930 . S
C1262 C1258 1.524 . S
C1262 H1274 0.956 . S
C1262 H1275 0.961 . S
C1262 H1276 0.961 . S
C1263 C1260 1.539 . S
C1263 H1277 0.958 . S
C1263 H1278 0.961 . S
C1263 H1279 0.960 . S
H1264 C1248 0.931 . S
H1265 C1253 0.929 . S
H1266 C1254 0.960 . S
H1267 C1254 0.962 . S
H1268 C1254 0.960 . S
H1269 C1255 0.961 . S
H1270 C1255 0.961 . S
H1271 C1255 0.961 . S
H1272 C1256 0.931 . S
H1273 C1261 0.930 . S
H1274 C1262 0.956 . S
H1275 C1262 0.961 . S
H1276 C1262 0.961 . S
H1277 C1263 0.958 . S
H1278 C1263 0.961 . S
H1279 C1263 0.960 . S
C1280 C1281 1.391 . S
C1280 C1282 1.394 . S
C1280 H1296 0.931 . S
C1281 C1280 1.391 . S
C1281 C1285 1.376 . S
C1282 C1280 1.394 . S
C1282 C1283 1.369 . S
C1282 C1286 1.531 . S
C1283 C1282 1.369 . S
C1283 C1284 1.410 . S
C1283 C1291 1.503 . S
C1284 C1283 1.410 . S
C1284 C1285 1.392 . S
C1284 C1287 1.511 . S
C1285 C1281 1.376 . S
C1285 C1284 1.392 . S
C1285 H1297 0.929 . S
C1286 C1282 1.531 . S
C1286 H1298 0.960 . S
C1286 H1299 0.962 . S
C1286 H1300 0.960 . S
C1287 C1284 1.511 . S
C1287 H1301 0.961 . S
C1287 H1302 0.961 . S
C1287 H1303 0.961 . S
C1288 C1289 1.370 . S
C1288 C1290 1.363 . S
C1288 H1304 0.931 . S
C1289 C1288 1.370 . S
C1289 C1293 1.408 . S
C1290 C1288 1.363 . S
C1290 C1291 1.370 . S
C1290 C1294 1.524 . S
C1291 C1283 1.503 . S
C1291 C1290 1.370 . S
C1291 C1292 1.403 . S
C1292 C1291 1.403 . S
C1292 C1293 1.404 . S
C1292 C1295 1.539 . S
C1293 C1289 1.408 . S
C1293 C1292 1.404 . S
C1293 H1305 0.930 . S
C1294 C1290 1.524 . S
C1294 H1306 0.956 . S
C1294 H1307 0.961 . S
C1294 H1308 0.961 . S
C1295 C1292 1.539 . S
C1295 H1309 0.958 . S
C1295 H1310 0.961 . S
C1295 H1311 0.960 . S
H1296 C1280 0.931 . S
H1297 C1285 0.929 . S
H1298 C1286 0.960 . S
H1299 C1286 0.962 . S
H1300 C1286 0.960 . S
H1301 C1287 0.961 . S
H1302 C1287 0.961 . S
H1303 C1287 0.961 . S
H1304 C1288 0.931 . S
H1305 C1293 0.930 . S
H1306 C1294 0.956 . S
H1307 C1294 0.961 . S
H1308 C1294 0.961 . S
H1309 C1295 0.958 . S
H1310 C1295 0.961 . S
H1311 C1295 0.960 . S
C1312 C1313 1.391 . S
C1312 C1314 1.394 . S
C1312 H1328 0.931 . S
C1313 C1312 1.391 . S
C1313 C1317 1.376 . S
C1314 C1312 1.394 . S
C1314 C1315 1.369 . S
C1314 C1318 1.531 . S
C1315 C1314 1.369 . S
C1315 C1316 1.410 . S
C1315 C1323 1.503 . S
C1316 C1315 1.410 . S
C1316 C1317 1.392 . S
C1316 C1319 1.511 . S
C1317 C1313 1.376 . S
C1317 C1316 1.392 . S
C1317 H1329 0.929 . S
C1318 C1314 1.531 . S
C1318 H1330 0.960 . S
C1318 H1331 0.962 . S
C1318 H1332 0.960 . S
C1319 C1316 1.511 . S
C1319 H1333 0.961 . S
C1319 H1334 0.961 . S
C1319 H1335 0.961 . S
C1320 C1321 1.370 . S
C1320 C1322 1.363 . S
C1320 H1336 0.931 . S
C1321 C1320 1.370 . S
C1321 C1325 1.408 . S
C1322 C1320 1.363 . S
C1322 C1323 1.370 . S
C1322 C1326 1.524 . S
C1323 C1315 1.503 . S
C1323 C1322 1.370 . S
C1323 C1324 1.403 . S
C1324 C1323 1.403 . S
C1324 C1325 1.404 . S
C1324 C1327 1.539 . S
C1325 C1321 1.408 . S
C1325 C1324 1.404 . S
C1325 H1337 0.930 . S
C1326 C1322 1.524 . S
C1326 H1338 0.956 . S
C1326 H1339 0.961 . S
C1326 H1340 0.961 . S
C1327 C1324 1.539 . S
C1327 H1341 0.958 . S
C1327 H1342 0.961 . S
C1327 H1343 0.960 . S
H1328 C1312 0.931 . S
H1329 C1317 0.929 . S
H1330 C1318 0.960 . S
H1331 C1318 0.962 . S
H1332 C1318 0.960 . S
H1333 C1319 0.961 . S
H1334 C1319 0.961 . S
H1335 C1319 0.961 . S
H1336 C1320 0.931 . S
H1337 C1325 0.930 . S
H1338 C1326 0.956 . S
H1339 C1326 0.961 . S
H1340 C1326 0.961 . S
H1341 C1327 0.958 . S
H1342 C1327 0.961 . S
H1343 C1327 0.960 . S
C1344 C1345 1.391 . S
C1344 C1346 1.394 . S
C1344 H1360 0.931 . S
C1345 C1344 1.391 . S
C1345 C1349 1.376 . S
C1346 C1344 1.394 . S
C1346 C1347 1.369 . S
C1346 C1350 1.531 . S
C1347 C1346 1.369 . S
C1347 C1348 1.410 . S
C1347 C1355 1.503 1_556 S
C1348 C1347 1.410 . S
C1348 C1349 1.392 . S
C1348 C1351 1.511 . S
C1349 C1345 1.376 . S
C1349 C1348 1.392 . S
C1349 H1361 0.929 . S
C1350 C1346 1.531 . S
C1350 H1362 0.960 1_556 S
C1350 H1363 0.962 . S
C1350 H1364 0.960 . S
C1351 C1348 1.511 . S
C1351 H1365 0.961 . S
C1351 H1366 0.961 1_556 S
C1351 H1367 0.961 . S
C1352 C1353 1.370 . S
C1352 C1354 1.363 . S
C1352 H1368 0.931 . S
C1353 C1352 1.370 . S
C1353 C1357 1.408 . S
C1354 C1352 1.363 . S
C1354 C1355 1.370 . S
C1354 C1358 1.524 . S
C1355 C1347 1.503 1_554 S
C1355 C1354 1.370 . S
C1355 C1356 1.403 . S
C1356 C1355 1.403 . S
C1356 C1357 1.404 . S
C1356 C1359 1.539 . S
C1357 C1353 1.408 . S
C1357 C1356 1.404 . S
C1357 H1369 0.930 . S
C1358 C1354 1.524 . S
C1358 H1370 0.956 . S
C1358 H1371 0.961 1_554 S
C1358 H1372 0.961 . S
C1359 C1356 1.539 . S
C1359 H1373 0.958 . S
C1359 H1374 0.961 . S
C1359 H1375 0.971 . S
H1360 C1344 0.931 . S
H1361 C1349 0.929 . S
H1362 C1350 0.960 1_554 S
H1363 C1350 0.962 . S
H1364 C1350 0.960 . S
H1365 C1351 0.961 . S
H1366 C1351 0.961 1_554 S
H1367 C1351 0.961 . S
H1368 C1352 0.931 . S
H1369 C1357 0.930 . S
H1370 C1358 0.956 . S
H1371 C1358 0.961 1_556 S
H1372 C1358 0.961 . S
H1373 C1359 0.958 . S
H1374 C1359 0.961 . S
H1375 C1359 0.971 . S
C1376 C1377 1.391 . S
C1376 C1378 1.394 . S
C1376 H1392 0.931 . S
C1377 C1376 1.391 . S
C1377 C1381 1.376 . S
C1378 C1376 1.394 . S
C1378 C1379 1.369 . S
C1378 C1382 1.531 . S
C1379 C1378 1.369 . S
C1379 C1380 1.410 . S
C1379 C1387 1.503 1_554 S
C1380 C1379 1.410 . S
C1380 C1381 1.392 . S
C1380 C1383 1.511 . S
C1381 C1377 1.376 . S
C1381 C1380 1.392 . S
C1381 H1393 0.929 . S
C1382 C1378 1.531 . S
C1382 H1394 0.960 1_554 S
C1382 H1395 0.962 . S
C1382 H1396 0.960 . S
C1383 C1380 1.511 . S
C1383 H1397 0.961 . S
C1383 H1398 0.961 1_554 S
C1383 H1399 0.961 . S
C1384 C1385 1.370 . S
C1384 C1386 1.363 . S
C1384 H1400 0.931 . S
C1385 C1384 1.370 . S
C1385 C1389 1.408 . S
C1386 C1384 1.363 . S
C1386 C1387 1.370 . S
C1386 C1390 1.524 . S
C1387 C1379 1.503 1_556 S
C1387 C1386 1.370 . S
C1387 C1388 1.403 . S
C1388 C1387 1.403 . S
C1388 C1389 1.404 . S
C1388 C1391 1.539 . S
C1389 C1385 1.408 . S
C1389 C1388 1.404 . S
C1389 H1401 0.930 . S
C1390 C1386 1.524 . S
C1390 H1402 0.956 . S
C1390 H1403 0.961 1_556 S
C1390 H1404 0.961 . S
C1391 C1388 1.539 . S
C1391 H1405 0.958 . S
C1391 H1406 0.961 . S
C1391 H1407 0.971 . S
H1392 C1376 0.931 . S
H1393 C1381 0.929 . S
H1394 C1382 0.960 1_556 S
H1395 C1382 0.962 . S
H1396 C1382 0.960 . S
H1397 C1383 0.961 . S
H1398 C1383 0.961 1_556 S
H1399 C1383 0.961 . S
H1400 C1384 0.931 . S
H1401 C1389 0.930 . S
H1402 C1390 0.956 . S
H1403 C1390 0.961 1_554 S
H1404 C1390 0.961 . S
H1405 C1391 0.958 . S
H1406 C1391 0.961 . S
H1407 C1391 0.971 . S
C1408 C1409 1.391 . S
C1408 C1410 1.394 . S
C1408 H1424 0.931 . S
C1409 C1408 1.391 . S
C1409 C1413 1.376 . S
C1410 C1408 1.394 . S
C1410 C1411 1.369 . S
C1410 C1414 1.531 . S
C1411 C1410 1.369 . S
C1411 C1412 1.410 . S
C1411 C1419 1.503 1_554 S
C1412 C1411 1.410 . S
C1412 C1413 1.392 . S
C1412 C1415 1.511 . S
C1413 C1409 1.376 . S
C1413 C1412 1.392 . S
C1413 H1425 0.929 . S
C1414 C1410 1.531 . S
C1414 H1426 0.960 1_554 S
C1414 H1427 0.962 . S
C1414 H1428 0.960 . S
C1415 C1412 1.511 . S
C1415 H1429 0.961 . S
C1415 H1430 0.961 1_554 S
C1415 H1431 0.961 . S
C1416 C1417 1.370 . S
C1416 C1418 1.363 . S
C1416 H1432 0.931 . S
C1417 C1416 1.370 . S
C1417 C1421 1.408 . S
C1418 C1416 1.363 . S
C1418 C1419 1.370 . S
C1418 C1422 1.524 . S
C1419 C1411 1.503 1_556 S
C1419 C1418 1.370 . S
C1419 C1420 1.403 . S
C1420 C1419 1.403 . S
C1420 C1421 1.404 . S
C1420 C1423 1.539 . S
C1421 C1417 1.408 . S
C1421 C1420 1.404 . S
C1421 H1433 0.930 . S
C1422 C1418 1.524 . S
C1422 H1434 0.956 . S
C1422 H1435 0.961 1_556 S
C1422 H1436 0.961 . S
C1423 C1420 1.539 . S
C1423 H1437 0.958 . S
C1423 H1438 0.961 . S
C1423 H1439 0.971 . S
H1424 C1408 0.931 . S
H1425 C1413 0.929 . S
H1426 C1414 0.960 1_556 S
H1427 C1414 0.962 . S
H1428 C1414 0.960 . S
H1429 C1415 0.961 . S
H1430 C1415 0.961 1_556 S
H1431 C1415 0.961 . S
H1432 C1416 0.931 . S
H1433 C1421 0.930 . S
H1434 C1422 0.956 . S
H1435 C1422 0.961 1_554 S
H1436 C1422 0.961 . S
H1437 C1423 0.958 . S
H1438 C1423 0.961 . S
H1439 C1423 0.971 . S
C1440 C1441 1.391 . S
C1440 C1442 1.394 . S
C1440 H1456 0.931 . S
C1441 C1440 1.391 . S
C1441 C1445 1.376 . S
C1442 C1440 1.394 . S
C1442 C1443 1.369 . S
C1442 C1446 1.531 . S
C1443 C1442 1.369 . S
C1443 C1444 1.410 . S
C1443 C1451 1.503 1_556 S
C1444 C1443 1.410 . S
C1444 C1445 1.392 . S
C1444 C1447 1.511 . S
C1445 C1441 1.376 . S
C1445 C1444 1.392 . S
C1445 H1457 0.929 . S
C1446 C1442 1.531 . S
C1446 H1458 0.960 1_556 S
C1446 H1459 0.962 . S
C1446 H1460 0.960 . S
C1447 C1444 1.511 . S
C1447 H1461 0.961 . S
C1447 H1462 0.961 1_556 S
C1447 H1463 0.961 . S
C1448 C1449 1.370 . S
C1448 C1450 1.363 . S
C1448 H1464 0.931 . S
C1449 C1448 1.370 . S
C1449 C1453 1.408 . S
C1450 C1448 1.363 . S
C1450 C1451 1.370 . S
C1450 C1454 1.524 . S
C1451 C1443 1.503 1_554 S
C1451 C1450 1.370 . S
C1451 C1452 1.403 . S
C1452 C1451 1.403 . S
C1452 C1453 1.404 . S
C1452 C1455 1.539 . S
C1453 C1449 1.408 . S
C1453 C1452 1.404 . S
C1453 H1465 0.930 . S
C1454 C1450 1.524 . S
C1454 H1466 0.956 . S
C1454 H1467 0.961 1_554 S
C1454 H1468 0.961 . S
C1455 C1452 1.539 . S
C1455 H1469 0.958 . S
C1455 H1470 0.961 . S
C1455 H1471 0.971 . S
H1456 C1440 0.931 . S
H1457 C1445 0.929 . S
H1458 C1446 0.960 1_554 S
H1459 C1446 0.962 . S
H1460 C1446 0.960 . S
H1461 C1447 0.961 . S
H1462 C1447 0.961 1_554 S
H1463 C1447 0.961 . S
H1464 C1448 0.931 . S
H1465 C1453 0.930 . S
H1466 C1454 0.956 . S
H1467 C1454 0.961 1_556 S
H1468 C1454 0.961 . S
H1469 C1455 0.958 . S
H1470 C1455 0.961 . S
H1471 C1455 0.971 . S
C1472 C1473 1.391 . S
C1472 C1474 1.394 . S
C1472 H1488 0.931 . S
C1473 C1472 1.391 . S
C1473 C1477 1.376 . S
C1474 C1472 1.394 . S
C1474 C1475 1.369 . S
C1474 C1478 1.531 . S
C1475 C1474 1.369 . S
C1475 C1476 1.410 . S
C1475 C1483 1.503 1_545 S
C1476 C1475 1.410 . S
C1476 C1477 1.392 . S
C1476 C1479 1.510 1_545 S
C1477 C1473 1.376 . S
C1477 C1476 1.392 . S
C1477 H1489 0.929 . S
C1478 C1474 1.531 . S
C1478 H1490 0.960 1_545 S
C1478 H1491 0.962 . S
C1478 H1492 0.960 . S
C1479 C1476 1.510 1_565 S
C1479 H1493 0.960 1_565 S
C1479 H1494 0.962 . S
C1479 H1495 0.962 . S
C1480 C1481 1.370 . S
C1480 C1482 1.363 . S
C1480 H1496 0.931 . S
C1481 C1480 1.370 . S
C1481 C1485 1.408 . S
C1482 C1480 1.363 . S
C1482 C1483 1.370 . S
C1482 C1486 1.524 1_565 S
C1483 C1475 1.503 1_565 S
C1483 C1482 1.370 . S
C1483 C1484 1.403 . S
C1484 C1483 1.403 . S
C1484 C1485 1.404 . S
C1484 C1487 1.539 . S
C1485 C1481 1.408 . S
C1485 C1484 1.404 . S
C1485 H1497 0.930 . S
C1486 C1482 1.524 1_545 S
C1486 H1498 0.956 . S
C1486 H1499 0.961 . S
C1486 H1500 0.961 . S
C1487 C1484 1.539 . S
C1487 H1501 0.958 . S
C1487 H1502 0.961 . S
C1487 H1503 0.960 . S
H1488 C1472 0.931 . S
H1489 C1477 0.929 . S
H1490 C1478 0.960 1_565 S
H1491 C1478 0.962 . S
H1492 C1478 0.960 . S
H1493 C1479 0.960 1_545 S
H1494 C1479 0.962 . S
H1495 C1479 0.962 . S
H1496 C1480 0.931 . S
H1497 C1485 0.930 . S
H1498 C1486 0.956 . S
H1499 C1486 0.961 . S
H1500 C1486 0.961 . S
H1501 C1487 0.958 . S
H1502 C1487 0.961 . S
H1503 C1487 0.960 . S
C1504 C1505 1.391 . S
C1504 C1506 1.394 . S
C1504 H1520 0.931 . S
C1505 C1504 1.391 . S
C1505 C1509 1.376 . S
C1506 C1504 1.394 . S
C1506 C1507 1.369 . S
C1506 C1510 1.531 . S
C1507 C1506 1.369 . S
C1507 C1508 1.410 . S
C1507 C1515 1.503 1_655 S
C1508 C1507 1.410 . S
C1508 C1509 1.392 . S
C1508 C1511 1.511 1_655 S
C1509 C1505 1.376 . S
C1509 C1508 1.392 . S
C1509 H1521 0.929 . S
C1510 C1506 1.531 . S
C1510 H1522 0.960 . S
C1510 H1523 0.962 . S
C1510 H1524 0.960 . S
C1511 C1508 1.511 1_455 S
C1511 H1525 0.961 . S
C1511 H1526 0.961 . S
C1511 H1527 0.961 . S
C1512 C1513 1.370 . S
C1512 C1514 1.363 . S
C1512 H1528 0.931 . S
C1513 C1512 1.370 . S
C1513 C1517 1.408 . S
C1514 C1512 1.363 . S
C1514 C1515 1.370 . S
C1514 C1518 1.524 1_455 S
C1515 C1507 1.503 1_455 S
C1515 C1514 1.370 . S
C1515 C1516 1.403 . S
C1516 C1515 1.403 . S
C1516 C1517 1.404 . S
C1516 C1519 1.539 . S
C1517 C1513 1.408 . S
C1517 C1516 1.404 . S
C1517 H1529 0.930 . S
C1518 C1514 1.524 1_655 S
C1518 H1530 0.956 . S
C1518 H1531 0.961 . S
C1518 H1532 0.961 . S
C1519 C1516 1.539 . S
C1519 H1533 0.958 . S
C1519 H1534 0.961 . S
C1519 H1535 0.960 . S
H1520 C1504 0.931 . S
H1521 C1509 0.929 . S
H1522 C1510 0.960 . S
H1523 C1510 0.962 . S
H1524 C1510 0.960 . S
H1525 C1511 0.961 . S
H1526 C1511 0.961 . S
H1527 C1511 0.961 . S
H1528 C1512 0.931 . S
H1529 C1517 0.930 . S
H1530 C1518 0.956 . S
H1531 C1518 0.961 . S
H1532 C1518 0.961 . S
H1533 C1519 0.958 . S
H1534 C1519 0.961 . S
H1535 C1519 0.960 . S
C1536 C1537 1.391 . S
C1536 C1538 1.394 . S
C1536 H1552 0.931 . S
C1537 C1536 1.391 . S
C1537 C1541 1.376 . S
C1538 C1536 1.394 . S
C1538 C1539 1.369 . S
C1538 C1542 1.531 1_545 S
C1539 C1538 1.369 . S
C1539 C1540 1.410 . S
C1539 C1547 1.503 1_545 S
C1540 C1539 1.410 . S
C1540 C1541 1.392 . S
C1540 C1543 1.511 . S
C1541 C1537 1.376 . S
C1541 C1540 1.392 . S
C1541 H1553 0.929 . S
C1542 C1538 1.531 1_565 S
C1542 H1554 0.960 . S
C1542 H1555 0.962 . S
C1542 H1556 0.960 . S
C1543 C1540 1.511 . S
C1543 H1557 0.961 . S
C1543 H1558 0.961 . S
C1543 H1559 0.961 . S
C1544 C1545 1.370 . S
C1544 C1546 1.363 . S
C1544 H1560 0.931 . S
C1545 C1544 1.370 . S
C1545 C1549 1.408 . S
C1546 C1544 1.363 . S
C1546 C1547 1.370 . S
C1546 C1550 1.524 1_565 S
C1547 C1539 1.503 1_565 S
C1547 C1546 1.370 . S
C1547 C1548 1.403 . S
C1548 C1547 1.403 . S
C1548 C1549 1.404 . S
C1548 C1551 1.539 . S
C1549 C1545 1.408 . S
C1549 C1548 1.404 . S
C1549 H1561 0.930 . S
C1550 C1546 1.524 1_545 S
C1550 H1562 0.956 . S
C1550 H1563 0.961 . S
C1550 H1564 0.961 . S
C1551 C1548 1.539 . S
C1551 H1565 0.958 . S
C1551 H1566 0.961 . S
C1551 H1567 0.960 . S
H1552 C1536 0.931 . S
H1553 C1541 0.929 . S
H1554 C1542 0.960 . S
H1555 C1542 0.962 . S
H1556 C1542 0.960 . S
H1557 C1543 0.961 . S
H1558 C1543 0.961 . S
H1559 C1543 0.961 . S
H1560 C1544 0.931 . S
H1561 C1549 0.930 . S
H1562 C1550 0.956 . S
H1563 C1550 0.961 . S
H1564 C1550 0.961 . S
H1565 C1551 0.958 . S
H1566 C1551 0.961 . S
H1567 C1551 0.960 . S
C1568 C1569 1.391 . S
C1568 C1570 1.394 . S
C1568 H1584 0.931 . S
C1569 C1568 1.391 . S
C1569 C1573 1.376 . S
C1570 C1568 1.394 . S
C1570 C1571 1.369 . S
C1570 C1574 1.531 1_455 S
C1571 C1570 1.369 . S
C1571 C1572 1.410 . S
C1571 C1579 1.503 1_455 S
C1572 C1571 1.410 . S
C1572 C1573 1.392 . S
C1572 C1575 1.511 . S
C1573 C1569 1.376 . S
C1573 C1572 1.392 . S
C1573 H1585 0.929 . S
C1574 C1570 1.531 1_655 S
C1574 H1586 0.960 . S
C1574 H1587 0.962 . S
C1574 H1588 0.960 . S
C1575 C1572 1.511 . S
C1575 H1589 0.961 . S
C1575 H1590 0.961 . S
C1575 H1591 0.961 . S
C1576 C1577 1.370 . S
C1576 C1578 1.363 . S
C1576 H1592 0.931 . S
C1577 C1576 1.370 . S
C1577 C1581 1.408 . S
C1578 C1576 1.363 . S
C1578 C1579 1.370 . S
C1578 C1582 1.524 . S
C1579 C1571 1.503 1_655 S
C1579 C1578 1.370 . S
C1579 C1580 1.403 . S
C1580 C1579 1.403 . S
C1580 C1581 1.404 . S
C1580 C1583 1.539 . S
C1581 C1577 1.408 . S
C1581 C1580 1.404 . S
C1581 H1593 0.930 . S
C1582 C1578 1.524 . S
C1582 H1594 0.956 . S
C1582 H1595 0.961 1_655 S
C1582 H1596 0.961 . S
C1583 C1580 1.539 . S
C1583 H1597 0.958 . S
C1583 H1598 0.961 . S
C1583 H1599 0.960 1_655 S
H1584 C1568 0.931 . S
H1585 C1573 0.929 . S
H1586 C1574 0.960 . S
H1587 C1574 0.962 . S
H1588 C1574 0.960 . S
H1589 C1575 0.961 . S
H1590 C1575 0.961 . S
H1591 C1575 0.961 . S
H1592 C1576 0.931 . S
H1593 C1581 0.930 . S
H1594 C1582 0.956 . S
H1595 C1582 0.961 1_455 S
H1596 C1582 0.961 . S
H1597 C1583 0.958 . S
H1598 C1583 0.961 . S
H1599 C1583 0.960 1_455 S
C1600 C1601 1.391 . S
C1600 C1602 1.394 . S
C1600 H1616 0.931 . S
C1601 C1600 1.391 . S
C1601 C1605 1.376 . S
C1602 C1600 1.394 . S
C1602 C1603 1.369 . S
C1602 C1606 1.531 . S
C1603 C1602 1.369 . S
C1603 C1604 1.410 . S
C1603 C1611 1.503 1_565 S
C1604 C1603 1.410 . S
C1604 C1605 1.392 . S
C1604 C1607 1.511 1_565 S
C1605 C1601 1.376 . S
C1605 C1604 1.392 . S
C1605 H1617 0.929 . S
C1606 C1602 1.531 . S
C1606 H1618 0.960 . S
C1606 H1619 0.962 . S
C1606 H1620 0.960 . S
C1607 C1604 1.511 1_545 S
C1607 H1621 0.961 . S
C1607 H1622 0.961 . S
C1607 H1623 0.957 1_545 S
C1608 C1609 1.370 . S
C1608 C1610 1.363 . S
C1608 H1624 0.931 . S
C1609 C1608 1.370 . S
C1609 C1613 1.408 . S
C1610 C1608 1.363 . S
C1610 C1611 1.370 . S
C1610 C1614 1.524 . S
C1611 C1603 1.503 1_545 S
C1611 C1610 1.370 . S
C1611 C1612 1.403 . S
C1612 C1611 1.403 . S
C1612 C1613 1.404 . S
C1612 C1615 1.539 1_545 S
C1613 C1609 1.408 . S
C1613 C1612 1.404 . S
C1613 H1625 0.930 . S
C1614 C1610 1.524 . S
C1614 H1626 0.956 . S
C1614 H1627 0.961 . S
C1614 H1628 0.961 . S
C1615 C1612 1.539 1_565 S
C1615 H1629 0.958 . S
C1615 H1630 0.961 . S
C1615 H1631 0.960 . S
H1616 C1600 0.931 . S
H1617 C1605 0.929 . S
H1618 C1606 0.960 . S
H1619 C1606 0.962 . S
H1620 C1606 0.960 . S
H1621 C1607 0.961 . S
H1622 C1607 0.961 . S
H1623 C1607 0.957 1_565 S
H1624 C1608 0.931 . S
H1625 C1613 0.930 . S
H1626 C1614 0.956 . S
H1627 C1614 0.961 . S
H1628 C1614 0.961 . S
H1629 C1615 0.958 . S
H1630 C1615 0.961 . S
H1631 C1615 0.960 . S
C1632 C1633 1.391 . S
C1632 C1634 1.394 . S
C1632 H1648 0.931 . S
C1633 C1632 1.391 . S
C1633 C1637 1.376 . S
C1634 C1632 1.394 . S
C1634 C1635 1.369 . S
C1634 C1638 1.531 . S
C1635 C1634 1.369 . S
C1635 C1636 1.410 . S
C1635 C1643 1.503 1_655 S
C1636 C1635 1.410 . S
C1636 C1637 1.392 . S
C1636 C1639 1.511 1_655 S
C1637 C1633 1.376 . S
C1637 C1636 1.392 . S
C1637 H1649 0.929 . S
C1638 C1634 1.531 . S
C1638 H1650 0.960 . S
C1638 H1651 0.962 . S
C1638 H1652 0.960 . S
C1639 C1636 1.511 1_455 S
C1639 H1653 0.961 . S
C1639 H1654 0.961 . S
C1639 H1655 0.970 . S
C1640 C1641 1.370 . S
C1640 C1642 1.363 . S
C1640 H1656 0.931 . S
C1641 C1640 1.370 . S
C1641 C1645 1.408 . S
C1642 C1640 1.363 . S
C1642 C1643 1.370 . S
C1642 C1646 1.524 . S
C1643 C1635 1.503 1_455 S
C1643 C1642 1.370 . S
C1643 C1644 1.403 . S
C1644 C1643 1.403 . S
C1644 C1645 1.404 . S
C1644 C1647 1.539 1_455 S
C1645 C1641 1.408 . S
C1645 C1644 1.404 . S
C1645 H1657 0.930 . S
C1646 C1642 1.524 . S
C1646 H1658 0.956 . S
C1646 H1659 0.961 . S
C1646 H1660 0.961 . S
C1647 C1644 1.539 1_655 S
C1647 H1661 0.958 . S
C1647 H1662 0.963 . S
C1647 H1663 0.960 . S
H1648 C1632 0.931 . S
H1649 C1637 0.929 . S
H1650 C1638 0.960 . S
H1651 C1638 0.962 . S
H1652 C1638 0.960 . S
H1653 C1639 0.961 . S
H1654 C1639 0.961 . S
H1655 C1639 0.970 . S
H1656 C1640 0.931 . S
H1657 C1645 0.930 . S
H1658 C1646 0.956 . S
H1659 C1646 0.961 . S
H1660 C1646 0.961 . S
H1661 C1647 0.958 . S
H1662 C1647 0.963 . S
H1663 C1647 0.960 . S
C1664 C1665 1.391 . S
C1664 C1666 1.394 . S
C1664 H1680 0.931 . S
C1665 C1664 1.391 . S
C1665 C1669 1.376 . S
C1666 C1664 1.394 . S
C1666 C1667 1.369 . S
C1666 C1670 1.531 . S
C1667 C1666 1.369 . S
C1667 C1668 1.410 . S
C1667 C1675 1.503 1_565 S
C1668 C1667 1.410 . S
C1668 C1669 1.392 . S
C1668 C1671 1.511 1_565 S
C1669 C1665 1.376 . S
C1669 C1668 1.392 . S
C1669 H1681 0.929 . S
C1670 C1666 1.531 . S
C1670 H1682 0.960 . S
C1670 H1683 0.962 . S
C1670 H1684 0.960 . S
C1671 C1668 1.511 1_545 S
C1671 H1685 0.961 . S
C1671 H1686 0.961 . S
C1671 H1687 0.961 . S
C1672 C1673 1.370 . S
C1672 C1674 1.363 . S
C1672 H1688 0.931 . S
C1673 C1672 1.370 . S
C1673 C1677 1.408 . S
C1674 C1672 1.363 . S
C1674 C1675 1.370 . S
C1674 C1678 1.524 . S
C1675 C1667 1.503 1_545 S
C1675 C1674 1.370 . S
C1675 C1676 1.403 . S
C1676 C1675 1.403 . S
C1676 C1677 1.404 . S
C1676 C1679 1.539 . S
C1677 C1673 1.408 . S
C1677 C1676 1.404 . S
C1677 H1689 0.930 . S
C1678 C1674 1.524 . S
C1678 H1690 0.956 1_545 S
C1678 H1691 0.961 . S
C1678 H1692 0.961 . S
C1679 C1676 1.539 . S
C1679 H1693 0.958 . S
C1679 H1694 0.961 . S
C1679 H1695 0.960 . S
H1680 C1664 0.931 . S
H1681 C1669 0.929 . S
H1682 C1670 0.960 . S
H1683 C1670 0.962 . S
H1684 C1670 0.960 . S
H1685 C1671 0.961 . S
H1686 C1671 0.961 . S
H1687 C1671 0.961 . S
H1688 C1672 0.931 . S
H1689 C1677 0.930 . S
H1690 C1678 0.956 1_565 S
H1691 C1678 0.961 . S
H1692 C1678 0.961 . S
H1693 C1679 0.958 . S
H1694 C1679 0.961 . S
H1695 C1679 0.960 . S
C1696 C1697 1.391 . S
C1696 C1698 1.394 . S
C1696 H1712 0.931 . S
C1697 C1696 1.391 . S
C1697 C1701 1.376 . S
C1698 C1696 1.394 . S
C1698 C1699 1.369 . S
C1698 C1702 1.531 1_655 S
C1699 C1698 1.369 . S
C1699 C1700 1.410 . S
C1699 C1707 1.503 1_655 S
C1700 C1699 1.410 . S
C1700 C1701 1.392 . S
C1700 C1703 1.511 . S
C1701 C1697 1.376 . S
C1701 C1700 1.392 . S
C1701 H1713 0.929 . S
C1702 C1698 1.531 1_455 S
C1702 H1714 0.960 . S
C1702 H1715 0.962 . S
C1702 H1716 0.960 . S
C1703 C1700 1.511 . S
C1703 H1717 0.961 . S
C1703 H1718 0.961 . S
C1703 H1719 0.961 . S
C1704 C1705 1.370 . S
C1704 C1706 1.363 . S
C1704 H1720 0.931 . S
C1705 C1704 1.370 . S
C1705 C1709 1.408 . S
C1706 C1704 1.363 . S
C1706 C1707 1.370 . S
C1706 C1710 1.524 1_455 S
C1707 C1699 1.503 1_455 S
C1707 C1706 1.370 . S
C1707 C1708 1.403 . S
C1708 C1707 1.403 . S
C1708 C1709 1.404 . S
C1708 C1711 1.539 . S
C1709 C1705 1.408 . S
C1709 C1708 1.404 . S
C1709 H1721 0.930 . S
C1710 C1706 1.524 1_655 S
C1710 H1722 0.956 . S
C1710 H1723 0.961 . S
C1710 H1724 0.961 . S
C1711 C1708 1.539 . S
C1711 H1725 0.958 . S
C1711 H1726 0.961 . S
C1711 H1727 0.960 . S
H1712 C1696 0.931 . S
H1713 C1701 0.929 . S
H1714 C1702 0.960 . S
H1715 C1702 0.962 . S
H1716 C1702 0.960 . S
H1717 C1703 0.961 . S
H1718 C1703 0.961 . S
H1719 C1703 0.961 . S
H1720 C1704 0.931 . S
H1721 C1709 0.930 . S
H1722 C1710 0.956 . S
H1723 C1710 0.961 . S
H1724 C1710 0.961 . S
H1725 C1711 0.958 . S
H1726 C1711 0.961 . S
H1727 C1711 0.960 . S
C1728 C1729 1.391 . S
C1728 C1730 1.394 . S
C1728 H1744 0.931 . S
C1729 C1728 1.391 . S
C1729 C1733 1.376 . S
C1730 C1728 1.394 . S
C1730 C1731 1.369 . S
C1730 C1734 1.531 . S
C1731 C1730 1.369 . S
C1731 C1732 1.410 . S
C1731 C1739 1.503 . S
C1732 C1731 1.410 . S
C1732 C1733 1.392 . S
C1732 C1735 1.511 . S
C1733 C1729 1.376 . S
C1733 C1732 1.392 . S
C1733 H1745 0.929 . S
C1734 C1730 1.531 . S
C1734 H1746 0.960 . S
C1734 H1747 0.962 . S
C1734 H1748 0.960 . S
C1735 C1732 1.511 . S
C1735 H1749 0.961 . S
C1735 H1750 0.961 . S
C1735 H1751 0.961 . S
C1736 C1737 1.370 . S
C1736 C1738 1.363 . S
C1736 H1752 0.931 . S
C1737 C1736 1.370 . S
C1737 C1741 1.408 . S
C1738 C1736 1.363 . S
C1738 C1739 1.370 . S
C1738 C1742 1.524 . S
C1739 C1731 1.503 . S
C1739 C1738 1.370 . S
C1739 C1740 1.403 . S
C1740 C1739 1.403 . S
C1740 C1741 1.404 . S
C1740 C1743 1.539 . S
C1741 C1737 1.408 . S
C1741 C1740 1.404 . S
C1741 H1753 0.930 . S
C1742 C1738 1.524 . S
C1742 H1754 0.956 . S
C1742 H1755 0.961 . S
C1742 H1756 0.961 . S
C1743 C1740 1.539 . S
C1743 H1757 0.958 . S
C1743 H1758 0.961 . S
C1743 H1759 0.960 . S
H1744 C1728 0.931 . S
H1745 C1733 0.929 . S
H1746 C1734 0.960 . S
H1747 C1734 0.962 . S
H1748 C1734 0.960 . S
H1749 C1735 0.961 . S
H1750 C1735 0.961 . S
H1751 C1735 0.961 . S
H1752 C1736 0.931 . S
H1753 C1741 0.930 . S
H1754 C1742 0.956 . S
H1755 C1742 0.961 . S
H1756 C1742 0.961 . S
H1757 C1743 0.958 . S
H1758 C1743 0.961 . S
H1759 C1743 0.960 . S
C1760 C1761 1.391 . S
C1760 C1762 1.394 . S
C1760 H1776 0.931 . S
C1761 C1760 1.391 . S
C1761 C1765 1.376 . S
C1762 C1760 1.394 . S
C1762 C1763 1.369 . S
C1762 C1766 1.531 . S
C1763 C1762 1.369 . S
C1763 C1764 1.410 . S
C1763 C1771 1.503 . S
C1764 C1763 1.410 . S
C1764 C1765 1.392 . S
C1764 C1767 1.511 . S
C1765 C1761 1.376 . S
C1765 C1764 1.392 . S
C1765 H1777 0.929 . S
C1766 C1762 1.531 . S
C1766 H1778 0.960 . S
C1766 H1779 0.962 . S
C1766 H1780 0.960 . S
C1767 C1764 1.511 . S
C1767 H1781 0.961 . S
C1767 H1782 0.961 . S
C1767 H1783 0.961 . S
C1768 C1769 1.370 . S
C1768 C1770 1.363 . S
C1768 H1784 0.931 . S
C1769 C1768 1.370 . S
C1769 C1773 1.408 . S
C1770 C1768 1.363 . S
C1770 C1771 1.370 . S
C1770 C1774 1.524 . S
C1771 C1763 1.503 . S
C1771 C1770 1.370 . S
C1771 C1772 1.403 . S
C1772 C1771 1.403 . S
C1772 C1773 1.404 . S
C1772 C1775 1.539 . S
C1773 C1769 1.408 . S
C1773 C1772 1.404 . S
C1773 H1785 0.930 . S
C1774 C1770 1.524 . S
C1774 H1786 0.956 . S
C1774 H1787 0.961 . S
C1774 H1788 0.961 . S
C1775 C1772 1.539 . S
C1775 H1789 0.958 . S
C1775 H1790 0.961 . S
C1775 H1791 0.960 . S
H1776 C1760 0.931 . S
H1777 C1765 0.929 . S
H1778 C1766 0.960 . S
H1779 C1766 0.962 . S
H1780 C1766 0.960 . S
H1781 C1767 0.961 . S
H1782 C1767 0.961 . S
H1783 C1767 0.961 . S
H1784 C1768 0.931 . S
H1785 C1773 0.930 . S
H1786 C1774 0.956 . S
H1787 C1774 0.961 . S
H1788 C1774 0.961 . S
H1789 C1775 0.958 . S
H1790 C1775 0.961 . S
H1791 C1775 0.960 . S
C1792 C1793 1.391 . S
C1792 C1794 1.394 . S
C1792 H1808 0.931 . S
C1793 C1792 1.391 . S
C1793 C1797 1.376 . S
C1794 C1792 1.394 . S
C1794 C1795 1.369 . S
C1794 C1798 1.531 . S
C1795 C1794 1.369 . S
C1795 C1796 1.410 . S
C1795 C1803 1.503 . S
C1796 C1795 1.410 . S
C1796 C1797 1.392 . S
C1796 C1799 1.511 . S
C1797 C1793 1.376 . S
C1797 C1796 1.392 . S
C1797 H1809 0.929 . S
C1798 C1794 1.531 . S
C1798 H1810 0.960 . S
C1798 H1811 0.962 . S
C1798 H1812 0.960 . S
C1799 C1796 1.511 . S
C1799 H1813 0.961 . S
C1799 H1814 0.961 . S
C1799 H1815 0.961 . S
C1800 C1801 1.370 . S
C1800 C1802 1.363 . S
C1800 H1816 0.931 . S
C1801 C1800 1.370 . S
C1801 C1805 1.408 . S
C1802 C1800 1.363 . S
C1802 C1803 1.370 . S
C1802 C1806 1.524 . S
C1803 C1795 1.503 . S
C1803 C1802 1.370 . S
C1803 C1804 1.403 . S
C1804 C1803 1.403 . S
C1804 C1805 1.404 . S
C1804 C1807 1.539 . S
C1805 C1801 1.408 . S
C1805 C1804 1.404 . S
C1805 H1817 0.930 . S
C1806 C1802 1.524 . S
C1806 H1818 0.956 . S
C1806 H1819 0.961 . S
C1806 H1820 0.961 . S
C1807 C1804 1.539 . S
C1807 H1821 0.958 . S
C1807 H1822 0.961 . S
C1807 H1823 0.960 . S
H1808 C1792 0.931 . S
H1809 C1797 0.929 . S
H1810 C1798 0.960 . S
H1811 C1798 0.962 . S
H1812 C1798 0.960 . S
H1813 C1799 0.961 . S
H1814 C1799 0.961 . S
H1815 C1799 0.961 . S
H1816 C1800 0.931 . S
H1817 C1805 0.930 . S
H1818 C1806 0.956 . S
H1819 C1806 0.961 . S
H1820 C1806 0.961 . S
H1821 C1807 0.958 . S
H1822 C1807 0.961 . S
H1823 C1807 0.960 . S
C1824 C1825 1.391 . S
C1824 C1826 1.394 . S
C1824 H1840 0.931 . S
C1825 C1824 1.391 . S
C1825 C1829 1.376 . S
C1826 C1824 1.394 . S
C1826 C1827 1.369 . S
C1826 C1830 1.531 . S
C1827 C1826 1.369 . S
C1827 C1828 1.410 . S
C1827 C1835 1.503 . S
C1828 C1827 1.410 . S
C1828 C1829 1.392 . S
C1828 C1831 1.511 . S
C1829 C1825 1.376 . S
C1829 C1828 1.392 . S
C1829 H1841 0.929 . S
C1830 C1826 1.531 . S
C1830 H1842 0.960 . S
C1830 H1843 0.962 . S
C1830 H1844 0.960 . S
C1831 C1828 1.511 . S
C1831 H1845 0.961 . S
C1831 H1846 0.961 . S
C1831 H1847 0.961 . S
C1832 C1833 1.370 . S
C1832 C1834 1.363 . S
C1832 H1848 0.931 . S
C1833 C1832 1.370 . S
C1833 C1837 1.408 . S
C1834 C1832 1.363 . S
C1834 C1835 1.370 . S
C1834 C1838 1.524 . S
C1835 C1827 1.503 . S
C1835 C1834 1.370 . S
C1835 C1836 1.403 . S
C1836 C1835 1.403 . S
C1836 C1837 1.404 . S
C1836 C1839 1.539 . S
C1837 C1833 1.408 . S
C1837 C1836 1.404 . S
C1837 H1849 0.930 . S
C1838 C1834 1.524 . S
C1838 H1850 0.956 . S
C1838 H1851 0.961 . S
C1838 H1852 0.961 . S
C1839 C1836 1.539 . S
C1839 H1853 0.958 . S
C1839 H1854 0.961 . S
C1839 H1855 0.960 . S
H1840 C1824 0.931 . S
H1841 C1829 0.929 . S
H1842 C1830 0.960 . S
H1843 C1830 0.962 . S
H1844 C1830 0.960 . S
H1845 C1831 0.961 . S
H1846 C1831 0.961 . S
H1847 C1831 0.961 . S
H1848 C1832 0.931 . S
H1849 C1837 0.930 . S
H1850 C1838 0.956 . S
H1851 C1838 0.961 . S
H1852 C1838 0.961 . S
H1853 C1839 0.958 . S
H1854 C1839 0.961 . S
H1855 C1839 0.960 . S
C1856 C1857 1.391 . S
C1856 C1858 1.394 . S
C1856 H1872 0.931 . S
C1857 C1856 1.391 . S
C1857 C1861 1.376 . S
C1858 C1856 1.394 . S
C1858 C1859 1.369 . S
C1858 C1862 1.531 . S
C1859 C1858 1.369 . S
C1859 C1860 1.410 . S
C1859 C1867 1.503 . S
C1860 C1859 1.410 . S
C1860 C1861 1.392 . S
C1860 C1863 1.511 . S
C1861 C1857 1.376 . S
C1861 C1860 1.392 . S
C1861 H1873 0.929 . S
C1862 C1858 1.531 . S
C1862 H1874 0.960 . S
C1862 H1875 0.962 . S
C1862 H1876 0.960 . S
C1863 C1860 1.511 . S
C1863 H1877 0.961 . S
C1863 H1878 0.961 . S
C1863 H1879 0.961 . S
C1864 C1865 1.370 . S
C1864 C1866 1.363 . S
C1864 H1880 0.931 . S
C1865 C1864 1.370 . S
C1865 C1869 1.408 . S
C1866 C1864 1.363 . S
C1866 C1867 1.370 . S
C1866 C1870 1.524 . S
C1867 C1859 1.503 . S
C1867 C1866 1.370 . S
C1867 C1868 1.403 . S
C1868 C1867 1.403 . S
C1868 C1869 1.404 . S
C1868 C1871 1.539 . S
C1869 C1865 1.408 . S
C1869 C1868 1.404 . S
C1869 H1881 0.930 . S
C1870 C1866 1.524 . S
C1870 H1882 0.956 . S
C1870 H1883 0.961 . S
C1870 H1884 0.961 . S
C1871 C1868 1.539 . S
C1871 H1885 0.958 . S
C1871 H1886 0.961 . S
C1871 H1887 0.960 . S
H1872 C1856 0.931 . S
H1873 C1861 0.929 . S
H1874 C1862 0.960 . S
H1875 C1862 0.962 . S
H1876 C1862 0.960 . S
H1877 C1863 0.961 . S
H1878 C1863 0.961 . S
H1879 C1863 0.961 . S
H1880 C1864 0.931 . S
H1881 C1869 0.930 . S
H1882 C1870 0.956 . S
H1883 C1870 0.961 . S
H1884 C1870 0.961 . S
H1885 C1871 0.958 . S
H1886 C1871 0.961 . S
H1887 C1871 0.960 . S
C1888 C1889 1.391 . S
C1888 C1890 1.394 . S
C1888 H1904 0.931 . S
C1889 C1888 1.391 . S
C1889 C1893 1.376 . S
C1890 C1888 1.394 . S
C1890 C1891 1.369 . S
C1890 C1894 1.531 . S
C1891 C1890 1.369 . S
C1891 C1892 1.410 . S
C1891 C1899 1.503 . S
C1892 C1891 1.410 . S
C1892 C1893 1.392 . S
C1892 C1895 1.511 . S
C1893 C1889 1.376 . S
C1893 C1892 1.392 . S
C1893 H1905 0.929 . S
C1894 C1890 1.531 . S
C1894 H1906 0.960 . S
C1894 H1907 0.962 . S
C1894 H1908 0.960 . S
C1895 C1892 1.511 . S
C1895 H1909 0.961 . S
C1895 H1910 0.961 . S
C1895 H1911 0.961 . S
C1896 C1897 1.370 . S
C1896 C1898 1.363 . S
C1896 H1912 0.931 . S
C1897 C1896 1.370 . S
C1897 C1901 1.408 . S
C1898 C1896 1.363 . S
C1898 C1899 1.370 . S
C1898 C1902 1.524 . S
C1899 C1891 1.503 . S
C1899 C1898 1.370 . S
C1899 C1900 1.403 . S
C1900 C1899 1.403 . S
C1900 C1901 1.404 . S
C1900 C1903 1.539 . S
C1901 C1897 1.408 . S
C1901 C1900 1.404 . S
C1901 H1913 0.930 . S
C1902 C1898 1.524 . S
C1902 H1914 0.956 . S
C1902 H1915 0.961 . S
C1902 H1916 0.961 . S
C1903 C1900 1.539 . S
C1903 H1917 0.958 . S
C1903 H1918 0.961 . S
C1903 H1919 0.960 . S
H1904 C1888 0.931 . S
H1905 C1893 0.929 . S
H1906 C1894 0.960 . S
H1907 C1894 0.962 . S
H1908 C1894 0.960 . S
H1909 C1895 0.961 . S
H1910 C1895 0.961 . S
H1911 C1895 0.961 . S
H1912 C1896 0.931 . S
H1913 C1901 0.930 . S
H1914 C1902 0.956 . S
H1915 C1902 0.961 . S
H1916 C1902 0.961 . S
H1917 C1903 0.958 . S
H1918 C1903 0.961 . S
H1919 C1903 0.960 . S
C1920 C1921 1.391 . S
C1920 C1922 1.394 . S
C1920 H1936 0.931 . S
C1921 C1920 1.391 . S
C1921 C1925 1.376 . S
C1922 C1920 1.394 . S
C1922 C1923 1.369 . S
C1922 C1926 1.531 . S
C1923 C1922 1.369 . S
C1923 C1924 1.410 . S
C1923 C1931 1.503 . S
C1924 C1923 1.410 . S
C1924 C1925 1.392 . S
C1924 C1927 1.511 . S
C1925 C1921 1.376 . S
C1925 C1924 1.392 . S
C1925 H1937 0.929 . S
C1926 C1922 1.531 . S
C1926 H1938 0.960 . S
C1926 H1939 0.962 . S
C1926 H1940 0.960 . S
C1927 C1924 1.511 . S
C1927 H1941 0.961 . S
C1927 H1942 0.961 . S
C1927 H1943 0.961 . S
C1928 C1929 1.370 . S
C1928 C1930 1.363 . S
C1928 H1944 0.931 . S
C1929 C1928 1.370 . S
C1929 C1933 1.408 . S
C1930 C1928 1.363 . S
C1930 C1931 1.370 . S
C1930 C1934 1.524 . S
C1931 C1923 1.503 . S
C1931 C1930 1.370 . S
C1931 C1932 1.403 . S
C1932 C1931 1.403 . S
C1932 C1933 1.404 . S
C1932 C1935 1.539 . S
C1933 C1929 1.408 . S
C1933 C1932 1.404 . S
C1933 H1945 0.930 . S
C1934 C1930 1.524 . S
C1934 H1946 0.956 . S
C1934 H1947 0.961 . S
C1934 H1948 0.961 . S
C1935 C1932 1.539 . S
C1935 H1949 0.958 . S
C1935 H1950 0.961 . S
C1935 H1951 0.960 . S
H1936 C1920 0.931 . S
H1937 C1925 0.929 . S
H1938 C1926 0.960 . S
H1939 C1926 0.962 . S
H1940 C1926 0.960 . S
H1941 C1927 0.961 . S
H1942 C1927 0.961 . S
H1943 C1927 0.961 . S
H1944 C1928 0.931 . S
H1945 C1933 0.930 . S
H1946 C1934 0.956 . S
H1947 C1934 0.961 . S
H1948 C1934 0.961 . S
H1949 C1935 0.958 . S
H1950 C1935 0.961 . S
H1951 C1935 0.960 . S
C1952 C1953 1.391 . S
C1952 C1954 1.394 . S
C1952 H1968 0.931 . S
C1953 C1952 1.391 . S
C1953 C1957 1.376 . S
C1954 C1952 1.394 . S
C1954 C1955 1.369 . S
C1954 C1958 1.531 . S
C1955 C1954 1.369 . S
C1955 C1956 1.410 . S
C1955 C1963 1.503 . S
C1956 C1955 1.410 . S
C1956 C1957 1.392 . S
C1956 C1959 1.511 . S
C1957 C1953 1.376 . S
C1957 C1956 1.392 . S
C1957 H1969 0.929 . S
C1958 C1954 1.531 . S
C1958 H1970 0.960 . S
C1958 H1971 0.962 . S
C1958 H1972 0.960 . S
C1959 C1956 1.511 . S
C1959 H1973 0.961 . S
C1959 H1974 0.961 . S
C1959 H1975 0.961 . S
C1960 C1961 1.370 . S
C1960 C1962 1.363 . S
C1960 H1976 0.931 . S
C1961 C1960 1.370 . S
C1961 C1965 1.408 . S
C1962 C1960 1.363 . S
C1962 C1963 1.370 . S
C1962 C1966 1.524 . S
C1963 C1955 1.503 . S
C1963 C1962 1.370 . S
C1963 C1964 1.403 . S
C1964 C1963 1.403 . S
C1964 C1965 1.404 . S
C1964 C1967 1.539 . S
C1965 C1961 1.408 . S
C1965 C1964 1.404 . S
C1965 H1977 0.930 . S
C1966 C1962 1.524 . S
C1966 H1978 0.956 . S
C1966 H1979 0.961 . S
C1966 H1980 0.961 . S
C1967 C1964 1.539 . S
C1967 H1981 0.958 . S
C1967 H1982 0.961 . S
C1967 H1983 0.960 . S
H1968 C1952 0.931 . S
H1969 C1957 0.929 . S
H1970 C1958 0.960 . S
H1971 C1958 0.962 . S
H1972 C1958 0.960 . S
H1973 C1959 0.961 . S
H1974 C1959 0.961 . S
H1975 C1959 0.961 . S
H1976 C1960 0.931 . S
H1977 C1965 0.930 . S
H1978 C1966 0.956 . S
H1979 C1966 0.961 . S
H1980 C1966 0.961 . S
H1981 C1967 0.958 . S
H1982 C1967 0.961 . S
H1983 C1967 0.960 . S
C1984 C1985 1.391 . S
C1984 C1986 1.394 . S
C1984 H2000 0.931 . S
C1985 C1984 1.391 . S
C1985 C1989 1.376 . S
C1986 C1984 1.394 . S
C1986 C1987 1.369 . S
C1986 C1990 1.531 . S
C1987 C1986 1.369 . S
C1987 C1988 1.410 . S
C1987 C1995 1.503 . S
C1988 C1987 1.410 . S
C1988 C1989 1.392 . S
C1988 C1991 1.511 . S
C1989 C1985 1.376 . S
C1989 C1988 1.392 . S
C1989 H2001 0.929 . S
C1990 C1986 1.531 . S
C1990 H2002 0.960 . S
C1990 H2003 0.962 . S
C1990 H2004 0.960 . S
C1991 C1988 1.511 . S
C1991 H2005 0.961 . S
C1991 H2006 0.961 . S
C1991 H2007 0.961 . S
C1992 C1993 1.370 . S
C1992 C1994 1.363 . S
C1992 H2008 0.931 . S
C1993 C1992 1.370 . S
C1993 C1997 1.408 . S
C1994 C1992 1.363 . S
C1994 C1995 1.370 . S
C1994 C1998 1.524 . S
C1995 C1987 1.503 . S
C1995 C1994 1.370 . S
C1995 C1996 1.403 . S
C1996 C1995 1.403 . S
C1996 C1997 1.404 . S
C1996 C1999 1.539 . S
C1997 C1993 1.408 . S
C1997 C1996 1.404 . S
C1997 H2009 0.930 . S
C1998 C1994 1.524 . S
C1998 H2010 0.956 . S
C1998 H2011 0.961 . S
C1998 H2012 0.961 . S
C1999 C1996 1.539 . S
C1999 H2013 0.958 . S
C1999 H2014 0.961 . S
C1999 H2015 0.960 . S
H2000 C1984 0.931 . S
H2001 C1989 0.929 . S
H2002 C1990 0.960 . S
H2003 C1990 0.962 . S
H2004 C1990 0.960 . S
H2005 C1991 0.961 . S
H2006 C1991 0.961 . S
H2007 C1991 0.961 . S
H2008 C1992 0.931 . S
H2009 C1997 0.930 . S
H2010 C1998 0.956 . S
H2011 C1998 0.961 . S
H2012 C1998 0.961 . S
H2013 C1999 0.958 . S
H2014 C1999 0.961 . S
H2015 C1999 0.960 . S
C2016 C2017 1.391 . S
C2016 C2018 1.394 . S
C2016 H2032 0.931 . S
C2017 C2016 1.391 . S
C2017 C2021 1.376 . S
C2018 C2016 1.394 . S
C2018 C2019 1.369 . S
C2018 C2022 1.531 . S
C2019 C2018 1.369 . S
C2019 C2020 1.410 . S
C2019 C2027 1.503 . S
C2020 C2019 1.410 . S
C2020 C2021 1.392 . S
C2020 C2023 1.511 . S
C2021 C2017 1.376 . S
C2021 C2020 1.392 . S
C2021 H2033 0.929 . S
C2022 C2018 1.531 . S
C2022 H2034 0.960 . S
C2022 H2035 0.962 . S
C2022 H2036 0.960 . S
C2023 C2020 1.511 . S
C2023 H2037 0.961 . S
C2023 H2038 0.961 . S
C2023 H2039 0.961 . S
C2024 C2025 1.370 . S
C2024 C2026 1.363 . S
C2024 H2040 0.931 . S
C2025 C2024 1.370 . S
C2025 C2029 1.408 . S
C2026 C2024 1.363 . S
C2026 C2027 1.370 . S
C2026 C2030 1.524 . S
C2027 C2019 1.503 . S
C2027 C2026 1.370 . S
C2027 C2028 1.403 . S
C2028 C2027 1.403 . S
C2028 C2029 1.404 . S
C2028 C2031 1.539 . S
C2029 C2025 1.408 . S
C2029 C2028 1.404 . S
C2029 H2041 0.930 . S
C2030 C2026 1.524 . S
C2030 H2042 0.956 . S
C2030 H2043 0.961 . S
C2030 H2044 0.961 . S
C2031 C2028 1.539 . S
C2031 H2045 0.958 . S
C2031 H2046 0.961 . S
C2031 H2047 0.960 . S
H2032 C2016 0.931 . S
H2033 C2021 0.929 . S
H2034 C2022 0.960 . S
H2035 C2022 0.962 . S
H2036 C2022 0.960 . S
H2037 C2023 0.961 . S
H2038 C2023 0.961 . S
H2039 C2023 0.961 . S
H2040 C2024 0.931 . S
H2041 C2029 0.930 . S
H2042 C2030 0.956 . S
H2043 C2030 0.961 . S
H2044 C2030 0.961 . S
H2045 C2031 0.958 . S
H2046 C2031 0.961 . S
H2047 C2031 0.960 . S
C2048 C2049 1.391 . S
C2048 C2050 1.394 . S
C2048 H2064 0.931 . S
C2049 C2048 1.391 . S
C2049 C2053 1.376 . S
C2050 C2048 1.394 . S
C2050 C2051 1.369 . S
C2050 C2054 1.531 . S
C2051 C2050 1.369 . S
C2051 C2052 1.410 . S
C2051 C2059 1.503 . S
C2052 C2051 1.410 . S
C2052 C2053 1.392 . S
C2052 C2055 1.511 . S
C2053 C2049 1.376 . S
C2053 C2052 1.392 . S
C2053 H2065 0.929 . S
C2054 C2050 1.531 . S
C2054 H2066 0.960 . S
C2054 H2067 0.962 . S
C2054 H2068 0.960 . S
C2055 C2052 1.511 . S
C2055 H2069 0.961 . S
C2055 H2070 0.961 . S
C2055 H2071 0.961 . S
C2056 C2057 1.370 . S
C2056 C2058 1.363 . S
C2056 H2072 0.931 . S
C2057 C2056 1.370 . S
C2057 C2061 1.408 . S
C2058 C2056 1.363 . S
C2058 C2059 1.370 . S
C2058 C2062 1.524 . S
C2059 C2051 1.503 . S
C2059 C2058 1.370 . S
C2059 C2060 1.403 . S
C2060 C2059 1.403 . S
C2060 C2061 1.404 . S
C2060 C2063 1.539 . S
C2061 C2057 1.408 . S
C2061 C2060 1.404 . S
C2061 H2073 0.930 . S
C2062 C2058 1.524 . S
C2062 H2074 0.956 . S
C2062 H2075 0.961 . S
C2062 H2076 0.961 . S
C2063 C2060 1.539 . S
C2063 H2077 0.958 . S
C2063 H2078 0.961 . S
C2063 H2079 0.960 . S
H2064 C2048 0.931 . S
H2065 C2053 0.929 . S
H2066 C2054 0.960 . S
H2067 C2054 0.962 . S
H2068 C2054 0.960 . S
H2069 C2055 0.961 . S
H2070 C2055 0.961 . S
H2071 C2055 0.961 . S
H2072 C2056 0.931 . S
H2073 C2061 0.930 . S
H2074 C2062 0.956 . S
H2075 C2062 0.961 . S
H2076 C2062 0.961 . S
H2077 C2063 0.958 . S
H2078 C2063 0.961 . S
H2079 C2063 0.960 . S
C2080 C2081 1.391 . S
C2080 C2082 1.394 . S
C2080 H2096 0.931 . S
C2081 C2080 1.391 . S
C2081 C2085 1.376 . S
C2082 C2080 1.394 . S
C2082 C2083 1.369 . S
C2082 C2086 1.531 . S
C2083 C2082 1.369 . S
C2083 C2084 1.410 . S
C2083 C2091 1.503 . S
C2084 C2083 1.410 . S
C2084 C2085 1.392 . S
C2084 C2087 1.511 . S
C2085 C2081 1.376 . S
C2085 C2084 1.392 . S
C2085 H2097 0.929 . S
C2086 C2082 1.531 . S
C2086 H2098 0.960 . S
C2086 H2099 0.962 . S
C2086 H2100 0.960 . S
C2087 C2084 1.511 . S
C2087 H2101 0.961 . S
C2087 H2102 0.961 . S
C2087 H2103 0.961 . S
C2088 C2089 1.370 . S
C2088 C2090 1.363 . S
C2088 H2104 0.931 . S
C2089 C2088 1.370 . S
C2089 C2093 1.408 . S
C2090 C2088 1.363 . S
C2090 C2091 1.370 . S
C2090 C2094 1.524 . S
C2091 C2083 1.503 . S
C2091 C2090 1.370 . S
C2091 C2092 1.403 . S
C2092 C2091 1.403 . S
C2092 C2093 1.404 . S
C2092 C2095 1.539 . S
C2093 C2089 1.408 . S
C2093 C2092 1.404 . S
C2093 H2105 0.930 . S
C2094 C2090 1.524 . S
C2094 H2106 0.956 . S
C2094 H2107 0.961 . S
C2094 H2108 0.961 . S
C2095 C2092 1.539 . S
C2095 H2109 0.958 . S
C2095 H2110 0.961 . S
C2095 H2111 0.960 . S
H2096 C2080 0.931 . S
H2097 C2085 0.929 . S
H2098 C2086 0.960 . S
H2099 C2086 0.962 . S
H2100 C2086 0.960 . S
H2101 C2087 0.961 . S
H2102 C2087 0.961 . S
H2103 C2087 0.961 . S
H2104 C2088 0.931 . S
H2105 C2093 0.930 . S
H2106 C2094 0.956 . S
H2107 C2094 0.961 . S
H2108 C2094 0.961 . S
H2109 C2095 0.958 . S
H2110 C2095 0.961 . S
H2111 C2095 0.960 . S
C2112 C2113 1.391 . S
C2112 C2114 1.394 . S
C2112 H2128 0.931 . S
C2113 C2112 1.391 . S
C2113 C2117 1.376 . S
C2114 C2112 1.394 . S
C2114 C2115 1.369 . S
C2114 C2118 1.531 . S
C2115 C2114 1.369 . S
C2115 C2116 1.410 . S
C2115 C2123 1.503 . S
C2116 C2115 1.410 . S
C2116 C2117 1.392 . S
C2116 C2119 1.511 . S
C2117 C2113 1.376 . S
C2117 C2116 1.392 . S
C2117 H2129 0.929 . S
C2118 C2114 1.531 . S
C2118 H2130 0.960 . S
C2118 H2131 0.962 . S
C2118 H2132 0.960 . S
C2119 C2116 1.511 . S
C2119 H2133 0.961 . S
C2119 H2134 0.961 . S
C2119 H2135 0.961 . S
C2120 C2121 1.370 . S
C2120 C2122 1.363 . S
C2120 H2136 0.931 . S
C2121 C2120 1.370 . S
C2121 C2125 1.408 . S
C2122 C2120 1.363 . S
C2122 C2123 1.370 . S
C2122 C2126 1.524 . S
C2123 C2115 1.503 . S
C2123 C2122 1.370 . S
C2123 C2124 1.403 . S
C2124 C2123 1.403 . S
C2124 C2125 1.404 . S
C2124 C2127 1.539 . S
C2125 C2121 1.408 . S
C2125 C2124 1.404 . S
C2125 H2137 0.930 . S
C2126 C2122 1.524 . S
C2126 H2138 0.956 . S
C2126 H2139 0.961 . S
C2126 H2140 0.961 . S
C2127 C2124 1.539 . S
C2127 H2141 0.958 . S
C2127 H2142 0.961 . S
C2127 H2143 0.960 . S
H2128 C2112 0.931 . S
H2129 C2117 0.929 . S
H2130 C2118 0.960 . S
H2131 C2118 0.962 . S
H2132 C2118 0.960 . S
H2133 C2119 0.961 . S
H2134 C2119 0.961 . S
H2135 C2119 0.961 . S
H2136 C2120 0.931 . S
H2137 C2125 0.930 . S
H2138 C2126 0.956 . S
H2139 C2126 0.961 . S
H2140 C2126 0.961 . S
H2141 C2127 0.958 . S
H2142 C2127 0.961 . S
H2143 C2127 0.960 . S
C2144 C2145 1.391 . S
C2144 C2146 1.394 . S
C2144 H2160 0.931 . S
C2145 C2144 1.391 . S
C2145 C2149 1.376 . S
C2146 C2144 1.394 . S
C2146 C2147 1.369 . S
C2146 C2150 1.531 . S
C2147 C2146 1.369 . S
C2147 C2148 1.410 . S
C2147 C2155 1.503 . S
C2148 C2147 1.410 . S
C2148 C2149 1.392 . S
C2148 C2151 1.511 . S
C2149 C2145 1.376 . S
C2149 C2148 1.392 . S
C2149 H2161 0.929 . S
C2150 C2146 1.531 . S
C2150 H2162 0.960 . S
C2150 H2163 0.962 . S
C2150 H2164 0.960 . S
C2151 C2148 1.511 . S
C2151 H2165 0.961 . S
C2151 H2166 0.961 . S
C2151 H2167 0.961 . S
C2152 C2153 1.370 . S
C2152 C2154 1.363 . S
C2152 H2168 0.931 . S
C2153 C2152 1.370 . S
C2153 C2157 1.408 . S
C2154 C2152 1.363 . S
C2154 C2155 1.370 . S
C2154 C2158 1.524 . S
C2155 C2147 1.503 . S
C2155 C2154 1.370 . S
C2155 C2156 1.403 . S
C2156 C2155 1.403 . S
C2156 C2157 1.404 . S
C2156 C2159 1.539 . S
C2157 C2153 1.408 . S
C2157 C2156 1.404 . S
C2157 H2169 0.930 . S
C2158 C2154 1.524 . S
C2158 H2170 0.956 . S
C2158 H2171 0.961 . S
C2158 H2172 0.961 . S
C2159 C2156 1.539 . S
C2159 H2173 0.958 . S
C2159 H2174 0.961 . S
C2159 H2175 0.960 . S
H2160 C2144 0.931 . S
H2161 C2149 0.929 . S
H2162 C2150 0.960 . S
H2163 C2150 0.962 . S
H2164 C2150 0.960 . S
H2165 C2151 0.961 . S
H2166 C2151 0.961 . S
H2167 C2151 0.961 . S
H2168 C2152 0.931 . S
H2169 C2157 0.930 . S
H2170 C2158 0.956 . S
H2171 C2158 0.961 . S
H2172 C2158 0.961 . S
H2173 C2159 0.958 . S
H2174 C2159 0.961 . S
H2175 C2159 0.960 . S
C2176 C2177 1.391 . S
C2176 C2178 1.394 . S
C2176 H2192 0.931 . S
C2177 C2176 1.391 . S
C2177 C2181 1.376 . S
C2178 C2176 1.394 . S
C2178 C2179 1.369 . S
C2178 C2182 1.531 . S
C2179 C2178 1.369 . S
C2179 C2180 1.410 . S
C2179 C2187 1.503 . S
C2180 C2179 1.410 . S
C2180 C2181 1.392 . S
C2180 C2183 1.511 . S
C2181 C2177 1.376 . S
C2181 C2180 1.392 . S
C2181 H2193 0.929 . S
C2182 C2178 1.531 . S
C2182 H2194 0.960 . S
C2182 H2195 0.962 . S
C2182 H2196 0.960 . S
C2183 C2180 1.511 . S
C2183 H2197 0.961 . S
C2183 H2198 0.961 . S
C2183 H2199 0.961 . S
C2184 C2185 1.370 . S
C2184 C2186 1.363 . S
C2184 H2200 0.931 . S
C2185 C2184 1.370 . S
C2185 C2189 1.408 . S
C2186 C2184 1.363 . S
C2186 C2187 1.370 . S
C2186 C2190 1.524 . S
C2187 C2179 1.503 . S
C2187 C2186 1.370 . S
C2187 C2188 1.403 . S
C2188 C2187 1.403 . S
C2188 C2189 1.404 . S
C2188 C2191 1.539 . S
C2189 C2185 1.408 . S
C2189 C2188 1.404 . S
C2189 H2201 0.930 . S
C2190 C2186 1.524 . S
C2190 H2202 0.956 . S
C2190 H2203 0.961 . S
C2190 H2204 0.961 . S
C2191 C2188 1.539 . S
C2191 H2205 0.958 . S
C2191 H2206 0.961 . S
C2191 H2207 0.960 . S
H2192 C2176 0.931 . S
H2193 C2181 0.929 . S
H2194 C2182 0.960 . S
H2195 C2182 0.962 . S
H2196 C2182 0.960 . S
H2197 C2183 0.961 . S
H2198 C2183 0.961 . S
H2199 C2183 0.961 . S
H2200 C2184 0.931 . S
H2201 C2189 0.930 . S
H2202 C2190 0.956 . S
H2203 C2190 0.961 . S
H2204 C2190 0.961 . S
H2205 C2191 0.958 . S
H2206 C2191 0.961 . S
H2207 C2191 0.960 . S
C2208 C2209 1.391 . S
C2208 C2210 1.394 . S
C2208 H2224 0.931 . S
C2209 C2208 1.391 . S
C2209 C2213 1.376 . S
C2210 C2208 1.394 . S
C2210 C2211 1.369 . S
C2210 C2214 1.531 . S
C2211 C2210 1.369 . S
C2211 C2212 1.410 . S
C2211 C2219 1.503 . S
C2212 C2211 1.410 . S
C2212 C2213 1.392 . S
C2212 C2215 1.511 . S
C2213 C2209 1.376 . S
C2213 C2212 1.392 . S
C2213 H2225 0.929 . S
C2214 C2210 1.531 . S
C2214 H2226 0.960 . S
C2214 H2227 0.962 . S
C2214 H2228 0.960 . S
C2215 C2212 1.511 . S
C2215 H2229 0.961 . S
C2215 H2230 0.961 . S
C2215 H2231 0.961 . S
C2216 C2217 1.370 . S
C2216 C2218 1.363 . S
C2216 H2232 0.931 . S
C2217 C2216 1.370 . S
C2217 C2221 1.408 . S
C2218 C2216 1.363 . S
C2218 C2219 1.370 . S
C2218 C2222 1.524 . S
C2219 C2211 1.503 . S
C2219 C2218 1.370 . S
C2219 C2220 1.403 . S
C2220 C2219 1.403 . S
C2220 C2221 1.404 . S
C2220 C2223 1.539 . S
C2221 C2217 1.408 . S
C2221 C2220 1.404 . S
C2221 H2233 0.930 . S
C2222 C2218 1.524 . S
C2222 H2234 0.956 . S
C2222 H2235 0.961 . S
C2222 H2236 0.961 . S
C2223 C2220 1.539 . S
C2223 H2237 0.958 . S
C2223 H2238 0.961 . S
C2223 H2239 0.960 . S
H2224 C2208 0.931 . S
H2225 C2213 0.929 . S
H2226 C2214 0.960 . S
H2227 C2214 0.962 . S
H2228 C2214 0.960 . S
H2229 C2215 0.961 . S
H2230 C2215 0.961 . S
H2231 C2215 0.961 . S
H2232 C2216 0.931 . S
H2233 C2221 0.930 . S
H2234 C2222 0.956 . S
H2235 C2222 0.961 . S
H2236 C2222 0.961 . S
H2237 C2223 0.958 . S
H2238 C2223 0.961 . S
H2239 C2223 0.960 . S
C2240 C2241 1.391 . S
C2240 C2242 1.394 . S
C2240 H2256 0.931 . S
C2241 C2240 1.391 . S
C2241 C2245 1.376 . S
C2242 C2240 1.394 . S
C2242 C2243 1.369 . S
C2242 C2246 1.531 . S
C2243 C2242 1.369 . S
C2243 C2244 1.410 . S
C2243 C2251 1.503 . S
C2244 C2243 1.410 . S
C2244 C2245 1.392 . S
C2244 C2247 1.511 . S
C2245 C2241 1.376 . S
C2245 C2244 1.392 . S
C2245 H2257 0.929 . S
C2246 C2242 1.531 . S
C2246 H2258 0.960 . S
C2246 H2259 0.962 . S
C2246 H2260 0.960 . S
C2247 C2244 1.511 . S
C2247 H2261 0.961 . S
C2247 H2262 0.961 . S
C2247 H2263 0.961 . S
C2248 C2249 1.370 . S
C2248 C2250 1.363 . S
C2248 H2264 0.931 . S
C2249 C2248 1.370 . S
C2249 C2253 1.408 . S
C2250 C2248 1.363 . S
C2250 C2251 1.370 . S
C2250 C2254 1.524 . S
C2251 C2243 1.503 . S
C2251 C2250 1.370 . S
C2251 C2252 1.403 . S
C2252 C2251 1.403 . S
C2252 C2253 1.404 . S
C2252 C2255 1.539 . S
C2253 C2249 1.408 . S
C2253 C2252 1.404 . S
C2253 H2265 0.930 . S
C2254 C2250 1.524 . S
C2254 H2266 0.956 . S
C2254 H2267 0.961 . S
C2254 H2268 0.961 . S
C2255 C2252 1.539 . S
C2255 H2269 0.958 . S
C2255 H2270 0.961 . S
C2255 H2271 0.960 . S
H2256 C2240 0.931 . S
H2257 C2245 0.929 . S
H2258 C2246 0.960 . S
H2259 C2246 0.962 . S
H2260 C2246 0.960 . S
H2261 C2247 0.961 . S
H2262 C2247 0.961 . S
H2263 C2247 0.961 . S
H2264 C2248 0.931 . S
H2265 C2253 0.930 . S
H2266 C2254 0.956 . S
H2267 C2254 0.961 . S
H2268 C2254 0.961 . S
H2269 C2255 0.958 . S
H2270 C2255 0.961 . S
H2271 C2255 0.960 . S
C2272 C2273 1.391 . S
C2272 C2274 1.394 . S
C2272 H2288 0.931 . S
C2273 C2272 1.391 . S
C2273 C2277 1.376 . S
C2274 C2272 1.394 . S
C2274 C2275 1.369 . S
C2274 C2278 1.531 . S
C2275 C2274 1.369 . S
C2275 C2276 1.410 . S
C2275 C2283 1.503 . S
C2276 C2275 1.410 . S
C2276 C2277 1.392 . S
C2276 C2279 1.511 . S
C2277 C2273 1.376 . S
C2277 C2276 1.392 . S
C2277 H2289 0.929 . S
C2278 C2274 1.531 . S
C2278 H2290 0.960 . S
C2278 H2291 0.962 . S
C2278 H2292 0.960 . S
C2279 C2276 1.511 . S
C2279 H2293 0.961 . S
C2279 H2294 0.961 . S
C2279 H2295 0.961 . S
C2280 C2281 1.370 . S
C2280 C2282 1.363 . S
C2280 H2296 0.931 . S
C2281 C2280 1.370 . S
C2281 C2285 1.408 . S
C2282 C2280 1.363 . S
C2282 C2283 1.370 . S
C2282 C2286 1.524 . S
C2283 C2275 1.503 . S
C2283 C2282 1.370 . S
C2283 C2284 1.403 . S
C2284 C2283 1.403 . S
C2284 C2285 1.404 . S
C2284 C2287 1.539 . S
C2285 C2281 1.408 . S
C2285 C2284 1.404 . S
C2285 H2297 0.930 . S
C2286 C2282 1.524 . S
C2286 H2298 0.956 . S
C2286 H2299 0.961 . S
C2286 H2300 0.961 . S
C2287 C2284 1.539 . S
C2287 H2301 0.958 . S
C2287 H2302 0.961 . S
C2287 H2303 0.960 . S
H2288 C2272 0.931 . S
H2289 C2277 0.929 . S
H2290 C2278 0.960 . S
H2291 C2278 0.962 . S
H2292 C2278 0.960 . S
H2293 C2279 0.961 . S
H2294 C2279 0.961 . S
H2295 C2279 0.961 . S
H2296 C2280 0.931 . S
H2297 C2285 0.930 . S
H2298 C2286 0.956 . S
H2299 C2286 0.961 . S
H2300 C2286 0.961 . S
H2301 C2287 0.958 . S
H2302 C2287 0.961 . S
H2303 C2287 0.960 . S
C2304 C2305 1.391 . S
C2304 C2306 1.394 . S
C2304 H2320 0.931 . S
C2305 C2304 1.391 . S
C2305 C2309 1.376 . S
C2306 C2304 1.394 . S
C2306 C2307 1.369 . S
C2306 C2310 1.531 . S
C2307 C2306 1.369 . S
C2307 C2308 1.410 . S
C2307 C2315 1.503 . S
C2308 C2307 1.410 . S
C2308 C2309 1.392 . S
C2308 C2311 1.511 . S
C2309 C2305 1.376 . S
C2309 C2308 1.392 . S
C2309 H2321 0.929 . S
C2310 C2306 1.531 . S
C2310 H2322 0.960 . S
C2310 H2323 0.962 . S
C2310 H2324 0.960 . S
C2311 C2308 1.511 . S
C2311 H2325 0.961 . S
C2311 H2326 0.961 . S
C2311 H2327 0.961 . S
C2312 C2313 1.370 . S
C2312 C2314 1.363 . S
C2312 H2328 0.931 . S
C2313 C2312 1.370 . S
C2313 C2317 1.408 . S
C2314 C2312 1.363 . S
C2314 C2315 1.370 . S
C2314 C2318 1.524 . S
C2315 C2307 1.503 . S
C2315 C2314 1.370 . S
C2315 C2316 1.403 . S
C2316 C2315 1.403 . S
C2316 C2317 1.404 . S
C2316 C2319 1.539 . S
C2317 C2313 1.408 . S
C2317 C2316 1.404 . S
C2317 H2329 0.930 . S
C2318 C2314 1.524 . S
C2318 H2330 0.956 . S
C2318 H2331 0.961 . S
C2318 H2332 0.961 . S
C2319 C2316 1.539 . S
C2319 H2333 0.958 . S
C2319 H2334 0.961 . S
C2319 H2335 0.960 . S
H2320 C2304 0.931 . S
H2321 C2309 0.929 . S
H2322 C2310 0.960 . S
H2323 C2310 0.962 . S
H2324 C2310 0.960 . S
H2325 C2311 0.961 . S
H2326 C2311 0.961 . S
H2327 C2311 0.961 . S
H2328 C2312 0.931 . S
H2329 C2317 0.930 . S
H2330 C2318 0.956 . S
H2331 C2318 0.961 . S
H2332 C2318 0.961 . S
H2333 C2319 0.958 . S
H2334 C2319 0.961 . S
H2335 C2319 0.960 . S
C2336 C2337 1.391 . S
C2336 C2338 1.394 . S
C2336 H2352 0.931 . S
C2337 C2336 1.391 . S
C2337 C2341 1.376 . S
C2338 C2336 1.394 . S
C2338 C2339 1.369 . S
C2338 C2342 1.531 . S
C2339 C2338 1.369 . S
C2339 C2340 1.410 . S
C2339 C2347 1.503 . S
C2340 C2339 1.410 . S
C2340 C2341 1.392 . S
C2340 C2343 1.511 . S
C2341 C2337 1.376 . S
C2341 C2340 1.392 . S
C2341 H2353 0.929 . S
C2342 C2338 1.531 . S
C2342 H2354 0.960 . S
C2342 H2355 0.962 . S
C2342 H2356 0.960 . S
C2343 C2340 1.511 . S
C2343 H2357 0.961 . S
C2343 H2358 0.961 . S
C2343 H2359 0.961 . S
C2344 C2345 1.370 . S
C2344 C2346 1.363 . S
C2344 H2360 0.931 . S
C2345 C2344 1.370 . S
C2345 C2349 1.408 . S
C2346 C2344 1.363 . S
C2346 C2347 1.370 . S
C2346 C2350 1.524 . S
C2347 C2339 1.503 . S
C2347 C2346 1.370 . S
C2347 C2348 1.403 . S
C2348 C2347 1.403 . S
C2348 C2349 1.404 . S
C2348 C2351 1.539 . S
C2349 C2345 1.408 . S
C2349 C2348 1.404 . S
C2349 H2361 0.930 . S
C2350 C2346 1.524 . S
C2350 H2362 0.956 . S
C2350 H2363 0.961 . S
C2350 H2364 0.961 . S
C2351 C2348 1.539 . S
C2351 H2365 0.958 . S
C2351 H2366 0.961 . S
C2351 H2367 0.960 . S
H2352 C2336 0.931 . S
H2353 C2341 0.929 . S
H2354 C2342 0.960 . S
H2355 C2342 0.962 . S
H2356 C2342 0.960 . S
H2357 C2343 0.961 . S
H2358 C2343 0.961 . S
H2359 C2343 0.961 . S
H2360 C2344 0.931 . S
H2361 C2349 0.930 . S
H2362 C2350 0.956 . S
H2363 C2350 0.961 . S
H2364 C2350 0.961 . S
H2365 C2351 0.958 . S
H2366 C2351 0.961 . S
H2367 C2351 0.960 . S
C2368 C2369 1.391 . S
C2368 C2370 1.394 . S
C2368 H2384 0.931 . S
C2369 C2368 1.391 . S
C2369 C2373 1.376 . S
C2370 C2368 1.394 . S
C2370 C2371 1.369 . S
C2370 C2374 1.531 . S
C2371 C2370 1.369 . S
C2371 C2372 1.410 . S
C2371 C2379 1.503 . S
C2372 C2371 1.410 . S
C2372 C2373 1.392 . S
C2372 C2375 1.511 . S
C2373 C2369 1.376 . S
C2373 C2372 1.392 . S
C2373 H2385 0.929 . S
C2374 C2370 1.531 . S
C2374 H2386 0.960 . S
C2374 H2387 0.962 . S
C2374 H2388 0.960 . S
C2375 C2372 1.511 . S
C2375 H2389 0.961 . S
C2375 H2390 0.961 . S
C2375 H2391 0.961 . S
C2376 C2377 1.370 . S
C2376 C2378 1.363 . S
C2376 H2392 0.931 . S
C2377 C2376 1.370 . S
C2377 C2381 1.408 . S
C2378 C2376 1.363 . S
C2378 C2379 1.370 . S
C2378 C2382 1.524 . S
C2379 C2371 1.503 . S
C2379 C2378 1.370 . S
C2379 C2380 1.403 . S
C2380 C2379 1.403 . S
C2380 C2381 1.404 . S
C2380 C2383 1.539 . S
C2381 C2377 1.408 . S
C2381 C2380 1.404 . S
C2381 H2393 0.930 . S
C2382 C2378 1.524 . S
C2382 H2394 0.956 . S
C2382 H2395 0.961 . S
C2382 H2396 0.961 . S
C2383 C2380 1.539 . S
C2383 H2397 0.958 . S
C2383 H2398 0.961 . S
C2383 H2399 0.960 . S
H2384 C2368 0.931 . S
H2385 C2373 0.929 . S
H2386 C2374 0.960 . S
H2387 C2374 0.962 . S
H2388 C2374 0.960 . S
H2389 C2375 0.961 . S
H2390 C2375 0.961 . S
H2391 C2375 0.961 . S
H2392 C2376 0.931 . S
H2393 C2381 0.930 . S
H2394 C2382 0.956 . S
H2395 C2382 0.961 . S
H2396 C2382 0.961 . S
H2397 C2383 0.958 . S
H2398 C2383 0.961 . S
H2399 C2383 0.960 . S
C2400 C2401 1.391 . S
C2400 C2402 1.394 . S
C2400 H2416 0.931 . S
C2401 C2400 1.391 . S
C2401 C2405 1.376 . S
C2402 C2400 1.394 . S
C2402 C2403 1.369 . S
C2402 C2406 1.531 . S
C2403 C2402 1.369 . S
C2403 C2404 1.410 . S
C2403 C2411 1.503 . S
C2404 C2403 1.410 . S
C2404 C2405 1.392 . S
C2404 C2407 1.511 . S
C2405 C2401 1.376 . S
C2405 C2404 1.392 . S
C2405 H2417 0.929 . S
C2406 C2402 1.531 . S
C2406 H2418 0.960 . S
C2406 H2419 0.962 . S
C2406 H2420 0.960 . S
C2407 C2404 1.511 . S
C2407 H2421 0.961 . S
C2407 H2422 0.961 . S
C2407 H2423 0.961 . S
C2408 C2409 1.370 . S
C2408 C2410 1.363 . S
C2408 H2424 0.931 . S
C2409 C2408 1.370 . S
C2409 C2413 1.408 . S
C2410 C2408 1.363 . S
C2410 C2411 1.370 . S
C2410 C2414 1.524 . S
C2411 C2403 1.503 . S
C2411 C2410 1.370 . S
C2411 C2412 1.403 . S
C2412 C2411 1.403 . S
C2412 C2413 1.404 . S
C2412 C2415 1.539 . S
C2413 C2409 1.408 . S
C2413 C2412 1.404 . S
C2413 H2425 0.930 . S
C2414 C2410 1.524 . S
C2414 H2426 0.956 . S
C2414 H2427 0.961 . S
C2414 H2428 0.961 . S
C2415 C2412 1.539 . S
C2415 H2429 0.958 . S
C2415 H2430 0.961 . S
C2415 H2431 0.960 . S
H2416 C2400 0.931 . S
H2417 C2405 0.929 . S
H2418 C2406 0.960 . S
H2419 C2406 0.962 . S
H2420 C2406 0.960 . S
H2421 C2407 0.961 . S
H2422 C2407 0.961 . S
H2423 C2407 0.961 . S
H2424 C2408 0.931 . S
H2425 C2413 0.930 . S
H2426 C2414 0.956 . S
H2427 C2414 0.961 . S
H2428 C2414 0.961 . S
H2429 C2415 0.958 . S
H2430 C2415 0.961 . S
H2431 C2415 0.960 . S
C2432 C2433 1.391 . S
C2432 C2434 1.394 . S
C2432 H2448 0.931 . S
C2433 C2432 1.391 . S
C2433 C2437 1.376 . S
C2434 C2432 1.394 . S
C2434 C2435 1.369 . S
C2434 C2438 1.531 . S
C2435 C2434 1.369 . S
C2435 C2436 1.410 . S
C2435 C2443 1.503 . S
C2436 C2435 1.410 . S
C2436 C2437 1.392 . S
C2436 C2439 1.511 . S
C2437 C2433 1.376 . S
C2437 C2436 1.392 . S
C2437 H2449 0.929 . S
C2438 C2434 1.531 . S
C2438 H2450 0.960 . S
C2438 H2451 0.962 . S
C2438 H2452 0.960 . S
C2439 C2436 1.511 . S
C2439 H2453 0.961 . S
C2439 H2454 0.961 . S
C2439 H2455 0.961 . S
C2440 C2441 1.370 . S
C2440 C2442 1.363 . S
C2440 H2456 0.931 . S
C2441 C2440 1.370 . S
C2441 C2445 1.408 . S
C2442 C2440 1.363 . S
C2442 C2443 1.370 . S
C2442 C2446 1.524 . S
C2443 C2435 1.503 . S
C2443 C2442 1.370 . S
C2443 C2444 1.403 . S
C2444 C2443 1.403 . S
C2444 C2445 1.404 . S
C2444 C2447 1.539 . S
C2445 C2441 1.408 . S
C2445 C2444 1.404 . S
C2445 H2457 0.930 . S
C2446 C2442 1.524 . S
C2446 H2458 0.956 . S
C2446 H2459 0.961 . S
C2446 H2460 0.961 . S
C2447 C2444 1.539 . S
C2447 H2461 0.958 . S
C2447 H2462 0.961 . S
C2447 H2463 0.960 . S
H2448 C2432 0.931 . S
H2449 C2437 0.929 . S
H2450 C2438 0.960 . S
H2451 C2438 0.962 . S
H2452 C2438 0.960 . S
H2453 C2439 0.961 . S
H2454 C2439 0.961 . S
H2455 C2439 0.961 . S
H2456 C2440 0.931 . S
H2457 C2445 0.930 . S
H2458 C2446 0.956 . S
H2459 C2446 0.961 . S
H2460 C2446 0.961 . S
H2461 C2447 0.958 . S
H2462 C2447 0.961 . S
H2463 C2447 0.960 . S
C2464 C2465 1.391 . S
C2464 C2466 1.394 . S
C2464 H2480 0.931 . S
C2465 C2464 1.391 . S
C2465 C2469 1.376 . S
C2466 C2464 1.394 . S
C2466 C2467 1.369 . S
C2466 C2470 1.531 . S
C2467 C2466 1.369 . S
C2467 C2468 1.410 . S
C2467 C2475 1.503 . S
C2468 C2467 1.410 . S
C2468 C2469 1.392 . S
C2468 C2471 1.511 . S
C2469 C2465 1.376 . S
C2469 C2468 1.392 . S
C2469 H2481 0.929 . S
C2470 C2466 1.531 . S
C2470 H2482 0.960 . S
C2470 H2483 0.962 . S
C2470 H2484 0.960 . S
C2471 C2468 1.511 . S
C2471 H2485 0.961 . S
C2471 H2486 0.961 . S
C2471 H2487 0.961 . S
C2472 C2473 1.370 . S
C2472 C2474 1.363 . S
C2472 H2488 0.931 . S
C2473 C2472 1.370 . S
C2473 C2477 1.408 . S
C2474 C2472 1.363 . S
C2474 C2475 1.370 . S
C2474 C2478 1.524 . S
C2475 C2467 1.503 . S
C2475 C2474 1.370 . S
C2475 C2476 1.403 . S
C2476 C2475 1.403 . S
C2476 C2477 1.404 . S
C2476 C2479 1.539 . S
C2477 C2473 1.408 . S
C2477 C2476 1.404 . S
C2477 H2489 0.930 . S
C2478 C2474 1.524 . S
C2478 H2490 0.956 . S
C2478 H2491 0.961 . S
C2478 H2492 0.961 . S
C2479 C2476 1.539 . S
C2479 H2493 0.958 . S
C2479 H2494 0.961 . S
C2479 H2495 0.960 . S
H2480 C2464 0.931 . S
H2481 C2469 0.929 . S
H2482 C2470 0.960 . S
H2483 C2470 0.962 . S
H2484 C2470 0.960 . S
H2485 C2471 0.961 . S
H2486 C2471 0.961 . S
H2487 C2471 0.961 . S
H2488 C2472 0.931 . S
H2489 C2477 0.930 . S
H2490 C2478 0.956 . S
H2491 C2478 0.961 . S
H2492 C2478 0.961 . S
H2493 C2479 0.958 . S
H2494 C2479 0.961 . S
H2495 C2479 0.960 . S
C449 C415 1.573 . S
C457 C9 1.569 . S
C481 C23 1.575 . S
C489 C429 1.569 . S
C513 C443 1.552 . S
C521 C37 1.561 . S
C545 C401 1.575 . S
C553 C51 1.569 . S
C577 C65 1.544 . S
C585 C387 1.556 . S
C609 C345 1.567 . S
C617 C79 1.567 . S
C641 C93 1.570 . S
C649 C359 1.568 . S
C673 C373 1.545 . S
C681 C107 1.557 . S
C705 C121 1.565 . S
C713 C303 1.564 . S
C737 C135 1.550 . S
C745 C317 1.560 . S
C769 C331 1.543 . S
C777 C149 1.556 . S
C801 C163 1.559 . S
C809 C289 1.561 . S
C833 C275 1.551 . S
C841 C177 1.558 . S
C865 C233 1.574 . S
C873 C191 1.568 . S
C897 C205 1.563 . S
C905 C247 1.565 . S
C929 C219 1.554 . S
C937 C261 1.559 . S
C961 C3 1.406 . S
C969 C143 1.404 . S
C993 C157 1.406 . S
C1001 C17 1.404 . S
C1025 C115 1.396 . S
C1033 C31 1.400 . S
C1057 C129 1.386 . S
C1065 C45 1.396 . S
C1089 C59 1.386 . S
C1097 C199 1.396 . S
C1121 C213 1.406 . S
C1129 C73 1.404 . S
C1153 C171 1.388 . S
C1161 C87 1.397 . S
C1185 C185 1.386 . S
C1193 C101 1.396 . S
C1217 C227 1.406 . S
C1225 C367 1.404 . S
C1249 C381 1.406 . S
C1257 C241 1.404 . S
C1281 C339 1.398 . S
C1289 C255 1.401 . S
C1313 C269 1.393 . S
C1321 C353 1.399 . S
C1345 C283 1.406 . S
C1353 C423 1.404 . S
C1377 C437 1.406 . S
C1385 C297 1.404 . S
C1409 C395 1.393 . S
C1417 C311 1.399 . S
C1441 C325 1.395 . S
C1449 C409 1.400 . S
C1473 C8 1.525 . S
C1481 C64 1.515 . S
C1505 C22 1.527 . S
C1513 C78 1.517 . S
C1537 C92 1.518 . S
C1545 C36 1.513 . S
C1569 C50 1.503 . S
C1577 C106 1.516 . S
C1601 C120 1.502 . S
C1609 C176 1.518 . S
C1633 C190 1.502 . S
C1641 C134 1.518 . S
C1665 C204 1.506 . S
C1673 C148 1.514 . S
C1697 C162 1.527 . S
C1705 C218 1.519 . S
C1729 C232 1.508 . S
C1737 C288 1.514 . S
C1761 C302 1.502 . S
C1769 C246 1.520 . S
C1793 C260 1.508 . S
C1801 C316 1.523 . S
C1825 C330 1.504 . S
C1833 C274 1.516 . S
C1857 C400 1.523 . S
C1865 C344 1.515 . S
C1889 C358 1.512 . S
C1897 C414 1.513 . S
C1921 C372 1.527 . S
C1929 C428 1.520 . S
C1953 C386 1.509 . S
C1961 C442 1.513 . S
C1985 C7 1.297 . S
C1993 C77 1.339 . S
C2017 C21 1.361 . S
C2025 C91 1.337 . S
C2049 C105 1.341 . S
C2057 C35 1.346 . S
C2081 C63 1.348 . S
C2089 C49 1.344 . S
C2113 C189 1.301 . S
C2121 C119 1.343 . S
C2145 C203 1.358 . S
C2153 C133 1.344 . S
C2177 C217 1.366 . S
C2185 C147 1.335 . S
C2209 C161 1.297 . S
C2217 C175 1.333 . S
C2241 C231 1.319 . S
C2249 C301 1.324 . S
C2273 C315 1.299 . S
C2281 C245 1.345 . S
C2305 C329 1.323 . S
C2313 C259 1.323 . S
C2337 C273 1.339 . S
C2345 C287 1.321 . S
C2369 C413 1.314 . S
C2377 C343 1.323 . S
C2401 C357 1.364 . S
C2409 C427 1.330 . S
C2433 C371 1.304 . S
C2441 C441 1.344 . S
C2465 C399 1.297 . S
C2473 C385 1.337 . S
