# Generated by pormake.
# Topology ukb, (4)-cn, num edge types: 1
# Building blocks:
#     Node 0, Type 0, BuildingBlock: GALJAG_clean_sbu_0, # of connection points: 4
#     Node 1, Type 0, BuildingBlock: GALJAG_clean_sbu_0, # of connection points: 4
#     Node 2, Type 0, BuildingBlock: GALJAG_clean_sbu_0, # of connection points: 4
#     Node 3, Type 0, BuildingBlock: GALJAG_clean_sbu_0, # of connection points: 4
#     Node 4, Type 0, BuildingBlock: GALJAG_clean_sbu_0, # of connection points: 4
#     Node 5, Type 0, BuildingBlock: GALJAG_clean_sbu_0, # of connection points: 4
#     Node 6, Type 0, BuildingBlock: GALJAG_clean_sbu_0, # of connection points: 4
#     Node 7, Type 0, BuildingBlock: GALJAG_clean_sbu_0, # of connection points: 4
#     Node 8, Type 0, BuildingBlock: GALJAG_clean_sbu_0, # of connection points: 4
#     Node 9, Type 0, BuildingBlock: GALJAG_clean_sbu_0, # of connection points: 4
#     Node 10, Type 0, BuildingBlock: GALJAG_clean_sbu_0, # of connection points: 4
#     Node 11, Type 0, BuildingBlock: GALJAG_clean_sbu_0, # of connection points: 4
#     Node 12, Type 0, BuildingBlock: GALJAG_clean_sbu_0, # of connection points: 4
#     Node 13, Type 0, BuildingBlock: GALJAG_clean_sbu_0, # of connection points: 4
#     Node 14, Type 0, BuildingBlock: GALJAG_clean_sbu_0, # of connection points: 4
#     Node 15, Type 0, BuildingBlock: GALJAG_clean_sbu_0, # of connection points: 4
#     Edge 16, Type (0, 0), BuildingBlock: UVAHIK_clean_linker_0, # of connection points: 2
#     Edge 17, Type (0, 0), BuildingBlock: UVAHIK_clean_linker_0, # of connection points: 2
#     Edge 18, Type (0, 0), BuildingBlock: UVAHIK_clean_linker_0, # of connection points: 2
#     Edge 19, Type (0, 0), BuildingBlock: UVAHIK_clean_linker_0, # of connection points: 2
#     Edge 20, Type (0, 0), BuildingBlock: UVAHIK_clean_linker_0, # of connection points: 2
#     Edge 21, Type (0, 0), BuildingBlock: UVAHIK_clean_linker_0, # of connection points: 2
#     Edge 22, Type (0, 0), BuildingBlock: UVAHIK_clean_linker_0, # of connection points: 2
#     Edge 23, Type (0, 0), BuildingBlock: UVAHIK_clean_linker_0, # of connection points: 2
#     Edge 24, Type (0, 0), BuildingBlock: UVAHIK_clean_linker_0, # of connection points: 2
#     Edge 25, Type (0, 0), BuildingBlock: UVAHIK_clean_linker_0, # of connection points: 2
#     Edge 26, Type (0, 0), BuildingBlock: UVAHIK_clean_linker_0, # of connection points: 2
#     Edge 27, Type (0, 0), BuildingBlock: UVAHIK_clean_linker_0, # of connection points: 2
#     Edge 28, Type (0, 0), BuildingBlock: UVAHIK_clean_linker_0, # of connection points: 2
#     Edge 29, Type (0, 0), BuildingBlock: UVAHIK_clean_linker_0, # of connection points: 2
#     Edge 30, Type (0, 0), BuildingBlock: UVAHIK_clean_linker_0, # of connection points: 2
#     Edge 31, Type (0, 0), BuildingBlock: UVAHIK_clean_linker_0, # of connection points: 2
#     Edge 32, Type (0, 0), BuildingBlock: UVAHIK_clean_linker_0, # of connection points: 2
#     Edge 33, Type (0, 0), BuildingBlock: UVAHIK_clean_linker_0, # of connection points: 2
#     Edge 34, Type (0, 0), BuildingBlock: UVAHIK_clean_linker_0, # of connection points: 2
#     Edge 35, Type (0, 0), BuildingBlock: UVAHIK_clean_linker_0, # of connection points: 2
#     Edge 36, Type (0, 0), BuildingBlock: UVAHIK_clean_linker_0, # of connection points: 2
#     Edge 37, Type (0, 0), BuildingBlock: UVAHIK_clean_linker_0, # of connection points: 2
#     Edge 38, Type (0, 0), BuildingBlock: UVAHIK_clean_linker_0, # of connection points: 2
#     Edge 39, Type (0, 0), BuildingBlock: UVAHIK_clean_linker_0, # of connection points: 2
#     Edge 40, Type (0, 0), BuildingBlock: UVAHIK_clean_linker_0, # of connection points: 2
#     Edge 41, Type (0, 0), BuildingBlock: UVAHIK_clean_linker_0, # of connection points: 2
#     Edge 42, Type (0, 0), BuildingBlock: UVAHIK_clean_linker_0, # of connection points: 2
#     Edge 43, Type (0, 0), BuildingBlock: UVAHIK_clean_linker_0, # of connection points: 2
#     Edge 44, Type (0, 0), BuildingBlock: UVAHIK_clean_linker_0, # of connection points: 2
#     Edge 45, Type (0, 0), BuildingBlock: UVAHIK_clean_linker_0, # of connection points: 2
#     Edge 46, Type (0, 0), BuildingBlock: UVAHIK_clean_linker_0, # of connection points: 2
#     Edge 47, Type (0, 0), BuildingBlock: UVAHIK_clean_linker_0, # of connection points: 2
# Relax obj value: 0.140
# Max RMSD: 0.093
# Mean RMSD: 0.093
data_MOF--net-ukb--node1-GALJAG_clean_sbu_0--edge1-UVAHIK_clean_linker_0
_symmetry_space_group_name_H-M    P1
_symmetry_Int_Tables_number       1
_symmetry_cell_setting            triclinic
loop_
_symmetry_equiv_pos_as_xyz
'x, y, z'
_cell_length_a     57.285479
_cell_length_b     57.206515
_cell_length_c     48.867051
_cell_angle_alpha  90.05565
_cell_angle_beta   89.97052
_cell_angle_gamma 90.024568
loop_
_atom_site_label
_atom_site_type_symbol
_atom_site_fract_x
_atom_site_fract_y
_atom_site_fract_z
_atom_type_partial_charge
In0 In 0.51745 0.20317 0.19596 0.0
O1 O 0.54551 0.17929 0.17819 0.0
O2 O 0.53278 0.17141 0.2179 0.0
C3 C 0.50858 0.21864 0.14499 0.0
C4 C 0.47622 0.18837 0.2166 0.0
C5 C 0.54057 0.23874 0.22029 0.0
O6 O 0.51142 0.19729 0.1505 0.0
O7 O 0.51 0.23225 0.16527 0.0
O8 O 0.51858 0.23728 0.22069 0.0
O9 O 0.55068 0.22228 0.20789 0.0
C10 C 0.54653 0.16604 0.19875 0.0
O11 O 0.49268 0.19541 0.23163 0.0
O12 O 0.48039 0.18934 0.19133 0.0
In13 In 0.29432 0.52583 0.69625 0.0
O14 O 0.30626 0.49954 0.72883 0.0
O15 O 0.31387 0.49216 0.68723 0.0
C16 C 0.25011 0.53291 0.71388 0.0
C17 C 0.32327 0.56113 0.71124 0.0
C18 C 0.28588 0.52311 0.64232 0.0
O19 O 0.26393 0.51935 0.72621 0.0
O20 O 0.25858 0.54255 0.69298 0.0
O21 O 0.29496 0.54096 0.65328 0.0
O22 O 0.28121 0.5066 0.65857 0.0
C23 C 0.31542 0.48573 0.71178 0.0
O24 O 0.32875 0.54628 0.69331 0.0
O25 O 0.30344 0.55802 0.7217 0.0
In26 In 0.9768 0.30191 0.1932 0.0
O27 O 0.00157 0.31106 0.22838 0.0
O28 O 0.01444 0.31398 0.18785 0.0
C29 C 0.95377 0.26685 0.2186 0.0
C30 C 0.94815 0.33942 0.19567 0.0
C31 C 0.98504 0.28543 0.14246 0.0
O32 O 0.97576 0.26838 0.21891 0.0
O33 O 0.94361 0.28301 0.20578 0.0
O34 O 0.98263 0.30694 0.14749 0.0
O35 O 0.98347 0.27223 0.16306 0.0
C36 C 0.01843 0.31643 0.21302 0.0
O37 O 0.94885 0.3259 0.1753 0.0
O38 O 0.96205 0.33417 0.21468 0.0
In39 In 0.2086 0.97078 0.69254 0.0
O40 O 0.19797 0.99778 0.72491 0.0
O41 O 0.18959 0.00488 0.6835 0.0
C42 C 0.25069 0.96542 0.71702 0.0
C43 C 0.17896 0.93499 0.7027 0.0
C44 C 0.21639 0.9696 0.63825 0.0
O45 O 0.23174 0.96472 0.7301 0.0
O46 O 0.24845 0.96949 0.69186 0.0
O47 O 0.20774 0.95253 0.6511 0.0
O48 O 0.22112 0.98723 0.6528 0.0
C49 C 0.18871 0.01159 0.70802 0.0
O50 O 0.17186 0.95532 0.69726 0.0
O51 O 0.20084 0.9328 0.703 0.0
In52 In 0.52094 0.29561 0.81039 0.0
O53 O 0.54905 0.32322 0.81807 0.0
O54 O 0.5413 0.31451 0.77689 0.0
C55 C 0.51271 0.28598 0.86333 0.0
C56 C 0.48018 0.31502 0.79432 0.0
C57 C 0.53892 0.25422 0.79442 0.0
O58 O 0.52451 0.30344 0.85569 0.0
O59 O 0.50497 0.27329 0.8442 0.0
O60 O 0.51929 0.26137 0.78616 0.0
O61 O 0.54929 0.2679 0.81063 0.0
C62 C 0.55339 0.32662 0.79311 0.0
O63 O 0.49065 0.29994 0.78003 0.0
O64 O 0.49015 0.32004 0.81649 0.0
In65 In 0.19273 0.53311 0.31186 0.0
O66 O 0.19174 0.50004 0.2856 0.0
O67 O 0.16787 0.50273 0.31878 0.0
C68 C 0.23125 0.55305 0.28988 0.0
C69 C 0.15662 0.56179 0.29979 0.0
C70 C 0.20833 0.52775 0.3634 0.0
O71 O 0.22225 0.53481 0.27988 0.0
O72 O 0.22074 0.56109 0.31044 0.0
O73 O 0.19638 0.54504 0.35575 0.0
O74 O 0.21239 0.51276 0.34501 0.0
C75 C 0.17534 0.49071 0.29898 0.0
O76 O 0.16176 0.55586 0.32383 0.0
O77 O 0.16955 0.55306 0.28156 0.0
In78 In 0.98085 0.1968 0.81105 0.0
O79 O 0.95383 0.168 0.81838 0.0
O80 O 0.96062 0.17804 0.77738 0.0
C81 C 0.98878 0.20776 0.86376 0.0
C82 C 0.02207 0.17839 0.79489 0.0
C83 C 0.96092 0.23719 0.79498 0.0
O84 O 0.97724 0.18997 0.85662 0.0
O85 O 0.99654 0.21998 0.84426 0.0
O86 O 0.98058 0.23067 0.78605 0.0
O87 O 0.95157 0.22343 0.8119 0.0
C88 C 0.94913 0.16518 0.7934 0.0
O89 O 0.0119 0.19422 0.78148 0.0
O90 O 0.01158 0.17212 0.81629 0.0
In91 In 0.29532 0.9711 0.30206 0.0
O92 O 0.32164 0.94292 0.31434 0.0
O93 O 0.32178 0.95476 0.27314 0.0
C94 C 0.28033 0.96897 0.35422 0.0
C95 C 0.31533 0.01302 0.29261 0.0
C96 C 0.25642 0.95862 0.27409 0.0
O97 O 0.28476 0.95085 0.34037 0.0
O98 O 0.2835 0.98799 0.34174 0.0
O99 O 0.25647 0.97512 0.2912 0.0
O100 O 0.27599 0.94913 0.27051 0.0
C101 C 0.3304 0.94114 0.29072 0.0
O102 O 0.29961 0.00487 0.2772 0.0
O103 O 0.32082 6e-05 0.3124 0.0
In104 In 0.47974 0.80131 0.80822 0.0
O105 O 0.50631 0.80583 0.77351 0.0
O106 O 0.51485 0.81945 0.81264 0.0
C107 C 0.45673 0.76381 0.78827 0.0
C108 C 0.4495 0.83695 0.80009 0.0
C109 C 0.4904 0.78718 0.85925 0.0
O110 O 0.47793 0.76767 0.78273 0.0
O111 O 0.44731 0.77888 0.80354 0.0
O112 O 0.48492 0.80802 0.85374 0.0
O113 O 0.49072 0.77349 0.83899 0.0
C114 C 0.5209 0.81672 0.78807 0.0
O115 O 0.45174 0.82686 0.82286 0.0
O116 O 0.46265 0.82922 0.78148 0.0
In117 In 0.71009 0.47316 0.29813 0.0
O118 O 0.67474 0.45497 0.30345 0.0
O119 O 0.70259 0.43537 0.28634 0.0
C120 C 0.71743 0.47255 0.35262 0.0
C121 C 0.69007 0.51208 0.27755 0.0
C122 C 0.75108 0.47045 0.27071 0.0
O123 O 0.72528 0.45706 0.33672 0.0
O124 O 0.70561 0.48833 0.34108 0.0
O125 O 0.73171 0.46593 0.25972 0.0
O126 O 0.74972 0.47711 0.29524 0.0
C127 C 0.6815 0.43571 0.29367 0.0
O128 O 0.68601 0.49188 0.26838 0.0
O129 O 0.70463 0.51279 0.29689 0.0
In130 In 0.02438 0.69714 0.80358 0.0
O131 O 0.04531 0.66506 0.8168 0.0
O132 O 0.04339 0.67279 0.77432 0.0
C133 C 0.02118 0.7134 0.85522 0.0
C134 C 0.98313 0.67897 0.78767 0.0
C135 C 0.04407 0.735 0.77982 0.0
O136 O 0.0387 0.70226 0.8466 0.0
O137 O 0.00517 0.71625 0.83783 0.0
O138 O 0.02222 0.73274 0.78186 0.0
O139 O 0.05566 0.71822 0.78944 0.0
C140 C 0.05124 0.65953 0.79277 0.0
O141 O 0.99508 0.69216 0.7724 0.0
O142 O 0.99187 0.67527 0.81094 0.0
In143 In 0.78592 0.03101 0.29359 0.0
O144 O 0.79304 0.99169 0.29145 0.0
O145 O 0.80932 0.01357 0.26202 0.0
C146 C 0.74431 0.03356 0.26751 0.0
C147 C 0.81412 0.06882 0.29 0.0
C148 C 0.77943 0.03022 0.3482 0.0
O149 O 0.76339 0.03843 0.25601 0.0
O150 O 0.74627 0.02663 0.29185 0.0
O151 O 0.77181 0.04642 0.33316 0.0
O152 O 0.79054 0.01443 0.33571 0.0
C153 C 0.80663 0.99317 0.27121 0.0
O154 O 0.82113 0.04941 0.29902 0.0
O155 O 0.79296 0.06914 0.28296 0.0
In156 In 0.47631 0.69837 0.18801 0.0
O157 O 0.44569 0.67438 0.17739 0.0
O158 O 0.45185 0.6819 0.21932 0.0
C159 C 0.48838 0.70948 0.13644 0.0
C160 C 0.51498 0.67493 0.20366 0.0
C161 C 0.46026 0.73985 0.20615 0.0
O162 O 0.47386 0.69353 0.14189 0.0
O163 O 0.49698 0.71968 0.15703 0.0
O164 O 0.47374 0.7273 0.2204 0.0
O165 O 0.45507 0.73146 0.18307 0.0
C166 C 0.4394 0.67147 0.20189 0.0
O167 O 0.51066 0.69534 0.21207 0.0
O168 O 0.49975 0.66649 0.18794 0.0
In169 In 0.79785 0.4689 0.68828 0.0
O170 O 0.80391 0.49904 0.7185 0.0
O171 O 0.82034 0.50078 0.67965 0.0
C172 C 0.75572 0.45305 0.70434 0.0
C173 C 0.82909 0.43696 0.70644 0.0
C174 C 0.7865 0.473 0.63519 0.0
O175 O 0.7645 0.47146 0.71428 0.0
O176 O 0.76816 0.44291 0.68669 0.0
O177 O 0.80062 0.45773 0.64385 0.0
O178 O 0.77836 0.48649 0.65333 0.0
C179 C 0.81708 0.51031 0.70255 0.0
O180 O 0.83031 0.44583 0.68289 0.0
O181 O 0.81245 0.44443 0.72081 0.0
In182 In 0.01723 0.79744 0.18932 0.0
O183 O 0.05561 0.80749 0.18548 0.0
O184 O 0.03455 0.82787 0.21203 0.0
C185 C 0.01572 0.78898 0.13515 0.0
C186 C 0.97844 0.82281 0.19874 0.0
C187 C 0.0221 0.75605 0.21568 0.0
O188 O 0.03428 0.79442 0.14749 0.0
O189 O 0.99777 0.78794 0.15011 0.0
O190 O 0.02485 0.7754 0.22758 0.0
O191 O 0.01607 0.75764 0.19102 0.0
C192 C 0.05445 0.82458 0.2017 0.0
O193 O 0.98272 0.80422 0.21176 0.0
O194 O 0.99361 0.82831 0.18117 0.0
In195 In 0.70346 0.02602 0.68539 0.0
O196 O 0.69824 0.99486 0.71431 0.0
O197 O 0.68152 0.99399 0.67561 0.0
C198 C 0.74512 0.04228 0.7026 0.0
C199 C 0.67089 0.05637 0.70424 0.0
C200 C 0.71513 0.02371 0.63221 0.0
O201 O 0.7367 0.02334 0.71151 0.0
O202 O 0.73253 0.05278 0.68542 0.0
O203 O 0.70113 0.0388 0.64156 0.0
O204 O 0.72306 0.00952 0.6497 0.0
C205 C 0.68513 0.98384 0.69805 0.0
O206 O 0.67013 0.04779 0.6805 0.0
O207 O 0.68785 0.04947 0.71848 0.0
C208 C 0.4375 0.16926 0.20961 0.0
C209 C 0.45485 0.17741 0.22755 0.0
C210 C 0.41896 0.15579 0.2194 0.0
C211 C 0.40723 0.11454 0.2743 0.0
H212 H 0.34382 0.11571 0.24657 0.0
C213 C 0.34109 0.04543 0.30826 0.0
C214 C 0.3271 0.03557 0.2877 0.0
C215 C 0.3538 0.06578 0.30327 0.0
C216 C 0.36149 0.11508 0.25438 0.0
H217 H 0.46566 0.17917 0.27001 0.0
H218 H 0.43321 0.15565 0.28716 0.0
H219 H 0.37104 0.14684 0.23391 0.0
H220 H 0.31473 0.03961 0.24609 0.0
H221 H 0.33755 0.07486 0.23696 0.0
H222 H 0.39824 0.08247 0.29385 0.0
C223 C 0.4341 0.15945 0.26548 0.0
C224 C 0.37703 0.13295 0.24722 0.0
C225 C 0.4526 0.17301 0.25569 0.0
C226 C 0.3254 0.04687 0.2623 0.0
C227 C 0.33837 0.06714 0.25716 0.0
C228 C 0.3918 0.09667 0.28131 0.0
C229 C 0.41748 0.15014 0.24732 0.0
C230 C 0.40013 0.13271 0.2569 0.0
C231 C 0.35308 0.07657 0.27745 0.0
C232 C 0.36881 0.09656 0.27124 0.0
H233 H 0.43874 0.17246 0.18781 0.0
H234 H 0.40654 0.14874 0.20487 0.0
H235 H 0.42504 0.11357 0.28163 0.0
H236 H 0.34248 0.03725 0.32818 0.0
H237 H 0.3645 0.07284 0.31956 0.0
C238 C 0.33234 0.45916 0.74728 0.0
C239 C 0.32774 0.46413 0.71969 0.0
C240 C 0.34549 0.4395 0.7544 0.0
C241 C 0.38962 0.39977 0.72525 0.0
H242 H 0.37871 0.36458 0.79181 0.0
C243 C 0.45078 0.32505 0.75828 0.0
C244 C 0.45871 0.327 0.78537 0.0
C245 C 0.43182 0.3384 0.74932 0.0
C246 C 0.38193 0.37425 0.77315 0.0
H247 H 0.33234 0.45197 0.67798 0.0
H248 H 0.35485 0.4175 0.6904 0.0
H249 H 0.35075 0.39449 0.7778 0.0
H250 H 0.45244 0.3435 0.82467 0.0
H251 H 0.41942 0.3667 0.80909 0.0
H252 H 0.42097 0.37985 0.72084 0.0
C253 C 0.3488 0.42899 0.70653 0.0
C254 C 0.36599 0.39143 0.76517 0.0
C255 C 0.33581 0.44869 0.69942 0.0
C256 C 0.44675 0.34171 0.80363 0.0
C257 C 0.42772 0.35487 0.79476 0.0
C258 C 0.40546 0.38254 0.73314 0.0
C259 C 0.35417 0.42438 0.73406 0.0
C260 C 0.36987 0.40469 0.74139 0.0
C261 C 0.42035 0.35373 0.76739 0.0
C262 C 0.40202 0.3699 0.75743 0.0
H263 H 0.32634 0.47079 0.76331 0.0
H264 H 0.34952 0.43663 0.77578 0.0
H265 H 0.39337 0.40988 0.70705 0.0
H266 H 0.45967 0.31381 0.74379 0.0
H267 H 0.42637 0.33705 0.72816 0.0
C268 C 0.05872 0.3317 0.20531 0.0
C269 C 0.04018 0.32709 0.22332 0.0
C270 C 0.07798 0.34471 0.21401 0.0
C271 C 0.10682 0.37037 0.27556 0.0
H272 H 0.12449 0.41918 0.22455 0.0
C273 C 0.14783 0.45784 0.30833 0.0
C274 C 0.16495 0.46797 0.29152 0.0
C275 C 0.13669 0.4372 0.30045 0.0
C276 C 0.12013 0.40541 0.23887 0.0
H277 H 0.02773 0.33137 0.2649 0.0
H278 H 0.06103 0.35452 0.27998 0.0
H279 H 0.09769 0.3887 0.21 0.0
H280 H 0.18447 0.46406 0.25377 0.0
H281 H 0.16483 0.42798 0.23987 0.0
H282 H 0.12859 0.38787 0.30478 0.0
C283 C 0.06097 0.34782 0.25925 0.0
C284 C 0.10477 0.38787 0.23053 0.0
C285 C 0.04179 0.33465 0.25058 0.0
C286 C 0.17126 0.45668 0.26707 0.0
C287 C 0.15999 0.43609 0.25909 0.0
C288 C 0.12211 0.38803 0.28396 0.0
C289 C 0.079 0.35355 0.24085 0.0
C290 C 0.09755 0.37039 0.24892 0.0
C291 C 0.14234 0.42633 0.27552 0.0
C292 C 0.12855 0.40599 0.26585 0.0
H293 H 0.05804 0.32589 0.18422 0.0
H294 H 0.09178 0.34838 0.19948 0.0
H295 H 0.10194 0.35696 0.2901 0.0
H296 H 0.14266 0.46612 0.32733 0.0
H297 H 0.12298 0.43027 0.31339 0.0
C298 C 0.16884 0.04911 0.69633 0.0
C299 C 0.1767 0.0333 0.71626 0.0
C300 C 0.1559 0.06878 0.70386 0.0
C301 C 0.13785 0.10489 0.76379 0.0
H302 H 0.08348 0.11755 0.71893 0.0
C303 C 0.05554 0.15152 0.80324 0.0
C304 C 0.04383 0.16702 0.78572 0.0
C305 C 0.07493 0.13903 0.79402 0.0
C306 C 0.09881 0.11455 0.73141 0.0
H307 H 0.17783 0.02596 0.75972 0.0
H308 H 0.15471 0.05992 0.77289 0.0
H309 H 0.11162 0.08834 0.70416 0.0
H310 H 0.04365 0.18229 0.74515 0.0
H311 H 0.07753 0.16019 0.72886 0.0
H312 H 0.12432 0.13049 0.79163 0.0
C313 C 0.15889 0.05746 0.75147 0.0
C314 C 0.11499 0.0978 0.72294 0.0
C315 C 0.17201 0.03789 0.74393 0.0
C316 C 0.05234 0.17042 0.75906 0.0
C317 C 0.07164 0.15772 0.74972 0.0
C318 C 0.12155 0.12154 0.77235 0.0
C319 C 0.15036 0.07295 0.73147 0.0
C320 C 0.1345 0.09245 0.73926 0.0
C321 C 0.08289 0.14164 0.767 0.0
C322 C 0.10166 0.12623 0.75648 0.0
H323 H 0.17239 0.04612 0.67483 0.0
H324 H 0.15 0.08057 0.68798 0.0
H325 H 0.1529 0.10154 0.77659 0.0
H326 H 0.0494 0.1486 0.82393 0.0
H327 H 0.08307 0.12659 0.80771 0.0
C328 C 0.54661 0.82762 0.74865 0.0
C329 C 0.54245 0.82722 0.77696 0.0
C330 C 0.56556 0.84011 0.73806 0.0
C331 C 0.62114 0.86953 0.7565 0.0
H332 H 0.60411 0.91234 0.69842 0.0
C333 C 0.67316 0.95353 0.73223 0.0
C334 C 0.67368 0.96153 0.70509 0.0
C335 C 0.6601 0.93373 0.73917 0.0
C336 C 0.60941 0.90021 0.71423 0.0
H337 H 0.55549 0.83845 0.81651 0.0
H338 H 0.58846 0.86024 0.79806 0.0
H339 H 0.57627 0.88305 0.71351 0.0
H340 H 0.66222 0.95437 0.66365 0.0
H341 H 0.64 0.91954 0.67556 0.0
H342 H 0.65419 0.88705 0.75754 0.0
C343 C 0.57721 0.85087 0.78401 0.0
C344 C 0.5934 0.88339 0.72289 0.0
C345 C 0.55823 0.83851 0.79457 0.0
C346 C 0.6619 0.94875 0.68481 0.0
C347 C 0.64907 0.92886 0.69167 0.0
C348 C 0.63726 0.8863 0.74772 0.0
C349 C 0.58076 0.85229 0.75561 0.0
C350 C 0.59891 0.86814 0.74444 0.0
C351 C 0.64749 0.92145 0.71904 0.0
C352 C 0.63143 0.90212 0.72679 0.0
H353 H 0.53478 0.819 0.7346 0.0
H354 H 0.56802 0.84069 0.71609 0.0
H355 H 0.62596 0.85783 0.77298 0.0
H356 H 0.68207 0.96308 0.74828 0.0
H357 H 0.65911 0.92869 0.76049 0.0
C358 C 0.55238 0.67077 0.23003 0.0
C359 C 0.53635 0.66192 0.21087 0.0
C360 C 0.57257 0.65812 0.23651 0.0
C361 C 0.61079 0.61119 0.21012 0.0
H362 H 0.62551 0.59965 0.28635 0.0
C363 C 0.66207 0.53093 0.24541 0.0
C364 C 0.67748 0.5329 0.26761 0.0
C365 C 0.64849 0.54995 0.23738 0.0
C366 C 0.62195 0.60307 0.26496 0.0
H367 H 0.5289 0.63307 0.18339 0.0
H368 H 0.56389 0.61112 0.19468 0.0
H369 H 0.59464 0.62731 0.27461 0.0
H370 H 0.69135 0.5565 0.29832 0.0
H371 H 0.66752 0.58989 0.28421 0.0
H372 H 0.63758 0.5865 0.20042 0.0
C373 C 0.56108 0.62787 0.20451 0.0
C374 C 0.60426 0.6189 0.25825 0.0
C375 C 0.54092 0.64036 0.19822 0.0
C376 C 0.67958 0.55449 0.28113 0.0
C377 C 0.66587 0.57354 0.27316 0.0
C378 C 0.62846 0.59543 0.2168 0.0
C379 C 0.57713 0.63658 0.2237 0.0
C380 C 0.59804 0.62257 0.23078 0.0
C381 C 0.64996 0.57137 0.25141 0.0
C382 C 0.63377 0.59067 0.2443 0.0
H383 H 0.54929 0.68737 0.24005 0.0
H384 H 0.58468 0.66526 0.25134 0.0
H385 H 0.60668 0.61404 0.18875 0.0
H386 H 0.66006 0.51451 0.23461 0.0
H387 H 0.63617 0.54757 0.22079 0.0
C388 C 0.95471 0.66822 0.75091 0.0
C389 C 0.96148 0.66739 0.77851 0.0
C390 C 0.93567 0.65509 0.74175 0.0
C391 C 0.88346 0.62218 0.76408 0.0
H392 H 0.89739 0.58291 0.70149 0.0
C393 C 0.83077 0.53889 0.73789 0.0
C394 C 0.82887 0.53225 0.71033 0.0
C395 C 0.84412 0.55838 0.74526 0.0
C396 C 0.8929 0.59405 0.71862 0.0
H397 H 0.95299 0.6532 0.81843 0.0
H398 H 0.91971 0.63035 0.80244 0.0
H399 H 0.92538 0.61231 0.71587 0.0
H400 H 0.83812 0.5415 0.66871 0.0
H401 H 0.86069 0.5759 0.6814 0.0
H402 H 0.85101 0.60374 0.76697 0.0
C403 C 0.92906 0.64114 0.7879 0.0
C404 C 0.90903 0.6109 0.72689 0.0
C405 C 0.94821 0.6541 0.79701 0.0
C406 C 0.83955 0.54607 0.69017 0.0
C407 C 0.8526 0.5657 0.69748 0.0
C408 C 0.86718 0.60542 0.75564 0.0
C409 C 0.92294 0.64107 0.76007 0.0
C410 C 0.90465 0.62491 0.74993 0.0
C411 C 0.85559 0.57176 0.72516 0.0
C412 C 0.87186 0.59091 0.73303 0.0
H413 H 0.96459 0.67837 0.73622 0.0
H414 H 0.93118 0.65552 0.72023 0.0
H415 H 0.87957 0.63289 0.78179 0.0
H416 H 0.82273 0.5285 0.75384 0.0
H417 H 0.84621 0.56235 0.76679 0.0
C418 C 0.82015 0.95165 0.27456 0.0
C419 C 0.82 0.97309 0.26056 0.0
C420 C 0.83509 0.93364 0.26624 0.0
C421 C 0.89063 0.92595 0.22976 0.0
H422 H 0.87509 0.85996 0.23085 0.0
C423 C 0.9541 0.85765 0.18807 0.0
C424 C 0.95787 0.83764 0.20408 0.0
C425 C 0.93568 0.87274 0.19394 0.0
C426 C 0.87969 0.87832 0.23067 0.0
H427 H 0.83425 0.99206 0.22599 0.0
H428 H 0.85993 0.96059 0.21119 0.0
H429 H 0.84519 0.88895 0.24236 0.0
H430 H 0.9449 0.81729 0.23826 0.0
H431 H 0.91264 0.84394 0.24875 0.0
H432 H 0.92505 0.91551 0.21832 0.0
C433 C 0.84897 0.95782 0.22897 0.0
C434 C 0.8626 0.8949 0.23723 0.0
C435 C 0.83416 0.9758 0.23733 0.0
C436 C 0.9424 0.83262 0.22561 0.0
C437 C 0.92389 0.8478 0.23152 0.0
C438 C 0.90762 0.90946 0.2232 0.0
C439 C 0.85008 0.93678 0.24375 0.0
C440 C 0.86788 0.91891 0.23667 0.0
C441 C 0.92062 0.86824 0.21601 0.0
C442 C 0.90234 0.88548 0.2234 0.0
H443 H 0.8094 0.94909 0.29255 0.0
H444 H 0.83561 0.91769 0.27813 0.0
H445 H 0.89546 0.94425 0.22983 0.0
H446 H 0.9656 0.86188 0.17118 0.0
H447 H 0.93335 0.8881 0.18129 0.0
C448 C 0.57812 0.25878 0.23111 0.0
C449 C 0.55364 0.25846 0.23241 0.0
C450 C 0.59068 0.27773 0.24141 0.0
C451 C 0.58497 0.34026 0.25741 0.0
H452 H 0.64425 0.33049 0.29395 0.0
C453 C 0.64207 0.41689 0.29679 0.0
C454 C 0.66594 0.41531 0.29044 0.0
C455 C 0.62731 0.3977 0.29277 0.0
C456 C 0.62778 0.33351 0.28367 0.0
H457 H 0.52307 0.27759 0.24591 0.0
H458 H 0.54509 0.3108 0.26416 0.0
H459 H 0.62014 0.29694 0.2818 0.0
H460 H 0.69314 0.39237 0.27522 0.0
H461 H 0.66745 0.35898 0.26812 0.0
H462 H 0.59283 0.37684 0.25894 0.0
C463 C 0.55454 0.29643 0.25491 0.0
C464 C 0.61397 0.31429 0.2767 0.0
C465 C 0.54194 0.27738 0.2446 0.0
C466 C 0.67483 0.39411 0.28036 0.0
C467 C 0.66013 0.37493 0.27646 0.0
C468 C 0.59879 0.35951 0.26444 0.0
C469 C 0.57906 0.29685 0.2533 0.0
C470 C 0.59261 0.3174 0.26303 0.0
C471 C 0.63618 0.37653 0.28248 0.0
C472 C 0.62055 0.35631 0.2772 0.0
H473 H 0.58764 0.24448 0.22176 0.0
H474 H 0.60951 0.27765 0.23943 0.0
H475 H 0.56873 0.34325 0.24664 0.0
H476 H 0.63475 0.43302 0.30463 0.0
H477 H 0.60897 0.3994 0.29781 0.0
C478 C 0.21914 0.53279 0.75024 0.0
C479 C 0.22628 0.53825 0.72349 0.0
C480 C 0.1973 0.54017 0.75984 0.0
C481 C 0.13976 0.5625 0.73717 0.0
H482 H 0.1411 0.59856 0.80437 0.0
C483 C 0.0742 0.63559 0.75962 0.0
C484 C 0.06727 0.63999 0.7867 0.0
C485 C 0.09085 0.61847 0.75389 0.0
C486 C 0.1402 0.58813 0.78589 0.0
H487 H 0.21588 0.5547 0.68544 0.0
H488 H 0.17792 0.56737 0.70203 0.0
H489 H 0.17535 0.57611 0.79078 0.0
H490 H 0.07162 0.62931 0.82894 0.0
H491 H 0.10062 0.59914 0.81889 0.0
H492 H 0.10487 0.57501 0.73184 0.0
C493 C 0.18904 0.5574 0.71563 0.0
C494 C 0.15986 0.57527 0.77811 0.0
C495 C 0.21087 0.55029 0.70618 0.0
C496 C 0.07673 0.62636 0.80787 0.0
C497 C 0.0934 0.60918 0.80213 0.0
C498 C 0.12007 0.57525 0.745 0.0
C499 C 0.18216 0.5528 0.74269 0.0
C500 C 0.16009 0.56293 0.75324 0.0
C501 C 0.10092 0.60528 0.7751 0.0
C502 C 0.12033 0.58883 0.76901 0.0
H503 H 0.23071 0.52353 0.76399 0.0
H504 H 0.19238 0.53631 0.78076 0.0
H505 H 0.13933 0.55284 0.7181 0.0
H506 H 0.06725 0.64583 0.74287 0.0
H507 H 0.09647 0.61623 0.73289 0.0
C508 C 0.82042 0.1107 0.27771 0.0
C509 C 0.82949 0.08942 0.28725 0.0
C510 C 0.83497 0.13005 0.27422 0.0
C511 C 0.89623 0.14596 0.26238 0.0
H512 H 0.87448 0.20825 0.28062 0.0
C513 C 0.95258 0.22842 0.24326 0.0
C514 C 0.94079 0.24725 0.23107 0.0
C515 C 0.94009 0.20935 0.25362 0.0
C516 C 0.88076 0.19097 0.2753 0.0
H517 H 0.86083 0.07174 0.30097 0.0
H518 H 0.88633 0.10565 0.2949 0.0
H519 H 0.85057 0.17443 0.29232 0.0
H520 H 0.90671 0.26109 0.22059 0.0
H521 H 0.885 0.22788 0.23837 0.0
H522 H 0.92619 0.16255 0.2448 0.0
C523 C 0.86797 0.10729 0.28994 0.0
C524 C 0.86706 0.17161 0.28199 0.0
C525 C 0.85337 0.08792 0.29353 0.0
C526 C 0.9163 0.24686 0.22992 0.0
C527 C 0.90384 0.22788 0.24029 0.0
C528 C 0.90993 0.16535 0.25564 0.0
C529 C 0.85894 0.12854 0.28013 0.0
C530 C 0.87444 0.14891 0.27518 0.0
C531 C 0.91557 0.2088 0.25206 0.0
C532 C 0.90215 0.18811 0.26158 0.0
H533 H 0.80209 0.11237 0.27264 0.0
H534 H 0.82752 0.14605 0.26625 0.0
H535 H 0.9023 0.12872 0.2566 0.0
H536 H 0.97146 0.22827 0.24445 0.0
H537 H 0.94961 0.19501 0.2628 0.0
C538 C 0.27496 0.9541 0.75746 0.0
C539 C 0.2734 0.95942 0.72948 0.0
C540 C 0.29575 0.94544 0.76845 0.0
C541 C 0.35893 0.93605 0.75357 0.0
H542 H 0.35078 0.88202 0.80046 0.0
C543 C 0.42975 0.86562 0.76921 0.0
C544 C 0.43196 0.8554 0.7952 0.0
C545 C 0.412 0.88175 0.76399 0.0
C546 C 0.35343 0.89732 0.78779 0.0
H547 H 0.29265 0.96094 0.69131 0.0
H548 H 0.32873 0.94547 0.71028 0.0
H549 H 0.31689 0.90462 0.78661 0.0
H550 H 0.4179 0.85466 0.8364 0.0
H551 H 0.38691 0.8829 0.8273 0.0
H552 H 0.39549 0.92813 0.75408 0.0
C553 C 0.31407 0.94825 0.72391 0.0
C554 C 0.33397 0.91034 0.77987 0.0
C555 C 0.29333 0.957 0.71297 0.0
C556 C 0.41655 0.86217 0.81612 0.0
C557 C 0.39875 0.87825 0.81088 0.0
C558 C 0.37841 0.92295 0.76143 0.0
C559 C 0.31538 0.94182 0.75164 0.0
C560 C 0.33642 0.92965 0.76231 0.0
C561 C 0.39605 0.88794 0.78464 0.0
C562 C 0.37582 0.90322 0.77829 0.0
H563 H 0.25991 0.95594 0.77072 0.0
H564 H 0.29629 0.94107 0.79 0.0
H565 H 0.36148 0.95103 0.74037 0.0
H566 H 0.44139 0.86074 0.75269 0.0
H567 H 0.41024 0.88869 0.74348 0.0
C568 C 0.53951 0.21886 0.76408 0.0
C569 C 0.54922 0.23175 0.78576 0.0
C570 C 0.54993 0.19799 0.75543 0.0
C571 C 0.58951 0.15115 0.77793 0.0
H572 H 0.60332 0.14348 0.70076 0.0
C573 C 0.65754 0.08502 0.73947 0.0
C574 C 0.65396 0.07387 0.71422 0.0
C575 C 0.64234 0.10251 0.74838 0.0
C576 C 0.59923 0.14507 0.72232 0.0
H577 H 0.57711 0.23274 0.81573 0.0
H578 H 0.59512 0.19629 0.80083 0.0
H579 H 0.58072 0.17717 0.71606 0.0
H580 H 0.63131 0.07179 0.6788 0.0
H581 H 0.60438 0.10202 0.69462 0.0
H582 H 0.60799 0.11916 0.78433 0.0
C583 C 0.57947 0.20225 0.79053 0.0
C584 C 0.58632 0.16443 0.73106 0.0
C585 C 0.56924 0.22319 0.79894 0.0
C586 C 0.63456 0.08018 0.69831 0.0
C587 C 0.61922 0.09759 0.70731 0.0
C588 C 0.60223 0.1317 0.76918 0.0
C589 C 0.57003 0.18952 0.76857 0.0
C590 C 0.58173 0.16788 0.75901 0.0
C591 C 0.62306 0.10914 0.73234 0.0
C592 C 0.60766 0.12866 0.74133 0.0
H593 H 0.52407 0.22506 0.75355 0.0
H594 H 0.54224 0.18845 0.73853 0.0
H595 H 0.58591 0.15321 0.79956 0.0
H596 H 0.67242 0.0806 0.75214 0.0
H597 H 0.64611 0.11127 0.76753 0.0
C598 C 0.40959 0.65921 0.23623 0.0
C599 C 0.41859 0.65773 0.20956 0.0
C600 C 0.38923 0.64723 0.24328 0.0
C601 C 0.35227 0.59751 0.22571 0.0
H602 H 0.30395 0.63285 0.26284 0.0
C603 C 0.26213 0.55738 0.25371 0.0
C604 C 0.25255 0.56419 0.27895 0.0
C605 C 0.28217 0.56846 0.24358 0.0
C606 C 0.31735 0.62261 0.25281 0.0
H607 H 0.41376 0.64211 0.16952 0.0
H608 H 0.37825 0.62074 0.18207 0.0
H609 H 0.33977 0.65234 0.24882 0.0
H610 H 0.25668 0.58744 0.31369 0.0
H611 H 0.29176 0.60615 0.29659 0.0
H612 H 0.33017 0.56757 0.23041 0.0
C613 C 0.38693 0.63131 0.1974 0.0
C614 C 0.33783 0.63383 0.24469 0.0
C615 C 0.40716 0.64359 0.19022 0.0
C616 C 0.2635 0.58198 0.29402 0.0
C617 C 0.28356 0.59284 0.28409 0.0
C618 C 0.33185 0.58616 0.23415 0.0
C619 C 0.37763 0.63329 0.2239 0.0
C620 C 0.35558 0.62136 0.23133 0.0
C621 C 0.29306 0.58642 0.25863 0.0
C622 C 0.31425 0.59853 0.24811 0.0
H623 H 0.41803 0.66998 0.25156 0.0
H624 H 0.38254 0.64885 0.26393 0.0
H625 H 0.36577 0.5875 0.21551 0.0
H626 H 0.254 0.54372 0.24167 0.0
H627 H 0.28888 0.5632 0.2238 0.0
C628 C 0.84058 0.40701 0.74096 0.0
C629 C 0.84496 0.41833 0.716 0.0
C630 C 0.85443 0.38828 0.7493 0.0
C631 C 0.91127 0.3598 0.74015 0.0
H632 H 0.87826 0.30468 0.76535 0.0
C633 C 0.9579 0.27194 0.7639 0.0
C634 C 0.94936 0.25898 0.78616 0.0
C635 C 0.94609 0.29196 0.75498 0.0
C636 C 0.88781 0.32001 0.75876 0.0
H637 H 0.86772 0.41944 0.68056 0.0
H638 H 0.89217 0.38667 0.69533 0.0
H639 H 0.85629 0.33886 0.75091 0.0
H640 H 0.92231 0.25718 0.81712 0.0
H641 H 0.90215 0.29227 0.80216 0.0
H642 H 0.94284 0.34104 0.74842 0.0
C643 C 0.87796 0.39234 0.70838 0.0
C644 C 0.87519 0.33958 0.7504 0.0
C645 C 0.86393 0.411 0.6999 0.0
C646 C 0.92918 0.26668 0.79973 0.0
C647 C 0.91753 0.28674 0.79101 0.0
C648 C 0.92396 0.34024 0.74876 0.0
C649 C 0.87308 0.38056 0.73295 0.0
C650 C 0.88676 0.35973 0.7412 0.0
C651 C 0.92561 0.29946 0.76828 0.0
C652 C 0.91236 0.32016 0.75837 0.0
H653 H 0.82612 0.41231 0.75386 0.0
H654 H 0.85047 0.37972 0.76851 0.0
H655 H 0.92062 0.37517 0.73326 0.0
H656 H 0.97341 0.26636 0.75303 0.0
H657 H 0.9527 0.30122 0.73727 0.0
C658 C 0.09636 0.83526 0.19528 0.0
C659 C 0.07469 0.83973 0.20767 0.0
C660 C 0.11553 0.8496 0.20069 0.0
C661 C 0.1321 0.90802 0.22644 0.0
H662 H 0.19195 0.87831 0.23903 0.0
C663 C 0.21285 0.95602 0.27126 0.0
C664 C 0.23493 0.94919 0.26163 0.0
C665 C 0.19274 0.94437 0.26237 0.0
C666 C 0.17546 0.88695 0.23514 0.0
H667 H 0.05602 0.86277 0.2353 0.0
H668 H 0.08966 0.88773 0.245 0.0
H669 H 0.15803 0.85438 0.22867 0.0
H670 H 0.25321 0.92595 0.23387 0.0
H671 H 0.21818 0.90602 0.21794 0.0
H672 H 0.14965 0.94063 0.23316 0.0
C673 C 0.09173 0.87328 0.23087 0.0
C674 C 0.15599 0.8732 0.22925 0.0
C675 C 0.07253 0.8589 0.22547 0.0
C676 C 0.23643 0.93145 0.24183 0.0
C677 C 0.21638 0.91992 0.23287 0.0
C678 C 0.15165 0.92182 0.23232 0.0
C679 C 0.11347 0.86873 0.21861 0.0
C680 C 0.13409 0.88355 0.22481 0.0
C681 C 0.19438 0.92575 0.24364 0.0
C682 C 0.17357 0.91142 0.23669 0.0
H683 H 0.09852 0.82068 0.18133 0.0
H684 H 0.13195 0.8458 0.19063 0.0
H685 H 0.1155 0.91652 0.22283 0.0
H686 H 0.21119 0.9696 0.28659 0.0
H687 H 0.17607 0.94923 0.27116 0.0
C688 C 0.33042 0.59781 0.73763 0.0
C689 C 0.33834 0.58109 0.71873 0.0
C690 C 0.34406 0.6173 0.74393 0.0
C691 C 0.40407 0.64009 0.74285 0.0
H692 H 0.37306 0.70026 0.74659 0.0
C693 C 0.45442 0.72688 0.76061 0.0
C694 C 0.44391 0.74301 0.77845 0.0
C695 C 0.44214 0.70707 0.75183 0.0
C696 C 0.38197 0.68358 0.74591 0.0
H697 H 0.36694 0.57142 0.69195 0.0
H698 H 0.39089 0.60559 0.70304 0.0
H699 H 0.35071 0.66553 0.73464 0.0
H700 H 0.41242 0.75101 0.80126 0.0
H701 H 0.39124 0.71645 0.78642 0.0
H702 H 0.43529 0.65813 0.75458 0.0
C703 C 0.37413 0.60353 0.71303 0.0
C704 C 0.36915 0.66368 0.73903 0.0
C705 C 0.3604 0.58403 0.70661 0.0
C706 C 0.42095 0.73898 0.78735 0.0
C707 C 0.40874 0.71921 0.77869 0.0
C708 C 0.41691 0.66003 0.74989 0.0
C709 C 0.36597 0.62049 0.73153 0.0
C710 C 0.37998 0.64168 0.73772 0.0
C711 C 0.41914 0.70302 0.76078 0.0
C712 C 0.40594 0.68197 0.75181 0.0
H713 H 0.31354 0.59598 0.7474 0.0
H714 H 0.33746 0.62988 0.7586 0.0
H715 H 0.41286 0.62334 0.74219 0.0
H716 H 0.4721 0.72956 0.7534 0.0
H717 H 0.45058 0.69507 0.73782 0.0
C718 C 0.93015 0.3724 0.22184 0.0
C719 C 0.93124 0.3588 0.19792 0.0
C720 C 0.91267 0.3892 0.2251 0.0
C721 C 0.85307 0.40107 0.20226 0.0
H722 H 0.86167 0.45974 0.24077 0.0
C723 C 0.7741 0.45764 0.22992 0.0
C724 C 0.77357 0.46539 0.25718 0.0
C725 C 0.79482 0.4492 0.21849 0.0
C726 C 0.85899 0.4434 0.23002 0.0
H727 H 0.91563 0.3529 0.1581 0.0
H728 H 0.88517 0.38234 0.16371 0.0
H729 H 0.89568 0.43618 0.22844 0.0
H730 H 0.79454 0.47175 0.29335 0.0
H731 H 0.83054 0.45662 0.27367 0.0
H732 H 0.81647 0.40766 0.20469 0.0
C733 C 0.89763 0.3798 0.1801 0.0
C734 C 0.87846 0.42992 0.22296 0.0
C735 C 0.91512 0.36301 0.17684 0.0
C736 C 0.79442 0.46588 0.27227 0.0
C737 C 0.81511 0.4573 0.26091 0.0
C738 C 0.83365 0.41447 0.20938 0.0
C739 C 0.89591 0.39273 0.2045 0.0
C740 C 0.87567 0.4084 0.20942 0.0
C741 C 0.81539 0.44819 0.23416 0.0
C742 C 0.83631 0.43559 0.22378 0.0
H743 H 0.94236 0.36956 0.23843 0.0
H744 H 0.91169 0.39869 0.24425 0.0
H745 H 0.85026 0.38441 0.19224 0.0
H746 H 0.75832 0.45725 0.21772 0.0
H747 H 0.79454 0.44277 0.19764 0.0
C748 C 0.07988 0.75613 0.76487 0.0
C749 C 0.05551 0.75577 0.7679 0.0
C750 C 0.09112 0.7759 0.75466 0.0
C751 C 0.08475 0.83928 0.74766 0.0
H752 H 0.13742 0.83231 0.69844 0.0
C753 C 0.13873 0.91816 0.7076 0.0
C754 C 0.16308 0.91515 0.70797 0.0
C755 C 0.12387 0.8992 0.71253 0.0
C756 C 0.12283 0.83454 0.7123 0.0
H757 H 0.02371 0.77574 0.76237 0.0
H758 H 0.04348 0.81053 0.74442 0.0
H759 H 0.11427 0.79817 0.71078 0.0
H760 H 0.19096 0.89004 0.71389 0.0
H761 H 0.16514 0.85711 0.7227 0.0
H762 H 0.09367 0.87563 0.7496 0.0
C763 C 0.05384 0.79546 0.7501 0.0
C764 C 0.10955 0.815 0.71933 0.0
C765 C 0.04253 0.77554 0.76022 0.0
C766 C 0.17227 0.89289 0.71336 0.0
C767 C 0.15746 0.87398 0.71822 0.0
C768 C 0.09807 0.85889 0.74062 0.0
C769 C 0.07828 0.79583 0.74728 0.0
C770 C 0.09067 0.81705 0.73754 0.0
C771 C 0.13309 0.87687 0.71781 0.0
C772 C 0.11757 0.85662 0.72332 0.0
H773 H 0.09037 0.74118 0.77067 0.0
H774 H 0.10999 0.77575 0.75316 0.0
H775 H 0.07041 0.84139 0.76192 0.0
H776 H 0.13117 0.93514 0.70346 0.0
H777 H 0.10517 0.90195 0.71191 0.0
C778 C 0.56502 0.13335 0.22489 0.0
C779 C 0.56348 0.14669 0.20085 0.0
C780 C 0.58245 0.11644 0.22777 0.0
C781 C 0.64135 0.10376 0.20305 0.0
H782 H 0.633 0.04523 0.24182 0.0
C783 C 0.72032 0.04638 0.22758 0.0
C784 C 0.72151 0.03863 0.25479 0.0
C785 C 0.69937 0.05496 0.21695 0.0
C786 C 0.63562 0.06153 0.23099 0.0
H787 H 0.57823 0.15208 0.16046 0.0
H788 H 0.60858 0.12248 0.16544 0.0
H789 H 0.59899 0.06923 0.23078 0.0
H790 H 0.70145 0.03238 0.2917 0.0
H791 H 0.66507 0.0478 0.27342 0.0
H792 H 0.6779 0.09672 0.20411 0.0
C793 C 0.59653 0.12529 0.1822 0.0
C794 C 0.61615 0.07526 0.22468 0.0
C795 C 0.5791 0.14218 0.17932 0.0
C796 C 0.70105 0.03825 0.27063 0.0
C797 C 0.68014 0.04699 0.26008 0.0
C798 C 0.66077 0.09012 0.20943 0.0
C799 C 0.59869 0.11257 0.20667 0.0
C800 C 0.61886 0.09671 0.21102 0.0
C801 C 0.67924 0.05615 0.2334 0.0
C802 C 0.65821 0.06903 0.22388 0.0
H803 H 0.55319 0.13644 0.24181 0.0
H804 H 0.58379 0.10711 0.24698 0.0
H805 H 0.6441 0.12037 0.19292 0.0
H806 H 0.73578 0.04668 0.21481 0.0
H807 H 0.69916 0.0614 0.19612 0.0
C808 C 0.44016 0.77755 0.19685 0.0
C809 C 0.45062 0.76233 0.21569 0.0
C810 C 0.42961 0.79818 0.20568 0.0
C811 C 0.42406 0.83885 0.26482 0.0
H812 H 0.36642 0.85539 0.22801 0.0
C813 C 0.35718 0.90827 0.30352 0.0
C814 C 0.34792 0.92324 0.28349 0.0
C815 C 0.37195 0.88985 0.29604 0.0
C816 C 0.38262 0.85113 0.23831 0.0
H817 H 0.45879 0.75693 0.2585 0.0
H818 H 0.43965 0.79274 0.27419 0.0
H819 H 0.38766 0.82073 0.21375 0.0
H820 H 0.34757 0.93129 0.24013 0.0
H821 H 0.37314 0.8991 0.22711 0.0
H822 H 0.41834 0.86914 0.28994 0.0
C823 C 0.43999 0.78898 0.25247 0.0
C824 C 0.39487 0.83129 0.23008 0.0
C825 C 0.45086 0.76841 0.24354 0.0
C826 C 0.35435 0.91999 0.25602 0.0
C827 C 0.3689 0.90151 0.24854 0.0
C828 C 0.41159 0.85864 0.27327 0.0
C829 C 0.42891 0.80393 0.23366 0.0
C830 C 0.41588 0.82498 0.24301 0.0
C831 C 0.37748 0.88599 0.26839 0.0
C832 C 0.39086 0.86505 0.2599 0.0
H833 H 0.43997 0.77345 0.1752 0.0
H834 H 0.42184 0.80955 0.1905 0.0
H835 H 0.44026 0.83464 0.27509 0.0
H836 H 0.35253 0.9104 0.32487 0.0
H837 H 0.37825 0.87808 0.31173 0.0
C838 C 0.72269 0.44974 0.73785 0.0
C839 C 0.73293 0.4435 0.71278 0.0
C840 C 0.70202 0.43893 0.7465 0.0
C841 C 0.66745 0.38514 0.73359 0.0
H842 H 0.61953 0.41701 0.77546 0.0
C843 C 0.57885 0.34255 0.75611 0.0
C844 C 0.5719 0.34264 0.78366 0.0
C845 C 0.59746 0.35645 0.74744 0.0
C846 C 0.63286 0.40793 0.76387 0.0
H847 H 0.72904 0.42216 0.6764 0.0
H848 H 0.69272 0.40408 0.69082 0.0
H849 H 0.65393 0.4387 0.75998 0.0
H850 H 0.57834 0.35793 0.82357 0.0
H851 H 0.61082 0.38251 0.80826 0.0
H852 H 0.64624 0.35453 0.73709 0.0
C853 C 0.70095 0.41656 0.70441 0.0
C854 C 0.65259 0.42028 0.75509 0.0
C855 C 0.7217 0.42706 0.69602 0.0
C856 C 0.5834 0.35748 0.80221 0.0
C857 C 0.60187 0.37161 0.79346 0.0
C858 C 0.64767 0.37294 0.74205 0.0
C859 C 0.69111 0.42191 0.73004 0.0
C860 C 0.67009 0.40904 0.73973 0.0
C861 C 0.60932 0.3709 0.76608 0.0
C862 C 0.63016 0.38419 0.75719 0.0
H863 H 0.73106 0.46236 0.75116 0.0
H864 H 0.69505 0.44337 0.76643 0.0
H865 H 0.68082 0.3757 0.72249 0.0
H866 H 0.57027 0.33133 0.74134 0.0
H867 H 0.60273 0.35576 0.72616 0.0
C868 C 0.12746 0.59145 0.31508 0.0
C869 C 0.13777 0.57858 0.29376 0.0
C870 C 0.11087 0.60864 0.30938 0.0
C871 C 0.06909 0.6295 0.25815 0.0
H872 H 0.08325 0.69106 0.28698 0.0
C873 C 0.03085 0.7135 0.21191 0.0
C874 C 0.02834 0.73348 0.22835 0.0
C875 C 0.04024 0.69299 0.22271 0.0
C876 C 0.07859 0.67394 0.27925 0.0
H877 H 0.13821 0.57291 0.24991 0.0
H878 H 0.10887 0.60282 0.23995 0.0
H879 H 0.10699 0.65782 0.30051 0.0
H880 H 0.03211 0.74724 0.26942 0.0
H881 H 0.04764 0.7111 0.28867 0.0
H882 H 0.04063 0.64549 0.23695 0.0
C883 C 0.11372 0.59961 0.26104 0.0
C884 C 0.09233 0.65491 0.28692 0.0
C885 C 0.13057 0.58263 0.26671 0.0
C886 C 0.03404 0.73214 0.25623 0.0
C887 C 0.04314 0.71147 0.26716 0.0
C888 C 0.05508 0.64849 0.25079 0.0
C889 C 0.10403 0.61305 0.28229 0.0
C890 C 0.08801 0.63262 0.27603 0.0
C891 C 0.04706 0.69185 0.25033 0.0
C892 C 0.05997 0.67108 0.26076 0.0
H893 H 0.13265 0.58869 0.33614 0.0
H894 H 0.10355 0.61868 0.32612 0.0
H895 H 0.06525 0.6124 0.24973 0.0
H896 H 0.02667 0.71404 0.1903 0.0
H897 H 0.04324 0.67845 0.20895 0.0
C898 C 0.92299 0.15032 0.75646 0.0
C899 C 0.93058 0.14928 0.78374 0.0
C900 C 0.90411 0.13683 0.74774 0.0
C901 C 0.86871 0.08509 0.7624 0.0
H902 H 0.8199 0.11949 0.72511 0.0
C903 C 0.77841 0.04447 0.73588 0.0
C904 C 0.76777 0.0519 0.71152 0.0
C905 C 0.79911 0.05501 0.7449 0.0
C906 C 0.83348 0.10946 0.73505 0.0
H907 H 0.92505 0.1326 0.82305 0.0
H908 H 0.8921 0.10867 0.8076 0.0
H909 H 0.85498 0.13976 0.73985 0.0
H910 H 0.7709 0.07523 0.6768 0.0
H911 H 0.80723 0.09289 0.69181 0.0
H912 H 0.84739 0.05464 0.75711 0.0
C913 C 0.90075 0.12004 0.79307 0.0
C914 C 0.85355 0.12115 0.7436 0.0
C915 C 0.9195 0.13379 0.80191 0.0
C916 C 0.77855 0.06939 0.69587 0.0
C917 C 0.79932 0.07963 0.70461 0.0
C918 C 0.84869 0.07326 0.7535 0.0
C919 C 0.8926 0.12181 0.76605 0.0
C920 C 0.87139 0.10909 0.75723 0.0
C921 C 0.80964 0.07297 0.72952 0.0
C922 C 0.83088 0.08531 0.73955 0.0
H923 H 0.93122 0.16206 0.74199 0.0
H924 H 0.8983 0.13832 0.72672 0.0
H925 H 0.88229 0.0754 0.77283 0.0
H926 H 0.7704 0.03102 0.74834 0.0
H927 H 0.80644 0.04955 0.76428 0.0
C928 C 0.50635 0.25099 0.11077 0.0
C929 C 0.50484 0.22704 0.11683 0.0
C930 C 0.50446 0.25874 0.08377 0.0
C931 C 0.48337 0.24254 0.01534 0.0
H932 H 0.53307 0.28292 0.9895 0.0
C933 C 0.50035 0.25864 0.90047 0.0
C934 C 0.50874 0.28065 0.89246 0.0
C935 C 0.49778 0.25326 0.9282 0.0
C936 C 0.51878 0.27202 0.99642 0.0
H937 H 0.49937 0.1925 0.09966 0.0
H938 H 0.49584 0.2061 0.05248 0.0
H939 H 0.53166 0.27182 0.03751 0.0
H940 H 0.52016 0.3146 0.90692 0.0
H941 H 0.51497 0.30554 0.95521 0.0
H942 H 0.47038 0.2428 0.97431 0.0
C943 C 0.4985 0.21884 0.06859 0.0
C944 C 0.51804 0.26562 0.02394 0.0
C945 C 0.50065 0.21107 0.09555 0.0
C946 C 0.51388 0.2974 0.91256 0.0
C947 C 0.51103 0.29214 0.94024 0.0
C948 C 0.48395 0.24915 0.98783 0.0
C949 C 0.50075 0.2427 0.06241 0.0
C950 C 0.50048 0.25064 0.0336 0.0
C951 C 0.50328 0.26989 0.94844 0.0
C952 C 0.50182 0.26378 0.97796 0.0
H953 H 0.50955 0.26369 0.1268 0.0
H954 H 0.50608 0.27725 0.07953 0.0
H955 H 0.46952 0.23112 0.02237 0.0
H956 H 0.49634 0.24537 0.88536 0.0
H957 H 0.49209 0.23584 0.93373 0.0
C958 C 0.21735 0.54551 0.40857 0.0
C959 C 0.21709 0.52572 0.39162 0.0
C960 C 0.22539 0.54396 0.4354 0.0
C961 C 0.25963 0.50642 0.4826 0.0
H962 H 0.22966 0.54534 0.53735 0.0
C963 C 0.2746 0.50064 0.60048 0.0
C964 C 0.28001 0.52209 0.61301 0.0
C965 C 0.26782 0.49991 0.57303 0.0
C966 C 0.23822 0.53446 0.52221 0.0
H967 H 0.225 0.48876 0.38925 0.0
H968 H 0.23829 0.48574 0.43667 0.0
H969 H 0.21518 0.5456 0.49056 0.0
H970 H 0.28287 0.5595 0.60675 0.0
H971 H 0.27042 0.55823 0.55892 0.0
H972 H 0.28219 0.49484 0.51494 0.0
C973 C 0.23282 0.50263 0.42904 0.0
C974 C 0.23005 0.53467 0.49536 0.0
C975 C 0.2251 0.50429 0.40194 0.0
C976 C 0.27883 0.54274 0.59757 0.0
C977 C 0.27164 0.54204 0.57031 0.0
C978 C 0.26754 0.50592 0.50967 0.0
C979 C 0.23297 0.52247 0.44614 0.0
C980 C 0.2409 0.52098 0.47507 0.0
C981 C 0.26592 0.52065 0.5579 0.0
C982 C 0.25711 0.52023 0.52954 0.0
H983 H 0.21153 0.56233 0.40102 0.0
H984 H 0.22582 0.55975 0.44762 0.0
H985 H 0.26857 0.49583 0.46751 0.0
H986 H 0.27544 0.48447 0.61196 0.0
H987 H 0.26339 0.48324 0.56385 0.0
C988 C 0.98725 0.25229 0.10924 0.0
C989 C 0.98875 0.27637 0.11453 0.0
C990 C 0.98956 0.24381 0.08256 0.0
C991 C 0.01247 0.258 0.01442 0.0
H992 H 0.9642 0.21595 0.98847 0.0
C993 C -3e-05 0.23664 0.89985 0.0
C994 C 0.99205 0.21423 0.89272 0.0
C995 C 0.00152 0.24325 0.92732 0.0
C996 C 0.9781 0.22732 0.99545 0.0
H997 H 0.99446 0.31044 0.09629 0.0
H998 H 0.99871 0.29557 0.04965 0.0
H999 H 0.96375 0.22904 0.03585 0.0
H1000 H 0.98044 0.18082 0.90859 0.0
H1001 H 0.98385 0.19204 0.95651 0.0
H1002 H 0.02697 0.25617 0.97412 0.0
C1003 C 0.99575 0.28328 0.06614 0.0
C1004 C 0.97776 0.23487 0.0226 0.0
C1005 C 0.99319 0.29178 0.09278 0.0
C1006 C 0.9864 0.1983 0.91352 0.0
C1007 C 0.98821 0.2048 0.94098 0.0
C1008 C 0.01297 0.25024 0.98729 0.0
C1009 C 0.99367 0.25925 0.06074 0.0
C1010 C 0.99482 0.25043 0.03229 0.0
C1011 C 0.99541 0.22749 0.94823 0.0
C1012 C 0.99566 0.23495 0.9774 0.0
H1013 H 0.98387 0.24001 0.12563 0.0
H1014 H 0.98806 0.22518 0.07896 0.0
H1015 H 0.02596 0.26983 0.02148 0.0
H1016 H 0.00435 0.2493 0.88419 0.0
H1017 H 0.00682 0.26096 0.93208 0.0
C1018 C 0.27008 0.98885 0.39802 0.0
C1019 C 0.27216 0.96813 0.38282 0.0
C1020 C 0.26255 0.98822 0.42516 0.0
C1021 C 0.25673 0.94848 0.48434 0.0
H1022 H 0.21722 0.9981 0.51236 0.0
C1023 C 0.21841 0.94794 0.59386 0.0
C1024 C 0.22097 0.96889 0.60857 0.0
C1025 C 0.22332 0.94718 0.56587 0.0
C1026 C 0.22835 0.98419 0.50482 0.0
H1027 H 0.26776 0.93051 0.38387 0.0
H1028 H 0.25411 0.9294 0.43121 0.0
H1029 H 0.22795 0.99772 0.46408 0.0
H1030 H 0.23033 0.00553 0.60556 0.0
H1031 H 0.23875 0.00423 0.55661 0.0
H1032 H 0.25697 0.93494 0.52519 0.0
C1033 C 0.25872 0.94612 0.42233 0.0
C1034 C 0.23456 0.984 0.4772 0.0
C1035 C 0.26642 0.94674 0.39519 0.0
C1036 C 0.22821 0.98914 0.59473 0.0
C1037 C 0.2329 0.98843 0.56671 0.0
C1038 C 0.25036 0.94859 0.51194 0.0
C1039 C 0.25675 0.96686 0.43766 0.0
C1040 C 0.24907 0.96631 0.46669 0.0
C1041 C 0.23063 0.96742 0.55204 0.0
C1042 C 0.23634 0.9666 0.5225 0.0
H1043 H 0.27451 0.00559 0.38905 0.0
H1044 H 0.26167 0.00448 0.43648 0.0
H1045 H 0.26819 0.93478 0.47704 0.0
H1046 H 0.21284 0.93207 0.60402 0.0
H1047 H 0.22125 0.9308 0.55499 0.0
C1048 C 0.49962 0.79556 0.9082 0.0
C1049 C 0.49514 0.77927 0.88739 0.0
C1050 C 0.50285 0.78815 0.93516 0.0
C1051 C 0.51266 0.73485 0.97789 0.0
H1052 H 0.48518 0.77345 0.03468 0.0
C1053 C 0.48733 0.70232 0.08604 0.0
C1054 C 0.49379 0.7166 0.10817 0.0
C1055 C 0.491 0.70982 0.05918 0.0
C1056 C 0.49318 0.76264 0.01906 0.0
H1057 H 0.4908 0.74247 0.87819 0.0
H1058 H 0.49542 0.72953 0.9253 0.0
H1059 H 0.48478 0.78696 0.98751 0.0
H1060 H 0.50955 0.74964 0.11971 0.0
H1061 H 0.51545 0.76297 0.07265 0.0
H1062 H 0.51989 0.71003 0.00965 0.0
C1063 C 0.49718 0.74799 0.92089 0.0
C1064 C 0.49307 0.7704 0.992 0.0
C1065 C 0.49435 0.75539 0.89387 0.0
C1066 C 0.50443 0.73828 0.10301 0.0
C1067 C 0.50774 0.74594 0.07615 0.0
C1068 C 0.5124 0.72694 0.00494 0.0
C1069 C 0.50124 0.76429 0.94196 0.0
C1070 C 0.50266 0.75655 0.97099 0.0
C1071 C 0.50084 0.73187 0.05403 0.0
C1072 C 0.50253 0.74072 0.0257 0.0
H1073 H 0.50054 0.81408 0.90368 0.0
H1074 H 0.50647 0.80118 0.95067 0.0
H1075 H 0.52061 0.7239 0.96241 0.0
H1076 H 0.47915 0.68551 0.08947 0.0
H1077 H 0.48538 0.69874 0.04244 0.0
C1078 C 0.78732 0.45747 0.58745 0.0
C1079 C 0.77926 0.4742 0.60626 0.0
C1080 C 0.77959 0.45779 0.56038 0.0
C1081 C 0.75358 0.49558 0.50783 0.0
H1082 H 0.73636 0.43664 0.47411 0.0
C1083 C 0.71376 0.49036 0.39925 0.0
C1084 C 0.72244 0.47257 0.38223 0.0
C1085 C 0.71932 0.49074 0.4271 0.0
C1086 C 0.7413 0.45322 0.48314 0.0
H1087 H 0.75711 0.50462 0.61143 0.0
H1088 H 0.74361 0.5052 0.56399 0.0
H1089 H 0.74924 0.4373 0.52162 0.0
H1090 H 0.74359 0.44116 0.38097 0.0
H1091 H 0.75352 0.44195 0.42937 0.0
H1092 H 0.74595 0.51146 0.46921 0.0
C1093 C 0.75597 0.4919 0.5702 0.0
C1094 C 0.74867 0.45359 0.51035 0.0
C1095 C 0.76363 0.49152 0.59735 0.0
C1096 C 0.73656 0.45504 0.3936 0.0
C1097 C 0.74214 0.45543 0.42139 0.0
C1098 C 0.74627 0.4952 0.48054 0.0
C1099 C 0.7637 0.47489 0.55151 0.0
C1100 C 0.7551 0.47473 0.5229 0.0
C1101 C 0.73368 0.47333 0.43845 0.0
C1102 C 0.74026 0.47397 0.46782 0.0
H1103 H 0.7994 0.44394 0.59371 0.0
H1104 H 0.78612 0.44466 0.54634 0.0
H1105 H 0.75862 0.51211 0.5169 0.0
H1106 H 0.70279 0.50408 0.39102 0.0
H1107 H 0.71231 0.50461 0.43976 0.0
C1108 C 0.99395 0.78095 0.09181 0.0
C1109 C 0.01525 0.78352 0.10568 0.0
C1110 C 0.99364 0.77515 0.06402 0.0
C1111 C 0.03165 0.77267 0.00225 0.0
H1112 H 0.98499 0.72876 0.97636 0.0
C1113 C 0.0395 0.72278 0.90021 0.0
C1114 C 0.01964 0.72251 0.88338 0.0
C1115 C 0.03818 0.7316 0.9268 0.0
C1116 C 0.99797 0.74121 0.98328 0.0
H1117 H 0.05289 0.78203 0.10154 0.0
H1118 H 0.0524 0.77119 0.05343 0.0
H1119 H 0.98416 0.74173 0.02391 0.0
H1120 H 0.98282 0.73107 0.88111 0.0
H1121 H 0.98045 0.74615 0.92793 0.0
H1122 H 0.04587 0.77142 0.96173 0.0
C1123 C 0.03591 0.77425 0.06364 0.0
C1124 C 0.99747 0.74874 0.01048 0.0
C1125 C 0.03621 0.78032 0.0913 0.0
C1126 C 0.9984 0.73109 0.89366 0.0
C1127 C 0.99701 0.73962 0.92042 0.0
C1128 C 0.03231 0.76492 0.97517 0.0
C1129 C 0.01462 0.77154 0.04964 0.0
C1130 C 0.01442 0.76442 0.02037 0.0
C1131 C 0.01693 0.74003 0.93717 0.0
C1132 C 0.01558 0.749 0.96551 0.0
H1133 H 0.97753 0.78346 0.1024 0.0
H1134 H 0.97694 0.77358 0.05381 0.0
H1135 H 0.04467 0.78514 0.00896 0.0
H1136 H 0.0561 0.71629 0.89279 0.0
H1137 H 0.05373 0.73152 0.93942 0.0
C1138 C 0.71446 0.04076 0.58524 0.0
C1139 C 0.72232 0.02333 0.60322 0.0
C1140 C 0.72192 0.04105 0.55806 0.0
C1141 C 0.74617 0.00405 0.5036 0.0
H1142 H 0.76408 0.0634 0.47151 0.0
C1143 C 0.7836 0.01109 0.39398 0.0
C1144 C 0.775 0.02952 0.37793 0.0
C1145 C 0.77867 0.01012 0.42198 0.0
C1146 C 0.75894 0.04672 0.48009 0.0
H1147 H 0.74389 0.99235 0.60684 0.0
H1148 H 0.75692 0.99284 0.55918 0.0
H1149 H 0.7522 0.06183 0.51936 0.0
H1150 H 0.75465 0.06147 0.37853 0.0
H1151 H 0.74579 0.05966 0.4272 0.0
H1152 H 0.75256 0.98899 0.4642 0.0
C1153 C 0.74492 0.00621 0.56613 0.0
C1154 C 0.75215 0.04583 0.50749 0.0
C1155 C 0.73754 0.00599 0.5934 0.0
C1156 C 0.76159 0.04709 0.39041 0.0
C1157 C 0.75664 0.04612 0.41834 0.0
C1158 C 0.75289 0.00495 0.47612 0.0
C1159 C 0.73733 0.02387 0.54825 0.0
C1160 C 0.74547 0.02453 0.51946 0.0
C1161 C 0.76503 0.02759 0.43444 0.0
C1162 C 0.75912 0.02635 0.46399 0.0
H1163 H 0.70269 0.05433 0.59221 0.0
H1164 H 0.71551 0.05468 0.54465 0.0
H1165 H 0.7409 0.98743 0.51222 0.0
H1166 H 0.79404 0.99733 0.38489 0.0
H1167 H 0.78562 0.99577 0.43388 0.0
loop_
_geom_bond_atom_site_label_1
_geom_bond_atom_site_label_2
_geom_bond_distance
_geom_bond_site_symmetry_2
_ccdc_geom_bond_type
In0 O1 2.294 . S
In0 O2 2.326 . S
In0 O6 2.266 . S
In0 O7 2.326 . S
In0 O8 2.266 . S
In0 O9 2.326 . S
In0 O11 2.294 . S
In0 O12 2.326 . S
O1 In0 2.294 . S
O1 C10 1.240 . S
O2 In0 2.326 . S
O2 C10 1.252 . S
C3 O6 1.252 . S
C3 O7 1.260 . S
C4 O11 1.240 . S
C4 O12 1.252 . S
C5 O8 1.252 . S
C5 O9 1.260 . S
O6 In0 2.266 . S
O6 C3 1.252 . S
O7 In0 2.326 . S
O7 C3 1.260 . S
O8 In0 2.266 . S
O8 C5 1.252 . S
O9 In0 2.326 . S
O9 C5 1.260 . S
C10 O1 1.240 . S
C10 O2 1.252 . S
O11 In0 2.294 . S
O11 C4 1.240 . S
O12 In0 2.326 . S
O12 C4 1.252 . S
In13 O14 2.294 . S
In13 O15 2.326 . S
In13 O19 2.266 . S
In13 O20 2.326 . S
In13 O21 2.266 . S
In13 O22 2.326 . S
In13 O24 2.294 . S
In13 O25 2.326 . S
O14 In13 2.294 . S
O14 C23 1.240 . S
O15 In13 2.326 . S
O15 C23 1.252 . S
C16 O19 1.252 . S
C16 O20 1.260 . S
C17 O24 1.240 . S
C17 O25 1.252 . S
C18 O21 1.252 . S
C18 O22 1.260 . S
O19 In13 2.266 . S
O19 C16 1.252 . S
O20 In13 2.326 . S
O20 C16 1.260 . S
O21 In13 2.266 . S
O21 C18 1.252 . S
O22 In13 2.326 . S
O22 C18 1.260 . S
C23 O14 1.240 . S
C23 O15 1.252 . S
O24 In13 2.294 . S
O24 C17 1.240 . S
O25 In13 2.326 . S
O25 C17 1.252 . S
In26 O27 2.294 1_655 S
In26 O28 2.326 . S
In26 O32 2.266 . S
In26 O33 2.326 . S
In26 O34 2.266 . S
In26 O35 2.326 . S
In26 O37 2.294 . S
In26 O38 2.326 . S
O27 In26 2.294 1_455 S
O27 C36 1.240 . S
O28 In26 2.326 . S
O28 C36 1.252 1_655 S
C29 O32 1.252 . S
C29 O33 1.260 . S
C30 O37 1.240 . S
C30 O38 1.252 . S
C31 O34 1.252 . S
C31 O35 1.260 . S
O32 In26 2.266 . S
O32 C29 1.252 . S
O33 In26 2.326 . S
O33 C29 1.260 . S
O34 In26 2.266 . S
O34 C31 1.252 . S
O35 In26 2.326 . S
O35 C31 1.260 . S
C36 O27 1.240 . S
C36 O28 1.252 1_455 S
O37 In26 2.294 . S
O37 C30 1.240 . S
O38 In26 2.326 . S
O38 C30 1.252 . S
In39 O40 2.294 1_565 S
In39 O41 2.326 . S
In39 O45 2.266 . S
In39 O46 2.326 . S
In39 O47 2.266 . S
In39 O48 2.325 . S
In39 O50 2.294 . S
In39 O51 2.326 . S
O40 In39 2.294 1_545 S
O40 C49 1.240 . S
O41 In39 2.326 . S
O41 C49 1.252 1_565 S
C42 O45 1.252 . S
C42 O46 1.260 . S
C43 O50 1.240 . S
C43 O51 1.252 . S
C44 O47 1.252 . S
C44 O48 1.260 . S
O45 In39 2.266 . S
O45 C42 1.252 . S
O46 In39 2.326 . S
O46 C42 1.260 . S
O47 In39 2.266 . S
O47 C44 1.252 . S
O48 In39 2.325 . S
O48 C44 1.260 . S
C49 O40 1.240 . S
C49 O41 1.252 1_545 S
O50 In39 2.294 . S
O50 C43 1.240 . S
O51 In39 2.326 . S
O51 C43 1.252 . S
In52 O53 2.294 . S
In52 O54 2.326 . S
In52 O58 2.266 . S
In52 O59 2.326 . S
In52 O60 2.266 . S
In52 O61 2.326 . S
In52 O63 2.294 . S
In52 O64 2.326 . S
O53 In52 2.294 . S
O53 C62 1.240 . S
O54 In52 2.326 . S
O54 C62 1.252 . S
C55 O58 1.252 . S
C55 O59 1.260 . S
C56 O63 1.240 . S
C56 O64 1.252 . S
C57 O60 1.252 . S
C57 O61 1.260 . S
O58 In52 2.266 . S
O58 C55 1.252 . S
O59 In52 2.326 . S
O59 C55 1.260 . S
O60 In52 2.266 . S
O60 C57 1.252 . S
O61 In52 2.326 . S
O61 C57 1.260 . S
C62 O53 1.240 . S
C62 O54 1.252 . S
O63 In52 2.294 . S
O63 C56 1.240 . S
O64 In52 2.326 . S
O64 C56 1.252 . S
In65 O66 2.294 . S
In65 O67 2.326 . S
In65 O71 2.266 . S
In65 O72 2.326 . S
In65 O73 2.266 . S
In65 O74 2.326 . S
In65 O76 2.294 . S
In65 O77 2.326 . S
O66 In65 2.294 . S
O66 C75 1.240 . S
O67 In65 2.326 . S
O67 C75 1.252 . S
C68 O71 1.252 . S
C68 O72 1.260 . S
C69 O76 1.240 . S
C69 O77 1.252 . S
C70 O73 1.252 . S
C70 O74 1.260 . S
O71 In65 2.266 . S
O71 C68 1.252 . S
O72 In65 2.326 . S
O72 C68 1.260 . S
O73 In65 2.266 . S
O73 C70 1.252 . S
O74 In65 2.326 . S
O74 C70 1.260 . S
C75 O66 1.240 . S
C75 O67 1.252 . S
O76 In65 2.294 . S
O76 C69 1.240 . S
O77 In65 2.326 . S
O77 C69 1.252 . S
In78 O79 2.294 . S
In78 O80 2.326 . S
In78 O84 2.266 . S
In78 O85 2.325 . S
In78 O86 2.266 . S
In78 O87 2.326 . S
In78 O89 2.294 1_655 S
In78 O90 2.326 . S
O79 In78 2.294 . S
O79 C88 1.240 . S
O80 In78 2.326 . S
O80 C88 1.252 . S
C81 O84 1.252 . S
C81 O85 1.260 . S
C82 O89 1.240 . S
C82 O90 1.252 1_455 S
C83 O86 1.252 . S
C83 O87 1.260 . S
O84 In78 2.266 . S
O84 C81 1.252 . S
O85 In78 2.325 . S
O85 C81 1.260 . S
O86 In78 2.266 . S
O86 C83 1.252 . S
O87 In78 2.326 . S
O87 C83 1.260 . S
C88 O79 1.240 . S
C88 O80 1.252 . S
O89 In78 2.294 1_455 S
O89 C82 1.240 . S
O90 In78 2.326 . S
O90 C82 1.252 1_655 S
In91 O92 2.294 . S
In91 O93 2.326 . S
In91 O97 2.266 . S
In91 O98 2.326 . S
In91 O99 2.266 . S
In91 O100 2.326 . S
In91 O102 2.294 1_565 S
In91 O103 2.326 . S
O92 In91 2.294 . S
O92 C101 1.240 . S
O93 In91 2.326 . S
O93 C101 1.252 . S
C94 O97 1.252 . S
C94 O98 1.260 . S
C95 O102 1.240 . S
C95 O103 1.252 1_545 S
C96 O99 1.252 . S
C96 O100 1.260 . S
O97 In91 2.266 . S
O97 C94 1.252 . S
O98 In91 2.326 . S
O98 C94 1.260 . S
O99 In91 2.266 . S
O99 C96 1.252 . S
O100 In91 2.326 . S
O100 C96 1.260 . S
C101 O92 1.240 . S
C101 O93 1.252 . S
O102 In91 2.294 1_545 S
O102 C95 1.240 . S
O103 In91 2.326 . S
O103 C95 1.252 1_565 S
In104 O105 2.294 . S
In104 O106 2.326 . S
In104 O110 2.266 . S
In104 O111 2.326 . S
In104 O112 2.266 . S
In104 O113 2.326 . S
In104 O115 2.294 . S
In104 O116 2.326 . S
O105 In104 2.294 . S
O105 C114 1.240 . S
O106 In104 2.326 . S
O106 C114 1.252 . S
C107 O110 1.252 . S
C107 O111 1.260 . S
C108 O115 1.240 . S
C108 O116 1.252 . S
C109 O112 1.252 . S
C109 O113 1.260 . S
O110 In104 2.266 . S
O110 C107 1.252 . S
O111 In104 2.326 . S
O111 C107 1.260 . S
O112 In104 2.266 . S
O112 C109 1.252 . S
O113 In104 2.326 . S
O113 C109 1.260 . S
C114 O105 1.240 . S
C114 O106 1.252 . S
O115 In104 2.294 . S
O115 C108 1.240 . S
O116 In104 2.326 . S
O116 C108 1.252 . S
In117 O118 2.294 . S
In117 O119 2.326 . S
In117 O123 2.266 . S
In117 O124 2.326 . S
In117 O125 2.266 . S
In117 O126 2.326 . S
In117 O128 2.294 . S
In117 O129 2.326 . S
O118 In117 2.294 . S
O118 C127 1.240 . S
O119 In117 2.326 . S
O119 C127 1.252 . S
C120 O123 1.252 . S
C120 O124 1.260 . S
C121 O128 1.240 . S
C121 O129 1.252 . S
C122 O125 1.252 . S
C122 O126 1.260 . S
O123 In117 2.266 . S
O123 C120 1.252 . S
O124 In117 2.326 . S
O124 C120 1.260 . S
O125 In117 2.266 . S
O125 C122 1.252 . S
O126 In117 2.326 . S
O126 C122 1.260 . S
C127 O118 1.240 . S
C127 O119 1.252 . S
O128 In117 2.294 . S
O128 C121 1.240 . S
O129 In117 2.326 . S
O129 C121 1.252 . S
In130 O131 2.294 . S
In130 O132 2.326 . S
In130 O136 2.266 . S
In130 O137 2.326 . S
In130 O138 2.266 . S
In130 O139 2.326 . S
In130 O141 2.294 1_455 S
In130 O142 2.326 . S
O131 In130 2.294 . S
O131 C140 1.240 . S
O132 In130 2.326 . S
O132 C140 1.252 . S
C133 O136 1.252 . S
C133 O137 1.260 . S
C134 O141 1.240 . S
C134 O142 1.252 1_655 S
C135 O138 1.252 . S
C135 O139 1.260 . S
O136 In130 2.266 . S
O136 C133 1.252 . S
O137 In130 2.326 . S
O137 C133 1.260 . S
O138 In130 2.266 . S
O138 C135 1.252 . S
O139 In130 2.326 . S
O139 C135 1.260 . S
C140 O131 1.240 . S
C140 O132 1.252 . S
O141 In130 2.294 1_655 S
O141 C134 1.240 . S
O142 In130 2.326 . S
O142 C134 1.252 1_455 S
In143 O144 2.294 1_545 S
In143 O145 2.326 . S
In143 O149 2.266 . S
In143 O150 2.326 . S
In143 O151 2.266 . S
In143 O152 2.325 . S
In143 O154 2.294 . S
In143 O155 2.326 . S
O144 In143 2.294 1_565 S
O144 C153 1.240 . S
O145 In143 2.326 . S
O145 C153 1.252 1_545 S
C146 O149 1.252 . S
C146 O150 1.260 . S
C147 O154 1.240 . S
C147 O155 1.252 . S
C148 O151 1.252 . S
C148 O152 1.260 . S
O149 In143 2.266 . S
O149 C146 1.252 . S
O150 In143 2.326 . S
O150 C146 1.260 . S
O151 In143 2.266 . S
O151 C148 1.252 . S
O152 In143 2.325 . S
O152 C148 1.260 . S
C153 O144 1.240 . S
C153 O145 1.252 1_565 S
O154 In143 2.294 . S
O154 C147 1.240 . S
O155 In143 2.326 . S
O155 C147 1.252 . S
In156 O157 2.294 . S
In156 O158 2.326 . S
In156 O162 2.266 . S
In156 O163 2.326 . S
In156 O164 2.266 . S
In156 O165 2.326 . S
In156 O167 2.294 . S
In156 O168 2.326 . S
O157 In156 2.294 . S
O157 C166 1.240 . S
O158 In156 2.326 . S
O158 C166 1.252 . S
C159 O162 1.252 . S
C159 O163 1.260 . S
C160 O167 1.240 . S
C160 O168 1.252 . S
C161 O164 1.252 . S
C161 O165 1.260 . S
O162 In156 2.266 . S
O162 C159 1.252 . S
O163 In156 2.326 . S
O163 C159 1.260 . S
O164 In156 2.266 . S
O164 C161 1.252 . S
O165 In156 2.326 . S
O165 C161 1.260 . S
C166 O157 1.240 . S
C166 O158 1.252 . S
O167 In156 2.294 . S
O167 C160 1.240 . S
O168 In156 2.326 . S
O168 C160 1.252 . S
In169 O170 2.294 . S
In169 O171 2.326 . S
In169 O175 2.266 . S
In169 O176 2.326 . S
In169 O177 2.266 . S
In169 O178 2.326 . S
In169 O180 2.294 . S
In169 O181 2.326 . S
O170 In169 2.294 . S
O170 C179 1.240 . S
O171 In169 2.326 . S
O171 C179 1.252 . S
C172 O175 1.252 . S
C172 O176 1.260 . S
C173 O180 1.240 . S
C173 O181 1.252 . S
C174 O177 1.252 . S
C174 O178 1.260 . S
O175 In169 2.266 . S
O175 C172 1.252 . S
O176 In169 2.326 . S
O176 C172 1.260 . S
O177 In169 2.266 . S
O177 C174 1.252 . S
O178 In169 2.326 . S
O178 C174 1.260 . S
C179 O170 1.240 . S
C179 O171 1.252 . S
O180 In169 2.294 . S
O180 C173 1.240 . S
O181 In169 2.326 . S
O181 C173 1.252 . S
In182 O183 2.294 . S
In182 O184 2.326 . S
In182 O188 2.266 . S
In182 O189 2.325 . S
In182 O190 2.266 . S
In182 O191 2.326 . S
In182 O193 2.294 1_455 S
In182 O194 2.326 . S
O183 In182 2.294 . S
O183 C192 1.240 . S
O184 In182 2.326 . S
O184 C192 1.252 . S
C185 O188 1.252 . S
C185 O189 1.260 . S
C186 O193 1.240 . S
C186 O194 1.252 1_655 S
C187 O190 1.252 . S
C187 O191 1.260 . S
O188 In182 2.266 . S
O188 C185 1.252 . S
O189 In182 2.325 . S
O189 C185 1.260 . S
O190 In182 2.266 . S
O190 C187 1.252 . S
O191 In182 2.326 . S
O191 C187 1.260 . S
C192 O183 1.240 . S
C192 O184 1.252 . S
O193 In182 2.294 1_655 S
O193 C186 1.240 . S
O194 In182 2.326 . S
O194 C186 1.252 1_455 S
In195 O196 2.294 1_545 S
In195 O197 2.326 . S
In195 O201 2.266 . S
In195 O202 2.326 . S
In195 O203 2.266 . S
In195 O204 2.326 . S
In195 O206 2.294 . S
In195 O207 2.326 . S
O196 In195 2.294 1_565 S
O196 C205 1.240 . S
O197 In195 2.326 . S
O197 C205 1.252 1_545 S
C198 O201 1.252 . S
C198 O202 1.260 . S
C199 O206 1.240 . S
C199 O207 1.252 . S
C200 O203 1.252 . S
C200 O204 1.260 . S
O201 In195 2.266 . S
O201 C198 1.252 . S
O202 In195 2.326 . S
O202 C198 1.260 . S
O203 In195 2.266 . S
O203 C200 1.252 . S
O204 In195 2.326 . S
O204 C200 1.260 . S
C205 O196 1.240 . S
C205 O197 1.252 1_565 S
O206 In195 2.294 . S
O206 C199 1.240 . S
O207 In195 2.326 . S
O207 C199 1.252 . S
C208 C209 1.349 . S
C208 C210 1.327 . S
C208 H233 0.950 . S
C209 C208 1.349 . S
C209 C225 1.349 . S
C210 C208 1.327 . S
C210 C229 1.429 . S
C210 H234 0.950 . S
C211 C228 1.574 . S
C211 C230 1.368 . S
C211 H235 0.949 . S
H212 C216 0.949 . S
C213 C214 1.349 . S
C213 C215 1.327 . S
C213 H236 0.950 . S
C214 C213 1.349 . S
C214 C226 1.349 . S
C215 C213 1.327 . S
C215 C231 1.429 . S
C215 H237 0.950 . S
C216 H212 0.949 . S
C216 C224 1.574 . S
C216 C232 1.368 . S
H217 C225 0.950 . S
H218 C223 0.950 . S
H219 C224 0.949 . S
H220 C226 0.950 . S
H221 C227 0.950 . S
H222 C228 0.949 . S
C223 H218 0.950 . S
C223 C225 1.327 . S
C223 C229 1.429 . S
C224 C216 1.574 . S
C224 H219 0.949 . S
C224 C230 1.368 . S
C225 C209 1.349 . S
C225 H217 0.950 . S
C225 C223 1.327 . S
C226 C214 1.349 . S
C226 H220 0.950 . S
C226 C227 1.327 . S
C227 H221 0.950 . S
C227 C226 1.327 . S
C227 C231 1.429 . S
C228 C211 1.574 . S
C228 H222 0.949 . S
C228 C232 1.368 . S
C229 C210 1.429 . S
C229 C223 1.429 . S
C229 C230 1.523 . S
C230 C211 1.368 . S
C230 C224 1.368 . S
C230 C229 1.523 . S
C231 C215 1.429 . S
C231 C227 1.429 . S
C231 C232 1.523 . S
C232 C216 1.368 . S
C232 C228 1.368 . S
C232 C231 1.523 . S
H233 C208 0.950 . S
H234 C210 0.950 . S
H235 C211 0.949 . S
H236 C213 0.950 . S
H237 C215 0.950 . S
C238 C239 1.349 . S
C238 C240 1.327 . S
C238 H263 0.950 . S
C239 C238 1.349 . S
C239 C255 1.349 . S
C240 C238 1.327 . S
C240 C259 1.429 . S
C240 H264 0.950 . S
C241 C258 1.574 . S
C241 C260 1.368 . S
C241 H265 0.949 . S
H242 C246 0.949 . S
C243 C244 1.349 . S
C243 C245 1.327 . S
C243 H266 0.950 . S
C244 C243 1.349 . S
C244 C256 1.349 . S
C245 C243 1.327 . S
C245 C261 1.429 . S
C245 H267 0.950 . S
C246 H242 0.949 . S
C246 C254 1.574 . S
C246 C262 1.368 . S
H247 C255 0.950 . S
H248 C253 0.950 . S
H249 C254 0.949 . S
H250 C256 0.950 . S
H251 C257 0.950 . S
H252 C258 0.949 . S
C253 H248 0.950 . S
C253 C255 1.327 . S
C253 C259 1.429 . S
C254 C246 1.574 . S
C254 H249 0.949 . S
C254 C260 1.368 . S
C255 C239 1.349 . S
C255 H247 0.950 . S
C255 C253 1.327 . S
C256 C244 1.349 . S
C256 H250 0.950 . S
C256 C257 1.327 . S
C257 H251 0.950 . S
C257 C256 1.327 . S
C257 C261 1.429 . S
C258 C241 1.574 . S
C258 H252 0.949 . S
C258 C262 1.368 . S
C259 C240 1.429 . S
C259 C253 1.429 . S
C259 C260 1.523 . S
C260 C241 1.368 . S
C260 C254 1.368 . S
C260 C259 1.523 . S
C261 C245 1.429 . S
C261 C257 1.429 . S
C261 C262 1.523 . S
C262 C246 1.368 . S
C262 C258 1.368 . S
C262 C261 1.523 . S
H263 C238 0.950 . S
H264 C240 0.950 . S
H265 C241 0.949 . S
H266 C243 0.950 . S
H267 C245 0.950 . S
C268 C269 1.349 . S
C268 C270 1.327 . S
C268 H293 0.950 . S
C269 C268 1.349 . S
C269 C285 1.349 . S
C270 C268 1.327 . S
C270 C289 1.429 . S
C270 H294 0.950 . S
C271 C288 1.574 . S
C271 C290 1.368 . S
C271 H295 0.949 . S
H272 C276 0.949 . S
C273 C274 1.349 . S
C273 C275 1.327 . S
C273 H296 0.950 . S
C274 C273 1.349 . S
C274 C286 1.349 . S
C275 C273 1.327 . S
C275 C291 1.429 . S
C275 H297 0.950 . S
C276 H272 0.949 . S
C276 C284 1.574 . S
C276 C292 1.368 . S
H277 C285 0.950 . S
H278 C283 0.950 . S
H279 C284 0.949 . S
H280 C286 0.950 . S
H281 C287 0.950 . S
H282 C288 0.949 . S
C283 H278 0.950 . S
C283 C285 1.327 . S
C283 C289 1.429 . S
C284 C276 1.574 . S
C284 H279 0.949 . S
C284 C290 1.368 . S
C285 C269 1.349 . S
C285 H277 0.950 . S
C285 C283 1.327 . S
C286 C274 1.349 . S
C286 H280 0.950 . S
C286 C287 1.327 . S
C287 H281 0.950 . S
C287 C286 1.327 . S
C287 C291 1.429 . S
C288 C271 1.574 . S
C288 H282 0.949 . S
C288 C292 1.368 . S
C289 C270 1.429 . S
C289 C283 1.429 . S
C289 C290 1.523 . S
C290 C271 1.368 . S
C290 C284 1.368 . S
C290 C289 1.523 . S
C291 C275 1.429 . S
C291 C287 1.429 . S
C291 C292 1.523 . S
C292 C276 1.368 . S
C292 C288 1.368 . S
C292 C291 1.523 . S
H293 C268 0.950 . S
H294 C270 0.950 . S
H295 C271 0.949 . S
H296 C273 0.950 . S
H297 C275 0.950 . S
C298 C299 1.349 . S
C298 C300 1.327 . S
C298 H323 0.950 . S
C299 C298 1.349 . S
C299 C315 1.349 . S
C300 C298 1.327 . S
C300 C319 1.429 . S
C300 H324 0.950 . S
C301 C318 1.574 . S
C301 C320 1.368 . S
C301 H325 0.949 . S
H302 C306 0.949 . S
C303 C304 1.349 . S
C303 C305 1.327 . S
C303 H326 0.950 . S
C304 C303 1.349 . S
C304 C316 1.349 . S
C305 C303 1.327 . S
C305 C321 1.429 . S
C305 H327 0.950 . S
C306 H302 0.949 . S
C306 C314 1.574 . S
C306 C322 1.368 . S
H307 C315 0.950 . S
H308 C313 0.950 . S
H309 C314 0.949 . S
H310 C316 0.950 . S
H311 C317 0.950 . S
H312 C318 0.949 . S
C313 H308 0.950 . S
C313 C315 1.327 . S
C313 C319 1.429 . S
C314 C306 1.574 . S
C314 H309 0.949 . S
C314 C320 1.368 . S
C315 C299 1.349 . S
C315 H307 0.950 . S
C315 C313 1.327 . S
C316 C304 1.349 . S
C316 H310 0.950 . S
C316 C317 1.327 . S
C317 H311 0.950 . S
C317 C316 1.327 . S
C317 C321 1.429 . S
C318 C301 1.574 . S
C318 H312 0.949 . S
C318 C322 1.368 . S
C319 C300 1.429 . S
C319 C313 1.429 . S
C319 C320 1.523 . S
C320 C301 1.368 . S
C320 C314 1.368 . S
C320 C319 1.523 . S
C321 C305 1.429 . S
C321 C317 1.429 . S
C321 C322 1.523 . S
C322 C306 1.368 . S
C322 C318 1.368 . S
C322 C321 1.523 . S
H323 C298 0.950 . S
H324 C300 0.950 . S
H325 C301 0.949 . S
H326 C303 0.950 . S
H327 C305 0.950 . S
C328 C329 1.349 . S
C328 C330 1.327 . S
C328 H353 0.950 . S
C329 C328 1.349 . S
C329 C345 1.349 . S
C330 C328 1.327 . S
C330 C349 1.429 . S
C330 H354 0.950 . S
C331 C348 1.574 . S
C331 C350 1.368 . S
C331 H355 0.949 . S
H332 C336 0.949 . S
C333 C334 1.349 . S
C333 C335 1.327 . S
C333 H356 0.950 . S
C334 C333 1.349 . S
C334 C346 1.349 . S
C335 C333 1.327 . S
C335 C351 1.429 . S
C335 H357 0.950 . S
C336 H332 0.949 . S
C336 C344 1.574 . S
C336 C352 1.368 . S
H337 C345 0.950 . S
H338 C343 0.950 . S
H339 C344 0.949 . S
H340 C346 0.950 . S
H341 C347 0.950 . S
H342 C348 0.949 . S
C343 H338 0.950 . S
C343 C345 1.327 . S
C343 C349 1.429 . S
C344 C336 1.574 . S
C344 H339 0.949 . S
C344 C350 1.368 . S
C345 C329 1.349 . S
C345 H337 0.950 . S
C345 C343 1.327 . S
C346 C334 1.349 . S
C346 H340 0.950 . S
C346 C347 1.327 . S
C347 H341 0.950 . S
C347 C346 1.327 . S
C347 C351 1.429 . S
C348 C331 1.574 . S
C348 H342 0.949 . S
C348 C352 1.368 . S
C349 C330 1.429 . S
C349 C343 1.429 . S
C349 C350 1.523 . S
C350 C331 1.368 . S
C350 C344 1.368 . S
C350 C349 1.523 . S
C351 C335 1.429 . S
C351 C347 1.429 . S
C351 C352 1.523 . S
C352 C336 1.368 . S
C352 C348 1.368 . S
C352 C351 1.523 . S
H353 C328 0.950 . S
H354 C330 0.950 . S
H355 C331 0.949 . S
H356 C333 0.950 . S
H357 C335 0.950 . S
C358 C359 1.349 . S
C358 C360 1.327 . S
C358 H383 0.950 . S
C359 C358 1.349 . S
C359 C375 1.349 . S
C360 C358 1.327 . S
C360 C379 1.429 . S
C360 H384 0.950 . S
C361 C378 1.574 . S
C361 C380 1.368 . S
C361 H385 0.949 . S
H362 C366 0.949 . S
C363 C364 1.349 . S
C363 C365 1.327 . S
C363 H386 0.950 . S
C364 C363 1.349 . S
C364 C376 1.349 . S
C365 C363 1.327 . S
C365 C381 1.429 . S
C365 H387 0.950 . S
C366 H362 0.949 . S
C366 C374 1.574 . S
C366 C382 1.368 . S
H367 C375 0.950 . S
H368 C373 0.950 . S
H369 C374 0.949 . S
H370 C376 0.950 . S
H371 C377 0.950 . S
H372 C378 0.949 . S
C373 H368 0.950 . S
C373 C375 1.327 . S
C373 C379 1.429 . S
C374 C366 1.574 . S
C374 H369 0.949 . S
C374 C380 1.368 . S
C375 C359 1.349 . S
C375 H367 0.950 . S
C375 C373 1.327 . S
C376 C364 1.349 . S
C376 H370 0.950 . S
C376 C377 1.327 . S
C377 H371 0.950 . S
C377 C376 1.327 . S
C377 C381 1.429 . S
C378 C361 1.574 . S
C378 H372 0.949 . S
C378 C382 1.368 . S
C379 C360 1.429 . S
C379 C373 1.429 . S
C379 C380 1.523 . S
C380 C361 1.368 . S
C380 C374 1.368 . S
C380 C379 1.523 . S
C381 C365 1.429 . S
C381 C377 1.429 . S
C381 C382 1.523 . S
C382 C366 1.368 . S
C382 C378 1.368 . S
C382 C381 1.523 . S
H383 C358 0.950 . S
H384 C360 0.950 . S
H385 C361 0.949 . S
H386 C363 0.950 . S
H387 C365 0.950 . S
C388 C389 1.349 . S
C388 C390 1.327 . S
C388 H413 0.950 . S
C389 C388 1.349 . S
C389 C405 1.349 . S
C390 C388 1.327 . S
C390 C409 1.429 . S
C390 H414 0.950 . S
C391 C408 1.574 . S
C391 C410 1.368 . S
C391 H415 0.949 . S
H392 C396 0.949 . S
C393 C394 1.349 . S
C393 C395 1.327 . S
C393 H416 0.950 . S
C394 C393 1.349 . S
C394 C406 1.349 . S
C395 C393 1.327 . S
C395 C411 1.429 . S
C395 H417 0.950 . S
C396 H392 0.949 . S
C396 C404 1.574 . S
C396 C412 1.368 . S
H397 C405 0.950 . S
H398 C403 0.950 . S
H399 C404 0.949 . S
H400 C406 0.950 . S
H401 C407 0.950 . S
H402 C408 0.949 . S
C403 H398 0.950 . S
C403 C405 1.327 . S
C403 C409 1.429 . S
C404 C396 1.574 . S
C404 H399 0.949 . S
C404 C410 1.368 . S
C405 C389 1.349 . S
C405 H397 0.950 . S
C405 C403 1.327 . S
C406 C394 1.349 . S
C406 H400 0.950 . S
C406 C407 1.327 . S
C407 H401 0.950 . S
C407 C406 1.327 . S
C407 C411 1.429 . S
C408 C391 1.574 . S
C408 H402 0.949 . S
C408 C412 1.368 . S
C409 C390 1.429 . S
C409 C403 1.429 . S
C409 C410 1.523 . S
C410 C391 1.368 . S
C410 C404 1.368 . S
C410 C409 1.523 . S
C411 C395 1.429 . S
C411 C407 1.429 . S
C411 C412 1.523 . S
C412 C396 1.368 . S
C412 C408 1.368 . S
C412 C411 1.523 . S
H413 C388 0.950 . S
H414 C390 0.950 . S
H415 C391 0.949 . S
H416 C393 0.950 . S
H417 C395 0.950 . S
C418 C419 1.349 . S
C418 C420 1.327 . S
C418 H443 0.950 . S
C419 C418 1.349 . S
C419 C435 1.349 . S
C420 C418 1.327 . S
C420 C439 1.429 . S
C420 H444 0.950 . S
C421 C438 1.574 . S
C421 C440 1.368 . S
C421 H445 0.949 . S
H422 C426 0.949 . S
C423 C424 1.349 . S
C423 C425 1.327 . S
C423 H446 0.950 . S
C424 C423 1.349 . S
C424 C436 1.349 . S
C425 C423 1.327 . S
C425 C441 1.429 . S
C425 H447 0.950 . S
C426 H422 0.949 . S
C426 C434 1.574 . S
C426 C442 1.368 . S
H427 C435 0.950 . S
H428 C433 0.950 . S
H429 C434 0.949 . S
H430 C436 0.950 . S
H431 C437 0.950 . S
H432 C438 0.949 . S
C433 H428 0.950 . S
C433 C435 1.327 . S
C433 C439 1.429 . S
C434 C426 1.574 . S
C434 H429 0.949 . S
C434 C440 1.368 . S
C435 C419 1.349 . S
C435 H427 0.950 . S
C435 C433 1.327 . S
C436 C424 1.349 . S
C436 H430 0.950 . S
C436 C437 1.327 . S
C437 H431 0.950 . S
C437 C436 1.327 . S
C437 C441 1.429 . S
C438 C421 1.574 . S
C438 H432 0.949 . S
C438 C442 1.368 . S
C439 C420 1.429 . S
C439 C433 1.429 . S
C439 C440 1.523 . S
C440 C421 1.368 . S
C440 C434 1.368 . S
C440 C439 1.523 . S
C441 C425 1.429 . S
C441 C437 1.429 . S
C441 C442 1.523 . S
C442 C426 1.368 . S
C442 C438 1.368 . S
C442 C441 1.523 . S
H443 C418 0.950 . S
H444 C420 0.950 . S
H445 C421 0.949 . S
H446 C423 0.950 . S
H447 C425 0.950 . S
C448 C449 1.349 . S
C448 C450 1.327 . S
C448 H473 0.950 . S
C449 C448 1.349 . S
C449 C465 1.349 . S
C450 C448 1.327 . S
C450 C469 1.429 . S
C450 H474 0.950 . S
C451 C468 1.574 . S
C451 C470 1.368 . S
C451 H475 0.949 . S
H452 C456 0.949 . S
C453 C454 1.349 . S
C453 C455 1.327 . S
C453 H476 0.950 . S
C454 C453 1.349 . S
C454 C466 1.349 . S
C455 C453 1.327 . S
C455 C471 1.429 . S
C455 H477 0.950 . S
C456 H452 0.949 . S
C456 C464 1.574 . S
C456 C472 1.368 . S
H457 C465 0.950 . S
H458 C463 0.950 . S
H459 C464 0.949 . S
H460 C466 0.950 . S
H461 C467 0.950 . S
H462 C468 0.949 . S
C463 H458 0.950 . S
C463 C465 1.327 . S
C463 C469 1.429 . S
C464 C456 1.574 . S
C464 H459 0.949 . S
C464 C470 1.368 . S
C465 C449 1.349 . S
C465 H457 0.950 . S
C465 C463 1.327 . S
C466 C454 1.349 . S
C466 H460 0.950 . S
C466 C467 1.327 . S
C467 H461 0.950 . S
C467 C466 1.327 . S
C467 C471 1.429 . S
C468 C451 1.574 . S
C468 H462 0.949 . S
C468 C472 1.368 . S
C469 C450 1.429 . S
C469 C463 1.429 . S
C469 C470 1.523 . S
C470 C451 1.368 . S
C470 C464 1.368 . S
C470 C469 1.523 . S
C471 C455 1.429 . S
C471 C467 1.429 . S
C471 C472 1.523 . S
C472 C456 1.368 . S
C472 C468 1.368 . S
C472 C471 1.523 . S
H473 C448 0.950 . S
H474 C450 0.950 . S
H475 C451 0.949 . S
H476 C453 0.950 . S
H477 C455 0.950 . S
C478 C479 1.349 . S
C478 C480 1.327 . S
C478 H503 0.950 . S
C479 C478 1.349 . S
C479 C495 1.349 . S
C480 C478 1.327 . S
C480 C499 1.429 . S
C480 H504 0.950 . S
C481 C498 1.574 . S
C481 C500 1.368 . S
C481 H505 0.949 . S
H482 C486 0.949 . S
C483 C484 1.349 . S
C483 C485 1.327 . S
C483 H506 0.950 . S
C484 C483 1.349 . S
C484 C496 1.349 . S
C485 C483 1.327 . S
C485 C501 1.429 . S
C485 H507 0.950 . S
C486 H482 0.949 . S
C486 C494 1.574 . S
C486 C502 1.368 . S
H487 C495 0.950 . S
H488 C493 0.950 . S
H489 C494 0.949 . S
H490 C496 0.950 . S
H491 C497 0.950 . S
H492 C498 0.949 . S
C493 H488 0.950 . S
C493 C495 1.327 . S
C493 C499 1.429 . S
C494 C486 1.574 . S
C494 H489 0.949 . S
C494 C500 1.368 . S
C495 C479 1.349 . S
C495 H487 0.950 . S
C495 C493 1.327 . S
C496 C484 1.349 . S
C496 H490 0.950 . S
C496 C497 1.327 . S
C497 H491 0.950 . S
C497 C496 1.327 . S
C497 C501 1.429 . S
C498 C481 1.574 . S
C498 H492 0.949 . S
C498 C502 1.368 . S
C499 C480 1.429 . S
C499 C493 1.429 . S
C499 C500 1.523 . S
C500 C481 1.368 . S
C500 C494 1.368 . S
C500 C499 1.523 . S
C501 C485 1.429 . S
C501 C497 1.429 . S
C501 C502 1.523 . S
C502 C486 1.368 . S
C502 C498 1.368 . S
C502 C501 1.523 . S
H503 C478 0.950 . S
H504 C480 0.950 . S
H505 C481 0.949 . S
H506 C483 0.950 . S
H507 C485 0.950 . S
C508 C509 1.349 . S
C508 C510 1.327 . S
C508 H533 0.950 . S
C509 C508 1.349 . S
C509 C525 1.349 . S
C510 C508 1.327 . S
C510 C529 1.429 . S
C510 H534 0.950 . S
C511 C528 1.574 . S
C511 C530 1.368 . S
C511 H535 0.949 . S
H512 C516 0.949 . S
C513 C514 1.349 . S
C513 C515 1.327 . S
C513 H536 0.950 . S
C514 C513 1.349 . S
C514 C526 1.349 . S
C515 C513 1.327 . S
C515 C531 1.429 . S
C515 H537 0.950 . S
C516 H512 0.949 . S
C516 C524 1.574 . S
C516 C532 1.368 . S
H517 C525 0.950 . S
H518 C523 0.950 . S
H519 C524 0.949 . S
H520 C526 0.950 . S
H521 C527 0.950 . S
H522 C528 0.949 . S
C523 H518 0.950 . S
C523 C525 1.327 . S
C523 C529 1.429 . S
C524 C516 1.574 . S
C524 H519 0.949 . S
C524 C530 1.368 . S
C525 C509 1.349 . S
C525 H517 0.950 . S
C525 C523 1.327 . S
C526 C514 1.349 . S
C526 H520 0.950 . S
C526 C527 1.327 . S
C527 H521 0.950 . S
C527 C526 1.327 . S
C527 C531 1.429 . S
C528 C511 1.574 . S
C528 H522 0.949 . S
C528 C532 1.368 . S
C529 C510 1.429 . S
C529 C523 1.429 . S
C529 C530 1.523 . S
C530 C511 1.368 . S
C530 C524 1.368 . S
C530 C529 1.523 . S
C531 C515 1.429 . S
C531 C527 1.429 . S
C531 C532 1.523 . S
C532 C516 1.368 . S
C532 C528 1.368 . S
C532 C531 1.523 . S
H533 C508 0.950 . S
H534 C510 0.950 . S
H535 C511 0.949 . S
H536 C513 0.950 . S
H537 C515 0.950 . S
C538 C539 1.349 . S
C538 C540 1.327 . S
C538 H563 0.950 . S
C539 C538 1.349 . S
C539 C555 1.349 . S
C540 C538 1.327 . S
C540 C559 1.429 . S
C540 H564 0.950 . S
C541 C558 1.574 . S
C541 C560 1.368 . S
C541 H565 0.949 . S
H542 C546 0.949 . S
C543 C544 1.349 . S
C543 C545 1.327 . S
C543 H566 0.950 . S
C544 C543 1.349 . S
C544 C556 1.349 . S
C545 C543 1.327 . S
C545 C561 1.429 . S
C545 H567 0.950 . S
C546 H542 0.949 . S
C546 C554 1.574 . S
C546 C562 1.368 . S
H547 C555 0.950 . S
H548 C553 0.950 . S
H549 C554 0.949 . S
H550 C556 0.950 . S
H551 C557 0.950 . S
H552 C558 0.949 . S
C553 H548 0.950 . S
C553 C555 1.327 . S
C553 C559 1.429 . S
C554 C546 1.574 . S
C554 H549 0.949 . S
C554 C560 1.368 . S
C555 C539 1.349 . S
C555 H547 0.950 . S
C555 C553 1.327 . S
C556 C544 1.349 . S
C556 H550 0.950 . S
C556 C557 1.327 . S
C557 H551 0.950 . S
C557 C556 1.327 . S
C557 C561 1.429 . S
C558 C541 1.574 . S
C558 H552 0.949 . S
C558 C562 1.368 . S
C559 C540 1.429 . S
C559 C553 1.429 . S
C559 C560 1.523 . S
C560 C541 1.368 . S
C560 C554 1.368 . S
C560 C559 1.523 . S
C561 C545 1.429 . S
C561 C557 1.429 . S
C561 C562 1.523 . S
C562 C546 1.368 . S
C562 C558 1.368 . S
C562 C561 1.523 . S
H563 C538 0.950 . S
H564 C540 0.950 . S
H565 C541 0.949 . S
H566 C543 0.950 . S
H567 C545 0.950 . S
C568 C569 1.349 . S
C568 C570 1.327 . S
C568 H593 0.950 . S
C569 C568 1.349 . S
C569 C585 1.349 . S
C570 C568 1.327 . S
C570 C589 1.429 . S
C570 H594 0.950 . S
C571 C588 1.574 . S
C571 C590 1.368 . S
C571 H595 0.949 . S
H572 C576 0.949 . S
C573 C574 1.349 . S
C573 C575 1.327 . S
C573 H596 0.950 . S
C574 C573 1.349 . S
C574 C586 1.349 . S
C575 C573 1.327 . S
C575 C591 1.429 . S
C575 H597 0.950 . S
C576 H572 0.949 . S
C576 C584 1.574 . S
C576 C592 1.368 . S
H577 C585 0.950 . S
H578 C583 0.950 . S
H579 C584 0.949 . S
H580 C586 0.950 . S
H581 C587 0.950 . S
H582 C588 0.949 . S
C583 H578 0.950 . S
C583 C585 1.327 . S
C583 C589 1.429 . S
C584 C576 1.574 . S
C584 H579 0.949 . S
C584 C590 1.368 . S
C585 C569 1.349 . S
C585 H577 0.950 . S
C585 C583 1.327 . S
C586 C574 1.349 . S
C586 H580 0.950 . S
C586 C587 1.327 . S
C587 H581 0.950 . S
C587 C586 1.327 . S
C587 C591 1.429 . S
C588 C571 1.574 . S
C588 H582 0.949 . S
C588 C592 1.368 . S
C589 C570 1.429 . S
C589 C583 1.429 . S
C589 C590 1.523 . S
C590 C571 1.368 . S
C590 C584 1.368 . S
C590 C589 1.523 . S
C591 C575 1.429 . S
C591 C587 1.429 . S
C591 C592 1.523 . S
C592 C576 1.368 . S
C592 C588 1.368 . S
C592 C591 1.523 . S
H593 C568 0.950 . S
H594 C570 0.950 . S
H595 C571 0.949 . S
H596 C573 0.950 . S
H597 C575 0.950 . S
C598 C599 1.349 . S
C598 C600 1.327 . S
C598 H623 0.950 . S
C599 C598 1.349 . S
C599 C615 1.349 . S
C600 C598 1.327 . S
C600 C619 1.429 . S
C600 H624 0.950 . S
C601 C618 1.574 . S
C601 C620 1.368 . S
C601 H625 0.949 . S
H602 C606 0.949 . S
C603 C604 1.349 . S
C603 C605 1.327 . S
C603 H626 0.950 . S
C604 C603 1.349 . S
C604 C616 1.349 . S
C605 C603 1.327 . S
C605 C621 1.429 . S
C605 H627 0.950 . S
C606 H602 0.949 . S
C606 C614 1.574 . S
C606 C622 1.368 . S
H607 C615 0.950 . S
H608 C613 0.950 . S
H609 C614 0.949 . S
H610 C616 0.950 . S
H611 C617 0.950 . S
H612 C618 0.949 . S
C613 H608 0.950 . S
C613 C615 1.327 . S
C613 C619 1.429 . S
C614 C606 1.574 . S
C614 H609 0.949 . S
C614 C620 1.368 . S
C615 C599 1.349 . S
C615 H607 0.950 . S
C615 C613 1.327 . S
C616 C604 1.349 . S
C616 H610 0.950 . S
C616 C617 1.327 . S
C617 H611 0.950 . S
C617 C616 1.327 . S
C617 C621 1.429 . S
C618 C601 1.574 . S
C618 H612 0.949 . S
C618 C622 1.368 . S
C619 C600 1.429 . S
C619 C613 1.429 . S
C619 C620 1.523 . S
C620 C601 1.368 . S
C620 C614 1.368 . S
C620 C619 1.523 . S
C621 C605 1.429 . S
C621 C617 1.429 . S
C621 C622 1.523 . S
C622 C606 1.368 . S
C622 C618 1.368 . S
C622 C621 1.523 . S
H623 C598 0.950 . S
H624 C600 0.950 . S
H625 C601 0.949 . S
H626 C603 0.950 . S
H627 C605 0.950 . S
C628 C629 1.349 . S
C628 C630 1.327 . S
C628 H653 0.950 . S
C629 C628 1.349 . S
C629 C645 1.349 . S
C630 C628 1.327 . S
C630 C649 1.429 . S
C630 H654 0.950 . S
C631 C648 1.574 . S
C631 C650 1.368 . S
C631 H655 0.949 . S
H632 C636 0.949 . S
C633 C634 1.349 . S
C633 C635 1.327 . S
C633 H656 0.950 . S
C634 C633 1.349 . S
C634 C646 1.349 . S
C635 C633 1.327 . S
C635 C651 1.429 . S
C635 H657 0.950 . S
C636 H632 0.949 . S
C636 C644 1.574 . S
C636 C652 1.368 . S
H637 C645 0.950 . S
H638 C643 0.950 . S
H639 C644 0.949 . S
H640 C646 0.950 . S
H641 C647 0.950 . S
H642 C648 0.949 . S
C643 H638 0.950 . S
C643 C645 1.327 . S
C643 C649 1.429 . S
C644 C636 1.574 . S
C644 H639 0.949 . S
C644 C650 1.368 . S
C645 C629 1.349 . S
C645 H637 0.950 . S
C645 C643 1.327 . S
C646 C634 1.349 . S
C646 H640 0.950 . S
C646 C647 1.327 . S
C647 H641 0.950 . S
C647 C646 1.327 . S
C647 C651 1.429 . S
C648 C631 1.574 . S
C648 H642 0.949 . S
C648 C652 1.368 . S
C649 C630 1.429 . S
C649 C643 1.429 . S
C649 C650 1.523 . S
C650 C631 1.368 . S
C650 C644 1.368 . S
C650 C649 1.523 . S
C651 C635 1.429 . S
C651 C647 1.429 . S
C651 C652 1.523 . S
C652 C636 1.368 . S
C652 C648 1.368 . S
C652 C651 1.523 . S
H653 C628 0.950 . S
H654 C630 0.950 . S
H655 C631 0.949 . S
H656 C633 0.950 . S
H657 C635 0.950 . S
C658 C659 1.349 . S
C658 C660 1.327 . S
C658 H683 0.950 . S
C659 C658 1.349 . S
C659 C675 1.349 . S
C660 C658 1.327 . S
C660 C679 1.429 . S
C660 H684 0.950 . S
C661 C678 1.574 . S
C661 C680 1.368 . S
C661 H685 0.949 . S
H662 C666 0.949 . S
C663 C664 1.349 . S
C663 C665 1.327 . S
C663 H686 0.950 . S
C664 C663 1.349 . S
C664 C676 1.349 . S
C665 C663 1.327 . S
C665 C681 1.429 . S
C665 H687 0.950 . S
C666 H662 0.949 . S
C666 C674 1.574 . S
C666 C682 1.368 . S
H667 C675 0.950 . S
H668 C673 0.950 . S
H669 C674 0.949 . S
H670 C676 0.950 . S
H671 C677 0.950 . S
H672 C678 0.949 . S
C673 H668 0.950 . S
C673 C675 1.327 . S
C673 C679 1.429 . S
C674 C666 1.574 . S
C674 H669 0.949 . S
C674 C680 1.368 . S
C675 C659 1.349 . S
C675 H667 0.950 . S
C675 C673 1.327 . S
C676 C664 1.349 . S
C676 H670 0.950 . S
C676 C677 1.327 . S
C677 H671 0.950 . S
C677 C676 1.327 . S
C677 C681 1.429 . S
C678 C661 1.574 . S
C678 H672 0.949 . S
C678 C682 1.368 . S
C679 C660 1.429 . S
C679 C673 1.429 . S
C679 C680 1.523 . S
C680 C661 1.368 . S
C680 C674 1.368 . S
C680 C679 1.523 . S
C681 C665 1.429 . S
C681 C677 1.429 . S
C681 C682 1.523 . S
C682 C666 1.368 . S
C682 C678 1.368 . S
C682 C681 1.523 . S
H683 C658 0.950 . S
H684 C660 0.950 . S
H685 C661 0.949 . S
H686 C663 0.950 . S
H687 C665 0.950 . S
C688 C689 1.349 . S
C688 C690 1.327 . S
C688 H713 0.950 . S
C689 C688 1.349 . S
C689 C705 1.349 . S
C690 C688 1.327 . S
C690 C709 1.429 . S
C690 H714 0.950 . S
C691 C708 1.574 . S
C691 C710 1.368 . S
C691 H715 0.949 . S
H692 C696 0.949 . S
C693 C694 1.349 . S
C693 C695 1.327 . S
C693 H716 0.950 . S
C694 C693 1.349 . S
C694 C706 1.349 . S
C695 C693 1.327 . S
C695 C711 1.429 . S
C695 H717 0.950 . S
C696 H692 0.949 . S
C696 C704 1.574 . S
C696 C712 1.368 . S
H697 C705 0.950 . S
H698 C703 0.950 . S
H699 C704 0.949 . S
H700 C706 0.950 . S
H701 C707 0.950 . S
H702 C708 0.949 . S
C703 H698 0.950 . S
C703 C705 1.327 . S
C703 C709 1.429 . S
C704 C696 1.574 . S
C704 H699 0.949 . S
C704 C710 1.368 . S
C705 C689 1.349 . S
C705 H697 0.950 . S
C705 C703 1.327 . S
C706 C694 1.349 . S
C706 H700 0.950 . S
C706 C707 1.327 . S
C707 H701 0.950 . S
C707 C706 1.327 . S
C707 C711 1.429 . S
C708 C691 1.574 . S
C708 H702 0.949 . S
C708 C712 1.368 . S
C709 C690 1.429 . S
C709 C703 1.429 . S
C709 C710 1.523 . S
C710 C691 1.368 . S
C710 C704 1.368 . S
C710 C709 1.523 . S
C711 C695 1.429 . S
C711 C707 1.429 . S
C711 C712 1.523 . S
C712 C696 1.368 . S
C712 C708 1.368 . S
C712 C711 1.523 . S
H713 C688 0.950 . S
H714 C690 0.950 . S
H715 C691 0.949 . S
H716 C693 0.950 . S
H717 C695 0.950 . S
C718 C719 1.349 . S
C718 C720 1.327 . S
C718 H743 0.950 . S
C719 C718 1.349 . S
C719 C735 1.349 . S
C720 C718 1.327 . S
C720 C739 1.429 . S
C720 H744 0.950 . S
C721 C738 1.574 . S
C721 C740 1.368 . S
C721 H745 0.949 . S
H722 C726 0.949 . S
C723 C724 1.349 . S
C723 C725 1.327 . S
C723 H746 0.950 . S
C724 C723 1.349 . S
C724 C736 1.349 . S
C725 C723 1.327 . S
C725 C741 1.429 . S
C725 H747 0.950 . S
C726 H722 0.949 . S
C726 C734 1.574 . S
C726 C742 1.368 . S
H727 C735 0.950 . S
H728 C733 0.950 . S
H729 C734 0.949 . S
H730 C736 0.950 . S
H731 C737 0.950 . S
H732 C738 0.949 . S
C733 H728 0.950 . S
C733 C735 1.327 . S
C733 C739 1.429 . S
C734 C726 1.574 . S
C734 H729 0.949 . S
C734 C740 1.368 . S
C735 C719 1.349 . S
C735 H727 0.950 . S
C735 C733 1.327 . S
C736 C724 1.349 . S
C736 H730 0.950 . S
C736 C737 1.327 . S
C737 H731 0.950 . S
C737 C736 1.327 . S
C737 C741 1.429 . S
C738 C721 1.574 . S
C738 H732 0.949 . S
C738 C742 1.368 . S
C739 C720 1.429 . S
C739 C733 1.429 . S
C739 C740 1.523 . S
C740 C721 1.368 . S
C740 C734 1.368 . S
C740 C739 1.523 . S
C741 C725 1.429 . S
C741 C737 1.429 . S
C741 C742 1.523 . S
C742 C726 1.368 . S
C742 C738 1.368 . S
C742 C741 1.523 . S
H743 C718 0.950 . S
H744 C720 0.950 . S
H745 C721 0.949 . S
H746 C723 0.950 . S
H747 C725 0.950 . S
C748 C749 1.349 . S
C748 C750 1.327 . S
C748 H773 0.950 . S
C749 C748 1.349 . S
C749 C765 1.349 . S
C750 C748 1.327 . S
C750 C769 1.429 . S
C750 H774 0.950 . S
C751 C768 1.574 . S
C751 C770 1.368 . S
C751 H775 0.949 . S
H752 C756 0.949 . S
C753 C754 1.349 . S
C753 C755 1.327 . S
C753 H776 0.950 . S
C754 C753 1.349 . S
C754 C766 1.349 . S
C755 C753 1.327 . S
C755 C771 1.429 . S
C755 H777 0.950 . S
C756 H752 0.949 . S
C756 C764 1.574 . S
C756 C772 1.368 . S
H757 C765 0.950 . S
H758 C763 0.950 . S
H759 C764 0.949 . S
H760 C766 0.950 . S
H761 C767 0.950 . S
H762 C768 0.949 . S
C763 H758 0.950 . S
C763 C765 1.327 . S
C763 C769 1.429 . S
C764 C756 1.574 . S
C764 H759 0.949 . S
C764 C770 1.368 . S
C765 C749 1.349 . S
C765 H757 0.950 . S
C765 C763 1.327 . S
C766 C754 1.349 . S
C766 H760 0.950 . S
C766 C767 1.327 . S
C767 H761 0.950 . S
C767 C766 1.327 . S
C767 C771 1.429 . S
C768 C751 1.574 . S
C768 H762 0.949 . S
C768 C772 1.368 . S
C769 C750 1.429 . S
C769 C763 1.429 . S
C769 C770 1.523 . S
C770 C751 1.368 . S
C770 C764 1.368 . S
C770 C769 1.523 . S
C771 C755 1.429 . S
C771 C767 1.429 . S
C771 C772 1.523 . S
C772 C756 1.368 . S
C772 C768 1.368 . S
C772 C771 1.523 . S
H773 C748 0.950 . S
H774 C750 0.950 . S
H775 C751 0.949 . S
H776 C753 0.950 . S
H777 C755 0.950 . S
C778 C779 1.349 . S
C778 C780 1.327 . S
C778 H803 0.950 . S
C779 C778 1.349 . S
C779 C795 1.349 . S
C780 C778 1.327 . S
C780 C799 1.429 . S
C780 H804 0.950 . S
C781 C798 1.574 . S
C781 C800 1.368 . S
C781 H805 0.949 . S
H782 C786 0.949 . S
C783 C784 1.349 . S
C783 C785 1.327 . S
C783 H806 0.950 . S
C784 C783 1.349 . S
C784 C796 1.349 . S
C785 C783 1.327 . S
C785 C801 1.429 . S
C785 H807 0.950 . S
C786 H782 0.949 . S
C786 C794 1.574 . S
C786 C802 1.368 . S
H787 C795 0.950 . S
H788 C793 0.950 . S
H789 C794 0.949 . S
H790 C796 0.950 . S
H791 C797 0.950 . S
H792 C798 0.949 . S
C793 H788 0.950 . S
C793 C795 1.327 . S
C793 C799 1.429 . S
C794 C786 1.574 . S
C794 H789 0.949 . S
C794 C800 1.368 . S
C795 C779 1.349 . S
C795 H787 0.950 . S
C795 C793 1.327 . S
C796 C784 1.349 . S
C796 H790 0.950 . S
C796 C797 1.327 . S
C797 H791 0.950 . S
C797 C796 1.327 . S
C797 C801 1.429 . S
C798 C781 1.574 . S
C798 H792 0.949 . S
C798 C802 1.368 . S
C799 C780 1.429 . S
C799 C793 1.429 . S
C799 C800 1.523 . S
C800 C781 1.368 . S
C800 C794 1.368 . S
C800 C799 1.523 . S
C801 C785 1.429 . S
C801 C797 1.429 . S
C801 C802 1.523 . S
C802 C786 1.368 . S
C802 C798 1.368 . S
C802 C801 1.523 . S
H803 C778 0.950 . S
H804 C780 0.950 . S
H805 C781 0.949 . S
H806 C783 0.950 . S
H807 C785 0.950 . S
C808 C809 1.349 . S
C808 C810 1.327 . S
C808 H833 0.950 . S
C809 C808 1.349 . S
C809 C825 1.349 . S
C810 C808 1.327 . S
C810 C829 1.429 . S
C810 H834 0.950 . S
C811 C828 1.574 . S
C811 C830 1.368 . S
C811 H835 0.949 . S
H812 C816 0.949 . S
C813 C814 1.349 . S
C813 C815 1.327 . S
C813 H836 0.950 . S
C814 C813 1.349 . S
C814 C826 1.349 . S
C815 C813 1.327 . S
C815 C831 1.429 . S
C815 H837 0.950 . S
C816 H812 0.949 . S
C816 C824 1.574 . S
C816 C832 1.368 . S
H817 C825 0.950 . S
H818 C823 0.950 . S
H819 C824 0.949 . S
H820 C826 0.950 . S
H821 C827 0.950 . S
H822 C828 0.949 . S
C823 H818 0.950 . S
C823 C825 1.327 . S
C823 C829 1.429 . S
C824 C816 1.574 . S
C824 H819 0.949 . S
C824 C830 1.368 . S
C825 C809 1.349 . S
C825 H817 0.950 . S
C825 C823 1.327 . S
C826 C814 1.349 . S
C826 H820 0.950 . S
C826 C827 1.327 . S
C827 H821 0.950 . S
C827 C826 1.327 . S
C827 C831 1.429 . S
C828 C811 1.574 . S
C828 H822 0.949 . S
C828 C832 1.368 . S
C829 C810 1.429 . S
C829 C823 1.429 . S
C829 C830 1.523 . S
C830 C811 1.368 . S
C830 C824 1.368 . S
C830 C829 1.523 . S
C831 C815 1.429 . S
C831 C827 1.429 . S
C831 C832 1.523 . S
C832 C816 1.368 . S
C832 C828 1.368 . S
C832 C831 1.523 . S
H833 C808 0.950 . S
H834 C810 0.950 . S
H835 C811 0.949 . S
H836 C813 0.950 . S
H837 C815 0.950 . S
C838 C839 1.349 . S
C838 C840 1.327 . S
C838 H863 0.950 . S
C839 C838 1.349 . S
C839 C855 1.349 . S
C840 C838 1.327 . S
C840 C859 1.429 . S
C840 H864 0.950 . S
C841 C858 1.574 . S
C841 C860 1.368 . S
C841 H865 0.949 . S
H842 C846 0.949 . S
C843 C844 1.349 . S
C843 C845 1.327 . S
C843 H866 0.950 . S
C844 C843 1.349 . S
C844 C856 1.349 . S
C845 C843 1.327 . S
C845 C861 1.429 . S
C845 H867 0.950 . S
C846 H842 0.949 . S
C846 C854 1.574 . S
C846 C862 1.368 . S
H847 C855 0.950 . S
H848 C853 0.950 . S
H849 C854 0.949 . S
H850 C856 0.950 . S
H851 C857 0.950 . S
H852 C858 0.949 . S
C853 H848 0.950 . S
C853 C855 1.327 . S
C853 C859 1.429 . S
C854 C846 1.574 . S
C854 H849 0.949 . S
C854 C860 1.368 . S
C855 C839 1.349 . S
C855 H847 0.950 . S
C855 C853 1.327 . S
C856 C844 1.349 . S
C856 H850 0.950 . S
C856 C857 1.327 . S
C857 H851 0.950 . S
C857 C856 1.327 . S
C857 C861 1.429 . S
C858 C841 1.574 . S
C858 H852 0.949 . S
C858 C862 1.368 . S
C859 C840 1.429 . S
C859 C853 1.429 . S
C859 C860 1.523 . S
C860 C841 1.368 . S
C860 C854 1.368 . S
C860 C859 1.523 . S
C861 C845 1.429 . S
C861 C857 1.429 . S
C861 C862 1.523 . S
C862 C846 1.368 . S
C862 C858 1.368 . S
C862 C861 1.523 . S
H863 C838 0.950 . S
H864 C840 0.950 . S
H865 C841 0.949 . S
H866 C843 0.950 . S
H867 C845 0.950 . S
C868 C869 1.349 . S
C868 C870 1.327 . S
C868 H893 0.950 . S
C869 C868 1.349 . S
C869 C885 1.349 . S
C870 C868 1.327 . S
C870 C889 1.429 . S
C870 H894 0.950 . S
C871 C888 1.574 . S
C871 C890 1.368 . S
C871 H895 0.949 . S
H872 C876 0.949 . S
C873 C874 1.349 . S
C873 C875 1.327 . S
C873 H896 0.950 . S
C874 C873 1.349 . S
C874 C886 1.349 . S
C875 C873 1.327 . S
C875 C891 1.429 . S
C875 H897 0.950 . S
C876 H872 0.949 . S
C876 C884 1.574 . S
C876 C892 1.368 . S
H877 C885 0.950 . S
H878 C883 0.950 . S
H879 C884 0.949 . S
H880 C886 0.950 . S
H881 C887 0.950 . S
H882 C888 0.949 . S
C883 H878 0.950 . S
C883 C885 1.327 . S
C883 C889 1.429 . S
C884 C876 1.574 . S
C884 H879 0.949 . S
C884 C890 1.368 . S
C885 C869 1.349 . S
C885 H877 0.950 . S
C885 C883 1.327 . S
C886 C874 1.349 . S
C886 H880 0.950 . S
C886 C887 1.327 . S
C887 H881 0.950 . S
C887 C886 1.327 . S
C887 C891 1.429 . S
C888 C871 1.574 . S
C888 H882 0.949 . S
C888 C892 1.368 . S
C889 C870 1.429 . S
C889 C883 1.429 . S
C889 C890 1.523 . S
C890 C871 1.368 . S
C890 C884 1.368 . S
C890 C889 1.523 . S
C891 C875 1.429 . S
C891 C887 1.429 . S
C891 C892 1.523 . S
C892 C876 1.368 . S
C892 C888 1.368 . S
C892 C891 1.523 . S
H893 C868 0.950 . S
H894 C870 0.950 . S
H895 C871 0.949 . S
H896 C873 0.950 . S
H897 C875 0.950 . S
C898 C899 1.349 . S
C898 C900 1.327 . S
C898 H923 0.950 . S
C899 C898 1.349 . S
C899 C915 1.349 . S
C900 C898 1.327 . S
C900 C919 1.429 . S
C900 H924 0.950 . S
C901 C918 1.574 . S
C901 C920 1.368 . S
C901 H925 0.949 . S
H902 C906 0.949 . S
C903 C904 1.349 . S
C903 C905 1.327 . S
C903 H926 0.950 . S
C904 C903 1.349 . S
C904 C916 1.349 . S
C905 C903 1.327 . S
C905 C921 1.429 . S
C905 H927 0.950 . S
C906 H902 0.949 . S
C906 C914 1.574 . S
C906 C922 1.368 . S
H907 C915 0.950 . S
H908 C913 0.950 . S
H909 C914 0.949 . S
H910 C916 0.950 . S
H911 C917 0.950 . S
H912 C918 0.949 . S
C913 H908 0.950 . S
C913 C915 1.327 . S
C913 C919 1.429 . S
C914 C906 1.574 . S
C914 H909 0.949 . S
C914 C920 1.368 . S
C915 C899 1.349 . S
C915 H907 0.950 . S
C915 C913 1.327 . S
C916 C904 1.349 . S
C916 H910 0.950 . S
C916 C917 1.327 . S
C917 H911 0.950 . S
C917 C916 1.327 . S
C917 C921 1.429 . S
C918 C901 1.574 . S
C918 H912 0.949 . S
C918 C922 1.368 . S
C919 C900 1.429 . S
C919 C913 1.429 . S
C919 C920 1.523 . S
C920 C901 1.368 . S
C920 C914 1.368 . S
C920 C919 1.523 . S
C921 C905 1.429 . S
C921 C917 1.429 . S
C921 C922 1.523 . S
C922 C906 1.368 . S
C922 C918 1.368 . S
C922 C921 1.523 . S
H923 C898 0.950 . S
H924 C900 0.950 . S
H925 C901 0.949 . S
H926 C903 0.950 . S
H927 C905 0.950 . S
C928 C929 1.349 . S
C928 C930 1.327 . S
C928 H953 0.950 . S
C929 C928 1.349 . S
C929 C945 1.349 . S
C930 C928 1.327 . S
C930 C949 1.429 . S
C930 H954 0.950 . S
C931 C948 1.574 1_554 S
C931 C950 1.368 . S
C931 H955 0.949 . S
H932 C936 0.949 . S
C933 C934 1.349 . S
C933 C935 1.327 . S
C933 H956 0.950 . S
C934 C933 1.349 . S
C934 C946 1.349 . S
C935 C933 1.327 . S
C935 C951 1.429 . S
C935 H957 0.950 . S
C936 H932 0.949 . S
C936 C944 1.574 1_556 S
C936 C952 1.368 . S
H937 C945 0.950 . S
H938 C943 0.950 . S
H939 C944 0.949 . S
H940 C946 0.950 . S
H941 C947 0.950 . S
H942 C948 0.949 . S
C943 H938 0.950 . S
C943 C945 1.327 . S
C943 C949 1.429 . S
C944 C936 1.574 1_554 S
C944 H939 0.949 . S
C944 C950 1.368 . S
C945 C929 1.349 . S
C945 H937 0.950 . S
C945 C943 1.327 . S
C946 C934 1.349 . S
C946 H940 0.950 . S
C946 C947 1.327 . S
C947 H941 0.950 . S
C947 C946 1.327 . S
C947 C951 1.429 . S
C948 C931 1.574 1_556 S
C948 H942 0.949 . S
C948 C952 1.368 . S
C949 C930 1.429 . S
C949 C943 1.429 . S
C949 C950 1.523 . S
C950 C931 1.368 . S
C950 C944 1.368 . S
C950 C949 1.523 . S
C951 C935 1.429 . S
C951 C947 1.429 . S
C951 C952 1.523 . S
C952 C936 1.368 . S
C952 C948 1.368 . S
C952 C951 1.523 . S
H953 C928 0.950 . S
H954 C930 0.950 . S
H955 C931 0.949 . S
H956 C933 0.950 . S
H957 C935 0.950 . S
C958 C959 1.349 . S
C958 C960 1.327 . S
C958 H983 0.950 . S
C959 C958 1.349 . S
C959 C975 1.349 . S
C960 C958 1.327 . S
C960 C979 1.429 . S
C960 H984 0.950 . S
C961 C978 1.574 . S
C961 C980 1.368 . S
C961 H985 0.949 . S
H962 C966 0.949 . S
C963 C964 1.349 . S
C963 C965 1.327 . S
C963 H986 0.950 . S
C964 C963 1.349 . S
C964 C976 1.349 . S
C965 C963 1.327 . S
C965 C981 1.429 . S
C965 H987 0.950 . S
C966 H962 0.949 . S
C966 C974 1.574 . S
C966 C982 1.368 . S
H967 C975 0.950 . S
H968 C973 0.950 . S
H969 C974 0.949 . S
H970 C976 0.950 . S
H971 C977 0.950 . S
H972 C978 0.949 . S
C973 H968 0.950 . S
C973 C975 1.327 . S
C973 C979 1.429 . S
C974 C966 1.574 . S
C974 H969 0.949 . S
C974 C980 1.368 . S
C975 C959 1.349 . S
C975 H967 0.950 . S
C975 C973 1.327 . S
C976 C964 1.349 . S
C976 H970 0.950 . S
C976 C977 1.327 . S
C977 H971 0.950 . S
C977 C976 1.327 . S
C977 C981 1.429 . S
C978 C961 1.574 . S
C978 H972 0.949 . S
C978 C982 1.368 . S
C979 C960 1.429 . S
C979 C973 1.429 . S
C979 C980 1.523 . S
C980 C961 1.368 . S
C980 C974 1.368 . S
C980 C979 1.523 . S
C981 C965 1.429 . S
C981 C977 1.429 . S
C981 C982 1.523 . S
C982 C966 1.368 . S
C982 C978 1.368 . S
C982 C981 1.523 . S
H983 C958 0.950 . S
H984 C960 0.950 . S
H985 C961 0.949 . S
H986 C963 0.950 . S
H987 C965 0.950 . S
C988 C989 1.349 . S
C988 C990 1.327 . S
C988 H1013 0.950 . S
C989 C988 1.349 . S
C989 C1005 1.348 1_655 S
C990 C988 1.327 . S
C990 C1009 1.429 . S
C990 H1014 0.950 . S
C991 C1008 1.574 1_554 S
C991 C1010 1.347 1_455 S
C991 H1015 0.970 . S
H992 C996 0.949 . S
C993 C994 1.348 1_455 S
C993 C995 1.327 . S
C993 H1016 0.950 . S
C994 C993 1.348 1_655 S
C994 C1006 1.349 . S
C995 C993 1.327 . S
C995 C1011 1.421 1_455 S
C995 H1017 0.957 . S
C996 H992 0.949 . S
C996 C1004 1.574 1_556 S
C996 C1012 1.368 . S
H997 C1005 0.950 . S
H998 C1003 0.957 . S
H999 C1004 0.949 . S
H1000 C1006 0.950 . S
H1001 C1007 0.950 . S
H1002 C1008 0.970 . S
C1003 H998 0.957 . S
C1003 C1005 1.327 . S
C1003 C1009 1.421 1_455 S
C1004 C996 1.574 1_554 S
C1004 H999 0.949 . S
C1004 C1010 1.368 . S
C1005 C989 1.348 1_455 S
C1005 H997 0.950 . S
C1005 C1003 1.327 . S
C1006 C994 1.349 . S
C1006 H1000 0.950 . S
C1006 C1007 1.327 . S
C1007 H1001 0.950 . S
C1007 C1006 1.327 . S
C1007 C1011 1.429 . S
C1008 C991 1.574 1_556 S
C1008 H1002 0.970 . S
C1008 C1012 1.347 1_455 S
C1009 C990 1.429 . S
C1009 C1003 1.421 1_655 S
C1009 C1010 1.523 . S
C1010 C991 1.347 1_655 S
C1010 C1004 1.368 . S
C1010 C1009 1.523 . S
C1011 C995 1.421 1_655 S
C1011 C1007 1.429 . S
C1011 C1012 1.523 . S
C1012 C996 1.368 . S
C1012 C1008 1.347 1_655 S
C1012 C1011 1.523 . S
H1013 C988 0.950 . S
H1014 C990 0.950 . S
H1015 C991 0.970 . S
H1016 C993 0.950 . S
H1017 C995 0.957 . S
C1018 C1019 1.349 1_545 S
C1018 C1020 1.327 . S
C1018 H1043 0.950 . S
C1019 C1018 1.349 1_565 S
C1019 C1035 1.349 . S
C1020 C1018 1.327 . S
C1020 C1039 1.429 1_545 S
C1020 H1044 0.950 . S
C1021 C1038 1.574 . S
C1021 C1040 1.368 . S
C1021 H1045 0.949 . S
H1022 C1026 0.949 . S
C1023 C1024 1.349 . S
C1023 C1025 1.327 . S
C1023 H1046 0.950 . S
C1024 C1023 1.349 . S
C1024 C1036 1.349 1_565 S
C1025 C1023 1.327 . S
C1025 C1041 1.429 . S
C1025 H1047 0.950 . S
C1026 H1022 0.949 . S
C1026 C1034 1.574 . S
C1026 C1042 1.368 1_545 S
H1027 C1035 0.950 . S
H1028 C1033 0.950 . S
H1029 C1034 0.949 . S
H1030 C1036 0.950 . S
H1031 C1037 0.950 . S
H1032 C1038 0.949 . S
C1033 H1028 0.950 . S
C1033 C1035 1.327 . S
C1033 C1039 1.429 . S
C1034 C1026 1.574 . S
C1034 H1029 0.949 . S
C1034 C1040 1.368 1_545 S
C1035 C1019 1.349 . S
C1035 H1027 0.950 . S
C1035 C1033 1.327 . S
C1036 C1024 1.349 1_545 S
C1036 H1030 0.950 . S
C1036 C1037 1.327 . S
C1037 H1031 0.950 . S
C1037 C1036 1.327 . S
C1037 C1041 1.429 1_545 S
C1038 C1021 1.574 . S
C1038 H1032 0.949 . S
C1038 C1042 1.368 . S
C1039 C1020 1.429 1_565 S
C1039 C1033 1.429 . S
C1039 C1040 1.523 . S
C1040 C1021 1.368 . S
C1040 C1034 1.368 1_565 S
C1040 C1039 1.523 . S
C1041 C1025 1.429 . S
C1041 C1037 1.429 1_565 S
C1041 C1042 1.523 . S
C1042 C1026 1.368 1_565 S
C1042 C1038 1.368 . S
C1042 C1041 1.523 . S
H1043 C1018 0.950 . S
H1044 C1020 0.950 . S
H1045 C1021 0.949 . S
H1046 C1023 0.950 . S
H1047 C1025 0.950 . S
C1048 C1049 1.349 . S
C1048 C1050 1.327 . S
C1048 H1073 0.950 . S
C1049 C1048 1.349 . S
C1049 C1065 1.349 . S
C1050 C1048 1.327 . S
C1050 C1069 1.429 . S
C1050 H1074 0.950 . S
C1051 C1068 1.574 1_556 S
C1051 C1070 1.368 . S
C1051 H1075 0.949 . S
H1052 C1056 0.949 . S
C1053 C1054 1.349 . S
C1053 C1055 1.327 . S
C1053 H1076 0.950 . S
C1054 C1053 1.349 . S
C1054 C1066 1.349 . S
C1055 C1053 1.327 . S
C1055 C1071 1.429 . S
C1055 H1077 0.950 . S
C1056 H1052 0.949 . S
C1056 C1064 1.574 1_554 S
C1056 C1072 1.368 . S
H1057 C1065 0.950 . S
H1058 C1063 0.950 . S
H1059 C1064 0.949 . S
H1060 C1066 0.950 . S
H1061 C1067 0.950 . S
H1062 C1068 0.949 . S
C1063 H1058 0.950 . S
C1063 C1065 1.327 . S
C1063 C1069 1.429 . S
C1064 C1056 1.574 1_556 S
C1064 H1059 0.949 . S
C1064 C1070 1.368 . S
C1065 C1049 1.349 . S
C1065 H1057 0.950 . S
C1065 C1063 1.327 . S
C1066 C1054 1.349 . S
C1066 H1060 0.950 . S
C1066 C1067 1.327 . S
C1067 H1061 0.950 . S
C1067 C1066 1.327 . S
C1067 C1071 1.429 . S
C1068 C1051 1.574 1_554 S
C1068 H1062 0.949 . S
C1068 C1072 1.368 . S
C1069 C1050 1.429 . S
C1069 C1063 1.429 . S
C1069 C1070 1.523 . S
C1070 C1051 1.368 . S
C1070 C1064 1.368 . S
C1070 C1069 1.523 . S
C1071 C1055 1.429 . S
C1071 C1067 1.429 . S
C1071 C1072 1.523 . S
C1072 C1056 1.368 . S
C1072 C1068 1.368 . S
C1072 C1071 1.523 . S
H1073 C1048 0.950 . S
H1074 C1050 0.950 . S
H1075 C1051 0.949 . S
H1076 C1053 0.950 . S
H1077 C1055 0.950 . S
C1078 C1079 1.349 . S
C1078 C1080 1.327 . S
C1078 H1103 0.950 . S
C1079 C1078 1.349 . S
C1079 C1095 1.349 . S
C1080 C1078 1.327 . S
C1080 C1099 1.429 . S
C1080 H1104 0.950 . S
C1081 C1098 1.574 . S
C1081 C1100 1.368 . S
C1081 H1105 0.949 . S
H1082 C1086 0.949 . S
C1083 C1084 1.349 . S
C1083 C1085 1.327 . S
C1083 H1106 0.950 . S
C1084 C1083 1.349 . S
C1084 C1096 1.349 . S
C1085 C1083 1.327 . S
C1085 C1101 1.429 . S
C1085 H1107 0.950 . S
C1086 H1082 0.949 . S
C1086 C1094 1.574 . S
C1086 C1102 1.368 . S
H1087 C1095 0.950 . S
H1088 C1093 0.950 . S
H1089 C1094 0.949 . S
H1090 C1096 0.950 . S
H1091 C1097 0.950 . S
H1092 C1098 0.949 . S
C1093 H1088 0.950 . S
C1093 C1095 1.327 . S
C1093 C1099 1.429 . S
C1094 C1086 1.574 . S
C1094 H1089 0.949 . S
C1094 C1100 1.368 . S
C1095 C1079 1.349 . S
C1095 H1087 0.950 . S
C1095 C1093 1.327 . S
C1096 C1084 1.349 . S
C1096 H1090 0.950 . S
C1096 C1097 1.327 . S
C1097 H1091 0.950 . S
C1097 C1096 1.327 . S
C1097 C1101 1.429 . S
C1098 C1081 1.574 . S
C1098 H1092 0.949 . S
C1098 C1102 1.368 . S
C1099 C1080 1.429 . S
C1099 C1093 1.429 . S
C1099 C1100 1.523 . S
C1100 C1081 1.368 . S
C1100 C1094 1.368 . S
C1100 C1099 1.523 . S
C1101 C1085 1.429 . S
C1101 C1097 1.429 . S
C1101 C1102 1.523 . S
C1102 C1086 1.368 . S
C1102 C1098 1.368 . S
C1102 C1101 1.523 . S
H1103 C1078 0.950 . S
H1104 C1080 0.950 . S
H1105 C1081 0.949 . S
H1106 C1083 0.950 . S
H1107 C1085 0.950 . S
C1108 C1109 1.349 1_655 S
C1108 C1110 1.327 . S
C1108 H1133 0.950 . S
C1109 C1108 1.349 1_455 S
C1109 C1125 1.349 . S
C1110 C1108 1.327 . S
C1110 C1129 1.429 1_655 S
C1110 H1134 0.950 . S
C1111 C1128 1.574 1_554 S
C1111 C1130 1.368 . S
C1111 H1135 0.949 . S
H1112 C1116 0.949 . S
C1113 C1114 1.349 . S
C1113 C1115 1.327 . S
C1113 H1136 0.950 . S
C1114 C1113 1.349 . S
C1114 C1126 1.349 1_455 S
C1115 C1113 1.327 . S
C1115 C1131 1.429 . S
C1115 H1137 0.950 . S
C1116 H1112 0.949 . S
C1116 C1124 1.574 1_556 S
C1116 C1132 1.368 1_655 S
H1117 C1125 0.950 . S
H1118 C1123 0.950 . S
H1119 C1124 0.949 . S
H1120 C1126 0.950 . S
H1121 C1127 0.950 . S
H1122 C1128 0.949 . S
C1123 H1118 0.950 . S
C1123 C1125 1.327 . S
C1123 C1129 1.429 . S
C1124 C1116 1.574 1_554 S
C1124 H1119 0.949 . S
C1124 C1130 1.368 1_655 S
C1125 C1109 1.349 . S
C1125 H1117 0.950 . S
C1125 C1123 1.327 . S
C1126 C1114 1.349 1_655 S
C1126 H1120 0.950 . S
C1126 C1127 1.327 . S
C1127 H1121 0.950 . S
C1127 C1126 1.327 . S
C1127 C1131 1.429 1_655 S
C1128 C1111 1.574 1_556 S
C1128 H1122 0.949 . S
C1128 C1132 1.368 . S
C1129 C1110 1.429 1_455 S
C1129 C1123 1.429 . S
C1129 C1130 1.523 . S
C1130 C1111 1.368 . S
C1130 C1124 1.368 1_455 S
C1130 C1129 1.523 . S
C1131 C1115 1.429 . S
C1131 C1127 1.429 1_455 S
C1131 C1132 1.523 . S
C1132 C1116 1.368 1_455 S
C1132 C1128 1.368 . S
C1132 C1131 1.523 . S
H1133 C1108 0.950 . S
H1134 C1110 0.950 . S
H1135 C1111 0.949 . S
H1136 C1113 0.950 . S
H1137 C1115 0.950 . S
C1138 C1139 1.349 . S
C1138 C1140 1.327 . S
C1138 H1163 0.950 . S
C1139 C1138 1.349 . S
C1139 C1155 1.349 1_545 S
C1140 C1138 1.327 . S
C1140 C1159 1.429 . S
C1140 H1164 0.950 . S
C1141 C1158 1.574 . S
C1141 C1160 1.368 1_565 S
C1141 H1165 0.949 . S
H1142 C1146 0.949 . S
C1143 C1144 1.349 1_565 S
C1143 C1145 1.327 . S
C1143 H1166 0.950 . S
C1144 C1143 1.349 1_545 S
C1144 C1156 1.349 . S
C1145 C1143 1.327 . S
C1145 C1161 1.429 1_565 S
C1145 H1167 0.950 . S
C1146 H1142 0.949 . S
C1146 C1154 1.574 . S
C1146 C1162 1.368 . S
H1147 C1155 0.950 . S
H1148 C1153 0.950 . S
H1149 C1154 0.949 . S
H1150 C1156 0.950 . S
H1151 C1157 0.950 . S
H1152 C1158 0.949 . S
C1153 H1148 0.950 . S
C1153 C1155 1.327 . S
C1153 C1159 1.429 1_565 S
C1154 C1146 1.574 . S
C1154 H1149 0.949 . S
C1154 C1160 1.368 . S
C1155 C1139 1.349 1_565 S
C1155 H1147 0.950 . S
C1155 C1153 1.327 . S
C1156 C1144 1.349 . S
C1156 H1150 0.950 . S
C1156 C1157 1.327 . S
C1157 H1151 0.950 . S
C1157 C1156 1.327 . S
C1157 C1161 1.429 . S
C1158 C1141 1.574 . S
C1158 H1152 0.949 . S
C1158 C1162 1.368 1_565 S
C1159 C1140 1.429 . S
C1159 C1153 1.429 1_545 S
C1159 C1160 1.523 . S
C1160 C1141 1.368 1_545 S
C1160 C1154 1.368 . S
C1160 C1159 1.523 . S
C1161 C1145 1.429 1_545 S
C1161 C1157 1.429 . S
C1161 C1162 1.523 . S
C1162 C1146 1.368 . S
C1162 C1158 1.368 1_545 S
C1162 C1161 1.523 . S
H1163 C1138 0.950 . S
H1164 C1140 0.950 . S
H1165 C1141 0.949 . S
H1166 C1143 0.950 . S
H1167 C1145 0.950 . S
C209 C4 1.185 . S
C214 C95 1.185 . S
C239 C23 1.184 . S
C244 C56 1.184 . S
C269 C36 1.185 . S
C274 C75 1.185 . S
C299 C49 1.184 . S
C304 C82 1.184 . S
C329 C114 1.185 . S
C334 C205 1.185 . S
C359 C160 1.184 . S
C364 C121 1.184 . S
C389 C134 1.185 . S
C394 C179 1.185 . S
C419 C153 1.184 . S
C424 C186 1.184 . S
C449 C5 1.603 . S
C454 C127 1.611 . S
C479 C16 1.602 . S
C484 C140 1.611 . S
C509 C147 1.611 . S
C514 C29 1.603 . S
C539 C42 1.602 . S
C544 C108 1.611 . S
C569 C57 1.602 . S
C574 C199 1.611 . S
C599 C166 1.611 . S
C604 C68 1.603 . S
C629 C173 1.611 . S
C634 C83 1.602 . S
C659 C192 1.611 . S
C664 C96 1.603 . S
C689 C17 1.611 . S
C694 C107 1.603 . S
C719 C30 1.611 . S
C724 C122 1.602 . S
C749 C135 1.603 . S
C754 C43 1.611 . S
C779 C10 1.611 . S
C784 C146 1.602 . S
C809 C161 1.602 . S
C814 C101 1.611 . S
C839 C172 1.603 . S
C844 C62 1.611 . S
C869 C69 1.611 . S
C874 C187 1.602 . S
C899 C88 1.611 . S
C904 C198 1.603 . S
C929 C3 1.640 . S
C934 C55 1.640 . S
C959 C70 1.640 . S
C964 C18 1.640 . S
C989 C31 1.640 . S
C994 C81 1.640 . S
C1019 C94 1.640 . S
C1024 C44 1.640 . S
C1049 C109 1.640 . S
C1054 C159 1.640 . S
C1079 C174 1.640 . S
C1084 C120 1.640 . S
C1109 C185 1.640 . S
C1114 C133 1.640 . S
C1139 C200 1.640 . S
C1144 C148 1.640 . S
