# Generated by pormake.
# Topology ukd, (4)-cn, num edge types: 1
# Building blocks:
#     Node 0, Type 0, BuildingBlock: AZAVOO_clean_sbu_0, # of connection points: 4
#     Node 1, Type 0, BuildingBlock: AZAVOO_clean_sbu_0, # of connection points: 4
#     Node 2, Type 0, BuildingBlock: AZAVOO_clean_sbu_0, # of connection points: 4
#     Node 3, Type 0, BuildingBlock: AZAVOO_clean_sbu_0, # of connection points: 4
#     Node 4, Type 0, BuildingBlock: AZAVOO_clean_sbu_0, # of connection points: 4
#     Node 5, Type 0, BuildingBlock: AZAVOO_clean_sbu_0, # of connection points: 4
#     Node 6, Type 0, BuildingBlock: AZAVOO_clean_sbu_0, # of connection points: 4
#     Node 7, Type 0, BuildingBlock: AZAVOO_clean_sbu_0, # of connection points: 4
#     Node 8, Type 0, BuildingBlock: AZAVOO_clean_sbu_0, # of connection points: 4
#     Node 9, Type 0, BuildingBlock: AZAVOO_clean_sbu_0, # of connection points: 4
#     Node 10, Type 0, BuildingBlock: AZAVOO_clean_sbu_0, # of connection points: 4
#     Node 11, Type 0, BuildingBlock: AZAVOO_clean_sbu_0, # of connection points: 4
#     Node 12, Type 0, BuildingBlock: AZAVOO_clean_sbu_0, # of connection points: 4
#     Node 13, Type 0, BuildingBlock: AZAVOO_clean_sbu_0, # of connection points: 4
#     Node 14, Type 0, BuildingBlock: AZAVOO_clean_sbu_0, # of connection points: 4
#     Node 15, Type 0, BuildingBlock: AZAVOO_clean_sbu_0, # of connection points: 4
#     Node 16, Type 0, BuildingBlock: AZAVOO_clean_sbu_0, # of connection points: 4
#     Node 17, Type 0, BuildingBlock: AZAVOO_clean_sbu_0, # of connection points: 4
#     Node 18, Type 0, BuildingBlock: AZAVOO_clean_sbu_0, # of connection points: 4
#     Node 19, Type 0, BuildingBlock: AZAVOO_clean_sbu_0, # of connection points: 4
#     Node 20, Type 0, BuildingBlock: AZAVOO_clean_sbu_0, # of connection points: 4
#     Node 21, Type 0, BuildingBlock: AZAVOO_clean_sbu_0, # of connection points: 4
#     Node 22, Type 0, BuildingBlock: AZAVOO_clean_sbu_0, # of connection points: 4
#     Node 23, Type 0, BuildingBlock: AZAVOO_clean_sbu_0, # of connection points: 4
#     Node 24, Type 0, BuildingBlock: AZAVOO_clean_sbu_0, # of connection points: 4
#     Node 25, Type 0, BuildingBlock: AZAVOO_clean_sbu_0, # of connection points: 4
#     Node 26, Type 0, BuildingBlock: AZAVOO_clean_sbu_0, # of connection points: 4
#     Node 27, Type 0, BuildingBlock: AZAVOO_clean_sbu_0, # of connection points: 4
#     Node 28, Type 0, BuildingBlock: AZAVOO_clean_sbu_0, # of connection points: 4
#     Node 29, Type 0, BuildingBlock: AZAVOO_clean_sbu_0, # of connection points: 4
#     Node 30, Type 0, BuildingBlock: AZAVOO_clean_sbu_0, # of connection points: 4
#     Node 31, Type 0, BuildingBlock: AZAVOO_clean_sbu_0, # of connection points: 4
#     Edge 32, Type (0, 0), BuildingBlock: KIFKEQ_clean_linker_1, # of connection points: 2
#     Edge 33, Type (0, 0), BuildingBlock: KIFKEQ_clean_linker_1, # of connection points: 2
#     Edge 34, Type (0, 0), BuildingBlock: KIFKEQ_clean_linker_1, # of connection points: 2
#     Edge 35, Type (0, 0), BuildingBlock: KIFKEQ_clean_linker_1, # of connection points: 2
#     Edge 36, Type (0, 0), BuildingBlock: KIFKEQ_clean_linker_1, # of connection points: 2
#     Edge 37, Type (0, 0), BuildingBlock: KIFKEQ_clean_linker_1, # of connection points: 2
#     Edge 38, Type (0, 0), BuildingBlock: KIFKEQ_clean_linker_1, # of connection points: 2
#     Edge 39, Type (0, 0), BuildingBlock: KIFKEQ_clean_linker_1, # of connection points: 2
#     Edge 40, Type (0, 0), BuildingBlock: KIFKEQ_clean_linker_1, # of connection points: 2
#     Edge 41, Type (0, 0), BuildingBlock: KIFKEQ_clean_linker_1, # of connection points: 2
#     Edge 42, Type (0, 0), BuildingBlock: KIFKEQ_clean_linker_1, # of connection points: 2
#     Edge 43, Type (0, 0), BuildingBlock: KIFKEQ_clean_linker_1, # of connection points: 2
#     Edge 44, Type (0, 0), BuildingBlock: KIFKEQ_clean_linker_1, # of connection points: 2
#     Edge 45, Type (0, 0), BuildingBlock: KIFKEQ_clean_linker_1, # of connection points: 2
#     Edge 46, Type (0, 0), BuildingBlock: KIFKEQ_clean_linker_1, # of connection points: 2
#     Edge 47, Type (0, 0), BuildingBlock: KIFKEQ_clean_linker_1, # of connection points: 2
#     Edge 48, Type (0, 0), BuildingBlock: KIFKEQ_clean_linker_1, # of connection points: 2
#     Edge 49, Type (0, 0), BuildingBlock: KIFKEQ_clean_linker_1, # of connection points: 2
#     Edge 50, Type (0, 0), BuildingBlock: KIFKEQ_clean_linker_1, # of connection points: 2
#     Edge 51, Type (0, 0), BuildingBlock: KIFKEQ_clean_linker_1, # of connection points: 2
#     Edge 52, Type (0, 0), BuildingBlock: KIFKEQ_clean_linker_1, # of connection points: 2
#     Edge 53, Type (0, 0), BuildingBlock: KIFKEQ_clean_linker_1, # of connection points: 2
#     Edge 54, Type (0, 0), BuildingBlock: KIFKEQ_clean_linker_1, # of connection points: 2
#     Edge 55, Type (0, 0), BuildingBlock: KIFKEQ_clean_linker_1, # of connection points: 2
#     Edge 56, Type (0, 0), BuildingBlock: KIFKEQ_clean_linker_1, # of connection points: 2
#     Edge 57, Type (0, 0), BuildingBlock: KIFKEQ_clean_linker_1, # of connection points: 2
#     Edge 58, Type (0, 0), BuildingBlock: KIFKEQ_clean_linker_1, # of connection points: 2
#     Edge 59, Type (0, 0), BuildingBlock: KIFKEQ_clean_linker_1, # of connection points: 2
#     Edge 60, Type (0, 0), BuildingBlock: KIFKEQ_clean_linker_1, # of connection points: 2
#     Edge 61, Type (0, 0), BuildingBlock: KIFKEQ_clean_linker_1, # of connection points: 2
#     Edge 62, Type (0, 0), BuildingBlock: KIFKEQ_clean_linker_1, # of connection points: 2
#     Edge 63, Type (0, 0), BuildingBlock: KIFKEQ_clean_linker_1, # of connection points: 2
#     Edge 64, Type (0, 0), BuildingBlock: KIFKEQ_clean_linker_1, # of connection points: 2
#     Edge 65, Type (0, 0), BuildingBlock: KIFKEQ_clean_linker_1, # of connection points: 2
#     Edge 66, Type (0, 0), BuildingBlock: KIFKEQ_clean_linker_1, # of connection points: 2
#     Edge 67, Type (0, 0), BuildingBlock: KIFKEQ_clean_linker_1, # of connection points: 2
#     Edge 68, Type (0, 0), BuildingBlock: KIFKEQ_clean_linker_1, # of connection points: 2
#     Edge 69, Type (0, 0), BuildingBlock: KIFKEQ_clean_linker_1, # of connection points: 2
#     Edge 70, Type (0, 0), BuildingBlock: KIFKEQ_clean_linker_1, # of connection points: 2
#     Edge 71, Type (0, 0), BuildingBlock: KIFKEQ_clean_linker_1, # of connection points: 2
#     Edge 72, Type (0, 0), BuildingBlock: KIFKEQ_clean_linker_1, # of connection points: 2
#     Edge 73, Type (0, 0), BuildingBlock: KIFKEQ_clean_linker_1, # of connection points: 2
#     Edge 74, Type (0, 0), BuildingBlock: KIFKEQ_clean_linker_1, # of connection points: 2
#     Edge 75, Type (0, 0), BuildingBlock: KIFKEQ_clean_linker_1, # of connection points: 2
#     Edge 76, Type (0, 0), BuildingBlock: KIFKEQ_clean_linker_1, # of connection points: 2
#     Edge 77, Type (0, 0), BuildingBlock: KIFKEQ_clean_linker_1, # of connection points: 2
#     Edge 78, Type (0, 0), BuildingBlock: KIFKEQ_clean_linker_1, # of connection points: 2
#     Edge 79, Type (0, 0), BuildingBlock: KIFKEQ_clean_linker_1, # of connection points: 2
#     Edge 80, Type (0, 0), BuildingBlock: KIFKEQ_clean_linker_1, # of connection points: 2
#     Edge 81, Type (0, 0), BuildingBlock: KIFKEQ_clean_linker_1, # of connection points: 2
#     Edge 82, Type (0, 0), BuildingBlock: KIFKEQ_clean_linker_1, # of connection points: 2
#     Edge 83, Type (0, 0), BuildingBlock: KIFKEQ_clean_linker_1, # of connection points: 2
#     Edge 84, Type (0, 0), BuildingBlock: KIFKEQ_clean_linker_1, # of connection points: 2
#     Edge 85, Type (0, 0), BuildingBlock: KIFKEQ_clean_linker_1, # of connection points: 2
#     Edge 86, Type (0, 0), BuildingBlock: KIFKEQ_clean_linker_1, # of connection points: 2
#     Edge 87, Type (0, 0), BuildingBlock: KIFKEQ_clean_linker_1, # of connection points: 2
#     Edge 88, Type (0, 0), BuildingBlock: KIFKEQ_clean_linker_1, # of connection points: 2
#     Edge 89, Type (0, 0), BuildingBlock: KIFKEQ_clean_linker_1, # of connection points: 2
#     Edge 90, Type (0, 0), BuildingBlock: KIFKEQ_clean_linker_1, # of connection points: 2
#     Edge 91, Type (0, 0), BuildingBlock: KIFKEQ_clean_linker_1, # of connection points: 2
#     Edge 92, Type (0, 0), BuildingBlock: KIFKEQ_clean_linker_1, # of connection points: 2
#     Edge 93, Type (0, 0), BuildingBlock: KIFKEQ_clean_linker_1, # of connection points: 2
#     Edge 94, Type (0, 0), BuildingBlock: KIFKEQ_clean_linker_1, # of connection points: 2
#     Edge 95, Type (0, 0), BuildingBlock: KIFKEQ_clean_linker_1, # of connection points: 2
# Relax obj value: 0.164
# Max RMSD: 0.196
# Mean RMSD: 0.196
data_MOF--net-ukd--node1-AZAVOO_clean_sbu_0--edge1-KIFKEQ_clean_linker_1
_symmetry_space_group_name_H-M    P1
_symmetry_Int_Tables_number       1
_symmetry_cell_setting            triclinic
loop_
_symmetry_equiv_pos_as_xyz
'x, y, z'
_cell_length_a     41.952315
_cell_length_b     41.951753
_cell_length_c     81.246321
_cell_angle_alpha  89.957149
_cell_angle_beta   90.024124
_cell_angle_gamma 90.018897
loop_
_atom_site_label
_atom_site_type_symbol
_atom_site_fract_x
_atom_site_fract_y
_atom_site_fract_z
_atom_type_partial_charge
Mg0 Mg 0.24797 0.26141 0.34765 0.0
O1 O 0.20606 0.22663 0.34799 0.0
O2 O 0.16169 0.25202 0.34029 0.0
Mg3 Mg 0.17538 0.30385 0.33468 0.0
C4 C 0.17619 0.22682 0.34497 0.0
C5 C 0.29196 0.21059 0.36467 0.0
O6 O 0.28025 0.22496 0.37769 0.0
O7 O 0.24891 0.25837 0.31947 0.0
O8 O 0.20535 0.28666 0.31305 0.0
O9 O 0.2352 0.27744 0.37344 0.0
O10 O 0.21719 0.29954 0.35063 0.0
C11 C 0.23008 0.27088 0.30888 0.0
C12 C 0.21695 0.29824 0.36638 0.0
O13 O 0.28302 0.21968 0.35045 0.0
Mg14 Mg 0.99528 0.9883 0.59995 0.0
O15 O 0.03207 0.94832 0.59731 0.0
O16 O 0.00795 0.90442 0.58789 0.0
Mg17 Mg 0.95488 0.91596 0.58488 0.0
C18 C 0.0329 0.91925 0.59264 0.0
C19 C 0.03374 0.04609 0.6141 0.0
O20 O 0.00792 0.04739 0.62322 0.0
O21 O 0.99511 0.99385 0.57191 0.0
O22 O 0.9678 0.95049 0.56419 0.0
O23 O 0.98333 0.97179 0.62566 0.0
O24 O 0.96002 0.95413 0.60305 0.0
C25 C 0.98215 0.97653 0.56081 0.0
C26 C 0.96379 0.95211 0.61869 0.0
O27 O 0.03575 0.02465 0.60308 0.0
Mg28 Mg 0.25902 0.7423 0.84402 0.0
O29 O 0.30008 0.77826 0.84374 0.0
O30 O 0.34544 0.75379 0.83681 0.0
Mg31 Mg 0.33315 0.70141 0.83218 0.0
C32 C 0.33001 0.77882 0.84086 0.0
C33 C 0.20247 0.78303 0.85733 0.0
O34 O 0.20132 0.75824 0.86721 0.0
O35 O 0.25849 0.74334 0.81588 0.0
O36 O 0.30364 0.71732 0.80996 0.0
O37 O 0.27096 0.7294 0.87017 0.0
O38 O 0.29134 0.7058 0.84822 0.0
C39 C 0.27832 0.73186 0.80549 0.0
C40 C 0.2908 0.70915 0.86392 0.0
O41 O 0.22343 0.78363 0.84602 0.0
Mg42 Mg 0.50538 0.01478 0.09701 0.0
O43 O 0.46724 0.05401 0.09693 0.0
O44 O 0.48891 0.09947 0.08786 0.0
Mg45 Mg 0.54134 0.08964 0.08218 0.0
C46 C 0.46507 0.08351 0.09313 0.0
C47 C 0.47345 0.95144 0.10856 0.0
O48 O 0.50295 0.94703 0.11351 0.0
O49 O 0.50117 0.01172 0.06898 0.0
O50 O 0.52464 0.05732 0.06133 0.0
O51 O 0.52121 0.02893 0.12248 0.0
O52 O 0.5402 0.04952 0.09943 0.0
C53 C 0.51074 0.03109 0.05786 0.0
C54 C 0.53911 0.04977 0.11522 0.0
O55 O 0.46655 0.97706 0.10098 0.0
Mg56 Mg 0.24916 0.74614 0.14607 0.0
O57 O 0.20486 0.77845 0.14511 0.0
O58 O 0.16269 0.74965 0.15303 0.0
Mg59 Mg 0.1799 0.70004 0.16038 0.0
C60 C 0.17501 0.77571 0.14796 0.0
C61 C 0.30802 0.78281 0.13423 0.0
O62 O 0.31387 0.75315 0.13001 0.0
O63 O 0.25059 0.75202 0.17413 0.0
O64 O 0.20789 0.72308 0.18126 0.0
O65 O 0.23704 0.72761 0.12077 0.0
O66 O 0.2208 0.70589 0.14405 0.0
C67 C 0.23169 0.74062 0.18501 0.0
C68 C 0.21996 0.70639 0.12827 0.0
O69 O 0.282 0.789 0.14162 0.0
Mg70 Mg 0.50711 0.99045 0.39371 0.0
O71 O 0.46992 0.95086 0.39643 0.0
O72 O 0.49359 0.90652 0.40561 0.0
Mg73 Mg 0.54684 0.91748 0.4084 0.0
C74 C 0.46876 0.92175 0.40103 0.0
C75 C 0.46669 0.04632 0.37885 0.0
O76 O 0.48992 0.04486 0.36803 0.0
O77 O 0.50785 0.99562 0.4217 0.0
O78 O 0.53459 0.95181 0.42927 0.0
O79 O 0.51837 0.97408 0.36791 0.0
O80 O 0.54193 0.95605 0.3904 0.0
C81 C 0.52064 0.97801 0.43273 0.0
C82 C 0.53788 0.95422 0.37478 0.0
O83 O 0.46704 0.02726 0.39104 0.0
Mg84 Mg 0.25285 0.25599 0.65312 0.0
O85 O 0.29415 0.22054 0.65101 0.0
O86 O 0.33927 0.24426 0.65902 0.0
Mg87 Mg 0.32667 0.29486 0.66715 0.0
C88 C 0.32419 0.22001 0.65359 0.0
C89 C 0.21251 0.20362 0.63476 0.0
O90 O 0.22979 0.21418 0.62243 0.0
O91 O 0.25258 0.24861 0.68108 0.0
O92 O 0.29783 0.27333 0.68821 0.0
O93 O 0.2651 0.27514 0.62793 0.0
O94 O 0.28449 0.29381 0.65126 0.0
C95 C 0.27274 0.25768 0.69194 0.0
C96 C 0.28434 0.29435 0.63548 0.0
O97 O 0.21677 0.21554 0.649 0.0
Mg98 Mg 0.99008 0.00284 0.88997 0.0
O99 O 0.02378 0.0456 0.89247 0.0
O100 O 0.99543 0.08778 0.90077 0.0
Mg101 Mg 0.94352 0.07213 0.90383 0.0
C102 C 0.02182 0.07493 0.89659 0.0
C103 C 0.04443 0.96266 0.87349 0.0
O104 O 0.03272 0.97734 0.86054 0.0
O105 O 0.98953 0.99839 0.91806 0.0
O106 O 0.95937 0.04021 0.92515 0.0
O107 O 0.9784 0.01842 0.86414 0.0
O108 O 0.95192 0.03352 0.88632 0.0
C109 C 0.97557 0.01549 0.92892 0.0
C110 C 0.95652 0.0359 0.87076 0.0
O111 O 0.03264 0.96862 0.88759 0.0
Mg112 Mg 0.75066 0.74493 0.6492 0.0
O113 O 0.79641 0.77481 0.64952 0.0
O114 O 0.83697 0.74367 0.65725 0.0
Mg115 Mg 0.81701 0.69393 0.66262 0.0
C116 C 0.82592 0.77068 0.65275 0.0
C117 C 0.69674 0.7873 0.63614 0.0
O118 O 0.69092 0.75939 0.62944 0.0
O119 O 0.74913 0.74814 0.67735 0.0
O120 O 0.789 0.71508 0.68405 0.0
O121 O 0.76225 0.72838 0.62349 0.0
O122 O 0.77684 0.70354 0.64623 0.0
C123 C 0.76628 0.73376 0.68808 0.0
C124 C 0.77792 0.7055 0.63049 0.0
O125 O 0.72067 0.79002 0.64566 0.0
Mg126 Mg 0.00563 0.01123 0.40121 0.0
O127 O 0.97075 0.05321 0.39985 0.0
O128 O 0.99506 0.09705 0.40922 0.0
Mg129 Mg 0.04584 0.08328 0.41655 0.0
C130 C 0.97064 0.0829 0.40334 0.0
C131 C 0.95308 0.97143 0.38243 0.0
O132 O 0.96422 0.98814 0.37002 0.0
O133 O 0.99864 0.00914 0.42917 0.0
O134 O 0.02455 0.05315 0.4372 0.0
O135 O 0.02498 0.02462 0.37621 0.0
O136 O 0.04387 0.04233 0.39985 0.0
C137 C 0.00842 0.0281 0.44043 0.0
C138 C 0.0446 0.04296 0.38407 0.0
O139 O 0.96468 0.97593 0.39672 0.0
Mg140 Mg 0.75286 0.25727 0.14908 0.0
O141 O 0.70809 0.22554 0.14885 0.0
O142 O 0.66652 0.25509 0.15686 0.0
Mg143 Mg 0.68454 0.30467 0.16362 0.0
C144 C 0.67838 0.22873 0.15195 0.0
C145 C 0.79256 0.20581 0.13023 0.0
O146 O 0.78061 0.2223 0.11795 0.0
O147 O 0.75497 0.25201 0.17721 0.0
O148 O 0.71272 0.28147 0.1844 0.0
O149 O 0.74007 0.27528 0.12373 0.0
O150 O 0.72465 0.29789 0.14687 0.0
C151 C 0.73636 0.26371 0.18813 0.0
C152 C 0.72325 0.2968 0.1311 0.0
O153 O 0.78506 0.21354 0.14488 0.0
Mg154 Mg 0.48966 0.99949 0.89827 0.0
O155 O 0.52502 0.95822 0.89856 0.0
O156 O 0.50066 0.91359 0.90673 0.0
Mg157 Mg 0.44864 0.92684 0.91217 0.0
C158 C 0.52553 0.92852 0.90195 0.0
C159 C 0.5501 0.03303 0.88308 0.0
O160 O 0.54634 0.01009 0.87225 0.0
O161 O 0.49297 0.00162 0.92632 0.0
O162 O 0.46584 0.95779 0.93353 0.0
O163 O 0.47403 0.98557 0.87265 0.0
O164 O 0.45213 0.96796 0.89562 0.0
C165 C 0.4813 0.98301 0.93725 0.0
C166 C 0.45351 0.9672 0.87986 0.0
O167 O 0.53091 0.03482 0.89517 0.0
Mg168 Mg 0.75448 0.26013 0.85002 0.0
O169 O 0.79788 0.22727 0.84932 0.0
O170 O 0.84013 0.25469 0.84034 0.0
Mg171 Mg 0.82371 0.30598 0.83545 0.0
C172 C 0.8273 0.22885 0.84539 0.0
C173 C 0.71804 0.2036 0.86731 0.0
O174 O 0.73435 0.21438 0.87994 0.0
O175 O 0.75143 0.25692 0.8219 0.0
O176 O 0.79296 0.28724 0.81445 0.0
O177 O 0.76877 0.2765 0.87555 0.0
O178 O 0.78373 0.2995 0.85239 0.0
C179 C 0.76875 0.27015 0.81087 0.0
C180 C 0.7855 0.29807 0.86811 0.0
O181 O 0.72153 0.21695 0.85336 0.0
Mg182 Mg 0.49324 0.00763 0.59202 0.0
O183 O 0.53006 0.04764 0.59417 0.0
O184 O 0.5086 0.0936 0.58579 0.0
Mg185 Mg 0.45759 0.08265 0.57755 0.0
C186 C 0.53207 0.07754 0.5914 0.0
C187 C 0.54733 0.96995 0.61027 0.0
O188 O 0.5404 0.99123 0.62157 0.0
O189 O 0.5013 0.00682 0.56421 0.0
O190 O 0.47827 0.0527 0.55663 0.0
O191 O 0.47352 0.02021 0.61697 0.0
O192 O 0.45647 0.04041 0.59347 0.0
C193 C 0.49312 0.02699 0.55317 0.0
C194 C 0.45499 0.03987 0.60924 0.0
O195 O 0.53242 0.97064 0.59663 0.0
Mg196 Mg 0.74925 0.74393 0.34739 0.0
O197 O 0.70378 0.7743 0.34659 0.0
O198 O 0.66272 0.74347 0.33921 0.0
Mg199 Mg 0.68226 0.6937 0.33389 0.0
C200 C 0.67418 0.77045 0.34345 0.0
C201 C 0.80123 0.7882 0.36167 0.0
O202 O 0.805 0.76191 0.37025 0.0
O203 O 0.75155 0.74666 0.31923 0.0
O204 O 0.71006 0.71557 0.31261 0.0
O205 O 0.73652 0.728 0.37311 0.0
O206 O 0.72236 0.7029 0.3504 0.0
C207 C 0.73335 0.73353 0.30855 0.0
C208 C 0.72068 0.70524 0.36611 0.0
O209 O 0.77956 0.78902 0.35071 0.0
Mg210 Mg 0.00235 0.98757 0.08901 0.0
O211 O 0.96464 0.94801 0.09003 0.0
O212 O 0.98598 0.90231 0.08116 0.0
Mg213 Mg 0.03789 0.91239 0.07435 0.0
C214 C 0.96242 0.91834 0.08667 0.0
C215 C 0.96391 0.04232 0.10611 0.0
O216 O 0.98781 0.0391 0.11643 0.0
O217 O 0.99626 0.98954 0.06097 0.0
O218 O 0.01954 0.94381 0.05348 0.0
O219 O 0.01987 0.97437 0.11436 0.0
O220 O 0.03766 0.95306 0.09127 0.0
C221 C 0.00524 0.96977 0.04992 0.0
C222 C 0.03745 0.95335 0.10708 0.0
O223 O 0.96317 0.02495 0.09327 0.0
Mg224 Mg 0.74649 0.76449 0.84854 0.0
O225 O 0.70339 0.73099 0.84909 0.0
O226 O 0.66024 0.75697 0.84005 0.0
Mg227 Mg 0.67584 0.80767 0.83352 0.0
C228 C 0.67374 0.73183 0.84554 0.0
C229 C 0.80849 0.72839 0.8575 0.0
O230 O 0.81767 0.75833 0.85796 0.0
O231 O 0.74897 0.75846 0.82045 0.0
O232 O 0.70564 0.78609 0.81296 0.0
O233 O 0.73293 0.7828 0.87367 0.0
O234 O 0.71664 0.80364 0.85018 0.0
C235 C 0.7301 0.76938 0.8094 0.0
C236 C 0.71543 0.80337 0.86595 0.0
O237 O 0.77983 0.7222 0.85349 0.0
Mg238 Mg 0.49661 0.48873 0.0899 0.0
O239 O 0.53348 0.44878 0.0917 0.0
O240 O 0.51158 0.40328 0.08299 0.0
Mg241 Mg 0.45998 0.4141 0.07549 0.0
C242 C 0.53526 0.41899 0.08865 0.0
C243 C 0.54826 0.52896 0.10857 0.0
O244 O 0.53922 0.50963 0.12041 0.0
O245 O 0.50361 0.49002 0.06188 0.0
O246 O 0.47819 0.44529 0.05447 0.0
O247 O 0.47735 0.47552 0.11502 0.0
O248 O 0.4598 0.45596 0.09153 0.0
C249 C 0.49328 0.4708 0.05086 0.0
C250 C 0.45857 0.45615 0.10729 0.0
O251 O 0.53572 0.52602 0.09438 0.0
Mg252 Mg 0.75229 0.24574 0.34848 0.0
O253 O 0.79558 0.27869 0.34798 0.0
O254 O 0.83928 0.25107 0.34144 0.0
Mg255 Mg 0.82324 0.19952 0.33687 0.0
C256 C 0.82551 0.27718 0.34527 0.0
C257 C 0.69708 0.28796 0.3611 0.0
O258 O 0.69364 0.26181 0.36983 0.0
O259 O 0.75173 0.2465 0.32033 0.0
O260 O 0.79454 0.21662 0.31458 0.0
O261 O 0.76406 0.23294 0.3746 0.0
O262 O 0.78165 0.20676 0.35278 0.0
C263 C 0.77041 0.23298 0.31002 0.0
C264 C 0.78182 0.21075 0.36844 0.0
O265 O 0.71944 0.28924 0.35054 0.0
Mg266 Mg 0.00441 0.51037 0.59994 0.0
O267 O 0.96711 0.5503 0.59865 0.0
O268 O 0.99058 0.59536 0.59027 0.0
Mg269 Mg 0.04335 0.58454 0.58615 0.0
C270 C 0.96591 0.57983 0.59481 0.0
C271 C 0.96653 0.45207 0.61392 0.0
O272 O 0.99215 0.45137 0.62322 0.0
O273 O 0.00327 0.50734 0.57181 0.0
O274 O 0.0283 0.55251 0.56483 0.0
O275 O 0.01764 0.52478 0.62582 0.0
O276 O 0.03965 0.54442 0.60328 0.0
C277 C 0.01434 0.52652 0.56097 0.0
C278 C 0.03681 0.54503 0.619 0.0
O279 O 0.96436 0.47338 0.60282 0.0
Mg280 Mg 0.75304 0.23498 0.6511 0.0
O281 O 0.71077 0.26942 0.64988 0.0
O282 O 0.66631 0.24412 0.65758 0.0
Mg283 Mg 0.68039 0.19327 0.66469 0.0
C284 C 0.68079 0.26911 0.65261 0.0
C285 C 0.79202 0.2891 0.63327 0.0
O286 O 0.77533 0.27822 0.62079 0.0
O287 O 0.75344 0.24068 0.67915 0.0
O288 O 0.70892 0.21431 0.68594 0.0
O289 O 0.74078 0.21696 0.62567 0.0
O290 O 0.7224 0.19646 0.6488 0.0
C291 C 0.7336 0.23041 0.68988 0.0
C292 C 0.72227 0.19678 0.63302 0.0
O293 O 0.78791 0.27673 0.64743 0.0
Mg294 Mg 0.00831 0.49858 0.89368 0.0
O295 O 0.97398 0.45654 0.89587 0.0
O296 O 0.99986 0.41365 0.90523 0.0
Mg297 Mg 0.05168 0.42887 0.90974 0.0
C298 C 0.9744 0.42733 0.90028 0.0
C299 C 0.96591 0.56027 0.89483 0.0
O300 O 0.98926 0.56902 0.90462 0.0
O301 O 0.00546 0.50462 0.92172 0.0
O302 O 0.03419 0.46241 0.92984 0.0
O303 O 0.02393 0.48138 0.86856 0.0
O304 O 0.04665 0.46774 0.89201 0.0
C305 C 0.01827 0.48761 0.93302 0.0
C306 C 0.04512 0.46474 0.87634 0.0
O307 O 0.96631 0.53234 0.88876 0.0
Mg308 Mg 0.74707 0.75813 0.14807 0.0
O309 O 0.79083 0.72592 0.1476 0.0
O310 O 0.83417 0.75317 0.15513 0.0
Mg311 Mg 0.81753 0.80405 0.16094 0.0
C312 C 0.82068 0.72738 0.15051 0.0
C313 C 0.69323 0.71566 0.13386 0.0
O314 O 0.68946 0.74228 0.12555 0.0
O315 O 0.74671 0.75419 0.1762 0.0
O316 O 0.78893 0.78449 0.18258 0.0
O317 O 0.75843 0.77481 0.12236 0.0
O318 O 0.77572 0.79797 0.14506 0.0
C319 C 0.76516 0.76728 0.18677 0.0
C320 C 0.77583 0.79649 0.12929 0.0
O321 O 0.71513 0.71427 0.14468 0.0
Mg322 Mg 0.49268 0.51197 0.3994 0.0
O323 O 0.52952 0.55223 0.39979 0.0
O324 O 0.50639 0.5972 0.4084 0.0
Mg325 Mg 0.45446 0.58527 0.41449 0.0
C326 C 0.53077 0.58186 0.40334 0.0
C327 C 0.54543 0.47159 0.38134 0.0
O328 O 0.53621 0.48983 0.36909 0.0
O329 O 0.49656 0.50822 0.42742 0.0
O330 O 0.47227 0.55324 0.4353 0.0
O331 O 0.47634 0.52755 0.37411 0.0
O332 O 0.45605 0.54476 0.39751 0.0
C333 C 0.48665 0.5272 0.43863 0.0
C334 C 0.45665 0.54612 0.38175 0.0
O335 O 0.53253 0.47524 0.39539 0.0
Mg336 Mg 0.24765 0.24745 0.14842 0.0
O337 O 0.29146 0.27979 0.14685 0.0
O338 O 0.33501 0.2531 0.1546 0.0
Mg339 Mg 0.31853 0.20316 0.16214 0.0
C340 C 0.32145 0.27846 0.14946 0.0
C341 C 0.19335 0.28917 0.13359 0.0
O342 O 0.18933 0.26227 0.12557 0.0
O343 O 0.24745 0.25371 0.17642 0.0
O344 O 0.29096 0.22577 0.18331 0.0
O345 O 0.2588 0.22838 0.12313 0.0
O346 O 0.27629 0.20744 0.14638 0.0
C347 C 0.26693 0.24285 0.18718 0.0
C348 C 0.27625 0.20739 0.13059 0.0
O349 O 0.21552 0.29094 0.14424 0.0
Mg350 Mg 0.51039 0.50556 0.89086 0.0
O351 O 0.47638 0.54832 0.89228 0.0
O352 O 0.50372 0.59115 0.90055 0.0
Mg353 Mg 0.55504 0.57548 0.9054 0.0
C354 C 0.4778 0.57789 0.89596 0.0
C355 C 0.47239 0.44208 0.88879 0.0
O356 O 0.50052 0.43194 0.89362 0.0
O357 O 0.50856 0.50109 0.91894 0.0
O358 O 0.53634 0.54435 0.92639 0.0
O359 O 0.52411 0.5208 0.86536 0.0
O360 O 0.54899 0.53599 0.88808 0.0
C361 C 0.52049 0.5193 0.92998 0.0
C362 C 0.54569 0.53811 0.87241 0.0
O363 O 0.46804 0.47189 0.88704 0.0
Mg364 Mg 0.25134 0.75309 0.64485 0.0
O365 O 0.20629 0.72215 0.64631 0.0
O366 O 0.16615 0.75257 0.65527 0.0
Mg367 Mg 0.18546 0.80277 0.66002 0.0
C368 C 0.17711 0.72578 0.65041 0.0
C369 C 0.31093 0.70931 0.64572 0.0
O370 O 0.3208 0.73397 0.65428 0.0
O371 O 0.25579 0.7497 0.67295 0.0
O372 O 0.21622 0.78228 0.68061 0.0
O373 O 0.23702 0.76948 0.61946 0.0
O374 O 0.2239 0.79386 0.64253 0.0
C375 C 0.23961 0.76398 0.68407 0.0
C376 C 0.22144 0.79196 0.62683 0.0
O377 O 0.28235 0.70902 0.6405 0.0
Mg378 Mg 0.99414 0.49449 0.40087 0.0
O379 O 0.02956 0.45321 0.40145 0.0
O380 O 0.00516 0.40902 0.41025 0.0
Mg381 Mg 0.95327 0.42242 0.41584 0.0
C382 C 0.03 0.42365 0.40519 0.0
C383 C 0.04554 0.53541 0.38235 0.0
O384 O 0.03318 0.51966 0.36993 0.0
O385 O 0.99818 0.49796 0.42894 0.0
O386 O 0.97089 0.4545 0.4366 0.0
O387 O 0.97765 0.4793 0.37553 0.0
O388 O 0.95649 0.46276 0.39886 0.0
C389 C 0.98645 0.4798 0.44007 0.0
C390 C 0.95735 0.46128 0.38311 0.0
O391 O 0.03509 0.53001 0.3968 0.0
Mg392 Mg 0.25098 0.76034 0.34546 0.0
O393 O 0.29446 0.72771 0.34547 0.0
O394 O 0.33784 0.75491 0.33795 0.0
Mg395 Mg 0.32149 0.80607 0.33251 0.0
C396 C 0.32428 0.72908 0.34246 0.0
C397 C 0.19854 0.71719 0.36045 0.0
O398 O 0.19712 0.74258 0.36988 0.0
O399 O 0.24982 0.75739 0.31728 0.0
O400 O 0.29221 0.78745 0.31089 0.0
O401 O 0.26321 0.77622 0.37123 0.0
O402 O 0.27997 0.79985 0.34855 0.0
C403 C 0.26816 0.77065 0.30669 0.0
C404 C 0.28045 0.79803 0.3643 0.0
O405 O 0.21854 0.71676 0.34869 0.0
Mg406 Mg 0.99111 0.51361 0.09267 0.0
O407 O 0.02787 0.55386 0.0937 0.0
O408 O 0.00515 0.59948 0.08571 0.0
Mg409 Mg 0.95345 0.58818 0.07881 0.0
C410 C 0.02929 0.58373 0.09076 0.0
C411 C 0.04411 0.4736 0.11053 0.0
O412 O 0.0355 0.49264 0.12256 0.0
O413 O 0.99652 0.51247 0.06463 0.0
O414 O 0.9723 0.55806 0.05758 0.0
O415 O 0.97345 0.52696 0.11806 0.0
O416 O 0.95433 0.54615 0.09478 0.0
C417 C 0.987 0.53246 0.05377 0.0
C418 C 0.95412 0.54614 0.11055 0.0
O419 O 0.03077 0.47662 0.09654 0.0
Mg420 Mg 0.24511 0.24029 0.852 0.0
O421 O 0.20346 0.27518 0.8495 0.0
O422 O 0.15986 0.24898 0.84129 0.0
Mg423 Mg 0.17394 0.19656 0.83815 0.0
C424 C 0.17404 0.27469 0.84544 0.0
C425 C 0.30958 0.27759 0.85357 0.0
O426 O 0.31981 0.24914 0.84936 0.0
O427 O 0.24955 0.24009 0.82393 0.0
O428 O 0.20658 0.2114 0.81695 0.0
O429 O 0.22983 0.22864 0.87782 0.0
O430 O 0.21317 0.20323 0.85556 0.0
C431 C 0.23188 0.22667 0.81312 0.0
C432 C 0.21143 0.20751 0.87117 0.0
O433 O 0.27975 0.28211 0.85506 0.0
Mg434 Mg 0.51024 0.48711 0.59805 0.0
O435 O 0.47448 0.4462 0.59837 0.0
O436 O 0.49705 0.4017 0.58889 0.0
Mg437 Mg 0.54859 0.41464 0.58209 0.0
C438 C 0.47305 0.41671 0.59464 0.0
C439 C 0.47625 0.55083 0.6069 0.0
O440 O 0.50616 0.56006 0.60638 0.0
O441 O 0.50378 0.49117 0.5701 0.0
O442 O 0.52997 0.44746 0.56187 0.0
O443 O 0.52892 0.47177 0.62289 0.0
O444 O 0.54781 0.45518 0.59906 0.0
C445 C 0.51459 0.47303 0.55873 0.0
C446 C 0.54845 0.45373 0.61482 0.0
O447 O 0.46965 0.52195 0.60359 0.0
H448 H 0.08896 0.44787 0.39842 0.0
H449 H 0.03969 0.35906 0.4076 0.0
H450 H 0.13768 0.4186 0.39264 0.0
H451 H 0.08857 0.32974 0.40148 0.0
H452 H 0.18888 0.28687 0.39649 0.0
H453 H 0.14581 0.31818 0.4092 0.0
H454 H 0.15056 0.38528 0.36889 0.0
H455 H 0.19307 0.35455 0.35648 0.0
C456 C 0.08852 0.42211 0.39931 0.0
C457 C 0.06022 0.4058 0.40319 0.0
C458 C 0.11649 0.40535 0.39601 0.0
C459 C 0.11686 0.37187 0.39643 0.0
C460 C 0.08908 0.35555 0.40118 0.0
C461 C 0.06101 0.37236 0.40454 0.0
C462 C 0.181 0.30866 0.3906 0.0
C463 C 0.19412 0.31826 0.37549 0.0
C464 C 0.15629 0.3264 0.39777 0.0
C465 C 0.14486 0.35421 0.39004 0.0
C466 C 0.15907 0.36427 0.37529 0.0
C467 C 0.18329 0.3465 0.36811 0.0
H468 H 0.92292 0.95576 0.64472 0.0
H469 H 0.9704 0.88934 0.61255 0.0
H470 H 0.89092 0.91184 0.65616 0.0
H471 H 0.9389 0.84576 0.62381 0.0
H472 H 0.89115 0.76985 0.65395 0.0
H473 H 0.92761 0.81427 0.64933 0.0
H474 H 0.84755 0.87775 0.64302 0.0
H475 H 0.81097 0.83347 0.64769 0.0
C476 C 0.92698 0.93166 0.64042 0.0
C477 C 0.94885 0.92575 0.62774 0.0
C478 C 0.9086 0.90666 0.64683 0.0
C479 C 0.91235 0.87542 0.64081 0.0
C480 C 0.93563 0.86948 0.62879 0.0
C481 C 0.95352 0.89444 0.62225 0.0
C482 C 0.88127 0.79332 0.65174 0.0
C483 C 0.8481 0.79799 0.651 0.0
C484 C 0.90218 0.81874 0.6491 0.0
C485 C 0.89041 0.84944 0.64581 0.0
C486 C 0.85731 0.85442 0.64572 0.0
C487 C 0.83636 0.82895 0.64822 0.0
H488 H 0.41965 0.56024 0.88366 0.0
H489 H 0.46965 0.64019 0.90514 0.0
H490 H 0.37289 0.59356 0.87963 0.0
H491 H 0.42249 0.6733 0.90147 0.0
H492 H 0.35156 0.72849 0.86763 0.0
H493 H 0.39585 0.69699 0.87826 0.0
H494 H 0.32993 0.62267 0.89252 0.0
H495 H 0.28573 0.65424 0.88135 0.0
C496 C 0.42056 0.5848 0.88773 0.0
C497 C 0.44858 0.59759 0.89456 0.0
C498 C 0.39359 0.60386 0.88555 0.0
C499 C 0.39392 0.63614 0.89021 0.0
C500 C 0.42158 0.64864 0.89755 0.0
C501 C 0.44861 0.62962 0.89967 0.0
C502 C 0.3466 0.70578 0.87344 0.0
C503 C 0.31549 0.69371 0.87384 0.0
C504 C 0.37189 0.68773 0.87958 0.0
C505 C 0.36649 0.65716 0.88615 0.0
C506 C 0.33493 0.64593 0.88734 0.0
C507 C 0.30962 0.66407 0.88117 0.0
H508 H 0.53292 0.11305 0.11042 0.0
H509 H 0.58226 0.04365 0.14017 0.0
H510 H 0.56558 0.15541 0.12199 0.0
H511 H 0.6154 0.08638 0.15194 0.0
H512 H 0.61334 0.22808 0.15396 0.0
H513 H 0.57747 0.18374 0.14843 0.0
H514 H 0.65813 0.12254 0.13906 0.0
H515 H 0.6943 0.16687 0.14465 0.0
C516 C 0.55058 0.10699 0.11961 0.0
C517 C 0.55535 0.07523 0.12434 0.0
C518 C 0.56911 0.13125 0.12634 0.0
C519 C 0.59312 0.12416 0.13781 0.0
C520 C 0.59716 0.09242 0.14303 0.0
C521 C 0.57813 0.0681 0.13644 0.0
C522 C 0.62355 0.20514 0.15087 0.0
C523 C 0.65675 0.20117 0.14956 0.0
C524 C 0.60294 0.17976 0.14771 0.0
C525 C 0.61502 0.14976 0.14328 0.0
C526 C 0.64819 0.14535 0.14261 0.0
C527 C 0.66887 0.17084 0.14565 0.0
H528 H 0.1959 0.65065 0.13921 0.0
H529 H 0.19153 0.71592 0.09815 0.0
H530 H 0.15228 0.62003 0.12768 0.0
H531 H 0.14763 0.68466 0.08631 0.0
H532 H 0.04143 0.64779 0.08803 0.0
H533 H 0.09106 0.67558 0.09423 0.0
H534 H 0.13639 0.58558 0.10515 0.0
H535 H 0.08676 0.5578 0.09931 0.0
C536 C 0.18589 0.65814 0.12753 0.0
C537 C 0.19692 0.68579 0.11963 0.0
C538 C 0.16102 0.64042 0.12085 0.0
C539 C 0.14643 0.64993 0.10609 0.0
C540 C 0.15827 0.67692 0.09778 0.0
C541 C 0.18351 0.69464 0.10446 0.0
C542 C 0.06204 0.63388 0.09164 0.0
C543 C 0.05993 0.60058 0.09341 0.0
C544 C 0.09057 0.64982 0.09503 0.0
C545 C 0.1176 0.6328 0.10026 0.0
C546 C 0.11584 0.59941 0.10137 0.0
C547 C 0.08735 0.58349 0.09802 0.0
H548 H 0.58128 0.95751 0.34989 0.0
H549 H 0.52793 0.89159 0.37987 0.0
H550 H 0.61308 0.913 0.33902 0.0
H551 H 0.5593 0.8474 0.36922 0.0
H552 H 0.60912 0.77086 0.34072 0.0
H553 H 0.57317 0.81593 0.34439 0.0
H554 H 0.65376 0.87779 0.35293 0.0
H555 H 0.68986 0.83288 0.34914 0.0
C556 C 0.57586 0.9334 0.35378 0.0
C557 C 0.55235 0.92774 0.36569 0.0
C558 C 0.59414 0.90805 0.34772 0.0
C559 C 0.58877 0.87676 0.35336 0.0
C560 C 0.56386 0.87114 0.36453 0.0
C561 C 0.54599 0.89643 0.3707 0.0
C562 C 0.61926 0.7941 0.34323 0.0
C563 C 0.6524 0.79814 0.34482 0.0
C564 C 0.59862 0.81991 0.34533 0.0
C565 C 0.61065 0.85036 0.34895 0.0
C566 C 0.64381 0.85468 0.34995 0.0
C567 C 0.66446 0.82884 0.34795 0.0
H568 H 0.30948 0.28571 0.60449 0.0
H569 H 0.31303 0.34733 0.64702 0.0
H570 H 0.35318 0.31627 0.5919 0.0
H571 H 0.35622 0.37737 0.63465 0.0
H572 H 0.41616 0.44181 0.60449 0.0
H573 H 0.36747 0.41346 0.61145 0.0
H574 H 0.412 0.32422 0.59839 0.0
H575 H 0.46092 0.35264 0.59116 0.0
C576 C 0.31924 0.30601 0.611 0.0
C577 C 0.30799 0.31412 0.62674 0.0
C578 C 0.34433 0.32331 0.60388 0.0
C579 C 0.35806 0.34923 0.61228 0.0
C580 C 0.34592 0.35782 0.62775 0.0
C581 C 0.32129 0.34044 0.63489 0.0
C582 C 0.41562 0.41617 0.60295 0.0
C583 C 0.44269 0.39946 0.59751 0.0
C584 C 0.38766 0.39994 0.60694 0.0
C585 C 0.38603 0.36661 0.60562 0.0
C586 C 0.4125 0.34996 0.59943 0.0
C587 C 0.44059 0.36623 0.59541 0.0
H588 H 0.89735 0.03484 0.85765 0.0
H589 H 0.97938 0.09497 0.86501 0.0
H590 H 0.86638 0.08097 0.84853 0.0
H591 H 0.94838 0.14152 0.85664 0.0
H592 H 0.88791 0.21906 0.83377 0.0
H593 H 0.92012 0.17087 0.83609 0.0
H594 H 0.84366 0.1248 0.86269 0.0
H595 H 0.81124 0.17235 0.85989 0.0
C596 C 0.90887 0.05792 0.85687 0.0
C597 C 0.94067 0.06156 0.86172 0.0
C598 C 0.89111 0.0844 0.8519 0.0
C599 C 0.90471 0.1151 0.85208 0.0
C600 C 0.93718 0.11828 0.85616 0.0
C601 C 0.955 0.09169 0.86094 0.0
C602 C 0.87795 0.19858 0.84005 0.0
C603 C 0.84701 0.19964 0.84668 0.0
C604 C 0.89645 0.17095 0.84141 0.0
C605 C 0.88449 0.14383 0.84952 0.0
C606 C 0.85345 0.14491 0.85603 0.0
C607 C 0.83491 0.17238 0.85457 0.0
H608 H 0.90695 0.55428 0.6006 0.0
H609 H 0.95498 0.64395 0.59191 0.0
H610 H 0.85718 0.58271 0.60524 0.0
H611 H 0.90533 0.67234 0.59695 0.0
H612 H 0.80742 0.71624 0.60077 0.0
H613 H 0.84998 0.6839 0.58848 0.0
H614 H 0.84045 0.61563 0.62805 0.0
H615 H 0.79813 0.64734 0.63999 0.0
C616 C 0.90689 0.58003 0.59958 0.0
C617 C 0.9351 0.59685 0.59615 0.0
C618 C 0.87835 0.59632 0.60223 0.0
C619 C 0.87737 0.6298 0.60161 0.0
C620 C 0.90518 0.64653 0.59735 0.0
C621 C 0.93374 0.63023 0.59462 0.0
C622 C 0.81403 0.69393 0.60655 0.0
C623 C 0.79976 0.6844 0.62138 0.0
C624 C 0.83849 0.67556 0.59961 0.0
C625 C 0.84868 0.64727 0.60733 0.0
C626 C 0.833 0.63704 0.62166 0.0
C627 C 0.80889 0.65539 0.62859 0.0
H628 H 0.11189 0.21727 0.34084 0.0
H629 H 0.19873 0.16875 0.35486 0.0
H630 H 0.08128 0.16954 0.34768 0.0
H631 H 0.16812 0.1212 0.36147 0.0
H632 H 0.09802 0.06968 0.39637 0.0
H633 H 0.13048 0.11151 0.38437 0.0
H634 H 0.07127 0.11111 0.34086 0.0
H635 H 0.03829 0.06875 0.35306 0.0
C636 C 0.12452 0.19636 0.34516 0.0
C637 C 0.15775 0.19707 0.34754 0.0
C638 C 0.10697 0.16894 0.34894 0.0
C639 C 0.12229 0.14176 0.35522 0.0
C640 C 0.15563 0.14197 0.35685 0.0
C641 C 0.17316 0.16926 0.35305 0.0
C642 C 0.09202 0.07825 0.38417 0.0
C643 C 0.06553 0.0661 0.37568 0.0
C644 C 0.1108 0.10207 0.37724 0.0
C645 C 0.10348 0.11454 0.36166 0.0
C646 C 0.07735 0.10197 0.35293 0.0
C647 C 0.05865 0.07768 0.35984 0.0
H648 H 0.54785 0.35501 0.0859 0.0
H649 H 0.59148 0.44471 0.09934 0.0
H650 H 0.59647 0.32706 0.09382 0.0
H651 H 0.64012 0.41679 0.10692 0.0
H652 H 0.69656 0.35149 0.14206 0.0
H653 H 0.65349 0.38173 0.12968 0.0
H654 H 0.65382 0.31834 0.08778 0.0
H655 H 0.69701 0.28744 0.10047 0.0
C656 C 0.5679 0.36884 0.09034 0.0
C657 C 0.56555 0.4021 0.09218 0.0
C658 C 0.59586 0.3528 0.09475 0.0
C659 C 0.62207 0.36968 0.10109 0.0
C660 C 0.62016 0.40305 0.1023 0.0
C661 C 0.59225 0.41906 0.09792 0.0
C662 C 0.68767 0.3441 0.13014 0.0
C663 C 0.69995 0.31694 0.1223 0.0
C664 C 0.66313 0.36163 0.12297 0.0
C665 C 0.65018 0.35243 0.10775 0.0
C666 C 0.66315 0.32583 0.0996 0.0
C667 C 0.68799 0.30831 0.10678 0.0
H668 H 0.39785 0.94208 0.89004 0.0
H669 H 0.46487 0.93929 0.84973 0.0
H670 H 0.36743 0.8993 0.87759 0.0
H671 H 0.43394 0.89592 0.83705 0.0
H672 H 0.39447 0.78924 0.83865 0.0
H673 H 0.42325 0.83834 0.84492 0.0
H674 H 0.3339 0.88653 0.8536 0.0
H675 H 0.30509 0.83757 0.84759 0.0
C676 C 0.40585 0.93252 0.87836 0.0
C677 C 0.4338 0.94386 0.87088 0.0
C678 C 0.38824 0.90815 0.87116 0.0
C679 C 0.39824 0.89429 0.85632 0.0
C680 C 0.42578 0.90615 0.84853 0.0
C681 C 0.44332 0.93101 0.8557 0.0
C682 C 0.38092 0.8104 0.84169 0.0
C683 C 0.34747 0.80928 0.8429 0.0
C684 C 0.39743 0.8386 0.84514 0.0
C685 C 0.38082 0.86617 0.84988 0.0
C686 C 0.34735 0.86549 0.8502 0.0
C687 C 0.33085 0.83739 0.84677 0.0
H688 H 0.91419 0.45038 0.89595 0.0
H689 H 0.9664 0.36252 0.90281 0.0
H690 H 0.86528 0.42022 0.89212 0.0
H691 H 0.9173 0.33226 0.89856 0.0
H692 H 0.81809 0.28671 0.897 0.0
H693 H 0.86201 0.31894 0.90826 0.0
H694 H 0.8489 0.38736 0.86904 0.0
H695 H 0.80552 0.35576 0.8581 0.0
C696 C 0.91525 0.42462 0.89671 0.0
C697 C 0.94436 0.40884 0.89938 0.0
C698 C 0.88717 0.40734 0.89453 0.0
C699 C 0.88749 0.37385 0.89485 0.0
C700 C 0.91624 0.35805 0.89838 0.0
C701 C 0.94441 0.3754 0.90066 0.0
C702 C 0.82429 0.30901 0.89108 0.0
C703 C 0.80859 0.31873 0.87666 0.0
C704 C 0.84951 0.32728 0.89742 0.0
C705 C 0.85891 0.3557 0.88954 0.0
C706 C 0.84205 0.36589 0.87557 0.0
C707 C 0.81729 0.34763 0.86921 0.0
H708 H 0.38781 0.20828 0.65848 0.0
H709 H 0.30139 0.16494 0.63995 0.0
H710 H 0.41805 0.16147 0.64992 0.0
H711 H 0.33168 0.11818 0.63159 0.0
H712 H 0.45886 0.06074 0.64129 0.0
H713 H 0.42577 0.10193 0.65434 0.0
H714 H 0.37168 0.11159 0.60936 0.0
H715 H 0.40425 0.07086 0.59649 0.0
C716 C 0.37518 0.18868 0.65276 0.0
C717 C 0.34221 0.19059 0.6497 0.0
C718 C 0.3925 0.16176 0.648 0.0
C719 C 0.37724 0.1363 0.64001 0.0
C720 C 0.34411 0.13765 0.63756 0.0
C721 C 0.32677 0.16445 0.64237 0.0
C722 C 0.43965 0.0715 0.63432 0.0
C723 C 0.43424 0.06279 0.61787 0.0
C724 C 0.42086 0.0951 0.64173 0.0
C725 C 0.39611 0.10987 0.63286 0.0
C726 C 0.39028 0.10039 0.61658 0.0
C727 C 0.40916 0.07723 0.60917 0.0
H728 H 0.69907 0.64757 0.35664 0.0
H729 H 0.69047 0.7171 0.39554 0.0
H730 H 0.65573 0.61697 0.36841 0.0
H731 H 0.64691 0.68582 0.4077 0.0
H732 H 0.54179 0.64619 0.40538 0.0
H733 H 0.59133 0.67442 0.39955 0.0
H734 H 0.63885 0.58452 0.39127 0.0
H735 H 0.58928 0.55631 0.39667 0.0
C736 C 0.68821 0.65601 0.36792 0.0
C737 C 0.69793 0.68484 0.3751 0.0
C738 C 0.66349 0.6383 0.37476 0.0
C739 C 0.64778 0.64896 0.38899 0.0
C740 C 0.6584 0.67716 0.39664 0.0
C741 C 0.68346 0.6949 0.38979 0.0
C742 C 0.56287 0.63241 0.40246 0.0
C743 C 0.5614 0.59899 0.40122 0.0
C744 C 0.59136 0.64861 0.39927 0.0
C745 C 0.61898 0.63173 0.39483 0.0
C746 C 0.61785 0.59825 0.39439 0.0
C747 C 0.58939 0.58208 0.39749 0.0
H748 H 0.19181 0.83723 0.14032 0.0
H749 H 0.10988 0.77678 0.14875 0.0
H750 H 0.15632 0.88143 0.13339 0.0
H751 H 0.07469 0.82096 0.14187 0.0
H752 H 0.07967 0.96041 0.13241 0.0
H753 H 0.11246 0.91827 0.14502 0.0
H754 H 0.06522 0.84808 0.11472 0.0
H755 H 0.03289 0.88982 0.10233 0.0
C756 C 0.1663 0.83341 0.14085 0.0
C757 C 0.15373 0.80331 0.1449 0.0
C758 C 0.146 0.85883 0.13703 0.0
C759 C 0.11279 0.85456 0.13705 0.0
C760 C 0.10023 0.82483 0.14164 0.0
C761 C 0.12044 0.79953 0.14558 0.0
C762 C 0.07612 0.93585 0.12871 0.0
C763 C 0.05415 0.92824 0.11629 0.0
C764 C 0.09493 0.91187 0.1358 0.0
C765 C 0.09143 0.87995 0.13079 0.0
C766 C 0.06833 0.8724 0.11891 0.0
C767 C 0.05004 0.89632 0.11168 0.0
H768 H 0.68649 0.79399 0.89598 0.0
H769 H 0.69091 0.85851 0.8546 0.0
H770 H 0.64248 0.82544 0.90761 0.0
H771 H 0.64735 0.88938 0.86597 0.0
H772 H 0.58396 0.95313 0.89434 0.0
H773 H 0.63305 0.92428 0.88889 0.0
H774 H 0.58541 0.83527 0.89932 0.0
H775 H 0.53613 0.86418 0.90509 0.0
C776 C 0.67843 0.81513 0.88954 0.0
C777 C 0.69193 0.82377 0.87437 0.0
C778 C 0.65317 0.83294 0.89611 0.0
C779 C 0.64148 0.85987 0.8877 0.0
C780 C 0.65602 0.86905 0.87287 0.0
C781 C 0.68085 0.8512 0.86629 0.0
C782 C 0.5839 0.92744 0.89563 0.0
C783 C 0.55591 0.91095 0.89991 0.0
C784 C 0.61209 0.91091 0.89251 0.0
C785 C 0.61301 0.8775 0.89354 0.0
C786 C 0.58549 0.86104 0.89856 0.0
C787 C 0.5572 0.87761 0.90172 0.0
H788 H 0.46336 0.43263 0.13889 0.0
H789 H 0.40626 0.42793 0.0947 0.0
H790 H 0.4294 0.39149 0.15155 0.0
H791 H 0.37283 0.38744 0.10717 0.0
H792 H 0.30128 0.33606 0.13769 0.0
H793 H 0.3337 0.38183 0.13009 0.0
H794 H 0.41846 0.33203 0.14579 0.0
H795 H 0.38603 0.28602 0.15358 0.0
C796 C 0.44343 0.42309 0.13199 0.0
C797 C 0.4375 0.43332 0.1158 0.0
C798 C 0.42417 0.39952 0.13917 0.0
C799 C 0.39842 0.38641 0.13035 0.0
C800 C 0.3922 0.39736 0.11436 0.0
C801 C 0.41154 0.42041 0.10716 0.0
C802 C 0.32678 0.33484 0.13968 0.0
C803 C 0.34107 0.30712 0.14603 0.0
C804 C 0.34533 0.36111 0.13533 0.0
C805 C 0.3786 0.36038 0.13724 0.0
C806 C 0.39284 0.33332 0.14429 0.0
C807 C 0.37425 0.30689 0.14861 0.0
H808 H 0.95418 0.14044 0.41668 0.0
H809 H 0.92055 0.06743 0.38347 0.0
H810 H 0.9059 0.17125 0.41168 0.0
H811 H 0.87314 0.09874 0.37783 0.0
H812 H 0.78052 0.14851 0.37669 0.0
H813 H 0.82448 0.11714 0.3879 0.0
H814 H 0.88165 0.20279 0.39132 0.0
H815 H 0.83676 0.23403 0.38101 0.0
C816 C 0.93654 0.13106 0.40824 0.0
C817 C 0.94122 0.10152 0.40044 0.0
C818 C 0.90888 0.14878 0.40532 0.0
C819 C 0.88545 0.13758 0.39436 0.0
C820 C 0.89018 0.1079 0.38665 0.0
C821 C 0.91758 0.09 0.38975 0.0
C822 C 0.80221 0.16056 0.38041 0.0
C823 C 0.80535 0.19353 0.37832 0.0
C824 C 0.82758 0.14263 0.38657 0.0
C825 C 0.85694 0.15726 0.39028 0.0
C826 C 0.85939 0.19066 0.38883 0.0
C827 C 0.83373 0.20864 0.38295 0.0
H828 H 0.19189 0.66376 0.64307 0.0
H829 H 0.11251 0.72509 0.65527 0.0
H830 H 0.15522 0.61925 0.63936 0.0
H831 H 0.07601 0.68041 0.65168 0.0
H832 H 0.02637 0.60807 0.61589 0.0
H833 H 0.05905 0.65122 0.62668 0.0
H834 H 0.1161 0.58282 0.65343 0.0
H835 H 0.08297 0.5394 0.64242 0.0
C836 C 0.16669 0.66771 0.64512 0.0
C837 C 0.15514 0.69815 0.64926 0.0
C838 C 0.14572 0.64209 0.64317 0.0
C839 C 0.11274 0.64636 0.64522 0.0
C840 C 0.10129 0.67648 0.6499 0.0
C841 C 0.12225 0.70207 0.65195 0.0
C842 C 0.04544 0.60238 0.62436 0.0
C843 C 0.05229 0.57062 0.62835 0.0
C844 C 0.06408 0.62706 0.63062 0.0
C845 C 0.09026 0.6204 0.64084 0.0
C846 C 0.09619 0.5886 0.64548 0.0
C847 C 0.07715 0.56385 0.63934 0.0
H848 H 0.58802 0.05098 0.60187 0.0
H849 H 0.54549 0.14137 0.5887 0.0
H850 H 0.63735 0.07812 0.609 0.0
H851 H 0.59485 0.16854 0.59617 0.0
H852 H 0.69472 0.14276 0.64406 0.0
H853 H 0.65119 0.11314 0.63178 0.0
H854 H 0.65262 0.17609 0.58966 0.0
H855 H 0.69649 0.20634 0.60224 0.0
C856 C 0.58916 0.07662 0.60044 0.0
C857 C 0.56259 0.09401 0.59491 0.0
C858 C 0.61748 0.09217 0.60453 0.0
C859 C 0.61992 0.12549 0.60325 0.0
C860 C 0.59381 0.14281 0.59713 0.0
C861 C 0.56543 0.12724 0.59301 0.0
C862 C 0.68604 0.15013 0.63209 0.0
C863 C 0.69883 0.17698 0.62415 0.0
C864 C 0.66122 0.13297 0.62498 0.0
C865 C 0.64843 0.14226 0.60975 0.0
C866 C 0.66188 0.16854 0.60148 0.0
C867 C 0.68709 0.18567 0.60859 0.0
H868 H 0.10935 0.28284 0.84252 0.0
H869 H 0.19721 0.33496 0.84968 0.0
H870 H 0.07912 0.33194 0.84658 0.0
H871 H 0.16702 0.3839 0.8534 0.0
H872 H 0.10181 0.44342 0.88718 0.0
H873 H 0.13338 0.39976 0.87653 0.0
H874 H 0.06643 0.38753 0.8366 0.0
H875 H 0.03425 0.43178 0.84752 0.0
C876 C 0.12225 0.30481 0.84468 0.0
C877 C 0.15569 0.30484 0.84609 0.0
C878 C 0.10492 0.33298 0.84686 0.0
C879 C 0.12069 0.3617 0.85046 0.0
C880 C 0.15418 0.36201 0.8509 0.0
C881 C 0.17147 0.33393 0.84879 0.0
C882 C 0.09395 0.43173 0.876 0.0
C883 C 0.0655 0.44084 0.86822 0.0
C884 C 0.11222 0.40684 0.86981 0.0
C885 C 0.10246 0.39024 0.85569 0.0
C886 C 0.07442 0.39988 0.84755 0.0
C887 C 0.05617 0.42525 0.85371 0.0
H888 H 0.90569 0.94471 0.09614 0.0
H889 H 0.94954 0.85452 0.08387 0.0
H890 H 0.85652 0.91709 0.10319 0.0
H891 H 0.90048 0.82694 0.09126 0.0
H892 H 0.80095 0.7865 0.09844 0.0
H893 H 0.8432 0.81776 0.08511 0.0
H894 H 0.84337 0.88284 0.12632 0.0
H895 H 0.80136 0.85222 0.13934 0.0
C896 C 0.90484 0.91903 0.09486 0.0
C897 C 0.93176 0.90181 0.08967 0.0
C898 C 0.87663 0.90321 0.0989 0.0
C899 C 0.8747 0.86981 0.09791 0.0
C900 C 0.9011 0.8527 0.092 0.0
C901 C 0.92933 0.86854 0.08791 0.0
C902 C 0.80969 0.80784 0.10443 0.0
C903 C 0.79813 0.81681 0.11997 0.0
C904 C 0.83396 0.82558 0.09688 0.0
C905 C 0.84665 0.85273 0.10469 0.0
C906 C 0.8339 0.86233 0.11987 0.0
C907 C 0.80999 0.84458 0.12741 0.0
H908 H 0.40246 0.57226 0.39323 0.0
H909 H 0.46568 0.57373 0.35129 0.0
H910 H 0.3706 0.61424 0.381 0.0
H911 H 0.43331 0.61642 0.33887 0.0
H912 H 0.3893 0.7223 0.33978 0.0
H913 H 0.42103 0.67512 0.34648 0.0
H914 H 0.33482 0.62265 0.35686 0.0
H915 H 0.30313 0.66948 0.35037 0.0
C916 C 0.40942 0.58145 0.38129 0.0
C917 C 0.43661 0.56983 0.37323 0.0
C918 C 0.39099 0.60536 0.37423 0.0
C919 C 0.39938 0.61849 0.35895 0.0
C920 C 0.42639 0.60669 0.35069 0.0
C921 C 0.44474 0.58223 0.35772 0.0
C922 C 0.37709 0.70059 0.3433 0.0
C923 C 0.34367 0.69989 0.34482 0.0
C924 C 0.39528 0.67353 0.347 0.0
C925 C 0.38037 0.64536 0.35233 0.0
C926 C 0.34695 0.6442 0.353 0.0
C927 C 0.32881 0.6711 0.34929 0.0
H928 H 0.40787 0.05728 0.10203 0.0
H929 H 0.45194 0.14699 0.08893 0.0
H930 H 0.35803 0.08493 0.10763 0.0
H931 H 0.40222 0.17461 0.09487 0.0
H932 H 0.30253 0.21521 0.09982 0.0
H933 H 0.34533 0.18304 0.0876 0.0
H934 H 0.3432 0.12055 0.1299 0.0
H935 H 0.3007 0.15207 0.14182 0.0
C936 C 0.40693 0.08285 0.10025 0.0
C937 C 0.43409 0.09995 0.09527 0.0
C938 C 0.37834 0.09869 0.10346 0.0
C939 C 0.37626 0.13198 0.10182 0.0
C940 C 0.40294 0.14891 0.09609 0.0
C941 C 0.43155 0.13306 0.09284 0.0
C942 C 0.31085 0.19419 0.10626 0.0
C943 C 0.29855 0.18625 0.1218 0.0
C944 C 0.33544 0.17594 0.09936 0.0
C945 C 0.3477 0.14931 0.10781 0.0
C946 C 0.3341 0.14063 0.12295 0.0
C947 C 0.30989 0.15889 0.12986 0.0
H948 H 0.60823 0.53878 0.86489 0.0
H949 H 0.52209 0.59429 0.86156 0.0
H950 H 0.63943 0.58466 0.85583 0.0
H951 H 0.55314 0.64098 0.8534 0.0
H952 H 0.61642 0.7173 0.83128 0.0
H953 H 0.58547 0.66846 0.83439 0.0
H954 H 0.65639 0.63197 0.86815 0.0
H955 H 0.68783 0.67998 0.86442 0.0
C956 C 0.59602 0.56077 0.86184 0.0
C957 C 0.56293 0.56314 0.8636 0.0
C958 C 0.61384 0.5872 0.85691 0.0
C959 C 0.59894 0.61681 0.85415 0.0
C960 C 0.56546 0.61859 0.85522 0.0
C961 C 0.5476 0.5919 0.85985 0.0
C962 C 0.62537 0.69876 0.83934 0.0
C963 C 0.65457 0.7025 0.84761 0.0
C964 C 0.60759 0.67077 0.84115 0.0
C965 C 0.61841 0.64606 0.85145 0.0
C966 C 0.64759 0.65002 0.85977 0.0
C967 C 0.66555 0.67775 0.85777 0.0
H968 H 0.19112 0.78182 0.59725 0.0
H969 H 0.2 0.84912 0.63718 0.0
H970 H 0.14814 0.81428 0.58536 0.0
H971 H 0.15731 0.88092 0.62563 0.0
H972 H 0.09219 0.94391 0.59835 0.0
H973 H 0.14158 0.91477 0.60285 0.0
H974 H 0.09248 0.82598 0.59377 0.0
H975 H 0.04312 0.85513 0.58889 0.0
C976 C 0.18426 0.80376 0.6033 0.0
C977 C 0.19865 0.81285 0.61819 0.0
C978 C 0.15958 0.82219 0.59659 0.0
C979 C 0.1493 0.85015 0.60457 0.0
C980 C 0.16487 0.85981 0.61903 0.0
C981 C 0.18918 0.84139 0.62575 0.0
C982 C 0.09195 0.91821 0.5971 0.0
C983 C 0.06355 0.90183 0.59353 0.0
C984 C 0.12028 0.90151 0.59969 0.0
C985 C 0.12085 0.86805 0.59886 0.0
C986 C 0.09289 0.85177 0.59437 0.0
C987 C 0.06453 0.8685 0.59171 0.0
H988 H 0.96739 0.43218 0.35315 0.0
H989 H 0.90186 0.43704 0.39406 0.0
H990 H 0.93507 0.38925 0.34094 0.0
H991 H 0.87002 0.39481 0.38203 0.0
H992 H 0.80405 0.33733 0.35168 0.0
H993 H 0.83551 0.38459 0.35765 0.0
H994 H 0.92208 0.33137 0.34942 0.0
H995 H 0.8906 0.28379 0.34324 0.0
C996 C 0.94591 0.42441 0.35937 0.0
C997 C 0.93714 0.43778 0.37455 0.0
C998 C 0.9276 0.39981 0.35247 0.0
C999 C 0.89999 0.38882 0.36052 0.0
C1000 C 0.89089 0.40303 0.37542 0.0
C1001 C 0.90928 0.42709 0.38237 0.0
C1002 C 0.82977 0.33564 0.35095 0.0
C1003 C 0.84479 0.30655 0.34724 0.0
C1004 C 0.84778 0.36278 0.35436 0.0
C1005 C 0.88122 0.36155 0.35415 0.0
C1006 C 0.89632 0.33303 0.34957 0.0
C1007 C 0.87826 0.30574 0.34616 0.0
H1008 H 0.30299 0.85528 0.35488 0.0
H1009 H 0.30879 0.78641 0.39429 0.0
H1010 H 0.34529 0.88622 0.36739 0.0
H1011 H 0.35155 0.81791 0.4071 0.0
H1012 H 0.45774 0.85763 0.40434 0.0
H1013 H 0.40802 0.82925 0.39913 0.0
H1014 H 0.36002 0.91893 0.39094 0.0
H1015 H 0.40973 0.94733 0.39578 0.0
C1016 C 0.31302 0.84705 0.36641 0.0
C1017 C 0.30281 0.81835 0.37356 0.0
C1018 C 0.33711 0.86495 0.37367 0.0
C1019 C 0.35177 0.85455 0.38825 0.0
C1020 C 0.34076 0.8264 0.39581 0.0
C1021 C 0.31622 0.80852 0.38857 0.0
C1022 C 0.43648 0.87135 0.40168 0.0
C1023 C 0.43787 0.90473 0.40015 0.0
C1024 C 0.40792 0.85506 0.39883 0.0
C1025 C 0.3802 0.87184 0.39445 0.0
C1026 C 0.38114 0.90532 0.39401 0.0
C1027 C 0.40966 0.92158 0.39678 0.0
H1028 H 0.96255 0.5726 0.14131 0.0
H1029 H 0.89971 0.57193 0.09918 0.0
H1030 H 0.92981 0.61478 0.15392 0.0
H1031 H 0.86746 0.61336 0.1116 0.0
H1032 H 0.79969 0.6679 0.14229 0.0
H1033 H 0.83149 0.62122 0.13573 0.0
H1034 H 0.91756 0.67368 0.14643 0.0
H1035 H 0.88571 0.72072 0.1532 0.0
C1036 C 0.94157 0.58112 0.1349 0.0
C1037 C 0.93367 0.56915 0.11927 0.0
C1038 C 0.92303 0.60529 0.14203 0.0
C1039 C 0.89605 0.6172 0.13375 0.0
C1040 C 0.88783 0.6044 0.11838 0.0
C1041 C 0.90646 0.5808 0.11122 0.0
C1042 C 0.82536 0.66956 0.14342 0.0
C1043 C 0.84015 0.6983 0.14801 0.0
C1044 C 0.84356 0.64273 0.13968 0.0
C1045 C 0.87697 0.64393 0.14043 0.0
C1046 C 0.89181 0.67205 0.14585 0.0
C1047 C 0.87356 0.69904 0.14959 0.0
H1048 H 0.15047 0.22702 0.87345 0.0
H1049 H 0.21468 0.15221 0.8883 0.0
H1050 H 0.10508 0.19521 0.88254 0.0
H1051 H 0.1694 0.12035 0.89795 0.0
H1052 H 0.08122 0.05811 0.88575 0.0
H1053 H 0.12813 0.0918 0.88342 0.0
H1054 H 0.07589 0.17042 0.90465 0.0
H1055 H 0.02858 0.13693 0.9066 0.0
C1056 C 0.15479 0.20415 0.87922 0.0
C1057 C 0.18579 0.192 0.88037 0.0
C1058 C 0.12887 0.1859 0.88446 0.0
C1059 C 0.13357 0.15508 0.89086 0.0
C1060 C 0.16495 0.1438 0.89286 0.0
C1061 C 0.19087 0.16209 0.88756 0.0
C1062 C 0.07974 0.0825 0.89005 0.0
C1063 C 0.05099 0.09487 0.89621 0.0
C1064 C 0.10679 0.10177 0.88885 0.0
C1065 C 0.1058 0.13384 0.89385 0.0
C1066 C 0.07734 0.14593 0.9005 0.0
C1067 C 0.05023 0.12669 0.90164 0.0
H1068 H 0.60144 0.4273 0.60198 0.0
H1069 H 0.5427 0.42685 0.64563 0.0
H1070 H 0.63409 0.38508 0.6134 0.0
H1071 H 0.57595 0.38412 0.65727 0.0
H1072 H 0.61653 0.27843 0.65672 0.0
H1073 H 0.58577 0.32613 0.6501 0.0
H1074 H 0.67228 0.37453 0.63578 0.0
H1075 H 0.70304 0.32694 0.64214 0.0
C1076 C 0.59568 0.41832 0.61412 0.0
C1077 C 0.5694 0.4302 0.62288 0.0
C1078 C 0.6146 0.39429 0.62073 0.0
C1079 C 0.60764 0.38134 0.63624 0.0
C1080 C 0.58173 0.39362 0.64524 0.0
C1081 C 0.56287 0.41812 0.63865 0.0
C1082 C 0.62906 0.29932 0.65228 0.0
C1083 C 0.66223 0.29865 0.64973 0.0
C1084 C 0.61143 0.32672 0.64864 0.0
C1085 C 0.62661 0.35396 0.64234 0.0
C1086 C 0.6599 0.35372 0.64043 0.0
C1087 C 0.67751 0.32641 0.64407 0.0
H1088 H 0.21156 0.26068 0.20254 0.0
H1089 H 0.31077 0.23941 0.21174 0.0
H1090 H 0.2029 0.26711 0.23206 0.0
H1091 H 0.30247 0.24692 0.24104 0.0
H1092 H 0.26937 0.22784 0.29355 0.0
H1093 H 0.27786 0.22164 0.26399 0.0
H1094 H 0.21468 0.30104 0.25467 0.0
H1095 H 0.20536 0.30644 0.28397 0.0
C1096 C 0.23157 0.25783 0.21084 0.0
C1097 C 0.26175 0.24937 0.20483 0.0
C1098 C 0.22668 0.26157 0.22775 0.0
C1099 C 0.25198 0.2573 0.23895 0.0
C1100 C 0.2823 0.24965 0.23283 0.0
C1101 C 0.28709 0.24559 0.216 0.0
C1102 C 0.25739 0.24396 0.28516 0.0
C1103 C 0.2366 0.26749 0.2911 0.0
C1104 C 0.26232 0.24053 0.26823 0.0
C1105 C 0.24684 0.26081 0.25694 0.0
C1106 C 0.22645 0.2846 0.26296 0.0
C1107 C 0.22129 0.2878 0.27981 0.0
H1108 H 0.02306 0.0194 0.54656 0.0
H1109 H 0.94561 0.95492 0.53547 0.0
H1110 H 0.0281 0.03192 0.51735 0.0
H1111 H 0.94986 0.96821 0.50647 0.0
H1112 H 0.01049 0.06961 0.46611 0.0
H1113 H 0.00236 0.05837 0.49511 0.0
H1114 H 0.98402 0.95948 0.48352 0.0
H1115 H 0.99109 0.97105 0.4543 0.0
C1116 C 0.00686 0.00824 0.53792 0.0
C1117 C 0.9841 0.98605 0.54332 0.0
C1118 C 0.00963 0.01547 0.52118 0.0
C1119 C 0.98945 1.00093 0.50953 0.0
C1120 C 0.96622 0.97934 0.51503 0.0
C1121 C 0.96367 0.97188 0.5317 0.0
C1122 C 0.00459 0.04546 0.46972 0.0
C1123 C 0.00158 0.02115 0.45791 0.0
C1124 C 1.00013 0.03899 0.48639 0.0
C1125 C 0.99285 0.00798 0.49169 0.0
C1126 C 0.98926 0.98374 0.47985 0.0
C1127 C 0.9934 0.9903 0.4631 0.0
H1128 H 0.27468 0.71595 0.69827 0.0
H1129 H 0.22134 0.80123 0.70971 0.0
H1130 H 0.28339 0.70686 0.72766 0.0
H1131 H 0.23081 0.79278 0.7388 0.0
H1132 H 0.22372 0.75215 0.79015 0.0
H1133 H 0.21479 0.75849 0.76068 0.0
H1134 H 0.31129 0.7276 0.75108 0.0
H1135 H 0.31988 0.72026 0.78039 0.0
C1136 C 0.26515 0.7329 0.70702 0.0
C1137 C 0.24716 0.75915 0.70167 0.0
C1138 C 0.27015 0.72776 0.72386 0.0
C1139 C 0.25749 0.74894 0.73561 0.0
C1140 C 0.24021 0.77556 0.73015 0.0
C1141 C 0.23499 0.78052 0.71342 0.0
C1142 C 0.24299 0.74666 0.78174 0.0
C1143 C 0.27249 0.73575 0.78764 0.0
C1144 C 0.23794 0.75042 0.76485 0.0
C1145 C 0.26239 0.74366 0.75351 0.0
C1146 C 0.2918 0.73257 0.75943 0.0
C1147 C 0.29676 0.72857 0.77628 0.0
H1148 H 0.51323 0.07222 0.03202 0.0
H1149 H 0.4969 0.97312 0.04397 0.0
H1150 H 0.50607 0.06057 0.00304 0.0
H1151 H 0.49084 0.96116 0.01473 0.0
H1152 H 0.44855 0.95795 0.96313 0.0
H1153 H 0.45542 0.96931 0.9922 0.0
H1154 H 0.53157 0.03502 0.98052 0.0
H1155 H 0.52386 0.02447 0.95127 0.0
C1156 C 0.50835 0.04783 0.02844 0.0
C1157 C 0.50569 0.02355 0.0403 0.0
C1158 C 0.50446 0.04113 0.01178 0.0
C1159 C 0.49813 0.00991 0.00652 0.0
C1160 C 0.49533 0.98557 0.01838 0.0
C1161 C 0.4989 0.99236 0.03513 0.0
C1162 C 0.46679 0.97485 0.96674 0.0
C1163 C 0.48566 0.99038 0.95488 0.0
C1164 C 0.47086 0.98118 0.98344 0.0
C1165 C 0.49411 0.00297 0.98872 0.0
C1166 C 0.51309 0.01844 0.97686 0.0
C1167 C 0.50878 0.01234 0.9601 0.0
H1168 H 0.29223 0.80647 0.28168 0.0
H1169 H 0.2302 0.72633 0.29141 0.0
H1170 H 0.28327 0.80039 0.25237 0.0
H1171 H 0.22208 0.7195 0.26187 0.0
H1172 H 0.18833 0.73618 0.20971 0.0
H1173 H 0.19675 0.74405 0.23895 0.0
H1174 H 0.29572 0.76662 0.22973 0.0
H1175 H 0.28691 0.75978 0.20021 0.0
C1176 C 0.27681 0.78735 0.27755 0.0
C1177 C 0.26191 0.76683 0.28889 0.0
C1178 C 0.27187 0.78376 0.2607 0.0
C1179 C 0.25211 0.75938 0.25472 0.0
C1180 C 0.23712 0.73884 0.26606 0.0
C1181 C 0.24183 0.74265 0.28299 0.0
C1182 C 0.21191 0.74292 0.21389 0.0
C1183 C 0.23703 0.74724 0.20265 0.0
C1184 C 0.21677 0.7472 0.2307 0.0
C1185 C 0.24696 0.75561 0.23674 0.0
C1186 C 0.27204 0.76044 0.22548 0.0
C1187 C 0.26707 0.75647 0.20857 0.0
H1188 H 0.48058 0.02154 0.44699 0.0
H1189 H 0.55653 0.9553 0.45808 0.0
H1190 H 0.47543 0.03365 0.47622 0.0
H1191 H 0.55214 0.96814 0.48712 0.0
H1192 H 0.50919 0.97004 0.53892 0.0
H1193 H 0.51684 0.9593 0.50969 0.0
H1194 H 0.50154 0.05902 0.4988 0.0
H1195 H 0.49287 0.06951 0.52784 0.0
C1196 C 0.49645 0.00991 0.45563 0.0
C1197 C 0.51879 0.98733 0.45023 0.0
C1198 C 0.4936 0.01691 0.47238 0.0
C1199 C 0.51328 0.00171 0.48404 0.0
C1200 C 0.53617 0.97977 0.47854 0.0
C1201 C 0.5388 0.97257 0.46185 0.0
C1202 C 0.50767 0.98966 0.53028 0.0
C1203 C 0.5002 0.02054 0.53568 0.0
C1204 C 0.51216 0.98357 0.51353 0.0
C1205 C 0.50961 0.0083 0.50188 0.0
C1206 C 0.50301 0.03932 0.50739 0.0
C1207 C 0.49823 0.04533 0.52407 0.0
H1208 H 0.20871 0.1907 0.78793 0.0
H1209 H 0.2729 0.26876 0.79834 0.0
H1210 H 0.2193 0.19639 0.7587 0.0
H1211 H 0.28273 0.27516 0.76893 0.0
H1212 H 0.31632 0.25949 0.71672 0.0
H1213 H 0.30763 0.25039 0.74587 0.0
H1214 H 0.20798 0.23162 0.73635 0.0
H1215 H 0.21696 0.23975 0.70696 0.0
C1216 C 0.22505 0.20918 0.78397 0.0
C1217 C 0.23991 0.22937 0.79546 0.0
C1218 C 0.23094 0.21255 0.76717 0.0
C1219 C 0.25165 0.23637 0.76143 0.0
C1220 C 0.26692 0.25629 0.77294 0.0
C1221 C 0.26124 0.25272 0.7898 0.0
C1222 C 0.29253 0.25332 0.72081 0.0
C1223 C 0.26726 0.25048 0.70952 0.0
C1224 C 0.28753 0.2483 0.73757 0.0
C1225 C 0.25708 0.24056 0.74349 0.0
C1226 C 0.23185 0.2372 0.73218 0.0
C1227 C 0.23693 0.24195 0.71534 0.0
H1228 H 0.94021 0.03844 0.95443 0.0
H1229 H 0.01832 0.97476 0.94341 0.0
H1230 H 0.94639 0.02731 0.9836 0.0
H1231 H 0.02518 0.96437 0.97274 0.0
H1232 H 0.0082 0.92788 0.02442 0.0
H1233 H 1.0001 0.93835 0.99537 0.0
H1234 H 0.98152 0.03748 0.00622 0.0
H1235 H 0.98867 0.02672 0.03555 0.0
C1236 C 0.95881 0.02212 0.95824 0.0
C1237 C 0.97879 0.00746 0.94658 0.0
C1238 C 0.96249 0.01594 0.975 0.0
C1239 C 0.98637 0.9951 0.98054 0.0
C1240 C 0.00623 0.98024 0.96888 0.0
C1241 C 0.00239 0.98623 0.95206 0.0
C1242 C 0.00235 0.95196 0.02066 0.0
C1243 C 0.9992 0.97654 0.03232 0.0
C1244 C 0.9979 0.95798 0.00395 0.0
C1245 C 0.99044 0.98878 -0.00158 0.0
C1246 C 0.98692 0.01337 0.01008 0.0
C1247 C 0.99112 0.00727 0.02688 0.0
H1248 H 0.73039 0.78038 0.7028 0.0
H1249 H 0.78926 0.6984 0.71357 0.0
H1250 H 0.72286 0.78911 0.73224 0.0
H1251 H 0.78094 0.7065 0.74282 0.0
H1252 H 0.78544 0.74917 0.79457 0.0
H1253 H 0.79457 0.74129 0.76512 0.0
H1254 H 0.69633 0.76586 0.75526 0.0
H1255 H 0.68756 0.77462 0.78435 0.0
C1256 C 0.74146 0.76408 0.71142 0.0
C1257 C 0.76042 0.73876 0.70583 0.0
C1258 C 0.7371 0.769 0.72829 0.0
C1259 C 0.75137 0.7485 0.7399 0.0
C1260 C 0.77011 0.72307 0.73426 0.0
C1261 C 0.77466 0.71832 0.71745 0.0
C1262 C 0.76586 0.75277 0.78608 0.0
C1263 C 0.7359 0.76273 0.79179 0.0
C1264 C 0.77101 0.7482 0.76923 0.0
C1265 C 0.74621 0.75322 0.75781 0.0
C1266 C 0.71615 0.76253 0.76363 0.0
C1267 C 0.7111 0.76734 0.78037 0.0
H1268 H 0.79146 0.24439 0.20349 0.0
H1269 H 0.69265 0.26739 0.21264 0.0
H1270 H 0.79976 0.23689 0.23304 0.0
H1271 H 0.70053 0.25883 0.24186 0.0
H1272 H 0.73246 0.27664 0.29436 0.0
H1273 H 0.72511 0.28337 0.2648 0.0
H1274 H 0.78741 0.20318 0.2558 0.0
H1275 H 0.79564 0.19723 0.28524 0.0
C1276 C 0.77148 0.24744 0.21178 0.0
C1277 C 0.74153 0.25677 0.20576 0.0
C1278 C 0.77615 0.24307 0.2287 0.0
C1279 C 0.75085 0.24758 0.23987 0.0
C1280 C 0.72074 0.25597 0.2337 0.0
C1281 C 0.71619 0.26067 0.2169 0.0
C1282 C 0.74448 0.26041 0.28606 0.0
C1283 C 0.76464 0.23646 0.29215 0.0
C1284 C 0.7402 0.26416 0.26911 0.0
C1285 C 0.75568 0.24378 0.25789 0.0
C1286 C 0.77558 0.21965 0.26404 0.0
C1287 C 0.78011 0.21611 0.28095 0.0
H1288 H 0.78969 0.30581 0.7851 0.0
H1289 H 0.73204 0.22342 0.79678 0.0
H1290 H 0.78085 0.29681 0.75596 0.0
H1291 H 0.72399 0.21375 0.76744 0.0
H1292 H 0.69027 0.22462 0.71461 0.0
H1293 H 0.69781 0.23486 0.74372 0.0
H1294 H 0.79589 0.26095 0.7345 0.0
H1295 H 0.78801 0.25166 0.70512 0.0
C1296 C 0.77518 0.28565 0.78143 0.0
C1297 C 0.76161 0.26524 0.79325 0.0
C1298 C 0.77033 0.28037 0.7647 0.0
C1299 C 0.75199 0.2544 0.75934 0.0
C1300 C 0.73799 0.2342 0.77116 0.0
C1301 C 0.74262 0.23967 0.78797 0.0
C1302 C 0.7135 0.23255 0.71875 0.0
C1303 C 0.73861 0.23727 0.70753 0.0
C1304 C 0.71784 0.23823 0.73549 0.0
C1305 C 0.74747 0.24854 0.74148 0.0
C1306 C 0.77261 0.2534 0.73026 0.0
C1307 C 0.76818 0.24797 0.71344 0.0
H1308 H 0.69039 0.72507 0.28393 0.0
H1309 H 0.78738 0.75508 0.29304 0.0
H1310 H 0.69779 0.73344 0.25468 0.0
H1311 H 0.79526 0.76236 0.26348 0.0
H1312 H 0.7877 0.80363 0.2119 0.0
H1313 H 0.78017 0.79583 0.24122 0.0
H1314 H 0.72372 0.71171 0.23137 0.0
H1315 H 0.7303 0.72031 0.20185 0.0
C1316 C 0.71346 0.7332 0.27966 0.0
C1317 C 0.73838 0.73933 0.29081 0.0
C1318 C 0.71775 0.73779 0.26283 0.0
C1319 C 0.74717 0.74831 0.25667 0.0
C1320 C 0.77213 0.75459 0.26783 0.0
C1321 C 0.76771 0.75033 0.28475 0.0
C1322 C 0.77361 0.78346 0.21597 0.0
C1323 C 0.75956 0.76255 0.20455 0.0
C1324 C 0.76952 0.77887 0.23282 0.0
C1325 C 0.75152 0.75305 0.2387 0.0
C1326 C 0.73738 0.73213 0.22726 0.0
C1327 C 0.74118 0.73696 0.21035 0.0
H1328 H 0.46045 0.44609 0.02501 0.0
H1329 H 0.53629 0.51199 0.03679 0.0
H1330 H 0.4669 0.45768 0.996 0.0
H1331 H 0.54377 0.52269 0.00749 0.0
H1332 H 0.52557 0.56006 0.95585 0.0
H1333 H 0.51935 0.54837 0.98491 0.0
H1334 H 0.50059 0.44957 0.97323 0.0
H1335 H 0.5055 0.4617 0.94396 0.0
C1336 C 0.47881 0.46284 0.02138 0.0
C1337 C 0.49791 0.47812 0.03322 0.0
C1338 C 0.48265 0.46932 0.00468 0.0
C1339 C 0.50597 0.49098 -0.00067 0.0
C1340 C 0.52524 0.5062 0.01118 0.0
C1341 C 0.52109 0.5 0.02797 0.0
C1342 C 0.52008 0.53581 0.95947 0.0
C1343 C 0.51603 0.51176 0.9476 0.0
C1344 C 0.51676 0.52906 0.97618 0.0
C1345 C 0.50968 0.49799 0.98149 0.0
C1346 C 0.50561 0.47389 0.96959 0.0
C1347 C 0.50851 0.48076 0.95281 0.0
H1348 H 0.03084 0.51951 0.45406 0.0
H1349 H 0.95178 0.45749 0.46585 0.0
H1350 H 0.03888 0.52979 0.48336 0.0
H1351 H 0.95897 0.4686 0.49488 0.0
H1352 H 0.99876 0.46937 0.54667 0.0
H1353 H 0.99354 0.45799 0.51734 0.0
H1354 H 0.01525 0.55639 0.5061 0.0
H1355 H 0.02161 0.56739 0.53521 0.0
C1356 C 0.01501 0.50836 0.46288 0.0
C1357 C 0.9908 0.48761 0.45765 0.0
C1358 C 0.01952 0.51428 0.47967 0.0
C1359 C 0.99966 0.49985 0.49151 0.0
C1360 C 0.97517 0.47952 0.48617 0.0
C1361 C 0.97091 0.47335 0.46948 0.0
C1362 C 0.00245 0.4885 0.53791 0.0
C1363 C 0.01064 0.51922 0.54327 0.0
C1364 C 0.99934 0.48206 0.52111 0.0
C1365 C 0.00399 0.5063 0.50934 0.0
C1366 C 0.0121 0.53701 0.51476 0.0
C1367 C 0.01553 0.54335 0.5315 0.0
H1368 H 0.00509 0.47643 0.03912 0.0
H1369 H 0.98165 0.57464 0.02843 0.0
H1370 H 0.01218 0.46643 0.00978 0.0
H1371 H 0.98969 0.56492 -0.00071 0.0
H1372 H 0.05454 0.46748 0.95868 0.0
H1373 H 0.04758 0.47887 0.98769 0.0
H1374 H 0.96615 0.53803 0.97626 0.0
H1375 H 0.97379 0.52734 0.94694 0.0
C1376 C 0.00175 0.49592 0.03055 0.0
C1377 C 0.99273 0.52626 0.03612 0.0
C1378 C 0.00591 0.49026 0.01373 0.0
C1379 C 0.00143 0.5149 0.00217 0.0
C1380 C 0.99274 0.54529 0.00781 0.0
C1381 C 0.98835 0.55087 0.02456 0.0
C1382 C 0.03515 0.48301 0.96231 0.0
C1383 C 0.01457 0.4964 0.95051 0.0
C1384 C 0.03105 0.48934 0.97898 0.0
C1385 C 0.0061 0.50903 0.98433 0.0
C1386 C 0.9858 0.52295 0.97252 0.0
C1387 C 0.9901 0.51681 0.95574 0.0
H1388 H 0.48313 0.56734 0.46488 0.0
H1389 H 0.5006 0.46891 0.45206 0.0
H1390 H 0.48953 0.55452 0.49382 0.0
H1391 H 0.50585 0.45576 0.48117 0.0
H1392 H 0.54743 0.44995 0.53253 0.0
H1393 H 0.54084 0.46315 0.50371 0.0
H1394 H 0.4644 0.52785 0.51622 0.0
H1395 H 0.47188 0.51542 0.54536 0.0
C1396 C 0.48814 0.54287 0.46825 0.0
C1397 C 0.4914 0.51911 0.45616 0.0
C1398 C 0.49156 0.53548 0.48489 0.0
C1399 C 0.49803 0.5041 0.48987 0.0
C1400 C 0.50131 0.4803 0.47776 0.0
C1401 C 0.49823 0.48777 0.46107 0.0
C1402 C 0.52913 0.46698 0.52917 0.0
C1403 C 0.51008 0.4816 0.54125 0.0
C1404 C 0.52523 0.47439 0.51259 0.0
C1405 C 0.50194 0.49636 0.50759 0.0
C1406 C 0.48285 0.51108 0.51966 0.0
C1407 C 0.48701 0.5039 0.53635 0.0
H1408 H 0.31769 0.18786 0.39327 0.0
H1409 H 0.32137 0.17568 0.3405 0.0
H1410 H 0.35919 0.14784 0.39656 0.0
H1411 H 0.36245 0.13501 0.34383 0.0
H1412 H 0.46058 0.09191 0.35499 0.0
H1413 H 0.41777 0.13051 0.35152 0.0
H1414 H 0.3699 0.09169 0.39414 0.0
H1415 H 0.41317 0.05352 0.39784 0.0
C1416 C 0.32716 0.17646 0.38236 0.0
C1417 C 0.31624 0.18511 0.36661 0.0
C1418 C 0.35087 0.15332 0.38426 0.0
C1419 C 0.36427 0.13817 0.37047 0.0
C1420 C 0.35302 0.14651 0.35472 0.0
C1421 C 0.32931 0.16971 0.35281 0.0
C1422 C 0.44094 0.09157 0.36363 0.0
C1423 C 0.4404 0.06964 0.37673 0.0
C1424 C 0.41623 0.1136 0.36157 0.0
C1425 C 0.39028 0.11424 0.37252 0.0
C1426 C 0.38968 0.09219 0.38559 0.0
C1427 C 0.41445 0.07018 0.38767 0.0
H1428 H 0.09252 0.04724 0.59931 0.0
H1429 H 0.03523 0.09641 0.63544 0.0
H1430 H 0.13646 0.08397 0.60459 0.0
H1431 H 0.07876 0.13356 0.6404 0.0
H1432 H 0.17308 0.17559 0.65747 0.0
H1433 H 0.13082 0.13683 0.65252 0.0
H1434 H 0.15223 0.13845 0.60051 0.0
H1435 H 0.19496 0.17652 0.60552 0.0
C1436 C 0.08921 0.06599 0.60831 0.0
C1437 C 0.06032 0.06883 0.61695 0.0
C1438 C 0.11438 0.08718 0.61129 0.0
C1439 C 0.11126 0.11177 0.62296 0.0
C1440 C 0.08227 0.11463 0.63153 0.0
C1441 C 0.05718 0.09342 0.62859 0.0
C1442 C 0.16888 0.16756 0.64499 0.0
C1443 C 0.18742 0.17925 0.6319 0.0
C1444 C 0.14447 0.14547 0.64213 0.0
C1445 C 0.13793 0.13455 0.62609 0.0
C1446 C 0.15678 0.14597 0.61304 0.0
C1447 C 0.18122 0.16799 0.61591 0.0
H1448 H 0.20136 0.84027 0.84098 0.0
H1449 H 0.15303 0.78714 0.8791 0.0
H1450 H 0.16506 0.88492 0.84533 0.0
H1451 H 0.11632 0.83134 0.88315 0.0
H1452 H 0.07383 0.92696 0.8974 0.0
H1453 H 0.11322 0.88479 0.89366 0.0
H1454 H 0.11044 0.89986 0.84106 0.0
H1455 H 0.07179 0.94244 0.84483 0.0
C1456 C 0.1829 0.83803 0.85022 0.0
C1457 C 0.18012 0.81008 0.85968 0.0
C1458 C 0.16198 0.8636 0.85268 0.0
C1459 C 0.13772 0.86183 0.86462 0.0
C1460 C 0.135 0.83382 0.87404 0.0
C1461 C 0.15594 0.80832 0.87162 0.0
C1462 C 0.0818 0.92142 0.88505 0.0
C1463 C 0.06955 0.93806 0.87142 0.0
C1464 C 0.10424 0.89707 0.88288 0.0
C1465 C 0.11495 0.88873 0.86704 0.0
C1466 C 0.10309 0.90582 0.85345 0.0
C1467 C 0.08073 0.93018 0.85562 0.0
H1468 H 0.36661 0.77567 0.12023 0.0
H1469 H 0.30276 0.84741 0.1394 0.0
H1470 H 0.40565 0.8167 0.11382 0.0
H1471 H 0.34225 0.88863 0.13309 0.0
H1472 H 0.40898 0.95523 0.103 0.0
H1473 H 0.36843 0.91507 0.10919 0.0
H1474 H 0.44129 0.85286 0.12865 0.0
H1475 H 0.48173 0.89267 0.12236 0.0
C1476 C 0.36088 0.80021 0.12312 0.0
C1477 C 0.33154 0.8082 0.13038 0.0
C1478 C 0.38339 0.82374 0.11951 0.0
C1479 C 0.37716 0.85594 0.12301 0.0
C1480 C 0.34768 0.86406 0.13012 0.0
C1481 C 0.32514 0.84043 0.13382 0.0
C1482 C 0.41634 0.93295 0.10857 0.0
C1483 C 0.44865 0.92715 0.11213 0.0
C1484 C 0.39306 0.91003 0.11222 0.0
C1485 C 0.40162 0.88073 0.11939 0.0
C1486 C 0.43392 0.875 0.12294 0.0
C1487 C 0.45711 0.89793 0.11939 0.0
H1488 H 0.64276 0.78762 0.61743 0.0
H1489 H 0.70331 0.84943 0.64628 0.0
H1490 H 0.60812 0.83239 0.6111 0.0
H1491 H 0.66891 0.89462 0.63958 0.0
H1492 H 0.57957 0.95888 0.63899 0.0
H1493 H 0.61639 0.91558 0.64515 0.0
H1494 H 0.6064 0.88075 0.59537 0.0
H1495 H 0.56894 0.92358 0.58935 0.0
C1496 C 0.64881 0.81083 0.62237 0.0
C1497 C 0.67584 0.81489 0.63239 0.0
C1498 C 0.62902 0.83661 0.61862 0.0
C1499 C 0.63575 0.86722 0.62474 0.0
C1500 C 0.6628 0.87132 0.63479 0.0
C1501 C 0.68261 0.84544 0.63858 0.0
C1502 C 0.58531 0.94207 0.62933 0.0
C1503 C 0.57111 0.94462 0.6137 0.0
C1504 C 0.60661 0.91731 0.63284 0.0
C1505 C 0.6143 0.89452 0.62079 0.0
C1506 C 0.60061 0.89752 0.60505 0.0
C1507 C 0.57924 0.92222 0.60155 0.0
H1508 H 0.92648 0.9531 0.35316 0.0
H1509 H 0.92429 0.93299 0.40531 0.0
H1510 H 0.88879 0.90991 0.34829 0.0
H1511 H 0.88601 0.89028 0.40048 0.0
H1512 H 0.85027 0.79261 0.38362 0.0
H1513 H 0.88523 0.83776 0.38869 0.0
H1514 H 0.83426 0.89273 0.3522 0.0
H1515 H 0.79956 0.84709 0.34684 0.0
C1516 C 0.91772 0.93968 0.36362 0.0
C1517 C 0.9286 0.94643 0.37962 0.0
C1518 C 0.89593 0.915 0.36082 0.0
C1519 C 0.88442 0.89644 0.37397 0.0
C1520 C 0.89477 0.90369 0.39002 0.0
C1521 C 0.9166 0.92834 0.39281 0.0
C1522 C 0.84642 0.81431 0.37667 0.0
C1523 C 0.8221 0.81616 0.3648 0.0
C1524 C 0.86638 0.84034 0.37967 0.0
C1525 C 0.86256 0.86901 0.37091 0.0
C1526 C 0.83813 0.87093 0.35906 0.0
C1527 C 0.81813 0.84481 0.35603 0.0
H1528 H 0.82365 0.16752 0.15251 0.0
H1529 H 0.81452 0.18567 0.10037 0.0
H1530 H 0.86374 0.12679 0.14681 0.0
H1531 H 0.85498 0.14569 0.09472 0.0
H1532 H 0.90855 0.05204 0.08881 0.0
H1533 H 0.86577 0.08955 0.09501 0.0
H1534 H 0.91807 0.12277 0.13749 0.0
H1535 H 0.96038 0.08479 0.13154 0.0
C1536 C 0.83013 0.16281 0.13984 0.0
C1537 C 0.81587 0.17995 0.12692 0.0
C1538 C 0.85329 0.13959 0.13657 0.0
C1539 C 0.86276 0.13297 0.12029 0.0
C1540 C 0.84805 0.14979 0.10739 0.0
C1541 C 0.82492 0.17292 0.11065 0.0
C1542 C 0.91092 0.06735 0.09948 0.0
C1543 C 0.93796 0.06541 0.10965 0.0
C1544 C 0.88642 0.08897 0.103 0.0
C1545 C 0.88839 0.10926 0.11677 0.0
C1546 C 0.91544 0.10722 0.12695 0.0
C1547 C 0.93987 0.08556 0.12345 0.0
H1548 H 0.59382 0.03707 0.85816 0.0
H1549 H 0.56462 0.08335 0.90319 0.0
H1550 H 0.63541 0.07706 0.8544 0.0
H1551 H 0.60587 0.12358 0.89929 0.0
H1552 H 0.70296 0.17209 0.89575 0.0
H1553 H 0.66359 0.13001 0.8996 0.0
H1554 H 0.64068 0.13361 0.8478 0.0
H1555 H 0.68043 0.17539 0.84387 0.0
C1556 C 0.59624 0.05577 0.86726 0.0
C1557 C 0.57582 0.05699 0.88098 0.0
C1558 C 0.61999 0.07881 0.86505 0.0
C1559 C 0.62398 0.10359 0.87652 0.0
C1560 C 0.60374 0.10462 0.89031 0.0
C1561 C 0.57994 0.08163 0.89251 0.0
C1562 C 0.68964 0.16384 0.88515 0.0
C1563 C 0.69484 0.17721 0.8695 0.0
C1564 C 0.66691 0.13982 0.88739 0.0
C1565 C 0.64885 0.12849 0.87403 0.0
C1566 C 0.65439 0.14153 0.85833 0.0
C1567 C 0.67707 0.16562 0.85609 0.0
H1568 H 0.79628 0.66436 0.861 0.0
H1569 H 0.8715 0.73424 0.86521 0.0
H1570 H 0.83291 0.62292 0.87049 0.0
H1571 H 0.90812 0.69292 0.87427 0.0
H1572 H 0.95694 0.6205 0.9067 0.0
H1573 H 0.91805 0.6599 0.89778 0.0
H1574 H 0.87972 0.59258 0.86275 0.0
H1575 H 0.91823 0.55278 0.87199 0.0
C1576 C 0.82067 0.67085 0.86382 0.0
C1577 C 0.83088 0.70267 0.86241 0.0
C1578 C 0.84172 0.64706 0.8692 0.0
C1579 C 0.87346 0.65457 0.87329 0.0
C1580 C 0.88371 0.68632 0.87158 0.0
C1581 C 0.86272 0.71004 0.86625 0.0
C1582 C 0.94012 0.61398 0.89716 0.0
C1583 C 0.94086 0.58349 0.89001 0.0
C1584 C 0.91792 0.6367 0.89195 0.0
C1585 C 0.89592 0.62961 0.87939 0.0
C1586 C 0.89612 0.59883 0.87252 0.0
C1587 C 0.91831 0.57603 0.87778 0.0
H1588 H 0.6974 0.65529 0.14675 0.0
H1589 H 0.64258 0.71263 0.11282 0.0
H1590 H 0.6641 0.60922 0.14027 0.0
H1591 H 0.60891 0.66697 0.10667 0.0
H1592 H 0.57323 0.57244 0.08691 0.0
H1593 H 0.60942 0.61642 0.09291 0.0
H1594 H 0.61103 0.58884 0.14416 0.0
H1595 H 0.57556 0.54442 0.13808 0.0
C1596 C 0.67814 0.65813 0.13799 0.0
C1597 C 0.67269 0.68768 0.13031 0.0
C1598 C 0.65895 0.63174 0.13431 0.0
C1599 C 0.63382 0.63428 0.12289 0.0
C1600 C 0.62836 0.66391 0.11529 0.0
C1601 C 0.64757 0.69022 0.11892 0.0
C1602 C 0.58145 0.57564 0.09944 0.0
C1603 C 0.57138 0.55493 0.11201 0.0
C1604 C 0.60206 0.60101 0.10291 0.0
C1605 C 0.61304 0.60637 0.11906 0.0
C1606 C 0.60339 0.58528 0.13156 0.0
C1607 C 0.58286 0.55986 0.12808 0.0
H1608 H 0.64566 0.29095 0.3816 0.0
H1609 H 0.69978 0.34745 0.34701 0.0
H1610 H 0.61033 0.33587 0.38649 0.0
H1611 H 0.66476 0.39284 0.35222 0.0
H1612 H 0.574 0.45475 0.35236 0.0
H1613 H 0.6111 0.41113 0.34747 0.0
H1614 H 0.60883 0.3874 0.39922 0.0
H1615 H 0.57106 0.43055 0.40403 0.0
C1616 C 0.65014 0.31302 0.37508 0.0
C1617 C 0.67557 0.31554 0.36389 0.0
C1618 C 0.62997 0.33892 0.37799 0.0
C1619 C 0.63472 0.36812 0.36983 0.0
C1620 C 0.66015 0.37063 0.3586 0.0
C1621 C 0.68033 0.34464 0.35565 0.0
C1622 C 0.58149 0.44032 0.36272 0.0
C1623 C 0.56938 0.44608 0.37858 0.0
C1624 C 0.60295 0.41537 0.35992 0.0
C1625 C 0.61292 0.39558 0.37292 0.0
C1626 C 0.60127 0.40178 0.38885 0.0
C1627 C 0.57974 0.42668 0.39164 0.0
H1628 H 0.96567 0.40193 0.6354 0.0
H1629 H 0.90816 0.44932 0.59869 0.0
H1630 H 0.92306 0.36363 0.64009 0.0
H1631 H 0.86508 0.41142 0.60369 0.0
H1632 H 0.80942 0.31705 0.60421 0.0
H1633 H 0.85095 0.35658 0.59956 0.0
H1634 H 0.87084 0.3586 0.65174 0.0
H1635 H 0.8298 0.31837 0.65632 0.0
C1636 C 0.94386 0.40429 0.62837 0.0
C1637 C 0.94041 0.42871 0.61664 0.0
C1638 C 0.91927 0.38242 0.63116 0.0
C1639 C 0.89048 0.38441 0.62233 0.0
C1640 C 0.88703 0.40887 0.61058 0.0
C1641 C 0.9117 0.43072 0.60776 0.0
C1642 C 0.82256 0.32598 0.61471 0.0
C1643 C 0.81632 0.31438 0.63064 0.0
C1644 C 0.84631 0.34885 0.61205 0.0
C1645 C 0.86441 0.36082 0.62526 0.0
C1646 C 0.85778 0.34957 0.64123 0.0
C1647 C 0.83407 0.32662 0.64389 0.0
H1648 H 0.0686 0.43089 0.08834 0.0
H1649 H 0.07318 0.45805 0.13957 0.0
H1650 H 0.10592 0.38752 0.09364 0.0
H1651 H 0.10977 0.41424 0.14496 0.0
H1652 H 0.19725 0.34963 0.14632 0.0
H1653 H 0.16295 0.39514 0.14026 0.0
H1654 H 0.1074 0.33671 0.10717 0.0
H1655 H 0.14209 0.29158 0.11289 0.0
C1656 C 0.07755 0.42763 0.10074 0.0
C1657 C 0.06779 0.44794 0.11353 0.0
C1658 C 0.09882 0.4026 0.10381 0.0
C1659 C 0.1108 0.3972 0.11976 0.0
C1660 C 0.10139 0.41787 0.13249 0.0
C1661 C 0.08021 0.44293 0.12941 0.0
C1662 C 0.17774 0.34652 0.13774 0.0
C1663 C 0.17244 0.31692 0.1301 0.0
C1664 C 0.15796 0.37259 0.13431 0.0
C1665 C 0.13236 0.36969 0.1232 0.0
C1666 C 0.12715 0.34004 0.11557 0.0
C1667 C 0.14695 0.31404 0.11896 0.0
H1668 H 0.47361 0.37742 0.89248 0.0
H1669 H 0.41404 0.45414 0.8748 0.0
H1670 H 0.43371 0.33886 0.88381 0.0
H1671 H 0.37432 0.41538 0.86571 0.0
H1672 H 0.29706 0.33679 0.86639 0.0
H1673 H 0.33546 0.377 0.87524 0.0
H1674 H 0.41263 0.31664 0.85891 0.0
H1675 H 0.37438 0.27622 0.85048 0.0
C1676 C 0.45199 0.3861 0.88674 0.0
C1677 C 0.44711 0.4189 0.8843 0.0
C1678 C 0.42917 0.36392 0.88163 0.0
C1679 C 0.40089 0.37392 0.87388 0.0
C1680 C 0.39569 0.40681 0.87174 0.0
C1681 C 0.41853 0.42905 0.87691 0.0
C1682 C 0.32222 0.33218 0.86461 0.0
C1683 C 0.33263 0.30317 0.85781 0.0
C1684 C 0.34426 0.35531 0.86963 0.0
C1685 C 0.37721 0.35 0.86794 0.0
C1686 C 0.3875 0.3213 0.86074 0.0
C1687 C 0.36551 0.29818 0.85577 0.0
H1688 H 0.48234 0.61442 0.61324 0.0
H1689 H 0.41294 0.53831 0.61251 0.0
H1690 H 0.44163 0.65126 0.62281 0.0
H1691 H 0.37225 0.57512 0.62251 0.0
H1692 H 0.30135 0.65963 0.62431 0.0
H1693 H 0.34057 0.62088 0.61474 0.0
H1694 H 0.41108 0.66247 0.64702 0.0
H1695 H 0.37223 0.7016 0.65624 0.0
C1696 C 0.45839 0.6055 0.61515 0.0
C1697 C 0.45096 0.57337 0.61214 0.0
C1698 C 0.43506 0.62661 0.62077 0.0
C1699 C 0.40367 0.61615 0.6236 0.0
C1700 C 0.39609 0.58408 0.62035 0.0
C1701 C 0.41947 0.56294 0.61467 0.0
C1702 C 0.32517 0.66035 0.62945 0.0
C1703 C 0.33369 0.68388 0.64096 0.0
C1704 C 0.34765 0.63804 0.624 0.0
C1705 C 0.37914 0.63871 0.62997 0.0
C1706 C 0.38728 0.66165 0.64187 0.0
C1707 C 0.36489 0.68398 0.64726 0.0
H1708 H 0.0771 0.57195 0.40512 0.0
H1709 H 0.06933 0.55545 0.35278 0.0
H1710 H 0.11557 0.61442 0.39998 0.0
H1711 H 0.10709 0.59837 0.34764 0.0
H1712 H 0.19701 0.65944 0.34457 0.0
H1713 H 0.16203 0.6142 0.35023 0.0
H1714 H 0.11657 0.66766 0.38912 0.0
H1715 H 0.15192 0.71241 0.38375 0.0
C1716 C 0.08359 0.57735 0.39252 0.0
C1717 C 0.07001 0.56033 0.37937 0.0
C1718 C 0.10552 0.60186 0.38956 0.0
C1719 C 0.11436 0.61001 0.37338 0.0
C1720 C 0.10119 0.59256 0.36026 0.0
C1721 C 0.07934 0.56802 0.36322 0.0
C1722 C 0.17957 0.6615 0.35434 0.0
C1723 C 0.17728 0.68959 0.36369 0.0
C1724 C 0.15941 0.6356 0.35755 0.0
C1725 C 0.13645 0.63719 0.37016 0.0
C1726 C 0.13428 0.66531 0.3795 0.0
C1727 C 0.15444 0.69113 0.37633 0.0
loop_
_geom_bond_atom_site_label_1
_geom_bond_atom_site_label_2
_geom_bond_distance
_geom_bond_site_symmetry_2
_ccdc_geom_bond_type
Mg0 O1 2.028 . S
Mg0 O7 1.986 . S
Mg0 O9 2.114 . S
Mg0 O10 2.251 . S
Mg0 O13 2.010 . S
O1 Mg0 2.028 . S
O1 C4 1.250 . S
O2 Mg3 2.028 . S
O2 C4 1.248 . S
Mg3 O2 2.028 . S
Mg3 O8 2.032 . S
Mg3 O10 2.079 . S
C4 O1 1.250 . S
C4 O2 1.248 . S
C5 O6 1.264 . S
C5 O13 1.249 . S
O6 C5 1.264 . S
O7 Mg0 1.986 . S
O7 C11 1.246 . S
O8 Mg3 2.032 . S
O8 C11 1.259 . S
O9 Mg0 2.114 . S
O9 C12 1.252 . S
O10 Mg0 2.251 . S
O10 Mg3 2.079 . S
O10 C12 1.273 . S
C11 O7 1.246 . S
C11 O8 1.259 . S
C12 O9 1.252 . S
C12 O10 1.273 . S
O13 Mg0 2.010 . S
O13 C5 1.249 . S
Mg14 O15 2.028 . S
Mg14 O21 1.986 . S
Mg14 O23 2.114 1_455 S
Mg14 O24 2.251 1_455 S
Mg14 O27 2.010 1_565 S
O15 Mg14 2.028 . S
O15 C18 1.250 . S
O16 Mg17 2.028 . S
O16 C18 1.248 . S
Mg17 O16 2.028 . S
Mg17 O22 2.032 . S
Mg17 O24 2.079 1_455 S
C18 O15 1.250 . S
C18 O16 1.248 . S
C19 O20 1.264 . S
C19 O27 1.249 . S
O20 C19 1.264 . S
O21 Mg14 1.986 . S
O21 C25 1.246 . S
O22 Mg17 2.032 . S
O22 C25 1.259 . S
O23 Mg14 2.114 1_655 S
O23 C26 1.252 . S
O24 Mg14 2.251 1_655 S
O24 Mg17 2.079 1_655 S
O24 C26 1.273 . S
C25 O21 1.246 . S
C25 O22 1.259 . S
C26 O23 1.252 . S
C26 O24 1.273 . S
O27 Mg14 2.010 1_545 S
O27 C19 1.249 . S
Mg28 O29 2.028 . S
Mg28 O35 1.986 . S
Mg28 O37 2.114 . S
Mg28 O38 2.251 . S
Mg28 O41 2.010 . S
O29 Mg28 2.028 . S
O29 C32 1.250 . S
O30 Mg31 2.028 . S
O30 C32 1.248 . S
Mg31 O30 2.028 . S
Mg31 O36 2.032 . S
Mg31 O38 2.079 . S
C32 O29 1.250 . S
C32 O30 1.248 . S
C33 O34 1.264 . S
C33 O41 1.249 . S
O34 C33 1.264 . S
O35 Mg28 1.986 . S
O35 C39 1.246 . S
O36 Mg31 2.032 . S
O36 C39 1.259 . S
O37 Mg28 2.114 . S
O37 C40 1.252 . S
O38 Mg28 2.251 . S
O38 Mg31 2.079 . S
O38 C40 1.273 . S
C39 O35 1.246 . S
C39 O36 1.259 . S
C40 O37 1.252 . S
C40 O38 1.273 . S
O41 Mg28 2.010 . S
O41 C33 1.249 . S
Mg42 O43 2.028 . S
Mg42 O49 1.986 . S
Mg42 O51 2.114 . S
Mg42 O52 2.251 . S
Mg42 O55 2.010 1_545 S
O43 Mg42 2.028 . S
O43 C46 1.250 . S
O44 Mg45 2.028 . S
O44 C46 1.248 . S
Mg45 O44 2.028 . S
Mg45 O50 2.032 . S
Mg45 O52 2.079 . S
C46 O43 1.250 . S
C46 O44 1.248 . S
C47 O48 1.264 . S
C47 O55 1.249 . S
O48 C47 1.264 . S
O49 Mg42 1.986 . S
O49 C53 1.246 . S
O50 Mg45 2.032 . S
O50 C53 1.259 . S
O51 Mg42 2.114 . S
O51 C54 1.252 . S
O52 Mg42 2.251 . S
O52 Mg45 2.079 . S
O52 C54 1.273 . S
C53 O49 1.246 . S
C53 O50 1.259 . S
C54 O51 1.252 . S
C54 O52 1.273 . S
O55 Mg42 2.010 1_565 S
O55 C47 1.249 . S
Mg56 O57 2.028 . S
Mg56 O63 1.986 . S
Mg56 O65 2.114 . S
Mg56 O66 2.251 . S
Mg56 O69 2.010 . S
O57 Mg56 2.028 . S
O57 C60 1.250 . S
O58 Mg59 2.028 . S
O58 C60 1.248 . S
Mg59 O58 2.028 . S
Mg59 O64 2.032 . S
Mg59 O66 2.079 . S
C60 O57 1.250 . S
C60 O58 1.248 . S
C61 O62 1.264 . S
C61 O69 1.249 . S
O62 C61 1.264 . S
O63 Mg56 1.986 . S
O63 C67 1.246 . S
O64 Mg59 2.032 . S
O64 C67 1.259 . S
O65 Mg56 2.114 . S
O65 C68 1.252 . S
O66 Mg56 2.251 . S
O66 Mg59 2.079 . S
O66 C68 1.273 . S
C67 O63 1.246 . S
C67 O64 1.259 . S
C68 O65 1.252 . S
C68 O66 1.273 . S
O69 Mg56 2.010 . S
O69 C61 1.249 . S
Mg70 O71 2.028 . S
Mg70 O77 1.986 . S
Mg70 O79 2.114 . S
Mg70 O80 2.251 . S
Mg70 O83 2.010 1_565 S
O71 Mg70 2.028 . S
O71 C74 1.250 . S
O72 Mg73 2.028 . S
O72 C74 1.248 . S
Mg73 O72 2.028 . S
Mg73 O78 2.032 . S
Mg73 O80 2.079 . S
C74 O71 1.250 . S
C74 O72 1.248 . S
C75 O76 1.264 . S
C75 O83 1.249 . S
O76 C75 1.264 . S
O77 Mg70 1.986 . S
O77 C81 1.246 . S
O78 Mg73 2.032 . S
O78 C81 1.259 . S
O79 Mg70 2.114 . S
O79 C82 1.252 . S
O80 Mg70 2.251 . S
O80 Mg73 2.079 . S
O80 C82 1.273 . S
C81 O77 1.246 . S
C81 O78 1.259 . S
C82 O79 1.252 . S
C82 O80 1.273 . S
O83 Mg70 2.010 1_545 S
O83 C75 1.249 . S
Mg84 O85 2.028 . S
Mg84 O91 1.986 . S
Mg84 O93 2.114 . S
Mg84 O94 2.251 . S
Mg84 O97 2.010 . S
O85 Mg84 2.028 . S
O85 C88 1.250 . S
O86 Mg87 2.028 . S
O86 C88 1.248 . S
Mg87 O86 2.028 . S
Mg87 O92 2.032 . S
Mg87 O94 2.079 . S
C88 O85 1.250 . S
C88 O86 1.248 . S
C89 O90 1.264 . S
C89 O97 1.249 . S
O90 C89 1.264 . S
O91 Mg84 1.986 . S
O91 C95 1.246 . S
O92 Mg87 2.032 . S
O92 C95 1.259 . S
O93 Mg84 2.114 . S
O93 C96 1.252 . S
O94 Mg84 2.251 . S
O94 Mg87 2.079 . S
O94 C96 1.273 . S
C95 O91 1.246 . S
C95 O92 1.259 . S
C96 O93 1.252 . S
C96 O94 1.273 . S
O97 Mg84 2.010 . S
O97 C89 1.249 . S
Mg98 O99 2.028 . S
Mg98 O105 1.986 . S
Mg98 O107 2.114 1_455 S
Mg98 O108 2.251 1_455 S
Mg98 O111 2.010 1_545 S
O99 Mg98 2.028 . S
O99 C102 1.250 . S
O100 Mg101 2.028 . S
O100 C102 1.248 . S
Mg101 O100 2.028 . S
Mg101 O106 2.032 . S
Mg101 O108 2.079 1_455 S
C102 O99 1.250 . S
C102 O100 1.248 . S
C103 O104 1.264 . S
C103 O111 1.249 . S
O104 C103 1.264 . S
O105 Mg98 1.986 . S
O105 C109 1.246 . S
O106 Mg101 2.032 . S
O106 C109 1.259 . S
O107 Mg98 2.114 1_655 S
O107 C110 1.252 . S
O108 Mg98 2.251 1_655 S
O108 Mg101 2.079 1_655 S
O108 C110 1.273 . S
C109 O105 1.246 . S
C109 O106 1.259 . S
C110 O107 1.252 . S
C110 O108 1.273 . S
O111 Mg98 2.010 1_565 S
O111 C103 1.249 . S
Mg112 O113 2.028 . S
Mg112 O119 1.986 . S
Mg112 O121 2.114 . S
Mg112 O122 2.251 . S
Mg112 O125 2.010 . S
O113 Mg112 2.028 . S
O113 C116 1.250 . S
O114 Mg115 2.028 . S
O114 C116 1.248 . S
Mg115 O114 2.028 . S
Mg115 O120 2.032 . S
Mg115 O122 2.079 . S
C116 O113 1.250 . S
C116 O114 1.248 . S
C117 O118 1.264 . S
C117 O125 1.249 . S
O118 C117 1.264 . S
O119 Mg112 1.986 . S
O119 C123 1.246 . S
O120 Mg115 2.032 . S
O120 C123 1.259 . S
O121 Mg112 2.114 . S
O121 C124 1.252 . S
O122 Mg112 2.251 . S
O122 Mg115 2.079 . S
O122 C124 1.273 . S
C123 O119 1.246 . S
C123 O120 1.259 . S
C124 O121 1.252 . S
C124 O122 1.273 . S
O125 Mg112 2.010 . S
O125 C117 1.249 . S
Mg126 O127 2.028 . S
Mg126 O133 1.986 . S
Mg126 O135 2.114 1_655 S
Mg126 O136 2.251 1_655 S
Mg126 O139 2.010 1_545 S
O127 Mg126 2.028 . S
O127 C130 1.250 . S
O128 Mg129 2.028 . S
O128 C130 1.248 . S
Mg129 O128 2.028 . S
Mg129 O134 2.032 . S
Mg129 O136 2.079 1_655 S
C130 O127 1.250 . S
C130 O128 1.248 . S
C131 O132 1.264 . S
C131 O139 1.249 . S
O132 C131 1.264 . S
O133 Mg126 1.986 . S
O133 C137 1.246 . S
O134 Mg129 2.032 . S
O134 C137 1.259 . S
O135 Mg126 2.114 1_455 S
O135 C138 1.252 . S
O136 Mg126 2.251 1_455 S
O136 Mg129 2.079 1_455 S
O136 C138 1.273 . S
C137 O133 1.246 . S
C137 O134 1.259 . S
C138 O135 1.252 . S
C138 O136 1.273 . S
O139 Mg126 2.010 1_565 S
O139 C131 1.249 . S
Mg140 O141 2.028 . S
Mg140 O147 1.986 . S
Mg140 O149 2.114 . S
Mg140 O150 2.251 . S
Mg140 O153 2.010 . S
O141 Mg140 2.028 . S
O141 C144 1.250 . S
O142 Mg143 2.028 . S
O142 C144 1.248 . S
Mg143 O142 2.028 . S
Mg143 O148 2.032 . S
Mg143 O150 2.079 . S
C144 O141 1.250 . S
C144 O142 1.248 . S
C145 O146 1.264 . S
C145 O153 1.249 . S
O146 C145 1.264 . S
O147 Mg140 1.986 . S
O147 C151 1.246 . S
O148 Mg143 2.032 . S
O148 C151 1.259 . S
O149 Mg140 2.114 . S
O149 C152 1.252 . S
O150 Mg140 2.251 . S
O150 Mg143 2.079 . S
O150 C152 1.273 . S
C151 O147 1.246 . S
C151 O148 1.259 . S
C152 O149 1.252 . S
C152 O150 1.273 . S
O153 Mg140 2.010 . S
O153 C145 1.249 . S
Mg154 O155 2.028 . S
Mg154 O161 1.986 . S
Mg154 O163 2.114 . S
Mg154 O164 2.251 . S
Mg154 O167 2.010 1_565 S
O155 Mg154 2.028 . S
O155 C158 1.250 . S
O156 Mg157 2.028 . S
O156 C158 1.248 . S
Mg157 O156 2.028 . S
Mg157 O162 2.032 . S
Mg157 O164 2.079 . S
C158 O155 1.250 . S
C158 O156 1.248 . S
C159 O160 1.264 . S
C159 O167 1.249 . S
O160 C159 1.264 . S
O161 Mg154 1.986 . S
O161 C165 1.246 . S
O162 Mg157 2.032 . S
O162 C165 1.259 . S
O163 Mg154 2.114 . S
O163 C166 1.252 . S
O164 Mg154 2.251 . S
O164 Mg157 2.079 . S
O164 C166 1.273 . S
C165 O161 1.246 . S
C165 O162 1.259 . S
C166 O163 1.252 . S
C166 O164 1.273 . S
O167 Mg154 2.010 1_545 S
O167 C159 1.249 . S
Mg168 O169 2.028 . S
Mg168 O175 1.986 . S
Mg168 O177 2.114 . S
Mg168 O178 2.251 . S
Mg168 O181 2.010 . S
O169 Mg168 2.028 . S
O169 C172 1.250 . S
O170 Mg171 2.028 . S
O170 C172 1.248 . S
Mg171 O170 2.028 . S
Mg171 O176 2.032 . S
Mg171 O178 2.079 . S
C172 O169 1.250 . S
C172 O170 1.248 . S
C173 O174 1.264 . S
C173 O181 1.249 . S
O174 C173 1.264 . S
O175 Mg168 1.986 . S
O175 C179 1.246 . S
O176 Mg171 2.032 . S
O176 C179 1.259 . S
O177 Mg168 2.114 . S
O177 C180 1.252 . S
O178 Mg168 2.251 . S
O178 Mg171 2.079 . S
O178 C180 1.273 . S
C179 O175 1.246 . S
C179 O176 1.259 . S
C180 O177 1.252 . S
C180 O178 1.273 . S
O181 Mg168 2.010 . S
O181 C173 1.249 . S
Mg182 O183 2.028 . S
Mg182 O189 1.986 . S
Mg182 O191 2.114 . S
Mg182 O192 2.251 . S
Mg182 O195 2.010 1_545 S
O183 Mg182 2.028 . S
O183 C186 1.250 . S
O184 Mg185 2.028 . S
O184 C186 1.248 . S
Mg185 O184 2.028 . S
Mg185 O190 2.032 . S
Mg185 O192 2.079 . S
C186 O183 1.250 . S
C186 O184 1.248 . S
C187 O188 1.264 . S
C187 O195 1.249 . S
O188 C187 1.264 . S
O189 Mg182 1.986 . S
O189 C193 1.246 . S
O190 Mg185 2.032 . S
O190 C193 1.259 . S
O191 Mg182 2.114 . S
O191 C194 1.252 . S
O192 Mg182 2.251 . S
O192 Mg185 2.079 . S
O192 C194 1.273 . S
C193 O189 1.246 . S
C193 O190 1.259 . S
C194 O191 1.252 . S
C194 O192 1.273 . S
O195 Mg182 2.010 1_565 S
O195 C187 1.249 . S
Mg196 O197 2.028 . S
Mg196 O203 1.986 . S
Mg196 O205 2.114 . S
Mg196 O206 2.251 . S
Mg196 O209 2.010 . S
O197 Mg196 2.028 . S
O197 C200 1.250 . S
O198 Mg199 2.028 . S
O198 C200 1.248 . S
Mg199 O198 2.028 . S
Mg199 O204 2.032 . S
Mg199 O206 2.079 . S
C200 O197 1.250 . S
C200 O198 1.248 . S
C201 O202 1.264 . S
C201 O209 1.249 . S
O202 C201 1.264 . S
O203 Mg196 1.986 . S
O203 C207 1.246 . S
O204 Mg199 2.032 . S
O204 C207 1.259 . S
O205 Mg196 2.114 . S
O205 C208 1.252 . S
O206 Mg196 2.251 . S
O206 Mg199 2.079 . S
O206 C208 1.273 . S
C207 O203 1.246 . S
C207 O204 1.259 . S
C208 O205 1.252 . S
C208 O206 1.273 . S
O209 Mg196 2.010 . S
O209 C201 1.249 . S
Mg210 O211 2.028 . S
Mg210 O217 1.986 . S
Mg210 O219 2.114 1_655 S
Mg210 O220 2.251 1_655 S
Mg210 O223 2.010 1_565 S
O211 Mg210 2.028 . S
O211 C214 1.250 . S
O212 Mg213 2.028 . S
O212 C214 1.248 . S
Mg213 O212 2.028 . S
Mg213 O218 2.032 . S
Mg213 O220 2.079 1_655 S
C214 O211 1.250 . S
C214 O212 1.248 . S
C215 O216 1.264 . S
C215 O223 1.249 . S
O216 C215 1.264 . S
O217 Mg210 1.986 . S
O217 C221 1.246 . S
O218 Mg213 2.032 . S
O218 C221 1.259 . S
O219 Mg210 2.114 1_455 S
O219 C222 1.252 . S
O220 Mg210 2.251 1_455 S
O220 Mg213 2.079 1_455 S
O220 C222 1.273 . S
C221 O217 1.246 . S
C221 O218 1.259 . S
C222 O219 1.252 . S
C222 O220 1.273 . S
O223 Mg210 2.010 1_545 S
O223 C215 1.249 . S
Mg224 O225 2.028 . S
Mg224 O231 1.986 . S
Mg224 O233 2.114 . S
Mg224 O234 2.251 . S
Mg224 O237 2.010 . S
O225 Mg224 2.028 . S
O225 C228 1.250 . S
O226 Mg227 2.028 . S
O226 C228 1.248 . S
Mg227 O226 2.028 . S
Mg227 O232 2.032 . S
Mg227 O234 2.079 . S
C228 O225 1.250 . S
C228 O226 1.248 . S
C229 O230 1.264 . S
C229 O237 1.249 . S
O230 C229 1.264 . S
O231 Mg224 1.986 . S
O231 C235 1.246 . S
O232 Mg227 2.032 . S
O232 C235 1.259 . S
O233 Mg224 2.114 . S
O233 C236 1.252 . S
O234 Mg224 2.251 . S
O234 Mg227 2.079 . S
O234 C236 1.273 . S
C235 O231 1.246 . S
C235 O232 1.259 . S
C236 O233 1.252 . S
C236 O234 1.273 . S
O237 Mg224 2.010 . S
O237 C229 1.249 . S
Mg238 O239 2.028 . S
Mg238 O245 1.986 . S
Mg238 O247 2.114 . S
Mg238 O248 2.251 . S
Mg238 O251 2.010 . S
O239 Mg238 2.028 . S
O239 C242 1.250 . S
O240 Mg241 2.028 . S
O240 C242 1.248 . S
Mg241 O240 2.028 . S
Mg241 O246 2.032 . S
Mg241 O248 2.079 . S
C242 O239 1.250 . S
C242 O240 1.248 . S
C243 O244 1.264 . S
C243 O251 1.249 . S
O244 C243 1.264 . S
O245 Mg238 1.986 . S
O245 C249 1.246 . S
O246 Mg241 2.032 . S
O246 C249 1.259 . S
O247 Mg238 2.114 . S
O247 C250 1.252 . S
O248 Mg238 2.251 . S
O248 Mg241 2.079 . S
O248 C250 1.273 . S
C249 O245 1.246 . S
C249 O246 1.259 . S
C250 O247 1.252 . S
C250 O248 1.273 . S
O251 Mg238 2.010 . S
O251 C243 1.249 . S
Mg252 O253 2.028 . S
Mg252 O259 1.986 . S
Mg252 O261 2.114 . S
Mg252 O262 2.251 . S
Mg252 O265 2.010 . S
O253 Mg252 2.028 . S
O253 C256 1.250 . S
O254 Mg255 2.028 . S
O254 C256 1.248 . S
Mg255 O254 2.028 . S
Mg255 O260 2.032 . S
Mg255 O262 2.079 . S
C256 O253 1.250 . S
C256 O254 1.248 . S
C257 O258 1.264 . S
C257 O265 1.249 . S
O258 C257 1.264 . S
O259 Mg252 1.986 . S
O259 C263 1.246 . S
O260 Mg255 2.032 . S
O260 C263 1.259 . S
O261 Mg252 2.114 . S
O261 C264 1.252 . S
O262 Mg252 2.251 . S
O262 Mg255 2.079 . S
O262 C264 1.273 . S
C263 O259 1.246 . S
C263 O260 1.259 . S
C264 O261 1.252 . S
C264 O262 1.273 . S
O265 Mg252 2.010 . S
O265 C257 1.249 . S
Mg266 O267 2.028 . S
Mg266 O273 1.986 . S
Mg266 O275 2.114 1_655 S
Mg266 O276 2.251 1_655 S
Mg266 O279 2.010 . S
O267 Mg266 2.028 . S
O267 C270 1.250 . S
O268 Mg269 2.028 . S
O268 C270 1.248 . S
Mg269 O268 2.028 . S
Mg269 O274 2.032 . S
Mg269 O276 2.079 1_655 S
C270 O267 1.250 . S
C270 O268 1.248 . S
C271 O272 1.264 . S
C271 O279 1.249 . S
O272 C271 1.264 . S
O273 Mg266 1.986 . S
O273 C277 1.246 . S
O274 Mg269 2.032 . S
O274 C277 1.259 . S
O275 Mg266 2.114 1_455 S
O275 C278 1.252 . S
O276 Mg266 2.251 1_455 S
O276 Mg269 2.079 1_455 S
O276 C278 1.273 . S
C277 O273 1.246 . S
C277 O274 1.259 . S
C278 O275 1.252 . S
C278 O276 1.273 . S
O279 Mg266 2.010 . S
O279 C271 1.249 . S
Mg280 O281 2.028 . S
Mg280 O287 1.986 . S
Mg280 O289 2.114 . S
Mg280 O290 2.251 . S
Mg280 O293 2.010 . S
O281 Mg280 2.028 . S
O281 C284 1.250 . S
O282 Mg283 2.028 . S
O282 C284 1.248 . S
Mg283 O282 2.028 . S
Mg283 O288 2.032 . S
Mg283 O290 2.079 . S
C284 O281 1.250 . S
C284 O282 1.248 . S
C285 O286 1.264 . S
C285 O293 1.249 . S
O286 C285 1.264 . S
O287 Mg280 1.986 . S
O287 C291 1.246 . S
O288 Mg283 2.032 . S
O288 C291 1.259 . S
O289 Mg280 2.114 . S
O289 C292 1.252 . S
O290 Mg280 2.251 . S
O290 Mg283 2.079 . S
O290 C292 1.273 . S
C291 O287 1.246 . S
C291 O288 1.259 . S
C292 O289 1.252 . S
C292 O290 1.273 . S
O293 Mg280 2.010 . S
O293 C285 1.249 . S
Mg294 O295 2.028 . S
Mg294 O301 1.986 . S
Mg294 O303 2.114 1_655 S
Mg294 O304 2.251 1_655 S
Mg294 O307 2.010 . S
O295 Mg294 2.028 . S
O295 C298 1.250 . S
O296 Mg297 2.028 . S
O296 C298 1.248 . S
Mg297 O296 2.028 . S
Mg297 O302 2.032 . S
Mg297 O304 2.079 1_655 S
C298 O295 1.250 . S
C298 O296 1.248 . S
C299 O300 1.264 . S
C299 O307 1.249 . S
O300 C299 1.264 . S
O301 Mg294 1.986 . S
O301 C305 1.246 . S
O302 Mg297 2.032 . S
O302 C305 1.259 . S
O303 Mg294 2.114 1_455 S
O303 C306 1.252 . S
O304 Mg294 2.251 1_455 S
O304 Mg297 2.079 1_455 S
O304 C306 1.273 . S
C305 O301 1.246 . S
C305 O302 1.259 . S
C306 O303 1.252 . S
C306 O304 1.273 . S
O307 Mg294 2.010 . S
O307 C299 1.249 . S
Mg308 O309 2.028 . S
Mg308 O315 1.986 . S
Mg308 O317 2.114 . S
Mg308 O318 2.251 . S
Mg308 O321 2.010 . S
O309 Mg308 2.028 . S
O309 C312 1.250 . S
O310 Mg311 2.028 . S
O310 C312 1.248 . S
Mg311 O310 2.028 . S
Mg311 O316 2.032 . S
Mg311 O318 2.079 . S
C312 O309 1.250 . S
C312 O310 1.248 . S
C313 O314 1.264 . S
C313 O321 1.249 . S
O314 C313 1.264 . S
O315 Mg308 1.986 . S
O315 C319 1.246 . S
O316 Mg311 2.032 . S
O316 C319 1.259 . S
O317 Mg308 2.114 . S
O317 C320 1.252 . S
O318 Mg308 2.251 . S
O318 Mg311 2.079 . S
O318 C320 1.273 . S
C319 O315 1.246 . S
C319 O316 1.259 . S
C320 O317 1.252 . S
C320 O318 1.273 . S
O321 Mg308 2.010 . S
O321 C313 1.249 . S
Mg322 O323 2.028 . S
Mg322 O329 1.986 . S
Mg322 O331 2.114 . S
Mg322 O332 2.251 . S
Mg322 O335 2.010 . S
O323 Mg322 2.028 . S
O323 C326 1.250 . S
O324 Mg325 2.028 . S
O324 C326 1.248 . S
Mg325 O324 2.028 . S
Mg325 O330 2.032 . S
Mg325 O332 2.079 . S
C326 O323 1.250 . S
C326 O324 1.248 . S
C327 O328 1.264 . S
C327 O335 1.249 . S
O328 C327 1.264 . S
O329 Mg322 1.986 . S
O329 C333 1.246 . S
O330 Mg325 2.032 . S
O330 C333 1.259 . S
O331 Mg322 2.114 . S
O331 C334 1.252 . S
O332 Mg322 2.251 . S
O332 Mg325 2.079 . S
O332 C334 1.273 . S
C333 O329 1.246 . S
C333 O330 1.259 . S
C334 O331 1.252 . S
C334 O332 1.273 . S
O335 Mg322 2.010 . S
O335 C327 1.249 . S
Mg336 O337 2.028 . S
Mg336 O343 1.986 . S
Mg336 O345 2.114 . S
Mg336 O346 2.251 . S
Mg336 O349 2.010 . S
O337 Mg336 2.028 . S
O337 C340 1.250 . S
O338 Mg339 2.028 . S
O338 C340 1.248 . S
Mg339 O338 2.028 . S
Mg339 O344 2.032 . S
Mg339 O346 2.079 . S
C340 O337 1.250 . S
C340 O338 1.248 . S
C341 O342 1.264 . S
C341 O349 1.249 . S
O342 C341 1.264 . S
O343 Mg336 1.986 . S
O343 C347 1.246 . S
O344 Mg339 2.032 . S
O344 C347 1.259 . S
O345 Mg336 2.114 . S
O345 C348 1.252 . S
O346 Mg336 2.251 . S
O346 Mg339 2.079 . S
O346 C348 1.273 . S
C347 O343 1.246 . S
C347 O344 1.259 . S
C348 O345 1.252 . S
C348 O346 1.273 . S
O349 Mg336 2.010 . S
O349 C341 1.249 . S
Mg350 O351 2.028 . S
Mg350 O357 1.986 . S
Mg350 O359 2.114 . S
Mg350 O360 2.251 . S
Mg350 O363 2.010 . S
O351 Mg350 2.028 . S
O351 C354 1.250 . S
O352 Mg353 2.028 . S
O352 C354 1.248 . S
Mg353 O352 2.028 . S
Mg353 O358 2.032 . S
Mg353 O360 2.079 . S
C354 O351 1.250 . S
C354 O352 1.248 . S
C355 O356 1.264 . S
C355 O363 1.249 . S
O356 C355 1.264 . S
O357 Mg350 1.986 . S
O357 C361 1.246 . S
O358 Mg353 2.032 . S
O358 C361 1.259 . S
O359 Mg350 2.114 . S
O359 C362 1.252 . S
O360 Mg350 2.251 . S
O360 Mg353 2.079 . S
O360 C362 1.273 . S
C361 O357 1.246 . S
C361 O358 1.259 . S
C362 O359 1.252 . S
C362 O360 1.273 . S
O363 Mg350 2.010 . S
O363 C355 1.249 . S
Mg364 O365 2.028 . S
Mg364 O371 1.986 . S
Mg364 O373 2.114 . S
Mg364 O374 2.251 . S
Mg364 O377 2.010 . S
O365 Mg364 2.028 . S
O365 C368 1.250 . S
O366 Mg367 2.028 . S
O366 C368 1.248 . S
Mg367 O366 2.028 . S
Mg367 O372 2.032 . S
Mg367 O374 2.079 . S
C368 O365 1.250 . S
C368 O366 1.248 . S
C369 O370 1.264 . S
C369 O377 1.249 . S
O370 C369 1.264 . S
O371 Mg364 1.986 . S
O371 C375 1.246 . S
O372 Mg367 2.032 . S
O372 C375 1.259 . S
O373 Mg364 2.114 . S
O373 C376 1.252 . S
O374 Mg364 2.251 . S
O374 Mg367 2.079 . S
O374 C376 1.273 . S
C375 O371 1.246 . S
C375 O372 1.259 . S
C376 O373 1.252 . S
C376 O374 1.273 . S
O377 Mg364 2.010 . S
O377 C369 1.249 . S
Mg378 O379 2.028 . S
Mg378 O385 1.986 . S
Mg378 O387 2.114 1_455 S
Mg378 O388 2.251 1_455 S
Mg378 O391 2.010 . S
O379 Mg378 2.028 . S
O379 C382 1.250 . S
O380 Mg381 2.028 . S
O380 C382 1.248 . S
Mg381 O380 2.028 . S
Mg381 O386 2.032 . S
Mg381 O388 2.079 1_455 S
C382 O379 1.250 . S
C382 O380 1.248 . S
C383 O384 1.264 . S
C383 O391 1.249 . S
O384 C383 1.264 . S
O385 Mg378 1.986 . S
O385 C389 1.246 . S
O386 Mg381 2.032 . S
O386 C389 1.259 . S
O387 Mg378 2.114 1_655 S
O387 C390 1.252 . S
O388 Mg378 2.251 1_655 S
O388 Mg381 2.079 1_655 S
O388 C390 1.273 . S
C389 O385 1.246 . S
C389 O386 1.259 . S
C390 O387 1.252 . S
C390 O388 1.273 . S
O391 Mg378 2.010 . S
O391 C383 1.249 . S
Mg392 O393 2.028 . S
Mg392 O399 1.986 . S
Mg392 O401 2.114 . S
Mg392 O402 2.251 . S
Mg392 O405 2.010 . S
O393 Mg392 2.028 . S
O393 C396 1.250 . S
O394 Mg395 2.028 . S
O394 C396 1.248 . S
Mg395 O394 2.028 . S
Mg395 O400 2.032 . S
Mg395 O402 2.079 . S
C396 O393 1.250 . S
C396 O394 1.248 . S
C397 O398 1.264 . S
C397 O405 1.249 . S
O398 C397 1.264 . S
O399 Mg392 1.986 . S
O399 C403 1.246 . S
O400 Mg395 2.032 . S
O400 C403 1.259 . S
O401 Mg392 2.114 . S
O401 C404 1.252 . S
O402 Mg392 2.251 . S
O402 Mg395 2.079 . S
O402 C404 1.273 . S
C403 O399 1.246 . S
C403 O400 1.259 . S
C404 O401 1.252 . S
C404 O402 1.273 . S
O405 Mg392 2.010 . S
O405 C397 1.249 . S
Mg406 O407 2.028 . S
Mg406 O413 1.986 . S
Mg406 O415 2.114 1_455 S
Mg406 O416 2.251 1_455 S
Mg406 O419 2.010 . S
O407 Mg406 2.028 . S
O407 C410 1.250 . S
O408 Mg409 2.028 . S
O408 C410 1.248 . S
Mg409 O408 2.028 . S
Mg409 O414 2.032 . S
Mg409 O416 2.079 1_455 S
C410 O407 1.250 . S
C410 O408 1.248 . S
C411 O412 1.264 . S
C411 O419 1.249 . S
O412 C411 1.264 . S
O413 Mg406 1.986 . S
O413 C417 1.246 . S
O414 Mg409 2.032 . S
O414 C417 1.259 . S
O415 Mg406 2.114 1_655 S
O415 C418 1.252 . S
O416 Mg406 2.251 1_655 S
O416 Mg409 2.079 1_655 S
O416 C418 1.273 . S
C417 O413 1.246 . S
C417 O414 1.259 . S
C418 O415 1.252 . S
C418 O416 1.273 . S
O419 Mg406 2.010 . S
O419 C411 1.249 . S
Mg420 O421 2.028 . S
Mg420 O427 1.986 . S
Mg420 O429 2.114 . S
Mg420 O430 2.251 . S
Mg420 O433 2.010 . S
O421 Mg420 2.028 . S
O421 C424 1.250 . S
O422 Mg423 2.028 . S
O422 C424 1.248 . S
Mg423 O422 2.028 . S
Mg423 O428 2.032 . S
Mg423 O430 2.079 . S
C424 O421 1.250 . S
C424 O422 1.248 . S
C425 O426 1.264 . S
C425 O433 1.249 . S
O426 C425 1.264 . S
O427 Mg420 1.986 . S
O427 C431 1.246 . S
O428 Mg423 2.032 . S
O428 C431 1.259 . S
O429 Mg420 2.114 . S
O429 C432 1.252 . S
O430 Mg420 2.251 . S
O430 Mg423 2.079 . S
O430 C432 1.273 . S
C431 O427 1.246 . S
C431 O428 1.259 . S
C432 O429 1.252 . S
C432 O430 1.273 . S
O433 Mg420 2.010 . S
O433 C425 1.249 . S
Mg434 O435 2.028 . S
Mg434 O441 1.986 . S
Mg434 O443 2.114 . S
Mg434 O444 2.251 . S
Mg434 O447 2.010 . S
O435 Mg434 2.028 . S
O435 C438 1.250 . S
O436 Mg437 2.028 . S
O436 C438 1.248 . S
Mg437 O436 2.028 . S
Mg437 O442 2.032 . S
Mg437 O444 2.079 . S
C438 O435 1.250 . S
C438 O436 1.248 . S
C439 O440 1.264 . S
C439 O447 1.249 . S
O440 C439 1.264 . S
O441 Mg434 1.986 . S
O441 C445 1.246 . S
O442 Mg437 2.032 . S
O442 C445 1.259 . S
O443 Mg434 2.114 . S
O443 C446 1.252 . S
O444 Mg434 2.251 . S
O444 Mg437 2.079 . S
O444 C446 1.273 . S
C445 O441 1.246 . S
C445 O442 1.259 . S
C446 O443 1.252 . S
C446 O444 1.273 . S
O447 Mg434 2.010 . S
O447 C439 1.249 . S
H448 C456 0.950 . S
H449 C461 0.950 . S
H450 C458 0.950 . S
H451 C460 0.950 . S
H452 C462 0.950 . S
H453 C464 0.950 . S
H454 C466 0.950 . S
H455 C467 0.950 . S
C456 H448 0.950 . S
C456 C457 1.386 . S
C456 C458 1.391 . S
C457 C456 1.386 . S
C457 C461 1.393 . S
C458 H450 0.950 . S
C458 C456 1.391 . S
C458 C459 1.400 . S
C459 C458 1.400 . S
C459 C460 1.398 . S
C459 C465 1.491 . S
C460 H451 0.950 . S
C460 C459 1.398 . S
C460 C461 1.391 . S
C461 H449 0.950 . S
C461 C457 1.393 . S
C461 C460 1.391 . S
C462 H452 0.950 . S
C462 C463 1.386 . S
C462 C464 1.391 . S
C463 C462 1.386 . S
C463 C467 1.393 . S
C464 H453 0.950 . S
C464 C462 1.391 . S
C464 C465 1.400 . S
C465 C459 1.491 . S
C465 C464 1.400 . S
C465 C466 1.398 . S
C466 H454 0.950 . S
C466 C465 1.398 . S
C466 C467 1.391 . S
C467 H455 0.950 . S
C467 C463 1.393 . S
C467 C466 1.391 . S
H468 C476 0.950 . S
H469 C481 0.950 . S
H470 C478 0.950 . S
H471 C480 0.950 . S
H472 C482 0.950 . S
H473 C484 0.950 . S
H474 C486 0.950 . S
H475 C487 0.950 . S
C476 H468 0.950 . S
C476 C477 1.386 . S
C476 C478 1.391 . S
C477 C476 1.386 . S
C477 C481 1.393 . S
C478 H470 0.950 . S
C478 C476 1.391 . S
C478 C479 1.400 . S
C479 C478 1.400 . S
C479 C480 1.398 . S
C479 C485 1.491 . S
C480 H471 0.950 . S
C480 C479 1.398 . S
C480 C481 1.391 . S
C481 H469 0.950 . S
C481 C477 1.393 . S
C481 C480 1.391 . S
C482 H472 0.950 . S
C482 C483 1.386 . S
C482 C484 1.391 . S
C483 C482 1.386 . S
C483 C487 1.393 . S
C484 H473 0.950 . S
C484 C482 1.391 . S
C484 C485 1.400 . S
C485 C479 1.491 . S
C485 C484 1.400 . S
C485 C486 1.398 . S
C486 H474 0.950 . S
C486 C485 1.398 . S
C486 C487 1.391 . S
C487 H475 0.950 . S
C487 C483 1.393 . S
C487 C486 1.391 . S
H488 C496 0.950 . S
H489 C501 0.950 . S
H490 C498 0.950 . S
H491 C500 0.950 . S
H492 C502 0.950 . S
H493 C504 0.950 . S
H494 C506 0.950 . S
H495 C507 0.950 . S
C496 H488 0.950 . S
C496 C497 1.386 . S
C496 C498 1.391 . S
C497 C496 1.386 . S
C497 C501 1.393 . S
C498 H490 0.950 . S
C498 C496 1.391 . S
C498 C499 1.400 . S
C499 C498 1.400 . S
C499 C500 1.398 . S
C499 C505 1.491 . S
C500 H491 0.950 . S
C500 C499 1.398 . S
C500 C501 1.391 . S
C501 H489 0.950 . S
C501 C497 1.393 . S
C501 C500 1.391 . S
C502 H492 0.950 . S
C502 C503 1.386 . S
C502 C504 1.391 . S
C503 C502 1.386 . S
C503 C507 1.393 . S
C504 H493 0.950 . S
C504 C502 1.391 . S
C504 C505 1.400 . S
C505 C499 1.491 . S
C505 C504 1.400 . S
C505 C506 1.398 . S
C506 H494 0.950 . S
C506 C505 1.398 . S
C506 C507 1.391 . S
C507 H495 0.950 . S
C507 C503 1.393 . S
C507 C506 1.391 . S
H508 C516 0.950 . S
H509 C521 0.950 . S
H510 C518 0.950 . S
H511 C520 0.950 . S
H512 C522 0.950 . S
H513 C524 0.950 . S
H514 C526 0.950 . S
H515 C527 0.950 . S
C516 H508 0.950 . S
C516 C517 1.386 . S
C516 C518 1.391 . S
C517 C516 1.386 . S
C517 C521 1.393 . S
C518 H510 0.950 . S
C518 C516 1.391 . S
C518 C519 1.400 . S
C519 C518 1.400 . S
C519 C520 1.398 . S
C519 C525 1.491 . S
C520 H511 0.950 . S
C520 C519 1.398 . S
C520 C521 1.391 . S
C521 H509 0.950 . S
C521 C517 1.393 . S
C521 C520 1.391 . S
C522 H512 0.950 . S
C522 C523 1.386 . S
C522 C524 1.391 . S
C523 C522 1.386 . S
C523 C527 1.393 . S
C524 H513 0.950 . S
C524 C522 1.391 . S
C524 C525 1.400 . S
C525 C519 1.491 . S
C525 C524 1.400 . S
C525 C526 1.398 . S
C526 H514 0.950 . S
C526 C525 1.398 . S
C526 C527 1.391 . S
C527 H515 0.950 . S
C527 C523 1.393 . S
C527 C526 1.391 . S
H528 C536 0.950 . S
H529 C541 0.950 . S
H530 C538 0.950 . S
H531 C540 0.950 . S
H532 C542 0.950 . S
H533 C544 0.950 . S
H534 C546 0.950 . S
H535 C547 0.950 . S
C536 H528 0.950 . S
C536 C537 1.386 . S
C536 C538 1.391 . S
C537 C536 1.386 . S
C537 C541 1.393 . S
C538 H530 0.950 . S
C538 C536 1.391 . S
C538 C539 1.400 . S
C539 C538 1.400 . S
C539 C540 1.398 . S
C539 C545 1.491 . S
C540 H531 0.950 . S
C540 C539 1.398 . S
C540 C541 1.391 . S
C541 H529 0.950 . S
C541 C537 1.393 . S
C541 C540 1.391 . S
C542 H532 0.950 . S
C542 C543 1.386 . S
C542 C544 1.391 . S
C543 C542 1.386 . S
C543 C547 1.393 . S
C544 H533 0.950 . S
C544 C542 1.391 . S
C544 C545 1.400 . S
C545 C539 1.491 . S
C545 C544 1.400 . S
C545 C546 1.398 . S
C546 H534 0.950 . S
C546 C545 1.398 . S
C546 C547 1.391 . S
C547 H535 0.950 . S
C547 C543 1.393 . S
C547 C546 1.391 . S
H548 C556 0.950 . S
H549 C561 0.950 . S
H550 C558 0.950 . S
H551 C560 0.950 . S
H552 C562 0.950 . S
H553 C564 0.950 . S
H554 C566 0.950 . S
H555 C567 0.950 . S
C556 H548 0.950 . S
C556 C557 1.386 . S
C556 C558 1.391 . S
C557 C556 1.386 . S
C557 C561 1.393 . S
C558 H550 0.950 . S
C558 C556 1.391 . S
C558 C559 1.400 . S
C559 C558 1.400 . S
C559 C560 1.398 . S
C559 C565 1.491 . S
C560 H551 0.950 . S
C560 C559 1.398 . S
C560 C561 1.391 . S
C561 H549 0.950 . S
C561 C557 1.393 . S
C561 C560 1.391 . S
C562 H552 0.950 . S
C562 C563 1.386 . S
C562 C564 1.391 . S
C563 C562 1.386 . S
C563 C567 1.393 . S
C564 H553 0.950 . S
C564 C562 1.391 . S
C564 C565 1.400 . S
C565 C559 1.491 . S
C565 C564 1.400 . S
C565 C566 1.398 . S
C566 H554 0.950 . S
C566 C565 1.398 . S
C566 C567 1.391 . S
C567 H555 0.950 . S
C567 C563 1.393 . S
C567 C566 1.391 . S
H568 C576 0.950 . S
H569 C581 0.950 . S
H570 C578 0.950 . S
H571 C580 0.950 . S
H572 C582 0.950 . S
H573 C584 0.950 . S
H574 C586 0.950 . S
H575 C587 0.950 . S
C576 H568 0.950 . S
C576 C577 1.386 . S
C576 C578 1.391 . S
C577 C576 1.386 . S
C577 C581 1.393 . S
C578 H570 0.950 . S
C578 C576 1.391 . S
C578 C579 1.400 . S
C579 C578 1.400 . S
C579 C580 1.398 . S
C579 C585 1.491 . S
C580 H571 0.950 . S
C580 C579 1.398 . S
C580 C581 1.391 . S
C581 H569 0.950 . S
C581 C577 1.393 . S
C581 C580 1.391 . S
C582 H572 0.950 . S
C582 C583 1.386 . S
C582 C584 1.391 . S
C583 C582 1.386 . S
C583 C587 1.393 . S
C584 H573 0.950 . S
C584 C582 1.391 . S
C584 C585 1.400 . S
C585 C579 1.491 . S
C585 C584 1.400 . S
C585 C586 1.398 . S
C586 H574 0.950 . S
C586 C585 1.398 . S
C586 C587 1.391 . S
C587 H575 0.950 . S
C587 C583 1.393 . S
C587 C586 1.391 . S
H588 C596 0.950 . S
H589 C601 0.950 . S
H590 C598 0.950 . S
H591 C600 0.950 . S
H592 C602 0.950 . S
H593 C604 0.950 . S
H594 C606 0.950 . S
H595 C607 0.950 . S
C596 H588 0.950 . S
C596 C597 1.386 . S
C596 C598 1.391 . S
C597 C596 1.386 . S
C597 C601 1.393 . S
C598 H590 0.950 . S
C598 C596 1.391 . S
C598 C599 1.400 . S
C599 C598 1.400 . S
C599 C600 1.398 . S
C599 C605 1.491 . S
C600 H591 0.950 . S
C600 C599 1.398 . S
C600 C601 1.391 . S
C601 H589 0.950 . S
C601 C597 1.393 . S
C601 C600 1.391 . S
C602 H592 0.950 . S
C602 C603 1.386 . S
C602 C604 1.391 . S
C603 C602 1.386 . S
C603 C607 1.393 . S
C604 H593 0.950 . S
C604 C602 1.391 . S
C604 C605 1.400 . S
C605 C599 1.491 . S
C605 C604 1.400 . S
C605 C606 1.398 . S
C606 H594 0.950 . S
C606 C605 1.398 . S
C606 C607 1.391 . S
C607 H595 0.950 . S
C607 C603 1.393 . S
C607 C606 1.391 . S
H608 C616 0.950 . S
H609 C621 0.950 . S
H610 C618 0.950 . S
H611 C620 0.950 . S
H612 C622 0.950 . S
H613 C624 0.950 . S
H614 C626 0.950 . S
H615 C627 0.950 . S
C616 H608 0.950 . S
C616 C617 1.386 . S
C616 C618 1.391 . S
C617 C616 1.386 . S
C617 C621 1.393 . S
C618 H610 0.950 . S
C618 C616 1.391 . S
C618 C619 1.400 . S
C619 C618 1.400 . S
C619 C620 1.398 . S
C619 C625 1.491 . S
C620 H611 0.950 . S
C620 C619 1.398 . S
C620 C621 1.391 . S
C621 H609 0.950 . S
C621 C617 1.393 . S
C621 C620 1.391 . S
C622 H612 0.950 . S
C622 C623 1.386 . S
C622 C624 1.391 . S
C623 C622 1.386 . S
C623 C627 1.393 . S
C624 H613 0.950 . S
C624 C622 1.391 . S
C624 C625 1.400 . S
C625 C619 1.491 . S
C625 C624 1.400 . S
C625 C626 1.398 . S
C626 H614 0.950 . S
C626 C625 1.398 . S
C626 C627 1.391 . S
C627 H615 0.950 . S
C627 C623 1.393 . S
C627 C626 1.391 . S
H628 C636 0.950 . S
H629 C641 0.950 . S
H630 C638 0.950 . S
H631 C640 0.950 . S
H632 C642 0.950 . S
H633 C644 0.950 . S
H634 C646 0.950 . S
H635 C647 0.950 . S
C636 H628 0.950 . S
C636 C637 1.386 . S
C636 C638 1.391 . S
C637 C636 1.386 . S
C637 C641 1.393 . S
C638 H630 0.950 . S
C638 C636 1.391 . S
C638 C639 1.400 . S
C639 C638 1.400 . S
C639 C640 1.398 . S
C639 C645 1.491 . S
C640 H631 0.950 . S
C640 C639 1.398 . S
C640 C641 1.391 . S
C641 H629 0.950 . S
C641 C637 1.393 . S
C641 C640 1.391 . S
C642 H632 0.950 . S
C642 C643 1.386 . S
C642 C644 1.391 . S
C643 C642 1.386 . S
C643 C647 1.393 . S
C644 H633 0.950 . S
C644 C642 1.391 . S
C644 C645 1.400 . S
C645 C639 1.491 . S
C645 C644 1.400 . S
C645 C646 1.398 . S
C646 H634 0.950 . S
C646 C645 1.398 . S
C646 C647 1.391 . S
C647 H635 0.950 . S
C647 C643 1.393 . S
C647 C646 1.391 . S
H648 C656 0.950 . S
H649 C661 0.950 . S
H650 C658 0.950 . S
H651 C660 0.950 . S
H652 C662 0.950 . S
H653 C664 0.950 . S
H654 C666 0.950 . S
H655 C667 0.950 . S
C656 H648 0.950 . S
C656 C657 1.386 . S
C656 C658 1.391 . S
C657 C656 1.386 . S
C657 C661 1.393 . S
C658 H650 0.950 . S
C658 C656 1.391 . S
C658 C659 1.400 . S
C659 C658 1.400 . S
C659 C660 1.398 . S
C659 C665 1.491 . S
C660 H651 0.950 . S
C660 C659 1.398 . S
C660 C661 1.391 . S
C661 H649 0.950 . S
C661 C657 1.393 . S
C661 C660 1.391 . S
C662 H652 0.950 . S
C662 C663 1.386 . S
C662 C664 1.391 . S
C663 C662 1.386 . S
C663 C667 1.393 . S
C664 H653 0.950 . S
C664 C662 1.391 . S
C664 C665 1.400 . S
C665 C659 1.491 . S
C665 C664 1.400 . S
C665 C666 1.398 . S
C666 H654 0.950 . S
C666 C665 1.398 . S
C666 C667 1.391 . S
C667 H655 0.950 . S
C667 C663 1.393 . S
C667 C666 1.391 . S
H668 C676 0.950 . S
H669 C681 0.950 . S
H670 C678 0.950 . S
H671 C680 0.950 . S
H672 C682 0.950 . S
H673 C684 0.950 . S
H674 C686 0.950 . S
H675 C687 0.950 . S
C676 H668 0.950 . S
C676 C677 1.386 . S
C676 C678 1.391 . S
C677 C676 1.386 . S
C677 C681 1.393 . S
C678 H670 0.950 . S
C678 C676 1.391 . S
C678 C679 1.400 . S
C679 C678 1.400 . S
C679 C680 1.398 . S
C679 C685 1.491 . S
C680 H671 0.950 . S
C680 C679 1.398 . S
C680 C681 1.391 . S
C681 H669 0.950 . S
C681 C677 1.393 . S
C681 C680 1.391 . S
C682 H672 0.950 . S
C682 C683 1.386 . S
C682 C684 1.391 . S
C683 C682 1.386 . S
C683 C687 1.393 . S
C684 H673 0.950 . S
C684 C682 1.391 . S
C684 C685 1.400 . S
C685 C679 1.491 . S
C685 C684 1.400 . S
C685 C686 1.398 . S
C686 H674 0.950 . S
C686 C685 1.398 . S
C686 C687 1.391 . S
C687 H675 0.950 . S
C687 C683 1.393 . S
C687 C686 1.391 . S
H688 C696 0.950 . S
H689 C701 0.950 . S
H690 C698 0.950 . S
H691 C700 0.950 . S
H692 C702 0.950 . S
H693 C704 0.950 . S
H694 C706 0.950 . S
H695 C707 0.950 . S
C696 H688 0.950 . S
C696 C697 1.386 . S
C696 C698 1.391 . S
C697 C696 1.386 . S
C697 C701 1.393 . S
C698 H690 0.950 . S
C698 C696 1.391 . S
C698 C699 1.400 . S
C699 C698 1.400 . S
C699 C700 1.398 . S
C699 C705 1.491 . S
C700 H691 0.950 . S
C700 C699 1.398 . S
C700 C701 1.391 . S
C701 H689 0.950 . S
C701 C697 1.393 . S
C701 C700 1.391 . S
C702 H692 0.950 . S
C702 C703 1.386 . S
C702 C704 1.391 . S
C703 C702 1.386 . S
C703 C707 1.393 . S
C704 H693 0.950 . S
C704 C702 1.391 . S
C704 C705 1.400 . S
C705 C699 1.491 . S
C705 C704 1.400 . S
C705 C706 1.398 . S
C706 H694 0.950 . S
C706 C705 1.398 . S
C706 C707 1.391 . S
C707 H695 0.950 . S
C707 C703 1.393 . S
C707 C706 1.391 . S
H708 C716 0.950 . S
H709 C721 0.950 . S
H710 C718 0.950 . S
H711 C720 0.950 . S
H712 C722 0.950 . S
H713 C724 0.950 . S
H714 C726 0.950 . S
H715 C727 0.950 . S
C716 H708 0.950 . S
C716 C717 1.386 . S
C716 C718 1.391 . S
C717 C716 1.386 . S
C717 C721 1.393 . S
C718 H710 0.950 . S
C718 C716 1.391 . S
C718 C719 1.400 . S
C719 C718 1.400 . S
C719 C720 1.398 . S
C719 C725 1.491 . S
C720 H711 0.950 . S
C720 C719 1.398 . S
C720 C721 1.391 . S
C721 H709 0.950 . S
C721 C717 1.393 . S
C721 C720 1.391 . S
C722 H712 0.950 . S
C722 C723 1.386 . S
C722 C724 1.391 . S
C723 C722 1.386 . S
C723 C727 1.393 . S
C724 H713 0.950 . S
C724 C722 1.391 . S
C724 C725 1.400 . S
C725 C719 1.491 . S
C725 C724 1.400 . S
C725 C726 1.398 . S
C726 H714 0.950 . S
C726 C725 1.398 . S
C726 C727 1.391 . S
C727 H715 0.950 . S
C727 C723 1.393 . S
C727 C726 1.391 . S
H728 C736 0.950 . S
H729 C741 0.950 . S
H730 C738 0.950 . S
H731 C740 0.950 . S
H732 C742 0.950 . S
H733 C744 0.950 . S
H734 C746 0.950 . S
H735 C747 0.950 . S
C736 H728 0.950 . S
C736 C737 1.386 . S
C736 C738 1.391 . S
C737 C736 1.386 . S
C737 C741 1.393 . S
C738 H730 0.950 . S
C738 C736 1.391 . S
C738 C739 1.400 . S
C739 C738 1.400 . S
C739 C740 1.398 . S
C739 C745 1.491 . S
C740 H731 0.950 . S
C740 C739 1.398 . S
C740 C741 1.391 . S
C741 H729 0.950 . S
C741 C737 1.393 . S
C741 C740 1.391 . S
C742 H732 0.950 . S
C742 C743 1.386 . S
C742 C744 1.391 . S
C743 C742 1.386 . S
C743 C747 1.393 . S
C744 H733 0.950 . S
C744 C742 1.391 . S
C744 C745 1.400 . S
C745 C739 1.491 . S
C745 C744 1.400 . S
C745 C746 1.398 . S
C746 H734 0.950 . S
C746 C745 1.398 . S
C746 C747 1.391 . S
C747 H735 0.950 . S
C747 C743 1.393 . S
C747 C746 1.391 . S
H748 C756 0.950 . S
H749 C761 0.950 . S
H750 C758 0.950 . S
H751 C760 0.950 . S
H752 C762 0.950 . S
H753 C764 0.950 . S
H754 C766 0.950 . S
H755 C767 0.950 . S
C756 H748 0.950 . S
C756 C757 1.386 . S
C756 C758 1.391 . S
C757 C756 1.386 . S
C757 C761 1.393 . S
C758 H750 0.950 . S
C758 C756 1.391 . S
C758 C759 1.400 . S
C759 C758 1.400 . S
C759 C760 1.398 . S
C759 C765 1.491 . S
C760 H751 0.950 . S
C760 C759 1.398 . S
C760 C761 1.391 . S
C761 H749 0.950 . S
C761 C757 1.393 . S
C761 C760 1.391 . S
C762 H752 0.950 . S
C762 C763 1.386 . S
C762 C764 1.391 . S
C763 C762 1.386 . S
C763 C767 1.393 . S
C764 H753 0.950 . S
C764 C762 1.391 . S
C764 C765 1.400 . S
C765 C759 1.491 . S
C765 C764 1.400 . S
C765 C766 1.398 . S
C766 H754 0.950 . S
C766 C765 1.398 . S
C766 C767 1.391 . S
C767 H755 0.950 . S
C767 C763 1.393 . S
C767 C766 1.391 . S
H768 C776 0.950 . S
H769 C781 0.950 . S
H770 C778 0.950 . S
H771 C780 0.950 . S
H772 C782 0.950 . S
H773 C784 0.950 . S
H774 C786 0.950 . S
H775 C787 0.950 . S
C776 H768 0.950 . S
C776 C777 1.386 . S
C776 C778 1.391 . S
C777 C776 1.386 . S
C777 C781 1.393 . S
C778 H770 0.950 . S
C778 C776 1.391 . S
C778 C779 1.400 . S
C779 C778 1.400 . S
C779 C780 1.398 . S
C779 C785 1.491 . S
C780 H771 0.950 . S
C780 C779 1.398 . S
C780 C781 1.391 . S
C781 H769 0.950 . S
C781 C777 1.393 . S
C781 C780 1.391 . S
C782 H772 0.950 . S
C782 C783 1.386 . S
C782 C784 1.391 . S
C783 C782 1.386 . S
C783 C787 1.393 . S
C784 H773 0.950 . S
C784 C782 1.391 . S
C784 C785 1.400 . S
C785 C779 1.491 . S
C785 C784 1.400 . S
C785 C786 1.398 . S
C786 H774 0.950 . S
C786 C785 1.398 . S
C786 C787 1.391 . S
C787 H775 0.950 . S
C787 C783 1.393 . S
C787 C786 1.391 . S
H788 C796 0.950 . S
H789 C801 0.950 . S
H790 C798 0.950 . S
H791 C800 0.950 . S
H792 C802 0.950 . S
H793 C804 0.950 . S
H794 C806 0.950 . S
H795 C807 0.950 . S
C796 H788 0.950 . S
C796 C797 1.386 . S
C796 C798 1.391 . S
C797 C796 1.386 . S
C797 C801 1.393 . S
C798 H790 0.950 . S
C798 C796 1.391 . S
C798 C799 1.400 . S
C799 C798 1.400 . S
C799 C800 1.398 . S
C799 C805 1.491 . S
C800 H791 0.950 . S
C800 C799 1.398 . S
C800 C801 1.391 . S
C801 H789 0.950 . S
C801 C797 1.393 . S
C801 C800 1.391 . S
C802 H792 0.950 . S
C802 C803 1.386 . S
C802 C804 1.391 . S
C803 C802 1.386 . S
C803 C807 1.393 . S
C804 H793 0.950 . S
C804 C802 1.391 . S
C804 C805 1.400 . S
C805 C799 1.491 . S
C805 C804 1.400 . S
C805 C806 1.398 . S
C806 H794 0.950 . S
C806 C805 1.398 . S
C806 C807 1.391 . S
C807 H795 0.950 . S
C807 C803 1.393 . S
C807 C806 1.391 . S
H808 C816 0.950 . S
H809 C821 0.950 . S
H810 C818 0.950 . S
H811 C820 0.950 . S
H812 C822 0.950 . S
H813 C824 0.950 . S
H814 C826 0.950 . S
H815 C827 0.950 . S
C816 H808 0.950 . S
C816 C817 1.386 . S
C816 C818 1.391 . S
C817 C816 1.386 . S
C817 C821 1.393 . S
C818 H810 0.950 . S
C818 C816 1.391 . S
C818 C819 1.400 . S
C819 C818 1.400 . S
C819 C820 1.398 . S
C819 C825 1.491 . S
C820 H811 0.950 . S
C820 C819 1.398 . S
C820 C821 1.391 . S
C821 H809 0.950 . S
C821 C817 1.393 . S
C821 C820 1.391 . S
C822 H812 0.950 . S
C822 C823 1.386 . S
C822 C824 1.391 . S
C823 C822 1.386 . S
C823 C827 1.393 . S
C824 H813 0.950 . S
C824 C822 1.391 . S
C824 C825 1.400 . S
C825 C819 1.491 . S
C825 C824 1.400 . S
C825 C826 1.398 . S
C826 H814 0.950 . S
C826 C825 1.398 . S
C826 C827 1.391 . S
C827 H815 0.950 . S
C827 C823 1.393 . S
C827 C826 1.391 . S
H828 C836 0.950 . S
H829 C841 0.950 . S
H830 C838 0.950 . S
H831 C840 0.950 . S
H832 C842 0.950 . S
H833 C844 0.950 . S
H834 C846 0.950 . S
H835 C847 0.950 . S
C836 H828 0.950 . S
C836 C837 1.386 . S
C836 C838 1.391 . S
C837 C836 1.386 . S
C837 C841 1.393 . S
C838 H830 0.950 . S
C838 C836 1.391 . S
C838 C839 1.400 . S
C839 C838 1.400 . S
C839 C840 1.398 . S
C839 C845 1.491 . S
C840 H831 0.950 . S
C840 C839 1.398 . S
C840 C841 1.391 . S
C841 H829 0.950 . S
C841 C837 1.393 . S
C841 C840 1.391 . S
C842 H832 0.950 . S
C842 C843 1.386 . S
C842 C844 1.391 . S
C843 C842 1.386 . S
C843 C847 1.393 . S
C844 H833 0.950 . S
C844 C842 1.391 . S
C844 C845 1.400 . S
C845 C839 1.491 . S
C845 C844 1.400 . S
C845 C846 1.398 . S
C846 H834 0.950 . S
C846 C845 1.398 . S
C846 C847 1.391 . S
C847 H835 0.950 . S
C847 C843 1.393 . S
C847 C846 1.391 . S
H848 C856 0.950 . S
H849 C861 0.950 . S
H850 C858 0.950 . S
H851 C860 0.950 . S
H852 C862 0.950 . S
H853 C864 0.950 . S
H854 C866 0.950 . S
H855 C867 0.950 . S
C856 H848 0.950 . S
C856 C857 1.386 . S
C856 C858 1.391 . S
C857 C856 1.386 . S
C857 C861 1.393 . S
C858 H850 0.950 . S
C858 C856 1.391 . S
C858 C859 1.400 . S
C859 C858 1.400 . S
C859 C860 1.398 . S
C859 C865 1.491 . S
C860 H851 0.950 . S
C860 C859 1.398 . S
C860 C861 1.391 . S
C861 H849 0.950 . S
C861 C857 1.393 . S
C861 C860 1.391 . S
C862 H852 0.950 . S
C862 C863 1.386 . S
C862 C864 1.391 . S
C863 C862 1.386 . S
C863 C867 1.393 . S
C864 H853 0.950 . S
C864 C862 1.391 . S
C864 C865 1.400 . S
C865 C859 1.491 . S
C865 C864 1.400 . S
C865 C866 1.398 . S
C866 H854 0.950 . S
C866 C865 1.398 . S
C866 C867 1.391 . S
C867 H855 0.950 . S
C867 C863 1.393 . S
C867 C866 1.391 . S
H868 C876 0.950 . S
H869 C881 0.950 . S
H870 C878 0.950 . S
H871 C880 0.950 . S
H872 C882 0.950 . S
H873 C884 0.950 . S
H874 C886 0.950 . S
H875 C887 0.950 . S
C876 H868 0.950 . S
C876 C877 1.386 . S
C876 C878 1.391 . S
C877 C876 1.386 . S
C877 C881 1.393 . S
C878 H870 0.950 . S
C878 C876 1.391 . S
C878 C879 1.400 . S
C879 C878 1.400 . S
C879 C880 1.398 . S
C879 C885 1.491 . S
C880 H871 0.950 . S
C880 C879 1.398 . S
C880 C881 1.391 . S
C881 H869 0.950 . S
C881 C877 1.393 . S
C881 C880 1.391 . S
C882 H872 0.950 . S
C882 C883 1.386 . S
C882 C884 1.391 . S
C883 C882 1.386 . S
C883 C887 1.393 . S
C884 H873 0.950 . S
C884 C882 1.391 . S
C884 C885 1.400 . S
C885 C879 1.491 . S
C885 C884 1.400 . S
C885 C886 1.398 . S
C886 H874 0.950 . S
C886 C885 1.398 . S
C886 C887 1.391 . S
C887 H875 0.950 . S
C887 C883 1.393 . S
C887 C886 1.391 . S
H888 C896 0.950 . S
H889 C901 0.950 . S
H890 C898 0.950 . S
H891 C900 0.950 . S
H892 C902 0.950 . S
H893 C904 0.950 . S
H894 C906 0.950 . S
H895 C907 0.950 . S
C896 H888 0.950 . S
C896 C897 1.386 . S
C896 C898 1.391 . S
C897 C896 1.386 . S
C897 C901 1.393 . S
C898 H890 0.950 . S
C898 C896 1.391 . S
C898 C899 1.400 . S
C899 C898 1.400 . S
C899 C900 1.398 . S
C899 C905 1.491 . S
C900 H891 0.950 . S
C900 C899 1.398 . S
C900 C901 1.391 . S
C901 H889 0.950 . S
C901 C897 1.393 . S
C901 C900 1.391 . S
C902 H892 0.950 . S
C902 C903 1.386 . S
C902 C904 1.391 . S
C903 C902 1.386 . S
C903 C907 1.393 . S
C904 H893 0.950 . S
C904 C902 1.391 . S
C904 C905 1.400 . S
C905 C899 1.491 . S
C905 C904 1.400 . S
C905 C906 1.398 . S
C906 H894 0.950 . S
C906 C905 1.398 . S
C906 C907 1.391 . S
C907 H895 0.950 . S
C907 C903 1.393 . S
C907 C906 1.391 . S
H908 C916 0.950 . S
H909 C921 0.950 . S
H910 C918 0.950 . S
H911 C920 0.950 . S
H912 C922 0.950 . S
H913 C924 0.950 . S
H914 C926 0.950 . S
H915 C927 0.950 . S
C916 H908 0.950 . S
C916 C917 1.386 . S
C916 C918 1.391 . S
C917 C916 1.386 . S
C917 C921 1.393 . S
C918 H910 0.950 . S
C918 C916 1.391 . S
C918 C919 1.400 . S
C919 C918 1.400 . S
C919 C920 1.398 . S
C919 C925 1.491 . S
C920 H911 0.950 . S
C920 C919 1.398 . S
C920 C921 1.391 . S
C921 H909 0.950 . S
C921 C917 1.393 . S
C921 C920 1.391 . S
C922 H912 0.950 . S
C922 C923 1.386 . S
C922 C924 1.391 . S
C923 C922 1.386 . S
C923 C927 1.393 . S
C924 H913 0.950 . S
C924 C922 1.391 . S
C924 C925 1.400 . S
C925 C919 1.491 . S
C925 C924 1.400 . S
C925 C926 1.398 . S
C926 H914 0.950 . S
C926 C925 1.398 . S
C926 C927 1.391 . S
C927 H915 0.950 . S
C927 C923 1.393 . S
C927 C926 1.391 . S
H928 C936 0.950 . S
H929 C941 0.950 . S
H930 C938 0.950 . S
H931 C940 0.950 . S
H932 C942 0.950 . S
H933 C944 0.950 . S
H934 C946 0.950 . S
H935 C947 0.950 . S
C936 H928 0.950 . S
C936 C937 1.386 . S
C936 C938 1.391 . S
C937 C936 1.386 . S
C937 C941 1.393 . S
C938 H930 0.950 . S
C938 C936 1.391 . S
C938 C939 1.400 . S
C939 C938 1.400 . S
C939 C940 1.398 . S
C939 C945 1.491 . S
C940 H931 0.950 . S
C940 C939 1.398 . S
C940 C941 1.391 . S
C941 H929 0.950 . S
C941 C937 1.393 . S
C941 C940 1.391 . S
C942 H932 0.950 . S
C942 C943 1.386 . S
C942 C944 1.391 . S
C943 C942 1.386 . S
C943 C947 1.393 . S
C944 H933 0.950 . S
C944 C942 1.391 . S
C944 C945 1.400 . S
C945 C939 1.491 . S
C945 C944 1.400 . S
C945 C946 1.398 . S
C946 H934 0.950 . S
C946 C945 1.398 . S
C946 C947 1.391 . S
C947 H935 0.950 . S
C947 C943 1.393 . S
C947 C946 1.391 . S
H948 C956 0.950 . S
H949 C961 0.950 . S
H950 C958 0.950 . S
H951 C960 0.950 . S
H952 C962 0.950 . S
H953 C964 0.950 . S
H954 C966 0.950 . S
H955 C967 0.950 . S
C956 H948 0.950 . S
C956 C957 1.386 . S
C956 C958 1.391 . S
C957 C956 1.386 . S
C957 C961 1.393 . S
C958 H950 0.950 . S
C958 C956 1.391 . S
C958 C959 1.400 . S
C959 C958 1.400 . S
C959 C960 1.398 . S
C959 C965 1.491 . S
C960 H951 0.950 . S
C960 C959 1.398 . S
C960 C961 1.391 . S
C961 H949 0.950 . S
C961 C957 1.393 . S
C961 C960 1.391 . S
C962 H952 0.950 . S
C962 C963 1.386 . S
C962 C964 1.391 . S
C963 C962 1.386 . S
C963 C967 1.393 . S
C964 H953 0.950 . S
C964 C962 1.391 . S
C964 C965 1.400 . S
C965 C959 1.491 . S
C965 C964 1.400 . S
C965 C966 1.398 . S
C966 H954 0.950 . S
C966 C965 1.398 . S
C966 C967 1.391 . S
C967 H955 0.950 . S
C967 C963 1.393 . S
C967 C966 1.391 . S
H968 C976 0.950 . S
H969 C981 0.950 . S
H970 C978 0.950 . S
H971 C980 0.950 . S
H972 C982 0.950 . S
H973 C984 0.950 . S
H974 C986 0.950 . S
H975 C987 0.950 . S
C976 H968 0.950 . S
C976 C977 1.386 . S
C976 C978 1.391 . S
C977 C976 1.386 . S
C977 C981 1.393 . S
C978 H970 0.950 . S
C978 C976 1.391 . S
C978 C979 1.400 . S
C979 C978 1.400 . S
C979 C980 1.398 . S
C979 C985 1.491 . S
C980 H971 0.950 . S
C980 C979 1.398 . S
C980 C981 1.391 . S
C981 H969 0.950 . S
C981 C977 1.393 . S
C981 C980 1.391 . S
C982 H972 0.950 . S
C982 C983 1.386 . S
C982 C984 1.391 . S
C983 C982 1.386 . S
C983 C987 1.393 . S
C984 H973 0.950 . S
C984 C982 1.391 . S
C984 C985 1.400 . S
C985 C979 1.491 . S
C985 C984 1.400 . S
C985 C986 1.398 . S
C986 H974 0.950 . S
C986 C985 1.398 . S
C986 C987 1.391 . S
C987 H975 0.950 . S
C987 C983 1.393 . S
C987 C986 1.391 . S
H988 C996 0.950 . S
H989 C1001 0.950 . S
H990 C998 0.950 . S
H991 C1000 0.950 . S
H992 C1002 0.950 . S
H993 C1004 0.950 . S
H994 C1006 0.950 . S
H995 C1007 0.950 . S
C996 H988 0.950 . S
C996 C997 1.386 . S
C996 C998 1.391 . S
C997 C996 1.386 . S
C997 C1001 1.393 . S
C998 H990 0.950 . S
C998 C996 1.391 . S
C998 C999 1.400 . S
C999 C998 1.400 . S
C999 C1000 1.398 . S
C999 C1005 1.491 . S
C1000 H991 0.950 . S
C1000 C999 1.398 . S
C1000 C1001 1.391 . S
C1001 H989 0.950 . S
C1001 C997 1.393 . S
C1001 C1000 1.391 . S
C1002 H992 0.950 . S
C1002 C1003 1.386 . S
C1002 C1004 1.391 . S
C1003 C1002 1.386 . S
C1003 C1007 1.393 . S
C1004 H993 0.950 . S
C1004 C1002 1.391 . S
C1004 C1005 1.400 . S
C1005 C999 1.491 . S
C1005 C1004 1.400 . S
C1005 C1006 1.398 . S
C1006 H994 0.950 . S
C1006 C1005 1.398 . S
C1006 C1007 1.391 . S
C1007 H995 0.950 . S
C1007 C1003 1.393 . S
C1007 C1006 1.391 . S
H1008 C1016 0.950 . S
H1009 C1021 0.950 . S
H1010 C1018 0.950 . S
H1011 C1020 0.950 . S
H1012 C1022 0.950 . S
H1013 C1024 0.950 . S
H1014 C1026 0.950 . S
H1015 C1027 0.950 . S
C1016 H1008 0.950 . S
C1016 C1017 1.386 . S
C1016 C1018 1.391 . S
C1017 C1016 1.386 . S
C1017 C1021 1.393 . S
C1018 H1010 0.950 . S
C1018 C1016 1.391 . S
C1018 C1019 1.400 . S
C1019 C1018 1.400 . S
C1019 C1020 1.398 . S
C1019 C1025 1.491 . S
C1020 H1011 0.950 . S
C1020 C1019 1.398 . S
C1020 C1021 1.391 . S
C1021 H1009 0.950 . S
C1021 C1017 1.393 . S
C1021 C1020 1.391 . S
C1022 H1012 0.950 . S
C1022 C1023 1.386 . S
C1022 C1024 1.391 . S
C1023 C1022 1.386 . S
C1023 C1027 1.393 . S
C1024 H1013 0.950 . S
C1024 C1022 1.391 . S
C1024 C1025 1.400 . S
C1025 C1019 1.491 . S
C1025 C1024 1.400 . S
C1025 C1026 1.398 . S
C1026 H1014 0.950 . S
C1026 C1025 1.398 . S
C1026 C1027 1.391 . S
C1027 H1015 0.950 . S
C1027 C1023 1.393 . S
C1027 C1026 1.391 . S
H1028 C1036 0.950 . S
H1029 C1041 0.950 . S
H1030 C1038 0.950 . S
H1031 C1040 0.950 . S
H1032 C1042 0.950 . S
H1033 C1044 0.950 . S
H1034 C1046 0.950 . S
H1035 C1047 0.950 . S
C1036 H1028 0.950 . S
C1036 C1037 1.386 . S
C1036 C1038 1.391 . S
C1037 C1036 1.386 . S
C1037 C1041 1.393 . S
C1038 H1030 0.950 . S
C1038 C1036 1.391 . S
C1038 C1039 1.400 . S
C1039 C1038 1.400 . S
C1039 C1040 1.398 . S
C1039 C1045 1.491 . S
C1040 H1031 0.950 . S
C1040 C1039 1.398 . S
C1040 C1041 1.391 . S
C1041 H1029 0.950 . S
C1041 C1037 1.393 . S
C1041 C1040 1.391 . S
C1042 H1032 0.950 . S
C1042 C1043 1.386 . S
C1042 C1044 1.391 . S
C1043 C1042 1.386 . S
C1043 C1047 1.393 . S
C1044 H1033 0.950 . S
C1044 C1042 1.391 . S
C1044 C1045 1.400 . S
C1045 C1039 1.491 . S
C1045 C1044 1.400 . S
C1045 C1046 1.398 . S
C1046 H1034 0.950 . S
C1046 C1045 1.398 . S
C1046 C1047 1.391 . S
C1047 H1035 0.950 . S
C1047 C1043 1.393 . S
C1047 C1046 1.391 . S
H1048 C1056 0.950 . S
H1049 C1061 0.950 . S
H1050 C1058 0.950 . S
H1051 C1060 0.950 . S
H1052 C1062 0.950 . S
H1053 C1064 0.950 . S
H1054 C1066 0.950 . S
H1055 C1067 0.950 . S
C1056 H1048 0.950 . S
C1056 C1057 1.386 . S
C1056 C1058 1.391 . S
C1057 C1056 1.386 . S
C1057 C1061 1.393 . S
C1058 H1050 0.950 . S
C1058 C1056 1.391 . S
C1058 C1059 1.400 . S
C1059 C1058 1.400 . S
C1059 C1060 1.398 . S
C1059 C1065 1.491 . S
C1060 H1051 0.950 . S
C1060 C1059 1.398 . S
C1060 C1061 1.391 . S
C1061 H1049 0.950 . S
C1061 C1057 1.393 . S
C1061 C1060 1.391 . S
C1062 H1052 0.950 . S
C1062 C1063 1.386 . S
C1062 C1064 1.391 . S
C1063 C1062 1.386 . S
C1063 C1067 1.393 . S
C1064 H1053 0.950 . S
C1064 C1062 1.391 . S
C1064 C1065 1.400 . S
C1065 C1059 1.491 . S
C1065 C1064 1.400 . S
C1065 C1066 1.398 . S
C1066 H1054 0.950 . S
C1066 C1065 1.398 . S
C1066 C1067 1.391 . S
C1067 H1055 0.950 . S
C1067 C1063 1.393 . S
C1067 C1066 1.391 . S
H1068 C1076 0.950 . S
H1069 C1081 0.950 . S
H1070 C1078 0.950 . S
H1071 C1080 0.950 . S
H1072 C1082 0.950 . S
H1073 C1084 0.950 . S
H1074 C1086 0.950 . S
H1075 C1087 0.950 . S
C1076 H1068 0.950 . S
C1076 C1077 1.386 . S
C1076 C1078 1.391 . S
C1077 C1076 1.386 . S
C1077 C1081 1.393 . S
C1078 H1070 0.950 . S
C1078 C1076 1.391 . S
C1078 C1079 1.400 . S
C1079 C1078 1.400 . S
C1079 C1080 1.398 . S
C1079 C1085 1.491 . S
C1080 H1071 0.950 . S
C1080 C1079 1.398 . S
C1080 C1081 1.391 . S
C1081 H1069 0.950 . S
C1081 C1077 1.393 . S
C1081 C1080 1.391 . S
C1082 H1072 0.950 . S
C1082 C1083 1.386 . S
C1082 C1084 1.391 . S
C1083 C1082 1.386 . S
C1083 C1087 1.393 . S
C1084 H1073 0.950 . S
C1084 C1082 1.391 . S
C1084 C1085 1.400 . S
C1085 C1079 1.491 . S
C1085 C1084 1.400 . S
C1085 C1086 1.398 . S
C1086 H1074 0.950 . S
C1086 C1085 1.398 . S
C1086 C1087 1.391 . S
C1087 H1075 0.950 . S
C1087 C1083 1.393 . S
C1087 C1086 1.391 . S
H1088 C1096 0.950 . S
H1089 C1101 0.950 . S
H1090 C1098 0.950 . S
H1091 C1100 0.950 . S
H1092 C1102 0.950 . S
H1093 C1104 0.950 . S
H1094 C1106 0.950 . S
H1095 C1107 0.950 . S
C1096 H1088 0.950 . S
C1096 C1097 1.386 . S
C1096 C1098 1.391 . S
C1097 C1096 1.386 . S
C1097 C1101 1.393 . S
C1098 H1090 0.950 . S
C1098 C1096 1.391 . S
C1098 C1099 1.400 . S
C1099 C1098 1.400 . S
C1099 C1100 1.398 . S
C1099 C1105 1.491 . S
C1100 H1091 0.950 . S
C1100 C1099 1.398 . S
C1100 C1101 1.391 . S
C1101 H1089 0.950 . S
C1101 C1097 1.393 . S
C1101 C1100 1.391 . S
C1102 H1092 0.950 . S
C1102 C1103 1.386 . S
C1102 C1104 1.391 . S
C1103 C1102 1.386 . S
C1103 C1107 1.393 . S
C1104 H1093 0.950 . S
C1104 C1102 1.391 . S
C1104 C1105 1.400 . S
C1105 C1099 1.491 . S
C1105 C1104 1.400 . S
C1105 C1106 1.398 . S
C1106 H1094 0.950 . S
C1106 C1105 1.398 . S
C1106 C1107 1.391 . S
C1107 H1095 0.950 . S
C1107 C1103 1.393 . S
C1107 C1106 1.391 . S
H1108 C1116 0.950 . S
H1109 C1121 0.950 . S
H1110 C1118 0.950 . S
H1111 C1120 0.951 . S
H1112 C1122 0.950 . S
H1113 C1124 0.950 . S
H1114 C1126 0.951 . S
H1115 C1127 0.950 . S
C1116 H1108 0.950 . S
C1116 C1117 1.386 . S
C1116 C1118 1.391 . S
C1117 C1116 1.386 . S
C1117 C1121 1.393 1_455 S
C1118 H1110 0.950 . S
C1118 C1116 1.391 . S
C1118 C1119 1.400 . S
C1119 C1118 1.400 . S
C1119 C1120 1.398 1_465 S
C1119 C1125 1.491 1_465 S
C1120 H1111 0.951 . S
C1120 C1119 1.398 1_645 S
C1120 C1121 1.390 1_545 S
C1121 H1109 0.950 . S
C1121 C1117 1.393 1_655 S
C1121 C1120 1.390 1_565 S
C1122 H1112 0.950 . S
C1122 C1123 1.386 . S
C1122 C1124 1.391 . S
C1123 C1122 1.386 . S
C1123 C1127 1.393 1_655 S
C1124 H1113 0.950 . S
C1124 C1122 1.391 . S
C1124 C1125 1.400 . S
C1125 C1119 1.491 1_645 S
C1125 C1124 1.400 . S
C1125 C1126 1.398 1_645 S
C1126 H1114 0.951 . S
C1126 C1125 1.398 1_465 S
C1126 C1127 1.390 1_565 S
C1127 H1115 0.950 . S
C1127 C1123 1.393 1_455 S
C1127 C1126 1.390 1_545 S
H1128 C1136 0.950 . S
H1129 C1141 0.950 . S
H1130 C1138 0.950 . S
H1131 C1140 0.950 . S
H1132 C1142 0.950 . S
H1133 C1144 0.950 . S
H1134 C1146 0.950 . S
H1135 C1147 0.950 . S
C1136 H1128 0.950 . S
C1136 C1137 1.386 . S
C1136 C1138 1.391 . S
C1137 C1136 1.386 . S
C1137 C1141 1.393 . S
C1138 H1130 0.950 . S
C1138 C1136 1.391 . S
C1138 C1139 1.400 . S
C1139 C1138 1.400 . S
C1139 C1140 1.398 . S
C1139 C1145 1.491 . S
C1140 H1131 0.950 . S
C1140 C1139 1.398 . S
C1140 C1141 1.391 . S
C1141 H1129 0.950 . S
C1141 C1137 1.393 . S
C1141 C1140 1.391 . S
C1142 H1132 0.950 . S
C1142 C1143 1.386 . S
C1142 C1144 1.391 . S
C1143 C1142 1.386 . S
C1143 C1147 1.393 . S
C1144 H1133 0.950 . S
C1144 C1142 1.391 . S
C1144 C1145 1.400 . S
C1145 C1139 1.491 . S
C1145 C1144 1.400 . S
C1145 C1146 1.398 . S
C1146 H1134 0.950 . S
C1146 C1145 1.398 . S
C1146 C1147 1.391 . S
C1147 H1135 0.950 . S
C1147 C1143 1.393 . S
C1147 C1146 1.391 . S
H1148 C1156 0.950 . S
H1149 C1161 0.950 . S
H1150 C1158 0.950 . S
H1151 C1160 0.950 . S
H1152 C1162 0.950 . S
H1153 C1164 0.950 . S
H1154 C1166 0.950 . S
H1155 C1167 0.950 . S
C1156 H1148 0.950 . S
C1156 C1157 1.386 . S
C1156 C1158 1.391 . S
C1157 C1156 1.386 . S
C1157 C1161 1.393 1_545 S
C1158 H1150 0.950 . S
C1158 C1156 1.391 . S
C1158 C1159 1.400 . S
C1159 C1158 1.400 . S
C1159 C1160 1.398 1_545 S
C1159 C1165 1.491 1_544 S
C1160 H1151 0.950 . S
C1160 C1159 1.398 1_565 S
C1160 C1161 1.391 . S
C1161 H1149 0.950 . S
C1161 C1157 1.393 1_565 S
C1161 C1160 1.391 . S
C1162 H1152 0.950 . S
C1162 C1163 1.386 . S
C1162 C1164 1.391 . S
C1163 C1162 1.386 . S
C1163 C1167 1.393 1_565 S
C1164 H1153 0.950 . S
C1164 C1162 1.391 . S
C1164 C1165 1.400 . S
C1165 C1159 1.491 1_566 S
C1165 C1164 1.400 . S
C1165 C1166 1.398 1_565 S
C1166 H1154 0.950 . S
C1166 C1165 1.398 1_545 S
C1166 C1167 1.391 . S
C1167 H1155 0.950 . S
C1167 C1163 1.393 1_545 S
C1167 C1166 1.391 . S
H1168 C1176 0.950 . S
H1169 C1181 0.950 . S
H1170 C1178 0.950 . S
H1171 C1180 0.950 . S
H1172 C1182 0.950 . S
H1173 C1184 0.950 . S
H1174 C1186 0.950 . S
H1175 C1187 0.950 . S
C1176 H1168 0.950 . S
C1176 C1177 1.386 . S
C1176 C1178 1.391 . S
C1177 C1176 1.386 . S
C1177 C1181 1.393 . S
C1178 H1170 0.950 . S
C1178 C1176 1.391 . S
C1178 C1179 1.400 . S
C1179 C1178 1.400 . S
C1179 C1180 1.398 . S
C1179 C1185 1.491 . S
C1180 H1171 0.950 . S
C1180 C1179 1.398 . S
C1180 C1181 1.391 . S
C1181 H1169 0.950 . S
C1181 C1177 1.393 . S
C1181 C1180 1.391 . S
C1182 H1172 0.950 . S
C1182 C1183 1.386 . S
C1182 C1184 1.391 . S
C1183 C1182 1.386 . S
C1183 C1187 1.393 . S
C1184 H1173 0.950 . S
C1184 C1182 1.391 . S
C1184 C1185 1.400 . S
C1185 C1179 1.491 . S
C1185 C1184 1.400 . S
C1185 C1186 1.398 . S
C1186 H1174 0.950 . S
C1186 C1185 1.398 . S
C1186 C1187 1.391 . S
C1187 H1175 0.950 . S
C1187 C1183 1.393 . S
C1187 C1186 1.391 . S
H1188 C1196 0.950 . S
H1189 C1201 0.950 . S
H1190 C1198 0.950 . S
H1191 C1200 0.950 . S
H1192 C1202 0.950 . S
H1193 C1204 0.950 . S
H1194 C1206 0.950 . S
H1195 C1207 0.950 . S
C1196 H1188 0.950 . S
C1196 C1197 1.386 1_545 S
C1196 C1198 1.391 . S
C1197 C1196 1.386 1_565 S
C1197 C1201 1.393 . S
C1198 H1190 0.950 . S
C1198 C1196 1.391 . S
C1198 C1199 1.400 1_545 S
C1199 C1198 1.400 1_565 S
C1199 C1200 1.398 . S
C1199 C1205 1.491 1_565 S
C1200 H1191 0.950 . S
C1200 C1199 1.398 . S
C1200 C1201 1.391 . S
C1201 H1189 0.950 . S
C1201 C1197 1.393 . S
C1201 C1200 1.391 . S
C1202 H1192 0.950 . S
C1202 C1203 1.386 1_565 S
C1202 C1204 1.391 . S
C1203 C1202 1.386 1_545 S
C1203 C1207 1.393 . S
C1204 H1193 0.950 . S
C1204 C1202 1.391 . S
C1204 C1205 1.400 1_565 S
C1205 C1199 1.491 1_545 S
C1205 C1204 1.400 1_545 S
C1205 C1206 1.398 . S
C1206 H1194 0.950 . S
C1206 C1205 1.398 . S
C1206 C1207 1.391 . S
C1207 H1195 0.950 . S
C1207 C1203 1.393 . S
C1207 C1206 1.391 . S
H1208 C1216 0.950 . S
H1209 C1221 0.950 . S
H1210 C1218 0.950 . S
H1211 C1220 0.950 . S
H1212 C1222 0.950 . S
H1213 C1224 0.950 . S
H1214 C1226 0.950 . S
H1215 C1227 0.950 . S
C1216 H1208 0.950 . S
C1216 C1217 1.386 . S
C1216 C1218 1.391 . S
C1217 C1216 1.386 . S
C1217 C1221 1.393 . S
C1218 H1210 0.950 . S
C1218 C1216 1.391 . S
C1218 C1219 1.400 . S
C1219 C1218 1.400 . S
C1219 C1220 1.398 . S
C1219 C1225 1.491 . S
C1220 H1211 0.950 . S
C1220 C1219 1.398 . S
C1220 C1221 1.391 . S
C1221 H1209 0.950 . S
C1221 C1217 1.393 . S
C1221 C1220 1.391 . S
C1222 H1212 0.950 . S
C1222 C1223 1.386 . S
C1222 C1224 1.391 . S
C1223 C1222 1.386 . S
C1223 C1227 1.393 . S
C1224 H1213 0.950 . S
C1224 C1222 1.391 . S
C1224 C1225 1.400 . S
C1225 C1219 1.491 . S
C1225 C1224 1.400 . S
C1225 C1226 1.398 . S
C1226 H1214 0.950 . S
C1226 C1225 1.398 . S
C1226 C1227 1.391 . S
C1227 H1215 0.950 . S
C1227 C1223 1.393 . S
C1227 C1226 1.391 . S
H1228 C1236 0.950 . S
H1229 C1241 0.950 1_655 S
H1230 C1238 0.950 . S
H1231 C1240 0.950 . S
H1232 C1242 0.950 . S
H1233 C1244 0.950 . S
H1234 C1246 0.950 . S
H1235 C1247 0.950 1_455 S
C1236 H1228 0.950 . S
C1236 C1237 1.386 . S
C1236 C1238 1.391 . S
C1237 C1236 1.386 . S
C1237 C1241 1.393 1_545 S
C1238 H1230 0.950 . S
C1238 C1236 1.391 . S
C1238 C1239 1.400 . S
C1239 C1238 1.400 . S
C1239 C1240 1.398 1_445 S
C1239 C1245 1.491 1_446 S
C1240 H1231 0.950 . S
C1240 C1239 1.398 1_665 S
C1240 C1241 1.391 1_655 S
C1241 H1229 0.950 1_455 S
C1241 C1237 1.393 1_565 S
C1241 C1240 1.391 1_455 S
C1242 H1232 0.950 . S
C1242 C1243 1.386 . S
C1242 C1244 1.391 . S
C1243 C1242 1.386 . S
C1243 C1247 1.393 1_565 S
C1244 H1233 0.950 . S
C1244 C1242 1.391 . S
C1244 C1245 1.400 . S
C1245 C1239 1.491 1_664 S
C1245 C1244 1.400 . S
C1245 C1246 1.398 1_665 S
C1246 H1234 0.950 . S
C1246 C1245 1.398 1_445 S
C1246 C1247 1.391 1_455 S
C1247 H1235 0.950 1_655 S
C1247 C1243 1.393 1_545 S
C1247 C1246 1.391 1_655 S
H1248 C1256 0.950 . S
H1249 C1261 0.950 . S
H1250 C1258 0.950 . S
H1251 C1260 0.950 . S
H1252 C1262 0.950 . S
H1253 C1264 0.950 . S
H1254 C1266 0.950 . S
H1255 C1267 0.950 . S
C1256 H1248 0.950 . S
C1256 C1257 1.386 . S
C1256 C1258 1.391 . S
C1257 C1256 1.386 . S
C1257 C1261 1.393 . S
C1258 H1250 0.950 . S
C1258 C1256 1.391 . S
C1258 C1259 1.400 . S
C1259 C1258 1.400 . S
C1259 C1260 1.398 . S
C1259 C1265 1.491 . S
C1260 H1251 0.950 . S
C1260 C1259 1.398 . S
C1260 C1261 1.391 . S
C1261 H1249 0.950 . S
C1261 C1257 1.393 . S
C1261 C1260 1.391 . S
C1262 H1252 0.950 . S
C1262 C1263 1.386 . S
C1262 C1264 1.391 . S
C1263 C1262 1.386 . S
C1263 C1267 1.393 . S
C1264 H1253 0.950 . S
C1264 C1262 1.391 . S
C1264 C1265 1.400 . S
C1265 C1259 1.491 . S
C1265 C1264 1.400 . S
C1265 C1266 1.398 . S
C1266 H1254 0.950 . S
C1266 C1265 1.398 . S
C1266 C1267 1.391 . S
C1267 H1255 0.950 . S
C1267 C1263 1.393 . S
C1267 C1266 1.391 . S
H1268 C1276 0.950 . S
H1269 C1281 0.950 . S
H1270 C1278 0.950 . S
H1271 C1280 0.950 . S
H1272 C1282 0.950 . S
H1273 C1284 0.950 . S
H1274 C1286 0.950 . S
H1275 C1287 0.950 . S
C1276 H1268 0.950 . S
C1276 C1277 1.386 . S
C1276 C1278 1.391 . S
C1277 C1276 1.386 . S
C1277 C1281 1.393 . S
C1278 H1270 0.950 . S
C1278 C1276 1.391 . S
C1278 C1279 1.400 . S
C1279 C1278 1.400 . S
C1279 C1280 1.398 . S
C1279 C1285 1.491 . S
C1280 H1271 0.950 . S
C1280 C1279 1.398 . S
C1280 C1281 1.391 . S
C1281 H1269 0.950 . S
C1281 C1277 1.393 . S
C1281 C1280 1.391 . S
C1282 H1272 0.950 . S
C1282 C1283 1.386 . S
C1282 C1284 1.391 . S
C1283 C1282 1.386 . S
C1283 C1287 1.393 . S
C1284 H1273 0.950 . S
C1284 C1282 1.391 . S
C1284 C1285 1.400 . S
C1285 C1279 1.491 . S
C1285 C1284 1.400 . S
C1285 C1286 1.398 . S
C1286 H1274 0.950 . S
C1286 C1285 1.398 . S
C1286 C1287 1.391 . S
C1287 H1275 0.950 . S
C1287 C1283 1.393 . S
C1287 C1286 1.391 . S
H1288 C1296 0.950 . S
H1289 C1301 0.950 . S
H1290 C1298 0.950 . S
H1291 C1300 0.950 . S
H1292 C1302 0.950 . S
H1293 C1304 0.950 . S
H1294 C1306 0.950 . S
H1295 C1307 0.950 . S
C1296 H1288 0.950 . S
C1296 C1297 1.386 . S
C1296 C1298 1.391 . S
C1297 C1296 1.386 . S
C1297 C1301 1.393 . S
C1298 H1290 0.950 . S
C1298 C1296 1.391 . S
C1298 C1299 1.400 . S
C1299 C1298 1.400 . S
C1299 C1300 1.398 . S
C1299 C1305 1.491 . S
C1300 H1291 0.950 . S
C1300 C1299 1.398 . S
C1300 C1301 1.391 . S
C1301 H1289 0.950 . S
C1301 C1297 1.393 . S
C1301 C1300 1.391 . S
C1302 H1292 0.950 . S
C1302 C1303 1.386 . S
C1302 C1304 1.391 . S
C1303 C1302 1.386 . S
C1303 C1307 1.393 . S
C1304 H1293 0.950 . S
C1304 C1302 1.391 . S
C1304 C1305 1.400 . S
C1305 C1299 1.491 . S
C1305 C1304 1.400 . S
C1305 C1306 1.398 . S
C1306 H1294 0.950 . S
C1306 C1305 1.398 . S
C1306 C1307 1.391 . S
C1307 H1295 0.950 . S
C1307 C1303 1.393 . S
C1307 C1306 1.391 . S
H1308 C1316 0.950 . S
H1309 C1321 0.950 . S
H1310 C1318 0.950 . S
H1311 C1320 0.950 . S
H1312 C1322 0.950 . S
H1313 C1324 0.950 . S
H1314 C1326 0.950 . S
H1315 C1327 0.950 . S
C1316 H1308 0.950 . S
C1316 C1317 1.386 . S
C1316 C1318 1.391 . S
C1317 C1316 1.386 . S
C1317 C1321 1.393 . S
C1318 H1310 0.950 . S
C1318 C1316 1.391 . S
C1318 C1319 1.400 . S
C1319 C1318 1.400 . S
C1319 C1320 1.398 . S
C1319 C1325 1.491 . S
C1320 H1311 0.950 . S
C1320 C1319 1.398 . S
C1320 C1321 1.391 . S
C1321 H1309 0.950 . S
C1321 C1317 1.393 . S
C1321 C1320 1.391 . S
C1322 H1312 0.950 . S
C1322 C1323 1.386 . S
C1322 C1324 1.391 . S
C1323 C1322 1.386 . S
C1323 C1327 1.393 . S
C1324 H1313 0.950 . S
C1324 C1322 1.391 . S
C1324 C1325 1.400 . S
C1325 C1319 1.491 . S
C1325 C1324 1.400 . S
C1325 C1326 1.398 . S
C1326 H1314 0.950 . S
C1326 C1325 1.398 . S
C1326 C1327 1.391 . S
C1327 H1315 0.950 . S
C1327 C1323 1.393 . S
C1327 C1326 1.391 . S
H1328 C1336 0.950 . S
H1329 C1341 0.950 . S
H1330 C1338 0.950 . S
H1331 C1340 0.950 . S
H1332 C1342 0.950 . S
H1333 C1344 0.950 . S
H1334 C1346 0.950 . S
H1335 C1347 0.950 . S
C1336 H1328 0.950 . S
C1336 C1337 1.386 . S
C1336 C1338 1.391 . S
C1337 C1336 1.386 . S
C1337 C1341 1.393 . S
C1338 H1330 0.950 . S
C1338 C1336 1.391 . S
C1338 C1339 1.400 . S
C1339 C1338 1.400 . S
C1339 C1340 1.398 . S
C1339 C1345 1.491 1_554 S
C1340 H1331 0.950 . S
C1340 C1339 1.398 . S
C1340 C1341 1.391 . S
C1341 H1329 0.950 . S
C1341 C1337 1.393 . S
C1341 C1340 1.391 . S
C1342 H1332 0.950 . S
C1342 C1343 1.386 . S
C1342 C1344 1.391 . S
C1343 C1342 1.386 . S
C1343 C1347 1.393 . S
C1344 H1333 0.950 . S
C1344 C1342 1.391 . S
C1344 C1345 1.400 . S
C1345 C1339 1.491 1_556 S
C1345 C1344 1.400 . S
C1345 C1346 1.398 . S
C1346 H1334 0.950 . S
C1346 C1345 1.398 . S
C1346 C1347 1.391 . S
C1347 H1335 0.950 . S
C1347 C1343 1.393 . S
C1347 C1346 1.391 . S
H1348 C1356 0.950 . S
H1349 C1361 0.950 . S
H1350 C1358 0.950 . S
H1351 C1360 0.950 . S
H1352 C1362 0.950 . S
H1353 C1364 0.950 . S
H1354 C1366 0.950 . S
H1355 C1367 0.950 . S
C1356 H1348 0.950 . S
C1356 C1357 1.386 1_655 S
C1356 C1358 1.391 . S
C1357 C1356 1.386 1_455 S
C1357 C1361 1.393 . S
C1358 H1350 0.950 . S
C1358 C1356 1.391 . S
C1358 C1359 1.400 1_655 S
C1359 C1358 1.400 1_455 S
C1359 C1360 1.398 . S
C1359 C1365 1.491 1_455 S
C1360 H1351 0.950 . S
C1360 C1359 1.398 . S
C1360 C1361 1.391 . S
C1361 H1349 0.950 . S
C1361 C1357 1.393 . S
C1361 C1360 1.391 . S
C1362 H1352 0.950 . S
C1362 C1363 1.386 1_455 S
C1362 C1364 1.391 . S
C1363 C1362 1.386 1_655 S
C1363 C1367 1.393 . S
C1364 H1353 0.950 . S
C1364 C1362 1.391 . S
C1364 C1365 1.400 1_455 S
C1365 C1359 1.491 1_655 S
C1365 C1364 1.400 1_655 S
C1365 C1366 1.398 . S
C1366 H1354 0.950 . S
C1366 C1365 1.398 . S
C1366 C1367 1.391 . S
C1367 H1355 0.950 . S
C1367 C1363 1.393 . S
C1367 C1366 1.391 . S
H1368 C1376 0.950 . S
H1369 C1381 0.950 . S
H1370 C1378 0.950 . S
H1371 C1380 0.950 . S
H1372 C1382 0.950 . S
H1373 C1384 0.950 . S
H1374 C1386 0.950 . S
H1375 C1387 0.950 . S
C1376 H1368 0.950 . S
C1376 C1377 1.386 1_655 S
C1376 C1378 1.391 . S
C1377 C1376 1.386 1_455 S
C1377 C1381 1.393 . S
C1378 H1370 0.950 . S
C1378 C1376 1.391 . S
C1378 C1379 1.400 1_655 S
C1379 C1378 1.400 1_455 S
C1379 C1380 1.398 . S
C1379 C1385 1.491 1_454 S
C1380 H1371 0.950 . S
C1380 C1379 1.398 . S
C1380 C1381 1.391 . S
C1381 H1369 0.950 . S
C1381 C1377 1.393 . S
C1381 C1380 1.391 . S
C1382 H1372 0.950 . S
C1382 C1383 1.386 1_455 S
C1382 C1384 1.391 . S
C1383 C1382 1.386 1_655 S
C1383 C1387 1.393 . S
C1384 H1373 0.950 . S
C1384 C1382 1.391 . S
C1384 C1385 1.400 1_455 S
C1385 C1379 1.491 1_656 S
C1385 C1384 1.400 1_655 S
C1385 C1386 1.398 . S
C1386 H1374 0.950 . S
C1386 C1385 1.398 . S
C1386 C1387 1.391 . S
C1387 H1375 0.950 . S
C1387 C1383 1.393 . S
C1387 C1386 1.391 . S
H1388 C1396 0.950 . S
H1389 C1401 0.950 . S
H1390 C1398 0.950 . S
H1391 C1400 0.950 . S
H1392 C1402 0.950 . S
H1393 C1404 0.950 . S
H1394 C1406 0.950 . S
H1395 C1407 0.950 . S
C1396 H1388 0.950 . S
C1396 C1397 1.386 . S
C1396 C1398 1.391 . S
C1397 C1396 1.386 . S
C1397 C1401 1.393 . S
C1398 H1390 0.950 . S
C1398 C1396 1.391 . S
C1398 C1399 1.400 . S
C1399 C1398 1.400 . S
C1399 C1400 1.398 . S
C1399 C1405 1.491 . S
C1400 H1391 0.950 . S
C1400 C1399 1.398 . S
C1400 C1401 1.391 . S
C1401 H1389 0.950 . S
C1401 C1397 1.393 . S
C1401 C1400 1.391 . S
C1402 H1392 0.950 . S
C1402 C1403 1.386 . S
C1402 C1404 1.391 . S
C1403 C1402 1.386 . S
C1403 C1407 1.393 . S
C1404 H1393 0.950 . S
C1404 C1402 1.391 . S
C1404 C1405 1.400 . S
C1405 C1399 1.491 . S
C1405 C1404 1.400 . S
C1405 C1406 1.398 . S
C1406 H1394 0.950 . S
C1406 C1405 1.398 . S
C1406 C1407 1.391 . S
C1407 H1395 0.950 . S
C1407 C1403 1.393 . S
C1407 C1406 1.391 . S
H1408 C1416 0.950 . S
H1409 C1421 0.950 . S
H1410 C1418 0.950 . S
H1411 C1420 0.950 . S
H1412 C1422 0.950 . S
H1413 C1424 0.950 . S
H1414 C1426 0.950 . S
H1415 C1427 0.950 . S
C1416 H1408 0.950 . S
C1416 C1417 1.386 . S
C1416 C1418 1.391 . S
C1417 C1416 1.386 . S
C1417 C1421 1.393 . S
C1418 H1410 0.950 . S
C1418 C1416 1.391 . S
C1418 C1419 1.400 . S
C1419 C1418 1.400 . S
C1419 C1420 1.398 . S
C1419 C1425 1.491 . S
C1420 H1411 0.950 . S
C1420 C1419 1.398 . S
C1420 C1421 1.391 . S
C1421 H1409 0.950 . S
C1421 C1417 1.393 . S
C1421 C1420 1.391 . S
C1422 H1412 0.950 . S
C1422 C1423 1.386 . S
C1422 C1424 1.391 . S
C1423 C1422 1.386 . S
C1423 C1427 1.393 . S
C1424 H1413 0.950 . S
C1424 C1422 1.391 . S
C1424 C1425 1.400 . S
C1425 C1419 1.491 . S
C1425 C1424 1.400 . S
C1425 C1426 1.398 . S
C1426 H1414 0.950 . S
C1426 C1425 1.398 . S
C1426 C1427 1.391 . S
C1427 H1415 0.950 . S
C1427 C1423 1.393 . S
C1427 C1426 1.391 . S
H1428 C1436 0.950 . S
H1429 C1441 0.950 . S
H1430 C1438 0.950 . S
H1431 C1440 0.950 . S
H1432 C1442 0.950 . S
H1433 C1444 0.950 . S
H1434 C1446 0.950 . S
H1435 C1447 0.950 . S
C1436 H1428 0.950 . S
C1436 C1437 1.386 . S
C1436 C1438 1.391 . S
C1437 C1436 1.386 . S
C1437 C1441 1.393 . S
C1438 H1430 0.950 . S
C1438 C1436 1.391 . S
C1438 C1439 1.400 . S
C1439 C1438 1.400 . S
C1439 C1440 1.398 . S
C1439 C1445 1.491 . S
C1440 H1431 0.950 . S
C1440 C1439 1.398 . S
C1440 C1441 1.391 . S
C1441 H1429 0.950 . S
C1441 C1437 1.393 . S
C1441 C1440 1.391 . S
C1442 H1432 0.950 . S
C1442 C1443 1.386 . S
C1442 C1444 1.391 . S
C1443 C1442 1.386 . S
C1443 C1447 1.393 . S
C1444 H1433 0.950 . S
C1444 C1442 1.391 . S
C1444 C1445 1.400 . S
C1445 C1439 1.491 . S
C1445 C1444 1.400 . S
C1445 C1446 1.398 . S
C1446 H1434 0.950 . S
C1446 C1445 1.398 . S
C1446 C1447 1.391 . S
C1447 H1435 0.950 . S
C1447 C1443 1.393 . S
C1447 C1446 1.391 . S
H1448 C1456 0.950 . S
H1449 C1461 0.950 . S
H1450 C1458 0.950 . S
H1451 C1460 0.950 . S
H1452 C1462 0.950 . S
H1453 C1464 0.950 . S
H1454 C1466 0.950 . S
H1455 C1467 0.950 . S
C1456 H1448 0.950 . S
C1456 C1457 1.386 . S
C1456 C1458 1.391 . S
C1457 C1456 1.386 . S
C1457 C1461 1.393 . S
C1458 H1450 0.950 . S
C1458 C1456 1.391 . S
C1458 C1459 1.400 . S
C1459 C1458 1.400 . S
C1459 C1460 1.398 . S
C1459 C1465 1.491 . S
C1460 H1451 0.950 . S
C1460 C1459 1.398 . S
C1460 C1461 1.391 . S
C1461 H1449 0.950 . S
C1461 C1457 1.393 . S
C1461 C1460 1.391 . S
C1462 H1452 0.950 . S
C1462 C1463 1.386 . S
C1462 C1464 1.391 . S
C1463 C1462 1.386 . S
C1463 C1467 1.393 . S
C1464 H1453 0.950 . S
C1464 C1462 1.391 . S
C1464 C1465 1.400 . S
C1465 C1459 1.491 . S
C1465 C1464 1.400 . S
C1465 C1466 1.398 . S
C1466 H1454 0.950 . S
C1466 C1465 1.398 . S
C1466 C1467 1.391 . S
C1467 H1455 0.950 . S
C1467 C1463 1.393 . S
C1467 C1466 1.391 . S
H1468 C1476 0.950 . S
H1469 C1481 0.950 . S
H1470 C1478 0.950 . S
H1471 C1480 0.950 . S
H1472 C1482 0.950 . S
H1473 C1484 0.950 . S
H1474 C1486 0.950 . S
H1475 C1487 0.950 . S
C1476 H1468 0.950 . S
C1476 C1477 1.386 . S
C1476 C1478 1.391 . S
C1477 C1476 1.386 . S
C1477 C1481 1.393 . S
C1478 H1470 0.950 . S
C1478 C1476 1.391 . S
C1478 C1479 1.400 . S
C1479 C1478 1.400 . S
C1479 C1480 1.398 . S
C1479 C1485 1.491 . S
C1480 H1471 0.950 . S
C1480 C1479 1.398 . S
C1480 C1481 1.391 . S
C1481 H1469 0.950 . S
C1481 C1477 1.393 . S
C1481 C1480 1.391 . S
C1482 H1472 0.950 . S
C1482 C1483 1.386 . S
C1482 C1484 1.391 . S
C1483 C1482 1.386 . S
C1483 C1487 1.393 . S
C1484 H1473 0.950 . S
C1484 C1482 1.391 . S
C1484 C1485 1.400 . S
C1485 C1479 1.491 . S
C1485 C1484 1.400 . S
C1485 C1486 1.398 . S
C1486 H1474 0.950 . S
C1486 C1485 1.398 . S
C1486 C1487 1.391 . S
C1487 H1475 0.950 . S
C1487 C1483 1.393 . S
C1487 C1486 1.391 . S
H1488 C1496 0.950 . S
H1489 C1501 0.950 . S
H1490 C1498 0.950 . S
H1491 C1500 0.950 . S
H1492 C1502 0.950 . S
H1493 C1504 0.950 . S
H1494 C1506 0.950 . S
H1495 C1507 0.950 . S
C1496 H1488 0.950 . S
C1496 C1497 1.386 . S
C1496 C1498 1.391 . S
C1497 C1496 1.386 . S
C1497 C1501 1.393 . S
C1498 H1490 0.950 . S
C1498 C1496 1.391 . S
C1498 C1499 1.400 . S
C1499 C1498 1.400 . S
C1499 C1500 1.398 . S
C1499 C1505 1.491 . S
C1500 H1491 0.950 . S
C1500 C1499 1.398 . S
C1500 C1501 1.391 . S
C1501 H1489 0.950 . S
C1501 C1497 1.393 . S
C1501 C1500 1.391 . S
C1502 H1492 0.950 . S
C1502 C1503 1.386 . S
C1502 C1504 1.391 . S
C1503 C1502 1.386 . S
C1503 C1507 1.393 . S
C1504 H1493 0.950 . S
C1504 C1502 1.391 . S
C1504 C1505 1.400 . S
C1505 C1499 1.491 . S
C1505 C1504 1.400 . S
C1505 C1506 1.398 . S
C1506 H1494 0.950 . S
C1506 C1505 1.398 . S
C1506 C1507 1.391 . S
C1507 H1495 0.950 . S
C1507 C1503 1.393 . S
C1507 C1506 1.391 . S
H1508 C1516 0.950 . S
H1509 C1521 0.950 . S
H1510 C1518 0.950 . S
H1511 C1520 0.950 . S
H1512 C1522 0.950 . S
H1513 C1524 0.950 . S
H1514 C1526 0.950 . S
H1515 C1527 0.950 . S
C1516 H1508 0.950 . S
C1516 C1517 1.386 . S
C1516 C1518 1.391 . S
C1517 C1516 1.386 . S
C1517 C1521 1.393 . S
C1518 H1510 0.950 . S
C1518 C1516 1.391 . S
C1518 C1519 1.400 . S
C1519 C1518 1.400 . S
C1519 C1520 1.398 . S
C1519 C1525 1.491 . S
C1520 H1511 0.950 . S
C1520 C1519 1.398 . S
C1520 C1521 1.391 . S
C1521 H1509 0.950 . S
C1521 C1517 1.393 . S
C1521 C1520 1.391 . S
C1522 H1512 0.950 . S
C1522 C1523 1.386 . S
C1522 C1524 1.391 . S
C1523 C1522 1.386 . S
C1523 C1527 1.393 . S
C1524 H1513 0.950 . S
C1524 C1522 1.391 . S
C1524 C1525 1.400 . S
C1525 C1519 1.491 . S
C1525 C1524 1.400 . S
C1525 C1526 1.398 . S
C1526 H1514 0.950 . S
C1526 C1525 1.398 . S
C1526 C1527 1.391 . S
C1527 H1515 0.950 . S
C1527 C1523 1.393 . S
C1527 C1526 1.391 . S
H1528 C1536 0.950 . S
H1529 C1541 0.950 . S
H1530 C1538 0.950 . S
H1531 C1540 0.950 . S
H1532 C1542 0.950 . S
H1533 C1544 0.950 . S
H1534 C1546 0.950 . S
H1535 C1547 0.950 . S
C1536 H1528 0.950 . S
C1536 C1537 1.386 . S
C1536 C1538 1.391 . S
C1537 C1536 1.386 . S
C1537 C1541 1.393 . S
C1538 H1530 0.950 . S
C1538 C1536 1.391 . S
C1538 C1539 1.400 . S
C1539 C1538 1.400 . S
C1539 C1540 1.398 . S
C1539 C1545 1.491 . S
C1540 H1531 0.950 . S
C1540 C1539 1.398 . S
C1540 C1541 1.391 . S
C1541 H1529 0.950 . S
C1541 C1537 1.393 . S
C1541 C1540 1.391 . S
C1542 H1532 0.950 . S
C1542 C1543 1.386 . S
C1542 C1544 1.391 . S
C1543 C1542 1.386 . S
C1543 C1547 1.393 . S
C1544 H1533 0.950 . S
C1544 C1542 1.391 . S
C1544 C1545 1.400 . S
C1545 C1539 1.491 . S
C1545 C1544 1.400 . S
C1545 C1546 1.398 . S
C1546 H1534 0.950 . S
C1546 C1545 1.398 . S
C1546 C1547 1.391 . S
C1547 H1535 0.950 . S
C1547 C1543 1.393 . S
C1547 C1546 1.391 . S
H1548 C1556 0.950 . S
H1549 C1561 0.950 . S
H1550 C1558 0.950 . S
H1551 C1560 0.950 . S
H1552 C1562 0.950 . S
H1553 C1564 0.950 . S
H1554 C1566 0.950 . S
H1555 C1567 0.950 . S
C1556 H1548 0.950 . S
C1556 C1557 1.386 . S
C1556 C1558 1.391 . S
C1557 C1556 1.386 . S
C1557 C1561 1.393 . S
C1558 H1550 0.950 . S
C1558 C1556 1.391 . S
C1558 C1559 1.400 . S
C1559 C1558 1.400 . S
C1559 C1560 1.398 . S
C1559 C1565 1.491 . S
C1560 H1551 0.950 . S
C1560 C1559 1.398 . S
C1560 C1561 1.391 . S
C1561 H1549 0.950 . S
C1561 C1557 1.393 . S
C1561 C1560 1.391 . S
C1562 H1552 0.950 . S
C1562 C1563 1.386 . S
C1562 C1564 1.391 . S
C1563 C1562 1.386 . S
C1563 C1567 1.393 . S
C1564 H1553 0.950 . S
C1564 C1562 1.391 . S
C1564 C1565 1.400 . S
C1565 C1559 1.491 . S
C1565 C1564 1.400 . S
C1565 C1566 1.398 . S
C1566 H1554 0.950 . S
C1566 C1565 1.398 . S
C1566 C1567 1.391 . S
C1567 H1555 0.950 . S
C1567 C1563 1.393 . S
C1567 C1566 1.391 . S
H1568 C1576 0.950 . S
H1569 C1581 0.950 . S
H1570 C1578 0.950 . S
H1571 C1580 0.950 . S
H1572 C1582 0.950 . S
H1573 C1584 0.950 . S
H1574 C1586 0.950 . S
H1575 C1587 0.950 . S
C1576 H1568 0.950 . S
C1576 C1577 1.386 . S
C1576 C1578 1.391 . S
C1577 C1576 1.386 . S
C1577 C1581 1.393 . S
C1578 H1570 0.950 . S
C1578 C1576 1.391 . S
C1578 C1579 1.400 . S
C1579 C1578 1.400 . S
C1579 C1580 1.398 . S
C1579 C1585 1.491 . S
C1580 H1571 0.950 . S
C1580 C1579 1.398 . S
C1580 C1581 1.391 . S
C1581 H1569 0.950 . S
C1581 C1577 1.393 . S
C1581 C1580 1.391 . S
C1582 H1572 0.950 . S
C1582 C1583 1.386 . S
C1582 C1584 1.391 . S
C1583 C1582 1.386 . S
C1583 C1587 1.393 . S
C1584 H1573 0.950 . S
C1584 C1582 1.391 . S
C1584 C1585 1.400 . S
C1585 C1579 1.491 . S
C1585 C1584 1.400 . S
C1585 C1586 1.398 . S
C1586 H1574 0.950 . S
C1586 C1585 1.398 . S
C1586 C1587 1.391 . S
C1587 H1575 0.950 . S
C1587 C1583 1.393 . S
C1587 C1586 1.391 . S
H1588 C1596 0.950 . S
H1589 C1601 0.950 . S
H1590 C1598 0.950 . S
H1591 C1600 0.950 . S
H1592 C1602 0.950 . S
H1593 C1604 0.950 . S
H1594 C1606 0.950 . S
H1595 C1607 0.950 . S
C1596 H1588 0.950 . S
C1596 C1597 1.386 . S
C1596 C1598 1.391 . S
C1597 C1596 1.386 . S
C1597 C1601 1.393 . S
C1598 H1590 0.950 . S
C1598 C1596 1.391 . S
C1598 C1599 1.400 . S
C1599 C1598 1.400 . S
C1599 C1600 1.398 . S
C1599 C1605 1.491 . S
C1600 H1591 0.950 . S
C1600 C1599 1.398 . S
C1600 C1601 1.391 . S
C1601 H1589 0.950 . S
C1601 C1597 1.393 . S
C1601 C1600 1.391 . S
C1602 H1592 0.950 . S
C1602 C1603 1.386 . S
C1602 C1604 1.391 . S
C1603 C1602 1.386 . S
C1603 C1607 1.393 . S
C1604 H1593 0.950 . S
C1604 C1602 1.391 . S
C1604 C1605 1.400 . S
C1605 C1599 1.491 . S
C1605 C1604 1.400 . S
C1605 C1606 1.398 . S
C1606 H1594 0.950 . S
C1606 C1605 1.398 . S
C1606 C1607 1.391 . S
C1607 H1595 0.950 . S
C1607 C1603 1.393 . S
C1607 C1606 1.391 . S
H1608 C1616 0.950 . S
H1609 C1621 0.950 . S
H1610 C1618 0.950 . S
H1611 C1620 0.950 . S
H1612 C1622 0.950 . S
H1613 C1624 0.950 . S
H1614 C1626 0.950 . S
H1615 C1627 0.950 . S
C1616 H1608 0.950 . S
C1616 C1617 1.386 . S
C1616 C1618 1.391 . S
C1617 C1616 1.386 . S
C1617 C1621 1.393 . S
C1618 H1610 0.950 . S
C1618 C1616 1.391 . S
C1618 C1619 1.400 . S
C1619 C1618 1.400 . S
C1619 C1620 1.398 . S
C1619 C1625 1.491 . S
C1620 H1611 0.950 . S
C1620 C1619 1.398 . S
C1620 C1621 1.391 . S
C1621 H1609 0.950 . S
C1621 C1617 1.393 . S
C1621 C1620 1.391 . S
C1622 H1612 0.950 . S
C1622 C1623 1.386 . S
C1622 C1624 1.391 . S
C1623 C1622 1.386 . S
C1623 C1627 1.393 . S
C1624 H1613 0.950 . S
C1624 C1622 1.391 . S
C1624 C1625 1.400 . S
C1625 C1619 1.491 . S
C1625 C1624 1.400 . S
C1625 C1626 1.398 . S
C1626 H1614 0.950 . S
C1626 C1625 1.398 . S
C1626 C1627 1.391 . S
C1627 H1615 0.950 . S
C1627 C1623 1.393 . S
C1627 C1626 1.391 . S
H1628 C1636 0.950 . S
H1629 C1641 0.950 . S
H1630 C1638 0.950 . S
H1631 C1640 0.950 . S
H1632 C1642 0.950 . S
H1633 C1644 0.950 . S
H1634 C1646 0.950 . S
H1635 C1647 0.950 . S
C1636 H1628 0.950 . S
C1636 C1637 1.386 . S
C1636 C1638 1.391 . S
C1637 C1636 1.386 . S
C1637 C1641 1.393 . S
C1638 H1630 0.950 . S
C1638 C1636 1.391 . S
C1638 C1639 1.400 . S
C1639 C1638 1.400 . S
C1639 C1640 1.398 . S
C1639 C1645 1.491 . S
C1640 H1631 0.950 . S
C1640 C1639 1.398 . S
C1640 C1641 1.391 . S
C1641 H1629 0.950 . S
C1641 C1637 1.393 . S
C1641 C1640 1.391 . S
C1642 H1632 0.950 . S
C1642 C1643 1.386 . S
C1642 C1644 1.391 . S
C1643 C1642 1.386 . S
C1643 C1647 1.393 . S
C1644 H1633 0.950 . S
C1644 C1642 1.391 . S
C1644 C1645 1.400 . S
C1645 C1639 1.491 . S
C1645 C1644 1.400 . S
C1645 C1646 1.398 . S
C1646 H1634 0.950 . S
C1646 C1645 1.398 . S
C1646 C1647 1.391 . S
C1647 H1635 0.950 . S
C1647 C1643 1.393 . S
C1647 C1646 1.391 . S
H1648 C1656 0.950 . S
H1649 C1661 0.950 . S
H1650 C1658 0.950 . S
H1651 C1660 0.950 . S
H1652 C1662 0.950 . S
H1653 C1664 0.950 . S
H1654 C1666 0.950 . S
H1655 C1667 0.950 . S
C1656 H1648 0.950 . S
C1656 C1657 1.386 . S
C1656 C1658 1.391 . S
C1657 C1656 1.386 . S
C1657 C1661 1.393 . S
C1658 H1650 0.950 . S
C1658 C1656 1.391 . S
C1658 C1659 1.400 . S
C1659 C1658 1.400 . S
C1659 C1660 1.398 . S
C1659 C1665 1.491 . S
C1660 H1651 0.950 . S
C1660 C1659 1.398 . S
C1660 C1661 1.391 . S
C1661 H1649 0.950 . S
C1661 C1657 1.393 . S
C1661 C1660 1.391 . S
C1662 H1652 0.950 . S
C1662 C1663 1.386 . S
C1662 C1664 1.391 . S
C1663 C1662 1.386 . S
C1663 C1667 1.393 . S
C1664 H1653 0.950 . S
C1664 C1662 1.391 . S
C1664 C1665 1.400 . S
C1665 C1659 1.491 . S
C1665 C1664 1.400 . S
C1665 C1666 1.398 . S
C1666 H1654 0.950 . S
C1666 C1665 1.398 . S
C1666 C1667 1.391 . S
C1667 H1655 0.950 . S
C1667 C1663 1.393 . S
C1667 C1666 1.391 . S
H1668 C1676 0.950 . S
H1669 C1681 0.950 . S
H1670 C1678 0.950 . S
H1671 C1680 0.950 . S
H1672 C1682 0.950 . S
H1673 C1684 0.950 . S
H1674 C1686 0.950 . S
H1675 C1687 0.950 . S
C1676 H1668 0.950 . S
C1676 C1677 1.386 . S
C1676 C1678 1.391 . S
C1677 C1676 1.386 . S
C1677 C1681 1.393 . S
C1678 H1670 0.950 . S
C1678 C1676 1.391 . S
C1678 C1679 1.400 . S
C1679 C1678 1.400 . S
C1679 C1680 1.398 . S
C1679 C1685 1.491 . S
C1680 H1671 0.950 . S
C1680 C1679 1.398 . S
C1680 C1681 1.391 . S
C1681 H1669 0.950 . S
C1681 C1677 1.393 . S
C1681 C1680 1.391 . S
C1682 H1672 0.950 . S
C1682 C1683 1.386 . S
C1682 C1684 1.391 . S
C1683 C1682 1.386 . S
C1683 C1687 1.393 . S
C1684 H1673 0.950 . S
C1684 C1682 1.391 . S
C1684 C1685 1.400 . S
C1685 C1679 1.491 . S
C1685 C1684 1.400 . S
C1685 C1686 1.398 . S
C1686 H1674 0.950 . S
C1686 C1685 1.398 . S
C1686 C1687 1.391 . S
C1687 H1675 0.950 . S
C1687 C1683 1.393 . S
C1687 C1686 1.391 . S
H1688 C1696 0.950 . S
H1689 C1701 0.950 . S
H1690 C1698 0.950 . S
H1691 C1700 0.950 . S
H1692 C1702 0.950 . S
H1693 C1704 0.950 . S
H1694 C1706 0.950 . S
H1695 C1707 0.950 . S
C1696 H1688 0.950 . S
C1696 C1697 1.386 . S
C1696 C1698 1.391 . S
C1697 C1696 1.386 . S
C1697 C1701 1.393 . S
C1698 H1690 0.950 . S
C1698 C1696 1.391 . S
C1698 C1699 1.400 . S
C1699 C1698 1.400 . S
C1699 C1700 1.398 . S
C1699 C1705 1.491 . S
C1700 H1691 0.950 . S
C1700 C1699 1.398 . S
C1700 C1701 1.391 . S
C1701 H1689 0.950 . S
C1701 C1697 1.393 . S
C1701 C1700 1.391 . S
C1702 H1692 0.950 . S
C1702 C1703 1.386 . S
C1702 C1704 1.391 . S
C1703 C1702 1.386 . S
C1703 C1707 1.393 . S
C1704 H1693 0.950 . S
C1704 C1702 1.391 . S
C1704 C1705 1.400 . S
C1705 C1699 1.491 . S
C1705 C1704 1.400 . S
C1705 C1706 1.398 . S
C1706 H1694 0.950 . S
C1706 C1705 1.398 . S
C1706 C1707 1.391 . S
C1707 H1695 0.950 . S
C1707 C1703 1.393 . S
C1707 C1706 1.391 . S
H1708 C1716 0.950 . S
H1709 C1721 0.950 . S
H1710 C1718 0.950 . S
H1711 C1720 0.950 . S
H1712 C1722 0.950 . S
H1713 C1724 0.950 . S
H1714 C1726 0.950 . S
H1715 C1727 0.950 . S
C1716 H1708 0.950 . S
C1716 C1717 1.386 . S
C1716 C1718 1.391 . S
C1717 C1716 1.386 . S
C1717 C1721 1.393 . S
C1718 H1710 0.950 . S
C1718 C1716 1.391 . S
C1718 C1719 1.400 . S
C1719 C1718 1.400 . S
C1719 C1720 1.398 . S
C1719 C1725 1.491 . S
C1720 H1711 0.950 . S
C1720 C1719 1.398 . S
C1720 C1721 1.391 . S
C1721 H1709 0.950 . S
C1721 C1717 1.393 . S
C1721 C1720 1.391 . S
C1722 H1712 0.950 . S
C1722 C1723 1.386 . S
C1722 C1724 1.391 . S
C1723 C1722 1.386 . S
C1723 C1727 1.393 . S
C1724 H1713 0.950 . S
C1724 C1722 1.391 . S
C1724 C1725 1.400 . S
C1725 C1719 1.491 . S
C1725 C1724 1.400 . S
C1725 C1726 1.398 . S
C1726 H1714 0.950 . S
C1726 C1725 1.398 . S
C1726 C1727 1.391 . S
C1727 H1715 0.950 . S
C1727 C1723 1.393 . S
C1727 C1726 1.391 . S
C457 C382 1.397 . S
C463 C12 1.372 . S
C477 C26 1.375 . S
C483 C116 1.390 . S
C497 C354 1.396 . S
C503 C40 1.371 . S
C517 C54 1.377 . S
C523 C144 1.395 . S
C537 C68 1.371 . S
C543 C410 1.397 . S
C557 C82 1.375 . S
C563 C200 1.390 . S
C577 C96 1.390 . S
C583 C438 1.384 . S
C597 C110 1.371 . S
C603 C172 1.396 . S
C617 C270 1.388 . S
C623 C124 1.386 . S
C637 C4 1.397 . S
C643 C138 1.373 . S
C657 C242 1.397 . S
C663 C152 1.375 . S
C677 C166 1.390 . S
C683 C32 1.383 . S
C697 C298 1.385 . S
C703 C180 1.389 . S
C717 C88 1.380 . S
C723 C194 1.388 . S
C737 C208 1.391 . S
C743 C326 1.383 . S
C757 C60 1.381 . S
C763 C222 1.386 . S
C777 C236 1.391 . S
C783 C158 1.379 . S
C797 C250 1.391 . S
C803 C340 1.379 . S
C817 C130 1.383 . S
C823 C264 1.391 . S
C837 C368 1.387 . S
C843 C278 1.379 . S
C857 C186 1.380 . S
C863 C292 1.390 . S
C877 C424 1.390 . S
C883 C306 1.384 . S
C897 C214 1.381 . S
C903 C320 1.387 . S
C917 C334 1.384 . S
C923 C396 1.383 . S
C937 C46 1.380 . S
C943 C348 1.391 . S
C957 C362 1.391 . S
C963 C228 1.379 . S
C977 C376 1.371 . S
C983 C18 1.396 . S
C997 C390 1.387 . S
C1003 C256 1.381 . S
C1017 C404 1.392 . S
C1023 C74 1.381 . S
C1037 C418 1.383 . S
C1043 C312 1.383 . S
C1057 C432 1.376 . S
C1063 C102 1.390 . S
C1077 C446 1.379 . S
C1083 C284 1.394 . S
C1097 C347 1.483 . S
C1103 C11 1.483 . S
C1117 C25 1.483 . S
C1123 C137 1.483 . S
C1137 C375 1.497 . S
C1143 C39 1.497 . S
C1157 C53 1.485 . S
C1163 C165 1.485 . S
C1177 C403 1.499 . S
C1183 C67 1.499 . S
C1197 C81 1.487 . S
C1203 C193 1.487 . S
C1217 C431 1.486 . S
C1223 C95 1.486 . S
C1237 C109 1.484 . S
C1243 C221 1.484 . S
C1257 C123 1.485 . S
C1263 C235 1.485 . S
C1277 C151 1.485 . S
C1283 C263 1.485 . S
C1297 C179 1.484 . S
C1303 C291 1.484 . S
C1317 C207 1.485 . S
C1323 C319 1.485 . S
C1337 C249 1.483 . S
C1343 C361 1.483 . S
C1357 C389 1.483 . S
C1363 C277 1.483 . S
C1377 C417 1.483 . S
C1383 C305 1.483 . S
C1397 C333 1.494 . S
C1403 C445 1.494 . S
C1417 C5 0.944 . S
C1423 C75 0.885 . S
C1437 C19 0.888 . S
C1443 C89 0.935 . S
C1457 C33 0.887 . S
C1463 C103 0.937 . S
C1477 C61 0.939 . S
C1483 C47 0.920 . S
C1497 C117 0.889 . S
C1503 C187 0.931 . S
C1517 C131 0.893 . S
C1523 C201 0.951 . S
C1537 C145 0.941 . S
C1543 C215 0.886 . S
C1557 C159 0.902 . S
C1563 C173 0.949 . S
C1577 C229 0.894 . S
C1583 C299 0.924 . S
C1597 C313 0.888 . S
C1603 C243 0.934 . S
C1617 C257 0.950 . S
C1623 C327 0.897 . S
C1637 C271 0.951 . S
C1643 C285 0.896 . S
C1657 C411 0.935 . S
C1663 C341 0.888 . S
C1677 C355 0.912 . S
C1683 C425 0.903 . S
C1697 C439 0.900 . S
C1703 C369 0.915 . S
C1717 C383 0.947 . S
C1723 C397 0.886 . S
