# Generated by pormake.
# Topology bcs, (6)-cn, num edge types: 1
# Building blocks:
#     Node 0, Type 0, BuildingBlock: BETDAH_clean_sbu_0, # of connection points: 6
#     Node 1, Type 0, BuildingBlock: BETDAH_clean_sbu_0, # of connection points: 6
#     Node 2, Type 0, BuildingBlock: BETDAH_clean_sbu_0, # of connection points: 6
#     Node 3, Type 0, BuildingBlock: BETDAH_clean_sbu_0, # of connection points: 6
#     Node 4, Type 0, BuildingBlock: BETDAH_clean_sbu_0, # of connection points: 6
#     Node 5, Type 0, BuildingBlock: BETDAH_clean_sbu_0, # of connection points: 6
#     Node 6, Type 0, BuildingBlock: BETDAH_clean_sbu_0, # of connection points: 6
#     Node 7, Type 0, BuildingBlock: BETDAH_clean_sbu_0, # of connection points: 6
#     Node 8, Type 0, BuildingBlock: BETDAH_clean_sbu_0, # of connection points: 6
#     Node 9, Type 0, BuildingBlock: BETDAH_clean_sbu_0, # of connection points: 6
#     Node 10, Type 0, BuildingBlock: BETDAH_clean_sbu_0, # of connection points: 6
#     Node 11, Type 0, BuildingBlock: BETDAH_clean_sbu_0, # of connection points: 6
#     Node 12, Type 0, BuildingBlock: BETDAH_clean_sbu_0, # of connection points: 6
#     Node 13, Type 0, BuildingBlock: BETDAH_clean_sbu_0, # of connection points: 6
#     Node 14, Type 0, BuildingBlock: BETDAH_clean_sbu_0, # of connection points: 6
#     Node 15, Type 0, BuildingBlock: BETDAH_clean_sbu_0, # of connection points: 6
#     Edge 16, Type (0, 0), BuildingBlock: TEMPAE_clean_linker_10, # of connection points: 2
#     Edge 17, Type (0, 0), BuildingBlock: TEMPAE_clean_linker_10, # of connection points: 2
#     Edge 18, Type (0, 0), BuildingBlock: TEMPAE_clean_linker_10, # of connection points: 2
#     Edge 19, Type (0, 0), BuildingBlock: TEMPAE_clean_linker_10, # of connection points: 2
#     Edge 20, Type (0, 0), BuildingBlock: TEMPAE_clean_linker_10, # of connection points: 2
#     Edge 21, Type (0, 0), BuildingBlock: TEMPAE_clean_linker_10, # of connection points: 2
#     Edge 22, Type (0, 0), BuildingBlock: TEMPAE_clean_linker_10, # of connection points: 2
#     Edge 23, Type (0, 0), BuildingBlock: TEMPAE_clean_linker_10, # of connection points: 2
#     Edge 24, Type (0, 0), BuildingBlock: TEMPAE_clean_linker_10, # of connection points: 2
#     Edge 25, Type (0, 0), BuildingBlock: TEMPAE_clean_linker_10, # of connection points: 2
#     Edge 26, Type (0, 0), BuildingBlock: TEMPAE_clean_linker_10, # of connection points: 2
#     Edge 27, Type (0, 0), BuildingBlock: TEMPAE_clean_linker_10, # of connection points: 2
#     Edge 28, Type (0, 0), BuildingBlock: TEMPAE_clean_linker_10, # of connection points: 2
#     Edge 29, Type (0, 0), BuildingBlock: TEMPAE_clean_linker_10, # of connection points: 2
#     Edge 30, Type (0, 0), BuildingBlock: TEMPAE_clean_linker_10, # of connection points: 2
#     Edge 31, Type (0, 0), BuildingBlock: TEMPAE_clean_linker_10, # of connection points: 2
#     Edge 32, Type (0, 0), BuildingBlock: TEMPAE_clean_linker_10, # of connection points: 2
#     Edge 33, Type (0, 0), BuildingBlock: TEMPAE_clean_linker_10, # of connection points: 2
#     Edge 34, Type (0, 0), BuildingBlock: TEMPAE_clean_linker_10, # of connection points: 2
#     Edge 35, Type (0, 0), BuildingBlock: TEMPAE_clean_linker_10, # of connection points: 2
#     Edge 36, Type (0, 0), BuildingBlock: TEMPAE_clean_linker_10, # of connection points: 2
#     Edge 37, Type (0, 0), BuildingBlock: TEMPAE_clean_linker_10, # of connection points: 2
#     Edge 38, Type (0, 0), BuildingBlock: TEMPAE_clean_linker_10, # of connection points: 2
#     Edge 39, Type (0, 0), BuildingBlock: TEMPAE_clean_linker_10, # of connection points: 2
#     Edge 40, Type (0, 0), BuildingBlock: TEMPAE_clean_linker_10, # of connection points: 2
#     Edge 41, Type (0, 0), BuildingBlock: TEMPAE_clean_linker_10, # of connection points: 2
#     Edge 42, Type (0, 0), BuildingBlock: TEMPAE_clean_linker_10, # of connection points: 2
#     Edge 43, Type (0, 0), BuildingBlock: TEMPAE_clean_linker_10, # of connection points: 2
#     Edge 44, Type (0, 0), BuildingBlock: TEMPAE_clean_linker_10, # of connection points: 2
#     Edge 45, Type (0, 0), BuildingBlock: TEMPAE_clean_linker_10, # of connection points: 2
#     Edge 46, Type (0, 0), BuildingBlock: TEMPAE_clean_linker_10, # of connection points: 2
#     Edge 47, Type (0, 0), BuildingBlock: TEMPAE_clean_linker_10, # of connection points: 2
#     Edge 48, Type (0, 0), BuildingBlock: TEMPAE_clean_linker_10, # of connection points: 2
#     Edge 49, Type (0, 0), BuildingBlock: TEMPAE_clean_linker_10, # of connection points: 2
#     Edge 50, Type (0, 0), BuildingBlock: TEMPAE_clean_linker_10, # of connection points: 2
#     Edge 51, Type (0, 0), BuildingBlock: TEMPAE_clean_linker_10, # of connection points: 2
#     Edge 52, Type (0, 0), BuildingBlock: TEMPAE_clean_linker_10, # of connection points: 2
#     Edge 53, Type (0, 0), BuildingBlock: TEMPAE_clean_linker_10, # of connection points: 2
#     Edge 54, Type (0, 0), BuildingBlock: TEMPAE_clean_linker_10, # of connection points: 2
#     Edge 55, Type (0, 0), BuildingBlock: TEMPAE_clean_linker_10, # of connection points: 2
#     Edge 56, Type (0, 0), BuildingBlock: TEMPAE_clean_linker_10, # of connection points: 2
#     Edge 57, Type (0, 0), BuildingBlock: TEMPAE_clean_linker_10, # of connection points: 2
#     Edge 58, Type (0, 0), BuildingBlock: TEMPAE_clean_linker_10, # of connection points: 2
#     Edge 59, Type (0, 0), BuildingBlock: TEMPAE_clean_linker_10, # of connection points: 2
#     Edge 60, Type (0, 0), BuildingBlock: TEMPAE_clean_linker_10, # of connection points: 2
#     Edge 61, Type (0, 0), BuildingBlock: TEMPAE_clean_linker_10, # of connection points: 2
#     Edge 62, Type (0, 0), BuildingBlock: TEMPAE_clean_linker_10, # of connection points: 2
#     Edge 63, Type (0, 0), BuildingBlock: TEMPAE_clean_linker_10, # of connection points: 2
# Relax obj value: 0.226
# Max RMSD: 0.254
# Mean RMSD: 0.199
data_MOF--net-bcs--node1-BETDAH_clean_sbu_0--edge1-TEMPAE_clean_linker_10
_symmetry_space_group_name_H-M    P1
_symmetry_Int_Tables_number       1
_symmetry_cell_setting            triclinic
loop_
_symmetry_equiv_pos_as_xyz
'x, y, z'
_cell_length_a     43.728783
_cell_length_b     43.611735
_cell_length_c     40.624822
_cell_angle_alpha  77.117361
_cell_angle_beta   108.83505
_cell_angle_gamma 121.20769
loop_
_atom_site_label
_atom_site_type_symbol
_atom_site_fract_x
_atom_site_fract_y
_atom_site_fract_z
_atom_type_partial_charge
Ho0 Ho 1.03372 0.97496 0.98933 0.0
Ho1 Ho 0.04177 0.02996 0.03046 0.0
C2 C 0.103 0.00906 0.05441 0.0
C3 C 1.0377 0.9354 0.95332 0.0
C4 C 0.05875 0.92352 0.94216 0.0
C5 C 0.09318 0.9474 0.93469 0.0
C6 C 0.11036 0.93483 0.92136 0.0
C7 C 0.09333 0.89822 0.91506 0.0
C8 C 0.05898 0.87459 0.92294 0.0
C9 C 0.04205 0.88708 0.93637 0.0
C10 C 0.99133 0.94593 0.03649 0.0
C11 C 0.97007 0.99221 0.968 0.0
C12 C 1.03773 0.07047 0.06536 0.0
C13 C 1.01552 0.08206 0.07518 0.0
C14 C 0.98979 0.05942 0.09514 0.0
C15 C 0.97334 0.07301 0.10815 0.0
C16 C 0.98224 0.10947 0.10149 0.0
C17 C 1.00736 0.13175 0.08089 0.0
C18 C 1.02385 0.11824 0.06806 0.0
C19 C 0.08464 0.05845 0.98376 0.0
O20 O 0.09097 0.99664 0.02339 0.0
O21 O 0.08486 0.0183 0.06664 0.0
O22 O 1.03343 0.92605 0.98508 0.0
O23 O 0.04058 0.96708 0.94186 0.0
O24 O 0.98169 0.9342 1.00622 0.0
O25 O 1.02417 0.97182 0.04136 0.0
O26 O 0.98382 0.00661 0.99822 0.0
O27 O 0.98813 0.98387 0.9546 0.0
O28 O 0.04237 0.07925 0.03373 0.0
O29 O 1.03553 0.03918 0.07767 0.0
O30 O 0.09436 0.06983 0.01421 0.0
O31 O 0.05154 0.03307 0.97859 0.0
H32 H 0.10656 0.9757 0.93878 0.0
H33 H 0.13701 0.95381 0.91609 0.0
H34 H 0.04456 0.84644 0.91793 0.0
H35 H 1.01527 0.86824 0.94151 0.0
H36 H 0.98299 0.03148 0.10139 0.0
H37 H 0.95377 0.05502 0.1236 0.0
H38 H 1.01522 0.16 0.0756 0.0
H39 H 0.04414 0.1365 0.05338 0.0
Ho40 Ho 0.29637 0.77985 0.26788 0.0
Ho41 Ho 0.23063 0.7821 0.22334 0.0
C42 C 0.2177 0.73277 0.28965 0.0
C43 C 0.3441 0.7752 0.32166 0.0
C44 C 0.33097 0.74234 0.34367 0.0
C45 C 0.3523 0.73666 0.3758 0.0
C46 C 0.33915 0.702 0.39218 0.0
C47 C 0.30474 0.67406 0.37633 0.0
C48 C 0.28056 0.68226 0.34896 0.0
C49 C 0.29503 0.7151 0.33069 0.0
C50 C 0.25722 0.72948 0.22012 0.0
C51 C 0.30719 0.82412 0.19895 0.0
C52 C 0.18319 0.79124 0.1716 0.0
C53 C 0.19555 0.82206 0.14687 0.0
C54 C 0.17209 0.82634 0.1157 0.0
C55 C 0.18579 0.85811 0.09461 0.0
C56 C 0.22321 0.88481 0.10428 0.0
C57 C 0.24731 0.87736 0.13265 0.0
C58 C 0.23305 0.84766 0.15505 0.0
C59 C 0.27333 0.8318 0.27274 0.0
O60 O 0.25369 0.75382 0.30046 0.0
O61 O 0.20103 0.73436 0.25652 0.0
O62 O 0.34311 0.77032 0.29062 0.0
O63 O 0.32831 0.79395 0.32048 0.0
O64 O 0.29287 0.74631 0.23026 0.0
O65 O 0.24393 0.73823 0.23733 0.0
O66 O 0.27105 0.80339 0.18923 0.0
O67 O 0.32433 0.82528 0.23214 0.0
O68 O 0.18936 0.79948 0.20297 0.0
O69 O 0.1948 0.76911 0.17169 0.0
O70 O 0.23792 0.81163 0.26759 0.0
O71 O 0.28355 0.8236 0.2522 0.0
H72 H 0.37991 0.75763 0.38628 0.0
H73 H 0.358 0.69594 0.41376 0.0
H74 H 0.25415 0.66096 0.33635 0.0
H75 H 0.27942 0.71768 0.30458 0.0
H76 H 0.14312 0.80655 0.10897 0.0
H77 H 0.16635 0.86321 0.07291 0.0
H78 H 0.27612 0.89734 0.14061 0.0
H79 H 0.25104 0.84605 0.18001 0.0
Ho80 Ho 0.51413 0.98503 0.53365 0.0
Ho81 Ho 0.55491 0.01475 0.48501 0.0
C82 C 0.49334 0.047 0.46707 0.0
C83 C 0.48471 0.9793 0.58177 0.0
C84 C 0.46896 1.00025 0.58591 0.0
C85 C 0.48534 0.03735 0.5767 0.0
C86 C 0.47127 0.05767 0.58162 0.0
C87 C 0.44023 0.04117 0.59533 0.0
C88 C 0.42295 0.00374 0.60318 0.0
C89 C 0.43739 0.98342 0.59864 0.0
C90 C 0.48253 0.94158 0.48087 0.0
C91 C 0.57681 0.95372 0.55198 0.0
C92 C 0.58474 0.02138 0.43707 0.0
C93 C 0.59651 0.99726 0.43265 0.0
C94 C 0.5779 0.96078 0.44384 0.0
C95 C 0.58956 0.9375 0.44136 0.0
C96 C 0.62004 0.95043 0.42783 0.0
C97 C 0.63925 0.98706 0.41735 0.0
C98 C 0.62747 0.01047 0.41978 0.0
C99 C 0.58706 0.05587 0.53932 0.0
O100 O 0.48759 0.02498 0.49735 0.0
O101 O 0.52067 0.04778 0.45712 0.0
O102 O 0.46655 0.95888 0.55555 0.0
O103 O 0.52021 0.99728 0.58454 0.0
O104 O 0.48642 0.93038 0.51362 0.0
O105 O 0.4962 0.97534 0.47841 0.0
O106 O 0.58001 0.97316 0.52005 0.0
O107 O 0.55151 0.95521 0.56343 0.0
O108 O 0.60351 0.03908 0.46512 0.0
O109 O 0.54915 0.00706 0.43235 0.0
O110 O 0.5841 0.06899 0.50713 0.0
O111 O 0.57259 0.02229 0.54026 0.0
H112 H 0.50952 0.05085 0.56632 0.0
H113 H 0.48551 0.08647 0.57579 0.0
H114 H 0.3986 0.99026 0.61326 0.0
H115 H 0.42415 0.95473 0.60533 0.0
H116 H 0.55421 0.95019 0.45441 0.0
H117 H 0.57453 0.90933 0.44957 0.0
H118 H 0.6626 0.99727 0.40638 0.0
H119 H 0.6423 0.03867 0.41156 0.0
Ho120 Ho 0.31025 0.229 0.7755 0.0
Ho121 Ho 0.27199 0.27375 0.75299 0.0
C122 C 0.33272 0.29411 0.71363 0.0
C123 C 0.34057 0.19108 0.77817 0.0
C124 C 0.35345 0.18624 0.75175 0.0
C125 C 0.33965 0.19337 0.71624 0.0
C126 C 0.35152 0.18817 0.69103 0.0
C127 C 0.37772 0.1763 0.7011 0.0
C128 C 0.39233 0.17032 0.73673 0.0
C129 C 0.3802 0.17524 0.76191 0.0
C130 C 0.33573 0.28069 0.81784 0.0
C131 C 0.24764 0.20732 0.81321 0.0
C132 C 0.24352 0.31335 0.75012 0.0
C133 C 0.23062 0.31953 0.77561 0.0
C134 C 0.24711 0.31755 0.81141 0.0
C135 C 0.2352 0.32449 0.83544 0.0
C136 C 0.20637 0.33291 0.82392 0.0
C137 C 0.1891 0.33354 0.78816 0.0
C138 C 0.20121 0.32691 0.76414 0.0
C139 C 0.2463 0.22126 0.71147 0.0
O140 O 0.33135 0.26304 0.72798 0.0
O141 O 0.31413 0.30624 0.7217 0.0
O142 O 0.3592 0.22334 0.78932 0.0
O143 O 0.30486 0.17786 0.77159 0.0
O144 O 0.33264 0.24913 0.82846 0.0
O145 O 0.32666 0.28377 0.7851 0.0
O146 O 0.24971 0.2389 0.79976 0.0
O147 O 0.26649 0.19546 0.80507 0.0
O148 O 0.22402 0.28104 0.739 0.0
O149 O 0.27912 0.32545 0.75741 0.0
O150 O 0.24745 0.25198 0.70015 0.0
O151 O 0.25591 0.21918 0.74406 0.0
H152 H 0.31939 0.2025 0.70797 0.0
H153 H 0.33997 0.19297 0.66372 0.0
H154 H 0.41216 0.1606 0.74506 0.0
H155 H 0.3913 0.17001 0.78924 0.0
H156 H 0.26948 0.31117 0.82071 0.0
H157 H 0.24877 0.32375 0.8629 0.0
H158 H 0.16713 0.34049 0.77862 0.0
H159 H 0.18804 0.3281 0.73661 0.0
Ho160 Ho 0.0698 0.99302 0.52591 0.0
Ho161 Ho 1.0079 0.01112 0.49364 0.0
C162 C 0.99727 0.95312 0.5587 0.0
C163 C 0.12428 0.98622 0.56735 0.0
C164 C 0.1304 0.95654 0.58548 0.0
C165 C 0.15894 0.96308 0.61571 0.0
C166 C 0.17232 0.93887 0.62807 0.0
C167 C 0.15738 0.90837 0.60985 0.0
C168 C 0.12579 0.89959 0.58222 0.0
C169 C 0.11214 0.92369 0.57005 0.0
C170 C 1.01632 0.95239 0.47485 0.0
C171 C 0.07992 0.05021 0.46011 0.0
C172 C 0.9541 0.02018 0.45376 0.0
C173 C 0.94874 0.05026 0.43548 0.0
C174 C 0.91906 0.0436 0.40627 0.0
C175 C 0.90613 0.0682 0.39465 0.0
C176 C 0.92274 0.09926 0.41253 0.0
C177 C 0.95539 0.10813 0.43883 0.0
C178 C 0.96856 0.0836 0.45028 0.0
C179 C 0.06231 0.0514 0.54489 0.0
O180 O 1.03279 0.96287 0.56436 0.0
O181 O 0.98 0.964 0.52945 0.0
O182 O 0.11762 0.98788 0.53336 0.0
O183 O 0.10325 0.99271 0.57828 0.0
O184 O 0.04986 0.95808 0.4818 0.0
O185 O 1.01228 0.96333 0.49803 0.0
O186 O 0.04429 0.04013 0.45444 0.0
O187 O 0.09723 0.03977 0.48962 0.0
O188 O 0.96236 0.01949 0.48778 0.0
O189 O 0.97314 0.01174 0.442 0.0
O190 O 1.02818 0.04244 0.541 0.0
O191 O 0.06531 0.04095 0.52069 0.0
H192 H 0.17288 0.98823 0.62793 0.0
H193 H 0.19662 0.9457 0.64967 0.0
H194 H 0.11412 0.87616 0.56793 0.0
H195 H 0.0896 0.91821 0.54682 0.0
H196 H 0.90386 0.01804 0.39454 0.0
H197 H 0.8809 0.06122 0.37416 0.0
H198 H 0.96831 0.13199 0.45286 0.0
H199 H 0.99193 0.08915 0.47273 0.0
Ho200 Ho 0.31926 0.77387 0.74958 0.0
Ho201 Ho 0.36313 0.76484 0.70414 0.0
C202 C 0.34164 0.8261 0.68442 0.0
C203 C 0.30135 0.7985 0.78893 0.0
C204 C 0.27482 0.80573 0.79664 0.0
C205 C 0.28846 0.839 0.80936 0.0
C206 C 0.26596 0.8461 0.82079 0.0
C207 C 0.22904 0.82002 0.82 0.0
C208 C 0.21497 0.78687 0.80634 0.0
C209 C 0.23771 0.77971 0.79493 0.0
C210 C 0.27693 0.72767 0.69889 0.0
C211 C 0.34082 0.71345 0.77268 0.0
C212 C 0.38493 0.74115 0.66587 0.0
C213 C 0.39619 0.71718 0.65525 0.0
C214 C 0.3713 0.69074 0.63086 0.0
C215 C 0.38264 0.67188 0.6171 0.0
C216 C 0.41968 0.67839 0.62673 0.0
C217 C 0.44442 0.70462 0.65155 0.0
C218 C 0.43307 0.72353 0.66523 0.0
C219 C 0.40363 0.8109 0.75797 0.0
O220 O 0.34878 0.82469 0.71855 0.0
O221 O 0.34386 0.80314 0.66983 0.0
O222 O 0.29535 0.76543 0.79218 0.0
O223 O 0.31713 0.81783 0.76369 0.0
O224 O 0.26635 0.72626 0.72579 0.0
O225 O 0.30682 0.756 0.69791 0.0
O226 O 0.34104 0.71465 0.73983 0.0
O227 O 0.339 0.73813 0.78434 0.0
O228 O 0.40734 0.76471 0.68939 0.0
O229 O 0.35038 0.73071 0.66374 0.0
O230 O 0.41378 0.81603 0.72942 0.0
O231 O 0.37437 0.78146 0.75642 0.0
H232 H 0.31704 0.8594 0.81125 0.0
H233 H 0.27767 0.87214 0.83048 0.0
H234 H 0.18676 0.76607 0.80547 0.0
H235 H 0.22652 0.75366 0.78553 0.0
H236 H 0.34281 0.68501 0.62162 0.0
H237 H 0.36191 0.65199 0.5987 0.0
H238 H 0.47326 0.71161 0.65989 0.0
H239 H 0.4537 0.74399 0.68316 0.0
Ho240 Ho 0.55166 0.97821 0.02298 0.0
Ho241 Ho 0.52375 0.02956 0.99598 0.0
C242 C 0.59343 0.04784 0.97398 0.0
C243 C 0.58179 0.93845 0.03264 0.0
C244 C 0.60223 0.93526 0.0125 0.0
C245 C 0.59577 0.94322 0.97626 0.0
C246 C 0.61451 0.93884 0.95723 0.0
C247 C 0.64061 0.92722 0.97434 0.0
C248 C 0.64864 0.92155 0.01091 0.0
C249 C 0.62935 0.92526 0.02979 0.0
C250 C 0.56879 0.02272 0.07126 0.0
C251 C 0.47941 0.95694 0.04174 0.0
C252 C 0.49689 0.07033 0.99439 0.0
C253 C 0.47508 0.06812 0.01681 0.0
C254 C 0.48576 0.06285 0.05335 0.0
C255 C 0.46368 0.05898 0.074 0.0
C256 C 0.43039 0.05987 0.05847 0.0
C257 C 0.41953 0.06445 0.02194 0.0
C258 C 0.44169 0.06858 1.00136 0.0
C259 C 0.50363 0.98417 0.94718 0.0
O260 O 0.58317 0.01354 0.98264 0.0
O261 O 0.57708 0.06324 0.98049 0.0
O262 O 0.59836 0.96903 0.04674 0.0
O263 O 0.54671 0.92744 0.01814 0.0
O264 O 0.55886 0.98886 0.07764 0.0
O265 O 0.57025 0.03165 0.03971 0.0
O266 O 0.48843 0.99094 0.03237 0.0
O267 O 0.4979 0.94296 0.03691 0.0
O268 O 0.48043 0.04407 0.97392 0.0
O269 O 0.53137 0.0788 1.00928 0.0
O270 O 0.51091 0.0175 0.94033 0.0
O271 O 0.50474 0.97573 0.97938 0.0
H272 H 0.57602 0.95246 0.96261 0.0
H273 H 0.60778 0.94353 0.92912 0.0
H274 H 0.66948 0.9137 0.02491 0.0
H275 H 0.63543 0.92009 0.05787 0.0
H276 H 0.51105 0.06158 0.06599 0.0
H277 H 0.47263 0.05533 0.10207 0.0
H278 H 0.39432 0.06584 1.00925 0.0
H279 H 0.43271 0.07209 0.97328 0.0
Ho280 Ho 0.27032 0.22655 0.23044 0.0
Ho281 Ho 0.30704 0.27657 0.29167 0.0
C282 C 0.333 0.20864 0.30433 0.0
C283 C 0.25941 0.19807 0.17548 0.0
C284 C 0.27368 0.17741 0.16695 0.0
C285 C 0.30922 0.19466 0.16131 0.0
C286 C 0.32216 0.17507 0.15259 0.0
C287 C 0.29994 0.13788 0.14936 0.0
C288 C 0.26468 0.1204 0.15548 0.0
C289 C 0.25154 0.14008 0.16398 0.0
C290 C 0.22813 0.19732 0.278 0.0
C291 C 0.24425 0.29476 0.21781 0.0
C292 C 0.31838 0.30485 0.34663 0.0
C293 C 0.30408 0.32661 0.35257 0.0
C294 C 0.26805 0.31014 0.35654 0.0
C295 C 0.25276 0.33086 0.35756 0.0
C296 C 0.27319 0.36853 0.3547 0.0
C297 C 0.30986 0.38519 0.35235 0.0
C298 C 0.32523 0.36434 0.35134 0.0
C299 C 0.35018 0.30587 0.24529 0.0
O300 O 0.31132 0.20235 0.27042 0.0
O301 O 0.33405 0.23588 0.31751 0.0
O302 O 0.23834 0.18197 0.19725 0.0
O303 O 0.28258 0.23181 0.18147 0.0
O304 O 0.21998 0.18266 0.2498 0.0
O305 O 0.25744 0.22673 0.27761 0.0
O306 O 0.2659 0.3009 0.25182 0.0
O307 O 0.24333 0.26755 0.20456 0.0
O308 O 0.34033 0.3202 0.32567 0.0
O309 O 0.2946 0.27112 0.34065 0.0
O310 O 0.35837 0.31963 0.27402 0.0
O311 O 0.32016 0.27679 0.24428 0.0
H312 H 0.32703 0.22335 0.16338 0.0
H313 H 0.3496 0.18904 0.14821 0.0
H314 H 0.247 0.09177 0.15281 0.0
H315 H 0.22395 0.12614 0.16798 0.0
H316 H 0.25128 0.28123 0.35814 0.0
H317 H 0.22485 0.31731 0.36068 0.0
H318 H 0.32631 0.41422 0.35058 0.0
H319 H 0.35328 0.37774 0.34862 0.0
Ho320 Ho 0.57357 0.50108 0.03472 0.0
Ho321 Ho 0.50259 0.50078 0.9934 0.0
C322 C 0.49874 0.45828 0.06636 0.0
C323 C 0.62419 0.49944 0.08565 0.0
C324 C 0.61254 0.46677 0.1079 0.0
C325 C 0.6297 0.46563 0.14328 0.0
C326 C 0.61713 0.43266 0.16266 0.0
C327 C 0.58871 0.40137 0.14581 0.0
C328 C 0.56698 0.40424 0.11294 0.0
C329 C 0.57981 0.43656 0.09346 0.0
C330 C 0.52621 0.44778 0.99162 0.0
C331 C 0.57832 0.54507 0.9626 0.0
C332 C 0.44853 0.49823 0.94381 0.0
C333 C 0.45586 0.52756 0.91765 0.0
C334 C 0.43096 0.52554 0.88549 0.0
C335 C 0.4397 0.55591 0.86235 0.0
C336 C 0.47362 0.58757 0.87149 0.0
C337 C 0.5003 0.58728 0.90148 0.0
C338 C 0.49064 0.55818 0.92529 0.0
C339 C 0.54975 0.55455 0.03605 0.0
O340 O 0.53533 0.47363 0.07261 0.0
O341 O 0.47852 0.46094 0.03504 0.0
O342 O 0.62232 0.49471 0.05409 0.0
O343 O 0.6081 0.51751 0.08606 0.0
O344 O 0.56164 0.46403 0.99539 0.0
O345 O 0.51904 0.4598 0.01148 0.0
O346 O 0.54143 0.52764 0.95552 0.0
O347 O 0.59798 0.54323 0.99458 0.0
O348 O 0.45431 0.50774 0.97458 0.0
O349 O 0.46499 0.48023 0.94428 0.0
O350 O 0.51425 0.53922 0.0312 0.0
O351 O 0.55705 0.54201 0.01684 0.0
H352 H 0.65369 0.48933 0.15516 0.0
H353 H 0.63374 0.43065 0.18857 0.0
H354 H 0.54473 0.38037 0.09984 0.0
H355 H 0.56512 0.43736 0.0664 0.0
H356 H 0.40433 0.50168 0.87932 0.0
H357 H 0.41844 0.55588 0.83939 0.0
H358 H 0.52624 0.61154 0.90901 0.0
H359 H 0.50969 0.56051 0.95064 0.0
Ho360 Ho 0.71112 0.23626 0.3187 0.0
Ho361 Ho 0.75419 0.22465 0.27392 0.0
C362 C 0.73075 0.28412 0.24711 0.0
C363 C 0.69423 0.2643 0.35724 0.0
C364 C 0.67911 0.28491 0.36737 0.0
C365 C 0.70194 0.32133 0.37533 0.0
C366 C 0.69019 0.33962 0.38918 0.0
C367 C 0.65473 0.32267 0.39593 0.0
C368 C 0.63178 0.28613 0.38749 0.0
C369 C 0.64375 0.26776 0.37392 0.0
C370 C 0.66886 0.18823 0.26654 0.0
C371 C 0.73598 0.1778 0.34235 0.0
C372 C 0.77249 0.19767 0.2372 0.0
C373 C 0.80116 0.19537 0.22733 0.0
C374 C 0.7979 0.16132 0.22945 0.0
C375 C 0.82105 0.15635 0.21676 0.0
C376 C 0.84803 0.18527 0.20094 0.0
C377 C 0.85216 0.21981 0.19964 0.0
C378 C 0.82881 0.2248 0.21255 0.0
C379 C 0.79651 0.27557 0.32007 0.0
O380 O 0.72659 0.28283 0.27846 0.0
O381 O 0.73463 0.25975 0.23729 0.0
O382 O 0.67343 0.23125 0.34749 0.0
O383 O 0.72369 0.28159 0.34502 0.0
O384 O 0.65807 0.18628 0.29374 0.0
O385 O 0.69899 0.21654 0.2676 0.0
O386 O 0.72608 0.17636 0.30837 0.0
O387 O 0.7351 0.20254 0.35536 0.0
O388 O 0.76791 0.22596 0.22654 0.0
O389 O 0.76659 0.1843 0.2681 0.0
O390 O 0.80655 0.27475 0.29365 0.0
O391 O 0.76771 0.24678 0.32341 0.0
H392 H 0.72973 0.33573 0.37179 0.0
H393 H 0.70989 0.36709 0.39545 0.0
H394 H 0.60416 0.27116 0.39127 0.0
H395 H 0.62524 0.23967 0.36906 0.0
H396 H 0.77648 0.13806 0.24008 0.0
H397 H 0.81737 0.1295 0.21895 0.0
H398 H 0.87248 0.24272 0.18754 0.0
H399 H 0.8318 0.2514 0.21013 0.0
Ho400 Ho 0.04582 0.47412 0.50475 0.0
Ho401 Ho 1.02768 0.5306 0.51313 0.0
C402 C 0.07193 0.54953 0.45631 0.0
C403 C 0.04989 0.42846 0.47866 0.0
C404 C 0.07758 0.4314 0.46362 0.0
C405 C 0.06832 0.42679 0.428 0.0
C406 C 0.09444 0.43041 0.41287 0.0
C407 C 0.12997 0.43825 0.43331 0.0
C408 C 0.13959 0.44369 0.46874 0.0
C409 C 0.11359 0.44046 0.48383 0.0
C410 C 0.09788 0.52205 0.55152 0.0
C411 C 1.00293 0.45603 0.56232 0.0
C412 C 1.02183 0.57747 0.53552 0.0
C413 C 0.99569 0.57535 0.5522 0.0
C414 C 1.0069 0.58122 0.58773 0.0
C415 C 0.98247 0.57933 0.60407 0.0
C416 C 0.94669 0.57219 0.58492 0.0
C417 C 0.93521 0.56543 0.54954 0.0
C418 C 0.95946 0.56683 0.53334 0.0
C419 C 0.97445 0.48025 0.46834 0.0
O420 O 0.06533 0.51581 0.46085 0.0
O421 O 0.0637 0.56274 0.47637 0.0
O422 O 0.0594 0.43169 0.51231 0.0
O423 O 1.03243 0.44613 0.46049 0.0
O424 O 0.09305 0.48985 0.55309 0.0
O425 O 0.07873 0.52837 0.52315 0.0
O426 O 1.01165 0.49037 0.55916 0.0
O427 O 1.00799 0.44205 0.54016 0.0
O428 O 1.00954 0.57011 0.50276 0.0
O429 O 0.04214 0.56291 0.55414 0.0
O430 O 0.97951 0.51266 0.46522 0.0
O431 O 0.99506 0.47593 0.49636 0.0
H432 H 0.04079 0.42015 0.41194 0.0
H433 H 0.08643 0.42565 0.38555 0.0
H434 H 0.16698 0.44979 0.48482 0.0
H435 H 0.12167 0.44477 0.51126 0.0
H436 H 1.03465 0.58746 0.60283 0.0
H437 H 0.99176 0.58407 0.6315 0.0
H438 H 0.90794 0.56034 0.53397 0.0
H439 H 0.94993 0.56181 0.50596 0.0
Ho440 Ho 0.79594 0.72315 0.26193 0.0
Ho441 Ho 0.77536 0.78188 0.25291 0.0
C442 C 0.8296 0.79545 0.20819 0.0
C443 C 0.80806 0.67519 0.25145 0.0
C444 C 0.82875 0.67688 0.2287 0.0
C445 C 0.8243 0.69233 0.19435 0.0
C446 C 0.84351 0.69297 0.17263 0.0
C447 C 0.86765 0.67869 0.18522 0.0
C448 C 0.87372 0.66521 0.22009 0.0
C449 C 0.8542 0.6642 0.24173 0.0
C450 C 0.83675 0.77222 0.30824 0.0
C451 C 0.7426 0.711 0.30736 0.0
C452 C 0.76209 0.8301 0.26061 0.0
C453 C 0.73947 0.82988 0.28044 0.0
C454 C 0.74673 0.82299 0.31681 0.0
C455 C 0.72609 0.82483 0.33534 0.0
C456 C 0.69771 0.83317 0.31761 0.0
C457 C 0.68853 0.83705 0.28102 0.0
C458 C 0.7096 0.83584 0.26258 0.0
C459 C 0.73269 0.73014 0.20834 0.0
O460 O 0.82165 0.76124 0.21736 0.0
O461 O 0.81777 0.81094 0.22183 0.0
O462 O 0.82796 0.69544 0.27785 0.0
O463 O 0.77762 0.67673 0.2356 0.0
O464 O 0.82819 0.73874 0.31639 0.0
O465 O 0.82569 0.77835 0.27623 0.0
O466 O 0.75156 0.74547 0.29882 0.0
O467 O 0.75288 0.69462 0.29281 0.0
O468 O 0.74362 0.80972 0.23428 0.0
O469 O 0.79189 0.82812 0.27871 0.0
O470 O 0.74152 0.76354 0.199 0.0
O471 O 0.74545 0.72622 0.24025 0.0
H472 H 0.80533 0.70306 0.18397 0.0
H473 H 0.83849 0.70325 0.14569 0.0
H474 H 0.89189 0.65352 0.22998 0.0
H475 H 0.85832 0.6528 0.26832 0.0
H476 H 0.76896 0.81728 0.3311 0.0
H477 H 0.73377 0.82186 0.36356 0.0
H478 H 0.66622 0.84281 0.26682 0.0
H479 H 0.70306 0.84034 0.23444 0.0
Ho480 Ho 0.8492 0.22064 0.79468 0.0
Ho481 Ho 0.78329 0.23176 0.76054 0.0
C482 C 0.77706 0.18177 0.82837 0.0
C483 C 0.90392 0.21766 0.84015 0.0
C484 C 0.90191 0.19157 0.87008 0.0
C485 C 0.88801 0.19076 0.89738 0.0
C486 C 0.87427 0.15948 0.919 0.0
C487 C 0.87361 0.12893 0.91267 0.0
C488 C 0.88968 0.13082 0.88697 0.0
C489 C 0.90476 0.16209 0.86663 0.0
C490 C 0.79625 0.17407 0.746 0.0
C491 C 0.85546 0.27347 0.72723 0.0
C492 C 0.73393 0.24054 0.71311 0.0
C493 C 0.74551 0.27267 0.68995 0.0
C494 C 0.73362 0.27013 0.65381 0.0
C495 C 0.7489 0.30063 0.63195 0.0
C496 C 0.77506 0.33378 0.64642 0.0
C497 C 0.79115 0.33463 0.68235 0.0
C498 C 0.77589 0.3045 0.70402 0.0
C499 C 0.83368 0.27563 0.81103 0.0
O500 O 0.81306 0.19334 0.83417 0.0
O501 O 0.7576 0.18764 0.79787 0.0
O502 O 0.8903 0.20375 0.80989 0.0
O503 O 0.89313 0.2403 0.84108 0.0
O504 O 0.83127 0.18611 0.75021 0.0
O505 O 0.792 0.18578 0.76869 0.0
O506 O 0.82065 0.26416 0.72365 0.0
O507 O 0.87429 0.26248 0.75462 0.0
O508 O 0.73958 0.24567 0.7457 0.0
O509 O 0.74602 0.21994 0.70976 0.0
O510 O 0.79843 0.26291 0.80588 0.0
O511 O 0.8401 0.26641 0.78792 0.0
H512 H 0.88573 0.21339 0.90075 0.0
H513 H 0.86303 0.15868 0.93954 0.0
H514 H 0.88966 0.10763 0.88189 0.0
H515 H 0.91544 0.16203 0.84599 0.0
H516 H 0.71221 0.24489 0.64264 0.0
H517 H 0.73671 0.29947 0.60412 0.0
H518 H 0.81194 0.35967 0.69427 0.0
H519 H 0.78773 0.30636 0.73189 0.0
Ho520 Ho 0.76491 0.72562 0.73431 0.0
Ho521 Ho 0.8072 0.77832 0.78629 0.0
C522 C 0.83133 0.70889 0.80409 0.0
C523 C 0.74564 0.69076 0.68123 0.0
C524 C 0.7617 0.67349 0.67056 0.0
C525 C 0.79697 0.69338 0.66419 0.0
C526 C 0.81267 0.67589 0.65665 0.0
C527 C 0.7936 0.63837 0.656 0.0
C528 C 0.75888 0.61835 0.66321 0.0
C529 C 0.74269 0.63589 0.66983 0.0
C530 C 0.72326 0.70038 0.78078 0.0
C531 C 0.74072 0.7946 0.71625 0.0
C532 C 0.82471 0.81336 0.83899 0.0
C533 C 0.80655 0.82756 0.85129 0.0
C534 C 0.77172 0.80504 0.85826 0.0
C535 C 0.75345 0.81955 0.86653 0.0
C536 C 0.76984 0.85683 0.8683 0.0
C537 C 0.80516 0.87928 0.86232 0.0
C538 C 0.82332 0.86473 0.85383 0.0
C539 C 0.84925 0.80277 0.73992 0.0
O540 O 0.80547 0.69981 0.77237 0.0
O541 O 0.836 0.7393 0.81465 0.0
O542 O 0.73433 0.67581 0.70958 0.0
O543 O 0.76306 0.72591 0.68032 0.0
O544 O 0.71393 0.6861 0.75223 0.0
O545 O 0.75409 0.729 0.78275 0.0
O546 O 0.76747 0.80452 0.7473 0.0
O547 O 0.73512 0.76355 0.70642 0.0
O548 O 0.83358 0.82869 0.80959 0.0
O549 O 0.8108 0.77843 0.84076 0.0
O550 O 0.85915 0.81673 0.76889 0.0
O551 O 0.81825 0.77446 0.73817 0.0
H552 H 0.81258 0.72228 0.66531 0.0
H553 H 0.83982 0.69157 0.65152 0.0
H554 H 0.74425 0.58935 0.66341 0.0
H555 H 0.71563 0.62005 0.67512 0.0
H556 H 0.75846 0.7763 0.85705 0.0
H557 H 0.7266 0.80156 0.87185 0.0
H558 H 0.81843 0.90811 0.86358 0.0
H559 H 0.85022 0.88262 0.84858 0.0
Ho560 Ho 0.56663 0.51534 0.53968 0.0
Ho561 Ho 0.50934 0.48837 0.48119 0.0
C562 C 0.56746 0.46011 0.49528 0.0
C563 C 0.61288 0.52702 0.59987 0.0
C564 C 0.64777 0.52672 0.61521 0.0
C565 C 0.64826 0.49885 0.64 0.0
C566 C 0.67779 0.49228 0.64858 0.0
C567 C 0.70715 0.51379 0.63264 0.0
C568 C 0.70837 0.54375 0.61045 0.0
C569 C 0.67886 0.55045 0.60196 0.0
C570 C 0.5838 0.55772 0.48041 0.0
C571 C 0.50734 0.5429 0.5249 0.0
C572 C 0.46683 0.47614 0.41936 0.0
C573 C 0.43423 0.47838 0.39898 0.0
C574 C 0.43673 0.50041 0.36798 0.0
C575 C 0.41297 0.51469 0.35471 0.0
C576 C 0.38633 0.50591 0.37205 0.0
C577 C 0.38095 0.48043 0.40044 0.0
C578 C 0.40486 0.46645 0.41393 0.0
C579 C 0.4911 0.44538 0.5396 0.0
O580 O 0.58133 0.47547 0.52564 0.0
O581 O 0.54056 0.46436 0.47262 0.0
O582 O 0.61317 0.55254 0.57577 0.0
O583 O 0.58428 0.49559 0.59162 0.0
O584 O 0.59036 0.56973 0.50969 0.0
O585 O 0.56871 0.52392 0.48448 0.0
O586 O 0.49415 0.52781 0.49451 0.0
O587 O 0.53403 0.5386 0.54841 0.0
O588 O 0.46269 0.45132 0.44502 0.0
O589 O 0.49552 0.50737 0.42812 0.0
O590 O 0.48441 0.43392 0.50997 0.0
O591 O 0.50739 0.47932 0.53674 0.0
H592 H 0.62451 0.48037 0.6505 0.0
H593 H 0.67603 0.46848 0.66512 0.0
H594 H 0.73099 0.56048 0.59805 0.0
H595 H 0.67937 0.57256 0.58319 0.0
H596 H 0.45957 0.50982 0.35647 0.0
H597 H 0.4175 0.53494 0.33311 0.0
H598 H 0.3611 0.47454 0.41454 0.0
H599 H 0.40272 0.4496 0.43803 0.0
Ho600 Ho 1.02428 0.49449 0.03985 0.0
Ho601 Ho 0.05047 0.50731 0.98327 0.0
C602 C 0.9941 0.5466 0.96871 0.0
C603 C 1.00031 0.49168 0.09095 0.0
C604 C 0.98638 0.51263 0.09813 0.0
C605 C 1.00321 0.54998 0.09075 0.0
C606 C 0.98681 0.569 0.09351 0.0
C607 C 0.95319 0.55079 0.10316 0.0
C608 C 0.93644 0.5134 0.11046 0.0
C609 C 0.95312 0.49446 0.10815 0.0
C610 C 0.98887 0.43731 1.00153 0.0
C611 C 0.08285 0.4582 0.0544 0.0
C612 C 0.05857 0.50401 0.92452 0.0
C613 C 0.07717 0.48759 0.91664 0.0
C614 C 0.06398 0.45027 0.92277 0.0
C615 C 0.0839 0.43525 0.9192 0.0
C616 C 0.11728 0.45716 0.9094 0.0
C617 C 0.13001 0.49424 0.90229 0.0
C618 C 0.11001 0.50937 0.90586 0.0
C619 C 0.10063 0.55381 0.03231 0.0
O620 O 0.99246 0.52934 1.00169 0.0
O621 O 1.01754 0.5425 0.95661 0.0
O622 O 0.97936 0.47254 0.06401 0.0
O623 O 1.03544 0.50839 0.09174 0.0
O624 O 1.00341 0.43568 0.03448 0.0
O625 O 0.99585 0.46885 0.99081 0.0
O626 O 0.07474 0.46565 0.01869 0.0
O627 O 0.06895 0.47207 0.06921 0.0
O628 O 0.07977 0.53258 0.94241 0.0
O629 O 1.02903 0.48141 0.93564 0.0
O630 O 0.10879 0.53832 0.01538 0.0
O631 O 0.06685 0.5447 0.0222 0.0
H632 H 1.02862 0.56437 0.08228 0.0
H633 H 1.00051 0.59792 0.08833 0.0
H634 H 0.91028 0.49877 0.11756 0.0
H635 H 0.93954 0.46551 0.11316 0.0
H636 H 0.03862 0.43256 0.93099 0.0
H637 H 0.07307 0.40643 0.92393 0.0
H638 H 0.15567 0.51157 0.89452 0.0
H639 H 0.12063 0.53814 0.90103 0.0
C640 C 0.19663 0.19172 0.84106 0.0
C641 C 0.22312 0.18432 0.83762 0.0
C642 C 0.17285 0.16977 0.86329 0.0
C643 C 0.17569 0.13975 0.88325 0.0
C644 C 0.20243 0.13219 0.87993 0.0
C645 C 0.22547 0.15426 0.85712 0.0
C646 C 0.14475 0.17892 0.86559 0.0
C647 C 0.20715 0.10102 0.90096 0.0
C648 C 0.14245 0.108 0.96731 0.0
C649 C 0.10758 0.07775 0.95767 0.0
C650 C 0.16473 0.12796 0.9436 0.0
C651 C 0.15225 0.11764 0.90899 0.0
C652 C 0.11733 0.08664 0.89921 0.0
C653 C 0.09542 0.06716 0.92356 0.0
C654 C 0.20166 0.16043 0.95563 0.0
C655 C 0.10291 0.07428 0.86283 0.0
H656 H 0.19418 0.2146 0.82609 0.0
H657 H 0.24574 0.1481 0.85489 0.0
H658 H 0.11674 0.15528 0.85991 0.0
H659 H 0.15072 0.18578 0.89247 0.0
H660 H 0.14459 0.20192 0.84719 0.0
H661 H 0.22842 0.09801 0.89485 0.0
H662 H 0.21525 0.10487 0.92919 0.0
H663 H 0.18059 0.07565 0.89594 0.0
H664 H 0.15237 0.11643 0.9936 0.0
H665 H 0.06867 0.04382 0.91582 0.0
H666 H 0.2021 0.18492 0.93992 0.0
H667 H 0.22397 0.15762 0.95156 0.0
H668 H 0.20792 0.16442 0.98359 0.0
H669 H 0.09911 0.09536 0.84375 0.0
H670 H 0.07618 0.04889 0.85963 0.0
H671 H 0.12324 0.07011 0.85638 0.0
C672 C 0.12842 0.97256 0.09019 0.0
C673 C 0.13484 0.00698 0.07659 0.0
C674 C 0.15461 0.96237 0.09381 0.0
C675 C 0.18871 0.98837 0.0858 0.0
C676 C 0.1972 0.02461 0.07692 0.0
C677 C 0.16947 0.03349 0.07161 0.0
C678 C 0.14408 0.92304 0.10263 0.0
C679 C 0.234 0.05296 0.06993 0.0
C680 C 0.24564 0.94441 0.12229 0.0
C681 C 0.23275 0.92269 0.09474 0.0
C682 C 0.23542 0.97054 0.11851 0.0
C683 C 0.21427 0.97635 0.0859 0.0
C684 C 0.20832 0.96007 0.05626 0.0
C685 C 0.21765 0.93292 0.06115 0.0
C686 C 0.24059 0.98634 0.15073 0.0
C687 C 0.1857 0.96586 0.02099 0.0
H688 H 0.10101 0.95234 0.0932 0.0
H689 H 0.17359 0.05998 0.06041 0.0
H690 H 0.14275 0.91158 0.08009 0.0
H691 H 0.16501 0.91984 0.12512 0.0
H692 H 0.11681 0.90693 0.10906 0.0
H693 H 0.23799 0.0805 0.0684 0.0
H694 H 0.25683 0.05095 0.09065 0.0
H695 H 0.23586 0.04867 0.04489 0.0
H696 H 0.2579 0.93709 0.14841 0.0
H697 H 0.20848 0.91656 0.03981 0.0
H698 H 0.21384 0.97356 0.1578 0.0
H699 H 0.24989 0.01552 0.14562 0.0
H700 H 0.26046 0.98177 0.17353 0.0
H701 H 0.15591 0.94818 0.02011 0.0
H702 H 0.19155 0.95898 0.99978 0.0
H703 H 0.19105 0.99405 0.016 0.0
C704 C 0.4492 0.89819 0.43396 0.0
C705 C 0.4491 0.91974 0.45474 0.0
C706 C 0.41813 0.8804 0.40673 0.0
C707 C 0.38663 0.88491 0.39993 0.0
C708 C 0.3861 0.90543 0.4221 0.0
C709 C 0.41729 0.92252 0.44921 0.0
C710 C 0.41985 0.85807 0.38456 0.0
C711 C 0.35338 0.91108 0.41603 0.0
C712 C 0.3317 0.87998 0.30508 0.0
C713 C 0.29885 0.84776 0.30598 0.0
C714 C 0.35976 0.89285 0.33564 0.0
C715 C 0.35604 0.87178 0.36765 0.0
C716 C 0.32289 0.83896 0.36866 0.0
C717 C 0.29401 0.82817 0.33808 0.0
C718 C 0.3938 0.92869 0.33341 0.0
C719 C 0.31905 0.81396 0.40124 0.0
H720 H 0.47387 0.89606 0.43833 0.0
H721 H 0.4173 0.93909 0.46555 0.0
H722 H 0.39238 0.83467 0.37553 0.0
H723 H 0.42923 0.87481 0.36126 0.0
H724 H 0.43975 0.84818 0.39902 0.0
H725 H 0.35679 0.92666 0.4364 0.0
H726 H 0.34953 0.92569 0.39024 0.0
H727 H 0.32781 0.88487 0.4156 0.0
H728 H 0.3356 0.89497 0.28024 0.0
H729 H 0.2689 0.80292 0.33879 0.0
H730 H 0.41753 0.9244 0.33673 0.0
H731 H 0.4009 0.9453 0.35456 0.0
H732 H 0.39013 0.94395 0.30797 0.0
H733 H 0.34013 0.8051 0.40787 0.0
H734 H 0.29133 0.78975 0.39802 0.0
H735 H 0.32424 0.82803 0.42365 0.0
C736 C 0.35903 0.14275 0.6499 0.0
C737 C 0.38724 0.16652 0.67488 0.0
C738 C 0.36692 0.12625 0.63037 0.0
C739 C 0.40381 0.13395 0.63612 0.0
C740 C 0.43275 0.16074 0.65867 0.0
C741 C 0.42405 0.17671 0.67794 0.0
C742 C 0.33541 0.09781 0.60648 0.0
C743 C 0.47248 0.16988 0.66518 0.0
C744 C 0.41869 0.05638 0.6358 0.0
C745 C 0.42793 0.06348 0.60398 0.0
C746 C 0.4101 0.07887 0.64611 0.0
C747 C 0.4112 0.10943 0.62419 0.0
C748 C 0.41995 0.11657 0.59178 0.0
C749 C 0.42802 0.09328 0.58191 0.0
C750 C 0.40072 0.07035 0.68091 0.0
C751 C 0.42153 0.14909 0.56801 0.0
H752 H 0.33052 0.13484 0.64762 0.0
H753 H 0.44582 0.19558 0.69694 0.0
H754 H 0.34245 0.10016 0.58182 0.0
H755 H 0.33005 0.07083 0.61936 0.0
H756 H 0.30963 0.0995 0.60022 0.0
H757 H 0.4919 0.19536 0.6783 0.0
H758 H 0.47681 0.14798 0.68213 0.0
H759 H 0.47935 0.17224 0.64041 0.0
H760 H 0.41935 0.03385 0.65325 0.0
H761 H 0.43482 0.09862 0.55711 0.0
H762 H 0.37328 0.06785 0.67727 0.0
H763 H 0.42128 0.09256 0.69816 0.0
H764 H 0.40026 0.04501 0.69435 0.0
H765 H 0.3948 0.1489 0.56173 0.0
H766 H 0.42794 0.15027 0.54328 0.0
H767 H 0.44296 0.17394 0.58142 0.0
C768 C 0.21557 0.91331 0.60938 0.0
C769 C 0.17987 0.89148 0.6141 0.0
C770 C 0.23896 0.89915 0.61469 0.0
C771 C 0.22618 0.86228 0.62518 0.0
C772 C 0.18928 0.83955 0.62794 0.0
C773 C 0.16622 0.85457 0.62203 0.0
C774 C 0.27831 0.92436 0.61198 0.0
C775 C 0.17508 0.80033 0.64007 0.0
C776 C 0.29364 0.83029 0.63221 0.0
C777 C 0.31562 0.83975 0.66594 0.0
C778 C 0.26324 0.83642 0.61847 0.0
C779 C 0.25387 0.85024 0.63982 0.0
C780 C 0.27532 0.85874 0.67412 0.0
C781 C 0.30726 0.85581 0.6857 0.0
C782 C 0.24147 0.82862 0.58124 0.0
C783 C 0.26509 0.87161 0.69854 0.0
H784 H 0.22551 0.94181 0.60229 0.0
H785 H 0.13826 0.83791 0.62509 0.0
H786 H 0.29699 0.92986 0.63854 0.0
H787 H 0.28725 0.91205 0.59846 0.0
H788 H 0.28183 0.95049 0.59789 0.0
H789 H 0.14448 0.78488 0.63144 0.0
H790 H 0.18707 0.7881 0.63043 0.0
H791 H 0.18308 0.7978 0.669 0.0
H792 H 0.29976 0.81769 0.61688 0.0
H793 H 0.32458 0.86434 0.7114 0.0
H794 H 0.24509 0.8542 0.56578 0.0
H795 H 0.21158 0.8114 0.57993 0.0
H796 H 0.25036 0.81516 0.56901 0.0
H797 H 0.27177 0.90006 0.69107 0.0
H798 H 0.2802 0.86974 0.72612 0.0
H799 H 0.23505 0.85556 0.69693 0.0
C800 C 0.40064 0.82804 0.81168 0.0
C801 C 0.41834 0.83739 0.78477 0.0
C802 C 0.41295 0.85194 0.83724 0.0
C803 C 0.44458 0.88626 0.83684 0.0
C804 C 0.46255 0.89604 0.8096 0.0
C805 C 0.44916 0.87168 0.78389 0.0
C806 C 0.39182 0.8404 0.86466 0.0
C807 C 0.49629 0.93218 0.80787 0.0
C808 C 0.46359 0.96169 0.88778 0.0
C809 C 0.48712 0.95813 0.91968 0.0
C810 C 0.44865 0.93796 0.86117 0.0
C811 C 0.45926 0.91126 0.86541 0.0
C812 C 0.48338 0.90794 0.89753 0.0
C813 C 0.4958 0.93042 0.92454 0.0
C814 C 0.42115 0.94125 0.82869 0.0
C815 C 0.49676 0.88104 0.90318 0.0
H816 H 0.37678 0.80178 0.81279 0.0
H817 H 0.463 0.8794 0.76324 0.0
H818 H 0.40993 0.83989 0.89095 0.0
H819 H 0.38275 0.86005 0.86414 0.0
H820 H 0.36712 0.81336 0.86082 0.0
H821 H 0.50731 0.93588 0.78534 0.0
H822 H 0.48958 0.95394 0.80578 0.0
H823 H 0.51822 0.93521 0.83225 0.0
H824 H 0.45616 0.98263 0.88389 0.0
H825 H 0.51326 0.92697 0.9492 0.0
H826 H 0.39555 0.91496 0.82424 0.0
H827 H 0.43262 0.94883 0.80566 0.0
H828 H 0.41378 0.96163 0.83031 0.0
H829 H 0.47303 0.85339 0.90143 0.0
H830 H 0.51665 0.88275 0.9289 0.0
H831 H 0.51039 0.88569 0.8824 0.0
C832 C 0.36969 0.04011 0.06995 0.0
C833 C 0.40836 0.05931 0.07992 0.0
C834 C 0.34845 0.04587 0.08483 0.0
C835 C 0.36639 0.07134 0.11025 0.0
C836 C 0.40526 0.08801 0.1229 0.0
C837 C 0.42584 0.08176 0.10755 0.0
C838 C 0.30711 0.02712 0.07102 0.0
C839 C 0.42544 0.11526 0.15011 0.0
C840 C 0.32679 0.13105 0.10808 0.0
C841 C 0.31341 0.11812 0.13805 0.0
C842 C 0.34279 0.11506 0.09815 0.0
C843 C 0.34571 0.08551 0.1189 0.0
C844 C 0.33117 0.07153 0.14865 0.0
C845 C 0.31478 0.08788 0.15778 0.0
C846 C 0.35797 0.13083 0.06621 0.0
C847 C 0.33411 0.0402 0.17132 0.0
H848 H 0.35606 0.02203 0.04915 0.0
H849 H 0.45573 0.09665 0.1154 0.0
H850 H 0.2935 0.02055 0.09219 0.0
H851 H 0.29892 0.04525 0.05108 0.0
H852 H 0.29694 1.00206 0.05879 0.0
H853 H 0.45475 0.1216 0.16084 0.0
H854 H 0.42476 0.14048 0.13821 0.0
H855 H 0.41184 0.10547 0.17191 0.0
H856 H 0.32523 0.15417 0.09266 0.0
H857 H 0.30429 0.07789 0.18095 0.0
H858 H 0.34602 0.10967 0.04794 0.0
H859 H 0.38833 0.14162 0.07392 0.0
H860 H 0.35204 0.15286 0.05217 0.0
H861 H 0.32081 0.0168 0.15546 0.0
H862 H 0.32122 0.03236 0.19346 0.0
H863 H 0.36351 0.04708 0.18202 0.0
C864 C 0.14016 0.08664 0.44227 0.0
C865 C 0.10195 0.07453 0.4341 0.0
C866 C 0.16163 0.10814 0.41817 0.0
C867 C 0.14489 0.11829 0.38468 0.0
C868 C 0.10645 0.10666 0.37633 0.0
C869 C 0.08552 0.08501 0.40101 0.0
C870 C 0.20224 0.11928 0.4284 0.0
C871 C 0.08728 0.11662 0.34099 0.0
C872 C 0.20738 0.19661 0.33015 0.0
C873 C 0.20881 0.17836 0.30675 0.0
C874 C 0.18653 0.17756 0.35542 0.0
C875 C 0.16718 0.13933 0.35788 0.0
C876 C 0.16939 0.12097 0.33473 0.0
C877 C 0.18964 0.14059 0.30939 0.0
C878 C 0.1848 0.19831 0.37929 0.0
C879 C 0.15032 0.08042 0.33669 0.0
H880 H 0.15352 0.07896 0.46762 0.0
H881 H 0.05615 0.07591 0.39416 0.0
H882 H 0.20821 0.10795 0.41085 0.0
H883 H 0.2189 0.14895 0.42539 0.0
H884 H 0.21141 0.1101 0.45572 0.0
H885 H 0.05789 0.10744 0.33906 0.0
H886 H 0.10165 0.14619 0.33538 0.0
H887 H 0.08846 0.1044 0.32054 0.0
H888 H 0.2215 0.22569 0.32795 0.0
H889 H 0.19063 0.12615 0.29155 0.0
H890 H 0.19801 0.19299 0.40662 0.0
H891 H 0.15562 0.18926 0.37802 0.0
H892 H 0.1988 0.22769 0.37257 0.0
H893 H 0.16033 0.07007 0.36309 0.0
H894 H 0.15514 0.07014 0.31722 0.0
H895 H 0.12016 0.0693 0.33227 0.0
C896 C 0.85331 0.14734 0.16686 0.0
C897 C 0.87027 0.17846 0.18486 0.0
C898 C 0.87354 0.13881 0.15326 0.0
C899 C 0.91191 0.16206 0.15727 0.0
C900 C 0.9292 0.19412 0.17447 0.0
C901 C 0.9082 0.20198 0.188 0.0
C902 C 0.85382 0.10444 0.13502 0.0
C903 C 0.96997 0.21984 0.179 0.0
C904 C 0.96374 0.11588 0.15122 0.0
C905 C 0.96596 0.1245 0.11635 0.0
C906 C 0.94796 0.12943 0.16534 0.0
C907 C 0.93356 0.15187 0.14405 0.0
C908 C 0.9367 0.16148 0.10911 0.0
C909 C 0.9529 0.1478 0.09576 0.0
C910 C 0.94585 0.11896 0.20288 0.0
C911 C 0.92175 0.18522 0.08539 0.0
H912 H 0.82392 0.12939 0.16336 0.0
H913 H 0.92169 0.22608 0.20181 0.0
H914 H 0.858 0.1104 0.10832 0.0
H915 H 0.86554 0.08653 0.14933 0.0
H916 H 0.82369 0.08972 0.13316 0.0
H917 H 0.97953 0.24314 0.19372 0.0
H918 H 0.98603 0.2057 0.19295 0.0
H919 H 0.97623 0.23003 0.1531 0.0
H920 H 0.97447 0.09854 0.16755 0.0
H921 H 0.9544 0.15456 0.06877 0.0
H922 H 0.91655 0.10199 0.20398 0.0
H923 H 0.95748 0.14326 0.21692 0.0
H924 H 0.96094 0.10383 0.21677 0.0
H925 H 0.89124 0.17109 0.08054 0.0
H926 H 0.929 0.1926 0.0599 0.0
H927 H 0.93255 0.2102 0.09796 0.0
C928 C 0.12058 0.57149 0.4244 0.0
C929 C 0.09247 0.57442 0.43054 0.0
C930 C 0.14235 0.59704 0.40212 0.0
C931 C 0.13505 0.62549 0.38497 0.0
C932 C 0.10609 0.62798 0.39054 0.0
C933 C 0.08548 0.60267 0.41364 0.0
C934 C 0.17344 0.59392 0.3973 0.0
C935 C 0.09692 0.65743 0.37214 0.0
C936 C 0.20905 0.71062 0.34993 0.0
C937 C 0.19692 0.70549 0.31421 0.0
C938 C 0.18929 0.68469 0.37339 0.0
C939 C 0.15731 0.65253 0.36085 0.0
C940 C 0.14567 0.64682 0.32492 0.0
C941 C 0.1654 0.67356 0.30197 0.0
C942 C 0.20227 0.69195 0.41146 0.0
C943 C 0.11222 0.61255 0.31068 0.0
H944 H 0.12632 0.5499 0.4379 0.0
H945 H 0.06367 0.60484 0.41836 0.0
H946 H 0.16928 0.59157 0.36937 0.0
H947 H 0.20006 0.61857 0.40533 0.0
H948 H 0.17563 0.57033 0.41269 0.0
H949 H 0.07344 0.65547 0.37924 0.0
H950 H 0.12134 0.68409 0.37868 0.0
H951 H 0.08977 0.65615 0.34349 0.0
H952 H 0.23359 0.7352 0.35945 0.0
H953 H 0.15645 0.66922 0.27443 0.0
H954 H 0.20736 0.67017 0.42766 0.0
H955 H 0.18047 0.69218 0.41956 0.0
H956 H 0.22795 0.71805 0.41706 0.0
H957 H 0.11578 0.58905 0.32399 0.0
H958 H 0.10725 0.61203 0.28216 0.0
H959 H 0.08734 0.60939 0.31595 0.0
C960 C 0.6081 0.92015 0.61314 0.0
C961 C 0.60124 0.9304 0.57549 0.0
C962 C 0.62936 0.90037 0.6344 0.0
C963 C 0.64699 0.88605 0.62118 0.0
C964 C 0.63984 0.8958 0.58309 0.0
C965 C 0.61924 0.91646 0.56263 0.0
C966 C 0.6334 0.89514 0.6731 0.0
C967 C 0.65281 0.88294 0.56168 0.0
C968 C 0.73203 0.85586 0.67799 0.0
C969 C 0.71673 0.81819 0.69217 0.0
C970 C 0.71151 0.87626 0.65638 0.0
C971 C 0.67107 0.86241 0.64573 0.0
C972 C 0.65537 0.82456 0.66027 0.0
C973 C 0.67659 0.8046 0.68104 0.0
C974 C 0.73463 0.91463 0.64444 0.0
C975 C 0.6141 0.80338 0.65435 0.0
H976 H 0.59678 0.9284 0.62737 0.0
H977 H 0.61674 0.92107 0.53479 0.0
H978 H 0.61661 0.86624 0.68037 0.0
H979 H 0.66263 0.90326 0.68712 0.0
H980 H 0.62433 0.91077 0.68196 0.0
H981 H 0.66599 0.90472 0.54251 0.0
H982 H 0.67243 0.87329 0.57777 0.0
H983 H 0.62848 0.86044 0.54666 0.0
H984 H 0.76186 0.87051 0.68335 0.0
H985 H 0.66026 0.77677 0.68938 0.0
H986 H 0.72561 0.93211 0.64999 0.0
H987 H 0.73064 0.91664 0.6158 0.0
H988 H 0.76449 0.92486 0.65707 0.0
H989 H 0.60664 0.80391 0.67779 0.0
H990 H 0.60382 0.77484 0.65069 0.0
H991 H 0.59986 0.81461 0.63144 0.0
C992 C 0.46145 0.40877 0.96397 0.0
C993 C 0.49791 0.43003 0.96092 0.0
C994 C 0.43253 0.3936 0.93503 0.0
C995 C 0.44062 0.39871 0.90268 0.0
C996 C 0.47674 0.42308 0.89863 0.0
C997 C 0.50539 0.43828 0.92813 0.0
C998 C 0.39379 0.36976 0.93967 0.0
C999 C 0.48533 0.4312 0.86362 0.0
C1000 C 0.39125 0.30967 0.86453 0.0
C1001 C 0.36209 0.31156 0.83861 0.0
C1002 C 0.4181 0.33896 0.88395 0.0
C1003 C 0.41507 0.37065 0.8779 0.0
C1004 C 0.38586 0.37302 0.85131 0.0
C1005 C 0.35973 0.34328 0.83157 0.0
C1006 C 0.44921 0.33548 0.91168 0.0
C1007 C 0.38101 0.40591 0.84425 0.0
H1008 H 0.45556 0.40385 0.98919 0.0
H1009 H 0.53332 0.45653 0.92553 0.0
H1010 H 0.37388 0.37544 0.9179 0.0
H1011 H 0.386 0.34119 0.93938 0.0
H1012 H 0.39124 0.37346 0.96467 0.0
H1013 H 0.51161 0.45656 0.86291 0.0
H1014 H 0.48789 0.40891 0.85815 0.0
H1015 H 0.46268 0.43334 0.84261 0.0
H1016 H 0.39343 0.28531 0.86936 0.0
H1017 H 0.33717 0.34462 0.81119 0.0
H1018 H 0.44775 0.33751 0.93782 0.0
H1019 H 0.47625 0.35756 0.90753 0.0
H1020 H 0.44826 0.30952 0.91174 0.0
H1021 H 0.35989 0.40119 0.85707 0.0
H1022 H 0.37067 0.41077 0.81584 0.0
H1023 H 0.40692 0.43042 0.85416 0.0
C1024 C 0.84043 0.80915 0.34841 0.0
C1025 C 0.85819 0.79998 0.33247 0.0
C1026 C 0.8609 0.83716 0.37071 0.0
C1027 C 0.89984 0.85537 0.37728 0.0
C1028 C 0.91765 0.84619 0.3606 0.0
C1029 C 0.89636 0.8186 0.33799 0.0
C1030 C 0.84058 0.84716 0.38644 0.0
C1031 C 0.95923 0.86476 0.36736 0.0
C1032 C 0.97199 0.94156 0.41755 0.0
C1033 C 0.98504 0.92803 0.45027 0.0
C1034 C 0.94049 0.91839 0.39431 0.0
C1035 C 0.92298 0.88125 0.40422 0.0
C1036 C 0.934 0.8683 0.43861 0.0
C1037 C 0.9652 0.89209 0.46143 0.0
C1038 C 0.92704 0.93316 0.35876 0.0
C1039 C 0.91426 0.82903 0.4505 0.0
H1040 H 0.81061 0.79442 0.3434 0.0
H1041 H 0.90948 0.8113 0.32487 0.0
H1042 H 0.85755 0.86055 0.41113 0.0
H1043 H 0.83248 0.86598 0.36756 0.0
H1044 H 0.81488 0.82306 0.39137 0.0
H1045 H 0.96845 0.85361 0.35281 0.0
H1046 H 0.97008 0.89387 0.35961 0.0
H1047 H 0.97174 0.862 0.39561 0.0
H1048 H 0.9866 0.97002 0.41008 0.0
H1049 H 0.97455 0.88256 0.48772 0.0
H1050 H 0.89641 0.91982 0.35123 0.0
H1051 H 0.93595 0.92766 0.33909 0.0
H1052 H 0.93821 0.96266 0.35795 0.0
H1053 H 0.88414 0.81916 0.44441 0.0
H1054 H 0.92429 0.82403 0.47894 0.0
H1055 H 0.91849 0.81309 0.43628 0.0
C1056 C 0.46438 0.54427 0.55491 0.0
C1057 C 0.49113 0.56247 0.53522 0.0
C1058 C 0.45298 0.56259 0.5696 0.0
C1059 C 0.46841 0.60077 0.56513 0.0
C1060 C 0.49564 0.6193 0.54541 0.0
C1061 C 0.50666 0.60028 0.53116 0.0
C1062 C 0.42477 0.54087 0.59078 0.0
C1063 C 0.51403 0.65969 0.53999 0.0
C1064 C 0.41436 0.64524 0.57723 0.0
C1065 C 0.43233 0.65854 0.6109 0.0
C1066 C 0.42574 0.62704 0.56236 0.0
C1067 C 0.45622 0.62106 0.58097 0.0
C1068 C 0.47464 0.63452 0.61485 0.0
C1069 C 0.4627 0.65265 0.62909 0.0
C1070 C 0.40495 0.61421 0.5262 0.0
C1071 C 0.50685 0.62913 0.6368 0.0
H1072 H 0.45281 0.51538 0.55965 0.0
H1073 H 0.52827 0.6153 0.51735 0.0
H1074 H 0.43627 0.55065 0.61734 0.0
H1075 H 0.40007 0.54445 0.57859 0.0
H1076 H 0.41603 0.51176 0.59309 0.0
H1077 H 0.53335 0.67042 0.52297 0.0
H1078 H 0.49287 0.66847 0.52818 0.0
H1079 H 0.52966 0.6717 0.56553 0.0
H1080 H 0.39138 0.64949 0.56183 0.0
H1081 H 0.47713 0.6617 0.65515 0.0
H1082 H 0.39261 0.58459 0.52713 0.0
H1083 H 0.42426 0.62603 0.50905 0.0
H1084 H 0.3826 0.62142 0.51431 0.0
H1085 H 0.49659 0.60043 0.64629 0.0
H1086 H 0.52202 0.64568 0.65974 0.0
H1087 H 0.52645 0.63587 0.62118 0.0
C1088 C 0.61779 0.05771 0.92306 0.0
C1089 C 0.62268 0.0684 0.9552 0.0
C1090 C 0.64578 0.07624 0.90511 0.0
C1091 C 0.67999 0.10518 0.92047 0.0
C1092 C 0.68529 0.1153 0.95352 0.0
C1093 C 0.65625 0.09714 0.97026 0.0
C1094 C 0.63833 0.06551 0.8693 0.0
C1095 C 0.72153 0.14549 0.97104 0.0
C1096 C 0.75951 0.13643 0.87903 0.0
C1097 C 0.75738 0.16493 0.85633 0.0
C1098 C 0.73517 0.11715 0.90108 0.0
C1099 C 0.70863 0.12702 0.90033 0.0
C1100 C 0.70798 0.15703 0.87866 0.0
C1101 C 0.73237 0.17556 0.85711 0.0
C1102 C 0.73676 0.0854 0.92404 0.0
C1103 C 0.68021 0.16854 0.87676 0.0
H1104 H 0.59172 0.03526 0.91167 0.0
H1105 H 0.66003 0.10486 0.99546 0.0
H1106 H 0.64043 0.0884 0.8498 0.0
H1107 H 0.65935 0.0588 0.86864 0.0
H1108 H 0.61051 0.04206 0.86135 0.0
H1109 H 0.72236 0.14788 0.99801 0.0
H1110 H 0.74466 0.14115 0.97194 0.0
H1111 H 0.72619 0.17135 0.95576 0.0
H1112 H 0.77877 0.12815 0.87832 0.0
H1113 H 0.73105 0.19795 0.83979 0.0
H1114 H 0.71141 0.06025 0.91463 0.0
H1115 H 0.73772 0.08736 0.95116 0.0
H1116 H 0.76111 0.08334 0.92423 0.0
H1117 H 0.65185 0.14671 0.86684 0.0
H1118 H 0.68433 0.19328 0.85942 0.0
H1119 H 0.68205 0.17355 0.90309 0.0
C1120 C 0.10189 0.40051 0.07009 0.0
C1121 C 0.10671 0.4343 0.07793 0.0
C1122 C 0.12122 0.37883 0.09119 0.0
C1123 C 0.15152 0.38857 0.12378 0.0
C1124 C 0.15719 0.42334 0.13124 0.0
C1125 C 0.13574 0.44318 0.11069 0.0
C1126 C 0.10648 0.34311 0.07762 0.0
C1127 C 0.18818 0.44228 0.16165 0.0
C1128 C 0.20496 0.33516 0.207 0.0
C1129 C 0.22054 0.31877 0.19394 0.0
C1130 C 0.18348 0.35502 0.18649 0.0
C1131 C 0.17544 0.36431 0.14818 0.0
C1132 C 0.19212 0.34864 0.13497 0.0
C1133 C 0.21162 0.32712 0.15605 0.0
C1134 C 0.16795 0.36491 0.20795 0.0
C1135 C 0.19112 0.35536 0.09679 0.0
H1136 H 0.08086 0.38921 0.04659 0.0
H1137 H 0.14337 0.46783 0.12081 0.0
H1138 H 0.11349 0.32445 0.09789 0.0
H1139 H 0.07597 0.33016 0.06775 0.0
H1140 H 0.11792 0.34741 0.05525 0.0
H1141 H 0.17661 0.43775 0.18399 0.0
H1142 H 0.2089 0.43288 0.16959 0.0
H1143 H 0.20244 0.47174 0.15516 0.0
H1144 H 0.2086 0.33162 0.235 0.0
H1145 H 0.22125 0.31726 0.14151 0.0
H1146 H 0.1448 0.36977 0.19189 0.0
H1147 H 0.19022 0.38941 0.22152 0.0
H1148 H 0.15789 0.34323 0.22843 0.0
H1149 H 0.16874 0.33091 0.08321 0.0
H1150 H 0.2174 0.36054 0.09277 0.0
H1151 H 0.18656 0.37858 0.08469 0.0
C1152 C 0.63745 0.58371 0.94348 0.0
C1153 C 0.59882 0.56883 0.93548 0.0
C1154 C 0.65811 0.60664 0.91926 0.0
C1155 C 0.64009 0.6157 0.88594 0.0
C1156 C 0.60113 0.6011 0.87766 0.0
C1157 C 0.58097 0.57764 0.90232 0.0
C1158 C 0.6993 0.62056 0.92918 0.0
C1159 C 0.58066 0.61002 0.84255 0.0
C1160 C 0.7001 0.69695 0.83205 0.0
C1161 C 0.70375 0.68015 0.80904 0.0
C1162 C 0.6792 0.67648 0.85699 0.0
C1163 C 0.66178 0.63828 0.85915 0.0
C1164 C 0.66602 0.62141 0.83618 0.0
C1165 C 0.6865 0.64243 0.81137 0.0
C1166 C 0.67537 0.69571 0.88074 0.0
C1167 C 0.64911 0.58103 0.83789 0.0
H1168 H 0.65183 0.57716 0.96883 0.0
H1169 H 0.55126 0.56633 0.89563 0.0
H1170 H 0.70663 0.61074 0.91148 0.0
H1171 H 0.71413 0.65034 0.92616 0.0
H1172 H 0.70938 0.61192 0.95645 0.0
H1173 H 0.55105 0.59927 0.84112 0.0
H1174 H 0.59354 0.63958 0.83682 0.0
H1175 H 0.58253 0.59861 0.82191 0.0
H1176 H 0.71246 0.7259 0.8297 0.0
H1177 H 0.68924 0.62914 0.79373 0.0
H1178 H 0.68709 0.6894 0.9083 0.0
H1179 H 0.64573 0.68618 0.87783 0.0
H1180 H 0.6896 0.72533 0.87522 0.0
H1181 H 0.65971 0.57107 0.86425 0.0
H1182 H 0.65522 0.57207 0.81839 0.0
H1183 H 0.61873 0.56827 0.83333 0.0
C1184 C 0.68929 0.28582 0.19121 0.0
C1185 C 0.71646 0.30422 0.22007 0.0
C1186 C 0.6623 0.29555 0.17354 0.0
C1187 C 0.66423 0.32511 0.18434 0.0
C1188 C 0.69415 0.34629 0.21083 0.0
C1189 C 0.72025 0.33544 0.22852 0.0
C1190 C 0.63032 0.27267 0.14544 0.0
C1191 C 0.69725 0.3788 0.22212 0.0
C1192 C 0.62218 0.37943 0.12995 0.0
C1193 C 0.59827 0.3735 0.14962 0.0
C1194 C 0.64178 0.36093 0.13902 0.0
C1195 C 0.63576 0.33513 0.16739 0.0
C1196 C 0.60779 0.32544 0.18413 0.0
C1197 C 0.58961 0.34569 0.17543 0.0
C1198 C 0.67282 0.37312 0.12203 0.0
C1199 C 0.60033 0.29689 0.21382 0.0
H1200 H 0.68642 0.26136 0.18507 0.0
H1201 H 0.74151 0.34925 0.25101 0.0
H1202 H 0.60404 0.26156 0.15294 0.0
H1203 H 0.62846 0.28926 0.12063 0.0
H1204 H 0.63282 0.25 0.14077 0.0
H1205 H 0.72318 0.39284 0.24226 0.0
H1206 H 0.69627 0.39815 0.1994 0.0
H1207 H 0.67362 0.37049 0.23302 0.0
H1208 H 0.62858 0.40139 0.10993 0.0
H1209 H 0.57073 0.34142 0.19003 0.0
H1210 H 0.67356 0.34986 0.11633 0.0
H1211 H 0.69962 0.38928 0.14022 0.0
H1212 H 0.67044 0.39 0.09746 0.0
H1213 H 0.60152 0.27366 0.20862 0.0
H1214 H 0.57291 0.28728 0.21837 0.0
H1215 H 0.62176 0.30816 0.23804 0.0
C1216 C 0.94488 0.4189 0.44947 0.0
C1217 C 0.94301 0.45019 0.44822 0.0
C1218 C 0.91681 0.39063 0.42897 0.0
C1219 C 0.88471 0.3926 0.40875 0.0
C1220 C 0.88111 0.42277 0.40989 0.0
C1221 C 0.91093 0.45189 0.42883 0.0
C1222 C 0.92228 0.35941 0.42784 0.0
C1223 C 0.84611 0.42448 0.39075 0.0
C1224 C 0.84085 0.33979 0.32923 0.0
C1225 C 0.81544 0.30641 0.34144 0.0
C1226 C 0.86165 0.36904 0.3501 0.0
C1227 C 0.85703 0.36458 0.38406 0.0
C1228 C 0.82967 0.33148 0.39567 0.0
C1229 C 0.80919 0.30261 0.37414 0.0
C1230 C 0.8903 0.40398 0.33662 0.0
C1231 C 0.82342 0.32572 0.43147 0.0
H1232 H 0.96878 0.4168 0.46588 0.0
H1233 H 0.90893 0.47562 0.42892 0.0
H1234 H 0.89955 0.33385 0.43565 0.0
H1235 H 0.9216 0.35748 0.4008 0.0
H1236 H 0.94895 0.36214 0.4452 0.0
H1237 H 0.84529 0.44658 0.3991 0.0
H1238 H 0.84398 0.42886 0.36233 0.0
H1239 H 0.82158 0.39868 0.3952 0.0
H1240 H 0.84515 0.34282 0.3036 0.0
H1241 H 0.78931 0.27676 0.38344 0.0
H1242 H 0.91831 0.4087 0.35186 0.0
H1243 H 0.88742 0.42683 0.34 0.0
H1244 H 0.88816 0.40398 0.30862 0.0
H1245 H 0.84352 0.3182 0.45067 0.0
H1246 H 0.7952 0.30364 0.43248 0.0
H1247 H 0.82747 0.35052 0.43956 0.0
C1248 C 0.63502 0.5751 0.45266 0.0
C1249 C 0.60597 0.5796 0.45418 0.0
C1250 C 0.65748 0.59678 0.42925 0.0
C1251 C 0.65012 0.623 0.40569 0.0
C1252 C 0.62007 0.62689 0.40658 0.0
C1253 C 0.5989 0.6057 0.43117 0.0
C1254 C 0.68959 0.59205 0.43022 0.0
C1255 C 0.60995 0.65318 0.38122 0.0
C1256 C 0.72546 0.70235 0.36389 0.0
C1257 C 0.71858 0.68932 0.33221 0.0
C1258 C 0.70398 0.68093 0.3882 0.0
C1259 C 0.67366 0.64613 0.38013 0.0
C1260 C 0.66604 0.63344 0.34758 0.0
C1261 C 0.689 0.65473 0.32454 0.0
C1262 C 0.71432 0.69526 0.42294 0.0
C1263 C 0.63342 0.59737 0.33685 0.0
H1264 H 0.64076 0.5551 0.47049 0.0
H1265 H 0.57639 0.60921 0.43207 0.0
H1266 H 0.68571 0.58326 0.4049 0.0
H1267 H 0.71552 0.61811 0.43435 0.0
H1268 H 0.6929 0.57194 0.45119 0.0
H1269 H 0.58486 0.65189 0.38403 0.0
H1270 H 0.6331 0.68096 0.38524 0.0
H1271 H 0.60505 0.6476 0.35409 0.0
H1272 H 0.74845 0.72888 0.37019 0.0
H1273 H 0.68334 0.64451 0.30003 0.0
H1274 H 0.71917 0.67622 0.44435 0.0
H1275 H 0.69131 0.69762 0.42594 0.0
H1276 H 0.73951 0.72201 0.42598 0.0
H1277 H 0.63772 0.57559 0.35402 0.0
H1278 H 0.62899 0.59294 0.30943 0.0
H1279 H 0.60795 0.5951 0.33984 0.0
C1280 C 0.89618 0.32101 0.84091 0.0
C1281 C 0.86131 0.29221 0.84282 0.0
C1282 C 0.92092 0.33997 0.87044 0.0
C1283 C 0.91067 0.32901 0.90256 0.0
C1284 C 0.87728 0.29724 0.90529 0.0
C1285 C 0.85253 0.27963 0.87512 0.0
C1286 C 0.95636 0.37362 0.86649 0.0
C1287 C 0.86622 0.28357 0.93941 0.0
C1288 C 0.97852 0.38167 0.9819 0.0
C1289 C 0.96754 0.40735 0.9789 0.0
C1290 C 0.96022 0.35548 0.95742 0.0
C1291 C 0.92993 0.35483 0.93014 0.0
C1292 C 0.91805 0.38002 0.92817 0.0
C1293 C 0.9374 0.40629 0.95229 0.0
C1294 C 0.97408 0.32952 0.96007 0.0
C1295 C 0.88534 0.37979 0.90006 0.0
H1296 H 0.9031 0.33013 0.81589 0.0
H1297 H 0.82597 0.25646 0.87667 0.0
H1298 H 0.95368 0.39753 0.86672 0.0
H1299 H 0.97979 0.37481 0.88858 0.0
H1300 H 0.963 0.37537 0.84172 0.0
H1301 H 0.84451 0.25488 0.93907 0.0
H1302 H 0.89034 0.28649 0.96143 0.0
H1303 H 0.85522 0.2996 0.94428 0.0
H1304 H 1.00229 0.38305 1.0024 0.0
H1305 H 0.92903 0.42625 0.95028 0.0
H1306 H 0.9875 0.33629 0.93857 0.0
H1307 H 0.95084 0.30164 0.95727 0.0
H1308 H 0.99453 0.33048 0.9852 0.0
H1309 H 0.89065 0.38432 0.87401 0.0
H1310 H 0.87929 0.40077 0.90278 0.0
H1311 H 0.8604 0.35322 0.90099 0.0
C1312 C 0.87188 0.80554 0.17138 0.0
C1313 C 0.8534 0.81792 0.18295 0.0
C1314 C 0.89508 0.82729 0.14851 0.0
C1315 C 0.89992 0.86237 0.13637 0.0
C1316 C 0.881 0.87482 0.14767 0.0
C1317 C 0.85834 0.85271 0.17076 0.0
C1318 C 0.91455 0.81269 0.13736 0.0
C1319 C 0.88429 0.91145 0.13499 0.0
C1320 C 0.9834 0.93121 0.09845 0.0
C1321 C 0.96835 0.92691 0.06255 0.0
C1322 C 0.96162 0.91055 0.12273 0.0
C1323 C 0.92358 0.88544 0.11093 0.0
C1324 C 0.90811 0.88223 0.07454 0.0
C1325 C 0.93064 0.90247 0.05105 0.0
C1326 C 0.97952 0.91506 0.16112 0.0
C1327 C 0.86764 0.8571 0.06026 0.0
H1328 H 0.86853 0.77891 0.18045 0.0
H1329 H 0.84424 0.86282 0.17913 0.0
H1330 H 0.90544 0.81108 0.10866 0.0
H1331 H 0.94477 0.83119 0.14401 0.0
H1332 H 0.90911 0.78555 0.14989 0.0
H1333 H 0.86834 0.91754 0.14651 0.0
H1334 H 0.91364 0.93256 0.14151 0.0
H1335 H 0.87416 0.91305 0.10618 0.0
H1336 H 1.01245 0.94995 0.10765 0.0
H1337 H 0.91859 0.899 0.02338 0.0
H1338 H 0.97711 0.88907 0.17458 0.0
H1339 H 0.96504 0.92288 0.17276 0.0
H1340 H 1.00916 0.93569 0.16623 0.0
H1341 H 0.8614 0.82893 0.06898 0.0
H1342 H 0.85928 0.85945 0.03131 0.0
H1343 H 0.85054 0.86278 0.07047 0.0
C1344 C 0.88648 0.09359 0.96413 0.0
C1345 C 0.86024 0.09532 0.93427 0.0
C1346 C 0.89414 0.06517 0.97008 0.0
C1347 C 0.87305 0.03741 0.9466 0.0
C1348 C 0.84133 0.03564 0.92117 0.0
C1349 C 0.83428 0.06434 0.91633 0.0
C1350 C 0.92889 0.06873 0.99702 0.0
C1351 C 0.8189 0.00755 0.89468 0.0
C1352 C 0.93209 0.01164 0.92215 0.0
C1353 C 0.93366 0.98666 0.94958 0.0
C1354 C 0.9106 0.02735 0.91963 0.0
C1355 C 0.8887 0.01555 0.94391 0.0
C1356 C 0.88591 0.98579 0.96792 0.0
C1357 C 0.90772 0.97075 0.9695 0.0
C1358 C 0.91638 0.06021 0.89493 0.0
C1359 C 0.86516 0.97315 0.99586 0.0
H1360 H 0.90584 0.11753 0.97836 0.0
H1361 H 0.81343 0.06577 0.89358 0.0
H1362 H 0.92369 0.04319 0.01297 0.0
H1363 H 0.95032 0.07539 0.98366 0.0
H1364 H 0.94014 0.09019 0.01482 0.0
H1365 H 0.78921 0.99839 0.8902 0.0
H1366 H 0.82595 0.01971 0.86931 0.0
H1367 H 0.82354 0.98398 0.90232 0.0
H1368 H 0.95245 0.02343 0.90692 0.0
H1369 H 0.90935 0.95104 0.99066 0.0
H1370 H 0.92794 0.08373 0.9101 0.0
H1371 H 0.88976 0.05614 0.87671 0.0
H1372 H 0.93579 0.06655 0.87917 0.0
H1373 H 0.88523 0.98061 0.0216 0.0
H1374 H 0.84886 0.94335 0.99749 0.0
H1375 H 0.84662 0.98461 0.99169 0.0
C1376 C 0.73041 0.14921 0.71336 0.0
C1377 C 0.76592 0.15548 0.71587 0.0
C1378 C 0.7023 0.13772 0.68279 0.0
C1379 C 0.70815 0.12736 0.65579 0.0
C1380 C 0.74302 0.13045 0.6594 0.0
C1381 C 0.77201 0.14577 0.68892 0.0
C1382 C 0.66673 0.13764 0.67906 0.0
C1383 C 0.74946 0.117 0.63247 0.0
C1384 C 0.62082 0.0568 0.60142 0.0
C1385 C 0.61612 0.07596 0.56926 0.0
C1386 C 0.6509 0.07316 0.62941 0.0
C1387 C 0.67656 0.11005 0.62563 0.0
C1388 C 0.67116 0.13011 0.59369 0.0
C1389 C 0.64111 0.11268 0.56563 0.0
C1390 C 0.65554 0.0506 0.66283 0.0
C1391 C 0.69706 0.16985 0.58918 0.0
H1392 H 0.72507 0.1554 0.73464 0.0
H1393 H 0.79916 0.14971 0.69109 0.0
H1394 H 0.66051 0.15286 0.6544 0.0
H1395 H 0.6434 0.1098 0.67772 0.0
H1396 H 0.66806 0.14991 0.70105 0.0
H1397 H 0.77725 0.1191 0.64029 0.0
H1398 H 0.72829 0.08847 0.6283 0.0
H1399 H 0.74664 0.1326 0.60717 0.0
H1400 H 0.60147 0.02844 0.60446 0.0
H1401 H 0.63756 0.12758 0.5408 0.0
H1402 H 0.65229 0.05987 0.68416 0.0
H1403 H 0.68369 0.05361 0.67071 0.0
H1404 H 0.63505 0.02164 0.66034 0.0
H1405 H 0.69953 0.18399 0.61026 0.0
H1406 H 0.68767 0.182 0.56359 0.0
H1407 H 0.72503 0.1745 0.59123 0.0
C1408 C 0.66582 0.93162 0.43185 0.0
C1409 C 0.62934 0.92509 0.42118 0.0
C1410 C 0.67577 0.91085 0.42049 0.0
C1411 C 0.64853 0.8837 0.39757 0.0
C1412 C 0.61117 0.87534 0.38889 0.0
C1413 C 0.60195 0.89617 0.40104 0.0
C1414 C 0.71585 0.92014 0.43035 0.0
C1415 C 0.58167 0.84711 0.36381 0.0
C1416 C 0.68048 0.87573 0.32632 0.0
C1417 C 0.68209 0.84371 0.33715 0.0
C1418 C 0.66934 0.88881 0.34582 0.0
C1419 C 0.66001 0.86947 0.37715 0.0
C1420 C 0.66127 0.83698 0.38828 0.0
C1421 C 0.67234 0.82432 0.36797 0.0
C1422 C 0.66818 0.92364 0.3331 0.0
C1423 C 0.65168 0.81616 0.42182 0.0
H1424 H 0.68671 0.95389 0.4478 0.0
H1425 H 0.57376 0.89149 0.39272 0.0
H1426 H 0.71853 0.89541 0.43708 0.0
H1427 H 0.72803 0.93478 0.40781 0.0
H1428 H 0.73213 0.93745 0.45273 0.0
H1429 H 0.55345 0.84062 0.36358 0.0
H1430 H 0.5856 0.85705 0.33705 0.0
H1431 H 0.58376 0.82207 0.37051 0.0
H1432 H 0.6891 0.89128 0.30303 0.0
H1433 H 0.67379 0.7996 0.3763 0.0
H1434 H 0.68776 0.94408 0.35241 0.0
H1435 H 0.64018 0.91942 0.33022 0.0
H1436 H 0.67546 0.93467 0.30764 0.0
H1437 H 0.67115 0.83284 0.44415 0.0
H1438 H 0.65284 0.79069 0.4261 0.0
H1439 H 0.62358 0.80982 0.42169 0.0
C1440 C 0.78735 0.17785 0.39303 0.0
C1441 C 0.7629 0.16519 0.36085 0.0
C1442 C 0.81797 0.17201 0.40628 0.0
C1443 C 0.82493 0.15499 0.38589 0.0
C1444 C 0.80061 0.14267 0.35329 0.0
C1445 C 0.76883 0.14596 0.3423 0.0
C1446 C 0.84259 0.18362 0.442 0.0
C1447 C 0.80796 0.12579 0.32998 0.0
C1448 C 0.91264 0.15236 0.39841 0.0
C1449 C 0.90087 0.11632 0.41004 0.0
C1450 C 0.88922 0.16688 0.39302 0.0
C1451 C 0.854 0.14463 0.40012 0.0
C1452 C 0.84357 0.10903 0.41458 0.0
C1453 C 0.86719 0.09526 0.41923 0.0
C1454 C 0.90081 0.20472 0.37689 0.0
C1455 C 0.80603 0.0843 0.42198 0.0
H1456 H 0.783 0.19277 0.40746 0.0
H1457 H 0.74955 0.13506 0.3179 0.0
H1458 H 0.84144 0.15967 0.45939 0.0
H1459 H 0.87169 0.20142 0.44056 0.0
H1460 H 0.83435 0.19794 0.45391 0.0
H1461 H 0.7888 0.12209 0.30362 0.0
H1462 H 0.83666 0.14276 0.32703 0.0
H1463 H 0.80481 0.09912 0.34179 0.0
H1464 H 0.93911 0.16843 0.3919 0.0
H1465 H 0.85879 0.06748 0.42897 0.0
H1466 H 0.89382 0.21932 0.38982 0.0
H1467 H 0.88564 0.20381 0.34902 0.0
H1468 H 0.93089 0.22009 0.37844 0.0
H1469 H 0.79859 0.09845 0.43499 0.0
H1470 H 0.80485 0.05993 0.4386 0.0
H1471 H 0.78481 0.07545 0.39705 0.0
C1472 C 0.6686 0.14273 0.2371 0.0
C1473 C 0.65106 0.16118 0.23974 0.0
C1474 C 0.65453 0.12009 0.2099 0.0
C1475 C 0.62232 0.11615 0.18369 0.0
C1476 C 0.60437 0.13467 0.18614 0.0
C1477 C 0.61877 0.1567 0.21415 0.0
C1478 C 0.67466 0.10081 0.20903 0.0
C1479 C 0.57032 0.13182 0.15868 0.0
C1480 C 0.6061 0.08432 0.09536 0.0
C1481 C 0.58144 0.04743 0.09885 0.0
C1482 C 0.61961 0.10692 0.12262 0.0
C1483 C 0.60753 0.09264 0.15391 0.0
C1484 C 0.582 0.05549 0.15709 0.0
C1485 C 0.56967 0.03343 0.12984 0.0
C1486 C 0.64754 0.146 0.11824 0.0
C1487 C 0.56801 0.03881 0.18958 0.0
H1488 H 0.69358 0.14588 0.25615 0.0
H1489 H 0.60542 0.17139 0.21539 0.0
H1490 H 0.65552 0.07146 0.2082 0.0
H1491 H 0.68491 0.10995 0.18508 0.0
H1492 H 0.6985 0.10557 0.232 0.0
H1493 H 0.55896 0.14705 0.16456 0.0
H1494 H 0.577 0.14231 0.13297 0.0
H1495 H 0.54865 0.10324 0.15634 0.0
H1496 H 0.61565 0.09534 0.07169 0.0
H1497 H 0.55056 0.00499 0.13278 0.0
H1498 H 0.67386 0.15186 0.13817 0.0
H1499 H 0.63764 0.16332 0.12243 0.0
H1500 H 0.65319 0.1534 0.09202 0.0
H1501 H 0.59132 0.04091 0.21227 0.0
H1502 H 0.54675 0.01004 0.18734 0.0
H1503 H 0.55598 0.05357 0.19507 0.0
C1504 C 0.71278 0.86003 0.86214 0.0
C1505 C 0.75046 0.87196 0.87748 0.0
C1506 C 0.69327 0.8714 0.87326 0.0
C1507 C 0.71196 0.89507 0.90036 0.0
C1508 C 0.75025 0.9084 0.91478 0.0
C1509 C 0.76918 0.89682 0.90307 0.0
C1510 C 0.65236 0.85667 0.85738 0.0
C1511 C 0.77068 0.93287 0.94434 0.0
C1512 C 0.66957 0.94093 0.925 0.0
C1513 C 0.65785 0.91888 0.9542 0.0
C1514 C 0.68577 0.93271 0.906 0.0
C1515 C 0.69097 0.9022 0.91702 0.0
C1516 C 0.67854 0.87955 0.94604 0.0
C1517 C 0.66189 0.88804 0.96407 0.0
C1518 C 0.69849 0.95747 0.87511 0.0
C1519 C 0.68341 0.84664 0.95853 0.0
H1520 H 0.6984 0.84119 0.84195 0.0
H1521 H 0.79824 0.90587 0.91517 0.0
H1522 H 0.63699 0.83904 0.87723 0.0
H1523 H 0.64558 0.87892 0.84899 0.0
H1524 H 0.64255 0.84089 0.83463 0.0
H1525 H 0.76373 0.95492 0.93891 0.0
H1526 H 0.76273 0.91746 0.96864 0.0
H1527 H 0.80075 0.94462 0.94877 0.0
H1528 H 0.6667 0.96495 0.91737 0.0
H1529 H 0.65193 0.87036 0.98601 0.0
H1530 H 0.69352 0.94227 0.85368 0.0
H1531 H 0.72849 0.97579 0.88334 0.0
H1532 H 0.68462 0.97422 0.86497 0.0
H1533 H 0.67089 0.82879 0.9369 0.0
H1534 H 0.6707 0.83105 0.98061 0.0
H1535 H 0.71322 0.85472 0.96712 0.0
C1536 C 0.94499 0.93104 0.58643 0.0
C1537 C 0.97542 0.92888 0.58468 0.0
C1538 C 0.92361 0.90881 0.61041 0.0
C1539 C 0.93198 0.88278 0.63296 0.0
C1540 C 0.96224 0.87993 0.63083 0.0
C1541 C 0.98388 0.90329 0.60718 0.0
C1542 C 0.89257 0.9139 0.6122 0.0
C1543 C 0.97184 0.85222 0.65373 0.0
C1544 C 0.90367 0.85359 0.71938 0.0
C1545 C 0.87054 0.82101 0.71245 0.0
C1546 C 0.92372 0.87354 0.69398 0.0
C1547 C 0.91095 0.86065 0.66046 0.0
C1548 C 0.87774 0.82744 0.65332 0.0
C1549 C 0.85781 0.8082 0.67925 0.0
C1550 C 0.95828 0.90903 0.70288 0.0
C1551 C 0.86292 0.81249 0.61809 0.0
H1552 H 0.93829 0.95085 0.56941 0.0
H1553 H 1.00704 0.9011 0.6059 0.0
H1554 H 0.86632 0.88815 0.60863 0.0
H1555 H 0.89836 0.92239 0.63831 0.0
H1556 H 0.88873 0.93442 0.59216 0.0
H1557 H 0.99428 0.85148 0.64731 0.0
H1558 H 0.98071 0.85815 0.68146 0.0
H1559 H 0.94711 0.82517 0.65094 0.0
H1560 H 0.91377 0.86409 0.74477 0.0
H1561 H 0.83203 0.7835 0.67336 0.0
H1562 H 0.95496 0.93105 0.68514 0.0
H1563 H 0.98216 0.9088 0.69907 0.0
H1564 H 0.96482 0.91521 0.73019 0.0
H1565 H 0.85436 0.83033 0.59805 0.0
H1566 H 0.83881 0.78503 0.61753 0.0
H1567 H 0.88479 0.81165 0.61074 0.0
C1568 C 0.22175 0.84606 0.86462 0.0
C1569 C 0.20605 0.82759 0.83414 0.0
C1570 C 0.20166 0.85557 0.87733 0.0
C1571 C 0.16467 0.84633 0.85936 0.0
C1572 C 0.14812 0.82661 0.82924 0.0
C1573 C 0.16898 0.81751 0.81699 0.0
C1574 C 0.22034 0.87616 0.90976 0.0
C1575 C 0.10867 0.8159 0.80944 0.0
C1576 C 0.10801 0.85041 0.91112 0.0
C1577 C 0.11084 0.88453 0.90004 0.0
C1578 C 0.12409 0.83706 0.89718 0.0
C1579 C 0.14405 0.85843 0.87177 0.0
C1580 C 0.14653 0.8926 0.86002 0.0
C1581 C 0.12989 0.90517 0.87419 0.0
C1582 C 0.12039 0.80035 0.9103 0.0
C1583 C 0.16737 0.91624 0.83287 0.0
H1584 H 0.25002 0.85324 0.87863 0.0
H1585 H 0.15653 0.80336 0.7934 0.0
H1586 H 0.22149 0.90279 0.90343 0.0
H1587 H 0.20415 0.86158 0.92963 0.0
H1588 H 0.24888 0.88039 0.92134 0.0
H1589 H 0.09873 0.79774 0.78864 0.0
H1590 H 0.0902 0.80226 0.82744 0.0
H1591 H 0.10638 0.8403 0.79726 0.0
H1592 H 0.09377 0.83424 0.9313 0.0
H1593 H 0.13166 0.93119 0.86479 0.0
H1594 H 0.14783 0.80313 0.92504 0.0
H1595 H 0.11034 0.78385 0.88809 0.0
H1596 H 0.10116 0.78573 0.92761 0.0
H1597 H 0.19698 0.9237 0.84316 0.0
H1598 H 0.16518 0.94125 0.82514 0.0
H1599 H 0.15676 0.9014 0.80928 0.0
C1600 C 0.94303 0.40902 0.57417 0.0
C1601 C 0.9809 0.43131 0.58681 0.0
C1602 C 0.9215 0.38359 0.5966 0.0
C1603 C 0.93858 0.38006 0.6323 0.0
C1604 C 0.97699 0.40267 0.64509 0.0
C1605 C 0.99773 0.42831 0.62211 0.0
C1606 C 0.88063 0.36025 0.58205 0.0
C1607 C 0.99625 0.39936 0.68287 0.0
C1608 C 0.87795 0.33404 0.69632 0.0
C1609 C 0.87502 0.2999 0.70175 0.0
C1610 C 0.89884 0.36057 0.67398 0.0
C1611 C 0.91635 0.35228 0.65611 0.0
C1612 C 0.91268 0.31742 0.66103 0.0
C1613 C 0.89248 0.29176 0.68431 0.0
C1614 C 0.90269 0.39759 0.66995 0.0
C1615 C 0.93013 0.30727 0.64177 0.0
H1616 H 0.93032 0.41145 0.54665 0.0
H1617 H 1.02719 0.44543 0.63152 0.0
H1618 H 0.87355 0.33153 0.58616 0.0
H1619 H 0.86472 0.3637 0.59604 0.0
H1620 H 0.87158 0.36667 0.55374 0.0
H1621 H 1.02609 0.41941 0.68877 0.0
H1622 H 0.98311 0.40293 0.69991 0.0
H1623 H 0.9934 0.37206 0.68959 0.0
H1624 H 0.86491 0.3403 0.7105 0.0
H1625 H 0.89007 0.26522 0.68873 0.0
H1626 H 0.89159 0.40422 0.64229 0.0
H1627 H 0.9323 0.41796 0.6773 0.0
H1628 H 0.88799 0.39985 0.68628 0.0
H1629 H 0.91971 0.31112 0.61324 0.0
H1630 H 0.92427 0.27891 0.64824 0.0
H1631 H 0.96048 0.32505 0.64821 0.0
C1632 C 0.43216 0.06277 0.44251 0.0
C1633 C 0.46961 0.0709 0.44382 0.0
C1634 C 0.41122 0.08286 0.42133 0.0
C1635 C 0.42498 0.11591 0.39813 0.0
C1636 C 0.46293 0.1247 0.39976 0.0
C1637 C 0.48278 0.1035 0.42038 0.0
C1638 C 0.37223 0.06741 0.42368 0.0
C1639 C 0.48459 0.15893 0.38002 0.0
C1640 C 0.36159 0.15886 0.31588 0.0
C1641 C 0.35666 0.18485 0.32824 0.0
C1642 C 0.38199 0.13811 0.33645 0.0
C1643 C 0.40131 0.13983 0.37391 0.0
C1644 C 0.39647 0.1659 0.38666 0.0
C1645 C 0.37596 0.18633 0.36542 0.0
C1646 C 0.38241 0.11293 0.31687 0.0
C1647 C 0.41335 0.17273 0.42468 0.0
H1648 H 0.41773 0.039 0.45831 0.0
H1649 H 0.5106 0.11384 0.41829 0.0
H1650 H 0.37025 0.08657 0.43572 0.0
H1651 H 0.35348 0.06363 0.39708 0.0
H1652 H 0.36261 0.04126 0.4393 0.0
H1653 H 0.51004 0.16082 0.37744 0.0
H1654 H 0.46752 0.16136 0.35367 0.0
H1655 H 0.4926 0.18207 0.39415 0.0
H1656 H 0.34899 0.15422 0.28848 0.0
H1657 H 0.37508 0.2043 0.37924 0.0
H1658 H 0.37315 0.08595 0.33101 0.0
H1659 H 0.41104 0.12293 0.31546 0.0
H1660 H 0.36454 0.11027 0.28992 0.0
H1661 H 0.3942 0.15125 0.44002 0.0
H1662 H 0.41816 0.19896 0.43008 0.0
H1663 H 0.43989 0.17217 0.43382 0.0
C1664 C 0.56791 0.57879 0.09335 0.0
C1665 C 0.57772 0.57461 0.06583 0.0
C1666 C 0.59535 0.59804 0.12163 0.0
C1667 C 0.63292 0.61259 0.12215 0.0
C1668 C 0.64261 0.60477 0.09645 0.0
C1669 C 0.61498 0.58741 0.06766 0.0
C1670 C 0.58435 0.60418 0.15014 0.0
C1671 C 0.68217 0.61603 0.09862 0.0
C1672 C 0.69503 0.70665 0.15068 0.0
C1673 C 0.70902 0.70026 0.18595 0.0
C1674 C 0.67066 0.67802 0.1295 0.0
C1675 C 0.66125 0.64243 0.14402 0.0
C1676 C 0.67714 0.63603 0.17927 0.0
C1677 C 0.69993 0.6651 0.20018 0.0
C1678 C 0.65442 0.68592 0.09178 0.0
C1679 C 0.67016 0.59899 0.19548 0.0
H1680 H 0.53903 0.56774 0.09242 0.0
H1681 H 0.62269 0.58337 0.04682 0.0
H1682 H 0.59603 0.59376 0.17564 0.0
H1683 H 0.59582 0.63342 0.15158 0.0
H1684 H 0.55392 0.59071 0.14599 0.0
H1685 H 0.68375 0.59924 0.08292 0.0
H1686 H 0.69629 0.64442 0.08844 0.0
H1687 H 0.69741 0.61389 0.12606 0.0
H1688 H 0.70238 0.73395 0.13983 0.0
H1689 H 0.71041 0.66011 0.22774 0.0
H1690 H 0.62388 0.66945 0.08524 0.0
H1691 H 0.66473 0.67888 0.07456 0.0
H1692 H 0.66179 0.7147 0.08576 0.0
H1693 H 0.65038 0.58909 0.21181 0.0
H1694 H 0.69618 0.60021 0.21303 0.0
H1695 H 0.65899 0.57932 0.17583 0.0
C1696 C 0.23102 0.16187 0.6973 0.0
C1697 C 0.22201 0.18931 0.69206 0.0
C1698 C 0.20722 0.13058 0.67943 0.0
C1699 C 0.17364 0.127 0.65637 0.0
C1700 C 0.16363 0.15399 0.65271 0.0
C1701 C 0.1883 0.18512 0.67033 0.0
C1702 C 0.21896 0.10248 0.68458 0.0
C1703 C 0.12733 0.15062 0.62934 0.0
C1704 C 0.12799 0.08941 0.57036 0.0
C1705 C 0.09265 0.06568 0.57536 0.0
C1706 C 0.15736 0.10633 0.5984 0.0
C1707 C 0.15086 0.09842 0.63195 0.0
C1708 C 0.11685 0.06982 0.6378 0.0
C1709 C 0.08737 0.05437 0.60902 0.0
C1710 C 0.1938 0.13585 0.59139 0.0
C1711 C 0.1107 0.05806 0.67397 0.0
H1712 H 0.25694 0.16515 0.71471 0.0
H1713 H 0.18104 0.20606 0.66745 0.0
H1714 H 0.19524 0.07559 0.67752 0.0
H1715 H 0.23828 0.11069 0.66816 0.0
H1716 H 0.2341 0.10043 0.7121 0.0
H1717 H 0.12403 0.17413 0.62973 0.0
H1718 H 0.12521 0.14796 0.60205 0.0
H1719 H 0.10402 0.12619 0.6378 0.0
H1720 H 0.13209 0.09662 0.54418 0.0
H1721 H 0.06035 0.03405 0.61278 0.0
H1722 H 0.21702 0.13325 0.6108 0.0
H1723 H 0.19713 0.16235 0.59381 0.0
H1724 H 0.1957 0.13554 0.56486 0.0
H1725 H 0.13655 0.06134 0.69355 0.0
H1726 H 0.08892 0.02952 0.67548 0.0
H1727 H 0.10161 0.07482 0.68077 0.0
C1728 C 0.65983 0.38067 0.41095 0.0
C1729 C 0.64225 0.34262 0.41185 0.0
C1730 C 0.64902 0.39932 0.4258 0.0
C1731 C 0.61907 0.38035 0.44211 0.0
C1732 C 0.60094 0.3421 0.44297 0.0
C1733 C 0.61266 0.32407 0.42838 0.0
C1734 C 0.66974 0.43983 0.42369 0.0
C1735 C 0.56839 0.31984 0.45896 0.0
C1736 C 0.6083 0.42961 0.50478 0.0
C1737 C 0.58183 0.43962 0.48337 0.0
C1738 C 0.61997 0.41005 0.49209 0.0
C1739 C 0.60595 0.40043 0.45675 0.0
C1740 C 0.57926 0.41046 0.4352 0.0
C1741 C 0.56773 0.42937 0.44852 0.0
C1742 C 0.64752 0.39952 0.51672 0.0
C1743 C 0.56251 0.40107 0.39765 0.0
H1744 H 0.68207 0.39651 0.39808 0.0
H1745 H 0.59837 0.29503 0.43042 0.0
H1746 H 0.65078 0.45043 0.40804 0.0
H1747 H 0.68035 0.4496 0.45017 0.0
H1748 H 0.69332 0.45107 0.41171 0.0
H1749 H 0.55956 0.2907 0.46133 0.0
H1750 H 0.57508 0.3286 0.48518 0.0
H1751 H 0.54478 0.32382 0.44253 0.0
H1752 H 0.61976 0.43675 0.53162 0.0
H1753 H 0.54729 0.43634 0.43098 0.0
H1754 H 0.6735 0.41407 0.50801 0.0
H1755 H 0.63721 0.37036 0.51635 0.0
H1756 H 0.65327 0.40567 0.54382 0.0
H1757 H 0.5845 0.41349 0.38343 0.0
H1758 H 0.54187 0.41025 0.38404 0.0
H1759 H 0.54886 0.37155 0.39627 0.0
C1760 C 0.42723 0.94899 0.06153 0.0
C1761 C 0.44977 0.93546 0.06028 0.0
C1762 C 0.40092 0.93061 0.08126 0.0
C1763 C 0.3973 0.89806 0.10042 0.0
C1764 C 0.41914 0.88366 0.09842 0.0
C1765 C 0.44505 0.90249 0.07821 0.0
C1766 C 0.37807 0.94678 0.08265 0.0
C1767 C 0.41622 0.84914 0.1188 0.0
C1768 C 0.36522 0.87226 0.18332 0.0
C1769 C 0.32881 0.84483 0.17284 0.0
C1770 C 0.38746 0.89038 0.15972 0.0
C1771 C 0.37297 0.88062 0.12482 0.0
C1772 C 0.33584 0.85371 0.11375 0.0
C1773 C 0.31404 0.83623 0.13792 0.0
C1774 C 0.4268 0.91928 0.1724 0.0
C1775 C 0.31955 0.84268 0.07672 0.0
H1776 H 0.43052 0.97436 0.04754 0.0
H1777 H 0.46243 0.89193 0.07742 0.0
H1778 H 0.34836 0.92645 0.07728 0.0
H1779 H 0.3861 0.95552 0.10918 0.0
H1780 H 0.38174 0.97038 0.06366 0.0
H1781 H 0.43335 0.84033 0.11263 0.0
H1782 H 0.42534 0.85289 0.14715 0.0
H1783 H 0.3871 0.82738 0.1133 0.0
H1784 H 0.37657 0.87934 0.2102 0.0
H1785 H 0.28585 0.81507 0.12972 0.0
H1786 H 0.43194 0.94469 0.15603 0.0
H1787 H 0.44614 0.91113 0.17002 0.0
H1788 H 0.43329 0.92462 0.2 0.0
H1789 H 0.32312 0.86653 0.0582 0.0
H1790 H 0.28971 0.82262 0.07184 0.0
H1791 H 0.33437 0.83091 0.07103 0.0
C1792 C 0.97087 0.58868 0.90965 0.0
C1793 C 0.97005 0.57049 0.94486 0.0
C1794 C 0.95058 0.6095 0.8884 0.0
C1795 C 0.92458 0.61559 0.89867 0.0
C1796 C 0.92364 0.59745 0.93426 0.0
C1797 C 0.94458 0.57707 0.95499 0.0
C1798 C 0.95864 0.62668 0.85359 0.0
C1799 C 0.89932 0.59886 0.95226 0.0
C1800 C 0.88335 0.69317 0.86164 0.0
C1801 C 0.85528 0.68499 0.8281 0.0
C1802 C 0.90432 0.67295 0.88275 0.0
C1803 C 0.90057 0.63962 0.87407 0.0
C1804 C 0.87199 0.63092 0.84036 0.0
C1805 C 0.85185 0.65202 0.81964 0.0
C1806 C 0.93192 0.68887 0.91599 0.0
C1807 C 0.86045 0.59717 0.82483 0.0
H1808 H 0.98865 0.58698 0.89759 0.0
H1809 H 0.94031 0.56572 0.98073 0.0
H1810 H 0.93418 0.61215 0.83251 0.0
H1811 H 0.96439 0.65499 0.85069 0.0
H1812 H 0.98249 0.62618 0.85 0.0
H1813 H 0.91686 0.61905 0.97212 0.0
H1814 H 0.87868 0.60618 0.93391 0.0
H1815 H 0.88459 0.57249 0.96616 0.0
H1816 H 0.88981 0.71697 0.87251 0.0
H1817 H 0.83194 0.64134 0.79543 0.0
H1818 H 0.95442 0.68186 0.92327 0.0
H1819 H 0.91759 0.67831 0.93734 0.0
H1820 H 0.94427 0.71859 0.91372 0.0
H1821 H 0.87135 0.60451 0.80143 0.0
H1822 H 0.82988 0.58183 0.81602 0.0
H1823 H 0.87041 0.57947 0.8434 0.0
C1824 C 0.48404 0.407 0.11236 0.0
C1825 C 0.47921 0.43607 0.09406 0.0
C1826 C 0.46272 0.38365 0.13608 0.0
C1827 C 0.43621 0.38983 0.14214 0.0
C1828 C 0.43159 0.41953 0.12388 0.0
C1829 C 0.4527 0.44186 0.09976 0.0
C1830 C 0.46816 0.352 0.15421 0.0
C1831 C 0.40449 0.42791 0.12995 0.0
C1832 C 0.3581 0.31599 0.18368 0.0
C1833 C 0.37228 0.32456 0.21861 0.0
C1834 C 0.37886 0.33629 0.15864 0.0
C1835 C 0.41446 0.36634 0.16859 0.0
C1836 C 0.42889 0.37487 0.20389 0.0
C1837 C 0.4078 0.35394 0.22829 0.0
C1838 C 0.36231 0.32605 0.12137 0.0
C1839 C 0.46636 0.4068 0.21582 0.0
H1840 H 0.50341 0.40167 0.10705 0.0
H1841 H 0.4486 0.46412 0.08537 0.0
H1842 H 0.47694 0.35393 0.18286 0.0
H1843 H 0.44163 0.32668 0.14849 0.0
H1844 H 0.48917 0.35035 0.14606 0.0
H1845 H 0.40417 0.45195 0.11374 0.0
H1846 H 0.37626 0.40467 0.12396 0.0
H1847 H 0.41161 0.4327 0.15781 0.0
H1848 H 0.33044 0.2943 0.1756 0.0
H1849 H 0.41904 0.3611 0.25514 0.0
H1850 H 0.38189 0.3234 0.11187 0.0
H1851 H 0.35718 0.34753 0.10449 0.0
H1852 H 0.33584 0.30038 0.11832 0.0
H1853 H 0.48785 0.4043 0.20962 0.0
H1854 H 0.47393 0.40961 0.24427 0.0
H1855 H 0.46664 0.43182 0.20166 0.0
C1856 C 0.46092 0.6283 0.82392 0.0
C1857 C 0.47405 0.62162 0.85933 0.0
C1858 C 0.4436 0.64929 0.81342 0.0
C1859 C 0.43989 0.6632 0.83935 0.0
C1860 C 0.45763 0.66075 0.87465 0.0
C1861 C 0.47535 0.6403 0.88429 0.0
C1862 C 0.42546 0.65278 0.77524 0.0
C1863 C 0.45351 0.67528 0.90259 0.0
C1864 C 0.4019 0.72538 0.80446 0.0
C1865 C 0.36416 0.70083 0.79726 0.0
C1866 C 0.42741 0.71368 0.82002 0.0
C1867 C 0.41422 0.67691 0.82974 0.0
C1868 C 0.37603 0.65254 0.8262 0.0
C1869 C 0.3509 0.66486 0.80883 0.0
C1870 C 0.4679 0.73984 0.82245 0.0
C1871 C 0.3618 0.61326 0.83823 0.0
H1872 H 0.46028 0.61377 0.80503 0.0
H1873 H 0.48543 0.63491 0.91188 0.0
H1874 H 0.39511 0.63539 0.77075 0.0
H1875 H 0.43095 0.68084 0.76713 0.0
H1876 H 0.43521 0.64458 0.75838 0.0
H1877 H 0.47282 0.67492 0.92818 0.0
H1878 H 0.45825 0.70317 0.89509 0.0
H1879 H 0.42488 0.65862 0.90578 0.0
H1880 H 0.41165 0.75331 0.79525 0.0
H1881 H 0.32143 0.64647 0.803 0.0
H1882 H 0.47703 0.73338 0.80365 0.0
H1883 H 0.48496 0.73749 0.84881 0.0
H1884 H 0.47349 0.76815 0.81645 0.0
H1885 H 0.36579 0.59973 0.8211 0.0
H1886 H 0.33197 0.59938 0.83758 0.0
H1887 H 0.37747 0.61017 0.86517 0.0
C1888 C 0.16513 0.56196 0.5754 0.0
C1889 C 0.12834 0.55038 0.574 0.0
C1890 C 0.19398 0.59147 0.5945 0.0
C1891 C 0.18537 0.61003 0.61154 0.0
C1892 C 0.14808 0.59813 0.60999 0.0
C1893 C 0.12024 0.56766 0.59227 0.0
C1894 C 0.23347 0.60245 0.59687 0.0
C1895 C 0.13741 0.61746 0.62706 0.0
C1896 C 0.24605 0.6629 0.6908 0.0
C1897 C 0.25871 0.6982 0.67608 0.0
C1898 C 0.22494 0.63384 0.66966 0.0
C1899 C 0.21487 0.64039 0.63307 0.0
C1900 C 0.22893 0.67621 0.61805 0.0
C1901 C 0.25144 0.70485 0.63988 0.0
C1902 C 0.21167 0.59611 0.68662 0.0
C1903 C 0.21777 0.68436 0.5793 0.0
H1904 H 0.17125 0.54819 0.56135 0.0
H1905 H 0.0921 0.557 0.59313 0.0
H1906 H 0.24892 0.6315 0.58927 0.0
H1907 H 0.24728 0.59806 0.62428 0.0
H1908 H 0.23543 0.58694 0.58008 0.0
H1909 H 0.10717 0.60759 0.61934 0.0
H1910 H 0.14603 0.61352 0.65581 0.0
H1911 H 0.15168 0.64677 0.61996 0.0
H1912 H 0.25222 0.65803 0.71894 0.0
H1913 H 0.26129 0.73236 0.62878 0.0
H1914 H 0.21488 0.57931 0.6725 0.0
H1915 H 0.1819 0.58356 0.68547 0.0
H1916 H 0.22689 0.59573 0.71439 0.0
H1917 H 0.21993 0.66735 0.5645 0.0
H1918 H 0.2349 0.71306 0.5714 0.0
H1919 H 0.18847 0.67814 0.57178 0.0
C1920 C 0.3828 0.30905 0.68486 0.0
C1921 C 0.35596 0.31609 0.68801 0.0
C1922 C 0.40568 0.33034 0.66174 0.0
C1923 C 0.40139 0.35915 0.64043 0.0
C1924 C 0.37399 0.36608 0.64318 0.0
C1925 C 0.35201 0.34483 0.66703 0.0
C1926 C 0.43479 0.32214 0.66037 0.0
C1927 C 0.36751 0.39572 0.62053 0.0
C1928 C 0.47938 0.4347 0.59932 0.0
C1929 C 0.469 0.4231 0.56592 0.0
C1930 C 0.45811 0.41403 0.62393 0.0
C1931 C 0.42488 0.38138 0.61475 0.0
C1932 C 0.41403 0.36997 0.5808 0.0
C1933 C 0.4364 0.39052 0.55717 0.0
C1934 C 0.47135 0.42708 0.65989 0.0
C1935 C 0.37837 0.3362 0.56916 0.0
H1936 H 0.3864 0.28714 0.70093 0.0
H1937 H 0.33135 0.35059 0.66895 0.0
H1938 H 0.42947 0.31487 0.63385 0.0
H1939 H 0.46235 0.3464 0.66588 0.0
H1940 H 0.43561 0.29974 0.67938 0.0
H1941 H 0.34496 0.39755 0.62545 0.0
H1942 H 0.39308 0.42196 0.62522 0.0
H1943 H 0.36035 0.39108 0.59263 0.0
H1944 H 0.50443 0.45982 0.60636 0.0
H1945 H 0.42779 0.38143 0.53136 0.0
H1946 H 0.47399 0.40603 0.67987 0.0
H1947 H 0.45085 0.43223 0.66462 0.0
H1948 H 0.49839 0.45213 0.66354 0.0
H1949 H 0.37928 0.31253 0.58556 0.0
H1950 H 0.37283 0.33185 0.54144 0.0
H1951 H 0.35494 0.33759 0.57254 0.0
C1952 C 0.25089 0.68525 0.18485 0.0
C1953 C 0.23538 0.70275 0.19331 0.0
C1954 C 0.23057 0.66018 0.1591 0.0
C1955 C 0.19472 0.65414 0.13989 0.0
C1956 C 0.17928 0.67235 0.14794 0.0
C1957 C 0.19924 0.69527 0.17546 0.0
C1958 C 0.24712 0.63965 0.15292 0.0
C1959 C 0.14183 0.66792 0.12726 0.0
C1960 C 0.15325 0.61363 0.05159 0.0
C1961 C 0.12693 0.57874 0.05978 0.0
C1962 C 0.17608 0.63843 0.07752 0.0
C1963 C 0.17264 0.62772 0.11237 0.0
C1964 C 0.14693 0.59192 0.12074 0.0
C1965 C 0.12434 0.56796 0.09428 0.0
C1966 C 0.20275 0.6764 0.06736 0.0
C1967 C 0.14262 0.57902 0.1575 0.0
H1968 H 0.27864 0.6905 0.19899 0.0
H1969 H 0.18672 0.70784 0.18257 0.0
H1970 H 0.22852 0.61033 0.15642 0.0
H1971 H 0.2499 0.64544 0.12573 0.0
H1972 H 0.27469 0.64644 0.17095 0.0
H1973 H 0.13531 0.68654 0.13465 0.0
H1974 H 0.14066 0.67293 0.09897 0.0
H1975 H 0.1201 0.63997 0.13144 0.0
H1976 H 0.15514 0.62182 0.02477 0.0
H1977 H 0.10462 0.54066 0.1006 0.0
H1978 H 0.23102 0.68408 0.08399 0.0
H1979 H 0.19468 0.69522 0.07163 0.0
H1980 H 0.20345 0.67993 0.03962 0.0
H1981 H 0.16999 0.58694 0.17623 0.0
H1982 H 0.12523 0.54939 0.16047 0.0
H1983 H 0.12948 0.59171 0.16466 0.0
C1984 C 0.73633 0.36156 0.62487 0.0
C1985 C 0.77146 0.36552 0.63037 0.0
C1986 C 0.73232 0.39009 0.62825 0.0
C1987 C 0.76389 0.42431 0.63349 0.0
C1988 C 0.7993 0.42929 0.63636 0.0
C1989 C 0.80263 0.39958 0.63456 0.0
C1990 C 0.69462 0.38279 0.62886 0.0
C1991 C 0.83418 0.46471 0.64397 0.0
C1992 C 0.72937 0.49037 0.60151 0.0
C1993 C 0.7311 0.4998 0.63305 0.0
C1994 C 0.74289 0.4677 0.6014 0.0
C1995 C 0.75835 0.45454 0.63358 0.0
C1996 C 0.76195 0.46555 0.66547 0.0
C1997 C 0.74847 0.48857 0.66476 0.0
C1998 C 0.73876 0.45614 0.56705 0.0
C1999 C 0.77635 0.45016 0.70019 0.0
H2000 H 0.71226 0.33506 0.62268 0.0
H2001 H 0.82983 0.40226 0.63989 0.0
H2002 H 0.69684 0.39595 0.6506 0.0
H2003 H 0.68231 0.39381 0.60429 0.0
H2004 H 0.67518 0.35359 0.63187 0.0
H2005 H 0.84799 0.47354 0.6224 0.0
H2006 H 0.82951 0.48619 0.64763 0.0
H2007 H 0.8536 0.46111 0.66801 0.0
H2008 H 0.71507 0.49854 0.57706 0.0
H2009 H 0.74891 0.49562 0.68894 0.0
H2010 H 0.71659 0.42805 0.56388 0.0
H2011 H 0.76396 0.45611 0.56667 0.0
H2012 H 0.73213 0.47331 0.54445 0.0
H2013 H 0.75826 0.4206 0.70242 0.0
H2014 H 0.77747 0.46185 0.72249 0.0
H2015 H 0.80444 0.4552 0.70212 0.0
C2016 C 0.91824 0.68122 0.16805 0.0
C2017 C 0.88093 0.67116 0.161 0.0
C2018 C 0.92945 0.66517 0.15167 0.0
C2019 C 0.90236 0.63817 0.12853 0.0
C2020 C 0.86512 0.6303 0.11909 0.0
C2021 C 0.85485 0.64731 0.13533 0.0
C2022 C 0.96949 0.67421 0.16202 0.0
C2023 C 0.83546 0.60089 0.09527 0.0
C2024 C 0.93605 0.59934 0.0832 0.0
C2025 C 0.93665 0.57106 0.10739 0.0
C2026 C 0.92386 0.62109 0.08914 0.0
C2027 C 0.91181 0.61384 0.11968 0.0
C2028 C 0.91061 0.58419 0.14326 0.0
C2029 C 0.92338 0.56328 0.13691 0.0
C2030 C 0.92529 0.65255 0.06364 0.0
C2031 C 0.89734 0.57539 0.17595 0.0
H2032 H 0.93812 0.69967 0.1881 0.0
H2033 H 0.82588 0.63931 0.13048 0.0
H2034 H 0.97264 0.65209 0.17974 0.0
H2035 H 0.97902 0.67698 0.13878 0.0
H2036 H 0.98764 0.69946 0.17571 0.0
H2037 H 0.80933 0.60226 0.08614 0.0
H2038 H 0.84466 0.60231 0.07228 0.0
H2039 H 0.82968 0.57436 0.10957 0.0
H2040 H 0.94577 0.60486 0.06004 0.0
H2041 H 0.92427 0.54165 0.15578 0.0
H2042 H 0.94639 0.678 0.07622 0.0
H2043 H 0.8984 0.65227 0.05612 0.0
H2044 H 0.93227 0.65253 0.03966 0.0
H2045 H 0.91674 0.59709 0.19404 0.0
H2046 H 0.89527 0.5496 0.18979 0.0
H2047 H 0.86986 0.57367 0.16954 0.0
C2048 C 0.93682 0.60339 0.62156 0.0
C2049 C 0.92242 0.57496 0.60072 0.0
C2050 C 0.91342 0.6095 0.6326 0.0
C2051 C 0.87492 0.58674 0.62232 0.0
C2052 C 0.86047 0.55763 0.60212 0.0
C2053 C 0.8844 0.55163 0.59199 0.0
C2054 C 0.92963 0.64179 0.65299 0.0
C2055 C 0.81973 0.53387 0.58972 0.0
C2056 C 0.81951 0.59676 0.66967 0.0
C2057 C 0.80965 0.62074 0.64607 0.0
C2058 C 0.8395 0.58391 0.66166 0.0
C2059 C 0.84978 0.59583 0.62956 0.0
C2060 C 0.83758 0.6182 0.60481 0.0
C2061 C 0.81747 0.63031 0.61345 0.0
C2062 C 0.85109 0.55922 0.6883 0.0
C2063 C 0.84621 0.6301 0.56949 0.0
H2064 H 0.96618 0.62204 0.62769 0.0
H2065 H 0.87321 0.52937 0.57619 0.0
H2066 H 0.91938 0.66056 0.63759 0.0
H2067 H 0.92056 0.6333 0.67757 0.0
H2068 H 0.96028 0.65647 0.65944 0.0
H2069 H 0.81386 0.50804 0.58246 0.0
H2070 H 0.80598 0.52908 0.61033 0.0
H2071 H 0.80822 0.54697 0.56638 0.0
H2072 H 0.81298 0.58933 0.69483 0.0
H2073 H 0.80874 0.64821 0.5951 0.0
H2074 H 0.87884 0.57557 0.70508 0.0
H2075 H 0.85271 0.54013 0.67581 0.0
H2076 H 0.83167 0.54365 0.70536 0.0
H2077 H 0.84289 0.65405 0.55747 0.0
H2078 H 0.82684 0.60809 0.55177 0.0
H2079 H 0.8747 0.6365 0.57107 0.0
C2080 C 0.39222 0.56222 0.38123 0.0
C2081 C 0.37043 0.52895 0.3666 0.0
C2082 C 0.37613 0.58216 0.38249 0.0
C2083 C 0.33759 0.56786 0.369 0.0
C2084 C 0.31593 0.53476 0.35333 0.0
C2085 C 0.33278 0.51545 0.35232 0.0
C2086 C 0.40017 0.61832 0.39806 0.0
C2087 C 0.27504 0.5195 0.33842 0.0
C2088 C 0.30345 0.61609 0.40077 0.0
C2089 C 0.30436 0.64144 0.3729 0.0
C2090 C 0.3111 0.5893 0.39876 0.0
C2091 C 0.32074 0.58929 0.36862 0.0
C2092 C 0.31945 0.61365 0.33962 0.0
C2093 C 0.31094 0.63935 0.34206 0.0
C2094 C 0.31211 0.56339 0.43007 0.0
C2095 C 0.33138 0.61559 0.30775 0.0
H2096 H 0.42152 0.5719 0.3927 0.0
H2097 H 0.31651 0.48931 0.34161 0.0
H2098 H 0.39785 0.63965 0.3783 0.0
H2099 H 0.39069 0.61851 0.42023 0.0
H2100 H 0.4297 0.62524 0.40751 0.0
H2101 H 0.2624 0.49258 0.32875 0.0
H2102 H 0.26216 0.51761 0.35875 0.0
H2103 H 0.26912 0.53755 0.3165 0.0
H2104 H 0.29856 0.61828 0.42445 0.0
H2105 H 0.31238 0.65974 0.32075 0.0
H2106 H 0.34026 0.57505 0.44771 0.0
H2107 H 0.30544 0.53734 0.42249 0.0
H2108 H 0.2925 0.55858 0.44492 0.0
H2109 H 0.36191 0.628 0.31437 0.0
H2110 H 0.32297 0.63206 0.28556 0.0
H2111 H 0.31983 0.58851 0.29907 0.0
C2112 C 0.22403 0.37177 0.8704 0.0
C2113 C 0.19641 0.34457 0.84828 0.0
C2114 C 0.21483 0.38913 0.88759 0.0
C2115 C 0.17729 0.37894 0.8822 0.0
C2116 C 0.14925 0.34927 0.86249 0.0
C2117 C 0.15923 0.3323 0.84579 0.0
C2118 C 0.2453 0.42045 0.90878 0.0
C2119 C 0.10885 0.33766 0.85627 0.0
C2120 C 0.14262 0.41467 0.93001 0.0
C2121 C 0.13765 0.44073 0.90506 0.0
C2122 C 0.15752 0.39543 0.92387 0.0
C2123 C 0.16733 0.40251 0.89204 0.0
C2124 C 0.16425 0.43019 0.86766 0.0
C2125 C 0.14943 0.44905 0.87454 0.0
C2126 C 0.16087 0.36634 0.9505 0.0
C2127 C 0.17446 0.43844 0.83334 0.0
H2128 H 0.25283 0.3813 0.87222 0.0
H2129 H 0.13797 0.31083 0.82907 0.0
H2130 H 0.24795 0.44595 0.89378 0.0
H2131 H 0.23878 0.4193 0.93339 0.0
H2132 H 0.27233 0.42113 0.91515 0.0
H2133 H 0.09061 0.31158 0.84399 0.0
H2134 H 0.10205 0.33519 0.8811 0.0
H2135 H 0.10267 0.35832 0.83879 0.0
H2136 H 0.13391 0.40869 0.95388 0.0
H2137 H 0.14527 0.46902 0.8552 0.0
H2138 H 0.1881 0.36808 0.95487 0.0
H2139 H 0.13939 0.33963 0.94065 0.0
H2140 H 0.15734 0.3679 0.97586 0.0
H2141 H 0.20288 0.44304 0.83776 0.0
H2142 H 0.17286 0.46248 0.81851 0.0
H2143 H 0.15549 0.41514 0.81703 0.0
C2144 C 0.27494 0.41734 0.37863 0.0
C2145 C 0.25618 0.38973 0.35595 0.0
C2146 C 0.25631 0.43207 0.38604 0.0
C2147 C 0.21791 0.41804 0.37095 0.0
C2148 C 0.19957 0.39216 0.34589 0.0
C2149 C 0.21929 0.37895 0.33806 0.0
C2150 C 0.27706 0.45976 0.41288 0.0
C2151 C 0.15847 0.37574 0.32994 0.0
C2152 C 0.16904 0.41263 0.43481 0.0
C2153 C 0.15523 0.43626 0.41853 0.0
C2154 C 0.18871 0.40596 0.41894 0.0
C2155 C 0.19596 0.42464 0.38663 0.0
C2156 C 0.18164 0.4484 0.36989 0.0
C2157 C 0.16164 0.45413 0.38635 0.0
C2158 C 0.19956 0.3772 0.4358 0.0
C2159 C 0.1848 0.46644 0.33397 0.0
H2160 H 0.30335 0.42547 0.39263 0.0
H2161 H 0.20514 0.3582 0.31978 0.0
H2162 H 0.26367 0.47621 0.41015 0.0
H2163 H 0.27829 0.44612 0.43941 0.0
H2164 H 0.306 0.47775 0.41106 0.0
H2165 H 0.14802 0.35336 0.31358 0.0
H2166 H 0.14333 0.36532 0.35069 0.0
H2167 H 0.15187 0.39646 0.31334 0.0
H2168 H 0.16277 0.3979 0.45917 0.0
H2169 H 0.15014 0.47188 0.37357 0.0
H2170 H 0.22982 0.38959 0.44659 0.0
H2171 H 0.19176 0.35856 0.41627 0.0
H2172 H 0.18624 0.3612 0.45744 0.0
H2173 H 0.19782 0.49597 0.33494 0.0
H2174 H 0.15668 0.45774 0.31649 0.0
H2175 H 0.20024 0.46019 0.3221 0.0
loop_
_geom_bond_atom_site_label_1
_geom_bond_atom_site_label_2
_geom_bond_distance
_geom_bond_site_symmetry_2
_ccdc_geom_bond_type
Ho0 C3 2.805 1_655 S
Ho0 O20 2.322 1_656 S
Ho0 O22 2.378 . S
Ho0 O23 2.524 1_655 S
Ho0 O24 2.381 . S
Ho0 O25 2.669 1_556 S
Ho0 O27 2.346 . S
Ho0 O31 2.305 1_665 S
Ho1 C12 2.812 1_455 S
Ho1 O21 2.346 . S
Ho1 O25 2.305 1_445 S
Ho1 O26 2.322 1_454 S
Ho1 O28 2.378 . S
Ho1 O29 2.524 1_455 S
Ho1 O30 2.381 . S
Ho1 O31 2.669 1_554 S
C2 O20 1.259 . S
C2 O21 1.268 1_565 S
C3 Ho0 2.805 1_455 S
C3 C4 1.494 . S
C3 O22 1.209 1_455 S
C3 O23 1.290 . S
C4 C3 1.494 . S
C4 C5 1.348 . S
C4 C9 1.413 1_455 S
C5 C4 1.348 . S
C5 C6 1.442 . S
C5 H32 0.930 . S
C6 C5 1.442 . S
C6 C7 1.381 . S
C6 H33 0.931 . S
C7 C6 1.381 . S
C7 C8 1.321 1_455 S
C8 C7 1.321 1_655 S
C8 C9 1.403 . S
C8 H34 0.934 . S
C9 C4 1.413 1_655 S
C9 C8 1.403 . S
C9 H35 0.930 . S
C10 O24 1.275 1_554 S
C10 O25 1.256 . S
C11 O26 1.259 . S
C11 O27 1.268 1_545 S
C12 Ho1 2.812 1_655 S
C12 C13 1.487 . S
C12 O28 1.217 1_655 S
C12 O29 1.289 . S
C13 C12 1.487 . S
C13 C14 1.348 . S
C13 C18 1.413 1_655 S
C14 C13 1.348 . S
C14 C15 1.442 . S
C14 H36 0.930 . S
C15 C14 1.442 . S
C15 C16 1.381 . S
C15 H37 0.931 . S
C16 C15 1.381 . S
C16 C17 1.321 1_655 S
C17 C16 1.321 1_455 S
C17 C18 1.403 . S
C17 H38 0.934 . S
C18 C13 1.413 1_455 S
C18 C17 1.403 . S
C18 H39 0.930 . S
C19 O30 1.275 1_556 S
C19 O31 1.256 . S
O20 Ho0 2.322 1_454 S
O20 C2 1.259 . S
O21 Ho1 2.346 . S
O21 C2 1.268 1_545 S
O22 Ho0 2.378 . S
O22 C3 1.209 1_655 S
O23 Ho0 2.524 1_455 S
O23 C3 1.290 . S
O24 Ho0 2.381 . S
O24 C10 1.275 1_556 S
O25 Ho0 2.669 1_554 S
O25 Ho1 2.305 1_665 S
O25 C10 1.256 . S
O26 Ho1 2.322 1_656 S
O26 C11 1.259 . S
O27 Ho0 2.346 . S
O27 C11 1.268 1_565 S
O28 Ho1 2.378 . S
O28 C12 1.217 1_455 S
O29 Ho1 2.524 1_655 S
O29 C12 1.289 . S
O30 Ho1 2.381 . S
O30 C19 1.275 1_554 S
O31 Ho0 2.305 1_445 S
O31 Ho1 2.669 1_556 S
O31 C19 1.256 . S
H32 C5 0.930 . S
H33 C6 0.931 . S
H34 C8 0.934 . S
H35 C9 0.930 . S
H36 C14 0.930 . S
H37 C15 0.931 . S
H38 C17 0.934 . S
H39 C18 0.930 . S
Ho40 C43 2.811 . S
Ho40 O60 2.322 . S
Ho40 O62 2.378 . S
Ho40 O63 2.524 . S
Ho40 O64 2.381 . S
Ho40 O65 2.669 . S
Ho40 O67 2.346 . S
Ho40 O71 2.305 . S
Ho41 C52 2.811 . S
Ho41 O61 2.346 . S
Ho41 O65 2.305 . S
Ho41 O66 2.322 . S
Ho41 O68 2.378 . S
Ho41 O69 2.524 . S
Ho41 O70 2.381 . S
Ho41 O71 2.669 . S
C42 O60 1.259 . S
C42 O61 1.268 . S
C43 Ho40 2.811 . S
C43 C44 1.488 . S
C43 O62 1.215 . S
C43 O63 1.289 . S
C44 C43 1.488 . S
C44 C45 1.348 . S
C44 C49 1.413 . S
C45 C44 1.348 . S
C45 C46 1.442 . S
C45 H72 0.930 . S
C46 C45 1.442 . S
C46 C47 1.381 . S
C46 H73 0.931 . S
C47 C46 1.381 . S
C47 C48 1.321 . S
C48 C47 1.321 . S
C48 C49 1.403 . S
C48 H74 0.934 . S
C49 C44 1.413 . S
C49 C48 1.403 . S
C49 H75 0.930 . S
C50 O64 1.275 . S
C50 O65 1.256 . S
C51 O66 1.259 . S
C51 O67 1.268 . S
C52 Ho41 2.811 . S
C52 C53 1.488 . S
C52 O68 1.215 . S
C52 O69 1.289 . S
C53 C52 1.488 . S
C53 C54 1.348 . S
C53 C58 1.413 . S
C54 C53 1.348 . S
C54 C55 1.442 . S
C54 H76 0.930 . S
C55 C54 1.442 . S
C55 C56 1.381 . S
C55 H77 0.931 . S
C56 C55 1.381 . S
C56 C57 1.321 . S
C57 C56 1.321 . S
C57 C58 1.403 . S
C57 H78 0.934 . S
C58 C53 1.413 . S
C58 C57 1.403 . S
C58 H79 0.930 . S
C59 O70 1.275 . S
C59 O71 1.256 . S
O60 Ho40 2.322 . S
O60 C42 1.259 . S
O61 Ho41 2.346 . S
O61 C42 1.268 . S
O62 Ho40 2.378 . S
O62 C43 1.215 . S
O63 Ho40 2.524 . S
O63 C43 1.289 . S
O64 Ho40 2.381 . S
O64 C50 1.275 . S
O65 Ho40 2.669 . S
O65 Ho41 2.305 . S
O65 C50 1.256 . S
O66 Ho41 2.322 . S
O66 C51 1.259 . S
O67 Ho40 2.346 . S
O67 C51 1.268 . S
O68 Ho41 2.378 . S
O68 C52 1.215 . S
O69 Ho41 2.524 . S
O69 C52 1.289 . S
O70 Ho41 2.381 . S
O70 C59 1.275 . S
O71 Ho40 2.305 . S
O71 Ho41 2.669 . S
O71 C59 1.256 . S
H72 C45 0.930 . S
H73 C46 0.931 . S
H74 C48 0.934 . S
H75 C49 0.930 . S
H76 C54 0.930 . S
H77 C55 0.931 . S
H78 C57 0.934 . S
H79 C58 0.930 . S
Ho80 C83 2.811 1_565 S
Ho80 O100 2.322 1_565 S
Ho80 O102 2.378 . S
Ho80 O103 2.524 1_565 S
Ho80 O104 2.381 . S
Ho80 O105 2.669 . S
Ho80 O107 2.346 . S
Ho80 O111 2.305 1_565 S
Ho81 C92 2.811 1_545 S
Ho81 O101 2.346 . S
Ho81 O105 2.305 1_545 S
Ho81 O106 2.322 1_545 S
Ho81 O108 2.378 . S
Ho81 O109 2.524 1_545 S
Ho81 O110 2.381 . S
Ho81 O111 2.669 . S
C82 O100 1.259 . S
C82 O101 1.268 . S
C83 Ho80 2.811 1_545 S
C83 C84 1.488 . S
C83 O102 1.215 1_545 S
C83 O103 1.289 . S
C84 C83 1.488 . S
C84 C85 1.348 . S
C84 C89 1.413 1_545 S
C85 C84 1.348 . S
C85 C86 1.442 . S
C85 H112 0.930 . S
C86 C85 1.442 . S
C86 C87 1.381 . S
C86 H113 0.931 . S
C87 C86 1.381 . S
C87 C88 1.321 . S
C88 C87 1.321 . S
C88 C89 1.403 1_545 S
C88 H114 0.934 1_545 S
C89 C84 1.413 1_565 S
C89 C88 1.403 1_565 S
C89 H115 0.930 . S
C90 O104 1.275 . S
C90 O105 1.256 . S
C91 O106 1.259 . S
C91 O107 1.268 . S
C92 Ho81 2.811 1_565 S
C92 C93 1.488 . S
C92 O108 1.215 1_565 S
C92 O109 1.289 . S
C93 C92 1.488 . S
C93 C94 1.348 . S
C93 C98 1.413 1_565 S
C94 C93 1.348 . S
C94 C95 1.442 . S
C94 H116 0.930 . S
C95 C94 1.442 . S
C95 C96 1.381 . S
C95 H117 0.931 . S
C96 C95 1.381 . S
C96 C97 1.321 . S
C97 C96 1.321 . S
C97 C98 1.403 1_565 S
C97 H118 0.934 1_565 S
C98 C93 1.413 1_545 S
C98 C97 1.403 1_545 S
C98 H119 0.930 . S
C99 O110 1.275 . S
C99 O111 1.256 . S
O100 Ho80 2.322 1_545 S
O100 C82 1.259 . S
O101 Ho81 2.346 . S
O101 C82 1.268 . S
O102 Ho80 2.378 . S
O102 C83 1.215 1_565 S
O103 Ho80 2.524 1_545 S
O103 C83 1.289 . S
O104 Ho80 2.381 . S
O104 C90 1.275 . S
O105 Ho80 2.669 . S
O105 Ho81 2.305 1_565 S
O105 C90 1.256 . S
O106 Ho81 2.322 1_565 S
O106 C91 1.259 . S
O107 Ho80 2.346 . S
O107 C91 1.268 . S
O108 Ho81 2.378 . S
O108 C92 1.215 1_545 S
O109 Ho81 2.524 1_565 S
O109 C92 1.289 . S
O110 Ho81 2.381 . S
O110 C99 1.275 . S
O111 Ho80 2.305 1_545 S
O111 Ho81 2.669 . S
O111 C99 1.256 . S
H112 C85 0.930 . S
H113 C86 0.931 . S
H114 C88 0.934 1_565 S
H115 C89 0.930 . S
H116 C94 0.930 . S
H117 C95 0.931 . S
H118 C97 0.934 1_545 S
H119 C98 0.930 . S
Ho120 C123 2.811 . S
Ho120 O140 2.322 . S
Ho120 O142 2.378 . S
Ho120 O143 2.524 . S
Ho120 O144 2.381 . S
Ho120 O145 2.669 . S
Ho120 O147 2.346 . S
Ho120 O151 2.305 . S
Ho121 C132 2.811 . S
Ho121 O141 2.346 . S
Ho121 O145 2.305 . S
Ho121 O146 2.322 . S
Ho121 O148 2.378 . S
Ho121 O149 2.524 . S
Ho121 O150 2.381 . S
Ho121 O151 2.669 . S
C122 O140 1.259 . S
C122 O141 1.268 . S
C123 Ho120 2.811 . S
C123 C124 1.488 . S
C123 O142 1.215 . S
C123 O143 1.289 . S
C124 C123 1.488 . S
C124 C125 1.348 . S
C124 C129 1.413 . S
C125 C124 1.348 . S
C125 C126 1.442 . S
C125 H152 0.930 . S
C126 C125 1.442 . S
C126 C127 1.381 . S
C126 H153 0.931 . S
C127 C126 1.381 . S
C127 C128 1.321 . S
C128 C127 1.321 . S
C128 C129 1.403 . S
C128 H154 0.934 . S
C129 C124 1.413 . S
C129 C128 1.403 . S
C129 H155 0.930 . S
C130 O144 1.275 . S
C130 O145 1.256 . S
C131 O146 1.259 . S
C131 O147 1.268 . S
C132 Ho121 2.811 . S
C132 C133 1.488 . S
C132 O148 1.215 . S
C132 O149 1.289 . S
C133 C132 1.488 . S
C133 C134 1.348 . S
C133 C138 1.413 . S
C134 C133 1.348 . S
C134 C135 1.442 . S
C134 H156 0.930 . S
C135 C134 1.442 . S
C135 C136 1.381 . S
C135 H157 0.931 . S
C136 C135 1.381 . S
C136 C137 1.321 . S
C137 C136 1.321 . S
C137 C138 1.403 . S
C137 H158 0.934 . S
C138 C133 1.413 . S
C138 C137 1.403 . S
C138 H159 0.930 . S
C139 O150 1.275 . S
C139 O151 1.256 . S
O140 Ho120 2.322 . S
O140 C122 1.259 . S
O141 Ho121 2.346 . S
O141 C122 1.268 . S
O142 Ho120 2.378 . S
O142 C123 1.215 . S
O143 Ho120 2.524 . S
O143 C123 1.289 . S
O144 Ho120 2.381 . S
O144 C130 1.275 . S
O145 Ho120 2.669 . S
O145 Ho121 2.305 . S
O145 C130 1.256 . S
O146 Ho121 2.322 . S
O146 C131 1.259 . S
O147 Ho120 2.346 . S
O147 C131 1.268 . S
O148 Ho121 2.378 . S
O148 C132 1.215 . S
O149 Ho121 2.524 . S
O149 C132 1.289 . S
O150 Ho121 2.381 . S
O150 C139 1.275 . S
O151 Ho120 2.305 . S
O151 Ho121 2.669 . S
O151 C139 1.256 . S
H152 C125 0.930 . S
H153 C126 0.931 . S
H154 C128 0.934 . S
H155 C129 0.930 . S
H156 C134 0.930 . S
H157 C135 0.931 . S
H158 C137 0.934 . S
H159 C138 0.930 . S
Ho160 C163 2.811 . S
Ho160 O180 2.322 1_455 S
Ho160 O182 2.378 . S
Ho160 O183 2.524 . S
Ho160 O184 2.381 1_455 S
Ho160 O185 2.669 1_455 S
Ho160 O187 2.346 1_565 S
Ho160 O191 2.305 1_565 S
Ho161 C172 2.811 . S
Ho161 O181 2.346 1_545 S
Ho161 O185 2.305 1_545 S
Ho161 O186 2.322 1_655 S
Ho161 O188 2.378 . S
Ho161 O189 2.524 . S
Ho161 O190 2.381 1_655 S
Ho161 O191 2.669 1_655 S
C162 O180 1.259 . S
C162 O181 1.268 . S
C163 Ho160 2.811 . S
C163 C164 1.488 . S
C163 O182 1.215 . S
C163 O183 1.289 . S
C164 C163 1.488 . S
C164 C165 1.348 . S
C164 C169 1.413 . S
C165 C164 1.348 . S
C165 C166 1.442 . S
C165 H192 0.930 . S
C166 C165 1.442 . S
C166 C167 1.381 . S
C166 H193 0.931 . S
C167 C166 1.381 . S
C167 C168 1.321 . S
C168 C167 1.321 . S
C168 C169 1.403 . S
C168 H194 0.934 . S
C169 C164 1.413 . S
C169 C168 1.403 . S
C169 H195 0.930 . S
C170 O184 1.275 . S
C170 O185 1.256 . S
C171 O186 1.259 . S
C171 O187 1.268 . S
C172 Ho161 2.811 . S
C172 C173 1.488 . S
C172 O188 1.215 . S
C172 O189 1.289 . S
C173 C172 1.488 . S
C173 C174 1.348 . S
C173 C178 1.413 . S
C174 C173 1.348 . S
C174 C175 1.442 . S
C174 H196 0.930 . S
C175 C174 1.442 . S
C175 C176 1.381 . S
C175 H197 0.931 . S
C176 C175 1.381 . S
C176 C177 1.321 . S
C177 C176 1.321 . S
C177 C178 1.403 . S
C177 H198 0.934 . S
C178 C173 1.413 . S
C178 C177 1.403 . S
C178 H199 0.930 . S
C179 O190 1.275 . S
C179 O191 1.256 . S
O180 Ho160 2.322 1_655 S
O180 C162 1.259 . S
O181 Ho161 2.346 1_565 S
O181 C162 1.268 . S
O182 Ho160 2.378 . S
O182 C163 1.215 . S
O183 Ho160 2.524 . S
O183 C163 1.289 . S
O184 Ho160 2.381 1_655 S
O184 C170 1.275 . S
O185 Ho160 2.669 1_655 S
O185 Ho161 2.305 1_565 S
O185 C170 1.256 . S
O186 Ho161 2.322 1_455 S
O186 C171 1.259 . S
O187 Ho160 2.346 1_545 S
O187 C171 1.268 . S
O188 Ho161 2.378 . S
O188 C172 1.215 . S
O189 Ho161 2.524 . S
O189 C172 1.289 . S
O190 Ho161 2.381 1_455 S
O190 C179 1.275 . S
O191 Ho160 2.305 1_545 S
O191 Ho161 2.669 1_455 S
O191 C179 1.256 . S
H192 C165 0.930 . S
H193 C166 0.931 . S
H194 C168 0.934 . S
H195 C169 0.930 . S
H196 C174 0.930 . S
H197 C175 0.931 . S
H198 C177 0.934 . S
H199 C178 0.930 . S
Ho200 C203 2.811 . S
Ho200 O220 2.322 . S
Ho200 O222 2.378 . S
Ho200 O223 2.524 . S
Ho200 O224 2.381 . S
Ho200 O225 2.669 . S
Ho200 O227 2.346 . S
Ho200 O231 2.305 . S
Ho201 C212 2.811 . S
Ho201 O221 2.346 . S
Ho201 O225 2.305 . S
Ho201 O226 2.322 . S
Ho201 O228 2.378 . S
Ho201 O229 2.524 . S
Ho201 O230 2.381 . S
Ho201 O231 2.669 . S
C202 O220 1.259 . S
C202 O221 1.268 . S
C203 Ho200 2.811 . S
C203 C204 1.488 . S
C203 O222 1.215 . S
C203 O223 1.289 . S
C204 C203 1.488 . S
C204 C205 1.348 . S
C204 C209 1.413 . S
C205 C204 1.348 . S
C205 C206 1.442 . S
C205 H232 0.930 . S
C206 C205 1.442 . S
C206 C207 1.381 . S
C206 H233 0.931 . S
C207 C206 1.381 . S
C207 C208 1.321 . S
C208 C207 1.321 . S
C208 C209 1.403 . S
C208 H234 0.934 . S
C209 C204 1.413 . S
C209 C208 1.403 . S
C209 H235 0.930 . S
C210 O224 1.275 . S
C210 O225 1.256 . S
C211 O226 1.259 . S
C211 O227 1.268 . S
C212 Ho201 2.811 . S
C212 C213 1.488 . S
C212 O228 1.215 . S
C212 O229 1.289 . S
C213 C212 1.488 . S
C213 C214 1.348 . S
C213 C218 1.413 . S
C214 C213 1.348 . S
C214 C215 1.442 . S
C214 H236 0.930 . S
C215 C214 1.442 . S
C215 C216 1.381 . S
C215 H237 0.931 . S
C216 C215 1.381 . S
C216 C217 1.321 . S
C217 C216 1.321 . S
C217 C218 1.403 . S
C217 H238 0.934 . S
C218 C213 1.413 . S
C218 C217 1.403 . S
C218 H239 0.930 . S
C219 O230 1.275 . S
C219 O231 1.256 . S
O220 Ho200 2.322 . S
O220 C202 1.259 . S
O221 Ho201 2.346 . S
O221 C202 1.268 . S
O222 Ho200 2.378 . S
O222 C203 1.215 . S
O223 Ho200 2.524 . S
O223 C203 1.289 . S
O224 Ho200 2.381 . S
O224 C210 1.275 . S
O225 Ho200 2.669 . S
O225 Ho201 2.305 . S
O225 C210 1.256 . S
O226 Ho201 2.322 . S
O226 C211 1.259 . S
O227 Ho200 2.346 . S
O227 C211 1.268 . S
O228 Ho201 2.378 . S
O228 C212 1.215 . S
O229 Ho201 2.524 . S
O229 C212 1.289 . S
O230 Ho201 2.381 . S
O230 C219 1.275 . S
O231 Ho200 2.305 . S
O231 Ho201 2.669 . S
O231 C219 1.256 . S
H232 C205 0.930 . S
H233 C206 0.931 . S
H234 C208 0.934 . S
H235 C209 0.930 . S
H236 C214 0.930 . S
H237 C215 0.931 . S
H238 C217 0.934 . S
H239 C218 0.930 . S
Ho240 C243 2.811 1_554 S
Ho240 O260 2.322 1_564 S
Ho240 O262 2.378 . S
Ho240 O263 2.524 1_554 S
Ho240 O264 2.381 1_565 S
Ho240 O265 2.669 1_565 S
Ho240 O267 2.346 . S
Ho240 O271 2.305 1_554 S
Ho241 C252 2.811 1_556 S
Ho241 O261 2.346 . S
Ho241 O265 2.305 1_556 S
Ho241 O266 2.322 1_546 S
Ho241 O268 2.378 . S
Ho241 O269 2.524 1_556 S
Ho241 O270 2.381 1_545 S
Ho241 O271 2.669 1_545 S
C242 O260 1.259 . S
C242 O261 1.268 . S
C243 Ho240 2.811 1_556 S
C243 C244 1.488 . S
C243 O262 1.215 1_556 S
C243 O263 1.289 . S
C244 C243 1.488 . S
C244 C245 1.348 . S
C244 C249 1.413 . S
C245 C244 1.348 . S
C245 C246 1.442 . S
C245 H272 0.930 . S
C246 C245 1.442 . S
C246 C247 1.381 . S
C246 H273 0.931 . S
C247 C246 1.381 . S
C247 C248 1.321 . S
C248 C247 1.321 . S
C248 C249 1.403 . S
C248 H274 0.920 1_556 S
C249 C244 1.413 . S
C249 C248 1.403 . S
C249 H275 0.930 1_556 S
C250 O264 1.275 . S
C250 O265 1.256 . S
C251 O266 1.259 . S
C251 O267 1.268 . S
C252 Ho241 2.811 1_554 S
C252 C253 1.488 . S
C252 O268 1.215 1_554 S
C252 O269 1.289 . S
C253 C252 1.488 . S
C253 C254 1.348 . S
C253 C258 1.413 . S
C254 C253 1.348 . S
C254 C255 1.442 . S
C254 H276 0.930 . S
C255 C254 1.442 . S
C255 C256 1.381 . S
C255 H277 0.931 . S
C256 C255 1.381 . S
C256 C257 1.321 . S
C257 C256 1.321 . S
C257 C258 1.403 . S
C257 H278 0.923 1_554 S
C258 C253 1.413 . S
C258 C257 1.403 . S
C258 H279 0.930 1_554 S
C259 O270 1.275 . S
C259 O271 1.256 . S
O260 Ho240 2.322 1_546 S
O260 C242 1.259 . S
O261 Ho241 2.346 . S
O261 C242 1.268 . S
O262 Ho240 2.378 . S
O262 C243 1.215 1_554 S
O263 Ho240 2.524 1_556 S
O263 C243 1.289 . S
O264 Ho240 2.381 1_545 S
O264 C250 1.275 . S
O265 Ho240 2.669 1_545 S
O265 Ho241 2.305 1_554 S
O265 C250 1.256 . S
O266 Ho241 2.322 1_564 S
O266 C251 1.259 . S
O267 Ho240 2.346 . S
O267 C251 1.268 . S
O268 Ho241 2.378 . S
O268 C252 1.215 1_556 S
O269 Ho241 2.524 1_554 S
O269 C252 1.289 . S
O270 Ho241 2.381 1_565 S
O270 C259 1.275 . S
O271 Ho240 2.305 1_556 S
O271 Ho241 2.669 1_565 S
O271 C259 1.256 . S
H272 C245 0.930 . S
H273 C246 0.931 . S
H274 C248 0.920 1_554 S
H275 C249 0.930 1_554 S
H276 C254 0.930 . S
H277 C255 0.931 . S
H278 C257 0.923 1_556 S
H279 C258 0.930 1_556 S
Ho280 C283 2.811 . S
Ho280 O300 2.322 . S
Ho280 O302 2.378 . S
Ho280 O303 2.524 . S
Ho280 O304 2.381 . S
Ho280 O305 2.669 . S
Ho280 O307 2.346 . S
Ho280 O311 2.305 . S
Ho281 C292 2.811 . S
Ho281 O301 2.346 . S
Ho281 O305 2.305 . S
Ho281 O306 2.322 . S
Ho281 O308 2.378 . S
Ho281 O309 2.524 . S
Ho281 O310 2.381 . S
Ho281 O311 2.669 . S
C282 O300 1.259 . S
C282 O301 1.268 . S
C283 Ho280 2.811 . S
C283 C284 1.488 . S
C283 O302 1.215 . S
C283 O303 1.289 . S
C284 C283 1.488 . S
C284 C285 1.348 . S
C284 C289 1.413 . S
C285 C284 1.348 . S
C285 C286 1.442 . S
C285 H312 0.930 . S
C286 C285 1.442 . S
C286 C287 1.381 . S
C286 H313 0.931 . S
C287 C286 1.381 . S
C287 C288 1.321 . S
C288 C287 1.321 . S
C288 C289 1.403 . S
C288 H314 0.934 . S
C289 C284 1.413 . S
C289 C288 1.403 . S
C289 H315 0.930 . S
C290 O304 1.275 . S
C290 O305 1.256 . S
C291 O306 1.259 . S
C291 O307 1.268 . S
C292 Ho281 2.811 . S
C292 C293 1.488 . S
C292 O308 1.215 . S
C292 O309 1.289 . S
C293 C292 1.488 . S
C293 C294 1.348 . S
C293 C298 1.413 . S
C294 C293 1.348 . S
C294 C295 1.442 . S
C294 H316 0.930 . S
C295 C294 1.442 . S
C295 C296 1.381 . S
C295 H317 0.931 . S
C296 C295 1.381 . S
C296 C297 1.321 . S
C297 C296 1.321 . S
C297 C298 1.403 . S
C297 H318 0.934 . S
C298 C293 1.413 . S
C298 C297 1.403 . S
C298 H319 0.930 . S
C299 O310 1.275 . S
C299 O311 1.256 . S
O300 Ho280 2.322 . S
O300 C282 1.259 . S
O301 Ho281 2.346 . S
O301 C282 1.268 . S
O302 Ho280 2.378 . S
O302 C283 1.215 . S
O303 Ho280 2.524 . S
O303 C283 1.289 . S
O304 Ho280 2.381 . S
O304 C290 1.275 . S
O305 Ho280 2.669 . S
O305 Ho281 2.305 . S
O305 C290 1.256 . S
O306 Ho281 2.322 . S
O306 C291 1.259 . S
O307 Ho280 2.346 . S
O307 C291 1.268 . S
O308 Ho281 2.378 . S
O308 C292 1.215 . S
O309 Ho281 2.524 . S
O309 C292 1.289 . S
O310 Ho281 2.381 . S
O310 C299 1.275 . S
O311 Ho280 2.305 . S
O311 Ho281 2.669 . S
O311 C299 1.256 . S
H312 C285 0.930 . S
H313 C286 0.931 . S
H314 C288 0.934 . S
H315 C289 0.930 . S
H316 C294 0.930 . S
H317 C295 0.931 . S
H318 C297 0.934 . S
H319 C298 0.930 . S
Ho320 C323 2.811 . S
Ho320 O340 2.322 . S
Ho320 O342 2.378 . S
Ho320 O343 2.524 . S
Ho320 O344 2.381 1_554 S
Ho320 O345 2.669 1_554 S
Ho320 O347 2.346 1_554 S
Ho320 O351 2.305 . S
Ho321 C332 2.811 . S
Ho321 O341 2.346 1_556 S
Ho321 O345 2.305 . S
Ho321 O346 2.322 . S
Ho321 O348 2.378 . S
Ho321 O349 2.524 . S
Ho321 O350 2.381 1_556 S
Ho321 O351 2.669 1_556 S
C322 O340 1.259 . S
C322 O341 1.268 . S
C323 Ho320 2.811 . S
C323 C324 1.488 . S
C323 O342 1.215 . S
C323 O343 1.289 . S
C324 C323 1.488 . S
C324 C325 1.348 . S
C324 C329 1.413 . S
C325 C324 1.348 . S
C325 C326 1.442 . S
C325 H352 0.930 . S
C326 C325 1.442 . S
C326 C327 1.381 . S
C326 H353 0.931 . S
C327 C326 1.381 . S
C327 C328 1.321 . S
C328 C327 1.321 . S
C328 C329 1.403 . S
C328 H354 0.934 . S
C329 C324 1.413 . S
C329 C328 1.403 . S
C329 H355 0.930 . S
C330 O344 1.275 . S
C330 O345 1.256 . S
C331 O346 1.259 . S
C331 O347 1.268 . S
C332 Ho321 2.811 . S
C332 C333 1.488 . S
C332 O348 1.215 . S
C332 O349 1.289 . S
C333 C332 1.488 . S
C333 C334 1.348 . S
C333 C338 1.413 . S
C334 C333 1.348 . S
C334 C335 1.442 . S
C334 H356 0.930 . S
C335 C334 1.442 . S
C335 C336 1.381 . S
C335 H357 0.931 . S
C336 C335 1.381 . S
C336 C337 1.321 . S
C337 C336 1.321 . S
C337 C338 1.403 . S
C337 H358 0.934 . S
C338 C333 1.413 . S
C338 C337 1.403 . S
C338 H359 0.930 . S
C339 O350 1.275 . S
C339 O351 1.256 . S
O340 Ho320 2.322 . S
O340 C322 1.259 . S
O341 Ho321 2.346 1_554 S
O341 C322 1.268 . S
O342 Ho320 2.378 . S
O342 C323 1.215 . S
O343 Ho320 2.524 . S
O343 C323 1.289 . S
O344 Ho320 2.381 1_556 S
O344 C330 1.275 . S
O345 Ho320 2.669 1_556 S
O345 Ho321 2.305 . S
O345 C330 1.256 . S
O346 Ho321 2.322 . S
O346 C331 1.259 . S
O347 Ho320 2.346 1_556 S
O347 C331 1.268 . S
O348 Ho321 2.378 . S
O348 C332 1.215 . S
O349 Ho321 2.524 . S
O349 C332 1.289 . S
O350 Ho321 2.381 1_554 S
O350 C339 1.275 . S
O351 Ho320 2.305 . S
O351 Ho321 2.669 1_554 S
O351 C339 1.256 . S
H352 C325 0.930 . S
H353 C326 0.931 . S
H354 C328 0.934 . S
H355 C329 0.930 . S
H356 C334 0.930 . S
H357 C335 0.931 . S
H358 C337 0.934 . S
H359 C338 0.930 . S
Ho360 C363 2.811 . S
Ho360 O380 2.322 . S
Ho360 O382 2.378 . S
Ho360 O383 2.524 . S
Ho360 O384 2.381 . S
Ho360 O385 2.669 . S
Ho360 O387 2.346 . S
Ho360 O391 2.305 . S
Ho361 C372 2.811 . S
Ho361 O381 2.346 . S
Ho361 O385 2.305 . S
Ho361 O386 2.322 . S
Ho361 O388 2.378 . S
Ho361 O389 2.524 . S
Ho361 O390 2.381 . S
Ho361 O391 2.669 . S
C362 O380 1.259 . S
C362 O381 1.268 . S
C363 Ho360 2.811 . S
C363 C364 1.488 . S
C363 O382 1.215 . S
C363 O383 1.289 . S
C364 C363 1.488 . S
C364 C365 1.348 . S
C364 C369 1.413 . S
C365 C364 1.348 . S
C365 C366 1.442 . S
C365 H392 0.930 . S
C366 C365 1.442 . S
C366 C367 1.381 . S
C366 H393 0.931 . S
C367 C366 1.381 . S
C367 C368 1.321 . S
C368 C367 1.321 . S
C368 C369 1.403 . S
C368 H394 0.934 . S
C369 C364 1.413 . S
C369 C368 1.403 . S
C369 H395 0.930 . S
C370 O384 1.275 . S
C370 O385 1.256 . S
C371 O386 1.259 . S
C371 O387 1.268 . S
C372 Ho361 2.811 . S
C372 C373 1.488 . S
C372 O388 1.215 . S
C372 O389 1.289 . S
C373 C372 1.488 . S
C373 C374 1.348 . S
C373 C378 1.413 . S
C374 C373 1.348 . S
C374 C375 1.442 . S
C374 H396 0.930 . S
C375 C374 1.442 . S
C375 C376 1.381 . S
C375 H397 0.931 . S
C376 C375 1.381 . S
C376 C377 1.321 . S
C377 C376 1.321 . S
C377 C378 1.403 . S
C377 H398 0.934 . S
C378 C373 1.413 . S
C378 C377 1.403 . S
C378 H399 0.930 . S
C379 O390 1.275 . S
C379 O391 1.256 . S
O380 Ho360 2.322 . S
O380 C362 1.259 . S
O381 Ho361 2.346 . S
O381 C362 1.268 . S
O382 Ho360 2.378 . S
O382 C363 1.215 . S
O383 Ho360 2.524 . S
O383 C363 1.289 . S
O384 Ho360 2.381 . S
O384 C370 1.275 . S
O385 Ho360 2.669 . S
O385 Ho361 2.305 . S
O385 C370 1.256 . S
O386 Ho361 2.322 . S
O386 C371 1.259 . S
O387 Ho360 2.346 . S
O387 C371 1.268 . S
O388 Ho361 2.378 . S
O388 C372 1.215 . S
O389 Ho361 2.524 . S
O389 C372 1.289 . S
O390 Ho361 2.381 . S
O390 C379 1.275 . S
O391 Ho360 2.305 . S
O391 Ho361 2.669 . S
O391 C379 1.256 . S
H392 C365 0.930 . S
H393 C366 0.931 . S
H394 C368 0.934 . S
H395 C369 0.930 . S
H396 C374 0.930 . S
H397 C375 0.931 . S
H398 C377 0.934 . S
H399 C378 0.930 . S
Ho400 C403 2.811 . S
Ho400 O420 2.322 . S
Ho400 O422 2.378 . S
Ho400 O423 2.524 . S
Ho400 O424 2.381 . S
Ho400 O425 2.669 . S
Ho400 O427 2.346 1_455 S
Ho400 O431 2.305 1_455 S
Ho401 C412 2.811 . S
Ho401 O421 2.346 1_655 S
Ho401 O425 2.305 1_655 S
Ho401 O426 2.322 . S
Ho401 O428 2.378 . S
Ho401 O429 2.524 . S
Ho401 O430 2.381 . S
Ho401 O431 2.669 . S
C402 O420 1.259 . S
C402 O421 1.268 . S
C403 Ho400 2.811 . S
C403 C404 1.488 . S
C403 O422 1.215 . S
C403 O423 1.289 . S
C404 C403 1.488 . S
C404 C405 1.348 . S
C404 C409 1.413 . S
C405 C404 1.348 . S
C405 C406 1.442 . S
C405 H432 0.930 . S
C406 C405 1.442 . S
C406 C407 1.381 . S
C406 H433 0.931 . S
C407 C406 1.381 . S
C407 C408 1.321 . S
C408 C407 1.321 . S
C408 C409 1.403 . S
C408 H434 0.934 . S
C409 C404 1.413 . S
C409 C408 1.403 . S
C409 H435 0.930 . S
C410 O424 1.275 . S
C410 O425 1.256 . S
C411 O426 1.259 . S
C411 O427 1.268 . S
C412 Ho401 2.811 . S
C412 C413 1.488 . S
C412 O428 1.215 . S
C412 O429 1.289 . S
C413 C412 1.488 . S
C413 C414 1.348 . S
C413 C418 1.413 . S
C414 C413 1.348 . S
C414 C415 1.442 . S
C414 H436 0.930 . S
C415 C414 1.442 . S
C415 C416 1.381 . S
C415 H437 0.931 . S
C416 C415 1.381 . S
C416 C417 1.321 . S
C417 C416 1.321 . S
C417 C418 1.403 . S
C417 H438 0.934 . S
C418 C413 1.413 . S
C418 C417 1.403 . S
C418 H439 0.930 . S
C419 O430 1.275 . S
C419 O431 1.256 . S
O420 Ho400 2.322 . S
O420 C402 1.259 . S
O421 Ho401 2.346 1_455 S
O421 C402 1.268 . S
O422 Ho400 2.378 . S
O422 C403 1.215 . S
O423 Ho400 2.524 . S
O423 C403 1.289 . S
O424 Ho400 2.381 . S
O424 C410 1.275 . S
O425 Ho400 2.669 . S
O425 Ho401 2.305 1_455 S
O425 C410 1.256 . S
O426 Ho401 2.322 . S
O426 C411 1.259 . S
O427 Ho400 2.346 1_655 S
O427 C411 1.268 . S
O428 Ho401 2.378 . S
O428 C412 1.215 . S
O429 Ho401 2.524 . S
O429 C412 1.289 . S
O430 Ho401 2.381 . S
O430 C419 1.275 . S
O431 Ho400 2.305 1_655 S
O431 Ho401 2.669 . S
O431 C419 1.256 . S
H432 C405 0.930 . S
H433 C406 0.931 . S
H434 C408 0.934 . S
H435 C409 0.930 . S
H436 C414 0.930 . S
H437 C415 0.931 . S
H438 C417 0.934 . S
H439 C418 0.930 . S
Ho440 C443 2.811 . S
Ho440 O460 2.322 . S
Ho440 O462 2.378 . S
Ho440 O463 2.524 . S
Ho440 O464 2.381 . S
Ho440 O465 2.669 . S
Ho440 O467 2.346 . S
Ho440 O471 2.305 . S
Ho441 C452 2.811 . S
Ho441 O461 2.346 . S
Ho441 O465 2.305 . S
Ho441 O466 2.322 . S
Ho441 O468 2.378 . S
Ho441 O469 2.524 . S
Ho441 O470 2.381 . S
Ho441 O471 2.669 . S
C442 O460 1.259 . S
C442 O461 1.268 . S
C443 Ho440 2.811 . S
C443 C444 1.488 . S
C443 O462 1.215 . S
C443 O463 1.289 . S
C444 C443 1.488 . S
C444 C445 1.348 . S
C444 C449 1.413 . S
C445 C444 1.348 . S
C445 C446 1.442 . S
C445 H472 0.930 . S
C446 C445 1.442 . S
C446 C447 1.381 . S
C446 H473 0.931 . S
C447 C446 1.381 . S
C447 C448 1.321 . S
C448 C447 1.321 . S
C448 C449 1.403 . S
C448 H474 0.934 . S
C449 C444 1.413 . S
C449 C448 1.403 . S
C449 H475 0.930 . S
C450 O464 1.275 . S
C450 O465 1.256 . S
C451 O466 1.259 . S
C451 O467 1.268 . S
C452 Ho441 2.811 . S
C452 C453 1.488 . S
C452 O468 1.215 . S
C452 O469 1.289 . S
C453 C452 1.488 . S
C453 C454 1.348 . S
C453 C458 1.413 . S
C454 C453 1.348 . S
C454 C455 1.442 . S
C454 H476 0.930 . S
C455 C454 1.442 . S
C455 C456 1.381 . S
C455 H477 0.931 . S
C456 C455 1.381 . S
C456 C457 1.321 . S
C457 C456 1.321 . S
C457 C458 1.403 . S
C457 H478 0.934 . S
C458 C453 1.413 . S
C458 C457 1.403 . S
C458 H479 0.930 . S
C459 O470 1.275 . S
C459 O471 1.256 . S
O460 Ho440 2.322 . S
O460 C442 1.259 . S
O461 Ho441 2.346 . S
O461 C442 1.268 . S
O462 Ho440 2.378 . S
O462 C443 1.215 . S
O463 Ho440 2.524 . S
O463 C443 1.289 . S
O464 Ho440 2.381 . S
O464 C450 1.275 . S
O465 Ho440 2.669 . S
O465 Ho441 2.305 . S
O465 C450 1.256 . S
O466 Ho441 2.322 . S
O466 C451 1.259 . S
O467 Ho440 2.346 . S
O467 C451 1.268 . S
O468 Ho441 2.378 . S
O468 C452 1.215 . S
O469 Ho441 2.524 . S
O469 C452 1.289 . S
O470 Ho441 2.381 . S
O470 C459 1.275 . S
O471 Ho440 2.305 . S
O471 Ho441 2.669 . S
O471 C459 1.256 . S
H472 C445 0.930 . S
H473 C446 0.931 . S
H474 C448 0.934 . S
H475 C449 0.930 . S
H476 C454 0.930 . S
H477 C455 0.931 . S
H478 C457 0.934 . S
H479 C458 0.930 . S
Ho480 C483 2.811 . S
Ho480 O500 2.322 . S
Ho480 O502 2.378 . S
Ho480 O503 2.524 . S
Ho480 O504 2.381 . S
Ho480 O505 2.669 . S
Ho480 O507 2.346 . S
Ho480 O511 2.305 . S
Ho481 C492 2.811 . S
Ho481 O501 2.346 . S
Ho481 O505 2.305 . S
Ho481 O506 2.322 . S
Ho481 O508 2.378 . S
Ho481 O509 2.524 . S
Ho481 O510 2.381 . S
Ho481 O511 2.669 . S
C482 O500 1.259 . S
C482 O501 1.268 . S
C483 Ho480 2.811 . S
C483 C484 1.488 . S
C483 O502 1.215 . S
C483 O503 1.289 . S
C484 C483 1.488 . S
C484 C485 1.348 . S
C484 C489 1.413 . S
C485 C484 1.348 . S
C485 C486 1.442 . S
C485 H512 0.930 . S
C486 C485 1.442 . S
C486 C487 1.381 . S
C486 H513 0.931 . S
C487 C486 1.381 . S
C487 C488 1.321 . S
C488 C487 1.321 . S
C488 C489 1.403 . S
C488 H514 0.934 . S
C489 C484 1.413 . S
C489 C488 1.403 . S
C489 H515 0.930 . S
C490 O504 1.275 . S
C490 O505 1.256 . S
C491 O506 1.259 . S
C491 O507 1.268 . S
C492 Ho481 2.811 . S
C492 C493 1.488 . S
C492 O508 1.215 . S
C492 O509 1.289 . S
C493 C492 1.488 . S
C493 C494 1.348 . S
C493 C498 1.413 . S
C494 C493 1.348 . S
C494 C495 1.442 . S
C494 H516 0.930 . S
C495 C494 1.442 . S
C495 C496 1.381 . S
C495 H517 0.931 . S
C496 C495 1.381 . S
C496 C497 1.321 . S
C497 C496 1.321 . S
C497 C498 1.403 . S
C497 H518 0.934 . S
C498 C493 1.413 . S
C498 C497 1.403 . S
C498 H519 0.930 . S
C499 O510 1.275 . S
C499 O511 1.256 . S
O500 Ho480 2.322 . S
O500 C482 1.259 . S
O501 Ho481 2.346 . S
O501 C482 1.268 . S
O502 Ho480 2.378 . S
O502 C483 1.215 . S
O503 Ho480 2.524 . S
O503 C483 1.289 . S
O504 Ho480 2.381 . S
O504 C490 1.275 . S
O505 Ho480 2.669 . S
O505 Ho481 2.305 . S
O505 C490 1.256 . S
O506 Ho481 2.322 . S
O506 C491 1.259 . S
O507 Ho480 2.346 . S
O507 C491 1.268 . S
O508 Ho481 2.378 . S
O508 C492 1.215 . S
O509 Ho481 2.524 . S
O509 C492 1.289 . S
O510 Ho481 2.381 . S
O510 C499 1.275 . S
O511 Ho480 2.305 . S
O511 Ho481 2.669 . S
O511 C499 1.256 . S
H512 C485 0.930 . S
H513 C486 0.931 . S
H514 C488 0.934 . S
H515 C489 0.930 . S
H516 C494 0.930 . S
H517 C495 0.931 . S
H518 C497 0.934 . S
H519 C498 0.930 . S
Ho520 C523 2.811 . S
Ho520 O540 2.322 . S
Ho520 O542 2.378 . S
Ho520 O543 2.524 . S
Ho520 O544 2.381 . S
Ho520 O545 2.669 . S
Ho520 O547 2.346 . S
Ho520 O551 2.305 . S
Ho521 C532 2.811 . S
Ho521 O541 2.346 . S
Ho521 O545 2.305 . S
Ho521 O546 2.322 . S
Ho521 O548 2.378 . S
Ho521 O549 2.524 . S
Ho521 O550 2.381 . S
Ho521 O551 2.669 . S
C522 O540 1.259 . S
C522 O541 1.268 . S
C523 Ho520 2.811 . S
C523 C524 1.488 . S
C523 O542 1.215 . S
C523 O543 1.289 . S
C524 C523 1.488 . S
C524 C525 1.348 . S
C524 C529 1.413 . S
C525 C524 1.348 . S
C525 C526 1.442 . S
C525 H552 0.930 . S
C526 C525 1.442 . S
C526 C527 1.381 . S
C526 H553 0.931 . S
C527 C526 1.381 . S
C527 C528 1.321 . S
C528 C527 1.321 . S
C528 C529 1.403 . S
C528 H554 0.934 . S
C529 C524 1.413 . S
C529 C528 1.403 . S
C529 H555 0.930 . S
C530 O544 1.275 . S
C530 O545 1.256 . S
C531 O546 1.259 . S
C531 O547 1.268 . S
C532 Ho521 2.811 . S
C532 C533 1.488 . S
C532 O548 1.215 . S
C532 O549 1.289 . S
C533 C532 1.488 . S
C533 C534 1.348 . S
C533 C538 1.413 . S
C534 C533 1.348 . S
C534 C535 1.442 . S
C534 H556 0.930 . S
C535 C534 1.442 . S
C535 C536 1.381 . S
C535 H557 0.931 . S
C536 C535 1.381 . S
C536 C537 1.321 . S
C537 C536 1.321 . S
C537 C538 1.403 . S
C537 H558 0.934 . S
C538 C533 1.413 . S
C538 C537 1.403 . S
C538 H559 0.930 . S
C539 O550 1.275 . S
C539 O551 1.256 . S
O540 Ho520 2.322 . S
O540 C522 1.259 . S
O541 Ho521 2.346 . S
O541 C522 1.268 . S
O542 Ho520 2.378 . S
O542 C523 1.215 . S
O543 Ho520 2.524 . S
O543 C523 1.289 . S
O544 Ho520 2.381 . S
O544 C530 1.275 . S
O545 Ho520 2.669 . S
O545 Ho521 2.305 . S
O545 C530 1.256 . S
O546 Ho521 2.322 . S
O546 C531 1.259 . S
O547 Ho520 2.346 . S
O547 C531 1.268 . S
O548 Ho521 2.378 . S
O548 C532 1.215 . S
O549 Ho521 2.524 . S
O549 C532 1.289 . S
O550 Ho521 2.381 . S
O550 C539 1.275 . S
O551 Ho520 2.305 . S
O551 Ho521 2.669 . S
O551 C539 1.256 . S
H552 C525 0.930 . S
H553 C526 0.931 . S
H554 C528 0.934 . S
H555 C529 0.930 . S
H556 C534 0.930 . S
H557 C535 0.931 . S
H558 C537 0.934 . S
H559 C538 0.930 . S
Ho560 C563 2.811 . S
Ho560 O580 2.322 . S
Ho560 O582 2.378 . S
Ho560 O583 2.524 . S
Ho560 O584 2.381 . S
Ho560 O585 2.669 . S
Ho560 O587 2.346 . S
Ho560 O591 2.305 . S
Ho561 C572 2.811 . S
Ho561 O581 2.346 . S
Ho561 O585 2.305 . S
Ho561 O586 2.322 . S
Ho561 O588 2.378 . S
Ho561 O589 2.524 . S
Ho561 O590 2.381 . S
Ho561 O591 2.669 . S
C562 O580 1.259 . S
C562 O581 1.268 . S
C563 Ho560 2.811 . S
C563 C564 1.488 . S
C563 O582 1.215 . S
C563 O583 1.289 . S
C564 C563 1.488 . S
C564 C565 1.348 . S
C564 C569 1.413 . S
C565 C564 1.348 . S
C565 C566 1.442 . S
C565 H592 0.930 . S
C566 C565 1.442 . S
C566 C567 1.381 . S
C566 H593 0.931 . S
C567 C566 1.381 . S
C567 C568 1.321 . S
C568 C567 1.321 . S
C568 C569 1.403 . S
C568 H594 0.934 . S
C569 C564 1.413 . S
C569 C568 1.403 . S
C569 H595 0.930 . S
C570 O584 1.275 . S
C570 O585 1.256 . S
C571 O586 1.259 . S
C571 O587 1.268 . S
C572 Ho561 2.811 . S
C572 C573 1.488 . S
C572 O588 1.215 . S
C572 O589 1.289 . S
C573 C572 1.488 . S
C573 C574 1.348 . S
C573 C578 1.413 . S
C574 C573 1.348 . S
C574 C575 1.442 . S
C574 H596 0.930 . S
C575 C574 1.442 . S
C575 C576 1.381 . S
C575 H597 0.931 . S
C576 C575 1.381 . S
C576 C577 1.321 . S
C577 C576 1.321 . S
C577 C578 1.403 . S
C577 H598 0.934 . S
C578 C573 1.413 . S
C578 C577 1.403 . S
C578 H599 0.930 . S
C579 O590 1.275 . S
C579 O591 1.256 . S
O580 Ho560 2.322 . S
O580 C562 1.259 . S
O581 Ho561 2.346 . S
O581 C562 1.268 . S
O582 Ho560 2.378 . S
O582 C563 1.215 . S
O583 Ho560 2.524 . S
O583 C563 1.289 . S
O584 Ho560 2.381 . S
O584 C570 1.275 . S
O585 Ho560 2.669 . S
O585 Ho561 2.305 . S
O585 C570 1.256 . S
O586 Ho561 2.322 . S
O586 C571 1.259 . S
O587 Ho560 2.346 . S
O587 C571 1.268 . S
O588 Ho561 2.378 . S
O588 C572 1.215 . S
O589 Ho561 2.524 . S
O589 C572 1.289 . S
O590 Ho561 2.381 . S
O590 C579 1.275 . S
O591 Ho560 2.305 . S
O591 Ho561 2.669 . S
O591 C579 1.256 . S
H592 C565 0.930 . S
H593 C566 0.931 . S
H594 C568 0.934 . S
H595 C569 0.930 . S
H596 C574 0.930 . S
H597 C575 0.931 . S
H598 C577 0.934 . S
H599 C578 0.930 . S
Ho600 C603 2.811 . S
Ho600 O620 2.322 1_554 S
Ho600 O622 2.378 . S
Ho600 O623 2.524 . S
Ho600 O624 2.381 1_554 S
Ho600 O625 2.669 1_554 S
Ho600 O627 2.346 1_655 S
Ho600 O631 2.305 1_655 S
Ho601 C612 2.811 . S
Ho601 O621 2.346 1_455 S
Ho601 O625 2.305 1_455 S
Ho601 O626 2.322 1_556 S
Ho601 O628 2.378 . S
Ho601 O629 2.524 . S
Ho601 O630 2.381 1_556 S
Ho601 O631 2.669 1_556 S
C602 O620 1.259 . S
C602 O621 1.268 . S
C603 Ho600 2.811 . S
C603 C604 1.488 . S
C603 O622 1.215 . S
C603 O623 1.289 . S
C604 C603 1.488 . S
C604 C605 1.348 . S
C604 C609 1.413 . S
C605 C604 1.348 . S
C605 C606 1.442 . S
C605 H632 0.930 . S
C606 C605 1.442 . S
C606 C607 1.381 . S
C606 H633 0.931 . S
C607 C606 1.381 . S
C607 C608 1.321 . S
C608 C607 1.321 . S
C608 C609 1.403 . S
C608 H634 0.934 . S
C609 C604 1.413 . S
C609 C608 1.403 . S
C609 H635 0.930 . S
C610 O624 1.275 . S
C610 O625 1.256 . S
C611 O626 1.259 . S
C611 O627 1.268 . S
C612 Ho601 2.811 . S
C612 C613 1.488 . S
C612 O628 1.215 . S
C612 O629 1.289 . S
C613 C612 1.488 . S
C613 C614 1.348 . S
C613 C618 1.413 . S
C614 C613 1.348 . S
C614 C615 1.442 . S
C614 H636 0.930 . S
C615 C614 1.442 . S
C615 C616 1.381 . S
C615 H637 0.931 . S
C616 C615 1.381 . S
C616 C617 1.321 . S
C617 C616 1.321 . S
C617 C618 1.403 . S
C617 H638 0.934 . S
C618 C613 1.413 . S
C618 C617 1.403 . S
C618 H639 0.930 . S
C619 O630 1.275 . S
C619 O631 1.256 . S
O620 Ho600 2.322 1_556 S
O620 C602 1.259 . S
O621 Ho601 2.346 1_655 S
O621 C602 1.268 . S
O622 Ho600 2.378 . S
O622 C603 1.215 . S
O623 Ho600 2.524 . S
O623 C603 1.289 . S
O624 Ho600 2.381 1_556 S
O624 C610 1.275 . S
O625 Ho600 2.669 1_556 S
O625 Ho601 2.305 1_655 S
O625 C610 1.256 . S
O626 Ho601 2.322 1_554 S
O626 C611 1.259 . S
O627 Ho600 2.346 1_455 S
O627 C611 1.268 . S
O628 Ho601 2.378 . S
O628 C612 1.215 . S
O629 Ho601 2.524 . S
O629 C612 1.289 . S
O630 Ho601 2.381 1_554 S
O630 C619 1.275 . S
O631 Ho600 2.305 1_455 S
O631 Ho601 2.669 1_554 S
O631 C619 1.256 . S
H632 C605 0.930 . S
H633 C606 0.931 . S
H634 C608 0.934 . S
H635 C609 0.930 . S
H636 C614 0.930 . S
H637 C615 0.931 . S
H638 C617 0.934 . S
H639 C618 0.930 . S
C640 C641 1.391 . S
C640 C642 1.394 . S
C640 H656 0.931 . S
C641 C640 1.391 . S
C641 C645 1.376 . S
C642 C640 1.394 . S
C642 C643 1.369 . S
C642 C646 1.531 . S
C643 C642 1.369 . S
C643 C644 1.410 . S
C643 C651 1.503 . S
C644 C643 1.410 . S
C644 C645 1.392 . S
C644 C647 1.511 . S
C645 C641 1.376 . S
C645 C644 1.392 . S
C645 H657 0.929 . S
C646 C642 1.531 . S
C646 H658 0.960 . S
C646 H659 0.962 . S
C646 H660 0.960 . S
C647 C644 1.511 . S
C647 H661 0.961 . S
C647 H662 0.961 . S
C647 H663 0.961 . S
C648 C649 1.370 . S
C648 C650 1.363 . S
C648 H664 0.931 . S
C649 C648 1.370 . S
C649 C653 1.408 . S
C650 C648 1.363 . S
C650 C651 1.370 . S
C650 C654 1.524 . S
C651 C643 1.503 . S
C651 C650 1.370 . S
C651 C652 1.403 . S
C652 C651 1.403 . S
C652 C653 1.404 . S
C652 C655 1.539 . S
C653 C649 1.408 . S
C653 C652 1.404 . S
C653 H665 0.930 . S
C654 C650 1.524 . S
C654 H666 0.956 . S
C654 H667 0.961 . S
C654 H668 0.961 . S
C655 C652 1.539 . S
C655 H669 0.958 . S
C655 H670 0.961 . S
C655 H671 0.960 . S
H656 C640 0.931 . S
H657 C645 0.929 . S
H658 C646 0.960 . S
H659 C646 0.962 . S
H660 C646 0.960 . S
H661 C647 0.961 . S
H662 C647 0.961 . S
H663 C647 0.961 . S
H664 C648 0.931 . S
H665 C653 0.930 . S
H666 C654 0.956 . S
H667 C654 0.961 . S
H668 C654 0.961 . S
H669 C655 0.958 . S
H670 C655 0.961 . S
H671 C655 0.960 . S
C672 C673 1.391 . S
C672 C674 1.394 . S
C672 H688 0.931 . S
C673 C672 1.391 . S
C673 C677 1.376 1_565 S
C674 C672 1.394 . S
C674 C675 1.369 . S
C674 C678 1.531 . S
C675 C674 1.369 . S
C675 C676 1.410 . S
C675 C683 1.503 . S
C676 C675 1.410 . S
C676 C677 1.392 1_565 S
C676 C679 1.511 1_565 S
C677 C673 1.376 1_545 S
C677 C676 1.392 1_545 S
C677 H689 0.929 . S
C678 C674 1.531 . S
C678 H690 0.960 . S
C678 H691 0.962 . S
C678 H692 0.960 . S
C679 C676 1.511 1_545 S
C679 H693 0.961 . S
C679 H694 0.961 . S
C679 H695 0.961 . S
C680 C681 1.370 . S
C680 C682 1.363 . S
C680 H696 0.931 . S
C681 C680 1.370 . S
C681 C685 1.408 . S
C682 C680 1.363 . S
C682 C683 1.370 . S
C682 C686 1.524 . S
C683 C675 1.503 . S
C683 C682 1.370 . S
C683 C684 1.403 . S
C684 C683 1.403 . S
C684 C685 1.404 . S
C684 C687 1.539 1_554 S
C685 C681 1.408 . S
C685 C684 1.404 . S
C685 H697 0.930 . S
C686 C682 1.524 . S
C686 H698 0.956 . S
C686 H699 0.961 . S
C686 H700 0.961 . S
C687 C684 1.539 1_556 S
C687 H701 0.958 . S
C687 H702 0.961 . S
C687 H703 0.960 . S
H688 C672 0.931 . S
H689 C677 0.929 . S
H690 C678 0.960 . S
H691 C678 0.962 . S
H692 C678 0.960 . S
H693 C679 0.961 . S
H694 C679 0.961 . S
H695 C679 0.961 . S
H696 C680 0.931 . S
H697 C685 0.930 . S
H698 C686 0.956 . S
H699 C686 0.961 . S
H700 C686 0.961 . S
H701 C687 0.958 . S
H702 C687 0.961 . S
H703 C687 0.960 . S
C704 C705 1.391 . S
C704 C706 1.394 . S
C704 H720 0.931 . S
C705 C704 1.391 . S
C705 C709 1.376 . S
C706 C704 1.394 . S
C706 C707 1.369 . S
C706 C710 1.531 . S
C707 C706 1.369 . S
C707 C708 1.410 . S
C707 C715 1.503 . S
C708 C707 1.410 . S
C708 C709 1.392 . S
C708 C711 1.511 . S
C709 C705 1.376 . S
C709 C708 1.392 . S
C709 H721 0.929 . S
C710 C706 1.531 . S
C710 H722 0.960 . S
C710 H723 0.962 . S
C710 H724 0.960 . S
C711 C708 1.511 . S
C711 H725 0.961 . S
C711 H726 0.961 . S
C711 H727 0.961 . S
C712 C713 1.370 . S
C712 C714 1.363 . S
C712 H728 0.931 . S
C713 C712 1.370 . S
C713 C717 1.408 . S
C714 C712 1.363 . S
C714 C715 1.370 . S
C714 C718 1.524 . S
C715 C707 1.503 . S
C715 C714 1.370 . S
C715 C716 1.403 . S
C716 C715 1.403 . S
C716 C717 1.404 . S
C716 C719 1.539 . S
C717 C713 1.408 . S
C717 C716 1.404 . S
C717 H729 0.930 . S
C718 C714 1.524 . S
C718 H730 0.956 . S
C718 H731 0.961 . S
C718 H732 0.961 . S
C719 C716 1.539 . S
C719 H733 0.958 . S
C719 H734 0.961 . S
C719 H735 0.960 . S
H720 C704 0.931 . S
H721 C709 0.929 . S
H722 C710 0.960 . S
H723 C710 0.962 . S
H724 C710 0.960 . S
H725 C711 0.961 . S
H726 C711 0.961 . S
H727 C711 0.961 . S
H728 C712 0.931 . S
H729 C717 0.930 . S
H730 C718 0.956 . S
H731 C718 0.961 . S
H732 C718 0.961 . S
H733 C719 0.958 . S
H734 C719 0.961 . S
H735 C719 0.960 . S
C736 C737 1.391 . S
C736 C738 1.394 . S
C736 H752 0.931 . S
C737 C736 1.391 . S
C737 C741 1.376 . S
C738 C736 1.394 . S
C738 C739 1.369 . S
C738 C742 1.531 . S
C739 C738 1.369 . S
C739 C740 1.410 . S
C739 C747 1.503 . S
C740 C739 1.410 . S
C740 C741 1.392 . S
C740 C743 1.511 . S
C741 C737 1.376 . S
C741 C740 1.392 . S
C741 H753 0.929 . S
C742 C738 1.531 . S
C742 H754 0.960 . S
C742 H755 0.962 . S
C742 H756 0.960 . S
C743 C740 1.511 . S
C743 H757 0.961 . S
C743 H758 0.961 . S
C743 H759 0.961 . S
C744 C745 1.370 . S
C744 C746 1.363 . S
C744 H760 0.931 . S
C745 C744 1.370 . S
C745 C749 1.408 . S
C746 C744 1.363 . S
C746 C747 1.370 . S
C746 C750 1.524 . S
C747 C739 1.503 . S
C747 C746 1.370 . S
C747 C748 1.403 . S
C748 C747 1.403 . S
C748 C749 1.404 . S
C748 C751 1.539 . S
C749 C745 1.408 . S
C749 C748 1.404 . S
C749 H761 0.930 . S
C750 C746 1.524 . S
C750 H762 0.956 . S
C750 H763 0.961 . S
C750 H764 0.961 . S
C751 C748 1.539 . S
C751 H765 0.958 . S
C751 H766 0.961 . S
C751 H767 0.960 . S
H752 C736 0.931 . S
H753 C741 0.929 . S
H754 C742 0.960 . S
H755 C742 0.962 . S
H756 C742 0.960 . S
H757 C743 0.961 . S
H758 C743 0.961 . S
H759 C743 0.961 . S
H760 C744 0.931 . S
H761 C749 0.930 . S
H762 C750 0.956 . S
H763 C750 0.961 . S
H764 C750 0.961 . S
H765 C751 0.958 . S
H766 C751 0.961 . S
H767 C751 0.960 . S
C768 C769 1.391 . S
C768 C770 1.394 . S
C768 H784 0.931 . S
C769 C768 1.391 . S
C769 C773 1.376 . S
C770 C768 1.394 . S
C770 C771 1.369 . S
C770 C774 1.531 . S
C771 C770 1.369 . S
C771 C772 1.410 . S
C771 C779 1.503 . S
C772 C771 1.410 . S
C772 C773 1.392 . S
C772 C775 1.511 . S
C773 C769 1.376 . S
C773 C772 1.392 . S
C773 H785 0.929 . S
C774 C770 1.531 . S
C774 H786 0.960 . S
C774 H787 0.962 . S
C774 H788 0.960 . S
C775 C772 1.511 . S
C775 H789 0.961 . S
C775 H790 0.961 . S
C775 H791 0.961 . S
C776 C777 1.370 . S
C776 C778 1.363 . S
C776 H792 0.931 . S
C777 C776 1.370 . S
C777 C781 1.408 . S
C778 C776 1.363 . S
C778 C779 1.370 . S
C778 C782 1.524 . S
C779 C771 1.503 . S
C779 C778 1.370 . S
C779 C780 1.403 . S
C780 C779 1.403 . S
C780 C781 1.404 . S
C780 C783 1.539 . S
C781 C777 1.408 . S
C781 C780 1.404 . S
C781 H793 0.930 . S
C782 C778 1.524 . S
C782 H794 0.956 . S
C782 H795 0.961 . S
C782 H796 0.961 . S
C783 C780 1.539 . S
C783 H797 0.958 . S
C783 H798 0.961 . S
C783 H799 0.960 . S
H784 C768 0.931 . S
H785 C773 0.929 . S
H786 C774 0.960 . S
H787 C774 0.962 . S
H788 C774 0.960 . S
H789 C775 0.961 . S
H790 C775 0.961 . S
H791 C775 0.961 . S
H792 C776 0.931 . S
H793 C781 0.930 . S
H794 C782 0.956 . S
H795 C782 0.961 . S
H796 C782 0.961 . S
H797 C783 0.958 . S
H798 C783 0.961 . S
H799 C783 0.960 . S
C800 C801 1.391 . S
C800 C802 1.394 . S
C800 H816 0.931 . S
C801 C800 1.391 . S
C801 C805 1.376 . S
C802 C800 1.394 . S
C802 C803 1.369 . S
C802 C806 1.531 . S
C803 C802 1.369 . S
C803 C804 1.410 . S
C803 C811 1.503 . S
C804 C803 1.410 . S
C804 C805 1.392 . S
C804 C807 1.511 . S
C805 C801 1.376 . S
C805 C804 1.392 . S
C805 H817 0.929 . S
C806 C802 1.531 . S
C806 H818 0.960 . S
C806 H819 0.962 . S
C806 H820 0.960 . S
C807 C804 1.511 . S
C807 H821 0.961 . S
C807 H822 0.961 . S
C807 H823 0.961 . S
C808 C809 1.370 . S
C808 C810 1.363 . S
C808 H824 0.931 . S
C809 C808 1.370 . S
C809 C813 1.408 . S
C810 C808 1.363 . S
C810 C811 1.370 . S
C810 C814 1.524 . S
C811 C803 1.503 . S
C811 C810 1.370 . S
C811 C812 1.403 . S
C812 C811 1.403 . S
C812 C813 1.404 . S
C812 C815 1.539 . S
C813 C809 1.408 . S
C813 C812 1.404 . S
C813 H825 0.930 . S
C814 C810 1.524 . S
C814 H826 0.956 . S
C814 H827 0.961 . S
C814 H828 0.961 . S
C815 C812 1.539 . S
C815 H829 0.958 . S
C815 H830 0.961 . S
C815 H831 0.960 . S
H816 C800 0.931 . S
H817 C805 0.929 . S
H818 C806 0.960 . S
H819 C806 0.962 . S
H820 C806 0.960 . S
H821 C807 0.961 . S
H822 C807 0.961 . S
H823 C807 0.961 . S
H824 C808 0.931 . S
H825 C813 0.930 . S
H826 C814 0.956 . S
H827 C814 0.961 . S
H828 C814 0.961 . S
H829 C815 0.958 . S
H830 C815 0.961 . S
H831 C815 0.960 . S
C832 C833 1.391 . S
C832 C834 1.394 . S
C832 H848 0.931 . S
C833 C832 1.391 . S
C833 C837 1.376 . S
C834 C832 1.394 . S
C834 C835 1.369 . S
C834 C838 1.531 . S
C835 C834 1.369 . S
C835 C836 1.410 . S
C835 C843 1.503 . S
C836 C835 1.410 . S
C836 C837 1.392 . S
C836 C839 1.511 . S
C837 C833 1.376 . S
C837 C836 1.392 . S
C837 H849 0.929 . S
C838 C834 1.531 . S
C838 H850 0.960 . S
C838 H851 0.962 . S
C838 H852 0.985 . S
C839 C836 1.511 . S
C839 H853 0.961 . S
C839 H854 0.961 . S
C839 H855 0.961 . S
C840 C841 1.370 . S
C840 C842 1.363 . S
C840 H856 0.931 . S
C841 C840 1.370 . S
C841 C845 1.408 . S
C842 C840 1.363 . S
C842 C843 1.370 . S
C842 C846 1.524 . S
C843 C835 1.503 . S
C843 C842 1.370 . S
C843 C844 1.403 . S
C844 C843 1.403 . S
C844 C845 1.404 . S
C844 C847 1.539 . S
C845 C841 1.408 . S
C845 C844 1.404 . S
C845 H857 0.930 . S
C846 C842 1.524 . S
C846 H858 0.956 . S
C846 H859 0.961 . S
C846 H860 0.961 . S
C847 C844 1.539 . S
C847 H861 0.958 . S
C847 H862 0.961 . S
C847 H863 0.960 . S
H848 C832 0.931 . S
H849 C837 0.929 . S
H850 C838 0.960 . S
H851 C838 0.962 . S
H852 C838 0.985 . S
H853 C839 0.961 . S
H854 C839 0.961 . S
H855 C839 0.961 . S
H856 C840 0.931 . S
H857 C845 0.930 . S
H858 C846 0.956 . S
H859 C846 0.961 . S
H860 C846 0.961 . S
H861 C847 0.958 . S
H862 C847 0.961 . S
H863 C847 0.960 . S
C864 C865 1.391 . S
C864 C866 1.394 . S
C864 H880 0.931 . S
C865 C864 1.391 . S
C865 C869 1.376 . S
C866 C864 1.394 . S
C866 C867 1.369 . S
C866 C870 1.531 . S
C867 C866 1.369 . S
C867 C868 1.410 . S
C867 C875 1.503 . S
C868 C867 1.410 . S
C868 C869 1.392 . S
C868 C871 1.511 . S
C869 C865 1.376 . S
C869 C868 1.392 . S
C869 H881 0.929 . S
C870 C866 1.531 . S
C870 H882 0.960 . S
C870 H883 0.962 . S
C870 H884 0.960 . S
C871 C868 1.511 . S
C871 H885 0.961 . S
C871 H886 0.961 . S
C871 H887 0.961 . S
C872 C873 1.370 . S
C872 C874 1.363 . S
C872 H888 0.931 . S
C873 C872 1.370 . S
C873 C877 1.408 . S
C874 C872 1.363 . S
C874 C875 1.370 . S
C874 C878 1.524 . S
C875 C867 1.503 . S
C875 C874 1.370 . S
C875 C876 1.403 . S
C876 C875 1.403 . S
C876 C877 1.404 . S
C876 C879 1.539 . S
C877 C873 1.408 . S
C877 C876 1.404 . S
C877 H889 0.930 . S
C878 C874 1.524 . S
C878 H890 0.956 . S
C878 H891 0.961 . S
C878 H892 0.961 . S
C879 C876 1.539 . S
C879 H893 0.958 . S
C879 H894 0.961 . S
C879 H895 0.960 . S
H880 C864 0.931 . S
H881 C869 0.929 . S
H882 C870 0.960 . S
H883 C870 0.962 . S
H884 C870 0.960 . S
H885 C871 0.961 . S
H886 C871 0.961 . S
H887 C871 0.961 . S
H888 C872 0.931 . S
H889 C877 0.930 . S
H890 C878 0.956 . S
H891 C878 0.961 . S
H892 C878 0.961 . S
H893 C879 0.958 . S
H894 C879 0.961 . S
H895 C879 0.960 . S
C896 C897 1.391 . S
C896 C898 1.394 . S
C896 H912 0.931 . S
C897 C896 1.391 . S
C897 C901 1.376 . S
C898 C896 1.394 . S
C898 C899 1.369 . S
C898 C902 1.531 . S
C899 C898 1.369 . S
C899 C900 1.410 . S
C899 C907 1.503 . S
C900 C899 1.410 . S
C900 C901 1.392 . S
C900 C903 1.511 . S
C901 C897 1.376 . S
C901 C900 1.392 . S
C901 H913 0.929 . S
C902 C898 1.531 . S
C902 H914 0.960 . S
C902 H915 0.962 . S
C902 H916 0.960 . S
C903 C900 1.511 . S
C903 H917 0.961 . S
C903 H918 0.961 . S
C903 H919 0.961 . S
C904 C905 1.370 . S
C904 C906 1.363 . S
C904 H920 0.931 . S
C905 C904 1.370 . S
C905 C909 1.408 . S
C906 C904 1.363 . S
C906 C907 1.370 . S
C906 C910 1.524 . S
C907 C899 1.503 . S
C907 C906 1.370 . S
C907 C908 1.403 . S
C908 C907 1.403 . S
C908 C909 1.404 . S
C908 C911 1.539 . S
C909 C905 1.408 . S
C909 C908 1.404 . S
C909 H921 0.930 . S
C910 C906 1.524 . S
C910 H922 0.956 . S
C910 H923 0.961 . S
C910 H924 0.961 . S
C911 C908 1.539 . S
C911 H925 0.958 . S
C911 H926 0.961 . S
C911 H927 0.960 . S
H912 C896 0.931 . S
H913 C901 0.929 . S
H914 C902 0.960 . S
H915 C902 0.962 . S
H916 C902 0.960 . S
H917 C903 0.961 . S
H918 C903 0.961 . S
H919 C903 0.961 . S
H920 C904 0.931 . S
H921 C909 0.930 . S
H922 C910 0.956 . S
H923 C910 0.961 . S
H924 C910 0.961 . S
H925 C911 0.958 . S
H926 C911 0.961 . S
H927 C911 0.960 . S
C928 C929 1.391 . S
C928 C930 1.394 . S
C928 H944 0.931 . S
C929 C928 1.391 . S
C929 C933 1.376 . S
C930 C928 1.394 . S
C930 C931 1.369 . S
C930 C934 1.531 . S
C931 C930 1.369 . S
C931 C932 1.410 . S
C931 C939 1.503 . S
C932 C931 1.410 . S
C932 C933 1.392 . S
C932 C935 1.511 . S
C933 C929 1.376 . S
C933 C932 1.392 . S
C933 H945 0.929 . S
C934 C930 1.531 . S
C934 H946 0.960 . S
C934 H947 0.962 . S
C934 H948 0.960 . S
C935 C932 1.511 . S
C935 H949 0.961 . S
C935 H950 0.961 . S
C935 H951 0.961 . S
C936 C937 1.370 . S
C936 C938 1.363 . S
C936 H952 0.931 . S
C937 C936 1.370 . S
C937 C941 1.408 . S
C938 C936 1.363 . S
C938 C939 1.370 . S
C938 C942 1.524 . S
C939 C931 1.503 . S
C939 C938 1.370 . S
C939 C940 1.403 . S
C940 C939 1.403 . S
C940 C941 1.404 . S
C940 C943 1.539 . S
C941 C937 1.408 . S
C941 C940 1.404 . S
C941 H953 0.930 . S
C942 C938 1.524 . S
C942 H954 0.956 . S
C942 H955 0.961 . S
C942 H956 0.961 . S
C943 C940 1.539 . S
C943 H957 0.958 . S
C943 H958 0.961 . S
C943 H959 0.960 . S
H944 C928 0.931 . S
H945 C933 0.929 . S
H946 C934 0.960 . S
H947 C934 0.962 . S
H948 C934 0.960 . S
H949 C935 0.961 . S
H950 C935 0.961 . S
H951 C935 0.961 . S
H952 C936 0.931 . S
H953 C941 0.930 . S
H954 C942 0.956 . S
H955 C942 0.961 . S
H956 C942 0.961 . S
H957 C943 0.958 . S
H958 C943 0.961 . S
H959 C943 0.960 . S
C960 C961 1.391 . S
C960 C962 1.394 . S
C960 H976 0.931 . S
C961 C960 1.391 . S
C961 C965 1.376 . S
C962 C960 1.394 . S
C962 C963 1.369 . S
C962 C966 1.531 . S
C963 C962 1.369 . S
C963 C964 1.410 . S
C963 C971 1.503 . S
C964 C963 1.410 . S
C964 C965 1.392 . S
C964 C967 1.511 . S
C965 C961 1.376 . S
C965 C964 1.392 . S
C965 H977 0.929 . S
C966 C962 1.531 . S
C966 H978 0.960 . S
C966 H979 0.962 . S
C966 H980 0.960 . S
C967 C964 1.511 . S
C967 H981 0.961 . S
C967 H982 0.961 . S
C967 H983 0.961 . S
C968 C969 1.370 . S
C968 C970 1.363 . S
C968 H984 0.931 . S
C969 C968 1.370 . S
C969 C973 1.408 . S
C970 C968 1.363 . S
C970 C971 1.370 . S
C970 C974 1.524 . S
C971 C963 1.503 . S
C971 C970 1.370 . S
C971 C972 1.403 . S
C972 C971 1.403 . S
C972 C973 1.404 . S
C972 C975 1.539 . S
C973 C969 1.408 . S
C973 C972 1.404 . S
C973 H985 0.930 . S
C974 C970 1.524 . S
C974 H986 0.956 . S
C974 H987 0.961 . S
C974 H988 0.961 . S
C975 C972 1.539 . S
C975 H989 0.958 . S
C975 H990 0.961 . S
C975 H991 0.960 . S
H976 C960 0.931 . S
H977 C965 0.929 . S
H978 C966 0.960 . S
H979 C966 0.962 . S
H980 C966 0.960 . S
H981 C967 0.961 . S
H982 C967 0.961 . S
H983 C967 0.961 . S
H984 C968 0.931 . S
H985 C973 0.930 . S
H986 C974 0.956 . S
H987 C974 0.961 . S
H988 C974 0.961 . S
H989 C975 0.958 . S
H990 C975 0.961 . S
H991 C975 0.960 . S
C992 C993 1.391 . S
C992 C994 1.394 . S
C992 H1008 0.931 . S
C993 C992 1.391 . S
C993 C997 1.376 . S
C994 C992 1.394 . S
C994 C995 1.369 . S
C994 C998 1.531 . S
C995 C994 1.369 . S
C995 C996 1.410 . S
C995 C1003 1.503 . S
C996 C995 1.410 . S
C996 C997 1.392 . S
C996 C999 1.511 . S
C997 C993 1.376 . S
C997 C996 1.392 . S
C997 H1009 0.929 . S
C998 C994 1.531 . S
C998 H1010 0.960 . S
C998 H1011 0.962 . S
C998 H1012 0.960 . S
C999 C996 1.511 . S
C999 H1013 0.961 . S
C999 H1014 0.961 . S
C999 H1015 0.961 . S
C1000 C1001 1.370 . S
C1000 C1002 1.363 . S
C1000 H1016 0.931 . S
C1001 C1000 1.370 . S
C1001 C1005 1.408 . S
C1002 C1000 1.363 . S
C1002 C1003 1.370 . S
C1002 C1006 1.524 . S
C1003 C995 1.503 . S
C1003 C1002 1.370 . S
C1003 C1004 1.403 . S
C1004 C1003 1.403 . S
C1004 C1005 1.404 . S
C1004 C1007 1.539 . S
C1005 C1001 1.408 . S
C1005 C1004 1.404 . S
C1005 H1017 0.930 . S
C1006 C1002 1.524 . S
C1006 H1018 0.956 . S
C1006 H1019 0.961 . S
C1006 H1020 0.961 . S
C1007 C1004 1.539 . S
C1007 H1021 0.958 . S
C1007 H1022 0.961 . S
C1007 H1023 0.960 . S
H1008 C992 0.931 . S
H1009 C997 0.929 . S
H1010 C998 0.960 . S
H1011 C998 0.962 . S
H1012 C998 0.960 . S
H1013 C999 0.961 . S
H1014 C999 0.961 . S
H1015 C999 0.961 . S
H1016 C1000 0.931 . S
H1017 C1005 0.930 . S
H1018 C1006 0.956 . S
H1019 C1006 0.961 . S
H1020 C1006 0.961 . S
H1021 C1007 0.958 . S
H1022 C1007 0.961 . S
H1023 C1007 0.960 . S
C1024 C1025 1.391 . S
C1024 C1026 1.394 . S
C1024 H1040 0.931 . S
C1025 C1024 1.391 . S
C1025 C1029 1.376 . S
C1026 C1024 1.394 . S
C1026 C1027 1.369 . S
C1026 C1030 1.531 . S
C1027 C1026 1.369 . S
C1027 C1028 1.410 . S
C1027 C1035 1.503 . S
C1028 C1027 1.410 . S
C1028 C1029 1.392 . S
C1028 C1031 1.511 . S
C1029 C1025 1.376 . S
C1029 C1028 1.392 . S
C1029 H1041 0.929 . S
C1030 C1026 1.531 . S
C1030 H1042 0.960 . S
C1030 H1043 0.962 . S
C1030 H1044 0.960 . S
C1031 C1028 1.511 . S
C1031 H1045 0.961 . S
C1031 H1046 0.961 . S
C1031 H1047 0.961 . S
C1032 C1033 1.370 . S
C1032 C1034 1.363 . S
C1032 H1048 0.931 . S
C1033 C1032 1.370 . S
C1033 C1037 1.408 . S
C1034 C1032 1.363 . S
C1034 C1035 1.370 . S
C1034 C1038 1.524 . S
C1035 C1027 1.503 . S
C1035 C1034 1.370 . S
C1035 C1036 1.403 . S
C1036 C1035 1.403 . S
C1036 C1037 1.404 . S
C1036 C1039 1.539 . S
C1037 C1033 1.408 . S
C1037 C1036 1.404 . S
C1037 H1049 0.930 . S
C1038 C1034 1.524 . S
C1038 H1050 0.956 . S
C1038 H1051 0.961 . S
C1038 H1052 0.961 . S
C1039 C1036 1.539 . S
C1039 H1053 0.958 . S
C1039 H1054 0.961 . S
C1039 H1055 0.960 . S
H1040 C1024 0.931 . S
H1041 C1029 0.929 . S
H1042 C1030 0.960 . S
H1043 C1030 0.962 . S
H1044 C1030 0.960 . S
H1045 C1031 0.961 . S
H1046 C1031 0.961 . S
H1047 C1031 0.961 . S
H1048 C1032 0.931 . S
H1049 C1037 0.930 . S
H1050 C1038 0.956 . S
H1051 C1038 0.961 . S
H1052 C1038 0.961 . S
H1053 C1039 0.958 . S
H1054 C1039 0.961 . S
H1055 C1039 0.960 . S
C1056 C1057 1.391 . S
C1056 C1058 1.394 . S
C1056 H1072 0.931 . S
C1057 C1056 1.391 . S
C1057 C1061 1.376 . S
C1058 C1056 1.394 . S
C1058 C1059 1.369 . S
C1058 C1062 1.531 . S
C1059 C1058 1.369 . S
C1059 C1060 1.410 . S
C1059 C1067 1.503 . S
C1060 C1059 1.410 . S
C1060 C1061 1.392 . S
C1060 C1063 1.511 . S
C1061 C1057 1.376 . S
C1061 C1060 1.392 . S
C1061 H1073 0.929 . S
C1062 C1058 1.531 . S
C1062 H1074 0.960 . S
C1062 H1075 0.962 . S
C1062 H1076 0.960 . S
C1063 C1060 1.511 . S
C1063 H1077 0.961 . S
C1063 H1078 0.961 . S
C1063 H1079 0.961 . S
C1064 C1065 1.370 . S
C1064 C1066 1.363 . S
C1064 H1080 0.931 . S
C1065 C1064 1.370 . S
C1065 C1069 1.408 . S
C1066 C1064 1.363 . S
C1066 C1067 1.370 . S
C1066 C1070 1.524 . S
C1067 C1059 1.503 . S
C1067 C1066 1.370 . S
C1067 C1068 1.403 . S
C1068 C1067 1.403 . S
C1068 C1069 1.404 . S
C1068 C1071 1.539 . S
C1069 C1065 1.408 . S
C1069 C1068 1.404 . S
C1069 H1081 0.930 . S
C1070 C1066 1.524 . S
C1070 H1082 0.956 . S
C1070 H1083 0.961 . S
C1070 H1084 0.961 . S
C1071 C1068 1.539 . S
C1071 H1085 0.958 . S
C1071 H1086 0.961 . S
C1071 H1087 0.960 . S
H1072 C1056 0.931 . S
H1073 C1061 0.929 . S
H1074 C1062 0.960 . S
H1075 C1062 0.962 . S
H1076 C1062 0.960 . S
H1077 C1063 0.961 . S
H1078 C1063 0.961 . S
H1079 C1063 0.961 . S
H1080 C1064 0.931 . S
H1081 C1069 0.930 . S
H1082 C1070 0.956 . S
H1083 C1070 0.961 . S
H1084 C1070 0.961 . S
H1085 C1071 0.958 . S
H1086 C1071 0.961 . S
H1087 C1071 0.960 . S
C1088 C1089 1.391 . S
C1088 C1090 1.394 . S
C1088 H1104 0.931 . S
C1089 C1088 1.391 . S
C1089 C1093 1.376 . S
C1090 C1088 1.394 . S
C1090 C1091 1.369 . S
C1090 C1094 1.531 . S
C1091 C1090 1.369 . S
C1091 C1092 1.410 . S
C1091 C1099 1.503 . S
C1092 C1091 1.410 . S
C1092 C1093 1.392 . S
C1092 C1095 1.511 . S
C1093 C1089 1.376 . S
C1093 C1092 1.392 . S
C1093 H1105 0.929 . S
C1094 C1090 1.531 . S
C1094 H1106 0.960 . S
C1094 H1107 0.962 . S
C1094 H1108 0.960 . S
C1095 C1092 1.511 . S
C1095 H1109 0.961 . S
C1095 H1110 0.961 . S
C1095 H1111 0.961 . S
C1096 C1097 1.370 . S
C1096 C1098 1.363 . S
C1096 H1112 0.931 . S
C1097 C1096 1.370 . S
C1097 C1101 1.408 . S
C1098 C1096 1.363 . S
C1098 C1099 1.370 . S
C1098 C1102 1.524 . S
C1099 C1091 1.503 . S
C1099 C1098 1.370 . S
C1099 C1100 1.403 . S
C1100 C1099 1.403 . S
C1100 C1101 1.404 . S
C1100 C1103 1.539 . S
C1101 C1097 1.408 . S
C1101 C1100 1.404 . S
C1101 H1113 0.930 . S
C1102 C1098 1.524 . S
C1102 H1114 0.956 . S
C1102 H1115 0.961 . S
C1102 H1116 0.961 . S
C1103 C1100 1.539 . S
C1103 H1117 0.958 . S
C1103 H1118 0.961 . S
C1103 H1119 0.960 . S
H1104 C1088 0.931 . S
H1105 C1093 0.929 . S
H1106 C1094 0.960 . S
H1107 C1094 0.962 . S
H1108 C1094 0.960 . S
H1109 C1095 0.961 . S
H1110 C1095 0.961 . S
H1111 C1095 0.961 . S
H1112 C1096 0.931 . S
H1113 C1101 0.930 . S
H1114 C1102 0.956 . S
H1115 C1102 0.961 . S
H1116 C1102 0.961 . S
H1117 C1103 0.958 . S
H1118 C1103 0.961 . S
H1119 C1103 0.960 . S
C1120 C1121 1.391 . S
C1120 C1122 1.394 . S
C1120 H1136 0.931 . S
C1121 C1120 1.391 . S
C1121 C1125 1.376 . S
C1122 C1120 1.394 . S
C1122 C1123 1.369 . S
C1122 C1126 1.531 . S
C1123 C1122 1.369 . S
C1123 C1124 1.410 . S
C1123 C1131 1.503 . S
C1124 C1123 1.410 . S
C1124 C1125 1.392 . S
C1124 C1127 1.511 . S
C1125 C1121 1.376 . S
C1125 C1124 1.392 . S
C1125 H1137 0.929 . S
C1126 C1122 1.531 . S
C1126 H1138 0.960 . S
C1126 H1139 0.962 . S
C1126 H1140 0.960 . S
C1127 C1124 1.511 . S
C1127 H1141 0.961 . S
C1127 H1142 0.961 . S
C1127 H1143 0.961 . S
C1128 C1129 1.370 . S
C1128 C1130 1.363 . S
C1128 H1144 0.931 . S
C1129 C1128 1.370 . S
C1129 C1133 1.408 . S
C1130 C1128 1.363 . S
C1130 C1131 1.370 . S
C1130 C1134 1.524 . S
C1131 C1123 1.503 . S
C1131 C1130 1.370 . S
C1131 C1132 1.403 . S
C1132 C1131 1.403 . S
C1132 C1133 1.404 . S
C1132 C1135 1.539 . S
C1133 C1129 1.408 . S
C1133 C1132 1.404 . S
C1133 H1145 0.930 . S
C1134 C1130 1.524 . S
C1134 H1146 0.956 . S
C1134 H1147 0.961 . S
C1134 H1148 0.961 . S
C1135 C1132 1.539 . S
C1135 H1149 0.958 . S
C1135 H1150 0.961 . S
C1135 H1151 0.960 . S
H1136 C1120 0.931 . S
H1137 C1125 0.929 . S
H1138 C1126 0.960 . S
H1139 C1126 0.962 . S
H1140 C1126 0.960 . S
H1141 C1127 0.961 . S
H1142 C1127 0.961 . S
H1143 C1127 0.961 . S
H1144 C1128 0.931 . S
H1145 C1133 0.930 . S
H1146 C1134 0.956 . S
H1147 C1134 0.961 . S
H1148 C1134 0.961 . S
H1149 C1135 0.958 . S
H1150 C1135 0.961 . S
H1151 C1135 0.960 . S
C1152 C1153 1.391 . S
C1152 C1154 1.394 . S
C1152 H1168 0.931 . S
C1153 C1152 1.391 . S
C1153 C1157 1.376 . S
C1154 C1152 1.394 . S
C1154 C1155 1.369 . S
C1154 C1158 1.531 . S
C1155 C1154 1.369 . S
C1155 C1156 1.410 . S
C1155 C1163 1.503 . S
C1156 C1155 1.410 . S
C1156 C1157 1.392 . S
C1156 C1159 1.511 . S
C1157 C1153 1.376 . S
C1157 C1156 1.392 . S
C1157 H1169 0.929 . S
C1158 C1154 1.531 . S
C1158 H1170 0.960 . S
C1158 H1171 0.962 . S
C1158 H1172 0.960 . S
C1159 C1156 1.511 . S
C1159 H1173 0.961 . S
C1159 H1174 0.961 . S
C1159 H1175 0.961 . S
C1160 C1161 1.370 . S
C1160 C1162 1.363 . S
C1160 H1176 0.931 . S
C1161 C1160 1.370 . S
C1161 C1165 1.408 . S
C1162 C1160 1.363 . S
C1162 C1163 1.370 . S
C1162 C1166 1.524 . S
C1163 C1155 1.503 . S
C1163 C1162 1.370 . S
C1163 C1164 1.403 . S
C1164 C1163 1.403 . S
C1164 C1165 1.404 . S
C1164 C1167 1.539 . S
C1165 C1161 1.408 . S
C1165 C1164 1.404 . S
C1165 H1177 0.930 . S
C1166 C1162 1.524 . S
C1166 H1178 0.956 . S
C1166 H1179 0.961 . S
C1166 H1180 0.961 . S
C1167 C1164 1.539 . S
C1167 H1181 0.958 . S
C1167 H1182 0.961 . S
C1167 H1183 0.960 . S
H1168 C1152 0.931 . S
H1169 C1157 0.929 . S
H1170 C1158 0.960 . S
H1171 C1158 0.962 . S
H1172 C1158 0.960 . S
H1173 C1159 0.961 . S
H1174 C1159 0.961 . S
H1175 C1159 0.961 . S
H1176 C1160 0.931 . S
H1177 C1165 0.930 . S
H1178 C1166 0.956 . S
H1179 C1166 0.961 . S
H1180 C1166 0.961 . S
H1181 C1167 0.958 . S
H1182 C1167 0.961 . S
H1183 C1167 0.960 . S
C1184 C1185 1.391 . S
C1184 C1186 1.394 . S
C1184 H1200 0.931 . S
C1185 C1184 1.391 . S
C1185 C1189 1.376 . S
C1186 C1184 1.394 . S
C1186 C1187 1.369 . S
C1186 C1190 1.531 . S
C1187 C1186 1.369 . S
C1187 C1188 1.410 . S
C1187 C1195 1.503 . S
C1188 C1187 1.410 . S
C1188 C1189 1.392 . S
C1188 C1191 1.511 . S
C1189 C1185 1.376 . S
C1189 C1188 1.392 . S
C1189 H1201 0.929 . S
C1190 C1186 1.531 . S
C1190 H1202 0.960 . S
C1190 H1203 0.962 . S
C1190 H1204 0.960 . S
C1191 C1188 1.511 . S
C1191 H1205 0.961 . S
C1191 H1206 0.961 . S
C1191 H1207 0.961 . S
C1192 C1193 1.370 . S
C1192 C1194 1.363 . S
C1192 H1208 0.931 . S
C1193 C1192 1.370 . S
C1193 C1197 1.408 . S
C1194 C1192 1.363 . S
C1194 C1195 1.370 . S
C1194 C1198 1.524 . S
C1195 C1187 1.503 . S
C1195 C1194 1.370 . S
C1195 C1196 1.403 . S
C1196 C1195 1.403 . S
C1196 C1197 1.404 . S
C1196 C1199 1.539 . S
C1197 C1193 1.408 . S
C1197 C1196 1.404 . S
C1197 H1209 0.930 . S
C1198 C1194 1.524 . S
C1198 H1210 0.956 . S
C1198 H1211 0.961 . S
C1198 H1212 0.961 . S
C1199 C1196 1.539 . S
C1199 H1213 0.958 . S
C1199 H1214 0.961 . S
C1199 H1215 0.960 . S
H1200 C1184 0.931 . S
H1201 C1189 0.929 . S
H1202 C1190 0.960 . S
H1203 C1190 0.962 . S
H1204 C1190 0.960 . S
H1205 C1191 0.961 . S
H1206 C1191 0.961 . S
H1207 C1191 0.961 . S
H1208 C1192 0.931 . S
H1209 C1197 0.930 . S
H1210 C1198 0.956 . S
H1211 C1198 0.961 . S
H1212 C1198 0.961 . S
H1213 C1199 0.958 . S
H1214 C1199 0.961 . S
H1215 C1199 0.960 . S
C1216 C1217 1.391 . S
C1216 C1218 1.394 . S
C1216 H1232 0.931 . S
C1217 C1216 1.391 . S
C1217 C1221 1.376 . S
C1218 C1216 1.394 . S
C1218 C1219 1.369 . S
C1218 C1222 1.531 . S
C1219 C1218 1.369 . S
C1219 C1220 1.410 . S
C1219 C1227 1.503 . S
C1220 C1219 1.410 . S
C1220 C1221 1.392 . S
C1220 C1223 1.511 . S
C1221 C1217 1.376 . S
C1221 C1220 1.392 . S
C1221 H1233 0.929 . S
C1222 C1218 1.531 . S
C1222 H1234 0.960 . S
C1222 H1235 0.962 . S
C1222 H1236 0.960 . S
C1223 C1220 1.511 . S
C1223 H1237 0.961 . S
C1223 H1238 0.961 . S
C1223 H1239 0.961 . S
C1224 C1225 1.370 . S
C1224 C1226 1.363 . S
C1224 H1240 0.931 . S
C1225 C1224 1.370 . S
C1225 C1229 1.408 . S
C1226 C1224 1.363 . S
C1226 C1227 1.370 . S
C1226 C1230 1.524 . S
C1227 C1219 1.503 . S
C1227 C1226 1.370 . S
C1227 C1228 1.403 . S
C1228 C1227 1.403 . S
C1228 C1229 1.404 . S
C1228 C1231 1.539 . S
C1229 C1225 1.408 . S
C1229 C1228 1.404 . S
C1229 H1241 0.930 . S
C1230 C1226 1.524 . S
C1230 H1242 0.956 . S
C1230 H1243 0.961 . S
C1230 H1244 0.961 . S
C1231 C1228 1.539 . S
C1231 H1245 0.958 . S
C1231 H1246 0.961 . S
C1231 H1247 0.960 . S
H1232 C1216 0.931 . S
H1233 C1221 0.929 . S
H1234 C1222 0.960 . S
H1235 C1222 0.962 . S
H1236 C1222 0.960 . S
H1237 C1223 0.961 . S
H1238 C1223 0.961 . S
H1239 C1223 0.961 . S
H1240 C1224 0.931 . S
H1241 C1229 0.930 . S
H1242 C1230 0.956 . S
H1243 C1230 0.961 . S
H1244 C1230 0.961 . S
H1245 C1231 0.958 . S
H1246 C1231 0.961 . S
H1247 C1231 0.960 . S
C1248 C1249 1.391 . S
C1248 C1250 1.394 . S
C1248 H1264 0.931 . S
C1249 C1248 1.391 . S
C1249 C1253 1.376 . S
C1250 C1248 1.394 . S
C1250 C1251 1.369 . S
C1250 C1254 1.531 . S
C1251 C1250 1.369 . S
C1251 C1252 1.410 . S
C1251 C1259 1.503 . S
C1252 C1251 1.410 . S
C1252 C1253 1.392 . S
C1252 C1255 1.511 . S
C1253 C1249 1.376 . S
C1253 C1252 1.392 . S
C1253 H1265 0.929 . S
C1254 C1250 1.531 . S
C1254 H1266 0.960 . S
C1254 H1267 0.962 . S
C1254 H1268 0.960 . S
C1255 C1252 1.511 . S
C1255 H1269 0.961 . S
C1255 H1270 0.961 . S
C1255 H1271 0.961 . S
C1256 C1257 1.370 . S
C1256 C1258 1.363 . S
C1256 H1272 0.931 . S
C1257 C1256 1.370 . S
C1257 C1261 1.408 . S
C1258 C1256 1.363 . S
C1258 C1259 1.370 . S
C1258 C1262 1.524 . S
C1259 C1251 1.503 . S
C1259 C1258 1.370 . S
C1259 C1260 1.403 . S
C1260 C1259 1.403 . S
C1260 C1261 1.404 . S
C1260 C1263 1.539 . S
C1261 C1257 1.408 . S
C1261 C1260 1.404 . S
C1261 H1273 0.930 . S
C1262 C1258 1.524 . S
C1262 H1274 0.956 . S
C1262 H1275 0.961 . S
C1262 H1276 0.961 . S
C1263 C1260 1.539 . S
C1263 H1277 0.958 . S
C1263 H1278 0.961 . S
C1263 H1279 0.960 . S
H1264 C1248 0.931 . S
H1265 C1253 0.929 . S
H1266 C1254 0.960 . S
H1267 C1254 0.962 . S
H1268 C1254 0.960 . S
H1269 C1255 0.961 . S
H1270 C1255 0.961 . S
H1271 C1255 0.961 . S
H1272 C1256 0.931 . S
H1273 C1261 0.930 . S
H1274 C1262 0.956 . S
H1275 C1262 0.961 . S
H1276 C1262 0.961 . S
H1277 C1263 0.958 . S
H1278 C1263 0.961 . S
H1279 C1263 0.960 . S
C1280 C1281 1.391 . S
C1280 C1282 1.394 . S
C1280 H1296 0.931 . S
C1281 C1280 1.391 . S
C1281 C1285 1.376 . S
C1282 C1280 1.394 . S
C1282 C1283 1.369 . S
C1282 C1286 1.531 . S
C1283 C1282 1.369 . S
C1283 C1284 1.410 . S
C1283 C1291 1.503 . S
C1284 C1283 1.410 . S
C1284 C1285 1.392 . S
C1284 C1287 1.511 . S
C1285 C1281 1.376 . S
C1285 C1284 1.392 . S
C1285 H1297 0.929 . S
C1286 C1282 1.531 . S
C1286 H1298 0.960 . S
C1286 H1299 0.962 . S
C1286 H1300 0.960 . S
C1287 C1284 1.511 . S
C1287 H1301 0.961 . S
C1287 H1302 0.961 . S
C1287 H1303 0.961 . S
C1288 C1289 1.370 . S
C1288 C1290 1.363 . S
C1288 H1304 0.931 . S
C1289 C1288 1.370 . S
C1289 C1293 1.408 . S
C1290 C1288 1.363 . S
C1290 C1291 1.370 . S
C1290 C1294 1.524 . S
C1291 C1283 1.503 . S
C1291 C1290 1.370 . S
C1291 C1292 1.403 . S
C1292 C1291 1.403 . S
C1292 C1293 1.404 . S
C1292 C1295 1.539 . S
C1293 C1289 1.408 . S
C1293 C1292 1.404 . S
C1293 H1305 0.930 . S
C1294 C1290 1.524 . S
C1294 H1306 0.956 . S
C1294 H1307 0.961 . S
C1294 H1308 0.961 . S
C1295 C1292 1.539 . S
C1295 H1309 0.958 . S
C1295 H1310 0.961 . S
C1295 H1311 0.960 . S
H1296 C1280 0.931 . S
H1297 C1285 0.929 . S
H1298 C1286 0.960 . S
H1299 C1286 0.962 . S
H1300 C1286 0.960 . S
H1301 C1287 0.961 . S
H1302 C1287 0.961 . S
H1303 C1287 0.961 . S
H1304 C1288 0.931 . S
H1305 C1293 0.930 . S
H1306 C1294 0.956 . S
H1307 C1294 0.961 . S
H1308 C1294 0.961 . S
H1309 C1295 0.958 . S
H1310 C1295 0.961 . S
H1311 C1295 0.960 . S
C1312 C1313 1.391 . S
C1312 C1314 1.394 . S
C1312 H1328 0.931 . S
C1313 C1312 1.391 . S
C1313 C1317 1.376 . S
C1314 C1312 1.394 . S
C1314 C1315 1.369 . S
C1314 C1318 1.531 . S
C1315 C1314 1.369 . S
C1315 C1316 1.410 . S
C1315 C1323 1.503 . S
C1316 C1315 1.410 . S
C1316 C1317 1.392 . S
C1316 C1319 1.511 . S
C1317 C1313 1.376 . S
C1317 C1316 1.392 . S
C1317 H1329 0.929 . S
C1318 C1314 1.531 . S
C1318 H1330 0.960 . S
C1318 H1331 0.962 . S
C1318 H1332 0.960 . S
C1319 C1316 1.511 . S
C1319 H1333 0.961 . S
C1319 H1334 0.961 . S
C1319 H1335 0.961 . S
C1320 C1321 1.370 . S
C1320 C1322 1.363 . S
C1320 H1336 0.931 . S
C1321 C1320 1.370 . S
C1321 C1325 1.408 . S
C1322 C1320 1.363 . S
C1322 C1323 1.370 . S
C1322 C1326 1.524 . S
C1323 C1315 1.503 . S
C1323 C1322 1.370 . S
C1323 C1324 1.403 . S
C1324 C1323 1.403 . S
C1324 C1325 1.404 . S
C1324 C1327 1.539 . S
C1325 C1321 1.408 . S
C1325 C1324 1.404 . S
C1325 H1337 0.930 . S
C1326 C1322 1.524 . S
C1326 H1338 0.956 . S
C1326 H1339 0.961 . S
C1326 H1340 0.961 . S
C1327 C1324 1.539 . S
C1327 H1341 0.958 . S
C1327 H1342 0.961 . S
C1327 H1343 0.960 . S
H1328 C1312 0.931 . S
H1329 C1317 0.929 . S
H1330 C1318 0.960 . S
H1331 C1318 0.962 . S
H1332 C1318 0.960 . S
H1333 C1319 0.961 . S
H1334 C1319 0.961 . S
H1335 C1319 0.961 . S
H1336 C1320 0.931 . S
H1337 C1325 0.930 . S
H1338 C1326 0.956 . S
H1339 C1326 0.961 . S
H1340 C1326 0.961 . S
H1341 C1327 0.958 . S
H1342 C1327 0.961 . S
H1343 C1327 0.960 . S
C1344 C1345 1.391 . S
C1344 C1346 1.394 . S
C1344 H1360 0.931 . S
C1345 C1344 1.391 . S
C1345 C1349 1.376 . S
C1346 C1344 1.394 . S
C1346 C1347 1.369 . S
C1346 C1350 1.531 . S
C1347 C1346 1.369 . S
C1347 C1348 1.410 . S
C1347 C1355 1.503 . S
C1348 C1347 1.410 . S
C1348 C1349 1.392 . S
C1348 C1351 1.511 . S
C1349 C1345 1.376 . S
C1349 C1348 1.392 . S
C1349 H1361 0.929 . S
C1350 C1346 1.531 . S
C1350 H1362 0.960 . S
C1350 H1363 0.962 . S
C1350 H1364 0.960 . S
C1351 C1348 1.511 . S
C1351 H1365 0.957 . S
C1351 H1366 0.961 . S
C1351 H1367 0.961 1_545 S
C1352 C1353 1.370 . S
C1352 C1354 1.363 . S
C1352 H1368 0.931 . S
C1353 C1352 1.370 . S
C1353 C1357 1.408 . S
C1354 C1352 1.363 . S
C1354 C1355 1.370 . S
C1354 C1358 1.524 . S
C1355 C1347 1.503 . S
C1355 C1354 1.370 . S
C1355 C1356 1.403 . S
C1356 C1355 1.403 . S
C1356 C1357 1.404 . S
C1356 C1359 1.539 1_556 S
C1357 C1353 1.408 . S
C1357 C1356 1.404 . S
C1357 H1369 0.930 1_546 S
C1358 C1354 1.524 . S
C1358 H1370 0.956 . S
C1358 H1371 0.961 . S
C1358 H1372 0.961 . S
C1359 C1356 1.539 1_554 S
C1359 H1373 0.958 . S
C1359 H1374 0.961 1_545 S
C1359 H1375 0.960 1_554 S
H1360 C1344 0.931 . S
H1361 C1349 0.929 . S
H1362 C1350 0.960 . S
H1363 C1350 0.962 . S
H1364 C1350 0.960 . S
H1365 C1351 0.957 . S
H1366 C1351 0.961 . S
H1367 C1351 0.961 1_565 S
H1368 C1352 0.931 . S
H1369 C1357 0.930 1_564 S
H1370 C1358 0.956 . S
H1371 C1358 0.961 . S
H1372 C1358 0.961 . S
H1373 C1359 0.958 . S
H1374 C1359 0.961 1_565 S
H1375 C1359 0.960 1_556 S
C1376 C1377 1.391 . S
C1376 C1378 1.394 . S
C1376 H1392 0.931 . S
C1377 C1376 1.391 . S
C1377 C1381 1.376 . S
C1378 C1376 1.394 . S
C1378 C1379 1.369 . S
C1378 C1382 1.531 . S
C1379 C1378 1.369 . S
C1379 C1380 1.410 . S
C1379 C1387 1.503 . S
C1380 C1379 1.410 . S
C1380 C1381 1.392 . S
C1380 C1383 1.511 . S
C1381 C1377 1.376 . S
C1381 C1380 1.392 . S
C1381 H1393 0.929 . S
C1382 C1378 1.531 . S
C1382 H1394 0.960 . S
C1382 H1395 0.962 . S
C1382 H1396 0.960 . S
C1383 C1380 1.511 . S
C1383 H1397 0.961 . S
C1383 H1398 0.961 . S
C1383 H1399 0.961 . S
C1384 C1385 1.370 . S
C1384 C1386 1.363 . S
C1384 H1400 0.931 . S
C1385 C1384 1.370 . S
C1385 C1389 1.408 . S
C1386 C1384 1.363 . S
C1386 C1387 1.370 . S
C1386 C1390 1.524 . S
C1387 C1379 1.503 . S
C1387 C1386 1.370 . S
C1387 C1388 1.403 . S
C1388 C1387 1.403 . S
C1388 C1389 1.404 . S
C1388 C1391 1.539 . S
C1389 C1385 1.408 . S
C1389 C1388 1.404 . S
C1389 H1401 0.930 . S
C1390 C1386 1.524 . S
C1390 H1402 0.956 . S
C1390 H1403 0.961 . S
C1390 H1404 0.961 . S
C1391 C1388 1.539 . S
C1391 H1405 0.958 . S
C1391 H1406 0.961 . S
C1391 H1407 0.960 . S
H1392 C1376 0.931 . S
H1393 C1381 0.929 . S
H1394 C1382 0.960 . S
H1395 C1382 0.962 . S
H1396 C1382 0.960 . S
H1397 C1383 0.961 . S
H1398 C1383 0.961 . S
H1399 C1383 0.961 . S
H1400 C1384 0.931 . S
H1401 C1389 0.930 . S
H1402 C1390 0.956 . S
H1403 C1390 0.961 . S
H1404 C1390 0.961 . S
H1405 C1391 0.958 . S
H1406 C1391 0.961 . S
H1407 C1391 0.960 . S
C1408 C1409 1.391 . S
C1408 C1410 1.394 . S
C1408 H1424 0.931 . S
C1409 C1408 1.391 . S
C1409 C1413 1.376 . S
C1410 C1408 1.394 . S
C1410 C1411 1.369 . S
C1410 C1414 1.531 . S
C1411 C1410 1.369 . S
C1411 C1412 1.410 . S
C1411 C1419 1.503 . S
C1412 C1411 1.410 . S
C1412 C1413 1.392 . S
C1412 C1415 1.511 . S
C1413 C1409 1.376 . S
C1413 C1412 1.392 . S
C1413 H1425 0.929 . S
C1414 C1410 1.531 . S
C1414 H1426 0.960 . S
C1414 H1427 0.962 . S
C1414 H1428 0.960 . S
C1415 C1412 1.511 . S
C1415 H1429 0.961 . S
C1415 H1430 0.961 . S
C1415 H1431 0.961 . S
C1416 C1417 1.370 . S
C1416 C1418 1.363 . S
C1416 H1432 0.931 . S
C1417 C1416 1.370 . S
C1417 C1421 1.408 . S
C1418 C1416 1.363 . S
C1418 C1419 1.370 . S
C1418 C1422 1.524 . S
C1419 C1411 1.503 . S
C1419 C1418 1.370 . S
C1419 C1420 1.403 . S
C1420 C1419 1.403 . S
C1420 C1421 1.404 . S
C1420 C1423 1.539 . S
C1421 C1417 1.408 . S
C1421 C1420 1.404 . S
C1421 H1433 0.930 . S
C1422 C1418 1.524 . S
C1422 H1434 0.956 . S
C1422 H1435 0.961 . S
C1422 H1436 0.961 . S
C1423 C1420 1.539 . S
C1423 H1437 0.958 . S
C1423 H1438 0.961 . S
C1423 H1439 0.960 . S
H1424 C1408 0.931 . S
H1425 C1413 0.929 . S
H1426 C1414 0.960 . S
H1427 C1414 0.962 . S
H1428 C1414 0.960 . S
H1429 C1415 0.961 . S
H1430 C1415 0.961 . S
H1431 C1415 0.961 . S
H1432 C1416 0.931 . S
H1433 C1421 0.930 . S
H1434 C1422 0.956 . S
H1435 C1422 0.961 . S
H1436 C1422 0.961 . S
H1437 C1423 0.958 . S
H1438 C1423 0.961 . S
H1439 C1423 0.960 . S
C1440 C1441 1.391 . S
C1440 C1442 1.394 . S
C1440 H1456 0.931 . S
C1441 C1440 1.391 . S
C1441 C1445 1.376 . S
C1442 C1440 1.394 . S
C1442 C1443 1.369 . S
C1442 C1446 1.531 . S
C1443 C1442 1.369 . S
C1443 C1444 1.410 . S
C1443 C1451 1.503 . S
C1444 C1443 1.410 . S
C1444 C1445 1.392 . S
C1444 C1447 1.511 . S
C1445 C1441 1.376 . S
C1445 C1444 1.392 . S
C1445 H1457 0.929 . S
C1446 C1442 1.531 . S
C1446 H1458 0.960 . S
C1446 H1459 0.962 . S
C1446 H1460 0.960 . S
C1447 C1444 1.511 . S
C1447 H1461 0.961 . S
C1447 H1462 0.961 . S
C1447 H1463 0.961 . S
C1448 C1449 1.370 . S
C1448 C1450 1.363 . S
C1448 H1464 0.931 . S
C1449 C1448 1.370 . S
C1449 C1453 1.408 . S
C1450 C1448 1.363 . S
C1450 C1451 1.370 . S
C1450 C1454 1.524 . S
C1451 C1443 1.503 . S
C1451 C1450 1.370 . S
C1451 C1452 1.403 . S
C1452 C1451 1.403 . S
C1452 C1453 1.404 . S
C1452 C1455 1.539 . S
C1453 C1449 1.408 . S
C1453 C1452 1.404 . S
C1453 H1465 0.930 . S
C1454 C1450 1.524 . S
C1454 H1466 0.956 . S
C1454 H1467 0.961 . S
C1454 H1468 0.961 . S
C1455 C1452 1.539 . S
C1455 H1469 0.958 . S
C1455 H1470 0.961 . S
C1455 H1471 0.960 . S
H1456 C1440 0.931 . S
H1457 C1445 0.929 . S
H1458 C1446 0.960 . S
H1459 C1446 0.962 . S
H1460 C1446 0.960 . S
H1461 C1447 0.961 . S
H1462 C1447 0.961 . S
H1463 C1447 0.961 . S
H1464 C1448 0.931 . S
H1465 C1453 0.930 . S
H1466 C1454 0.956 . S
H1467 C1454 0.961 . S
H1468 C1454 0.961 . S
H1469 C1455 0.958 . S
H1470 C1455 0.961 . S
H1471 C1455 0.960 . S
C1472 C1473 1.391 . S
C1472 C1474 1.394 . S
C1472 H1488 0.931 . S
C1473 C1472 1.391 . S
C1473 C1477 1.376 . S
C1474 C1472 1.394 . S
C1474 C1475 1.369 . S
C1474 C1478 1.531 . S
C1475 C1474 1.369 . S
C1475 C1476 1.410 . S
C1475 C1483 1.503 . S
C1476 C1475 1.410 . S
C1476 C1477 1.392 . S
C1476 C1479 1.511 . S
C1477 C1473 1.376 . S
C1477 C1476 1.392 . S
C1477 H1489 0.929 . S
C1478 C1474 1.531 . S
C1478 H1490 0.960 . S
C1478 H1491 0.962 . S
C1478 H1492 0.960 . S
C1479 C1476 1.511 . S
C1479 H1493 0.961 . S
C1479 H1494 0.961 . S
C1479 H1495 0.961 . S
C1480 C1481 1.370 . S
C1480 C1482 1.363 . S
C1480 H1496 0.931 . S
C1481 C1480 1.370 . S
C1481 C1485 1.408 . S
C1482 C1480 1.363 . S
C1482 C1483 1.370 . S
C1482 C1486 1.524 . S
C1483 C1475 1.503 . S
C1483 C1482 1.370 . S
C1483 C1484 1.403 . S
C1484 C1483 1.403 . S
C1484 C1485 1.404 . S
C1484 C1487 1.539 . S
C1485 C1481 1.408 . S
C1485 C1484 1.404 . S
C1485 H1497 0.930 . S
C1486 C1482 1.524 . S
C1486 H1498 0.956 . S
C1486 H1499 0.961 . S
C1486 H1500 0.961 . S
C1487 C1484 1.539 . S
C1487 H1501 0.958 . S
C1487 H1502 0.961 . S
C1487 H1503 0.960 . S
H1488 C1472 0.931 . S
H1489 C1477 0.929 . S
H1490 C1478 0.960 . S
H1491 C1478 0.962 . S
H1492 C1478 0.960 . S
H1493 C1479 0.961 . S
H1494 C1479 0.961 . S
H1495 C1479 0.961 . S
H1496 C1480 0.931 . S
H1497 C1485 0.930 . S
H1498 C1486 0.956 . S
H1499 C1486 0.961 . S
H1500 C1486 0.961 . S
H1501 C1487 0.958 . S
H1502 C1487 0.961 . S
H1503 C1487 0.960 . S
C1504 C1505 1.391 . S
C1504 C1506 1.394 . S
C1504 H1520 0.931 . S
C1505 C1504 1.391 . S
C1505 C1509 1.376 . S
C1506 C1504 1.394 . S
C1506 C1507 1.369 . S
C1506 C1510 1.531 . S
C1507 C1506 1.369 . S
C1507 C1508 1.410 . S
C1507 C1515 1.503 . S
C1508 C1507 1.410 . S
C1508 C1509 1.392 . S
C1508 C1511 1.511 . S
C1509 C1505 1.376 . S
C1509 C1508 1.392 . S
C1509 H1521 0.929 . S
C1510 C1506 1.531 . S
C1510 H1522 0.960 . S
C1510 H1523 0.962 . S
C1510 H1524 0.960 . S
C1511 C1508 1.511 . S
C1511 H1525 0.961 . S
C1511 H1526 0.961 . S
C1511 H1527 0.961 . S
C1512 C1513 1.370 . S
C1512 C1514 1.363 . S
C1512 H1528 0.931 . S
C1513 C1512 1.370 . S
C1513 C1517 1.408 . S
C1514 C1512 1.363 . S
C1514 C1515 1.370 . S
C1514 C1518 1.524 . S
C1515 C1507 1.503 . S
C1515 C1514 1.370 . S
C1515 C1516 1.403 . S
C1516 C1515 1.403 . S
C1516 C1517 1.404 . S
C1516 C1519 1.539 . S
C1517 C1513 1.408 . S
C1517 C1516 1.404 . S
C1517 H1529 0.930 . S
C1518 C1514 1.524 . S
C1518 H1530 0.956 . S
C1518 H1531 0.961 . S
C1518 H1532 0.961 . S
C1519 C1516 1.539 . S
C1519 H1533 0.958 . S
C1519 H1534 0.961 . S
C1519 H1535 0.960 . S
H1520 C1504 0.931 . S
H1521 C1509 0.929 . S
H1522 C1510 0.960 . S
H1523 C1510 0.962 . S
H1524 C1510 0.960 . S
H1525 C1511 0.961 . S
H1526 C1511 0.961 . S
H1527 C1511 0.961 . S
H1528 C1512 0.931 . S
H1529 C1517 0.930 . S
H1530 C1518 0.956 . S
H1531 C1518 0.961 . S
H1532 C1518 0.961 . S
H1533 C1519 0.958 . S
H1534 C1519 0.961 . S
H1535 C1519 0.960 . S
C1536 C1537 1.391 . S
C1536 C1538 1.394 . S
C1536 H1552 0.931 . S
C1537 C1536 1.391 . S
C1537 C1541 1.376 . S
C1538 C1536 1.394 . S
C1538 C1539 1.369 . S
C1538 C1542 1.531 . S
C1539 C1538 1.369 . S
C1539 C1540 1.410 . S
C1539 C1547 1.503 . S
C1540 C1539 1.410 . S
C1540 C1541 1.392 . S
C1540 C1543 1.511 . S
C1541 C1537 1.376 . S
C1541 C1540 1.392 . S
C1541 H1553 0.929 . S
C1542 C1538 1.531 . S
C1542 H1554 0.960 . S
C1542 H1555 0.962 . S
C1542 H1556 0.960 . S
C1543 C1540 1.511 . S
C1543 H1557 0.961 . S
C1543 H1558 0.961 . S
C1543 H1559 0.961 . S
C1544 C1545 1.370 . S
C1544 C1546 1.363 . S
C1544 H1560 0.931 . S
C1545 C1544 1.370 . S
C1545 C1549 1.408 . S
C1546 C1544 1.363 . S
C1546 C1547 1.370 . S
C1546 C1550 1.524 . S
C1547 C1539 1.503 . S
C1547 C1546 1.370 . S
C1547 C1548 1.403 . S
C1548 C1547 1.403 . S
C1548 C1549 1.404 . S
C1548 C1551 1.539 . S
C1549 C1545 1.408 . S
C1549 C1548 1.404 . S
C1549 H1561 0.930 . S
C1550 C1546 1.524 . S
C1550 H1562 0.956 . S
C1550 H1563 0.961 . S
C1550 H1564 0.961 . S
C1551 C1548 1.539 . S
C1551 H1565 0.958 . S
C1551 H1566 0.961 . S
C1551 H1567 0.960 . S
H1552 C1536 0.931 . S
H1553 C1541 0.929 . S
H1554 C1542 0.960 . S
H1555 C1542 0.962 . S
H1556 C1542 0.960 . S
H1557 C1543 0.961 . S
H1558 C1543 0.961 . S
H1559 C1543 0.961 . S
H1560 C1544 0.931 . S
H1561 C1549 0.930 . S
H1562 C1550 0.956 . S
H1563 C1550 0.961 . S
H1564 C1550 0.961 . S
H1565 C1551 0.958 . S
H1566 C1551 0.961 . S
H1567 C1551 0.960 . S
C1568 C1569 1.391 . S
C1568 C1570 1.394 . S
C1568 H1584 0.931 . S
C1569 C1568 1.391 . S
C1569 C1573 1.376 . S
C1570 C1568 1.394 . S
C1570 C1571 1.369 . S
C1570 C1574 1.531 . S
C1571 C1570 1.369 . S
C1571 C1572 1.410 . S
C1571 C1579 1.503 . S
C1572 C1571 1.410 . S
C1572 C1573 1.392 . S
C1572 C1575 1.511 . S
C1573 C1569 1.376 . S
C1573 C1572 1.392 . S
C1573 H1585 0.929 . S
C1574 C1570 1.531 . S
C1574 H1586 0.960 . S
C1574 H1587 0.962 . S
C1574 H1588 0.960 . S
C1575 C1572 1.511 . S
C1575 H1589 0.961 . S
C1575 H1590 0.961 . S
C1575 H1591 0.961 . S
C1576 C1577 1.370 . S
C1576 C1578 1.363 . S
C1576 H1592 0.931 . S
C1577 C1576 1.370 . S
C1577 C1581 1.408 . S
C1578 C1576 1.363 . S
C1578 C1579 1.370 . S
C1578 C1582 1.524 . S
C1579 C1571 1.503 . S
C1579 C1578 1.370 . S
C1579 C1580 1.403 . S
C1580 C1579 1.403 . S
C1580 C1581 1.404 . S
C1580 C1583 1.539 . S
C1581 C1577 1.408 . S
C1581 C1580 1.404 . S
C1581 H1593 0.930 . S
C1582 C1578 1.524 . S
C1582 H1594 0.956 . S
C1582 H1595 0.961 . S
C1582 H1596 0.961 . S
C1583 C1580 1.539 . S
C1583 H1597 0.958 . S
C1583 H1598 0.961 . S
C1583 H1599 0.960 . S
H1584 C1568 0.931 . S
H1585 C1573 0.929 . S
H1586 C1574 0.960 . S
H1587 C1574 0.962 . S
H1588 C1574 0.960 . S
H1589 C1575 0.961 . S
H1590 C1575 0.961 . S
H1591 C1575 0.961 . S
H1592 C1576 0.931 . S
H1593 C1581 0.930 . S
H1594 C1582 0.956 . S
H1595 C1582 0.961 . S
H1596 C1582 0.961 . S
H1597 C1583 0.958 . S
H1598 C1583 0.961 . S
H1599 C1583 0.960 . S
C1600 C1601 1.391 . S
C1600 C1602 1.394 . S
C1600 H1616 0.931 . S
C1601 C1600 1.391 . S
C1601 C1605 1.376 . S
C1602 C1600 1.394 . S
C1602 C1603 1.369 . S
C1602 C1606 1.531 . S
C1603 C1602 1.369 . S
C1603 C1604 1.410 . S
C1603 C1611 1.503 . S
C1604 C1603 1.410 . S
C1604 C1605 1.392 . S
C1604 C1607 1.511 . S
C1605 C1601 1.376 . S
C1605 C1604 1.392 . S
C1605 H1617 0.929 . S
C1606 C1602 1.531 . S
C1606 H1618 0.960 . S
C1606 H1619 0.962 . S
C1606 H1620 0.960 . S
C1607 C1604 1.511 . S
C1607 H1621 0.961 . S
C1607 H1622 0.961 . S
C1607 H1623 0.961 . S
C1608 C1609 1.370 . S
C1608 C1610 1.363 . S
C1608 H1624 0.931 . S
C1609 C1608 1.370 . S
C1609 C1613 1.408 . S
C1610 C1608 1.363 . S
C1610 C1611 1.370 . S
C1610 C1614 1.524 . S
C1611 C1603 1.503 . S
C1611 C1610 1.370 . S
C1611 C1612 1.403 . S
C1612 C1611 1.403 . S
C1612 C1613 1.404 . S
C1612 C1615 1.539 . S
C1613 C1609 1.408 . S
C1613 C1612 1.404 . S
C1613 H1625 0.930 . S
C1614 C1610 1.524 . S
C1614 H1626 0.956 . S
C1614 H1627 0.961 . S
C1614 H1628 0.961 . S
C1615 C1612 1.539 . S
C1615 H1629 0.958 . S
C1615 H1630 0.961 . S
C1615 H1631 0.960 . S
H1616 C1600 0.931 . S
H1617 C1605 0.929 . S
H1618 C1606 0.960 . S
H1619 C1606 0.962 . S
H1620 C1606 0.960 . S
H1621 C1607 0.961 . S
H1622 C1607 0.961 . S
H1623 C1607 0.961 . S
H1624 C1608 0.931 . S
H1625 C1613 0.930 . S
H1626 C1614 0.956 . S
H1627 C1614 0.961 . S
H1628 C1614 0.961 . S
H1629 C1615 0.958 . S
H1630 C1615 0.961 . S
H1631 C1615 0.960 . S
C1632 C1633 1.391 . S
C1632 C1634 1.394 . S
C1632 H1648 0.931 . S
C1633 C1632 1.391 . S
C1633 C1637 1.376 . S
C1634 C1632 1.394 . S
C1634 C1635 1.369 . S
C1634 C1638 1.531 . S
C1635 C1634 1.369 . S
C1635 C1636 1.410 . S
C1635 C1643 1.503 . S
C1636 C1635 1.410 . S
C1636 C1637 1.392 . S
C1636 C1639 1.511 . S
C1637 C1633 1.376 . S
C1637 C1636 1.392 . S
C1637 H1649 0.929 . S
C1638 C1634 1.531 . S
C1638 H1650 0.960 . S
C1638 H1651 0.962 . S
C1638 H1652 0.960 . S
C1639 C1636 1.511 . S
C1639 H1653 0.961 . S
C1639 H1654 0.961 . S
C1639 H1655 0.961 . S
C1640 C1641 1.370 . S
C1640 C1642 1.363 . S
C1640 H1656 0.931 . S
C1641 C1640 1.370 . S
C1641 C1645 1.408 . S
C1642 C1640 1.363 . S
C1642 C1643 1.370 . S
C1642 C1646 1.524 . S
C1643 C1635 1.503 . S
C1643 C1642 1.370 . S
C1643 C1644 1.403 . S
C1644 C1643 1.403 . S
C1644 C1645 1.404 . S
C1644 C1647 1.539 . S
C1645 C1641 1.408 . S
C1645 C1644 1.404 . S
C1645 H1657 0.930 . S
C1646 C1642 1.524 . S
C1646 H1658 0.956 . S
C1646 H1659 0.961 . S
C1646 H1660 0.961 . S
C1647 C1644 1.539 . S
C1647 H1661 0.958 . S
C1647 H1662 0.961 . S
C1647 H1663 0.960 . S
H1648 C1632 0.931 . S
H1649 C1637 0.929 . S
H1650 C1638 0.960 . S
H1651 C1638 0.962 . S
H1652 C1638 0.960 . S
H1653 C1639 0.961 . S
H1654 C1639 0.961 . S
H1655 C1639 0.961 . S
H1656 C1640 0.931 . S
H1657 C1645 0.930 . S
H1658 C1646 0.956 . S
H1659 C1646 0.961 . S
H1660 C1646 0.961 . S
H1661 C1647 0.958 . S
H1662 C1647 0.961 . S
H1663 C1647 0.960 . S
C1664 C1665 1.391 . S
C1664 C1666 1.394 . S
C1664 H1680 0.931 . S
C1665 C1664 1.391 . S
C1665 C1669 1.376 . S
C1666 C1664 1.394 . S
C1666 C1667 1.369 . S
C1666 C1670 1.531 . S
C1667 C1666 1.369 . S
C1667 C1668 1.410 . S
C1667 C1675 1.503 . S
C1668 C1667 1.410 . S
C1668 C1669 1.392 . S
C1668 C1671 1.511 . S
C1669 C1665 1.376 . S
C1669 C1668 1.392 . S
C1669 H1681 0.929 . S
C1670 C1666 1.531 . S
C1670 H1682 0.960 . S
C1670 H1683 0.962 . S
C1670 H1684 0.960 . S
C1671 C1668 1.511 . S
C1671 H1685 0.961 . S
C1671 H1686 0.961 . S
C1671 H1687 0.961 . S
C1672 C1673 1.370 . S
C1672 C1674 1.363 . S
C1672 H1688 0.931 . S
C1673 C1672 1.370 . S
C1673 C1677 1.408 . S
C1674 C1672 1.363 . S
C1674 C1675 1.370 . S
C1674 C1678 1.524 . S
C1675 C1667 1.503 . S
C1675 C1674 1.370 . S
C1675 C1676 1.403 . S
C1676 C1675 1.403 . S
C1676 C1677 1.404 . S
C1676 C1679 1.539 . S
C1677 C1673 1.408 . S
C1677 C1676 1.404 . S
C1677 H1689 0.930 . S
C1678 C1674 1.524 . S
C1678 H1690 0.956 . S
C1678 H1691 0.961 . S
C1678 H1692 0.961 . S
C1679 C1676 1.539 . S
C1679 H1693 0.958 . S
C1679 H1694 0.961 . S
C1679 H1695 0.960 . S
H1680 C1664 0.931 . S
H1681 C1669 0.929 . S
H1682 C1670 0.960 . S
H1683 C1670 0.962 . S
H1684 C1670 0.960 . S
H1685 C1671 0.961 . S
H1686 C1671 0.961 . S
H1687 C1671 0.961 . S
H1688 C1672 0.931 . S
H1689 C1677 0.930 . S
H1690 C1678 0.956 . S
H1691 C1678 0.961 . S
H1692 C1678 0.961 . S
H1693 C1679 0.958 . S
H1694 C1679 0.961 . S
H1695 C1679 0.960 . S
C1696 C1697 1.391 . S
C1696 C1698 1.394 . S
C1696 H1712 0.931 . S
C1697 C1696 1.391 . S
C1697 C1701 1.376 . S
C1698 C1696 1.394 . S
C1698 C1699 1.369 . S
C1698 C1702 1.531 . S
C1699 C1698 1.369 . S
C1699 C1700 1.410 . S
C1699 C1707 1.503 . S
C1700 C1699 1.410 . S
C1700 C1701 1.392 . S
C1700 C1703 1.511 . S
C1701 C1697 1.376 . S
C1701 C1700 1.392 . S
C1701 H1713 0.929 . S
C1702 C1698 1.531 . S
C1702 H1714 0.960 . S
C1702 H1715 0.962 . S
C1702 H1716 0.960 . S
C1703 C1700 1.511 . S
C1703 H1717 0.961 . S
C1703 H1718 0.961 . S
C1703 H1719 0.961 . S
C1704 C1705 1.370 . S
C1704 C1706 1.363 . S
C1704 H1720 0.931 . S
C1705 C1704 1.370 . S
C1705 C1709 1.408 . S
C1706 C1704 1.363 . S
C1706 C1707 1.370 . S
C1706 C1710 1.524 . S
C1707 C1699 1.503 . S
C1707 C1706 1.370 . S
C1707 C1708 1.403 . S
C1708 C1707 1.403 . S
C1708 C1709 1.404 . S
C1708 C1711 1.539 . S
C1709 C1705 1.408 . S
C1709 C1708 1.404 . S
C1709 H1721 0.930 . S
C1710 C1706 1.524 . S
C1710 H1722 0.956 . S
C1710 H1723 0.961 . S
C1710 H1724 0.961 . S
C1711 C1708 1.539 . S
C1711 H1725 0.958 . S
C1711 H1726 0.961 . S
C1711 H1727 0.960 . S
H1712 C1696 0.931 . S
H1713 C1701 0.929 . S
H1714 C1702 0.960 . S
H1715 C1702 0.962 . S
H1716 C1702 0.960 . S
H1717 C1703 0.961 . S
H1718 C1703 0.961 . S
H1719 C1703 0.961 . S
H1720 C1704 0.931 . S
H1721 C1709 0.930 . S
H1722 C1710 0.956 . S
H1723 C1710 0.961 . S
H1724 C1710 0.961 . S
H1725 C1711 0.958 . S
H1726 C1711 0.961 . S
H1727 C1711 0.960 . S
C1728 C1729 1.391 . S
C1728 C1730 1.394 . S
C1728 H1744 0.931 . S
C1729 C1728 1.391 . S
C1729 C1733 1.376 . S
C1730 C1728 1.394 . S
C1730 C1731 1.369 . S
C1730 C1734 1.531 . S
C1731 C1730 1.369 . S
C1731 C1732 1.410 . S
C1731 C1739 1.503 . S
C1732 C1731 1.410 . S
C1732 C1733 1.392 . S
C1732 C1735 1.511 . S
C1733 C1729 1.376 . S
C1733 C1732 1.392 . S
C1733 H1745 0.929 . S
C1734 C1730 1.531 . S
C1734 H1746 0.960 . S
C1734 H1747 0.962 . S
C1734 H1748 0.960 . S
C1735 C1732 1.511 . S
C1735 H1749 0.961 . S
C1735 H1750 0.961 . S
C1735 H1751 0.961 . S
C1736 C1737 1.370 . S
C1736 C1738 1.363 . S
C1736 H1752 0.931 . S
C1737 C1736 1.370 . S
C1737 C1741 1.408 . S
C1738 C1736 1.363 . S
C1738 C1739 1.370 . S
C1738 C1742 1.524 . S
C1739 C1731 1.503 . S
C1739 C1738 1.370 . S
C1739 C1740 1.403 . S
C1740 C1739 1.403 . S
C1740 C1741 1.404 . S
C1740 C1743 1.539 . S
C1741 C1737 1.408 . S
C1741 C1740 1.404 . S
C1741 H1753 0.930 . S
C1742 C1738 1.524 . S
C1742 H1754 0.956 . S
C1742 H1755 0.961 . S
C1742 H1756 0.961 . S
C1743 C1740 1.539 . S
C1743 H1757 0.958 . S
C1743 H1758 0.961 . S
C1743 H1759 0.960 . S
H1744 C1728 0.931 . S
H1745 C1733 0.929 . S
H1746 C1734 0.960 . S
H1747 C1734 0.962 . S
H1748 C1734 0.960 . S
H1749 C1735 0.961 . S
H1750 C1735 0.961 . S
H1751 C1735 0.961 . S
H1752 C1736 0.931 . S
H1753 C1741 0.930 . S
H1754 C1742 0.956 . S
H1755 C1742 0.961 . S
H1756 C1742 0.961 . S
H1757 C1743 0.958 . S
H1758 C1743 0.961 . S
H1759 C1743 0.960 . S
C1760 C1761 1.391 . S
C1760 C1762 1.394 . S
C1760 H1776 0.931 . S
C1761 C1760 1.391 . S
C1761 C1765 1.376 . S
C1762 C1760 1.394 . S
C1762 C1763 1.369 . S
C1762 C1766 1.531 . S
C1763 C1762 1.369 . S
C1763 C1764 1.410 . S
C1763 C1771 1.503 . S
C1764 C1763 1.410 . S
C1764 C1765 1.392 . S
C1764 C1767 1.511 . S
C1765 C1761 1.376 . S
C1765 C1764 1.392 . S
C1765 H1777 0.929 . S
C1766 C1762 1.531 . S
C1766 H1778 0.960 . S
C1766 H1779 0.962 . S
C1766 H1780 0.960 . S
C1767 C1764 1.511 . S
C1767 H1781 0.961 . S
C1767 H1782 0.961 . S
C1767 H1783 0.961 . S
C1768 C1769 1.370 . S
C1768 C1770 1.363 . S
C1768 H1784 0.931 . S
C1769 C1768 1.370 . S
C1769 C1773 1.408 . S
C1770 C1768 1.363 . S
C1770 C1771 1.370 . S
C1770 C1774 1.524 . S
C1771 C1763 1.503 . S
C1771 C1770 1.370 . S
C1771 C1772 1.403 . S
C1772 C1771 1.403 . S
C1772 C1773 1.404 . S
C1772 C1775 1.539 . S
C1773 C1769 1.408 . S
C1773 C1772 1.404 . S
C1773 H1785 0.930 . S
C1774 C1770 1.524 . S
C1774 H1786 0.956 . S
C1774 H1787 0.961 . S
C1774 H1788 0.961 . S
C1775 C1772 1.539 . S
C1775 H1789 0.958 . S
C1775 H1790 0.961 . S
C1775 H1791 0.960 . S
H1776 C1760 0.931 . S
H1777 C1765 0.929 . S
H1778 C1766 0.960 . S
H1779 C1766 0.962 . S
H1780 C1766 0.960 . S
H1781 C1767 0.961 . S
H1782 C1767 0.961 . S
H1783 C1767 0.961 . S
H1784 C1768 0.931 . S
H1785 C1773 0.930 . S
H1786 C1774 0.956 . S
H1787 C1774 0.961 . S
H1788 C1774 0.961 . S
H1789 C1775 0.958 . S
H1790 C1775 0.961 . S
H1791 C1775 0.960 . S
C1792 C1793 1.391 . S
C1792 C1794 1.394 . S
C1792 H1808 0.931 . S
C1793 C1792 1.391 . S
C1793 C1797 1.376 . S
C1794 C1792 1.394 . S
C1794 C1795 1.369 . S
C1794 C1798 1.531 . S
C1795 C1794 1.369 . S
C1795 C1796 1.410 . S
C1795 C1803 1.503 . S
C1796 C1795 1.410 . S
C1796 C1797 1.392 . S
C1796 C1799 1.511 . S
C1797 C1793 1.376 . S
C1797 C1796 1.392 . S
C1797 H1809 0.929 . S
C1798 C1794 1.531 . S
C1798 H1810 0.960 . S
C1798 H1811 0.962 . S
C1798 H1812 0.960 . S
C1799 C1796 1.511 . S
C1799 H1813 0.961 . S
C1799 H1814 0.961 . S
C1799 H1815 0.961 . S
C1800 C1801 1.370 . S
C1800 C1802 1.363 . S
C1800 H1816 0.931 . S
C1801 C1800 1.370 . S
C1801 C1805 1.408 . S
C1802 C1800 1.363 . S
C1802 C1803 1.370 . S
C1802 C1806 1.524 . S
C1803 C1795 1.503 . S
C1803 C1802 1.370 . S
C1803 C1804 1.403 . S
C1804 C1803 1.403 . S
C1804 C1805 1.404 . S
C1804 C1807 1.539 . S
C1805 C1801 1.408 . S
C1805 C1804 1.404 . S
C1805 H1817 0.930 . S
C1806 C1802 1.524 . S
C1806 H1818 0.956 . S
C1806 H1819 0.961 . S
C1806 H1820 0.961 . S
C1807 C1804 1.539 . S
C1807 H1821 0.958 . S
C1807 H1822 0.961 . S
C1807 H1823 0.960 . S
H1808 C1792 0.931 . S
H1809 C1797 0.929 . S
H1810 C1798 0.960 . S
H1811 C1798 0.962 . S
H1812 C1798 0.960 . S
H1813 C1799 0.961 . S
H1814 C1799 0.961 . S
H1815 C1799 0.961 . S
H1816 C1800 0.931 . S
H1817 C1805 0.930 . S
H1818 C1806 0.956 . S
H1819 C1806 0.961 . S
H1820 C1806 0.961 . S
H1821 C1807 0.958 . S
H1822 C1807 0.961 . S
H1823 C1807 0.960 . S
C1824 C1825 1.391 . S
C1824 C1826 1.394 . S
C1824 H1840 0.931 . S
C1825 C1824 1.391 . S
C1825 C1829 1.376 . S
C1826 C1824 1.394 . S
C1826 C1827 1.369 . S
C1826 C1830 1.531 . S
C1827 C1826 1.369 . S
C1827 C1828 1.410 . S
C1827 C1835 1.503 . S
C1828 C1827 1.410 . S
C1828 C1829 1.392 . S
C1828 C1831 1.511 . S
C1829 C1825 1.376 . S
C1829 C1828 1.392 . S
C1829 H1841 0.929 . S
C1830 C1826 1.531 . S
C1830 H1842 0.960 . S
C1830 H1843 0.962 . S
C1830 H1844 0.960 . S
C1831 C1828 1.511 . S
C1831 H1845 0.961 . S
C1831 H1846 0.961 . S
C1831 H1847 0.961 . S
C1832 C1833 1.370 . S
C1832 C1834 1.363 . S
C1832 H1848 0.931 . S
C1833 C1832 1.370 . S
C1833 C1837 1.408 . S
C1834 C1832 1.363 . S
C1834 C1835 1.370 . S
C1834 C1838 1.524 . S
C1835 C1827 1.503 . S
C1835 C1834 1.370 . S
C1835 C1836 1.403 . S
C1836 C1835 1.403 . S
C1836 C1837 1.404 . S
C1836 C1839 1.539 . S
C1837 C1833 1.408 . S
C1837 C1836 1.404 . S
C1837 H1849 0.930 . S
C1838 C1834 1.524 . S
C1838 H1850 0.956 . S
C1838 H1851 0.961 . S
C1838 H1852 0.961 . S
C1839 C1836 1.539 . S
C1839 H1853 0.958 . S
C1839 H1854 0.961 . S
C1839 H1855 0.960 . S
H1840 C1824 0.931 . S
H1841 C1829 0.929 . S
H1842 C1830 0.960 . S
H1843 C1830 0.962 . S
H1844 C1830 0.960 . S
H1845 C1831 0.961 . S
H1846 C1831 0.961 . S
H1847 C1831 0.961 . S
H1848 C1832 0.931 . S
H1849 C1837 0.930 . S
H1850 C1838 0.956 . S
H1851 C1838 0.961 . S
H1852 C1838 0.961 . S
H1853 C1839 0.958 . S
H1854 C1839 0.961 . S
H1855 C1839 0.960 . S
C1856 C1857 1.391 . S
C1856 C1858 1.394 . S
C1856 H1872 0.931 . S
C1857 C1856 1.391 . S
C1857 C1861 1.376 . S
C1858 C1856 1.394 . S
C1858 C1859 1.369 . S
C1858 C1862 1.531 . S
C1859 C1858 1.369 . S
C1859 C1860 1.410 . S
C1859 C1867 1.503 . S
C1860 C1859 1.410 . S
C1860 C1861 1.392 . S
C1860 C1863 1.511 . S
C1861 C1857 1.376 . S
C1861 C1860 1.392 . S
C1861 H1873 0.929 . S
C1862 C1858 1.531 . S
C1862 H1874 0.960 . S
C1862 H1875 0.962 . S
C1862 H1876 0.960 . S
C1863 C1860 1.511 . S
C1863 H1877 0.961 . S
C1863 H1878 0.961 . S
C1863 H1879 0.961 . S
C1864 C1865 1.370 . S
C1864 C1866 1.363 . S
C1864 H1880 0.931 . S
C1865 C1864 1.370 . S
C1865 C1869 1.408 . S
C1866 C1864 1.363 . S
C1866 C1867 1.370 . S
C1866 C1870 1.524 . S
C1867 C1859 1.503 . S
C1867 C1866 1.370 . S
C1867 C1868 1.403 . S
C1868 C1867 1.403 . S
C1868 C1869 1.404 . S
C1868 C1871 1.539 . S
C1869 C1865 1.408 . S
C1869 C1868 1.404 . S
C1869 H1881 0.930 . S
C1870 C1866 1.524 . S
C1870 H1882 0.956 . S
C1870 H1883 0.961 . S
C1870 H1884 0.961 . S
C1871 C1868 1.539 . S
C1871 H1885 0.958 . S
C1871 H1886 0.961 . S
C1871 H1887 0.960 . S
H1872 C1856 0.931 . S
H1873 C1861 0.929 . S
H1874 C1862 0.960 . S
H1875 C1862 0.962 . S
H1876 C1862 0.960 . S
H1877 C1863 0.961 . S
H1878 C1863 0.961 . S
H1879 C1863 0.961 . S
H1880 C1864 0.931 . S
H1881 C1869 0.930 . S
H1882 C1870 0.956 . S
H1883 C1870 0.961 . S
H1884 C1870 0.961 . S
H1885 C1871 0.958 . S
H1886 C1871 0.961 . S
H1887 C1871 0.960 . S
C1888 C1889 1.391 . S
C1888 C1890 1.394 . S
C1888 H1904 0.931 . S
C1889 C1888 1.391 . S
C1889 C1893 1.376 . S
C1890 C1888 1.394 . S
C1890 C1891 1.369 . S
C1890 C1894 1.531 . S
C1891 C1890 1.369 . S
C1891 C1892 1.410 . S
C1891 C1899 1.503 . S
C1892 C1891 1.410 . S
C1892 C1893 1.392 . S
C1892 C1895 1.511 . S
C1893 C1889 1.376 . S
C1893 C1892 1.392 . S
C1893 H1905 0.929 . S
C1894 C1890 1.531 . S
C1894 H1906 0.960 . S
C1894 H1907 0.962 . S
C1894 H1908 0.960 . S
C1895 C1892 1.511 . S
C1895 H1909 0.961 . S
C1895 H1910 0.961 . S
C1895 H1911 0.961 . S
C1896 C1897 1.370 . S
C1896 C1898 1.363 . S
C1896 H1912 0.931 . S
C1897 C1896 1.370 . S
C1897 C1901 1.408 . S
C1898 C1896 1.363 . S
C1898 C1899 1.370 . S
C1898 C1902 1.524 . S
C1899 C1891 1.503 . S
C1899 C1898 1.370 . S
C1899 C1900 1.403 . S
C1900 C1899 1.403 . S
C1900 C1901 1.404 . S
C1900 C1903 1.539 . S
C1901 C1897 1.408 . S
C1901 C1900 1.404 . S
C1901 H1913 0.930 . S
C1902 C1898 1.524 . S
C1902 H1914 0.956 . S
C1902 H1915 0.961 . S
C1902 H1916 0.961 . S
C1903 C1900 1.539 . S
C1903 H1917 0.958 . S
C1903 H1918 0.961 . S
C1903 H1919 0.960 . S
H1904 C1888 0.931 . S
H1905 C1893 0.929 . S
H1906 C1894 0.960 . S
H1907 C1894 0.962 . S
H1908 C1894 0.960 . S
H1909 C1895 0.961 . S
H1910 C1895 0.961 . S
H1911 C1895 0.961 . S
H1912 C1896 0.931 . S
H1913 C1901 0.930 . S
H1914 C1902 0.956 . S
H1915 C1902 0.961 . S
H1916 C1902 0.961 . S
H1917 C1903 0.958 . S
H1918 C1903 0.961 . S
H1919 C1903 0.960 . S
C1920 C1921 1.391 . S
C1920 C1922 1.394 . S
C1920 H1936 0.931 . S
C1921 C1920 1.391 . S
C1921 C1925 1.376 . S
C1922 C1920 1.394 . S
C1922 C1923 1.369 . S
C1922 C1926 1.531 . S
C1923 C1922 1.369 . S
C1923 C1924 1.410 . S
C1923 C1931 1.503 . S
C1924 C1923 1.410 . S
C1924 C1925 1.392 . S
C1924 C1927 1.511 . S
C1925 C1921 1.376 . S
C1925 C1924 1.392 . S
C1925 H1937 0.929 . S
C1926 C1922 1.531 . S
C1926 H1938 0.960 . S
C1926 H1939 0.962 . S
C1926 H1940 0.960 . S
C1927 C1924 1.511 . S
C1927 H1941 0.961 . S
C1927 H1942 0.961 . S
C1927 H1943 0.961 . S
C1928 C1929 1.370 . S
C1928 C1930 1.363 . S
C1928 H1944 0.931 . S
C1929 C1928 1.370 . S
C1929 C1933 1.408 . S
C1930 C1928 1.363 . S
C1930 C1931 1.370 . S
C1930 C1934 1.524 . S
C1931 C1923 1.503 . S
C1931 C1930 1.370 . S
C1931 C1932 1.403 . S
C1932 C1931 1.403 . S
C1932 C1933 1.404 . S
C1932 C1935 1.539 . S
C1933 C1929 1.408 . S
C1933 C1932 1.404 . S
C1933 H1945 0.930 . S
C1934 C1930 1.524 . S
C1934 H1946 0.956 . S
C1934 H1947 0.961 . S
C1934 H1948 0.961 . S
C1935 C1932 1.539 . S
C1935 H1949 0.958 . S
C1935 H1950 0.961 . S
C1935 H1951 0.960 . S
H1936 C1920 0.931 . S
H1937 C1925 0.929 . S
H1938 C1926 0.960 . S
H1939 C1926 0.962 . S
H1940 C1926 0.960 . S
H1941 C1927 0.961 . S
H1942 C1927 0.961 . S
H1943 C1927 0.961 . S
H1944 C1928 0.931 . S
H1945 C1933 0.930 . S
H1946 C1934 0.956 . S
H1947 C1934 0.961 . S
H1948 C1934 0.961 . S
H1949 C1935 0.958 . S
H1950 C1935 0.961 . S
H1951 C1935 0.960 . S
C1952 C1953 1.391 . S
C1952 C1954 1.394 . S
C1952 H1968 0.931 . S
C1953 C1952 1.391 . S
C1953 C1957 1.376 . S
C1954 C1952 1.394 . S
C1954 C1955 1.369 . S
C1954 C1958 1.531 . S
C1955 C1954 1.369 . S
C1955 C1956 1.410 . S
C1955 C1963 1.503 . S
C1956 C1955 1.410 . S
C1956 C1957 1.392 . S
C1956 C1959 1.511 . S
C1957 C1953 1.376 . S
C1957 C1956 1.392 . S
C1957 H1969 0.929 . S
C1958 C1954 1.531 . S
C1958 H1970 0.960 . S
C1958 H1971 0.962 . S
C1958 H1972 0.960 . S
C1959 C1956 1.511 . S
C1959 H1973 0.961 . S
C1959 H1974 0.961 . S
C1959 H1975 0.961 . S
C1960 C1961 1.370 . S
C1960 C1962 1.363 . S
C1960 H1976 0.931 . S
C1961 C1960 1.370 . S
C1961 C1965 1.408 . S
C1962 C1960 1.363 . S
C1962 C1963 1.370 . S
C1962 C1966 1.524 . S
C1963 C1955 1.503 . S
C1963 C1962 1.370 . S
C1963 C1964 1.403 . S
C1964 C1963 1.403 . S
C1964 C1965 1.404 . S
C1964 C1967 1.539 . S
C1965 C1961 1.408 . S
C1965 C1964 1.404 . S
C1965 H1977 0.930 . S
C1966 C1962 1.524 . S
C1966 H1978 0.956 . S
C1966 H1979 0.961 . S
C1966 H1980 0.961 . S
C1967 C1964 1.539 . S
C1967 H1981 0.958 . S
C1967 H1982 0.961 . S
C1967 H1983 0.960 . S
H1968 C1952 0.931 . S
H1969 C1957 0.929 . S
H1970 C1958 0.960 . S
H1971 C1958 0.962 . S
H1972 C1958 0.960 . S
H1973 C1959 0.961 . S
H1974 C1959 0.961 . S
H1975 C1959 0.961 . S
H1976 C1960 0.931 . S
H1977 C1965 0.930 . S
H1978 C1966 0.956 . S
H1979 C1966 0.961 . S
H1980 C1966 0.961 . S
H1981 C1967 0.958 . S
H1982 C1967 0.961 . S
H1983 C1967 0.960 . S
C1984 C1985 1.391 . S
C1984 C1986 1.394 . S
C1984 H2000 0.931 . S
C1985 C1984 1.391 . S
C1985 C1989 1.376 . S
C1986 C1984 1.394 . S
C1986 C1987 1.369 . S
C1986 C1990 1.531 . S
C1987 C1986 1.369 . S
C1987 C1988 1.410 . S
C1987 C1995 1.503 . S
C1988 C1987 1.410 . S
C1988 C1989 1.392 . S
C1988 C1991 1.511 . S
C1989 C1985 1.376 . S
C1989 C1988 1.392 . S
C1989 H2001 0.929 . S
C1990 C1986 1.531 . S
C1990 H2002 0.960 . S
C1990 H2003 0.962 . S
C1990 H2004 0.960 . S
C1991 C1988 1.511 . S
C1991 H2005 0.961 . S
C1991 H2006 0.961 . S
C1991 H2007 0.961 . S
C1992 C1993 1.370 . S
C1992 C1994 1.363 . S
C1992 H2008 0.931 . S
C1993 C1992 1.370 . S
C1993 C1997 1.408 . S
C1994 C1992 1.363 . S
C1994 C1995 1.370 . S
C1994 C1998 1.524 . S
C1995 C1987 1.503 . S
C1995 C1994 1.370 . S
C1995 C1996 1.403 . S
C1996 C1995 1.403 . S
C1996 C1997 1.404 . S
C1996 C1999 1.539 . S
C1997 C1993 1.408 . S
C1997 C1996 1.404 . S
C1997 H2009 0.930 . S
C1998 C1994 1.524 . S
C1998 H2010 0.956 . S
C1998 H2011 0.961 . S
C1998 H2012 0.961 . S
C1999 C1996 1.539 . S
C1999 H2013 0.958 . S
C1999 H2014 0.961 . S
C1999 H2015 0.960 . S
H2000 C1984 0.931 . S
H2001 C1989 0.929 . S
H2002 C1990 0.960 . S
H2003 C1990 0.962 . S
H2004 C1990 0.960 . S
H2005 C1991 0.961 . S
H2006 C1991 0.961 . S
H2007 C1991 0.961 . S
H2008 C1992 0.931 . S
H2009 C1997 0.930 . S
H2010 C1998 0.956 . S
H2011 C1998 0.961 . S
H2012 C1998 0.961 . S
H2013 C1999 0.958 . S
H2014 C1999 0.961 . S
H2015 C1999 0.960 . S
C2016 C2017 1.391 . S
C2016 C2018 1.394 . S
C2016 H2032 0.931 . S
C2017 C2016 1.391 . S
C2017 C2021 1.376 . S
C2018 C2016 1.394 . S
C2018 C2019 1.369 . S
C2018 C2022 1.531 . S
C2019 C2018 1.369 . S
C2019 C2020 1.410 . S
C2019 C2027 1.503 . S
C2020 C2019 1.410 . S
C2020 C2021 1.392 . S
C2020 C2023 1.511 . S
C2021 C2017 1.376 . S
C2021 C2020 1.392 . S
C2021 H2033 0.929 . S
C2022 C2018 1.531 . S
C2022 H2034 0.960 . S
C2022 H2035 0.962 . S
C2022 H2036 0.960 . S
C2023 C2020 1.511 . S
C2023 H2037 0.961 . S
C2023 H2038 0.961 . S
C2023 H2039 0.961 . S
C2024 C2025 1.370 . S
C2024 C2026 1.363 . S
C2024 H2040 0.931 . S
C2025 C2024 1.370 . S
C2025 C2029 1.408 . S
C2026 C2024 1.363 . S
C2026 C2027 1.370 . S
C2026 C2030 1.524 . S
C2027 C2019 1.503 . S
C2027 C2026 1.370 . S
C2027 C2028 1.403 . S
C2028 C2027 1.403 . S
C2028 C2029 1.404 . S
C2028 C2031 1.539 . S
C2029 C2025 1.408 . S
C2029 C2028 1.404 . S
C2029 H2041 0.930 . S
C2030 C2026 1.524 . S
C2030 H2042 0.956 . S
C2030 H2043 0.961 . S
C2030 H2044 0.961 . S
C2031 C2028 1.539 . S
C2031 H2045 0.958 . S
C2031 H2046 0.961 . S
C2031 H2047 0.960 . S
H2032 C2016 0.931 . S
H2033 C2021 0.929 . S
H2034 C2022 0.960 . S
H2035 C2022 0.962 . S
H2036 C2022 0.960 . S
H2037 C2023 0.961 . S
H2038 C2023 0.961 . S
H2039 C2023 0.961 . S
H2040 C2024 0.931 . S
H2041 C2029 0.930 . S
H2042 C2030 0.956 . S
H2043 C2030 0.961 . S
H2044 C2030 0.961 . S
H2045 C2031 0.958 . S
H2046 C2031 0.961 . S
H2047 C2031 0.960 . S
C2048 C2049 1.391 . S
C2048 C2050 1.394 . S
C2048 H2064 0.931 . S
C2049 C2048 1.391 . S
C2049 C2053 1.376 . S
C2050 C2048 1.394 . S
C2050 C2051 1.369 . S
C2050 C2054 1.531 . S
C2051 C2050 1.369 . S
C2051 C2052 1.410 . S
C2051 C2059 1.503 . S
C2052 C2051 1.410 . S
C2052 C2053 1.392 . S
C2052 C2055 1.511 . S
C2053 C2049 1.376 . S
C2053 C2052 1.392 . S
C2053 H2065 0.929 . S
C2054 C2050 1.531 . S
C2054 H2066 0.960 . S
C2054 H2067 0.962 . S
C2054 H2068 0.960 . S
C2055 C2052 1.511 . S
C2055 H2069 0.961 . S
C2055 H2070 0.961 . S
C2055 H2071 0.961 . S
C2056 C2057 1.370 . S
C2056 C2058 1.363 . S
C2056 H2072 0.931 . S
C2057 C2056 1.370 . S
C2057 C2061 1.408 . S
C2058 C2056 1.363 . S
C2058 C2059 1.370 . S
C2058 C2062 1.524 . S
C2059 C2051 1.503 . S
C2059 C2058 1.370 . S
C2059 C2060 1.403 . S
C2060 C2059 1.403 . S
C2060 C2061 1.404 . S
C2060 C2063 1.539 . S
C2061 C2057 1.408 . S
C2061 C2060 1.404 . S
C2061 H2073 0.930 . S
C2062 C2058 1.524 . S
C2062 H2074 0.956 . S
C2062 H2075 0.961 . S
C2062 H2076 0.961 . S
C2063 C2060 1.539 . S
C2063 H2077 0.958 . S
C2063 H2078 0.961 . S
C2063 H2079 0.960 . S
H2064 C2048 0.931 . S
H2065 C2053 0.929 . S
H2066 C2054 0.960 . S
H2067 C2054 0.962 . S
H2068 C2054 0.960 . S
H2069 C2055 0.961 . S
H2070 C2055 0.961 . S
H2071 C2055 0.961 . S
H2072 C2056 0.931 . S
H2073 C2061 0.930 . S
H2074 C2062 0.956 . S
H2075 C2062 0.961 . S
H2076 C2062 0.961 . S
H2077 C2063 0.958 . S
H2078 C2063 0.961 . S
H2079 C2063 0.960 . S
C2080 C2081 1.391 . S
C2080 C2082 1.394 . S
C2080 H2096 0.931 . S
C2081 C2080 1.391 . S
C2081 C2085 1.376 . S
C2082 C2080 1.394 . S
C2082 C2083 1.369 . S
C2082 C2086 1.531 . S
C2083 C2082 1.369 . S
C2083 C2084 1.410 . S
C2083 C2091 1.503 . S
C2084 C2083 1.410 . S
C2084 C2085 1.392 . S
C2084 C2087 1.511 . S
C2085 C2081 1.376 . S
C2085 C2084 1.392 . S
C2085 H2097 0.929 . S
C2086 C2082 1.531 . S
C2086 H2098 0.960 . S
C2086 H2099 0.962 . S
C2086 H2100 0.960 . S
C2087 C2084 1.511 . S
C2087 H2101 0.961 . S
C2087 H2102 0.961 . S
C2087 H2103 0.961 . S
C2088 C2089 1.370 . S
C2088 C2090 1.363 . S
C2088 H2104 0.931 . S
C2089 C2088 1.370 . S
C2089 C2093 1.408 . S
C2090 C2088 1.363 . S
C2090 C2091 1.370 . S
C2090 C2094 1.524 . S
C2091 C2083 1.503 . S
C2091 C2090 1.370 . S
C2091 C2092 1.403 . S
C2092 C2091 1.403 . S
C2092 C2093 1.404 . S
C2092 C2095 1.539 . S
C2093 C2089 1.408 . S
C2093 C2092 1.404 . S
C2093 H2105 0.930 . S
C2094 C2090 1.524 . S
C2094 H2106 0.956 . S
C2094 H2107 0.961 . S
C2094 H2108 0.961 . S
C2095 C2092 1.539 . S
C2095 H2109 0.958 . S
C2095 H2110 0.961 . S
C2095 H2111 0.960 . S
H2096 C2080 0.931 . S
H2097 C2085 0.929 . S
H2098 C2086 0.960 . S
H2099 C2086 0.962 . S
H2100 C2086 0.960 . S
H2101 C2087 0.961 . S
H2102 C2087 0.961 . S
H2103 C2087 0.961 . S
H2104 C2088 0.931 . S
H2105 C2093 0.930 . S
H2106 C2094 0.956 . S
H2107 C2094 0.961 . S
H2108 C2094 0.961 . S
H2109 C2095 0.958 . S
H2110 C2095 0.961 . S
H2111 C2095 0.960 . S
C2112 C2113 1.391 . S
C2112 C2114 1.394 . S
C2112 H2128 0.931 . S
C2113 C2112 1.391 . S
C2113 C2117 1.376 . S
C2114 C2112 1.394 . S
C2114 C2115 1.369 . S
C2114 C2118 1.531 . S
C2115 C2114 1.369 . S
C2115 C2116 1.410 . S
C2115 C2123 1.503 . S
C2116 C2115 1.410 . S
C2116 C2117 1.392 . S
C2116 C2119 1.511 . S
C2117 C2113 1.376 . S
C2117 C2116 1.392 . S
C2117 H2129 0.929 . S
C2118 C2114 1.531 . S
C2118 H2130 0.960 . S
C2118 H2131 0.962 . S
C2118 H2132 0.960 . S
C2119 C2116 1.511 . S
C2119 H2133 0.961 . S
C2119 H2134 0.961 . S
C2119 H2135 0.961 . S
C2120 C2121 1.370 . S
C2120 C2122 1.363 . S
C2120 H2136 0.931 . S
C2121 C2120 1.370 . S
C2121 C2125 1.408 . S
C2122 C2120 1.363 . S
C2122 C2123 1.370 . S
C2122 C2126 1.524 . S
C2123 C2115 1.503 . S
C2123 C2122 1.370 . S
C2123 C2124 1.403 . S
C2124 C2123 1.403 . S
C2124 C2125 1.404 . S
C2124 C2127 1.539 . S
C2125 C2121 1.408 . S
C2125 C2124 1.404 . S
C2125 H2137 0.930 . S
C2126 C2122 1.524 . S
C2126 H2138 0.956 . S
C2126 H2139 0.961 . S
C2126 H2140 0.961 . S
C2127 C2124 1.539 . S
C2127 H2141 0.958 . S
C2127 H2142 0.961 . S
C2127 H2143 0.960 . S
H2128 C2112 0.931 . S
H2129 C2117 0.929 . S
H2130 C2118 0.960 . S
H2131 C2118 0.962 . S
H2132 C2118 0.960 . S
H2133 C2119 0.961 . S
H2134 C2119 0.961 . S
H2135 C2119 0.961 . S
H2136 C2120 0.931 . S
H2137 C2125 0.930 . S
H2138 C2126 0.956 . S
H2139 C2126 0.961 . S
H2140 C2126 0.961 . S
H2141 C2127 0.958 . S
H2142 C2127 0.961 . S
H2143 C2127 0.960 . S
C2144 C2145 1.391 . S
C2144 C2146 1.394 . S
C2144 H2160 0.931 . S
C2145 C2144 1.391 . S
C2145 C2149 1.376 . S
C2146 C2144 1.394 . S
C2146 C2147 1.369 . S
C2146 C2150 1.531 . S
C2147 C2146 1.369 . S
C2147 C2148 1.410 . S
C2147 C2155 1.503 . S
C2148 C2147 1.410 . S
C2148 C2149 1.392 . S
C2148 C2151 1.511 . S
C2149 C2145 1.376 . S
C2149 C2148 1.392 . S
C2149 H2161 0.929 . S
C2150 C2146 1.531 . S
C2150 H2162 0.960 . S
C2150 H2163 0.962 . S
C2150 H2164 0.960 . S
C2151 C2148 1.511 . S
C2151 H2165 0.961 . S
C2151 H2166 0.961 . S
C2151 H2167 0.961 . S
C2152 C2153 1.370 . S
C2152 C2154 1.363 . S
C2152 H2168 0.931 . S
C2153 C2152 1.370 . S
C2153 C2157 1.408 . S
C2154 C2152 1.363 . S
C2154 C2155 1.370 . S
C2154 C2158 1.524 . S
C2155 C2147 1.503 . S
C2155 C2154 1.370 . S
C2155 C2156 1.403 . S
C2156 C2155 1.403 . S
C2156 C2157 1.404 . S
C2156 C2159 1.539 . S
C2157 C2153 1.408 . S
C2157 C2156 1.404 . S
C2157 H2169 0.930 . S
C2158 C2154 1.524 . S
C2158 H2170 0.956 . S
C2158 H2171 0.961 . S
C2158 H2172 0.961 . S
C2159 C2156 1.539 . S
C2159 H2173 0.958 . S
C2159 H2174 0.961 . S
C2159 H2175 0.960 . S
H2160 C2144 0.931 . S
H2161 C2149 0.929 . S
H2162 C2150 0.960 . S
H2163 C2150 0.962 . S
H2164 C2150 0.960 . S
H2165 C2151 0.961 . S
H2166 C2151 0.961 . S
H2167 C2151 0.961 . S
H2168 C2152 0.931 . S
H2169 C2157 0.930 . S
H2170 C2158 0.956 . S
H2171 C2158 0.961 . S
H2172 C2158 0.961 . S
H2173 C2159 0.958 . S
H2174 C2159 0.961 . S
H2175 C2159 0.960 . S
C641 C131 1.770 . S
C649 C19 1.806 . S
C673 C2 0.569 . S
C681 C56 0.621 . S
C705 C90 1.307 . S
C713 C59 1.312 . S
C737 C127 1.192 . S
C745 C87 1.180 . S
C769 C167 1.943 . S
C777 C202 1.937 . S
C801 C219 1.203 . S
C809 C259 1.201 . S
C833 C256 0.939 . S
C841 C287 0.964 . S
C865 C171 1.922 . S
C873 C290 1.969 . S
C897 C376 1.686 . S
C905 C16 1.681 . S
C929 C402 2.182 . S
C937 C42 2.184 . S
C961 C91 4.383 . S
C969 C531 4.390 . S
C993 C330 0.802 . S
C1001 C130 0.761 . S
C1025 C450 0.875 . S
C1033 C170 0.868 . S
C1057 C571 2.944 . S
C1065 C216 2.972 . S
C1089 C242 1.458 . S
C1097 C482 1.400 . S
C1121 C611 4.225 . S
C1129 C291 4.188 . S
C1153 C331 1.763 . S
C1161 C530 1.792 . S
C1185 C362 1.225 . S
C1193 C327 1.268 . S
C1217 C419 0.700 . S
C1225 C379 0.716 . S
C1249 C570 1.869 . S
C1257 C451 1.877 . S
C1281 C499 0.525 . S
C1289 C610 0.568 . S
C1313 C442 1.796 . S
C1321 C10 1.797 . S
C1345 C487 0.668 . S
C1353 C11 0.574 . S
C1377 C490 1.300 . S
C1385 C99 1.302 . S
C1409 C96 1.168 . S
C1417 C456 1.194 . S
C1441 C371 1.957 . S
C1449 C176 1.924 . S
C1473 C370 1.201 . S
C1481 C250 1.187 . S
C1505 C536 0.920 . S
C1513 C247 0.970 . S
C1537 C162 1.917 . S
C1545 C539 1.976 . S
C1569 C207 1.700 . S
C1577 C7 1.673 . S
C1601 C411 2.150 . S
C1609 C491 2.188 . S
C1633 C82 4.384 . S
C1641 C282 4.385 . S
C1665 C339 0.794 . S
C1673 C459 0.756 . S
C1697 C139 0.897 . S
C1705 C179 0.880 . S
C1729 C367 2.968 . S
C1737 C562 2.952 . S
C1761 C251 1.436 . S
C1769 C51 1.415 . S
C1793 C602 4.217 . S
C1801 C522 4.191 . S
C1825 C322 1.783 . S
C1833 C299 1.788 . S
C1857 C336 1.225 . S
C1865 C211 1.254 . S
C1889 C410 0.714 . S
C1897 C210 0.705 . S
C1921 C122 1.890 . S
C1929 C579 1.867 . S
C1953 C50 0.635 . S
C1961 C619 0.580 . S
C1985 C496 0.507 . S
C1993 C567 0.485 . S
C2017 C447 1.219 . S
C2025 C607 1.242 . S
C2049 C416 0.811 . S
C2057 C527 0.814 . S
C2081 C576 0.508 . S
C2089 C47 0.511 . S
C2113 C136 1.222 . S
C2121 C616 1.237 . S
C2145 C296 0.836 . S
C2153 C407 0.821 . S
