# Generated by pormake.
# Topology snk, (6)-cn, num edge types: 1
# Building blocks:
#     Node 0, Type 0, BuildingBlock: KUMBUR_clean_sbu_0, # of connection points: 6
#     Node 1, Type 0, BuildingBlock: KUMBUR_clean_sbu_0, # of connection points: 6
#     Node 2, Type 0, BuildingBlock: KUMBUR_clean_sbu_0, # of connection points: 6
#     Node 3, Type 0, BuildingBlock: KUMBUR_clean_sbu_0, # of connection points: 6
#     Node 4, Type 0, BuildingBlock: KUMBUR_clean_sbu_0, # of connection points: 6
#     Node 5, Type 0, BuildingBlock: KUMBUR_clean_sbu_0, # of connection points: 6
#     Node 6, Type 0, BuildingBlock: KUMBUR_clean_sbu_0, # of connection points: 6
#     Node 7, Type 0, BuildingBlock: KUMBUR_clean_sbu_0, # of connection points: 6
#     Edge 8, Type (0, 0), BuildingBlock: XIVTED_clean_linker_0, # of connection points: 2
#     Edge 9, Type (0, 0), BuildingBlock: XIVTED_clean_linker_0, # of connection points: 2
#     Edge 10, Type (0, 0), BuildingBlock: XIVTED_clean_linker_0, # of connection points: 2
#     Edge 11, Type (0, 0), BuildingBlock: XIVTED_clean_linker_0, # of connection points: 2
#     Edge 12, Type (0, 0), BuildingBlock: XIVTED_clean_linker_0, # of connection points: 2
#     Edge 13, Type (0, 0), BuildingBlock: XIVTED_clean_linker_0, # of connection points: 2
#     Edge 14, Type (0, 0), BuildingBlock: XIVTED_clean_linker_0, # of connection points: 2
#     Edge 15, Type (0, 0), BuildingBlock: XIVTED_clean_linker_0, # of connection points: 2
#     Edge 16, Type (0, 0), BuildingBlock: XIVTED_clean_linker_0, # of connection points: 2
#     Edge 17, Type (0, 0), BuildingBlock: XIVTED_clean_linker_0, # of connection points: 2
#     Edge 18, Type (0, 0), BuildingBlock: XIVTED_clean_linker_0, # of connection points: 2
#     Edge 19, Type (0, 0), BuildingBlock: XIVTED_clean_linker_0, # of connection points: 2
#     Edge 20, Type (0, 0), BuildingBlock: XIVTED_clean_linker_0, # of connection points: 2
#     Edge 21, Type (0, 0), BuildingBlock: XIVTED_clean_linker_0, # of connection points: 2
#     Edge 22, Type (0, 0), BuildingBlock: XIVTED_clean_linker_0, # of connection points: 2
#     Edge 23, Type (0, 0), BuildingBlock: XIVTED_clean_linker_0, # of connection points: 2
#     Edge 24, Type (0, 0), BuildingBlock: XIVTED_clean_linker_0, # of connection points: 2
#     Edge 25, Type (0, 0), BuildingBlock: XIVTED_clean_linker_0, # of connection points: 2
#     Edge 26, Type (0, 0), BuildingBlock: XIVTED_clean_linker_0, # of connection points: 2
#     Edge 27, Type (0, 0), BuildingBlock: XIVTED_clean_linker_0, # of connection points: 2
#     Edge 28, Type (0, 0), BuildingBlock: XIVTED_clean_linker_0, # of connection points: 2
#     Edge 29, Type (0, 0), BuildingBlock: XIVTED_clean_linker_0, # of connection points: 2
#     Edge 30, Type (0, 0), BuildingBlock: XIVTED_clean_linker_0, # of connection points: 2
#     Edge 31, Type (0, 0), BuildingBlock: XIVTED_clean_linker_0, # of connection points: 2
# Relax obj value: 0.006
# Max RMSD: 0.053
# Mean RMSD: 0.050
data_MOF--net-snk--node1-KUMBUR_clean_sbu_0--edge1-XIVTED_clean_linker_0
_symmetry_space_group_name_H-M    P1
_symmetry_Int_Tables_number       1
_symmetry_cell_setting            triclinic
loop_
_symmetry_equiv_pos_as_xyz
'x, y, z'
_cell_length_a     37.962292
_cell_length_b     37.933194
_cell_length_c     24.424752
_cell_angle_alpha  87.196509
_cell_angle_beta   87.371104
_cell_angle_gamma 89.780404
loop_
_atom_site_label
_atom_site_type_symbol
_atom_site_fract_x
_atom_site_fract_y
_atom_site_fract_z
_atom_type_partial_charge
Tb0 Tb 1.00155 0.97452 0.47136 0.0
C1 C 0.00522 0.11698 0.57755 0.0
C2 C 0.06589 0.13616 0.5674 0.0
C3 C 0.01875 0.17966 0.57043 0.0
C4 C 0.04053 0.10897 0.57215 0.0
C5 C 0.99381 0.15237 0.57784 0.0
C6 C 0.05478 0.17155 0.56524 0.0
C7 C 0.93448 0.13107 0.59736 0.0
N8 N 0.98213 0.08984 0.58528 0.0
C9 C 0.94716 0.0964 0.59715 0.0
C10 C 0.95785 0.15921 0.58704 0.0
Tb11 Tb 0.00511 0.03383 0.58184 0.0
N12 N 0.05007 0.07447 0.57506 0.0
C13 C 0.08493 0.06549 0.57756 0.0
C14 C 0.1016 0.12695 0.5667 0.0
C15 C 0.11112 0.09146 0.57262 0.0
H16 H 0.92875 0.07494 0.60482 0.0
H17 H 0.13866 0.08403 0.57317 0.0
H18 H 0.07384 0.19281 0.56101 0.0
H19 H 0.90668 0.13607 0.60545 0.0
H20 H 0.093 0.03828 0.58174 0.0
H21 H 0.86781 0.92484 0.48019 0.0
H22 H 0.12193 0.147 0.56295 0.0
H23 H 0.07764 0.93314 0.44774 0.0
H24 H 0.91365 0.97041 0.47138 0.0
H25 H 0.09948 0.87192 0.447 0.0
H26 H 0.01054 0.20706 0.57006 0.0
H27 H 0.8843 0.86182 0.49074 0.0
H28 H 0.93222 0.81582 0.49281 0.0
H29 H 0.94798 0.18604 0.58749 0.0
H30 H 0.99545 0.80133 0.48352 0.0
N31 N 0.95644 0.93407 0.47831 0.0
C32 C 0.92161 0.94318 0.47573 0.0
C33 C 0.90471 0.88179 0.4869 0.0
C34 C 0.94038 0.87244 0.48623 0.0
C35 C 0.89532 0.91731 0.48079 0.0
C36 C 0.96585 0.89953 0.48136 0.0
H37 H 0.05805 0.8221 0.4655 0.0
N38 N 0.02429 0.91843 0.46791 0.0
C39 C 0.07174 0.87702 0.45538 0.0
C40 C 1.00112 0.89139 0.47588 0.0
C41 C 0.05919 0.91174 0.45566 0.0
C42 C 0.0483 0.84897 0.46601 0.0
C43 C 0.01238 0.85594 0.47555 0.0
O44 O 0.02693 0.97578 0.3927 0.0
O45 O 0.02281 0.02345 0.49884 0.0
O46 O 0.97994 0.06231 0.51376 0.0
O47 O 0.95874 0.01438 0.46935 0.0
O48 O 0.05553 0.99386 0.45181 0.0
O49 O 0.97087 0.98332 0.40233 0.0
O50 O 0.97977 0.03252 0.66052 0.0
O51 O 0.98388 0.9849 0.55436 0.0
O52 O 0.02714 0.94614 0.53919 0.0
O53 O 0.04808 0.99419 0.58365 0.0
O54 O 0.95112 0.01447 0.60128 0.0
O55 O 0.03583 0.02498 0.65082 0.0
C56 C 0.0535 0.02306 0.47614 0.0
C57 C 0.99257 0.95826 0.3206 0.0
C58 C 0.99231 0.95236 0.22112 0.0
C59 C 0.99682 0.97311 0.26673 0.0
C60 C 0.98333 0.91653 0.23062 0.0
C61 C 0.98366 0.92253 0.32883 0.0
C62 C 0.97907 0.90183 0.28405 0.0
C63 C 0.95853 0.04851 0.47921 0.0
C64 C 0.99765 0.98039 0.36757 0.0
C65 C 0.98735 0.82876 0.48315 0.0
C66 C 0.95136 0.83701 0.48847 0.0
C67 C 0.95318 0.98525 0.577 0.0
C68 C 0.01416 0.04994 0.73265 0.0
C69 C 0.00988 0.03503 0.78649 0.0
C70 C 0.01439 0.05573 0.83217 0.0
C71 C 0.02341 0.09155 0.82276 0.0
C72 C 0.02309 0.08567 0.72452 0.0
C73 C 0.0277 0.10631 0.76936 0.0
C74 C 0.04856 0.96008 0.57359 0.0
C75 C 0.00906 0.02788 0.68561 0.0
H76 H 0.00408 1.00067 0.26046 0.0
H77 H 0.97907 0.89991 0.19674 0.0
H78 H 0.98017 0.91063 0.36971 0.0
H79 H 0.97205 0.87428 0.29078 0.0
H80 H 1.00259 0.00747 0.79269 0.0
H81 H 0.02768 0.10813 0.85669 0.0
H82 H 0.02659 0.09761 0.68367 0.0
H83 H 0.03474 0.13386 0.76271 0.0
Tb84 Tb 0.2845 0.75049 0.71527 0.0
C85 C 0.13977 0.75836 0.83798 0.0
C86 C 0.12249 0.81971 0.83041 0.0
C87 C 0.07764 0.77393 0.83679 0.0
C88 C 0.14884 0.79344 0.8325 0.0
C89 C 0.10408 0.74806 0.84119 0.0
C90 C 0.08684 0.80974 0.83141 0.0
C91 C 0.12343 0.68782 0.8568 0.0
N92 N 0.16613 0.73436 0.84242 0.0
C93 C 0.15843 0.69944 0.85368 0.0
C94 C 0.09612 0.71219 0.84995 0.0
Tb95 Tb 0.22276 0.75558 0.83378 0.0
N96 N 0.18353 0.80182 0.83201 0.0
C97 C 0.19352 0.83636 0.83349 0.0
C98 C 0.13275 0.85512 0.82883 0.0
C99 C 0.16841 0.86345 0.8312 0.0
H100 H 0.17929 0.6803 0.85859 0.0
H101 H 0.17663 0.89074 0.83098 0.0
H102 H 0.06621 0.82951 0.82929 0.0
H103 H 0.11754 0.66007 0.86444 0.0
H104 H 0.22091 0.84344 0.83487 0.0
H105 H 0.33124 0.61555 0.71769 0.0
H106 H 0.11337 0.87613 0.82702 0.0
H107 H 0.32766 0.82601 0.69102 0.0
H108 H 0.28676 0.66267 0.71372 0.0
H109 H 0.38932 0.84651 0.68563 0.0
H110 H 0.05004 0.76658 0.83869 0.0
H111 H 0.3944 0.63043 0.72221 0.0
H112 H 0.44134 0.67726 0.72037 0.0
H113 H 0.06903 0.70314 0.85258 0.0
H114 H 0.45724 0.74026 0.71126 0.0
N115 N 0.32392 0.70443 0.71707 0.0
C116 C 0.3141 0.66985 0.71532 0.0
C117 C 0.37493 0.65136 0.72037 0.0
C118 C 0.38502 0.68681 0.719 0.0
C119 C 0.33933 0.64288 0.71766 0.0
C120 C 0.35856 0.71296 0.71683 0.0
H121 H 0.43799 0.80364 0.69754 0.0
N122 N 0.34104 0.77198 0.70695 0.0
C123 C 0.38354 0.81873 0.69307 0.0
C124 C 0.36749 0.74809 0.71144 0.0
C125 C 0.34859 0.80696 0.69593 0.0
C126 C 0.41094 0.79447 0.69995 0.0
C127 C 0.40313 0.75855 0.70849 0.0
O128 O 0.28398 0.77648 0.63711 0.0
O129 O 0.23698 0.77311 0.75054 0.0
O130 O 0.19544 0.73245 0.7679 0.0
O131 O 0.24361 0.70936 0.71856 0.0
O132 O 0.26642 0.805 0.6977 0.0
O133 O 0.27537 0.72043 0.64714 0.0
O134 O 0.22347 0.72953 0.91188 0.0
O135 O 0.27015 0.73283 0.7984 0.0
O136 O 0.31187 0.77316 0.78142 0.0
O137 O 0.26377 0.79662 0.83033 0.0
O138 O 0.24064 0.70103 0.85129 0.0
O139 O 0.23207 0.78558 0.90192 0.0
C140 C 0.23768 0.80354 0.7275 0.0
C141 C 0.30058 0.7423 0.56193 0.0
C142 C 0.30546 0.74078 0.46163 0.0
C143 C 0.28515 0.74559 0.5106 0.0
C144 C 0.34155 0.73273 0.46524 0.0
C145 C 0.33653 0.73423 0.56436 0.0
C146 C 0.35686 0.72949 0.51621 0.0
C147 C 0.20936 0.71101 0.73161 0.0
C148 C 0.27875 0.74746 0.61232 0.0
C149 C 0.42967 0.73279 0.71297 0.0
C150 C 0.42062 0.69694 0.71821 0.0
C151 C 0.26933 0.70238 0.82138 0.0
C152 C 0.20704 0.76363 0.98721 0.0
C153 C 0.22259 0.76035 0.03845 0.0
C154 C 0.20236 0.7651 0.08751 0.0
C155 C 0.16624 0.77308 0.08409 0.0
C156 C 0.17107 0.77164 0.98495 0.0
C157 C 0.15083 0.77631 0.0332 0.0
C158 C 0.29805 0.7947 0.8176 0.0
C159 C 0.22877 0.75851 0.93671 0.0
H160 H 0.25724 0.75145 0.50898 0.0
H161 H 0.35815 0.72943 0.4286 0.0
H162 H 0.34887 0.73163 0.60335 0.0
H163 H 0.38466 0.72339 0.51836 0.0
H164 H 0.25052 0.75453 0.03993 0.0
H165 H 0.1497 0.77633 0.12081 0.0
H166 H 0.15865 0.77423 0.94604 0.0
H167 H 0.12301 0.78235 0.03119 0.0
Tb168 Tb 0.50926 0.97529 0.0841 0.0
C169 C 0.49045 0.11686 0.95504 0.0
C170 C 0.42919 0.13271 0.97007 0.0
C171 C 0.47343 0.1787 0.95441 0.0
C172 C 0.45597 0.10697 0.9661 0.0
C173 C 0.49966 0.1528 0.94805 0.0
C174 C 0.43821 0.16866 0.9654 0.0
C175 C 0.55935 0.13465 0.92501 0.0
N176 N 0.51481 0.091 0.94887 0.0
C177 C 0.5488 0.09935 0.93205 0.0
C178 C 0.53476 0.16153 0.93362 0.0
Tb179 Tb 0.49555 0.03391 0.96391 0.0
N180 N 0.44847 0.072 0.96978 0.0
C181 C 0.4141 0.06107 0.97325 0.0
C182 C 0.39415 0.12153 0.97692 0.0
C183 C 0.38656 0.08554 0.97761 0.0
H184 H 0.56812 0.07884 0.92568 0.0
H185 H 0.35949 0.07659 0.9818 0.0
H186 H 0.41807 0.18885 0.96887 0.0
H187 H 0.58644 0.1411 0.91297 0.0
H188 H 0.40759 0.03344 0.97428 0.0
H189 H 0.64526 0.93229 0.06727 0.0
H190 H 0.37278 0.14042 0.9803 0.0
H191 H 0.43644 0.93049 0.12165 0.0
H192 H 0.59724 0.97554 0.07425 0.0
H193 H 0.41799 0.86831 0.13438 0.0
H194 H 0.47997 0.2065 0.94966 0.0
H195 H 0.63185 0.86848 0.06901 0.0
H196 H 0.58645 0.82016 0.0803 0.0
H197 H 0.54295 0.18884 0.92792 0.0
H198 H 0.52446 0.80265 0.09905 0.0
N199 N 0.55627 0.93708 0.07871 0.0
C200 C 0.59066 0.94793 0.07538 0.0
C201 C 0.61051 0.88742 0.07217 0.0
C202 C 0.57543 0.87632 0.07881 0.0
C203 C 0.61817 0.92339 0.07134 0.0
C204 C 0.5487 0.90213 0.08249 0.0
H205 H 0.46145 0.82046 0.12008 0.0
N206 N 0.48984 0.91824 0.09912 0.0
C207 C 0.44514 0.87469 0.12262 0.0
C208 C 0.51417 0.89232 0.09329 0.0
C209 C 0.45577 0.90996 0.11557 0.0
C210 C 0.46972 0.84775 0.11438 0.0
C211 C 0.50487 0.8564 0.1003 0.0
O212 O 0.48742 0.97728 0.16479 0.0
O213 O 0.48353 0.02166 0.04982 0.0
O214 O 0.52222 0.06353 1.02377 0.0
O215 O 0.54942 0.01703 0.07189 0.0
O216 O 0.45538 0.99221 0.10791 0.0
O217 O 0.54271 0.98699 0.14713 0.0
O218 O 0.51723 0.03209 0.88311 0.0
O219 O 0.52137 0.98771 0.99832 0.0
O220 O 0.48296 0.94559 1.02394 0.0
O221 O 0.45555 0.99202 0.97602 0.0
O222 O 0.54934 0.01681 0.93965 0.0
O223 O 0.46198 0.02226 0.90102 0.0
C224 C 0.45443 0.02042 0.07682 0.0
C225 C 0.52588 0.96283 0.23568 0.0
C226 C 0.52589 0.95751 0.33614 0.0
C227 C 0.51842 0.97694 0.28723 0.0
C228 C 0.54108 0.92375 0.33227 0.0
C229 C 0.54088 0.92911 0.23303 0.0
C230 C 0.54844 0.90974 0.28113 0.0
C231 C 0.5466 0.0509 0.05641 0.0
C232 C 0.51765 0.98364 0.18532 0.0
C233 C 0.53107 0.83043 0.09427 0.0
C234 C 0.56634 0.84039 0.08355 0.0
C235 C 0.55036 0.98874 0.97105 0.0
C236 C 0.47858 0.04662 0.81249 0.0
C237 C 0.48588 0.0326 0.76085 0.0
C238 C 0.47826 0.05209 0.71206 0.0
C239 C 0.4631 0.08585 0.71616 0.0
C240 C 0.46359 0.08033 0.81537 0.0
C241 C 0.45588 0.09977 0.7674 0.0
C242 C 0.45861 0.95813 0.99117 0.0
C243 C 0.48696 0.02573 0.86271 0.0
H244 H 0.50639 1.00284 0.28911 0.0
H245 H 0.54776 0.90827 0.36878 0.0
H246 H 0.54684 0.9178 0.19393 0.0
H247 H 0.5602 0.88379 0.27876 0.0
H248 H 0.49791 0.0067 0.75879 0.0
H249 H 0.4563 0.10137 0.67976 0.0
H250 H 0.45773 0.09158 0.85455 0.0
H251 H 0.44413 0.12572 0.76994 0.0
Tb252 Tb 0.28342 0.25683 0.33358 0.0
C253 C 0.14129 0.25102 0.22699 0.0
C254 C 0.12275 0.19014 0.23836 0.0
C255 C 0.07881 0.23686 0.23442 0.0
C256 C 0.14965 0.21579 0.23311 0.0
C257 C 0.10581 0.26206 0.22643 0.0
C258 C 0.08728 0.20091 0.24036 0.0
C259 C 0.12647 0.32153 0.20533 0.0
N260 N 0.16816 0.27436 0.21869 0.0
C261 C 0.16124 0.3092 0.20584 0.0
C262 C 0.09861 0.29793 0.2163 0.0
Tb263 Tb 0.22435 0.25199 0.22281 0.0
N264 N 0.18421 0.20659 0.23023 0.0
C265 C 0.19352 0.17177 0.22806 0.0
C266 C 0.13231 0.15449 0.23958 0.0
C267 C 0.16785 0.1453 0.23351 0.0
H268 H 0.18251 0.32777 0.19767 0.0
H269 H 0.17554 0.1178 0.23328 0.0
H270 H 0.06623 0.18162 0.24499 0.0
H271 H 0.1212 0.34923 0.19649 0.0
H272 H 0.22078 0.16398 0.22379 0.0
H273 H 0.33254 0.39092 0.32215 0.0
H274 H 0.11249 0.13394 0.24374 0.0
H275 H 0.32509 0.18088 0.35854 0.0
H276 H 0.28719 0.34488 0.33153 0.0
H277 H 0.38633 0.1593 0.35992 0.0
H278 H 0.05135 0.24479 0.23461 0.0
H279 H 0.39558 0.37461 0.31269 0.0
H280 H 0.44173 0.32682 0.31209 0.0
H281 H 0.0717 0.30752 0.2156 0.0
H282 H 0.45645 0.26362 0.32261 0.0
N283 N 0.32368 0.30213 0.3261 0.0
C284 C 0.31443 0.33699 0.32771 0.0
C285 C 0.37571 0.35411 0.31682 0.0
C286 C 0.38519 0.31844 0.31841 0.0
C287 C 0.34017 0.3634 0.32231 0.0
C288 C 0.35822 0.29285 0.32361 0.0
H289 H 0.43594 0.20094 0.3413 0.0
N290 N 0.33956 0.23432 0.33794 0.0
C291 C 0.38113 0.18703 0.35121 0.0
C292 C 0.36649 0.25761 0.32985 0.0
C293 C 0.34639 0.19944 0.35059 0.0
C294 C 0.40906 0.21059 0.34053 0.0
C295 C 0.40195 0.24648 0.33053 0.0
O296 O 0.28205 0.23193 0.41272 0.0
O297 O 0.2347 0.23494 0.30622 0.0
O298 O 0.19571 0.2778 0.28998 0.0
O299 O 0.24347 0.29958 0.33421 0.0
O300 O 0.26461 0.20274 0.35395 0.0
O301 O 0.27434 0.28798 0.40187 0.0
O302 O 0.22551 0.27703 0.14379 0.0
O303 O 0.27298 0.27379 0.25022 0.0
O304 O 0.31216 0.23129 0.26631 0.0
O305 O 0.26452 0.20938 0.22192 0.0
O306 O 0.24338 0.30605 0.20227 0.0
O307 O 0.23337 0.22099 0.15433 0.0
C308 C 0.23544 0.20434 0.32944 0.0
C309 C 0.29921 0.26686 0.48431 0.0
C310 C 0.305 0.26701 0.58387 0.0
C311 C 0.28441 0.26218 0.53811 0.0
C312 C 0.34061 0.27675 0.57458 0.0
C313 C 0.33472 0.27651 0.4763 0.0
C314 C 0.35525 0.28143 0.52122 0.0
C315 C 0.20941 0.29967 0.32393 0.0
C316 C 0.27727 0.2614 0.43719 0.0
C317 C 0.42901 0.27163 0.32269 0.0
C318 C 0.42064 0.30759 0.31666 0.0
C319 C 0.27253 0.30434 0.22686 0.0
C320 C 0.20826 0.24222 0.07213 0.0
C321 C 0.22298 0.24687 1.01828 0.0
C322 C 0.2023 0.24212 0.97261 0.0
C323 C 0.16667 0.23249 0.98203 0.0
C324 C 0.17272 0.23268 0.08027 0.0
C325 C 0.1521 0.22785 0.03544 0.0
C326 C 0.2986 0.20945 0.2322 0.0
C327 C 0.2303 0.24763 0.11915 0.0
H328 H 0.25703 0.25435 0.54422 0.0
H329 H 0.35709 0.28128 0.60856 0.0
H330 H 0.34658 0.28032 0.43548 0.0
H331 H 0.38264 0.28902 0.51467 0.0
H332 H 0.25038 0.25463 1.01208 0.0
H333 H 0.15011 0.22803 0.94811 0.0
H334 H 0.16092 0.22889 0.12114 0.0
H335 H 0.12469 0.22034 0.0421 0.0
Tb336 Tb 0.78575 0.25091 0.21232 0.0
C337 C 0.64085 0.25968 0.33421 0.0
C338 C 0.62421 0.32123 0.32756 0.0
C339 C 0.5789 0.27592 0.33275 0.0
C340 C 0.65029 0.29468 0.32942 0.0
C341 C 0.60507 0.24974 0.33691 0.0
C342 C 0.58847 0.31164 0.32809 0.0
C343 C 0.62376 0.18921 0.35152 0.0
N344 N 0.66695 0.23537 0.33841 0.0
C345 C 0.65888 0.20047 0.34893 0.0
C346 C 0.59672 0.21391 0.3449 0.0
Tb347 Tb 0.72381 0.25602 0.33057 0.0
N348 N 0.68505 0.30268 0.32937 0.0
C349 C 0.69536 0.33709 0.33155 0.0
C350 C 0.63481 0.35651 0.32671 0.0
C351 C 0.67052 0.36444 0.32958 0.0
H352 H 0.67953 0.18108 0.35364 0.0
H353 H 0.67901 0.39163 0.32992 0.0
H354 H 0.56804 0.33164 0.32615 0.0
H355 H 0.61757 0.16149 0.35856 0.0
H356 H 0.72279 0.34389 0.33324 0.0
H357 H 0.83057 0.11532 0.2147 0.0
H358 H 0.61565 0.37773 0.32513 0.0
H359 H 0.82988 0.32575 0.18765 0.0
H360 H 0.78674 0.16307 0.2109 0.0
H361 H 0.89183 0.34538 0.18141 0.0
H362 H 0.55123 0.26886 0.33427 0.0
H363 H 0.89396 0.1293 0.21884 0.0
H364 H 0.94158 0.17546 0.21649 0.0
H365 H 0.56954 0.20515 0.34711 0.0
H366 H 0.95835 0.23822 0.20699 0.0
N367 N 0.82451 0.20429 0.21417 0.0
C368 C 0.8142 0.16986 0.21243 0.0
C369 C 0.87477 0.1505 0.21716 0.0
C370 C 0.88538 0.18581 0.2157 0.0
C371 C 0.83905 0.14253 0.21466 0.0
C372 C 0.85928 0.21233 0.21374 0.0
H373 H 0.93996 0.30184 0.19307 0.0
N374 N 0.84256 0.27158 0.20386 0.0
C375 C 0.88569 0.3177 0.18918 0.0
C376 C 0.86869 0.24732 0.20825 0.0
C377 C 0.85057 0.30642 0.19254 0.0
C378 C 0.91278 0.29306 0.19591 0.0
C379 C 0.90447 0.25728 0.20482 0.0
O380 O 0.78557 0.27702 0.1342 0.0
O381 O 0.73849 0.2739 0.24767 0.0
O382 O 0.69633 0.234 0.26404 0.0
O383 O 0.74424 0.21034 0.21493 0.0
O384 O 0.76821 0.30562 0.19493 0.0
O385 O 0.77621 0.2211 0.14407 0.0
O386 O 0.72396 0.22951 0.40837 0.0
O387 O 0.77121 0.23311 0.29537 0.0
O388 O 0.81323 0.27374 0.27844 0.0
O389 O 0.76498 0.29674 0.32764 0.0
O390 O 0.74111 0.20119 0.3472 0.0
O391 O 0.73338 0.28545 0.39922 0.0
C392 C 0.73949 0.30437 0.2248 0.0
C393 C 0.80156 0.24271 0.05884 0.0
C394 C 0.80613 0.24075 0.95857 0.0
C395 C 0.786 0.2459 1.0076 0.0
C396 C 0.84218 0.23245 0.96203 0.0
C397 C 0.83746 0.23438 0.06112 0.0
C398 C 0.85761 0.2293 1.01291 0.0
C399 C 0.70997 0.21257 0.22756 0.0
C400 C 0.7799 0.24813 0.10932 0.0
C401 C 0.93067 0.23115 0.20908 0.0
C402 C 0.92113 0.19543 0.21453 0.0
C403 C 0.77003 0.20252 0.31783 0.0
C404 C 0.70785 0.26342 0.48408 0.0
C405 C 0.72331 0.26006 0.53539 0.0
C406 C 0.70304 0.2649 0.58438 0.0
C407 C 0.66697 0.27304 0.58083 0.0
C408 C 0.67192 0.27158 0.48171 0.0
C409 C 0.65163 0.27634 0.52989 0.0
C410 C 0.79927 0.29495 0.31506 0.0
C411 C 0.72962 0.25825 0.43364 0.0
H412 H 0.75812 0.25195 1.0061 0.0
H413 H 0.85865 0.22888 0.92534 0.0
H414 H 0.8499 0.23182 0.10003 0.0
H415 H 0.88537 0.223 1.01494 0.0
H416 H 0.75121 0.25413 0.53697 0.0
H417 H 0.6504 0.27637 0.6175 0.0
H418 H 0.65956 0.27423 0.44274 0.0
H419 H 0.62385 0.2825 0.52778 0.0
Tb420 Tb 0.78234 0.75723 0.8317 0.0
C421 C 0.64055 0.74979 0.72432 0.0
C422 C 0.62221 0.68888 0.73645 0.0
C423 C 0.57811 0.73542 0.73164 0.0
C424 C 0.64902 0.71461 0.73099 0.0
C425 C 0.60504 0.7607 0.72345 0.0
C426 C 0.5867 0.69953 0.73811 0.0
C427 C 0.62554 0.82016 0.70179 0.0
N428 N 0.66736 0.77319 0.71586 0.0
C429 C 0.66034 0.80795 0.70261 0.0
C430 C 0.59774 0.7965 0.71289 0.0
Tb431 Tb 0.72363 0.75105 0.72063 0.0
N432 N 0.68362 0.70553 0.72846 0.0
C433 C 0.69305 0.67072 0.72686 0.0
C434 C 0.63189 0.65326 0.73824 0.0
C435 C 0.66747 0.64416 0.73253 0.0
H436 H 0.68154 0.82659 0.69435 0.0
H437 H 0.67526 0.61668 0.73276 0.0
H438 H 0.56571 0.68018 0.74289 0.0
H439 H 0.62018 0.84781 0.69264 0.0
H440 H 0.72034 0.66299 0.7229 0.0
H441 H 0.82995 0.89187 0.81953 0.0
H442 H 0.61213 0.63265 0.74257 0.0
H443 H 0.82483 0.682 0.85829 0.0
H444 H 0.78513 0.84532 0.82945 0.0
H445 H 0.88631 0.66111 0.85999 0.0
H446 H 0.55064 0.74326 0.7316 0.0
H447 H 0.89316 0.87627 0.80962 0.0
H448 H 0.93984 0.82899 0.80923 0.0
H449 H 0.5708 0.80598 0.71197 0.0
H450 H 0.95528 0.766 0.82055 0.0
N451 N 0.82208 0.80298 0.82385 0.0
C452 C 0.81245 0.83774 0.82545 0.0
C453 C 0.87352 0.85555 0.81399 0.0
C454 C 0.8834 0.81998 0.81577 0.0
C455 C 0.83789 0.86444 0.81975 0.0
C456 C 0.85673 0.79409 0.82128 0.0
H457 H 0.93546 0.70318 0.84039 0.0
N458 N 0.83872 0.73543 0.83649 0.0
C459 C 0.88081 0.68872 0.85072 0.0
C460 C 0.8654 0.75897 0.82792 0.0
C461 C 0.84593 0.70073 0.84991 0.0
C462 C 0.90847 0.71252 0.83946 0.0
C463 C 0.90097 0.74826 0.82878 0.0
O464 O 0.7812 0.73275 0.91111 0.0
O465 O 0.73398 0.73467 0.80431 0.0
O466 O 0.69453 0.77678 0.78738 0.0
O467 O 0.74186 0.79955 0.83147 0.0
O468 O 0.76389 0.70312 0.85305 0.0
O469 O 0.77263 0.78863 0.89955 0.0
O470 O 0.72483 0.77546 0.64117 0.0
O471 O 0.77201 0.77354 0.74802 0.0
O472 O 0.81131 0.73115 0.76515 0.0
O473 O 0.7639 0.70857 0.72098 0.0
O474 O 0.74226 0.80513 0.69924 0.0
O475 O 0.73318 0.71955 0.65286 0.0
C476 C 0.73485 0.70427 0.82817 0.0
C477 C 0.79775 0.76837 0.98222 0.0
C478 C 0.80314 0.77039 0.08165 0.0
C479 C 0.78278 0.76453 0.036 0.0
C480 C 0.8388 0.77993 0.07228 0.0
C481 C 0.83327 0.77798 0.97412 0.0
C482 C 0.85364 0.78368 1.01894 0.0
C483 C 0.70782 0.79908 0.82106 0.0
C484 C 0.77593 0.76229 0.9352 0.0
C485 C 0.92775 0.77368 0.82053 0.0
C486 C 0.91897 0.80953 0.81404 0.0
C487 C 0.7713 0.80393 0.72412 0.0
C488 C 0.70807 0.73984 0.57018 0.0
C489 C 0.72298 0.74371 0.51636 0.0
C490 C 0.70255 0.73792 0.47076 0.0
C491 C 0.6669 0.72842 0.4802 0.0
C492 C 0.67254 0.73027 0.57836 0.0
C493 C 0.65211 0.72464 0.53358 0.0
C494 C 0.79791 0.70881 0.73164 0.0
C495 C 0.72995 0.74587 0.61716 0.0
H496 H 0.75519 0.75747 0.04213 0.0
H497 H 0.85543 0.78404 0.10624 0.0
H498 H 0.84527 0.7811 0.93329 0.0
H499 H 0.8811 0.79095 1.01232 0.0
H500 H 0.75057 0.75075 0.51017 0.0
H501 H 0.65022 0.72435 0.44628 0.0
H502 H 0.66058 0.72713 0.6192 0.0
H503 H 0.62464 0.71739 0.54026 0.0
Tb504 Tb 0.5013 0.47428 0.97144 0.0
C505 C 0.50701 0.6168 0.0774 0.0
C506 C 0.56786 0.63536 0.06653 0.0
C507 C 0.52119 0.67934 0.07015 0.0
C508 C 0.54222 0.60844 0.0716 0.0
C509 C 0.49599 0.65231 0.07784 0.0
C510 C 0.55711 0.67087 0.06451 0.0
C511 C 0.43652 0.63162 0.09808 0.0
N512 N 0.48368 0.5899 0.08539 0.0
C513 C 0.44883 0.59682 0.0977 0.0
C514 C 0.46013 0.65952 0.08749 0.0
Tb515 Tb 0.50604 0.53366 0.08164 0.0
N516 N 0.5514 0.57383 0.07433 0.0
C517 C 0.5862 0.56449 0.07631 0.0
C518 C 0.60347 0.62578 0.06533 0.0
C519 C 0.61265 0.59019 0.07106 0.0
H520 H 0.43023 0.57555 0.10558 0.0
H521 H 0.64012 0.58247 0.0712 0.0
H522 H 0.57638 0.69193 0.06004 0.0
H523 H 0.40881 0.63689 0.10652 0.0
H524 H 0.594 0.5372 0.08034 0.0
H525 H 0.36735 0.42514 0.98143 0.0
H526 H 0.624 0.64562 0.06131 0.0
H527 H 0.57719 0.43255 0.94748 0.0
H528 H 0.41339 0.47052 0.97195 0.0
H529 H 0.59876 0.37123 0.9469 0.0
H530 H 0.51326 0.70682 0.06988 0.0
H531 H 0.38361 0.36207 0.9923 0.0
H532 H 0.43135 0.31587 0.99409 0.0
H533 H 0.45056 0.68645 0.08807 0.0
H534 H 0.4945 0.30111 0.98431 0.0
N535 N 0.45604 0.43401 0.97879 0.0
C536 C 0.42123 0.44325 0.97639 0.0
C537 C 0.40409 0.38195 0.98815 0.0
C538 C 0.43973 0.37246 0.98718 0.0
C539 C 0.39484 0.4175 0.98184 0.0
C540 C 0.4653 0.39944 0.98192 0.0
H541 H 0.55715 0.32161 0.96582 0.0
N542 N 0.5238 0.41809 0.96792 0.0
C543 C 0.57105 0.37646 0.95537 0.0
C544 C 0.50053 0.39114 0.97615 0.0
C545 C 0.55865 0.41123 0.95555 0.0
C546 C 0.54751 0.34852 0.96623 0.0
C547 C 0.51164 0.35565 0.97593 0.0
O548 O 0.5263 0.4754 0.89255 0.0
O549 O 0.52308 0.52306 0.99851 0.0
O550 O 0.48054 0.56223 1.01392 0.0
O551 O 0.45873 0.51436 0.96999 0.0
O552 O 0.55534 0.49327 0.95113 0.0
O553 O 0.47028 0.48325 0.90284 0.0
O554 O 0.48108 0.53247 0.16056 0.0
O555 O 0.4841 0.48498 0.05449 0.0
O556 O 0.52665 0.44572 0.03921 0.0
O557 O 0.54863 0.49356 0.08294 0.0
O558 O 0.45196 0.5149 0.1019 0.0
O559 O 0.53707 0.52443 0.15016 0.0
C560 C 0.55363 0.5225 0.97541 0.0
C561 C 0.49149 0.45826 0.82083 0.0
C562 C 0.49022 0.453 0.72136 0.0
C563 C 0.49533 0.4734 0.76714 0.0
C564 C 0.48133 0.41712 0.73049 0.0
C565 C 0.48255 0.42252 0.82878 0.0
C566 C 0.47754 0.4021 0.7838 0.0
C567 C 0.4588 0.54851 0.97978 0.0
C568 C 0.4969 0.48021 0.86782 0.0
C569 C 0.48651 0.32858 0.98386 0.0
C570 C 0.45057 0.33698 0.98947 0.0
C571 C 0.45353 0.4857 0.07754 0.0
C572 C 0.51601 0.5493 0.23235 0.0
C573 C 0.51225 0.53403 0.28597 0.0
C574 C 0.51748 0.5543 0.33186 0.0
C575 C 0.52641 0.59018 0.32289 0.0
C576 C 0.52499 0.58504 0.22458 0.0
C577 C 0.53012 0.60533 0.26966 0.0
C578 C 0.54853 0.45942 0.07312 0.0
C579 C 0.51048 0.52749 0.18524 0.0
H580 H 0.50184 0.50116 0.76118 0.0
H581 H 0.47776 0.40048 0.69641 0.0
H582 H 0.47945 0.41039 0.86959 0.0
H583 H 0.47077 0.37447 0.79027 0.0
H584 H 0.50571 0.50627 0.29179 0.0
H585 H 0.53005 0.60673 0.35706 0.0
H586 H 0.52803 0.59727 0.18383 0.0
H587 H 0.53691 0.63296 0.26333 0.0
Tb588 Tb 0.00932 0.47275 0.59096 0.0
C589 C 0.98695 0.6135 0.46193 0.0
C590 C 0.92526 0.62757 0.47713 0.0
C591 C 0.96817 0.67483 0.46172 0.0
C592 C 0.95276 0.60261 0.47297 0.0
C593 C 0.99513 0.64969 0.45512 0.0
C594 C 0.93325 0.66376 0.47272 0.0
C595 C 0.05527 0.63328 0.4316 0.0
N596 N 0.01204 0.58836 0.45553 0.0
C597 C 0.04574 0.59769 0.43846 0.0
C598 C 0.02994 0.65943 0.44057 0.0
Tb599 Tb 0.99447 0.53074 0.47052 0.0
N600 N 0.94627 0.56744 0.47646 0.0
C601 C 0.91222 0.55553 0.47999 0.0
C602 C 0.89055 0.61538 0.48395 0.0
C603 C 0.88399 0.5792 0.48447 0.0
H604 H 0.06559 0.57771 0.43185 0.0
H605 H 0.85719 0.56947 0.48866 0.0
H606 H 0.91254 0.68336 0.47638 0.0
H607 H 0.08215 0.64051 0.41942 0.0
H608 H 0.90647 0.52774 0.48093 0.0
H609 H 0.14603 0.43234 0.57204 0.0
H610 H 0.86865 0.63365 0.48748 0.0
H611 H 0.93744 0.42671 0.62928 0.0
H612 H 0.09724 0.47471 0.57944 0.0
H613 H 0.92018 0.36418 0.64254 0.0
H614 H 0.97391 0.7028 0.45714 0.0
H615 H 0.13382 0.36826 0.57475 0.0
H616 H 0.08938 0.3191 0.58715 0.0
H617 H 0.03736 0.68698 0.43502 0.0
H618 H 0.0278 0.30047 0.60673 0.0
N619 N 0.05702 0.43545 0.5851 0.0
C620 C 0.0912 0.44697 0.581 0.0
C621 C 0.11215 0.38681 0.57809 0.0
C622 C 0.07731 0.37506 0.58541 0.0
C623 C 0.11913 0.42293 0.5767 0.0
C624 C 0.05011 0.40036 0.58928 0.0
H625 H 0.96451 0.31713 0.62819 0.0
N626 N 0.99099 0.41539 0.6064 0.0
C627 C 0.94717 0.37105 0.63052 0.0
C628 C 0.0158 0.38992 0.60053 0.0
C629 C 0.95712 0.40651 0.62317 0.0
C630 C 0.97224 0.34457 0.62226 0.0
C631 C 0.0072 0.35384 0.60784 0.0
O632 O 0.98766 0.47454 0.67177 0.0
O633 O 0.98278 0.5185 0.55644 0.0
O634 O 0.02061 0.56109 0.53001 0.0
O635 O 0.04859 0.51533 0.57866 0.0
O636 O 0.9552 0.48899 0.615 0.0
O637 O 0.04282 0.48488 0.65369 0.0
O638 O 0.01644 0.52943 0.38985 0.0
O639 O 0.02113 0.48514 0.50508 0.0
O640 O 0.98359 0.4422 0.53127 0.0
O641 O 0.95545 0.48792 0.48281 0.0
O642 O 0.04865 0.51464 0.44648 0.0
O643 O 0.96139 0.51833 0.4074 0.0
C644 C 0.95378 0.51705 0.58362 0.0
C645 C 0.02649 0.4606 0.74235 0.0
C646 C 0.02749 0.45569 0.84271 0.0
C647 C 0.01939 0.47484 0.79386 0.0
C648 C 0.04269 0.42193 0.83885 0.0
C649 C 0.04164 0.42694 0.73967 0.0
C650 C 0.04967 0.40776 0.78773 0.0
C651 C 0.0451 0.54909 0.56294 0.0
C652 C 0.01789 0.48126 0.69205 0.0
C653 C 0.03387 0.32836 0.60171 0.0
C654 C 0.06891 0.33896 0.59052 0.0
C655 C 0.05012 0.48657 0.47785 0.0
C656 C 0.9777 0.54326 0.31914 0.0
C657 C 0.98502 0.52935 0.26745 0.0
C658 C 0.97693 0.54871 0.21879 0.0
C659 C 0.96151 0.58235 0.22302 0.0
C660 C 0.96233 0.5768 0.32219 0.0
C661 C 0.95431 0.59618 0.27433 0.0
C662 C 0.95922 0.45413 0.49809 0.0
C663 C 0.98638 0.52243 0.36924 0.0
H664 H 0.00801 0.50103 0.79573 0.0
H665 H 0.04875 0.40618 0.87541 0.0
H666 H 0.04731 0.41551 0.70058 0.0
H667 H 0.06127 0.38174 0.78536 0.0
H668 H 0.99658 0.50325 0.26529 0.0
H669 H 0.95543 0.59825 0.18662 0.0
H670 H 0.95649 0.58797 0.36142 0.0
H671 H 0.94253 0.62212 0.27699 0.0
H672 H 0.03894 0.09475 0.45253 0.0
H673 H 0.24061 0.13406 0.34818 0.0
H674 H 0.12381 0.01919 0.45614 0.0
H675 H 0.16352 0.2175 0.35352 0.0
H676 H 0.19594 0.09221 0.38473 0.0
H677 H 0.08132 0.14044 0.41552 0.0
C678 C 0.0665 0.08788 0.44648 0.0
C679 C 0.07792 0.05311 0.45889 0.0
C680 C 0.18838 0.11954 0.37773 0.0
C681 C 0.12644 0.10503 0.41463 0.0
C682 C 0.21402 0.14354 0.35649 0.0
C683 C 0.20585 0.17932 0.34637 0.0
C684 C 0.15377 0.13101 0.39023 0.0
C685 C 0.17091 0.19003 0.35921 0.0
C686 C 0.09067 0.11392 0.42483 0.0
C687 C 0.11378 0.04562 0.44814 0.0
N688 N 0.14619 0.16603 0.38033 0.0
N689 N 0.13645 0.07109 0.42698 0.0
H690 H 0.10617 0.97997 0.62829 0.0
H691 H 0.16981 0.78325 0.70852 0.0
H692 H 0.05113 0.88741 0.58201 0.0
H693 H 0.23691 0.87449 0.7099 0.0
H694 H 0.12205 0.82118 0.67531 0.0
H695 H 0.15019 0.9419 0.67096 0.0
C696 C 0.10323 0.95165 0.62709 0.0
C697 C 0.07499 0.93698 0.60083 0.0
C698 C 0.14711 0.83295 0.68338 0.0
C699 C 0.12547 0.89306 0.65026 0.0
C700 C 0.17426 0.81134 0.70296 0.0
C701 C 0.20709 0.82593 0.71328 0.0
C702 C 0.15292 0.86936 0.67378 0.0
C703 C 0.2118 0.86235 0.70321 0.0
C704 C 0.12849 0.9299 0.65146 0.0
C705 C 0.07267 0.89997 0.60106 0.0
N706 N 0.18502 0.88282 0.68431 0.0
N707 N 0.09755 0.8793 0.62535 0.0
H708 H 0.36913 0.78743 0.82668 0.0
H709 H 0.39354 0.9727 0.95362 0.0
H710 H 0.28093 0.85423 0.87095 0.0
H711 H 0.46735 0.88733 0.98042 0.0
H712 H 0.35382 0.93179 0.91358 0.0
H713 H 0.40809 0.82636 0.87304 0.0
C714 C 0.358 0.81031 0.84601 0.0
C715 C 0.32182 0.8178 0.84489 0.0
C716 C 0.37862 0.92202 0.92857 0.0
C717 C 0.366 0.86204 0.89757 0.0
C718 C 0.40134 0.94533 0.95115 0.0
C719 C 0.43376 0.93332 0.96999 0.0
C720 C 0.38874 0.88668 0.924 0.0
C721 C 0.4425 0.89754 0.96632 0.0
C722 C 0.38016 0.83227 0.87272 0.0
C723 C 0.30866 0.84753 0.87093 0.0
N724 N 0.42018 0.87541 0.94311 0.0
N725 N 0.33085 0.86879 0.89593 0.0
H726 H 0.38436 0.01792 0.101 0.0
H727 H 0.37115 0.20921 0.22222 0.0
H728 H 0.47215 0.0899 0.09004 0.0
H729 H 0.28008 0.15012 0.18044 0.0
H730 H 0.40929 0.165 0.17933 0.0
H731 H 0.34628 0.0651 0.13504 0.0
C732 C 0.39546 0.04388 0.10511 0.0
C733 C 0.43119 0.05028 0.09139 0.0
C734 C 0.38095 0.16185 0.17938 0.0
C735 C 0.38809 0.1042 0.13215 0.0
C736 C 0.35913 0.18696 0.20417 0.0
C737 C 0.32224 0.18334 0.2054 0.0
C738 C 0.36587 0.1326 0.15621 0.0
C739 C 0.30828 0.1541 0.1807 0.0
C740 C 0.37376 0.07079 0.12456 0.0
C741 C 0.44453 0.08413 0.0987 0.0
N742 N 0.33005 0.1298 0.15761 0.0
N743 N 0.42302 0.1098 0.11889 0.0
H744 H 0.96779 0.91359 0.60098 0.0
H745 H 0.76591 0.87411 0.70427 0.0
H746 H 0.88287 0.98907 0.59696 0.0
H747 H 0.84335 0.79095 0.70095 0.0
H748 H 0.81057 0.91597 0.66765 0.0
H749 H 0.92542 0.86792 0.63814 0.0
C750 C 0.94022 0.92045 0.60698 0.0
C751 C 0.92878 0.95519 0.5944 0.0
C752 C 0.8182 0.8887 0.67513 0.0
C753 C 0.88026 0.90329 0.63879 0.0
C754 C 0.79257 0.86469 0.6964 0.0
C755 C 0.80085 0.829 0.70713 0.0
C756 C 0.85292 0.87731 0.66318 0.0
C757 C 0.83588 0.81837 0.69481 0.0
C758 C 0.91606 0.89442 0.62871 0.0
C759 C 0.89291 0.96267 0.60509 0.0
N760 N 0.86059 0.84236 0.67363 0.0
N761 N 0.87024 0.93721 0.62629 0.0
H762 H 0.95716 0.12114 0.47027 0.0
H763 H 0.76983 0.1316 0.33435 0.0
H764 H 0.90095 0.02939 0.42366 0.0
H765 H 0.8379 0.22189 0.33886 0.0
H766 H 0.81711 0.09393 0.36941 0.0
H767 H 0.91334 0.15886 0.42548 0.0
C768 C 0.93561 0.10887 0.45079 0.0
C769 C 0.93265 0.07192 0.45129 0.0
C770 C 0.82196 0.12191 0.36206 0.0
C771 C 0.88239 0.11508 0.39969 0.0
C772 C 0.79499 0.14336 0.34199 0.0
C773 C 0.80025 0.17973 0.33247 0.0
C774 C 0.85421 0.13704 0.37436 0.0
C775 C 0.83305 0.19386 0.34418 0.0
C776 C 0.91071 0.13047 0.42489 0.0
C777 C 0.90435 0.05766 0.42461 0.0
N778 N 0.85874 0.17252 0.36483 0.0
N779 N 0.88027 0.0792 0.40035 0.0
H780 H 0.63897 0.2207 0.21874 0.0
H781 H 0.61205 0.03591 0.09204 0.0
H782 H 0.72639 0.15327 0.17306 0.0
H783 H 0.53855 0.12177 0.06715 0.0
H784 H 0.65262 0.07658 0.13075 0.0
H785 H 0.59945 0.18237 0.17243 0.0
C786 C 0.64983 0.19782 0.19907 0.0
C787 C 0.68593 0.18995 0.19988 0.0
C788 C 0.6277 0.08652 0.11646 0.0
C789 C 0.64109 0.14637 0.14721 0.0
C790 C 0.60449 0.06334 0.09468 0.0
C791 C 0.5719 0.07555 0.07681 0.0
C792 C 0.61791 0.12193 0.12122 0.0
C793 C 0.56351 0.1114 0.08055 0.0
C794 C 0.62734 0.1762 0.17238 0.0
C795 C 0.69872 0.16024 0.17337 0.0
N796 N 0.5863 0.13339 0.10301 0.0
N797 N 0.6762 0.13929 0.14841 0.0
H798 H 0.63524 0.79888 0.8306 0.0
H799 H 0.62052 0.99139 0.94763 0.0
H800 H 0.72575 0.85913 0.87145 0.0
H801 H 0.53298 0.9191 0.95846 0.0
H802 H 0.65896 0.94412 0.91481 0.0
H803 H 0.59667 0.84332 0.872 0.0
C804 C 0.64705 0.82143 0.84813 0.0
C805 C 0.68391 0.82531 0.84706 0.0
C806 C 0.63145 0.93838 0.925 0.0
C807 C 0.63979 0.87632 0.89458 0.0
C808 C 0.60955 0.96534 0.94376 0.0
C809 C 0.57379 0.95887 0.95715 0.0
C810 C 0.61731 0.90483 0.91778 0.0
C811 C 0.56063 0.92491 0.95012 0.0
C812 C 0.62498 0.84669 0.87208 0.0
C813 C 0.69759 0.85494 0.87109 0.0
N814 N 0.58234 0.89919 0.93063 0.0
N815 N 0.67559 0.87935 0.89338 0.0
H816 H 0.53905 0.59417 0.95219 0.0
H817 H 0.74051 0.63406 0.84734 0.0
H818 H 0.62384 0.5185 0.95407 0.0
H819 H 0.66283 0.71697 0.85159 0.0
H820 H 0.69603 0.59197 0.88386 0.0
H821 H 0.58128 0.63989 0.9149 0.0
C822 C 0.56657 0.58727 0.94568 0.0
C823 C 0.57802 0.55247 0.95772 0.0
C824 C 0.68831 0.61924 0.8766 0.0
C825 C 0.62636 0.60444 0.91318 0.0
C826 C 0.71384 0.64337 0.85539 0.0
C827 C 0.70543 0.67906 0.84498 0.0
C828 C 0.65359 0.63051 0.8888 0.0
C829 C 0.6704 0.68956 0.85751 0.0
C830 C 0.59064 0.61333 0.92387 0.0
C831 C 0.6138 0.54495 0.94637 0.0
N832 N 0.6458 0.66545 0.87864 0.0
N833 N 0.63641 0.57046 0.92512 0.0
H834 H 0.73965 0.37543 0.20957 0.0
H835 H 0.54964 0.38684 0.08191 0.0
H836 H 0.6715 0.28524 0.20458 0.0
H837 H 0.60726 0.47829 0.12616 0.0
H838 H 0.59431 0.34889 0.12401 0.0
H839 H 0.69186 0.41342 0.17691 0.0
C840 C 0.71438 0.36375 0.20234 0.0
C841 C 0.70921 0.32732 0.21119 0.0
C842 C 0.59708 0.37727 0.12469 0.0
C843 C 0.65468 0.37037 0.17207 0.0
C844 C 0.57168 0.39899 0.10033 0.0
C845 C 0.57479 0.43592 0.0999 0.0
C846 C 0.62604 0.39251 0.14844 0.0
C847 C 0.60372 0.45004 0.12521 0.0
C848 C 0.68713 0.38539 0.18365 0.0
C849 C 0.67628 0.3133 0.19995 0.0
N850 N 0.62828 0.42837 0.14801 0.0
N851 N 0.65031 0.33482 0.18072 0.0
H852 H 0.9711 0.38417 0.48283 0.0
H853 H 0.78075 0.35188 0.37363 0.0
H854 H 0.89315 0.46654 0.46372 0.0
H855 H 0.87088 0.28967 0.32231 0.0
H856 H 0.81947 0.38892 0.42266 0.0
H857 H 0.93188 0.34358 0.4396 0.0
C858 C 0.94565 0.39358 0.46994 0.0
C859 C 0.93532 0.42874 0.4762 0.0
C860 C 0.83073 0.3672 0.40052 0.0
C861 C 0.89075 0.3828 0.42774 0.0
C862 C 0.80869 0.34601 0.37257 0.0
C863 C 0.8227 0.31783 0.34354 0.0
C864 C 0.86694 0.35992 0.39996 0.0
C865 C 0.85912 0.3114 0.34379 0.0
C866 C 0.9235 0.37055 0.44512 0.0
C867 C 0.90222 0.43975 0.45894 0.0
N868 N 0.88011 0.33232 0.37184 0.0
N869 N 0.88101 0.41678 0.43555 0.0
H870 H 0.87048 0.70835 0.72215 0.0
H871 H 0.88373 0.51459 0.60899 0.0
H872 H 0.77945 0.64834 0.68286 0.0
H873 H 0.9715 0.58659 0.59603 0.0
H874 H 0.84567 0.5622 0.64179 0.0
H875 H 0.90865 0.66313 0.68195 0.0
C876 C 0.85847 0.68568 0.70522 0.0
C877 C 0.82159 0.68212 0.70633 0.0
C878 C 0.87315 0.56777 0.63116 0.0
C879 C 0.86524 0.6302 0.66026 0.0
C880 C 0.89484 0.54061 0.61244 0.0
C881 C 0.93054 0.54692 0.59833 0.0
C882 C 0.88748 0.60135 0.63759 0.0
C883 C 0.9439 0.58087 0.60485 0.0
C884 C 0.88031 0.65998 0.68197 0.0
C885 C 0.80764 0.65231 0.68312 0.0
N886 N 0.9224 0.60679 0.62424 0.0
N887 N 0.82942 0.62746 0.66152 0.0
H888 H 0.34417 0.28969 0.20406 0.0
H889 H 0.38332 0.49092 0.09553 0.0
H890 H 0.26855 0.37456 0.20496 0.0
H891 H 0.46667 0.41378 0.10254 0.0
H892 H 0.34149 0.44637 0.13261 0.0
H893 H 0.38977 0.33189 0.16623 0.0
C894 C 0.33727 0.31722 0.19724 0.0
C895 C 0.30251 0.32871 0.20912 0.0
C896 C 0.3688 0.43877 0.12585 0.0
C897 C 0.35433 0.37699 0.16393 0.0
C898 C 0.39278 0.46434 0.10429 0.0
C899 C 0.42853 0.45611 0.09454 0.0
C900 C 0.38027 0.4042 0.13905 0.0
C901 C 0.43922 0.4212 0.10796 0.0
C902 C 0.36326 0.34128 0.17512 0.0
C903 C 0.29497 0.3645 0.19738 0.0
N904 N 0.41525 0.39655 0.12942 0.0
N905 N 0.3204 0.38706 0.1758 0.0
H906 H 0.45742 0.62116 0.97111 0.0
H907 H 0.26951 0.63143 0.8369 0.0
H908 H 0.40098 0.52947 0.92483 0.0
H909 H 0.33715 0.72199 0.8421 0.0
H910 H 0.31705 0.59384 0.87121 0.0
H911 H 0.41335 0.65892 0.92694 0.0
C912 C 0.43577 0.60892 0.95184 0.0
C913 C 0.43281 0.57197 0.95226 0.0
C914 C 0.32176 0.62186 0.86416 0.0
C915 C 0.3823 0.61515 0.90137 0.0
C916 C 0.29464 0.64327 0.8445 0.0
C917 C 0.29971 0.67968 0.83536 0.0
C918 C 0.35397 0.63709 0.87644 0.0
C919 C 0.33247 0.69391 0.84706 0.0
C920 C 0.41073 0.63053 0.92629 0.0
C921 C 0.40439 0.55772 0.92585 0.0
N922 N 0.35831 0.67262 0.86731 0.0
N923 N 0.38019 0.57928 0.90192 0.0
H924 H 0.22691 0.6514 0.67881 0.0
H925 H 0.03585 0.62006 0.57133 0.0
H926 H 0.13828 0.71796 0.72198 0.0
H927 H 0.1103 0.53559 0.6007 0.0
H928 H 0.0766 0.66112 0.60996 0.0
H929 H 0.18725 0.61306 0.63327 0.0
C930 C 0.19913 0.65797 0.67863 0.0
C931 C 0.18574 0.6877 0.70444 0.0
C932 C 0.08387 0.63357 0.60775 0.0
C933 C 0.14058 0.6443 0.65213 0.0
C934 C 0.06084 0.61024 0.58556 0.0
C935 C 0.06975 0.57441 0.58332 0.0
C936 C 0.11607 0.62092 0.62676 0.0
C937 C 0.10232 0.56294 0.60227 0.0
C938 C 0.17658 0.63607 0.65278 0.0
C939 C 0.14955 0.69504 0.70297 0.0
N940 N 0.12442 0.58621 0.62314 0.0
N941 N 0.12811 0.67346 0.67698 0.0
H942 H 0.22858 0.35906 0.37483 0.0
H943 H 0.0323 0.41701 0.46613 0.0
H944 H 0.13681 0.30055 0.33441 0.0
H945 H 0.12011 0.48896 0.45145 0.0
H946 H 0.07101 0.37007 0.4321 0.0
H947 H 0.19 0.40287 0.41678 0.0
C948 C 0.20033 0.35531 0.37481 0.0
C949 C 0.18602 0.32611 0.35048 0.0
C950 C 0.08185 0.39606 0.43678 0.0
C951 C 0.14153 0.3763 0.39918 0.0
C952 C 0.05986 0.42274 0.4568 0.0
C953 C 0.07328 0.45669 0.46291 0.0
C954 C 0.11749 0.40342 0.42268 0.0
C955 C 0.10891 0.46298 0.44812 0.0
C956 C 0.17829 0.38045 0.39873 0.0
C957 C 0.14908 0.3228 0.35206 0.0
N958 N 0.12981 0.43661 0.42908 0.0
N959 N 0.12813 0.34752 0.37605 0.0
H960 H 0.98307 0.08572 0.92235 0.0
H961 H 0.02358 0.92232 0.13093 0.0
H962 H 0.03571 0.99052 0.87315 0.0
H963 H 0.97093 0.01752 0.18006 0.0
H964 H 0.02822 0.9468 0.03653 0.0
H965 H 0.97839 0.06119 1.01671 0.0
C966 C 0.99378 0.05968 0.93134 0.0
C967 C 0.00999 0.04028 0.8895 0.0
C968 C 0.01567 0.96238 0.06792 0.0
C969 C 0.0044 0.0118 0.99797 0.0
C970 C 0.01286 0.94834 0.12192 0.0
C971 C 0.99666 0.96776 0.16375 0.0
C972 C 1.0022 0.99619 0.05525 0.0
C973 C 0.98392 1.00166 0.14947 0.0
C974 C 0.99094 0.04562 0.98532 0.0
C975 C 0.02271 0.00637 0.90375 0.0
N976 N 0.98687 0.01471 0.09651 0.0
N977 N 0.01974 0.9933 0.9567 0.0
H978 H 0.25607 0.78906 0.42613 0.0
H979 H 0.25191 0.71692 0.12284 0.0
H980 H 0.31812 0.70069 0.37189 0.0
H981 H 0.18979 0.80521 0.17724 0.0
H982 H 0.27692 0.71096 0.21336 0.0
H983 H 0.23115 0.79505 0.33556 0.0
C984 C 0.2643 0.77073 0.39539 0.0
C985 C 0.28935 0.74434 0.40692 0.0
C986 C 0.25782 0.73166 0.2055 0.0
C987 C 0.26114 0.75137 0.30247 0.0
C988 C 0.24368 0.73524 0.1536 0.0
C989 C 0.21858 0.76159 0.14214 0.0
C990 C 0.2469 0.7546 0.24652 0.0
C991 C 0.20863 0.78416 0.18421 0.0
C992 C 0.25022 0.77433 0.34346 0.0
C993 C 0.29932 0.72176 0.36487 0.0
N994 N 0.22277 0.78014 0.23434 0.0
N995 N 0.28523 0.7258 0.3147 0.0
H996 H 0.46963 0.98391 0.68103 0.0
H997 H 0.53439 0.02575 0.36705 0.0
H998 H 0.50411 0.08678 0.61715 0.0
H999 H 0.49979 0.92293 0.43097 0.0
H1000 H 0.52286 0.04873 0.458 0.0
H1001 H 0.48101 0.961 0.59002 0.0
C1002 C 0.47983 1.00167 0.64806 0.0
C1003 C 0.48583 0.03742 0.65705 0.0
C1004 C 0.51778 0.02113 0.45213 0.0
C1005 C 0.49855 0.01134 0.55213 0.0
C1006 C 0.52413 0.00802 0.40002 0.0
C1007 C 0.51816 0.97225 0.39107 0.0
C1008 C 0.50528 0.9984 0.4959 0.0
C1009 C 0.50534 0.95053 0.43587 0.0
C1010 C 0.4861 0.98859 0.5959 0.0
C1011 C 0.49856 0.05918 0.61222 0.0
N1012 N 0.49937 0.96391 0.48616 0.0
N1013 N 0.50446 0.04583 0.56189 0.0
H1014 H 0.17167 0.27307 0.88239 0.0
H1015 H 0.33558 0.23606 0.6741 0.0
H1016 H 0.26775 0.22198 0.93162 0.0
H1017 H 0.23945 0.287 0.62473 0.0
H1018 H 0.3112 0.2307 0.7684 0.0
H1019 H 0.19601 0.27839 0.78805 0.0
C1020 C 0.19786 0.26283 0.87342 0.0
C1021 C 0.21758 0.24688 0.91527 0.0
C1022 C 0.29539 0.24303 0.73698 0.0
C1023 C 0.24582 0.2532 0.80683 0.0
C1024 C 0.30937 0.24626 0.68304 0.0
C1025 C 0.28966 0.26219 0.64116 0.0
C1026 C 0.26136 0.25582 0.74957 0.0
C1027 C 0.25555 0.27423 0.65535 0.0
C1028 C 0.21181 0.26603 0.81945 0.0
C1029 C 0.25166 0.23477 0.90103 0.0
N1030 N 0.24256 0.2709 0.70827 0.0
N1031 N 0.26462 0.23809 0.8481 0.0
H1032 H 0.75694 0.28919 0.92287 0.0
H1033 H 0.75228 0.21647 0.61999 0.0
H1034 H 0.8183 0.20022 0.86918 0.0
H1035 H 0.69059 0.30514 0.67399 0.0
H1036 H 0.77718 0.21047 0.71059 0.0
H1037 H 0.73195 0.29508 0.83234 0.0
C1038 C 0.76501 0.27071 0.89227 0.0
C1039 C 0.7899 0.24419 0.90393 0.0
C1040 C 0.7582 0.23125 0.70263 0.0
C1041 C 0.7616 0.2511 0.79952 0.0
C1042 C 0.74412 0.23486 0.65068 0.0
C1043 C 0.71917 0.26133 0.63908 0.0
C1044 C 0.74738 0.2543 0.74355 0.0
C1045 C 0.7093 0.284 0.68106 0.0
C1046 C 0.75088 0.27425 0.84036 0.0
C1047 C 0.79964 0.2214 0.86205 0.0
N1048 N 0.72339 0.27996 0.73124 0.0
N1049 N 0.78552 0.22539 0.81189 0.0
H1050 H 0.69126 0.69657 0.38394 0.0
H1051 H 0.81429 0.81183 0.16841 0.0
H1052 H 0.74911 0.78828 0.42645 0.0
H1053 H 0.75658 0.72001 0.12594 0.0
H1054 H 0.79068 0.80365 0.26285 0.0
H1055 H 0.71481 0.70478 0.28947 0.0
C1056 C 0.70882 0.71854 0.37345 0.0
C1057 C 0.71803 0.74186 0.41345 0.0
C1058 C 0.78313 0.78528 0.23292 0.0
C1059 C 0.74545 0.75125 0.30487 0.0
C1060 C 0.79674 0.78984 0.17891 0.0
C1061 C 0.78761 0.76648 0.13893 0.0
C1062 C 0.76012 0.75712 0.24747 0.0
C1063 C 0.76416 0.7389 0.15503 0.0
C1064 C 0.7224 0.72311 0.31942 0.0
C1065 C 0.74149 0.76942 0.39734 0.0
N1066 N 0.75134 0.73495 0.20797 0.0
N1067 N 0.75427 0.77339 0.34439 0.0
H1068 H 0.53985 0.50075 0.6787 0.0
H1069 H 0.46788 0.50649 0.37446 0.0
H1070 H 0.44987 0.4413 0.63339 0.0
H1071 H 0.55799 0.56577 0.41974 0.0
H1072 H 0.46122 0.48188 0.46878 0.0
H1073 H 0.54658 0.52525 0.58433 0.0
C1074 C 0.52133 0.49301 0.64908 0.0
C1075 C 0.49427 0.46882 0.66424 0.0
C1076 C 0.48246 0.50027 0.45809 0.0
C1077 C 0.50211 0.49653 0.55558 0.0
C1078 C 0.48644 0.51417 0.40406 0.0
C1079 C 0.51351 0.53836 0.38891 0.0
C1080 C 0.50574 0.51052 0.49751 0.0
C1081 C 0.5364 0.54765 0.42952 0.0
C1082 C 0.52535 0.50685 0.59502 0.0
C1083 C 0.47144 0.45943 0.6236 0.0
N1084 N 0.53198 0.53377 0.48179 0.0
N1085 N 0.47588 0.47326 0.5713 0.0
H1086 H 0.9697 0.49398 0.8778 0.0
H1087 H 0.035 0.51092 0.18344 0.0
H1088 H 0.06814 0.45123 0.93318 0.0
H1089 H 0.93643 0.55341 0.12817 0.0
H1090 H 0.04744 0.48857 0.0923 0.0
H1091 H 0.95743 0.51663 0.96878 0.0
C1092 C 0.98888 0.48956 0.90889 0.0
C1093 C 0.01999 0.47054 0.89759 0.0
C1094 C 0.02307 0.50278 0.1001 0.0
C1095 C 0.00586 0.49612 1.00245 0.0
C1096 C 0.01583 0.51536 0.15234 0.0
C1097 C 0.98461 0.53419 0.16374 0.0
C1098 C 0.99894 0.50895 0.05869 0.0
C1099 C 0.96107 0.53953 0.12126 0.0
C1100 C 0.98174 0.50231 0.96104 0.0
C1101 C 0.04357 0.46524 0.94004 0.0
N1102 N 0.96871 0.52701 0.0708 0.0
N1103 N 0.03601 0.47792 0.99042 0.0
loop_
_geom_bond_atom_site_label_1
_geom_bond_atom_site_label_2
_geom_bond_distance
_geom_bond_site_symmetry_2
_ccdc_geom_bond_type
Tb0 N31 2.652 1_455 S
Tb0 N38 2.600 1_455 S
Tb0 O44 2.550 . S
Tb0 O45 2.612 1_565 S
Tb0 O47 2.314 1_465 S
Tb0 O48 2.557 1_565 S
Tb0 O49 2.412 1_455 S
Tb0 O51 2.359 1_455 S
Tb0 O52 2.427 . S
Tb0 C64 2.834 . S
C1 C4 1.432 . S
C1 C5 1.414 . S
C1 N8 1.359 . S
C2 C4 1.417 . S
C2 C6 1.432 . S
C2 C14 1.410 . S
C3 C5 1.444 . S
C3 C6 1.317 . S
C3 H26 0.929 . S
C4 C1 1.432 . S
C4 C2 1.417 . S
C4 N12 1.360 . S
C5 C1 1.414 . S
C5 C3 1.444 . S
C5 C10 1.385 . S
C6 C2 1.432 . S
C6 C3 1.317 . S
C6 H18 0.930 . S
C7 C9 1.392 . S
C7 C10 1.370 1_655 S
C7 H19 0.931 . S
N8 C1 1.359 . S
N8 C9 1.327 1_455 S
N8 Tb11 2.600 1_455 S
C9 C7 1.392 . S
C9 N8 1.327 1_655 S
C9 H16 0.930 . S
C10 C5 1.385 . S
C10 C7 1.370 1_455 S
C10 H29 0.930 . S
Tb11 N8 2.600 1_655 S
Tb11 N12 2.659 1_655 S
Tb11 O45 2.361 1_655 S
Tb11 O46 2.421 . S
Tb11 O50 2.546 . S
Tb11 O51 2.610 1_545 S
Tb11 O53 2.319 1_645 S
Tb11 O54 2.552 1_545 S
Tb11 O55 2.413 1_655 S
Tb11 C75 2.833 . S
N12 C4 1.360 . S
N12 Tb11 2.659 1_455 S
N12 C13 1.305 . S
C13 N12 1.305 . S
C13 C15 1.407 . S
C13 H20 0.930 . S
C14 C2 1.410 . S
C14 C15 1.345 . S
C14 H22 0.930 . S
C15 C13 1.407 . S
C15 C14 1.345 . S
C15 H17 0.930 . S
H16 C9 0.930 . S
H17 C15 0.930 . S
H18 C6 0.930 . S
H19 C7 0.931 . S
H20 C13 0.930 . S
H21 C35 0.930 . S
H22 C14 0.930 . S
H23 C41 0.930 . S
H24 C32 0.930 . S
H25 C39 0.931 . S
H26 C3 0.929 . S
H27 C33 0.930 . S
H28 C66 0.930 . S
H29 C10 0.930 . S
H30 C65 0.929 . S
N31 Tb0 2.652 1_655 S
N31 C32 1.305 . S
N31 C36 1.360 . S
C32 H24 0.930 . S
C32 N31 1.305 . S
C32 C35 1.407 . S
C33 H27 0.930 . S
C33 C34 1.410 . S
C33 C35 1.345 . S
C34 C33 1.410 . S
C34 C36 1.417 . S
C34 C66 1.432 . S
C35 H21 0.930 . S
C35 C32 1.407 . S
C35 C33 1.345 . S
C36 N31 1.360 . S
C36 C34 1.417 . S
C36 C40 1.432 . S
H37 C42 0.929 . S
N38 Tb0 2.600 1_655 S
N38 C40 1.359 . S
N38 C41 1.327 1_655 S
C39 H25 0.931 . S
C39 C41 1.392 . S
C39 C42 1.343 1_455 S
C40 C36 1.432 . S
C40 N38 1.359 . S
C40 C43 1.414 . S
C41 H23 0.930 . S
C41 N38 1.327 1_455 S
C41 C39 1.392 . S
C42 H37 0.929 . S
C42 C39 1.343 1_655 S
C42 C43 1.412 . S
C43 C40 1.414 . S
C43 C42 1.412 . S
C43 C65 1.444 . S
O44 Tb0 2.550 . S
O44 C64 1.251 . S
O45 Tb0 2.612 1_545 S
O45 Tb11 2.361 1_455 S
O45 C56 1.283 . S
O46 Tb11 2.421 . S
O46 C63 1.262 . S
O47 Tb0 2.314 1_645 S
O47 C63 1.260 . S
O48 Tb0 2.557 1_545 S
O48 C56 1.243 . S
O49 Tb0 2.412 1_655 S
O49 C64 1.256 1_655 S
O50 Tb11 2.546 . S
O50 C75 1.251 . S
O51 Tb0 2.359 1_655 S
O51 Tb11 2.610 1_565 S
O51 C67 1.283 . S
O52 Tb0 2.427 . S
O52 C74 1.262 . S
O53 Tb11 2.319 1_465 S
O53 C74 1.260 . S
O54 Tb11 2.552 1_565 S
O54 C67 1.243 . S
O55 Tb11 2.413 1_455 S
O55 C75 1.256 1_455 S
C56 O45 1.283 . S
C56 O48 1.243 . S
C57 C59 1.382 . S
C57 C61 1.393 . S
C57 C64 1.500 . S
C58 C59 1.400 . S
C58 C60 1.384 . S
C59 C57 1.382 . S
C59 C58 1.400 . S
C59 H76 0.930 1_465 S
C60 C58 1.384 . S
C60 C62 1.392 . S
C60 H77 0.931 . S
C61 C57 1.393 . S
C61 C62 1.401 . S
C61 H78 0.930 . S
C62 C60 1.392 . S
C62 C61 1.401 . S
C62 H79 0.930 . S
C63 O46 1.262 . S
C63 O47 1.260 . S
C64 Tb0 2.834 . S
C64 O44 1.251 . S
C64 O49 1.256 1_455 S
C64 C57 1.500 . S
C65 H30 0.929 . S
C65 C43 1.444 . S
C65 C66 1.317 . S
C66 H28 0.930 . S
C66 C34 1.432 . S
C66 C65 1.317 . S
C67 O51 1.283 . S
C67 O54 1.243 . S
C68 C69 1.382 . S
C68 C72 1.393 . S
C68 C75 1.500 . S
C69 C68 1.382 . S
C69 C70 1.400 . S
C69 H80 0.930 1_645 S
C70 C69 1.400 . S
C70 C71 1.384 . S
C71 C70 1.384 . S
C71 C73 1.392 . S
C71 H81 0.931 . S
C72 C68 1.393 . S
C72 C73 1.401 . S
C72 H82 0.930 . S
C73 C71 1.392 . S
C73 C72 1.401 . S
C73 H83 0.930 . S
C74 O52 1.262 . S
C74 O53 1.260 . S
C75 Tb11 2.833 . S
C75 O50 1.251 . S
C75 O55 1.256 1_655 S
C75 C68 1.500 . S
H76 C59 0.930 1_645 S
H77 C60 0.931 . S
H78 C61 0.930 . S
H79 C62 0.930 . S
H80 C69 0.930 1_465 S
H81 C71 0.931 . S
H82 C72 0.930 . S
H83 C73 0.930 . S
Tb84 N115 2.660 . S
Tb84 N122 2.600 . S
Tb84 O128 2.546 . S
Tb84 O129 2.610 . S
Tb84 O131 2.320 . S
Tb84 O132 2.552 . S
Tb84 O133 2.413 . S
Tb84 O135 2.362 . S
Tb84 O136 2.421 . S
Tb84 C148 2.833 . S
C85 C88 1.432 . S
C85 C89 1.414 . S
C85 N92 1.359 . S
C86 C88 1.417 . S
C86 C90 1.432 . S
C86 C98 1.410 . S
C87 C89 1.444 . S
C87 C90 1.317 . S
C87 H110 0.929 . S
C88 C85 1.432 . S
C88 C86 1.417 . S
C88 N96 1.360 . S
C89 C85 1.414 . S
C89 C87 1.444 . S
C89 C94 1.385 . S
C90 C86 1.432 . S
C90 C87 1.317 . S
C90 H102 0.930 . S
C91 C93 1.392 . S
C91 C94 1.370 . S
C91 H103 0.931 . S
N92 C85 1.359 . S
N92 C93 1.327 . S
N92 Tb95 2.600 . S
C93 C91 1.392 . S
C93 N92 1.327 . S
C93 H100 0.930 . S
C94 C89 1.385 . S
C94 C91 1.370 . S
C94 H113 0.930 . S
Tb95 N92 2.600 . S
Tb95 N96 2.660 . S
Tb95 O129 2.362 . S
Tb95 O130 2.421 . S
Tb95 O134 2.546 . S
Tb95 O135 2.610 . S
Tb95 O137 2.320 . S
Tb95 O138 2.552 . S
Tb95 O139 2.413 . S
Tb95 C159 2.833 . S
N96 C88 1.360 . S
N96 Tb95 2.660 . S
N96 C97 1.305 . S
C97 N96 1.305 . S
C97 C99 1.407 . S
C97 H104 0.930 . S
C98 C86 1.410 . S
C98 C99 1.345 . S
C98 H106 0.930 . S
C99 C97 1.407 . S
C99 C98 1.345 . S
C99 H101 0.930 . S
H100 C93 0.930 . S
H101 C99 0.930 . S
H102 C90 0.930 . S
H103 C91 0.931 . S
H104 C97 0.930 . S
H105 C119 0.930 . S
H106 C98 0.930 . S
H107 C125 0.930 . S
H108 C116 0.930 . S
H109 C123 0.931 . S
H110 C87 0.929 . S
H111 C117 0.930 . S
H112 C150 0.930 . S
H113 C94 0.930 . S
H114 C149 0.929 . S
N115 Tb84 2.660 . S
N115 C116 1.305 . S
N115 C120 1.360 . S
C116 H108 0.930 . S
C116 N115 1.305 . S
C116 C119 1.407 . S
C117 H111 0.930 . S
C117 C118 1.410 . S
C117 C119 1.345 . S
C118 C117 1.410 . S
C118 C120 1.417 . S
C118 C150 1.432 . S
C119 H105 0.930 . S
C119 C116 1.407 . S
C119 C117 1.345 . S
C120 N115 1.360 . S
C120 C118 1.417 . S
C120 C124 1.432 . S
H121 C126 0.930 . S
N122 Tb84 2.600 . S
N122 C124 1.359 . S
N122 C125 1.327 . S
C123 H109 0.931 . S
C123 C125 1.392 . S
C123 C126 1.370 . S
C124 C120 1.432 . S
C124 N122 1.359 . S
C124 C127 1.414 . S
C125 H107 0.930 . S
C125 N122 1.327 . S
C125 C123 1.392 . S
C126 H121 0.930 . S
C126 C123 1.370 . S
C126 C127 1.385 . S
C127 C124 1.414 . S
C127 C126 1.385 . S
C127 C149 1.444 . S
O128 Tb84 2.546 . S
O128 C148 1.251 . S
O129 Tb84 2.610 . S
O129 Tb95 2.362 . S
O129 C140 1.283 . S
O130 Tb95 2.421 . S
O130 C147 1.262 . S
O131 Tb84 2.320 . S
O131 C147 1.260 . S
O132 Tb84 2.552 . S
O132 C140 1.243 . S
O133 Tb84 2.413 . S
O133 C148 1.256 . S
O134 Tb95 2.546 . S
O134 C159 1.251 . S
O135 Tb84 2.362 . S
O135 Tb95 2.610 . S
O135 C151 1.283 . S
O136 Tb84 2.421 . S
O136 C158 1.262 . S
O137 Tb95 2.320 . S
O137 C158 1.260 . S
O138 Tb95 2.552 . S
O138 C151 1.243 . S
O139 Tb95 2.413 . S
O139 C159 1.256 . S
C140 O129 1.283 . S
C140 O132 1.243 . S
C141 C143 1.382 . S
C141 C145 1.393 . S
C141 C148 1.500 . S
C142 C143 1.400 . S
C142 C144 1.384 . S
C143 C141 1.382 . S
C143 C142 1.400 . S
C143 H160 0.930 . S
C144 C142 1.384 . S
C144 C146 1.392 . S
C144 H161 0.931 . S
C145 C141 1.393 . S
C145 C146 1.401 . S
C145 H162 0.930 . S
C146 C144 1.392 . S
C146 C145 1.401 . S
C146 H163 0.930 . S
C147 O130 1.262 . S
C147 O131 1.260 . S
C148 Tb84 2.833 . S
C148 O128 1.251 . S
C148 O133 1.256 . S
C148 C141 1.500 . S
C149 H114 0.929 . S
C149 C127 1.444 . S
C149 C150 1.317 . S
C150 H112 0.930 . S
C150 C118 1.432 . S
C150 C149 1.317 . S
C151 O135 1.283 . S
C151 O138 1.243 . S
C152 C153 1.382 1_556 S
C152 C156 1.393 1_556 S
C152 C159 1.500 . S
C153 C152 1.382 1_554 S
C153 C154 1.400 . S
C153 H164 0.930 1_554 S
C154 C153 1.400 . S
C154 C155 1.384 . S
C155 C154 1.384 . S
C155 C157 1.392 . S
C155 H165 0.931 . S
C156 C152 1.393 1_554 S
C156 C157 1.401 . S
C156 H166 0.930 1_554 S
C157 C155 1.392 . S
C157 C156 1.401 . S
C157 H167 0.930 . S
C158 O136 1.262 . S
C158 O137 1.260 . S
C159 Tb95 2.833 . S
C159 O134 1.251 . S
C159 O139 1.256 . S
C159 C152 1.500 . S
H160 C143 0.930 . S
H161 C144 0.931 . S
H162 C145 0.930 . S
H163 C146 0.930 . S
H164 C153 0.930 1_556 S
H165 C155 0.931 . S
H166 C156 0.930 1_556 S
H167 C157 0.930 . S
Tb168 N199 2.660 . S
Tb168 N206 2.600 . S
Tb168 O212 2.546 . S
Tb168 O213 2.610 1_565 S
Tb168 O215 2.320 1_565 S
Tb168 O216 2.552 1_565 S
Tb168 O217 2.413 . S
Tb168 O219 2.362 1_554 S
Tb168 O220 2.421 . S
Tb168 C232 2.833 . S
C169 C172 1.432 . S
C169 C173 1.414 . S
C169 N176 1.359 . S
C170 C172 1.417 . S
C170 C174 1.432 . S
C170 C182 1.410 . S
C171 C173 1.444 . S
C171 C174 1.317 . S
C171 H194 0.929 . S
C172 C169 1.432 . S
C172 C170 1.417 . S
C172 N180 1.360 . S
C173 C169 1.414 . S
C173 C171 1.444 . S
C173 C178 1.385 . S
C174 C170 1.432 . S
C174 C171 1.317 . S
C174 H186 0.930 . S
C175 C177 1.392 . S
C175 C178 1.370 . S
C175 H187 0.931 . S
N176 C169 1.359 . S
N176 C177 1.327 . S
N176 Tb179 2.600 . S
C177 C175 1.392 . S
C177 N176 1.327 . S
C177 H184 0.930 . S
C178 C173 1.385 . S
C178 C175 1.370 . S
C178 H197 0.930 . S
Tb179 N176 2.600 . S
Tb179 N180 2.660 . S
Tb179 O213 2.362 1_556 S
Tb179 O214 2.421 . S
Tb179 O218 2.546 . S
Tb179 O219 2.610 1_545 S
Tb179 O221 2.320 1_545 S
Tb179 O222 2.552 1_545 S
Tb179 O223 2.413 . S
Tb179 C243 2.833 . S
N180 C172 1.360 . S
N180 Tb179 2.660 . S
N180 C181 1.305 . S
C181 N180 1.305 . S
C181 C183 1.407 . S
C181 H188 0.930 . S
C182 C170 1.410 . S
C182 C183 1.345 . S
C182 H190 0.930 . S
C183 C181 1.407 . S
C183 C182 1.345 . S
C183 H185 0.930 . S
H184 C177 0.930 . S
H185 C183 0.930 . S
H186 C174 0.930 . S
H187 C175 0.931 . S
H188 C181 0.930 . S
H189 C203 0.930 . S
H190 C182 0.930 . S
H191 C209 0.930 . S
H192 C200 0.930 . S
H193 C207 0.931 . S
H194 C171 0.929 . S
H195 C201 0.930 . S
H196 C234 0.930 . S
H197 C178 0.930 . S
H198 C233 0.929 . S
N199 Tb168 2.660 . S
N199 C200 1.305 . S
N199 C204 1.360 . S
C200 H192 0.930 . S
C200 N199 1.305 . S
C200 C203 1.407 . S
C201 H195 0.930 . S
C201 C202 1.410 . S
C201 C203 1.345 . S
C202 C201 1.410 . S
C202 C204 1.417 . S
C202 C234 1.432 . S
C203 H189 0.930 . S
C203 C200 1.407 . S
C203 C201 1.345 . S
C204 N199 1.360 . S
C204 C202 1.417 . S
C204 C208 1.432 . S
H205 C210 0.930 . S
N206 Tb168 2.600 . S
N206 C208 1.359 . S
N206 C209 1.327 . S
C207 H193 0.931 . S
C207 C209 1.392 . S
C207 C210 1.370 . S
C208 C204 1.432 . S
C208 N206 1.359 . S
C208 C211 1.414 . S
C209 H191 0.930 . S
C209 N206 1.327 . S
C209 C207 1.392 . S
C210 H205 0.930 . S
C210 C207 1.370 . S
C210 C211 1.385 . S
C211 C208 1.414 . S
C211 C210 1.385 . S
C211 C233 1.444 . S
O212 Tb168 2.546 . S
O212 C232 1.251 . S
O213 Tb168 2.610 1_545 S
O213 Tb179 2.362 1_554 S
O213 C224 1.283 . S
O214 Tb179 2.421 . S
O214 C231 1.262 1_556 S
O215 Tb168 2.320 1_545 S
O215 C231 1.260 . S
O216 Tb168 2.552 1_545 S
O216 C224 1.243 . S
O217 Tb168 2.413 . S
O217 C232 1.256 . S
O218 Tb179 2.546 . S
O218 C243 1.251 . S
O219 Tb168 2.362 1_556 S
O219 Tb179 2.610 1_565 S
O219 C235 1.283 . S
O220 Tb168 2.421 . S
O220 C242 1.262 1_554 S
O221 Tb179 2.320 1_565 S
O221 C242 1.260 . S
O222 Tb179 2.552 1_565 S
O222 C235 1.243 . S
O223 Tb179 2.413 . S
O223 C243 1.256 . S
C224 O213 1.283 . S
C224 O216 1.243 . S
C225 C227 1.382 . S
C225 C229 1.393 . S
C225 C232 1.500 . S
C226 C227 1.400 . S
C226 C228 1.384 . S
C227 C225 1.382 . S
C227 C226 1.400 . S
C227 H244 0.930 1_565 S
C228 C226 1.384 . S
C228 C230 1.392 . S
C228 H245 0.931 . S
C229 C225 1.393 . S
C229 C230 1.401 . S
C229 H246 0.930 . S
C230 C228 1.392 . S
C230 C229 1.401 . S
C230 H247 0.930 . S
C231 O214 1.262 1_554 S
C231 O215 1.260 . S
C232 Tb168 2.833 . S
C232 O212 1.251 . S
C232 O217 1.256 . S
C232 C225 1.500 . S
C233 H198 0.929 . S
C233 C211 1.444 . S
C233 C234 1.317 . S
C234 H196 0.930 . S
C234 C202 1.432 . S
C234 C233 1.317 . S
C235 O219 1.283 . S
C235 O222 1.243 . S
C236 C237 1.382 . S
C236 C240 1.393 . S
C236 C243 1.500 . S
C237 C236 1.382 . S
C237 C238 1.400 . S
C237 H248 0.930 1_545 S
C238 C237 1.400 . S
C238 C239 1.384 . S
C239 C238 1.384 . S
C239 C241 1.392 . S
C239 H249 0.931 . S
C240 C236 1.393 . S
C240 C241 1.401 . S
C240 H250 0.930 . S
C241 C239 1.392 . S
C241 C240 1.401 . S
C241 H251 0.930 . S
C242 O220 1.262 1_556 S
C242 O221 1.260 . S
C243 Tb179 2.833 . S
C243 O218 1.251 . S
C243 O223 1.256 . S
C243 C236 1.500 . S
H244 C227 0.930 1_545 S
H245 C228 0.931 . S
H246 C229 0.930 . S
H247 C230 0.930 . S
H248 C237 0.930 1_565 S
H249 C239 0.931 . S
H250 C240 0.930 . S
H251 C241 0.930 . S
Tb252 N283 2.660 . S
Tb252 N290 2.600 . S
Tb252 O296 2.546 . S
Tb252 O297 2.610 . S
Tb252 O299 2.320 . S
Tb252 O300 2.552 . S
Tb252 O301 2.413 . S
Tb252 O303 2.362 . S
Tb252 O304 2.421 . S
Tb252 C316 2.833 . S
C253 C256 1.432 . S
C253 C257 1.414 . S
C253 N260 1.359 . S
C254 C256 1.417 . S
C254 C258 1.432 . S
C254 C266 1.410 . S
C255 C257 1.444 . S
C255 C258 1.317 . S
C255 H278 0.929 . S
C256 C253 1.432 . S
C256 C254 1.417 . S
C256 N264 1.360 . S
C257 C253 1.414 . S
C257 C255 1.444 . S
C257 C262 1.385 . S
C258 C254 1.432 . S
C258 C255 1.317 . S
C258 H270 0.930 . S
C259 C261 1.392 . S
C259 C262 1.370 . S
C259 H271 0.931 . S
N260 C253 1.359 . S
N260 C261 1.327 . S
N260 Tb263 2.600 . S
C261 C259 1.392 . S
C261 N260 1.327 . S
C261 H268 0.930 . S
C262 C257 1.385 . S
C262 C259 1.370 . S
C262 H281 0.930 . S
Tb263 N260 2.600 . S
Tb263 N264 2.660 . S
Tb263 O297 2.362 . S
Tb263 O298 2.421 . S
Tb263 O302 2.546 . S
Tb263 O303 2.610 . S
Tb263 O305 2.320 . S
Tb263 O306 2.552 . S
Tb263 O307 2.413 . S
Tb263 C327 2.833 . S
N264 C256 1.360 . S
N264 Tb263 2.660 . S
N264 C265 1.305 . S
C265 N264 1.305 . S
C265 C267 1.407 . S
C265 H272 0.930 . S
C266 C254 1.410 . S
C266 C267 1.345 . S
C266 H274 0.930 . S
C267 C265 1.407 . S
C267 C266 1.345 . S
C267 H269 0.930 . S
H268 C261 0.930 . S
H269 C267 0.930 . S
H270 C258 0.930 . S
H271 C259 0.931 . S
H272 C265 0.930 . S
H273 C287 0.930 . S
H274 C266 0.930 . S
H275 C293 0.930 . S
H276 C284 0.930 . S
H277 C291 0.931 . S
H278 C255 0.929 . S
H279 C285 0.930 . S
H280 C318 0.930 . S
H281 C262 0.930 . S
H282 C317 0.929 . S
N283 Tb252 2.660 . S
N283 C284 1.305 . S
N283 C288 1.360 . S
C284 H276 0.930 . S
C284 N283 1.305 . S
C284 C287 1.407 . S
C285 H279 0.930 . S
C285 C286 1.410 . S
C285 C287 1.345 . S
C286 C285 1.410 . S
C286 C288 1.417 . S
C286 C318 1.432 . S
C287 H273 0.930 . S
C287 C284 1.407 . S
C287 C285 1.345 . S
C288 N283 1.360 . S
C288 C286 1.417 . S
C288 C292 1.432 . S
H289 C294 0.930 . S
N290 Tb252 2.600 . S
N290 C292 1.359 . S
N290 C293 1.327 . S
C291 H277 0.931 . S
C291 C293 1.392 . S
C291 C294 1.370 . S
C292 C288 1.432 . S
C292 N290 1.359 . S
C292 C295 1.414 . S
C293 H275 0.930 . S
C293 N290 1.327 . S
C293 C291 1.392 . S
C294 H289 0.930 . S
C294 C291 1.370 . S
C294 C295 1.385 . S
C295 C292 1.414 . S
C295 C294 1.385 . S
C295 C317 1.444 . S
O296 Tb252 2.546 . S
O296 C316 1.251 . S
O297 Tb252 2.610 . S
O297 Tb263 2.362 . S
O297 C308 1.283 . S
O298 Tb263 2.421 . S
O298 C315 1.262 . S
O299 Tb252 2.320 . S
O299 C315 1.260 . S
O300 Tb252 2.552 . S
O300 C308 1.243 . S
O301 Tb252 2.413 . S
O301 C316 1.256 . S
O302 Tb263 2.546 . S
O302 C327 1.251 . S
O303 Tb252 2.362 . S
O303 Tb263 2.610 . S
O303 C319 1.283 . S
O304 Tb252 2.421 . S
O304 C326 1.262 . S
O305 Tb263 2.320 . S
O305 C326 1.260 . S
O306 Tb263 2.552 . S
O306 C319 1.243 . S
O307 Tb263 2.413 . S
O307 C327 1.256 . S
C308 O297 1.283 . S
C308 O300 1.243 . S
C309 C311 1.382 . S
C309 C313 1.393 . S
C309 C316 1.500 . S
C310 C311 1.400 . S
C310 C312 1.384 . S
C311 C309 1.382 . S
C311 C310 1.400 . S
C311 H328 0.930 . S
C312 C310 1.384 . S
C312 C314 1.392 . S
C312 H329 0.931 . S
C313 C309 1.393 . S
C313 C314 1.401 . S
C313 H330 0.930 . S
C314 C312 1.392 . S
C314 C313 1.401 . S
C314 H331 0.930 . S
C315 O298 1.262 . S
C315 O299 1.260 . S
C316 Tb252 2.833 . S
C316 O296 1.251 . S
C316 O301 1.256 . S
C316 C309 1.500 . S
C317 H282 0.929 . S
C317 C295 1.444 . S
C317 C318 1.317 . S
C318 H280 0.930 . S
C318 C286 1.432 . S
C318 C317 1.317 . S
C319 O303 1.283 . S
C319 O306 1.243 . S
C320 C321 1.382 1_554 S
C320 C324 1.393 1_554 S
C320 C327 1.500 . S
C321 C320 1.382 1_556 S
C321 C322 1.400 . S
C321 H332 0.930 1_556 S
C322 C321 1.400 . S
C322 C323 1.384 . S
C323 C322 1.384 . S
C323 C325 1.392 . S
C323 H333 0.931 . S
C324 C320 1.393 1_556 S
C324 C325 1.401 . S
C324 H334 0.930 1_556 S
C325 C323 1.392 . S
C325 C324 1.401 . S
C325 H335 0.930 . S
C326 O304 1.262 . S
C326 O305 1.260 . S
C327 Tb263 2.833 . S
C327 O302 1.251 . S
C327 O307 1.256 . S
C327 C320 1.500 . S
H328 C311 0.930 . S
H329 C312 0.931 . S
H330 C313 0.930 . S
H331 C314 0.930 . S
H332 C321 0.930 1_554 S
H333 C323 0.931 . S
H334 C324 0.930 1_554 S
H335 C325 0.930 . S
Tb336 N367 2.660 . S
Tb336 N374 2.600 . S
Tb336 O380 2.546 . S
Tb336 O381 2.610 . S
Tb336 O383 2.320 . S
Tb336 O384 2.552 . S
Tb336 O385 2.413 . S
Tb336 O387 2.362 . S
Tb336 O388 2.421 . S
Tb336 C400 2.833 . S
C337 C340 1.432 . S
C337 C341 1.414 . S
C337 N344 1.359 . S
C338 C340 1.417 . S
C338 C342 1.432 . S
C338 C350 1.410 . S
C339 C341 1.444 . S
C339 C342 1.317 . S
C339 H362 0.929 . S
C340 C337 1.432 . S
C340 C338 1.417 . S
C340 N348 1.360 . S
C341 C337 1.414 . S
C341 C339 1.444 . S
C341 C346 1.385 . S
C342 C338 1.432 . S
C342 C339 1.317 . S
C342 H354 0.930 . S
C343 C345 1.392 . S
C343 C346 1.370 . S
C343 H355 0.931 . S
N344 C337 1.359 . S
N344 C345 1.327 . S
N344 Tb347 2.600 . S
C345 C343 1.392 . S
C345 N344 1.327 . S
C345 H352 0.930 . S
C346 C341 1.385 . S
C346 C343 1.370 . S
C346 H365 0.930 . S
Tb347 N344 2.600 . S
Tb347 N348 2.660 . S
Tb347 O381 2.362 . S
Tb347 O382 2.421 . S
Tb347 O386 2.546 . S
Tb347 O387 2.610 . S
Tb347 O389 2.320 . S
Tb347 O390 2.552 . S
Tb347 O391 2.413 . S
Tb347 C411 2.833 . S
N348 C340 1.360 . S
N348 Tb347 2.660 . S
N348 C349 1.305 . S
C349 N348 1.305 . S
C349 C351 1.407 . S
C349 H356 0.930 . S
C350 C338 1.410 . S
C350 C351 1.345 . S
C350 H358 0.930 . S
C351 C349 1.407 . S
C351 C350 1.345 . S
C351 H353 0.930 . S
H352 C345 0.930 . S
H353 C351 0.930 . S
H354 C342 0.930 . S
H355 C343 0.931 . S
H356 C349 0.930 . S
H357 C371 0.930 . S
H358 C350 0.930 . S
H359 C377 0.930 . S
H360 C368 0.930 . S
H361 C375 0.931 . S
H362 C339 0.929 . S
H363 C369 0.930 . S
H364 C402 0.930 . S
H365 C346 0.930 . S
H366 C401 0.929 . S
N367 Tb336 2.660 . S
N367 C368 1.305 . S
N367 C372 1.360 . S
C368 H360 0.930 . S
C368 N367 1.305 . S
C368 C371 1.407 . S
C369 H363 0.930 . S
C369 C370 1.410 . S
C369 C371 1.345 . S
C370 C369 1.410 . S
C370 C372 1.417 . S
C370 C402 1.432 . S
C371 H357 0.930 . S
C371 C368 1.407 . S
C371 C369 1.345 . S
C372 N367 1.360 . S
C372 C370 1.417 . S
C372 C376 1.432 . S
H373 C378 0.930 . S
N374 Tb336 2.600 . S
N374 C376 1.359 . S
N374 C377 1.327 . S
C375 H361 0.931 . S
C375 C377 1.392 . S
C375 C378 1.370 . S
C376 C372 1.432 . S
C376 N374 1.359 . S
C376 C379 1.414 . S
C377 H359 0.930 . S
C377 N374 1.327 . S
C377 C375 1.392 . S
C378 H373 0.930 . S
C378 C375 1.370 . S
C378 C379 1.385 . S
C379 C376 1.414 . S
C379 C378 1.385 . S
C379 C401 1.444 . S
O380 Tb336 2.546 . S
O380 C400 1.251 . S
O381 Tb336 2.610 . S
O381 Tb347 2.362 . S
O381 C392 1.283 . S
O382 Tb347 2.421 . S
O382 C399 1.262 . S
O383 Tb336 2.320 . S
O383 C399 1.260 . S
O384 Tb336 2.552 . S
O384 C392 1.243 . S
O385 Tb336 2.413 . S
O385 C400 1.256 . S
O386 Tb347 2.546 . S
O386 C411 1.251 . S
O387 Tb336 2.362 . S
O387 Tb347 2.610 . S
O387 C403 1.283 . S
O388 Tb336 2.421 . S
O388 C410 1.262 . S
O389 Tb347 2.320 . S
O389 C410 1.260 . S
O390 Tb347 2.552 . S
O390 C403 1.243 . S
O391 Tb347 2.413 . S
O391 C411 1.256 . S
C392 O381 1.283 . S
C392 O384 1.243 . S
C393 C395 1.382 1_554 S
C393 C397 1.393 1_554 S
C393 C400 1.500 . S
C394 C395 1.400 . S
C394 C396 1.384 . S
C395 C393 1.382 1_556 S
C395 C394 1.400 . S
C395 H412 0.930 1_556 S
C396 C394 1.384 . S
C396 C398 1.392 . S
C396 H413 0.931 . S
C397 C393 1.393 1_556 S
C397 C398 1.401 . S
C397 H414 0.930 1_556 S
C398 C396 1.392 . S
C398 C397 1.401 . S
C398 H415 0.930 . S
C399 O382 1.262 . S
C399 O383 1.260 . S
C400 Tb336 2.833 . S
C400 O380 1.251 . S
C400 O385 1.256 . S
C400 C393 1.500 . S
C401 H366 0.929 . S
C401 C379 1.444 . S
C401 C402 1.317 . S
C402 H364 0.930 . S
C402 C370 1.432 . S
C402 C401 1.317 . S
C403 O387 1.283 . S
C403 O390 1.243 . S
C404 C405 1.382 . S
C404 C408 1.393 . S
C404 C411 1.500 . S
C405 C404 1.382 . S
C405 C406 1.400 . S
C405 H416 0.930 . S
C406 C405 1.400 . S
C406 C407 1.384 . S
C407 C406 1.384 . S
C407 C409 1.392 . S
C407 H417 0.931 . S
C408 C404 1.393 . S
C408 C409 1.401 . S
C408 H418 0.930 . S
C409 C407 1.392 . S
C409 C408 1.401 . S
C409 H419 0.930 . S
C410 O388 1.262 . S
C410 O389 1.260 . S
C411 Tb347 2.833 . S
C411 O386 1.251 . S
C411 O391 1.256 . S
C411 C404 1.500 . S
H412 C395 0.930 1_554 S
H413 C396 0.931 . S
H414 C397 0.930 1_554 S
H415 C398 0.930 . S
H416 C405 0.930 . S
H417 C407 0.931 . S
H418 C408 0.930 . S
H419 C409 0.930 . S
Tb420 N451 2.660 . S
Tb420 N458 2.600 . S
Tb420 O464 2.546 . S
Tb420 O465 2.610 . S
Tb420 O467 2.320 . S
Tb420 O468 2.552 . S
Tb420 O469 2.413 . S
Tb420 O471 2.362 . S
Tb420 O472 2.421 . S
Tb420 C484 2.833 . S
C421 C424 1.432 . S
C421 C425 1.414 . S
C421 N428 1.359 . S
C422 C424 1.417 . S
C422 C426 1.432 . S
C422 C434 1.410 . S
C423 C425 1.444 . S
C423 C426 1.317 . S
C423 H446 0.929 . S
C424 C421 1.432 . S
C424 C422 1.417 . S
C424 N432 1.360 . S
C425 C421 1.414 . S
C425 C423 1.444 . S
C425 C430 1.385 . S
C426 C422 1.432 . S
C426 C423 1.317 . S
C426 H438 0.930 . S
C427 C429 1.392 . S
C427 C430 1.370 . S
C427 H439 0.931 . S
N428 C421 1.359 . S
N428 C429 1.327 . S
N428 Tb431 2.600 . S
C429 C427 1.392 . S
C429 N428 1.327 . S
C429 H436 0.930 . S
C430 C425 1.385 . S
C430 C427 1.370 . S
C430 H449 0.930 . S
Tb431 N428 2.600 . S
Tb431 N432 2.660 . S
Tb431 O465 2.362 . S
Tb431 O466 2.421 . S
Tb431 O470 2.546 . S
Tb431 O471 2.610 . S
Tb431 O473 2.320 . S
Tb431 O474 2.552 . S
Tb431 O475 2.413 . S
Tb431 C495 2.833 . S
N432 C424 1.360 . S
N432 Tb431 2.660 . S
N432 C433 1.305 . S
C433 N432 1.305 . S
C433 C435 1.407 . S
C433 H440 0.930 . S
C434 C422 1.410 . S
C434 C435 1.345 . S
C434 H442 0.930 . S
C435 C433 1.407 . S
C435 C434 1.345 . S
C435 H437 0.930 . S
H436 C429 0.930 . S
H437 C435 0.930 . S
H438 C426 0.930 . S
H439 C427 0.931 . S
H440 C433 0.930 . S
H441 C455 0.930 . S
H442 C434 0.930 . S
H443 C461 0.930 . S
H444 C452 0.930 . S
H445 C459 0.931 . S
H446 C423 0.929 . S
H447 C453 0.930 . S
H448 C486 0.930 . S
H449 C430 0.930 . S
H450 C485 0.929 . S
N451 Tb420 2.660 . S
N451 C452 1.305 . S
N451 C456 1.360 . S
C452 H444 0.930 . S
C452 N451 1.305 . S
C452 C455 1.407 . S
C453 H447 0.930 . S
C453 C454 1.410 . S
C453 C455 1.345 . S
C454 C453 1.410 . S
C454 C456 1.417 . S
C454 C486 1.432 . S
C455 H441 0.930 . S
C455 C452 1.407 . S
C455 C453 1.345 . S
C456 N451 1.360 . S
C456 C454 1.417 . S
C456 C460 1.432 . S
H457 C462 0.930 . S
N458 Tb420 2.600 . S
N458 C460 1.359 . S
N458 C461 1.327 . S
C459 H445 0.931 . S
C459 C461 1.392 . S
C459 C462 1.370 . S
C460 C456 1.432 . S
C460 N458 1.359 . S
C460 C463 1.414 . S
C461 H443 0.930 . S
C461 N458 1.327 . S
C461 C459 1.392 . S
C462 H457 0.930 . S
C462 C459 1.370 . S
C462 C463 1.385 . S
C463 C460 1.414 . S
C463 C462 1.385 . S
C463 C485 1.444 . S
O464 Tb420 2.546 . S
O464 C484 1.251 . S
O465 Tb420 2.610 . S
O465 Tb431 2.362 . S
O465 C476 1.283 . S
O466 Tb431 2.421 . S
O466 C483 1.262 . S
O467 Tb420 2.320 . S
O467 C483 1.260 . S
O468 Tb420 2.552 . S
O468 C476 1.243 . S
O469 Tb420 2.413 . S
O469 C484 1.256 . S
O470 Tb431 2.546 . S
O470 C495 1.251 . S
O471 Tb420 2.362 . S
O471 Tb431 2.610 . S
O471 C487 1.283 . S
O472 Tb420 2.421 . S
O472 C494 1.262 . S
O473 Tb431 2.320 . S
O473 C494 1.260 . S
O474 Tb431 2.552 . S
O474 C487 1.243 . S
O475 Tb431 2.413 . S
O475 C495 1.256 . S
C476 O465 1.283 . S
C476 O468 1.243 . S
C477 C479 1.382 1_556 S
C477 C481 1.393 1_556 S
C477 C484 1.500 . S
C478 C479 1.400 . S
C478 C480 1.384 . S
C479 C477 1.382 1_554 S
C479 C478 1.400 . S
C479 H496 0.930 1_554 S
C480 C478 1.384 . S
C480 C482 1.392 . S
C480 H497 0.931 . S
C481 C477 1.393 1_554 S
C481 C482 1.401 . S
C481 H498 0.930 1_554 S
C482 C480 1.392 . S
C482 C481 1.401 . S
C482 H499 0.930 . S
C483 O466 1.262 . S
C483 O467 1.260 . S
C484 Tb420 2.833 . S
C484 O464 1.251 . S
C484 O469 1.256 . S
C484 C477 1.500 . S
C485 H450 0.929 . S
C485 C463 1.444 . S
C485 C486 1.317 . S
C486 H448 0.930 . S
C486 C454 1.432 . S
C486 C485 1.317 . S
C487 O471 1.283 . S
C487 O474 1.243 . S
C488 C489 1.382 . S
C488 C492 1.393 . S
C488 C495 1.500 . S
C489 C488 1.382 . S
C489 C490 1.400 . S
C489 H500 0.930 . S
C490 C489 1.400 . S
C490 C491 1.384 . S
C491 C490 1.384 . S
C491 C493 1.392 . S
C491 H501 0.931 . S
C492 C488 1.393 . S
C492 C493 1.401 . S
C492 H502 0.930 . S
C493 C491 1.392 . S
C493 C492 1.401 . S
C493 H503 0.930 . S
C494 O472 1.262 . S
C494 O473 1.260 . S
C495 Tb431 2.833 . S
C495 O470 1.251 . S
C495 O475 1.256 . S
C495 C488 1.500 . S
H496 C479 0.930 1_556 S
H497 C480 0.931 . S
H498 C481 0.930 1_556 S
H499 C482 0.930 . S
H500 C489 0.930 . S
H501 C491 0.931 . S
H502 C492 0.930 . S
H503 C493 0.930 . S
Tb504 N535 2.660 . S
Tb504 N542 2.600 . S
Tb504 O548 2.546 . S
Tb504 O549 2.610 . S
Tb504 O551 2.320 . S
Tb504 O552 2.552 . S
Tb504 O553 2.413 . S
Tb504 O555 2.362 1_556 S
Tb504 O556 2.421 . S
Tb504 C568 2.833 . S
C505 C508 1.432 . S
C505 C509 1.414 . S
C505 N512 1.359 . S
C506 C508 1.417 . S
C506 C510 1.432 . S
C506 C518 1.410 . S
C507 C509 1.444 . S
C507 C510 1.317 . S
C507 H530 0.929 . S
C508 C505 1.432 . S
C508 C506 1.417 . S
C508 N516 1.360 . S
C509 C505 1.414 . S
C509 C507 1.444 . S
C509 C514 1.385 . S
C510 C506 1.432 . S
C510 C507 1.317 . S
C510 H522 0.930 . S
C511 C513 1.392 . S
C511 C514 1.370 . S
C511 H523 0.931 . S
N512 C505 1.359 . S
N512 C513 1.327 . S
N512 Tb515 2.600 . S
C513 C511 1.392 . S
C513 N512 1.327 . S
C513 H520 0.930 . S
C514 C509 1.385 . S
C514 C511 1.370 . S
C514 H533 0.930 . S
Tb515 N512 2.600 . S
Tb515 N516 2.660 . S
Tb515 O549 2.362 1_554 S
Tb515 O550 2.421 . S
Tb515 O554 2.546 . S
Tb515 O555 2.610 . S
Tb515 O557 2.320 . S
Tb515 O558 2.552 . S
Tb515 O559 2.413 . S
Tb515 C579 2.833 . S
N516 C508 1.360 . S
N516 Tb515 2.660 . S
N516 C517 1.305 . S
C517 N516 1.305 . S
C517 C519 1.407 . S
C517 H524 0.930 . S
C518 C506 1.410 . S
C518 C519 1.345 . S
C518 H526 0.930 . S
C519 C517 1.407 . S
C519 C518 1.345 . S
C519 H521 0.930 . S
H520 C513 0.930 . S
H521 C519 0.930 . S
H522 C510 0.930 . S
H523 C511 0.931 . S
H524 C517 0.930 . S
H525 C539 0.930 . S
H526 C518 0.930 . S
H527 C545 0.930 . S
H528 C536 0.930 . S
H529 C543 0.931 . S
H530 C507 0.929 . S
H531 C537 0.930 . S
H532 C570 0.930 . S
H533 C514 0.930 . S
H534 C569 0.929 . S
N535 Tb504 2.660 . S
N535 C536 1.305 . S
N535 C540 1.360 . S
C536 H528 0.930 . S
C536 N535 1.305 . S
C536 C539 1.407 . S
C537 H531 0.930 . S
C537 C538 1.410 . S
C537 C539 1.345 . S
C538 C537 1.410 . S
C538 C540 1.417 . S
C538 C570 1.432 . S
C539 H525 0.930 . S
C539 C536 1.407 . S
C539 C537 1.345 . S
C540 N535 1.360 . S
C540 C538 1.417 . S
C540 C544 1.432 . S
H541 C546 0.930 . S
N542 Tb504 2.600 . S
N542 C544 1.359 . S
N542 C545 1.327 . S
C543 H529 0.931 . S
C543 C545 1.392 . S
C543 C546 1.370 . S
C544 C540 1.432 . S
C544 N542 1.359 . S
C544 C547 1.414 . S
C545 H527 0.930 . S
C545 N542 1.327 . S
C545 C543 1.392 . S
C546 H541 0.930 . S
C546 C543 1.370 . S
C546 C547 1.385 . S
C547 C544 1.414 . S
C547 C546 1.385 . S
C547 C569 1.444 . S
O548 Tb504 2.546 . S
O548 C568 1.251 . S
O549 Tb504 2.610 . S
O549 Tb515 2.362 1_556 S
O549 C560 1.283 . S
O550 Tb515 2.421 . S
O550 C567 1.262 1_554 S
O551 Tb504 2.320 . S
O551 C567 1.260 . S
O552 Tb504 2.552 . S
O552 C560 1.243 . S
O553 Tb504 2.413 . S
O553 C568 1.256 . S
O554 Tb515 2.546 . S
O554 C579 1.251 . S
O555 Tb504 2.362 1_554 S
O555 Tb515 2.610 . S
O555 C571 1.283 . S
O556 Tb504 2.421 . S
O556 C578 1.262 1_556 S
O557 Tb515 2.320 . S
O557 C578 1.260 . S
O558 Tb515 2.552 . S
O558 C571 1.243 . S
O559 Tb515 2.413 . S
O559 C579 1.256 . S
C560 O549 1.283 . S
C560 O552 1.243 . S
C561 C563 1.382 . S
C561 C565 1.393 . S
C561 C568 1.500 . S
C562 C563 1.400 . S
C562 C564 1.384 . S
C563 C561 1.382 . S
C563 C562 1.400 . S
C563 H580 0.930 . S
C564 C562 1.384 . S
C564 C566 1.392 . S
C564 H581 0.931 . S
C565 C561 1.393 . S
C565 C566 1.401 . S
C565 H582 0.930 . S
C566 C564 1.392 . S
C566 C565 1.401 . S
C566 H583 0.930 . S
C567 O550 1.262 1_556 S
C567 O551 1.260 . S
C568 Tb504 2.833 . S
C568 O548 1.251 . S
C568 O553 1.256 . S
C568 C561 1.500 . S
C569 H534 0.929 . S
C569 C547 1.444 . S
C569 C570 1.317 . S
C570 H532 0.930 . S
C570 C538 1.432 . S
C570 C569 1.317 . S
C571 O555 1.283 . S
C571 O558 1.243 . S
C572 C573 1.382 . S
C572 C576 1.393 . S
C572 C579 1.500 . S
C573 C572 1.382 . S
C573 C574 1.400 . S
C573 H584 0.930 . S
C574 C573 1.400 . S
C574 C575 1.384 . S
C575 C574 1.384 . S
C575 C577 1.392 . S
C575 H585 0.931 . S
C576 C572 1.393 . S
C576 C577 1.401 . S
C576 H586 0.930 . S
C577 C575 1.392 . S
C577 C576 1.401 . S
C577 H587 0.930 . S
C578 O556 1.262 1_554 S
C578 O557 1.260 . S
C579 Tb515 2.833 . S
C579 O554 1.251 . S
C579 O559 1.256 . S
C579 C572 1.500 . S
H580 C563 0.930 . S
H581 C564 0.931 . S
H582 C565 0.930 . S
H583 C566 0.930 . S
H584 C573 0.930 . S
H585 C575 0.931 . S
H586 C576 0.930 . S
H587 C577 0.930 . S
Tb588 N619 2.659 1_655 S
Tb588 N626 2.600 1_655 S
Tb588 O632 2.546 . S
Tb588 O633 2.610 . S
Tb588 O635 2.319 1_655 S
Tb588 O636 2.552 . S
Tb588 O637 2.413 1_655 S
Tb588 O639 2.361 1_655 S
Tb588 O640 2.421 . S
Tb588 C652 2.833 . S
C589 C592 1.432 . S
C589 C593 1.414 . S
C589 N596 1.359 . S
C590 C592 1.417 . S
C590 C594 1.432 . S
C590 C602 1.410 . S
C591 C593 1.444 . S
C591 C594 1.317 . S
C591 H614 0.929 . S
C592 C589 1.432 . S
C592 C590 1.417 . S
C592 N600 1.360 . S
C593 C589 1.414 . S
C593 C591 1.444 . S
C593 C598 1.412 . S
C594 C590 1.432 . S
C594 C591 1.317 . S
C594 H606 0.930 . S
C595 C597 1.392 . S
C595 C598 1.343 1_455 S
C595 H607 0.931 . S
N596 C589 1.359 . S
N596 C597 1.327 1_655 S
N596 Tb599 2.600 1_655 S
C597 C595 1.392 . S
C597 N596 1.327 1_455 S
C597 H604 0.930 . S
C598 C593 1.412 . S
C598 C595 1.343 1_655 S
C598 H617 0.929 . S
Tb599 N596 2.600 1_455 S
Tb599 N600 2.652 1_455 S
Tb599 O633 2.359 1_455 S
Tb599 O634 2.427 . S
Tb599 O638 2.550 . S
Tb599 O639 2.612 . S
Tb599 O641 2.314 1_455 S
Tb599 O642 2.557 . S
Tb599 O643 2.412 1_455 S
Tb599 C663 2.834 . S
N600 C592 1.360 . S
N600 Tb599 2.652 1_655 S
N600 C601 1.305 . S
C601 N600 1.305 . S
C601 C603 1.407 . S
C601 H608 0.930 . S
C602 C590 1.410 . S
C602 C603 1.345 . S
C602 H610 0.930 . S
C603 C601 1.407 . S
C603 C602 1.345 . S
C603 H605 0.930 . S
H604 C597 0.930 . S
H605 C603 0.930 . S
H606 C594 0.930 . S
H607 C595 0.931 . S
H608 C601 0.930 . S
H609 C623 0.930 . S
H610 C602 0.930 . S
H611 C629 0.930 . S
H612 C620 0.930 . S
H613 C627 0.931 . S
H614 C591 0.929 . S
H615 C621 0.930 . S
H616 C654 0.930 . S
H617 C598 0.929 . S
H618 C653 0.929 . S
N619 Tb588 2.659 1_455 S
N619 C620 1.305 . S
N619 C624 1.360 . S
C620 H612 0.930 . S
C620 N619 1.305 . S
C620 C623 1.407 . S
C621 H615 0.930 . S
C621 C622 1.410 . S
C621 C623 1.345 . S
C622 C621 1.410 . S
C622 C624 1.417 . S
C622 C654 1.432 . S
C623 H609 0.930 . S
C623 C620 1.407 . S
C623 C621 1.345 . S
C624 N619 1.360 . S
C624 C622 1.417 . S
C624 C628 1.432 . S
H625 C630 0.930 . S
N626 Tb588 2.600 1_455 S
N626 C628 1.359 . S
N626 C629 1.327 1_455 S
C627 H613 0.931 . S
C627 C629 1.392 . S
C627 C630 1.370 1_655 S
C628 C624 1.432 . S
C628 N626 1.359 . S
C628 C631 1.414 . S
C629 H611 0.930 . S
C629 N626 1.327 1_655 S
C629 C627 1.392 . S
C630 H625 0.930 . S
C630 C627 1.370 1_455 S
C630 C631 1.385 . S
C631 C628 1.414 . S
C631 C630 1.385 . S
C631 C653 1.444 . S
O632 Tb588 2.546 . S
O632 C652 1.251 . S
O633 Tb588 2.610 . S
O633 Tb599 2.359 1_655 S
O633 C644 1.283 . S
O634 Tb599 2.427 . S
O634 C651 1.262 . S
O635 Tb588 2.319 1_455 S
O635 C651 1.260 . S
O636 Tb588 2.552 . S
O636 C644 1.243 . S
O637 Tb588 2.413 1_455 S
O637 C652 1.256 1_455 S
O638 Tb599 2.550 . S
O638 C663 1.251 . S
O639 Tb588 2.361 1_455 S
O639 Tb599 2.612 . S
O639 C655 1.283 . S
O640 Tb588 2.421 . S
O640 C662 1.262 . S
O641 Tb599 2.314 1_655 S
O641 C662 1.260 . S
O642 Tb599 2.557 . S
O642 C655 1.243 . S
O643 Tb599 2.412 1_655 S
O643 C663 1.256 1_655 S
C644 O633 1.283 . S
C644 O636 1.243 . S
C645 C647 1.382 . S
C645 C649 1.393 . S
C645 C652 1.500 . S
C646 C647 1.400 . S
C646 C648 1.384 . S
C647 C645 1.382 . S
C647 C646 1.400 . S
C647 H664 0.930 1_655 S
C648 C646 1.384 . S
C648 C650 1.392 . S
C648 H665 0.931 . S
C649 C645 1.393 . S
C649 C650 1.401 . S
C649 H666 0.930 . S
C650 C648 1.392 . S
C650 C649 1.401 . S
C650 H667 0.930 . S
C651 O634 1.262 . S
C651 O635 1.260 . S
C652 Tb588 2.833 . S
C652 O632 1.251 . S
C652 O637 1.256 1_655 S
C652 C645 1.500 . S
C653 H618 0.929 . S
C653 C631 1.444 . S
C653 C654 1.317 . S
C654 H616 0.930 . S
C654 C622 1.432 . S
C654 C653 1.317 . S
C655 O639 1.283 . S
C655 O642 1.243 . S
C656 C657 1.382 . S
C656 C660 1.393 . S
C656 C663 1.500 . S
C657 C656 1.382 . S
C657 C658 1.400 . S
C657 H668 0.930 1_455 S
C658 C657 1.400 . S
C658 C659 1.384 . S
C659 C658 1.384 . S
C659 C661 1.392 . S
C659 H669 0.931 . S
C660 C656 1.393 . S
C660 C661 1.401 . S
C660 H670 0.930 . S
C661 C659 1.392 . S
C661 C660 1.401 . S
C661 H671 0.930 . S
C662 O640 1.262 . S
C662 O641 1.260 . S
C663 Tb599 2.834 . S
C663 O638 1.251 . S
C663 O643 1.256 1_455 S
C663 C656 1.500 . S
H664 C647 0.930 1_455 S
H665 C648 0.931 . S
H666 C649 0.930 . S
H667 C650 0.930 . S
H668 C657 0.930 1_655 S
H669 C659 0.931 . S
H670 C660 0.930 . S
H671 C661 0.930 . S
H672 C678 0.930 . S
H673 C682 0.930 . S
H674 C687 0.929 . S
H675 C685 0.929 . S
H676 C680 0.929 . S
H677 C686 0.929 . S
C678 H672 0.930 . S
C678 C679 1.367 . S
C678 C686 1.378 . S
C679 C678 1.367 . S
C679 C687 1.433 . S
C680 H676 0.929 . S
C680 C682 1.378 . S
C680 C684 1.350 . S
C681 C684 1.463 . S
C681 C686 1.350 . S
C681 N689 1.427 . S
C682 H673 0.930 . S
C682 C680 1.378 . S
C682 C683 1.367 . S
C683 C682 1.367 . S
C683 C685 1.433 . S
C684 C680 1.350 . S
C684 C681 1.463 . S
C684 N688 1.427 . S
C685 H675 0.929 . S
C685 C683 1.433 . S
C685 N688 1.384 . S
C686 H677 0.929 . S
C686 C678 1.378 . S
C686 C681 1.350 . S
C687 H674 0.929 . S
C687 C679 1.433 . S
C687 N689 1.384 . S
N688 C684 1.427 . S
N688 C685 1.384 . S
N689 C681 1.427 . S
N689 C687 1.384 . S
H690 C696 0.930 . S
H691 C700 0.930 . S
H692 C705 0.929 . S
H693 C703 0.929 . S
H694 C698 0.929 . S
H695 C704 0.929 . S
C696 H690 0.930 . S
C696 C697 1.367 . S
C696 C704 1.378 . S
C697 C696 1.367 . S
C697 C705 1.433 . S
C698 H694 0.929 . S
C698 C700 1.378 . S
C698 C702 1.350 . S
C699 C702 1.463 . S
C699 C704 1.350 . S
C699 N707 1.427 . S
C700 H691 0.930 . S
C700 C698 1.378 . S
C700 C701 1.367 . S
C701 C700 1.367 . S
C701 C703 1.433 . S
C702 C698 1.350 . S
C702 C699 1.463 . S
C702 N706 1.427 . S
C703 H693 0.929 . S
C703 C701 1.433 . S
C703 N706 1.384 . S
C704 H695 0.929 . S
C704 C696 1.378 . S
C704 C699 1.350 . S
C705 H692 0.929 . S
C705 C697 1.433 . S
C705 N707 1.384 . S
N706 C702 1.427 . S
N706 C703 1.384 . S
N707 C699 1.427 . S
N707 C705 1.384 . S
H708 C714 0.930 . S
H709 C718 0.930 . S
H710 C723 0.929 . S
H711 C721 0.929 . S
H712 C716 0.929 . S
H713 C722 0.929 . S
C714 H708 0.930 . S
C714 C715 1.367 . S
C714 C722 1.378 . S
C715 C714 1.367 . S
C715 C723 1.433 . S
C716 H712 0.929 . S
C716 C718 1.378 . S
C716 C720 1.350 . S
C717 C720 1.463 . S
C717 C722 1.350 . S
C717 N725 1.427 . S
C718 H709 0.930 . S
C718 C716 1.378 . S
C718 C719 1.367 . S
C719 C718 1.367 . S
C719 C721 1.433 . S
C720 C716 1.350 . S
C720 C717 1.463 . S
C720 N724 1.427 . S
C721 H711 0.929 . S
C721 C719 1.433 . S
C721 N724 1.384 . S
C722 H713 0.929 . S
C722 C714 1.378 . S
C722 C717 1.350 . S
C723 H710 0.929 . S
C723 C715 1.433 . S
C723 N725 1.384 . S
N724 C720 1.427 . S
N724 C721 1.384 . S
N725 C717 1.427 . S
N725 C723 1.384 . S
H726 C732 0.930 . S
H727 C736 0.930 . S
H728 C741 0.929 . S
H729 C739 0.929 . S
H730 C734 0.929 . S
H731 C740 0.929 . S
C732 H726 0.930 . S
C732 C733 1.367 . S
C732 C740 1.378 . S
C733 C732 1.367 . S
C733 C741 1.433 . S
C734 H730 0.929 . S
C734 C736 1.378 . S
C734 C738 1.350 . S
C735 C738 1.463 . S
C735 C740 1.350 . S
C735 N743 1.427 . S
C736 H727 0.930 . S
C736 C734 1.378 . S
C736 C737 1.367 . S
C737 C736 1.367 . S
C737 C739 1.433 . S
C738 C734 1.350 . S
C738 C735 1.463 . S
C738 N742 1.427 . S
C739 H729 0.929 . S
C739 C737 1.433 . S
C739 N742 1.384 . S
C740 H731 0.929 . S
C740 C732 1.378 . S
C740 C735 1.350 . S
C741 H728 0.929 . S
C741 C733 1.433 . S
C741 N743 1.384 . S
N742 C738 1.427 . S
N742 C739 1.384 . S
N743 C735 1.427 . S
N743 C741 1.384 . S
H744 C750 0.930 . S
H745 C754 0.930 . S
H746 C759 0.929 . S
H747 C757 0.929 . S
H748 C752 0.929 . S
H749 C758 0.929 . S
C750 H744 0.930 . S
C750 C751 1.367 . S
C750 C758 1.378 . S
C751 C750 1.367 . S
C751 C759 1.433 . S
C752 H748 0.929 . S
C752 C754 1.378 . S
C752 C756 1.350 . S
C753 C756 1.463 . S
C753 C758 1.350 . S
C753 N761 1.427 . S
C754 H745 0.930 . S
C754 C752 1.378 . S
C754 C755 1.367 . S
C755 C754 1.367 . S
C755 C757 1.433 . S
C756 C752 1.350 . S
C756 C753 1.463 . S
C756 N760 1.427 . S
C757 H747 0.929 . S
C757 C755 1.433 . S
C757 N760 1.384 . S
C758 H749 0.929 . S
C758 C750 1.378 . S
C758 C753 1.350 . S
C759 H746 0.929 . S
C759 C751 1.433 . S
C759 N761 1.384 . S
N760 C756 1.427 . S
N760 C757 1.384 . S
N761 C753 1.427 . S
N761 C759 1.384 . S
H762 C768 0.930 . S
H763 C772 0.930 . S
H764 C777 0.929 . S
H765 C775 0.929 . S
H766 C770 0.929 . S
H767 C776 0.929 . S
C768 H762 0.930 . S
C768 C769 1.367 . S
C768 C776 1.378 . S
C769 C768 1.367 . S
C769 C777 1.433 . S
C770 H766 0.929 . S
C770 C772 1.378 . S
C770 C774 1.350 . S
C771 C774 1.463 . S
C771 C776 1.350 . S
C771 N779 1.427 . S
C772 H763 0.930 . S
C772 C770 1.378 . S
C772 C773 1.367 . S
C773 C772 1.367 . S
C773 C775 1.433 . S
C774 C770 1.350 . S
C774 C771 1.463 . S
C774 N778 1.427 . S
C775 H765 0.929 . S
C775 C773 1.433 . S
C775 N778 1.384 . S
C776 H767 0.929 . S
C776 C768 1.378 . S
C776 C771 1.350 . S
C777 H764 0.929 . S
C777 C769 1.433 . S
C777 N779 1.384 . S
N778 C774 1.427 . S
N778 C775 1.384 . S
N779 C771 1.427 . S
N779 C777 1.384 . S
H780 C786 0.930 . S
H781 C790 0.930 . S
H782 C795 0.929 . S
H783 C793 0.929 . S
H784 C788 0.929 . S
H785 C794 0.929 . S
C786 H780 0.930 . S
C786 C787 1.367 . S
C786 C794 1.378 . S
C787 C786 1.367 . S
C787 C795 1.433 . S
C788 H784 0.929 . S
C788 C790 1.378 . S
C788 C792 1.350 . S
C789 C792 1.463 . S
C789 C794 1.350 . S
C789 N797 1.427 . S
C790 H781 0.930 . S
C790 C788 1.378 . S
C790 C791 1.367 . S
C791 C790 1.367 . S
C791 C793 1.433 . S
C792 C788 1.350 . S
C792 C789 1.463 . S
C792 N796 1.427 . S
C793 H783 0.929 . S
C793 C791 1.433 . S
C793 N796 1.384 . S
C794 H785 0.929 . S
C794 C786 1.378 . S
C794 C789 1.350 . S
C795 H782 0.929 . S
C795 C787 1.433 . S
C795 N797 1.384 . S
N796 C792 1.427 . S
N796 C793 1.384 . S
N797 C789 1.427 . S
N797 C795 1.384 . S
H798 C804 0.930 . S
H799 C808 0.930 . S
H800 C813 0.929 . S
H801 C811 0.929 . S
H802 C806 0.929 . S
H803 C812 0.929 . S
C804 H798 0.930 . S
C804 C805 1.367 . S
C804 C812 1.378 . S
C805 C804 1.367 . S
C805 C813 1.433 . S
C806 H802 0.929 . S
C806 C808 1.378 . S
C806 C810 1.350 . S
C807 C810 1.463 . S
C807 C812 1.350 . S
C807 N815 1.427 . S
C808 H799 0.930 . S
C808 C806 1.378 . S
C808 C809 1.367 . S
C809 C808 1.367 . S
C809 C811 1.433 . S
C810 C806 1.350 . S
C810 C807 1.463 . S
C810 N814 1.427 . S
C811 H801 0.929 . S
C811 C809 1.433 . S
C811 N814 1.384 . S
C812 H803 0.929 . S
C812 C804 1.378 . S
C812 C807 1.350 . S
C813 H800 0.929 . S
C813 C805 1.433 . S
C813 N815 1.384 . S
N814 C810 1.427 . S
N814 C811 1.384 . S
N815 C807 1.427 . S
N815 C813 1.384 . S
H816 C822 0.930 . S
H817 C826 0.930 . S
H818 C831 0.929 . S
H819 C829 0.929 . S
H820 C824 0.929 . S
H821 C830 0.929 . S
C822 H816 0.930 . S
C822 C823 1.367 . S
C822 C830 1.378 . S
C823 C822 1.367 . S
C823 C831 1.433 . S
C824 H820 0.929 . S
C824 C826 1.378 . S
C824 C828 1.350 . S
C825 C828 1.463 . S
C825 C830 1.350 . S
C825 N833 1.427 . S
C826 H817 0.930 . S
C826 C824 1.378 . S
C826 C827 1.367 . S
C827 C826 1.367 . S
C827 C829 1.433 . S
C828 C824 1.350 . S
C828 C825 1.463 . S
C828 N832 1.427 . S
C829 H819 0.929 . S
C829 C827 1.433 . S
C829 N832 1.384 . S
C830 H821 0.929 . S
C830 C822 1.378 . S
C830 C825 1.350 . S
C831 H818 0.929 . S
C831 C823 1.433 . S
C831 N833 1.384 . S
N832 C828 1.427 . S
N832 C829 1.384 . S
N833 C825 1.427 . S
N833 C831 1.384 . S
H834 C840 0.930 . S
H835 C844 0.930 . S
H836 C849 0.929 . S
H837 C847 0.929 . S
H838 C842 0.929 . S
H839 C848 0.929 . S
C840 H834 0.930 . S
C840 C841 1.367 . S
C840 C848 1.378 . S
C841 C840 1.367 . S
C841 C849 1.433 . S
C842 H838 0.929 . S
C842 C844 1.378 . S
C842 C846 1.350 . S
C843 C846 1.463 . S
C843 C848 1.350 . S
C843 N851 1.427 . S
C844 H835 0.930 . S
C844 C842 1.378 . S
C844 C845 1.367 . S
C845 C844 1.367 . S
C845 C847 1.433 . S
C846 C842 1.350 . S
C846 C843 1.463 . S
C846 N850 1.427 . S
C847 H837 0.929 . S
C847 C845 1.433 . S
C847 N850 1.384 . S
C848 H839 0.929 . S
C848 C840 1.378 . S
C848 C843 1.350 . S
C849 H836 0.929 . S
C849 C841 1.433 . S
C849 N851 1.384 . S
N850 C846 1.427 . S
N850 C847 1.384 . S
N851 C843 1.427 . S
N851 C849 1.384 . S
H852 C858 0.930 . S
H853 C862 0.930 . S
H854 C867 0.929 . S
H855 C865 0.929 . S
H856 C860 0.929 . S
H857 C866 0.929 . S
C858 H852 0.930 . S
C858 C859 1.367 . S
C858 C866 1.378 . S
C859 C858 1.367 . S
C859 C867 1.433 . S
C860 H856 0.929 . S
C860 C862 1.378 . S
C860 C864 1.350 . S
C861 C864 1.463 . S
C861 C866 1.350 . S
C861 N869 1.427 . S
C862 H853 0.930 . S
C862 C860 1.378 . S
C862 C863 1.367 . S
C863 C862 1.367 . S
C863 C865 1.433 . S
C864 C860 1.350 . S
C864 C861 1.463 . S
C864 N868 1.427 . S
C865 H855 0.929 . S
C865 C863 1.433 . S
C865 N868 1.384 . S
C866 H857 0.929 . S
C866 C858 1.378 . S
C866 C861 1.350 . S
C867 H854 0.929 . S
C867 C859 1.433 . S
C867 N869 1.384 . S
N868 C864 1.427 . S
N868 C865 1.384 . S
N869 C861 1.427 . S
N869 C867 1.384 . S
H870 C876 0.930 . S
H871 C880 0.930 . S
H872 C885 0.929 . S
H873 C883 0.929 . S
H874 C878 0.929 . S
H875 C884 0.929 . S
C876 H870 0.930 . S
C876 C877 1.367 . S
C876 C884 1.378 . S
C877 C876 1.367 . S
C877 C885 1.433 . S
C878 H874 0.929 . S
C878 C880 1.378 . S
C878 C882 1.350 . S
C879 C882 1.463 . S
C879 C884 1.350 . S
C879 N887 1.427 . S
C880 H871 0.930 . S
C880 C878 1.378 . S
C880 C881 1.367 . S
C881 C880 1.367 . S
C881 C883 1.433 . S
C882 C878 1.350 . S
C882 C879 1.463 . S
C882 N886 1.427 . S
C883 H873 0.929 . S
C883 C881 1.433 . S
C883 N886 1.384 . S
C884 H875 0.929 . S
C884 C876 1.378 . S
C884 C879 1.350 . S
C885 H872 0.929 . S
C885 C877 1.433 . S
C885 N887 1.384 . S
N886 C882 1.427 . S
N886 C883 1.384 . S
N887 C879 1.427 . S
N887 C885 1.384 . S
H888 C894 0.930 . S
H889 C898 0.930 . S
H890 C903 0.929 . S
H891 C901 0.929 . S
H892 C896 0.929 . S
H893 C902 0.929 . S
C894 H888 0.930 . S
C894 C895 1.367 . S
C894 C902 1.378 . S
C895 C894 1.367 . S
C895 C903 1.433 . S
C896 H892 0.929 . S
C896 C898 1.378 . S
C896 C900 1.350 . S
C897 C900 1.463 . S
C897 C902 1.350 . S
C897 N905 1.427 . S
C898 H889 0.930 . S
C898 C896 1.378 . S
C898 C899 1.367 . S
C899 C898 1.367 . S
C899 C901 1.433 . S
C900 C896 1.350 . S
C900 C897 1.463 . S
C900 N904 1.427 . S
C901 H891 0.929 . S
C901 C899 1.433 . S
C901 N904 1.384 . S
C902 H893 0.929 . S
C902 C894 1.378 . S
C902 C897 1.350 . S
C903 H890 0.929 . S
C903 C895 1.433 . S
C903 N905 1.384 . S
N904 C900 1.427 . S
N904 C901 1.384 . S
N905 C897 1.427 . S
N905 C903 1.384 . S
H906 C912 0.930 . S
H907 C916 0.930 . S
H908 C921 0.929 . S
H909 C919 0.929 . S
H910 C914 0.929 . S
H911 C920 0.929 . S
C912 H906 0.930 . S
C912 C913 1.367 . S
C912 C920 1.378 . S
C913 C912 1.367 . S
C913 C921 1.433 . S
C914 H910 0.929 . S
C914 C916 1.378 . S
C914 C918 1.350 . S
C915 C918 1.463 . S
C915 C920 1.350 . S
C915 N923 1.427 . S
C916 H907 0.930 . S
C916 C914 1.378 . S
C916 C917 1.367 . S
C917 C916 1.367 . S
C917 C919 1.433 . S
C918 C914 1.350 . S
C918 C915 1.463 . S
C918 N922 1.427 . S
C919 H909 0.929 . S
C919 C917 1.433 . S
C919 N922 1.384 . S
C920 H911 0.929 . S
C920 C912 1.378 . S
C920 C915 1.350 . S
C921 H908 0.929 . S
C921 C913 1.433 . S
C921 N923 1.384 . S
N922 C918 1.427 . S
N922 C919 1.384 . S
N923 C915 1.427 . S
N923 C921 1.384 . S
H924 C930 0.930 . S
H925 C934 0.930 . S
H926 C939 0.929 . S
H927 C937 0.929 . S
H928 C932 0.929 . S
H929 C938 0.929 . S
C930 H924 0.930 . S
C930 C931 1.367 . S
C930 C938 1.378 . S
C931 C930 1.367 . S
C931 C939 1.433 . S
C932 H928 0.929 . S
C932 C934 1.378 . S
C932 C936 1.350 . S
C933 C936 1.463 . S
C933 C938 1.350 . S
C933 N941 1.427 . S
C934 H925 0.930 . S
C934 C932 1.378 . S
C934 C935 1.367 . S
C935 C934 1.367 . S
C935 C937 1.433 . S
C936 C932 1.350 . S
C936 C933 1.463 . S
C936 N940 1.427 . S
C937 H927 0.929 . S
C937 C935 1.433 . S
C937 N940 1.384 . S
C938 H929 0.929 . S
C938 C930 1.378 . S
C938 C933 1.350 . S
C939 H926 0.929 . S
C939 C931 1.433 . S
C939 N941 1.384 . S
N940 C936 1.427 . S
N940 C937 1.384 . S
N941 C933 1.427 . S
N941 C939 1.384 . S
H942 C948 0.930 . S
H943 C952 0.930 . S
H944 C957 0.929 . S
H945 C955 0.929 . S
H946 C950 0.929 . S
H947 C956 0.929 . S
C948 H942 0.930 . S
C948 C949 1.367 . S
C948 C956 1.378 . S
C949 C948 1.367 . S
C949 C957 1.433 . S
C950 H946 0.929 . S
C950 C952 1.378 . S
C950 C954 1.350 . S
C951 C954 1.463 . S
C951 C956 1.350 . S
C951 N959 1.427 . S
C952 H943 0.930 . S
C952 C950 1.378 . S
C952 C953 1.367 . S
C953 C952 1.367 . S
C953 C955 1.433 . S
C954 C950 1.350 . S
C954 C951 1.463 . S
C954 N958 1.427 . S
C955 H945 0.929 . S
C955 C953 1.433 . S
C955 N958 1.384 . S
C956 H947 0.929 . S
C956 C948 1.378 . S
C956 C951 1.350 . S
C957 H944 0.929 . S
C957 C949 1.433 . S
C957 N959 1.384 . S
N958 C954 1.427 . S
N958 C955 1.384 . S
N959 C951 1.427 . S
N959 C957 1.384 . S
H960 C966 0.930 . S
H961 C970 0.930 . S
H962 C975 0.929 . S
H963 C973 0.929 . S
H964 C968 0.929 . S
H965 C974 0.929 . S
C966 H960 0.930 . S
C966 C967 1.367 1_545 S
C966 C974 1.378 . S
C967 C966 1.367 1_565 S
C967 C975 1.433 1_655 S
C968 H964 0.929 . S
C968 C970 1.378 . S
C968 C972 1.351 . S
C969 C972 1.462 1_646 S
C969 C974 1.355 . S
C969 N977 1.422 1_645 S
C970 H961 0.930 . S
C970 C968 1.378 . S
C970 C971 1.367 1_565 S
C971 C970 1.367 1_545 S
C971 C973 1.433 1_455 S
C972 C968 1.351 . S
C972 C969 1.462 1_464 S
C972 N976 1.426 1_465 S
C973 H963 0.929 . S
C973 C971 1.433 1_655 S
C973 N976 1.384 . S
C974 H965 0.929 . S
C974 C966 1.378 . S
C974 C969 1.355 . S
C975 H962 0.929 . S
C975 C967 1.433 1_455 S
C975 N977 1.384 . S
N976 C972 1.426 1_645 S
N976 C973 1.384 . S
N977 C969 1.422 1_465 S
N977 C975 1.384 . S
H978 C984 0.930 . S
H979 C988 0.930 . S
H980 C993 0.929 . S
H981 C991 0.929 . S
H982 C986 0.929 . S
H983 C992 0.929 . S
C984 H978 0.930 . S
C984 C985 1.367 . S
C984 C992 1.378 . S
C985 C984 1.367 . S
C985 C993 1.433 . S
C986 H982 0.929 . S
C986 C988 1.378 . S
C986 C990 1.350 . S
C987 C990 1.463 . S
C987 C992 1.350 . S
C987 N995 1.427 . S
C988 H979 0.930 . S
C988 C986 1.378 . S
C988 C989 1.367 . S
C989 C988 1.367 . S
C989 C991 1.433 . S
C990 C986 1.350 . S
C990 C987 1.463 . S
C990 N994 1.427 . S
C991 H981 0.929 . S
C991 C989 1.433 . S
C991 N994 1.384 . S
C992 H983 0.929 . S
C992 C984 1.378 . S
C992 C987 1.350 . S
C993 H980 0.929 . S
C993 C985 1.433 . S
C993 N995 1.384 . S
N994 C990 1.427 . S
N994 C991 1.384 . S
N995 C987 1.427 . S
N995 C993 1.384 . S
H996 C1002 0.930 . S
H997 C1006 0.930 . S
H998 C1011 0.929 . S
H999 C1009 0.929 . S
H1000 C1004 0.929 . S
H1001 C1010 0.929 . S
C1002 H996 0.930 . S
C1002 C1003 1.367 . S
C1002 C1010 1.378 . S
C1003 C1002 1.367 . S
C1003 C1011 1.433 1_565 S
C1004 H1000 0.929 . S
C1004 C1006 1.378 . S
C1004 C1008 1.350 . S
C1005 C1008 1.463 1_565 S
C1005 C1010 1.350 . S
C1005 N1013 1.427 1_565 S
C1006 H997 0.930 . S
C1006 C1004 1.378 . S
C1006 C1007 1.367 . S
C1007 C1006 1.367 . S
C1007 C1009 1.433 1_545 S
C1008 C1004 1.350 . S
C1008 C1005 1.463 1_545 S
C1008 N1012 1.427 1_545 S
C1009 H999 0.929 . S
C1009 C1007 1.433 1_565 S
C1009 N1012 1.384 . S
C1010 H1001 0.929 . S
C1010 C1002 1.378 . S
C1010 C1005 1.350 . S
C1011 H998 0.929 . S
C1011 C1003 1.433 1_545 S
C1011 N1013 1.384 . S
N1012 C1008 1.427 1_565 S
N1012 C1009 1.384 . S
N1013 C1005 1.427 1_545 S
N1013 C1011 1.384 . S
H1014 C1020 0.930 . S
H1015 C1024 0.930 . S
H1016 C1029 0.929 . S
H1017 C1027 0.929 . S
H1018 C1022 0.929 . S
H1019 C1028 0.929 . S
C1020 H1014 0.930 . S
C1020 C1021 1.367 . S
C1020 C1028 1.378 . S
C1021 C1020 1.367 . S
C1021 C1029 1.433 . S
C1022 H1018 0.929 . S
C1022 C1024 1.378 . S
C1022 C1026 1.350 . S
C1023 C1026 1.463 . S
C1023 C1028 1.350 . S
C1023 N1031 1.427 . S
C1024 H1015 0.930 . S
C1024 C1022 1.378 . S
C1024 C1025 1.367 . S
C1025 C1024 1.367 . S
C1025 C1027 1.433 . S
C1026 C1022 1.350 . S
C1026 C1023 1.463 . S
C1026 N1030 1.427 . S
C1027 H1017 0.929 . S
C1027 C1025 1.433 . S
C1027 N1030 1.384 . S
C1028 H1019 0.929 . S
C1028 C1020 1.378 . S
C1028 C1023 1.350 . S
C1029 H1016 0.929 . S
C1029 C1021 1.433 . S
C1029 N1031 1.384 . S
N1030 C1026 1.427 . S
N1030 C1027 1.384 . S
N1031 C1023 1.427 . S
N1031 C1029 1.384 . S
H1032 C1038 0.930 . S
H1033 C1042 0.930 . S
H1034 C1047 0.929 . S
H1035 C1045 0.929 . S
H1036 C1040 0.929 . S
H1037 C1046 0.929 . S
C1038 H1032 0.930 . S
C1038 C1039 1.367 . S
C1038 C1046 1.378 . S
C1039 C1038 1.367 . S
C1039 C1047 1.433 . S
C1040 H1036 0.929 . S
C1040 C1042 1.378 . S
C1040 C1044 1.350 . S
C1041 C1044 1.463 . S
C1041 C1046 1.350 . S
C1041 N1049 1.427 . S
C1042 H1033 0.930 . S
C1042 C1040 1.378 . S
C1042 C1043 1.367 . S
C1043 C1042 1.367 . S
C1043 C1045 1.433 . S
C1044 C1040 1.350 . S
C1044 C1041 1.463 . S
C1044 N1048 1.427 . S
C1045 H1035 0.929 . S
C1045 C1043 1.433 . S
C1045 N1048 1.384 . S
C1046 H1037 0.929 . S
C1046 C1038 1.378 . S
C1046 C1041 1.350 . S
C1047 H1034 0.929 . S
C1047 C1039 1.433 . S
C1047 N1049 1.384 . S
N1048 C1044 1.427 . S
N1048 C1045 1.384 . S
N1049 C1041 1.427 . S
N1049 C1047 1.384 . S
H1050 C1056 0.930 . S
H1051 C1060 0.930 . S
H1052 C1065 0.929 . S
H1053 C1063 0.929 . S
H1054 C1058 0.929 . S
H1055 C1064 0.929 . S
C1056 H1050 0.930 . S
C1056 C1057 1.367 . S
C1056 C1064 1.378 . S
C1057 C1056 1.367 . S
C1057 C1065 1.433 . S
C1058 H1054 0.929 . S
C1058 C1060 1.378 . S
C1058 C1062 1.350 . S
C1059 C1062 1.463 . S
C1059 C1064 1.350 . S
C1059 N1067 1.427 . S
C1060 H1051 0.930 . S
C1060 C1058 1.378 . S
C1060 C1061 1.367 . S
C1061 C1060 1.367 . S
C1061 C1063 1.433 . S
C1062 C1058 1.350 . S
C1062 C1059 1.463 . S
C1062 N1066 1.427 . S
C1063 H1053 0.929 . S
C1063 C1061 1.433 . S
C1063 N1066 1.384 . S
C1064 H1055 0.929 . S
C1064 C1056 1.378 . S
C1064 C1059 1.350 . S
C1065 H1052 0.929 . S
C1065 C1057 1.433 . S
C1065 N1067 1.384 . S
N1066 C1062 1.427 . S
N1066 C1063 1.384 . S
N1067 C1059 1.427 . S
N1067 C1065 1.384 . S
H1068 C1074 0.930 . S
H1069 C1078 0.930 . S
H1070 C1083 0.929 . S
H1071 C1081 0.929 . S
H1072 C1076 0.929 . S
H1073 C1082 0.929 . S
C1074 H1068 0.930 . S
C1074 C1075 1.367 . S
C1074 C1082 1.378 . S
C1075 C1074 1.367 . S
C1075 C1083 1.433 . S
C1076 H1072 0.929 . S
C1076 C1078 1.378 . S
C1076 C1080 1.350 . S
C1077 C1080 1.463 . S
C1077 C1082 1.350 . S
C1077 N1085 1.427 . S
C1078 H1069 0.930 . S
C1078 C1076 1.378 . S
C1078 C1079 1.367 . S
C1079 C1078 1.367 . S
C1079 C1081 1.433 . S
C1080 C1076 1.350 . S
C1080 C1077 1.463 . S
C1080 N1084 1.427 . S
C1081 H1071 0.929 . S
C1081 C1079 1.433 . S
C1081 N1084 1.384 . S
C1082 H1073 0.929 . S
C1082 C1074 1.378 . S
C1082 C1077 1.350 . S
C1083 H1070 0.929 . S
C1083 C1075 1.433 . S
C1083 N1085 1.384 . S
N1084 C1080 1.427 . S
N1084 C1081 1.384 . S
N1085 C1077 1.427 . S
N1085 C1083 1.384 . S
H1086 C1092 0.930 . S
H1087 C1096 0.930 . S
H1088 C1101 0.929 . S
H1089 C1099 0.929 . S
H1090 C1094 0.929 . S
H1091 C1100 0.929 . S
C1092 H1086 0.930 . S
C1092 C1093 1.367 . S
C1092 C1100 1.378 . S
C1093 C1092 1.367 . S
C1093 C1101 1.433 1_655 S
C1094 H1090 0.929 . S
C1094 C1096 1.378 . S
C1094 C1098 1.350 . S
C1095 C1098 1.463 1_656 S
C1095 C1100 1.350 . S
C1095 N1103 1.427 1_655 S
C1096 H1087 0.930 . S
C1096 C1094 1.378 . S
C1096 C1097 1.367 . S
C1097 C1096 1.367 . S
C1097 C1099 1.433 1_455 S
C1098 C1094 1.350 . S
C1098 C1095 1.463 1_454 S
C1098 N1102 1.427 1_455 S
C1099 H1089 0.929 . S
C1099 C1097 1.433 1_655 S
C1099 N1102 1.384 . S
C1100 H1091 0.929 . S
C1100 C1092 1.378 . S
C1100 C1095 1.350 . S
C1101 H1088 0.929 . S
C1101 C1093 1.433 1_455 S
C1101 N1103 1.384 . S
N1102 C1098 1.427 1_655 S
N1102 C1099 1.384 . S
N1103 C1095 1.427 1_455 S
N1103 C1101 1.384 . S
C679 C56 1.602 . S
C683 C308 1.592 . S
C697 C74 1.474 . S
C701 C140 1.442 . S
C715 C158 1.328 . S
C719 C242 1.321 . S
C733 C224 1.442 . S
C737 C326 1.471 . S
C751 C67 1.601 . S
C755 C487 1.604 . S
C769 C63 1.476 . S
C773 C403 1.443 . S
C787 C399 1.325 . S
C791 C231 1.311 . S
C805 C483 1.476 . S
C809 C235 1.444 . S
C823 C560 1.591 . S
C827 C476 1.589 . S
C841 C392 1.450 . S
C845 C578 1.469 . S
C859 C662 1.324 . S
C863 C410 1.330 . S
C877 C494 1.467 . S
C881 C644 1.456 . S
C895 C319 1.601 . S
C899 C571 1.598 . S
C913 C567 1.470 . S
C917 C151 1.451 . S
C931 C147 1.319 . S
C935 C651 1.327 . S
C949 C315 1.469 . S
C953 C655 1.446 . S
C967 C70 1.404 1_565 S
C971 C58 1.404 1_545 S
C985 C142 1.403 . S
C989 C154 1.403 . S
C1003 C238 1.416 1_565 S
C1007 C226 1.416 1_545 S
C1021 C322 1.404 . S
C1025 C310 1.404 . S
C1039 C394 1.419 . S
C1043 C406 1.419 . S
C1057 C490 1.408 . S
C1061 C478 1.408 . S
C1075 C562 1.426 . S
C1079 C574 1.426 . S
C1093 C646 1.401 . S
C1097 C658 1.401 . S
